# Generated by pormake.
# Topology fch, (5)-cn, num edge types: 1
# Building blocks:
#     Node 0, Type 0, BuildingBlock: XOMCOT_clean_sbu_1, # of connection points: 5
#     Node 1, Type 0, BuildingBlock: XOMCOT_clean_sbu_1, # of connection points: 5
#     Node 2, Type 0, BuildingBlock: XOMCOT_clean_sbu_1, # of connection points: 5
#     Node 3, Type 0, BuildingBlock: XOMCOT_clean_sbu_1, # of connection points: 5
#     Node 4, Type 0, BuildingBlock: XOMCOT_clean_sbu_1, # of connection points: 5
#     Node 5, Type 0, BuildingBlock: XOMCOT_clean_sbu_1, # of connection points: 5
#     Node 6, Type 0, BuildingBlock: XOMCOT_clean_sbu_1, # of connection points: 5
#     Node 7, Type 0, BuildingBlock: XOMCOT_clean_sbu_1, # of connection points: 5
#     Node 8, Type 0, BuildingBlock: XOMCOT_clean_sbu_1, # of connection points: 5
#     Node 9, Type 0, BuildingBlock: XOMCOT_clean_sbu_1, # of connection points: 5
#     Node 10, Type 0, BuildingBlock: XOMCOT_clean_sbu_1, # of connection points: 5
#     Node 11, Type 0, BuildingBlock: XOMCOT_clean_sbu_1, # of connection points: 5
#     Node 12, Type 0, BuildingBlock: XOMCOT_clean_sbu_1, # of connection points: 5
#     Node 13, Type 0, BuildingBlock: XOMCOT_clean_sbu_1, # of connection points: 5
#     Node 14, Type 0, BuildingBlock: XOMCOT_clean_sbu_1, # of connection points: 5
#     Node 15, Type 0, BuildingBlock: XOMCOT_clean_sbu_1, # of connection points: 5
#     Node 16, Type 0, BuildingBlock: XOMCOT_clean_sbu_1, # of connection points: 5
#     Node 17, Type 0, BuildingBlock: XOMCOT_clean_sbu_1, # of connection points: 5
#     Node 18, Type 0, BuildingBlock: XOMCOT_clean_sbu_1, # of connection points: 5
#     Node 19, Type 0, BuildingBlock: XOMCOT_clean_sbu_1, # of connection points: 5
#     Node 20, Type 0, BuildingBlock: XOMCOT_clean_sbu_1, # of connection points: 5
#     Node 21, Type 0, BuildingBlock: XOMCOT_clean_sbu_1, # of connection points: 5
#     Node 22, Type 0, BuildingBlock: XOMCOT_clean_sbu_1, # of connection points: 5
#     Node 23, Type 0, BuildingBlock: XOMCOT_clean_sbu_1, # of connection points: 5
#     Node 24, Type 0, BuildingBlock: XOMCOT_clean_sbu_1, # of connection points: 5
#     Node 25, Type 0, BuildingBlock: XOMCOT_clean_sbu_1, # of connection points: 5
#     Node 26, Type 0, BuildingBlock: XOMCOT_clean_sbu_1, # of connection points: 5
#     Node 27, Type 0, BuildingBlock: XOMCOT_clean_sbu_1, # of connection points: 5
#     Node 28, Type 0, BuildingBlock: XOMCOT_clean_sbu_1, # of connection points: 5
#     Node 29, Type 0, BuildingBlock: XOMCOT_clean_sbu_1, # of connection points: 5
#     Node 30, Type 0, BuildingBlock: XOMCOT_clean_sbu_1, # of connection points: 5
#     Node 31, Type 0, BuildingBlock: XOMCOT_clean_sbu_1, # of connection points: 5
#     Node 32, Type 0, BuildingBlock: XOMCOT_clean_sbu_1, # of connection points: 5
#     Node 33, Type 0, BuildingBlock: XOMCOT_clean_sbu_1, # of connection points: 5
#     Node 34, Type 0, BuildingBlock: XOMCOT_clean_sbu_1, # of connection points: 5
#     Node 35, Type 0, BuildingBlock: XOMCOT_clean_sbu_1, # of connection points: 5
#     Node 36, Type 0, BuildingBlock: XOMCOT_clean_sbu_1, # of connection points: 5
#     Node 37, Type 0, BuildingBlock: XOMCOT_clean_sbu_1, # of connection points: 5
#     Node 38, Type 0, BuildingBlock: XOMCOT_clean_sbu_1, # of connection points: 5
#     Node 39, Type 0, BuildingBlock: XOMCOT_clean_sbu_1, # of connection points: 5
#     Node 40, Type 0, BuildingBlock: XOMCOT_clean_sbu_1, # of connection points: 5
#     Node 41, Type 0, BuildingBlock: XOMCOT_clean_sbu_1, # of connection points: 5
#     Node 42, Type 0, BuildingBlock: XOMCOT_clean_sbu_1, # of connection points: 5
#     Node 43, Type 0, BuildingBlock: XOMCOT_clean_sbu_1, # of connection points: 5
#     Node 44, Type 0, BuildingBlock: XOMCOT_clean_sbu_1, # of connection points: 5
#     Node 45, Type 0, BuildingBlock: XOMCOT_clean_sbu_1, # of connection points: 5
#     Node 46, Type 0, BuildingBlock: XOMCOT_clean_sbu_1, # of connection points: 5
#     Node 47, Type 0, BuildingBlock: XOMCOT_clean_sbu_1, # of connection points: 5
#     Edge 48, Type (0, 0), BuildingBlock: XUDNAN_clean_linker_2, # of connection points: 2
#     Edge 49, Type (0, 0), BuildingBlock: XUDNAN_clean_linker_2, # of connection points: 2
#     Edge 50, Type (0, 0), BuildingBlock: XUDNAN_clean_linker_2, # of connection points: 2
#     Edge 51, Type (0, 0), BuildingBlock: XUDNAN_clean_linker_2, # of connection points: 2
#     Edge 52, Type (0, 0), BuildingBlock: XUDNAN_clean_linker_2, # of connection points: 2
#     Edge 53, Type (0, 0), BuildingBlock: XUDNAN_clean_linker_2, # of connection points: 2
#     Edge 54, Type (0, 0), BuildingBlock: XUDNAN_clean_linker_2, # of connection points: 2
#     Edge 55, Type (0, 0), BuildingBlock: XUDNAN_clean_linker_2, # of connection points: 2
#     Edge 56, Type (0, 0), BuildingBlock: XUDNAN_clean_linker_2, # of connection points: 2
#     Edge 57, Type (0, 0), BuildingBlock: XUDNAN_clean_linker_2, # of connection points: 2
#     Edge 58, Type (0, 0), BuildingBlock: XUDNAN_clean_linker_2, # of connection points: 2
#     Edge 59, Type (0, 0), BuildingBlock: XUDNAN_clean_linker_2, # of connection points: 2
#     Edge 60, Type (0, 0), BuildingBlock: XUDNAN_clean_linker_2, # of connection points: 2
#     Edge 61, Type (0, 0), BuildingBlock: XUDNAN_clean_linker_2, # of connection points: 2
#     Edge 62, Type (0, 0), BuildingBlock: XUDNAN_clean_linker_2, # of connection points: 2
#     Edge 63, Type (0, 0), BuildingBlock: XUDNAN_clean_linker_2, # of connection points: 2
#     Edge 64, Type (0, 0), BuildingBlock: XUDNAN_clean_linker_2, # of connection points: 2
#     Edge 65, Type (0, 0), BuildingBlock: XUDNAN_clean_linker_2, # of connection points: 2
#     Edge 66, Type (0, 0), BuildingBlock: XUDNAN_clean_linker_2, # of connection points: 2
#     Edge 67, Type (0, 0), BuildingBlock: XUDNAN_clean_linker_2, # of connection points: 2
#     Edge 68, Type (0, 0), BuildingBlock: XUDNAN_clean_linker_2, # of connection points: 2
#     Edge 69, Type (0, 0), BuildingBlock: XUDNAN_clean_linker_2, # of connection points: 2
#     Edge 70, Type (0, 0), BuildingBlock: XUDNAN_clean_linker_2, # of connection points: 2
#     Edge 71, Type (0, 0), BuildingBlock: XUDNAN_clean_linker_2, # of connection points: 2
#     Edge 72, Type (0, 0), BuildingBlock: XUDNAN_clean_linker_2, # of connection points: 2
#     Edge 73, Type (0, 0), BuildingBlock: XUDNAN_clean_linker_2, # of connection points: 2
#     Edge 74, Type (0, 0), BuildingBlock: XUDNAN_clean_linker_2, # of connection points: 2
#     Edge 75, Type (0, 0), BuildingBlock: XUDNAN_clean_linker_2, # of connection points: 2
#     Edge 76, Type (0, 0), BuildingBlock: XUDNAN_clean_linker_2, # of connection points: 2
#     Edge 77, Type (0, 0), BuildingBlock: XUDNAN_clean_linker_2, # of connection points: 2
#     Edge 78, Type (0, 0), BuildingBlock: XUDNAN_clean_linker_2, # of connection points: 2
#     Edge 79, Type (0, 0), BuildingBlock: XUDNAN_clean_linker_2, # of connection points: 2
#     Edge 80, Type (0, 0), BuildingBlock: XUDNAN_clean_linker_2, # of connection points: 2
#     Edge 81, Type (0, 0), BuildingBlock: XUDNAN_clean_linker_2, # of connection points: 2
#     Edge 82, Type (0, 0), BuildingBlock: XUDNAN_clean_linker_2, # of connection points: 2
#     Edge 83, Type (0, 0), BuildingBlock: XUDNAN_clean_linker_2, # of connection points: 2
#     Edge 84, Type (0, 0), BuildingBlock: XUDNAN_clean_linker_2, # of connection points: 2
#     Edge 85, Type (0, 0), BuildingBlock: XUDNAN_clean_linker_2, # of connection points: 2
#     Edge 86, Type (0, 0), BuildingBlock: XUDNAN_clean_linker_2, # of connection points: 2
#     Edge 87, Type (0, 0), BuildingBlock: XUDNAN_clean_linker_2, # of connection points: 2
#     Edge 88, Type (0, 0), BuildingBlock: XUDNAN_clean_linker_2, # of connection points: 2
#     Edge 89, Type (0, 0), BuildingBlock: XUDNAN_clean_linker_2, # of connection points: 2
#     Edge 90, Type (0, 0), BuildingBlock: XUDNAN_clean_linker_2, # of connection points: 2
#     Edge 91, Type (0, 0), BuildingBlock: XUDNAN_clean_linker_2, # of connection points: 2
#     Edge 92, Type (0, 0), BuildingBlock: XUDNAN_clean_linker_2, # of connection points: 2
#     Edge 93, Type (0, 0), BuildingBlock: XUDNAN_clean_linker_2, # of connection points: 2
#     Edge 94, Type (0, 0), BuildingBlock: XUDNAN_clean_linker_2, # of connection points: 2
#     Edge 95, Type (0, 0), BuildingBlock: XUDNAN_clean_linker_2, # of connection points: 2
#     Edge 96, Type (0, 0), BuildingBlock: XUDNAN_clean_linker_2, # of connection points: 2
#     Edge 97, Type (0, 0), BuildingBlock: XUDNAN_clean_linker_2, # of connection points: 2
#     Edge 98, Type (0, 0), BuildingBlock: XUDNAN_clean_linker_2, # of connection points: 2
#     Edge 99, Type (0, 0), BuildingBlock: XUDNAN_clean_linker_2, # of connection points: 2
#     Edge 100, Type (0, 0), BuildingBlock: XUDNAN_clean_linker_2, # of connection points: 2
#     Edge 101, Type (0, 0), BuildingBlock: XUDNAN_clean_linker_2, # of connection points: 2
#     Edge 102, Type (0, 0), BuildingBlock: XUDNAN_clean_linker_2, # of connection points: 2
#     Edge 103, Type (0, 0), BuildingBlock: XUDNAN_clean_linker_2, # of connection points: 2
#     Edge 104, Type (0, 0), BuildingBlock: XUDNAN_clean_linker_2, # of connection points: 2
#     Edge 105, Type (0, 0), BuildingBlock: XUDNAN_clean_linker_2, # of connection points: 2
#     Edge 106, Type (0, 0), BuildingBlock: XUDNAN_clean_linker_2, # of connection points: 2
#     Edge 107, Type (0, 0), BuildingBlock: XUDNAN_clean_linker_2, # of connection points: 2
#     Edge 108, Type (0, 0), BuildingBlock: XUDNAN_clean_linker_2, # of connection points: 2
#     Edge 109, Type (0, 0), BuildingBlock: XUDNAN_clean_linker_2, # of connection points: 2
#     Edge 110, Type (0, 0), BuildingBlock: XUDNAN_clean_linker_2, # of connection points: 2
#     Edge 111, Type (0, 0), BuildingBlock: XUDNAN_clean_linker_2, # of connection points: 2
#     Edge 112, Type (0, 0), BuildingBlock: XUDNAN_clean_linker_2, # of connection points: 2
#     Edge 113, Type (0, 0), BuildingBlock: XUDNAN_clean_linker_2, # of connection points: 2
#     Edge 114, Type (0, 0), BuildingBlock: XUDNAN_clean_linker_2, # of connection points: 2
#     Edge 115, Type (0, 0), BuildingBlock: XUDNAN_clean_linker_2, # of connection points: 2
#     Edge 116, Type (0, 0), BuildingBlock: XUDNAN_clean_linker_2, # of connection points: 2
#     Edge 117, Type (0, 0), BuildingBlock: XUDNAN_clean_linker_2, # of connection points: 2
#     Edge 118, Type (0, 0), BuildingBlock: XUDNAN_clean_linker_2, # of connection points: 2
#     Edge 119, Type (0, 0), BuildingBlock: XUDNAN_clean_linker_2, # of connection points: 2
#     Edge 120, Type (0, 0), BuildingBlock: XUDNAN_clean_linker_2, # of connection points: 2
#     Edge 121, Type (0, 0), BuildingBlock: XUDNAN_clean_linker_2, # of connection points: 2
#     Edge 122, Type (0, 0), BuildingBlock: XUDNAN_clean_linker_2, # of connection points: 2
#     Edge 123, Type (0, 0), BuildingBlock: XUDNAN_clean_linker_2, # of connection points: 2
#     Edge 124, Type (0, 0), BuildingBlock: XUDNAN_clean_linker_2, # of connection points: 2
#     Edge 125, Type (0, 0), BuildingBlock: XUDNAN_clean_linker_2, # of connection points: 2
#     Edge 126, Type (0, 0), BuildingBlock: XUDNAN_clean_linker_2, # of connection points: 2
#     Edge 127, Type (0, 0), BuildingBlock: XUDNAN_clean_linker_2, # of connection points: 2
#     Edge 128, Type (0, 0), BuildingBlock: XUDNAN_clean_linker_2, # of connection points: 2
#     Edge 129, Type (0, 0), BuildingBlock: XUDNAN_clean_linker_2, # of connection points: 2
#     Edge 130, Type (0, 0), BuildingBlock: XUDNAN_clean_linker_2, # of connection points: 2
#     Edge 131, Type (0, 0), BuildingBlock: XUDNAN_clean_linker_2, # of connection points: 2
#     Edge 132, Type (0, 0), BuildingBlock: XUDNAN_clean_linker_2, # of connection points: 2
#     Edge 133, Type (0, 0), BuildingBlock: XUDNAN_clean_linker_2, # of connection points: 2
#     Edge 134, Type (0, 0), BuildingBlock: XUDNAN_clean_linker_2, # of connection points: 2
#     Edge 135, Type (0, 0), BuildingBlock: XUDNAN_clean_linker_2, # of connection points: 2
#     Edge 136, Type (0, 0), BuildingBlock: XUDNAN_clean_linker_2, # of connection points: 2
#     Edge 137, Type (0, 0), BuildingBlock: XUDNAN_clean_linker_2, # of connection points: 2
#     Edge 138, Type (0, 0), BuildingBlock: XUDNAN_clean_linker_2, # of connection points: 2
#     Edge 139, Type (0, 0), BuildingBlock: XUDNAN_clean_linker_2, # of connection points: 2
#     Edge 140, Type (0, 0), BuildingBlock: XUDNAN_clean_linker_2, # of connection points: 2
#     Edge 141, Type (0, 0), BuildingBlock: XUDNAN_clean_linker_2, # of connection points: 2
#     Edge 142, Type (0, 0), BuildingBlock: XUDNAN_clean_linker_2, # of connection points: 2
#     Edge 143, Type (0, 0), BuildingBlock: XUDNAN_clean_linker_2, # of connection points: 2
#     Edge 144, Type (0, 0), BuildingBlock: XUDNAN_clean_linker_2, # of connection points: 2
#     Edge 145, Type (0, 0), BuildingBlock: XUDNAN_clean_linker_2, # of connection points: 2
#     Edge 146, Type (0, 0), BuildingBlock: XUDNAN_clean_linker_2, # of connection points: 2
#     Edge 147, Type (0, 0), BuildingBlock: XUDNAN_clean_linker_2, # of connection points: 2
#     Edge 148, Type (0, 0), BuildingBlock: XUDNAN_clean_linker_2, # of connection points: 2
#     Edge 149, Type (0, 0), BuildingBlock: XUDNAN_clean_linker_2, # of connection points: 2
#     Edge 150, Type (0, 0), BuildingBlock: XUDNAN_clean_linker_2, # of connection points: 2
#     Edge 151, Type (0, 0), BuildingBlock: XUDNAN_clean_linker_2, # of connection points: 2
#     Edge 152, Type (0, 0), BuildingBlock: XUDNAN_clean_linker_2, # of connection points: 2
#     Edge 153, Type (0, 0), BuildingBlock: XUDNAN_clean_linker_2, # of connection points: 2
#     Edge 154, Type (0, 0), BuildingBlock: XUDNAN_clean_linker_2, # of connection points: 2
#     Edge 155, Type (0, 0), BuildingBlock: XUDNAN_clean_linker_2, # of connection points: 2
#     Edge 156, Type (0, 0), BuildingBlock: XUDNAN_clean_linker_2, # of connection points: 2
#     Edge 157, Type (0, 0), BuildingBlock: XUDNAN_clean_linker_2, # of connection points: 2
#     Edge 158, Type (0, 0), BuildingBlock: XUDNAN_clean_linker_2, # of connection points: 2
#     Edge 159, Type (0, 0), BuildingBlock: XUDNAN_clean_linker_2, # of connection points: 2
#     Edge 160, Type (0, 0), BuildingBlock: XUDNAN_clean_linker_2, # of connection points: 2
#     Edge 161, Type (0, 0), BuildingBlock: XUDNAN_clean_linker_2, # of connection points: 2
#     Edge 162, Type (0, 0), BuildingBlock: XUDNAN_clean_linker_2, # of connection points: 2
#     Edge 163, Type (0, 0), BuildingBlock: XUDNAN_clean_linker_2, # of connection points: 2
#     Edge 164, Type (0, 0), BuildingBlock: XUDNAN_clean_linker_2, # of connection points: 2
#     Edge 165, Type (0, 0), BuildingBlock: XUDNAN_clean_linker_2, # of connection points: 2
#     Edge 166, Type (0, 0), BuildingBlock: XUDNAN_clean_linker_2, # of connection points: 2
#     Edge 167, Type (0, 0), BuildingBlock: XUDNAN_clean_linker_2, # of connection points: 2
# Relax obj value: 0.576
# Max RMSD: 0.221
# Mean RMSD: 0.221
data_MOF--net-fch--node1-XOMCOT_clean_sbu_1--edge1-XUDNAN_clean_linker_2
_symmetry_space_group_name_H-M    P1
_symmetry_Int_Tables_number       1
_symmetry_cell_setting            triclinic
loop_
_symmetry_equiv_pos_as_xyz
'x, y, z'
_cell_length_a     77.586743
_cell_length_b     77.561812
_cell_length_c     77.56742
_cell_angle_alpha  90.000993
_cell_angle_beta   90.004268
_cell_angle_gamma 89.995754
loop_
_atom_site_label
_atom_site_type_symbol
_atom_site_fract_x
_atom_site_fract_y
_atom_site_fract_z
_atom_type_partial_charge
C0 C 0.03017 0.39065 0.13456 0.0
C1 C 0.0164 0.38239 0.12696 0.0
N2 N 0.00954 0.39306 0.11507 0.0
N3 N 0.03189 0.40642 0.12749 0.0
C4 C 0.01928 0.40744 0.11558 0.0
H5 H 0.03828 0.3856 0.14472 0.0
Co6 Co 0.0479 0.42327 0.13286 0.0
C7 C 0.03216 0.45439 0.11795 0.0
O8 O 0.04666 0.45869 0.11032 0.0
N9 N 0.06395 0.44052 0.13845 0.0
C10 C 0.07572 0.46354 0.15085 0.0
C11 C 0.0614 0.45331 0.15004 0.0
C12 C 0.07989 0.44357 0.13208 0.0
N13 N 0.0873 0.45743 0.13956 0.0
O14 O 0.05613 0.4225 0.10968 0.0
H15 H 0.04963 0.45561 0.15707 0.0
H16 H 0.08578 0.43616 0.12184 0.0
O17 O 0.03133 0.44074 0.12703 0.0
C18 C 0.06553 0.40923 0.10751 0.0
O19 O 0.06859 0.39922 0.12084 0.0
N20 N 0.04058 0.4229 0.15571 0.0
C21 C 0.03933 0.43016 0.19058 0.0
C22 C 0.02561 0.43497 0.17979 0.0
C23 C 0.02632 0.4309 0.16225 0.0
C24 C 0.05272 0.41606 0.16635 0.0
C25 C 0.05238 0.41959 0.18392 0.0
H26 H 0.01629 0.43562 0.15383 0.0
H27 H 0.06371 0.40945 0.16087 0.0
H28 H 0.01735 0.41852 0.10733 0.0
H29 H 0.01156 0.36973 0.13027 0.0
H30 H 0.07709 0.47526 0.15831 0.0
H31 H 0.01512 0.44282 0.18462 0.0
H32 H 0.06318 0.41556 0.19181 0.0
C33 C 0.61688 0.02578 0.13154 0.0
C34 C 0.62064 0.00882 0.12835 0.0
N35 N 0.60699 0.00154 0.12041 0.0
N36 N 0.60093 0.02925 0.12569 0.0
C37 C 0.5952 0.01429 0.11886 0.0
H38 H 0.62529 0.03513 0.13757 0.0
Co39 Co 0.59158 0.051 0.1271 0.0
C40 C 0.55375 0.04652 0.12862 0.0
O41 O 0.55313 0.05897 0.14009 0.0
N42 N 0.58274 0.07374 0.12813 0.0
C43 C 0.57593 0.10107 0.13407 0.0
C44 C 0.58518 0.08693 0.13935 0.0
C45 C 0.57254 0.08061 0.11577 0.0
N46 N 0.56818 0.09702 0.11918 0.0
O47 O 0.59543 0.05429 0.10315 0.0
H48 H 0.59322 0.08682 0.15063 0.0
H49 H 0.56788 0.0735 0.10469 0.0
O50 O 0.56827 0.04186 0.12227 0.0
C51 C 0.60975 0.06165 0.10015 0.0
O52 O 0.6203 0.06433 0.11314 0.0
N53 N 0.58895 0.04783 0.15099 0.0
C54 C 0.58219 0.05193 0.18562 0.0
C55 C 0.57328 0.03939 0.17615 0.0
C56 C 0.57727 0.03717 0.15874 0.0
C57 C 0.60022 0.05693 0.16088 0.0
C58 C 0.59668 0.05976 0.17825 0.0
H59 H 0.57014 0.02778 0.15135 0.0
H60 H 0.61089 0.06357 0.15484 0.0
H61 H 0.58267 0.01278 0.11293 0.0
H62 H 0.63271 0.00248 0.1313 0.0
H63 H 0.575 0.11338 0.14058 0.0
H64 H 0.56251 0.03245 0.18171 0.0
H65 H 0.60439 0.06889 0.18548 0.0
C66 C 0.97614 0.61261 0.13097 0.0
C67 C 0.99245 0.61446 0.12417 0.0
N68 N 0.99639 0.59999 0.11534 0.0
N69 N 0.96992 0.59702 0.12655 0.0
C70 C 0.98245 0.58971 0.11698 0.0
H71 H 0.96917 0.62208 0.13847 0.0
Co72 Co 0.94841 0.58804 0.13144 0.0
C73 C 0.95439 0.55063 0.13786 0.0
O74 O 0.94357 0.55083 0.1509 0.0
N75 N 0.92617 0.57885 0.13587 0.0
C76 C 0.90143 0.56987 0.14737 0.0
C77 C 0.91414 0.58222 0.14805 0.0
C78 C 0.91966 0.56518 0.12721 0.0
N79 N 0.90512 0.55901 0.13438 0.0
O80 O 0.94336 0.5877 0.10751 0.0
H81 H 0.91465 0.59241 0.15746 0.0
H82 H 0.92649 0.55871 0.11689 0.0
O83 O 0.95774 0.56451 0.1296 0.0
C84 C 0.93251 0.59863 0.10191 0.0
O85 O 0.92547 0.60958 0.11275 0.0
N86 N 0.95346 0.58949 0.15506 0.0
C87 C 0.95459 0.59145 0.19076 0.0
C88 C 0.96527 0.57984 0.18189 0.0
C89 C 0.96486 0.5794 0.1639 0.0
C90 C 0.94534 0.6027 0.16325 0.0
C91 C 0.94532 0.60367 0.18118 0.0
H92 H 0.9733 0.57059 0.15723 0.0
H93 H 0.93773 0.61174 0.15585 0.0
H94 H 0.9813 0.57705 0.11128 0.0
H95 H 0.00054 0.62575 0.12535 0.0
H96 H 0.89085 0.56843 0.15635 0.0
H97 H 0.97342 0.57084 0.18879 0.0
H98 H 0.93722 0.61319 0.18739 0.0
C99 C 0.38466 0.97831 0.13497 0.0
C100 C 0.37802 0.99386 0.12969 0.0
N101 N 0.39092 0.00327 0.12284 0.0
N102 N 0.40168 0.97797 0.13161 0.0
C103 C 0.40513 0.99328 0.12413 0.0
H104 H 0.37748 0.96774 0.14054 0.0
Co105 Co 0.41573 0.95916 0.13515 0.0
C106 C 0.45073 0.97479 0.14206 0.0
O107 O 0.45371 0.96441 0.15513 0.0
N108 N 0.42959 0.9395 0.13841 0.0
C109 C 0.43968 0.91373 0.14616 0.0
C110 C 0.42575 0.92466 0.14674 0.0
C111 C 0.44556 0.93676 0.13204 0.0
N112 N 0.4522 0.92154 0.13712 0.0
O113 O 0.41721 0.95579 0.11098 0.0
H114 H 0.41357 0.92162 0.15269 0.0
H115 H 0.45222 0.94569 0.12366 0.0
O116 O 0.43642 0.97401 0.13388 0.0
C117 C 0.40655 0.94474 0.10524 0.0
O118 O 0.39583 0.9374 0.11611 0.0
N119 N 0.413 0.96178 0.15903 0.0
C120 C 0.41333 0.9536 0.19362 0.0
C121 C 0.42234 0.96814 0.18769 0.0
C122 C 0.42151 0.97241 0.17017 0.0
C123 C 0.4013 0.9503 0.16523 0.0
C124 C 0.40141 0.94575 0.18255 0.0
H125 H 0.42871 0.98336 0.16553 0.0
H126 H 0.39322 0.94322 0.15634 0.0
H127 H 0.41777 0.99696 0.11957 0.0
H128 H 0.36462 0.99767 0.13036 0.0
H129 H 0.44059 0.90112 0.15207 0.0
H130 H 0.43103 0.97517 0.19606 0.0
H131 H 0.39345 0.93512 0.18687 0.0
C132 C 0.01932 0.61034 0.86031 0.0
C133 C 0.00386 0.61432 0.86809 0.0
N134 N 0.00013 0.60176 0.87951 0.0
N135 N 0.02512 0.59527 0.86669 0.0
C136 C 0.01324 0.5904 0.87837 0.0
H137 H 0.02605 0.61805 0.85084 0.0
Co138 Co 0.04574 0.58455 0.86196 0.0
C139 C 0.03633 0.54757 0.85701 0.0
O140 O 0.04648 0.5468 0.84345 0.0
N141 N 0.06727 0.57392 0.85777 0.0
C142 C 0.09344 0.56627 0.84866 0.0
C143 C 0.08065 0.57847 0.84752 0.0
C144 C 0.07297 0.55961 0.86595 0.0
N145 N 0.08848 0.55438 0.86022 0.0
O146 O 0.05124 0.58495 0.88573 0.0
H147 H 0.08149 0.58996 0.83979 0.0
H148 H 0.06554 0.55271 0.87552 0.0
O149 O 0.03483 0.56172 0.8654 0.0
C150 C 0.0619 0.59588 0.89162 0.0
O151 O 0.06873 0.60726 0.88109 0.0
N152 N 0.04012 0.58472 0.83825 0.0
C153 C 0.03987 0.5782 0.80329 0.0
C154 C 0.02684 0.57145 0.81384 0.0
C155 C 0.02685 0.57541 0.83138 0.0
C156 C 0.04997 0.59464 0.82766 0.0
C157 C 0.05052 0.59118 0.81002 0.0
H158 H 0.01715 0.56971 0.83958 0.0
H159 H 0.05842 0.60428 0.83308 0.0
H160 H 0.01428 0.57875 0.88597 0.0
H161 H 0.99621 0.62577 0.86583 0.0
H162 H 0.10542 0.5661 0.84151 0.0
H163 H 0.0176 0.56223 0.80888 0.0
H164 H 0.0602 0.59745 0.80216 0.0
C165 C 0.38445 0.02243 0.85429 0.0
C166 C 0.37694 0.00681 0.85824 0.0
N167 N 0.38306 0.00161 0.87362 0.0
N168 N 0.39536 0.02692 0.8671 0.0
C169 C 0.39382 0.01418 0.87884 0.0
H170 H 0.38229 0.02971 0.84264 0.0
Co171 Co 0.40985 0.04599 0.86951 0.0
C172 C 0.43367 0.01554 0.87109 0.0
O173 O 0.42428 0.00706 0.85982 0.0
N174 N 0.42372 0.06522 0.872 0.0
C175 C 0.43246 0.09245 0.87229 0.0
C176 C 0.41832 0.08172 0.87228 0.0
C177 C 0.44105 0.06619 0.87177 0.0
N178 N 0.44678 0.0826 0.87188 0.0
O179 O 0.40415 0.04714 0.89323 0.0
H180 H 0.40497 0.0857 0.87188 0.0
H181 H 0.44931 0.05504 0.87112 0.0
O182 O 0.42939 0.03087 0.87542 0.0
C183 C 0.39097 0.056 0.89724 0.0
O184 O 0.38182 0.06319 0.88494 0.0
N185 N 0.41507 0.04625 0.84597 0.0
C186 C 0.42348 0.05869 0.81341 0.0
C187 C 0.43461 0.04742 0.82203 0.0
C188 C 0.43034 0.0416 0.83849 0.0
C189 C 0.40374 0.05652 0.83732 0.0
C190 C 0.40767 0.06289 0.82099 0.0
H191 H 0.44012 0.03478 0.84553 0.0
H192 H 0.39212 0.06082 0.84373 0.0
H193 H 0.40101 0.01384 0.8908 0.0
H194 H 0.36825 -0.00047 0.85011 0.0
H195 H 0.43213 0.1064 0.87206 0.0
H196 H 0.44714 0.04427 0.81671 0.0
H197 H 0.3988 0.07166 0.81472 0.0
C198 C 0.96577 0.37934 0.87237 0.0
C199 C 0.97981 0.37275 0.88086 0.0
N200 N 0.9883 0.38588 0.88848 0.0
N201 N 0.96542 0.39655 0.87445 0.0
C202 C 0.97925 0.40022 0.88437 0.0
H203 H 0.95635 0.37206 0.86512 0.0
Co204 Co 0.9482 0.41024 0.86543 0.0
C205 C 0.96381 0.44436 0.85889 0.0
O206 O 0.95565 0.44475 0.84404 0.0
N207 N 0.93002 0.42383 0.85653 0.0
C208 C 0.90799 0.43509 0.84193 0.0
C209 C 0.9193 0.42149 0.84296 0.0
C210 C 0.92439 0.43859 0.86389 0.0
N211 N 0.91128 0.44583 0.85511 0.0
O212 O 0.93847 0.41278 0.88788 0.0
H213 H 0.91924 0.41063 0.83433 0.0
H214 H 0.93021 0.44422 0.87526 0.0
O215 O 0.96231 0.43122 0.8688 0.0
C216 C 0.92604 0.40219 0.88942 0.0
O217 O 0.92287 0.39162 0.87655 0.0
N218 N 0.95713 0.40612 0.84327 0.0
C219 C 0.96325 0.40083 0.80843 0.0
C220 C 0.97477 0.41067 0.81834 0.0
C221 C 0.97178 0.41267 0.83602 0.0
C222 C 0.94772 0.39419 0.83454 0.0
C223 C 0.95025 0.39162 0.81697 0.0
H224 H 0.98084 0.42005 0.84357 0.0
H225 H 0.93726 0.38761 0.84099 0.0
H226 H 0.98243 0.41307 0.88874 0.0
H227 H 0.98355 0.35931 0.88117 0.0
H228 H 0.89799 0.43682 0.83236 0.0
H229 H 0.98556 0.41724 0.81239 0.0
H230 H 0.94126 0.38352 0.81002 0.0
C231 C 0.60332 0.9689 0.85486 0.0
C232 C 0.60861 0.98579 0.85521 0.0
N233 N 0.59874 0.99448 0.86662 0.0
N234 N 0.59012 0.9669 0.86589 0.0
C235 C 0.5876 0.98261 0.87291 0.0
H236 H 0.60911 0.95857 0.8475 0.0
Co237 Co 0.58055 0.94589 0.87149 0.0
C238 C 0.54288 0.95375 0.87188 0.0
O239 O 0.54014 0.94029 0.86192 0.0
N240 N 0.57185 0.92397 0.87776 0.0
C241 C 0.57016 0.89547 0.88117 0.0
C242 C 0.58028 0.90888 0.87556 0.0
C243 C 0.55739 0.91937 0.88634 0.0
N244 N 0.55556 0.90213 0.88771 0.0
O245 O 0.58774 0.94881 0.89459 0.0
H246 H 0.59308 0.90759 0.87025 0.0
H247 H 0.54839 0.9284 0.89186 0.0
O248 O 0.55825 0.95728 0.87684 0.0
C249 C 0.60237 0.94226 0.89796 0.0
O250 O 0.61133 0.93531 0.88537 0.0
N251 N 0.57421 0.9428 0.84811 0.0
C252 C 0.56242 0.93497 0.81516 0.0
C253 C 0.55807 0.95071 0.82291 0.0
C254 C 0.56454 0.9546 0.83926 0.0
C255 C 0.58054 0.92876 0.83968 0.0
C256 C 0.57451 0.92437 0.82336 0.0
H257 H 0.56104 0.96673 0.84516 0.0
H258 H 0.59028 0.92083 0.84551 0.0
H259 H 0.5781 0.98506 0.88281 0.0
H260 H 0.61944 0.99095 0.84812 0.0
H261 H 0.57314 0.8819 0.87997 0.0
H262 H 0.54929 0.95964 0.81675 0.0
H263 H 0.57922 0.91271 0.81728 0.0
C264 C 0.13668 0.02878 0.38023 0.0
C265 C 0.13146 0.01328 0.37334 0.0
N266 N 0.12009 0.00597 0.38428 0.0
N267 N 0.1287 0.03113 0.39546 0.0
C268 C 0.11868 0.01709 0.39757 0.0
H269 H 0.14548 0.0379 0.3744 0.0
Co270 Co 0.12967 0.05025 0.40951 0.0
C271 C 0.13594 0.0354 0.44435 0.0
O272 O 0.14825 0.04677 0.44692 0.0
N273 N 0.12994 0.07012 0.42378 0.0
C274 C 0.13506 0.09528 0.43674 0.0
C275 C 0.13753 0.08573 0.42197 0.0
C276 C 0.12173 0.07127 0.4391 0.0
N277 N 0.1254 0.08592 0.44764 0.0
O278 O 0.1054 0.05198 0.40849 0.0
H279 H 0.14462 0.09009 0.41087 0.0
H280 H 0.11358 0.06122 0.44428 0.0
O281 O 0.12756 0.03529 0.43011 0.0
C282 C 0.09921 0.06184 0.39697 0.0
O283 O 0.10983 0.07024 0.38679 0.0
N284 N 0.15396 0.04864 0.40958 0.0
C285 C 0.1888 0.05184 0.41592 0.0
C286 C 0.18021 0.03656 0.42024 0.0
C287 C 0.16278 0.03491 0.41621 0.0
C288 C 0.16288 0.06172 0.40201 0.0
C289 C 0.1804 0.06389 0.40543 0.0
H290 H 0.15611 0.02322 0.41979 0.0
H291 H 0.15621 0.07101 0.39409 0.0
H292 H 0.10998 0.01544 0.40835 0.0
H293 H 0.13567 0.0079 0.36117 0.0
H294 H 0.14069 0.10774 0.43955 0.0
H295 H 0.18661 0.02652 0.42755 0.0
H296 H 0.1869 0.07546 0.40107 0.0
C297 C 0.96782 0.13312 0.39068 0.0
C298 C 0.98027 0.1233 0.38263 0.0
N299 N 0.98475 0.1104 0.39337 0.0
N300 N 0.96481 0.1266 0.40653 0.0
C301 C 0.97509 0.11263 0.4076 0.0
H302 H 0.96168 0.14447 0.38542 0.0
Co303 Co 0.95015 0.13431 0.42395 0.0
C304 C 0.9848 0.13389 0.44266 0.0
O305 O 0.99491 0.13585 0.42921 0.0
N306 N 0.9356 0.14195 0.4418 0.0
C307 C 0.92624 0.15711 0.46427 0.0
C308 C 0.93806 0.15641 0.45123 0.0
C309 C 0.92225 0.13393 0.44966 0.0
N310 N 0.91636 0.14292 0.46337 0.0
O311 O 0.94483 0.11105 0.4294 0.0
H312 H 0.94844 0.1655 0.44951 0.0
H313 H 0.91738 0.12141 0.44592 0.0
O314 O 0.96847 0.1337 0.44087 0.0
C315 C 0.93413 0.10454 0.41881 0.0
O316 O 0.92812 0.11429 0.40632 0.0
N317 N 0.95397 0.15709 0.41751 0.0
C318 C 0.94923 0.19215 0.41162 0.0
C319 C 0.96508 0.18588 0.41791 0.0
C320 C 0.9672 0.16818 0.42084 0.0
C321 C 0.93939 0.16269 0.40959 0.0
C322 C 0.93662 0.18011 0.40676 0.0
H323 H 0.9789 0.16377 0.42682 0.0
H324 H 0.92918 0.15359 0.40683 0.0
H325 H 0.97616 0.10476 0.41908 0.0
H326 H 0.9858 0.12564 0.37004 0.0
H327 H 0.9258 0.16668 0.47442 0.0
H328 H 0.97542 0.19458 0.42138 0.0
H329 H 0.92408 0.18398 0.40207 0.0
C330 C 0.85762 0.97495 0.40202 0.0
C331 C 0.86518 0.99089 0.39984 0.0
N332 N 0.87972 0.99144 0.40939 0.0
N333 N 0.86729 0.9656 0.41301 0.0
C334 C 0.88082 0.97579 0.41685 0.0
H335 H 0.84546 0.97081 0.39662 0.0
Co336 Co 0.86298 0.94456 0.42343 0.0
C337 C 0.86942 0.95297 0.46148 0.0
O338 O 0.85985 0.94053 0.46784 0.0
N339 N 0.85906 0.92304 0.43377 0.0
C340 C 0.84911 0.8973 0.44166 0.0
C341 C 0.84611 0.91157 0.43161 0.0
C342 C 0.87013 0.91499 0.44452 0.0
N343 N 0.86418 0.89958 0.44991 0.0
O344 O 0.88573 0.93729 0.41801 0.0
H345 H 0.83517 0.91312 0.4232 0.0
H346 H 0.88231 0.9205 0.44848 0.0
O347 O 0.87109 0.95459 0.44516 0.0
C348 C 0.88654 0.92882 0.40401 0.0
O349 O 0.87238 0.92686 0.39491 0.0
N350 N 0.84015 0.95145 0.42783 0.0
C351 C 0.80516 0.95457 0.43476 0.0
C352 C 0.8173 0.96348 0.44475 0.0
C353 C 0.83477 0.96206 0.44081 0.0
C354 C 0.82846 0.94486 0.41653 0.0
C355 C 0.81085 0.94599 0.41989 0.0
H356 H 0.84374 0.96926 0.4485 0.0
H357 H 0.83291 0.93768 0.40542 0.0
H358 H 0.89101 0.97189 0.42552 0.0
H359 H 0.85982 0.00151 0.39257 0.0
H360 H 0.84063 0.88632 0.44308 0.0
H361 H 0.81349 0.97078 0.45602 0.0
H362 H 0.80185 0.93964 0.41132 0.0
C363 C 0.02597 0.86828 0.37741 0.0
C364 C 0.00952 0.87229 0.3724 0.0
N365 N 0.0008 0.87807 0.38628 0.0
N366 N 0.02773 0.87155 0.39435 0.0
C367 C 0.01221 0.87756 0.39946 0.0
H368 H 0.03608 0.86328 0.36922 0.0
Co369 Co 0.04823 0.86772 0.40581 0.0
C370 C 0.03856 0.86166 0.44228 0.0
O371 O 0.04927 0.84852 0.4424 0.0
N372 N 0.06967 0.86418 0.41683 0.0
C373 C 0.09592 0.85547 0.42449 0.0
C374 C 0.08325 0.85431 0.41217 0.0
C375 C 0.07502 0.87211 0.4314 0.0
N376 N 0.0906 0.86652 0.43673 0.0
O377 O 0.05335 0.89167 0.40486 0.0
H378 H 0.08423 0.8467 0.4006 0.0
H379 H 0.0672 0.88125 0.43844 0.0
O380 O 0.03671 0.87065 0.42851 0.0
C381 C 0.06098 0.89507 0.39074 0.0
O382 O 0.06372 0.88245 0.37977 0.0
N383 N 0.04347 0.84395 0.40516 0.0
C384 C 0.04179 0.80827 0.40408 0.0
C385 C 0.03 0.81763 0.41407 0.0
C386 C 0.0306 0.83562 0.41385 0.0
C387 C 0.05298 0.83518 0.39331 0.0
C388 C 0.05269 0.81724 0.39283 0.0
H389 H 0.0211 0.84272 0.42111 0.0
H390 H 0.06125 0.84215 0.38455 0.0
H391 H 0.00928 0.88124 0.41259 0.0
H392 H 0.00449 0.87122 0.35943 0.0
H393 H 0.10804 0.84856 0.42447 0.0
H394 H 0.0207 0.81111 0.42219 0.0
H395 H 0.06155 0.81053 0.38438 0.0
C396 C 0.14596 0.97094 0.60491 0.0
C397 C 0.14198 0.98682 0.6117 0.0
N398 N 0.12876 0.99349 0.60261 0.0
N399 N 0.13539 0.96771 0.59151 0.0
C400 C 0.12509 0.98168 0.59037 0.0
H401 H 0.15545 0.962 0.60984 0.0
Co402 Co 0.13339 0.94676 0.58023 0.0
C403 C 0.13651 0.95798 0.5437 0.0
O404 O 0.14884 0.94664 0.54119 0.0
N405 N 0.13059 0.92512 0.56972 0.0
C406 C 0.12794 0.8966 0.5673 0.0
C407 C 0.1319 0.90998 0.57824 0.0
C408 C 0.12451 0.92059 0.55404 0.0
N409 N 0.12334 0.90337 0.55203 0.0
O410 O 0.10941 0.94642 0.58485 0.0
H411 H 0.13524 0.90876 0.59173 0.0
H412 H 0.12051 0.92961 0.54429 0.0
O413 O 0.12892 0.95899 0.55833 0.0
C414 C 0.10432 0.94384 0.6002 0.0
O415 O 0.11575 0.94287 0.61266 0.0
N416 N 0.15757 0.94677 0.57614 0.0
C417 C 0.1918 0.9442 0.56565 0.0
C418 C 0.18277 0.95973 0.56369 0.0
C419 C 0.16576 0.96088 0.5694 0.0
C420 C 0.16694 0.9325 0.58031 0.0
C421 C 0.18396 0.93077 0.57485 0.0
H422 H 0.15879 0.97277 0.5673 0.0
H423 H 0.16125 0.92214 0.58752 0.0
H424 H 0.11435 0.98261 0.5815 0.0
H425 H 0.14803 0.99274 0.6228 0.0
H426 H 0.1281 0.883 0.57044 0.0
H427 H 0.18861 0.97071 0.55735 0.0
H428 H 0.19062 0.91872 0.57719 0.0
C429 C 0.02569 0.13535 0.6112 0.0
C430 C 0.00953 0.12828 0.61338 0.0
N431 N 0.00748 0.11555 0.6017 0.0
N432 N 0.03369 0.12719 0.59812 0.0
C433 C 0.02238 0.11514 0.59276 0.0
H434 H 0.0312 0.14577 0.61864 0.0
Co435 Co 0.05552 0.13052 0.58906 0.0
C436 C 0.05015 0.13186 0.55082 0.0
O437 O 0.06295 0.14276 0.54881 0.0
N438 N 0.07789 0.13332 0.57979 0.0
C439 C 0.1027 0.1425 0.56848 0.0
C440 C 0.08919 0.14664 0.57925 0.0
C441 C 0.08527 0.12112 0.56978 0.0
N442 N 0.10013 0.12641 0.56263 0.0
O443 O 0.06006 0.10657 0.59167 0.0
H444 H 0.08753 0.15902 0.5853 0.0
H445 H 0.07898 0.10916 0.56631 0.0
O446 O 0.04621 0.12643 0.5659 0.0
C447 C 0.0654 0.10216 0.60651 0.0
O448 O 0.06594 0.11386 0.61875 0.0
N449 N 0.0512 0.1542 0.58782 0.0
C450 C 0.04924 0.18998 0.58839 0.0
C451 C 0.03971 0.18046 0.57631 0.0
C452 C 0.04059 0.16248 0.57646 0.0
C453 C 0.0589 0.16311 0.60081 0.0
C454 C 0.0584 0.18105 0.60116 0.0
H455 H 0.03277 0.15539 0.56743 0.0
H456 H 0.06636 0.15623 0.61038 0.0
H457 H 0.02528 0.10601 0.58264 0.0
H458 H 2e-05 0.13238 0.62273 0.0
H459 H 0.11307 0.15096 0.56452 0.0
H460 H 0.03181 0.18685 0.56674 0.0
H461 H 0.06585 0.18778 0.61086 0.0
C462 C 0.86261 0.01563 0.61425 0.0
C463 C 0.86743 0.99859 0.61586 0.0
N464 N 0.87584 0.99398 0.60138 0.0
N465 N 0.86797 0.02161 0.59884 0.0
C466 C 0.87611 0.0082 0.59139 0.0
H467 H 0.85576 0.02321 0.62373 0.0
Co468 Co 0.86555 0.04367 0.59032 0.0
C469 C 0.86137 0.03891 0.55186 0.0
O470 O 0.85049 0.05181 0.55036 0.0
N471 N 0.86352 0.06648 0.58206 0.0
C472 C 0.85593 0.09375 0.57752 0.0
C473 C 0.85364 0.0796 0.58785 0.0
C474 C 0.87254 0.07349 0.56888 0.0
N475 N 0.86772 0.08986 0.56539 0.0
O476 O 0.8898 0.04636 0.59022 0.0
H477 H 0.84527 0.07927 0.5989 0.0
H478 H 0.88225 0.06646 0.56176 0.0
O479 O 0.86727 0.03465 0.56666 0.0
C480 C 0.8973 0.05456 0.60225 0.0
O481 O 0.88818 0.05989 0.6155 0.0
N482 N 0.84148 0.04114 0.59103 0.0
C483 C 0.8066 0.04822 0.59005 0.0
C484 C 0.81387 0.03687 0.57801 0.0
C485 C 0.83146 0.03315 0.57897 0.0
C486 C 0.83395 0.04907 0.60475 0.0
C487 C 0.81648 0.05322 0.60431 0.0
H488 H 0.837 0.02472 0.56943 0.0
H489 H 0.84192 0.05397 0.61509 0.0
H490 H 0.88263 0.00898 0.5791 0.0
H491 H 0.86489 0.99026 0.62676 0.0
H492 H 0.84903 0.10581 0.57871 0.0
H493 H 0.80647 0.0321 0.56717 0.0
H494 H 0.81111 0.06137 0.6143 0.0
C495 C 0.97863 0.86059 0.61347 0.0
C496 C 0.99182 0.87044 0.61995 0.0
N497 N 0.99707 0.88136 0.6075 0.0
N498 N 0.97567 0.86519 0.597 0.0
C499 C 0.98708 0.87788 0.59367 0.0
H500 H 0.97134 0.85094 0.62042 0.0
Co501 Co 0.9576 0.85688 0.58415 0.0
C502 C 0.97101 0.85268 0.54859 0.0
O503 O 0.96317 0.83767 0.54777 0.0
N504 N 0.93838 0.84882 0.57156 0.0
C505 C 0.91419 0.83621 0.56252 0.0
C506 C 0.92655 0.83652 0.5752 0.0
C507 C 0.93228 0.85636 0.55708 0.0
N508 N 0.91787 0.84871 0.55112 0.0
O509 O 0.94801 0.87924 0.58298 0.0
H510 H 0.92618 0.82863 0.58659 0.0
H511 H 0.93841 0.86727 0.55093 0.0
O512 O 0.97015 0.8617 0.56241 0.0
C513 C 0.93947 0.88555 0.59543 0.0
O514 O 0.93838 0.87696 0.60998 0.0
N515 N 0.96709 0.83457 0.58591 0.0
C516 C 0.97327 0.79984 0.58154 0.0
C517 C 0.98511 0.81198 0.57526 0.0
C518 C 0.98203 0.82948 0.57811 0.0
C519 C 0.95821 0.82307 0.59569 0.0
C520 C 0.96067 0.80544 0.59329 0.0
H521 H 0.99077 0.83885 0.57267 0.0
H522 H 0.94814 0.82755 0.60421 0.0
H523 H 0.98757 0.88489 0.58162 0.0
H524 H 0.99709 0.86965 0.63285 0.0
H525 H 0.90305 0.82782 0.56205 0.0
H526 H 0.99576 0.80813 0.56709 0.0
H527 H 0.95169 0.79655 0.5992 0.0
C528 C 0.39308 0.14157 0.01805 0.0
C529 C 0.38375 0.1328 0.00575 0.0
N530 N 0.38956 0.11643 0.00509 0.0
N531 N 0.40493 0.13085 0.02494 0.0
C532 C 0.40212 0.11559 0.01707 0.0
H533 H 0.39134 0.15494 0.02146 0.0
Co534 Co 0.42151 0.13442 0.0421 0.0
C535 C 0.44205 0.12247 0.01157 0.0
O536 O 0.43166 0.1307 0.00102 0.0
N537 N 0.43739 0.13791 0.05948 0.0
C538 C 0.44932 0.14566 0.08431 0.0
C539 C 0.43403 0.14397 0.0754 0.0
C540 C 0.45464 0.13615 0.05891 0.0
N541 N 0.46228 0.14076 0.0738 0.0
O542 O 0.41577 0.11277 0.05191 0.0
H543 H 0.42131 0.14713 0.08014 0.0
H544 H 0.46153 0.13152 0.0478 0.0
O545 O 0.43924 0.12307 0.02782 0.0
C546 C 0.40263 0.11292 0.0617 0.0
O547 O 0.39406 0.12741 0.06361 0.0
N548 N 0.42692 0.15646 0.03385 0.0
C549 C 0.43743 0.19077 0.03512 0.0
C550 C 0.44759 0.17839 0.02682 0.0
C551 C 0.44227 0.16122 0.02659 0.0
C552 C 0.41644 0.16856 0.04107 0.0
C553 C 0.42137 0.18583 0.04174 0.0
H554 H 0.4515 0.15186 0.02225 0.0
H555 H 0.40488 0.16452 0.04775 0.0
H556 H 0.40993 0.10428 0.01945 0.0
H557 H 0.37369 0.13819 0.99772 0.0
H558 H 0.45075 0.15023 0.09741 0.0
H559 H 0.46029 0.18163 0.02198 0.0
H560 H 0.41318 0.19502 0.04832 0.0
C561 C 0.38601 0.8671 0.97618 0.0
C562 C 0.38336 0.87577 0.99145 0.0
N563 N 0.39627 0.88723 0.99357 0.0
N564 N 0.40059 0.87297 0.96883 0.0
C565 C 0.40644 0.8853 0.97959 0.0
H566 H 0.37782 0.85722 0.97073 0.0
Co567 Co 0.40987 0.86619 0.94798 0.0
C568 C 0.44807 0.86665 0.95358 0.0
O569 O 0.44976 0.85234 0.94466 0.0
N570 N 0.4191 0.85975 0.92629 0.0
C571 C 0.42994 0.84523 0.90406 0.0
C572 C 0.4174 0.84536 0.91658 0.0
C573 C 0.4316 0.86882 0.91823 0.0
N574 N 0.43914 0.85986 0.90541 0.0
O575 O 0.40602 0.8886 0.93911 0.0
H576 H 0.40854 0.83493 0.91887 0.0
H577 H 0.43675 0.88079 0.92325 0.0
O578 O 0.43308 0.87317 0.95601 0.0
C579 C 0.39127 0.89047 0.93222 0.0
O580 O 0.38051 0.87738 0.93239 0.0
N581 N 0.41247 0.84376 0.95677 0.0
C582 C 0.41811 0.80889 0.96175 0.0
C583 C 0.42778 0.82107 0.97098 0.0
C584 C 0.42432 0.83859 0.96872 0.0
C585 C 0.40079 0.83222 0.95062 0.0
C586 C 0.40356 0.81459 0.95264 0.0
H587 H 0.43183 0.84786 0.97586 0.0
H588 H 0.39016 0.83669 0.94277 0.0
H589 H 0.41801 0.89267 0.97721 0.0
H590 H 0.37262 0.87389 0.00014 0.0
H591 H 0.43306 0.83451 0.89567 0.0
H592 H 0.43865 0.81728 0.97887 0.0
H593 H 0.39507 0.80557 0.94618 0.0
C594 C 0.1388 0.39125 0.9738 0.0
C595 C 0.13367 0.38596 0.98989 0.0
N596 N 0.12063 0.39619 0.99509 0.0
N597 N 0.12912 0.40481 0.96892 0.0
C598 C 0.11808 0.40749 0.98211 0.0
H599 H 0.14883 0.38546 0.96604 0.0
Co600 Co 0.13075 0.41569 0.9478 0.0
C601 C 0.12685 0.45332 0.95669 0.0
O602 O 0.1377 0.45813 0.94461 0.0
N603 N 0.13219 0.42599 0.92594 0.0
C604 C 0.13964 0.43237 0.89899 0.0
C605 C 0.14281 0.4218 0.91279 0.0
C606 C 0.12185 0.43832 0.91925 0.0
N607 N 0.12655 0.44296 0.90314 0.0
O608 O 0.1073 0.41031 0.94302 0.0
H609 H 0.15221 0.41161 0.91284 0.0
H610 H 0.11118 0.44396 0.92622 0.0
O611 O 0.12324 0.43733 0.95862 0.0
C612 C 0.10277 0.39484 0.94007 0.0
O613 O 0.11433 0.3825 0.94098 0.0
N614 N 0.1542 0.42053 0.95258 0.0
C615 C 0.18906 0.42868 0.95545 0.0
C616 C 0.17684 0.43671 0.96607 0.0
C617 C 0.15955 0.432 0.96484 0.0
C618 C 0.16613 0.41083 0.9441 0.0
C619 C 0.18362 0.41491 0.94503 0.0
H620 H 0.1506 0.43773 0.97376 0.0
H621 H 0.16204 0.39995 0.93644 0.0
H622 H 0.108 0.41713 0.98194 0.0
H623 H 0.13915 0.37541 0.9972 0.0
H624 H 0.14683 0.43251 0.88705 0.0
H625 H 0.18041 0.4469 0.9749 0.0
H626 H 0.19274 0.40748 0.93752 0.0
C627 C 0.61799 0.12818 0.96112 0.0
C628 C 0.6252 0.12301 0.97636 0.0
N629 N 0.6125 0.1178 0.98704 0.0
N630 N 0.60081 0.12618 0.96198 0.0
C631 C 0.59774 0.11985 0.97792 0.0
H632 H 0.62483 0.13286 0.94991 0.0
Co633 Co 0.58745 0.13119 0.94309 0.0
C634 C 0.55062 0.12645 0.9525 0.0
O635 O 0.54668 0.13939 0.94231 0.0
N636 N 0.57465 0.13623 0.92292 0.0
C637 C 0.56107 0.14821 0.90057 0.0
C638 C 0.57232 0.15107 0.91397 0.0
C639 C 0.56519 0.12449 0.91416 0.0
N640 N 0.55676 0.13147 0.90073 0.0
O641 O 0.59191 0.10877 0.93421 0.0
H642 H 0.57784 0.16342 0.91698 0.0
H643 H 0.5635 0.11126 0.91829 0.0
O644 O 0.56645 0.12216 0.95465 0.0
C645 C 0.60314 0.10779 0.9223 0.0
O646 O 0.61146 0.12184 0.91779 0.0
N647 N 0.58416 0.15352 0.95175 0.0
C648 C 0.57769 0.1883 0.95678 0.0
C649 C 0.56882 0.17588 0.96647 0.0
C650 C 0.57261 0.15845 0.96409 0.0
C651 C 0.59493 0.1654 0.94463 0.0
C652 C 0.59173 0.18296 0.94671 0.0
H653 H 0.56569 0.14908 0.97165 0.0
H654 H 0.60497 0.1612 0.93591 0.0
H655 H 0.585 0.11681 0.98268 0.0
H656 H 0.63887 0.12273 0.97908 0.0
H657 H 0.55604 0.15777 0.89172 0.0
H658 H 0.55832 0.17942 0.97496 0.0
H659 H 0.59949 0.19218 0.93966 0.0
C660 C 0.84946 0.6021 0.97433 0.0
C661 C 0.85702 0.60676 0.98977 0.0
N662 N 0.87148 0.59731 0.99185 0.0
N663 N 0.85905 0.58966 0.96691 0.0
C664 C 0.87231 0.58712 0.97781 0.0
H665 H 0.83796 0.60765 0.96876 0.0
Co666 Co 0.85709 0.57891 0.94572 0.0
C667 C 0.86082 0.54084 0.95543 0.0
O668 O 0.85073 0.53482 0.94322 0.0
N669 N 0.85566 0.56842 0.92393 0.0
C670 C 0.84942 0.56225 0.89661 0.0
C671 C 0.84557 0.57267 0.91037 0.0
C672 C 0.86617 0.55602 0.91767 0.0
N673 N 0.86233 0.55167 0.90127 0.0
O674 O 0.88084 0.58286 0.94174 0.0
H675 H 0.8363 0.58301 0.91004 0.0
H676 H 0.87668 0.55047 0.92496 0.0
O677 O 0.86329 0.55708 0.95686 0.0
C678 C 0.88621 0.59449 0.93157 0.0
O679 O 0.87502 0.60431 0.9235 0.0
N680 N 0.83337 0.57548 0.94942 0.0
C681 C 0.79949 0.56675 0.94292 0.0
C682 C 0.80899 0.55747 0.95516 0.0
C683 C 0.82601 0.56231 0.95851 0.0
C684 C 0.82323 0.58662 0.94045 0.0
C685 C 0.80625 0.58223 0.93656 0.0
H686 H 0.83337 0.55481 0.96758 0.0
H687 H 0.82891 0.59794 0.93461 0.0
H688 H 0.88252 0.57801 0.97528 0.0
H689 H 0.85243 0.61662 0.9985 0.0
H690 H 0.84306 0.5624 0.88419 0.0
H691 H 0.80387 0.54583 0.96093 0.0
H692 H 0.79898 0.59012 0.92762 0.0
C693 C 0.60921 0.86113 0.02054 0.0
C694 C 0.61852 0.8701 0.00831 0.0
N695 N 0.61144 0.88587 0.00657 0.0
N696 N 0.59616 0.87115 0.02619 0.0
C697 C 0.59809 0.88615 0.01764 0.0
H698 H 0.61167 0.84807 0.02473 0.0
Co699 Co 0.57867 0.86716 0.04224 0.0
C700 C 0.55925 0.87419 0.00942 0.0
O701 O 0.57121 0.86723 -0.00036 0.0
N702 N 0.56114 0.86348 0.05833 0.0
C703 C 0.53535 0.8582 0.06952 0.0
C704 C 0.54545 0.85667 0.05514 0.0
C705 C 0.56023 0.86904 0.07481 0.0
N706 N 0.54456 0.86621 0.08185 0.0
O707 O 0.58104 0.89037 0.05037 0.0
H708 H 0.54098 0.85218 0.04276 0.0
H709 H 0.57043 0.87602 0.08122 0.0
O710 O 0.56112 0.87448 0.02578 0.0
C711 C 0.59384 0.8911 0.06062 0.0
O712 O 0.60305 0.87705 0.06289 0.0
N713 N 0.57732 0.84386 0.03611 0.0
C714 C 0.56984 0.80971 0.04345 0.0
C715 C 0.56144 0.81809 0.02982 0.0
C716 C 0.56541 0.83535 0.02627 0.0
C717 C 0.58716 0.83511 0.0477 0.0
C718 C 0.58366 0.81798 0.05157 0.0
H719 H 0.5573 0.84211 0.0173 0.0
H720 H 0.59644 0.84206 0.05543 0.0
H721 H 0.58914 0.89679 0.01881 0.0
H722 H 0.6294 0.86526 0.00104 0.0
H723 H 0.52172 0.8553 0.07018 0.0
H724 H 0.5507 0.81204 0.02327 0.0
H725 H 0.59064 0.81178 0.06196 0.0
C726 C 0.13935 0.60895 0.02199 0.0
C727 C 0.13083 0.61231 0.00678 0.0
N728 N 0.12122 0.5984 0.00271 0.0
N729 N 0.13525 0.59294 0.02734 0.0
C730 C 0.12416 0.58689 0.01541 0.0
H731 H 0.14767 0.61773 0.0289 0.0
Co732 Co 0.14174 0.58228 0.04758 0.0
C733 C 0.1458 0.54489 0.03855 0.0
O734 O 0.15871 0.54274 0.0493 0.0
N735 N 0.14791 0.57163 0.06857 0.0
C736 C 0.16071 0.56263 0.09265 0.0
C737 C 0.16108 0.57462 0.0796 0.0
C738 C 0.13931 0.55829 0.07575 0.0
N739 N 0.14711 0.5522 0.09005 0.0
O740 O 0.11819 0.58121 0.05423 0.0
H741 H 0.17063 0.58462 0.0784 0.0
H742 H 0.12781 0.55275 0.07014 0.0
O743 O 0.13891 0.55971 0.03654 0.0
C744 C 0.1119 0.59189 0.06494 0.0
O745 O 0.12191 0.60389 0.07147 0.0
N746 N 0.16493 0.58418 0.04097 0.0
C747 C 0.20044 0.58737 0.03786 0.0
C748 C 0.19151 0.5749 0.0283 0.0
C749 C 0.1736 0.57381 0.02969 0.0
C750 C 0.1731 0.59782 0.0484 0.0
C751 C 0.19094 0.59952 0.04727 0.0
H752 H 0.16695 0.56438 0.02197 0.0
H753 H 0.16583 0.60667 0.05637 0.0
H754 H 0.1182 0.57431 0.01615 0.0
H755 H 0.13128 0.62426 -0.00041 0.0
H756 H 0.17011 0.56137 0.10287 0.0
H757 H 0.19835 0.5658 0.02021 0.0
H758 H 0.19726 0.60955 0.05465 0.0
C759 C 0.86235 0.38883 0.02776 0.0
C760 C 0.864 0.38492 0.01059 0.0
N761 N 0.87175 0.39829 0.00265 0.0
N762 N 0.86894 0.40463 0.03066 0.0
C763 C 0.87474 0.41004 0.01514 0.0
H764 H 0.85669 0.38068 0.03755 0.0
Co765 Co 0.86896 0.41525 0.05204 0.0
C766 C 0.8682 0.45304 0.04393 0.0
O767 O 0.85803 0.45649 0.05702 0.0
N768 N 0.86926 0.42544 0.07413 0.0
C769 C 0.86375 0.43182 0.10156 0.0
C770 C 0.86008 0.42083 0.0882 0.0
C771 C 0.87925 0.43862 0.07974 0.0
N772 N 0.87566 0.44321 0.09616 0.0
O773 O 0.89315 0.41203 0.05383 0.0
H774 H 0.85114 0.41024 0.08897 0.0
H775 H 0.88866 0.44507 0.07173 0.0
O776 O 0.87284 0.43756 0.04077 0.0
C777 C 0.89769 0.39701 0.05858 0.0
O778 O 0.88577 0.38516 0.06072 0.0
N779 N 0.84485 0.41723 0.05061 0.0
C780 C 0.80904 0.41711 0.05289 0.0
C781 C 0.81751 0.42919 0.04245 0.0
C782 C 0.83548 0.42872 0.04109 0.0
C783 C 0.83667 0.40436 0.0593 0.0
C784 C 0.81881 0.40422 0.06091 0.0
H785 H 0.84162 0.4375 0.03228 0.0
H786 H 0.84417 0.39432 0.06541 0.0
H787 H 0.8808 0.4224 0.01296 0.0
H788 H 0.86001 0.37303 0.00448 0.0
H789 H 0.85754 0.43183 0.11405 0.0
H790 H 0.81033 0.43882 0.03533 0.0
H791 H 0.8128 0.3944 0.06881 0.0
C792 C 0.53065 0.89098 0.63339 0.0
C793 C 0.51439 0.88539 0.62914 0.0
N794 N 0.50497 0.89922 0.6245 0.0
N795 N 0.53141 0.90823 0.63152 0.0
C796 C 0.5156 0.9129 0.62596 0.0
H797 H 0.54112 0.88307 0.63809 0.0
Co798 Co 0.5503 0.92126 0.63778 0.0
C799 C 0.53734 0.95692 0.64166 0.0
O800 O 0.54651 0.95827 0.65585 0.0
N801 N 0.57003 0.93417 0.64392 0.0
C802 C 0.59311 0.94547 0.6567 0.0
C803 C 0.58136 0.93221 0.65702 0.0
C804 C 0.57582 0.94822 0.63534 0.0
N805 N 0.58949 0.95561 0.64312 0.0
O806 O 0.55848 0.9203 0.6147 0.0
H807 H 0.58124 0.92203 0.66646 0.0
H808 H 0.56944 0.95352 0.62412 0.0
O809 O 0.53759 0.94285 0.63299 0.0
C810 C 0.56863 0.90746 0.61348 0.0
O811 O 0.5719 0.89845 0.62746 0.0
N812 N 0.54252 0.92028 0.66066 0.0
C813 C 0.53465 0.91581 0.69526 0.0
C814 C 0.52451 0.92662 0.68497 0.0
C815 C 0.52823 0.92809 0.66742 0.0
C816 C 0.55108 0.90818 0.67006 0.0
C817 C 0.54758 0.90593 0.68751 0.0
H818 H 0.51962 0.93553 0.65945 0.0
H819 H 0.56104 0.90052 0.66401 0.0
H820 H 0.51164 0.92609 0.62379 0.0
H821 H 0.50978 0.87224 0.62968 0.0
H822 H 0.60337 0.94761 0.66592 0.0
H823 H 0.5139 0.93385 0.69046 0.0
H824 H 0.55538 0.89708 0.695 0.0
C825 C 0.12285 0.52552 0.63716 0.0
C826 C 0.12969 0.51049 0.63067 0.0
N827 N 0.11818 0.50356 0.61964 0.0
N828 N 0.10709 0.52795 0.6303 0.0
C829 C 0.10459 0.51441 0.61969 0.0
H830 H 0.12909 0.53434 0.64597 0.0
Co831 Co 0.09331 0.54708 0.63294 0.0
C832 C 0.05792 0.53383 0.63783 0.0
O833 O 0.05618 0.54497 0.6505 0.0
N834 N 0.07932 0.56708 0.63489 0.0
C835 C 0.06462 0.59066 0.64233 0.0
C836 C 0.0791 0.58089 0.64557 0.0
C837 C 0.06552 0.56959 0.62457 0.0
N838 N 0.05592 0.58325 0.62931 0.0
O839 O 0.09415 0.55074 0.60878 0.0
H840 H 0.08835 0.58371 0.65552 0.0
H841 H 0.06198 0.56083 0.61432 0.0
O842 O 0.07232 0.53277 0.62979 0.0
C843 C 0.104 0.5624 0.60284 0.0
O844 O 0.11366 0.57127 0.61358 0.0
N845 N 0.09332 0.5434 0.65696 0.0
C846 C 0.08906 0.54251 0.69247 0.0
C847 C 0.0835 0.52867 0.68222 0.0
C848 C 0.08634 0.5291 0.66449 0.0
C849 C 0.10168 0.55517 0.66693 0.0
C850 C 0.09935 0.55527 0.68477 0.0
H851 H 0.08194 0.5184 0.65674 0.0
H852 H 0.10946 0.56505 0.66092 0.0
H853 H 0.09337 0.513 0.61151 0.0
H854 H 0.14225 0.5052 0.63368 0.0
H855 H 0.0603 0.6017 0.6497 0.0
H856 H 0.07611 0.51811 0.68755 0.0
H857 H 0.10496 0.56557 0.69233 0.0
C858 C 0.47648 0.11494 0.63971 0.0
C859 C 0.49188 0.11726 0.63115 0.0
N860 N 0.49354 0.10463 0.61927 0.0
N861 N 0.4686 0.10084 0.63335 0.0
C862 C 0.47916 0.09499 0.62088 0.0
H863 H 0.47142 0.12295 0.64994 0.0
Co864 Co 0.44775 0.09096 0.63913 0.0
C865 C 0.45678 0.05393 0.64499 0.0
O866 O 0.44688 0.05312 0.65871 0.0
N867 N 0.42623 0.08088 0.64437 0.0
C868 C 0.39963 0.07475 0.65328 0.0
C869 C 0.41336 0.08582 0.65505 0.0
C870 C 0.41964 0.06716 0.63586 0.0
N871 N 0.40363 0.063 0.64118 0.0
O872 O 0.44182 0.09032 0.61555 0.0
H873 H 0.4134 0.09701 0.66326 0.0
H874 H 0.42658 0.0603 0.62591 0.0
O875 O 0.45818 0.06805 0.63663 0.0
C876 C 0.43124 0.10123 0.60949 0.0
O877 O 0.42432 0.11272 0.61984 0.0
N878 N 0.45366 0.09257 0.66253 0.0
C879 C 0.45719 0.09521 0.69806 0.0
C880 C 0.46799 0.08422 0.68857 0.0
C881 C 0.4663 0.08341 0.67067 0.0
C882 C 0.44513 0.10522 0.67118 0.0
C883 C 0.44631 0.10649 0.68904 0.0
H884 H 0.47495 0.0752 0.66351 0.0
H885 H 0.43677 0.11392 0.66419 0.0
H886 H 0.47608 0.08395 0.61297 0.0
H887 H 0.50115 0.12735 0.63369 0.0
H888 H 0.38747 0.07561 0.66006 0.0
H889 H 0.47731 0.07601 0.69495 0.0
H890 H 0.43806 0.11557 0.69569 0.0
C891 C 0.89729 0.47318 0.64678 0.0
C892 C 0.89047 0.48831 0.64033 0.0
N893 N 0.89689 0.49079 0.62439 0.0
N894 N 0.90818 0.46633 0.63503 0.0
C895 C 0.90742 0.4773 0.62152 0.0
H896 H 0.89454 0.4678 0.65931 0.0
Co897 Co 0.92191 0.44635 0.63503 0.0
C898 C 0.94655 0.47546 0.63314 0.0
O899 O 0.93683 0.48399 0.64409 0.0
N900 N 0.93493 0.42647 0.63472 0.0
C901 C 0.94239 0.39904 0.63797 0.0
C902 C 0.92884 0.41053 0.63796 0.0
C903 C 0.95206 0.42444 0.6327 0.0
N904 N 0.95695 0.40789 0.63464 0.0
O905 O 0.91669 0.44287 0.61132 0.0
H906 H 0.91546 0.40756 0.64049 0.0
H907 H 0.96096 0.43493 0.63053 0.0
O908 O 0.94216 0.46023 0.62853 0.0
C909 C 0.90163 0.43724 0.60811 0.0
O910 O 0.89077 0.4351 0.62093 0.0
N911 N 0.92656 0.44811 0.6587 0.0
C912 C 0.93357 0.43731 0.69222 0.0
C913 C 0.94611 0.44599 0.68263 0.0
C914 C 0.94251 0.4509 0.66571 0.0
C915 C 0.91395 0.44047 0.66825 0.0
C916 C 0.91717 0.43496 0.68508 0.0
H917 H 0.9532 0.45518 0.65799 0.0
H918 H 0.9018 0.43723 0.66223 0.0
H919 H 0.91516 0.47577 0.61002 0.0
H920 H 0.88156 0.49681 0.64689 0.0
H921 H 0.94158 0.38529 0.64023 0.0
H922 H 0.95909 0.44749 0.68757 0.0
H923 H 0.90725 0.42804 0.69206 0.0
C924 C 0.52038 0.103 0.36088 0.0
C925 C 0.5075 0.10839 0.3718 0.0
N926 N 0.50692 0.09765 0.38547 0.0
N927 N 0.52786 0.08873 0.36745 0.0
C928 C 0.51974 0.0862 0.38264 0.0
H929 H 0.52345 0.10895 0.34872 0.0
Co930 Co 0.54492 0.07381 0.35881 0.0
C931 C 0.51391 0.05179 0.36276 0.0
O932 O 0.50434 0.06414 0.35617 0.0
N933 N 0.56211 0.05933 0.3507 0.0
C934 C 0.58447 0.04901 0.33621 0.0
C935 C 0.57315 0.06253 0.33768 0.0
C936 C 0.56708 0.04396 0.35711 0.0
N937 N 0.58073 0.03734 0.34853 0.0
O938 O 0.55442 0.07198 0.38128 0.0
H939 H 0.57329 0.07413 0.32997 0.0
H940 H 0.56125 0.03819 0.36839 0.0
O941 O 0.53023 0.05385 0.36398 0.0
C942 C 0.56442 0.08362 0.38698 0.0
O943 O 0.56756 0.09722 0.37738 0.0
N944 N 0.53662 0.07577 0.33613 0.0
C945 C 0.53608 0.07736 0.3002 0.0
C946 C 0.52933 0.06304 0.3089 0.0
C947 C 0.53025 0.06223 0.32681 0.0
C948 C 0.54225 0.09024 0.32792 0.0
C949 C 0.54201 0.09137 0.30999 0.0
H950 H 0.52741 0.05002 0.33275 0.0
H951 H 0.54862 0.10025 0.33525 0.0
H952 H 0.52275 0.0755 0.39101 0.0
H953 H 0.49874 0.11892 0.36925 0.0
H954 H 0.59486 0.04812 0.32695 0.0
H955 H 0.52459 0.05191 0.30192 0.0
H956 H 0.54787 0.1025 0.30393 0.0
C957 C 0.88988 0.5205 0.35812 0.0
C958 C 0.88985 0.50373 0.36415 0.0
N959 N 0.90265 0.50212 0.37582 0.0
N960 N 0.90263 0.52927 0.36603 0.0
C961 C 0.90999 0.5178 0.37678 0.0
H962 H 0.88123 0.52593 0.34863 0.0
Co963 Co 0.9096 0.55194 0.36414 0.0
C964 C 0.94805 0.5476 0.35953 0.0
O965 O 0.949 0.55936 0.34736 0.0
N966 N 0.91678 0.57519 0.36295 0.0
C967 C 0.91967 0.60343 0.3585 0.0
C968 C 0.90958 0.58917 0.35541 0.0
C969 C 0.93055 0.58163 0.37142 0.0
N970 N 0.93299 0.59859 0.36849 0.0
O971 O 0.90812 0.55425 0.38843 0.0
H972 H 0.8976 0.58935 0.34839 0.0
H973 H 0.93884 0.57387 0.37945 0.0
O974 O 0.93358 0.54412 0.36659 0.0
C975 C 0.89573 0.56303 0.39458 0.0
O976 O 0.88438 0.56984 0.38401 0.0
N977 N 0.91019 0.5498 0.33997 0.0
C978 C 0.91457 0.55675 0.30532 0.0
C979 C 0.92455 0.54396 0.31331 0.0
C980 C 0.92177 0.54028 0.33074 0.0
C981 C 0.89804 0.5592 0.33151 0.0
C982 C 0.90027 0.56333 0.31418 0.0
H983 H 0.92975 0.53075 0.33698 0.0
H984 H 0.88736 0.56464 0.33859 0.0
H985 H 0.92037 0.52104 0.38551 0.0
H986 H 0.88122 0.49353 0.36015 0.0
H987 H 0.91728 0.61634 0.35379 0.0
H988 H 0.93524 0.53791 0.30667 0.0
H989 H 0.89158 0.57243 0.30811 0.0
C990 C 0.47034 0.88817 0.36214 0.0
C991 C 0.48685 0.88706 0.36869 0.0
N992 N 0.48818 0.89804 0.38213 0.0
N993 N 0.46141 0.89988 0.37136 0.0
C994 C 0.47249 0.90538 0.38354 0.0
H995 H 0.46537 0.88127 0.3511 0.0
Co996 Co 0.43935 0.90859 0.36848 0.0
C997 C 0.44448 0.94695 0.36854 0.0
O998 O 0.43175 0.94938 0.35763 0.0
N999 N 0.41684 0.91759 0.36619 0.0
C1000 C 0.39155 0.92845 0.35782 0.0
C1001 C 0.40501 0.91775 0.35334 0.0
C1002 C 0.4098 0.92767 0.37852 0.0
N1003 N 0.39469 0.93464 0.37368 0.0
O1004 O 0.43505 0.90506 0.39235 0.0
H1005 H 0.40616 0.91133 0.34108 0.0
H1006 H 0.41648 0.93124 0.39024 0.0
O1007 O 0.44831 0.93169 0.37347 0.0
C1008 C 0.42973 0.89023 0.39683 0.0
O1009 O 0.42848 0.87809 0.38508 0.0
N1010 N 0.44354 0.91097 0.34482 0.0
C1011 C 0.44484 0.91327 0.30912 0.0
C1012 C 0.45458 0.92452 0.31936 0.0
C1013 C 0.45411 0.92286 0.33726 0.0
C1014 C 0.43581 0.89862 0.33505 0.0
C1015 C 0.43598 0.89969 0.31713 0.0
H1016 H 0.46215 0.93124 0.34489 0.0
H1017 H 0.42853 0.88849 0.34129 0.0
H1018 H 0.469 0.91474 0.39326 0.0
H1019 H 0.49718 0.87923 0.36355 0.0
H1020 H 0.38073 0.93201 0.34976 0.0
H1021 H 0.46231 0.93462 0.3136 0.0
H1022 H 0.42851 0.89052 0.30972 0.0
C1023 C 0.10655 0.46187 0.3775 0.0
C1024 C 0.1119 0.47589 0.38696 0.0
N1025 N 0.09969 0.48813 0.38569 0.0
N1026 N 0.09094 0.46525 0.37064 0.0
C1027 C 0.08717 0.48145 0.37572 0.0
H1028 H 0.11309 0.44959 0.37654 0.0
Co1029 Co 0.07726 0.4487 0.36052 0.0
C1030 C 0.04314 0.46522 0.35482 0.0
O1031 O 0.04197 0.45776 0.33964 0.0
N1032 N 0.06352 0.43116 0.35068 0.0
C1033 C 0.0524 0.40946 0.33548 0.0
C1034 C 0.06599 0.42075 0.3369 0.0
C1035 C 0.04861 0.42547 0.35765 0.0
N1036 N 0.04142 0.41252 0.34854 0.0
O1037 O 0.07371 0.43886 0.38264 0.0
H1038 H 0.07706 0.4207 0.32855 0.0
H1039 H 0.04331 0.43057 0.3695 0.0
O1040 O 0.05651 0.46291 0.3642 0.0
C1041 C 0.0819 0.42549 0.38742 0.0
O1042 O 0.09232 0.41783 0.37647 0.0
N1043 N 0.08176 0.45853 0.33883 0.0
C1044 C 0.08244 0.46474 0.30379 0.0
C1045 C 0.07438 0.4765 0.31494 0.0
C1046 C 0.07475 0.47345 0.33266 0.0
C1047 C 0.09295 0.4495 0.32881 0.0
C1048 C 0.09329 0.45218 0.31104 0.0
H1049 H 0.06818 0.48234 0.34109 0.0
H1050 H 0.10019 0.43893 0.33434 0.0
H1051 H 0.07502 0.48784 0.37324 0.0
H1052 H 0.12347 0.47681 0.39471 0.0
H1053 H 0.05089 0.39964 0.32569 0.0
H1054 H 0.06655 0.48699 0.3101 0.0
H1055 H 0.10073 0.44353 0.30299 0.0
C1056 C 0.6191 0.52751 0.88169 0.0
C1057 C 0.61309 0.51201 0.87575 0.0
N1058 N 0.61132 0.50126 0.88928 0.0
N1059 N 0.62106 0.52667 0.8989 0.0
C1060 C 0.61616 0.51051 0.90326 0.0
H1061 H 0.62214 0.53866 0.8739 0.0
Co1062 Co 0.62994 0.54511 0.91104 0.0
C1063 C 0.63411 0.53395 0.94707 0.0
O1064 O 0.649 0.54202 0.94719 0.0
N1065 N 0.63873 0.56458 0.92286 0.0
C1066 C 0.65328 0.58771 0.93169 0.0
C1067 C 0.65272 0.57455 0.91984 0.0
C1068 C 0.63076 0.5724 0.93625 0.0
N1069 N 0.63948 0.58626 0.94208 0.0
O1070 O 0.60781 0.55578 0.9109 0.0
H1071 H 0.66195 0.5728 0.90963 0.0
H1072 H 0.61869 0.56793 0.94162 0.0
O1073 O 0.6249 0.53374 0.93334 0.0
C1074 C 0.60752 0.56716 0.89906 0.0
O1075 O 0.62145 0.56932 0.88965 0.0
N1076 N 0.65186 0.53502 0.90937 0.0
C1077 C 0.68664 0.52736 0.90686 0.0
C1078 C 0.67595 0.51762 0.91771 0.0
C1079 C 0.65831 0.52125 0.91827 0.0
C1080 C 0.66143 0.54241 0.89668 0.0
C1081 C 0.679 0.53906 0.8954 0.0
H1082 H 0.65015 0.51349 0.92642 0.0
H1083 H 0.65564 0.55203 0.88841 0.0
H1084 H 0.61666 0.50544 0.91625 0.0
H1085 H 0.61028 0.50888 0.86244 0.0
H1086 H 0.66322 0.59745 0.93267 0.0
H1087 H 0.68126 0.50782 0.92612 0.0
H1088 H 0.68666 0.5466 0.88648 0.0
C1089 C 0.4726 0.64048 0.88304 0.0
C1090 C 0.4888 0.63642 0.87711 0.0
N1091 N 0.49716 0.62764 0.88959 0.0
N1092 N 0.47083 0.63439 0.89919 0.0
C1093 C 0.48589 0.62651 0.9028 0.0
H1094 H 0.46267 0.64734 0.87605 0.0
Co1095 Co 0.45111 0.63618 0.9122 0.0
C1096 C 0.46507 0.64122 0.9477 0.0
O1097 O 0.4548 0.65454 0.94987 0.0
N1098 N 0.43035 0.63733 0.92486 0.0
C1099 C 0.40274 0.64081 0.93212 0.0
C1100 C 0.41468 0.64237 0.9191 0.0
C1101 C 0.42713 0.63132 0.94088 0.0
N1102 N 0.41071 0.63393 0.94587 0.0
O1103 O 0.44803 0.61206 0.91058 0.0
H1104 H 0.41182 0.64633 0.90607 0.0
H1105 H 0.43657 0.62492 0.94881 0.0
O1106 O 0.46463 0.63267 0.93358 0.0
C1107 C 0.43762 0.60602 0.89948 0.0
O1108 O 0.42953 0.61668 0.88909 0.0
N1109 N 0.4543 0.66041 0.91328 0.0
C1110 C 0.45529 0.69526 0.92136 0.0
C1111 C 0.46983 0.68488 0.92406 0.0
C1112 C 0.46925 0.66751 0.91938 0.0
C1113 C 0.44147 0.67098 0.90764 0.0
C1114 C 0.44146 0.68842 0.91195 0.0
H1115 H 0.48033 0.6595 0.92204 0.0
H1116 H 0.43089 0.66589 0.9003 0.0
H1117 H 0.48858 0.62019 0.91493 0.0
H1118 H 0.49387 0.63946 0.86448 0.0
H1119 H 0.3892 0.6441 0.93139 0.0
H1120 H 0.48117 0.6899 0.93046 0.0
H1121 H 0.43024 0.69613 0.90887 0.0
C1122 C 0.36303 0.47382 0.89413 0.0
C1123 C 0.37067 0.48902 0.88898 0.0
N1124 N 0.38334 0.49283 0.90025 0.0
N1125 N 0.37075 0.46828 0.90866 0.0
C1126 C 0.38306 0.48004 0.91202 0.0
H1127 H 0.35274 0.46707 0.88757 0.0
Co1128 Co 0.36717 0.44792 0.92059 0.0
C1129 C 0.36409 0.46255 0.95624 0.0
O1130 O 0.34921 0.45476 0.95848 0.0
N1131 N 0.36419 0.42675 0.93219 0.0
C1132 C 0.36105 0.39837 0.93591 0.0
C1133 C 0.36143 0.41158 0.92405 0.0
C1134 C 0.36626 0.42222 0.94889 0.0
N1135 N 0.36385 0.40525 0.95154 0.0
O1136 O 0.39081 0.44198 0.91715 0.0
H1137 H 0.36007 0.41017 0.91024 0.0
H1138 H 0.37063 0.43071 0.95895 0.0
O1139 O 0.37277 0.46014 0.94239 0.0
C1140 C 0.39303 0.43614 0.90196 0.0
O1141 O 0.37962 0.43527 0.89163 0.0
N1142 N 0.34346 0.45334 0.9226 0.0
C1143 C 0.30839 0.45798 0.92831 0.0
C1144 C 0.32001 0.4714 0.93164 0.0
C1145 C 0.33751 0.46902 0.92811 0.0
C1146 C 0.33204 0.44113 0.9172 0.0
C1147 C 0.31447 0.44304 0.92021 0.0
H1148 H 0.34641 0.47937 0.9309 0.0
H1149 H 0.33649 0.42961 0.91088 0.0
H1150 H 0.39176 0.47912 0.92288 0.0
H1151 H 0.36743 0.49641 0.8776 0.0
H1152 H 0.35902 0.38481 0.93327 0.0
H1153 H 0.31568 0.48339 0.93735 0.0
H1154 H 0.30587 0.43253 0.91697 0.0
C1155 C 0.5189 0.35482 0.8846 0.0
C1156 C 0.50508 0.36283 0.87684 0.0
N1157 N 0.50291 0.37838 0.88428 0.0
N1158 N 0.52523 0.3652 0.89704 0.0
C1159 C 0.51563 0.37968 0.89603 0.0
H1160 H 0.52355 0.34197 0.88183 0.0
Co1161 Co 0.5428 0.36091 0.9129 0.0
C1162 C 0.51269 0.36989 0.93673 0.0
O1163 O 0.50027 0.3678 0.92543 0.0
N1164 N 0.56046 0.35687 0.92912 0.0
C1165 C 0.57282 0.34867 0.95365 0.0
C1166 C 0.55959 0.34563 0.94242 0.0
C1167 C 0.57451 0.36657 0.93266 0.0
N1168 N 0.58211 0.36206 0.94769 0.0
O1169 O 0.55018 0.38432 0.91064 0.0
H1170 H 0.54914 0.33676 0.94482 0.0
H1171 H 0.57841 0.37757 0.92508 0.0
O1172 O 0.52837 0.36722 0.93248 0.0
C1173 C 0.55917 0.38649 0.89709 0.0
O1174 O 0.56156 0.37322 0.88682 0.0
N1175 N 0.53656 0.33752 0.91411 0.0
C1176 C 0.53666 0.30259 0.92197 0.0
C1177 C 0.52258 0.31297 0.92656 0.0
C1178 C 0.52269 0.33047 0.92235 0.0
C1179 C 0.54913 0.32719 0.90753 0.0
C1180 C 0.54956 0.30967 0.91146 0.0
H1181 H 0.5122 0.33828 0.92676 0.0
H1182 H 0.55982 0.33293 0.90064 0.0
H1183 H 0.51724 0.39059 0.90459 0.0
H1184 H 0.49662 0.3572 0.86728 0.0
H1185 H 0.57425 0.34268 0.96617 0.0
H1186 H 0.51206 0.30784 0.93416 0.0
H1187 H 0.56064 0.30215 0.90753 0.0
C1188 C 0.63397 0.4705 0.11721 0.0
C1189 C 0.6308 0.48691 0.12315 0.0
N1190 N 0.62455 0.49639 0.10997 0.0
N1191 N 0.62983 0.4697 0.10038 0.0
C1192 C 0.62405 0.48559 0.09634 0.0
H1193 H 0.63878 0.45977 0.1247 0.0
Co1194 Co 0.63111 0.45021 0.0869 0.0
C1195 C 0.6381 0.46339 0.05138 0.0
O1196 O 0.6501 0.45161 0.04913 0.0
N1197 N 0.63193 0.43 0.07334 0.0
C1198 C 0.63833 0.40497 0.06079 0.0
C1199 C 0.64082 0.4151 0.07513 0.0
C1200 C 0.62325 0.42795 0.05839 0.0
N1201 N 0.62751 0.4133 0.05013 0.0
O1202 O 0.6067 0.4488 0.08677 0.0
H1203 H 0.64891 0.41166 0.08588 0.0
H1204 H 0.61438 0.43744 0.0533 0.0
O1205 O 0.63009 0.46438 0.06577 0.0
C1206 C 0.60029 0.43901 0.09824 0.0
O1207 O 0.61074 0.4313 0.10912 0.0
N1208 N 0.65528 0.45123 0.08823 0.0
C1209 C 0.69027 0.44439 0.08708 0.0
C1210 C 0.6836 0.45907 0.07885 0.0
C1211 C 0.66596 0.46261 0.0801 0.0
C1212 C 0.66207 0.43923 0.09907 0.0
C1213 C 0.67956 0.43529 0.09844 0.0
H1214 H 0.66087 0.47383 0.07364 0.0
H1215 H 0.65359 0.43169 0.10718 0.0
H1216 H 0.61957 0.48917 0.08364 0.0
H1217 H 0.63262 0.49136 0.13624 0.0
H1218 H 0.64461 0.3928 0.05811 0.0
H1219 H 0.69157 0.46701 0.07059 0.0
H1220 H 0.6844 0.42454 0.10592 0.0
C1221 C 0.53572 0.63558 0.11032 0.0
C1222 C 0.52182 0.62717 0.11731 0.0
N1223 N 0.51569 0.61602 0.10549 0.0
N1224 N 0.5383 0.62984 0.09414 0.0
C1225 C 0.52589 0.61792 0.0915 0.0
H1226 H 0.54381 0.6449 0.1168 0.0
Co1227 Co 0.55719 0.6359 0.08103 0.0
C1228 C 0.54489 0.63799 0.04513 0.0
O1229 O 0.55408 0.65212 0.04343 0.0
N1230 N 0.57711 0.64164 0.06821 0.0
C1231 C 0.60163 0.65279 0.05829 0.0
C1232 C 0.58911 0.65402 0.07076 0.0
C1233 C 0.58321 0.63257 0.05462 0.0
N1234 N 0.59781 0.63934 0.04803 0.0
O1235 O 0.56572 0.61303 0.08297 0.0
H1236 H 0.58925 0.66327 0.08111 0.0
H1237 H 0.57668 0.62143 0.04934 0.0
O1238 O 0.54473 0.62992 0.05955 0.0
C1239 C 0.5758 0.61198 0.09586 0.0
O1240 O 0.57836 0.62587 0.10523 0.0
N1241 N 0.54904 0.65879 0.08062 0.0
C1242 C 0.54171 0.6938 0.08039 0.0
C1243 C 0.53122 0.68227 0.0713 0.0
C1244 C 0.53467 0.66462 0.07223 0.0
C1245 C 0.55773 0.66956 0.0914 0.0
C1246 C 0.55453 0.68722 0.09126 0.0
H1247 H 0.52599 0.6558 0.06588 0.0
H1248 H 0.56755 0.66443 0.09985 0.0
H1249 H 0.52487 0.61021 0.07991 0.0
H1250 H 0.51674 0.62896 0.13018 0.0
H1251 H 0.61277 0.66109 0.05703 0.0
H1252 H 0.52062 0.68688 0.06346 0.0
H1253 H 0.56252 0.69568 0.09898 0.0
C1254 C 0.36598 0.52608 0.10959 0.0
C1255 C 0.36848 0.50853 0.11105 0.0
N1256 N 0.37845 0.50338 0.0978 0.0
N1257 N 0.37439 0.53182 0.09551 0.0
C1258 C 0.38198 0.51776 0.08873 0.0
H1259 H 0.3585 0.53414 0.11816 0.0
Co1260 Co 0.37566 0.55413 0.08729 0.0
C1261 C 0.37148 0.54751 0.04911 0.0
O1262 O 0.35969 0.55957 0.04741 0.0
N1263 N 0.37756 0.57701 0.07944 0.0
C1264 C 0.37744 0.60574 0.07796 0.0
C1265 C 0.37407 0.59167 0.08823 0.0
C1266 C 0.38445 0.58266 0.0645 0.0
N1267 N 0.38394 0.59994 0.063 0.0
O1268 O 0.39994 0.55404 0.09007 0.0
H1269 H 0.36978 0.59227 0.10145 0.0
H1270 H 0.38988 0.57435 0.05478 0.0
O1271 O 0.37861 0.54488 0.06375 0.0
C1272 C 0.40611 0.55593 0.10512 0.0
O1273 O 0.39556 0.55617 0.11837 0.0
N1274 N 0.35136 0.55451 0.08509 0.0
C1275 C 0.31726 0.56177 0.0772 0.0
C1276 C 0.32522 0.54703 0.07038 0.0
C1277 C 0.34226 0.54332 0.07496 0.0
C1278 C 0.34273 0.56667 0.09435 0.0
C1279 C 0.32576 0.57087 0.09028 0.0
H1280 H 0.34847 0.5322 0.06932 0.0
H1281 H 0.34916 0.5736 0.10449 0.0
H1282 H 0.39023 0.51809 0.07749 0.0
H1283 H 0.36318 0.5002 0.12091 0.0
H1284 H 0.37545 0.61915 0.08127 0.0
H1285 H 0.31883 0.53913 0.0608 0.0
H1286 H 0.3196 0.58157 0.09681 0.0
C1287 C 0.46925 0.36504 0.11367 0.0
C1288 C 0.48291 0.37524 0.1187 0.0
N1289 N 0.48689 0.3859 0.10556 0.0
N1290 N 0.46484 0.36917 0.09739 0.0
C1291 C 0.47567 0.38199 0.09288 0.0
H1292 H 0.46313 0.35505 0.12123 0.0
Co1293 Co 0.44802 0.35921 0.08373 0.0
C1294 C 0.45685 0.37197 0.04939 0.0
O1295 O 0.44114 0.37808 0.0479 0.0
N1296 N 0.43088 0.34914 0.06945 0.0
C1297 C 0.41922 0.3342 0.04791 0.0
C1298 C 0.43295 0.3354 0.05893 0.0
C1299 C 0.41562 0.356 0.06449 0.0
N1300 N 0.4085 0.3475 0.05101 0.0
O1301 O 0.43712 0.38105 0.08189 0.0
H1302 H 0.4444 0.32754 0.05808 0.0
H1303 H 0.41082 0.36816 0.06928 0.0
O1304 O 0.46142 0.36418 0.06314 0.0
C1305 C 0.42905 0.38825 0.09418 0.0
O1306 O 0.42828 0.3806 0.10927 0.0
N1307 N 0.45874 0.3378 0.08626 0.0
C1308 C 0.4678 0.30367 0.08098 0.0
C1309 C 0.47929 0.31698 0.07661 0.0
C1310 C 0.47448 0.33409 0.07936 0.0
C1311 C 0.44901 0.32516 0.09357 0.0
C1312 C 0.45313 0.30788 0.09077 0.0
H1313 H 0.48278 0.34427 0.07473 0.0
H1314 H 0.43687 0.32844 0.09959 0.0
H1315 H 0.47566 0.388 0.0803 0.0
H1316 H 0.48947 0.37474 0.13101 0.0
H1317 H 0.4181 0.32504 0.03746 0.0
H1318 H 0.49122 0.31431 0.06987 0.0
H1319 H 0.44389 0.29819 0.09467 0.0
C1320 C 0.88664 0.63702 0.52692 0.0
C1321 C 0.88171 0.62946 0.51158 0.0
N1322 N 0.89288 0.61663 0.50799 0.0
N1323 N 0.90093 0.62907 0.53274 0.0
C1324 C 0.90438 0.61676 0.52101 0.0
H1325 H 0.88009 0.6474 0.53355 0.0
Co1326 Co 0.91278 0.63213 0.5531 0.0
C1327 C 0.94958 0.63329 0.54309 0.0
O1328 O 0.95176 0.64596 0.55413 0.0
N1329 N 0.92486 0.63444 0.57425 0.0
C1330 C 0.93701 0.64109 0.59951 0.0
C1331 C 0.9251 0.64608 0.58729 0.0
C1332 C 0.93622 0.62226 0.57934 0.0
N1333 N 0.94387 0.62604 0.59442 0.0
O1334 O 0.90916 0.60838 0.55822 0.0
H1335 H 0.9173 0.65751 0.58824 0.0
H1336 H 0.93941 0.61104 0.57168 0.0
O1337 O 0.9347 0.62634 0.54134 0.0
C1338 C 0.89908 0.60392 0.57035 0.0
O1339 O 0.89135 0.61586 0.57955 0.0
N1340 N 0.9154 0.65568 0.54778 0.0
C1341 C 0.9241 0.69023 0.54538 0.0
C1342 C 0.92947 0.67858 0.53263 0.0
C1343 C 0.9244 0.66138 0.53375 0.0
C1344 C 0.90723 0.6673 0.55805 0.0
C1345 C 0.91176 0.6847 0.55741 0.0
H1346 H 0.92873 0.65248 0.52395 0.0
H1347 H 0.89801 0.66288 0.56753 0.0
H1348 H 0.91513 0.60795 0.52212 0.0
H1349 H 0.87055 0.63288 0.50394 0.0
H1350 H 0.94036 0.64797 0.61118 0.0
H1351 H 0.93839 0.68232 0.52258 0.0
H1352 H 0.90629 0.69353 0.56675 0.0
C1353 C 0.88919 0.36308 0.47581 0.0
C1354 C 0.88123 0.37092 0.4896 0.0
N1355 N 0.89147 0.38379 0.49521 0.0
N1356 N 0.90446 0.37087 0.47288 0.0
C1357 C 0.90524 0.38367 0.48462 0.0
H1358 H 0.88429 0.35218 0.46864 0.0
Co1359 Co 0.92112 0.36573 0.45639 0.0
C1360 C 0.94192 0.3647 0.48971 0.0
O1361 O 0.9292 0.36012 0.49992 0.0
N1362 N 0.93785 0.36065 0.43992 0.0
C1363 C 0.9601 0.3483 0.42679 0.0
C1364 C 0.95028 0.34854 0.44148 0.0
C1365 C 0.94055 0.36779 0.42427 0.0
N1366 N 0.95397 0.36042 0.41604 0.0
O1367 O 0.92441 0.38963 0.4522 0.0
H1368 H 0.95236 0.3406 0.45273 0.0
H1369 H 0.93302 0.37831 0.41907 0.0
O1370 O 0.93941 0.36647 0.47353 0.0
C1371 C 0.91251 0.39609 0.44293 0.0
O1372 O 0.89935 0.38631 0.43866 0.0
N1373 N 0.91696 0.34222 0.45877 0.0
C1374 C 0.9145 0.30743 0.45015 0.0
C1375 C 0.92194 0.31261 0.46592 0.0
C1376 C 0.92326 0.33017 0.46992 0.0
C1377 C 0.90801 0.33738 0.44452 0.0
C1378 C 0.90688 0.32019 0.4398 0.0
H1379 H 0.93036 0.33387 0.48122 0.0
H1380 H 0.90311 0.34718 0.43588 0.0
H1381 H 0.91602 0.39247 0.48564 0.0
H1382 H 0.8692 0.36699 0.49546 0.0
H1383 H 0.9714 0.34043 0.42452 0.0
H1384 H 0.92751 0.30333 0.47472 0.0
H1385 H 0.9012 0.31732 0.4274 0.0
C1386 C 0.6267 0.88488 0.47216 0.0
C1387 C 0.62069 0.87758 0.4872 0.0
N1388 N 0.61362 0.89014 0.49694 0.0
N1389 N 0.62347 0.90192 0.47249 0.0
C1390 C 0.61538 0.90471 0.48761 0.0
H1391 H 0.63326 0.87828 0.46178 0.0
Co1392 Co 0.62966 0.91785 0.45591 0.0
C1393 C 0.61863 0.95077 0.47135 0.0
O1394 O 0.61034 0.9551 0.45723 0.0
N1395 N 0.63596 0.93404 0.43913 0.0
C1396 C 0.6487 0.9561 0.42599 0.0
C1397 C 0.64846 0.94612 0.44058 0.0
C1398 C 0.62868 0.9371 0.42361 0.0
N1399 N 0.6362 0.95045 0.41541 0.0
O1400 O 0.60623 0.91967 0.44919 0.0
H1401 H 0.6565 0.948 0.4518 0.0
H1402 H 0.61774 0.93009 0.41857 0.0
O1403 O 0.62661 0.93644 0.47216 0.0
C1404 C 0.59993 0.90784 0.43976 0.0
O1405 O 0.6098 0.89485 0.43519 0.0
N1406 N 0.6527 0.9154 0.46226 0.0
C1407 C 0.6879 0.92011 0.46576 0.0
C1408 C 0.67681 0.92355 0.47963 0.0
C1409 C 0.65915 0.92093 0.47767 0.0
C1410 C 0.66342 0.90962 0.44963 0.0
C1411 C 0.68116 0.91204 0.45103 0.0
H1412 H 0.65063 0.92449 0.48809 0.0
H1413 H 0.65805 0.90479 0.4377 0.0
H1414 H 0.61134 0.91729 0.49198 0.0
H1415 H 0.62164 0.86411 0.49069 0.0
H1416 H 0.65671 0.96732 0.42378 0.0
H1417 H 0.68162 0.92923 0.49145 0.0
H1418 H 0.68925 0.90906 0.44005 0.0
C1419 C 0.10694 0.63842 0.47103 0.0
C1420 C 0.11196 0.63075 0.48625 0.0
N1421 N 0.09995 0.61898 0.49063 0.0
N1422 N 0.09174 0.63164 0.46603 0.0
C1423 C 0.08785 0.61986 0.47819 0.0
H1424 H 0.11413 0.64796 0.46385 0.0
Co1425 Co 0.07957 0.63531 0.44592 0.0
C1426 C 0.04321 0.64085 0.45885 0.0
O1427 O 0.04032 0.65375 0.44823 0.0
N1428 N 0.06738 0.63861 0.42508 0.0
C1429 C 0.05964 0.6463 0.39853 0.0
C1430 C 0.07243 0.64711 0.41073 0.0
C1431 C 0.0519 0.63188 0.42076 0.0
N1432 N 0.04658 0.63687 0.40495 0.0
O1433 O 0.07906 0.61112 0.44214 0.0
H1434 H 0.08476 0.65322 0.40885 0.0
H1435 H 0.04454 0.62365 0.42923 0.0
O1436 O 0.05785 0.63327 0.45899 0.0
C1437 C 0.08774 0.60503 0.42965 0.0
O1438 O 0.09629 0.61555 0.4195 0.0
N1439 N 0.0812 0.65926 0.44924 0.0
C1440 C 0.07896 0.69399 0.44199 0.0
C1441 C 0.06963 0.68703 0.45586 0.0
C1442 C 0.07142 0.6695 0.45969 0.0
C1443 C 0.09313 0.66657 0.43869 0.0
C1444 C 0.09206 0.68399 0.43458 0.0
H1445 H 0.06396 0.66407 0.47009 0.0
H1446 H 0.10228 0.65846 0.43198 0.0
H1447 H 0.07642 0.61188 0.47774 0.0
H1448 H 0.1238 0.6332 0.49321 0.0
H1449 H 0.06007 0.65209 0.38585 0.0
H1450 H 0.06 0.69454 0.46262 0.0
H1451 H 0.10034 0.68917 0.4246 0.0
C1452 C 0.36053 0.11288 0.47505 0.0
C1453 C 0.36775 0.11712 0.49075 0.0
N1454 N 0.37827 0.10413 0.49554 0.0
N1455 N 0.36638 0.09723 0.47024 0.0
C1456 C 0.37707 0.09227 0.48294 0.0
H1457 H 0.35197 0.12083 0.46743 0.0
Co1458 Co 0.3632 0.08526 0.44999 0.0
C1459 C 0.35436 0.04972 0.4607 0.0
O1460 O 0.34181 0.05001 0.44931 0.0
N1461 N 0.36082 0.07279 0.42905 0.0
C1462 C 0.35254 0.05872 0.40535 0.0
C1463 C 0.34994 0.07318 0.4154 0.0
C1464 C 0.37053 0.05861 0.4262 0.0
N1465 N 0.36529 0.04939 0.41247 0.0
O1466 O 0.38743 0.08405 0.44729 0.0
H1467 H 0.34 0.0826 0.41314 0.0
H1468 H 0.38042 0.05427 0.43503 0.0
O1469 O 0.36377 0.06313 0.46281 0.0
C1470 C 0.39539 0.0968 0.44082 0.0
O1471 O 0.3866 0.11057 0.4363 0.0
N1472 N 0.33926 0.0875 0.45276 0.0
C1473 C 0.30349 0.08886 0.45322 0.0
C1474 C 0.31256 0.08071 0.4666 0.0
C1475 C 0.3305 0.08071 0.46643 0.0
C1476 C 0.33088 0.09787 0.44137 0.0
C1477 C 0.3129 0.09845 0.44109 0.0
H1478 H 0.33728 0.07455 0.47691 0.0
H1479 H 0.33817 0.10512 0.43195 0.0
H1480 H 0.38412 0.08024 0.48275 0.0
H1481 H 0.3659 0.12904 0.49776 0.0
H1482 H 0.34468 0.05468 0.39454 0.0
H1483 H 0.30599 0.07359 0.47665 0.0
H1484 H 0.30648 0.10586 0.43115 0.0
C1485 C 0.10892 0.35742 0.52112 0.0
C1486 C 0.10901 0.36278 0.50416 0.0
N1487 N 0.09754 0.37577 0.50239 0.0
N1488 N 0.09737 0.3669 0.52994 0.0
C1489 C 0.09084 0.378 0.5183 0.0
H1490 H 0.11676 0.3473 0.52666 0.0
Co1491 Co 0.09133 0.36612 0.55301 0.0
C1492 C 0.05231 0.36522 0.55106 0.0
O1493 O 0.05092 0.35425 0.5639 0.0
N1494 N 0.0855 0.366 0.57661 0.0
C1495 C 0.08398 0.36176 0.60498 0.0
C1496 C 0.09288 0.35786 0.59015 0.0
C1497 C 0.07305 0.37575 0.58387 0.0
N1498 N 0.07135 0.37292 0.60093 0.0
O1499 O 0.09515 0.39018 0.55497 0.0
H1500 H 0.1041 0.3497 0.58963 0.0
H1501 H 0.06491 0.3844 0.5766 0.0
O1502 O 0.06721 0.37048 0.54629 0.0
C1503 C 0.11071 0.3948 0.55716 0.0
O1504 O 0.12291 0.38309 0.55619 0.0
N1505 N 0.08841 0.3421 0.55135 0.0
C1506 C 0.08237 0.30756 0.55767 0.0
C1507 C 0.072 0.31652 0.54592 0.0
C1508 C 0.07552 0.33387 0.5426 0.0
C1509 C 0.10048 0.33267 0.55989 0.0
C1510 C 0.09742 0.31541 0.56378 0.0
H1511 H 0.06738 0.34078 0.53369 0.0
H1512 H 0.11199 0.33887 0.56466 0.0
H1513 H 0.08132 0.38757 0.52165 0.0
H1514 H 0.11705 0.35754 0.49406 0.0
H1515 H 0.08652 0.35662 0.6177 0.0
H1516 H 0.06067 0.31058 0.54031 0.0
H1517 H 0.10624 0.30854 0.57215 0.0
C1518 C 0.63962 0.10728 0.5173 0.0
C1519 C 0.6346 0.10723 0.50025 0.0
N1520 N 0.62383 0.0938 0.49776 0.0
N1521 N 0.63212 0.09389 0.52542 0.0
C1522 C 0.6225 0.08605 0.51327 0.0
H1523 H 0.64821 0.11644 0.52337 0.0
Co1524 Co 0.63384 0.08741 0.54827 0.0
C1525 C 0.63974 0.04942 0.54693 0.0
O1526 O 0.6511 0.05029 0.55948 0.0
N1527 N 0.63491 0.08083 0.57176 0.0
C1528 C 0.64076 0.07677 0.59959 0.0
C1529 C 0.6443 0.0866 0.58527 0.0
C1530 C 0.62508 0.06816 0.57861 0.0
N1531 N 0.62878 0.06498 0.5953 0.0
O1532 O 0.60958 0.08769 0.55012 0.0
H1533 H 0.65332 0.09714 0.58508 0.0
H1534 H 0.61562 0.06106 0.57123 0.0
O1535 O 0.63253 0.06314 0.54133 0.0
C1536 C 0.602 0.10079 0.55635 0.0
O1537 O 0.61115 0.11449 0.56028 0.0
N1538 N 0.65796 0.08782 0.54634 0.0
C1539 C 0.69362 0.0879 0.54942 0.0
C1540 C 0.6854 0.07617 0.53836 0.0
C1541 C 0.66749 0.07657 0.53673 0.0
C1542 C 0.66589 0.10113 0.55454 0.0
C1543 C 0.68371 0.10115 0.55677 0.0
H1544 H 0.66136 0.06754 0.5281 0.0
H1545 H 0.65821 0.11125 0.56029 0.0
H1546 H 0.61433 0.07507 0.51591 0.0
H1547 H 0.63869 0.11629 0.49047 0.0
H1548 H 0.64704 0.07788 0.61199 0.0
H1549 H 0.69264 0.06645 0.53143 0.0
H1550 H 0.68942 0.11089 0.56497 0.0
C1551 C 0.37976 0.88984 0.54288 0.0
C1552 C 0.38614 0.8812 0.5288 0.0
N1553 N 0.3864 0.89215 0.51531 0.0
N1554 N 0.37604 0.90619 0.53834 0.0
C1555 C 0.38016 0.9072 0.52146 0.0
H1556 H 0.37795 0.88456 0.55565 0.0
Co1557 Co 0.3672 0.92253 0.55335 0.0
C1558 C 0.38541 0.95249 0.53534 0.0
O1559 O 0.39828 0.95493 0.54606 0.0
N1560 N 0.3582 0.9385 0.56885 0.0
C1561 C 0.34114 0.95059 0.5884 0.0
C1562 C 0.34309 0.93693 0.57731 0.0
C1563 C 0.36533 0.95304 0.5752 0.0
N1564 N 0.35519 0.96071 0.58709 0.0
O1565 O 0.38865 0.92295 0.56518 0.0
H1566 H 0.33416 0.92635 0.57573 0.0
H1567 H 0.37806 0.95747 0.57178 0.0
O1568 O 0.37435 0.94069 0.53809 0.0
C1569 C 0.38856 0.91383 0.57881 0.0
O1570 O 0.37413 0.90619 0.58335 0.0
N1571 N 0.34586 0.92149 0.54224 0.0
C1572 C 0.31106 0.92065 0.53382 0.0
C1573 C 0.32098 0.9353 0.53027 0.0
C1574 C 0.33833 0.93556 0.53477 0.0
C1575 C 0.33674 0.90667 0.54463 0.0
C1576 C 0.31922 0.90598 0.54055 0.0
H1577 H 0.34515 0.94761 0.53356 0.0
H1578 H 0.34275 0.89579 0.55094 0.0
H1579 H 0.37841 0.91866 0.51376 0.0
H1580 H 0.3905 0.86795 0.52863 0.0
H1581 H 0.33026 0.95278 0.59684 0.0
H1582 H 0.31507 0.94702 0.52548 0.0
H1583 H 0.31193 0.89445 0.54353 0.0
H1584 H 0.07719 0.43537 0.28519 0.0
H1585 H 0.07457 0.49118 0.28112 0.0
H1586 H 0.06091 0.48825 0.25245 0.0
H1587 H 0.0877 0.42741 0.24031 0.0
H1588 H 0.07521 0.40783 0.23969 0.0
H1589 H 0.08499 0.4147 0.25958 0.0
H1590 H 0.05505 0.41356 0.2744 0.0
H1591 H 0.04509 0.40713 0.25443 0.0
H1592 H 0.03749 0.42602 0.26564 0.0
H1593 H 0.04659 0.47897 0.22463 0.0
H1594 H 0.03644 0.46432 0.19823 0.0
H1595 H 0.0491 0.41475 0.22082 0.0
C1596 C 0.07426 0.44707 0.27815 0.0
C1597 C 0.07707 0.46354 0.28545 0.0
C1598 C 0.07246 0.47842 0.27588 0.0
C1599 C 0.06467 0.47688 0.25961 0.0
C1600 C 0.06164 0.4604 0.25311 0.0
C1601 C 0.06659 0.44578 0.26197 0.0
C1602 C 0.06211 0.42954 0.25217 0.0
C1603 C 0.07848 0.41927 0.24767 0.0
C1604 C 0.04917 0.41841 0.26227 0.0
C1605 C 0.05391 0.43727 0.2363 0.0
C1606 C 0.05356 0.45508 0.23715 0.0
C1607 C 0.04678 0.46504 0.22384 0.0
C1608 C 0.04085 0.45659 0.209 0.0
C1609 C 0.04185 0.4384 0.20759 0.0
C1610 C 0.04809 0.42866 0.22161 0.0
H1611 H 0.57358 0.03403 0.21494 0.0
H1612 H 0.57398 0.08512 0.19225 0.0
H1613 H 0.55977 0.09689 0.21821 0.0
H1614 H 0.53264 0.03746 0.23699 0.0
H1615 H 0.53985 0.02602 0.25589 0.0
H1616 H 0.5493 0.02135 0.23519 0.0
H1617 H 0.57977 0.0278 0.24736 0.0
H1618 H 0.57043 0.03218 0.26814 0.0
H1619 H 0.58378 0.04816 0.25783 0.0
H1620 H 0.54531 0.10303 0.2464 0.0
H1621 H 0.53489 0.10381 0.27646 0.0
H1622 H 0.54596 0.04909 0.28136 0.0
C1623 C 0.57067 0.04768 0.21553 0.0
C1624 C 0.57488 0.05873 0.20176 0.0
C1625 C 0.57099 0.07654 0.20286 0.0
C1626 C 0.56279 0.08329 0.21743 0.0
C1627 C 0.55869 0.07206 0.2308 0.0
C1628 C 0.56273 0.0547 0.23012 0.0
C1629 C 0.5579 0.04568 0.2467 0.0
C1630 C 0.5441 0.03181 0.24349 0.0
C1631 C 0.57392 0.03801 0.25553 0.0
C1632 C 0.55063 0.0607 0.2568 0.0
C1633 C 0.55091 0.07574 0.2473 0.0
C1634 C 0.54508 0.09134 0.25403 0.0
C1635 C 0.53925 0.09167 0.27113 0.0
C1636 C 0.53956 0.07655 0.28138 0.0
C1637 C 0.54509 0.06084 0.27389 0.0
H1638 H 0.95094 0.56162 0.2092 0.0
H1639 H 0.95084 0.61734 0.21468 0.0
H1640 H 0.94098 0.61427 0.24478 0.0
H1641 H 0.91369 0.55349 0.23241 0.0
H1642 H 0.9212 0.53406 0.24271 0.0
H1643 H 0.92986 0.54035 0.22213 0.0
H1644 H 0.96085 0.53976 0.23458 0.0
H1645 H 0.95232 0.53313 0.25515 0.0
H1646 H 0.96573 0.55205 0.25369 0.0
H1647 H 0.92849 0.60533 0.27299 0.0
H1648 H 0.91691 0.59105 0.29888 0.0
H1649 H 0.92588 0.54101 0.27548 0.0
C1650 C 0.94941 0.57318 0.21688 0.0
C1651 C 0.95166 0.58974 0.20958 0.0
C1652 C 0.94904 0.60453 0.21995 0.0
C1653 C 0.94349 0.60292 0.23706 0.0
C1654 C 0.94081 0.58642 0.24363 0.0
C1655 C 0.94395 0.5718 0.23399 0.0
C1656 C 0.93943 0.5556 0.24394 0.0
C1657 C 0.9252 0.54528 0.23474 0.0
C1658 C 0.95554 0.54448 0.24703 0.0
C1659 C 0.9329 0.56343 0.26057 0.0
C1660 C 0.93379 0.58123 0.26007 0.0
C1661 C 0.92787 0.5914 0.2736 0.0
C1662 C 0.92113 0.58317 0.28815 0.0
C1663 C 0.92038 0.56493 0.2891 0.0
C1664 C 0.92636 0.55496 0.2751 0.0
H1665 H 0.43938 0.94408 0.29288 0.0
H1666 H 0.44529 0.88926 0.28321 0.0
H1667 H 0.43836 0.894 0.25251 0.0
H1668 H 0.40386 0.95064 0.26593 0.0
H1669 H 0.41047 0.97153 0.2582 0.0
H1670 H 0.41729 0.96425 0.27915 0.0
H1671 H 0.44926 0.96892 0.27068 0.0
H1672 H 0.44253 0.97647 0.24976 0.0
H1673 H 0.45758 0.95884 0.25147 0.0
H1674 H 0.42892 0.90418 0.22376 0.0
H1675 H 0.41917 0.9194 0.19774 0.0
H1676 H 0.4195 0.96789 0.22573 0.0
C1677 C 0.43967 0.93314 0.28421 0.0
C1678 C 0.4429 0.91629 0.29039 0.0
C1679 C 0.44273 0.90224 0.27874 0.0
C1680 C 0.43887 0.90481 0.2613 0.0
C1681 C 0.4353 0.92151 0.25575 0.0
C1682 C 0.43585 0.93548 0.26677 0.0
C1683 C 0.43084 0.95199 0.25758 0.0
C1684 C 0.41465 0.96007 0.2657 0.0
C1685 C 0.44596 0.96481 0.25736 0.0
C1686 C 0.42713 0.94506 0.23972 0.0
C1687 C 0.42981 0.92745 0.23901 0.0
C1688 C 0.42682 0.91797 0.22412 0.0
C1689 C 0.42109 0.92672 0.20947 0.0
C1690 C 0.41833 0.9448 0.20979 0.0
C1691 C 0.42148 0.95409 0.22513 0.0
H1692 H 0.07999 0.57243 0.70897 0.0
H1693 H 0.0834 0.51703 0.71663 0.0
H1694 H 0.06914 0.52018 0.74487 0.0
H1695 H 0.08939 0.58389 0.75343 0.0
H1696 H 0.07495 0.60209 0.75318 0.0
H1697 H 0.08536 0.5953 0.73358 0.0
H1698 H 0.05548 0.59257 0.71887 0.0
H1699 H 0.04495 0.59901 0.73854 0.0
H1700 H 0.03928 0.57889 0.72838 0.0
H1701 H 0.05362 0.5292 0.77166 0.0
H1702 H 0.0415 0.54376 0.79713 0.0
H1703 H 0.0493 0.59345 0.77256 0.0
C1704 C 0.07813 0.56095 0.71669 0.0
C1705 C 0.08276 0.54444 0.71046 0.0
C1706 C 0.07973 0.52978 0.72094 0.0
C1707 C 0.07165 0.53144 0.73702 0.0
C1708 C 0.06684 0.54785 0.7425 0.0
C1709 C 0.07026 0.56238 0.73281 0.0
C1710 C 0.06414 0.57858 0.74185 0.0
C1711 C 0.07937 0.59067 0.74574 0.0
C1712 C 0.05013 0.5878 0.73128 0.0
C1713 C 0.05677 0.57088 0.75817 0.0
C1714 C 0.05825 0.55311 0.75816 0.0
C1715 C 0.05239 0.5431 0.77183 0.0
C1716 C 0.04533 0.55149 0.78615 0.0
C1717 C 0.04432 0.56974 0.78676 0.0
C1718 C 0.04987 0.5795 0.77243 0.0
H1719 H 0.45775 0.06567 0.7172 0.0
H1720 H 0.45283 0.12125 0.7218 0.0
H1721 H 0.445 0.11792 0.75246 0.0
H1722 H 0.4229 0.05472 0.74175 0.0
H1723 H 0.43243 0.03622 0.7521 0.0
H1724 H 0.4399 0.04289 0.73119 0.0
H1725 H 0.47115 0.04535 0.74268 0.0
H1726 H 0.46388 0.03832 0.7636 0.0
H1727 H 0.47547 0.05835 0.76146 0.0
H1728 H 0.43396 0.10831 0.7812 0.0
H1729 H 0.42341 0.09321 0.80721 0.0
H1730 H 0.43669 0.04404 0.78416 0.0
C1731 C 0.45569 0.07722 0.72477 0.0
C1732 C 0.45588 0.09373 0.71707 0.0
C1733 C 0.45258 0.10845 0.72737 0.0
C1734 C 0.4482 0.1067 0.74481 0.0
C1735 C 0.44743 0.09017 0.75178 0.0
C1736 C 0.45142 0.0757 0.74219 0.0
C1737 C 0.44868 0.05934 0.75246 0.0
C1738 C 0.43517 0.04761 0.74386 0.0
C1739 C 0.46582 0.04978 0.75521 0.0
C1740 C 0.44198 0.06683 0.76916 0.0
C1741 C 0.44139 0.08464 0.76851 0.0
C1742 C 0.43462 0.0944 0.78197 0.0
C1743 C 0.4285 0.08572 0.79658 0.0
C1744 C 0.42925 0.06751 0.79757 0.0
C1745 C 0.43614 0.05799 0.78372 0.0
H1746 H 0.9677 0.42956 0.7886 0.0
H1747 H 0.95743 0.37466 0.78526 0.0
H1748 H 0.95017 0.37796 0.75446 0.0
H1749 H 0.93417 0.44316 0.76396 0.0
H1750 H 0.94521 0.46043 0.75302 0.0
H1751 H 0.95232 0.45364 0.77401 0.0
H1752 H 0.98306 0.44796 0.76228 0.0
H1753 H 0.97619 0.45518 0.74129 0.0
H1754 H 0.9859 0.43421 0.74377 0.0
H1755 H 0.93956 0.3879 0.72576 0.0
H1756 H 0.93001 0.40328 0.69954 0.0
H1757 H 0.94836 0.45151 0.72101 0.0
C1758 C 0.96466 0.4181 0.78123 0.0
C1759 C 0.96312 0.40185 0.78934 0.0
C1760 C 0.95857 0.38725 0.77934 0.0
C1761 C 0.95447 0.38899 0.76183 0.0
C1762 C 0.95524 0.40536 0.75448 0.0
C1763 C 0.96062 0.4196 0.76373 0.0
C1764 C 0.95926 0.43592 0.75307 0.0
C1765 C 0.94701 0.44905 0.76152 0.0
C1766 C 0.97717 0.44378 0.74991 0.0
C1767 C 0.95167 0.42871 0.73661 0.0
C1768 C 0.94947 0.41105 0.7377 0.0
C1769 C 0.94153 0.40166 0.72462 0.0
C1770 C 0.93597 0.41051 0.70989 0.0
C1771 C 0.93845 0.42852 0.70837 0.0
C1772 C 0.94645 0.43771 0.72187 0.0
H1773 H 0.55549 0.95465 0.7865 0.0
H1774 H 0.55127 0.90266 0.80677 0.0
H1775 H 0.53963 0.89273 0.77893 0.0
H1776 H 0.51592 0.95282 0.75907 0.0
H1777 H 0.52587 0.96535 0.74222 0.0
H1778 H 0.5319 0.96883 0.7644 0.0
H1779 H 0.56394 0.96336 0.75663 0.0
H1780 H 0.55802 0.95993 0.7345 0.0
H1781 H 0.56984 0.94355 0.74599 0.0
H1782 H 0.53232 0.88768 0.74815 0.0
H1783 H 0.52976 0.88807 0.71635 0.0
H1784 H 0.5371 0.94343 0.71641 0.0
C1785 C 0.55169 0.94128 0.78522 0.0
C1786 C 0.55436 0.92941 0.79876 0.0
C1787 C 0.54959 0.91193 0.79647 0.0
C1788 C 0.54277 0.9062 0.78078 0.0
C1789 C 0.54058 0.91816 0.76759 0.0
C1790 C 0.54477 0.93536 0.76967 0.0
C1791 C 0.54248 0.94527 0.75303 0.0
C1792 C 0.52819 0.95887 0.75479 0.0
C1793 C 0.55959 0.9535 0.7472 0.0
C1794 C 0.53704 0.93081 0.74112 0.0
C1795 C 0.53581 0.9153 0.74982 0.0
C1796 C 0.53279 0.89979 0.74125 0.0
C1797 C 0.53137 0.9001 0.72324 0.0
C1798 C 0.53289 0.91582 0.71414 0.0
C1799 C 0.53532 0.93137 0.72322 0.0
H1800 H 0.21908 0.06234 0.40084 0.0
H1801 H 0.19491 0.05215 0.4502 0.0
H1802 H 0.2209 0.06276 0.46523 0.0
H1803 H 0.26169 0.04831 0.41383 0.0
H1804 H 0.2726 0.0644 0.40109 0.0
H1805 H 0.25187 0.05641 0.39439 0.0
H1806 H 0.24023 0.08776 0.39373 0.0
H1807 H 0.26086 0.09579 0.40077 0.0
H1808 H 0.24168 0.10089 0.41286 0.0
H1809 H 0.24884 0.07557 0.47483 0.0
H1810 H 0.27877 0.08549 0.47857 0.0
H1811 H 0.28559 0.08515 0.42295 0.0
C1812 C 0.21939 0.06226 0.4148 0.0
C1813 C 0.20515 0.0564 0.42443 0.0
C1814 C 0.20587 0.0564 0.44266 0.0
C1815 C 0.22046 0.06257 0.45129 0.0
C1816 C 0.23423 0.0685 0.44145 0.0
C1817 C 0.234 0.06808 0.42363 0.0
C1818 C 0.2509 0.07436 0.4162 0.0
C1819 C 0.25979 0.06002 0.40577 0.0
C1820 C 0.24825 0.09067 0.40524 0.0
C1821 C 0.26063 0.07837 0.43263 0.0
C1822 C 0.25068 0.07518 0.44703 0.0
C1823 C 0.25685 0.07793 0.46366 0.0
C1824 C 0.27391 0.0835 0.46565 0.0
C1825 C 0.28469 0.08596 0.45109 0.0
C1826 C 0.27772 0.08369 0.43438 0.0
H1827 H 0.96088 0.21677 0.43466 0.0
H1828 H 0.92707 0.21023 0.39038 0.0
H1829 H 0.91356 0.23815 0.39673 0.0
H1830 H 0.93315 0.23672 0.46243 0.0
H1831 H 0.94801 0.25251 0.47077 0.0
H1832 H 0.95596 0.23229 0.46261 0.0
H1833 H 0.97591 0.24815 0.44102 0.0
H1834 H 0.96853 0.26845 0.44956 0.0
H1835 H 0.96691 0.26416 0.42678 0.0
H1836 H 0.9001 0.26356 0.41135 0.0
H1837 H 0.89336 0.29007 0.42713 0.0
H1838 H 0.93991 0.28333 0.45781 0.0
C1839 C 0.9511 0.22134 0.42584 0.0
C1840 C 0.94466 0.21081 0.41238 0.0
C1841 C 0.93176 0.21757 0.40128 0.0
C1842 C 0.92402 0.23349 0.4047 0.0
C1843 C 0.92987 0.2429 0.41878 0.0
C1844 C 0.94366 0.23753 0.42864 0.0
C1845 C 0.94783 0.25054 0.44261 0.0
C1846 C 0.94613 0.24252 0.46067 0.0
C1847 C 0.96586 0.25829 0.43982 0.0
C1848 C 0.93381 0.26374 0.43937 0.0
C1849 C 0.92338 0.25884 0.42583 0.0
C1850 C 0.90863 0.26801 0.42145 0.0
C1851 C 0.905 0.28318 0.4305 0.0
C1852 C 0.91645 0.2895 0.44335 0.0
C1853 C 0.9308 0.27923 0.44809 0.0
H1854 H 0.78483 0.92586 0.43342 0.0
H1855 H 0.7847 0.97941 0.44979 0.0
H1856 H 0.75547 0.97554 0.46183 0.0
H1857 H 0.74056 0.92458 0.42004 0.0
H1858 H 0.73742 0.90271 0.42723 0.0
H1859 H 0.75845 0.90975 0.42044 0.0
H1860 H 0.77105 0.90003 0.44984 0.0
H1861 H 0.74998 0.89321 0.45683 0.0
H1862 H 0.76202 0.90852 0.46951 0.0
H1863 H 0.72627 0.96585 0.4718 0.0
H1864 H 0.69811 0.95197 0.47657 0.0
H1865 H 0.71737 0.9048 0.45337 0.0
C1866 C 0.77859 0.93689 0.43927 0.0
C1867 C 0.78706 0.95296 0.44064 0.0
C1868 C 0.77853 0.96693 0.44875 0.0
C1869 C 0.76195 0.96485 0.45563 0.0
C1870 C 0.75411 0.94875 0.45427 0.0
C1871 C 0.76208 0.93507 0.44613 0.0
C1872 C 0.7507 0.91923 0.44591 0.0
C1873 C 0.74653 0.91376 0.4273 0.0
C1874 C 0.75893 0.90438 0.45614 0.0
C1875 C 0.73495 0.92621 0.45501 0.0
C1876 C 0.73726 0.94318 0.45992 0.0
C1877 C 0.72434 0.95252 0.46813 0.0
C1878 C 0.70845 0.94445 0.47094 0.0
C1879 C 0.7056 0.92724 0.46547 0.0
C1880 C 0.71918 0.91795 0.45772 0.0
H1881 H 0.04444 0.79079 0.43442 0.0
H1882 H 0.04489 0.78371 0.37894 0.0
H1883 H 0.05351 0.7533 0.38293 0.0
H1884 H 0.0812 0.767 0.44303 0.0
H1885 H 0.07369 0.75748 0.46286 0.0
H1886 H 0.06536 0.77802 0.45598 0.0
H1887 H 0.03416 0.76621 0.45727 0.0
H1888 H 0.04234 0.74569 0.46448 0.0
H1889 H 0.02877 0.74681 0.44564 0.0
H1890 H 0.06464 0.72499 0.39267 0.0
H1891 H 0.07577 0.69933 0.40754 0.0
H1892 H 0.0686 0.72469 0.45696 0.0
C1893 C 0.04579 0.78265 0.42315 0.0
C1894 C 0.0439 0.78948 0.40637 0.0
C1895 C 0.04628 0.77865 0.39189 0.0
C1896 C 0.05115 0.76141 0.39403 0.0
C1897 C 0.05352 0.75525 0.41074 0.0
C1898 C 0.05072 0.76544 0.42507 0.0
C1899 C 0.05522 0.75592 0.44154 0.0
C1900 C 0.06973 0.76516 0.45143 0.0
C1901 C 0.03917 0.75352 0.4529 0.0
C1902 C 0.06134 0.73892 0.43419 0.0
C1903 C 0.06018 0.73884 0.4164 0.0
C1904 C 0.06555 0.72485 0.40659 0.0
C1905 C 0.07208 0.71043 0.41518 0.0
C1906 C 0.0733 0.71009 0.43343 0.0
C1907 C 0.06781 0.72456 0.44303 0.0
H1908 H 0.28872 0.91141 0.55914 0.0
H1909 H 0.29085 0.93401 0.50805 0.0
H1910 H 0.25988 0.94142 0.5101 0.0
H1911 H 0.24395 0.89434 0.55633 0.0
H1912 H 0.2397 0.89957 0.57857 0.0
H1913 H 0.26121 0.89392 0.57187 0.0
H1914 H 0.27252 0.92262 0.5847 0.0
H1915 H 0.25105 0.92855 0.5911 0.0
H1916 H 0.26339 0.94274 0.57745 0.0
H1917 H 0.22969 0.94903 0.51908 0.0
H1918 H 0.20186 0.95461 0.53349 0.0
H1919 H 0.22012 0.92772 0.57905 0.0
C1920 C 0.28251 0.91729 0.5481 0.0
C1921 C 0.29206 0.92194 0.53333 0.0
C1922 C 0.28366 0.93025 0.51942 0.0
C1923 C 0.26613 0.9345 0.52048 0.0
C1924 C 0.25725 0.93032 0.53553 0.0
C1925 C 0.2651 0.92171 0.54901 0.0
C1926 C 0.25313 0.91988 0.56429 0.0
C1927 C 0.24927 0.90079 0.56797 0.0
C1928 C 0.26046 0.929 0.58032 0.0
C1929 C 0.23741 0.92912 0.55745 0.0
C1930 C 0.23998 0.93497 0.54082 0.0
C1931 C 0.22747 0.94439 0.53205 0.0
C1932 C 0.21179 0.94767 0.54042 0.0
C1933 C 0.20883 0.94162 0.55741 0.0
C1934 C 0.2219 0.93231 0.56599 0.0
H1935 H 0.05258 0.20926 0.55899 0.0
H1936 H 0.0498 0.21361 0.61474 0.0
H1937 H 0.05696 0.24451 0.61262 0.0
H1938 H 0.0877 0.23586 0.55278 0.0
H1939 H 0.08007 0.24591 0.53327 0.0
H1940 H 0.07299 0.22452 0.5388 0.0
H1941 H 0.0411 0.23429 0.5372 0.0
H1942 H 0.04805 0.25568 0.53135 0.0
H1943 H 0.0341 0.25261 0.54968 0.0
H1944 H 0.06772 0.27366 0.60483 0.0
H1945 H 0.07851 0.3005 0.59157 0.0
H1946 H 0.07284 0.27787 0.54075 0.0
C1947 C 0.05292 0.21681 0.57073 0.0
C1948 C 0.05071 0.20899 0.58705 0.0
C1949 C 0.05168 0.21927 0.60212 0.0
C1950 C 0.05565 0.23684 0.60104 0.0
C1951 C 0.05836 0.24398 0.5848 0.0
C1952 C 0.05673 0.2344 0.56988 0.0
C1953 C 0.06099 0.24507 0.55408 0.0
C1954 C 0.07635 0.23738 0.54416 0.0
C1955 C 0.04511 0.24703 0.54239 0.0
C1956 C 0.06574 0.26202 0.56251 0.0
C1957 C 0.06414 0.26106 0.58024 0.0
C1958 C 0.06878 0.27467 0.59096 0.0
C1959 C 0.07503 0.28976 0.58333 0.0
C1960 C 0.0765 0.29113 0.5652 0.0
C1961 C 0.0717 0.27712 0.55465 0.0
H1962 H 0.77599 0.03382 0.57923 0.0
H1963 H 0.80051 0.08262 0.59137 0.0
H1964 H 0.77463 0.09818 0.58146 0.0
H1965 H 0.75489 0.04738 0.541 0.0
H1966 H 0.7354 0.03533 0.54484 0.0
H1967 H 0.75558 0.02779 0.55349 0.0
H1968 H 0.74264 0.02749 0.5843 0.0
H1969 H 0.72232 0.03472 0.5757 0.0
H1970 H 0.73267 0.04674 0.59268 0.0
H1971 H 0.74708 0.10852 0.56835 0.0
H1972 H 0.71799 0.11289 0.55633 0.0
H1973 H 0.71077 0.05735 0.55425 0.0
C1974 C 0.77578 0.04776 0.57999 0.0
C1975 C 0.79014 0.05702 0.5862 0.0
C1976 C 0.78948 0.07527 0.58697 0.0
C1977 C 0.77493 0.08424 0.5812 0.0
C1978 C 0.76112 0.07476 0.57483 0.0
C1979 C 0.76126 0.05693 0.57448 0.0
C1980 C 0.74458 0.0499 0.56722 0.0
C1981 C 0.74781 0.03949 0.55065 0.0
C1982 C 0.73498 0.03908 0.58078 0.0
C1983 C 0.73516 0.06656 0.56339 0.0
C1984 C 0.74499 0.08074 0.56772 0.0
C1985 C 0.73914 0.09752 0.56511 0.0
C1986 C 0.72256 0.09986 0.55833 0.0
C1987 C 0.71195 0.0855 0.55442 0.0
C1988 C 0.71855 0.06865 0.55681 0.0
H1989 H 0.93309 0.70647 0.57533 0.0
H1990 H 0.93487 0.71233 0.51966 0.0
H1991 H 0.95159 0.73919 0.52315 0.0
H1992 H 0.92631 0.75085 0.58464 0.0
H1993 H 0.9391 0.75045 0.60403 0.0
H1994 H 0.92837 0.73119 0.59687 0.0
H1995 H 0.95764 0.71503 0.59709 0.0
H1996 H 0.96852 0.7344 0.60391 0.0
H1997 H 0.9754 0.72338 0.58465 0.0
H1998 H 0.96709 0.76583 0.53272 0.0
H1999 H 0.97684 0.79214 0.54744 0.0
H2000 H 0.96479 0.76895 0.59696 0.0
C2001 C 0.93676 0.71348 0.56383 0.0
C2002 C 0.93265 0.70725 0.5472 0.0
C2003 C 0.93803 0.71671 0.53253 0.0
C2004 C 0.94757 0.73196 0.53438 0.0
C2005 C 0.95162 0.73753 0.55097 0.0
C2006 C 0.9462 0.7287 0.56543 0.0
C2007 C 0.95133 0.73794 0.58182 0.0
C2008 C 0.93533 0.74291 0.59246 0.0
C2009 C 0.96398 0.72703 0.59249 0.0
C2010 C 0.96013 0.75363 0.57432 0.0
C2011 C 0.96046 0.75297 0.55651 0.0
C2012 C 0.96708 0.76641 0.54666 0.0
C2013 C 0.97279 0.78126 0.5552 0.0
C2014 C 0.97169 0.7826 0.57341 0.0
C2015 C 0.96585 0.76831 0.58306 0.0
H2016 H 0.437 0.20754 0.066 0.0
H2017 H 0.45448 0.21258 0.01311 0.0
H2018 H 0.46758 0.24081 0.02022 0.0
H2019 H 0.42523 0.25107 0.0722 0.0
H2020 H 0.43236 0.25186 0.09431 0.0
H2021 H 0.4254 0.23174 0.08511 0.0
H2022 H 0.45466 0.2179 0.09349 0.0
H2023 H 0.46179 0.23809 0.10252 0.0
H2024 H 0.47444 0.22759 0.08609 0.0
H2025 H 0.4767 0.2692 0.0326 0.0
H2026 H 0.47986 0.29628 0.04858 0.0
H2027 H 0.45791 0.27201 0.09407 0.0
C2028 C 0.44347 0.21465 0.05587 0.0
C2029 C 0.4446 0.20802 0.03895 0.0
C2030 C 0.45349 0.21749 0.02614 0.0
C2031 C 0.46101 0.23346 0.03009 0.0
C2032 C 0.45971 0.23958 0.04694 0.0
C2033 C 0.45116 0.23047 0.05962 0.0
C2034 C 0.45099 0.24018 0.07654 0.0
C2035 C 0.43239 0.24394 0.08237 0.0
C2036 C 0.46107 0.23035 0.09048 0.0
C2037 C 0.46028 0.25649 0.07126 0.0
C2038 C 0.4654 0.25578 0.0542 0.0
C2039 C 0.47306 0.26979 0.04606 0.0
C2040 C 0.47497 0.28513 0.05538 0.0
C2041 C 0.46927 0.28639 0.07274 0.0
C2042 C 0.46239 0.27159 0.08086 0.0
H2043 H 0.44172 0.72502 0.90782 0.0
H2044 H 0.46446 0.70369 0.95429 0.0
H2045 H 0.45773 0.73058 0.96993 0.0
H2046 H 0.45548 0.76977 0.91494 0.0
H2047 H 0.43571 0.77838 0.90627 0.0
H2048 H 0.4439 0.75808 0.89853 0.0
H2049 H 0.41473 0.74363 0.90613 0.0
H2050 H 0.40658 0.7638 0.91421 0.0
H2051 H 0.40664 0.74501 0.92788 0.0
H2052 H 0.44627 0.75901 0.9811 0.0
H2053 H 0.43313 0.78767 0.98612 0.0
H2054 H 0.41806 0.78987 0.93224 0.0
C2055 C 0.4455 0.7261 0.92122 0.0
C2056 C 0.45368 0.71231 0.92981 0.0
C2057 C 0.45846 0.71422 0.94735 0.0
C2058 C 0.45455 0.72938 0.95639 0.0
C2059 C 0.44595 0.7425 0.94768 0.0
C2060 C 0.44171 0.7411 0.93042 0.0
C2061 C 0.43208 0.75682 0.92415 0.0
C2062 C 0.44241 0.76633 0.91015 0.0
C2063 C 0.41393 0.75202 0.91772 0.0
C2064 C 0.43126 0.76714 0.94065 0.0
C2065 C 0.43934 0.75873 0.95409 0.0
C2066 C 0.44002 0.76578 0.97062 0.0
C2067 C 0.43252 0.78204 0.97336 0.0
C2068 C 0.42442 0.79097 0.95963 0.0
C2069 C 0.42377 0.78326 0.94314 0.0
H2070 H 0.27913 0.44907 0.91076 0.0
H2071 H 0.29738 0.46744 0.96031 0.0
H2072 H 0.26827 0.46328 0.97257 0.0
H2073 H 0.23497 0.46758 0.91402 0.0
H2074 H 0.22554 0.44922 0.90334 0.0
H2075 H 0.24718 0.45582 0.89812 0.0
H2076 H 0.25806 0.42502 0.90522 0.0
H2077 H 0.23655 0.41842 0.9108 0.0
H2078 H 0.25378 0.41597 0.92619 0.0
H2079 H 0.23837 0.4533 0.98028 0.0
H2080 H 0.20899 0.44129 0.98213 0.0
H2081 H 0.21013 0.43049 0.92717 0.0
C2082 C 0.27686 0.45259 0.92408 0.0
C2083 C 0.29042 0.45863 0.93459 0.0
C2084 C 0.28706 0.46305 0.95198 0.0
C2085 C 0.27062 0.46061 0.95908 0.0
C2086 C 0.25769 0.45396 0.94853 0.0
C2087 C 0.26054 0.45034 0.93131 0.0
C2088 C 0.24474 0.44259 0.92294 0.0
C2089 C 0.23769 0.45452 0.90877 0.0
C2090 C 0.24852 0.42443 0.91588 0.0
C2091 C 0.23273 0.44189 0.93827 0.0
C2092 C 0.2404 0.44853 0.9529 0.0
C2093 C 0.23209 0.4484 0.96882 0.0
C2094 C 0.21538 0.44157 0.96973 0.0
C2095 C 0.20713 0.43501 0.95478 0.0
C2096 C 0.21605 0.4352 0.9389 0.0
H2097 H 0.54923 0.27318 0.90669 0.0
H2098 H 0.53054 0.29336 0.95543 0.0
H2099 H 0.53863 0.26618 0.96979 0.0
H2100 H 0.53634 0.22821 0.91393 0.0
H2101 H 0.55534 0.21987 0.90347 0.0
H2102 H 0.54649 0.24031 0.89688 0.0
H2103 H 0.57613 0.25473 0.90237 0.0
H2104 H 0.58498 0.23442 0.90929 0.0
H2105 H 0.586 0.2529 0.92334 0.0
H2106 H 0.55095 0.23759 0.97931 0.0
H2107 H 0.56454 0.20891 0.98264 0.0
H2108 H 0.57519 0.20787 0.92769 0.0
C2109 C 0.54662 0.2718 0.92033 0.0
C2110 C 0.53914 0.28536 0.92989 0.0
C2111 C 0.53593 0.28303 0.94774 0.0
C2112 C 0.54063 0.26769 0.95607 0.0
C2113 C 0.54848 0.2548 0.94636 0.0
C2114 C 0.55125 0.25661 0.92885 0.0
C2115 C 0.56038 0.24106 0.92146 0.0
C2116 C 0.54895 0.23181 0.90815 0.0
C2117 C 0.57791 0.24609 0.91366 0.0
C2118 C 0.5626 0.23037 0.9376 0.0
C2119 C 0.55564 0.23846 0.95184 0.0
C2120 C 0.55633 0.23106 0.96822 0.0
C2121 C 0.56408 0.2148 0.96999 0.0
C2122 C 0.57106 0.20619 0.95547 0.0
C2123 C 0.57034 0.21423 0.93913 0.0
H2124 H 0.77015 0.55426 0.95856 0.0
H2125 H 0.79462 0.56157 0.90883 0.0
H2126 H 0.76983 0.54776 0.89447 0.0
H2127 H 0.74897 0.51278 0.94883 0.0
H2128 H 0.7296 0.51834 0.9604 0.0
H2129 H 0.75006 0.52708 0.96712 0.0
H2130 H 0.73794 0.55814 0.9645 0.0
H2131 H 0.71743 0.54946 0.95809 0.0
H2132 H 0.72823 0.5649 0.94449 0.0
H2133 H 0.74202 0.53501 0.8853 0.0
H2134 H 0.71136 0.52734 0.88161 0.0
H2135 H 0.70441 0.52887 0.93708 0.0
C2136 C 0.77027 0.55278 0.94468 0.0
C2137 C 0.78417 0.559 0.93475 0.0
C2138 C 0.78393 0.55705 0.9166 0.0
C2139 C 0.77004 0.54904 0.90836 0.0
C2140 C 0.75649 0.54304 0.91847 0.0
C2141 C 0.75636 0.54498 0.9362 0.0
C2142 C 0.73944 0.53892 0.9438 0.0
C2143 C 0.74219 0.52335 0.95574 0.0
C2144 C 0.73022 0.55374 0.95327 0.0
C2145 C 0.72995 0.53375 0.92752 0.0
C2146 C 0.74018 0.53587 0.9131 0.0
C2147 C 0.73392 0.53311 0.89649 0.0
C2148 C 0.71651 0.52876 0.89451 0.0
C2149 C 0.70558 0.52741 0.90906 0.0
C2150 C 0.71257 0.52935 0.92577 0.0
H2151 H 0.56119 0.77895 0.02776 0.0
H2152 H 0.56167 0.80539 0.07704 0.0
H2153 H 0.55028 0.77939 0.09125 0.0
H2154 H 0.52177 0.75255 0.03611 0.0
H2155 H 0.53051 0.73392 0.02531 0.0
H2156 H 0.53661 0.75527 0.01844 0.0
H2157 H 0.56885 0.74754 0.02267 0.0
H2158 H 0.56283 0.72619 0.0294 0.0
H2159 H 0.576 0.73943 0.04325 0.0
H2160 H 0.54224 0.75016 0.10074 0.0
H2161 H 0.53884 0.71876 0.10498 0.0
H2162 H 0.5429 0.71087 0.04981 0.0
C2163 C 0.5586 0.77926 0.04147 0.0
C2164 C 0.56243 0.79404 0.05136 0.0
C2165 C 0.55906 0.79405 0.06931 0.0
C2166 C 0.55241 0.77944 0.07747 0.0
C2167 C 0.54906 0.76494 0.06748 0.0
C2168 C 0.55201 0.76468 0.04988 0.0
C2169 C 0.54872 0.74689 0.04252 0.0
C2170 C 0.5335 0.74718 0.02984 0.0
C2171 C 0.56507 0.73959 0.03396 0.0
C2172 C 0.54415 0.73712 0.05882 0.0
C2173 C 0.54415 0.74787 0.07302 0.0
C2174 C 0.54184 0.74163 0.08971 0.0
C2175 C 0.53995 0.72383 0.09202 0.0
C2176 C 0.54036 0.71256 0.0777 0.0
C2177 C 0.54203 0.71933 0.06089 0.0
H2178 H 0.28796 0.54374 0.06815 0.0
H2179 H 0.31005 0.59515 0.06927 0.0
H2180 H 0.28345 0.60693 0.05653 0.0
H2181 H 0.26444 0.54883 0.02746 0.0
H2182 H 0.24613 0.53656 0.03482 0.0
H2183 H 0.26733 0.53186 0.04308 0.0
H2184 H 0.25632 0.53623 0.07434 0.0
H2185 H 0.23509 0.54075 0.06618 0.0
H2186 H 0.2457 0.55612 0.08 0.0
H2187 H 0.25417 0.61344 0.04506 0.0
H2188 H 0.22331 0.61435 0.03721 0.0
H2189 H 0.22022 0.55883 0.04342 0.0
C2190 C 0.28723 0.55744 0.06555 0.0
C2191 C 0.30101 0.56855 0.06981 0.0
C2192 C 0.29952 0.58644 0.06639 0.0
C2193 C 0.28455 0.59324 0.05897 0.0
C2194 C 0.2712 0.58197 0.05496 0.0
C2195 C 0.27233 0.56447 0.05818 0.0
C2196 C 0.25571 0.55538 0.05354 0.0
C2197 C 0.25858 0.54239 0.03885 0.0
C2198 C 0.24774 0.54661 0.06946 0.0
C2199 C 0.24497 0.57056 0.04757 0.0
C2200 C 0.25423 0.58575 0.04828 0.0
C2201 C 0.2468 0.60161 0.0443 0.0
C2202 C 0.22929 0.60202 0.03989 0.0
C2203 C 0.21943 0.58666 0.03959 0.0
C2204 C 0.22753 0.57072 0.04312 0.0
H2205 H 0.78976 0.44592 0.05972 0.0
H2206 H 0.78593 0.39047 0.05318 0.0
H2207 H 0.75521 0.39166 0.0613 0.0
H2208 H 0.76303 0.44902 0.09637 0.0
H2209 H 0.75292 0.46901 0.09017 0.0
H2210 H 0.7744 0.46413 0.08286 0.0
H2211 H 0.76481 0.46822 0.05113 0.0
H2212 H 0.74334 0.47333 0.05834 0.0
H2213 H 0.74666 0.45617 0.04303 0.0
H2214 H 0.72566 0.39849 0.07141 0.0
H2215 H 0.69814 0.41073 0.08124 0.0
H2216 H 0.72081 0.46194 0.08134 0.0
C2217 C 0.78235 0.43409 0.05964 0.0
C2218 C 0.79021 0.41809 0.05586 0.0
C2219 C 0.78019 0.40283 0.05621 0.0
C2220 C 0.76274 0.40338 0.06075 0.0
C2221 C 0.75551 0.4193 0.06483 0.0
C2222 C 0.7649 0.43441 0.06416 0.0
C2223 C 0.75404 0.44974 0.06956 0.0
C2224 C 0.76155 0.45848 0.0857 0.0
C2225 C 0.7521 0.46263 0.05462 0.0
C2226 C 0.73713 0.44083 0.07352 0.0
C2227 C 0.73832 0.42328 0.07071 0.0
C2228 C 0.72454 0.41222 0.07366 0.0
C2229 C 0.70902 0.4193 0.07944 0.0
C2230 C 0.70736 0.43729 0.08227 0.0
C2231 C 0.72167 0.44816 0.07928 0.0
H2232 H 0.98609 0.54579 0.12303 0.0
H2233 H 0.94091 0.51854 0.14155 0.0
H2234 H 0.95485 0.49075 0.13476 0.0
H2235 H 0.99788 0.51504 0.08819 0.0
H2236 H 0.02063 0.5173 0.09231 0.0
H2237 H 0.00628 0.53513 0.09635 0.0
H2238 H 0.01714 0.53685 0.12784 0.0
H2239 H 0.03153 0.51909 0.12394 0.0
H2240 H 0.01614 0.51793 0.14132 0.0
H2241 H 0.97439 0.46618 0.12877 0.0
H2242 H 0.99882 0.44621 0.12516 0.0
H2243 H 0.0318 0.48911 0.11089 0.0
C2244 C 0.97904 0.53396 0.12527 0.0
C2245 C 0.96245 0.53423 0.13274 0.0
C2246 C 0.95369 0.51854 0.1359 0.0
C2247 C 0.96144 0.50272 0.13197 0.0
C2248 C 0.97795 0.50284 0.12492 0.0
C2249 C 0.98669 0.51802 0.12162 0.0
C2250 C 0.00493 0.51448 0.11557 0.0
C2251 C 0.00758 0.52087 0.097 0.0
C2252 C 0.01821 0.52256 0.12791 0.0
C2253 C 0.00522 0.49496 0.11649 0.0
C2254 C 0.98942 0.48853 0.12164 0.0
C2255 C 0.98677 0.47102 0.12454 0.0
C2256 C 0.00074 0.45979 0.12252 0.0
C2257 C 0.01718 0.46612 0.11772 0.0
C2258 C 0.01931 0.48388 0.11429 0.0
H2259 H 0.53402 0.03333 0.15403 0.0
H2260 H 0.53918 0.03499 0.09846 0.0
H2261 H 0.51226 0.01778 0.09553 0.0
H2262 H 0.51964 0.98919 0.15574 0.0
H2263 H 0.50553 0.99294 0.17382 0.0
H2264 H 0.52459 0.00591 0.17112 0.0
H2265 H 0.50583 0.03355 0.17192 0.0
H2266 H 0.48669 0.02066 0.17445 0.0
H2267 H 0.48822 0.03585 0.15693 0.0
H2268 H 0.48355 0.00162 0.09922 0.0
H2269 H 0.45846 0.98433 0.10895 0.0
H2270 H 0.47434 0.99127 0.16207 0.0
C2271 C 0.52942 0.0301 0.14124 0.0
C2272 C 0.5384 0.0356 0.12643 0.0
C2273 C 0.53233 0.03088 0.10991 0.0
C2274 C 0.51706 0.02122 0.10817 0.0
C2275 C 0.50835 0.01613 0.1231 0.0
C2276 C 0.51457 0.02013 0.13932 0.0
C2277 C 0.50354 0.01234 0.15338 0.0
C2278 C 0.51395 -0.00068 0.16414 0.0
C2279 C 0.4956 0.02645 0.16484 0.0
C2280 C 0.48996 0.00345 0.14262 0.0
C2281 C 0.49272 0.00599 0.12519 0.0
C2282 C 0.4814 -0.00058 0.11283 0.0
C2283 C 0.46715 0.98973 0.11846 0.0
C2284 C 0.46458 0.98644 0.13623 0.0
C2285 C 0.4761 0.9935 0.1484 0.0
H2286 H 0.98293 0.46285 0.83636 0.0
H2287 H 0.97112 0.45815 0.89076 0.0
H2288 H 0.98891 0.48414 0.89676 0.0
H2289 H 0.02752 0.47656 0.84213 0.0
H2290 H 0.02678 0.49073 0.82373 0.0
H2291 H 0.01356 0.47165 0.82421 0.0
H2292 H 0.9864 0.49039 0.81889 0.0
H2293 H -0.0005 0.50954 0.81855 0.0
H2294 H 0.98166 0.50797 0.83335 0.0
H2295 H 0.00601 0.51263 0.89588 0.0
H2296 H 0.02343 0.53856 0.88879 0.0
H2297 H 0.02519 0.52253 0.83528 0.0
C2298 C 0.98419 0.46721 0.84957 0.0
C2299 C 0.9756 0.45866 0.86312 0.0
C2300 C 0.97768 0.46457 0.88024 0.0
C2301 C 0.98768 0.47933 0.88373 0.0
C2302 C 0.99573 0.4877 0.86996 0.0
C2303 C 0.99433 0.48159 0.85327 0.0
C2304 C 0.00428 0.49264 0.84068 0.0
C2305 C 0.0189 0.48228 0.83219 0.0
C2306 C 0.99224 0.5006 0.82707 0.0
C2307 C 0.01128 0.50619 0.85278 0.0
C2308 C 0.00614 0.5033 0.86961 0.0
C2309 C 0.01032 0.51482 0.8828 0.0
C2310 C 0.02012 0.52953 0.87866 0.0
C2311 C 0.0258 0.53238 0.86155 0.0
C2312 C 0.0213 0.52051 0.84854 0.0
H2313 H 0.50884 0.94682 0.8668 0.0
H2314 H 0.54334 0.98564 0.88759 0.0
H2315 H 0.51834 0.00481 0.89289 0.0
H2316 H 0.48298 0.97425 0.84375 0.0
H2317 H 0.46308 0.96294 0.84775 0.0
H2318 H 0.48317 0.95141 0.84812 0.0
H2319 H 0.47671 0.94068 0.87913 0.0
H2320 H 0.45644 0.95193 0.87863 0.0
H2321 H 0.4716 0.95602 0.89577 0.0
H2322 H 0.48953 0.02067 0.89339 0.0
H2323 H 0.46022 0.03196 0.88811 0.0
H2324 H 0.44532 0.98271 0.86615 0.0
C2325 C 0.51117 0.95923 0.87276 0.0
C2326 C 0.52806 0.96474 0.87678 0.0
C2327 C 0.5305 0.98111 0.88449 0.0
C2328 C 0.51637 0.99207 0.88757 0.0
C2329 C 0.49991 0.98635 0.88305 0.0
C2330 C 0.49729 0.97023 0.87592 0.0
C2331 C 0.47863 0.96756 0.8709 0.0
C2332 C 0.47687 0.96383 0.85148 0.0
C2333 C 0.47036 0.95321 0.88177 0.0
C2334 C 0.47126 0.98497 0.87558 0.0
C2335 C 0.48358 0.99553 0.88293 0.0
C2336 C 0.47979 0.01244 0.88774 0.0
C2337 C 0.46309 0.01876 0.88464 0.0
C2338 C 0.45051 0.00831 0.87648 0.0
C2339 C 0.45464 0.99108 0.87231 0.0
H2340 H 0.15871 0.02082 0.46634 0.0
H2341 H 0.1044 0.02214 0.45336 0.0
H2342 H 0.09806 0.003 0.47827 0.0
H2343 H 0.1596 0.97586 0.47832 0.0
H2344 H 0.17522 0.97922 0.49519 0.0
H2345 H 0.17502 0.99316 0.47664 0.0
H2346 H 0.17214 0.01973 0.49673 0.0
H2347 H 0.17213 0.00586 0.51534 0.0
H2348 H 0.15459 0.02072 0.51193 0.0
H2349 H 0.09792 0.98509 0.50617 0.0
H2350 H 0.10442 0.96678 0.5317 0.0
H2351 H 0.159 0.97572 0.52409 0.0
C2352 C 0.14548 0.01704 0.46873 0.0
C2353 C 0.132 0.02297 0.45812 0.0
C2354 C 0.11488 0.01761 0.46141 0.0
C2355 C 0.11118 0.00687 0.47555 0.0
C2356 C 0.12481 0.00142 0.48596 0.0
C2357 C 0.14166 0.00608 0.48245 0.0
C2358 C 0.15413 0.99802 0.49504 0.0
C2359 C 0.16673 0.98584 0.48574 0.0
C2360 C 0.16381 0.01191 0.50537 0.0
C2361 C 0.14172 0.98816 0.50633 0.0
C2362 C 0.12482 0.99046 0.50115 0.0
C2363 C 0.11112 0.98306 0.51019 0.0
C2364 C 0.11488 0.97281 0.52469 0.0
C2365 C 0.13217 0.96986 0.52962 0.0
C2366 C 0.14568 0.97769 0.52039 0.0
H2367 H 0.05651 0.13749 0.5165 0.0
H2368 H 0.01746 0.11862 0.55189 0.0
H2369 H 0.99696 0.11589 0.52775 0.0
H2370 H 0.02951 0.16299 0.49114 0.0
H2371 H 0.03974 0.15807 0.47086 0.0
H2372 H 0.05198 0.15706 0.49055 0.0
H2373 H 0.06041 0.12547 0.48394 0.0
H2374 H 0.04834 0.12636 0.46413 0.0
H2375 H 0.0438 0.10978 0.47976 0.0
H2376 H 0.9799 0.11802 0.50048 0.0
H2377 H 0.96795 0.12259 0.47141 0.0
H2378 H 0.01824 0.13931 0.45334 0.0
C2379 C 0.04373 0.13253 0.51913 0.0
C2380 C 0.03858 0.12828 0.5361 0.0
C2381 C 0.02174 0.12184 0.53901 0.0
C2382 C 0.00998 0.1203 0.52537 0.0
C2383 C 0.01533 0.12502 0.50888 0.0
C2384 C 0.03187 0.13075 0.50564 0.0
C2385 C 0.03417 0.13543 0.4868 0.0
C2386 C 0.03914 0.15452 0.48473 0.0
C2387 C 0.04746 0.12354 0.47815 0.0
C2388 C 0.01618 0.13195 0.48007 0.0
C2389 C 0.00554 0.12591 0.49303 0.0
C2390 C 0.98816 0.12251 0.49017 0.0
C2391 C 0.98148 0.12524 0.47362 0.0
C2392 C 0.99218 0.13124 0.46006 0.0
C2393 C 0.00978 0.13456 0.46338 0.0
H2394 H 0.86903 0.00448 0.54986 0.0
H2395 H 0.86407 0.05082 0.51902 0.0
H2396 H 0.87049 0.03401 0.49273 0.0
H2397 H 0.90333 0.98272 0.52179 0.0
H2398 H 0.89368 0.96202 0.52612 0.0
H2399 H 0.89278 0.97894 0.54204 0.0
H2400 H 0.85917 0.97477 0.54241 0.0
H2401 H 0.86063 0.95879 0.52571 0.0
H2402 H 0.84733 0.97761 0.5226 0.0
H2403 H 0.87503 0.01208 0.46975 0.0
H2404 H 0.87356 0.98639 0.45134 0.0
H2405 H 0.87371 0.95362 0.49669 0.0
C2406 C 0.86979 0.01112 0.53762 0.0
C2407 C 0.86627 0.02895 0.53642 0.0
C2408 C 0.86678 0.03716 0.52015 0.0
C2409 C 0.87057 0.02776 0.5052 0.0
C2410 C 0.87371 0.01012 0.50673 0.0
C2411 C 0.87329 0.00184 0.52251 0.0
C2412 C 0.8751 0.98248 0.52035 0.0
C2413 C 0.89223 0.97615 0.52803 0.0
C2414 C 0.85963 0.97286 0.52823 0.0
C2415 C 0.87539 0.9811 0.50087 0.0
C2416 C 0.87536 0.99725 0.49333 0.0
C2417 C 0.87523 -0.00063 0.47552 0.0
C2418 C 0.87455 0.98463 0.46513 0.0
C2419 C 0.87365 0.96794 0.47255 0.0
C2420 C 0.87447 0.9662 0.49066 0.0
H2421 H 0.9882 0.83222 0.52617 0.0
H2422 H 0.97719 0.88582 0.53743 0.0
H2423 H 0.99296 0.89453 0.5109 0.0
H2424 H 0.03145 0.83933 0.51041 0.0
H2425 H 0.0298 0.82253 0.49443 0.0
H2426 H 0.01764 0.82101 0.51414 0.0
H2427 H 0.98946 0.81781 0.49644 0.0
H2428 H 0.00151 0.81949 0.47668 0.0
H2429 H 0.9839 0.83407 0.48079 0.0
H2430 H 0.00863 0.89671 0.48148 0.0
H2431 H 0.02545 0.8924 0.4545 0.0
H2432 H 0.0272 0.83748 0.46464 0.0
C2433 C 0.98913 0.84581 0.52308 0.0
C2434 C 0.9814 0.85837 0.5337 0.0
C2435 C 0.98309 0.87603 0.52942 0.0
C2436 C 0.99193 0.88105 0.51436 0.0
C2437 C -0.00079 0.86824 0.50398 0.0
C2438 C 0.99812 0.851 0.5084 0.0
C2439 C 0.00737 0.83967 0.49556 0.0
C2440 C 0.02246 0.83008 0.50415 0.0
C2441 C 0.99481 0.82702 0.48686 0.0
C2442 C 0.0137 0.85313 0.48303 0.0
C2443 C 0.00876 0.86956 0.48788 0.0
C2444 C 0.01271 0.88391 0.47771 0.0
C2445 C 0.02216 0.88137 0.4624 0.0
C2446 C 0.02774 0.86466 0.45765 0.0
C2447 C 0.02333 0.85045 0.4681 0.0
H2448 H 0.51702 0.12429 0.94359 0.0
H2449 H 0.55248 0.11218 0.98502 0.0
H2450 H 0.52775 0.10494 0.00394 0.0
H2451 H 0.48802 0.14603 0.96665 0.0
H2452 H 0.46894 0.1383 0.95587 0.0
H2453 H 0.48915 0.13859 0.94464 0.0
H2454 H 0.48682 0.10554 0.93845 0.0
H2455 H 0.46611 0.10577 0.94899 0.0
H2456 H 0.48263 0.09102 0.95602 0.0
H2457 H 0.49881 0.10362 0.01948 0.0
H2458 H 0.46917 0.10853 0.02999 0.0
H2459 H 0.45319 0.12229 0.97818 0.0
C2460 C 0.5196 0.1196 0.9565 0.0
C2461 C 0.53661 0.11876 0.96288 0.0
C2462 C 0.53954 0.1127 0.97983 0.0
C2463 C 0.52555 0.10859 0.99065 0.0
C2464 C 0.50883 0.11027 0.98415 0.0
C2465 C 0.50587 0.11535 0.96732 0.0
C2466 C 0.48685 0.11788 0.96382 0.0
C2467 C 0.48303 0.13629 0.95738 0.0
C2468 C 0.4802 0.10425 0.95107 0.0
C2469 C 0.47961 0.11478 0.98163 0.0
C2470 C 0.49235 0.10986 0.9931 0.0
C2471 C 0.48875 0.10727 0.01053 0.0
C2472 C 0.47186 0.11022 0.01642 0.0
C2473 C 0.45887 0.11612 0.00499 0.0
C2474 C 0.46278 0.11781 0.98729 0.0
H2475 H 0.48166 0.86207 0.94448 0.0
H2476 H 0.44907 0.88708 0.98242 0.0
H2477 H 0.47491 0.89541 0.99907 0.0
H2478 H 0.50975 0.8434 0.97237 0.0
H2479 H 0.52896 0.84654 0.95968 0.0
H2480 H 0.50833 0.84525 0.94923 0.0
H2481 H 0.51324 0.87501 0.93488 0.0
H2482 H 0.53416 0.87615 0.94494 0.0
H2483 H 0.5188 0.89332 0.94802 0.0
H2484 H 0.5036 0.89659 0.01387 0.0
H2485 H 0.533 0.89181 0.02505 0.0
H2486 H 0.54709 0.86673 0.97706 0.0
C2487 C 0.48 0.86965 0.95609 0.0
C2488 C 0.46339 0.87393 0.9622 0.0
C2489 C 0.46168 0.88382 0.97743 0.0
C2490 C 0.4763 0.88859 0.98698 0.0
C2491 C 0.49249 0.88366 0.9809 0.0
C2492 C 0.49443 0.87466 0.96565 0.0
C2493 C 0.51308 0.86975 0.96259 0.0
C2494 C 0.51514 0.85007 0.96088 0.0
C2495 C 0.52025 0.87912 0.94667 0.0
C2496 C 0.52119 0.87645 0.97904 0.0
C2497 C 0.50915 0.88468 0.9893 0.0
C2498 C 0.51323 0.89054 0.00579 0.0
C2499 C 0.52995 0.88769 0.01206 0.0
C2500 C 0.54239 0.87902 0.00189 0.0
C2501 C 0.53798 0.87369 0.98503 0.0
H2502 H 0.12702 0.48863 0.95551 0.0
H2503 H 0.11917 0.44538 0.99012 0.0
H2504 H 0.11973 0.46506 0.01492 0.0
H2505 H 0.15639 0.51002 0.97918 0.0
H2506 H 0.14886 0.53165 0.97526 0.0
H2507 H 0.14453 0.51494 0.9598 0.0
H2508 H 0.11181 0.52105 0.96175 0.0
H2509 H 0.11599 0.53808 0.97703 0.0
H2510 H 0.10131 0.52092 0.98249 0.0
H2511 H 0.12839 0.48766 0.03571 0.0
H2512 H 0.13915 0.51322 0.05143 0.0
H2513 H 0.13826 0.54291 0.00417 0.0
C2514 C 0.12478 0.48343 0.96827 0.0
C2515 C 0.12303 0.46547 0.97086 0.0
C2516 C 0.12031 0.45907 0.98775 0.0
C2517 C 0.1207 0.47017 0.00197 0.0
C2518 C 0.12333 0.48768 0.99906 0.0
C2519 C 0.12475 0.49441 0.98261 0.0
C2520 C 0.12861 0.51358 0.98316 0.0
C2521 C 0.14561 0.51778 0.9738 0.0
C2522 C 0.11353 0.52402 0.97566 0.0
C2523 C 0.13021 0.5163 0.00244 0.0
C2524 C 0.12711 0.50117 0.01135 0.0
C2525 C 0.13015 0.49977 0.02901 0.0
C2526 C 0.13634 0.51426 0.03781 0.0
C2527 C 0.13904 0.52999 0.02904 0.0
C2528 C 0.13575 0.5311 0.01119 0.0
H2529 H 0.85882 0.50537 0.95683 0.0
H2530 H 0.87672 0.54999 0.98553 0.0
H2531 H 0.88424 0.53136 0.00993 0.0
H2532 H 0.83868 0.48498 0.99057 0.0
H2533 H 0.84465 0.46327 0.98481 0.0
H2534 H 0.84312 0.47957 0.9684 0.0
H2535 H 0.87457 0.47332 0.95905 0.0
H2536 H 0.87617 0.45691 0.97544 0.0
H2537 H 0.89161 0.47425 0.97482 0.0
H2538 H 0.88537 0.5092 0.03277 0.0
H2539 H 0.88138 0.48416 0.05211 0.0
H2540 H 0.86413 0.4533 0.00895 0.0
C2541 C 0.8647 0.51116 0.96809 0.0
C2542 C 0.86719 0.5292 0.96918 0.0
C2543 C 0.87477 0.53626 0.98423 0.0
C2544 C 0.87914 0.52574 0.99822 0.0
C2545 C 0.87611 0.50812 0.99692 0.0
C2546 C 0.8693 0.50078 0.98217 0.0
C2547 C 0.86614 0.48163 0.98469 0.0
C2548 C 0.84701 0.47711 0.98196 0.0
C2549 C 0.87782 0.4709 0.97279 0.0
C2550 C 0.87139 0.47961 0.00342 0.0
C2551 C 0.87728 0.49504 0.01014 0.0
C2552 C 0.88119 0.49694 0.02758 0.0
C2553 C 0.87879 0.48276 0.03849 0.0
C2554 C 0.87268 0.46695 0.03191 0.0
C2555 C 0.86929 0.4652 0.01412 0.0
H2556 H 0.47032 0.03001 0.66678 0.0
H2557 H 0.46857 0.0449 0.61295 0.0
H2558 H 0.48779 0.02041 0.60558 0.0
H2559 H 0.51482 0.01997 0.66699 0.0
H2560 H 0.51272 0.00234 0.68198 0.0
H2561 H 0.49757 0.0199 0.68256 0.0
H2562 H 0.47231 0.9983 0.67894 0.0
H2563 H 0.48741 0.98067 0.67835 0.0
H2564 H 0.47232 0.98361 0.66092 0.0
H2565 H 0.50725 0.99367 0.60439 0.0
H2566 H 0.52764 0.96955 0.60999 0.0
H2567 H 0.51824 0.97457 0.66482 0.0
C2568 C 0.47375 0.02794 0.6534 0.0
C2569 C 0.46777 0.03911 0.64037 0.0
C2570 C 0.47295 0.03635 0.62308 0.0
C2571 C 0.48379 0.02246 0.61879 0.0
C2572 C 0.48954 0.01169 0.632 0.0
C2573 C 0.48485 0.01446 0.64899 0.0
C2574 C 0.49381 0.002 0.66099 0.0
C2575 C 0.50542 0.01163 0.67388 0.0
C2576 C 0.48067 0.99046 0.67035 0.0
C2577 C 0.50433 0.99179 0.64817 0.0
C2578 C 0.5015 0.99727 0.63145 0.0
C2579 C 0.50964 0.98937 0.61745 0.0
C2580 C 0.52113 0.9757 0.6207 0.0
C2581 C 0.5246 0.97046 0.63781 0.0
C2582 C 0.51599 0.97855 0.65162 0.0
H2583 H 0.96003 0.50622 0.64319 0.0
H2584 H 0.97238 0.46017 0.61389 0.0
H2585 H 0.00223 0.47083 0.60999 0.0
H2586 H 0.98701 0.53644 0.61899 0.0
H2587 H 0.99275 0.54812 0.63826 0.0
H2588 H 0.97215 0.53753 0.63681 0.0
H2589 H 0.97898 0.5208 0.66497 0.0
H2590 H -0.00034 0.53118 0.66632 0.0
H2591 H 0.99833 0.50798 0.6662 0.0
H2592 H 0.03169 0.48619 0.61125 0.0
H2593 H 0.05726 0.50433 0.61784 0.0
H2594 H 0.02462 0.53927 0.64685 0.0
C2595 C 0.96886 0.49844 0.63567 0.0
C2596 C 0.96383 0.48235 0.62885 0.0
C2597 C 0.97591 0.47257 0.61923 0.0
C2598 C 0.9929 0.47853 0.61693 0.0
C2599 C 0.99752 0.49432 0.62425 0.0
C2600 C 0.98574 0.50413 0.63335 0.0
C2601 C 0.99395 0.52004 0.64097 0.0
C2602 C 0.98599 0.5365 0.63329 0.0
C2603 C 0.99266 0.51998 0.66078 0.0
C2604 C 0.0123 0.51758 0.63503 0.0
C2605 C 0.0142 0.50282 0.62524 0.0
C2606 C 0.03028 0.49783 0.61881 0.0
C2607 C 0.04471 0.50818 0.62261 0.0
C2608 C 0.04293 0.52314 0.63293 0.0
C2609 C 0.02646 0.52785 0.63903 0.0
H2610 H 0.43953 0.98132 0.36203 0.0
H2611 H 0.47656 0.9451 0.3831 0.0
H2612 H 0.49779 0.96855 0.3862 0.0
H2613 H 0.46834 0.00422 0.33675 0.0
H2614 H 0.45873 0.02509 0.34029 0.0
H2615 H 0.44572 0.00596 0.34178 0.0
H2616 H 0.43641 0.01442 0.37272 0.0
H2617 H 0.44929 0.0337 0.3713 0.0
H2618 H 0.45263 0.01876 0.38878 0.0
H2619 H 0.51605 0.99532 0.38385 0.0
H2620 H 0.52941 0.02355 0.37747 0.0
H2621 H 0.48027 0.04224 0.35823 0.0
C2622 C 0.45198 0.97838 0.36763 0.0
C2623 C 0.45635 0.96137 0.37243 0.0
C2624 C 0.47284 0.95805 0.37956 0.0
C2625 C 0.48501 0.9713 0.38131 0.0
C2626 C 0.48044 0.98784 0.37604 0.0
C2627 C 0.46425 0.99146 0.36953 0.0
C2628 C 0.46287 0.01009 0.36388 0.0
C2629 C 0.45867 0.0114 0.34453 0.0
C2630 C 0.44951 0.01982 0.37483 0.0
C2631 C 0.48099 0.01623 0.3677 0.0
C2632 C 0.49091 0.00327 0.37482 0.0
C2633 C 0.50834 0.00565 0.37852 0.0
C2634 C 0.51583 0.0217 0.37479 0.0
C2635 C 0.50588 0.03513 0.36741 0.0
C2636 C 0.48821 0.03231 0.36401 0.0
H2637 H 0.02713 0.48813 0.33386 0.0
H2638 H 0.0297 0.47095 0.38696 0.0
H2639 H 0.00623 0.49136 0.39463 0.0
H2640 H 0.0195 0.53356 0.34401 0.0
H2641 H 0.00551 0.53661 0.32571 0.0
H2642 H 0.02262 0.52093 0.32475 0.0
H2643 H 0.00047 0.49716 0.31689 0.0
H2644 H 0.98331 0.51275 0.31784 0.0
H2645 H 0.98224 0.49351 0.33084 0.0
H2646 H 0.98027 0.51153 0.39541 0.0
H2647 H 0.95622 0.53188 0.39001 0.0
H2648 H 0.97299 0.53761 0.33702 0.0
C2649 C 0.02278 0.48874 0.34712 0.0
C2650 C 0.02999 0.47794 0.35983 0.0
C2651 C 0.02425 0.47919 0.37709 0.0
C2652 C 0.01095 0.49069 0.38152 0.0
C2653 C 0.00394 0.50108 0.36859 0.0
C2654 C 0.00991 0.50042 0.35181 0.0
C2655 C 0.00044 0.513 0.34032 0.0
C2656 C 0.01275 0.52684 0.33329 0.0
C2657 C 0.99106 0.50354 0.32561 0.0
C2658 C 0.98784 0.52056 0.35311 0.0
C2659 C 0.98993 0.51346 0.36933 0.0
C2660 C 0.97878 0.51746 0.38287 0.0
C2661 C 0.96517 0.52897 0.3797 0.0
C2662 C 0.96304 0.53654 0.36322 0.0
C2663 C 0.97465 0.53239 0.34987 0.0
H2664 H 0.65591 0.51265 0.96356 0.0
H2665 H 0.60316 0.5309 0.96412 0.0
H2666 H 0.59798 0.51477 0.9914 0.0
H2667 H 0.64655 0.46951 0.97986 0.0
H2668 H 0.66641 0.46853 0.99188 0.0
H2669 H 0.66527 0.48106 0.97236 0.0
H2670 H 0.67582 0.50797 0.98916 0.0
H2671 H 0.67674 0.49562 0.00877 0.0
H2672 H 0.66405 0.51506 0.00791 0.0
H2673 H 0.59996 0.49838 0.02026 0.0
H2674 H 0.60759 0.48052 0.0457 0.0
H2675 H 0.65858 0.47218 0.02439 0.0
C2676 C 0.64321 0.51308 0.96935 0.0
C2677 C 0.62991 0.52296 0.96192 0.0
C2678 C 0.61342 0.52323 0.96967 0.0
C2679 C 0.61045 0.51422 0.98516 0.0
C2680 C 0.62403 0.50483 0.99239 0.0
C2681 C 0.63998 0.50396 0.98448 0.0
C2682 C 0.65248 0.49296 0.99456 0.0
C2683 C 0.65799 0.47707 0.98404 0.0
C2684 C 0.66819 0.50354 0.00045 0.0
C2685 C 0.64125 0.48795 0.00963 0.0
C2686 C 0.62492 0.49499 0.00832 0.0
C2687 C 0.61264 0.49263 0.02126 0.0
C2688 C 0.6171 0.48259 0.03569 0.0
C2689 C 0.63362 0.47491 0.03691 0.0
C2690 C 0.64578 0.47773 0.02371 0.0
H2691 H 0.47807 0.66247 0.97215 0.0
H2692 H 0.47925 0.6094 0.95465 0.0
H2693 H 0.49877 0.60193 0.97892 0.0
H2694 H 0.52241 0.6648 0.98336 0.0
H2695 H 0.51876 0.67873 0.00161 0.0
H2696 H 0.50422 0.67926 0.98354 0.0
H2697 H 0.47855 0.67308 0.00405 0.0
H2698 H 0.49304 0.67239 0.02218 0.0
H2699 H 0.47913 0.65431 0.01775 0.0
H2700 H 0.51791 0.60057 0.00617 0.0
H2701 H 0.5373 0.60626 0.03114 0.0
H2702 H 0.52447 0.66054 0.0285 0.0
C2703 C 0.48231 0.64923 0.97348 0.0
C2704 C 0.47704 0.63646 0.9617 0.0
C2705 C 0.48315 0.61936 0.96362 0.0
C2706 C 0.49414 0.615 0.9774 0.0
C2707 C 0.49902 0.62796 0.98891 0.0
C2708 C 0.49345 0.64478 0.98687 0.0
C2709 C 0.5012 0.65663 0.00021 0.0
C2710 C 0.51231 0.67068 0.99167 0.0
C2711 C 0.48714 0.66456 0.01173 0.0
C2712 C 0.51212 0.64393 0.01011 0.0
C2713 C 0.51053 0.62737 0.0037 0.0
C2714 C 0.5193 0.61352 0.01119 0.0
C2715 C 0.53019 0.6168 0.02536 0.0
C2716 C 0.53239 0.63382 0.0315 0.0
C2717 C 0.52311 0.64743 0.02387 0.0
H2718 H 0.34827 0.53601 0.02565 0.0
H2719 H 0.40181 0.53134 0.04083 0.0
H2720 H 0.40658 0.51012 0.01732 0.0
H2721 H 0.34227 0.49147 0.01807 0.0
H2722 H 0.32758 0.49452 0.00032 0.0
H2723 H 0.32906 0.51057 0.01701 0.0
H2724 H 0.33581 0.53393 0.99408 0.0
H2725 H 0.33433 0.51794 0.9773 0.0
H2726 H 0.35357 0.53078 0.97943 0.0
H2727 H 0.40514 0.48939 0.99148 0.0
H2728 H 0.39683 0.4687 0.96841 0.0
H2729 H 0.34371 0.48533 0.97287 0.0
C2730 C 0.36108 0.53078 0.02379 0.0
C2731 C 0.37478 0.53552 0.03473 0.0
C2732 C 0.39122 0.52796 0.03238 0.0
C2733 C 0.39403 0.51596 0.01906 0.0
C2734 C 0.38017 0.51147 0.0085 0.0
C2735 C 0.36396 0.5185 0.01093 0.0
C2736 C 0.35083 0.51051 0.99897 0.0
C2737 C 0.3366 0.50121 0.00921 0.0
C2738 C 0.34319 0.5241 0.98672 0.0
C2739 C 0.36211 0.49786 0.98937 0.0
C2740 C 0.37908 0.49878 0.99474 0.0
C2741 C 0.39186 0.48849 0.98729 0.0
C2742 C 0.38708 0.47684 0.97421 0.0
C2743 C 0.36964 0.47535 0.96913 0.0
C2744 C 0.35711 0.48607 0.97675 0.0
H2745 H 0.44857 0.37841 0.01588 0.0
H2746 H 0.49196 0.36793 0.04961 0.0
H2747 H 0.51161 0.36892 0.02448 0.0
H2748 H 0.46238 0.35161 0.98199 0.0
H2749 H 0.45425 0.36552 0.96523 0.0
H2750 H 0.4443 0.36556 0.98618 0.0
H2751 H 0.44915 0.39861 0.98808 0.0
H2752 H 0.45949 0.39848 0.96728 0.0
H2753 H 0.47064 0.40714 0.98573 0.0
H2754 H 0.52619 0.36963 0.99541 0.0
H2755 H 0.53433 0.36818 0.96468 0.0
H2756 H 0.48102 0.3773 0.95024 0.0
C2757 C 0.46224 0.37663 0.01805 0.0
C2758 C 0.4688 0.37325 0.03468 0.0
C2759 C 0.48671 0.37058 0.03694 0.0
C2760 C 0.49795 0.3712 0.02278 0.0
C2761 C 0.49103 0.37444 0.00651 0.0
C2762 C 0.47357 0.37703 0.00408 0.0
C2763 C 0.46916 0.3789 0.98518 0.0
C2764 C 0.4568 0.36454 0.9793 0.0
C2765 C 0.46167 0.39686 0.98135 0.0
C2766 C 0.48684 0.37675 0.9773 0.0
C2767 C 0.49933 0.37442 0.98979 0.0
C2768 C 0.51654 0.37156 0.98553 0.0
C2769 C 0.52103 0.37076 0.96803 0.0
C2770 C 0.50829 0.37261 0.95505 0.0
C2771 C 0.49106 0.37591 0.95983 0.0
H2772 H 0.96699 0.65747 0.5252 0.0
H2773 H 0.96233 0.60223 0.53187 0.0
H2774 H 0.98627 0.59777 0.51097 0.0
H2775 H 0.97477 0.65578 0.47923 0.0
H2776 H 0.98926 0.67395 0.47959 0.0
H2777 H 0.9722 0.67241 0.49527 0.0
H2778 H 0.99461 0.67506 0.51991 0.0
H2779 H 0.01175 0.6765 0.50434 0.0
H2780 H 0.01241 0.66013 0.52082 0.0
H2781 H 0.01246 0.60003 0.49084 0.0
H2782 H 0.03572 0.60839 0.47049 0.0
H2783 H 0.02058 0.66196 0.47525 0.0
C2784 C 0.97106 0.64444 0.52227 0.0
C2785 C 0.96313 0.63016 0.53022 0.0
C2786 C 0.96842 0.61327 0.52587 0.0
C2787 C 0.98198 0.61067 0.5141 0.0
C2788 C 0.98971 0.62511 0.50657 0.0
C2789 C 0.98415 0.64164 0.51027 0.0
C2790 C 0.99395 0.655 0.50001 0.0
C2791 C 0.98182 0.66486 0.4878 0.0
C2792 C 0.00376 0.6674 0.51199 0.0
C2793 C 0.00617 0.64349 0.49013 0.0
C2794 C 0.00374 0.6263 0.49422 0.0
C2795 C 0.01427 0.61342 0.48735 0.0
C2796 C 0.02746 0.61827 0.4759 0.0
C2797 C 0.02971 0.63576 0.47121 0.0
C2798 C 0.0189 0.64846 0.47841 0.0
H2799 H 0.01831 0.35856 0.55851 0.0
H2800 H 0.05157 0.38097 0.51947 0.0
H2801 H 0.02656 0.38493 0.5004 0.0
H2802 H 0.99228 0.33479 0.53081 0.0
H2803 H 0.97236 0.33848 0.54217 0.0
H2804 H 0.99249 0.33905 0.55366 0.0
H2805 H 0.98562 0.36985 0.56466 0.0
H2806 H 0.96534 0.36933 0.55331 0.0
H2807 H 0.98042 0.38656 0.54937 0.0
H2808 H 0.99879 0.38353 0.48434 0.0
H2809 H 0.96956 0.37863 0.47295 0.0
H2810 H 0.95378 0.35782 0.52249 0.0
C2811 C 0.02029 0.36457 0.54607 0.0
C2812 C 0.03696 0.36944 0.54052 0.0
C2813 C 0.03898 0.37722 0.52411 0.0
C2814 C 0.02482 0.37951 0.51314 0.0
C2815 C 0.00866 0.37417 0.51883 0.0
C2816 C 0.00624 0.3671 0.53499 0.0
C2817 C 0.9876 0.36183 0.53765 0.0
C2818 C 0.98611 0.34238 0.54128 0.0
C2819 C 0.97925 0.37253 0.5521 0.0
C2820 C 0.98009 0.36644 0.5202 0.0
C2821 C 0.99246 0.37365 0.5096 0.0
C2822 C 0.98892 0.37813 0.49259 0.0
C2823 C 0.97228 0.37521 0.48622 0.0
C2824 C 0.95934 0.36788 0.49683 0.0
C2825 C 0.96333 0.36357 0.51409 0.0
H2826 H 0.62493 0.04337 0.51539 0.0
H2827 H 0.64567 0.01753 0.56049 0.0
H2828 H 0.64 0.98932 0.54691 0.0
H2829 H 0.59118 0.01157 0.50537 0.0
H2830 H 0.59427 0.01363 0.48243 0.0
H2831 H 0.59844 0.03173 0.49638 0.0
H2832 H 0.62946 0.03404 0.48412 0.0
H2833 H 0.62529 0.01599 0.47017 0.0
H2834 H 0.64336 0.01543 0.48477 0.0
H2835 H 0.63402 0.96416 0.52786 0.0
H2836 H 0.62884 0.94358 0.50423 0.0
H2837 H 0.61214 0.98561 0.47124 0.0
C2838 C 0.62802 0.03177 0.52251 0.0
C2839 C 0.63569 0.03261 0.53901 0.0
C2840 C 0.63985 0.01716 0.54781 0.0
C2841 C 0.63659 0.00109 0.54024 0.0
C2842 C 0.6292 0.0007 0.52388 0.0
C2843 C 0.62498 0.01561 0.51509 0.0
C2844 C 0.61824 0.01161 0.49719 0.0
C2845 C 0.59941 0.01748 0.49524 0.0
C2846 C 0.62978 0.01975 0.48325 0.0
C2847 C 0.61965 0.99213 0.49718 0.0
C2848 C 0.62584 0.98611 0.51277 0.0
C2849 C 0.62904 0.96869 0.51563 0.0
C2850 C 0.62611 0.9571 0.50211 0.0
C2851 C 0.62007 0.96299 0.4859 0.0
C2852 C 0.61654 0.98071 0.48354 0.0
H2853 H 0.39563 0.98654 0.53179 0.0
H2854 H 0.36691 0.94566 0.5065 0.0
H2855 H 0.35733 0.96595 0.4843 0.0
H2856 H 0.36474 0.01881 0.52579 0.0
H2857 H 0.37958 0.03616 0.52144 0.0
H2858 H 0.38627 0.01818 0.53452 0.0
H2859 H 0.41206 0.01255 0.51412 0.0
H2860 H 0.4056 0.03068 0.50109 0.0
H2861 H 0.40825 0.00975 0.49136 0.0
H2862 H 0.34792 0.99049 0.46702 0.0
H2863 H 0.34115 0.01818 0.45338 0.0
H2864 H 0.37619 0.0442 0.48853 0.0
C2865 C 0.38775 0.9818 0.52128 0.0
C2866 C 0.38214 0.96444 0.52084 0.0
C2867 C 0.37148 0.95882 0.50712 0.0
C2868 C 0.36591 0.97028 0.49441 0.0
C2869 C 0.37114 0.98737 0.49551 0.0
C2870 C 0.38199 0.99318 0.5084 0.0
C2871 C 0.38479 0.01253 0.50686 0.0
C2872 C 0.37846 0.02197 0.52312 0.0
C2873 C 0.40381 0.01661 0.50313 0.0
C2874 C 0.37348 0.01661 0.49138 0.0
C2875 C 0.36578 0.00182 0.48513 0.0
C2876 C 0.35405 0.00215 0.47159 0.0
C2877 C 0.3502 0.01802 0.46402 0.0
C2878 C 0.35821 0.03339 0.46979 0.0
C2879 C 0.37 0.03265 0.48371 0.0
H2880 H 0.12887 0.52462 0.07832 0.0
H2881 H 0.15524 0.54482 0.12333 0.0
H2882 H 0.14719 0.51874 0.13961 0.0
H2883 H 0.09349 0.50911 0.0995 0.0
H2884 H 0.09076 0.49013 0.08636 0.0
H2885 H 0.10112 0.50885 0.07753 0.0
H2886 H 0.12762 0.4902 0.06968 0.0
H2887 H 0.11755 0.47141 0.07887 0.0
H2888 H 0.13855 0.47812 0.08623 0.0
H2889 H 0.13282 0.49306 0.1521 0.0
H2890 H 0.11178 0.4705 0.16019 0.0
H2891 H 0.09527 0.46655 0.1071 0.0
C2892 C 0.13318 0.52352 0.09151 0.0
C2893 C 0.14279 0.5368 0.09949 0.0
C2894 C 0.1481 0.53476 0.11684 0.0
C2895 C 0.14364 0.51994 0.12617 0.0
C2896 C 0.13407 0.50718 0.11791 0.0
C2897 C 0.12894 0.50879 0.10094 0.0
C2898 C 0.1172 0.49414 0.09559 0.0
C2899 C 0.09961 0.50097 0.0894 0.0
C2900 C 0.12575 0.4828 0.08178 0.0
C2901 C 0.11572 0.48457 0.11252 0.0
C2902 C 0.12588 0.49207 0.12512 0.0
C2903 C 0.12517 0.48678 0.14227 0.0
C2904 C 0.11327 0.47398 0.14675 0.0
C2905 C 0.10231 0.46667 0.13416 0.0
C2906 C 0.10402 0.47154 0.11676 0.0
H2907 H 0.54005 0.11213 0.13232 0.0
H2908 H 0.56849 0.10365 0.08514 0.0
H2909 H 0.54574 0.11887 0.0686 0.0
H2910 H 0.50067 0.10171 0.11503 0.0
H2911 H 0.48824 0.11694 0.12743 0.0
H2912 H 0.50825 0.10885 0.13581 0.0
H2913 H 0.51957 0.14012 0.13924 0.0
H2914 H 0.49953 0.14833 0.13082 0.0
H2915 H 0.51964 0.15437 0.12088 0.0
H2916 H 0.51896 0.13247 0.05721 0.0
H2917 H 0.48894 0.14034 0.05096 0.0
H2918 H 0.4768 0.13738 0.10554 0.0
C2919 C 0.54166 0.1141 0.1186 0.0
C2920 C 0.55601 0.10723 0.1099 0.0
C2921 C 0.55757 0.10916 0.09187 0.0
C2922 C 0.54481 0.11784 0.08248 0.0
C2923 C 0.53058 0.12427 0.0914 0.0
C2924 C 0.52885 0.12235 0.10904 0.0
C2925 C 0.51122 0.12798 0.11517 0.0
C2926 C 0.50153 0.11298 0.12386 0.0
C2927 C 0.51258 0.14363 0.12724 0.0
C2928 C 0.50309 0.13288 0.09815 0.0
C2929 C 0.51462 0.1311 0.08469 0.0
C2930 C 0.50983 0.13397 0.06766 0.0
C2931 C 0.49266 0.13826 0.06424 0.0
C2932 C 0.48035 0.13921 0.07774 0.0
C2933 C 0.48585 0.13698 0.09495 0.0
H2934 H 0.90191 0.54199 0.10409 0.0
H2935 H 0.89426 0.53702 0.15922 0.0
H2936 H 0.88679 0.50631 0.15547 0.0
H2937 H 0.86651 0.51368 0.09203 0.0
H2938 H 0.87774 0.505 0.07369 0.0
H2939 H 0.88224 0.52659 0.0808 0.0
H2940 H 0.91464 0.51903 0.08352 0.0
H2941 H 0.91035 0.49729 0.07657 0.0
H2942 H 0.92113 0.5011 0.09682 0.0
H2943 H 0.88189 0.47579 0.14587 0.0
H2944 H 0.8765 0.44832 0.13079 0.0
H2945 H 0.88638 0.47342 0.08176 0.0
C2946 C 0.89847 0.53443 0.11531 0.0
C2947 C 0.89852 0.54187 0.13192 0.0
C2948 C 0.89397 0.53165 0.14635 0.0
C2949 C 0.88991 0.51416 0.14437 0.0
C2950 C 0.89035 0.50713 0.12785 0.0
C2951 C 0.89424 0.517 0.11354 0.0
C2952 C 0.89336 0.50642 0.09718 0.0
C2953 C 0.87912 0.51333 0.08522 0.0
C2954 C 0.91092 0.50594 0.08799 0.0
C2955 C 0.8887 0.48895 0.10455 0.0
C2956 C 0.8871 0.48964 0.12227 0.0
C2957 C 0.88294 0.47512 0.13198 0.0
C2958 C 0.87989 0.45958 0.12329 0.0
C2959 C 0.88091 0.45866 0.10506 0.0
C2960 C 0.88567 0.47356 0.09568 0.0
H2961 H 0.46171 0.88841 0.13209 0.0
H2962 H 0.48123 0.94069 0.13449 0.0
H2963 H 0.51025 0.93025 0.12666 0.0
H2964 H 0.50268 0.86602 0.1469 0.0
H2965 H 0.49921 0.84857 0.13194 0.0
H2966 H 0.48104 0.85951 0.14148 0.0
H2967 H 0.46891 0.86612 0.11103 0.0
H2968 H 0.48688 0.85514 0.10149 0.0
H2969 H 0.48236 0.87717 0.09561 0.0
H2970 H 0.53536 0.9152 0.11398 0.0
H2971 H 0.55345 0.89747 0.09491 0.0
H2972 H 0.51816 0.85462 0.10118 0.0
C2973 C 0.47225 0.89753 0.13153 0.0
C2974 C 0.46932 0.9153 0.13391 0.0
C2975 C 0.48324 0.92701 0.13256 0.0
C2976 C 0.4998 0.92117 0.12838 0.0
C2977 C 0.50222 0.90357 0.12572 0.0
C2978 C 0.48881 0.8919 0.12725 0.0
C2979 C 0.4941 0.87414 0.1212 0.0
C2980 C 0.49427 0.8613 0.13629 0.0
C2981 C 0.48238 0.86779 0.10646 0.0
C2982 C 0.51219 0.87789 0.11497 0.0
C2983 C 0.51685 0.8948 0.11821 0.0
C2984 C 0.53208 0.90182 0.11176 0.0
C2985 C 0.54235 0.8916 0.10099 0.0
C2986 C 0.53718 0.87464 0.0966 0.0
C2987 C 0.52242 0.8675 0.10446 0.0
H2988 H 0.08884 0.53736 0.89069 0.0
H2989 H 0.10555 0.53432 0.83745 0.0
H2990 H 0.11636 0.50478 0.84249 0.0
H2991 H 0.12509 0.51363 0.90882 0.0
H2992 H 0.11204 0.50315 0.92494 0.0
H2993 H 0.1061 0.52417 0.91708 0.0
H2994 H 0.07592 0.5124 0.90885 0.0
H2995 H 0.08189 0.49128 0.91642 0.0
H2996 H 0.07428 0.49409 0.89464 0.0
H2997 H 0.12359 0.4751 0.85283 0.0
H2998 H 0.13015 0.44838 0.86864 0.0
H2999 H 0.10988 0.47135 0.91556 0.0
C3000 C 0.0949 0.53048 0.88017 0.0
C3001 C 0.09642 0.53804 0.8637 0.0
C3002 C 0.1045 0.52878 0.85021 0.0
C3003 C 0.11051 0.51197 0.85292 0.0
C3004 C 0.10847 0.50474 0.86922 0.0
C3005 C 0.10114 0.51378 0.88271 0.0
C3006 C 0.10073 0.5031 0.89903 0.0
C3007 C 0.11165 0.51151 0.91331 0.0
C3008 C 0.0821 0.50004 0.90508 0.0
C3009 C 0.10888 0.48661 0.89256 0.0
C3010 C 0.11309 0.48777 0.8753 0.0
C3011 C 0.12056 0.47409 0.86642 0.0
C3012 C 0.12428 0.45897 0.87554 0.0
C3013 C 0.12072 0.4577 0.89344 0.0
C3014 C 0.11265 0.47169 0.9019 0.0
H3015 H 0.52462 0.14357 0.89649 0.0
H3016 H 0.55823 0.10056 0.88509 0.0
H3017 H 0.53361 0.08459 0.87245 0.0
H3018 H 0.49177 0.11898 0.91167 0.0
H3019 H 0.47419 0.13195 0.90377 0.0
H3020 H 0.49473 0.14173 0.90817 0.0
H3021 H 0.49661 0.15332 0.87697 0.0
H3022 H 0.47583 0.144 0.87237 0.0
H3023 H 0.49414 0.13868 0.85909 0.0
H3024 H 0.50516 0.07246 0.86389 0.0
H3025 H 0.47482 0.06392 0.86166 0.0
H3026 H 0.45932 0.11407 0.88129 0.0
C3027 C 0.52682 0.13109 0.89064 0.0
C3028 C 0.54323 0.12335 0.89123 0.0
C3029 C 0.5457 0.10667 0.88435 0.0
C3030 C 0.53185 0.0976 0.87715 0.0
C3031 C 0.51566 0.10541 0.87713 0.0
C3032 C 0.51306 0.12177 0.88374 0.0
C3033 C 0.49409 0.12624 0.88449 0.0
C3034 C 0.48835 0.12994 0.90313 0.0
C3035 C 0.48992 0.14146 0.87251 0.0
C3036 C 0.48638 0.10963 0.87777 0.0
C3037 C 0.49905 0.09798 0.87321 0.0
C3038 C 0.49511 0.0815 0.86735 0.0
C3039 C 0.47776 0.07671 0.86633 0.0
C3040 C 0.46451 0.08821 0.87153 0.0
C3041 C 0.469 0.105 0.87703 0.0
H3042 H 0.90638 0.46054 0.88645 0.0
H3043 H 0.8981 0.46807 0.83166 0.0
H3044 H 0.88519 0.49658 0.83753 0.0
H3045 H 0.86705 0.48048 0.90059 0.0
H3046 H 0.87668 0.4901 0.91943 0.0
H3047 H 0.8853 0.47034 0.91082 0.0
H3048 H 0.91543 0.48456 0.90842 0.0
H3049 H 0.90686 0.5044 0.91691 0.0
H3050 H 0.91783 0.50432 0.89643 0.0
H3051 H 0.87375 0.52438 0.84931 0.0
H3052 H 0.863 0.54899 0.86632 0.0
H3053 H 0.87821 0.52287 0.91346 0.0
C3054 C 0.90193 0.46824 0.87569 0.0
C3055 C 0.90324 0.46214 0.8586 0.0
C3056 C 0.89702 0.47244 0.84486 0.0
C3057 C 0.8898 0.48868 0.84806 0.0
C3058 C 0.88883 0.49436 0.86506 0.0
C3059 C 0.8946 0.48441 0.87867 0.0
C3060 C 0.89176 0.49337 0.89576 0.0
C3061 C 0.87946 0.48295 0.90732 0.0
C3062 C 0.909 0.49687 0.90491 0.0
C3063 C 0.8835 0.50993 0.88961 0.0
C3064 C 0.88202 0.51029 0.87187 0.0
C3065 C 0.87475 0.52423 0.86322 0.0
C3066 C 0.86862 0.53812 0.87301 0.0
C3067 C 0.8697 0.5379 0.89125 0.0
C3068 C 0.87739 0.52362 0.89956 0.0
H3069 H 0.52281 0.9147 0.88727 0.0
H3070 H 0.55274 0.86851 0.89764 0.0
H3071 H 0.52574 0.85209 0.90154 0.0
H3072 H 0.4893 0.90661 0.91858 0.0
H3073 H 0.4727 0.91549 0.90496 0.0
H3074 H 0.49447 0.92333 0.90328 0.0
H3075 H 0.49453 0.91601 0.87042 0.0
H3076 H 0.47269 0.90827 0.87228 0.0
H3077 H 0.48925 0.89446 0.86364 0.0
H3078 H 0.49538 0.84056 0.90309 0.0
H3079 H 0.46407 0.83553 0.90578 0.0
H3080 H 0.45432 0.88954 0.89541 0.0
C3081 C 0.52384 0.90123 0.89073 0.0
C3082 C 0.54001 0.89292 0.89209 0.0
C3083 C 0.54055 0.87515 0.89631 0.0
C3084 C 0.52528 0.8657 0.89854 0.0
C3085 C 0.5096 0.87425 0.89659 0.0
C3086 C 0.5088 0.89167 0.89306 0.0
C3087 C 0.49037 0.89788 0.89169 0.0
C3088 C 0.48648 0.91164 0.90545 0.0
C3089 C 0.48648 0.90456 0.87343 0.0
C3090 C 0.48086 0.88126 0.89525 0.0
C3091 C 0.49218 0.86772 0.89777 0.0
C3092 C 0.48641 0.85106 0.90111 0.0
C3093 C 0.46861 0.84828 0.90238 0.0
C3094 C 0.45683 0.86212 0.9005 0.0
C3095 C 0.46308 0.87874 0.89666 0.0
H3096 H 0.12145 0.11688 0.46365 0.0
H3097 H 0.12406 0.06173 0.47279 0.0
H3098 H 0.12104 0.06665 0.50394 0.0
H3099 H 0.14506 0.13016 0.50202 0.0
H3100 H 0.13152 0.14862 0.50601 0.0
H3101 H 0.13465 0.141 0.48428 0.0
H3102 H 0.10149 0.13785 0.48025 0.0
H3103 H 0.09845 0.14596 0.50177 0.0
H3104 H 0.08941 0.12544 0.49575 0.0
H3105 H 0.11637 0.07717 0.53381 0.0
H3106 H 0.10816 0.09285 0.56037 0.0
H3107 H 0.10908 0.14108 0.53234 0.0
C3108 C 0.12149 0.10589 0.47225 0.0
C3109 C 0.12289 0.08894 0.46577 0.0
C3110 C 0.1227 0.07483 0.47739 0.0
C3111 C 0.12121 0.07749 0.49516 0.0
C3112 C 0.11995 0.09434 0.50114 0.0
C3113 C 0.11992 0.10831 0.49007 0.0
C3114 C 0.11735 0.12502 0.49984 0.0
C3115 C 0.13309 0.1369 0.49792 0.0
C3116 C 0.10069 0.13411 0.49405 0.0
C3117 C 0.11578 0.11821 0.51807 0.0
C3118 C 0.11747 0.10047 0.51853 0.0
C3119 C 0.11526 0.09108 0.53367 0.0
C3120 C 0.11066 0.10001 0.54866 0.0
C3121 C 0.10834 0.11808 0.54834 0.0
C3122 C 0.11136 0.12733 0.53298 0.0
H3123 H 0.88415 0.07929 0.53593 0.0
H3124 H 0.86277 0.12445 0.56141 0.0
H3125 H 0.86968 0.14194 0.536 0.0
H3126 H 0.92001 0.10128 0.51784 0.0
H3127 H 0.92008 0.08881 0.49823 0.0
H3128 H 0.91198 0.07947 0.51785 0.0
H3129 H 0.88321 0.07261 0.50245 0.0
H3130 H 0.89099 0.08233 0.48284 0.0
H3131 H 0.87117 0.08977 0.49242 0.0
H3132 H 0.87972 0.15492 0.50859 0.0
H3133 H 0.89537 0.16322 0.48217 0.0
H3134 H 0.91157 0.1102 0.47501 0.0
C3135 C 0.88094 0.09284 0.53634 0.0
C3136 C 0.87267 0.10032 0.55081 0.0
C3137 C 0.86874 0.11819 0.5505 0.0
C3138 C 0.87262 0.1283 0.53607 0.0
C3139 C 0.88055 0.12044 0.52204 0.0
C3140 C 0.88489 0.10319 0.52212 0.0
C3141 C 0.89456 0.09824 0.50588 0.0
C3142 C 0.91273 0.09157 0.51021 0.0
C3143 C 0.88437 0.08495 0.49527 0.0
C3144 C 0.89522 0.11553 0.49682 0.0
C3145 C 0.88679 0.12807 0.50626 0.0
C3146 C 0.88631 0.14522 0.50103 0.0
C3147 C 0.89522 0.14981 0.48605 0.0
C3148 C 0.90463 0.13736 0.47659 0.0
C3149 C 0.90419 0.11991 0.48179 0.0
H3150 H 0.91555 0.88016 0.53597 0.0
H3151 H 0.89922 0.82687 0.53121 0.0
H3152 H 0.88399 0.83398 0.50416 0.0
H3153 H 0.87674 0.89933 0.52004 0.0
H3154 H 0.88776 0.91641 0.50878 0.0
H3155 H 0.89727 0.907 0.52775 0.0
H3156 H 0.92496 0.90001 0.5104 0.0
H3157 H 0.91549 0.9093 0.49134 0.0
H3158 H 0.92338 0.88745 0.4909 0.0
H3159 H 0.87085 0.84693 0.47748 0.0
H3160 H 0.85982 0.86502 0.4537 0.0
H3161 H 0.88483 0.9097 0.47629 0.0
C3162 C 0.90889 0.86995 0.52918 0.0
C3163 C 0.90859 0.85294 0.53566 0.0
C3164 C 0.89944 0.84002 0.52656 0.0
C3165 C 0.89087 0.84391 0.51114 0.0
C3166 C 0.89157 0.86078 0.50505 0.0
C3167 C 0.90027 0.87361 0.51383 0.0
C3168 C 0.89889 0.89076 0.50467 0.0
C3169 C 0.88961 0.90416 0.51598 0.0
C3170 C 0.91674 0.89725 0.49899 0.0
C3171 C 0.88802 0.88556 0.48935 0.0
C3172 C 0.88397 0.86822 0.48976 0.0
C3173 C 0.87391 0.86053 0.47703 0.0
C3174 C 0.86765 0.87091 0.46362 0.0
C3175 C 0.87149 0.88876 0.46308 0.0
C3176 C 0.88191 0.89606 0.47611 0.0
H3177 H 0.10276 0.91465 0.52599 0.0
H3178 H 0.1349 0.87184 0.54227 0.0
H3179 H 0.13031 0.85776 0.51408 0.0
H3180 H 0.07216 0.88966 0.50114 0.0
H3181 H 0.06999 0.90596 0.48472 0.0
H3182 H 0.07511 0.91207 0.50653 0.0
H3183 H 0.10229 0.92817 0.49558 0.0
H3184 H 0.09736 0.92195 0.47376 0.0
H3185 H 0.11804 0.91667 0.48294 0.0
H3186 H 0.12324 0.84906 0.48366 0.0
H3187 H 0.1124 0.84523 0.45406 0.0
H3188 H 0.08596 0.89446 0.45744 0.0
C3189 C 0.10885 0.90232 0.52367 0.0
C3190 C 0.11926 0.89437 0.53633 0.0
C3191 C 0.12672 0.87807 0.53285 0.0
C3192 C 0.12431 0.87005 0.51683 0.0
C3193 C 0.11436 0.8785 0.50449 0.0
C3194 C 0.10662 0.89419 0.50778 0.0
C3195 C 0.09668 0.90065 0.4923 0.0
C3196 C 0.07734 0.90217 0.49642 0.0
C3197 C 0.10404 0.91788 0.48576 0.0
C3198 C 0.10016 0.88619 0.47971 0.0
C3199 C 0.11039 0.87355 0.48697 0.0
C3200 C 0.11523 0.85888 0.47783 0.0
C3201 C 0.10914 0.85691 0.46094 0.0
C3202 C 0.09832 0.86955 0.45335 0.0
C3203 C 0.09404 0.88448 0.46287 0.0
H3204 H 0.59262 0.97041 0.61155 0.0
H3205 H 0.60257 0.97857 0.66597 0.0
H3206 H 0.6133 0.00784 0.65965 0.0
H3207 H 0.63011 0.99353 0.59575 0.0
H3208 H 0.61878 0.0022 0.57741 0.0
H3209 H 0.61235 0.9818 0.5864 0.0
H3210 H 0.58125 0.99359 0.58999 0.0
H3211 H 0.58782 0.0141 0.5813 0.0
H3212 H 0.57775 0.01305 0.60222 0.0
H3213 H 0.62177 0.03664 0.64756 0.0
H3214 H 0.62954 0.06217 0.6303 0.0
H3215 H 0.61499 0.03473 0.58366 0.0
C3216 C 0.59709 0.97836 0.62211 0.0
C3217 C 0.59681 0.97221 0.63924 0.0
C3218 C 0.60291 0.98292 0.65272 0.0
C3219 C 0.60889 -0.00038 0.64928 0.0
C3220 C 0.60878 0.00537 0.63227 0.0
C3221 C 0.60323 0.99501 0.61888 0.0
C3222 C 0.60463 0.00425 0.60174 0.0
C3223 C 0.61723 0.99489 0.58962 0.0
C3224 C 0.5868 0.00637 0.59332 0.0
C3225 C 0.61178 0.02142 0.60763 0.0
C3226 C 0.61397 0.02186 0.62528 0.0
C3227 C 0.62025 0.03642 0.6337 0.0
C3228 C 0.62469 0.05085 0.62375 0.0
C3229 C 0.62295 0.05059 0.60556 0.0
C3230 C 0.61627 0.03562 0.59751 0.0
H3231 H 0.97212 0.63926 0.61023 0.0
H3232 H 0.94732 0.59151 0.59513 0.0
H3233 H 0.97325 0.57522 0.60377 0.0
H3234 H 0.01282 0.62928 0.5945 0.0
H3235 H 0.0249 0.63911 0.61175 0.0
H3236 H 0.00374 0.64702 0.60648 0.0
H3237 H 0.99372 0.6421 0.63796 0.0
H3238 H 0.01496 0.63443 0.64343 0.0
H3239 H 0.99637 0.62115 0.64767 0.0
H3240 H 0.00247 0.5647 0.61047 0.0
H3241 H 0.03269 0.55965 0.61814 0.0
H3242 H 0.03916 0.61413 0.62927 0.0
C3243 C 0.97201 0.62533 0.60929 0.0
C3244 C 0.9578 0.61657 0.60205 0.0
C3245 C 0.95818 0.59839 0.60056 0.0
C3246 C 0.9728 0.58906 0.60545 0.0
C3247 C 0.98687 0.59814 0.6119 0.0
C3248 C 0.98657 0.61581 0.61409 0.0
C3249 C 0.00383 0.62242 0.62043 0.0
C3250 C 0.01178 0.63521 0.60752 0.0
C3251 C 0.00211 0.6305 0.63845 0.0
C3252 C 0.01395 0.60573 0.62106 0.0
C3253 C 0.00386 0.59193 0.61609 0.0
C3254 C 0.01044 0.57533 0.61471 0.0
C3255 C 0.02774 0.57265 0.61888 0.0
C3256 C 0.03836 0.58652 0.62428 0.0
C3257 C 0.03131 0.60328 0.62536 0.0
H3258 H 0.37709 0.98675 0.57841 0.0
H3259 H 0.34235 0.96913 0.61862 0.0
H3260 H 0.34968 0.9946 0.63608 0.0
H3261 H 0.41 0.00146 0.60645 0.0
H3262 H 0.41568 0.01984 0.59341 0.0
H3263 H 0.40671 0.0009 0.58344 0.0
H3264 H 0.38242 0.01939 0.56988 0.0
H3265 H 0.39134 0.03842 0.57978 0.0
H3266 H 0.36915 0.03267 0.58358 0.0
H3267 H 0.36195 0.02106 0.6499 0.0
H3268 H 0.37857 0.04651 0.6592 0.0
H3269 H 0.40534 0.04683 0.61004 0.0
C3270 C 0.37101 0.9882 0.59088 0.0
C3271 C 0.35908 0.9759 0.59707 0.0
C3272 C 0.3513 0.97846 0.61342 0.0
C3273 C 0.35545 0.99287 0.62349 0.0
C3274 C 0.36736 0.00463 0.61704 0.0
C3275 C 0.37502 0.00248 0.60111 0.0
C3276 C 0.3879 0.01667 0.59746 0.0
C3277 C 0.40615 0.00927 0.59506 0.0
C3278 C 0.38236 0.02743 0.58175 0.0
C3279 C 0.38649 0.02696 0.61398 0.0
C3280 C 0.37448 0.01988 0.62505 0.0
C3281 C 0.37128 0.02683 0.64129 0.0
C3282 C 0.38073 0.04135 0.64642 0.0
C3283 C 0.39328 0.04871 0.63538 0.0
C3284 C 0.396 0.04145 0.61888 0.0
H3285 H 0.98278 0.42018 0.61469 0.0
H3286 H 0.97021 0.38071 0.65223 0.0
H3287 H -2e-05 0.36944 0.65028 0.0
H3288 H 0.00794 0.39386 0.58804 0.0
H3289 H 0.02328 0.41044 0.58259 0.0
H3290 H 0.00156 0.41622 0.58823 0.0
H3291 H 0.01316 0.43639 0.61227 0.0
H3292 H 0.03496 0.43056 0.60676 0.0
H3293 H 0.02735 0.42781 0.62854 0.0
H3294 H 0.03039 0.36141 0.64271 0.0
H3295 H 0.05821 0.35574 0.62852 0.0
H3296 H 0.05111 0.40119 0.59664 0.0
C3297 C 0.98638 0.40938 0.62276 0.0
C3298 C 0.97426 0.40136 0.6337 0.0
C3299 C 0.9793 0.38695 0.64369 0.0
C3300 C 0.9962 0.38059 0.64279 0.0
C3301 C 0.00785 0.38884 0.63187 0.0
C3302 C 0.00312 0.40287 0.62197 0.0
C3303 C 0.01761 0.40857 0.61023 0.0
C3304 C 0.01228 0.40718 0.59115 0.0
C3305 C 0.02363 0.42692 0.61472 0.0
C3306 C 0.03115 0.39533 0.61485 0.0
C3307 C 0.02536 0.38419 0.62749 0.0
C3308 C 0.03516 0.37019 0.63298 0.0
C3309 C 0.05104 0.36715 0.62491 0.0
C3310 C 0.05689 0.378 0.61141 0.0
C3311 C 0.047 0.39259 0.60681 0.0
H3312 H 0.60318 0.95803 0.40768 0.0
H3313 H 0.6558 0.96377 0.3901 0.0
H3314 H 0.64603 0.98358 0.36711 0.0
H3315 H 0.58127 0.96328 0.36408 0.0
H3316 H 0.56399 0.97555 0.37361 0.0
H3317 H 0.57447 0.95878 0.38584 0.0
H3318 H 0.5811 0.98078 0.41007 0.0
H3319 H 0.57089 0.99762 0.39789 0.0
H3320 H 0.59287 0.00016 0.40496 0.0
H3321 H 0.63165 0.00613 0.34986 0.0
H3322 H 0.61394 0.03017 0.33955 0.0
H3323 H 0.57018 0.01015 0.36822 0.0
C3324 C 0.61246 0.96287 0.39844 0.0
C3325 C 0.63017 0.95924 0.40033 0.0
C3326 C 0.64217 0.96635 0.38862 0.0
C3327 C 0.63671 0.97751 0.37553 0.0
C3328 C 0.61921 0.98141 0.37439 0.0
C3329 C 0.60722 0.97423 0.38547 0.0
C3330 C 0.58964 0.98242 0.38313 0.0
C3331 C 0.57657 0.96922 0.37625 0.0
C3332 C 0.58327 0.99074 0.40001 0.0
C3333 C 0.59385 0.9959 0.36966 0.0
C3334 C 0.61087 0.99483 0.36453 0.0
C3335 C 0.61818 0.00685 0.35342 0.0
C3336 C 0.60794 0.02052 0.3476 0.0
C3337 C 0.59055 0.02217 0.353 0.0
C3338 C 0.58339 0.00938 0.36386 0.0
H3339 H 0.02331 0.61187 0.41339 0.0
H3340 H 0.03151 0.65555 0.37928 0.0
H3341 H 0.00244 0.6515 0.36725 0.0
H3342 H -0.00054 0.58599 0.38418 0.0
H3343 H 0.985 0.57782 0.40043 0.0
H3344 H 0.00654 0.58419 0.40625 0.0
H3345 H 0.99416 0.60513 0.42921 0.0
H3346 H 0.97257 0.59889 0.42338 0.0
H3347 H 0.97874 0.62129 0.42281 0.0
H3348 H 0.97258 0.64228 0.3585 0.0
H3349 H 0.9449 0.62776 0.35292 0.0
H3350 H 0.95567 0.59175 0.39445 0.0
C3351 C 0.01905 0.62073 0.40352 0.0
C3352 C 0.02986 0.63403 0.39733 0.0
C3353 C 0.02369 0.64508 0.38412 0.0
C3354 C 0.00709 0.64301 0.3773 0.0
C3355 C 0.99674 0.62993 0.3839 0.0
C3356 C 0.0025 0.61897 0.3967 0.0
C3357 C 0.98895 0.6058 0.40145 0.0
C3358 C 0.99537 0.58737 0.39786 0.0
C3359 C 0.98327 0.60791 0.42033 0.0
C3360 C 0.97474 0.61093 0.38914 0.0
C3361 C 0.97944 0.6249 0.37916 0.0
C3362 C 0.96868 0.63142 0.36635 0.0
C3363 C 0.95289 0.62315 0.36337 0.0
C3364 C 0.948 0.60851 0.37317 0.0
C3365 C 0.95898 0.60271 0.38652 0.0
H3366 H 0.36585 0.03227 0.38174 0.0
H3367 H 0.37304 0.02566 0.43679 0.0
H3368 H 0.3774 0.99468 0.43276 0.0
H3369 H 0.34458 0.99115 0.37306 0.0
H3370 H 0.35598 0.98746 0.35315 0.0
H3371 H 0.35177 0.00918 0.36027 0.0
H3372 H 0.38442 0.01627 0.35873 0.0
H3373 H 0.38864 0.99468 0.35135 0.0
H3374 H 0.39953 0.00282 0.37019 0.0
H3375 H 0.38202 0.96483 0.42315 0.0
H3376 H 0.39033 0.93817 0.40787 0.0
H3377 H 0.38164 0.9635 0.35883 0.0
C3378 C 0.36821 0.02422 0.39289 0.0
C3379 C 0.36885 0.0314 0.40962 0.0
C3380 C 0.37237 0.02053 0.42389 0.0
C3381 C 0.37476 0.00284 0.42175 0.0
C3382 C 0.37388 0.99614 0.40518 0.0
C3383 C 0.37102 0.00646 0.39093 0.0
C3384 C 0.37237 0.99607 0.37443 0.0
C3385 C 0.35514 0.99596 0.36465 0.0
C3386 C 0.38712 0.00286 0.36301 0.0
C3387 C 0.37652 0.9784 0.38171 0.0
C3388 C 0.37705 0.97874 0.3995 0.0
C3389 C 0.38153 0.96432 0.40922 0.0
C3390 C 0.38619 0.94927 0.40048 0.0
C3391 C 0.38645 0.94881 0.38225 0.0
C3392 C 0.38109 0.96341 0.37277 0.0
H3393 H 0.01431 0.42414 0.36743 0.0
H3394 H 0.03362 0.37951 0.33976 0.0
H3395 H 0.00886 0.36252 0.34995 0.0
H3396 H 0.00366 0.40279 0.40405 0.0
H3397 H 0.98449 0.41497 0.40896 0.0
H3398 H 0.00139 0.42464 0.39646 0.0
H3399 H 0.97961 0.43129 0.37202 0.0
H3400 H 0.96259 0.42155 0.38451 0.0
H3401 H 0.96692 0.41405 0.36294 0.0
H3402 H 0.98589 0.34901 0.36736 0.0
H3403 H 0.96627 0.34008 0.39084 0.0
H3404 H 0.96142 0.39317 0.40722 0.0
C3405 C 0.01318 0.41088 0.36326 0.0
C3406 C 0.02596 0.40318 0.35279 0.0
C3407 C 0.02392 0.3858 0.34755 0.0
C3408 C 0.00986 0.37604 0.35328 0.0
C3409 C 0.99783 0.38388 0.36405 0.0
C3410 C -0.00075 0.40097 0.36888 0.0
C3411 C 0.98584 0.40573 0.38225 0.0
C3412 C 0.99436 0.41241 0.39891 0.0
C3413 C 0.97297 0.41894 0.37499 0.0
C3414 C 0.97734 0.38837 0.38495 0.0
C3415 C 0.98421 0.37602 0.37405 0.0
C3416 C 0.98004 0.35862 0.37561 0.0
C3417 C 0.96897 0.35364 0.38896 0.0
C3418 C 0.96222 0.36601 0.40051 0.0
C3419 C 0.96599 0.38362 0.39812 0.0
H3420 H 0.62089 0.57688 0.9703 0.0
H3421 H 0.64852 0.61971 0.94718 0.0
H3422 H 0.64176 0.63769 0.97254 0.0
H3423 H 0.58653 0.60209 0.98834 0.0
H3424 H 0.58486 0.58917 0.00758 0.0
H3425 H 0.59226 0.57957 0.98779 0.0
H3426 H 0.62012 0.56934 0.00312 0.0
H3427 H 0.61284 0.57896 0.02296 0.0
H3428 H 0.63348 0.58487 0.01409 0.0
H3429 H 0.63154 0.65113 9e-05 0.0
H3430 H 0.61801 0.65939 0.02758 0.0
H3431 H 0.5972 0.60767 0.03278 0.0
C3432 C 0.62539 0.59008 0.97045 0.0
C3433 C 0.63525 0.59688 0.95672 0.0
C3434 C 0.64113 0.61415 0.95762 0.0
C3435 C 0.6373 0.62448 0.97194 0.0
C3436 C 0.6276 0.61734 0.98525 0.0
C3437 C 0.62169 0.60056 0.98463 0.0
C3438 C 0.61133 0.59607 0.00055 0.0
C3439 C 0.59264 0.59146 0.99577 0.0
C3440 C 0.61996 0.58144 0.01079 0.0
C3441 C 0.61225 0.61302 0.01017 0.0
C3442 C 0.62174 0.62509 0.00116 0.0
C3443 C 0.62416 0.64176 0.00733 0.0
C3444 C 0.61652 0.64629 0.02305 0.0
C3445 C 0.60654 0.63419 0.03245 0.0
C3446 C 0.60458 0.61729 0.0259 0.0
H3447 H 0.42128 0.61013 0.96922 0.0
H3448 H 0.38489 0.65187 0.96128 0.0
H3449 H 0.37522 0.64907 0.99153 0.0
H3450 H 0.39486 0.5845 0.99671 0.0
H3451 H 0.41258 0.57767 0.01009 0.0
H3452 H 0.41628 0.58304 0.98783 0.0
H3453 H 0.43946 0.60529 0.99716 0.0
H3454 H 0.43564 0.60015 0.01949 0.0
H3455 H 0.43377 0.62212 0.01215 0.0
H3456 H 0.36986 0.64175 0.02287 0.0
H3457 H 0.36721 0.62849 0.05177 0.0
H3458 H 0.40811 0.59262 0.039 0.0
C3459 C 0.41134 0.61877 0.97382 0.0
C3460 C 0.40389 0.63128 0.9629 0.0
C3461 C 0.39064 0.64206 0.96936 0.0
C3462 C 0.38521 0.6407 0.98657 0.0
C3463 C 0.3932 0.62852 0.99708 0.0
C3464 C 0.40587 0.61765 0.99089 0.0
C3465 C 0.41221 0.60541 0.00464 0.0
C3466 C 0.40877 0.58654 -0.00049 0.0
C3467 C 0.43141 0.60843 0.00859 0.0
C3468 C 0.40097 0.61094 0.01953 0.0
C3469 C 0.3902 0.62439 0.01502 0.0
C3470 C 0.37829 0.63127 0.02658 0.0
C3471 C 0.37698 0.62378 0.043 0.0
C3472 C 0.38744 0.60953 0.04756 0.0
C3473 C 0.39988 0.60342 0.0358 0.0
H3474 H 0.40563 0.34053 0.01666 0.0
H3475 H 0.38326 0.37092 0.05802 0.0
H3476 H 0.36614 0.38705 0.0366 0.0
H3477 H 0.41173 0.37293 0.98872 0.0
H3478 H 0.40653 0.36118 0.96936 0.0
H3479 H 0.41449 0.34986 0.98791 0.0
H3480 H 0.38755 0.33014 0.98797 0.0
H3481 H 0.37955 0.34121 0.96916 0.0
H3482 H 0.36636 0.33968 0.98824 0.0
H3483 H 0.35581 0.40313 0.01056 0.0
H3484 H 0.35142 0.41654 0.98194 0.0
H3485 H 0.37955 0.37479 0.95787 0.0
C3486 C 0.39665 0.35002 0.02146 0.0
C3487 C 0.39591 0.35441 0.03916 0.0
C3488 C 0.38423 0.36739 0.04456 0.0
C3489 C 0.37436 0.37656 0.03249 0.0
C3490 C 0.37606 0.37237 0.01509 0.0
C3491 C 0.38668 0.35918 0.00962 0.0
C3492 C 0.38756 0.35828 0.99014 0.0
C3493 C 0.40618 0.36072 0.98367 0.0
C3494 C 0.37979 0.34132 0.98349 0.0
C3495 C 0.37636 0.37351 0.98546 0.0
C3496 C 0.36972 0.3814 3e-05 0.0
C3497 C 0.36055 0.39681 0.99906 0.0
C3498 C 0.35822 0.40438 0.98282 0.0
C3499 C 0.36499 0.39652 0.96781 0.0
C3500 C 0.37387 0.38074 0.96914 0.0
H3501 H 0.62546 0.3812 0.03643 0.0
H3502 H 0.62052 0.43551 0.02397 0.0
H3503 H 0.61289 0.42801 0.9941 0.0
H3504 H 0.64308 0.36754 0.99375 0.0
H3505 H 0.63123 0.34755 0.99418 0.0
H3506 H 0.63845 0.35722 0.01406 0.0
H3507 H 0.6071 0.35703 0.02568 0.0
H3508 H 0.59987 0.34726 0.00597 0.0
H3509 H 0.5903 0.36716 0.01321 0.0
H3510 H 0.60247 0.4147 0.96681 0.0
H3511 H 0.58828 0.39665 0.94503 0.0
H3512 H 0.60176 0.35086 0.9743 0.0
C3513 C 0.62312 0.3915 0.02731 0.0
C3514 C 0.62345 0.4089 0.03258 0.0
C3515 C 0.62001 0.42205 0.02035 0.0
C3516 C 0.61593 0.41794 0.00326 0.0
C3517 C 0.61555 0.40064 0.99853 0.0
C3518 C 0.61908 0.38762 0.01019 0.0
C3519 C 0.61624 0.37004 0.00227 0.0
C3520 C 0.63327 0.36 0.00099 0.0
C3521 C 0.60256 0.35978 0.01238 0.0
C3522 C 0.60977 0.37523 0.98461 0.0
C3523 C 0.60978 0.39292 0.98258 0.0
C3524 C 0.60272 0.4008 0.96807 0.0
C3525 C 0.59475 0.39037 0.95567 0.0
C3526 C 0.5938 0.37224 0.95794 0.0
C3527 C 0.60219 0.36465 0.97221 0.0
H3528 H 0.07285 0.43019 0.07963 0.0
H3529 H 0.0736 0.377 0.0971 0.0
H3530 H 0.08612 0.36797 0.06942 0.0
H3531 H 0.06313 0.42113 0.03406 0.0
H3532 H 0.07725 0.43778 0.0261 0.0
H3533 H 0.067 0.44018 0.04682 0.0
H3534 H 0.09685 0.4446 0.06112 0.0
H3535 H 0.10715 0.44221 0.04046 0.0
H3536 H 0.11338 0.42853 0.05819 0.0
H3537 H 0.0996 0.36455 0.041 0.0
H3538 H 0.11419 0.36701 0.01293 0.0
H3539 H 0.10583 0.42234 0.01335 0.0
C3540 C 0.07543 0.41664 0.07745 0.0
C3541 C 0.07222 0.40426 0.09044 0.0
C3542 C 0.07603 0.38669 0.08733 0.0
C3543 C 0.08307 0.38141 0.07163 0.0
C3544 C 0.08632 0.39387 0.05917 0.0
C3545 C 0.08271 0.41112 0.06182 0.0
C3546 C 0.08849 0.42187 0.04652 0.0
C3547 C 0.07304 0.43076 0.03786 0.0
C3548 C 0.10229 0.43508 0.0519 0.0
C3549 C 0.09602 0.40793 0.03502 0.0
C3550 C 0.09448 0.39189 0.0426 0.0
C3551 C 0.10087 0.37702 0.03487 0.0
C3552 C 0.10924 0.37856 0.01899 0.0
C3553 C 0.11121 0.39485 0.011 0.0
C3554 C 0.10432 0.4097 0.01907 0.0
H3555 H 0.58937 0.09876 0.00599 0.0
H3556 H 0.64056 0.12157 0.00773 0.0
H3557 H 0.64551 0.10836 0.03592 0.0
H3558 H 0.5804 0.1056 0.05168 0.0
H3559 H 0.56852 0.08577 0.05396 0.0
H3560 H 0.56886 0.09681 0.03353 0.0
H3561 H 0.58016 0.06906 0.01877 0.0
H3562 H 0.58003 0.05797 0.03918 0.0
H3563 H 0.59958 0.05902 0.02666 0.0
H3564 H 0.64567 0.09233 0.06329 0.0
H3565 H 0.63986 0.07645 0.0901 0.0
H3566 H 0.58809 0.06493 0.07208 0.0
C3567 C 0.60157 0.10114 0.0123 0.0
C3568 C 0.61469 0.11099 0.00425 0.0
C3569 C 0.63044 0.11371 0.01317 0.0
C3570 C 0.63338 0.10634 0.02933 0.0
C3571 C 0.62039 0.09643 0.03665 0.0
C3572 C 0.60468 0.09402 0.02863 0.0
C3573 C 0.59279 0.08314 0.03974 0.0
C3574 C 0.57669 0.09345 0.04504 0.0
C3575 C 0.58786 0.0663 0.03053 0.0
C3576 C 0.60442 0.07971 0.0551 0.0
C3577 C 0.62029 0.08746 0.05293 0.0
C3578 C 0.63327 0.08624 0.06523 0.0
C3579 C 0.62985 0.07714 0.0804 0.0
C3580 C 0.61354 0.06942 0.08319 0.0
C3581 C 0.60073 0.07056 0.07025 0.0
H3582 H 0.90226 0.61076 0.08865 0.0
H3583 H 0.9499 0.58513 0.07442 0.0
H3584 H 0.94002 0.5837 0.04414 0.0
H3585 H 0.87524 0.58529 0.06199 0.0
H3586 H 0.86081 0.60268 0.05657 0.0
H3587 H 0.87221 0.60297 0.07677 0.0
H3588 H 0.88487 0.63297 0.06927 0.0
H3589 H 0.87351 0.63277 0.049 0.0
H3590 H 0.89654 0.6358 0.04937 0.0
H3591 H 0.92489 0.58481 0.01571 0.0
H3592 H 0.90487 0.58631 0.99129 0.0
H3593 H 0.8661 0.60945 0.02447 0.0
C3594 C 0.91071 0.60507 0.07911 0.0
C3595 C 0.92691 0.59821 0.08377 0.0
C3596 C 0.93746 0.5905 0.07104 0.0
C3597 C 0.93199 0.5897 0.05384 0.0
C3598 C 0.9159 0.59651 0.04968 0.0
C3599 C 0.90534 0.60392 0.06195 0.0
C3600 C 0.88818 0.60924 0.05431 0.0
C3601 C 0.87323 0.59945 0.06292 0.0
C3602 C 0.88563 0.62886 0.05556 0.0
C3603 C 0.8907 0.60358 0.03581 0.0
C3604 C 0.90685 0.59647 0.0334 0.0
C3605 C 0.91216 0.59023 0.01746 0.0
C3606 C 0.90056 0.59102 0.00367 0.0
C3607 C 0.88368 0.59776 0.0059 0.0
C3608 C 0.87886 0.60432 0.02221 0.0
H3609 H 0.38339 0.884 0.02607 0.0
H3610 H 0.4155 0.9167 0.99391 0.0
H3611 H 0.42137 0.93541 0.01889 0.0
H3612 H 0.36449 0.91865 0.05128 0.0
H3613 H 0.36428 0.90612 0.07084 0.0
H3614 H 0.36241 0.89552 0.05027 0.0
H3615 H 0.38871 0.8763 0.05775 0.0
H3616 H 0.39071 0.88688 0.07831 0.0
H3617 H 0.40881 0.88631 0.06375 0.0
H3618 H 0.42466 0.94998 0.04791 0.0
H3619 H 0.4243 0.95955 0.07837 0.0
H3620 H 0.38916 0.91781 0.09083 0.0
C3621 C 0.39143 0.89522 0.02413 0.0
C3622 C 0.39901 0.89874 0.00794 0.0
C3623 C 0.40973 0.91347 0.00618 0.0
C3624 C 0.41306 0.92429 0.02029 0.0
C3625 C 0.4055 0.9203 0.03607 0.0
C3626 C 0.39482 0.90617 0.03802 0.0
C3627 C 0.38847 0.90454 0.05637 0.0
C3628 C 0.36874 0.90632 0.05723 0.0
C3629 C 0.39454 0.8875 0.06452 0.0
C3630 C 0.39735 0.91988 0.06449 0.0
C3631 C 0.40714 0.92882 0.05261 0.0
C3632 C 0.41692 0.94316 0.0573 0.0
C3633 C 0.41666 0.94848 0.07461 0.0
C3634 C 0.40663 0.93949 0.08694 0.0
C3635 C 0.39683 0.92506 0.0817 0.0
H3636 H 0.08798 0.61396 0.90714 0.0
H3637 H 0.04878 0.57523 0.91702 0.0
H3638 H 0.05922 0.57235 0.94693 0.0
H3639 H 0.12124 0.59372 0.93112 0.0
H3640 H 0.13027 0.61357 0.93915 0.0
H3641 H 0.11911 0.61332 0.9188 0.0
H3642 H 0.09859 0.63737 0.92964 0.0
H3643 H 0.10972 0.63772 0.95002 0.0
H3644 H 0.08675 0.63424 0.94939 0.0
H3645 H 0.07447 0.57299 0.97539 0.0
H3646 H 0.09338 0.57716 0.00051 0.0
H3647 H 0.12313 0.61492 0.97181 0.0
C3648 C 0.08145 0.60502 0.91564 0.0
C3649 C 0.06752 0.59487 0.90978 0.0
C3650 C 0.05946 0.58317 0.92125 0.0
C3651 C 0.06528 0.58144 0.93826 0.0
C3652 C 0.07916 0.59151 0.94357 0.0
C3653 C 0.08713 0.60308 0.93263 0.0
C3654 C 0.10217 0.61193 0.94138 0.0
C3655 C 0.1192 0.60788 0.93206 0.0
C3656 C 0.09912 0.63147 0.94268 0.0
C3657 C 0.10146 0.60344 0.95892 0.0
C3658 C 0.08807 0.59175 0.95993 0.0
C3659 C 0.085 0.58212 0.97476 0.0
C3660 C 0.09593 0.58449 0.98893 0.0
C3661 C 0.10984 0.59634 0.98817 0.0
C3662 C 0.11252 0.60594 0.97293 0.0
H3663 H 0.3762 0.12146 0.97305 0.0
H3664 H 0.3945 0.08181 0.00804 0.0
H3665 H 0.39326 0.06055 0.98451 0.0
H3666 H 0.34702 0.09229 0.94707 0.0
H3667 H 0.35216 0.1037 0.92749 0.0
H3668 H 0.35175 0.11504 0.94778 0.0
H3669 H 0.38299 0.12556 0.94241 0.0
H3670 H 0.38361 0.11413 0.92228 0.0
H3671 H 0.39974 0.10993 0.93847 0.0
H3672 H 0.39554 0.04526 0.9562 0.0
H3673 H 0.39848 0.03652 0.92564 0.0
H3674 H 0.37661 0.0854 0.90963 0.0
C3675 C 0.3793 0.1082 0.97601 0.0
C3676 C 0.38563 0.10342 0.9924 0.0
C3677 C 0.38992 0.08592 0.99552 0.0
C3678 C 0.38911 0.07368 0.98227 0.0
C3679 C 0.38359 0.07903 0.96605 0.0
C3680 C 0.37839 0.0958 0.96297 0.0
C3681 C 0.37441 0.09863 0.94408 0.0
C3682 C 0.35519 0.10265 0.94146 0.0
C3683 C 0.38588 0.1129 0.93637 0.0
C3684 C 0.379 0.0811 0.93691 0.0
C3685 C 0.38417 0.06991 0.94978 0.0
C3686 C 0.39101 0.0537 0.94605 0.0
C3687 C 0.39273 0.04888 0.9287 0.0
C3688 C 0.38748 0.06019 0.9154 0.0
C3689 C 0.38022 0.07631 0.9196 0.0
H3690 H 0.89847 0.41581 0.98791 0.0
H3691 H 0.8543 0.38347 0.97642 0.0
H3692 H 0.86242 0.38319 0.94577 0.0
H3693 H 0.89702 0.44093 0.9467 0.0
H3694 H 0.92017 0.44193 0.94517 0.0
H3695 H 0.90992 0.44125 0.96602 0.0
H3696 H 0.92815 0.41445 0.97409 0.0
H3697 H 0.93836 0.41494 0.95327 0.0
H3698 H 0.9275 0.39567 0.9604 0.0
H3699 H 0.87643 0.38378 0.91744 0.0
H3700 H 0.89539 0.38567 0.89222 0.0
H3701 H 0.93076 0.41814 0.92106 0.0
C3702 C 0.89031 0.40902 0.97886 0.0
C3703 C 0.8758 0.39954 0.98458 0.0
C3704 C 0.8656 0.39057 0.97239 0.0
C3705 C 0.87002 0.39047 0.95493 0.0
C3706 C 0.88461 0.39953 0.94978 0.0
C3707 C 0.89456 0.40878 0.96129 0.0
C3708 C 0.91017 0.41653 0.95237 0.0
C3709 C 0.90926 0.43634 0.95258 0.0
C3710 C 0.92704 0.41 0.96052 0.0
C3711 C 0.90778 0.40953 0.93425 0.0
C3712 C 0.89279 0.39998 0.93309 0.0
C3713 C 0.88809 0.3914 0.91809 0.0
C3714 C 0.89905 0.39248 0.90385 0.0
C3715 C 0.91459 0.40204 0.90466 0.0
C3716 C 0.9189 0.41086 0.92003 0.0
H3717 H 0.61981 0.91471 0.91039 0.0
H3718 H 0.59542 0.96249 0.92599 0.0
H3719 H 0.60082 0.95518 0.9566 0.0
H3720 H 0.59979 0.89018 0.94041 0.0
H3721 H 0.6174 0.87551 0.94424 0.0
H3722 H 0.61566 0.88635 0.92387 0.0
H3723 H 0.6465 0.89867 0.92766 0.0
H3724 H 0.64834 0.88782 0.94814 0.0
H3725 H 0.65176 0.91076 0.94679 0.0
H3726 H 0.60526 0.94104 0.98509 0.0
H3727 H 0.60544 0.92021 0.00907 0.0
H3728 H 0.62481 0.88066 0.97464 0.0
C3729 C 0.61625 0.92395 0.92024 0.0
C3730 C 0.60756 0.93932 0.91594 0.0
C3731 C 0.60232 0.95076 0.92912 0.0
C3732 C 0.60544 0.94675 0.94648 0.0
C3733 C 0.61365 0.93121 0.95035 0.0
C3734 C 0.61889 0.91993 0.93758 0.0
C3735 C 0.62468 0.90285 0.94505 0.0
C3736 C 0.61372 0.88785 0.93798 0.0
C3737 C 0.64397 0.89986 0.94171 0.0
C3738 C 0.62121 0.90599 0.96397 0.0
C3739 C 0.61535 0.92259 0.96681 0.0
C3740 C 0.61001 0.92808 0.98304 0.0
C3741 C 0.61003 0.91611 0.99655 0.0
C3742 C 0.615 0.89876 0.99369 0.0
C3743 C 0.62125 0.89387 0.97732 0.0
H3744 H 0.01498 0.11579 0.37672 0.0
H3745 H 0.98656 0.07829 0.40684 0.0
H3746 H 0.01247 0.05988 0.40843 0.0
H3747 H 0.04288 0.08393 0.35298 0.0
H3748 H 0.06118 0.09823 0.35387 0.0
H3749 H 0.03967 0.10695 0.35271 0.0
H3750 H 0.04552 0.12474 0.38038 0.0
H3751 H 0.0669 0.11592 0.38179 0.0
H3752 H 0.05229 0.11378 0.39974 0.0
H3753 H 0.04228 0.04792 0.41053 0.0
H3754 H 0.07364 0.04242 0.41158 0.0
H3755 H 0.08248 0.08741 0.3795 0.0
C3756 C 0.01404 0.1034 0.38306 0.0
C3757 C 0.99879 0.09843 0.39163 0.0
C3758 C 0.99818 0.08236 0.40028 0.0
C3759 C 0.01279 0.07179 0.40117 0.0
C3760 C 0.02784 0.0774 0.39317 0.0
C3761 C 0.02851 0.09271 0.38407 0.0
C3762 C 0.04665 0.09656 0.378 0.0
C3763 C 0.04765 0.0964 0.35821 0.0
C3764 C 0.05322 0.11376 0.38543 0.0
C3765 C 0.05616 0.08137 0.38569 0.0
C3766 C 0.04507 0.07037 0.39425 0.0
C3767 C 0.05106 0.05622 0.40357 0.0
C3768 C 0.06888 0.05326 0.40418 0.0
C3769 C 0.08044 0.06442 0.39553 0.0
C3770 C 0.07393 0.07849 0.386 0.0
H3771 H 0.91376 0.08687 0.39631 0.0
H3772 H 0.94179 0.08135 0.44445 0.0
H3773 H 0.93181 0.05112 0.44665 0.0
H3774 H 0.87711 0.06242 0.40835 0.0
H3775 H 0.87421 0.05289 0.38736 0.0
H3776 H 0.8841 0.07379 0.38933 0.0
H3777 H 0.91084 0.0628 0.37256 0.0
H3778 H 0.90103 0.04184 0.37053 0.0
H3779 H 0.9221 0.04392 0.3801 0.0
H3780 H 0.91786 0.02199 0.44399 0.0
H3781 H 0.90104 0.99618 0.43706 0.0
H3782 H 0.88264 0.02072 0.39016 0.0
C3783 C 0.91788 0.07932 0.40731 0.0
C3784 C 0.92854 0.08643 0.42023 0.0
C3785 C 0.93364 0.07612 0.4344 0.0
C3786 C 0.92805 0.05896 0.43574 0.0
C3787 C 0.91749 0.05238 0.42276 0.0
C3788 C 0.91249 0.06223 0.40881 0.0
C3789 C 0.90083 0.05225 0.39678 0.0
C3790 C 0.88301 0.06085 0.39538 0.0
C3791 C 0.90921 0.05007 0.37894 0.0
C3792 C 0.89983 0.03527 0.40626 0.0
C3793 C 0.90958 0.03558 0.42116 0.0
C3794 C 0.91031 0.02154 0.43227 0.0
C3795 C 0.9007 0.00684 0.42812 0.0
C3796 C 0.89042 0.00624 0.41296 0.0
C3797 C 0.8902 0.02068 0.40187 0.0
H3798 H 0.9184 0.92973 0.41979 0.0
H3799 H 0.89096 0.90816 0.37598 0.0
H3800 H 0.91713 0.89255 0.36724 0.0
H3801 H 0.9591 0.93572 0.39779 0.0
H3802 H 0.97195 0.92995 0.41627 0.0
H3803 H 0.951 0.93951 0.41924 0.0
H3804 H 0.94184 0.91353 0.43815 0.0
H3805 H 0.96273 0.90384 0.43514 0.0
H3806 H 0.94354 0.892 0.42956 0.0
H3807 H 0.94561 0.87876 0.36349 0.0
H3808 H 0.97556 0.86859 0.36398 0.0
H3809 H 0.98539 0.89967 0.40955 0.0
C3810 C 0.91793 0.92178 0.40833 0.0
C3811 C 0.90261 0.92016 0.39858 0.0
C3812 C 0.90252 0.90962 0.38366 0.0
C3813 C 0.91731 0.90066 0.3786 0.0
C3814 C 0.93213 0.9024 0.38854 0.0
C3815 C 0.93265 0.91275 0.40302 0.0
C3816 C 0.95039 0.91242 0.41124 0.0
C3817 C 0.95859 0.93047 0.41112 0.0
C3818 C 0.94957 0.905 0.42961 0.0
C3819 C 0.9597 0.90027 0.39908 0.0
C3820 C 0.94884 0.8946 0.38616 0.0
C3821 C 0.95431 0.88322 0.37345 0.0
C3822 C 0.97143 0.8776 0.37379 0.0
C3823 C 0.98301 0.88346 0.38667 0.0
C3824 C 0.97692 0.89485 0.39957 0.0
H3825 H 0.10648 0.98537 0.4093 0.0
H3826 H 0.11215 0.99062 0.35385 0.0
H3827 H 0.09607 0.96358 0.34968 0.0
H3828 H 0.11164 0.93994 0.4111 0.0
H3829 H 0.09581 0.93672 0.4278 0.0
H3830 H 0.10731 0.95683 0.42647 0.0
H3831 H 0.07834 0.97335 0.42493 0.0
H3832 H 0.06673 0.95326 0.42619 0.0
H3833 H 0.06287 0.96782 0.40849 0.0
H3834 H 0.08057 0.9357 0.3514 0.0
H3835 H 0.06693 0.90803 0.3589 0.0
H3836 H 0.07021 0.92096 0.41325 0.0
C3837 C 0.10415 0.98098 0.39627 0.0
C3838 C 0.11063 0.99016 0.38189 0.0
C3839 C 0.10756 0.98374 0.36507 0.0
C3840 C 0.09829 0.96846 0.36256 0.0
C3841 C 0.09209 0.95978 0.377 0.0
C3842 C 0.09488 0.96575 0.39353 0.0
C3843 C 0.08725 0.9536 0.40682 0.0
C3844 C 0.10135 0.94634 0.41874 0.0
C3845 C 0.07294 0.96255 0.41722 0.0
C3846 C 0.07994 0.93975 0.39514 0.0
C3847 C 0.08284 0.94366 0.37799 0.0
C3848 C 0.07807 0.93255 0.36476 0.0
C3849 C 0.07036 0.91686 0.36916 0.0
C3850 C 0.06744 0.91245 0.38663 0.0
C3851 C 0.07203 0.92417 0.39978 0.0
H3852 H 0.08075 0.93092 0.5775 0.0
H3853 H 0.08744 0.94606 0.63093 0.0
H3854 H 0.05848 0.93474 0.63774 0.0
H3855 H 0.03298 0.9382 0.57485 0.0
H3856 H 0.03002 0.91932 0.56161 0.0
H3857 H 0.04978 0.93149 0.56026 0.0
H3858 H 0.06723 0.90378 0.56682 0.0
H3859 H 0.04759 0.89158 0.56834 0.0
H3860 H 0.06257 0.89168 0.58611 0.0
H3861 H 0.03091 0.91861 0.63956 0.0
H3862 H 0.00645 0.89858 0.63639 0.0
H3863 H 0.01802 0.89296 0.58197 0.0
C3864 C 0.07585 0.9324 0.5905 0.0
C3865 C 0.08618 0.93954 0.60368 0.0
C3866 C 0.07963 0.94073 0.62065 0.0
C3867 C 0.06319 0.9344 0.62461 0.0
C3868 C 0.05353 0.92691 0.61145 0.0
C3869 C 0.05956 0.92595 0.5947 0.0
C3870 C 0.04752 0.91551 0.58341 0.0
C3871 C 0.03961 0.92681 0.56919 0.0
C3872 C 0.05678 0.89971 0.57573 0.0
C3873 C 0.03411 0.91025 0.59657 0.0
C3874 C 0.03768 0.91721 0.61258 0.0
C3875 C 0.02784 0.91326 0.62705 0.0
C3876 C 0.01408 0.90175 0.62515 0.0
C3877 C 0.01037 0.8942 0.60894 0.0
C3878 C 0.02036 0.89877 0.59444 0.0
H3879 H 0.07313 0.07727 0.58244 0.0
H3880 H 0.07514 0.08834 0.6373 0.0
H3881 H 0.09064 0.06107 0.64223 0.0
H3882 H 0.06768 0.03008 0.5868 0.0
H3883 H 0.08104 0.02561 0.56833 0.0
H3884 H 0.06874 0.0453 0.56927 0.0
H3885 H 0.09661 0.06269 0.56428 0.0
H3886 H 0.10927 0.04327 0.56382 0.0
H3887 H 0.11453 0.06017 0.57888 0.0
H3888 H 0.10769 0.034 0.64111 0.0
H3889 H 0.12419 0.00778 0.63416 0.0
H3890 H 0.11142 0.01401 0.58005 0.0
C3891 C 0.07651 0.07378 0.59553 0.0
C3892 C 0.07288 0.08491 0.60951 0.0
C3893 C 0.07777 0.08002 0.6264 0.0
C3894 C 0.08657 0.06454 0.62935 0.0
C3895 C 0.09032 0.05407 0.61527 0.0
C3896 C 0.08533 0.05835 0.59871 0.0
C3897 C 0.09162 0.04508 0.5858 0.0
C3898 C 0.07636 0.03597 0.57704 0.0
C3899 C 0.10374 0.0533 0.57242 0.0
C3900 C 0.10126 0.03292 0.59768 0.0
C3901 C 0.10025 0.03833 0.61462 0.0
C3902 C 0.1085 0.02955 0.62791 0.0
C3903 C 0.11798 0.01476 0.62381 0.0
C3904 C 0.11916 0.00888 0.60655 0.0
C3905 C 0.1106 0.0181 0.59336 0.0
H3906 H 0.91704 0.07323 0.62491 0.0
H3907 H 0.91816 0.04922 0.57433 0.0
H3908 H 0.94704 0.06143 0.56921 0.0
H3909 H 0.93665 0.11214 0.61284 0.0
H3910 H 0.94903 0.11467 0.63235 0.0
H3911 H 0.92903 0.10291 0.63277 0.0
H3912 H 0.94467 0.07629 0.64555 0.0
H3913 H 0.9647 0.08803 0.64535 0.0
H3914 H 0.96316 0.06752 0.63455 0.0
H3915 H 0.97446 0.07824 0.56852 0.0
H3916 H -0.00049 0.09706 0.57288 0.0
H3917 H 0.98121 0.10939 0.62439 0.0
C3918 C 0.92347 0.07028 0.61288 0.0
C3919 C 0.91535 0.06023 0.60004 0.0
C3920 C 0.92415 0.05681 0.58441 0.0
C3921 C 0.94055 0.06371 0.58135 0.0
C3922 C 0.94802 0.07389 0.59411 0.0
C3923 C 0.93988 0.07702 0.60964 0.0
C3924 C 0.95053 0.08886 0.62096 0.0
C3925 C 0.94072 0.10563 0.62496 0.0
C3926 C 0.9561 0.07962 0.63759 0.0
C3927 C 0.96576 0.09216 0.60921 0.0
C3928 C 0.96405 0.08337 0.59382 0.0
C3929 C 0.97611 0.08494 0.58064 0.0
C3930 C 0.99039 0.09565 0.58332 0.0
C3931 C 0.99261 0.10464 0.59911 0.0
C3932 C 0.98001 0.1028 0.61217 0.0
H3933 H 0.88935 0.97074 0.62393 0.0
H3934 H 0.8794 0.98 0.56973 0.0
H3935 H 0.89457 0.95301 0.56227 0.0
H3936 H 0.93124 0.95347 0.61936 0.0
H3937 H 0.92879 0.93729 0.63586 0.0
H3938 H 0.91659 0.957 0.63706 0.0
H3939 H 0.88815 0.93954 0.63853 0.0
H3940 H 0.90027 0.91976 0.6375 0.0
H3941 H 0.88347 0.9239 0.622 0.0
H3942 H 0.91241 0.92632 0.56058 0.0
H3943 H 0.92976 0.90002 0.56489 0.0
H3944 H 0.92698 0.90726 0.62034 0.0
C3945 C 0.89016 0.96695 0.61052 0.0
C3946 C 0.88346 0.97757 0.59734 0.0
C3947 C 0.88487 0.97225 0.57994 0.0
C3948 C 0.89333 0.95692 0.57561 0.0
C3949 C 0.9002 0.94698 0.58887 0.0
C3950 C 0.89852 0.95163 0.60598 0.0
C3951 C 0.9072 0.93866 0.61771 0.0
C3952 C 0.92182 0.94712 0.62811 0.0
C3953 C 0.89398 0.92995 0.62964 0.0
C3954 C 0.9142 0.92614 0.60448 0.0
C3955 C 0.91006 0.93123 0.58792 0.0
C3956 C 0.91561 0.92211 0.57349 0.0
C3957 C 0.92555 0.90726 0.57607 0.0
C3958 C 0.92968 0.90163 0.59295 0.0
C3959 C 0.9239 0.91121 0.60731 0.0
H3960 H 0.41212 0.01741 0.0986 0.0
H3961 H 0.36679 0.02765 0.12982 0.0
H3962 H 0.36427 0.05643 0.11663 0.0
H3963 H 0.43007 0.0599 0.10172 0.0
H3964 H 0.43813 0.05999 0.07993 0.0
H3965 H 0.43603 0.03993 0.09142 0.0
H3966 H 0.41693 0.02782 0.06682 0.0
H3967 H 0.4189 0.04788 0.05528 0.0
H3968 H 0.39786 0.03944 0.06038 0.0
H3969 H 0.36691 0.08419 0.10056 0.0
H3970 H 0.37489 0.10947 0.08305 0.0
H3971 H 0.41883 0.08141 0.06261 0.0
C3972 C 0.40173 0.02571 0.1028 0.0
C3973 C 0.38961 0.02018 0.11525 0.0
C3974 C 0.37608 0.03144 0.12014 0.0
C3975 C 0.37458 0.04786 0.11278 0.0
C3976 C 0.38672 0.05285 0.10054 0.0
C3977 C 0.40005 0.04215 0.0956 0.0
C3978 C 0.41155 0.05077 0.08238 0.0
C3979 C 0.43003 0.05277 0.08928 0.0
C3980 C 0.41129 0.04088 0.0652 0.0
C3981 C 0.40263 0.06806 0.08077 0.0
C3982 C 0.3883 0.06894 0.0913 0.0
C3983 C 0.37808 0.08366 0.09223 0.0
C3984 C 0.38273 0.09795 0.08222 0.0
C3985 C 0.39748 0.09741 0.07146 0.0
C3986 C 0.40745 0.08219 0.07066 0.0
H3987 H 0.41136 0.91917 0.92709 0.0
H3988 H 0.36033 0.89828 0.91737 0.0
H3989 H 0.35244 0.92481 0.90174 0.0
H3990 H 0.39791 0.96339 0.9337 0.0
H3991 H 0.41653 0.97233 0.92305 0.0
H3992 H 0.41807 0.95183 0.93386 0.0
H3993 H 0.42919 0.93777 0.90565 0.0
H3994 H 0.42763 0.95823 0.89479 0.0
H3995 H 0.41659 0.93968 0.88621 0.0
H3996 H 0.35038 0.95318 0.88628 0.0
H3997 H 0.35427 0.98183 0.87272 0.0
H3998 H 0.40647 0.98397 0.89263 0.0
C3999 C 0.39849 0.92022 0.92178 0.0
C4000 C 0.38645 0.90667 0.92347 0.0
C4001 C 0.36977 0.9085 0.91625 0.0
C4002 C 0.36515 0.92352 0.90735 0.0
C4003 C 0.37735 0.93658 0.9058 0.0
C4004 C 0.39366 0.93511 0.91285 0.0
C4005 C 0.40442 0.95095 0.90914 0.0
C4006 C 0.40952 0.96017 0.92594 0.0
C4007 C 0.4204 0.94637 0.8983 0.0
C4008 C 0.39162 0.96149 0.89886 0.0
C4009 C 0.37609 0.95299 0.89705 0.0
C4010 C 0.36245 0.96002 0.88769 0.0
C4011 C 0.36478 0.97622 0.87998 0.0
C4012 C 0.38056 0.98517 0.88179 0.0
C4013 C 0.39411 0.97763 0.89136 0.0
H4014 H 0.01214 0.41113 0.89441 0.0
H4015 H -0.00013 0.35769 0.90576 0.0
H4016 H 0.02729 0.35468 0.92132 0.0
H4017 H 0.05648 0.40538 0.88713 0.0
H4018 H 0.0631 0.42518 0.89734 0.0
H4019 H 0.04201 0.42356 0.88779 0.0
H4020 H 0.02803 0.43233 0.91682 0.0
H4021 H 0.0491 0.43406 0.92646 0.0
H4022 H 0.03305 0.42027 0.93605 0.0
H4023 H 0.05688 0.35662 0.93358 0.0
H4024 H 0.08635 0.36394 0.94312 0.0
H4025 H 0.079 0.41651 0.92541 0.0
C4026 C 0.01503 0.39889 0.90042 0.0
C4027 C 0.00382 0.38461 0.89866 0.0
C4028 C 0.00831 0.36874 0.90658 0.0
C4029 C 0.02383 0.36693 0.91559 0.0
C4030 C 0.03469 0.38114 0.9168 0.0
C4031 C 0.03046 0.39688 0.9096 0.0
C4032 C 0.0447 0.40996 0.91243 0.0
C4033 C 0.052 0.41639 0.89515 0.0
C4034 C 0.03834 0.42505 0.92361 0.0
C4035 C 0.0577 0.39899 0.92204 0.0
C4036 C 0.05165 0.38241 0.92441 0.0
C4037 C 0.06169 0.36962 0.93204 0.0
C4038 C 0.07842 0.37388 0.93735 0.0
C4039 C 0.08486 0.3908 0.93514 0.0
C4040 C 0.07428 0.40354 0.92753 0.0
H4041 H 0.58492 0.01026 0.89515 0.0
H4042 H 0.61711 0.01959 0.85019 0.0
H4043 H 0.62225 0.04915 0.86012 0.0
H4044 H 0.56507 0.05275 0.8952 0.0
H4045 H 0.56426 0.05389 0.91839 0.0
H4046 H 0.5631 0.03328 0.90775 0.0
H4047 H 0.58919 0.02263 0.92572 0.0
H4048 H 0.59054 0.04327 0.93627 0.0
H4049 H 0.60907 0.03465 0.92521 0.0
H4050 H 0.62485 0.07737 0.87524 0.0
H4051 H 0.62283 0.10328 0.89351 0.0
H4052 H 0.58787 0.07626 0.92791 0.0
C4053 C 0.59291 0.01844 0.8872 0.0
C4054 C 0.60079 0.01224 0.87193 0.0
C4055 C 0.61119 0.02366 0.86211 0.0
C4056 C 0.61414 0.04061 0.86759 0.0
C4057 C 0.60644 0.0461 0.88281 0.0
C4058 C 0.59585 0.03547 0.89237 0.0
C4059 C 0.58892 0.04473 0.90812 0.0
C4060 C 0.56917 0.04625 0.90731 0.0
C4061 C 0.59479 0.03579 0.92482 0.0
C4062 C 0.59747 0.06216 0.906 0.0
C4063 C 0.60757 0.06262 0.89134 0.0
C4064 C 0.61692 0.07722 0.88671 0.0
C4065 C 0.61573 0.09185 0.89722 0.0
C4066 C 0.6052 0.09181 0.91214 0.0
C4067 C 0.59604 0.07669 0.9166 0.0
H4068 H 0.90171 0.6119 0.90503 0.0
H4069 H 0.91264 0.57979 0.94956 0.0
H4070 H 0.94355 0.58003 0.94212 0.0
H4071 H 0.93023 0.59129 0.8769 0.0
H4072 H 0.93685 0.61057 0.86574 0.0
H4073 H 0.91587 0.60952 0.87556 0.0
H4074 H 0.92262 0.63704 0.89328 0.0
H4075 H 0.94363 0.63822 0.88345 0.0
H4076 H 0.94165 0.63769 0.9066 0.0
H4077 H 0.97276 0.58196 0.9288 0.0
H4078 H 0.99841 0.58537 0.91041 0.0
H4079 H 0.96838 0.61556 0.87411 0.0
C4080 C 0.91065 0.6052 0.9134 0.0
C4081 C 0.90481 0.59589 0.9279 0.0
C4082 C 0.91686 0.58703 0.93838 0.0
C4083 C 0.93444 0.58713 0.9343 0.0
C4084 C 0.93974 0.59617 0.91973 0.0
C4085 C 0.92823 0.60509 0.90946 0.0
C4086 C 0.93712 0.61282 0.8939 0.0
C4087 C 0.92957 0.60561 0.87703 0.0
C4088 C 0.9362 0.63262 0.89434 0.0
C4089 C 0.95535 0.60652 0.89684 0.0
C4090 C 0.9566 0.59709 0.9119 0.0
C4091 C 0.97197 0.5894 0.91702 0.0
C4092 C 0.98644 0.59128 0.9064 0.0
C4093 C 0.98541 0.60067 0.89075 0.0
C4094 C 0.96966 0.60853 0.88608 0.0
H4095 H 0.58698 0.98876 0.09425 0.0
H4096 H 0.62417 0.97413 0.13349 0.0
H4097 H 0.62427 0.94451 0.12241 0.0
H4098 H 0.5627 0.94776 0.09557 0.0
H4099 H 0.55871 0.94777 0.07268 0.0
H4100 H 0.5609 0.9679 0.08409 0.0
H4101 H 0.58522 0.97705 0.06309 0.0
H4102 H 0.58322 0.95688 0.05175 0.0
H4103 H 0.60378 0.9633 0.06045 0.0
H4104 H 0.62212 0.91735 0.10641 0.0
H4105 H 0.61629 0.89286 0.08733 0.0
H4106 H 0.57935 0.92376 0.05868 0.0
C4107 C 0.59492 0.97927 0.10068 0.0
C4108 C 0.60577 0.98391 0.11463 0.0
C4109 C 0.61606 0.97107 0.12257 0.0
C4110 C 0.61612 0.95414 0.11645 0.0
C4111 C 0.60564 0.95011 0.10248 0.0
C4112 C 0.59505 0.96216 0.09479 0.0
C4113 C 0.58524 0.95425 0.07978 0.0
C4114 C 0.56573 0.95443 0.08324 0.0
C4115 C 0.58963 0.96342 0.06276 0.0
C4116 C 0.59232 0.93601 0.08009 0.0
C4117 C 0.60405 0.93402 0.09335 0.0
C4118 C 0.61283 0.91865 0.09608 0.0
C4119 C 0.60946 0.90483 0.08507 0.0
C4120 C 0.59734 0.90636 0.07149 0.0
C4121 C 0.58863 0.92219 0.06898 0.0
H4122 H 0.09508 0.61083 0.08964 0.0
H4123 H 0.08745 0.5698 0.0523 0.0
H4124 H 0.057 0.56742 0.06122 0.0
H4125 H 0.06812 0.59271 0.12281 0.0
H4126 H 0.05992 0.61331 0.12976 0.0
H4127 H 0.0811 0.61183 0.12038 0.0
H4128 H 0.07261 0.63465 0.09749 0.0
H4129 H 0.0514 0.63617 0.10677 0.0
H4130 H 0.05386 0.63109 0.08423 0.0
H4131 H 0.02736 0.56971 0.07395 0.0
H4132 H 0.00067 0.57628 0.08968 0.0
H4133 H 0.02784 0.61529 0.11935 0.0
C4134 C 0.08701 0.60136 0.0833 0.0
C4135 C 0.09364 0.59053 0.07024 0.0
C4136 C 0.08266 0.57824 0.06234 0.0
C4137 C 0.06535 0.57679 0.06731 0.0
C4138 C 0.05923 0.58767 0.08022 0.0
C4139 C 0.06972 0.59969 0.08814 0.0
C4140 C 0.05997 0.60974 0.10175 0.0
C4141 C 0.06774 0.60671 0.11974 0.0
C4142 C 0.05943 0.62906 0.09728 0.0
C4143 C 0.04232 0.60157 0.10016 0.0
C4144 C 0.04218 0.58887 0.08768 0.0
C4145 C 0.02734 0.57958 0.08382 0.0
C4146 C 0.01222 0.58336 0.09295 0.0
C4147 C 0.01202 0.5963 0.1059 0.0
C4148 C 0.02738 0.60547 0.10946 0.0
H4149 H 0.98774 0.41748 0.10251 0.0
H4150 H 0.99675 0.36228 0.10435 0.0
H4151 H 0.97006 0.35746 0.08766 0.0
H4152 H 0.94311 0.41594 0.10822 0.0
H4153 H 0.93837 0.43351 0.09377 0.0
H4154 H 0.95884 0.43267 0.10463 0.0
H4155 H 0.97462 0.43428 0.07526 0.0
H4156 H 0.95418 0.43513 0.06425 0.0
H4157 H 0.96967 0.41873 0.05871 0.0
H4158 H 0.94151 0.35856 0.07276 0.0
H4159 H 0.91275 0.36541 0.06103 0.0
H4160 H 0.9228 0.41999 0.0681 0.0
C4161 C 0.98436 0.40439 0.09908 0.0
C4162 C 0.99441 0.39024 0.10468 0.0
C4163 C 0.98919 0.37329 0.10033 0.0
C4164 C 0.97414 0.37045 0.09073 0.0
C4165 C 0.96451 0.38469 0.08552 0.0
C4166 C 0.96942 0.40133 0.08951 0.0
C4167 C 0.95628 0.41435 0.08322 0.0
C4168 C 0.94871 0.42472 0.09836 0.0
C4169 C 0.96416 0.42633 0.06954 0.0
C4170 C 0.94302 0.40239 0.07537 0.0
C4171 C 0.94808 0.38534 0.07673 0.0
C4172 C 0.9375 0.37186 0.07141 0.0
C4173 C 0.92119 0.37587 0.06479 0.0
C4174 C 0.91565 0.39322 0.06352 0.0
C4175 C 0.92685 0.40664 0.06859 0.0
H4176 H 0.56661 0.92368 0.58181 0.0
H4177 H 0.58782 0.87874 0.60766 0.0
H4178 H 0.60044 0.86888 0.58035 0.0
H4179 H 0.55614 0.90232 0.54157 0.0
H4180 H 0.56228 0.9204 0.52833 0.0
H4181 H 0.55444 0.92395 0.5499 0.0
H4182 H 0.58224 0.94094 0.55731 0.0
H4183 H 0.59015 0.93747 0.53576 0.0
H4184 H 0.60295 0.93092 0.554 0.0
H4185 H 0.61132 0.86398 0.55066 0.0
H4186 H 0.62066 0.86498 0.52037 0.0
H4187 H 0.59198 0.9126 0.51331 0.0
C4188 C 0.57387 0.91176 0.58168 0.0
C4189 C 0.57619 0.90199 0.59688 0.0
C4190 C 0.58585 0.88648 0.59621 0.0
C4191 C 0.59306 0.88071 0.58074 0.0
C4192 C 0.59052 0.89057 0.566 0.0
C4193 C 0.58123 0.90579 0.56629 0.0
C4194 C 0.58086 0.91408 0.54861 0.0
C4195 C 0.56232 0.91525 0.5417 0.0
C4196 C 0.58957 0.93191 0.54895 0.0
C4197 C 0.59144 0.90117 0.53846 0.0
C4198 C 0.59682 0.88769 0.54874 0.0
C4199 C 0.6071 0.87441 0.54241 0.0
C4200 C 0.61225 0.87503 0.52511 0.0
C4201 C 0.60712 0.88886 0.51432 0.0
C4202 C 0.59635 0.90193 0.52115 0.0
H4203 H 0.11515 0.6243 0.52175 0.0
H4204 H 0.08523 0.58726 0.49237 0.0
H4205 H 0.08434 0.56795 0.51757 0.0
H4206 H 0.14066 0.59259 0.54578 0.0
H4207 H 0.14048 0.60524 0.56528 0.0
H4208 H 0.13952 0.61578 0.5446 0.0
H4209 H 0.11143 0.63136 0.55381 0.0
H4210 H 0.11229 0.62086 0.57448 0.0
H4211 H 0.09333 0.6188 0.56121 0.0
H4212 H 0.08526 0.55343 0.54637 0.0
H4213 H 0.08808 0.54466 0.57685 0.0
H4214 H 0.11805 0.59078 0.58725 0.0
C4215 C 0.10866 0.61201 0.52053 0.0
C4216 C 0.10018 0.60736 0.50511 0.0
C4217 C 0.09157 0.59126 0.50412 0.0
C4218 C 0.09112 0.58012 0.51833 0.0
C4219 C 0.09943 0.5852 0.53339 0.0
C4220 C 0.1081 0.60072 0.53458 0.0
C4221 C 0.1154 0.6034 0.55248 0.0
C4222 C 0.13519 0.6043 0.552 0.0
C4223 C 0.10764 0.61956 0.56099 0.0
C4224 C 0.10925 0.58708 0.56123 0.0
C4225 C 0.10013 0.57672 0.54997 0.0
C4226 C 0.09253 0.56133 0.55528 0.0
C4227 C 0.09417 0.55648 0.57261 0.0
C4228 C 0.10336 0.56699 0.58439 0.0
C4229 C 0.11113 0.58237 0.57851 0.0
H4230 H 0.40407 0.11733 0.5937 0.0
H4231 H 0.44768 0.08362 0.58389 0.0
H4232 H 0.43952 0.08203 0.5532 0.0
H4233 H 0.37479 0.09547 0.56604 0.0
H4234 H 0.36407 0.11478 0.55882 0.0
H4235 H 0.3739 0.11416 0.57983 0.0
H4236 H 0.39214 0.14109 0.57216 0.0
H4237 H 0.38238 0.14178 0.5511 0.0
H4238 H 0.4055 0.14081 0.55315 0.0
H4239 H 0.42647 0.08352 0.52402 0.0
H4240 H 0.40863 0.08703 0.49805 0.0
H4241 H 0.37283 0.11899 0.52683 0.0
C4242 C 0.412 0.10977 0.58506 0.0
C4243 C 0.42655 0.10067 0.59112 0.0
C4244 C 0.43647 0.09069 0.57949 0.0
C4245 C 0.43199 0.08976 0.56204 0.0
C4246 C 0.41753 0.09882 0.55649 0.0
C4247 C 0.40763 0.10858 0.56762 0.0
C4248 C 0.39226 0.11639 0.55846 0.0
C4249 C 0.37525 0.1098 0.56625 0.0
C4250 C 0.39313 0.13619 0.55874 0.0
C4251 C 0.39504 0.10941 0.54046 0.0
C4252 C 0.40976 0.09941 0.53962 0.0
C4253 C 0.41489 0.09129 0.5245 0.0
C4254 C 0.40458 0.09325 0.50985 0.0
C4255 C 0.38922 0.10315 0.51046 0.0
C4256 C 0.38456 0.1115 0.52594 0.0
H4257 H 0.91683 0.39745 0.51514 0.0
H4258 H 0.86129 0.39284 0.51043 0.0
H4259 H 0.85777 0.40836 0.53803 0.0
H4260 H 0.91927 0.38994 0.55919 0.0
H4261 H 0.93636 0.40515 0.56325 0.0
H4262 H 0.93445 0.39519 0.5424 0.0
H4263 H 0.93314 0.42528 0.52797 0.0
H4264 H 0.93512 0.43538 0.5488 0.0
H4265 H 0.91721 0.44069 0.53498 0.0
H4266 H 0.86043 0.42199 0.56716 0.0
H4267 H 0.86902 0.43302 0.59575 0.0
H4268 H 0.92285 0.42951 0.58096 0.0
C4269 C 0.9039 0.4001 0.51962 0.0
C4270 C 0.88931 0.39402 0.51055 0.0
C4271 C 0.87263 0.3973 0.51721 0.0
C4272 C 0.87051 0.4062 0.5328 0.0
C4273 C 0.8852 0.4118 0.5415 0.0
C4274 C 0.90157 0.40897 0.53511 0.0
C4275 C 0.91527 0.41538 0.54745 0.0
C4276 C 0.92702 0.40053 0.55342 0.0
C4277 C 0.9258 0.43006 0.53931 0.0
C4278 C 0.90404 0.42193 0.56199 0.0
C4279 C 0.88674 0.41985 0.55825 0.0
C4280 C 0.87392 0.42393 0.57014 0.0
C4281 C 0.87893 0.43013 0.58635 0.0
C4282 C 0.89658 0.43223 0.59048 0.0
C4283 C 0.90925 0.42833 0.57802 0.0
H4284 H 0.58188 0.10818 0.4054 0.0
H4285 H 0.56562 0.05463 0.40703 0.0
H4286 H 0.5798 0.05123 0.43533 0.0
H4287 H 0.62338 0.10223 0.4253 0.0
H4288 H 0.62237 0.12209 0.43733 0.0
H4289 H 0.61123 0.12024 0.41704 0.0
H4290 H 0.58256 0.12889 0.43185 0.0
H4291 H 0.59362 0.13084 0.45217 0.0
H4292 H 0.57516 0.11685 0.45031 0.0
H4293 H 0.59593 0.05361 0.46331 0.0
H4294 H 0.61169 0.06194 0.48956 0.0
H4295 H 0.6165 0.11421 0.4701 0.0
C4296 C 0.58134 0.09572 0.41168 0.0
C4297 C 0.57268 0.08166 0.40401 0.0
C4298 C 0.57215 0.0656 0.4127 0.0
C4299 C 0.58021 0.06352 0.42874 0.0
C4300 C 0.58866 0.07764 0.43593 0.0
C4301 C 0.58919 0.09345 0.42774 0.0
C4302 C 0.59874 0.10668 0.43845 0.0
C4303 C 0.61489 0.11319 0.42896 0.0
C4304 C 0.58681 0.1217 0.44349 0.0
C4305 C 0.6035 0.09584 0.45395 0.0
C4306 C 0.59764 0.07911 0.4522 0.0
C4307 C 0.60047 0.06671 0.46487 0.0
C4308 C 0.60937 0.07161 0.47981 0.0
C4309 C 0.61526 0.08879 0.48204 0.0
C4310 C 0.61234 0.10096 0.4688 0.0
H4311 H 0.87999 0.59044 0.41001 0.0
H4312 H 0.91056 0.54485 0.42084 0.0
H4313 H 0.91093 0.55252 0.45179 0.0
H4314 H 0.90261 0.61779 0.43805 0.0
H4315 H 0.88403 0.63009 0.44463 0.0
H4316 H 0.88442 0.61998 0.42376 0.0
H4317 H 0.85598 0.60394 0.43087 0.0
H4318 H 0.85549 0.61402 0.4518 0.0
H4319 H 0.85471 0.59086 0.45004 0.0
H4320 H 0.9091 0.56578 0.48109 0.0
H4321 H 0.90678 0.58447 0.50658 0.0
H4322 H 0.87889 0.62241 0.4763 0.0
C4323 C 0.88646 0.58188 0.41896 0.0
C4324 C 0.89508 0.56695 0.41314 0.0
C4325 C 0.90381 0.55631 0.42511 0.0
C4326 C 0.90402 0.56052 0.44269 0.0
C4327 C 0.89556 0.57546 0.44798 0.0
C4328 C 0.88702 0.58603 0.43647 0.0
C4329 C 0.88021 0.60209 0.44525 0.0
C4330 C 0.88831 0.61845 0.43746 0.0
C4331 C 0.86042 0.60276 0.44444 0.0
C4332 C 0.88646 0.59901 0.46346 0.0
C4333 C 0.89507 0.58347 0.46479 0.0
C4334 C 0.9024 0.57799 0.48021 0.0
C4335 C 0.90114 0.58881 0.49459 0.0
C4336 C 0.89283 0.60506 0.49344 0.0
C4337 C 0.88517 0.61003 0.47768 0.0
H4338 H 0.42456 0.91396 0.4226 0.0
H4339 H 0.4212 0.85925 0.41118 0.0
H4340 H 0.40981 0.85388 0.44039 0.0
H4341 H 0.43748 0.90955 0.46731 0.0
H4342 H 0.42483 0.9277 0.4744 0.0
H4343 H 0.43322 0.92716 0.45276 0.0
H4344 H 0.40237 0.93144 0.44072 0.0
H4345 H 0.39383 0.93183 0.46231 0.0
H4346 H 0.38557 0.9166 0.44682 0.0
H4347 H 0.39824 0.85446 0.47042 0.0
H4348 H 0.38755 0.86087 0.49962 0.0
H4349 H 0.39859 0.91519 0.49168 0.0
C4350 C 0.4216 0.90083 0.4263 0.0
C4351 C 0.42383 0.887 0.41464 0.0
C4352 C 0.41961 0.87003 0.4199 0.0
C4353 C 0.41313 0.86685 0.43646 0.0
C4354 C 0.41091 0.88077 0.44757 0.0
C4355 C 0.41504 0.89742 0.44275 0.0
C4356 C 0.41112 0.91011 0.45708 0.0
C4357 C 0.42765 0.91916 0.46325 0.0
C4358 C 0.39741 0.92327 0.45139 0.0
C4359 C 0.40414 0.89796 0.47069 0.0
C4360 C 0.40415 0.88112 0.46492 0.0
C4361 C 0.39826 0.86759 0.47514 0.0
C4362 C 0.3923 0.87136 0.49176 0.0
C4363 C 0.39227 0.88852 0.49805 0.0
C4364 C 0.39825 0.90196 0.48726 0.0
H4365 H 0.1065 0.36807 0.46904 0.0
H4366 H 0.07828 0.40531 0.50012 0.0
H4367 H 0.06991 0.42072 0.47397 0.0
H4368 H 0.12334 0.39893 0.43922 0.0
H4369 H 0.12169 0.38476 0.42087 0.0
H4370 H 0.12482 0.37591 0.4421 0.0
H4371 H 0.09746 0.35712 0.43829 0.0
H4372 H 0.09418 0.366 0.41708 0.0
H4373 H 0.07726 0.3673 0.43295 0.0
H4374 H 0.06469 0.43258 0.44459 0.0
H4375 H 0.06462 0.44097 0.41394 0.0
H4376 H 0.09705 0.39693 0.40188 0.0
C4377 C 0.09862 0.37946 0.4705 0.0
C4378 C 0.093 0.38517 0.48691 0.0
C4379 C 0.08262 0.40024 0.48791 0.0
C4380 C 0.07777 0.40923 0.47304 0.0
C4381 C 0.08345 0.40316 0.45718 0.0
C4382 C 0.09376 0.38871 0.45579 0.0
C4383 C 0.09864 0.38532 0.43718 0.0
C4384 C 0.11829 0.38629 0.4347 0.0
C4385 C 0.09145 0.3679 0.43101 0.0
C4386 C 0.08958 0.40023 0.42839 0.0
C4387 C 0.08076 0.41025 0.44017 0.0
C4388 C 0.07154 0.42484 0.43522 0.0
C4389 C 0.07156 0.42948 0.41777 0.0
C4390 C 0.08085 0.41963 0.40551 0.0
C4391 C 0.08981 0.40471 0.41093 0.0
H4392 H 0.57535 0.56562 0.91438 0.0
H4393 H 0.60546 0.5938 0.87646 0.0
H4394 H 0.58061 0.61243 0.87043 0.0
H4395 H 0.53554 0.56641 0.89073 0.0
H4396 H 0.52216 0.56931 0.9095 0.0
H4397 H 0.54249 0.55826 0.91136 0.0
H4398 H 0.55205 0.57973 0.93511 0.0
H4399 H 0.53174 0.59085 0.93331 0.0
H4400 H 0.55165 0.60255 0.93071 0.0
H4401 H 0.55287 0.62788 0.86809 0.0
H4402 H 0.52333 0.6393 0.86953 0.0
H4403 H 0.51052 0.60096 0.90831 0.0
C4404 C 0.5767 0.57575 0.90487 0.0
C4405 C 0.59236 0.57823 0.8959 0.0
C4406 C 0.59361 0.5916 0.8835 0.0
C4407 C 0.57957 0.6023 0.87997 0.0
C4408 C 0.56432 0.5995 0.88893 0.0
C4409 C 0.56273 0.58659 0.90111 0.0
C4410 C 0.54469 0.58629 0.90864 0.0
C4411 C 0.53569 0.56904 0.90482 0.0
C4412 C 0.54506 0.59009 0.9281 0.0
C4413 C 0.53648 0.60099 0.89868 0.0
C4414 C 0.54809 0.60843 0.88745 0.0
C4415 C 0.5436 0.62215 0.8768 0.0
C4416 C 0.52673 0.62847 0.87763 0.0
C4417 C 0.5145 0.62102 0.88896 0.0
C4418 C 0.51955 0.6071 0.89964 0.0
H4419 H 0.37759 0.52418 0.88558 0.0
H4420 H 0.41543 0.49453 0.91426 0.0
H4421 H 0.43433 0.51997 0.91563 0.0
H4422 H 0.40899 0.54945 0.86041 0.0
H4423 H 0.39596 0.56868 0.86118 0.0
H4424 H 0.38585 0.54776 0.8615 0.0
H4425 H 0.37007 0.55581 0.88984 0.0
H4426 H 0.38016 0.57669 0.88964 0.0
H4427 H 0.38248 0.56288 0.90818 0.0
H4428 H 0.44804 0.54913 0.91598 0.0
H4429 H 0.45596 0.57995 0.91451 0.0
H4430 H 0.40984 0.59029 0.88453 0.0
C4431 C 0.38999 0.52291 0.89184 0.0
C4432 C 0.39492 0.50735 0.89992 0.0
C4433 C 0.41117 0.50637 0.90824 0.0
C4434 C 0.42209 0.52072 0.90896 0.0
C4435 C 0.41669 0.53592 0.90113 0.0
C4436 C 0.4011 0.53709 0.8926 0.0
C4437 C 0.39805 0.55515 0.88586 0.0
C4438 C 0.39717 0.55526 0.86606 0.0
C4439 C 0.38173 0.56309 0.89387 0.0
C4440 C 0.4142 0.56403 0.89229 0.0
C4441 C 0.42481 0.55269 0.901 0.0
C4442 C 0.43997 0.5581 0.90897 0.0
C4443 C 0.44433 0.57561 0.90811 0.0
C4444 C 0.43358 0.58745 0.8993 0.0
C4445 C 0.41845 0.58149 0.89112 0.0
H4446 H 0.48739 0.39635 0.91005 0.0
H4447 H 0.48421 0.38456 0.85549 0.0
H4448 H 0.45675 0.40069 0.85372 0.0
H4449 H 0.44404 0.38976 0.91899 0.0
H4450 H 0.44212 0.4068 0.93468 0.0
H4451 H 0.4626 0.39652 0.93123 0.0
H4452 H 0.47662 0.42608 0.92479 0.0
H4453 H 0.45618 0.43655 0.92831 0.0
H4454 H 0.46756 0.43974 0.9083 0.0
H4455 H 0.4288 0.41568 0.85837 0.0
H4456 H 0.40167 0.42817 0.86897 0.0
H4457 H 0.42252 0.42976 0.92091 0.0
C4458 C 0.48119 0.39756 0.89762 0.0
C4459 C 0.48801 0.38935 0.88282 0.0
C4460 C 0.4792 0.39079 0.86693 0.0
C4461 C 0.46367 0.39997 0.86581 0.0
C4462 C 0.45712 0.40757 0.88073 0.0
C4463 C 0.46559 0.40648 0.89635 0.0
C4464 C 0.45505 0.41449 0.91075 0.0
C4465 C 0.45069 0.40109 0.92472 0.0
C4466 C 0.46441 0.43015 0.91849 0.0
C4467 C 0.43913 0.41994 0.90084 0.0
C4468 C 0.44073 0.41599 0.88352 0.0
C4469 C 0.42746 0.41899 0.87186 0.0
C4470 C 0.41206 0.42604 0.87805 0.0
C4471 C 0.40997 0.42997 0.89578 0.0
C4472 C 0.42381 0.42708 0.90727 0.0
H4473 H 0.56197 0.41543 0.91784 0.0
H4474 H 0.57636 0.3948 0.86778 0.0
H4475 H 0.59218 0.42144 0.86129 0.0
H4476 H 0.55554 0.45928 0.90376 0.0
H4477 H 0.56447 0.46882 0.92298 0.0
H4478 H 0.55436 0.44794 0.92402 0.0
H4479 H 0.58219 0.43509 0.93729 0.0
H4480 H 0.59243 0.45592 0.93619 0.0
H4481 H 0.60237 0.43753 0.92605 0.0
H4482 H 0.60627 0.44972 0.85982 0.0
H4483 H 0.61705 0.47934 0.86289 0.0
H4484 H 0.59374 0.48277 0.91364 0.0
C4485 C 0.56839 0.41659 0.9055 0.0
C4486 C 0.56791 0.40301 0.89331 0.0
C4487 C 0.57655 0.40497 0.87734 0.0
C4488 C 0.58562 0.42005 0.87353 0.0
C4489 C 0.586 0.43309 0.88581 0.0
C4490 C 0.5776 0.43164 0.90145 0.0
C4491 C 0.57999 0.44785 0.91217 0.0
C4492 C 0.56255 0.45648 0.91595 0.0
C4493 C 0.58983 0.44386 0.92892 0.0
C4494 C 0.59083 0.45867 0.89996 0.0
C4495 C 0.5942 0.44975 0.88491 0.0
C4496 C 0.60368 0.4569 0.8715 0.0
C4497 C 0.60966 0.47379 0.87333 0.0
C4498 C 0.60609 0.48346 0.88841 0.0
C4499 C 0.59677 0.47566 0.90203 0.0
H4500 H 0.58378 0.41501 0.118 0.0
H4501 H 0.57468 0.45423 0.07912 0.0
H4502 H 0.54375 0.44651 0.07872 0.0
H4503 H 0.55661 0.38383 0.10008 0.0
H4504 H 0.54916 0.37548 0.12044 0.0
H4505 H 0.57009 0.38533 0.11895 0.0
H4506 H 0.56186 0.4067 0.1433 0.0
H4507 H 0.54086 0.39691 0.14486 0.0
H4508 H 0.54276 0.41976 0.1411 0.0
H4509 H 0.51427 0.43313 0.0812 0.0
H4510 H 0.48876 0.41468 0.08569 0.0
H4511 H 0.51755 0.38383 0.12241 0.0
C4512 C 0.57526 0.4222 0.1096 0.0
C4513 C 0.58162 0.43529 0.09866 0.0
C4514 C 0.57007 0.44419 0.08766 0.0
C4515 C 0.55249 0.43993 0.08738 0.0
C4516 C 0.54669 0.42679 0.0982 0.0
C4517 C 0.55775 0.41806 0.1091 0.0
C4518 C 0.54857 0.40368 0.11857 0.0
C4519 C 0.55658 0.38604 0.11424 0.0
C4520 C 0.54851 0.40697 0.13812 0.0
C4521 C 0.53068 0.40543 0.11104 0.0
C4522 C 0.5298 0.41895 0.09946 0.0
C4523 C 0.51479 0.42258 0.09031 0.0
C4524 C 0.5004 0.41195 0.09287 0.0
C4525 C 0.50114 0.39777 0.10438 0.0
C4526 C 0.51644 0.39472 0.11376 0.0
H4527 H 0.57346 0.58029 0.07983 0.0
H4528 H 0.59865 0.60717 0.12202 0.0
H4529 H 0.614 0.58058 0.12987 0.0
H4530 H 0.56751 0.54011 0.10218 0.0
H4531 H 0.57177 0.52693 0.08352 0.0
H4532 H 0.56285 0.54821 0.0809 0.0
H4533 H 0.58807 0.55633 0.06054 0.0
H4534 H 0.59708 0.53508 0.06312 0.0
H4535 H 0.60996 0.55381 0.06792 0.0
H4536 H 0.62659 0.55136 0.13337 0.0
H4537 H 0.63556 0.52093 0.13238 0.0
H4538 H 0.60185 0.51256 0.08845 0.0
C4539 C 0.58222 0.58056 0.0907 0.0
C4540 C 0.58484 0.59582 0.1003 0.0
C4541 C 0.5964 0.59566 0.11446 0.0
C4542 C 0.60521 0.58061 0.11904 0.0
C4543 C 0.60235 0.56581 0.10935 0.0
C4544 C 0.59114 0.56561 0.09549 0.0
C4545 C 0.59033 0.54784 0.08739 0.0
C4546 C 0.57203 0.54033 0.08858 0.0
C4547 C 0.59674 0.5483 0.06863 0.0
C4548 C 0.60278 0.53815 0.09894 0.0
C4549 C 0.60958 0.5488 0.11147 0.0
C4550 C 0.62132 0.54285 0.12366 0.0
C4551 C 0.62625 0.52549 0.12306 0.0
C4552 C 0.61941 0.51425 0.11039 0.0
C4553 C 0.60752 0.52078 0.09818 0.0
H4554 H 0.42848 0.5688 0.081 0.0
H4555 H 0.42475 0.55407 0.13485 0.0
H4556 H 0.45405 0.56536 0.13994 0.0
H4557 H 0.47566 0.56066 0.07578 0.0
H4558 H 0.47836 0.57929 0.06215 0.0
H4559 H 0.45823 0.56768 0.06209 0.0
H4560 H 0.44197 0.59593 0.06931 0.0
H4561 H 0.462 0.60759 0.06954 0.0
H4562 H 0.44809 0.60811 0.08814 0.0
H4563 H 0.48193 0.58105 0.14005 0.0
H4564 H 0.507 0.59994 0.13515 0.0
H4565 H 0.49274 0.60512 0.08134 0.0
C4566 C 0.43406 0.56746 0.09373 0.0
C4567 C 0.42445 0.5604 0.10752 0.0
C4568 C 0.43195 0.55934 0.12411 0.0
C4569 C 0.44859 0.56568 0.12711 0.0
C4570 C 0.45754 0.57302 0.11337 0.0
C4571 C 0.45061 0.57387 0.09698 0.0
C4572 C 0.46228 0.58385 0.08488 0.0
C4573 C 0.46904 0.57217 0.07037 0.0
C4574 C 0.45303 0.59981 0.07755 0.0
C4575 C 0.47661 0.58889 0.09717 0.0
C4576 C 0.47368 0.58233 0.11348 0.0
C4577 C 0.48449 0.58608 0.1273 0.0
C4578 C 0.4986 0.59694 0.12442 0.0
C4579 C 0.50178 0.60399 0.10788 0.0
C4580 C 0.49076 0.59967 0.09404 0.0
H4581 H 0.41536 0.41011 0.11844 0.0
H4582 H 0.42345 0.40425 0.06335 0.0
H4583 H 0.40983 0.43248 0.05833 0.0
H4584 H 0.37378 0.432 0.11564 0.0
H4585 H 0.37835 0.44621 0.13345 0.0
H4586 H 0.38789 0.42504 0.13275 0.0
H4587 H 0.41831 0.43857 0.13548 0.0
H4588 H 0.40888 0.45976 0.13621 0.0
H4589 H 0.42499 0.45478 0.12023 0.0
H4590 H 0.39658 0.46163 0.05923 0.0
H4591 H 0.38477 0.49032 0.06608 0.0
H4592 H 0.38547 0.47766 0.12057 0.0
C4593 C 0.41411 0.4147 0.10532 0.0
C4594 C 0.42047 0.40498 0.09129 0.0
C4595 C 0.41875 0.41149 0.07431 0.0
C4596 C 0.41096 0.42748 0.0713 0.0
C4597 C 0.40496 0.4368 0.08541 0.0
C4598 C 0.40643 0.43069 0.10208 0.0
C4599 C 0.39953 0.44364 0.11498 0.0
C4600 C 0.38396 0.43628 0.12478 0.0
C4601 C 0.41378 0.44953 0.12746 0.0
C4602 C 0.39418 0.45805 0.10294 0.0
C4603 C 0.39734 0.45376 0.08594 0.0
C4604 C 0.39399 0.46514 0.07248 0.0
C4605 C 0.3874 0.48143 0.07652 0.0
C4606 C 0.38428 0.48623 0.09387 0.0
C4607 C 0.38752 0.47426 0.1072 0.0
H4608 H 0.89089 0.59029 0.60177 0.0
H4609 H 0.90333 0.57624 0.54908 0.0
H4610 H 0.90119 0.54539 0.55682 0.0
H4611 H 0.91632 0.55797 0.621 0.0
H4612 H 0.90181 0.55407 0.63873 0.0
H4613 H 0.90237 0.57493 0.62861 0.0
H4614 H 0.86954 0.57303 0.62272 0.0
H4615 H 0.86888 0.55209 0.63278 0.0
H4616 H 0.86105 0.55479 0.61107 0.0
H4617 H 0.89899 0.51632 0.57049 0.0
H4618 H 0.89914 0.49089 0.58953 0.0
H4619 H 0.88969 0.52387 0.63372 0.0
C4620 C 0.89283 0.5807 0.5918 0.0
C4621 C 0.89707 0.58557 0.57479 0.0
C4622 C 0.90001 0.57272 0.56218 0.0
C4623 C 0.89873 0.5552 0.56643 0.0
C4624 C 0.89465 0.55081 0.58337 0.0
C4625 C 0.89188 0.56317 0.5959 0.0
C4626 C 0.88921 0.55502 0.61345 0.0
C4627 C 0.90327 0.56084 0.62619 0.0
C4628 C 0.87109 0.55897 0.62041 0.0
C4629 C 0.89109 0.53614 0.60887 0.0
C4630 C 0.89399 0.53401 0.59141 0.0
C4631 C 0.89672 0.51782 0.58417 0.0
C4632 C 0.89689 0.50347 0.59512 0.0
C4633 C 0.89455 0.50538 0.61315 0.0
C4634 C 0.89127 0.52194 0.62 0.0
H4635 H 0.882 0.47554 0.38566 0.0
H4636 H 0.93447 0.49476 0.38834 0.0
H4637 H 0.94254 0.47028 0.4069 0.0
H4638 H 0.87929 0.46041 0.42903 0.0
H4639 H 0.867 0.44143 0.42369 0.0
H4640 H 0.86528 0.46045 0.41049 0.0
H4641 H 0.87375 0.44271 0.38345 0.0
H4642 H 0.87529 0.42361 0.39654 0.0
H4643 H 0.89341 0.43031 0.38364 0.0
H4644 H 0.94484 0.44384 0.42558 0.0
H4645 H 0.94146 0.41639 0.44148 0.0
H4646 H 0.88768 0.41438 0.42615 0.0
C4647 C 0.89522 0.47449 0.38999 0.0
C4648 C 0.90753 0.48717 0.38568 0.0
C4649 C 0.9247 0.4854 0.39174 0.0
C4650 C 0.92945 0.4715 0.40224 0.0
C4651 C 0.91691 0.45942 0.40653 0.0
C4652 C 0.90019 0.46069 0.40048 0.0
C4653 C 0.88922 0.4459 0.40687 0.0
C4654 C 0.87432 0.45245 0.41819 0.0
C4655 C 0.88253 0.43499 0.39172 0.0
C4656 C 0.90239 0.43613 0.41744 0.0
C4657 C 0.91827 0.44416 0.41716 0.0
C4658 C 0.93246 0.43744 0.42592 0.0
C4659 C 0.9304 0.42191 0.43499 0.0
C4660 C 0.9143 0.41331 0.43509 0.0
C4661 C 0.90014 0.42067 0.42634 0.0
H4662 H 0.51736 0.87866 0.38589 0.0
H4663 H 0.49372 0.92712 0.40114 0.0
H4664 H 0.5194 0.93445 0.4179 0.0
H4665 H 0.53881 0.87015 0.42613 0.0
H4666 H 0.55789 0.86144 0.41614 0.0
H4667 H 0.53737 0.85967 0.40543 0.0
H4668 H 0.55004 0.8748 0.37845 0.0
H4669 H 0.5706 0.87658 0.38908 0.0
H4670 H 0.56017 0.8956 0.38074 0.0
H4671 H 0.54775 0.93697 0.43279 0.0
H4672 H 0.57715 0.93433 0.44466 0.0
H4673 H 0.58267 0.88455 0.41959 0.0
C4674 C 0.51756 0.89084 0.39266 0.0
C4675 C 0.50332 0.90221 0.39213 0.0
C4676 C 0.5042 0.91798 0.4014 0.0
C4677 C 0.51883 0.92236 0.41096 0.0
C4678 C 0.53257 0.91087 0.41119 0.0
C4679 C 0.5321 0.89545 0.40229 0.0
C4680 C 0.54875 0.88552 0.40457 0.0
C4681 C 0.5455 0.86817 0.41361 0.0
C4682 C 0.55793 0.88298 0.38717 0.0
C4683 C 0.5586 0.89781 0.4161 0.0
C4684 C 0.54901 0.91235 0.41977 0.0
C4685 C 0.5554 0.92562 0.43006 0.0
C4686 C 0.57209 0.92399 0.43676 0.0
C4687 C 0.58218 0.90922 0.4331 0.0
C4688 C 0.57527 0.89598 0.42266 0.0
H4689 H 0.09396 0.51982 0.37284 0.0
H4690 H 0.10295 0.49154 0.42007 0.0
H4691 H 0.09945 0.51849 0.43698 0.0
H4692 H 0.11822 0.55742 0.3855 0.0
H4693 H 0.10401 0.5723 0.3747 0.0
H4694 H 0.1064 0.55066 0.36666 0.0
H4695 H 0.07333 0.54626 0.36874 0.0
H4696 H 0.07086 0.56786 0.37693 0.0
H4697 H 0.06259 0.54983 0.38904 0.0
H4698 H 0.09348 0.54833 0.44857 0.0
H4699 H 0.08976 0.57965 0.45385 0.0
H4700 H 0.08756 0.58864 0.39873 0.0
C4701 C 0.0952 0.51944 0.38674 0.0
C4702 C 0.09866 0.50383 0.3953 0.0
C4703 C 0.10039 0.50356 0.41344 0.0
C4704 C 0.0983 0.51871 0.42308 0.0
C4705 C 0.09479 0.53397 0.41427 0.0
C4706 C 0.09358 0.5345 0.39648 0.0
C4707 C 0.09071 0.55269 0.39007 0.0
C4708 C 0.10573 0.55861 0.37856 0.0
C4709 C 0.07334 0.55424 0.38064 0.0
C4710 C 0.09047 0.56231 0.40702 0.0
C4711 C 0.09248 0.55125 0.42086 0.0
C4712 C 0.09207 0.55714 0.43784 0.0
C4713 C 0.08988 0.57486 0.44072 0.0
C4714 C 0.08855 0.58639 0.42666 0.0
C4715 C 0.08876 0.58002 0.40965 0.0
H4716 H 0.4814 0.12116 0.39198 0.0
H4717 H 0.50148 0.07151 0.40874 0.0
H4718 H 0.4767 0.06798 0.42776 0.0
H4719 H 0.46075 0.13342 0.43364 0.0
H4720 H 0.44256 0.14293 0.42275 0.0
H4721 H 0.46353 0.1432 0.41275 0.0
H4722 H 0.45078 0.12826 0.38571 0.0
H4723 H 0.42986 0.12782 0.39564 0.0
H4724 H 0.43951 0.10807 0.38812 0.0
H4725 H 0.44787 0.06753 0.44174 0.0
H4726 H 0.41729 0.07068 0.44985 0.0
H4727 H 0.41554 0.12015 0.42368 0.0
C4728 C 0.48088 0.10964 0.39978 0.0
C4729 C 0.49363 0.09664 0.39853 0.0
C4730 C 0.49219 0.08184 0.40925 0.0
C4731 C 0.47805 0.07965 0.42023 0.0
C4732 C 0.46545 0.09239 0.42055 0.0
C4733 C 0.46679 0.10717 0.41073 0.0
C4734 C 0.45067 0.11809 0.41212 0.0
C4735 C 0.45462 0.13544 0.42084 0.0
C4736 C 0.44221 0.1207 0.39435 0.0
C4737 C 0.43978 0.10672 0.42363 0.0
C4738 C 0.44866 0.0921 0.42861 0.0
C4739 C 0.44087 0.07907 0.4382 0.0
C4740 C 0.42348 0.08094 0.44267 0.0
C4741 C 0.41406 0.09568 0.43742 0.0
C4742 C 0.42245 0.10883 0.42805 0.0
H4743 H 0.09301 0.48211 0.60808 0.0
H4744 H 0.14826 0.49075 0.60728 0.0
H4745 H 0.15204 0.46485 0.58923 0.0
H4746 H 0.09485 0.43651 0.61129 0.0
H4747 H 0.07643 0.43276 0.59763 0.0
H4748 H 0.078 0.45246 0.60979 0.0
H4749 H 0.07462 0.47012 0.58164 0.0
H4750 H 0.07314 0.45044 0.56938 0.0
H4751 H 0.08919 0.46633 0.56393 0.0
H4752 H 0.15002 0.43756 0.57232 0.0
H4753 H 0.14244 0.40983 0.5587 0.0
H4754 H 0.08843 0.41905 0.57007 0.0
C4755 C 0.10587 0.47867 0.60391 0.0
C4756 C 0.12035 0.48846 0.60908 0.0
C4757 C 0.13701 0.48335 0.60365 0.0
C4758 C 0.13927 0.46874 0.59327 0.0
C4759 C 0.12474 0.4594 0.5884 0.0
C4760 C 0.10836 0.4641 0.59359 0.0
C4761 C 0.09499 0.45136 0.58721 0.0
C4762 C 0.08552 0.44276 0.60238 0.0
C4763 C 0.08224 0.46009 0.5748 0.0
C4764 C 0.10646 0.43866 0.57782 0.0
C4765 C 0.12356 0.44363 0.57856 0.0
C4766 C 0.13667 0.43359 0.57152 0.0
C4767 C 0.13224 0.41787 0.56381 0.0
C4768 C 0.11486 0.41235 0.56323 0.0
C4769 C 0.1018 0.42306 0.57006 0.0
H4770 H 0.51932 0.12712 0.61062 0.0
H4771 H 0.50045 0.07514 0.60127 0.0
H4772 H 0.52446 0.07 0.5815 0.0
H4773 H 0.53616 0.13532 0.56738 0.0
H4774 H 0.55489 0.14656 0.57529 0.0
H4775 H 0.53507 0.14705 0.58741 0.0
H4776 H 0.55106 0.13523 0.61428 0.0
H4777 H 0.5709 0.13482 0.60229 0.0
H4778 H 0.56316 0.11546 0.61256 0.0
H4779 H 0.55135 0.06954 0.56416 0.0
H4780 H 0.58041 0.0733 0.55193 0.0
H4781 H 0.58261 0.12506 0.57324 0.0
C4782 C 0.5201 0.11467 0.60441 0.0
C4783 C 0.50766 0.10169 0.60748 0.0
C4784 C 0.5094 0.08556 0.59898 0.0
C4785 C 0.5231 0.08243 0.58768 0.0
C4786 C 0.53506 0.09549 0.58501 0.0
C4787 C 0.53379 0.11125 0.59319 0.0
C4788 C 0.54912 0.12261 0.58906 0.0
C4789 C 0.54346 0.13885 0.5792 0.0
C4790 C 0.55915 0.1273 0.60553 0.0
C4791 C 0.55937 0.11058 0.5776 0.0
C4792 C 0.55088 0.09511 0.57523 0.0
C4793 C 0.55808 0.08165 0.56578 0.0
C4794 C 0.5746 0.08393 0.55888 0.0
C4795 C 0.58377 0.09949 0.56161 0.0
C4796 C 0.57587 0.11308 0.5708 0.0
H4797 H 0.48891 0.92019 0.60155 0.0
H4798 H 0.48026 0.87889 0.63822 0.0
H4799 H 0.44921 0.87923 0.63134 0.0
H4800 H 0.44894 0.94346 0.6095 0.0
H4801 H 0.44579 0.94903 0.58716 0.0
H4802 H 0.46728 0.94612 0.59549 0.0
H4803 H 0.47342 0.92324 0.57193 0.0
H4804 H 0.45198 0.9261 0.56352 0.0
H4805 H 0.45924 0.90494 0.56982 0.0
H4806 H 0.41946 0.88384 0.62058 0.0
H4807 H 0.39272 0.89105 0.60516 0.0
H4808 H 0.42045 0.92893 0.57461 0.0
C4809 C 0.48041 0.91136 0.60822 0.0
C4810 C 0.48692 0.89951 0.62042 0.0
C4811 C 0.47552 0.88793 0.62871 0.0
C4812 C 0.45787 0.88813 0.62499 0.0
C4813 C 0.45187 0.89993 0.61287 0.0
C4814 C 0.46276 0.91126 0.6045 0.0
C4815 C 0.45303 0.92208 0.59145 0.0
C4816 C 0.45381 0.94131 0.59619 0.0
C4817 C 0.45982 0.91889 0.57309 0.0
C4818 C 0.43499 0.91493 0.59373 0.0
C4819 C 0.43463 0.90231 0.6063 0.0
C4820 C 0.41955 0.8937 0.61071 0.0
C4821 C 0.40442 0.89792 0.60187 0.0
C4822 C 0.4045 0.91053 0.58866 0.0
C4823 C 0.41999 0.91923 0.58465 0.0
loop_
_geom_bond_atom_site_label_1
_geom_bond_atom_site_label_2
_geom_bond_distance
_geom_bond_site_symmetry_2
_ccdc_geom_bond_type
C0 C1 1.351 . S
C0 N3 1.368 . S
C0 H5 0.931 . S
C1 C0 1.351 . S
C1 N2 1.373 . S
C1 H29 0.930 . S
N2 C1 1.373 . S
N2 C4 1.340 . S
N3 C0 1.368 . S
N3 C4 1.321 . S
N3 Co6 2.135 . S
C4 N2 1.340 . S
C4 N3 1.321 . S
C4 H28 0.930 . S
H5 C0 0.931 . S
Co6 N3 2.135 . S
Co6 N9 2.121 . S
Co6 O14 2.055 . S
Co6 O17 2.039 . S
Co6 N20 2.140 . S
C7 O8 1.227 . S
C7 O17 1.265 . S
O8 C7 1.227 . S
N9 Co6 2.121 . S
N9 C11 1.375 . S
N9 C12 1.313 . S
C10 C11 1.338 . S
C10 N13 1.377 . S
C10 H30 0.930 . S
C11 N9 1.375 . S
C11 C10 1.338 . S
C11 H15 0.931 . S
C12 N9 1.313 . S
C12 N13 1.344 . S
C12 H16 0.930 . S
N13 C10 1.377 . S
N13 C12 1.344 . S
O14 Co6 2.055 . S
O14 C18 1.253 . S
H15 C11 0.931 . S
H16 C12 0.930 . S
O17 Co6 2.039 . S
O17 C7 1.265 . S
C18 O14 1.253 . S
C18 O19 1.227 . S
O19 C18 1.227 . S
N20 Co6 2.140 . S
N20 C23 1.346 . S
N20 C24 1.345 . S
C21 C22 1.387 . S
C21 C25 1.391 . S
C22 C21 1.387 . S
C22 C23 1.369 . S
C22 H31 0.929 . S
C23 N20 1.346 . S
C23 C22 1.369 . S
C23 H26 0.928 . S
C24 N20 1.345 . S
C24 C25 1.371 . S
C24 H27 0.931 . S
C25 C21 1.391 . S
C25 C24 1.371 . S
C25 H32 0.930 . S
H26 C23 0.928 . S
H27 C24 0.931 . S
H28 C4 0.930 . S
H29 C1 0.930 . S
H30 C10 0.930 . S
H31 C22 0.929 . S
H32 C25 0.930 . S
C33 C34 1.351 . S
C33 N36 1.368 . S
C33 H38 0.931 . S
C34 C33 1.351 . S
C34 N35 1.373 . S
C34 H62 0.930 . S
N35 C34 1.373 . S
N35 C37 1.340 . S
N36 C33 1.368 . S
N36 C37 1.321 . S
N36 Co39 2.135 . S
C37 N35 1.340 . S
C37 N36 1.321 . S
C37 H61 0.930 . S
H38 C33 0.931 . S
Co39 N36 2.135 . S
Co39 N42 2.121 . S
Co39 O47 2.055 . S
Co39 O50 2.039 . S
Co39 N53 2.140 . S
C40 O41 1.227 . S
C40 O50 1.265 . S
O41 C40 1.227 . S
N42 Co39 2.121 . S
N42 C44 1.375 . S
N42 C45 1.313 . S
C43 C44 1.338 . S
C43 N46 1.377 . S
C43 H63 0.930 . S
C44 N42 1.375 . S
C44 C43 1.338 . S
C44 H48 0.931 . S
C45 N42 1.313 . S
C45 N46 1.344 . S
C45 H49 0.930 . S
N46 C43 1.377 . S
N46 C45 1.344 . S
O47 Co39 2.055 . S
O47 C51 1.253 . S
H48 C44 0.931 . S
H49 C45 0.930 . S
O50 Co39 2.039 . S
O50 C40 1.265 . S
C51 O47 1.253 . S
C51 O52 1.227 . S
O52 C51 1.227 . S
N53 Co39 2.140 . S
N53 C56 1.346 . S
N53 C57 1.345 . S
C54 C55 1.387 . S
C54 C58 1.391 . S
C55 C54 1.387 . S
C55 C56 1.369 . S
C55 H64 0.929 . S
C56 N53 1.346 . S
C56 C55 1.369 . S
C56 H59 0.928 . S
C57 N53 1.345 . S
C57 C58 1.371 . S
C57 H60 0.931 . S
C58 C54 1.391 . S
C58 C57 1.371 . S
C58 H65 0.930 . S
H59 C56 0.928 . S
H60 C57 0.931 . S
H61 C37 0.930 . S
H62 C34 0.930 . S
H63 C43 0.930 . S
H64 C55 0.929 . S
H65 C58 0.930 . S
C66 C67 1.351 . S
C66 N69 1.368 . S
C66 H71 0.931 . S
C67 C66 1.351 . S
C67 N68 1.373 . S
C67 H95 0.930 . S
N68 C67 1.373 . S
N68 C70 1.340 . S
N69 C66 1.368 . S
N69 C70 1.321 . S
N69 Co72 2.135 . S
C70 N68 1.340 . S
C70 N69 1.321 . S
C70 H94 0.930 . S
H71 C66 0.931 . S
Co72 N69 2.135 . S
Co72 N75 2.121 . S
Co72 O80 2.055 . S
Co72 O83 2.039 . S
Co72 N86 2.140 . S
C73 O74 1.227 . S
C73 O83 1.265 . S
O74 C73 1.227 . S
N75 Co72 2.121 . S
N75 C77 1.375 . S
N75 C78 1.313 . S
C76 C77 1.338 . S
C76 N79 1.377 . S
C76 H96 0.930 . S
C77 N75 1.375 . S
C77 C76 1.338 . S
C77 H81 0.931 . S
C78 N75 1.313 . S
C78 N79 1.344 . S
C78 H82 0.930 . S
N79 C76 1.377 . S
N79 C78 1.344 . S
O80 Co72 2.055 . S
O80 C84 1.253 . S
H81 C77 0.931 . S
H82 C78 0.930 . S
O83 Co72 2.039 . S
O83 C73 1.265 . S
C84 O80 1.253 . S
C84 O85 1.227 . S
O85 C84 1.227 . S
N86 Co72 2.140 . S
N86 C89 1.346 . S
N86 C90 1.345 . S
C87 C88 1.387 . S
C87 C91 1.391 . S
C88 C87 1.387 . S
C88 C89 1.369 . S
C88 H97 0.929 . S
C89 N86 1.346 . S
C89 C88 1.369 . S
C89 H92 0.928 . S
C90 N86 1.345 . S
C90 C91 1.371 . S
C90 H93 0.931 . S
C91 C87 1.391 . S
C91 C90 1.371 . S
C91 H98 0.930 . S
H92 C89 0.928 . S
H93 C90 0.931 . S
H94 C70 0.930 . S
H95 C67 0.930 . S
H96 C76 0.930 . S
H97 C88 0.929 . S
H98 C91 0.930 . S
C99 C100 1.351 . S
C99 N102 1.368 . S
C99 H104 0.931 . S
C100 C99 1.351 . S
C100 N101 1.373 . S
C100 H128 0.930 . S
N101 C100 1.373 . S
N101 C103 1.340 . S
N102 C99 1.368 . S
N102 C103 1.321 . S
N102 Co105 2.135 . S
C103 N101 1.340 . S
C103 N102 1.321 . S
C103 H127 0.930 . S
H104 C99 0.931 . S
Co105 N102 2.135 . S
Co105 N108 2.121 . S
Co105 O113 2.055 . S
Co105 O116 2.039 . S
Co105 N119 2.140 . S
C106 O107 1.227 . S
C106 O116 1.265 . S
O107 C106 1.227 . S
N108 Co105 2.121 . S
N108 C110 1.375 . S
N108 C111 1.313 . S
C109 C110 1.338 . S
C109 N112 1.377 . S
C109 H129 0.930 . S
C110 N108 1.375 . S
C110 C109 1.338 . S
C110 H114 0.931 . S
C111 N108 1.313 . S
C111 N112 1.344 . S
C111 H115 0.930 . S
N112 C109 1.377 . S
N112 C111 1.344 . S
O113 Co105 2.055 . S
O113 C117 1.253 . S
H114 C110 0.931 . S
H115 C111 0.930 . S
O116 Co105 2.039 . S
O116 C106 1.265 . S
C117 O113 1.253 . S
C117 O118 1.227 . S
O118 C117 1.227 . S
N119 Co105 2.140 . S
N119 C122 1.346 . S
N119 C123 1.345 . S
C120 C121 1.387 . S
C120 C124 1.391 . S
C121 C120 1.387 . S
C121 C122 1.369 . S
C121 H130 0.929 . S
C122 N119 1.346 . S
C122 C121 1.369 . S
C122 H125 0.928 . S
C123 N119 1.345 . S
C123 C124 1.371 . S
C123 H126 0.931 . S
C124 C120 1.391 . S
C124 C123 1.371 . S
C124 H131 0.930 . S
H125 C122 0.928 . S
H126 C123 0.931 . S
H127 C103 0.930 . S
H128 C100 0.930 . S
H129 C109 0.930 . S
H130 C121 0.929 . S
H131 C124 0.930 . S
C132 C133 1.351 . S
C132 N135 1.368 . S
C132 H137 0.931 . S
C133 C132 1.351 . S
C133 N134 1.373 . S
C133 H161 0.930 . S
N134 C133 1.373 . S
N134 C136 1.340 . S
N135 C132 1.368 . S
N135 C136 1.321 . S
N135 Co138 2.135 . S
C136 N134 1.340 . S
C136 N135 1.321 . S
C136 H160 0.930 . S
H137 C132 0.931 . S
Co138 N135 2.135 . S
Co138 N141 2.121 . S
Co138 O146 2.055 . S
Co138 O149 2.039 . S
Co138 N152 2.140 . S
C139 O140 1.227 . S
C139 O149 1.265 . S
O140 C139 1.227 . S
N141 Co138 2.121 . S
N141 C143 1.375 . S
N141 C144 1.313 . S
C142 C143 1.338 . S
C142 N145 1.377 . S
C142 H162 0.930 . S
C143 N141 1.375 . S
C143 C142 1.338 . S
C143 H147 0.931 . S
C144 N141 1.313 . S
C144 N145 1.344 . S
C144 H148 0.930 . S
N145 C142 1.377 . S
N145 C144 1.344 . S
O146 Co138 2.055 . S
O146 C150 1.253 . S
H147 C143 0.931 . S
H148 C144 0.930 . S
O149 Co138 2.039 . S
O149 C139 1.265 . S
C150 O146 1.253 . S
C150 O151 1.227 . S
O151 C150 1.227 . S
N152 Co138 2.140 . S
N152 C155 1.346 . S
N152 C156 1.345 . S
C153 C154 1.387 . S
C153 C157 1.391 . S
C154 C153 1.387 . S
C154 C155 1.369 . S
C154 H163 0.929 . S
C155 N152 1.346 . S
C155 C154 1.369 . S
C155 H158 0.928 . S
C156 N152 1.345 . S
C156 C157 1.371 . S
C156 H159 0.931 . S
C157 C153 1.391 . S
C157 C156 1.371 . S
C157 H164 0.930 . S
H158 C155 0.928 . S
H159 C156 0.931 . S
H160 C136 0.930 . S
H161 C133 0.930 . S
H162 C142 0.930 . S
H163 C154 0.929 . S
H164 C157 0.930 . S
C165 C166 1.351 . S
C165 N168 1.368 . S
C165 H170 0.931 . S
C166 C165 1.351 . S
C166 N167 1.373 . S
C166 H194 0.930 . S
N167 C166 1.373 . S
N167 C169 1.340 . S
N168 C165 1.368 . S
N168 C169 1.321 . S
N168 Co171 2.135 . S
C169 N167 1.340 . S
C169 N168 1.321 . S
C169 H193 0.930 . S
H170 C165 0.931 . S
Co171 N168 2.135 . S
Co171 N174 2.121 . S
Co171 O179 2.055 . S
Co171 O182 2.039 . S
Co171 N185 2.140 . S
C172 O173 1.227 . S
C172 O182 1.265 . S
O173 C172 1.227 . S
N174 Co171 2.121 . S
N174 C176 1.375 . S
N174 C177 1.313 . S
C175 C176 1.338 . S
C175 N178 1.377 . S
C175 H195 0.930 . S
C176 N174 1.375 . S
C176 C175 1.338 . S
C176 H180 0.931 . S
C177 N174 1.313 . S
C177 N178 1.344 . S
C177 H181 0.930 . S
N178 C175 1.377 . S
N178 C177 1.344 . S
O179 Co171 2.055 . S
O179 C183 1.253 . S
H180 C176 0.931 . S
H181 C177 0.930 . S
O182 Co171 2.039 . S
O182 C172 1.265 . S
C183 O179 1.253 . S
C183 O184 1.227 . S
O184 C183 1.227 . S
N185 Co171 2.140 . S
N185 C188 1.346 . S
N185 C189 1.345 . S
C186 C187 1.387 . S
C186 C190 1.391 . S
C187 C186 1.387 . S
C187 C188 1.369 . S
C187 H196 0.929 . S
C188 N185 1.346 . S
C188 C187 1.369 . S
C188 H191 0.928 . S
C189 N185 1.345 . S
C189 C190 1.371 . S
C189 H192 0.931 . S
C190 C186 1.391 . S
C190 C189 1.371 . S
C190 H197 0.930 . S
H191 C188 0.928 . S
H192 C189 0.931 . S
H193 C169 0.930 . S
H194 C166 0.930 . S
H195 C175 0.930 . S
H196 C187 0.929 . S
H197 C190 0.930 . S
C198 C199 1.351 . S
C198 N201 1.368 . S
C198 H203 0.931 . S
C199 C198 1.351 . S
C199 N200 1.373 . S
C199 H227 0.930 . S
N200 C199 1.373 . S
N200 C202 1.340 . S
N201 C198 1.368 . S
N201 C202 1.321 . S
N201 Co204 2.135 . S
C202 N200 1.340 . S
C202 N201 1.321 . S
C202 H226 0.930 . S
H203 C198 0.931 . S
Co204 N201 2.135 . S
Co204 N207 2.121 . S
Co204 O212 2.055 . S
Co204 O215 2.039 . S
Co204 N218 2.140 . S
C205 O206 1.227 . S
C205 O215 1.265 . S
O206 C205 1.227 . S
N207 Co204 2.121 . S
N207 C209 1.375 . S
N207 C210 1.313 . S
C208 C209 1.338 . S
C208 N211 1.377 . S
C208 H228 0.930 . S
C209 N207 1.375 . S
C209 C208 1.338 . S
C209 H213 0.931 . S
C210 N207 1.313 . S
C210 N211 1.344 . S
C210 H214 0.930 . S
N211 C208 1.377 . S
N211 C210 1.344 . S
O212 Co204 2.055 . S
O212 C216 1.253 . S
H213 C209 0.931 . S
H214 C210 0.930 . S
O215 Co204 2.039 . S
O215 C205 1.265 . S
C216 O212 1.253 . S
C216 O217 1.227 . S
O217 C216 1.227 . S
N218 Co204 2.140 . S
N218 C221 1.346 . S
N218 C222 1.345 . S
C219 C220 1.387 . S
C219 C223 1.391 . S
C220 C219 1.387 . S
C220 C221 1.369 . S
C220 H229 0.929 . S
C221 N218 1.346 . S
C221 C220 1.369 . S
C221 H224 0.928 . S
C222 N218 1.345 . S
C222 C223 1.371 . S
C222 H225 0.931 . S
C223 C219 1.391 . S
C223 C222 1.371 . S
C223 H230 0.930 . S
H224 C221 0.928 . S
H225 C222 0.931 . S
H226 C202 0.930 . S
H227 C199 0.930 . S
H228 C208 0.930 . S
H229 C220 0.929 . S
H230 C223 0.930 . S
C231 C232 1.351 . S
C231 N234 1.368 . S
C231 H236 0.931 . S
C232 C231 1.351 . S
C232 N233 1.373 . S
C232 H260 0.930 . S
N233 C232 1.373 . S
N233 C235 1.340 . S
N234 C231 1.368 . S
N234 C235 1.321 . S
N234 Co237 2.135 . S
C235 N233 1.340 . S
C235 N234 1.321 . S
C235 H259 0.930 . S
H236 C231 0.931 . S
Co237 N234 2.135 . S
Co237 N240 2.121 . S
Co237 O245 2.055 . S
Co237 O248 2.039 . S
Co237 N251 2.140 . S
C238 O239 1.227 . S
C238 O248 1.265 . S
O239 C238 1.227 . S
N240 Co237 2.121 . S
N240 C242 1.375 . S
N240 C243 1.313 . S
C241 C242 1.338 . S
C241 N244 1.377 . S
C241 H261 0.930 . S
C242 N240 1.375 . S
C242 C241 1.338 . S
C242 H246 0.931 . S
C243 N240 1.313 . S
C243 N244 1.344 . S
C243 H247 0.930 . S
N244 C241 1.377 . S
N244 C243 1.344 . S
O245 Co237 2.055 . S
O245 C249 1.253 . S
H246 C242 0.931 . S
H247 C243 0.930 . S
O248 Co237 2.039 . S
O248 C238 1.265 . S
C249 O245 1.253 . S
C249 O250 1.227 . S
O250 C249 1.227 . S
N251 Co237 2.140 . S
N251 C254 1.346 . S
N251 C255 1.345 . S
C252 C253 1.387 . S
C252 C256 1.391 . S
C253 C252 1.387 . S
C253 C254 1.369 . S
C253 H262 0.929 . S
C254 N251 1.346 . S
C254 C253 1.369 . S
C254 H257 0.928 . S
C255 N251 1.345 . S
C255 C256 1.371 . S
C255 H258 0.931 . S
C256 C252 1.391 . S
C256 C255 1.371 . S
C256 H263 0.930 . S
H257 C254 0.928 . S
H258 C255 0.931 . S
H259 C235 0.930 . S
H260 C232 0.930 . S
H261 C241 0.930 . S
H262 C253 0.929 . S
H263 C256 0.930 . S
C264 C265 1.351 . S
C264 N267 1.368 . S
C264 H269 0.931 . S
C265 C264 1.351 . S
C265 N266 1.373 . S
C265 H293 0.930 . S
N266 C265 1.373 . S
N266 C268 1.340 . S
N267 C264 1.368 . S
N267 C268 1.321 . S
N267 Co270 2.135 . S
C268 N266 1.340 . S
C268 N267 1.321 . S
C268 H292 0.930 . S
H269 C264 0.931 . S
Co270 N267 2.135 . S
Co270 N273 2.121 . S
Co270 O278 2.055 . S
Co270 O281 2.039 . S
Co270 N284 2.140 . S
C271 O272 1.227 . S
C271 O281 1.265 . S
O272 C271 1.227 . S
N273 Co270 2.121 . S
N273 C275 1.375 . S
N273 C276 1.313 . S
C274 C275 1.338 . S
C274 N277 1.377 . S
C274 H294 0.930 . S
C275 N273 1.375 . S
C275 C274 1.338 . S
C275 H279 0.931 . S
C276 N273 1.313 . S
C276 N277 1.344 . S
C276 H280 0.930 . S
N277 C274 1.377 . S
N277 C276 1.344 . S
O278 Co270 2.055 . S
O278 C282 1.253 . S
H279 C275 0.931 . S
H280 C276 0.930 . S
O281 Co270 2.039 . S
O281 C271 1.265 . S
C282 O278 1.253 . S
C282 O283 1.227 . S
O283 C282 1.227 . S
N284 Co270 2.140 . S
N284 C287 1.346 . S
N284 C288 1.345 . S
C285 C286 1.387 . S
C285 C289 1.391 . S
C286 C285 1.387 . S
C286 C287 1.369 . S
C286 H295 0.929 . S
C287 N284 1.346 . S
C287 C286 1.369 . S
C287 H290 0.928 . S
C288 N284 1.345 . S
C288 C289 1.371 . S
C288 H291 0.931 . S
C289 C285 1.391 . S
C289 C288 1.371 . S
C289 H296 0.930 . S
H290 C287 0.928 . S
H291 C288 0.931 . S
H292 C268 0.930 . S
H293 C265 0.930 . S
H294 C274 0.930 . S
H295 C286 0.929 . S
H296 C289 0.930 . S
C297 C298 1.351 . S
C297 N300 1.368 . S
C297 H302 0.931 . S
C298 C297 1.351 . S
C298 N299 1.373 . S
C298 H326 0.930 . S
N299 C298 1.373 . S
N299 C301 1.340 . S
N300 C297 1.368 . S
N300 C301 1.321 . S
N300 Co303 2.135 . S
C301 N299 1.340 . S
C301 N300 1.321 . S
C301 H325 0.930 . S
H302 C297 0.931 . S
Co303 N300 2.135 . S
Co303 N306 2.121 . S
Co303 O311 2.055 . S
Co303 O314 2.039 . S
Co303 N317 2.140 . S
C304 O305 1.227 . S
C304 O314 1.265 . S
O305 C304 1.227 . S
N306 Co303 2.121 . S
N306 C308 1.375 . S
N306 C309 1.313 . S
C307 C308 1.338 . S
C307 N310 1.377 . S
C307 H327 0.930 . S
C308 N306 1.375 . S
C308 C307 1.338 . S
C308 H312 0.931 . S
C309 N306 1.313 . S
C309 N310 1.344 . S
C309 H313 0.930 . S
N310 C307 1.377 . S
N310 C309 1.344 . S
O311 Co303 2.055 . S
O311 C315 1.253 . S
H312 C308 0.931 . S
H313 C309 0.930 . S
O314 Co303 2.039 . S
O314 C304 1.265 . S
C315 O311 1.253 . S
C315 O316 1.227 . S
O316 C315 1.227 . S
N317 Co303 2.140 . S
N317 C320 1.346 . S
N317 C321 1.345 . S
C318 C319 1.387 . S
C318 C322 1.391 . S
C319 C318 1.387 . S
C319 C320 1.369 . S
C319 H328 0.929 . S
C320 N317 1.346 . S
C320 C319 1.369 . S
C320 H323 0.928 . S
C321 N317 1.345 . S
C321 C322 1.371 . S
C321 H324 0.931 . S
C322 C318 1.391 . S
C322 C321 1.371 . S
C322 H329 0.930 . S
H323 C320 0.928 . S
H324 C321 0.931 . S
H325 C301 0.930 . S
H326 C298 0.930 . S
H327 C307 0.930 . S
H328 C319 0.929 . S
H329 C322 0.930 . S
C330 C331 1.351 . S
C330 N333 1.368 . S
C330 H335 0.931 . S
C331 C330 1.351 . S
C331 N332 1.373 . S
C331 H359 0.930 . S
N332 C331 1.373 . S
N332 C334 1.340 . S
N333 C330 1.368 . S
N333 C334 1.321 . S
N333 Co336 2.135 . S
C334 N332 1.340 . S
C334 N333 1.321 . S
C334 H358 0.930 . S
H335 C330 0.931 . S
Co336 N333 2.135 . S
Co336 N339 2.121 . S
Co336 O344 2.055 . S
Co336 O347 2.039 . S
Co336 N350 2.140 . S
C337 O338 1.227 . S
C337 O347 1.265 . S
O338 C337 1.227 . S
N339 Co336 2.121 . S
N339 C341 1.375 . S
N339 C342 1.313 . S
C340 C341 1.338 . S
C340 N343 1.377 . S
C340 H360 0.930 . S
C341 N339 1.375 . S
C341 C340 1.338 . S
C341 H345 0.931 . S
C342 N339 1.313 . S
C342 N343 1.344 . S
C342 H346 0.930 . S
N343 C340 1.377 . S
N343 C342 1.344 . S
O344 Co336 2.055 . S
O344 C348 1.253 . S
H345 C341 0.931 . S
H346 C342 0.930 . S
O347 Co336 2.039 . S
O347 C337 1.265 . S
C348 O344 1.253 . S
C348 O349 1.227 . S
O349 C348 1.227 . S
N350 Co336 2.140 . S
N350 C353 1.346 . S
N350 C354 1.345 . S
C351 C352 1.387 . S
C351 C355 1.391 . S
C352 C351 1.387 . S
C352 C353 1.369 . S
C352 H361 0.929 . S
C353 N350 1.346 . S
C353 C352 1.369 . S
C353 H356 0.928 . S
C354 N350 1.345 . S
C354 C355 1.371 . S
C354 H357 0.931 . S
C355 C351 1.391 . S
C355 C354 1.371 . S
C355 H362 0.930 . S
H356 C353 0.928 . S
H357 C354 0.931 . S
H358 C334 0.930 . S
H359 C331 0.930 . S
H360 C340 0.930 . S
H361 C352 0.929 . S
H362 C355 0.930 . S
C363 C364 1.351 . S
C363 N366 1.368 . S
C363 H368 0.931 . S
C364 C363 1.351 . S
C364 N365 1.373 . S
C364 H392 0.930 . S
N365 C364 1.373 . S
N365 C367 1.340 . S
N366 C363 1.368 . S
N366 C367 1.321 . S
N366 Co369 2.135 . S
C367 N365 1.340 . S
C367 N366 1.321 . S
C367 H391 0.930 . S
H368 C363 0.931 . S
Co369 N366 2.135 . S
Co369 N372 2.121 . S
Co369 O377 2.055 . S
Co369 O380 2.039 . S
Co369 N383 2.140 . S
C370 O371 1.227 . S
C370 O380 1.265 . S
O371 C370 1.227 . S
N372 Co369 2.121 . S
N372 C374 1.375 . S
N372 C375 1.313 . S
C373 C374 1.338 . S
C373 N376 1.377 . S
C373 H393 0.930 . S
C374 N372 1.375 . S
C374 C373 1.338 . S
C374 H378 0.931 . S
C375 N372 1.313 . S
C375 N376 1.344 . S
C375 H379 0.930 . S
N376 C373 1.377 . S
N376 C375 1.344 . S
O377 Co369 2.055 . S
O377 C381 1.253 . S
H378 C374 0.931 . S
H379 C375 0.930 . S
O380 Co369 2.039 . S
O380 C370 1.265 . S
C381 O377 1.253 . S
C381 O382 1.227 . S
O382 C381 1.227 . S
N383 Co369 2.140 . S
N383 C386 1.346 . S
N383 C387 1.345 . S
C384 C385 1.387 . S
C384 C388 1.391 . S
C385 C384 1.387 . S
C385 C386 1.369 . S
C385 H394 0.929 . S
C386 N383 1.346 . S
C386 C385 1.369 . S
C386 H389 0.928 . S
C387 N383 1.345 . S
C387 C388 1.371 . S
C387 H390 0.931 . S
C388 C384 1.391 . S
C388 C387 1.371 . S
C388 H395 0.930 . S
H389 C386 0.928 . S
H390 C387 0.931 . S
H391 C367 0.930 . S
H392 C364 0.930 . S
H393 C373 0.930 . S
H394 C385 0.929 . S
H395 C388 0.930 . S
C396 C397 1.351 . S
C396 N399 1.368 . S
C396 H401 0.931 . S
C397 C396 1.351 . S
C397 N398 1.373 . S
C397 H425 0.930 . S
N398 C397 1.373 . S
N398 C400 1.340 . S
N399 C396 1.368 . S
N399 C400 1.321 . S
N399 Co402 2.135 . S
C400 N398 1.340 . S
C400 N399 1.321 . S
C400 H424 0.930 . S
H401 C396 0.931 . S
Co402 N399 2.135 . S
Co402 N405 2.121 . S
Co402 O410 2.055 . S
Co402 O413 2.039 . S
Co402 N416 2.140 . S
C403 O404 1.227 . S
C403 O413 1.265 . S
O404 C403 1.227 . S
N405 Co402 2.121 . S
N405 C407 1.375 . S
N405 C408 1.313 . S
C406 C407 1.338 . S
C406 N409 1.377 . S
C406 H426 0.930 . S
C407 N405 1.375 . S
C407 C406 1.338 . S
C407 H411 0.931 . S
C408 N405 1.313 . S
C408 N409 1.344 . S
C408 H412 0.930 . S
N409 C406 1.377 . S
N409 C408 1.344 . S
O410 Co402 2.055 . S
O410 C414 1.253 . S
H411 C407 0.931 . S
H412 C408 0.930 . S
O413 Co402 2.039 . S
O413 C403 1.265 . S
C414 O410 1.253 . S
C414 O415 1.227 . S
O415 C414 1.227 . S
N416 Co402 2.140 . S
N416 C419 1.346 . S
N416 C420 1.345 . S
C417 C418 1.387 . S
C417 C421 1.391 . S
C418 C417 1.387 . S
C418 C419 1.369 . S
C418 H427 0.929 . S
C419 N416 1.346 . S
C419 C418 1.369 . S
C419 H422 0.928 . S
C420 N416 1.345 . S
C420 C421 1.371 . S
C420 H423 0.931 . S
C421 C417 1.391 . S
C421 C420 1.371 . S
C421 H428 0.930 . S
H422 C419 0.928 . S
H423 C420 0.931 . S
H424 C400 0.930 . S
H425 C397 0.930 . S
H426 C406 0.930 . S
H427 C418 0.929 . S
H428 C421 0.930 . S
C429 C430 1.351 . S
C429 N432 1.368 . S
C429 H434 0.931 . S
C430 C429 1.351 . S
C430 N431 1.373 . S
C430 H458 0.930 . S
N431 C430 1.373 . S
N431 C433 1.340 . S
N432 C429 1.368 . S
N432 C433 1.321 . S
N432 Co435 2.135 . S
C433 N431 1.340 . S
C433 N432 1.321 . S
C433 H457 0.930 . S
H434 C429 0.931 . S
Co435 N432 2.135 . S
Co435 N438 2.121 . S
Co435 O443 2.055 . S
Co435 O446 2.039 . S
Co435 N449 2.140 . S
C436 O437 1.227 . S
C436 O446 1.265 . S
O437 C436 1.227 . S
N438 Co435 2.121 . S
N438 C440 1.375 . S
N438 C441 1.313 . S
C439 C440 1.338 . S
C439 N442 1.377 . S
C439 H459 0.930 . S
C440 N438 1.375 . S
C440 C439 1.338 . S
C440 H444 0.931 . S
C441 N438 1.313 . S
C441 N442 1.344 . S
C441 H445 0.930 . S
N442 C439 1.377 . S
N442 C441 1.344 . S
O443 Co435 2.055 . S
O443 C447 1.253 . S
H444 C440 0.931 . S
H445 C441 0.930 . S
O446 Co435 2.039 . S
O446 C436 1.265 . S
C447 O443 1.253 . S
C447 O448 1.227 . S
O448 C447 1.227 . S
N449 Co435 2.140 . S
N449 C452 1.346 . S
N449 C453 1.345 . S
C450 C451 1.387 . S
C450 C454 1.391 . S
C451 C450 1.387 . S
C451 C452 1.369 . S
C451 H460 0.929 . S
C452 N449 1.346 . S
C452 C451 1.369 . S
C452 H455 0.928 . S
C453 N449 1.345 . S
C453 C454 1.371 . S
C453 H456 0.931 . S
C454 C450 1.391 . S
C454 C453 1.371 . S
C454 H461 0.930 . S
H455 C452 0.928 . S
H456 C453 0.931 . S
H457 C433 0.930 . S
H458 C430 0.930 . S
H459 C439 0.930 . S
H460 C451 0.929 . S
H461 C454 0.930 . S
C462 C463 1.351 . S
C462 N465 1.368 . S
C462 H467 0.931 . S
C463 C462 1.351 . S
C463 N464 1.373 . S
C463 H491 0.930 . S
N464 C463 1.373 . S
N464 C466 1.340 . S
N465 C462 1.368 . S
N465 C466 1.321 . S
N465 Co468 2.135 . S
C466 N464 1.340 . S
C466 N465 1.321 . S
C466 H490 0.930 . S
H467 C462 0.931 . S
Co468 N465 2.135 . S
Co468 N471 2.121 . S
Co468 O476 2.055 . S
Co468 O479 2.039 . S
Co468 N482 2.140 . S
C469 O470 1.227 . S
C469 O479 1.265 . S
O470 C469 1.227 . S
N471 Co468 2.121 . S
N471 C473 1.375 . S
N471 C474 1.313 . S
C472 C473 1.338 . S
C472 N475 1.377 . S
C472 H492 0.930 . S
C473 N471 1.375 . S
C473 C472 1.338 . S
C473 H477 0.931 . S
C474 N471 1.313 . S
C474 N475 1.344 . S
C474 H478 0.930 . S
N475 C472 1.377 . S
N475 C474 1.344 . S
O476 Co468 2.055 . S
O476 C480 1.253 . S
H477 C473 0.931 . S
H478 C474 0.930 . S
O479 Co468 2.039 . S
O479 C469 1.265 . S
C480 O476 1.253 . S
C480 O481 1.227 . S
O481 C480 1.227 . S
N482 Co468 2.140 . S
N482 C485 1.346 . S
N482 C486 1.345 . S
C483 C484 1.387 . S
C483 C487 1.391 . S
C484 C483 1.387 . S
C484 C485 1.369 . S
C484 H493 0.929 . S
C485 N482 1.346 . S
C485 C484 1.369 . S
C485 H488 0.928 . S
C486 N482 1.345 . S
C486 C487 1.371 . S
C486 H489 0.931 . S
C487 C483 1.391 . S
C487 C486 1.371 . S
C487 H494 0.930 . S
H488 C485 0.928 . S
H489 C486 0.931 . S
H490 C466 0.930 . S
H491 C463 0.930 . S
H492 C472 0.930 . S
H493 C484 0.929 . S
H494 C487 0.930 . S
C495 C496 1.351 . S
C495 N498 1.368 . S
C495 H500 0.931 . S
C496 C495 1.351 . S
C496 N497 1.373 . S
C496 H524 0.930 . S
N497 C496 1.373 . S
N497 C499 1.340 . S
N498 C495 1.368 . S
N498 C499 1.321 . S
N498 Co501 2.135 . S
C499 N497 1.340 . S
C499 N498 1.321 . S
C499 H523 0.930 . S
H500 C495 0.931 . S
Co501 N498 2.135 . S
Co501 N504 2.121 . S
Co501 O509 2.055 . S
Co501 O512 2.039 . S
Co501 N515 2.140 . S
C502 O503 1.227 . S
C502 O512 1.265 . S
O503 C502 1.227 . S
N504 Co501 2.121 . S
N504 C506 1.375 . S
N504 C507 1.313 . S
C505 C506 1.338 . S
C505 N508 1.377 . S
C505 H525 0.930 . S
C506 N504 1.375 . S
C506 C505 1.338 . S
C506 H510 0.931 . S
C507 N504 1.313 . S
C507 N508 1.344 . S
C507 H511 0.930 . S
N508 C505 1.377 . S
N508 C507 1.344 . S
O509 Co501 2.055 . S
O509 C513 1.253 . S
H510 C506 0.931 . S
H511 C507 0.930 . S
O512 Co501 2.039 . S
O512 C502 1.265 . S
C513 O509 1.253 . S
C513 O514 1.227 . S
O514 C513 1.227 . S
N515 Co501 2.140 . S
N515 C518 1.346 . S
N515 C519 1.345 . S
C516 C517 1.387 . S
C516 C520 1.391 . S
C517 C516 1.387 . S
C517 C518 1.369 . S
C517 H526 0.929 . S
C518 N515 1.346 . S
C518 C517 1.369 . S
C518 H521 0.928 . S
C519 N515 1.345 . S
C519 C520 1.371 . S
C519 H522 0.931 . S
C520 C516 1.391 . S
C520 C519 1.371 . S
C520 H527 0.930 . S
H521 C518 0.928 . S
H522 C519 0.931 . S
H523 C499 0.930 . S
H524 C496 0.930 . S
H525 C505 0.930 . S
H526 C517 0.929 . S
H527 C520 0.930 . S
C528 C529 1.351 . S
C528 N531 1.368 . S
C528 H533 0.931 . S
C529 C528 1.351 . S
C529 N530 1.373 . S
C529 H557 0.930 . S
N530 C529 1.373 . S
N530 C532 1.340 . S
N531 C528 1.368 . S
N531 C532 1.321 . S
N531 Co534 2.135 . S
C532 N530 1.340 . S
C532 N531 1.321 . S
C532 H556 0.930 . S
H533 C528 0.931 . S
Co534 N531 2.135 . S
Co534 N537 2.121 . S
Co534 O542 2.055 . S
Co534 O545 2.039 . S
Co534 N548 2.140 . S
C535 O536 1.227 . S
C535 O545 1.265 . S
O536 C535 1.227 . S
N537 Co534 2.121 . S
N537 C539 1.375 . S
N537 C540 1.313 . S
C538 C539 1.338 . S
C538 N541 1.377 . S
C538 H558 0.930 . S
C539 N537 1.375 . S
C539 C538 1.338 . S
C539 H543 0.931 . S
C540 N537 1.313 . S
C540 N541 1.344 . S
C540 H544 0.930 . S
N541 C538 1.377 . S
N541 C540 1.344 . S
O542 Co534 2.055 . S
O542 C546 1.253 . S
H543 C539 0.931 . S
H544 C540 0.930 . S
O545 Co534 2.039 . S
O545 C535 1.265 . S
C546 O542 1.253 . S
C546 O547 1.227 . S
O547 C546 1.227 . S
N548 Co534 2.140 . S
N548 C551 1.346 . S
N548 C552 1.345 . S
C549 C550 1.387 . S
C549 C553 1.391 . S
C550 C549 1.387 . S
C550 C551 1.369 . S
C550 H559 0.929 . S
C551 N548 1.346 . S
C551 C550 1.369 . S
C551 H554 0.928 . S
C552 N548 1.345 . S
C552 C553 1.371 . S
C552 H555 0.931 . S
C553 C549 1.391 . S
C553 C552 1.371 . S
C553 H560 0.930 . S
H554 C551 0.928 . S
H555 C552 0.931 . S
H556 C532 0.930 . S
H557 C529 0.930 . S
H558 C538 0.930 . S
H559 C550 0.929 . S
H560 C553 0.930 . S
C561 C562 1.351 . S
C561 N564 1.368 . S
C561 H566 0.931 . S
C562 C561 1.351 . S
C562 N563 1.373 . S
C562 H590 0.930 . S
N563 C562 1.373 . S
N563 C565 1.340 . S
N564 C561 1.368 . S
N564 C565 1.321 . S
N564 Co567 2.135 . S
C565 N563 1.340 . S
C565 N564 1.321 . S
C565 H589 0.930 . S
H566 C561 0.931 . S
Co567 N564 2.135 . S
Co567 N570 2.121 . S
Co567 O575 2.055 . S
Co567 O578 2.039 . S
Co567 N581 2.140 . S
C568 O569 1.227 . S
C568 O578 1.265 . S
O569 C568 1.227 . S
N570 Co567 2.121 . S
N570 C572 1.375 . S
N570 C573 1.313 . S
C571 C572 1.338 . S
C571 N574 1.377 . S
C571 H591 0.930 . S
C572 N570 1.375 . S
C572 C571 1.338 . S
C572 H576 0.931 . S
C573 N570 1.313 . S
C573 N574 1.344 . S
C573 H577 0.930 . S
N574 C571 1.377 . S
N574 C573 1.344 . S
O575 Co567 2.055 . S
O575 C579 1.253 . S
H576 C572 0.931 . S
H577 C573 0.930 . S
O578 Co567 2.039 . S
O578 C568 1.265 . S
C579 O575 1.253 . S
C579 O580 1.227 . S
O580 C579 1.227 . S
N581 Co567 2.140 . S
N581 C584 1.346 . S
N581 C585 1.345 . S
C582 C583 1.387 . S
C582 C586 1.391 . S
C583 C582 1.387 . S
C583 C584 1.369 . S
C583 H592 0.929 . S
C584 N581 1.346 . S
C584 C583 1.369 . S
C584 H587 0.928 . S
C585 N581 1.345 . S
C585 C586 1.371 . S
C585 H588 0.931 . S
C586 C582 1.391 . S
C586 C585 1.371 . S
C586 H593 0.930 . S
H587 C584 0.928 . S
H588 C585 0.931 . S
H589 C565 0.930 . S
H590 C562 0.930 . S
H591 C571 0.930 . S
H592 C583 0.929 . S
H593 C586 0.930 . S
C594 C595 1.351 . S
C594 N597 1.368 . S
C594 H599 0.931 . S
C595 C594 1.351 . S
C595 N596 1.373 . S
C595 H623 0.930 . S
N596 C595 1.373 . S
N596 C598 1.340 . S
N597 C594 1.368 . S
N597 C598 1.321 . S
N597 Co600 2.135 . S
C598 N596 1.340 . S
C598 N597 1.321 . S
C598 H622 0.930 . S
H599 C594 0.931 . S
Co600 N597 2.135 . S
Co600 N603 2.121 . S
Co600 O608 2.055 . S
Co600 O611 2.039 . S
Co600 N614 2.140 . S
C601 O602 1.227 . S
C601 O611 1.265 . S
O602 C601 1.227 . S
N603 Co600 2.121 . S
N603 C605 1.375 . S
N603 C606 1.313 . S
C604 C605 1.338 . S
C604 N607 1.377 . S
C604 H624 0.930 . S
C605 N603 1.375 . S
C605 C604 1.338 . S
C605 H609 0.931 . S
C606 N603 1.313 . S
C606 N607 1.344 . S
C606 H610 0.930 . S
N607 C604 1.377 . S
N607 C606 1.344 . S
O608 Co600 2.055 . S
O608 C612 1.253 . S
H609 C605 0.931 . S
H610 C606 0.930 . S
O611 Co600 2.039 . S
O611 C601 1.265 . S
C612 O608 1.253 . S
C612 O613 1.227 . S
O613 C612 1.227 . S
N614 Co600 2.140 . S
N614 C617 1.346 . S
N614 C618 1.345 . S
C615 C616 1.387 . S
C615 C619 1.391 . S
C616 C615 1.387 . S
C616 C617 1.369 . S
C616 H625 0.929 . S
C617 N614 1.346 . S
C617 C616 1.369 . S
C617 H620 0.928 . S
C618 N614 1.345 . S
C618 C619 1.371 . S
C618 H621 0.931 . S
C619 C615 1.391 . S
C619 C618 1.371 . S
C619 H626 0.930 . S
H620 C617 0.928 . S
H621 C618 0.931 . S
H622 C598 0.930 . S
H623 C595 0.930 . S
H624 C604 0.930 . S
H625 C616 0.929 . S
H626 C619 0.930 . S
C627 C628 1.351 . S
C627 N630 1.368 . S
C627 H632 0.931 . S
C628 C627 1.351 . S
C628 N629 1.373 . S
C628 H656 0.930 . S
N629 C628 1.373 . S
N629 C631 1.340 . S
N630 C627 1.368 . S
N630 C631 1.321 . S
N630 Co633 2.135 . S
C631 N629 1.340 . S
C631 N630 1.321 . S
C631 H655 0.930 . S
H632 C627 0.931 . S
Co633 N630 2.135 . S
Co633 N636 2.121 . S
Co633 O641 2.055 . S
Co633 O644 2.039 . S
Co633 N647 2.140 . S
C634 O635 1.227 . S
C634 O644 1.265 . S
O635 C634 1.227 . S
N636 Co633 2.121 . S
N636 C638 1.375 . S
N636 C639 1.313 . S
C637 C638 1.338 . S
C637 N640 1.377 . S
C637 H657 0.930 . S
C638 N636 1.375 . S
C638 C637 1.338 . S
C638 H642 0.931 . S
C639 N636 1.313 . S
C639 N640 1.344 . S
C639 H643 0.930 . S
N640 C637 1.377 . S
N640 C639 1.344 . S
O641 Co633 2.055 . S
O641 C645 1.253 . S
H642 C638 0.931 . S
H643 C639 0.930 . S
O644 Co633 2.039 . S
O644 C634 1.265 . S
C645 O641 1.253 . S
C645 O646 1.227 . S
O646 C645 1.227 . S
N647 Co633 2.140 . S
N647 C650 1.346 . S
N647 C651 1.345 . S
C648 C649 1.387 . S
C648 C652 1.391 . S
C649 C648 1.387 . S
C649 C650 1.369 . S
C649 H658 0.929 . S
C650 N647 1.346 . S
C650 C649 1.369 . S
C650 H653 0.928 . S
C651 N647 1.345 . S
C651 C652 1.371 . S
C651 H654 0.931 . S
C652 C648 1.391 . S
C652 C651 1.371 . S
C652 H659 0.930 . S
H653 C650 0.928 . S
H654 C651 0.931 . S
H655 C631 0.930 . S
H656 C628 0.930 . S
H657 C637 0.930 . S
H658 C649 0.929 . S
H659 C652 0.930 . S
C660 C661 1.351 . S
C660 N663 1.368 . S
C660 H665 0.931 . S
C661 C660 1.351 . S
C661 N662 1.373 . S
C661 H689 0.930 . S
N662 C661 1.373 . S
N662 C664 1.340 . S
N663 C660 1.368 . S
N663 C664 1.321 . S
N663 Co666 2.135 . S
C664 N662 1.340 . S
C664 N663 1.321 . S
C664 H688 0.930 . S
H665 C660 0.931 . S
Co666 N663 2.135 . S
Co666 N669 2.121 . S
Co666 O674 2.055 . S
Co666 O677 2.039 . S
Co666 N680 2.140 . S
C667 O668 1.227 . S
C667 O677 1.265 . S
O668 C667 1.227 . S
N669 Co666 2.121 . S
N669 C671 1.375 . S
N669 C672 1.313 . S
C670 C671 1.338 . S
C670 N673 1.377 . S
C670 H690 0.930 . S
C671 N669 1.375 . S
C671 C670 1.338 . S
C671 H675 0.931 . S
C672 N669 1.313 . S
C672 N673 1.344 . S
C672 H676 0.930 . S
N673 C670 1.377 . S
N673 C672 1.344 . S
O674 Co666 2.055 . S
O674 C678 1.253 . S
H675 C671 0.931 . S
H676 C672 0.930 . S
O677 Co666 2.039 . S
O677 C667 1.265 . S
C678 O674 1.253 . S
C678 O679 1.227 . S
O679 C678 1.227 . S
N680 Co666 2.140 . S
N680 C683 1.346 . S
N680 C684 1.345 . S
C681 C682 1.387 . S
C681 C685 1.391 . S
C682 C681 1.387 . S
C682 C683 1.369 . S
C682 H691 0.929 . S
C683 N680 1.346 . S
C683 C682 1.369 . S
C683 H686 0.928 . S
C684 N680 1.345 . S
C684 C685 1.371 . S
C684 H687 0.931 . S
C685 C681 1.391 . S
C685 C684 1.371 . S
C685 H692 0.930 . S
H686 C683 0.928 . S
H687 C684 0.931 . S
H688 C664 0.930 . S
H689 C661 0.930 . S
H690 C670 0.930 . S
H691 C682 0.929 . S
H692 C685 0.930 . S
C693 C694 1.351 . S
C693 N696 1.368 . S
C693 H698 0.931 . S
C694 C693 1.351 . S
C694 N695 1.373 . S
C694 H722 0.930 . S
N695 C694 1.373 . S
N695 C697 1.340 . S
N696 C693 1.368 . S
N696 C697 1.321 . S
N696 Co699 2.135 . S
C697 N695 1.340 . S
C697 N696 1.321 . S
C697 H721 0.930 . S
H698 C693 0.931 . S
Co699 N696 2.135 . S
Co699 N702 2.121 . S
Co699 O707 2.055 . S
Co699 O710 2.039 . S
Co699 N713 2.140 . S
C700 O701 1.227 . S
C700 O710 1.265 . S
O701 C700 1.227 . S
N702 Co699 2.121 . S
N702 C704 1.375 . S
N702 C705 1.313 . S
C703 C704 1.338 . S
C703 N706 1.377 . S
C703 H723 0.930 . S
C704 N702 1.375 . S
C704 C703 1.338 . S
C704 H708 0.931 . S
C705 N702 1.313 . S
C705 N706 1.344 . S
C705 H709 0.930 . S
N706 C703 1.377 . S
N706 C705 1.344 . S
O707 Co699 2.055 . S
O707 C711 1.253 . S
H708 C704 0.931 . S
H709 C705 0.930 . S
O710 Co699 2.039 . S
O710 C700 1.265 . S
C711 O707 1.253 . S
C711 O712 1.227 . S
O712 C711 1.227 . S
N713 Co699 2.140 . S
N713 C716 1.346 . S
N713 C717 1.345 . S
C714 C715 1.387 . S
C714 C718 1.391 . S
C715 C714 1.387 . S
C715 C716 1.369 . S
C715 H724 0.929 . S
C716 N713 1.346 . S
C716 C715 1.369 . S
C716 H719 0.928 . S
C717 N713 1.345 . S
C717 C718 1.371 . S
C717 H720 0.931 . S
C718 C714 1.391 . S
C718 C717 1.371 . S
C718 H725 0.930 . S
H719 C716 0.928 . S
H720 C717 0.931 . S
H721 C697 0.930 . S
H722 C694 0.930 . S
H723 C703 0.930 . S
H724 C715 0.929 . S
H725 C718 0.930 . S
C726 C727 1.351 . S
C726 N729 1.368 . S
C726 H731 0.931 . S
C727 C726 1.351 . S
C727 N728 1.373 . S
C727 H755 0.930 . S
N728 C727 1.373 . S
N728 C730 1.340 . S
N729 C726 1.368 . S
N729 C730 1.321 . S
N729 Co732 2.135 . S
C730 N728 1.340 . S
C730 N729 1.321 . S
C730 H754 0.930 . S
H731 C726 0.931 . S
Co732 N729 2.135 . S
Co732 N735 2.121 . S
Co732 O740 2.055 . S
Co732 O743 2.039 . S
Co732 N746 2.140 . S
C733 O734 1.227 . S
C733 O743 1.265 . S
O734 C733 1.227 . S
N735 Co732 2.121 . S
N735 C737 1.375 . S
N735 C738 1.313 . S
C736 C737 1.338 . S
C736 N739 1.377 . S
C736 H756 0.930 . S
C737 N735 1.375 . S
C737 C736 1.338 . S
C737 H741 0.931 . S
C738 N735 1.313 . S
C738 N739 1.344 . S
C738 H742 0.930 . S
N739 C736 1.377 . S
N739 C738 1.344 . S
O740 Co732 2.055 . S
O740 C744 1.253 . S
H741 C737 0.931 . S
H742 C738 0.930 . S
O743 Co732 2.039 . S
O743 C733 1.265 . S
C744 O740 1.253 . S
C744 O745 1.227 . S
O745 C744 1.227 . S
N746 Co732 2.140 . S
N746 C749 1.346 . S
N746 C750 1.345 . S
C747 C748 1.387 . S
C747 C751 1.391 . S
C748 C747 1.387 . S
C748 C749 1.369 . S
C748 H757 0.929 . S
C749 N746 1.346 . S
C749 C748 1.369 . S
C749 H752 0.928 . S
C750 N746 1.345 . S
C750 C751 1.371 . S
C750 H753 0.931 . S
C751 C747 1.391 . S
C751 C750 1.371 . S
C751 H758 0.930 . S
H752 C749 0.928 . S
H753 C750 0.931 . S
H754 C730 0.930 . S
H755 C727 0.930 . S
H756 C736 0.930 . S
H757 C748 0.929 . S
H758 C751 0.930 . S
C759 C760 1.351 . S
C759 N762 1.368 . S
C759 H764 0.931 . S
C760 C759 1.351 . S
C760 N761 1.373 . S
C760 H788 0.930 . S
N761 C760 1.373 . S
N761 C763 1.340 . S
N762 C759 1.368 . S
N762 C763 1.321 . S
N762 Co765 2.135 . S
C763 N761 1.340 . S
C763 N762 1.321 . S
C763 H787 0.930 . S
H764 C759 0.931 . S
Co765 N762 2.135 . S
Co765 N768 2.121 . S
Co765 O773 2.055 . S
Co765 O776 2.039 . S
Co765 N779 2.140 . S
C766 O767 1.227 . S
C766 O776 1.265 . S
O767 C766 1.227 . S
N768 Co765 2.121 . S
N768 C770 1.375 . S
N768 C771 1.313 . S
C769 C770 1.338 . S
C769 N772 1.377 . S
C769 H789 0.930 . S
C770 N768 1.375 . S
C770 C769 1.338 . S
C770 H774 0.931 . S
C771 N768 1.313 . S
C771 N772 1.344 . S
C771 H775 0.930 . S
N772 C769 1.377 . S
N772 C771 1.344 . S
O773 Co765 2.055 . S
O773 C777 1.253 . S
H774 C770 0.931 . S
H775 C771 0.930 . S
O776 Co765 2.039 . S
O776 C766 1.265 . S
C777 O773 1.253 . S
C777 O778 1.227 . S
O778 C777 1.227 . S
N779 Co765 2.140 . S
N779 C782 1.346 . S
N779 C783 1.345 . S
C780 C781 1.387 . S
C780 C784 1.391 . S
C781 C780 1.387 . S
C781 C782 1.369 . S
C781 H790 0.929 . S
C782 N779 1.346 . S
C782 C781 1.369 . S
C782 H785 0.928 . S
C783 N779 1.345 . S
C783 C784 1.371 . S
C783 H786 0.931 . S
C784 C780 1.391 . S
C784 C783 1.371 . S
C784 H791 0.930 . S
H785 C782 0.928 . S
H786 C783 0.931 . S
H787 C763 0.930 . S
H788 C760 0.930 . S
H789 C769 0.930 . S
H790 C781 0.929 . S
H791 C784 0.930 . S
C792 C793 1.351 . S
C792 N795 1.368 . S
C792 H797 0.931 . S
C793 C792 1.351 . S
C793 N794 1.373 . S
C793 H821 0.930 . S
N794 C793 1.373 . S
N794 C796 1.340 . S
N795 C792 1.368 . S
N795 C796 1.321 . S
N795 Co798 2.135 . S
C796 N794 1.340 . S
C796 N795 1.321 . S
C796 H820 0.930 . S
H797 C792 0.931 . S
Co798 N795 2.135 . S
Co798 N801 2.121 . S
Co798 O806 2.055 . S
Co798 O809 2.039 . S
Co798 N812 2.140 . S
C799 O800 1.227 . S
C799 O809 1.265 . S
O800 C799 1.227 . S
N801 Co798 2.121 . S
N801 C803 1.375 . S
N801 C804 1.313 . S
C802 C803 1.338 . S
C802 N805 1.377 . S
C802 H822 0.930 . S
C803 N801 1.375 . S
C803 C802 1.338 . S
C803 H807 0.931 . S
C804 N801 1.313 . S
C804 N805 1.344 . S
C804 H808 0.930 . S
N805 C802 1.377 . S
N805 C804 1.344 . S
O806 Co798 2.055 . S
O806 C810 1.253 . S
H807 C803 0.931 . S
H808 C804 0.930 . S
O809 Co798 2.039 . S
O809 C799 1.265 . S
C810 O806 1.253 . S
C810 O811 1.227 . S
O811 C810 1.227 . S
N812 Co798 2.140 . S
N812 C815 1.346 . S
N812 C816 1.345 . S
C813 C814 1.387 . S
C813 C817 1.391 . S
C814 C813 1.387 . S
C814 C815 1.369 . S
C814 H823 0.929 . S
C815 N812 1.346 . S
C815 C814 1.369 . S
C815 H818 0.928 . S
C816 N812 1.345 . S
C816 C817 1.371 . S
C816 H819 0.931 . S
C817 C813 1.391 . S
C817 C816 1.371 . S
C817 H824 0.930 . S
H818 C815 0.928 . S
H819 C816 0.931 . S
H820 C796 0.930 . S
H821 C793 0.930 . S
H822 C802 0.930 . S
H823 C814 0.929 . S
H824 C817 0.930 . S
C825 C826 1.351 . S
C825 N828 1.368 . S
C825 H830 0.931 . S
C826 C825 1.351 . S
C826 N827 1.373 . S
C826 H854 0.930 . S
N827 C826 1.373 . S
N827 C829 1.340 . S
N828 C825 1.368 . S
N828 C829 1.321 . S
N828 Co831 2.135 . S
C829 N827 1.340 . S
C829 N828 1.321 . S
C829 H853 0.930 . S
H830 C825 0.931 . S
Co831 N828 2.135 . S
Co831 N834 2.121 . S
Co831 O839 2.055 . S
Co831 O842 2.039 . S
Co831 N845 2.140 . S
C832 O833 1.227 . S
C832 O842 1.265 . S
O833 C832 1.227 . S
N834 Co831 2.121 . S
N834 C836 1.375 . S
N834 C837 1.313 . S
C835 C836 1.338 . S
C835 N838 1.377 . S
C835 H855 0.930 . S
C836 N834 1.375 . S
C836 C835 1.338 . S
C836 H840 0.931 . S
C837 N834 1.313 . S
C837 N838 1.344 . S
C837 H841 0.930 . S
N838 C835 1.377 . S
N838 C837 1.344 . S
O839 Co831 2.055 . S
O839 C843 1.253 . S
H840 C836 0.931 . S
H841 C837 0.930 . S
O842 Co831 2.039 . S
O842 C832 1.265 . S
C843 O839 1.253 . S
C843 O844 1.227 . S
O844 C843 1.227 . S
N845 Co831 2.140 . S
N845 C848 1.346 . S
N845 C849 1.345 . S
C846 C847 1.387 . S
C846 C850 1.391 . S
C847 C846 1.387 . S
C847 C848 1.369 . S
C847 H856 0.929 . S
C848 N845 1.346 . S
C848 C847 1.369 . S
C848 H851 0.928 . S
C849 N845 1.345 . S
C849 C850 1.371 . S
C849 H852 0.931 . S
C850 C846 1.391 . S
C850 C849 1.371 . S
C850 H857 0.930 . S
H851 C848 0.928 . S
H852 C849 0.931 . S
H853 C829 0.930 . S
H854 C826 0.930 . S
H855 C835 0.930 . S
H856 C847 0.929 . S
H857 C850 0.930 . S
C858 C859 1.351 . S
C858 N861 1.368 . S
C858 H863 0.931 . S
C859 C858 1.351 . S
C859 N860 1.373 . S
C859 H887 0.930 . S
N860 C859 1.373 . S
N860 C862 1.340 . S
N861 C858 1.368 . S
N861 C862 1.321 . S
N861 Co864 2.135 . S
C862 N860 1.340 . S
C862 N861 1.321 . S
C862 H886 0.930 . S
H863 C858 0.931 . S
Co864 N861 2.135 . S
Co864 N867 2.121 . S
Co864 O872 2.055 . S
Co864 O875 2.039 . S
Co864 N878 2.140 . S
C865 O866 1.227 . S
C865 O875 1.265 . S
O866 C865 1.227 . S
N867 Co864 2.121 . S
N867 C869 1.375 . S
N867 C870 1.313 . S
C868 C869 1.338 . S
C868 N871 1.377 . S
C868 H888 0.930 . S
C869 N867 1.375 . S
C869 C868 1.338 . S
C869 H873 0.931 . S
C870 N867 1.313 . S
C870 N871 1.344 . S
C870 H874 0.930 . S
N871 C868 1.377 . S
N871 C870 1.344 . S
O872 Co864 2.055 . S
O872 C876 1.253 . S
H873 C869 0.931 . S
H874 C870 0.930 . S
O875 Co864 2.039 . S
O875 C865 1.265 . S
C876 O872 1.253 . S
C876 O877 1.227 . S
O877 C876 1.227 . S
N878 Co864 2.140 . S
N878 C881 1.346 . S
N878 C882 1.345 . S
C879 C880 1.387 . S
C879 C883 1.391 . S
C880 C879 1.387 . S
C880 C881 1.369 . S
C880 H889 0.929 . S
C881 N878 1.346 . S
C881 C880 1.369 . S
C881 H884 0.928 . S
C882 N878 1.345 . S
C882 C883 1.371 . S
C882 H885 0.931 . S
C883 C879 1.391 . S
C883 C882 1.371 . S
C883 H890 0.930 . S
H884 C881 0.928 . S
H885 C882 0.931 . S
H886 C862 0.930 . S
H887 C859 0.930 . S
H888 C868 0.930 . S
H889 C880 0.929 . S
H890 C883 0.930 . S
C891 C892 1.351 . S
C891 N894 1.368 . S
C891 H896 0.931 . S
C892 C891 1.351 . S
C892 N893 1.373 . S
C892 H920 0.930 . S
N893 C892 1.373 . S
N893 C895 1.340 . S
N894 C891 1.368 . S
N894 C895 1.321 . S
N894 Co897 2.135 . S
C895 N893 1.340 . S
C895 N894 1.321 . S
C895 H919 0.930 . S
H896 C891 0.931 . S
Co897 N894 2.135 . S
Co897 N900 2.121 . S
Co897 O905 2.055 . S
Co897 O908 2.039 . S
Co897 N911 2.140 . S
C898 O899 1.227 . S
C898 O908 1.265 . S
O899 C898 1.227 . S
N900 Co897 2.121 . S
N900 C902 1.375 . S
N900 C903 1.313 . S
C901 C902 1.338 . S
C901 N904 1.377 . S
C901 H921 0.930 . S
C902 N900 1.375 . S
C902 C901 1.338 . S
C902 H906 0.931 . S
C903 N900 1.313 . S
C903 N904 1.344 . S
C903 H907 0.930 . S
N904 C901 1.377 . S
N904 C903 1.344 . S
O905 Co897 2.055 . S
O905 C909 1.253 . S
H906 C902 0.931 . S
H907 C903 0.930 . S
O908 Co897 2.039 . S
O908 C898 1.265 . S
C909 O905 1.253 . S
C909 O910 1.227 . S
O910 C909 1.227 . S
N911 Co897 2.140 . S
N911 C914 1.346 . S
N911 C915 1.345 . S
C912 C913 1.387 . S
C912 C916 1.391 . S
C913 C912 1.387 . S
C913 C914 1.369 . S
C913 H922 0.929 . S
C914 N911 1.346 . S
C914 C913 1.369 . S
C914 H917 0.928 . S
C915 N911 1.345 . S
C915 C916 1.371 . S
C915 H918 0.931 . S
C916 C912 1.391 . S
C916 C915 1.371 . S
C916 H923 0.930 . S
H917 C914 0.928 . S
H918 C915 0.931 . S
H919 C895 0.930 . S
H920 C892 0.930 . S
H921 C901 0.930 . S
H922 C913 0.929 . S
H923 C916 0.930 . S
C924 C925 1.351 . S
C924 N927 1.368 . S
C924 H929 0.931 . S
C925 C924 1.351 . S
C925 N926 1.373 . S
C925 H953 0.930 . S
N926 C925 1.373 . S
N926 C928 1.340 . S
N927 C924 1.368 . S
N927 C928 1.321 . S
N927 Co930 2.135 . S
C928 N926 1.340 . S
C928 N927 1.321 . S
C928 H952 0.930 . S
H929 C924 0.931 . S
Co930 N927 2.135 . S
Co930 N933 2.121 . S
Co930 O938 2.055 . S
Co930 O941 2.039 . S
Co930 N944 2.140 . S
C931 O932 1.227 . S
C931 O941 1.265 . S
O932 C931 1.227 . S
N933 Co930 2.121 . S
N933 C935 1.375 . S
N933 C936 1.313 . S
C934 C935 1.338 . S
C934 N937 1.377 . S
C934 H954 0.930 . S
C935 N933 1.375 . S
C935 C934 1.338 . S
C935 H939 0.931 . S
C936 N933 1.313 . S
C936 N937 1.344 . S
C936 H940 0.930 . S
N937 C934 1.377 . S
N937 C936 1.344 . S
O938 Co930 2.055 . S
O938 C942 1.253 . S
H939 C935 0.931 . S
H940 C936 0.930 . S
O941 Co930 2.039 . S
O941 C931 1.265 . S
C942 O938 1.253 . S
C942 O943 1.227 . S
O943 C942 1.227 . S
N944 Co930 2.140 . S
N944 C947 1.346 . S
N944 C948 1.345 . S
C945 C946 1.387 . S
C945 C949 1.391 . S
C946 C945 1.387 . S
C946 C947 1.369 . S
C946 H955 0.929 . S
C947 N944 1.346 . S
C947 C946 1.369 . S
C947 H950 0.928 . S
C948 N944 1.345 . S
C948 C949 1.371 . S
C948 H951 0.931 . S
C949 C945 1.391 . S
C949 C948 1.371 . S
C949 H956 0.930 . S
H950 C947 0.928 . S
H951 C948 0.931 . S
H952 C928 0.930 . S
H953 C925 0.930 . S
H954 C934 0.930 . S
H955 C946 0.929 . S
H956 C949 0.930 . S
C957 C958 1.351 . S
C957 N960 1.368 . S
C957 H962 0.931 . S
C958 C957 1.351 . S
C958 N959 1.373 . S
C958 H986 0.930 . S
N959 C958 1.373 . S
N959 C961 1.340 . S
N960 C957 1.368 . S
N960 C961 1.321 . S
N960 Co963 2.135 . S
C961 N959 1.340 . S
C961 N960 1.321 . S
C961 H985 0.930 . S
H962 C957 0.931 . S
Co963 N960 2.135 . S
Co963 N966 2.121 . S
Co963 O971 2.055 . S
Co963 O974 2.039 . S
Co963 N977 2.140 . S
C964 O965 1.227 . S
C964 O974 1.265 . S
O965 C964 1.227 . S
N966 Co963 2.121 . S
N966 C968 1.375 . S
N966 C969 1.313 . S
C967 C968 1.338 . S
C967 N970 1.377 . S
C967 H987 0.930 . S
C968 N966 1.375 . S
C968 C967 1.338 . S
C968 H972 0.931 . S
C969 N966 1.313 . S
C969 N970 1.344 . S
C969 H973 0.930 . S
N970 C967 1.377 . S
N970 C969 1.344 . S
O971 Co963 2.055 . S
O971 C975 1.253 . S
H972 C968 0.931 . S
H973 C969 0.930 . S
O974 Co963 2.039 . S
O974 C964 1.265 . S
C975 O971 1.253 . S
C975 O976 1.227 . S
O976 C975 1.227 . S
N977 Co963 2.140 . S
N977 C980 1.346 . S
N977 C981 1.345 . S
C978 C979 1.387 . S
C978 C982 1.391 . S
C979 C978 1.387 . S
C979 C980 1.369 . S
C979 H988 0.929 . S
C980 N977 1.346 . S
C980 C979 1.369 . S
C980 H983 0.928 . S
C981 N977 1.345 . S
C981 C982 1.371 . S
C981 H984 0.931 . S
C982 C978 1.391 . S
C982 C981 1.371 . S
C982 H989 0.930 . S
H983 C980 0.928 . S
H984 C981 0.931 . S
H985 C961 0.930 . S
H986 C958 0.930 . S
H987 C967 0.930 . S
H988 C979 0.929 . S
H989 C982 0.930 . S
C990 C991 1.351 . S
C990 N993 1.368 . S
C990 H995 0.931 . S
C991 C990 1.351 . S
C991 N992 1.373 . S
C991 H1019 0.930 . S
N992 C991 1.373 . S
N992 C994 1.340 . S
N993 C990 1.368 . S
N993 C994 1.321 . S
N993 Co996 2.135 . S
C994 N992 1.340 . S
C994 N993 1.321 . S
C994 H1018 0.930 . S
H995 C990 0.931 . S
Co996 N993 2.135 . S
Co996 N999 2.121 . S
Co996 O1004 2.055 . S
Co996 O1007 2.039 . S
Co996 N1010 2.140 . S
C997 O998 1.227 . S
C997 O1007 1.265 . S
O998 C997 1.227 . S
N999 Co996 2.121 . S
N999 C1001 1.375 . S
N999 C1002 1.313 . S
C1000 C1001 1.338 . S
C1000 N1003 1.377 . S
C1000 H1020 0.930 . S
C1001 N999 1.375 . S
C1001 C1000 1.338 . S
C1001 H1005 0.931 . S
C1002 N999 1.313 . S
C1002 N1003 1.344 . S
C1002 H1006 0.930 . S
N1003 C1000 1.377 . S
N1003 C1002 1.344 . S
O1004 Co996 2.055 . S
O1004 C1008 1.253 . S
H1005 C1001 0.931 . S
H1006 C1002 0.930 . S
O1007 Co996 2.039 . S
O1007 C997 1.265 . S
C1008 O1004 1.253 . S
C1008 O1009 1.227 . S
O1009 C1008 1.227 . S
N1010 Co996 2.140 . S
N1010 C1013 1.346 . S
N1010 C1014 1.345 . S
C1011 C1012 1.387 . S
C1011 C1015 1.391 . S
C1012 C1011 1.387 . S
C1012 C1013 1.369 . S
C1012 H1021 0.929 . S
C1013 N1010 1.346 . S
C1013 C1012 1.369 . S
C1013 H1016 0.928 . S
C1014 N1010 1.345 . S
C1014 C1015 1.371 . S
C1014 H1017 0.931 . S
C1015 C1011 1.391 . S
C1015 C1014 1.371 . S
C1015 H1022 0.930 . S
H1016 C1013 0.928 . S
H1017 C1014 0.931 . S
H1018 C994 0.930 . S
H1019 C991 0.930 . S
H1020 C1000 0.930 . S
H1021 C1012 0.929 . S
H1022 C1015 0.930 . S
C1023 C1024 1.351 . S
C1023 N1026 1.368 . S
C1023 H1028 0.931 . S
C1024 C1023 1.351 . S
C1024 N1025 1.373 . S
C1024 H1052 0.930 . S
N1025 C1024 1.373 . S
N1025 C1027 1.340 . S
N1026 C1023 1.368 . S
N1026 C1027 1.321 . S
N1026 Co1029 2.135 . S
C1027 N1025 1.340 . S
C1027 N1026 1.321 . S
C1027 H1051 0.930 . S
H1028 C1023 0.931 . S
Co1029 N1026 2.135 . S
Co1029 N1032 2.121 . S
Co1029 O1037 2.055 . S
Co1029 O1040 2.039 . S
Co1029 N1043 2.140 . S
C1030 O1031 1.227 . S
C1030 O1040 1.265 . S
O1031 C1030 1.227 . S
N1032 Co1029 2.121 . S
N1032 C1034 1.375 . S
N1032 C1035 1.313 . S
C1033 C1034 1.338 . S
C1033 N1036 1.377 . S
C1033 H1053 0.930 . S
C1034 N1032 1.375 . S
C1034 C1033 1.338 . S
C1034 H1038 0.931 . S
C1035 N1032 1.313 . S
C1035 N1036 1.344 . S
C1035 H1039 0.930 . S
N1036 C1033 1.377 . S
N1036 C1035 1.344 . S
O1037 Co1029 2.055 . S
O1037 C1041 1.253 . S
H1038 C1034 0.931 . S
H1039 C1035 0.930 . S
O1040 Co1029 2.039 . S
O1040 C1030 1.265 . S
C1041 O1037 1.253 . S
C1041 O1042 1.227 . S
O1042 C1041 1.227 . S
N1043 Co1029 2.140 . S
N1043 C1046 1.346 . S
N1043 C1047 1.345 . S
C1044 C1045 1.387 . S
C1044 C1048 1.391 . S
C1045 C1044 1.387 . S
C1045 C1046 1.369 . S
C1045 H1054 0.929 . S
C1046 N1043 1.346 . S
C1046 C1045 1.369 . S
C1046 H1049 0.928 . S
C1047 N1043 1.345 . S
C1047 C1048 1.371 . S
C1047 H1050 0.931 . S
C1048 C1044 1.391 . S
C1048 C1047 1.371 . S
C1048 H1055 0.930 . S
H1049 C1046 0.928 . S
H1050 C1047 0.931 . S
H1051 C1027 0.930 . S
H1052 C1024 0.930 . S
H1053 C1033 0.930 . S
H1054 C1045 0.929 . S
H1055 C1048 0.930 . S
C1056 C1057 1.351 . S
C1056 N1059 1.368 . S
C1056 H1061 0.931 . S
C1057 C1056 1.351 . S
C1057 N1058 1.373 . S
C1057 H1085 0.930 . S
N1058 C1057 1.373 . S
N1058 C1060 1.340 . S
N1059 C1056 1.368 . S
N1059 C1060 1.321 . S
N1059 Co1062 2.135 . S
C1060 N1058 1.340 . S
C1060 N1059 1.321 . S
C1060 H1084 0.930 . S
H1061 C1056 0.931 . S
Co1062 N1059 2.135 . S
Co1062 N1065 2.121 . S
Co1062 O1070 2.055 . S
Co1062 O1073 2.039 . S
Co1062 N1076 2.140 . S
C1063 O1064 1.227 . S
C1063 O1073 1.265 . S
O1064 C1063 1.227 . S
N1065 Co1062 2.121 . S
N1065 C1067 1.375 . S
N1065 C1068 1.313 . S
C1066 C1067 1.338 . S
C1066 N1069 1.377 . S
C1066 H1086 0.930 . S
C1067 N1065 1.375 . S
C1067 C1066 1.338 . S
C1067 H1071 0.931 . S
C1068 N1065 1.313 . S
C1068 N1069 1.344 . S
C1068 H1072 0.930 . S
N1069 C1066 1.377 . S
N1069 C1068 1.344 . S
O1070 Co1062 2.055 . S
O1070 C1074 1.253 . S
H1071 C1067 0.931 . S
H1072 C1068 0.930 . S
O1073 Co1062 2.039 . S
O1073 C1063 1.265 . S
C1074 O1070 1.253 . S
C1074 O1075 1.227 . S
O1075 C1074 1.227 . S
N1076 Co1062 2.140 . S
N1076 C1079 1.346 . S
N1076 C1080 1.345 . S
C1077 C1078 1.387 . S
C1077 C1081 1.391 . S
C1078 C1077 1.387 . S
C1078 C1079 1.369 . S
C1078 H1087 0.929 . S
C1079 N1076 1.346 . S
C1079 C1078 1.369 . S
C1079 H1082 0.928 . S
C1080 N1076 1.345 . S
C1080 C1081 1.371 . S
C1080 H1083 0.931 . S
C1081 C1077 1.391 . S
C1081 C1080 1.371 . S
C1081 H1088 0.930 . S
H1082 C1079 0.928 . S
H1083 C1080 0.931 . S
H1084 C1060 0.930 . S
H1085 C1057 0.930 . S
H1086 C1066 0.930 . S
H1087 C1078 0.929 . S
H1088 C1081 0.930 . S
C1089 C1090 1.351 . S
C1089 N1092 1.368 . S
C1089 H1094 0.931 . S
C1090 C1089 1.351 . S
C1090 N1091 1.373 . S
C1090 H1118 0.930 . S
N1091 C1090 1.373 . S
N1091 C1093 1.340 . S
N1092 C1089 1.368 . S
N1092 C1093 1.321 . S
N1092 Co1095 2.135 . S
C1093 N1091 1.340 . S
C1093 N1092 1.321 . S
C1093 H1117 0.930 . S
H1094 C1089 0.931 . S
Co1095 N1092 2.135 . S
Co1095 N1098 2.121 . S
Co1095 O1103 2.055 . S
Co1095 O1106 2.039 . S
Co1095 N1109 2.140 . S
C1096 O1097 1.227 . S
C1096 O1106 1.265 . S
O1097 C1096 1.227 . S
N1098 Co1095 2.121 . S
N1098 C1100 1.375 . S
N1098 C1101 1.313 . S
C1099 C1100 1.338 . S
C1099 N1102 1.377 . S
C1099 H1119 0.930 . S
C1100 N1098 1.375 . S
C1100 C1099 1.338 . S
C1100 H1104 0.931 . S
C1101 N1098 1.313 . S
C1101 N1102 1.344 . S
C1101 H1105 0.930 . S
N1102 C1099 1.377 . S
N1102 C1101 1.344 . S
O1103 Co1095 2.055 . S
O1103 C1107 1.253 . S
H1104 C1100 0.931 . S
H1105 C1101 0.930 . S
O1106 Co1095 2.039 . S
O1106 C1096 1.265 . S
C1107 O1103 1.253 . S
C1107 O1108 1.227 . S
O1108 C1107 1.227 . S
N1109 Co1095 2.140 . S
N1109 C1112 1.346 . S
N1109 C1113 1.345 . S
C1110 C1111 1.387 . S
C1110 C1114 1.391 . S
C1111 C1110 1.387 . S
C1111 C1112 1.369 . S
C1111 H1120 0.929 . S
C1112 N1109 1.346 . S
C1112 C1111 1.369 . S
C1112 H1115 0.928 . S
C1113 N1109 1.345 . S
C1113 C1114 1.371 . S
C1113 H1116 0.931 . S
C1114 C1110 1.391 . S
C1114 C1113 1.371 . S
C1114 H1121 0.930 . S
H1115 C1112 0.928 . S
H1116 C1113 0.931 . S
H1117 C1093 0.930 . S
H1118 C1090 0.930 . S
H1119 C1099 0.930 . S
H1120 C1111 0.929 . S
H1121 C1114 0.930 . S
C1122 C1123 1.351 . S
C1122 N1125 1.368 . S
C1122 H1127 0.931 . S
C1123 C1122 1.351 . S
C1123 N1124 1.373 . S
C1123 H1151 0.930 . S
N1124 C1123 1.373 . S
N1124 C1126 1.340 . S
N1125 C1122 1.368 . S
N1125 C1126 1.321 . S
N1125 Co1128 2.135 . S
C1126 N1124 1.340 . S
C1126 N1125 1.321 . S
C1126 H1150 0.930 . S
H1127 C1122 0.931 . S
Co1128 N1125 2.135 . S
Co1128 N1131 2.121 . S
Co1128 O1136 2.055 . S
Co1128 O1139 2.039 . S
Co1128 N1142 2.140 . S
C1129 O1130 1.227 . S
C1129 O1139 1.265 . S
O1130 C1129 1.227 . S
N1131 Co1128 2.121 . S
N1131 C1133 1.375 . S
N1131 C1134 1.313 . S
C1132 C1133 1.338 . S
C1132 N1135 1.377 . S
C1132 H1152 0.930 . S
C1133 N1131 1.375 . S
C1133 C1132 1.338 . S
C1133 H1137 0.931 . S
C1134 N1131 1.313 . S
C1134 N1135 1.344 . S
C1134 H1138 0.930 . S
N1135 C1132 1.377 . S
N1135 C1134 1.344 . S
O1136 Co1128 2.055 . S
O1136 C1140 1.253 . S
H1137 C1133 0.931 . S
H1138 C1134 0.930 . S
O1139 Co1128 2.039 . S
O1139 C1129 1.265 . S
C1140 O1136 1.253 . S
C1140 O1141 1.227 . S
O1141 C1140 1.227 . S
N1142 Co1128 2.140 . S
N1142 C1145 1.346 . S
N1142 C1146 1.345 . S
C1143 C1144 1.387 . S
C1143 C1147 1.391 . S
C1144 C1143 1.387 . S
C1144 C1145 1.369 . S
C1144 H1153 0.929 . S
C1145 N1142 1.346 . S
C1145 C1144 1.369 . S
C1145 H1148 0.928 . S
C1146 N1142 1.345 . S
C1146 C1147 1.371 . S
C1146 H1149 0.931 . S
C1147 C1143 1.391 . S
C1147 C1146 1.371 . S
C1147 H1154 0.930 . S
H1148 C1145 0.928 . S
H1149 C1146 0.931 . S
H1150 C1126 0.930 . S
H1151 C1123 0.930 . S
H1152 C1132 0.930 . S
H1153 C1144 0.929 . S
H1154 C1147 0.930 . S
C1155 C1156 1.351 . S
C1155 N1158 1.368 . S
C1155 H1160 0.931 . S
C1156 C1155 1.351 . S
C1156 N1157 1.373 . S
C1156 H1184 0.930 . S
N1157 C1156 1.373 . S
N1157 C1159 1.340 . S
N1158 C1155 1.368 . S
N1158 C1159 1.321 . S
N1158 Co1161 2.135 . S
C1159 N1157 1.340 . S
C1159 N1158 1.321 . S
C1159 H1183 0.930 . S
H1160 C1155 0.931 . S
Co1161 N1158 2.135 . S
Co1161 N1164 2.121 . S
Co1161 O1169 2.055 . S
Co1161 O1172 2.039 . S
Co1161 N1175 2.140 . S
C1162 O1163 1.227 . S
C1162 O1172 1.265 . S
O1163 C1162 1.227 . S
N1164 Co1161 2.121 . S
N1164 C1166 1.375 . S
N1164 C1167 1.313 . S
C1165 C1166 1.338 . S
C1165 N1168 1.377 . S
C1165 H1185 0.930 . S
C1166 N1164 1.375 . S
C1166 C1165 1.338 . S
C1166 H1170 0.931 . S
C1167 N1164 1.313 . S
C1167 N1168 1.344 . S
C1167 H1171 0.930 . S
N1168 C1165 1.377 . S
N1168 C1167 1.344 . S
O1169 Co1161 2.055 . S
O1169 C1173 1.253 . S
H1170 C1166 0.931 . S
H1171 C1167 0.930 . S
O1172 Co1161 2.039 . S
O1172 C1162 1.265 . S
C1173 O1169 1.253 . S
C1173 O1174 1.227 . S
O1174 C1173 1.227 . S
N1175 Co1161 2.140 . S
N1175 C1178 1.346 . S
N1175 C1179 1.345 . S
C1176 C1177 1.387 . S
C1176 C1180 1.391 . S
C1177 C1176 1.387 . S
C1177 C1178 1.369 . S
C1177 H1186 0.929 . S
C1178 N1175 1.346 . S
C1178 C1177 1.369 . S
C1178 H1181 0.928 . S
C1179 N1175 1.345 . S
C1179 C1180 1.371 . S
C1179 H1182 0.931 . S
C1180 C1176 1.391 . S
C1180 C1179 1.371 . S
C1180 H1187 0.930 . S
H1181 C1178 0.928 . S
H1182 C1179 0.931 . S
H1183 C1159 0.930 . S
H1184 C1156 0.930 . S
H1185 C1165 0.930 . S
H1186 C1177 0.929 . S
H1187 C1180 0.930 . S
C1188 C1189 1.351 . S
C1188 N1191 1.368 . S
C1188 H1193 0.931 . S
C1189 C1188 1.351 . S
C1189 N1190 1.373 . S
C1189 H1217 0.930 . S
N1190 C1189 1.373 . S
N1190 C1192 1.340 . S
N1191 C1188 1.368 . S
N1191 C1192 1.321 . S
N1191 Co1194 2.135 . S
C1192 N1190 1.340 . S
C1192 N1191 1.321 . S
C1192 H1216 0.930 . S
H1193 C1188 0.931 . S
Co1194 N1191 2.135 . S
Co1194 N1197 2.121 . S
Co1194 O1202 2.055 . S
Co1194 O1205 2.039 . S
Co1194 N1208 2.140 . S
C1195 O1196 1.227 . S
C1195 O1205 1.265 . S
O1196 C1195 1.227 . S
N1197 Co1194 2.121 . S
N1197 C1199 1.375 . S
N1197 C1200 1.313 . S
C1198 C1199 1.338 . S
C1198 N1201 1.377 . S
C1198 H1218 0.930 . S
C1199 N1197 1.375 . S
C1199 C1198 1.338 . S
C1199 H1203 0.931 . S
C1200 N1197 1.313 . S
C1200 N1201 1.344 . S
C1200 H1204 0.930 . S
N1201 C1198 1.377 . S
N1201 C1200 1.344 . S
O1202 Co1194 2.055 . S
O1202 C1206 1.253 . S
H1203 C1199 0.931 . S
H1204 C1200 0.930 . S
O1205 Co1194 2.039 . S
O1205 C1195 1.265 . S
C1206 O1202 1.253 . S
C1206 O1207 1.227 . S
O1207 C1206 1.227 . S
N1208 Co1194 2.140 . S
N1208 C1211 1.346 . S
N1208 C1212 1.345 . S
C1209 C1210 1.387 . S
C1209 C1213 1.391 . S
C1210 C1209 1.387 . S
C1210 C1211 1.369 . S
C1210 H1219 0.929 . S
C1211 N1208 1.346 . S
C1211 C1210 1.369 . S
C1211 H1214 0.928 . S
C1212 N1208 1.345 . S
C1212 C1213 1.371 . S
C1212 H1215 0.931 . S
C1213 C1209 1.391 . S
C1213 C1212 1.371 . S
C1213 H1220 0.930 . S
H1214 C1211 0.928 . S
H1215 C1212 0.931 . S
H1216 C1192 0.930 . S
H1217 C1189 0.930 . S
H1218 C1198 0.930 . S
H1219 C1210 0.929 . S
H1220 C1213 0.930 . S
C1221 C1222 1.351 . S
C1221 N1224 1.368 . S
C1221 H1226 0.931 . S
C1222 C1221 1.351 . S
C1222 N1223 1.373 . S
C1222 H1250 0.930 . S
N1223 C1222 1.373 . S
N1223 C1225 1.340 . S
N1224 C1221 1.368 . S
N1224 C1225 1.321 . S
N1224 Co1227 2.135 . S
C1225 N1223 1.340 . S
C1225 N1224 1.321 . S
C1225 H1249 0.930 . S
H1226 C1221 0.931 . S
Co1227 N1224 2.135 . S
Co1227 N1230 2.121 . S
Co1227 O1235 2.055 . S
Co1227 O1238 2.039 . S
Co1227 N1241 2.140 . S
C1228 O1229 1.227 . S
C1228 O1238 1.265 . S
O1229 C1228 1.227 . S
N1230 Co1227 2.121 . S
N1230 C1232 1.375 . S
N1230 C1233 1.313 . S
C1231 C1232 1.338 . S
C1231 N1234 1.377 . S
C1231 H1251 0.930 . S
C1232 N1230 1.375 . S
C1232 C1231 1.338 . S
C1232 H1236 0.931 . S
C1233 N1230 1.313 . S
C1233 N1234 1.344 . S
C1233 H1237 0.930 . S
N1234 C1231 1.377 . S
N1234 C1233 1.344 . S
O1235 Co1227 2.055 . S
O1235 C1239 1.253 . S
H1236 C1232 0.931 . S
H1237 C1233 0.930 . S
O1238 Co1227 2.039 . S
O1238 C1228 1.265 . S
C1239 O1235 1.253 . S
C1239 O1240 1.227 . S
O1240 C1239 1.227 . S
N1241 Co1227 2.140 . S
N1241 C1244 1.346 . S
N1241 C1245 1.345 . S
C1242 C1243 1.387 . S
C1242 C1246 1.391 . S
C1243 C1242 1.387 . S
C1243 C1244 1.369 . S
C1243 H1252 0.929 . S
C1244 N1241 1.346 . S
C1244 C1243 1.369 . S
C1244 H1247 0.928 . S
C1245 N1241 1.345 . S
C1245 C1246 1.371 . S
C1245 H1248 0.931 . S
C1246 C1242 1.391 . S
C1246 C1245 1.371 . S
C1246 H1253 0.930 . S
H1247 C1244 0.928 . S
H1248 C1245 0.931 . S
H1249 C1225 0.930 . S
H1250 C1222 0.930 . S
H1251 C1231 0.930 . S
H1252 C1243 0.929 . S
H1253 C1246 0.930 . S
C1254 C1255 1.351 . S
C1254 N1257 1.368 . S
C1254 H1259 0.931 . S
C1255 C1254 1.351 . S
C1255 N1256 1.373 . S
C1255 H1283 0.930 . S
N1256 C1255 1.373 . S
N1256 C1258 1.340 . S
N1257 C1254 1.368 . S
N1257 C1258 1.321 . S
N1257 Co1260 2.135 . S
C1258 N1256 1.340 . S
C1258 N1257 1.321 . S
C1258 H1282 0.930 . S
H1259 C1254 0.931 . S
Co1260 N1257 2.135 . S
Co1260 N1263 2.121 . S
Co1260 O1268 2.055 . S
Co1260 O1271 2.039 . S
Co1260 N1274 2.140 . S
C1261 O1262 1.227 . S
C1261 O1271 1.265 . S
O1262 C1261 1.227 . S
N1263 Co1260 2.121 . S
N1263 C1265 1.375 . S
N1263 C1266 1.313 . S
C1264 C1265 1.338 . S
C1264 N1267 1.377 . S
C1264 H1284 0.930 . S
C1265 N1263 1.375 . S
C1265 C1264 1.338 . S
C1265 H1269 0.931 . S
C1266 N1263 1.313 . S
C1266 N1267 1.344 . S
C1266 H1270 0.930 . S
N1267 C1264 1.377 . S
N1267 C1266 1.344 . S
O1268 Co1260 2.055 . S
O1268 C1272 1.253 . S
H1269 C1265 0.931 . S
H1270 C1266 0.930 . S
O1271 Co1260 2.039 . S
O1271 C1261 1.265 . S
C1272 O1268 1.253 . S
C1272 O1273 1.227 . S
O1273 C1272 1.227 . S
N1274 Co1260 2.140 . S
N1274 C1277 1.346 . S
N1274 C1278 1.345 . S
C1275 C1276 1.387 . S
C1275 C1279 1.391 . S
C1276 C1275 1.387 . S
C1276 C1277 1.369 . S
C1276 H1285 0.929 . S
C1277 N1274 1.346 . S
C1277 C1276 1.369 . S
C1277 H1280 0.928 . S
C1278 N1274 1.345 . S
C1278 C1279 1.371 . S
C1278 H1281 0.931 . S
C1279 C1275 1.391 . S
C1279 C1278 1.371 . S
C1279 H1286 0.930 . S
H1280 C1277 0.928 . S
H1281 C1278 0.931 . S
H1282 C1258 0.930 . S
H1283 C1255 0.930 . S
H1284 C1264 0.930 . S
H1285 C1276 0.929 . S
H1286 C1279 0.930 . S
C1287 C1288 1.351 . S
C1287 N1290 1.368 . S
C1287 H1292 0.931 . S
C1288 C1287 1.351 . S
C1288 N1289 1.373 . S
C1288 H1316 0.930 . S
N1289 C1288 1.373 . S
N1289 C1291 1.340 . S
N1290 C1287 1.368 . S
N1290 C1291 1.321 . S
N1290 Co1293 2.135 . S
C1291 N1289 1.340 . S
C1291 N1290 1.321 . S
C1291 H1315 0.930 . S
H1292 C1287 0.931 . S
Co1293 N1290 2.135 . S
Co1293 N1296 2.121 . S
Co1293 O1301 2.055 . S
Co1293 O1304 2.039 . S
Co1293 N1307 2.140 . S
C1294 O1295 1.227 . S
C1294 O1304 1.265 . S
O1295 C1294 1.227 . S
N1296 Co1293 2.121 . S
N1296 C1298 1.375 . S
N1296 C1299 1.313 . S
C1297 C1298 1.338 . S
C1297 N1300 1.377 . S
C1297 H1317 0.930 . S
C1298 N1296 1.375 . S
C1298 C1297 1.338 . S
C1298 H1302 0.931 . S
C1299 N1296 1.313 . S
C1299 N1300 1.344 . S
C1299 H1303 0.930 . S
N1300 C1297 1.377 . S
N1300 C1299 1.344 . S
O1301 Co1293 2.055 . S
O1301 C1305 1.253 . S
H1302 C1298 0.931 . S
H1303 C1299 0.930 . S
O1304 Co1293 2.039 . S
O1304 C1294 1.265 . S
C1305 O1301 1.253 . S
C1305 O1306 1.227 . S
O1306 C1305 1.227 . S
N1307 Co1293 2.140 . S
N1307 C1310 1.346 . S
N1307 C1311 1.345 . S
C1308 C1309 1.387 . S
C1308 C1312 1.391 . S
C1309 C1308 1.387 . S
C1309 C1310 1.369 . S
C1309 H1318 0.929 . S
C1310 N1307 1.346 . S
C1310 C1309 1.369 . S
C1310 H1313 0.928 . S
C1311 N1307 1.345 . S
C1311 C1312 1.371 . S
C1311 H1314 0.931 . S
C1312 C1308 1.391 . S
C1312 C1311 1.371 . S
C1312 H1319 0.930 . S
H1313 C1310 0.928 . S
H1314 C1311 0.931 . S
H1315 C1291 0.930 . S
H1316 C1288 0.930 . S
H1317 C1297 0.930 . S
H1318 C1309 0.929 . S
H1319 C1312 0.930 . S
C1320 C1321 1.351 . S
C1320 N1323 1.368 . S
C1320 H1325 0.931 . S
C1321 C1320 1.351 . S
C1321 N1322 1.373 . S
C1321 H1349 0.930 . S
N1322 C1321 1.373 . S
N1322 C1324 1.340 . S
N1323 C1320 1.368 . S
N1323 C1324 1.321 . S
N1323 Co1326 2.135 . S
C1324 N1322 1.340 . S
C1324 N1323 1.321 . S
C1324 H1348 0.930 . S
H1325 C1320 0.931 . S
Co1326 N1323 2.135 . S
Co1326 N1329 2.121 . S
Co1326 O1334 2.055 . S
Co1326 O1337 2.039 . S
Co1326 N1340 2.140 . S
C1327 O1328 1.227 . S
C1327 O1337 1.265 . S
O1328 C1327 1.227 . S
N1329 Co1326 2.121 . S
N1329 C1331 1.375 . S
N1329 C1332 1.313 . S
C1330 C1331 1.338 . S
C1330 N1333 1.377 . S
C1330 H1350 0.930 . S
C1331 N1329 1.375 . S
C1331 C1330 1.338 . S
C1331 H1335 0.931 . S
C1332 N1329 1.313 . S
C1332 N1333 1.344 . S
C1332 H1336 0.930 . S
N1333 C1330 1.377 . S
N1333 C1332 1.344 . S
O1334 Co1326 2.055 . S
O1334 C1338 1.253 . S
H1335 C1331 0.931 . S
H1336 C1332 0.930 . S
O1337 Co1326 2.039 . S
O1337 C1327 1.265 . S
C1338 O1334 1.253 . S
C1338 O1339 1.227 . S
O1339 C1338 1.227 . S
N1340 Co1326 2.140 . S
N1340 C1343 1.346 . S
N1340 C1344 1.345 . S
C1341 C1342 1.387 . S
C1341 C1345 1.391 . S
C1342 C1341 1.387 . S
C1342 C1343 1.369 . S
C1342 H1351 0.929 . S
C1343 N1340 1.346 . S
C1343 C1342 1.369 . S
C1343 H1346 0.928 . S
C1344 N1340 1.345 . S
C1344 C1345 1.371 . S
C1344 H1347 0.931 . S
C1345 C1341 1.391 . S
C1345 C1344 1.371 . S
C1345 H1352 0.930 . S
H1346 C1343 0.928 . S
H1347 C1344 0.931 . S
H1348 C1324 0.930 . S
H1349 C1321 0.930 . S
H1350 C1330 0.930 . S
H1351 C1342 0.929 . S
H1352 C1345 0.930 . S
C1353 C1354 1.351 . S
C1353 N1356 1.368 . S
C1353 H1358 0.931 . S
C1354 C1353 1.351 . S
C1354 N1355 1.373 . S
C1354 H1382 0.930 . S
N1355 C1354 1.373 . S
N1355 C1357 1.340 . S
N1356 C1353 1.368 . S
N1356 C1357 1.321 . S
N1356 Co1359 2.135 . S
C1357 N1355 1.340 . S
C1357 N1356 1.321 . S
C1357 H1381 0.930 . S
H1358 C1353 0.931 . S
Co1359 N1356 2.135 . S
Co1359 N1362 2.121 . S
Co1359 O1367 2.055 . S
Co1359 O1370 2.039 . S
Co1359 N1373 2.140 . S
C1360 O1361 1.227 . S
C1360 O1370 1.265 . S
O1361 C1360 1.227 . S
N1362 Co1359 2.121 . S
N1362 C1364 1.375 . S
N1362 C1365 1.313 . S
C1363 C1364 1.338 . S
C1363 N1366 1.377 . S
C1363 H1383 0.930 . S
C1364 N1362 1.375 . S
C1364 C1363 1.338 . S
C1364 H1368 0.931 . S
C1365 N1362 1.313 . S
C1365 N1366 1.344 . S
C1365 H1369 0.930 . S
N1366 C1363 1.377 . S
N1366 C1365 1.344 . S
O1367 Co1359 2.055 . S
O1367 C1371 1.253 . S
H1368 C1364 0.931 . S
H1369 C1365 0.930 . S
O1370 Co1359 2.039 . S
O1370 C1360 1.265 . S
C1371 O1367 1.253 . S
C1371 O1372 1.227 . S
O1372 C1371 1.227 . S
N1373 Co1359 2.140 . S
N1373 C1376 1.346 . S
N1373 C1377 1.345 . S
C1374 C1375 1.387 . S
C1374 C1378 1.391 . S
C1375 C1374 1.387 . S
C1375 C1376 1.369 . S
C1375 H1384 0.929 . S
C1376 N1373 1.346 . S
C1376 C1375 1.369 . S
C1376 H1379 0.928 . S
C1377 N1373 1.345 . S
C1377 C1378 1.371 . S
C1377 H1380 0.931 . S
C1378 C1374 1.391 . S
C1378 C1377 1.371 . S
C1378 H1385 0.930 . S
H1379 C1376 0.928 . S
H1380 C1377 0.931 . S
H1381 C1357 0.930 . S
H1382 C1354 0.930 . S
H1383 C1363 0.930 . S
H1384 C1375 0.929 . S
H1385 C1378 0.930 . S
C1386 C1387 1.351 . S
C1386 N1389 1.368 . S
C1386 H1391 0.931 . S
C1387 C1386 1.351 . S
C1387 N1388 1.373 . S
C1387 H1415 0.930 . S
N1388 C1387 1.373 . S
N1388 C1390 1.340 . S
N1389 C1386 1.368 . S
N1389 C1390 1.321 . S
N1389 Co1392 2.135 . S
C1390 N1388 1.340 . S
C1390 N1389 1.321 . S
C1390 H1414 0.930 . S
H1391 C1386 0.931 . S
Co1392 N1389 2.135 . S
Co1392 N1395 2.121 . S
Co1392 O1400 2.055 . S
Co1392 O1403 2.039 . S
Co1392 N1406 2.140 . S
C1393 O1394 1.227 . S
C1393 O1403 1.265 . S
O1394 C1393 1.227 . S
N1395 Co1392 2.121 . S
N1395 C1397 1.375 . S
N1395 C1398 1.313 . S
C1396 C1397 1.338 . S
C1396 N1399 1.377 . S
C1396 H1416 0.930 . S
C1397 N1395 1.375 . S
C1397 C1396 1.338 . S
C1397 H1401 0.931 . S
C1398 N1395 1.313 . S
C1398 N1399 1.344 . S
C1398 H1402 0.930 . S
N1399 C1396 1.377 . S
N1399 C1398 1.344 . S
O1400 Co1392 2.055 . S
O1400 C1404 1.253 . S
H1401 C1397 0.931 . S
H1402 C1398 0.930 . S
O1403 Co1392 2.039 . S
O1403 C1393 1.265 . S
C1404 O1400 1.253 . S
C1404 O1405 1.227 . S
O1405 C1404 1.227 . S
N1406 Co1392 2.140 . S
N1406 C1409 1.346 . S
N1406 C1410 1.345 . S
C1407 C1408 1.387 . S
C1407 C1411 1.391 . S
C1408 C1407 1.387 . S
C1408 C1409 1.369 . S
C1408 H1417 0.929 . S
C1409 N1406 1.346 . S
C1409 C1408 1.369 . S
C1409 H1412 0.928 . S
C1410 N1406 1.345 . S
C1410 C1411 1.371 . S
C1410 H1413 0.931 . S
C1411 C1407 1.391 . S
C1411 C1410 1.371 . S
C1411 H1418 0.930 . S
H1412 C1409 0.928 . S
H1413 C1410 0.931 . S
H1414 C1390 0.930 . S
H1415 C1387 0.930 . S
H1416 C1396 0.930 . S
H1417 C1408 0.929 . S
H1418 C1411 0.930 . S
C1419 C1420 1.351 . S
C1419 N1422 1.368 . S
C1419 H1424 0.931 . S
C1420 C1419 1.351 . S
C1420 N1421 1.373 . S
C1420 H1448 0.930 . S
N1421 C1420 1.373 . S
N1421 C1423 1.340 . S
N1422 C1419 1.368 . S
N1422 C1423 1.321 . S
N1422 Co1425 2.135 . S
C1423 N1421 1.340 . S
C1423 N1422 1.321 . S
C1423 H1447 0.930 . S
H1424 C1419 0.931 . S
Co1425 N1422 2.135 . S
Co1425 N1428 2.121 . S
Co1425 O1433 2.055 . S
Co1425 O1436 2.039 . S
Co1425 N1439 2.140 . S
C1426 O1427 1.227 . S
C1426 O1436 1.265 . S
O1427 C1426 1.227 . S
N1428 Co1425 2.121 . S
N1428 C1430 1.375 . S
N1428 C1431 1.313 . S
C1429 C1430 1.338 . S
C1429 N1432 1.377 . S
C1429 H1449 0.930 . S
C1430 N1428 1.375 . S
C1430 C1429 1.338 . S
C1430 H1434 0.931 . S
C1431 N1428 1.313 . S
C1431 N1432 1.344 . S
C1431 H1435 0.930 . S
N1432 C1429 1.377 . S
N1432 C1431 1.344 . S
O1433 Co1425 2.055 . S
O1433 C1437 1.253 . S
H1434 C1430 0.931 . S
H1435 C1431 0.930 . S
O1436 Co1425 2.039 . S
O1436 C1426 1.265 . S
C1437 O1433 1.253 . S
C1437 O1438 1.227 . S
O1438 C1437 1.227 . S
N1439 Co1425 2.140 . S
N1439 C1442 1.346 . S
N1439 C1443 1.345 . S
C1440 C1441 1.387 . S
C1440 C1444 1.391 . S
C1441 C1440 1.387 . S
C1441 C1442 1.369 . S
C1441 H1450 0.929 . S
C1442 N1439 1.346 . S
C1442 C1441 1.369 . S
C1442 H1445 0.928 . S
C1443 N1439 1.345 . S
C1443 C1444 1.371 . S
C1443 H1446 0.931 . S
C1444 C1440 1.391 . S
C1444 C1443 1.371 . S
C1444 H1451 0.930 . S
H1445 C1442 0.928 . S
H1446 C1443 0.931 . S
H1447 C1423 0.930 . S
H1448 C1420 0.930 . S
H1449 C1429 0.930 . S
H1450 C1441 0.929 . S
H1451 C1444 0.930 . S
C1452 C1453 1.351 . S
C1452 N1455 1.368 . S
C1452 H1457 0.931 . S
C1453 C1452 1.351 . S
C1453 N1454 1.373 . S
C1453 H1481 0.930 . S
N1454 C1453 1.373 . S
N1454 C1456 1.340 . S
N1455 C1452 1.368 . S
N1455 C1456 1.321 . S
N1455 Co1458 2.135 . S
C1456 N1454 1.340 . S
C1456 N1455 1.321 . S
C1456 H1480 0.930 . S
H1457 C1452 0.931 . S
Co1458 N1455 2.135 . S
Co1458 N1461 2.121 . S
Co1458 O1466 2.055 . S
Co1458 O1469 2.039 . S
Co1458 N1472 2.140 . S
C1459 O1460 1.227 . S
C1459 O1469 1.265 . S
O1460 C1459 1.227 . S
N1461 Co1458 2.121 . S
N1461 C1463 1.375 . S
N1461 C1464 1.313 . S
C1462 C1463 1.338 . S
C1462 N1465 1.377 . S
C1462 H1482 0.930 . S
C1463 N1461 1.375 . S
C1463 C1462 1.338 . S
C1463 H1467 0.931 . S
C1464 N1461 1.313 . S
C1464 N1465 1.344 . S
C1464 H1468 0.930 . S
N1465 C1462 1.377 . S
N1465 C1464 1.344 . S
O1466 Co1458 2.055 . S
O1466 C1470 1.253 . S
H1467 C1463 0.931 . S
H1468 C1464 0.930 . S
O1469 Co1458 2.039 . S
O1469 C1459 1.265 . S
C1470 O1466 1.253 . S
C1470 O1471 1.227 . S
O1471 C1470 1.227 . S
N1472 Co1458 2.140 . S
N1472 C1475 1.346 . S
N1472 C1476 1.345 . S
C1473 C1474 1.387 . S
C1473 C1477 1.391 . S
C1474 C1473 1.387 . S
C1474 C1475 1.369 . S
C1474 H1483 0.929 . S
C1475 N1472 1.346 . S
C1475 C1474 1.369 . S
C1475 H1478 0.928 . S
C1476 N1472 1.345 . S
C1476 C1477 1.371 . S
C1476 H1479 0.931 . S
C1477 C1473 1.391 . S
C1477 C1476 1.371 . S
C1477 H1484 0.930 . S
H1478 C1475 0.928 . S
H1479 C1476 0.931 . S
H1480 C1456 0.930 . S
H1481 C1453 0.930 . S
H1482 C1462 0.930 . S
H1483 C1474 0.929 . S
H1484 C1477 0.930 . S
C1485 C1486 1.351 . S
C1485 N1488 1.368 . S
C1485 H1490 0.931 . S
C1486 C1485 1.351 . S
C1486 N1487 1.373 . S
C1486 H1514 0.930 . S
N1487 C1486 1.373 . S
N1487 C1489 1.340 . S
N1488 C1485 1.368 . S
N1488 C1489 1.321 . S
N1488 Co1491 2.135 . S
C1489 N1487 1.340 . S
C1489 N1488 1.321 . S
C1489 H1513 0.930 . S
H1490 C1485 0.931 . S
Co1491 N1488 2.135 . S
Co1491 N1494 2.121 . S
Co1491 O1499 2.055 . S
Co1491 O1502 2.039 . S
Co1491 N1505 2.140 . S
C1492 O1493 1.227 . S
C1492 O1502 1.265 . S
O1493 C1492 1.227 . S
N1494 Co1491 2.121 . S
N1494 C1496 1.375 . S
N1494 C1497 1.313 . S
C1495 C1496 1.338 . S
C1495 N1498 1.377 . S
C1495 H1515 0.930 . S
C1496 N1494 1.375 . S
C1496 C1495 1.338 . S
C1496 H1500 0.931 . S
C1497 N1494 1.313 . S
C1497 N1498 1.344 . S
C1497 H1501 0.930 . S
N1498 C1495 1.377 . S
N1498 C1497 1.344 . S
O1499 Co1491 2.055 . S
O1499 C1503 1.253 . S
H1500 C1496 0.931 . S
H1501 C1497 0.930 . S
O1502 Co1491 2.039 . S
O1502 C1492 1.265 . S
C1503 O1499 1.253 . S
C1503 O1504 1.227 . S
O1504 C1503 1.227 . S
N1505 Co1491 2.140 . S
N1505 C1508 1.346 . S
N1505 C1509 1.345 . S
C1506 C1507 1.387 . S
C1506 C1510 1.391 . S
C1507 C1506 1.387 . S
C1507 C1508 1.369 . S
C1507 H1516 0.929 . S
C1508 N1505 1.346 . S
C1508 C1507 1.369 . S
C1508 H1511 0.928 . S
C1509 N1505 1.345 . S
C1509 C1510 1.371 . S
C1509 H1512 0.931 . S
C1510 C1506 1.391 . S
C1510 C1509 1.371 . S
C1510 H1517 0.930 . S
H1511 C1508 0.928 . S
H1512 C1509 0.931 . S
H1513 C1489 0.930 . S
H1514 C1486 0.930 . S
H1515 C1495 0.930 . S
H1516 C1507 0.929 . S
H1517 C1510 0.930 . S
C1518 C1519 1.351 . S
C1518 N1521 1.368 . S
C1518 H1523 0.931 . S
C1519 C1518 1.351 . S
C1519 N1520 1.373 . S
C1519 H1547 0.930 . S
N1520 C1519 1.373 . S
N1520 C1522 1.340 . S
N1521 C1518 1.368 . S
N1521 C1522 1.321 . S
N1521 Co1524 2.135 . S
C1522 N1520 1.340 . S
C1522 N1521 1.321 . S
C1522 H1546 0.930 . S
H1523 C1518 0.931 . S
Co1524 N1521 2.135 . S
Co1524 N1527 2.121 . S
Co1524 O1532 2.055 . S
Co1524 O1535 2.039 . S
Co1524 N1538 2.140 . S
C1525 O1526 1.227 . S
C1525 O1535 1.265 . S
O1526 C1525 1.227 . S
N1527 Co1524 2.121 . S
N1527 C1529 1.375 . S
N1527 C1530 1.313 . S
C1528 C1529 1.338 . S
C1528 N1531 1.377 . S
C1528 H1548 0.930 . S
C1529 N1527 1.375 . S
C1529 C1528 1.338 . S
C1529 H1533 0.931 . S
C1530 N1527 1.313 . S
C1530 N1531 1.344 . S
C1530 H1534 0.930 . S
N1531 C1528 1.377 . S
N1531 C1530 1.344 . S
O1532 Co1524 2.055 . S
O1532 C1536 1.253 . S
H1533 C1529 0.931 . S
H1534 C1530 0.930 . S
O1535 Co1524 2.039 . S
O1535 C1525 1.265 . S
C1536 O1532 1.253 . S
C1536 O1537 1.227 . S
O1537 C1536 1.227 . S
N1538 Co1524 2.140 . S
N1538 C1541 1.346 . S
N1538 C1542 1.345 . S
C1539 C1540 1.387 . S
C1539 C1543 1.391 . S
C1540 C1539 1.387 . S
C1540 C1541 1.369 . S
C1540 H1549 0.929 . S
C1541 N1538 1.346 . S
C1541 C1540 1.369 . S
C1541 H1544 0.928 . S
C1542 N1538 1.345 . S
C1542 C1543 1.371 . S
C1542 H1545 0.931 . S
C1543 C1539 1.391 . S
C1543 C1542 1.371 . S
C1543 H1550 0.930 . S
H1544 C1541 0.928 . S
H1545 C1542 0.931 . S
H1546 C1522 0.930 . S
H1547 C1519 0.930 . S
H1548 C1528 0.930 . S
H1549 C1540 0.929 . S
H1550 C1543 0.930 . S
C1551 C1552 1.351 . S
C1551 N1554 1.368 . S
C1551 H1556 0.931 . S
C1552 C1551 1.351 . S
C1552 N1553 1.373 . S
C1552 H1580 0.930 . S
N1553 C1552 1.373 . S
N1553 C1555 1.340 . S
N1554 C1551 1.368 . S
N1554 C1555 1.321 . S
N1554 Co1557 2.135 . S
C1555 N1553 1.340 . S
C1555 N1554 1.321 . S
C1555 H1579 0.930 . S
H1556 C1551 0.931 . S
Co1557 N1554 2.135 . S
Co1557 N1560 2.121 . S
Co1557 O1565 2.055 . S
Co1557 O1568 2.039 . S
Co1557 N1571 2.140 . S
C1558 O1559 1.227 . S
C1558 O1568 1.265 . S
O1559 C1558 1.227 . S
N1560 Co1557 2.121 . S
N1560 C1562 1.375 . S
N1560 C1563 1.313 . S
C1561 C1562 1.338 . S
C1561 N1564 1.377 . S
C1561 H1581 0.930 . S
C1562 N1560 1.375 . S
C1562 C1561 1.338 . S
C1562 H1566 0.931 . S
C1563 N1560 1.313 . S
C1563 N1564 1.344 . S
C1563 H1567 0.930 . S
N1564 C1561 1.377 . S
N1564 C1563 1.344 . S
O1565 Co1557 2.055 . S
O1565 C1569 1.253 . S
H1566 C1562 0.931 . S
H1567 C1563 0.930 . S
O1568 Co1557 2.039 . S
O1568 C1558 1.265 . S
C1569 O1565 1.253 . S
C1569 O1570 1.227 . S
O1570 C1569 1.227 . S
N1571 Co1557 2.140 . S
N1571 C1574 1.346 . S
N1571 C1575 1.345 . S
C1572 C1573 1.387 . S
C1572 C1576 1.391 . S
C1573 C1572 1.387 . S
C1573 C1574 1.369 . S
C1573 H1582 0.929 . S
C1574 N1571 1.346 . S
C1574 C1573 1.369 . S
C1574 H1577 0.928 . S
C1575 N1571 1.345 . S
C1575 C1576 1.371 . S
C1575 H1578 0.931 . S
C1576 C1572 1.391 . S
C1576 C1575 1.371 . S
C1576 H1583 0.930 . S
H1577 C1574 0.928 . S
H1578 C1575 0.931 . S
H1579 C1555 0.930 . S
H1580 C1552 0.930 . S
H1581 C1561 0.930 . S
H1582 C1573 0.929 . S
H1583 C1576 0.930 . S
H1584 C1596 0.930 . S
H1585 C1598 0.930 . S
H1586 C1599 0.930 . S
H1587 C1603 0.959 . S
H1588 C1603 0.959 . S
H1589 C1603 0.961 . S
H1590 C1604 0.960 . S
H1591 C1604 0.961 . S
H1592 C1604 0.959 . S
H1593 C1607 0.929 . S
H1594 C1608 0.931 . S
H1595 C1610 0.930 . S
C1596 H1584 0.930 . S
C1596 C1597 1.399 . S
C1596 C1601 1.399 . S
C1597 C1596 1.399 . S
C1597 C1598 1.376 . S
C1598 H1585 0.930 . S
C1598 C1597 1.376 . S
C1598 C1599 1.388 . S
C1599 H1586 0.930 . S
C1599 C1598 1.388 . S
C1599 C1600 1.390 . S
C1600 C1599 1.390 . S
C1600 C1601 1.394 . S
C1600 C1606 1.465 . S
C1601 C1596 1.399 . S
C1601 C1600 1.394 . S
C1601 C1602 1.516 . S
C1602 C1601 1.516 . S
C1602 C1603 1.502 . S
C1602 C1604 1.561 . S
C1602 C1605 1.526 . S
C1603 H1587 0.959 . S
C1603 H1588 0.959 . S
C1603 H1589 0.961 . S
C1603 C1602 1.502 . S
C1604 H1590 0.960 . S
C1604 H1591 0.961 . S
C1604 H1592 0.959 . S
C1604 C1602 1.561 . S
C1605 C1602 1.526 . S
C1605 C1606 1.396 . S
C1605 C1610 1.390 . S
C1606 C1600 1.465 . S
C1606 C1605 1.396 . S
C1606 C1607 1.399 . S
C1607 H1593 0.929 . S
C1607 C1606 1.399 . S
C1607 C1608 1.385 . S
C1608 H1594 0.931 . S
C1608 C1607 1.385 . S
C1608 C1609 1.389 . S
C1609 C1608 1.389 . S
C1609 C1610 1.387 . S
C1610 H1595 0.930 . S
C1610 C1605 1.390 . S
C1610 C1609 1.387 . S
H1611 C1623 0.930 . S
H1612 C1625 0.930 . S
H1613 C1626 0.930 . S
H1614 C1630 0.959 . S
H1615 C1630 0.959 . S
H1616 C1630 0.961 . S
H1617 C1631 0.960 . S
H1618 C1631 0.961 . S
H1619 C1631 0.959 . S
H1620 C1634 0.929 . S
H1621 C1635 0.931 . S
H1622 C1637 0.930 . S
C1623 H1611 0.930 . S
C1623 C1624 1.399 . S
C1623 C1628 1.399 . S
C1624 C1623 1.399 . S
C1624 C1625 1.376 . S
C1625 H1612 0.930 . S
C1625 C1624 1.376 . S
C1625 C1626 1.388 . S
C1626 H1613 0.930 . S
C1626 C1625 1.388 . S
C1626 C1627 1.390 . S
C1627 C1626 1.390 . S
C1627 C1628 1.394 . S
C1627 C1633 1.465 . S
C1628 C1623 1.399 . S
C1628 C1627 1.394 . S
C1628 C1629 1.516 . S
C1629 C1628 1.516 . S
C1629 C1630 1.502 . S
C1629 C1631 1.561 . S
C1629 C1632 1.526 . S
C1630 H1614 0.959 . S
C1630 H1615 0.959 . S
C1630 H1616 0.961 . S
C1630 C1629 1.502 . S
C1631 H1617 0.960 . S
C1631 H1618 0.961 . S
C1631 H1619 0.959 . S
C1631 C1629 1.561 . S
C1632 C1629 1.526 . S
C1632 C1633 1.396 . S
C1632 C1637 1.390 . S
C1633 C1627 1.465 . S
C1633 C1632 1.396 . S
C1633 C1634 1.399 . S
C1634 H1620 0.929 . S
C1634 C1633 1.399 . S
C1634 C1635 1.385 . S
C1635 H1621 0.931 . S
C1635 C1634 1.385 . S
C1635 C1636 1.389 . S
C1636 C1635 1.389 . S
C1636 C1637 1.387 . S
C1637 H1622 0.930 . S
C1637 C1632 1.390 . S
C1637 C1636 1.387 . S
H1638 C1650 0.930 . S
H1639 C1652 0.930 . S
H1640 C1653 0.930 . S
H1641 C1657 0.959 . S
H1642 C1657 0.959 . S
H1643 C1657 0.961 . S
H1644 C1658 0.960 . S
H1645 C1658 0.961 . S
H1646 C1658 0.959 . S
H1647 C1661 0.929 . S
H1648 C1662 0.931 . S
H1649 C1664 0.930 . S
C1650 H1638 0.930 . S
C1650 C1651 1.399 . S
C1650 C1655 1.399 . S
C1651 C1650 1.399 . S
C1651 C1652 1.376 . S
C1652 H1639 0.930 . S
C1652 C1651 1.376 . S
C1652 C1653 1.388 . S
C1653 H1640 0.930 . S
C1653 C1652 1.388 . S
C1653 C1654 1.390 . S
C1654 C1653 1.390 . S
C1654 C1655 1.394 . S
C1654 C1660 1.465 . S
C1655 C1650 1.399 . S
C1655 C1654 1.394 . S
C1655 C1656 1.516 . S
C1656 C1655 1.516 . S
C1656 C1657 1.502 . S
C1656 C1658 1.561 . S
C1656 C1659 1.526 . S
C1657 H1641 0.959 . S
C1657 H1642 0.959 . S
C1657 H1643 0.961 . S
C1657 C1656 1.502 . S
C1658 H1644 0.960 . S
C1658 H1645 0.961 . S
C1658 H1646 0.959 . S
C1658 C1656 1.561 . S
C1659 C1656 1.526 . S
C1659 C1660 1.396 . S
C1659 C1664 1.390 . S
C1660 C1654 1.465 . S
C1660 C1659 1.396 . S
C1660 C1661 1.399 . S
C1661 H1647 0.929 . S
C1661 C1660 1.399 . S
C1661 C1662 1.385 . S
C1662 H1648 0.931 . S
C1662 C1661 1.385 . S
C1662 C1663 1.389 . S
C1663 C1662 1.389 . S
C1663 C1664 1.387 . S
C1664 H1649 0.930 . S
C1664 C1659 1.390 . S
C1664 C1663 1.387 . S
H1665 C1677 0.930 . S
H1666 C1679 0.930 . S
H1667 C1680 0.930 . S
H1668 C1684 0.959 . S
H1669 C1684 0.959 . S
H1670 C1684 0.961 . S
H1671 C1685 0.960 . S
H1672 C1685 0.961 . S
H1673 C1685 0.959 . S
H1674 C1688 0.929 . S
H1675 C1689 0.931 . S
H1676 C1691 0.930 . S
C1677 H1665 0.930 . S
C1677 C1678 1.399 . S
C1677 C1682 1.399 . S
C1678 C1677 1.399 . S
C1678 C1679 1.376 . S
C1679 H1666 0.930 . S
C1679 C1678 1.376 . S
C1679 C1680 1.388 . S
C1680 H1667 0.930 . S
C1680 C1679 1.388 . S
C1680 C1681 1.390 . S
C1681 C1680 1.390 . S
C1681 C1682 1.394 . S
C1681 C1687 1.465 . S
C1682 C1677 1.399 . S
C1682 C1681 1.394 . S
C1682 C1683 1.516 . S
C1683 C1682 1.516 . S
C1683 C1684 1.502 . S
C1683 C1685 1.561 . S
C1683 C1686 1.526 . S
C1684 H1668 0.959 . S
C1684 H1669 0.959 . S
C1684 H1670 0.961 . S
C1684 C1683 1.502 . S
C1685 H1671 0.960 . S
C1685 H1672 0.961 . S
C1685 H1673 0.959 . S
C1685 C1683 1.561 . S
C1686 C1683 1.526 . S
C1686 C1687 1.396 . S
C1686 C1691 1.390 . S
C1687 C1681 1.465 . S
C1687 C1686 1.396 . S
C1687 C1688 1.399 . S
C1688 H1674 0.929 . S
C1688 C1687 1.399 . S
C1688 C1689 1.385 . S
C1689 H1675 0.931 . S
C1689 C1688 1.385 . S
C1689 C1690 1.389 . S
C1690 C1689 1.389 . S
C1690 C1691 1.387 . S
C1691 H1676 0.930 . S
C1691 C1686 1.390 . S
C1691 C1690 1.387 . S
H1692 C1704 0.930 . S
H1693 C1706 0.930 . S
H1694 C1707 0.930 . S
H1695 C1711 0.959 . S
H1696 C1711 0.959 . S
H1697 C1711 0.961 . S
H1698 C1712 0.960 . S
H1699 C1712 0.961 . S
H1700 C1712 0.959 . S
H1701 C1715 0.929 . S
H1702 C1716 0.931 . S
H1703 C1718 0.930 . S
C1704 H1692 0.930 . S
C1704 C1705 1.399 . S
C1704 C1709 1.399 . S
C1705 C1704 1.399 . S
C1705 C1706 1.376 . S
C1706 H1693 0.930 . S
C1706 C1705 1.376 . S
C1706 C1707 1.388 . S
C1707 H1694 0.930 . S
C1707 C1706 1.388 . S
C1707 C1708 1.390 . S
C1708 C1707 1.390 . S
C1708 C1709 1.394 . S
C1708 C1714 1.465 . S
C1709 C1704 1.399 . S
C1709 C1708 1.394 . S
C1709 C1710 1.516 . S
C1710 C1709 1.516 . S
C1710 C1711 1.502 . S
C1710 C1712 1.561 . S
C1710 C1713 1.526 . S
C1711 H1695 0.959 . S
C1711 H1696 0.959 . S
C1711 H1697 0.961 . S
C1711 C1710 1.502 . S
C1712 H1698 0.960 . S
C1712 H1699 0.961 . S
C1712 H1700 0.959 . S
C1712 C1710 1.561 . S
C1713 C1710 1.526 . S
C1713 C1714 1.396 . S
C1713 C1718 1.390 . S
C1714 C1708 1.465 . S
C1714 C1713 1.396 . S
C1714 C1715 1.399 . S
C1715 H1701 0.929 . S
C1715 C1714 1.399 . S
C1715 C1716 1.385 . S
C1716 H1702 0.931 . S
C1716 C1715 1.385 . S
C1716 C1717 1.389 . S
C1717 C1716 1.389 . S
C1717 C1718 1.387 . S
C1718 H1703 0.930 . S
C1718 C1713 1.390 . S
C1718 C1717 1.387 . S
H1719 C1731 0.930 . S
H1720 C1733 0.930 . S
H1721 C1734 0.930 . S
H1722 C1738 0.959 . S
H1723 C1738 0.959 . S
H1724 C1738 0.961 . S
H1725 C1739 0.960 . S
H1726 C1739 0.961 . S
H1727 C1739 0.959 . S
H1728 C1742 0.929 . S
H1729 C1743 0.931 . S
H1730 C1745 0.930 . S
C1731 H1719 0.930 . S
C1731 C1732 1.399 . S
C1731 C1736 1.399 . S
C1732 C1731 1.399 . S
C1732 C1733 1.376 . S
C1733 H1720 0.930 . S
C1733 C1732 1.376 . S
C1733 C1734 1.388 . S
C1734 H1721 0.930 . S
C1734 C1733 1.388 . S
C1734 C1735 1.390 . S
C1735 C1734 1.390 . S
C1735 C1736 1.394 . S
C1735 C1741 1.465 . S
C1736 C1731 1.399 . S
C1736 C1735 1.394 . S
C1736 C1737 1.516 . S
C1737 C1736 1.516 . S
C1737 C1738 1.502 . S
C1737 C1739 1.561 . S
C1737 C1740 1.526 . S
C1738 H1722 0.959 . S
C1738 H1723 0.959 . S
C1738 H1724 0.961 . S
C1738 C1737 1.502 . S
C1739 H1725 0.960 . S
C1739 H1726 0.961 . S
C1739 H1727 0.959 . S
C1739 C1737 1.561 . S
C1740 C1737 1.526 . S
C1740 C1741 1.396 . S
C1740 C1745 1.390 . S
C1741 C1735 1.465 . S
C1741 C1740 1.396 . S
C1741 C1742 1.399 . S
C1742 H1728 0.929 . S
C1742 C1741 1.399 . S
C1742 C1743 1.385 . S
C1743 H1729 0.931 . S
C1743 C1742 1.385 . S
C1743 C1744 1.389 . S
C1744 C1743 1.389 . S
C1744 C1745 1.387 . S
C1745 H1730 0.930 . S
C1745 C1740 1.390 . S
C1745 C1744 1.387 . S
H1746 C1758 0.930 . S
H1747 C1760 0.930 . S
H1748 C1761 0.930 . S
H1749 C1765 0.959 . S
H1750 C1765 0.959 . S
H1751 C1765 0.961 . S
H1752 C1766 0.960 . S
H1753 C1766 0.961 . S
H1754 C1766 0.959 . S
H1755 C1769 0.929 . S
H1756 C1770 0.931 . S
H1757 C1772 0.930 . S
C1758 H1746 0.930 . S
C1758 C1759 1.399 . S
C1758 C1763 1.399 . S
C1759 C1758 1.399 . S
C1759 C1760 1.376 . S
C1760 H1747 0.930 . S
C1760 C1759 1.376 . S
C1760 C1761 1.388 . S
C1761 H1748 0.930 . S
C1761 C1760 1.388 . S
C1761 C1762 1.390 . S
C1762 C1761 1.390 . S
C1762 C1763 1.394 . S
C1762 C1768 1.465 . S
C1763 C1758 1.399 . S
C1763 C1762 1.394 . S
C1763 C1764 1.516 . S
C1764 C1763 1.516 . S
C1764 C1765 1.502 . S
C1764 C1766 1.561 . S
C1764 C1767 1.526 . S
C1765 H1749 0.959 . S
C1765 H1750 0.959 . S
C1765 H1751 0.961 . S
C1765 C1764 1.502 . S
C1766 H1752 0.960 . S
C1766 H1753 0.961 . S
C1766 H1754 0.959 . S
C1766 C1764 1.561 . S
C1767 C1764 1.526 . S
C1767 C1768 1.396 . S
C1767 C1772 1.390 . S
C1768 C1762 1.465 . S
C1768 C1767 1.396 . S
C1768 C1769 1.399 . S
C1769 H1755 0.929 . S
C1769 C1768 1.399 . S
C1769 C1770 1.385 . S
C1770 H1756 0.931 . S
C1770 C1769 1.385 . S
C1770 C1771 1.389 . S
C1771 C1770 1.389 . S
C1771 C1772 1.387 . S
C1772 H1757 0.930 . S
C1772 C1767 1.390 . S
C1772 C1771 1.387 . S
H1773 C1785 0.930 . S
H1774 C1787 0.930 . S
H1775 C1788 0.930 . S
H1776 C1792 0.959 . S
H1777 C1792 0.959 . S
H1778 C1792 0.961 . S
H1779 C1793 0.960 . S
H1780 C1793 0.961 . S
H1781 C1793 0.959 . S
H1782 C1796 0.929 . S
H1783 C1797 0.931 . S
H1784 C1799 0.930 . S
C1785 H1773 0.930 . S
C1785 C1786 1.399 . S
C1785 C1790 1.399 . S
C1786 C1785 1.399 . S
C1786 C1787 1.376 . S
C1787 H1774 0.930 . S
C1787 C1786 1.376 . S
C1787 C1788 1.388 . S
C1788 H1775 0.930 . S
C1788 C1787 1.388 . S
C1788 C1789 1.390 . S
C1789 C1788 1.390 . S
C1789 C1790 1.394 . S
C1789 C1795 1.465 . S
C1790 C1785 1.399 . S
C1790 C1789 1.394 . S
C1790 C1791 1.516 . S
C1791 C1790 1.516 . S
C1791 C1792 1.502 . S
C1791 C1793 1.561 . S
C1791 C1794 1.526 . S
C1792 H1776 0.959 . S
C1792 H1777 0.959 . S
C1792 H1778 0.961 . S
C1792 C1791 1.502 . S
C1793 H1779 0.960 . S
C1793 H1780 0.961 . S
C1793 H1781 0.959 . S
C1793 C1791 1.561 . S
C1794 C1791 1.526 . S
C1794 C1795 1.396 . S
C1794 C1799 1.390 . S
C1795 C1789 1.465 . S
C1795 C1794 1.396 . S
C1795 C1796 1.399 . S
C1796 H1782 0.929 . S
C1796 C1795 1.399 . S
C1796 C1797 1.385 . S
C1797 H1783 0.931 . S
C1797 C1796 1.385 . S
C1797 C1798 1.389 . S
C1798 C1797 1.389 . S
C1798 C1799 1.387 . S
C1799 H1784 0.930 . S
C1799 C1794 1.390 . S
C1799 C1798 1.387 . S
H1800 C1812 0.930 . S
H1801 C1814 0.930 . S
H1802 C1815 0.930 . S
H1803 C1819 0.959 . S
H1804 C1819 0.959 . S
H1805 C1819 0.961 . S
H1806 C1820 0.960 . S
H1807 C1820 0.961 . S
H1808 C1820 0.959 . S
H1809 C1823 0.929 . S
H1810 C1824 0.931 . S
H1811 C1826 0.930 . S
C1812 H1800 0.930 . S
C1812 C1813 1.399 . S
C1812 C1817 1.399 . S
C1813 C1812 1.399 . S
C1813 C1814 1.376 . S
C1814 H1801 0.930 . S
C1814 C1813 1.376 . S
C1814 C1815 1.388 . S
C1815 H1802 0.930 . S
C1815 C1814 1.388 . S
C1815 C1816 1.390 . S
C1816 C1815 1.390 . S
C1816 C1817 1.394 . S
C1816 C1822 1.465 . S
C1817 C1812 1.399 . S
C1817 C1816 1.394 . S
C1817 C1818 1.516 . S
C1818 C1817 1.516 . S
C1818 C1819 1.502 . S
C1818 C1820 1.561 . S
C1818 C1821 1.526 . S
C1819 H1803 0.959 . S
C1819 H1804 0.959 . S
C1819 H1805 0.961 . S
C1819 C1818 1.502 . S
C1820 H1806 0.960 . S
C1820 H1807 0.961 . S
C1820 H1808 0.959 . S
C1820 C1818 1.561 . S
C1821 C1818 1.526 . S
C1821 C1822 1.396 . S
C1821 C1826 1.390 . S
C1822 C1816 1.465 . S
C1822 C1821 1.396 . S
C1822 C1823 1.399 . S
C1823 H1809 0.929 . S
C1823 C1822 1.399 . S
C1823 C1824 1.385 . S
C1824 H1810 0.931 . S
C1824 C1823 1.385 . S
C1824 C1825 1.389 . S
C1825 C1824 1.389 . S
C1825 C1826 1.387 . S
C1826 H1811 0.930 . S
C1826 C1821 1.390 . S
C1826 C1825 1.387 . S
H1827 C1839 0.930 . S
H1828 C1841 0.930 . S
H1829 C1842 0.930 . S
H1830 C1846 0.959 . S
H1831 C1846 0.959 . S
H1832 C1846 0.961 . S
H1833 C1847 0.960 . S
H1834 C1847 0.961 . S
H1835 C1847 0.959 . S
H1836 C1850 0.929 . S
H1837 C1851 0.931 . S
H1838 C1853 0.930 . S
C1839 H1827 0.930 . S
C1839 C1840 1.399 . S
C1839 C1844 1.399 . S
C1840 C1839 1.399 . S
C1840 C1841 1.376 . S
C1841 H1828 0.930 . S
C1841 C1840 1.376 . S
C1841 C1842 1.388 . S
C1842 H1829 0.930 . S
C1842 C1841 1.388 . S
C1842 C1843 1.390 . S
C1843 C1842 1.390 . S
C1843 C1844 1.394 . S
C1843 C1849 1.465 . S
C1844 C1839 1.399 . S
C1844 C1843 1.394 . S
C1844 C1845 1.516 . S
C1845 C1844 1.516 . S
C1845 C1846 1.502 . S
C1845 C1847 1.561 . S
C1845 C1848 1.526 . S
C1846 H1830 0.959 . S
C1846 H1831 0.959 . S
C1846 H1832 0.961 . S
C1846 C1845 1.502 . S
C1847 H1833 0.960 . S
C1847 H1834 0.961 . S
C1847 H1835 0.959 . S
C1847 C1845 1.561 . S
C1848 C1845 1.526 . S
C1848 C1849 1.396 . S
C1848 C1853 1.390 . S
C1849 C1843 1.465 . S
C1849 C1848 1.396 . S
C1849 C1850 1.399 . S
C1850 H1836 0.929 . S
C1850 C1849 1.399 . S
C1850 C1851 1.385 . S
C1851 H1837 0.931 . S
C1851 C1850 1.385 . S
C1851 C1852 1.389 . S
C1852 C1851 1.389 . S
C1852 C1853 1.387 . S
C1853 H1838 0.930 . S
C1853 C1848 1.390 . S
C1853 C1852 1.387 . S
H1854 C1866 0.930 . S
H1855 C1868 0.930 . S
H1856 C1869 0.930 . S
H1857 C1873 0.959 . S
H1858 C1873 0.959 . S
H1859 C1873 0.961 . S
H1860 C1874 0.960 . S
H1861 C1874 0.961 . S
H1862 C1874 0.959 . S
H1863 C1877 0.929 . S
H1864 C1878 0.931 . S
H1865 C1880 0.930 . S
C1866 H1854 0.930 . S
C1866 C1867 1.399 . S
C1866 C1871 1.399 . S
C1867 C1866 1.399 . S
C1867 C1868 1.376 . S
C1868 H1855 0.930 . S
C1868 C1867 1.376 . S
C1868 C1869 1.388 . S
C1869 H1856 0.930 . S
C1869 C1868 1.388 . S
C1869 C1870 1.390 . S
C1870 C1869 1.390 . S
C1870 C1871 1.394 . S
C1870 C1876 1.465 . S
C1871 C1866 1.399 . S
C1871 C1870 1.394 . S
C1871 C1872 1.516 . S
C1872 C1871 1.516 . S
C1872 C1873 1.502 . S
C1872 C1874 1.561 . S
C1872 C1875 1.526 . S
C1873 H1857 0.959 . S
C1873 H1858 0.959 . S
C1873 H1859 0.961 . S
C1873 C1872 1.502 . S
C1874 H1860 0.960 . S
C1874 H1861 0.961 . S
C1874 H1862 0.959 . S
C1874 C1872 1.561 . S
C1875 C1872 1.526 . S
C1875 C1876 1.396 . S
C1875 C1880 1.390 . S
C1876 C1870 1.465 . S
C1876 C1875 1.396 . S
C1876 C1877 1.399 . S
C1877 H1863 0.929 . S
C1877 C1876 1.399 . S
C1877 C1878 1.385 . S
C1878 H1864 0.931 . S
C1878 C1877 1.385 . S
C1878 C1879 1.389 . S
C1879 C1878 1.389 . S
C1879 C1880 1.387 . S
C1880 H1865 0.930 . S
C1880 C1875 1.390 . S
C1880 C1879 1.387 . S
H1881 C1893 0.930 . S
H1882 C1895 0.930 . S
H1883 C1896 0.930 . S
H1884 C1900 0.959 . S
H1885 C1900 0.959 . S
H1886 C1900 0.961 . S
H1887 C1901 0.960 . S
H1888 C1901 0.961 . S
H1889 C1901 0.959 . S
H1890 C1904 0.929 . S
H1891 C1905 0.931 . S
H1892 C1907 0.930 . S
C1893 H1881 0.930 . S
C1893 C1894 1.399 . S
C1893 C1898 1.399 . S
C1894 C1893 1.399 . S
C1894 C1895 1.376 . S
C1895 H1882 0.930 . S
C1895 C1894 1.376 . S
C1895 C1896 1.388 . S
C1896 H1883 0.930 . S
C1896 C1895 1.388 . S
C1896 C1897 1.390 . S
C1897 C1896 1.390 . S
C1897 C1898 1.394 . S
C1897 C1903 1.465 . S
C1898 C1893 1.399 . S
C1898 C1897 1.394 . S
C1898 C1899 1.516 . S
C1899 C1898 1.516 . S
C1899 C1900 1.502 . S
C1899 C1901 1.561 . S
C1899 C1902 1.526 . S
C1900 H1884 0.959 . S
C1900 H1885 0.959 . S
C1900 H1886 0.961 . S
C1900 C1899 1.502 . S
C1901 H1887 0.960 . S
C1901 H1888 0.961 . S
C1901 H1889 0.959 . S
C1901 C1899 1.561 . S
C1902 C1899 1.526 . S
C1902 C1903 1.396 . S
C1902 C1907 1.390 . S
C1903 C1897 1.465 . S
C1903 C1902 1.396 . S
C1903 C1904 1.399 . S
C1904 H1890 0.929 . S
C1904 C1903 1.399 . S
C1904 C1905 1.385 . S
C1905 H1891 0.931 . S
C1905 C1904 1.385 . S
C1905 C1906 1.389 . S
C1906 C1905 1.389 . S
C1906 C1907 1.387 . S
C1907 H1892 0.930 . S
C1907 C1902 1.390 . S
C1907 C1906 1.387 . S
H1908 C1920 0.930 . S
H1909 C1922 0.930 . S
H1910 C1923 0.930 . S
H1911 C1927 0.959 . S
H1912 C1927 0.959 . S
H1913 C1927 0.961 . S
H1914 C1928 0.960 . S
H1915 C1928 0.961 . S
H1916 C1928 0.959 . S
H1917 C1931 0.929 . S
H1918 C1932 0.931 . S
H1919 C1934 0.930 . S
C1920 H1908 0.930 . S
C1920 C1921 1.399 . S
C1920 C1925 1.399 . S
C1921 C1920 1.399 . S
C1921 C1922 1.376 . S
C1922 H1909 0.930 . S
C1922 C1921 1.376 . S
C1922 C1923 1.388 . S
C1923 H1910 0.930 . S
C1923 C1922 1.388 . S
C1923 C1924 1.390 . S
C1924 C1923 1.390 . S
C1924 C1925 1.394 . S
C1924 C1930 1.465 . S
C1925 C1920 1.399 . S
C1925 C1924 1.394 . S
C1925 C1926 1.516 . S
C1926 C1925 1.516 . S
C1926 C1927 1.502 . S
C1926 C1928 1.561 . S
C1926 C1929 1.526 . S
C1927 H1911 0.959 . S
C1927 H1912 0.959 . S
C1927 H1913 0.961 . S
C1927 C1926 1.502 . S
C1928 H1914 0.960 . S
C1928 H1915 0.961 . S
C1928 H1916 0.959 . S
C1928 C1926 1.561 . S
C1929 C1926 1.526 . S
C1929 C1930 1.396 . S
C1929 C1934 1.390 . S
C1930 C1924 1.465 . S
C1930 C1929 1.396 . S
C1930 C1931 1.399 . S
C1931 H1917 0.929 . S
C1931 C1930 1.399 . S
C1931 C1932 1.385 . S
C1932 H1918 0.931 . S
C1932 C1931 1.385 . S
C1932 C1933 1.389 . S
C1933 C1932 1.389 . S
C1933 C1934 1.387 . S
C1934 H1919 0.930 . S
C1934 C1929 1.390 . S
C1934 C1933 1.387 . S
H1935 C1947 0.930 . S
H1936 C1949 0.930 . S
H1937 C1950 0.930 . S
H1938 C1954 0.959 . S
H1939 C1954 0.959 . S
H1940 C1954 0.961 . S
H1941 C1955 0.960 . S
H1942 C1955 0.961 . S
H1943 C1955 0.959 . S
H1944 C1958 0.929 . S
H1945 C1959 0.931 . S
H1946 C1961 0.930 . S
C1947 H1935 0.930 . S
C1947 C1948 1.399 . S
C1947 C1952 1.399 . S
C1948 C1947 1.399 . S
C1948 C1949 1.376 . S
C1949 H1936 0.930 . S
C1949 C1948 1.376 . S
C1949 C1950 1.388 . S
C1950 H1937 0.930 . S
C1950 C1949 1.388 . S
C1950 C1951 1.390 . S
C1951 C1950 1.390 . S
C1951 C1952 1.394 . S
C1951 C1957 1.465 . S
C1952 C1947 1.399 . S
C1952 C1951 1.394 . S
C1952 C1953 1.516 . S
C1953 C1952 1.516 . S
C1953 C1954 1.502 . S
C1953 C1955 1.561 . S
C1953 C1956 1.526 . S
C1954 H1938 0.959 . S
C1954 H1939 0.959 . S
C1954 H1940 0.961 . S
C1954 C1953 1.502 . S
C1955 H1941 0.960 . S
C1955 H1942 0.961 . S
C1955 H1943 0.959 . S
C1955 C1953 1.561 . S
C1956 C1953 1.526 . S
C1956 C1957 1.396 . S
C1956 C1961 1.390 . S
C1957 C1951 1.465 . S
C1957 C1956 1.396 . S
C1957 C1958 1.399 . S
C1958 H1944 0.929 . S
C1958 C1957 1.399 . S
C1958 C1959 1.385 . S
C1959 H1945 0.931 . S
C1959 C1958 1.385 . S
C1959 C1960 1.389 . S
C1960 C1959 1.389 . S
C1960 C1961 1.387 . S
C1961 H1946 0.930 . S
C1961 C1956 1.390 . S
C1961 C1960 1.387 . S
H1962 C1974 0.930 . S
H1963 C1976 0.930 . S
H1964 C1977 0.930 . S
H1965 C1981 0.959 . S
H1966 C1981 0.959 . S
H1967 C1981 0.961 . S
H1968 C1982 0.960 . S
H1969 C1982 0.961 . S
H1970 C1982 0.959 . S
H1971 C1985 0.929 . S
H1972 C1986 0.931 . S
H1973 C1988 0.930 . S
C1974 H1962 0.930 . S
C1974 C1975 1.399 . S
C1974 C1979 1.399 . S
C1975 C1974 1.399 . S
C1975 C1976 1.376 . S
C1976 H1963 0.930 . S
C1976 C1975 1.376 . S
C1976 C1977 1.388 . S
C1977 H1964 0.930 . S
C1977 C1976 1.388 . S
C1977 C1978 1.390 . S
C1978 C1977 1.390 . S
C1978 C1979 1.394 . S
C1978 C1984 1.465 . S
C1979 C1974 1.399 . S
C1979 C1978 1.394 . S
C1979 C1980 1.516 . S
C1980 C1979 1.516 . S
C1980 C1981 1.502 . S
C1980 C1982 1.561 . S
C1980 C1983 1.526 . S
C1981 H1965 0.959 . S
C1981 H1966 0.959 . S
C1981 H1967 0.961 . S
C1981 C1980 1.502 . S
C1982 H1968 0.960 . S
C1982 H1969 0.961 . S
C1982 H1970 0.959 . S
C1982 C1980 1.561 . S
C1983 C1980 1.526 . S
C1983 C1984 1.396 . S
C1983 C1988 1.390 . S
C1984 C1978 1.465 . S
C1984 C1983 1.396 . S
C1984 C1985 1.399 . S
C1985 H1971 0.929 . S
C1985 C1984 1.399 . S
C1985 C1986 1.385 . S
C1986 H1972 0.931 . S
C1986 C1985 1.385 . S
C1986 C1987 1.389 . S
C1987 C1986 1.389 . S
C1987 C1988 1.387 . S
C1988 H1973 0.930 . S
C1988 C1983 1.390 . S
C1988 C1987 1.387 . S
H1989 C2001 0.930 . S
H1990 C2003 0.930 . S
H1991 C2004 0.930 . S
H1992 C2008 0.959 . S
H1993 C2008 0.959 . S
H1994 C2008 0.961 . S
H1995 C2009 0.960 . S
H1996 C2009 0.961 . S
H1997 C2009 0.959 . S
H1998 C2012 0.929 . S
H1999 C2013 0.931 . S
H2000 C2015 0.930 . S
C2001 H1989 0.930 . S
C2001 C2002 1.399 . S
C2001 C2006 1.399 . S
C2002 C2001 1.399 . S
C2002 C2003 1.376 . S
C2003 H1990 0.930 . S
C2003 C2002 1.376 . S
C2003 C2004 1.388 . S
C2004 H1991 0.930 . S
C2004 C2003 1.388 . S
C2004 C2005 1.390 . S
C2005 C2004 1.390 . S
C2005 C2006 1.394 . S
C2005 C2011 1.465 . S
C2006 C2001 1.399 . S
C2006 C2005 1.394 . S
C2006 C2007 1.516 . S
C2007 C2006 1.516 . S
C2007 C2008 1.502 . S
C2007 C2009 1.561 . S
C2007 C2010 1.526 . S
C2008 H1992 0.959 . S
C2008 H1993 0.959 . S
C2008 H1994 0.961 . S
C2008 C2007 1.502 . S
C2009 H1995 0.960 . S
C2009 H1996 0.961 . S
C2009 H1997 0.959 . S
C2009 C2007 1.561 . S
C2010 C2007 1.526 . S
C2010 C2011 1.396 . S
C2010 C2015 1.390 . S
C2011 C2005 1.465 . S
C2011 C2010 1.396 . S
C2011 C2012 1.399 . S
C2012 H1998 0.929 . S
C2012 C2011 1.399 . S
C2012 C2013 1.385 . S
C2013 H1999 0.931 . S
C2013 C2012 1.385 . S
C2013 C2014 1.389 . S
C2014 C2013 1.389 . S
C2014 C2015 1.387 . S
C2015 H2000 0.930 . S
C2015 C2010 1.390 . S
C2015 C2014 1.387 . S
H2016 C2028 0.930 . S
H2017 C2030 0.930 . S
H2018 C2031 0.930 . S
H2019 C2035 0.959 . S
H2020 C2035 0.959 . S
H2021 C2035 0.961 . S
H2022 C2036 0.960 . S
H2023 C2036 0.961 . S
H2024 C2036 0.959 . S
H2025 C2039 0.929 . S
H2026 C2040 0.931 . S
H2027 C2042 0.930 . S
C2028 H2016 0.930 . S
C2028 C2029 1.399 . S
C2028 C2033 1.399 . S
C2029 C2028 1.399 . S
C2029 C2030 1.376 . S
C2030 H2017 0.930 . S
C2030 C2029 1.376 . S
C2030 C2031 1.388 . S
C2031 H2018 0.930 . S
C2031 C2030 1.388 . S
C2031 C2032 1.390 . S
C2032 C2031 1.390 . S
C2032 C2033 1.394 . S
C2032 C2038 1.465 . S
C2033 C2028 1.399 . S
C2033 C2032 1.394 . S
C2033 C2034 1.516 . S
C2034 C2033 1.516 . S
C2034 C2035 1.502 . S
C2034 C2036 1.561 . S
C2034 C2037 1.526 . S
C2035 H2019 0.959 . S
C2035 H2020 0.959 . S
C2035 H2021 0.961 . S
C2035 C2034 1.502 . S
C2036 H2022 0.960 . S
C2036 H2023 0.961 . S
C2036 H2024 0.959 . S
C2036 C2034 1.561 . S
C2037 C2034 1.526 . S
C2037 C2038 1.396 . S
C2037 C2042 1.390 . S
C2038 C2032 1.465 . S
C2038 C2037 1.396 . S
C2038 C2039 1.399 . S
C2039 H2025 0.929 . S
C2039 C2038 1.399 . S
C2039 C2040 1.385 . S
C2040 H2026 0.931 . S
C2040 C2039 1.385 . S
C2040 C2041 1.389 . S
C2041 C2040 1.389 . S
C2041 C2042 1.387 . S
C2042 H2027 0.930 . S
C2042 C2037 1.390 . S
C2042 C2041 1.387 . S
H2043 C2055 0.930 . S
H2044 C2057 0.930 . S
H2045 C2058 0.930 . S
H2046 C2062 0.959 . S
H2047 C2062 0.959 . S
H2048 C2062 0.961 . S
H2049 C2063 0.960 . S
H2050 C2063 0.961 . S
H2051 C2063 0.959 . S
H2052 C2066 0.929 . S
H2053 C2067 0.931 . S
H2054 C2069 0.930 . S
C2055 H2043 0.930 . S
C2055 C2056 1.399 . S
C2055 C2060 1.399 . S
C2056 C2055 1.399 . S
C2056 C2057 1.376 . S
C2057 H2044 0.930 . S
C2057 C2056 1.376 . S
C2057 C2058 1.388 . S
C2058 H2045 0.930 . S
C2058 C2057 1.388 . S
C2058 C2059 1.390 . S
C2059 C2058 1.390 . S
C2059 C2060 1.394 . S
C2059 C2065 1.465 . S
C2060 C2055 1.399 . S
C2060 C2059 1.394 . S
C2060 C2061 1.516 . S
C2061 C2060 1.516 . S
C2061 C2062 1.502 . S
C2061 C2063 1.561 . S
C2061 C2064 1.526 . S
C2062 H2046 0.959 . S
C2062 H2047 0.959 . S
C2062 H2048 0.961 . S
C2062 C2061 1.502 . S
C2063 H2049 0.960 . S
C2063 H2050 0.961 . S
C2063 H2051 0.959 . S
C2063 C2061 1.561 . S
C2064 C2061 1.526 . S
C2064 C2065 1.396 . S
C2064 C2069 1.390 . S
C2065 C2059 1.465 . S
C2065 C2064 1.396 . S
C2065 C2066 1.399 . S
C2066 H2052 0.929 . S
C2066 C2065 1.399 . S
C2066 C2067 1.385 . S
C2067 H2053 0.931 . S
C2067 C2066 1.385 . S
C2067 C2068 1.389 . S
C2068 C2067 1.389 . S
C2068 C2069 1.387 . S
C2069 H2054 0.930 . S
C2069 C2064 1.390 . S
C2069 C2068 1.387 . S
H2070 C2082 0.930 . S
H2071 C2084 0.930 . S
H2072 C2085 0.930 . S
H2073 C2089 0.959 . S
H2074 C2089 0.959 . S
H2075 C2089 0.961 . S
H2076 C2090 0.960 . S
H2077 C2090 0.961 . S
H2078 C2090 0.959 . S
H2079 C2093 0.929 . S
H2080 C2094 0.931 . S
H2081 C2096 0.930 . S
C2082 H2070 0.930 . S
C2082 C2083 1.399 . S
C2082 C2087 1.399 . S
C2083 C2082 1.399 . S
C2083 C2084 1.376 . S
C2084 H2071 0.930 . S
C2084 C2083 1.376 . S
C2084 C2085 1.388 . S
C2085 H2072 0.930 . S
C2085 C2084 1.388 . S
C2085 C2086 1.390 . S
C2086 C2085 1.390 . S
C2086 C2087 1.394 . S
C2086 C2092 1.465 . S
C2087 C2082 1.399 . S
C2087 C2086 1.394 . S
C2087 C2088 1.516 . S
C2088 C2087 1.516 . S
C2088 C2089 1.502 . S
C2088 C2090 1.561 . S
C2088 C2091 1.526 . S
C2089 H2073 0.959 . S
C2089 H2074 0.959 . S
C2089 H2075 0.961 . S
C2089 C2088 1.502 . S
C2090 H2076 0.960 . S
C2090 H2077 0.961 . S
C2090 H2078 0.959 . S
C2090 C2088 1.561 . S
C2091 C2088 1.526 . S
C2091 C2092 1.396 . S
C2091 C2096 1.390 . S
C2092 C2086 1.465 . S
C2092 C2091 1.396 . S
C2092 C2093 1.399 . S
C2093 H2079 0.929 . S
C2093 C2092 1.399 . S
C2093 C2094 1.385 . S
C2094 H2080 0.931 . S
C2094 C2093 1.385 . S
C2094 C2095 1.389 . S
C2095 C2094 1.389 . S
C2095 C2096 1.387 . S
C2096 H2081 0.930 . S
C2096 C2091 1.390 . S
C2096 C2095 1.387 . S
H2097 C2109 0.930 . S
H2098 C2111 0.930 . S
H2099 C2112 0.930 . S
H2100 C2116 0.959 . S
H2101 C2116 0.959 . S
H2102 C2116 0.961 . S
H2103 C2117 0.960 . S
H2104 C2117 0.961 . S
H2105 C2117 0.959 . S
H2106 C2120 0.929 . S
H2107 C2121 0.931 . S
H2108 C2123 0.930 . S
C2109 H2097 0.930 . S
C2109 C2110 1.399 . S
C2109 C2114 1.399 . S
C2110 C2109 1.399 . S
C2110 C2111 1.376 . S
C2111 H2098 0.930 . S
C2111 C2110 1.376 . S
C2111 C2112 1.388 . S
C2112 H2099 0.930 . S
C2112 C2111 1.388 . S
C2112 C2113 1.390 . S
C2113 C2112 1.390 . S
C2113 C2114 1.394 . S
C2113 C2119 1.465 . S
C2114 C2109 1.399 . S
C2114 C2113 1.394 . S
C2114 C2115 1.516 . S
C2115 C2114 1.516 . S
C2115 C2116 1.502 . S
C2115 C2117 1.561 . S
C2115 C2118 1.526 . S
C2116 H2100 0.959 . S
C2116 H2101 0.959 . S
C2116 H2102 0.961 . S
C2116 C2115 1.502 . S
C2117 H2103 0.960 . S
C2117 H2104 0.961 . S
C2117 H2105 0.959 . S
C2117 C2115 1.561 . S
C2118 C2115 1.526 . S
C2118 C2119 1.396 . S
C2118 C2123 1.390 . S
C2119 C2113 1.465 . S
C2119 C2118 1.396 . S
C2119 C2120 1.399 . S
C2120 H2106 0.929 . S
C2120 C2119 1.399 . S
C2120 C2121 1.385 . S
C2121 H2107 0.931 . S
C2121 C2120 1.385 . S
C2121 C2122 1.389 . S
C2122 C2121 1.389 . S
C2122 C2123 1.387 . S
C2123 H2108 0.930 . S
C2123 C2118 1.390 . S
C2123 C2122 1.387 . S
H2124 C2136 0.930 . S
H2125 C2138 0.930 . S
H2126 C2139 0.930 . S
H2127 C2143 0.959 . S
H2128 C2143 0.959 . S
H2129 C2143 0.961 . S
H2130 C2144 0.960 . S
H2131 C2144 0.961 . S
H2132 C2144 0.959 . S
H2133 C2147 0.929 . S
H2134 C2148 0.931 . S
H2135 C2150 0.930 . S
C2136 H2124 0.930 . S
C2136 C2137 1.399 . S
C2136 C2141 1.399 . S
C2137 C2136 1.399 . S
C2137 C2138 1.376 . S
C2138 H2125 0.930 . S
C2138 C2137 1.376 . S
C2138 C2139 1.388 . S
C2139 H2126 0.930 . S
C2139 C2138 1.388 . S
C2139 C2140 1.390 . S
C2140 C2139 1.390 . S
C2140 C2141 1.394 . S
C2140 C2146 1.465 . S
C2141 C2136 1.399 . S
C2141 C2140 1.394 . S
C2141 C2142 1.516 . S
C2142 C2141 1.516 . S
C2142 C2143 1.502 . S
C2142 C2144 1.561 . S
C2142 C2145 1.526 . S
C2143 H2127 0.959 . S
C2143 H2128 0.959 . S
C2143 H2129 0.961 . S
C2143 C2142 1.502 . S
C2144 H2130 0.960 . S
C2144 H2131 0.961 . S
C2144 H2132 0.959 . S
C2144 C2142 1.561 . S
C2145 C2142 1.526 . S
C2145 C2146 1.396 . S
C2145 C2150 1.390 . S
C2146 C2140 1.465 . S
C2146 C2145 1.396 . S
C2146 C2147 1.399 . S
C2147 H2133 0.929 . S
C2147 C2146 1.399 . S
C2147 C2148 1.385 . S
C2148 H2134 0.931 . S
C2148 C2147 1.385 . S
C2148 C2149 1.389 . S
C2149 C2148 1.389 . S
C2149 C2150 1.387 . S
C2150 H2135 0.930 . S
C2150 C2145 1.390 . S
C2150 C2149 1.387 . S
H2151 C2163 0.930 . S
H2152 C2165 0.930 . S
H2153 C2166 0.930 . S
H2154 C2170 0.959 . S
H2155 C2170 0.959 . S
H2156 C2170 0.961 . S
H2157 C2171 0.960 . S
H2158 C2171 0.961 . S
H2159 C2171 0.959 . S
H2160 C2174 0.929 . S
H2161 C2175 0.931 . S
H2162 C2177 0.930 . S
C2163 H2151 0.930 . S
C2163 C2164 1.399 . S
C2163 C2168 1.399 . S
C2164 C2163 1.399 . S
C2164 C2165 1.376 . S
C2165 H2152 0.930 . S
C2165 C2164 1.376 . S
C2165 C2166 1.388 . S
C2166 H2153 0.930 . S
C2166 C2165 1.388 . S
C2166 C2167 1.390 . S
C2167 C2166 1.390 . S
C2167 C2168 1.394 . S
C2167 C2173 1.465 . S
C2168 C2163 1.399 . S
C2168 C2167 1.394 . S
C2168 C2169 1.516 . S
C2169 C2168 1.516 . S
C2169 C2170 1.502 . S
C2169 C2171 1.561 . S
C2169 C2172 1.526 . S
C2170 H2154 0.959 . S
C2170 H2155 0.959 . S
C2170 H2156 0.961 . S
C2170 C2169 1.502 . S
C2171 H2157 0.960 . S
C2171 H2158 0.961 . S
C2171 H2159 0.959 . S
C2171 C2169 1.561 . S
C2172 C2169 1.526 . S
C2172 C2173 1.396 . S
C2172 C2177 1.390 . S
C2173 C2167 1.465 . S
C2173 C2172 1.396 . S
C2173 C2174 1.399 . S
C2174 H2160 0.929 . S
C2174 C2173 1.399 . S
C2174 C2175 1.385 . S
C2175 H2161 0.931 . S
C2175 C2174 1.385 . S
C2175 C2176 1.389 . S
C2176 C2175 1.389 . S
C2176 C2177 1.387 . S
C2177 H2162 0.930 . S
C2177 C2172 1.390 . S
C2177 C2176 1.387 . S
H2178 C2190 0.930 . S
H2179 C2192 0.930 . S
H2180 C2193 0.930 . S
H2181 C2197 0.959 . S
H2182 C2197 0.959 . S
H2183 C2197 0.961 . S
H2184 C2198 0.960 . S
H2185 C2198 0.961 . S
H2186 C2198 0.959 . S
H2187 C2201 0.929 . S
H2188 C2202 0.931 . S
H2189 C2204 0.930 . S
C2190 H2178 0.930 . S
C2190 C2191 1.399 . S
C2190 C2195 1.399 . S
C2191 C2190 1.399 . S
C2191 C2192 1.376 . S
C2192 H2179 0.930 . S
C2192 C2191 1.376 . S
C2192 C2193 1.388 . S
C2193 H2180 0.930 . S
C2193 C2192 1.388 . S
C2193 C2194 1.390 . S
C2194 C2193 1.390 . S
C2194 C2195 1.394 . S
C2194 C2200 1.465 . S
C2195 C2190 1.399 . S
C2195 C2194 1.394 . S
C2195 C2196 1.516 . S
C2196 C2195 1.516 . S
C2196 C2197 1.502 . S
C2196 C2198 1.561 . S
C2196 C2199 1.526 . S
C2197 H2181 0.959 . S
C2197 H2182 0.959 . S
C2197 H2183 0.961 . S
C2197 C2196 1.502 . S
C2198 H2184 0.960 . S
C2198 H2185 0.961 . S
C2198 H2186 0.959 . S
C2198 C2196 1.561 . S
C2199 C2196 1.526 . S
C2199 C2200 1.396 . S
C2199 C2204 1.390 . S
C2200 C2194 1.465 . S
C2200 C2199 1.396 . S
C2200 C2201 1.399 . S
C2201 H2187 0.929 . S
C2201 C2200 1.399 . S
C2201 C2202 1.385 . S
C2202 H2188 0.931 . S
C2202 C2201 1.385 . S
C2202 C2203 1.389 . S
C2203 C2202 1.389 . S
C2203 C2204 1.387 . S
C2204 H2189 0.930 . S
C2204 C2199 1.390 . S
C2204 C2203 1.387 . S
H2205 C2217 0.930 . S
H2206 C2219 0.930 . S
H2207 C2220 0.930 . S
H2208 C2224 0.959 . S
H2209 C2224 0.959 . S
H2210 C2224 0.961 . S
H2211 C2225 0.960 . S
H2212 C2225 0.961 . S
H2213 C2225 0.959 . S
H2214 C2228 0.929 . S
H2215 C2229 0.931 . S
H2216 C2231 0.930 . S
C2217 H2205 0.930 . S
C2217 C2218 1.399 . S
C2217 C2222 1.399 . S
C2218 C2217 1.399 . S
C2218 C2219 1.376 . S
C2219 H2206 0.930 . S
C2219 C2218 1.376 . S
C2219 C2220 1.388 . S
C2220 H2207 0.930 . S
C2220 C2219 1.388 . S
C2220 C2221 1.390 . S
C2221 C2220 1.390 . S
C2221 C2222 1.394 . S
C2221 C2227 1.465 . S
C2222 C2217 1.399 . S
C2222 C2221 1.394 . S
C2222 C2223 1.516 . S
C2223 C2222 1.516 . S
C2223 C2224 1.502 . S
C2223 C2225 1.561 . S
C2223 C2226 1.526 . S
C2224 H2208 0.959 . S
C2224 H2209 0.959 . S
C2224 H2210 0.961 . S
C2224 C2223 1.502 . S
C2225 H2211 0.960 . S
C2225 H2212 0.961 . S
C2225 H2213 0.959 . S
C2225 C2223 1.561 . S
C2226 C2223 1.526 . S
C2226 C2227 1.396 . S
C2226 C2231 1.390 . S
C2227 C2221 1.465 . S
C2227 C2226 1.396 . S
C2227 C2228 1.399 . S
C2228 H2214 0.929 . S
C2228 C2227 1.399 . S
C2228 C2229 1.385 . S
C2229 H2215 0.931 . S
C2229 C2228 1.385 . S
C2229 C2230 1.389 . S
C2230 C2229 1.389 . S
C2230 C2231 1.387 . S
C2231 H2216 0.930 . S
C2231 C2226 1.390 . S
C2231 C2230 1.387 . S
H2232 C2244 0.930 . S
H2233 C2246 0.930 . S
H2234 C2247 0.930 . S
H2235 C2251 0.959 . S
H2236 C2251 0.959 . S
H2237 C2251 0.961 . S
H2238 C2252 0.960 . S
H2239 C2252 0.961 . S
H2240 C2252 0.959 . S
H2241 C2255 0.929 . S
H2242 C2256 0.931 . S
H2243 C2258 0.930 . S
C2244 H2232 0.930 . S
C2244 C2245 1.399 . S
C2244 C2249 1.399 . S
C2245 C2244 1.399 . S
C2245 C2246 1.376 . S
C2246 H2233 0.930 . S
C2246 C2245 1.376 . S
C2246 C2247 1.388 . S
C2247 H2234 0.930 . S
C2247 C2246 1.388 . S
C2247 C2248 1.390 . S
C2248 C2247 1.390 . S
C2248 C2249 1.394 . S
C2248 C2254 1.465 1_655 S
C2249 C2244 1.399 . S
C2249 C2248 1.394 . S
C2249 C2250 1.516 1_655 S
C2250 C2249 1.516 1_455 S
C2250 C2251 1.502 1_455 S
C2250 C2252 1.561 . S
C2250 C2253 1.526 . S
C2251 H2235 0.959 . S
C2251 H2236 0.959 . S
C2251 H2237 0.961 . S
C2251 C2250 1.502 1_655 S
C2252 H2238 0.960 . S
C2252 H2239 0.961 . S
C2252 H2240 0.959 . S
C2252 C2250 1.561 . S
C2253 C2250 1.526 . S
C2253 C2254 1.396 . S
C2253 C2258 1.390 . S
C2254 C2248 1.465 1_455 S
C2254 C2253 1.396 . S
C2254 C2255 1.399 . S
C2255 H2241 0.929 . S
C2255 C2254 1.399 . S
C2255 C2256 1.385 . S
C2256 H2242 0.931 . S
C2256 C2255 1.385 . S
C2256 C2257 1.389 . S
C2257 C2256 1.389 . S
C2257 C2258 1.387 . S
C2258 H2243 0.930 . S
C2258 C2253 1.390 . S
C2258 C2257 1.387 . S
H2259 C2271 0.930 . S
H2260 C2273 0.930 . S
H2261 C2274 0.930 . S
H2262 C2278 0.959 . S
H2263 C2278 0.959 . S
H2264 C2278 0.961 . S
H2265 C2279 0.960 . S
H2266 C2279 0.961 . S
H2267 C2279 0.959 . S
H2268 C2282 0.929 1_545 S
H2269 C2283 0.931 . S
H2270 C2285 0.930 . S
C2271 H2259 0.930 . S
C2271 C2272 1.399 . S
C2271 C2276 1.399 . S
C2272 C2271 1.399 . S
C2272 C2273 1.376 . S
C2273 H2260 0.930 . S
C2273 C2272 1.376 . S
C2273 C2274 1.388 . S
C2274 H2261 0.930 . S
C2274 C2273 1.388 . S
C2274 C2275 1.390 . S
C2275 C2274 1.390 . S
C2275 C2276 1.394 . S
C2275 C2281 1.465 1_545 S
C2276 C2271 1.399 . S
C2276 C2275 1.394 . S
C2276 C2277 1.516 1_545 S
C2277 C2276 1.516 1_565 S
C2277 C2278 1.502 . S
C2277 C2279 1.561 1_565 S
C2277 C2280 1.526 . S
C2278 H2262 0.959 . S
C2278 H2263 0.959 . S
C2278 H2264 0.961 . S
C2278 C2277 1.502 . S
C2279 H2265 0.960 . S
C2279 H2266 0.961 . S
C2279 H2267 0.959 . S
C2279 C2277 1.561 1_545 S
C2280 C2277 1.526 . S
C2280 C2281 1.396 . S
C2280 C2285 1.390 . S
C2281 C2275 1.465 1_565 S
C2281 C2280 1.396 . S
C2281 C2282 1.399 . S
C2282 H2268 0.929 1_565 S
C2282 C2281 1.399 . S
C2282 C2283 1.385 . S
C2283 H2269 0.931 . S
C2283 C2282 1.385 . S
C2283 C2284 1.389 . S
C2284 C2283 1.389 . S
C2284 C2285 1.387 . S
C2285 H2270 0.930 . S
C2285 C2280 1.390 . S
C2285 C2284 1.387 . S
H2286 C2298 0.930 . S
H2287 C2300 0.930 . S
H2288 C2301 0.930 . S
H2289 C2305 0.959 . S
H2290 C2305 0.959 . S
H2291 C2305 0.961 . S
H2292 C2306 0.960 . S
H2293 C2306 0.957 1_455 S
H2294 C2306 0.959 . S
H2295 C2309 0.929 1_655 S
H2296 C2310 0.931 . S
H2297 C2312 0.930 . S
C2298 H2286 0.930 . S
C2298 C2299 1.399 . S
C2298 C2303 1.399 . S
C2299 C2298 1.399 . S
C2299 C2300 1.376 . S
C2300 H2287 0.930 . S
C2300 C2299 1.376 . S
C2300 C2301 1.388 . S
C2301 H2288 0.930 . S
C2301 C2300 1.388 . S
C2301 C2302 1.390 . S
C2302 C2301 1.390 . S
C2302 C2303 1.394 . S
C2302 C2308 1.434 1_655 S
C2303 C2298 1.399 . S
C2303 C2302 1.394 . S
C2303 C2304 1.516 1_655 S
C2304 C2303 1.516 1_455 S
C2304 C2305 1.502 . S
C2304 C2306 1.561 1_455 S
C2304 C2307 1.526 . S
C2305 H2289 0.959 . S
C2305 H2290 0.959 . S
C2305 H2291 0.961 . S
C2305 C2304 1.502 . S
C2306 H2292 0.960 . S
C2306 H2293 0.957 1_655 S
C2306 H2294 0.959 . S
C2306 C2304 1.561 1_655 S
C2307 C2304 1.526 . S
C2307 C2308 1.426 . S
C2307 C2312 1.390 . S
C2308 C2302 1.434 1_455 S
C2308 C2307 1.426 . S
C2308 C2309 1.407 . S
C2309 H2295 0.929 1_455 S
C2309 C2308 1.407 . S
C2309 C2310 1.385 . S
C2310 H2296 0.931 . S
C2310 C2309 1.385 . S
C2310 C2311 1.389 . S
C2311 C2310 1.389 . S
C2311 C2312 1.387 . S
C2312 H2297 0.930 . S
C2312 C2307 1.390 . S
C2312 C2311 1.387 . S
H2313 C2325 0.930 . S
H2314 C2327 0.930 . S
H2315 C2328 0.896 1_545 S
H2316 C2332 0.959 . S
H2317 C2332 0.959 . S
H2318 C2332 0.961 . S
H2319 C2333 0.960 1_565 S
H2320 C2333 0.961 . S
H2321 C2333 0.959 . S
H2322 C2336 0.929 . S
H2323 C2337 0.931 . S
H2324 C2339 0.930 . S
C2325 H2313 0.930 . S
C2325 C2326 1.399 . S
C2325 C2330 1.399 . S
C2326 C2325 1.399 . S
C2326 C2327 1.376 . S
C2327 H2314 0.930 . S
C2327 C2326 1.376 . S
C2327 C2328 1.428 . S
C2328 H2315 0.896 1_565 S
C2328 C2327 1.428 . S
C2328 C2329 1.388 . S
C2329 C2328 1.388 . S
C2329 C2330 1.393 . S
C2329 C2335 1.466 1_565 S
C2330 C2325 1.399 . S
C2330 C2329 1.393 . S
C2330 C2331 1.516 . S
C2331 C2330 1.516 . S
C2331 C2332 1.502 . S
C2331 C2333 1.561 1_565 S
C2331 C2334 1.526 1_565 S
C2332 H2316 0.959 . S
C2332 H2317 0.959 . S
C2332 H2318 0.961 . S
C2332 C2331 1.502 . S
C2333 H2319 0.960 1_545 S
C2333 H2320 0.961 . S
C2333 H2321 0.959 . S
C2333 C2331 1.561 1_545 S
C2334 C2331 1.526 1_545 S
C2334 C2335 1.396 . S
C2334 C2339 1.390 . S
C2335 C2329 1.466 1_545 S
C2335 C2334 1.396 . S
C2335 C2336 1.399 . S
C2336 H2322 0.929 . S
C2336 C2335 1.399 . S
C2336 C2337 1.385 . S
C2337 H2323 0.931 . S
C2337 C2336 1.385 . S
C2337 C2338 1.389 . S
C2338 C2337 1.389 . S
C2338 C2339 1.387 . S
C2339 H2324 0.930 . S
C2339 C2334 1.390 . S
C2339 C2338 1.387 . S
H2340 C2352 0.930 . S
H2341 C2354 0.930 . S
H2342 C2355 0.930 1_565 S
H2343 C2359 0.959 1_565 S
H2344 C2359 0.959 . S
H2345 C2359 0.961 . S
H2346 C2360 0.960 . S
H2347 C2360 0.961 . S
H2348 C2360 0.959 . S
H2349 C2363 0.929 . S
H2350 C2364 0.931 . S
H2351 C2366 0.930 . S
C2352 H2340 0.930 . S
C2352 C2353 1.399 . S
C2352 C2357 1.399 . S
C2353 C2352 1.399 . S
C2353 C2354 1.376 . S
C2354 H2341 0.930 . S
C2354 C2353 1.376 . S
C2354 C2355 1.388 . S
C2355 H2342 0.930 1_545 S
C2355 C2354 1.388 . S
C2355 C2356 1.390 . S
C2356 C2355 1.390 . S
C2356 C2357 1.394 . S
C2356 C2362 1.465 1_545 S
C2357 C2352 1.399 . S
C2357 C2356 1.394 . S
C2357 C2358 1.516 . S
C2358 C2357 1.516 . S
C2358 C2359 1.502 . S
C2358 C2360 1.561 . S
C2358 C2361 1.526 1_545 S
C2359 H2343 0.959 1_545 S
C2359 H2344 0.959 . S
C2359 H2345 0.961 . S
C2359 C2358 1.502 . S
C2360 H2346 0.960 . S
C2360 H2347 0.961 . S
C2360 H2348 0.959 . S
C2360 C2358 1.561 . S
C2361 C2358 1.526 1_565 S
C2361 C2362 1.396 . S
C2361 C2366 1.390 . S
C2362 C2356 1.465 1_565 S
C2362 C2361 1.396 . S
C2362 C2363 1.399 . S
C2363 H2349 0.929 . S
C2363 C2362 1.399 . S
C2363 C2364 1.385 . S
C2364 H2350 0.931 . S
C2364 C2363 1.385 . S
C2364 C2365 1.389 . S
C2365 C2364 1.389 . S
C2365 C2366 1.387 . S
C2366 H2351 0.930 . S
C2366 C2361 1.390 . S
C2366 C2365 1.387 . S
H2367 C2379 0.930 . S
H2368 C2381 0.930 . S
H2369 C2382 0.930 . S
H2370 C2386 0.959 . S
H2371 C2386 0.959 . S
H2372 C2386 0.961 . S
H2373 C2387 0.960 . S
H2374 C2387 0.961 . S
H2375 C2387 0.959 . S
H2376 C2390 0.929 . S
H2377 C2391 0.931 . S
H2378 C2393 0.930 . S
C2379 H2367 0.930 . S
C2379 C2380 1.399 . S
C2379 C2384 1.399 . S
C2380 C2379 1.399 . S
C2380 C2381 1.376 . S
C2381 H2368 0.930 . S
C2381 C2380 1.376 . S
C2381 C2382 1.388 . S
C2382 H2369 0.930 . S
C2382 C2381 1.388 . S
C2382 C2383 1.390 . S
C2383 C2382 1.390 . S
C2383 C2384 1.394 . S
C2383 C2389 1.465 1_455 S
C2384 C2379 1.399 . S
C2384 C2383 1.394 . S
C2384 C2385 1.524 . S
C2385 C2384 1.524 . S
C2385 C2386 1.515 . S
C2385 C2387 1.548 1_455 S
C2385 C2388 1.517 1_455 S
C2386 H2370 0.959 . S
C2386 H2371 0.959 . S
C2386 H2372 0.961 . S
C2386 C2385 1.515 . S
C2387 H2373 0.960 . S
C2387 H2374 0.961 . S
C2387 H2375 0.959 . S
C2387 C2385 1.548 1_655 S
C2388 C2385 1.517 1_655 S
C2388 C2389 1.396 . S
C2388 C2393 1.390 . S
C2389 C2383 1.465 1_655 S
C2389 C2388 1.396 . S
C2389 C2390 1.399 . S
C2390 H2376 0.929 . S
C2390 C2389 1.399 . S
C2390 C2391 1.385 . S
C2391 H2377 0.931 . S
C2391 C2390 1.385 . S
C2391 C2392 1.389 . S
C2392 C2391 1.389 . S
C2392 C2393 1.387 . S
C2393 H2378 0.930 . S
C2393 C2388 1.390 . S
C2393 C2392 1.387 . S
H2394 C2406 0.930 . S
H2395 C2408 0.930 . S
H2396 C2409 0.930 . S
H2397 C2413 0.959 . S
H2398 C2413 0.959 . S
H2399 C2413 0.961 . S
H2400 C2414 0.960 . S
H2401 C2414 0.961 . S
H2402 C2414 0.959 . S
H2403 C2417 0.929 . S
H2404 C2418 0.931 . S
H2405 C2420 0.930 . S
C2406 H2394 0.930 . S
C2406 C2407 1.399 . S
C2406 C2411 1.399 . S
C2407 C2406 1.399 . S
C2407 C2408 1.376 . S
C2408 H2395 0.930 . S
C2408 C2407 1.376 . S
C2408 C2409 1.388 . S
C2409 H2396 0.930 . S
C2409 C2408 1.388 . S
C2409 C2410 1.390 . S
C2410 C2409 1.390 . S
C2410 C2411 1.394 . S
C2410 C2416 1.465 . S
C2411 C2406 1.399 . S
C2411 C2410 1.394 . S
C2411 C2412 1.516 1_545 S
C2412 C2411 1.516 1_565 S
C2412 C2413 1.502 . S
C2412 C2414 1.561 . S
C2412 C2415 1.526 . S
C2413 H2397 0.959 . S
C2413 H2398 0.959 . S
C2413 H2399 0.961 . S
C2413 C2412 1.502 . S
C2414 H2400 0.960 . S
C2414 H2401 0.961 . S
C2414 H2402 0.959 . S
C2414 C2412 1.561 . S
C2415 C2412 1.526 . S
C2415 C2416 1.396 1_565 S
C2415 C2420 1.390 . S
C2416 C2410 1.465 . S
C2416 C2415 1.396 1_545 S
C2416 C2417 1.399 . S
C2417 H2403 0.929 . S
C2417 C2416 1.399 . S
C2417 C2418 1.385 1_545 S
C2418 H2404 0.931 . S
C2418 C2417 1.385 1_565 S
C2418 C2419 1.389 . S
C2419 C2418 1.389 . S
C2419 C2420 1.387 . S
C2420 H2405 0.930 . S
C2420 C2415 1.390 . S
C2420 C2419 1.387 . S
H2421 C2433 0.930 . S
H2422 C2435 0.930 . S
H2423 C2436 0.930 . S
H2424 C2440 0.959 . S
H2425 C2440 0.959 . S
H2426 C2440 0.961 . S
H2427 C2441 0.960 . S
H2428 C2441 0.965 . S
H2429 C2441 0.959 . S
H2430 C2444 0.929 1_655 S
H2431 C2445 0.931 . S
H2432 C2447 0.930 . S
C2433 H2421 0.930 . S
C2433 C2434 1.399 . S
C2433 C2438 1.399 . S
C2434 C2433 1.399 . S
C2434 C2435 1.376 . S
C2435 H2422 0.930 . S
C2435 C2434 1.376 . S
C2435 C2436 1.388 . S
C2436 H2423 0.930 . S
C2436 C2435 1.388 . S
C2436 C2437 1.390 . S
C2437 C2436 1.390 . S
C2437 C2438 1.394 . S
C2437 C2443 1.431 1_655 S
C2438 C2433 1.399 . S
C2438 C2437 1.394 . S
C2438 C2439 1.516 1_655 S
C2439 C2438 1.516 1_455 S
C2439 C2440 1.502 . S
C2439 C2441 1.561 1_455 S
C2439 C2442 1.526 . S
C2440 H2424 0.959 . S
C2440 H2425 0.959 . S
C2440 H2426 0.961 . S
C2440 C2439 1.502 . S
C2441 H2427 0.960 . S
C2441 H2428 0.965 . S
C2441 H2429 0.959 . S
C2441 C2439 1.561 1_655 S
C2442 C2439 1.526 . S
C2442 C2443 1.428 . S
C2442 C2447 1.390 . S
C2443 C2437 1.431 1_455 S
C2443 C2442 1.428 . S
C2443 C2444 1.408 . S
C2444 H2430 0.929 1_455 S
C2444 C2443 1.408 . S
C2444 C2445 1.385 . S
C2445 H2431 0.931 . S
C2445 C2444 1.385 . S
C2445 C2446 1.389 . S
C2446 C2445 1.389 . S
C2446 C2447 1.387 . S
C2447 H2432 0.930 . S
C2447 C2442 1.390 . S
C2447 C2446 1.387 . S
H2448 C2460 0.930 . S
H2449 C2462 0.930 . S
H2450 C2463 0.930 . S
H2451 C2467 0.959 . S
H2452 C2467 0.959 . S
H2453 C2467 0.961 . S
H2454 C2468 0.990 . S
H2455 C2468 0.954 1_554 S
H2456 C2468 0.917 1_554 S
H2457 C2471 0.929 . S
H2458 C2472 0.931 . S
H2459 C2474 0.930 . S
C2460 H2448 0.930 . S
C2460 C2461 1.399 . S
C2460 C2465 1.399 . S
C2461 C2460 1.399 . S
C2461 C2462 1.376 . S
C2462 H2449 0.930 . S
C2462 C2461 1.376 . S
C2462 C2463 1.388 1_556 S
C2463 H2450 0.930 . S
C2463 C2462 1.388 1_554 S
C2463 C2464 1.393 . S
C2464 C2463 1.393 . S
C2464 C2465 1.361 1_554 S
C2464 C2470 1.492 . S
C2465 C2460 1.399 . S
C2465 C2464 1.361 1_556 S
C2465 C2466 1.516 . S
C2466 C2465 1.516 . S
C2466 C2467 1.502 . S
C2466 C2468 1.580 . S
C2466 C2469 1.526 1_556 S
C2467 H2451 0.959 . S
C2467 H2452 0.959 . S
C2467 H2453 0.961 . S
C2467 C2466 1.502 . S
C2468 H2454 0.990 . S
C2468 H2455 0.954 1_556 S
C2468 H2456 0.917 1_556 S
C2468 C2466 1.580 . S
C2469 C2466 1.526 1_554 S
C2469 C2470 1.396 . S
C2469 C2474 1.390 . S
C2470 C2464 1.492 . S
C2470 C2469 1.396 . S
C2470 C2471 1.399 . S
C2471 H2457 0.929 . S
C2471 C2470 1.399 . S
C2471 C2472 1.385 . S
C2472 H2458 0.931 . S
C2472 C2471 1.385 . S
C2472 C2473 1.389 . S
C2473 C2472 1.389 . S
C2473 C2474 1.387 . S
C2474 H2459 0.930 . S
C2474 C2469 1.390 . S
C2474 C2473 1.387 . S
H2475 C2487 0.930 . S
H2476 C2489 0.930 . S
H2477 C2490 0.930 1_554 S
H2478 C2494 0.959 . S
H2479 C2494 0.959 . S
H2480 C2494 0.961 . S
H2481 C2495 0.960 . S
H2482 C2495 0.961 . S
H2483 C2495 0.959 . S
H2484 C2498 0.929 . S
H2485 C2499 0.931 . S
H2486 C2501 0.930 . S
C2487 H2475 0.930 . S
C2487 C2488 1.399 . S
C2487 C2492 1.399 . S
C2488 C2487 1.399 . S
C2488 C2489 1.376 . S
C2489 H2476 0.930 . S
C2489 C2488 1.376 . S
C2489 C2490 1.388 . S
C2490 H2477 0.930 1_556 S
C2490 C2489 1.388 . S
C2490 C2491 1.398 . S
C2491 C2490 1.398 . S
C2491 C2492 1.422 . S
C2491 C2497 1.435 1_556 S
C2492 C2487 1.399 . S
C2492 C2491 1.422 . S
C2492 C2493 1.516 . S
C2493 C2492 1.516 . S
C2493 C2494 1.502 . S
C2493 C2495 1.561 1_556 S
C2493 C2496 1.526 1_556 S
C2494 H2478 0.959 . S
C2494 H2479 0.959 . S
C2494 H2480 0.961 . S
C2494 C2493 1.502 . S
C2495 H2481 0.960 . S
C2495 H2482 0.961 . S
C2495 H2483 0.959 . S
C2495 C2493 1.561 1_554 S
C2496 C2493 1.526 1_554 S
C2496 C2497 1.396 . S
C2496 C2501 1.390 . S
C2497 C2491 1.435 1_554 S
C2497 C2496 1.396 . S
C2497 C2498 1.399 . S
C2498 H2484 0.929 . S
C2498 C2497 1.399 . S
C2498 C2499 1.385 . S
C2499 H2485 0.931 . S
C2499 C2498 1.385 . S
C2499 C2500 1.389 . S
C2500 C2499 1.389 . S
C2500 C2501 1.387 . S
C2501 H2486 0.930 . S
C2501 C2496 1.390 . S
C2501 C2500 1.387 . S
H2502 C2514 0.930 . S
H2503 C2516 0.930 . S
H2504 C2517 0.930 . S
H2505 C2521 0.959 . S
H2506 C2521 0.959 . S
H2507 C2521 0.961 . S
H2508 C2522 0.960 . S
H2509 C2522 0.961 . S
H2510 C2522 0.959 . S
H2511 C2525 0.929 . S
H2512 C2526 0.931 . S
H2513 C2528 0.962 . S
C2514 H2502 0.930 . S
C2514 C2515 1.399 . S
C2514 C2519 1.399 . S
C2515 C2514 1.399 . S
C2515 C2516 1.376 . S
C2516 H2503 0.930 . S
C2516 C2515 1.376 . S
C2516 C2517 1.388 1_556 S
C2517 H2504 0.930 . S
C2517 C2516 1.388 1_554 S
C2517 C2518 1.390 . S
C2518 C2517 1.390 . S
C2518 C2519 1.394 1_554 S
C2518 C2524 1.465 . S
C2519 C2514 1.399 . S
C2519 C2518 1.394 1_556 S
C2519 C2520 1.516 . S
C2520 C2519 1.516 . S
C2520 C2521 1.502 . S
C2520 C2522 1.561 . S
C2520 C2523 1.526 1_556 S
C2521 H2505 0.959 . S
C2521 H2506 0.959 . S
C2521 H2507 0.961 . S
C2521 C2520 1.502 . S
C2522 H2508 0.960 . S
C2522 H2509 0.961 . S
C2522 H2510 0.959 . S
C2522 C2520 1.561 . S
C2523 C2520 1.526 1_554 S
C2523 C2524 1.396 . S
C2523 C2528 1.390 . S
C2524 C2518 1.465 . S
C2524 C2523 1.396 . S
C2524 C2525 1.399 . S
C2525 H2511 0.929 . S
C2525 C2524 1.399 . S
C2525 C2526 1.385 . S
C2526 H2512 0.931 . S
C2526 C2525 1.385 . S
C2526 C2527 1.389 . S
C2527 C2526 1.389 . S
C2527 C2528 1.387 . S
C2528 H2513 0.962 . S
C2528 C2523 1.390 . S
C2528 C2527 1.387 . S
H2529 C2541 0.930 . S
H2530 C2543 0.930 . S
H2531 C2544 0.930 . S
H2532 C2548 0.959 . S
H2533 C2548 0.959 . S
H2534 C2548 0.961 . S
H2535 C2549 0.960 . S
H2536 C2549 0.961 . S
H2537 C2549 0.959 . S
H2538 C2552 0.929 . S
H2539 C2553 0.931 . S
H2540 C2555 0.928 . S
C2541 H2529 0.930 . S
C2541 C2542 1.399 . S
C2541 C2546 1.399 . S
C2542 C2541 1.399 . S
C2542 C2543 1.376 . S
C2543 H2530 0.930 . S
C2543 C2542 1.376 . S
C2543 C2544 1.388 1_556 S
C2544 H2531 0.930 . S
C2544 C2543 1.388 1_554 S
C2544 C2545 1.390 . S
C2545 C2544 1.390 . S
C2545 C2546 1.394 1_554 S
C2545 C2551 1.465 . S
C2546 C2541 1.399 . S
C2546 C2545 1.394 1_556 S
C2546 C2547 1.516 . S
C2547 C2546 1.516 . S
C2547 C2548 1.502 . S
C2547 C2549 1.561 . S
C2547 C2550 1.467 1_556 S
C2548 H2532 0.959 . S
C2548 H2533 0.959 . S
C2548 H2534 0.961 . S
C2548 C2547 1.502 . S
C2549 H2535 0.960 . S
C2549 H2536 0.961 . S
C2549 H2537 0.959 . S
C2549 C2547 1.561 . S
C2550 C2547 1.467 1_554 S
C2550 C2551 1.435 . S
C2550 C2555 1.413 . S
C2551 C2545 1.465 . S
C2551 C2550 1.435 . S
C2551 C2552 1.399 . S
C2552 H2538 0.929 . S
C2552 C2551 1.399 . S
C2552 C2553 1.385 . S
C2553 H2539 0.931 . S
C2553 C2552 1.385 . S
C2553 C2554 1.389 . S
C2554 C2553 1.389 . S
C2554 C2555 1.387 . S
C2555 H2540 0.928 . S
C2555 C2550 1.413 . S
C2555 C2554 1.387 . S
H2556 C2568 0.930 . S
H2557 C2570 0.930 . S
H2558 C2571 0.930 . S
H2559 C2575 0.959 . S
H2560 C2575 0.959 . S
H2561 C2575 0.961 . S
H2562 C2576 0.960 1_545 S
H2563 C2576 0.961 . S
H2564 C2576 0.959 . S
H2565 C2579 0.929 . S
H2566 C2580 0.931 . S
H2567 C2582 0.930 . S
C2568 H2556 0.930 . S
C2568 C2569 1.399 . S
C2568 C2573 1.399 . S
C2569 C2568 1.399 . S
C2569 C2570 1.376 . S
C2570 H2557 0.930 . S
C2570 C2569 1.376 . S
C2570 C2571 1.388 . S
C2571 H2558 0.930 . S
C2571 C2570 1.388 . S
C2571 C2572 1.390 . S
C2572 C2571 1.390 . S
C2572 C2573 1.394 . S
C2572 C2578 1.465 1_545 S
C2573 C2568 1.399 . S
C2573 C2572 1.394 . S
C2573 C2574 1.516 . S
C2574 C2573 1.516 . S
C2574 C2575 1.502 . S
C2574 C2576 1.561 1_545 S
C2574 C2577 1.526 1_545 S
C2575 H2559 0.959 . S
C2575 H2560 0.959 . S
C2575 H2561 0.961 . S
C2575 C2574 1.502 . S
C2576 H2562 0.960 1_565 S
C2576 H2563 0.961 . S
C2576 H2564 0.959 . S
C2576 C2574 1.561 1_565 S
C2577 C2574 1.526 1_565 S
C2577 C2578 1.396 . S
C2577 C2582 1.390 . S
C2578 C2572 1.465 1_565 S
C2578 C2577 1.396 . S
C2578 C2579 1.399 . S
C2579 H2565 0.929 . S
C2579 C2578 1.399 . S
C2579 C2580 1.385 . S
C2580 H2566 0.931 . S
C2580 C2579 1.385 . S
C2580 C2581 1.389 . S
C2581 C2580 1.389 . S
C2581 C2582 1.387 . S
C2582 H2567 0.930 . S
C2582 C2577 1.390 . S
C2582 C2581 1.387 . S
H2583 C2595 0.930 . S
H2584 C2597 0.930 . S
H2585 C2598 0.930 . S
H2586 C2602 0.996 . S
H2587 C2602 0.959 . S
H2588 C2602 0.961 . S
H2589 C2603 0.960 . S
H2590 C2603 0.961 . S
H2591 C2603 0.959 . S
H2592 C2606 0.929 . S
H2593 C2607 0.931 . S
H2594 C2609 0.930 . S
C2595 H2583 0.930 . S
C2595 C2596 1.399 . S
C2595 C2600 1.399 . S
C2596 C2595 1.399 . S
C2596 C2597 1.376 . S
C2597 H2584 0.930 . S
C2597 C2596 1.376 . S
C2597 C2598 1.388 . S
C2598 H2585 0.930 . S
C2598 C2597 1.388 . S
C2598 C2599 1.390 . S
C2599 C2598 1.390 . S
C2599 C2600 1.394 . S
C2599 C2605 1.465 1_655 S
C2600 C2595 1.399 . S
C2600 C2599 1.394 . S
C2600 C2601 1.516 . S
C2601 C2600 1.516 . S
C2601 C2602 1.502 . S
C2601 C2603 1.561 . S
C2601 C2604 1.526 1_655 S
C2602 H2586 0.996 . S
C2602 H2587 0.959 . S
C2602 H2588 0.961 . S
C2602 C2601 1.502 . S
C2603 H2589 0.960 . S
C2603 H2590 0.961 . S
C2603 H2591 0.959 . S
C2603 C2601 1.561 . S
C2604 C2601 1.526 1_455 S
C2604 C2605 1.396 . S
C2604 C2609 1.390 . S
C2605 C2599 1.465 1_455 S
C2605 C2604 1.396 . S
C2605 C2606 1.399 . S
C2606 H2592 0.929 . S
C2606 C2605 1.399 . S
C2606 C2607 1.385 . S
C2607 H2593 0.931 . S
C2607 C2606 1.385 . S
C2607 C2608 1.389 . S
C2608 C2607 1.389 . S
C2608 C2609 1.387 . S
C2609 H2594 0.930 . S
C2609 C2604 1.390 . S
C2609 C2608 1.387 . S
H2610 C2622 0.930 . S
H2611 C2624 0.930 . S
H2612 C2625 0.930 . S
H2613 C2629 0.959 . S
H2614 C2629 0.959 . S
H2615 C2629 0.961 1_565 S
H2616 C2630 0.960 . S
H2617 C2630 0.961 . S
H2618 C2630 0.959 . S
H2619 C2633 0.929 . S
H2620 C2634 0.931 . S
H2621 C2636 0.930 . S
C2622 H2610 0.930 . S
C2622 C2623 1.399 . S
C2622 C2627 1.399 . S
C2623 C2622 1.399 . S
C2623 C2624 1.376 . S
C2624 H2611 0.930 . S
C2624 C2623 1.376 . S
C2624 C2625 1.388 . S
C2625 H2612 0.930 . S
C2625 C2624 1.388 . S
C2625 C2626 1.390 . S
C2626 C2625 1.390 . S
C2626 C2627 1.394 . S
C2626 C2632 1.465 1_565 S
C2627 C2622 1.399 . S
C2627 C2626 1.394 . S
C2627 C2628 1.538 . S
C2628 C2627 1.538 . S
C2628 C2629 1.489 1_565 S
C2628 C2630 1.576 . S
C2628 C2631 1.504 1_565 S
C2629 H2613 0.959 . S
C2629 H2614 0.959 . S
C2629 H2615 0.961 1_545 S
C2629 C2628 1.489 1_545 S
C2630 H2616 0.960 . S
C2630 H2617 0.961 . S
C2630 H2618 0.959 . S
C2630 C2628 1.576 . S
C2631 C2628 1.504 1_545 S
C2631 C2632 1.396 . S
C2631 C2636 1.390 . S
C2632 C2626 1.465 1_545 S
C2632 C2631 1.396 . S
C2632 C2633 1.399 . S
C2633 H2619 0.929 . S
C2633 C2632 1.399 . S
C2633 C2634 1.385 . S
C2634 H2620 0.931 . S
C2634 C2633 1.385 . S
C2634 C2635 1.389 . S
C2635 C2634 1.389 . S
C2635 C2636 1.387 . S
C2636 H2621 0.930 . S
C2636 C2631 1.390 . S
C2636 C2635 1.387 . S
H2637 C2649 0.930 . S
H2638 C2651 0.930 . S
H2639 C2652 0.930 . S
H2640 C2656 0.959 . S
H2641 C2656 0.959 . S
H2642 C2656 0.961 . S
H2643 C2657 0.960 1_455 S
H2644 C2657 0.961 . S
H2645 C2657 0.959 . S
H2646 C2660 0.929 . S
H2647 C2661 0.931 . S
H2648 C2663 0.930 . S
C2649 H2637 0.930 . S
C2649 C2650 1.399 . S
C2649 C2654 1.399 . S
C2650 C2649 1.399 . S
C2650 C2651 1.376 . S
C2651 H2638 0.930 . S
C2651 C2650 1.376 . S
C2651 C2652 1.388 . S
C2652 H2639 0.930 . S
C2652 C2651 1.388 . S
C2652 C2653 1.390 . S
C2653 C2652 1.390 . S
C2653 C2654 1.394 . S
C2653 C2659 1.465 1_455 S
C2654 C2649 1.399 . S
C2654 C2653 1.394 . S
C2654 C2655 1.516 . S
C2655 C2654 1.516 . S
C2655 C2656 1.502 . S
C2655 C2657 1.561 1_455 S
C2655 C2658 1.526 1_455 S
C2656 H2640 0.959 . S
C2656 H2641 0.959 . S
C2656 H2642 0.961 . S
C2656 C2655 1.502 . S
C2657 H2643 0.960 1_655 S
C2657 H2644 0.961 . S
C2657 H2645 0.959 . S
C2657 C2655 1.561 1_655 S
C2658 C2655 1.526 1_655 S
C2658 C2659 1.396 . S
C2658 C2663 1.390 . S
C2659 C2653 1.465 1_655 S
C2659 C2658 1.396 . S
C2659 C2660 1.399 . S
C2660 H2646 0.929 . S
C2660 C2659 1.399 . S
C2660 C2661 1.385 . S
C2661 H2647 0.931 . S
C2661 C2660 1.385 . S
C2661 C2662 1.389 . S
C2662 C2661 1.389 . S
C2662 C2663 1.387 . S
C2663 H2648 0.930 . S
C2663 C2658 1.390 . S
C2663 C2662 1.387 . S
H2664 C2676 0.930 . S
H2665 C2678 0.930 . S
H2666 C2679 0.930 . S
H2667 C2683 0.959 . S
H2668 C2683 0.959 . S
H2669 C2683 0.961 . S
H2670 C2684 0.960 . S
H2671 C2684 0.961 . S
H2672 C2684 0.959 . S
H2673 C2687 0.970 . S
H2674 C2688 0.931 . S
H2675 C2690 0.930 . S
C2676 H2664 0.930 . S
C2676 C2677 1.399 . S
C2676 C2681 1.399 . S
C2677 C2676 1.399 . S
C2677 C2678 1.376 . S
C2678 H2665 0.930 . S
C2678 C2677 1.376 . S
C2678 C2679 1.388 . S
C2679 H2666 0.930 . S
C2679 C2678 1.388 . S
C2679 C2680 1.390 . S
C2680 C2679 1.390 . S
C2680 C2681 1.394 . S
C2680 C2686 1.465 1_556 S
C2681 C2676 1.399 . S
C2681 C2680 1.394 . S
C2681 C2682 1.516 1_556 S
C2682 C2681 1.516 1_554 S
C2682 C2683 1.502 . S
C2682 C2684 1.561 . S
C2682 C2685 1.526 . S
C2683 H2667 0.959 . S
C2683 H2668 0.959 . S
C2683 H2669 0.961 . S
C2683 C2682 1.502 . S
C2684 H2670 0.960 . S
C2684 H2671 0.961 . S
C2684 H2672 0.959 . S
C2684 C2682 1.561 . S
C2685 C2682 1.526 . S
C2685 C2686 1.396 . S
C2685 C2690 1.390 . S
C2686 C2680 1.465 1_554 S
C2686 C2685 1.396 . S
C2686 C2687 1.399 . S
C2687 H2673 0.970 . S
C2687 C2686 1.399 . S
C2687 C2688 1.385 . S
C2688 H2674 0.931 . S
C2688 C2687 1.385 . S
C2688 C2689 1.389 . S
C2689 C2688 1.389 . S
C2689 C2690 1.387 . S
C2690 H2675 0.930 . S
C2690 C2685 1.390 . S
C2690 C2689 1.387 . S
H2691 C2703 0.930 . S
H2692 C2705 0.930 . S
H2693 C2706 0.930 . S
H2694 C2710 0.959 . S
H2695 C2710 0.959 . S
H2696 C2710 0.961 . S
H2697 C2711 0.917 1_556 S
H2698 C2711 0.988 . S
H2699 C2711 0.991 . S
H2700 C2714 0.929 . S
H2701 C2715 0.931 . S
H2702 C2717 0.930 . S
C2703 H2691 0.930 . S
C2703 C2704 1.399 . S
C2703 C2708 1.399 . S
C2704 C2703 1.399 . S
C2704 C2705 1.376 . S
C2705 H2692 0.930 . S
C2705 C2704 1.376 . S
C2705 C2706 1.388 . S
C2706 H2693 0.930 . S
C2706 C2705 1.388 . S
C2706 C2707 1.390 . S
C2707 C2706 1.390 . S
C2707 C2708 1.394 . S
C2707 C2713 1.465 1_556 S
C2708 C2703 1.399 . S
C2708 C2707 1.394 . S
C2708 C2709 1.516 . S
C2709 C2708 1.516 . S
C2709 C2710 1.502 . S
C2709 C2711 1.548 1_556 S
C2709 C2712 1.526 1_556 S
C2710 H2694 0.959 . S
C2710 H2695 0.959 . S
C2710 H2696 0.961 . S
C2710 C2709 1.502 . S
C2711 H2697 0.917 1_554 S
C2711 H2698 0.988 . S
C2711 H2699 0.991 . S
C2711 C2709 1.548 1_554 S
C2712 C2709 1.526 1_554 S
C2712 C2713 1.396 . S
C2712 C2717 1.390 . S
C2713 C2707 1.465 1_554 S
C2713 C2712 1.396 . S
C2713 C2714 1.399 . S
C2714 H2700 0.929 . S
C2714 C2713 1.399 . S
C2714 C2715 1.385 . S
C2715 H2701 0.931 . S
C2715 C2714 1.385 . S
C2715 C2716 1.389 . S
C2716 C2715 1.389 . S
C2716 C2717 1.387 . S
C2717 H2702 0.930 . S
C2717 C2712 1.390 . S
C2717 C2716 1.387 . S
H2718 C2730 0.930 . S
H2719 C2732 0.930 . S
H2720 C2733 0.930 . S
H2721 C2737 0.959 1_554 S
H2722 C2737 0.959 . S
H2723 C2737 0.961 1_554 S
H2724 C2738 0.960 . S
H2725 C2738 0.961 . S
H2726 C2738 0.959 . S
H2727 C2741 0.929 . S
H2728 C2742 0.931 . S
H2729 C2744 0.930 . S
C2730 H2718 0.930 . S
C2730 C2731 1.399 . S
C2730 C2735 1.399 . S
C2731 C2730 1.399 . S
C2731 C2732 1.376 . S
C2732 H2719 0.930 . S
C2732 C2731 1.376 . S
C2732 C2733 1.388 . S
C2733 H2720 0.930 . S
C2733 C2732 1.388 . S
C2733 C2734 1.390 . S
C2734 C2733 1.390 . S
C2734 C2735 1.394 . S
C2734 C2740 1.465 1_554 S
C2735 C2730 1.399 . S
C2735 C2734 1.394 . S
C2735 C2736 1.516 1_554 S
C2736 C2735 1.516 1_556 S
C2736 C2737 1.502 . S
C2736 C2738 1.561 . S
C2736 C2739 1.526 . S
C2737 H2721 0.959 1_556 S
C2737 H2722 0.959 . S
C2737 H2723 0.961 1_556 S
C2737 C2736 1.502 . S
C2738 H2724 0.960 . S
C2738 H2725 0.961 . S
C2738 H2726 0.959 . S
C2738 C2736 1.561 . S
C2739 C2736 1.526 . S
C2739 C2740 1.396 . S
C2739 C2744 1.390 . S
C2740 C2734 1.465 1_556 S
C2740 C2739 1.396 . S
C2740 C2741 1.399 . S
C2741 H2727 0.929 . S
C2741 C2740 1.399 . S
C2741 C2742 1.385 . S
C2742 H2728 0.931 . S
C2742 C2741 1.385 . S
C2742 C2743 1.389 . S
C2743 C2742 1.389 . S
C2743 C2744 1.387 . S
C2744 H2729 0.930 . S
C2744 C2739 1.390 . S
C2744 C2743 1.387 . S
H2745 C2757 0.930 . S
H2746 C2759 0.930 . S
H2747 C2760 0.930 . S
H2748 C2764 0.959 . S
H2749 C2764 0.959 . S
H2750 C2764 0.961 . S
H2751 C2765 0.960 . S
H2752 C2765 0.961 1_556 S
H2753 C2765 0.959 . S
H2754 C2768 0.929 . S
H2755 C2769 0.931 . S
H2756 C2771 0.930 . S
C2757 H2745 0.930 . S
C2757 C2758 1.399 . S
C2757 C2762 1.399 . S
C2758 C2757 1.399 . S
C2758 C2759 1.376 . S
C2759 H2746 0.930 . S
C2759 C2758 1.376 . S
C2759 C2760 1.388 . S
C2760 H2747 0.930 . S
C2760 C2759 1.388 . S
C2760 C2761 1.390 . S
C2761 C2760 1.390 . S
C2761 C2762 1.394 . S
C2761 C2767 1.465 1_554 S
C2762 C2757 1.399 . S
C2762 C2761 1.394 . S
C2762 C2763 1.516 1_554 S
C2763 C2762 1.516 1_556 S
C2763 C2764 1.502 . S
C2763 C2765 1.561 1_556 S
C2763 C2766 1.526 . S
C2764 H2748 0.959 . S
C2764 H2749 0.959 . S
C2764 H2750 0.961 . S
C2764 C2763 1.502 . S
C2765 H2751 0.960 . S
C2765 H2752 0.961 1_554 S
C2765 H2753 0.959 . S
C2765 C2763 1.561 1_554 S
C2766 C2763 1.526 . S
C2766 C2767 1.396 . S
C2766 C2771 1.390 . S
C2767 C2761 1.465 1_556 S
C2767 C2766 1.396 . S
C2767 C2768 1.399 . S
C2768 H2754 0.929 . S
C2768 C2767 1.399 . S
C2768 C2769 1.385 . S
C2769 H2755 0.931 . S
C2769 C2768 1.385 . S
C2769 C2770 1.389 . S
C2770 C2769 1.389 . S
C2770 C2771 1.387 . S
C2771 H2756 0.930 . S
C2771 C2766 1.390 . S
C2771 C2770 1.387 . S
H2772 C2784 0.930 . S
H2773 C2786 0.930 . S
H2774 C2787 0.930 . S
H2775 C2791 0.959 . S
H2776 C2791 0.959 . S
H2777 C2791 0.961 . S
H2778 C2792 1.015 . S
H2779 C2792 0.931 1_455 S
H2780 C2792 0.922 1_455 S
H2781 C2795 0.929 . S
H2782 C2796 0.931 . S
H2783 C2798 0.930 . S
C2784 H2772 0.930 . S
C2784 C2785 1.399 . S
C2784 C2789 1.399 . S
C2785 C2784 1.399 . S
C2785 C2786 1.376 . S
C2786 H2773 0.930 . S
C2786 C2785 1.376 . S
C2786 C2787 1.388 . S
C2787 H2774 0.930 . S
C2787 C2786 1.388 . S
C2787 C2788 1.390 . S
C2788 C2787 1.390 . S
C2788 C2789 1.394 . S
C2788 C2794 1.465 1_655 S
C2789 C2784 1.399 . S
C2789 C2788 1.394 . S
C2789 C2790 1.516 . S
C2790 C2789 1.516 . S
C2790 C2791 1.502 . S
C2790 C2792 1.577 . S
C2790 C2793 1.526 1_655 S
C2791 H2775 0.959 . S
C2791 H2776 0.959 . S
C2791 H2777 0.961 . S
C2791 C2790 1.502 . S
C2792 H2778 1.015 . S
C2792 H2779 0.931 1_655 S
C2792 H2780 0.922 1_655 S
C2792 C2790 1.577 . S
C2793 C2790 1.526 1_455 S
C2793 C2794 1.396 . S
C2793 C2798 1.390 . S
C2794 C2788 1.465 1_455 S
C2794 C2793 1.396 . S
C2794 C2795 1.399 . S
C2795 H2781 0.929 . S
C2795 C2794 1.399 . S
C2795 C2796 1.385 . S
C2796 H2782 0.931 . S
C2796 C2795 1.385 . S
C2796 C2797 1.389 . S
C2797 C2796 1.389 . S
C2797 C2798 1.387 . S
C2798 H2783 0.930 . S
C2798 C2793 1.390 . S
C2798 C2797 1.387 . S
H2799 C2811 0.930 . S
H2800 C2813 0.930 . S
H2801 C2814 0.930 . S
H2802 C2818 0.959 . S
H2803 C2818 0.959 . S
H2804 C2818 0.961 . S
H2805 C2819 0.960 . S
H2806 C2819 0.961 1_655 S
H2807 C2819 0.959 . S
H2808 C2822 0.929 . S
H2809 C2823 0.931 . S
H2810 C2825 0.930 . S
C2811 H2799 0.930 . S
C2811 C2812 1.399 . S
C2811 C2816 1.399 . S
C2812 C2811 1.399 . S
C2812 C2813 1.376 . S
C2813 H2800 0.930 . S
C2813 C2812 1.376 . S
C2813 C2814 1.388 . S
C2814 H2801 0.930 . S
C2814 C2813 1.388 . S
C2814 C2815 1.390 . S
C2815 C2814 1.390 . S
C2815 C2816 1.394 . S
C2815 C2821 1.465 1_455 S
C2816 C2811 1.399 . S
C2816 C2815 1.394 . S
C2816 C2817 1.516 1_455 S
C2817 C2816 1.516 1_655 S
C2817 C2818 1.502 . S
C2817 C2819 1.561 1_655 S
C2817 C2820 1.526 . S
C2818 H2802 0.959 . S
C2818 H2803 0.959 . S
C2818 H2804 0.961 . S
C2818 C2817 1.502 . S
C2819 H2805 0.960 . S
C2819 H2806 0.961 1_455 S
C2819 H2807 0.959 . S
C2819 C2817 1.561 1_455 S
C2820 C2817 1.526 . S
C2820 C2821 1.396 . S
C2820 C2825 1.390 . S
C2821 C2815 1.465 1_655 S
C2821 C2820 1.396 . S
C2821 C2822 1.399 . S
C2822 H2808 0.929 . S
C2822 C2821 1.399 . S
C2822 C2823 1.385 . S
C2823 H2809 0.931 . S
C2823 C2822 1.385 . S
C2823 C2824 1.389 . S
C2824 C2823 1.389 . S
C2824 C2825 1.387 . S
C2825 H2810 0.930 . S
C2825 C2820 1.390 . S
C2825 C2824 1.387 . S
H2826 C2838 0.930 . S
H2827 C2840 0.930 . S
H2828 C2841 0.930 . S
H2829 C2845 0.959 1_565 S
H2830 C2845 0.959 1_565 S
H2831 C2845 0.961 . S
H2832 C2846 0.960 . S
H2833 C2846 0.961 . S
H2834 C2846 0.959 . S
H2835 C2849 0.929 . S
H2836 C2850 0.931 . S
H2837 C2852 0.930 . S
C2838 H2826 0.930 . S
C2838 C2839 1.399 . S
C2838 C2843 1.399 . S
C2839 C2838 1.399 . S
C2839 C2840 1.376 . S
C2840 H2827 0.930 . S
C2840 C2839 1.376 . S
C2840 C2841 1.388 . S
C2841 H2828 0.930 . S
C2841 C2840 1.388 . S
C2841 C2842 1.390 . S
C2842 C2841 1.390 . S
C2842 C2843 1.394 . S
C2842 C2848 1.465 1_545 S
C2843 C2838 1.399 . S
C2843 C2842 1.394 . S
C2843 C2844 1.516 . S
C2844 C2843 1.516 . S
C2844 C2845 1.502 . S
C2844 C2846 1.561 . S
C2844 C2847 1.526 1_545 S
C2845 H2829 0.959 1_545 S
C2845 H2830 0.959 1_545 S
C2845 H2831 0.961 . S
C2845 C2844 1.502 . S
C2846 H2832 0.960 . S
C2846 H2833 0.961 . S
C2846 H2834 0.959 . S
C2846 C2844 1.561 . S
C2847 C2844 1.526 1_565 S
C2847 C2848 1.396 . S
C2847 C2852 1.390 . S
C2848 C2842 1.465 1_565 S
C2848 C2847 1.396 . S
C2848 C2849 1.399 . S
C2849 H2835 0.929 . S
C2849 C2848 1.399 . S
C2849 C2850 1.385 . S
C2850 H2836 0.931 . S
C2850 C2849 1.385 . S
C2850 C2851 1.389 . S
C2851 C2850 1.389 . S
C2851 C2852 1.387 . S
C2852 H2837 0.930 . S
C2852 C2847 1.390 . S
C2852 C2851 1.387 . S
H2853 C2865 0.930 . S
H2854 C2867 0.930 . S
H2855 C2868 0.930 . S
H2856 C2872 0.959 . S
H2857 C2872 0.959 . S
H2858 C2872 0.961 . S
H2859 C2873 0.971 . S
H2860 C2873 0.961 . S
H2861 C2873 0.959 . S
H2862 C2876 0.916 1_565 S
H2863 C2877 0.931 . S
H2864 C2879 0.930 . S
C2865 H2853 0.930 . S
C2865 C2866 1.399 . S
C2865 C2870 1.399 . S
C2866 C2865 1.399 . S
C2866 C2867 1.376 . S
C2867 H2854 0.930 . S
C2867 C2866 1.376 . S
C2867 C2868 1.388 . S
C2868 H2855 0.930 . S
C2868 C2867 1.388 . S
C2868 C2869 1.390 . S
C2869 C2868 1.390 . S
C2869 C2870 1.394 . S
C2869 C2875 1.465 1_565 S
C2870 C2865 1.399 . S
C2870 C2869 1.394 . S
C2870 C2871 1.516 1_565 S
C2871 C2870 1.516 1_545 S
C2871 C2872 1.502 . S
C2871 C2873 1.561 . S
C2871 C2874 1.526 . S
C2872 H2856 0.959 . S
C2872 H2857 0.959 . S
C2872 H2858 0.961 . S
C2872 C2871 1.502 . S
C2873 H2859 0.971 . S
C2873 H2860 0.961 . S
C2873 H2861 0.959 . S
C2873 C2871 1.561 . S
C2874 C2871 1.526 . S
C2874 C2875 1.396 . S
C2874 C2879 1.390 . S
C2875 C2869 1.465 1_545 S
C2875 C2874 1.396 . S
C2875 C2876 1.399 . S
C2876 H2862 0.916 1_545 S
C2876 C2875 1.399 . S
C2876 C2877 1.385 . S
C2877 H2863 0.931 . S
C2877 C2876 1.385 . S
C2877 C2878 1.389 . S
C2878 C2877 1.389 . S
C2878 C2879 1.387 . S
C2879 H2864 0.930 . S
C2879 C2874 1.390 . S
C2879 C2878 1.387 . S
H2880 C2892 0.930 . S
H2881 C2894 0.930 . S
H2882 C2895 0.930 . S
H2883 C2899 0.959 . S
H2884 C2899 0.959 . S
H2885 C2899 0.961 . S
H2886 C2900 0.960 . S
H2887 C2900 0.961 . S
H2888 C2900 0.959 . S
H2889 C2903 0.929 . S
H2890 C2904 0.931 . S
H2891 C2906 0.930 . S
C2892 H2880 0.930 . S
C2892 C2893 1.399 . S
C2892 C2897 1.399 . S
C2893 C2892 1.399 . S
C2893 C2894 1.376 . S
C2894 H2881 0.930 . S
C2894 C2893 1.376 . S
C2894 C2895 1.388 . S
C2895 H2882 0.930 . S
C2895 C2894 1.388 . S
C2895 C2896 1.390 . S
C2896 C2895 1.390 . S
C2896 C2897 1.394 . S
C2896 C2902 1.465 . S
C2897 C2892 1.399 . S
C2897 C2896 1.394 . S
C2897 C2898 1.516 . S
C2898 C2897 1.516 . S
C2898 C2899 1.502 . S
C2898 C2900 1.561 . S
C2898 C2901 1.526 . S
C2899 H2883 0.959 . S
C2899 H2884 0.959 . S
C2899 H2885 0.961 . S
C2899 C2898 1.502 . S
C2900 H2886 0.960 . S
C2900 H2887 0.961 . S
C2900 H2888 0.959 . S
C2900 C2898 1.561 . S
C2901 C2898 1.526 . S
C2901 C2902 1.396 . S
C2901 C2906 1.390 . S
C2902 C2896 1.465 . S
C2902 C2901 1.396 . S
C2902 C2903 1.399 . S
C2903 H2889 0.929 . S
C2903 C2902 1.399 . S
C2903 C2904 1.385 . S
C2904 H2890 0.931 . S
C2904 C2903 1.385 . S
C2904 C2905 1.389 . S
C2905 C2904 1.389 . S
C2905 C2906 1.387 . S
C2906 H2891 0.930 . S
C2906 C2901 1.390 . S
C2906 C2905 1.387 . S
H2907 C2919 0.930 . S
H2908 C2921 0.930 . S
H2909 C2922 0.930 . S
H2910 C2926 0.959 . S
H2911 C2926 0.959 . S
H2912 C2926 0.961 . S
H2913 C2927 0.960 . S
H2914 C2927 0.961 . S
H2915 C2927 0.959 . S
H2916 C2930 0.929 . S
H2917 C2931 0.931 . S
H2918 C2933 0.930 . S
C2919 H2907 0.930 . S
C2919 C2920 1.399 . S
C2919 C2924 1.399 . S
C2920 C2919 1.399 . S
C2920 C2921 1.376 . S
C2921 H2908 0.930 . S
C2921 C2920 1.376 . S
C2921 C2922 1.388 . S
C2922 H2909 0.930 . S
C2922 C2921 1.388 . S
C2922 C2923 1.390 . S
C2923 C2922 1.390 . S
C2923 C2924 1.394 . S
C2923 C2929 1.465 . S
C2924 C2919 1.399 . S
C2924 C2923 1.394 . S
C2924 C2925 1.516 . S
C2925 C2924 1.516 . S
C2925 C2926 1.502 . S
C2925 C2927 1.561 . S
C2925 C2928 1.526 . S
C2926 H2910 0.959 . S
C2926 H2911 0.959 . S
C2926 H2912 0.961 . S
C2926 C2925 1.502 . S
C2927 H2913 0.960 . S
C2927 H2914 0.961 . S
C2927 H2915 0.959 . S
C2927 C2925 1.561 . S
C2928 C2925 1.526 . S
C2928 C2929 1.396 . S
C2928 C2933 1.390 . S
C2929 C2923 1.465 . S
C2929 C2928 1.396 . S
C2929 C2930 1.399 . S
C2930 H2916 0.929 . S
C2930 C2929 1.399 . S
C2930 C2931 1.385 . S
C2931 H2917 0.931 . S
C2931 C2930 1.385 . S
C2931 C2932 1.389 . S
C2932 C2931 1.389 . S
C2932 C2933 1.387 . S
C2933 H2918 0.930 . S
C2933 C2928 1.390 . S
C2933 C2932 1.387 . S
H2934 C2946 0.930 . S
H2935 C2948 0.930 . S
H2936 C2949 0.930 . S
H2937 C2953 0.959 . S
H2938 C2953 0.959 . S
H2939 C2953 0.961 . S
H2940 C2954 0.960 . S
H2941 C2954 0.961 . S
H2942 C2954 0.959 . S
H2943 C2957 0.929 . S
H2944 C2958 0.931 . S
H2945 C2960 0.930 . S
C2946 H2934 0.930 . S
C2946 C2947 1.399 . S
C2946 C2951 1.399 . S
C2947 C2946 1.399 . S
C2947 C2948 1.376 . S
C2948 H2935 0.930 . S
C2948 C2947 1.376 . S
C2948 C2949 1.388 . S
C2949 H2936 0.930 . S
C2949 C2948 1.388 . S
C2949 C2950 1.390 . S
C2950 C2949 1.390 . S
C2950 C2951 1.394 . S
C2950 C2956 1.465 . S
C2951 C2946 1.399 . S
C2951 C2950 1.394 . S
C2951 C2952 1.516 . S
C2952 C2951 1.516 . S
C2952 C2953 1.502 . S
C2952 C2954 1.561 . S
C2952 C2955 1.526 . S
C2953 H2937 0.959 . S
C2953 H2938 0.959 . S
C2953 H2939 0.961 . S
C2953 C2952 1.502 . S
C2954 H2940 0.960 . S
C2954 H2941 0.961 . S
C2954 H2942 0.959 . S
C2954 C2952 1.561 . S
C2955 C2952 1.526 . S
C2955 C2956 1.396 . S
C2955 C2960 1.390 . S
C2956 C2950 1.465 . S
C2956 C2955 1.396 . S
C2956 C2957 1.399 . S
C2957 H2943 0.929 . S
C2957 C2956 1.399 . S
C2957 C2958 1.385 . S
C2958 H2944 0.931 . S
C2958 C2957 1.385 . S
C2958 C2959 1.389 . S
C2959 C2958 1.389 . S
C2959 C2960 1.387 . S
C2960 H2945 0.930 . S
C2960 C2955 1.390 . S
C2960 C2959 1.387 . S
H2961 C2973 0.930 . S
H2962 C2975 0.930 . S
H2963 C2976 0.930 . S
H2964 C2980 0.959 . S
H2965 C2980 0.959 . S
H2966 C2980 0.961 . S
H2967 C2981 0.960 . S
H2968 C2981 0.961 . S
H2969 C2981 0.959 . S
H2970 C2984 0.929 . S
H2971 C2985 0.931 . S
H2972 C2987 0.930 . S
C2973 H2961 0.930 . S
C2973 C2974 1.399 . S
C2973 C2978 1.399 . S
C2974 C2973 1.399 . S
C2974 C2975 1.376 . S
C2975 H2962 0.930 . S
C2975 C2974 1.376 . S
C2975 C2976 1.388 . S
C2976 H2963 0.930 . S
C2976 C2975 1.388 . S
C2976 C2977 1.390 . S
C2977 C2976 1.390 . S
C2977 C2978 1.394 . S
C2977 C2983 1.465 . S
C2978 C2973 1.399 . S
C2978 C2977 1.394 . S
C2978 C2979 1.516 . S
C2979 C2978 1.516 . S
C2979 C2980 1.502 . S
C2979 C2981 1.561 . S
C2979 C2982 1.526 . S
C2980 H2964 0.959 . S
C2980 H2965 0.959 . S
C2980 H2966 0.961 . S
C2980 C2979 1.502 . S
C2981 H2967 0.960 . S
C2981 H2968 0.961 . S
C2981 H2969 0.959 . S
C2981 C2979 1.561 . S
C2982 C2979 1.526 . S
C2982 C2983 1.396 . S
C2982 C2987 1.390 . S
C2983 C2977 1.465 . S
C2983 C2982 1.396 . S
C2983 C2984 1.399 . S
C2984 H2970 0.929 . S
C2984 C2983 1.399 . S
C2984 C2985 1.385 . S
C2985 H2971 0.931 . S
C2985 C2984 1.385 . S
C2985 C2986 1.389 . S
C2986 C2985 1.389 . S
C2986 C2987 1.387 . S
C2987 H2972 0.930 . S
C2987 C2982 1.390 . S
C2987 C2986 1.387 . S
H2988 C3000 0.930 . S
H2989 C3002 0.930 . S
H2990 C3003 0.930 . S
H2991 C3007 0.959 . S
H2992 C3007 0.959 . S
H2993 C3007 0.961 . S
H2994 C3008 0.960 . S
H2995 C3008 0.961 . S
H2996 C3008 0.959 . S
H2997 C3011 0.929 . S
H2998 C3012 0.931 . S
H2999 C3014 0.930 . S
C3000 H2988 0.930 . S
C3000 C3001 1.399 . S
C3000 C3005 1.399 . S
C3001 C3000 1.399 . S
C3001 C3002 1.376 . S
C3002 H2989 0.930 . S
C3002 C3001 1.376 . S
C3002 C3003 1.388 . S
C3003 H2990 0.930 . S
C3003 C3002 1.388 . S
C3003 C3004 1.390 . S
C3004 C3003 1.390 . S
C3004 C3005 1.394 . S
C3004 C3010 1.465 . S
C3005 C3000 1.399 . S
C3005 C3004 1.394 . S
C3005 C3006 1.516 . S
C3006 C3005 1.516 . S
C3006 C3007 1.502 . S
C3006 C3008 1.561 . S
C3006 C3009 1.526 . S
C3007 H2991 0.959 . S
C3007 H2992 0.959 . S
C3007 H2993 0.961 . S
C3007 C3006 1.502 . S
C3008 H2994 0.960 . S
C3008 H2995 0.961 . S
C3008 H2996 0.959 . S
C3008 C3006 1.561 . S
C3009 C3006 1.526 . S
C3009 C3010 1.396 . S
C3009 C3014 1.390 . S
C3010 C3004 1.465 . S
C3010 C3009 1.396 . S
C3010 C3011 1.399 . S
C3011 H2997 0.929 . S
C3011 C3010 1.399 . S
C3011 C3012 1.385 . S
C3012 H2998 0.931 . S
C3012 C3011 1.385 . S
C3012 C3013 1.389 . S
C3013 C3012 1.389 . S
C3013 C3014 1.387 . S
C3014 H2999 0.930 . S
C3014 C3009 1.390 . S
C3014 C3013 1.387 . S
H3015 C3027 0.930 . S
H3016 C3029 0.930 . S
H3017 C3030 0.930 . S
H3018 C3034 0.959 . S
H3019 C3034 0.959 . S
H3020 C3034 0.961 . S
H3021 C3035 0.960 . S
H3022 C3035 0.961 . S
H3023 C3035 0.959 . S
H3024 C3038 0.929 . S
H3025 C3039 0.931 . S
H3026 C3041 0.930 . S
C3027 H3015 0.930 . S
C3027 C3028 1.399 . S
C3027 C3032 1.399 . S
C3028 C3027 1.399 . S
C3028 C3029 1.376 . S
C3029 H3016 0.930 . S
C3029 C3028 1.376 . S
C3029 C3030 1.388 . S
C3030 H3017 0.930 . S
C3030 C3029 1.388 . S
C3030 C3031 1.390 . S
C3031 C3030 1.390 . S
C3031 C3032 1.394 . S
C3031 C3037 1.465 . S
C3032 C3027 1.399 . S
C3032 C3031 1.394 . S
C3032 C3033 1.516 . S
C3033 C3032 1.516 . S
C3033 C3034 1.502 . S
C3033 C3035 1.561 . S
C3033 C3036 1.526 . S
C3034 H3018 0.959 . S
C3034 H3019 0.959 . S
C3034 H3020 0.961 . S
C3034 C3033 1.502 . S
C3035 H3021 0.960 . S
C3035 H3022 0.961 . S
C3035 H3023 0.959 . S
C3035 C3033 1.561 . S
C3036 C3033 1.526 . S
C3036 C3037 1.396 . S
C3036 C3041 1.390 . S
C3037 C3031 1.465 . S
C3037 C3036 1.396 . S
C3037 C3038 1.399 . S
C3038 H3024 0.929 . S
C3038 C3037 1.399 . S
C3038 C3039 1.385 . S
C3039 H3025 0.931 . S
C3039 C3038 1.385 . S
C3039 C3040 1.389 . S
C3040 C3039 1.389 . S
C3040 C3041 1.387 . S
C3041 H3026 0.930 . S
C3041 C3036 1.390 . S
C3041 C3040 1.387 . S
H3042 C3054 0.930 . S
H3043 C3056 0.930 . S
H3044 C3057 0.930 . S
H3045 C3061 0.959 . S
H3046 C3061 0.959 . S
H3047 C3061 0.961 . S
H3048 C3062 0.960 . S
H3049 C3062 0.961 . S
H3050 C3062 0.959 . S
H3051 C3065 0.929 . S
H3052 C3066 0.931 . S
H3053 C3068 0.930 . S
C3054 H3042 0.930 . S
C3054 C3055 1.399 . S
C3054 C3059 1.399 . S
C3055 C3054 1.399 . S
C3055 C3056 1.376 . S
C3056 H3043 0.930 . S
C3056 C3055 1.376 . S
C3056 C3057 1.388 . S
C3057 H3044 0.930 . S
C3057 C3056 1.388 . S
C3057 C3058 1.390 . S
C3058 C3057 1.390 . S
C3058 C3059 1.394 . S
C3058 C3064 1.465 . S
C3059 C3054 1.399 . S
C3059 C3058 1.394 . S
C3059 C3060 1.516 . S
C3060 C3059 1.516 . S
C3060 C3061 1.502 . S
C3060 C3062 1.561 . S
C3060 C3063 1.526 . S
C3061 H3045 0.959 . S
C3061 H3046 0.959 . S
C3061 H3047 0.961 . S
C3061 C3060 1.502 . S
C3062 H3048 0.960 . S
C3062 H3049 0.961 . S
C3062 H3050 0.959 . S
C3062 C3060 1.561 . S
C3063 C3060 1.526 . S
C3063 C3064 1.396 . S
C3063 C3068 1.390 . S
C3064 C3058 1.465 . S
C3064 C3063 1.396 . S
C3064 C3065 1.399 . S
C3065 H3051 0.929 . S
C3065 C3064 1.399 . S
C3065 C3066 1.385 . S
C3066 H3052 0.931 . S
C3066 C3065 1.385 . S
C3066 C3067 1.389 . S
C3067 C3066 1.389 . S
C3067 C3068 1.387 . S
C3068 H3053 0.930 . S
C3068 C3063 1.390 . S
C3068 C3067 1.387 . S
H3069 C3081 0.930 . S
H3070 C3083 0.930 . S
H3071 C3084 0.930 . S
H3072 C3088 0.959 . S
H3073 C3088 0.959 . S
H3074 C3088 0.961 . S
H3075 C3089 0.960 . S
H3076 C3089 0.961 . S
H3077 C3089 0.959 . S
H3078 C3092 0.929 . S
H3079 C3093 0.931 . S
H3080 C3095 0.930 . S
C3081 H3069 0.930 . S
C3081 C3082 1.399 . S
C3081 C3086 1.399 . S
C3082 C3081 1.399 . S
C3082 C3083 1.376 . S
C3083 H3070 0.930 . S
C3083 C3082 1.376 . S
C3083 C3084 1.388 . S
C3084 H3071 0.930 . S
C3084 C3083 1.388 . S
C3084 C3085 1.390 . S
C3085 C3084 1.390 . S
C3085 C3086 1.394 . S
C3085 C3091 1.465 . S
C3086 C3081 1.399 . S
C3086 C3085 1.394 . S
C3086 C3087 1.516 . S
C3087 C3086 1.516 . S
C3087 C3088 1.502 . S
C3087 C3089 1.561 . S
C3087 C3090 1.526 . S
C3088 H3072 0.959 . S
C3088 H3073 0.959 . S
C3088 H3074 0.961 . S
C3088 C3087 1.502 . S
C3089 H3075 0.960 . S
C3089 H3076 0.961 . S
C3089 H3077 0.959 . S
C3089 C3087 1.561 . S
C3090 C3087 1.526 . S
C3090 C3091 1.396 . S
C3090 C3095 1.390 . S
C3091 C3085 1.465 . S
C3091 C3090 1.396 . S
C3091 C3092 1.399 . S
C3092 H3078 0.929 . S
C3092 C3091 1.399 . S
C3092 C3093 1.385 . S
C3093 H3079 0.931 . S
C3093 C3092 1.385 . S
C3093 C3094 1.389 . S
C3094 C3093 1.389 . S
C3094 C3095 1.387 . S
C3095 H3080 0.930 . S
C3095 C3090 1.390 . S
C3095 C3094 1.387 . S
H3096 C3108 0.930 . S
H3097 C3110 0.930 . S
H3098 C3111 0.930 . S
H3099 C3115 0.959 . S
H3100 C3115 0.959 . S
H3101 C3115 0.961 . S
H3102 C3116 0.960 . S
H3103 C3116 0.961 . S
H3104 C3116 0.959 . S
H3105 C3119 0.929 . S
H3106 C3120 0.931 . S
H3107 C3122 0.930 . S
C3108 H3096 0.930 . S
C3108 C3109 1.399 . S
C3108 C3113 1.399 . S
C3109 C3108 1.399 . S
C3109 C3110 1.376 . S
C3110 H3097 0.930 . S
C3110 C3109 1.376 . S
C3110 C3111 1.388 . S
C3111 H3098 0.930 . S
C3111 C3110 1.388 . S
C3111 C3112 1.390 . S
C3112 C3111 1.390 . S
C3112 C3113 1.394 . S
C3112 C3118 1.465 . S
C3113 C3108 1.399 . S
C3113 C3112 1.394 . S
C3113 C3114 1.516 . S
C3114 C3113 1.516 . S
C3114 C3115 1.502 . S
C3114 C3116 1.561 . S
C3114 C3117 1.526 . S
C3115 H3099 0.959 . S
C3115 H3100 0.959 . S
C3115 H3101 0.961 . S
C3115 C3114 1.502 . S
C3116 H3102 0.960 . S
C3116 H3103 0.961 . S
C3116 H3104 0.959 . S
C3116 C3114 1.561 . S
C3117 C3114 1.526 . S
C3117 C3118 1.396 . S
C3117 C3122 1.390 . S
C3118 C3112 1.465 . S
C3118 C3117 1.396 . S
C3118 C3119 1.399 . S
C3119 H3105 0.929 . S
C3119 C3118 1.399 . S
C3119 C3120 1.385 . S
C3120 H3106 0.931 . S
C3120 C3119 1.385 . S
C3120 C3121 1.389 . S
C3121 C3120 1.389 . S
C3121 C3122 1.387 . S
C3122 H3107 0.930 . S
C3122 C3117 1.390 . S
C3122 C3121 1.387 . S
H3123 C3135 0.930 . S
H3124 C3137 0.930 . S
H3125 C3138 0.930 . S
H3126 C3142 0.959 . S
H3127 C3142 0.959 . S
H3128 C3142 0.961 . S
H3129 C3143 0.960 . S
H3130 C3143 0.961 . S
H3131 C3143 0.959 . S
H3132 C3146 0.929 . S
H3133 C3147 0.931 . S
H3134 C3149 0.930 . S
C3135 H3123 0.930 . S
C3135 C3136 1.399 . S
C3135 C3140 1.399 . S
C3136 C3135 1.399 . S
C3136 C3137 1.376 . S
C3137 H3124 0.930 . S
C3137 C3136 1.376 . S
C3137 C3138 1.388 . S
C3138 H3125 0.930 . S
C3138 C3137 1.388 . S
C3138 C3139 1.390 . S
C3139 C3138 1.390 . S
C3139 C3140 1.394 . S
C3139 C3145 1.465 . S
C3140 C3135 1.399 . S
C3140 C3139 1.394 . S
C3140 C3141 1.516 . S
C3141 C3140 1.516 . S
C3141 C3142 1.502 . S
C3141 C3143 1.561 . S
C3141 C3144 1.526 . S
C3142 H3126 0.959 . S
C3142 H3127 0.959 . S
C3142 H3128 0.961 . S
C3142 C3141 1.502 . S
C3143 H3129 0.960 . S
C3143 H3130 0.961 . S
C3143 H3131 0.959 . S
C3143 C3141 1.561 . S
C3144 C3141 1.526 . S
C3144 C3145 1.396 . S
C3144 C3149 1.390 . S
C3145 C3139 1.465 . S
C3145 C3144 1.396 . S
C3145 C3146 1.399 . S
C3146 H3132 0.929 . S
C3146 C3145 1.399 . S
C3146 C3147 1.385 . S
C3147 H3133 0.931 . S
C3147 C3146 1.385 . S
C3147 C3148 1.389 . S
C3148 C3147 1.389 . S
C3148 C3149 1.387 . S
C3149 H3134 0.930 . S
C3149 C3144 1.390 . S
C3149 C3148 1.387 . S
H3150 C3162 0.930 . S
H3151 C3164 0.930 . S
H3152 C3165 0.930 . S
H3153 C3169 0.959 . S
H3154 C3169 0.959 . S
H3155 C3169 0.961 . S
H3156 C3170 0.960 . S
H3157 C3170 0.961 . S
H3158 C3170 0.959 . S
H3159 C3173 0.929 . S
H3160 C3174 0.931 . S
H3161 C3176 0.930 . S
C3162 H3150 0.930 . S
C3162 C3163 1.399 . S
C3162 C3167 1.399 . S
C3163 C3162 1.399 . S
C3163 C3164 1.376 . S
C3164 H3151 0.930 . S
C3164 C3163 1.376 . S
C3164 C3165 1.388 . S
C3165 H3152 0.930 . S
C3165 C3164 1.388 . S
C3165 C3166 1.390 . S
C3166 C3165 1.390 . S
C3166 C3167 1.394 . S
C3166 C3172 1.465 . S
C3167 C3162 1.399 . S
C3167 C3166 1.394 . S
C3167 C3168 1.516 . S
C3168 C3167 1.516 . S
C3168 C3169 1.502 . S
C3168 C3170 1.561 . S
C3168 C3171 1.526 . S
C3169 H3153 0.959 . S
C3169 H3154 0.959 . S
C3169 H3155 0.961 . S
C3169 C3168 1.502 . S
C3170 H3156 0.960 . S
C3170 H3157 0.961 . S
C3170 H3158 0.959 . S
C3170 C3168 1.561 . S
C3171 C3168 1.526 . S
C3171 C3172 1.396 . S
C3171 C3176 1.390 . S
C3172 C3166 1.465 . S
C3172 C3171 1.396 . S
C3172 C3173 1.399 . S
C3173 H3159 0.929 . S
C3173 C3172 1.399 . S
C3173 C3174 1.385 . S
C3174 H3160 0.931 . S
C3174 C3173 1.385 . S
C3174 C3175 1.389 . S
C3175 C3174 1.389 . S
C3175 C3176 1.387 . S
C3176 H3161 0.930 . S
C3176 C3171 1.390 . S
C3176 C3175 1.387 . S
H3177 C3189 0.930 . S
H3178 C3191 0.930 . S
H3179 C3192 0.930 . S
H3180 C3196 0.959 . S
H3181 C3196 0.959 . S
H3182 C3196 0.961 . S
H3183 C3197 0.960 . S
H3184 C3197 0.961 . S
H3185 C3197 0.959 . S
H3186 C3200 0.929 . S
H3187 C3201 0.931 . S
H3188 C3203 0.930 . S
C3189 H3177 0.930 . S
C3189 C3190 1.399 . S
C3189 C3194 1.399 . S
C3190 C3189 1.399 . S
C3190 C3191 1.376 . S
C3191 H3178 0.930 . S
C3191 C3190 1.376 . S
C3191 C3192 1.388 . S
C3192 H3179 0.930 . S
C3192 C3191 1.388 . S
C3192 C3193 1.390 . S
C3193 C3192 1.390 . S
C3193 C3194 1.394 . S
C3193 C3199 1.465 . S
C3194 C3189 1.399 . S
C3194 C3193 1.394 . S
C3194 C3195 1.516 . S
C3195 C3194 1.516 . S
C3195 C3196 1.502 . S
C3195 C3197 1.561 . S
C3195 C3198 1.526 . S
C3196 H3180 0.959 . S
C3196 H3181 0.959 . S
C3196 H3182 0.961 . S
C3196 C3195 1.502 . S
C3197 H3183 0.960 . S
C3197 H3184 0.961 . S
C3197 H3185 0.959 . S
C3197 C3195 1.561 . S
C3198 C3195 1.526 . S
C3198 C3199 1.396 . S
C3198 C3203 1.390 . S
C3199 C3193 1.465 . S
C3199 C3198 1.396 . S
C3199 C3200 1.399 . S
C3200 H3186 0.929 . S
C3200 C3199 1.399 . S
C3200 C3201 1.385 . S
C3201 H3187 0.931 . S
C3201 C3200 1.385 . S
C3201 C3202 1.389 . S
C3202 C3201 1.389 . S
C3202 C3203 1.387 . S
C3203 H3188 0.930 . S
C3203 C3198 1.390 . S
C3203 C3202 1.387 . S
H3204 C3216 0.930 . S
H3205 C3218 0.930 . S
H3206 C3219 0.930 . S
H3207 C3223 0.959 . S
H3208 C3223 0.959 . S
H3209 C3223 0.961 . S
H3210 C3224 0.960 . S
H3211 C3224 0.961 . S
H3212 C3224 0.959 . S
H3213 C3227 0.929 . S
H3214 C3228 0.931 . S
H3215 C3230 0.930 . S
C3216 H3204 0.930 . S
C3216 C3217 1.399 . S
C3216 C3221 1.399 . S
C3217 C3216 1.399 . S
C3217 C3218 1.376 . S
C3218 H3205 0.930 . S
C3218 C3217 1.376 . S
C3218 C3219 1.388 . S
C3219 H3206 0.930 . S
C3219 C3218 1.388 . S
C3219 C3220 1.390 . S
C3220 C3219 1.390 . S
C3220 C3221 1.394 . S
C3220 C3226 1.465 1_565 S
C3221 C3216 1.399 . S
C3221 C3220 1.394 . S
C3221 C3222 1.516 . S
C3222 C3221 1.516 . S
C3222 C3223 1.502 . S
C3222 C3224 1.561 . S
C3222 C3225 1.526 1_565 S
C3223 H3207 0.959 . S
C3223 H3208 0.959 . S
C3223 H3209 0.961 . S
C3223 C3222 1.502 . S
C3224 H3210 0.960 . S
C3224 H3211 0.961 . S
C3224 H3212 0.959 . S
C3224 C3222 1.561 . S
C3225 C3222 1.526 1_545 S
C3225 C3226 1.396 . S
C3225 C3230 1.390 . S
C3226 C3220 1.465 1_545 S
C3226 C3225 1.396 . S
C3226 C3227 1.399 . S
C3227 H3213 0.929 . S
C3227 C3226 1.399 . S
C3227 C3228 1.385 . S
C3228 H3214 0.931 . S
C3228 C3227 1.385 . S
C3228 C3229 1.389 . S
C3229 C3228 1.389 . S
C3229 C3230 1.387 . S
C3230 H3215 0.930 . S
C3230 C3225 1.390 . S
C3230 C3229 1.387 . S
H3231 C3243 0.930 . S
H3232 C3245 0.930 . S
H3233 C3246 0.930 . S
H3234 C3250 0.959 . S
H3235 C3250 0.959 . S
H3236 C3250 0.951 1_655 S
H3237 C3251 0.960 . S
H3238 C3251 0.961 1_455 S
H3239 C3251 0.959 . S
H3240 C3254 0.929 . S
H3241 C3255 0.931 . S
H3242 C3257 0.930 . S
C3243 H3231 0.930 . S
C3243 C3244 1.399 . S
C3243 C3248 1.399 . S
C3244 C3243 1.399 . S
C3244 C3245 1.376 . S
C3245 H3232 0.930 . S
C3245 C3244 1.376 . S
C3245 C3246 1.388 . S
C3246 H3233 0.930 . S
C3246 C3245 1.388 . S
C3246 C3247 1.390 . S
C3247 C3246 1.390 . S
C3247 C3248 1.394 . S
C3247 C3253 1.465 1_655 S
C3248 C3243 1.399 . S
C3248 C3247 1.394 . S
C3248 C3249 1.516 1_655 S
C3249 C3248 1.516 1_455 S
C3249 C3250 1.502 . S
C3249 C3251 1.561 1_455 S
C3249 C3252 1.526 . S
C3250 H3234 0.959 . S
C3250 H3235 0.959 . S
C3250 H3236 0.951 1_455 S
C3250 C3249 1.502 . S
C3251 H3237 0.960 . S
C3251 H3238 0.961 1_655 S
C3251 H3239 0.959 . S
C3251 C3249 1.561 1_655 S
C3252 C3249 1.526 . S
C3252 C3253 1.396 . S
C3252 C3257 1.390 . S
C3253 C3247 1.465 1_455 S
C3253 C3252 1.396 . S
C3253 C3254 1.399 . S
C3254 H3240 0.929 . S
C3254 C3253 1.399 . S
C3254 C3255 1.385 . S
C3255 H3241 0.931 . S
C3255 C3254 1.385 . S
C3255 C3256 1.389 . S
C3256 C3255 1.389 . S
C3256 C3257 1.387 . S
C3257 H3242 0.930 . S
C3257 C3252 1.390 . S
C3257 C3256 1.387 . S
H3258 C3270 0.930 . S
H3259 C3272 0.930 . S
H3260 C3273 0.930 . S
H3261 C3277 0.959 . S
H3262 C3277 0.959 . S
H3263 C3277 0.961 . S
H3264 C3278 0.960 . S
H3265 C3278 0.961 . S
H3266 C3278 0.959 . S
H3267 C3281 0.929 . S
H3268 C3282 0.931 . S
H3269 C3284 0.930 . S
C3270 H3258 0.930 . S
C3270 C3271 1.399 . S
C3270 C3275 1.399 . S
C3271 C3270 1.399 . S
C3271 C3272 1.376 . S
C3272 H3259 0.930 . S
C3272 C3271 1.376 . S
C3272 C3273 1.388 . S
C3273 H3260 0.930 . S
C3273 C3272 1.388 . S
C3273 C3274 1.390 . S
C3274 C3273 1.390 . S
C3274 C3275 1.394 . S
C3274 C3280 1.465 1_565 S
C3275 C3270 1.399 . S
C3275 C3274 1.394 . S
C3275 C3276 1.516 1_565 S
C3276 C3275 1.516 1_545 S
C3276 C3277 1.502 . S
C3276 C3278 1.561 . S
C3276 C3279 1.526 . S
C3277 H3261 0.959 . S
C3277 H3262 0.959 . S
C3277 H3263 0.961 . S
C3277 C3276 1.502 . S
C3278 H3264 0.960 . S
C3278 H3265 0.961 . S
C3278 H3266 0.959 . S
C3278 C3276 1.561 . S
C3279 C3276 1.526 . S
C3279 C3280 1.396 . S
C3279 C3284 1.390 . S
C3280 C3274 1.465 1_545 S
C3280 C3279 1.396 . S
C3280 C3281 1.399 . S
C3281 H3267 0.929 . S
C3281 C3280 1.399 . S
C3281 C3282 1.385 . S
C3282 H3268 0.931 . S
C3282 C3281 1.385 . S
C3282 C3283 1.389 . S
C3283 C3282 1.389 . S
C3283 C3284 1.387 . S
C3284 H3269 0.930 . S
C3284 C3279 1.390 . S
C3284 C3283 1.387 . S
H3285 C3297 0.930 . S
H3286 C3299 0.930 . S
H3287 C3300 0.930 . S
H3288 C3304 0.959 . S
H3289 C3304 0.959 1_455 S
H3290 C3304 0.961 . S
H3291 C3305 0.960 1_655 S
H3292 C3305 0.961 . S
H3293 C3305 0.959 . S
H3294 C3308 0.929 . S
H3295 C3309 0.931 . S
H3296 C3311 0.930 . S
C3297 H3285 0.930 . S
C3297 C3298 1.399 . S
C3297 C3302 1.399 . S
C3298 C3297 1.399 . S
C3298 C3299 1.376 . S
C3299 H3286 0.930 . S
C3299 C3298 1.376 . S
C3299 C3300 1.388 . S
C3300 H3287 0.930 . S
C3300 C3299 1.388 . S
C3300 C3301 1.390 . S
C3301 C3300 1.390 . S
C3301 C3302 1.394 . S
C3301 C3307 1.465 1_655 S
C3302 C3297 1.399 . S
C3302 C3301 1.394 . S
C3302 C3303 1.538 . S
C3303 C3302 1.538 . S
C3303 C3304 1.513 . S
C3303 C3305 1.550 1_655 S
C3303 C3306 1.503 1_655 S
C3304 H3288 0.959 . S
C3304 H3289 0.959 1_655 S
C3304 H3290 0.961 . S
C3304 C3303 1.513 . S
C3305 H3291 0.960 1_455 S
C3305 H3292 0.961 . S
C3305 H3293 0.959 . S
C3305 C3303 1.550 1_455 S
C3306 C3303 1.503 1_455 S
C3306 C3307 1.396 . S
C3306 C3311 1.390 . S
C3307 C3301 1.465 1_455 S
C3307 C3306 1.396 . S
C3307 C3308 1.399 . S
C3308 H3294 0.929 . S
C3308 C3307 1.399 . S
C3308 C3309 1.385 . S
C3309 H3295 0.931 . S
C3309 C3308 1.385 . S
C3309 C3310 1.389 . S
C3310 C3309 1.389 . S
C3310 C3311 1.387 . S
C3311 H3296 0.930 . S
C3311 C3306 1.390 . S
C3311 C3310 1.387 . S
H3312 C3324 0.930 . S
H3313 C3326 0.930 . S
H3314 C3327 0.930 . S
H3315 C3331 0.941 1_565 S
H3316 C3331 1.006 . S
H3317 C3331 0.924 1_565 S
H3318 C3332 0.960 . S
H3319 C3332 0.961 . S
H3320 C3332 0.959 . S
H3321 C3335 0.929 . S
H3322 C3336 0.931 . S
H3323 C3338 0.930 . S
C3324 H3312 0.930 . S
C3324 C3325 1.399 . S
C3324 C3329 1.399 . S
C3325 C3324 1.399 . S
C3325 C3326 1.376 . S
C3326 H3313 0.930 . S
C3326 C3325 1.376 . S
C3326 C3327 1.388 . S
C3327 H3314 0.930 . S
C3327 C3326 1.388 . S
C3327 C3328 1.390 . S
C3328 C3327 1.390 . S
C3328 C3329 1.394 . S
C3328 C3334 1.465 1_565 S
C3329 C3324 1.399 . S
C3329 C3328 1.394 . S
C3329 C3330 1.516 1_565 S
C3330 C3329 1.516 1_545 S
C3330 C3331 1.512 . S
C3330 C3332 1.561 . S
C3330 C3333 1.526 . S
C3331 H3315 0.941 1_545 S
C3331 H3316 1.006 . S
C3331 H3317 0.924 1_545 S
C3331 C3330 1.512 . S
C3332 H3318 0.960 . S
C3332 H3319 0.961 . S
C3332 H3320 0.959 . S
C3332 C3330 1.561 . S
C3333 C3330 1.526 . S
C3333 C3334 1.396 . S
C3333 C3338 1.390 . S
C3334 C3328 1.465 1_545 S
C3334 C3333 1.396 . S
C3334 C3335 1.399 . S
C3335 H3321 0.929 . S
C3335 C3334 1.399 . S
C3335 C3336 1.385 . S
C3336 H3322 0.931 . S
C3336 C3335 1.385 . S
C3336 C3337 1.389 . S
C3337 C3336 1.389 . S
C3337 C3338 1.387 . S
C3338 H3323 0.930 . S
C3338 C3333 1.390 . S
C3338 C3337 1.387 . S
H3339 C3351 0.930 . S
H3340 C3353 0.930 . S
H3341 C3354 0.930 . S
H3342 C3358 0.959 . S
H3343 C3358 0.959 1_655 S
H3344 C3358 0.961 . S
H3345 C3359 0.960 1_455 S
H3346 C3359 0.961 . S
H3347 C3359 0.959 . S
H3348 C3362 0.929 . S
H3349 C3363 0.931 . S
H3350 C3365 0.930 . S
C3351 H3339 0.930 . S
C3351 C3352 1.399 . S
C3351 C3356 1.399 . S
C3352 C3351 1.399 . S
C3352 C3353 1.376 . S
C3353 H3340 0.930 . S
C3353 C3352 1.376 . S
C3353 C3354 1.388 . S
C3354 H3341 0.930 . S
C3354 C3353 1.388 . S
C3354 C3355 1.390 . S
C3355 C3354 1.390 . S
C3355 C3356 1.394 . S
C3355 C3361 1.465 1_455 S
C3356 C3351 1.399 . S
C3356 C3355 1.394 . S
C3356 C3357 1.532 . S
C3357 C3356 1.532 . S
C3357 C3358 1.510 . S
C3357 C3359 1.553 1_455 S
C3357 C3360 1.509 1_455 S
C3358 H3342 0.959 . S
C3358 H3343 0.959 1_455 S
C3358 H3344 0.961 . S
C3358 C3357 1.510 . S
C3359 H3345 0.960 1_655 S
C3359 H3346 0.961 . S
C3359 H3347 0.959 . S
C3359 C3357 1.553 1_655 S
C3360 C3357 1.509 1_655 S
C3360 C3361 1.396 . S
C3360 C3365 1.390 . S
C3361 C3355 1.465 1_655 S
C3361 C3360 1.396 . S
C3361 C3362 1.399 . S
C3362 H3348 0.929 . S
C3362 C3361 1.399 . S
C3362 C3363 1.385 . S
C3363 H3349 0.931 . S
C3363 C3362 1.385 . S
C3363 C3364 1.389 . S
C3364 C3363 1.389 . S
C3364 C3365 1.387 . S
C3365 H3350 0.930 . S
C3365 C3360 1.390 . S
C3365 C3364 1.387 . S
H3366 C3378 0.930 . S
H3367 C3380 0.930 . S
H3368 C3381 0.930 . S
H3369 C3385 0.928 1_565 S
H3370 C3385 0.924 1_565 S
H3371 C3385 1.019 . S
H3372 C3386 0.960 . S
H3373 C3386 0.961 . S
H3374 C3386 0.959 . S
H3375 C3389 0.929 . S
H3376 C3390 0.931 . S
H3377 C3392 0.930 . S
C3378 H3366 0.930 . S
C3378 C3379 1.399 . S
C3378 C3383 1.399 . S
C3379 C3378 1.399 . S
C3379 C3380 1.376 . S
C3380 H3367 0.930 . S
C3380 C3379 1.376 . S
C3380 C3381 1.388 . S
C3381 H3368 0.930 . S
C3381 C3380 1.388 . S
C3381 C3382 1.390 . S
C3382 C3381 1.390 . S
C3382 C3383 1.394 . S
C3382 C3388 1.465 1_545 S
C3383 C3378 1.399 . S
C3383 C3382 1.394 . S
C3383 C3384 1.516 . S
C3384 C3383 1.516 . S
C3384 C3385 1.515 . S
C3384 C3386 1.561 . S
C3384 C3387 1.526 1_545 S
C3385 H3369 0.928 1_545 S
C3385 H3370 0.924 1_545 S
C3385 H3371 1.019 . S
C3385 C3384 1.515 . S
C3386 H3372 0.960 . S
C3386 H3373 0.961 . S
C3386 H3374 0.959 . S
C3386 C3384 1.561 . S
C3387 C3384 1.526 1_565 S
C3387 C3388 1.396 . S
C3387 C3392 1.390 . S
C3388 C3382 1.465 1_565 S
C3388 C3387 1.396 . S
C3388 C3389 1.399 . S
C3389 H3375 0.929 . S
C3389 C3388 1.399 . S
C3389 C3390 1.385 . S
C3390 H3376 0.931 . S
C3390 C3389 1.385 . S
C3390 C3391 1.389 . S
C3391 C3390 1.389 . S
C3391 C3392 1.387 . S
C3392 H3377 0.930 . S
C3392 C3387 1.390 . S
C3392 C3391 1.387 . S
H3393 C3405 0.930 . S
H3394 C3407 0.930 . S
H3395 C3408 0.930 . S
H3396 C3412 0.959 . S
H3397 C3412 0.959 1_655 S
H3398 C3412 0.961 . S
H3399 C3413 0.972 . S
H3400 C3413 0.961 . S
H3401 C3413 0.959 . S
H3402 C3416 0.929 . S
H3403 C3417 0.931 . S
H3404 C3419 0.930 . S
C3405 H3393 0.930 . S
C3405 C3406 1.399 . S
C3405 C3410 1.399 . S
C3406 C3405 1.399 . S
C3406 C3407 1.376 . S
C3407 H3394 0.930 . S
C3407 C3406 1.376 . S
C3407 C3408 1.388 . S
C3408 H3395 0.930 . S
C3408 C3407 1.388 . S
C3408 C3409 1.390 . S
C3409 C3408 1.390 . S
C3409 C3410 1.394 . S
C3409 C3415 1.465 1_455 S
C3410 C3405 1.399 . S
C3410 C3409 1.394 . S
C3410 C3411 1.516 1_455 S
C3411 C3410 1.516 1_655 S
C3411 C3412 1.502 1_655 S
C3411 C3413 1.561 . S
C3411 C3414 1.526 . S
C3412 H3396 0.959 . S
C3412 H3397 0.959 1_455 S
C3412 H3398 0.961 . S
C3412 C3411 1.502 1_455 S
C3413 H3399 0.972 . S
C3413 H3400 0.961 . S
C3413 H3401 0.959 . S
C3413 C3411 1.561 . S
C3414 C3411 1.526 . S
C3414 C3415 1.396 . S
C3414 C3419 1.390 . S
C3415 C3409 1.465 1_655 S
C3415 C3414 1.396 . S
C3415 C3416 1.399 . S
C3416 H3402 0.929 . S
C3416 C3415 1.399 . S
C3416 C3417 1.385 . S
C3417 H3403 0.931 . S
C3417 C3416 1.385 . S
C3417 C3418 1.389 . S
C3418 C3417 1.389 . S
C3418 C3419 1.387 . S
C3419 H3404 0.930 . S
C3419 C3414 1.390 . S
C3419 C3418 1.387 . S
H3420 C3432 0.930 . S
H3421 C3434 0.930 . S
H3422 C3435 0.930 . S
H3423 C3439 0.959 1_556 S
H3424 C3439 0.959 . S
H3425 C3439 0.961 1_556 S
H3426 C3440 0.960 . S
H3427 C3440 0.961 . S
H3428 C3440 0.959 . S
H3429 C3443 0.929 . S
H3430 C3444 0.931 . S
H3431 C3446 0.930 . S
C3432 H3420 0.930 . S
C3432 C3433 1.399 . S
C3432 C3437 1.399 . S
C3433 C3432 1.399 . S
C3433 C3434 1.376 . S
C3434 H3421 0.930 . S
C3434 C3433 1.376 . S
C3434 C3435 1.388 . S
C3435 H3422 0.930 . S
C3435 C3434 1.388 . S
C3435 C3436 1.390 . S
C3436 C3435 1.390 . S
C3436 C3437 1.394 . S
C3436 C3442 1.465 1_556 S
C3437 C3432 1.399 . S
C3437 C3436 1.394 . S
C3437 C3438 1.516 1_556 S
C3438 C3437 1.516 1_554 S
C3438 C3439 1.502 . S
C3438 C3440 1.561 . S
C3438 C3441 1.526 . S
C3439 H3423 0.959 1_554 S
C3439 H3424 0.959 . S
C3439 H3425 0.961 1_554 S
C3439 C3438 1.502 . S
C3440 H3426 0.960 . S
C3440 H3427 0.961 . S
C3440 H3428 0.959 . S
C3440 C3438 1.561 . S
C3441 C3438 1.526 . S
C3441 C3442 1.396 . S
C3441 C3446 1.390 . S
C3442 C3436 1.465 1_554 S
C3442 C3441 1.396 . S
C3442 C3443 1.399 . S
C3443 H3429 0.929 . S
C3443 C3442 1.399 . S
C3443 C3444 1.385 . S
C3444 H3430 0.931 . S
C3444 C3443 1.385 . S
C3444 C3445 1.389 . S
C3445 C3444 1.389 . S
C3445 C3446 1.387 . S
C3446 H3431 0.930 . S
C3446 C3441 1.390 . S
C3446 C3445 1.387 . S
H3447 C3459 0.930 . S
H3448 C3461 0.930 . S
H3449 C3462 0.930 . S
H3450 C3466 0.985 . S
H3451 C3466 0.904 1_554 S
H3452 C3466 1.010 . S
H3453 C3467 0.960 . S
H3454 C3467 0.961 . S
H3455 C3467 0.959 . S
H3456 C3470 0.929 . S
H3457 C3471 0.931 . S
H3458 C3473 0.930 . S
C3459 H3447 0.930 . S
C3459 C3460 1.399 . S
C3459 C3464 1.399 . S
C3460 C3459 1.399 . S
C3460 C3461 1.376 . S
C3461 H3448 0.930 . S
C3461 C3460 1.376 . S
C3461 C3462 1.388 . S
C3462 H3449 0.930 . S
C3462 C3461 1.388 . S
C3462 C3463 1.390 . S
C3463 C3462 1.390 . S
C3463 C3464 1.394 . S
C3463 C3469 1.465 1_556 S
C3464 C3459 1.399 . S
C3464 C3463 1.394 . S
C3464 C3465 1.516 1_556 S
C3465 C3464 1.516 1_554 S
C3465 C3466 1.489 1_554 S
C3465 C3467 1.561 . S
C3465 C3468 1.526 . S
C3466 H3450 0.985 . S
C3466 H3451 0.904 1_556 S
C3466 H3452 1.010 . S
C3466 C3465 1.489 1_556 S
C3467 H3453 0.960 . S
C3467 H3454 0.961 . S
C3467 H3455 0.959 . S
C3467 C3465 1.561 . S
C3468 C3465 1.526 . S
C3468 C3469 1.396 . S
C3468 C3473 1.390 . S
C3469 C3463 1.465 1_554 S
C3469 C3468 1.396 . S
C3469 C3470 1.399 . S
C3470 H3456 0.929 . S
C3470 C3469 1.399 . S
C3470 C3471 1.385 . S
C3471 H3457 0.931 . S
C3471 C3470 1.385 . S
C3471 C3472 1.389 . S
C3472 C3471 1.389 . S
C3472 C3473 1.387 . S
C3473 H3458 0.930 . S
C3473 C3468 1.390 . S
C3473 C3472 1.387 . S
H3474 C3486 0.930 . S
H3475 C3488 0.930 . S
H3476 C3489 0.930 . S
H3477 C3493 0.959 . S
H3478 C3493 0.959 . S
H3479 C3493 0.961 . S
H3480 C3494 0.960 . S
H3481 C3494 0.961 . S
H3482 C3494 0.959 . S
H3483 C3497 0.929 . S
H3484 C3498 0.931 . S
H3485 C3500 0.930 . S
C3486 H3474 0.930 . S
C3486 C3487 1.399 . S
C3486 C3491 1.399 . S
C3487 C3486 1.399 . S
C3487 C3488 1.376 . S
C3488 H3475 0.930 . S
C3488 C3487 1.376 . S
C3488 C3489 1.388 . S
C3489 H3476 0.930 . S
C3489 C3488 1.388 . S
C3489 C3490 1.390 . S
C3490 C3489 1.390 . S
C3490 C3491 1.394 . S
C3490 C3496 1.465 1_554 S
C3491 C3486 1.399 . S
C3491 C3490 1.394 . S
C3491 C3492 1.516 1_554 S
C3492 C3491 1.516 1_556 S
C3492 C3493 1.502 . S
C3492 C3494 1.561 . S
C3492 C3495 1.526 . S
C3493 H3477 0.959 . S
C3493 H3478 0.959 . S
C3493 H3479 0.961 . S
C3493 C3492 1.502 . S
C3494 H3480 0.960 . S
C3494 H3481 0.961 . S
C3494 H3482 0.959 . S
C3494 C3492 1.561 . S
C3495 C3492 1.526 . S
C3495 C3496 1.396 . S
C3495 C3500 1.390 . S
C3496 C3490 1.465 1_556 S
C3496 C3495 1.396 . S
C3496 C3497 1.399 . S
C3497 H3483 0.929 . S
C3497 C3496 1.399 . S
C3497 C3498 1.385 . S
C3498 H3484 0.931 . S
C3498 C3497 1.385 . S
C3498 C3499 1.389 . S
C3499 C3498 1.389 . S
C3499 C3500 1.387 . S
C3500 H3485 0.930 . S
C3500 C3495 1.390 . S
C3500 C3499 1.387 . S
H3501 C3513 0.930 . S
H3502 C3515 0.930 . S
H3503 C3516 0.930 . S
H3504 C3520 0.965 . S
H3505 C3520 0.965 . S
H3506 C3520 0.952 1_554 S
H3507 C3521 0.960 . S
H3508 C3521 0.961 . S
H3509 C3521 0.959 . S
H3510 C3524 0.929 . S
H3511 C3525 0.931 . S
H3512 C3527 0.930 . S
C3513 H3501 0.930 . S
C3513 C3514 1.399 . S
C3513 C3518 1.399 . S
C3514 C3513 1.399 . S
C3514 C3515 1.376 . S
C3515 H3502 0.930 . S
C3515 C3514 1.376 . S
C3515 C3516 1.388 . S
C3516 H3503 0.930 . S
C3516 C3515 1.388 . S
C3516 C3517 1.390 . S
C3517 C3516 1.390 . S
C3517 C3518 1.394 . S
C3517 C3523 1.465 1_554 S
C3518 C3513 1.399 . S
C3518 C3517 1.394 . S
C3518 C3519 1.516 . S
C3519 C3518 1.516 . S
C3519 C3520 1.499 1_554 S
C3519 C3521 1.561 . S
C3519 C3522 1.526 1_554 S
C3520 H3504 0.965 . S
C3520 H3505 0.965 . S
C3520 H3506 0.952 1_556 S
C3520 C3519 1.499 1_556 S
C3521 H3507 0.960 . S
C3521 H3508 0.961 . S
C3521 H3509 0.959 . S
C3521 C3519 1.561 . S
C3522 C3519 1.526 1_556 S
C3522 C3523 1.396 . S
C3522 C3527 1.390 . S
C3523 C3517 1.465 1_556 S
C3523 C3522 1.396 . S
C3523 C3524 1.399 . S
C3524 H3510 0.929 . S
C3524 C3523 1.399 . S
C3524 C3525 1.385 . S
C3525 H3511 0.931 . S
C3525 C3524 1.385 . S
C3525 C3526 1.389 . S
C3526 C3525 1.389 . S
C3526 C3527 1.387 . S
C3527 H3512 0.930 . S
C3527 C3522 1.390 . S
C3527 C3526 1.387 . S
H3528 C3540 0.930 . S
H3529 C3542 0.930 . S
H3530 C3543 0.930 . S
H3531 C3547 0.959 . S
H3532 C3547 0.959 . S
H3533 C3547 0.961 . S
H3534 C3548 0.960 . S
H3535 C3548 0.961 . S
H3536 C3548 0.959 . S
H3537 C3551 0.929 . S
H3538 C3552 0.931 . S
H3539 C3554 0.930 . S
C3540 H3528 0.930 . S
C3540 C3541 1.399 . S
C3540 C3545 1.399 . S
C3541 C3540 1.399 . S
C3541 C3542 1.376 . S
C3542 H3529 0.930 . S
C3542 C3541 1.376 . S
C3542 C3543 1.388 . S
C3543 H3530 0.930 . S
C3543 C3542 1.388 . S
C3543 C3544 1.390 . S
C3544 C3543 1.390 . S
C3544 C3545 1.394 . S
C3544 C3550 1.465 . S
C3545 C3540 1.399 . S
C3545 C3544 1.394 . S
C3545 C3546 1.516 . S
C3546 C3545 1.516 . S
C3546 C3547 1.502 . S
C3546 C3548 1.561 . S
C3546 C3549 1.526 . S
C3547 H3531 0.959 . S
C3547 H3532 0.959 . S
C3547 H3533 0.961 . S
C3547 C3546 1.502 . S
C3548 H3534 0.960 . S
C3548 H3535 0.961 . S
C3548 H3536 0.959 . S
C3548 C3546 1.561 . S
C3549 C3546 1.526 . S
C3549 C3550 1.396 . S
C3549 C3554 1.390 . S
C3550 C3544 1.465 . S
C3550 C3549 1.396 . S
C3550 C3551 1.399 . S
C3551 H3537 0.929 . S
C3551 C3550 1.399 . S
C3551 C3552 1.385 . S
C3552 H3538 0.931 . S
C3552 C3551 1.385 . S
C3552 C3553 1.389 . S
C3553 C3552 1.389 . S
C3553 C3554 1.387 . S
C3554 H3539 0.930 . S
C3554 C3549 1.390 . S
C3554 C3553 1.387 . S
H3555 C3567 0.930 . S
H3556 C3569 0.930 . S
H3557 C3570 0.930 . S
H3558 C3574 0.959 . S
H3559 C3574 0.959 . S
H3560 C3574 0.961 . S
H3561 C3575 0.960 . S
H3562 C3575 0.961 . S
H3563 C3575 0.959 . S
H3564 C3578 0.929 . S
H3565 C3579 0.931 . S
H3566 C3581 0.930 . S
C3567 H3555 0.930 . S
C3567 C3568 1.399 . S
C3567 C3572 1.399 . S
C3568 C3567 1.399 . S
C3568 C3569 1.376 . S
C3569 H3556 0.930 . S
C3569 C3568 1.376 . S
C3569 C3570 1.388 . S
C3570 H3557 0.930 . S
C3570 C3569 1.388 . S
C3570 C3571 1.390 . S
C3571 C3570 1.390 . S
C3571 C3572 1.394 . S
C3571 C3577 1.465 . S
C3572 C3567 1.399 . S
C3572 C3571 1.394 . S
C3572 C3573 1.516 . S
C3573 C3572 1.516 . S
C3573 C3574 1.502 . S
C3573 C3575 1.561 . S
C3573 C3576 1.526 . S
C3574 H3558 0.959 . S
C3574 H3559 0.959 . S
C3574 H3560 0.961 . S
C3574 C3573 1.502 . S
C3575 H3561 0.960 . S
C3575 H3562 0.961 . S
C3575 H3563 0.959 . S
C3575 C3573 1.561 . S
C3576 C3573 1.526 . S
C3576 C3577 1.396 . S
C3576 C3581 1.390 . S
C3577 C3571 1.465 . S
C3577 C3576 1.396 . S
C3577 C3578 1.399 . S
C3578 H3564 0.929 . S
C3578 C3577 1.399 . S
C3578 C3579 1.385 . S
C3579 H3565 0.931 . S
C3579 C3578 1.385 . S
C3579 C3580 1.389 . S
C3580 C3579 1.389 . S
C3580 C3581 1.387 . S
C3581 H3566 0.930 . S
C3581 C3576 1.390 . S
C3581 C3580 1.387 . S
H3582 C3594 0.930 . S
H3583 C3596 0.930 . S
H3584 C3597 0.930 . S
H3585 C3601 0.959 . S
H3586 C3601 0.959 . S
H3587 C3601 0.961 . S
H3588 C3602 0.960 . S
H3589 C3602 0.961 . S
H3590 C3602 0.959 . S
H3591 C3605 0.929 . S
H3592 C3606 0.962 . S
H3593 C3608 0.930 . S
C3594 H3582 0.930 . S
C3594 C3595 1.399 . S
C3594 C3599 1.399 . S
C3595 C3594 1.399 . S
C3595 C3596 1.376 . S
C3596 H3583 0.930 . S
C3596 C3595 1.376 . S
C3596 C3597 1.388 . S
C3597 H3584 0.930 . S
C3597 C3596 1.388 . S
C3597 C3598 1.390 . S
C3598 C3597 1.390 . S
C3598 C3599 1.394 . S
C3598 C3604 1.465 . S
C3599 C3594 1.399 . S
C3599 C3598 1.394 . S
C3599 C3600 1.516 . S
C3600 C3599 1.516 . S
C3600 C3601 1.502 . S
C3600 C3602 1.561 . S
C3600 C3603 1.526 . S
C3601 H3585 0.959 . S
C3601 H3586 0.959 . S
C3601 H3587 0.961 . S
C3601 C3600 1.502 . S
C3602 H3588 0.960 . S
C3602 H3589 0.961 . S
C3602 H3590 0.959 . S
C3602 C3600 1.561 . S
C3603 C3600 1.526 . S
C3603 C3604 1.396 . S
C3603 C3608 1.390 . S
C3604 C3598 1.465 . S
C3604 C3603 1.396 . S
C3604 C3605 1.399 . S
C3605 H3591 0.929 . S
C3605 C3604 1.399 . S
C3605 C3606 1.385 . S
C3606 H3592 0.962 . S
C3606 C3605 1.385 . S
C3606 C3607 1.389 . S
C3607 C3606 1.389 . S
C3607 C3608 1.387 . S
C3608 H3593 0.930 . S
C3608 C3603 1.390 . S
C3608 C3607 1.387 . S
H3609 C3621 0.930 . S
H3610 C3623 0.930 1_556 S
H3611 C3624 0.930 . S
H3612 C3628 0.959 . S
H3613 C3628 0.959 . S
H3614 C3628 0.961 . S
H3615 C3629 0.960 . S
H3616 C3629 0.961 . S
H3617 C3629 0.959 . S
H3618 C3632 0.929 . S
H3619 C3633 0.931 . S
H3620 C3635 0.930 . S
C3621 H3609 0.930 . S
C3621 C3622 1.399 . S
C3621 C3626 1.399 . S
C3622 C3621 1.399 . S
C3622 C3623 1.376 . S
C3623 H3610 0.930 1_554 S
C3623 C3622 1.376 . S
C3623 C3624 1.388 . S
C3624 H3611 0.930 . S
C3624 C3623 1.388 . S
C3624 C3625 1.390 . S
C3625 C3624 1.390 . S
C3625 C3626 1.394 . S
C3625 C3631 1.465 . S
C3626 C3621 1.399 . S
C3626 C3625 1.394 . S
C3626 C3627 1.516 . S
C3627 C3626 1.516 . S
C3627 C3628 1.502 . S
C3627 C3629 1.561 . S
C3627 C3630 1.526 . S
C3628 H3612 0.959 . S
C3628 H3613 0.959 . S
C3628 H3614 0.961 . S
C3628 C3627 1.502 . S
C3629 H3615 0.960 . S
C3629 H3616 0.961 . S
C3629 H3617 0.959 . S
C3629 C3627 1.561 . S
C3630 C3627 1.526 . S
C3630 C3631 1.396 . S
C3630 C3635 1.390 . S
C3631 C3625 1.465 . S
C3631 C3630 1.396 . S
C3631 C3632 1.399 . S
C3632 H3618 0.929 . S
C3632 C3631 1.399 . S
C3632 C3633 1.385 . S
C3633 H3619 0.931 . S
C3633 C3632 1.385 . S
C3633 C3634 1.389 . S
C3634 C3633 1.389 . S
C3634 C3635 1.387 . S
C3635 H3620 0.930 . S
C3635 C3630 1.390 . S
C3635 C3634 1.387 . S
H3636 C3648 0.930 . S
H3637 C3650 0.930 . S
H3638 C3651 0.930 . S
H3639 C3655 0.959 . S
H3640 C3655 0.959 . S
H3641 C3655 0.961 . S
H3642 C3656 0.960 . S
H3643 C3656 0.961 . S
H3644 C3656 0.959 . S
H3645 C3659 0.929 . S
H3646 C3660 0.931 . S
H3647 C3662 0.930 . S
C3648 H3636 0.930 . S
C3648 C3649 1.399 . S
C3648 C3653 1.399 . S
C3649 C3648 1.399 . S
C3649 C3650 1.376 . S
C3650 H3637 0.930 . S
C3650 C3649 1.376 . S
C3650 C3651 1.388 . S
C3651 H3638 0.930 . S
C3651 C3650 1.388 . S
C3651 C3652 1.390 . S
C3652 C3651 1.390 . S
C3652 C3653 1.394 . S
C3652 C3658 1.465 . S
C3653 C3648 1.399 . S
C3653 C3652 1.394 . S
C3653 C3654 1.516 . S
C3654 C3653 1.516 . S
C3654 C3655 1.502 . S
C3654 C3656 1.561 . S
C3654 C3657 1.526 . S
C3655 H3639 0.959 . S
C3655 H3640 0.959 . S
C3655 H3641 0.961 . S
C3655 C3654 1.502 . S
C3656 H3642 0.960 . S
C3656 H3643 0.961 . S
C3656 H3644 0.959 . S
C3656 C3654 1.561 . S
C3657 C3654 1.526 . S
C3657 C3658 1.396 . S
C3657 C3662 1.390 . S
C3658 C3652 1.465 . S
C3658 C3657 1.396 . S
C3658 C3659 1.399 . S
C3659 H3645 0.929 . S
C3659 C3658 1.399 . S
C3659 C3660 1.385 . S
C3660 H3646 0.931 . S
C3660 C3659 1.385 . S
C3660 C3661 1.389 . S
C3661 C3660 1.389 . S
C3661 C3662 1.387 . S
C3662 H3647 0.930 . S
C3662 C3657 1.390 . S
C3662 C3661 1.387 . S
H3663 C3675 0.930 . S
H3664 C3677 0.930 1_554 S
H3665 C3678 0.930 . S
H3666 C3682 0.959 . S
H3667 C3682 0.959 . S
H3668 C3682 0.961 . S
H3669 C3683 0.960 . S
H3670 C3683 0.961 . S
H3671 C3683 0.959 . S
H3672 C3686 0.929 . S
H3673 C3687 0.931 . S
H3674 C3689 0.930 . S
C3675 H3663 0.930 . S
C3675 C3676 1.399 . S
C3675 C3680 1.399 . S
C3676 C3675 1.399 . S
C3676 C3677 1.376 . S
C3677 H3664 0.930 1_556 S
C3677 C3676 1.376 . S
C3677 C3678 1.388 . S
C3678 H3665 0.930 . S
C3678 C3677 1.388 . S
C3678 C3679 1.390 . S
C3679 C3678 1.390 . S
C3679 C3680 1.394 . S
C3679 C3685 1.465 . S
C3680 C3675 1.399 . S
C3680 C3679 1.394 . S
C3680 C3681 1.516 . S
C3681 C3680 1.516 . S
C3681 C3682 1.502 . S
C3681 C3683 1.561 . S
C3681 C3684 1.526 . S
C3682 H3666 0.959 . S
C3682 H3667 0.959 . S
C3682 H3668 0.961 . S
C3682 C3681 1.502 . S
C3683 H3669 0.960 . S
C3683 H3670 0.961 . S
C3683 H3671 0.959 . S
C3683 C3681 1.561 . S
C3684 C3681 1.526 . S
C3684 C3685 1.396 . S
C3684 C3689 1.390 . S
C3685 C3679 1.465 . S
C3685 C3684 1.396 . S
C3685 C3686 1.399 . S
C3686 H3672 0.929 . S
C3686 C3685 1.399 . S
C3686 C3687 1.385 . S
C3687 H3673 0.931 . S
C3687 C3686 1.385 . S
C3687 C3688 1.389 . S
C3688 C3687 1.389 . S
C3688 C3689 1.387 . S
C3689 H3674 0.930 . S
C3689 C3684 1.390 . S
C3689 C3688 1.387 . S
H3690 C3702 0.930 . S
H3691 C3704 0.930 . S
H3692 C3705 0.930 . S
H3693 C3709 0.959 . S
H3694 C3709 0.959 . S
H3695 C3709 0.961 . S
H3696 C3710 0.960 . S
H3697 C3710 0.961 . S
H3698 C3710 0.959 . S
H3699 C3713 0.929 . S
H3700 C3714 0.931 . S
H3701 C3716 0.930 . S
C3702 H3690 0.930 . S
C3702 C3703 1.399 . S
C3702 C3707 1.399 . S
C3703 C3702 1.399 . S
C3703 C3704 1.376 . S
C3704 H3691 0.930 . S
C3704 C3703 1.376 . S
C3704 C3705 1.388 . S
C3705 H3692 0.930 . S
C3705 C3704 1.388 . S
C3705 C3706 1.390 . S
C3706 C3705 1.390 . S
C3706 C3707 1.394 . S
C3706 C3712 1.465 . S
C3707 C3702 1.399 . S
C3707 C3706 1.394 . S
C3707 C3708 1.516 . S
C3708 C3707 1.516 . S
C3708 C3709 1.502 . S
C3708 C3710 1.561 . S
C3708 C3711 1.526 . S
C3709 H3693 0.959 . S
C3709 H3694 0.959 . S
C3709 H3695 0.961 . S
C3709 C3708 1.502 . S
C3710 H3696 0.960 . S
C3710 H3697 0.961 . S
C3710 H3698 0.959 . S
C3710 C3708 1.561 . S
C3711 C3708 1.526 . S
C3711 C3712 1.396 . S
C3711 C3716 1.390 . S
C3712 C3706 1.465 . S
C3712 C3711 1.396 . S
C3712 C3713 1.399 . S
C3713 H3699 0.929 . S
C3713 C3712 1.399 . S
C3713 C3714 1.385 . S
C3714 H3700 0.931 . S
C3714 C3713 1.385 . S
C3714 C3715 1.389 . S
C3715 C3714 1.389 . S
C3715 C3716 1.387 . S
C3716 H3701 0.930 . S
C3716 C3711 1.390 . S
C3716 C3715 1.387 . S
H3717 C3729 0.930 . S
H3718 C3731 0.930 . S
H3719 C3732 0.930 . S
H3720 C3736 0.959 . S
H3721 C3736 0.959 . S
H3722 C3736 0.961 . S
H3723 C3737 0.960 . S
H3724 C3737 0.961 . S
H3725 C3737 0.959 . S
H3726 C3740 0.929 . S
H3727 C3741 0.931 1_554 S
H3728 C3743 0.930 . S
C3729 H3717 0.930 . S
C3729 C3730 1.399 . S
C3729 C3734 1.399 . S
C3730 C3729 1.399 . S
C3730 C3731 1.376 . S
C3731 H3718 0.930 . S
C3731 C3730 1.376 . S
C3731 C3732 1.388 . S
C3732 H3719 0.930 . S
C3732 C3731 1.388 . S
C3732 C3733 1.390 . S
C3733 C3732 1.390 . S
C3733 C3734 1.394 . S
C3733 C3739 1.465 . S
C3734 C3729 1.399 . S
C3734 C3733 1.394 . S
C3734 C3735 1.516 . S
C3735 C3734 1.516 . S
C3735 C3736 1.502 . S
C3735 C3737 1.561 . S
C3735 C3738 1.526 . S
C3736 H3720 0.959 . S
C3736 H3721 0.959 . S
C3736 H3722 0.961 . S
C3736 C3735 1.502 . S
C3737 H3723 0.960 . S
C3737 H3724 0.961 . S
C3737 H3725 0.959 . S
C3737 C3735 1.561 . S
C3738 C3735 1.526 . S
C3738 C3739 1.396 . S
C3738 C3743 1.390 . S
C3739 C3733 1.465 . S
C3739 C3738 1.396 . S
C3739 C3740 1.399 . S
C3740 H3726 0.929 . S
C3740 C3739 1.399 . S
C3740 C3741 1.385 . S
C3741 H3727 0.931 1_556 S
C3741 C3740 1.385 . S
C3741 C3742 1.389 . S
C3742 C3741 1.389 . S
C3742 C3743 1.387 . S
C3743 H3728 0.930 . S
C3743 C3738 1.390 . S
C3743 C3742 1.387 . S
H3744 C3756 0.930 . S
H3745 C3758 0.930 . S
H3746 C3759 0.930 . S
H3747 C3763 0.959 . S
H3748 C3763 0.959 . S
H3749 C3763 0.961 . S
H3750 C3764 0.960 . S
H3751 C3764 0.961 . S
H3752 C3764 0.959 . S
H3753 C3767 0.929 . S
H3754 C3768 0.931 . S
H3755 C3770 0.930 . S
C3756 H3744 0.930 . S
C3756 C3757 1.399 . S
C3756 C3761 1.399 . S
C3757 C3756 1.399 . S
C3757 C3758 1.376 . S
C3758 H3745 0.930 . S
C3758 C3757 1.376 . S
C3758 C3759 1.388 . S
C3759 H3746 0.930 . S
C3759 C3758 1.388 . S
C3759 C3760 1.390 . S
C3760 C3759 1.390 . S
C3760 C3761 1.394 . S
C3760 C3766 1.465 . S
C3761 C3756 1.399 . S
C3761 C3760 1.394 . S
C3761 C3762 1.516 . S
C3762 C3761 1.516 . S
C3762 C3763 1.502 . S
C3762 C3764 1.561 . S
C3762 C3765 1.526 . S
C3763 H3747 0.959 . S
C3763 H3748 0.959 . S
C3763 H3749 0.961 . S
C3763 C3762 1.502 . S
C3764 H3750 0.960 . S
C3764 H3751 0.961 . S
C3764 H3752 0.959 . S
C3764 C3762 1.561 . S
C3765 C3762 1.526 . S
C3765 C3766 1.396 . S
C3765 C3770 1.390 . S
C3766 C3760 1.465 . S
C3766 C3765 1.396 . S
C3766 C3767 1.399 . S
C3767 H3753 0.929 . S
C3767 C3766 1.399 . S
C3767 C3768 1.385 . S
C3768 H3754 0.931 . S
C3768 C3767 1.385 . S
C3768 C3769 1.389 . S
C3769 C3768 1.389 . S
C3769 C3770 1.387 . S
C3770 H3755 0.930 . S
C3770 C3765 1.390 . S
C3770 C3769 1.387 . S
H3771 C3783 0.930 . S
H3772 C3785 0.930 . S
H3773 C3786 0.930 . S
H3774 C3790 0.959 . S
H3775 C3790 0.959 . S
H3776 C3790 0.961 . S
H3777 C3791 0.960 . S
H3778 C3791 0.961 . S
H3779 C3791 0.959 . S
H3780 C3794 0.929 . S
H3781 C3795 0.931 . S
H3782 C3797 0.930 . S
C3783 H3771 0.930 . S
C3783 C3784 1.399 . S
C3783 C3788 1.399 . S
C3784 C3783 1.399 . S
C3784 C3785 1.376 . S
C3785 H3772 0.930 . S
C3785 C3784 1.376 . S
C3785 C3786 1.388 . S
C3786 H3773 0.930 . S
C3786 C3785 1.388 . S
C3786 C3787 1.390 . S
C3787 C3786 1.390 . S
C3787 C3788 1.394 . S
C3787 C3793 1.465 . S
C3788 C3783 1.399 . S
C3788 C3787 1.394 . S
C3788 C3789 1.516 . S
C3789 C3788 1.516 . S
C3789 C3790 1.502 . S
C3789 C3791 1.561 . S
C3789 C3792 1.526 . S
C3790 H3774 0.959 . S
C3790 H3775 0.959 . S
C3790 H3776 0.961 . S
C3790 C3789 1.502 . S
C3791 H3777 0.960 . S
C3791 H3778 0.961 . S
C3791 H3779 0.959 . S
C3791 C3789 1.561 . S
C3792 C3789 1.526 . S
C3792 C3793 1.396 . S
C3792 C3797 1.390 . S
C3793 C3787 1.465 . S
C3793 C3792 1.396 . S
C3793 C3794 1.399 . S
C3794 H3780 0.929 . S
C3794 C3793 1.399 . S
C3794 C3795 1.385 . S
C3795 H3781 0.931 . S
C3795 C3794 1.385 . S
C3795 C3796 1.389 . S
C3796 C3795 1.389 . S
C3796 C3797 1.387 . S
C3797 H3782 0.930 . S
C3797 C3792 1.390 . S
C3797 C3796 1.387 . S
H3798 C3810 0.930 . S
H3799 C3812 0.930 . S
H3800 C3813 0.930 . S
H3801 C3817 0.959 . S
H3802 C3817 0.959 . S
H3803 C3817 0.961 . S
H3804 C3818 0.960 . S
H3805 C3818 0.961 . S
H3806 C3818 0.959 . S
H3807 C3821 0.929 . S
H3808 C3822 0.931 . S
H3809 C3824 0.930 . S
C3810 H3798 0.930 . S
C3810 C3811 1.399 . S
C3810 C3815 1.399 . S
C3811 C3810 1.399 . S
C3811 C3812 1.376 . S
C3812 H3799 0.930 . S
C3812 C3811 1.376 . S
C3812 C3813 1.388 . S
C3813 H3800 0.930 . S
C3813 C3812 1.388 . S
C3813 C3814 1.390 . S
C3814 C3813 1.390 . S
C3814 C3815 1.394 . S
C3814 C3820 1.465 . S
C3815 C3810 1.399 . S
C3815 C3814 1.394 . S
C3815 C3816 1.516 . S
C3816 C3815 1.516 . S
C3816 C3817 1.502 . S
C3816 C3818 1.561 . S
C3816 C3819 1.526 . S
C3817 H3801 0.959 . S
C3817 H3802 0.959 . S
C3817 H3803 0.961 . S
C3817 C3816 1.502 . S
C3818 H3804 0.960 . S
C3818 H3805 0.961 . S
C3818 H3806 0.959 . S
C3818 C3816 1.561 . S
C3819 C3816 1.526 . S
C3819 C3820 1.396 . S
C3819 C3824 1.390 . S
C3820 C3814 1.465 . S
C3820 C3819 1.396 . S
C3820 C3821 1.399 . S
C3821 H3807 0.929 . S
C3821 C3820 1.399 . S
C3821 C3822 1.385 . S
C3822 H3808 0.931 . S
C3822 C3821 1.385 . S
C3822 C3823 1.389 . S
C3823 C3822 1.389 . S
C3823 C3824 1.387 . S
C3824 H3809 0.930 . S
C3824 C3819 1.390 . S
C3824 C3823 1.387 . S
H3825 C3837 0.930 . S
H3826 C3839 0.930 . S
H3827 C3840 0.930 . S
H3828 C3844 0.959 . S
H3829 C3844 0.959 . S
H3830 C3844 0.961 . S
H3831 C3845 0.960 . S
H3832 C3845 0.961 . S
H3833 C3845 0.959 . S
H3834 C3848 0.929 . S
H3835 C3849 0.931 . S
H3836 C3851 0.930 . S
C3837 H3825 0.930 . S
C3837 C3838 1.399 . S
C3837 C3842 1.399 . S
C3838 C3837 1.399 . S
C3838 C3839 1.376 . S
C3839 H3826 0.930 . S
C3839 C3838 1.376 . S
C3839 C3840 1.388 . S
C3840 H3827 0.930 . S
C3840 C3839 1.388 . S
C3840 C3841 1.390 . S
C3841 C3840 1.390 . S
C3841 C3842 1.394 . S
C3841 C3847 1.465 . S
C3842 C3837 1.399 . S
C3842 C3841 1.394 . S
C3842 C3843 1.516 . S
C3843 C3842 1.516 . S
C3843 C3844 1.502 . S
C3843 C3845 1.561 . S
C3843 C3846 1.526 . S
C3844 H3828 0.959 . S
C3844 H3829 0.959 . S
C3844 H3830 0.961 . S
C3844 C3843 1.502 . S
C3845 H3831 0.960 . S
C3845 H3832 0.961 . S
C3845 H3833 0.959 . S
C3845 C3843 1.561 . S
C3846 C3843 1.526 . S
C3846 C3847 1.396 . S
C3846 C3851 1.390 . S
C3847 C3841 1.465 . S
C3847 C3846 1.396 . S
C3847 C3848 1.399 . S
C3848 H3834 0.929 . S
C3848 C3847 1.399 . S
C3848 C3849 1.385 . S
C3849 H3835 0.931 . S
C3849 C3848 1.385 . S
C3849 C3850 1.389 . S
C3850 C3849 1.389 . S
C3850 C3851 1.387 . S
C3851 H3836 0.930 . S
C3851 C3846 1.390 . S
C3851 C3850 1.387 . S
H3852 C3864 0.930 . S
H3853 C3866 0.930 . S
H3854 C3867 0.930 . S
H3855 C3871 0.959 . S
H3856 C3871 0.959 . S
H3857 C3871 0.961 . S
H3858 C3872 0.960 . S
H3859 C3872 0.961 . S
H3860 C3872 0.959 . S
H3861 C3875 0.929 . S
H3862 C3876 0.931 . S
H3863 C3878 0.930 . S
C3864 H3852 0.930 . S
C3864 C3865 1.399 . S
C3864 C3869 1.399 . S
C3865 C3864 1.399 . S
C3865 C3866 1.376 . S
C3866 H3853 0.930 . S
C3866 C3865 1.376 . S
C3866 C3867 1.388 . S
C3867 H3854 0.930 . S
C3867 C3866 1.388 . S
C3867 C3868 1.390 . S
C3868 C3867 1.390 . S
C3868 C3869 1.394 . S
C3868 C3874 1.465 . S
C3869 C3864 1.399 . S
C3869 C3868 1.394 . S
C3869 C3870 1.516 . S
C3870 C3869 1.516 . S
C3870 C3871 1.502 . S
C3870 C3872 1.561 . S
C3870 C3873 1.526 . S
C3871 H3855 0.959 . S
C3871 H3856 0.959 . S
C3871 H3857 0.961 . S
C3871 C3870 1.502 . S
C3872 H3858 0.960 . S
C3872 H3859 0.961 . S
C3872 H3860 0.959 . S
C3872 C3870 1.561 . S
C3873 C3870 1.526 . S
C3873 C3874 1.396 . S
C3873 C3878 1.390 . S
C3874 C3868 1.465 . S
C3874 C3873 1.396 . S
C3874 C3875 1.399 . S
C3875 H3861 0.929 . S
C3875 C3874 1.399 . S
C3875 C3876 1.385 . S
C3876 H3862 0.931 . S
C3876 C3875 1.385 . S
C3876 C3877 1.389 . S
C3877 C3876 1.389 . S
C3877 C3878 1.387 . S
C3878 H3863 0.930 . S
C3878 C3873 1.390 . S
C3878 C3877 1.387 . S
H3879 C3891 0.930 . S
H3880 C3893 0.930 . S
H3881 C3894 0.930 . S
H3882 C3898 0.959 . S
H3883 C3898 0.959 . S
H3884 C3898 0.961 . S
H3885 C3899 0.960 . S
H3886 C3899 0.961 . S
H3887 C3899 0.959 . S
H3888 C3902 0.929 . S
H3889 C3903 0.931 . S
H3890 C3905 0.930 . S
C3891 H3879 0.930 . S
C3891 C3892 1.399 . S
C3891 C3896 1.399 . S
C3892 C3891 1.399 . S
C3892 C3893 1.376 . S
C3893 H3880 0.930 . S
C3893 C3892 1.376 . S
C3893 C3894 1.388 . S
C3894 H3881 0.930 . S
C3894 C3893 1.388 . S
C3894 C3895 1.390 . S
C3895 C3894 1.390 . S
C3895 C3896 1.394 . S
C3895 C3901 1.465 . S
C3896 C3891 1.399 . S
C3896 C3895 1.394 . S
C3896 C3897 1.516 . S
C3897 C3896 1.516 . S
C3897 C3898 1.502 . S
C3897 C3899 1.561 . S
C3897 C3900 1.526 . S
C3898 H3882 0.959 . S
C3898 H3883 0.959 . S
C3898 H3884 0.961 . S
C3898 C3897 1.502 . S
C3899 H3885 0.960 . S
C3899 H3886 0.961 . S
C3899 H3887 0.959 . S
C3899 C3897 1.561 . S
C3900 C3897 1.526 . S
C3900 C3901 1.396 . S
C3900 C3905 1.390 . S
C3901 C3895 1.465 . S
C3901 C3900 1.396 . S
C3901 C3902 1.399 . S
C3902 H3888 0.929 . S
C3902 C3901 1.399 . S
C3902 C3903 1.385 . S
C3903 H3889 0.931 . S
C3903 C3902 1.385 . S
C3903 C3904 1.389 . S
C3904 C3903 1.389 . S
C3904 C3905 1.387 . S
C3905 H3890 0.930 . S
C3905 C3900 1.390 . S
C3905 C3904 1.387 . S
H3906 C3918 0.930 . S
H3907 C3920 0.930 . S
H3908 C3921 0.930 . S
H3909 C3925 0.959 . S
H3910 C3925 0.959 . S
H3911 C3925 0.961 . S
H3912 C3926 0.960 . S
H3913 C3926 0.961 . S
H3914 C3926 0.959 . S
H3915 C3929 0.929 . S
H3916 C3930 0.931 . S
H3917 C3932 0.930 . S
C3918 H3906 0.930 . S
C3918 C3919 1.399 . S
C3918 C3923 1.399 . S
C3919 C3918 1.399 . S
C3919 C3920 1.376 . S
C3920 H3907 0.930 . S
C3920 C3919 1.376 . S
C3920 C3921 1.388 . S
C3921 H3908 0.930 . S
C3921 C3920 1.388 . S
C3921 C3922 1.390 . S
C3922 C3921 1.390 . S
C3922 C3923 1.394 . S
C3922 C3928 1.465 . S
C3923 C3918 1.399 . S
C3923 C3922 1.394 . S
C3923 C3924 1.516 . S
C3924 C3923 1.516 . S
C3924 C3925 1.502 . S
C3924 C3926 1.561 . S
C3924 C3927 1.526 . S
C3925 H3909 0.959 . S
C3925 H3910 0.959 . S
C3925 H3911 0.961 . S
C3925 C3924 1.502 . S
C3926 H3912 0.960 . S
C3926 H3913 0.961 . S
C3926 H3914 0.959 . S
C3926 C3924 1.561 . S
C3927 C3924 1.526 . S
C3927 C3928 1.396 . S
C3927 C3932 1.390 . S
C3928 C3922 1.465 . S
C3928 C3927 1.396 . S
C3928 C3929 1.399 . S
C3929 H3915 0.929 . S
C3929 C3928 1.399 . S
C3929 C3930 1.385 . S
C3930 H3916 0.931 . S
C3930 C3929 1.385 . S
C3930 C3931 1.389 . S
C3931 C3930 1.389 . S
C3931 C3932 1.387 . S
C3932 H3917 0.930 . S
C3932 C3927 1.390 . S
C3932 C3931 1.387 . S
H3933 C3945 0.930 . S
H3934 C3947 0.930 . S
H3935 C3948 0.930 . S
H3936 C3952 0.959 . S
H3937 C3952 0.959 . S
H3938 C3952 0.961 . S
H3939 C3953 0.960 . S
H3940 C3953 0.961 . S
H3941 C3953 0.959 . S
H3942 C3956 0.929 . S
H3943 C3957 0.931 . S
H3944 C3959 0.930 . S
C3945 H3933 0.930 . S
C3945 C3946 1.399 . S
C3945 C3950 1.399 . S
C3946 C3945 1.399 . S
C3946 C3947 1.376 . S
C3947 H3934 0.930 . S
C3947 C3946 1.376 . S
C3947 C3948 1.388 . S
C3948 H3935 0.930 . S
C3948 C3947 1.388 . S
C3948 C3949 1.390 . S
C3949 C3948 1.390 . S
C3949 C3950 1.394 . S
C3949 C3955 1.465 . S
C3950 C3945 1.399 . S
C3950 C3949 1.394 . S
C3950 C3951 1.516 . S
C3951 C3950 1.516 . S
C3951 C3952 1.502 . S
C3951 C3953 1.561 . S
C3951 C3954 1.526 . S
C3952 H3936 0.959 . S
C3952 H3937 0.959 . S
C3952 H3938 0.961 . S
C3952 C3951 1.502 . S
C3953 H3939 0.960 . S
C3953 H3940 0.961 . S
C3953 H3941 0.959 . S
C3953 C3951 1.561 . S
C3954 C3951 1.526 . S
C3954 C3955 1.396 . S
C3954 C3959 1.390 . S
C3955 C3949 1.465 . S
C3955 C3954 1.396 . S
C3955 C3956 1.399 . S
C3956 H3942 0.929 . S
C3956 C3955 1.399 . S
C3956 C3957 1.385 . S
C3957 H3943 0.931 . S
C3957 C3956 1.385 . S
C3957 C3958 1.389 . S
C3958 C3957 1.389 . S
C3958 C3959 1.387 . S
C3959 H3944 0.930 . S
C3959 C3954 1.390 . S
C3959 C3958 1.387 . S
H3960 C3972 0.930 . S
H3961 C3974 0.930 . S
H3962 C3975 0.930 . S
H3963 C3979 0.959 . S
H3964 C3979 0.959 . S
H3965 C3979 0.961 . S
H3966 C3980 0.960 . S
H3967 C3980 0.961 . S
H3968 C3980 0.959 . S
H3969 C3983 0.929 . S
H3970 C3984 0.931 . S
H3971 C3986 0.930 . S
C3972 H3960 0.930 . S
C3972 C3973 1.399 . S
C3972 C3977 1.399 . S
C3973 C3972 1.399 . S
C3973 C3974 1.376 . S
C3974 H3961 0.930 . S
C3974 C3973 1.376 . S
C3974 C3975 1.388 . S
C3975 H3962 0.930 . S
C3975 C3974 1.388 . S
C3975 C3976 1.390 . S
C3976 C3975 1.390 . S
C3976 C3977 1.394 . S
C3976 C3982 1.465 . S
C3977 C3972 1.399 . S
C3977 C3976 1.394 . S
C3977 C3978 1.516 . S
C3978 C3977 1.516 . S
C3978 C3979 1.502 . S
C3978 C3980 1.561 . S
C3978 C3981 1.526 . S
C3979 H3963 0.959 . S
C3979 H3964 0.959 . S
C3979 H3965 0.961 . S
C3979 C3978 1.502 . S
C3980 H3966 0.960 . S
C3980 H3967 0.961 . S
C3980 H3968 0.959 . S
C3980 C3978 1.561 . S
C3981 C3978 1.526 . S
C3981 C3982 1.396 . S
C3981 C3986 1.390 . S
C3982 C3976 1.465 . S
C3982 C3981 1.396 . S
C3982 C3983 1.399 . S
C3983 H3969 0.929 . S
C3983 C3982 1.399 . S
C3983 C3984 1.385 . S
C3984 H3970 0.931 . S
C3984 C3983 1.385 . S
C3984 C3985 1.389 . S
C3985 C3984 1.389 . S
C3985 C3986 1.387 . S
C3986 H3971 0.930 . S
C3986 C3981 1.390 . S
C3986 C3985 1.387 . S
H3987 C3999 0.930 . S
H3988 C4001 0.930 . S
H3989 C4002 0.930 . S
H3990 C4006 0.959 . S
H3991 C4006 0.959 . S
H3992 C4006 0.961 . S
H3993 C4007 0.960 . S
H3994 C4007 0.961 . S
H3995 C4007 0.959 . S
H3996 C4010 0.929 . S
H3997 C4011 0.931 . S
H3998 C4013 0.930 . S
C3999 H3987 0.930 . S
C3999 C4000 1.399 . S
C3999 C4004 1.399 . S
C4000 C3999 1.399 . S
C4000 C4001 1.376 . S
C4001 H3988 0.930 . S
C4001 C4000 1.376 . S
C4001 C4002 1.388 . S
C4002 H3989 0.930 . S
C4002 C4001 1.388 . S
C4002 C4003 1.390 . S
C4003 C4002 1.390 . S
C4003 C4004 1.394 . S
C4003 C4009 1.465 . S
C4004 C3999 1.399 . S
C4004 C4003 1.394 . S
C4004 C4005 1.516 . S
C4005 C4004 1.516 . S
C4005 C4006 1.502 . S
C4005 C4007 1.561 . S
C4005 C4008 1.526 . S
C4006 H3990 0.959 . S
C4006 H3991 0.959 . S
C4006 H3992 0.961 . S
C4006 C4005 1.502 . S
C4007 H3993 0.960 . S
C4007 H3994 0.961 . S
C4007 H3995 0.959 . S
C4007 C4005 1.561 . S
C4008 C4005 1.526 . S
C4008 C4009 1.396 . S
C4008 C4013 1.390 . S
C4009 C4003 1.465 . S
C4009 C4008 1.396 . S
C4009 C4010 1.399 . S
C4010 H3996 0.929 . S
C4010 C4009 1.399 . S
C4010 C4011 1.385 . S
C4011 H3997 0.931 . S
C4011 C4010 1.385 . S
C4011 C4012 1.389 . S
C4012 C4011 1.389 . S
C4012 C4013 1.387 . S
C4013 H3998 0.930 . S
C4013 C4008 1.390 . S
C4013 C4012 1.387 . S
H4014 C4026 0.930 . S
H4015 C4028 0.930 . S
H4016 C4029 0.930 . S
H4017 C4033 0.959 . S
H4018 C4033 0.959 . S
H4019 C4033 0.961 . S
H4020 C4034 0.960 . S
H4021 C4034 0.961 . S
H4022 C4034 0.959 . S
H4023 C4037 0.929 . S
H4024 C4038 0.931 . S
H4025 C4040 0.930 . S
C4026 H4014 0.930 . S
C4026 C4027 1.399 . S
C4026 C4031 1.399 . S
C4027 C4026 1.399 . S
C4027 C4028 1.376 . S
C4028 H4015 0.930 . S
C4028 C4027 1.376 . S
C4028 C4029 1.388 . S
C4029 H4016 0.930 . S
C4029 C4028 1.388 . S
C4029 C4030 1.390 . S
C4030 C4029 1.390 . S
C4030 C4031 1.394 . S
C4030 C4036 1.465 . S
C4031 C4026 1.399 . S
C4031 C4030 1.394 . S
C4031 C4032 1.516 . S
C4032 C4031 1.516 . S
C4032 C4033 1.502 . S
C4032 C4034 1.561 . S
C4032 C4035 1.526 . S
C4033 H4017 0.959 . S
C4033 H4018 0.959 . S
C4033 H4019 0.961 . S
C4033 C4032 1.502 . S
C4034 H4020 0.960 . S
C4034 H4021 0.961 . S
C4034 H4022 0.959 . S
C4034 C4032 1.561 . S
C4035 C4032 1.526 . S
C4035 C4036 1.396 . S
C4035 C4040 1.390 . S
C4036 C4030 1.465 . S
C4036 C4035 1.396 . S
C4036 C4037 1.399 . S
C4037 H4023 0.929 . S
C4037 C4036 1.399 . S
C4037 C4038 1.385 . S
C4038 H4024 0.931 . S
C4038 C4037 1.385 . S
C4038 C4039 1.389 . S
C4039 C4038 1.389 . S
C4039 C4040 1.387 . S
C4040 H4025 0.930 . S
C4040 C4035 1.390 . S
C4040 C4039 1.387 . S
H4041 C4053 0.930 . S
H4042 C4055 0.930 . S
H4043 C4056 0.930 . S
H4044 C4060 0.959 . S
H4045 C4060 0.959 . S
H4046 C4060 0.961 . S
H4047 C4061 0.960 . S
H4048 C4061 0.961 . S
H4049 C4061 0.959 . S
H4050 C4064 0.929 . S
H4051 C4065 0.931 . S
H4052 C4067 0.930 . S
C4053 H4041 0.930 . S
C4053 C4054 1.399 . S
C4053 C4058 1.399 . S
C4054 C4053 1.399 . S
C4054 C4055 1.376 . S
C4055 H4042 0.930 . S
C4055 C4054 1.376 . S
C4055 C4056 1.388 . S
C4056 H4043 0.930 . S
C4056 C4055 1.388 . S
C4056 C4057 1.390 . S
C4057 C4056 1.390 . S
C4057 C4058 1.394 . S
C4057 C4063 1.465 . S
C4058 C4053 1.399 . S
C4058 C4057 1.394 . S
C4058 C4059 1.516 . S
C4059 C4058 1.516 . S
C4059 C4060 1.502 . S
C4059 C4061 1.561 . S
C4059 C4062 1.526 . S
C4060 H4044 0.959 . S
C4060 H4045 0.959 . S
C4060 H4046 0.961 . S
C4060 C4059 1.502 . S
C4061 H4047 0.960 . S
C4061 H4048 0.961 . S
C4061 H4049 0.959 . S
C4061 C4059 1.561 . S
C4062 C4059 1.526 . S
C4062 C4063 1.396 . S
C4062 C4067 1.390 . S
C4063 C4057 1.465 . S
C4063 C4062 1.396 . S
C4063 C4064 1.399 . S
C4064 H4050 0.929 . S
C4064 C4063 1.399 . S
C4064 C4065 1.385 . S
C4065 H4051 0.931 . S
C4065 C4064 1.385 . S
C4065 C4066 1.389 . S
C4066 C4065 1.389 . S
C4066 C4067 1.387 . S
C4067 H4052 0.930 . S
C4067 C4062 1.390 . S
C4067 C4066 1.387 . S
H4068 C4080 0.930 . S
H4069 C4082 0.930 . S
H4070 C4083 0.930 . S
H4071 C4087 0.959 . S
H4072 C4087 0.959 . S
H4073 C4087 0.961 . S
H4074 C4088 0.960 . S
H4075 C4088 0.961 . S
H4076 C4088 0.959 . S
H4077 C4091 0.929 . S
H4078 C4092 0.931 . S
H4079 C4094 0.930 . S
C4080 H4068 0.930 . S
C4080 C4081 1.399 . S
C4080 C4085 1.399 . S
C4081 C4080 1.399 . S
C4081 C4082 1.376 . S
C4082 H4069 0.930 . S
C4082 C4081 1.376 . S
C4082 C4083 1.388 . S
C4083 H4070 0.930 . S
C4083 C4082 1.388 . S
C4083 C4084 1.390 . S
C4084 C4083 1.390 . S
C4084 C4085 1.394 . S
C4084 C4090 1.465 . S
C4085 C4080 1.399 . S
C4085 C4084 1.394 . S
C4085 C4086 1.516 . S
C4086 C4085 1.516 . S
C4086 C4087 1.502 . S
C4086 C4088 1.561 . S
C4086 C4089 1.526 . S
C4087 H4071 0.959 . S
C4087 H4072 0.959 . S
C4087 H4073 0.961 . S
C4087 C4086 1.502 . S
C4088 H4074 0.960 . S
C4088 H4075 0.961 . S
C4088 H4076 0.959 . S
C4088 C4086 1.561 . S
C4089 C4086 1.526 . S
C4089 C4090 1.396 . S
C4089 C4094 1.390 . S
C4090 C4084 1.465 . S
C4090 C4089 1.396 . S
C4090 C4091 1.399 . S
C4091 H4077 0.929 . S
C4091 C4090 1.399 . S
C4091 C4092 1.385 . S
C4092 H4078 0.931 . S
C4092 C4091 1.385 . S
C4092 C4093 1.389 . S
C4093 C4092 1.389 . S
C4093 C4094 1.387 . S
C4094 H4079 0.930 . S
C4094 C4089 1.390 . S
C4094 C4093 1.387 . S
H4095 C4107 0.930 . S
H4096 C4109 0.930 . S
H4097 C4110 0.930 . S
H4098 C4114 0.959 . S
H4099 C4114 0.959 . S
H4100 C4114 0.961 . S
H4101 C4115 0.960 . S
H4102 C4115 0.961 . S
H4103 C4115 0.959 . S
H4104 C4118 0.929 . S
H4105 C4119 0.931 . S
H4106 C4121 0.930 . S
C4107 H4095 0.930 . S
C4107 C4108 1.399 . S
C4107 C4112 1.399 . S
C4108 C4107 1.399 . S
C4108 C4109 1.376 . S
C4109 H4096 0.930 . S
C4109 C4108 1.376 . S
C4109 C4110 1.388 . S
C4110 H4097 0.930 . S
C4110 C4109 1.388 . S
C4110 C4111 1.390 . S
C4111 C4110 1.390 . S
C4111 C4112 1.394 . S
C4111 C4117 1.465 . S
C4112 C4107 1.399 . S
C4112 C4111 1.394 . S
C4112 C4113 1.516 . S
C4113 C4112 1.516 . S
C4113 C4114 1.502 . S
C4113 C4115 1.561 . S
C4113 C4116 1.526 . S
C4114 H4098 0.959 . S
C4114 H4099 0.959 . S
C4114 H4100 0.961 . S
C4114 C4113 1.502 . S
C4115 H4101 0.960 . S
C4115 H4102 0.961 . S
C4115 H4103 0.959 . S
C4115 C4113 1.561 . S
C4116 C4113 1.526 . S
C4116 C4117 1.396 . S
C4116 C4121 1.390 . S
C4117 C4111 1.465 . S
C4117 C4116 1.396 . S
C4117 C4118 1.399 . S
C4118 H4104 0.929 . S
C4118 C4117 1.399 . S
C4118 C4119 1.385 . S
C4119 H4105 0.931 . S
C4119 C4118 1.385 . S
C4119 C4120 1.389 . S
C4120 C4119 1.389 . S
C4120 C4121 1.387 . S
C4121 H4106 0.930 . S
C4121 C4116 1.390 . S
C4121 C4120 1.387 . S
H4122 C4134 0.930 . S
H4123 C4136 0.930 . S
H4124 C4137 0.930 . S
H4125 C4141 0.959 . S
H4126 C4141 0.959 . S
H4127 C4141 0.961 . S
H4128 C4142 0.960 . S
H4129 C4142 0.961 . S
H4130 C4142 0.959 . S
H4131 C4145 0.929 . S
H4132 C4146 0.931 . S
H4133 C4148 0.930 . S
C4134 H4122 0.930 . S
C4134 C4135 1.399 . S
C4134 C4139 1.399 . S
C4135 C4134 1.399 . S
C4135 C4136 1.376 . S
C4136 H4123 0.930 . S
C4136 C4135 1.376 . S
C4136 C4137 1.388 . S
C4137 H4124 0.930 . S
C4137 C4136 1.388 . S
C4137 C4138 1.390 . S
C4138 C4137 1.390 . S
C4138 C4139 1.394 . S
C4138 C4144 1.465 . S
C4139 C4134 1.399 . S
C4139 C4138 1.394 . S
C4139 C4140 1.516 . S
C4140 C4139 1.516 . S
C4140 C4141 1.502 . S
C4140 C4142 1.561 . S
C4140 C4143 1.526 . S
C4141 H4125 0.959 . S
C4141 H4126 0.959 . S
C4141 H4127 0.961 . S
C4141 C4140 1.502 . S
C4142 H4128 0.960 . S
C4142 H4129 0.961 . S
C4142 H4130 0.959 . S
C4142 C4140 1.561 . S
C4143 C4140 1.526 . S
C4143 C4144 1.396 . S
C4143 C4148 1.390 . S
C4144 C4138 1.465 . S
C4144 C4143 1.396 . S
C4144 C4145 1.399 . S
C4145 H4131 0.929 . S
C4145 C4144 1.399 . S
C4145 C4146 1.385 . S
C4146 H4132 0.931 . S
C4146 C4145 1.385 . S
C4146 C4147 1.389 . S
C4147 C4146 1.389 . S
C4147 C4148 1.387 . S
C4148 H4133 0.930 . S
C4148 C4143 1.390 . S
C4148 C4147 1.387 . S
H4149 C4161 0.930 . S
H4150 C4163 0.930 . S
H4151 C4164 0.930 . S
H4152 C4168 0.959 . S
H4153 C4168 0.959 . S
H4154 C4168 0.961 . S
H4155 C4169 0.960 . S
H4156 C4169 0.961 . S
H4157 C4169 0.959 . S
H4158 C4172 0.929 . S
H4159 C4173 0.931 . S
H4160 C4175 0.930 . S
C4161 H4149 0.930 . S
C4161 C4162 1.399 . S
C4161 C4166 1.399 . S
C4162 C4161 1.399 . S
C4162 C4163 1.376 . S
C4163 H4150 0.930 . S
C4163 C4162 1.376 . S
C4163 C4164 1.388 . S
C4164 H4151 0.930 . S
C4164 C4163 1.388 . S
C4164 C4165 1.390 . S
C4165 C4164 1.390 . S
C4165 C4166 1.394 . S
C4165 C4171 1.465 . S
C4166 C4161 1.399 . S
C4166 C4165 1.394 . S
C4166 C4167 1.516 . S
C4167 C4166 1.516 . S
C4167 C4168 1.502 . S
C4167 C4169 1.561 . S
C4167 C4170 1.526 . S
C4168 H4152 0.959 . S
C4168 H4153 0.959 . S
C4168 H4154 0.961 . S
C4168 C4167 1.502 . S
C4169 H4155 0.960 . S
C4169 H4156 0.961 . S
C4169 H4157 0.959 . S
C4169 C4167 1.561 . S
C4170 C4167 1.526 . S
C4170 C4171 1.396 . S
C4170 C4175 1.390 . S
C4171 C4165 1.465 . S
C4171 C4170 1.396 . S
C4171 C4172 1.399 . S
C4172 H4158 0.929 . S
C4172 C4171 1.399 . S
C4172 C4173 1.385 . S
C4173 H4159 0.931 . S
C4173 C4172 1.385 . S
C4173 C4174 1.389 . S
C4174 C4173 1.389 . S
C4174 C4175 1.387 . S
C4175 H4160 0.930 . S
C4175 C4170 1.390 . S
C4175 C4174 1.387 . S
H4176 C4188 0.930 . S
H4177 C4190 0.930 . S
H4178 C4191 0.930 . S
H4179 C4195 0.959 . S
H4180 C4195 0.959 . S
H4181 C4195 0.961 . S
H4182 C4196 0.960 . S
H4183 C4196 0.961 . S
H4184 C4196 0.959 . S
H4185 C4199 0.929 . S
H4186 C4200 0.931 . S
H4187 C4202 0.930 . S
C4188 H4176 0.930 . S
C4188 C4189 1.399 . S
C4188 C4193 1.399 . S
C4189 C4188 1.399 . S
C4189 C4190 1.376 . S
C4190 H4177 0.930 . S
C4190 C4189 1.376 . S
C4190 C4191 1.388 . S
C4191 H4178 0.930 . S
C4191 C4190 1.388 . S
C4191 C4192 1.390 . S
C4192 C4191 1.390 . S
C4192 C4193 1.394 . S
C4192 C4198 1.465 . S
C4193 C4188 1.399 . S
C4193 C4192 1.394 . S
C4193 C4194 1.516 . S
C4194 C4193 1.516 . S
C4194 C4195 1.502 . S
C4194 C4196 1.561 . S
C4194 C4197 1.526 . S
C4195 H4179 0.959 . S
C4195 H4180 0.959 . S
C4195 H4181 0.961 . S
C4195 C4194 1.502 . S
C4196 H4182 0.960 . S
C4196 H4183 0.961 . S
C4196 H4184 0.959 . S
C4196 C4194 1.561 . S
C4197 C4194 1.526 . S
C4197 C4198 1.396 . S
C4197 C4202 1.390 . S
C4198 C4192 1.465 . S
C4198 C4197 1.396 . S
C4198 C4199 1.399 . S
C4199 H4185 0.929 . S
C4199 C4198 1.399 . S
C4199 C4200 1.385 . S
C4200 H4186 0.931 . S
C4200 C4199 1.385 . S
C4200 C4201 1.389 . S
C4201 C4200 1.389 . S
C4201 C4202 1.387 . S
C4202 H4187 0.930 . S
C4202 C4197 1.390 . S
C4202 C4201 1.387 . S
H4203 C4215 0.930 . S
H4204 C4217 0.930 . S
H4205 C4218 0.930 . S
H4206 C4222 0.959 . S
H4207 C4222 0.959 . S
H4208 C4222 0.961 . S
H4209 C4223 0.960 . S
H4210 C4223 0.961 . S
H4211 C4223 0.959 . S
H4212 C4226 0.929 . S
H4213 C4227 0.931 . S
H4214 C4229 0.930 . S
C4215 H4203 0.930 . S
C4215 C4216 1.399 . S
C4215 C4220 1.399 . S
C4216 C4215 1.399 . S
C4216 C4217 1.376 . S
C4217 H4204 0.930 . S
C4217 C4216 1.376 . S
C4217 C4218 1.388 . S
C4218 H4205 0.930 . S
C4218 C4217 1.388 . S
C4218 C4219 1.390 . S
C4219 C4218 1.390 . S
C4219 C4220 1.394 . S
C4219 C4225 1.465 . S
C4220 C4215 1.399 . S
C4220 C4219 1.394 . S
C4220 C4221 1.516 . S
C4221 C4220 1.516 . S
C4221 C4222 1.502 . S
C4221 C4223 1.561 . S
C4221 C4224 1.526 . S
C4222 H4206 0.959 . S
C4222 H4207 0.959 . S
C4222 H4208 0.961 . S
C4222 C4221 1.502 . S
C4223 H4209 0.960 . S
C4223 H4210 0.961 . S
C4223 H4211 0.959 . S
C4223 C4221 1.561 . S
C4224 C4221 1.526 . S
C4224 C4225 1.396 . S
C4224 C4229 1.390 . S
C4225 C4219 1.465 . S
C4225 C4224 1.396 . S
C4225 C4226 1.399 . S
C4226 H4212 0.929 . S
C4226 C4225 1.399 . S
C4226 C4227 1.385 . S
C4227 H4213 0.931 . S
C4227 C4226 1.385 . S
C4227 C4228 1.389 . S
C4228 C4227 1.389 . S
C4228 C4229 1.387 . S
C4229 H4214 0.930 . S
C4229 C4224 1.390 . S
C4229 C4228 1.387 . S
H4230 C4242 0.930 . S
H4231 C4244 0.930 . S
H4232 C4245 0.930 . S
H4233 C4249 0.959 . S
H4234 C4249 0.959 . S
H4235 C4249 0.961 . S
H4236 C4250 0.960 . S
H4237 C4250 0.961 . S
H4238 C4250 0.959 . S
H4239 C4253 0.929 . S
H4240 C4254 0.931 . S
H4241 C4256 0.930 . S
C4242 H4230 0.930 . S
C4242 C4243 1.399 . S
C4242 C4247 1.399 . S
C4243 C4242 1.399 . S
C4243 C4244 1.376 . S
C4244 H4231 0.930 . S
C4244 C4243 1.376 . S
C4244 C4245 1.388 . S
C4245 H4232 0.930 . S
C4245 C4244 1.388 . S
C4245 C4246 1.390 . S
C4246 C4245 1.390 . S
C4246 C4247 1.394 . S
C4246 C4252 1.465 . S
C4247 C4242 1.399 . S
C4247 C4246 1.394 . S
C4247 C4248 1.516 . S
C4248 C4247 1.516 . S
C4248 C4249 1.502 . S
C4248 C4250 1.561 . S
C4248 C4251 1.526 . S
C4249 H4233 0.959 . S
C4249 H4234 0.959 . S
C4249 H4235 0.961 . S
C4249 C4248 1.502 . S
C4250 H4236 0.960 . S
C4250 H4237 0.961 . S
C4250 H4238 0.959 . S
C4250 C4248 1.561 . S
C4251 C4248 1.526 . S
C4251 C4252 1.396 . S
C4251 C4256 1.390 . S
C4252 C4246 1.465 . S
C4252 C4251 1.396 . S
C4252 C4253 1.399 . S
C4253 H4239 0.929 . S
C4253 C4252 1.399 . S
C4253 C4254 1.385 . S
C4254 H4240 0.931 . S
C4254 C4253 1.385 . S
C4254 C4255 1.389 . S
C4255 C4254 1.389 . S
C4255 C4256 1.387 . S
C4256 H4241 0.930 . S
C4256 C4251 1.390 . S
C4256 C4255 1.387 . S
H4257 C4269 0.930 . S
H4258 C4271 0.930 . S
H4259 C4272 0.930 . S
H4260 C4276 0.959 . S
H4261 C4276 0.959 . S
H4262 C4276 0.961 . S
H4263 C4277 0.960 . S
H4264 C4277 0.961 . S
H4265 C4277 0.959 . S
H4266 C4280 0.929 . S
H4267 C4281 0.931 . S
H4268 C4283 0.930 . S
C4269 H4257 0.930 . S
C4269 C4270 1.399 . S
C4269 C4274 1.399 . S
C4270 C4269 1.399 . S
C4270 C4271 1.376 . S
C4271 H4258 0.930 . S
C4271 C4270 1.376 . S
C4271 C4272 1.388 . S
C4272 H4259 0.930 . S
C4272 C4271 1.388 . S
C4272 C4273 1.390 . S
C4273 C4272 1.390 . S
C4273 C4274 1.394 . S
C4273 C4279 1.465 . S
C4274 C4269 1.399 . S
C4274 C4273 1.394 . S
C4274 C4275 1.516 . S
C4275 C4274 1.516 . S
C4275 C4276 1.502 . S
C4275 C4277 1.561 . S
C4275 C4278 1.526 . S
C4276 H4260 0.959 . S
C4276 H4261 0.959 . S
C4276 H4262 0.961 . S
C4276 C4275 1.502 . S
C4277 H4263 0.960 . S
C4277 H4264 0.961 . S
C4277 H4265 0.959 . S
C4277 C4275 1.561 . S
C4278 C4275 1.526 . S
C4278 C4279 1.396 . S
C4278 C4283 1.390 . S
C4279 C4273 1.465 . S
C4279 C4278 1.396 . S
C4279 C4280 1.399 . S
C4280 H4266 0.929 . S
C4280 C4279 1.399 . S
C4280 C4281 1.385 . S
C4281 H4267 0.931 . S
C4281 C4280 1.385 . S
C4281 C4282 1.389 . S
C4282 C4281 1.389 . S
C4282 C4283 1.387 . S
C4283 H4268 0.930 . S
C4283 C4278 1.390 . S
C4283 C4282 1.387 . S
H4284 C4296 0.930 . S
H4285 C4298 0.930 . S
H4286 C4299 0.930 . S
H4287 C4303 0.959 . S
H4288 C4303 0.959 . S
H4289 C4303 0.961 . S
H4290 C4304 0.960 . S
H4291 C4304 0.961 . S
H4292 C4304 0.959 . S
H4293 C4307 0.929 . S
H4294 C4308 0.931 . S
H4295 C4310 0.930 . S
C4296 H4284 0.930 . S
C4296 C4297 1.399 . S
C4296 C4301 1.399 . S
C4297 C4296 1.399 . S
C4297 C4298 1.376 . S
C4298 H4285 0.930 . S
C4298 C4297 1.376 . S
C4298 C4299 1.388 . S
C4299 H4286 0.930 . S
C4299 C4298 1.388 . S
C4299 C4300 1.390 . S
C4300 C4299 1.390 . S
C4300 C4301 1.394 . S
C4300 C4306 1.465 . S
C4301 C4296 1.399 . S
C4301 C4300 1.394 . S
C4301 C4302 1.516 . S
C4302 C4301 1.516 . S
C4302 C4303 1.502 . S
C4302 C4304 1.561 . S
C4302 C4305 1.526 . S
C4303 H4287 0.959 . S
C4303 H4288 0.959 . S
C4303 H4289 0.961 . S
C4303 C4302 1.502 . S
C4304 H4290 0.960 . S
C4304 H4291 0.961 . S
C4304 H4292 0.959 . S
C4304 C4302 1.561 . S
C4305 C4302 1.526 . S
C4305 C4306 1.396 . S
C4305 C4310 1.390 . S
C4306 C4300 1.465 . S
C4306 C4305 1.396 . S
C4306 C4307 1.399 . S
C4307 H4293 0.929 . S
C4307 C4306 1.399 . S
C4307 C4308 1.385 . S
C4308 H4294 0.931 . S
C4308 C4307 1.385 . S
C4308 C4309 1.389 . S
C4309 C4308 1.389 . S
C4309 C4310 1.387 . S
C4310 H4295 0.930 . S
C4310 C4305 1.390 . S
C4310 C4309 1.387 . S
H4311 C4323 0.930 . S
H4312 C4325 0.930 . S
H4313 C4326 0.930 . S
H4314 C4330 0.959 . S
H4315 C4330 0.959 . S
H4316 C4330 0.961 . S
H4317 C4331 0.960 . S
H4318 C4331 0.961 . S
H4319 C4331 0.959 . S
H4320 C4334 0.929 . S
H4321 C4335 0.931 . S
H4322 C4337 0.930 . S
C4323 H4311 0.930 . S
C4323 C4324 1.399 . S
C4323 C4328 1.399 . S
C4324 C4323 1.399 . S
C4324 C4325 1.376 . S
C4325 H4312 0.930 . S
C4325 C4324 1.376 . S
C4325 C4326 1.388 . S
C4326 H4313 0.930 . S
C4326 C4325 1.388 . S
C4326 C4327 1.390 . S
C4327 C4326 1.390 . S
C4327 C4328 1.394 . S
C4327 C4333 1.465 . S
C4328 C4323 1.399 . S
C4328 C4327 1.394 . S
C4328 C4329 1.516 . S
C4329 C4328 1.516 . S
C4329 C4330 1.502 . S
C4329 C4331 1.561 . S
C4329 C4332 1.526 . S
C4330 H4314 0.959 . S
C4330 H4315 0.959 . S
C4330 H4316 0.961 . S
C4330 C4329 1.502 . S
C4331 H4317 0.960 . S
C4331 H4318 0.961 . S
C4331 H4319 0.959 . S
C4331 C4329 1.561 . S
C4332 C4329 1.526 . S
C4332 C4333 1.396 . S
C4332 C4337 1.390 . S
C4333 C4327 1.465 . S
C4333 C4332 1.396 . S
C4333 C4334 1.399 . S
C4334 H4320 0.929 . S
C4334 C4333 1.399 . S
C4334 C4335 1.385 . S
C4335 H4321 0.931 . S
C4335 C4334 1.385 . S
C4335 C4336 1.389 . S
C4336 C4335 1.389 . S
C4336 C4337 1.387 . S
C4337 H4322 0.930 . S
C4337 C4332 1.390 . S
C4337 C4336 1.387 . S
H4338 C4350 0.930 . S
H4339 C4352 0.930 . S
H4340 C4353 0.930 . S
H4341 C4357 0.959 . S
H4342 C4357 0.959 . S
H4343 C4357 0.961 . S
H4344 C4358 0.960 . S
H4345 C4358 0.961 . S
H4346 C4358 0.959 . S
H4347 C4361 0.929 . S
H4348 C4362 0.931 . S
H4349 C4364 0.930 . S
C4350 H4338 0.930 . S
C4350 C4351 1.399 . S
C4350 C4355 1.399 . S
C4351 C4350 1.399 . S
C4351 C4352 1.376 . S
C4352 H4339 0.930 . S
C4352 C4351 1.376 . S
C4352 C4353 1.388 . S
C4353 H4340 0.930 . S
C4353 C4352 1.388 . S
C4353 C4354 1.390 . S
C4354 C4353 1.390 . S
C4354 C4355 1.394 . S
C4354 C4360 1.465 . S
C4355 C4350 1.399 . S
C4355 C4354 1.394 . S
C4355 C4356 1.516 . S
C4356 C4355 1.516 . S
C4356 C4357 1.502 . S
C4356 C4358 1.561 . S
C4356 C4359 1.526 . S
C4357 H4341 0.959 . S
C4357 H4342 0.959 . S
C4357 H4343 0.961 . S
C4357 C4356 1.502 . S
C4358 H4344 0.960 . S
C4358 H4345 0.961 . S
C4358 H4346 0.959 . S
C4358 C4356 1.561 . S
C4359 C4356 1.526 . S
C4359 C4360 1.396 . S
C4359 C4364 1.390 . S
C4360 C4354 1.465 . S
C4360 C4359 1.396 . S
C4360 C4361 1.399 . S
C4361 H4347 0.929 . S
C4361 C4360 1.399 . S
C4361 C4362 1.385 . S
C4362 H4348 0.931 . S
C4362 C4361 1.385 . S
C4362 C4363 1.389 . S
C4363 C4362 1.389 . S
C4363 C4364 1.387 . S
C4364 H4349 0.930 . S
C4364 C4359 1.390 . S
C4364 C4363 1.387 . S
H4365 C4377 0.930 . S
H4366 C4379 0.930 . S
H4367 C4380 0.930 . S
H4368 C4384 0.959 . S
H4369 C4384 0.959 . S
H4370 C4384 0.961 . S
H4371 C4385 0.960 . S
H4372 C4385 0.961 . S
H4373 C4385 0.959 . S
H4374 C4388 0.929 . S
H4375 C4389 0.931 . S
H4376 C4391 0.930 . S
C4377 H4365 0.930 . S
C4377 C4378 1.399 . S
C4377 C4382 1.399 . S
C4378 C4377 1.399 . S
C4378 C4379 1.376 . S
C4379 H4366 0.930 . S
C4379 C4378 1.376 . S
C4379 C4380 1.388 . S
C4380 H4367 0.930 . S
C4380 C4379 1.388 . S
C4380 C4381 1.390 . S
C4381 C4380 1.390 . S
C4381 C4382 1.394 . S
C4381 C4387 1.465 . S
C4382 C4377 1.399 . S
C4382 C4381 1.394 . S
C4382 C4383 1.516 . S
C4383 C4382 1.516 . S
C4383 C4384 1.502 . S
C4383 C4385 1.561 . S
C4383 C4386 1.526 . S
C4384 H4368 0.959 . S
C4384 H4369 0.959 . S
C4384 H4370 0.961 . S
C4384 C4383 1.502 . S
C4385 H4371 0.960 . S
C4385 H4372 0.961 . S
C4385 H4373 0.959 . S
C4385 C4383 1.561 . S
C4386 C4383 1.526 . S
C4386 C4387 1.396 . S
C4386 C4391 1.390 . S
C4387 C4381 1.465 . S
C4387 C4386 1.396 . S
C4387 C4388 1.399 . S
C4388 H4374 0.929 . S
C4388 C4387 1.399 . S
C4388 C4389 1.385 . S
C4389 H4375 0.931 . S
C4389 C4388 1.385 . S
C4389 C4390 1.389 . S
C4390 C4389 1.389 . S
C4390 C4391 1.387 . S
C4391 H4376 0.930 . S
C4391 C4386 1.390 . S
C4391 C4390 1.387 . S
H4392 C4404 0.930 . S
H4393 C4406 0.930 . S
H4394 C4407 0.930 . S
H4395 C4411 0.959 . S
H4396 C4411 0.959 . S
H4397 C4411 0.961 . S
H4398 C4412 0.960 . S
H4399 C4412 0.961 . S
H4400 C4412 0.959 . S
H4401 C4415 0.929 . S
H4402 C4416 0.931 . S
H4403 C4418 0.930 . S
C4404 H4392 0.930 . S
C4404 C4405 1.399 . S
C4404 C4409 1.399 . S
C4405 C4404 1.399 . S
C4405 C4406 1.376 . S
C4406 H4393 0.930 . S
C4406 C4405 1.376 . S
C4406 C4407 1.388 . S
C4407 H4394 0.930 . S
C4407 C4406 1.388 . S
C4407 C4408 1.390 . S
C4408 C4407 1.390 . S
C4408 C4409 1.394 . S
C4408 C4414 1.465 . S
C4409 C4404 1.399 . S
C4409 C4408 1.394 . S
C4409 C4410 1.516 . S
C4410 C4409 1.516 . S
C4410 C4411 1.502 . S
C4410 C4412 1.561 . S
C4410 C4413 1.526 . S
C4411 H4395 0.959 . S
C4411 H4396 0.959 . S
C4411 H4397 0.961 . S
C4411 C4410 1.502 . S
C4412 H4398 0.960 . S
C4412 H4399 0.961 . S
C4412 H4400 0.959 . S
C4412 C4410 1.561 . S
C4413 C4410 1.526 . S
C4413 C4414 1.396 . S
C4413 C4418 1.390 . S
C4414 C4408 1.465 . S
C4414 C4413 1.396 . S
C4414 C4415 1.399 . S
C4415 H4401 0.929 . S
C4415 C4414 1.399 . S
C4415 C4416 1.385 . S
C4416 H4402 0.931 . S
C4416 C4415 1.385 . S
C4416 C4417 1.389 . S
C4417 C4416 1.389 . S
C4417 C4418 1.387 . S
C4418 H4403 0.930 . S
C4418 C4413 1.390 . S
C4418 C4417 1.387 . S
H4419 C4431 0.930 . S
H4420 C4433 0.930 . S
H4421 C4434 0.930 . S
H4422 C4438 0.959 . S
H4423 C4438 0.959 . S
H4424 C4438 0.961 . S
H4425 C4439 0.960 . S
H4426 C4439 0.961 . S
H4427 C4439 0.959 . S
H4428 C4442 0.929 . S
H4429 C4443 0.931 . S
H4430 C4445 0.930 . S
C4431 H4419 0.930 . S
C4431 C4432 1.399 . S
C4431 C4436 1.399 . S
C4432 C4431 1.399 . S
C4432 C4433 1.376 . S
C4433 H4420 0.930 . S
C4433 C4432 1.376 . S
C4433 C4434 1.388 . S
C4434 H4421 0.930 . S
C4434 C4433 1.388 . S
C4434 C4435 1.390 . S
C4435 C4434 1.390 . S
C4435 C4436 1.394 . S
C4435 C4441 1.465 . S
C4436 C4431 1.399 . S
C4436 C4435 1.394 . S
C4436 C4437 1.516 . S
C4437 C4436 1.516 . S
C4437 C4438 1.502 . S
C4437 C4439 1.561 . S
C4437 C4440 1.526 . S
C4438 H4422 0.959 . S
C4438 H4423 0.959 . S
C4438 H4424 0.961 . S
C4438 C4437 1.502 . S
C4439 H4425 0.960 . S
C4439 H4426 0.961 . S
C4439 H4427 0.959 . S
C4439 C4437 1.561 . S
C4440 C4437 1.526 . S
C4440 C4441 1.396 . S
C4440 C4445 1.390 . S
C4441 C4435 1.465 . S
C4441 C4440 1.396 . S
C4441 C4442 1.399 . S
C4442 H4428 0.929 . S
C4442 C4441 1.399 . S
C4442 C4443 1.385 . S
C4443 H4429 0.931 . S
C4443 C4442 1.385 . S
C4443 C4444 1.389 . S
C4444 C4443 1.389 . S
C4444 C4445 1.387 . S
C4445 H4430 0.930 . S
C4445 C4440 1.390 . S
C4445 C4444 1.387 . S
H4446 C4458 0.930 . S
H4447 C4460 0.930 . S
H4448 C4461 0.930 . S
H4449 C4465 0.959 . S
H4450 C4465 0.959 . S
H4451 C4465 0.961 . S
H4452 C4466 0.960 . S
H4453 C4466 0.961 . S
H4454 C4466 0.959 . S
H4455 C4469 0.929 . S
H4456 C4470 0.931 . S
H4457 C4472 0.930 . S
C4458 H4446 0.930 . S
C4458 C4459 1.399 . S
C4458 C4463 1.399 . S
C4459 C4458 1.399 . S
C4459 C4460 1.376 . S
C4460 H4447 0.930 . S
C4460 C4459 1.376 . S
C4460 C4461 1.388 . S
C4461 H4448 0.930 . S
C4461 C4460 1.388 . S
C4461 C4462 1.390 . S
C4462 C4461 1.390 . S
C4462 C4463 1.394 . S
C4462 C4468 1.465 . S
C4463 C4458 1.399 . S
C4463 C4462 1.394 . S
C4463 C4464 1.516 . S
C4464 C4463 1.516 . S
C4464 C4465 1.502 . S
C4464 C4466 1.561 . S
C4464 C4467 1.526 . S
C4465 H4449 0.959 . S
C4465 H4450 0.959 . S
C4465 H4451 0.961 . S
C4465 C4464 1.502 . S
C4466 H4452 0.960 . S
C4466 H4453 0.961 . S
C4466 H4454 0.959 . S
C4466 C4464 1.561 . S
C4467 C4464 1.526 . S
C4467 C4468 1.396 . S
C4467 C4472 1.390 . S
C4468 C4462 1.465 . S
C4468 C4467 1.396 . S
C4468 C4469 1.399 . S
C4469 H4455 0.929 . S
C4469 C4468 1.399 . S
C4469 C4470 1.385 . S
C4470 H4456 0.931 . S
C4470 C4469 1.385 . S
C4470 C4471 1.389 . S
C4471 C4470 1.389 . S
C4471 C4472 1.387 . S
C4472 H4457 0.930 . S
C4472 C4467 1.390 . S
C4472 C4471 1.387 . S
H4473 C4485 0.930 . S
H4474 C4487 0.930 . S
H4475 C4488 0.930 . S
H4476 C4492 0.959 . S
H4477 C4492 0.959 . S
H4478 C4492 0.961 . S
H4479 C4493 0.960 . S
H4480 C4493 0.961 . S
H4481 C4493 0.959 . S
H4482 C4496 0.929 . S
H4483 C4497 0.931 . S
H4484 C4499 0.930 . S
C4485 H4473 0.930 . S
C4485 C4486 1.399 . S
C4485 C4490 1.399 . S
C4486 C4485 1.399 . S
C4486 C4487 1.376 . S
C4487 H4474 0.930 . S
C4487 C4486 1.376 . S
C4487 C4488 1.388 . S
C4488 H4475 0.930 . S
C4488 C4487 1.388 . S
C4488 C4489 1.390 . S
C4489 C4488 1.390 . S
C4489 C4490 1.394 . S
C4489 C4495 1.465 . S
C4490 C4485 1.399 . S
C4490 C4489 1.394 . S
C4490 C4491 1.516 . S
C4491 C4490 1.516 . S
C4491 C4492 1.502 . S
C4491 C4493 1.561 . S
C4491 C4494 1.526 . S
C4492 H4476 0.959 . S
C4492 H4477 0.959 . S
C4492 H4478 0.961 . S
C4492 C4491 1.502 . S
C4493 H4479 0.960 . S
C4493 H4480 0.961 . S
C4493 H4481 0.959 . S
C4493 C4491 1.561 . S
C4494 C4491 1.526 . S
C4494 C4495 1.396 . S
C4494 C4499 1.390 . S
C4495 C4489 1.465 . S
C4495 C4494 1.396 . S
C4495 C4496 1.399 . S
C4496 H4482 0.929 . S
C4496 C4495 1.399 . S
C4496 C4497 1.385 . S
C4497 H4483 0.931 . S
C4497 C4496 1.385 . S
C4497 C4498 1.389 . S
C4498 C4497 1.389 . S
C4498 C4499 1.387 . S
C4499 H4484 0.930 . S
C4499 C4494 1.390 . S
C4499 C4498 1.387 . S
H4500 C4512 0.930 . S
H4501 C4514 0.930 . S
H4502 C4515 0.930 . S
H4503 C4519 0.959 . S
H4504 C4519 0.959 . S
H4505 C4519 0.961 . S
H4506 C4520 0.960 . S
H4507 C4520 0.961 . S
H4508 C4520 0.959 . S
H4509 C4523 0.929 . S
H4510 C4524 0.931 . S
H4511 C4526 0.930 . S
C4512 H4500 0.930 . S
C4512 C4513 1.399 . S
C4512 C4517 1.399 . S
C4513 C4512 1.399 . S
C4513 C4514 1.376 . S
C4514 H4501 0.930 . S
C4514 C4513 1.376 . S
C4514 C4515 1.388 . S
C4515 H4502 0.930 . S
C4515 C4514 1.388 . S
C4515 C4516 1.390 . S
C4516 C4515 1.390 . S
C4516 C4517 1.394 . S
C4516 C4522 1.465 . S
C4517 C4512 1.399 . S
C4517 C4516 1.394 . S
C4517 C4518 1.516 . S
C4518 C4517 1.516 . S
C4518 C4519 1.502 . S
C4518 C4520 1.561 . S
C4518 C4521 1.526 . S
C4519 H4503 0.959 . S
C4519 H4504 0.959 . S
C4519 H4505 0.961 . S
C4519 C4518 1.502 . S
C4520 H4506 0.960 . S
C4520 H4507 0.961 . S
C4520 H4508 0.959 . S
C4520 C4518 1.561 . S
C4521 C4518 1.526 . S
C4521 C4522 1.396 . S
C4521 C4526 1.390 . S
C4522 C4516 1.465 . S
C4522 C4521 1.396 . S
C4522 C4523 1.399 . S
C4523 H4509 0.929 . S
C4523 C4522 1.399 . S
C4523 C4524 1.385 . S
C4524 H4510 0.931 . S
C4524 C4523 1.385 . S
C4524 C4525 1.389 . S
C4525 C4524 1.389 . S
C4525 C4526 1.387 . S
C4526 H4511 0.930 . S
C4526 C4521 1.390 . S
C4526 C4525 1.387 . S
H4527 C4539 0.930 . S
H4528 C4541 0.930 . S
H4529 C4542 0.930 . S
H4530 C4546 0.959 . S
H4531 C4546 0.959 . S
H4532 C4546 0.961 . S
H4533 C4547 0.960 . S
H4534 C4547 0.961 . S
H4535 C4547 0.959 . S
H4536 C4550 0.929 . S
H4537 C4551 0.931 . S
H4538 C4553 0.930 . S
C4539 H4527 0.930 . S
C4539 C4540 1.399 . S
C4539 C4544 1.399 . S
C4540 C4539 1.399 . S
C4540 C4541 1.376 . S
C4541 H4528 0.930 . S
C4541 C4540 1.376 . S
C4541 C4542 1.388 . S
C4542 H4529 0.930 . S
C4542 C4541 1.388 . S
C4542 C4543 1.390 . S
C4543 C4542 1.390 . S
C4543 C4544 1.394 . S
C4543 C4549 1.465 . S
C4544 C4539 1.399 . S
C4544 C4543 1.394 . S
C4544 C4545 1.516 . S
C4545 C4544 1.516 . S
C4545 C4546 1.502 . S
C4545 C4547 1.561 . S
C4545 C4548 1.526 . S
C4546 H4530 0.959 . S
C4546 H4531 0.959 . S
C4546 H4532 0.961 . S
C4546 C4545 1.502 . S
C4547 H4533 0.960 . S
C4547 H4534 0.961 . S
C4547 H4535 0.959 . S
C4547 C4545 1.561 . S
C4548 C4545 1.526 . S
C4548 C4549 1.396 . S
C4548 C4553 1.390 . S
C4549 C4543 1.465 . S
C4549 C4548 1.396 . S
C4549 C4550 1.399 . S
C4550 H4536 0.929 . S
C4550 C4549 1.399 . S
C4550 C4551 1.385 . S
C4551 H4537 0.931 . S
C4551 C4550 1.385 . S
C4551 C4552 1.389 . S
C4552 C4551 1.389 . S
C4552 C4553 1.387 . S
C4553 H4538 0.930 . S
C4553 C4548 1.390 . S
C4553 C4552 1.387 . S
H4554 C4566 0.930 . S
H4555 C4568 0.930 . S
H4556 C4569 0.930 . S
H4557 C4573 0.959 . S
H4558 C4573 0.959 . S
H4559 C4573 0.961 . S
H4560 C4574 0.960 . S
H4561 C4574 0.961 . S
H4562 C4574 0.959 . S
H4563 C4577 0.929 . S
H4564 C4578 0.931 . S
H4565 C4580 0.930 . S
C4566 H4554 0.930 . S
C4566 C4567 1.399 . S
C4566 C4571 1.399 . S
C4567 C4566 1.399 . S
C4567 C4568 1.376 . S
C4568 H4555 0.930 . S
C4568 C4567 1.376 . S
C4568 C4569 1.388 . S
C4569 H4556 0.930 . S
C4569 C4568 1.388 . S
C4569 C4570 1.390 . S
C4570 C4569 1.390 . S
C4570 C4571 1.394 . S
C4570 C4576 1.465 . S
C4571 C4566 1.399 . S
C4571 C4570 1.394 . S
C4571 C4572 1.516 . S
C4572 C4571 1.516 . S
C4572 C4573 1.502 . S
C4572 C4574 1.561 . S
C4572 C4575 1.526 . S
C4573 H4557 0.959 . S
C4573 H4558 0.959 . S
C4573 H4559 0.961 . S
C4573 C4572 1.502 . S
C4574 H4560 0.960 . S
C4574 H4561 0.961 . S
C4574 H4562 0.959 . S
C4574 C4572 1.561 . S
C4575 C4572 1.526 . S
C4575 C4576 1.396 . S
C4575 C4580 1.390 . S
C4576 C4570 1.465 . S
C4576 C4575 1.396 . S
C4576 C4577 1.399 . S
C4577 H4563 0.929 . S
C4577 C4576 1.399 . S
C4577 C4578 1.385 . S
C4578 H4564 0.931 . S
C4578 C4577 1.385 . S
C4578 C4579 1.389 . S
C4579 C4578 1.389 . S
C4579 C4580 1.387 . S
C4580 H4565 0.930 . S
C4580 C4575 1.390 . S
C4580 C4579 1.387 . S
H4581 C4593 0.930 . S
H4582 C4595 0.930 . S
H4583 C4596 0.930 . S
H4584 C4600 0.959 . S
H4585 C4600 0.959 . S
H4586 C4600 0.961 . S
H4587 C4601 0.960 . S
H4588 C4601 0.961 . S
H4589 C4601 0.959 . S
H4590 C4604 0.929 . S
H4591 C4605 0.931 . S
H4592 C4607 0.930 . S
C4593 H4581 0.930 . S
C4593 C4594 1.399 . S
C4593 C4598 1.399 . S
C4594 C4593 1.399 . S
C4594 C4595 1.376 . S
C4595 H4582 0.930 . S
C4595 C4594 1.376 . S
C4595 C4596 1.388 . S
C4596 H4583 0.930 . S
C4596 C4595 1.388 . S
C4596 C4597 1.390 . S
C4597 C4596 1.390 . S
C4597 C4598 1.394 . S
C4597 C4603 1.465 . S
C4598 C4593 1.399 . S
C4598 C4597 1.394 . S
C4598 C4599 1.516 . S
C4599 C4598 1.516 . S
C4599 C4600 1.502 . S
C4599 C4601 1.561 . S
C4599 C4602 1.526 . S
C4600 H4584 0.959 . S
C4600 H4585 0.959 . S
C4600 H4586 0.961 . S
C4600 C4599 1.502 . S
C4601 H4587 0.960 . S
C4601 H4588 0.961 . S
C4601 H4589 0.959 . S
C4601 C4599 1.561 . S
C4602 C4599 1.526 . S
C4602 C4603 1.396 . S
C4602 C4607 1.390 . S
C4603 C4597 1.465 . S
C4603 C4602 1.396 . S
C4603 C4604 1.399 . S
C4604 H4590 0.929 . S
C4604 C4603 1.399 . S
C4604 C4605 1.385 . S
C4605 H4591 0.931 . S
C4605 C4604 1.385 . S
C4605 C4606 1.389 . S
C4606 C4605 1.389 . S
C4606 C4607 1.387 . S
C4607 H4592 0.930 . S
C4607 C4602 1.390 . S
C4607 C4606 1.387 . S
H4608 C4620 0.930 . S
H4609 C4622 0.930 . S
H4610 C4623 0.930 . S
H4611 C4627 0.959 . S
H4612 C4627 0.959 . S
H4613 C4627 0.961 . S
H4614 C4628 0.960 . S
H4615 C4628 0.961 . S
H4616 C4628 0.959 . S
H4617 C4631 0.929 . S
H4618 C4632 0.931 . S
H4619 C4634 0.930 . S
C4620 H4608 0.930 . S
C4620 C4621 1.399 . S
C4620 C4625 1.399 . S
C4621 C4620 1.399 . S
C4621 C4622 1.376 . S
C4622 H4609 0.930 . S
C4622 C4621 1.376 . S
C4622 C4623 1.388 . S
C4623 H4610 0.930 . S
C4623 C4622 1.388 . S
C4623 C4624 1.390 . S
C4624 C4623 1.390 . S
C4624 C4625 1.394 . S
C4624 C4630 1.465 . S
C4625 C4620 1.399 . S
C4625 C4624 1.394 . S
C4625 C4626 1.516 . S
C4626 C4625 1.516 . S
C4626 C4627 1.502 . S
C4626 C4628 1.561 . S
C4626 C4629 1.526 . S
C4627 H4611 0.959 . S
C4627 H4612 0.959 . S
C4627 H4613 0.961 . S
C4627 C4626 1.502 . S
C4628 H4614 0.960 . S
C4628 H4615 0.961 . S
C4628 H4616 0.959 . S
C4628 C4626 1.561 . S
C4629 C4626 1.526 . S
C4629 C4630 1.396 . S
C4629 C4634 1.390 . S
C4630 C4624 1.465 . S
C4630 C4629 1.396 . S
C4630 C4631 1.399 . S
C4631 H4617 0.929 . S
C4631 C4630 1.399 . S
C4631 C4632 1.385 . S
C4632 H4618 0.931 . S
C4632 C4631 1.385 . S
C4632 C4633 1.389 . S
C4633 C4632 1.389 . S
C4633 C4634 1.387 . S
C4634 H4619 0.930 . S
C4634 C4629 1.390 . S
C4634 C4633 1.387 . S
H4635 C4647 0.930 . S
H4636 C4649 0.930 . S
H4637 C4650 0.930 . S
H4638 C4654 0.959 . S
H4639 C4654 0.959 . S
H4640 C4654 0.961 . S
H4641 C4655 0.960 . S
H4642 C4655 0.961 . S
H4643 C4655 0.959 . S
H4644 C4658 0.929 . S
H4645 C4659 0.931 . S
H4646 C4661 0.930 . S
C4647 H4635 0.930 . S
C4647 C4648 1.399 . S
C4647 C4652 1.399 . S
C4648 C4647 1.399 . S
C4648 C4649 1.376 . S
C4649 H4636 0.930 . S
C4649 C4648 1.376 . S
C4649 C4650 1.388 . S
C4650 H4637 0.930 . S
C4650 C4649 1.388 . S
C4650 C4651 1.390 . S
C4651 C4650 1.390 . S
C4651 C4652 1.394 . S
C4651 C4657 1.465 . S
C4652 C4647 1.399 . S
C4652 C4651 1.394 . S
C4652 C4653 1.516 . S
C4653 C4652 1.516 . S
C4653 C4654 1.502 . S
C4653 C4655 1.561 . S
C4653 C4656 1.526 . S
C4654 H4638 0.959 . S
C4654 H4639 0.959 . S
C4654 H4640 0.961 . S
C4654 C4653 1.502 . S
C4655 H4641 0.960 . S
C4655 H4642 0.961 . S
C4655 H4643 0.959 . S
C4655 C4653 1.561 . S
C4656 C4653 1.526 . S
C4656 C4657 1.396 . S
C4656 C4661 1.390 . S
C4657 C4651 1.465 . S
C4657 C4656 1.396 . S
C4657 C4658 1.399 . S
C4658 H4644 0.929 . S
C4658 C4657 1.399 . S
C4658 C4659 1.385 . S
C4659 H4645 0.931 . S
C4659 C4658 1.385 . S
C4659 C4660 1.389 . S
C4660 C4659 1.389 . S
C4660 C4661 1.387 . S
C4661 H4646 0.930 . S
C4661 C4656 1.390 . S
C4661 C4660 1.387 . S
H4662 C4674 0.930 . S
H4663 C4676 0.930 . S
H4664 C4677 0.930 . S
H4665 C4681 0.959 . S
H4666 C4681 0.959 . S
H4667 C4681 0.961 . S
H4668 C4682 0.960 . S
H4669 C4682 0.961 . S
H4670 C4682 0.959 . S
H4671 C4685 0.929 . S
H4672 C4686 0.931 . S
H4673 C4688 0.930 . S
C4674 H4662 0.930 . S
C4674 C4675 1.399 . S
C4674 C4679 1.399 . S
C4675 C4674 1.399 . S
C4675 C4676 1.376 . S
C4676 H4663 0.930 . S
C4676 C4675 1.376 . S
C4676 C4677 1.388 . S
C4677 H4664 0.930 . S
C4677 C4676 1.388 . S
C4677 C4678 1.390 . S
C4678 C4677 1.390 . S
C4678 C4679 1.394 . S
C4678 C4684 1.465 . S
C4679 C4674 1.399 . S
C4679 C4678 1.394 . S
C4679 C4680 1.516 . S
C4680 C4679 1.516 . S
C4680 C4681 1.502 . S
C4680 C4682 1.561 . S
C4680 C4683 1.526 . S
C4681 H4665 0.959 . S
C4681 H4666 0.959 . S
C4681 H4667 0.961 . S
C4681 C4680 1.502 . S
C4682 H4668 0.960 . S
C4682 H4669 0.961 . S
C4682 H4670 0.959 . S
C4682 C4680 1.561 . S
C4683 C4680 1.526 . S
C4683 C4684 1.396 . S
C4683 C4688 1.390 . S
C4684 C4678 1.465 . S
C4684 C4683 1.396 . S
C4684 C4685 1.399 . S
C4685 H4671 0.929 . S
C4685 C4684 1.399 . S
C4685 C4686 1.385 . S
C4686 H4672 0.931 . S
C4686 C4685 1.385 . S
C4686 C4687 1.389 . S
C4687 C4686 1.389 . S
C4687 C4688 1.387 . S
C4688 H4673 0.930 . S
C4688 C4683 1.390 . S
C4688 C4687 1.387 . S
H4689 C4701 0.930 . S
H4690 C4703 0.930 . S
H4691 C4704 0.930 . S
H4692 C4708 0.959 . S
H4693 C4708 0.959 . S
H4694 C4708 0.961 . S
H4695 C4709 0.960 . S
H4696 C4709 0.961 . S
H4697 C4709 0.959 . S
H4698 C4712 0.929 . S
H4699 C4713 0.931 . S
H4700 C4715 0.930 . S
C4701 H4689 0.930 . S
C4701 C4702 1.399 . S
C4701 C4706 1.399 . S
C4702 C4701 1.399 . S
C4702 C4703 1.376 . S
C4703 H4690 0.930 . S
C4703 C4702 1.376 . S
C4703 C4704 1.388 . S
C4704 H4691 0.930 . S
C4704 C4703 1.388 . S
C4704 C4705 1.390 . S
C4705 C4704 1.390 . S
C4705 C4706 1.394 . S
C4705 C4711 1.465 . S
C4706 C4701 1.399 . S
C4706 C4705 1.394 . S
C4706 C4707 1.516 . S
C4707 C4706 1.516 . S
C4707 C4708 1.502 . S
C4707 C4709 1.561 . S
C4707 C4710 1.526 . S
C4708 H4692 0.959 . S
C4708 H4693 0.959 . S
C4708 H4694 0.961 . S
C4708 C4707 1.502 . S
C4709 H4695 0.960 . S
C4709 H4696 0.961 . S
C4709 H4697 0.959 . S
C4709 C4707 1.561 . S
C4710 C4707 1.526 . S
C4710 C4711 1.396 . S
C4710 C4715 1.390 . S
C4711 C4705 1.465 . S
C4711 C4710 1.396 . S
C4711 C4712 1.399 . S
C4712 H4698 0.929 . S
C4712 C4711 1.399 . S
C4712 C4713 1.385 . S
C4713 H4699 0.931 . S
C4713 C4712 1.385 . S
C4713 C4714 1.389 . S
C4714 C4713 1.389 . S
C4714 C4715 1.387 . S
C4715 H4700 0.930 . S
C4715 C4710 1.390 . S
C4715 C4714 1.387 . S
H4716 C4728 0.930 . S
H4717 C4730 0.930 . S
H4718 C4731 0.930 . S
H4719 C4735 0.959 . S
H4720 C4735 0.959 . S
H4721 C4735 0.961 . S
H4722 C4736 0.960 . S
H4723 C4736 0.961 . S
H4724 C4736 0.959 . S
H4725 C4739 0.929 . S
H4726 C4740 0.931 . S
H4727 C4742 0.930 . S
C4728 H4716 0.930 . S
C4728 C4729 1.399 . S
C4728 C4733 1.399 . S
C4729 C4728 1.399 . S
C4729 C4730 1.376 . S
C4730 H4717 0.930 . S
C4730 C4729 1.376 . S
C4730 C4731 1.388 . S
C4731 H4718 0.930 . S
C4731 C4730 1.388 . S
C4731 C4732 1.390 . S
C4732 C4731 1.390 . S
C4732 C4733 1.394 . S
C4732 C4738 1.465 . S
C4733 C4728 1.399 . S
C4733 C4732 1.394 . S
C4733 C4734 1.516 . S
C4734 C4733 1.516 . S
C4734 C4735 1.502 . S
C4734 C4736 1.561 . S
C4734 C4737 1.526 . S
C4735 H4719 0.959 . S
C4735 H4720 0.959 . S
C4735 H4721 0.961 . S
C4735 C4734 1.502 . S
C4736 H4722 0.960 . S
C4736 H4723 0.961 . S
C4736 H4724 0.959 . S
C4736 C4734 1.561 . S
C4737 C4734 1.526 . S
C4737 C4738 1.396 . S
C4737 C4742 1.390 . S
C4738 C4732 1.465 . S
C4738 C4737 1.396 . S
C4738 C4739 1.399 . S
C4739 H4725 0.929 . S
C4739 C4738 1.399 . S
C4739 C4740 1.385 . S
C4740 H4726 0.931 . S
C4740 C4739 1.385 . S
C4740 C4741 1.389 . S
C4741 C4740 1.389 . S
C4741 C4742 1.387 . S
C4742 H4727 0.930 . S
C4742 C4737 1.390 . S
C4742 C4741 1.387 . S
H4743 C4755 0.930 . S
H4744 C4757 0.930 . S
H4745 C4758 0.930 . S
H4746 C4762 0.959 . S
H4747 C4762 0.959 . S
H4748 C4762 0.961 . S
H4749 C4763 0.960 . S
H4750 C4763 0.961 . S
H4751 C4763 0.959 . S
H4752 C4766 0.929 . S
H4753 C4767 0.931 . S
H4754 C4769 0.930 . S
C4755 H4743 0.930 . S
C4755 C4756 1.399 . S
C4755 C4760 1.399 . S
C4756 C4755 1.399 . S
C4756 C4757 1.376 . S
C4757 H4744 0.930 . S
C4757 C4756 1.376 . S
C4757 C4758 1.388 . S
C4758 H4745 0.930 . S
C4758 C4757 1.388 . S
C4758 C4759 1.390 . S
C4759 C4758 1.390 . S
C4759 C4760 1.394 . S
C4759 C4765 1.465 . S
C4760 C4755 1.399 . S
C4760 C4759 1.394 . S
C4760 C4761 1.516 . S
C4761 C4760 1.516 . S
C4761 C4762 1.502 . S
C4761 C4763 1.561 . S
C4761 C4764 1.526 . S
C4762 H4746 0.959 . S
C4762 H4747 0.959 . S
C4762 H4748 0.961 . S
C4762 C4761 1.502 . S
C4763 H4749 0.960 . S
C4763 H4750 0.961 . S
C4763 H4751 0.959 . S
C4763 C4761 1.561 . S
C4764 C4761 1.526 . S
C4764 C4765 1.396 . S
C4764 C4769 1.390 . S
C4765 C4759 1.465 . S
C4765 C4764 1.396 . S
C4765 C4766 1.399 . S
C4766 H4752 0.929 . S
C4766 C4765 1.399 . S
C4766 C4767 1.385 . S
C4767 H4753 0.931 . S
C4767 C4766 1.385 . S
C4767 C4768 1.389 . S
C4768 C4767 1.389 . S
C4768 C4769 1.387 . S
C4769 H4754 0.930 . S
C4769 C4764 1.390 . S
C4769 C4768 1.387 . S
H4770 C4782 0.930 . S
H4771 C4784 0.930 . S
H4772 C4785 0.930 . S
H4773 C4789 0.959 . S
H4774 C4789 0.959 . S
H4775 C4789 0.961 . S
H4776 C4790 0.960 . S
H4777 C4790 0.961 . S
H4778 C4790 0.959 . S
H4779 C4793 0.929 . S
H4780 C4794 0.931 . S
H4781 C4796 0.930 . S
C4782 H4770 0.930 . S
C4782 C4783 1.399 . S
C4782 C4787 1.399 . S
C4783 C4782 1.399 . S
C4783 C4784 1.376 . S
C4784 H4771 0.930 . S
C4784 C4783 1.376 . S
C4784 C4785 1.388 . S
C4785 H4772 0.930 . S
C4785 C4784 1.388 . S
C4785 C4786 1.390 . S
C4786 C4785 1.390 . S
C4786 C4787 1.394 . S
C4786 C4792 1.465 . S
C4787 C4782 1.399 . S
C4787 C4786 1.394 . S
C4787 C4788 1.516 . S
C4788 C4787 1.516 . S
C4788 C4789 1.502 . S
C4788 C4790 1.561 . S
C4788 C4791 1.526 . S
C4789 H4773 0.959 . S
C4789 H4774 0.959 . S
C4789 H4775 0.961 . S
C4789 C4788 1.502 . S
C4790 H4776 0.960 . S
C4790 H4777 0.961 . S
C4790 H4778 0.959 . S
C4790 C4788 1.561 . S
C4791 C4788 1.526 . S
C4791 C4792 1.396 . S
C4791 C4796 1.390 . S
C4792 C4786 1.465 . S
C4792 C4791 1.396 . S
C4792 C4793 1.399 . S
C4793 H4779 0.929 . S
C4793 C4792 1.399 . S
C4793 C4794 1.385 . S
C4794 H4780 0.931 . S
C4794 C4793 1.385 . S
C4794 C4795 1.389 . S
C4795 C4794 1.389 . S
C4795 C4796 1.387 . S
C4796 H4781 0.930 . S
C4796 C4791 1.390 . S
C4796 C4795 1.387 . S
H4797 C4809 0.930 . S
H4798 C4811 0.930 . S
H4799 C4812 0.930 . S
H4800 C4816 0.959 . S
H4801 C4816 0.959 . S
H4802 C4816 0.961 . S
H4803 C4817 0.960 . S
H4804 C4817 0.961 . S
H4805 C4817 0.959 . S
H4806 C4820 0.929 . S
H4807 C4821 0.931 . S
H4808 C4823 0.930 . S
C4809 H4797 0.930 . S
C4809 C4810 1.399 . S
C4809 C4814 1.399 . S
C4810 C4809 1.399 . S
C4810 C4811 1.376 . S
C4811 H4798 0.930 . S
C4811 C4810 1.376 . S
C4811 C4812 1.388 . S
C4812 H4799 0.930 . S
C4812 C4811 1.388 . S
C4812 C4813 1.390 . S
C4813 C4812 1.390 . S
C4813 C4814 1.394 . S
C4813 C4819 1.465 . S
C4814 C4809 1.399 . S
C4814 C4813 1.394 . S
C4814 C4815 1.516 . S
C4815 C4814 1.516 . S
C4815 C4816 1.502 . S
C4815 C4817 1.561 . S
C4815 C4818 1.526 . S
C4816 H4800 0.959 . S
C4816 H4801 0.959 . S
C4816 H4802 0.961 . S
C4816 C4815 1.502 . S
C4817 H4803 0.960 . S
C4817 H4804 0.961 . S
C4817 H4805 0.959 . S
C4817 C4815 1.561 . S
C4818 C4815 1.526 . S
C4818 C4819 1.396 . S
C4818 C4823 1.390 . S
C4819 C4813 1.465 . S
C4819 C4818 1.396 . S
C4819 C4820 1.399 . S
C4820 H4806 0.929 . S
C4820 C4819 1.399 . S
C4820 C4821 1.385 . S
C4821 H4807 0.931 . S
C4821 C4820 1.385 . S
C4821 C4822 1.389 . S
C4822 C4821 1.389 . S
C4822 C4823 1.387 . S
C4823 H4808 0.930 . S
C4823 C4818 1.390 . S
C4823 C4822 1.387 . S
C1597 C1044 1.233 . S
C1609 C21 1.186 . S
C1624 C54 1.263 . S
C1636 C945 1.293 . S
C1651 C87 1.290 . S
C1663 C978 1.236 . S
C1678 C1011 1.287 . S
C1690 C120 1.230 . S
C1705 C846 1.193 . S
C1717 C153 1.199 . S
C1732 C879 1.273 . S
C1744 C186 1.209 . S
C1759 C219 1.281 . S
C1771 C912 1.219 . S
C1786 C252 1.225 . S
C1798 C813 1.284 . S
C1813 C285 1.185 . S
C1825 C1473 1.230 . S
C1840 C318 1.287 . S
C1852 C1374 1.279 . S
C1867 C351 1.188 . S
C1879 C1407 1.207 . S
C1894 C384 1.279 . S
C1906 C1440 1.217 . S
C1921 C1572 1.195 . S
C1933 C417 1.197 . S
C1948 C450 1.284 . S
C1960 C1506 1.223 . S
C1975 C483 1.224 . S
C1987 C1539 1.284 . S
C2002 C1341 1.200 . S
C2014 C516 1.193 . S
C2029 C549 1.202 . S
C2041 C1308 1.191 . S
C2056 C1110 1.187 . S
C2068 C582 1.241 . S
C2083 C1143 1.187 . S
C2095 C615 1.210 . S
C2110 C1176 1.188 . S
C2122 C648 1.207 . S
C2137 C681 1.290 . S
C2149 C1077 1.274 . S
C2164 C714 1.284 . S
C2176 C1242 1.282 . S
C2191 C1275 1.238 . S
C2203 C747 1.290 . S
C2218 C780 1.293 . S
C2230 C1209 1.249 . S
C2245 C73 1.077 . S
C2257 C7 1.076 . S
C2272 C40 1.087 . S
C2284 C106 1.090 . S
C2299 C205 1.087 . S
C2311 C139 1.090 . S
C2326 C238 1.080 . S
C2338 C172 1.076 . S
C2353 C271 1.090 . S
C2365 C403 1.089 . S
C2380 C436 1.078 . S
C2392 C304 1.076 . S
C2407 C469 1.076 . S
C2419 C337 1.080 . S
C2434 C502 1.087 . S
C2446 C370 1.090 . S
C2461 C634 1.081 . S
C2473 C535 1.077 . S
C2488 C568 1.079 . S
C2500 C700 1.076 . S
C2515 C601 1.090 . S
C2527 C733 1.085 . S
C2542 C667 1.089 . S
C2554 C766 1.084 . S
C2569 C865 1.086 . S
C2581 C799 1.090 . S
C2596 C898 1.076 . S
C2608 C832 1.079 . S
C2623 C997 1.078 . S
C2635 C931 1.076 . S
C2650 C1030 1.087 . S
C2662 C964 1.090 . S
C2677 C1063 1.090 . S
C2689 C1195 1.087 . S
C2704 C1096 1.086 . S
C2716 C1228 1.090 . S
C2731 C1261 1.090 . S
C2743 C1129 1.089 . S
C2758 C1294 1.079 . S
C2770 C1162 1.076 . S
C2785 C1327 1.085 . S
C2797 C1426 1.089 . S
C2812 C1492 1.079 . S
C2824 C1360 1.076 . S
C2839 C1525 1.076 . S
C2851 C1393 1.078 . S
C2866 C1558 1.084 . S
C2878 C1459 1.078 . S
C2893 N739 0.833 . S
C2905 N13 0.703 . S
C2920 N46 0.783 . S
C2932 N541 0.598 . S
C2947 N79 0.670 . S
C2959 N772 0.839 . S
C2974 N112 0.703 . S
C2986 N706 0.644 . S
C3001 N145 0.624 . S
C3013 N607 0.837 . S
C3028 N640 0.793 . S
C3040 N178 0.596 . S
C3055 N211 0.619 . S
C3067 N673 0.835 . S
C3082 N244 0.670 . S
C3094 N574 0.839 . S
C3109 N277 0.634 . S
C3121 N442 0.713 . S
C3136 N475 0.811 . S
C3148 N310 0.744 . S
C3163 N508 0.612 . S
C3175 N343 0.832 . S
C3190 N409 0.831 . S
C3202 N376 0.706 . S
C3217 N805 0.602 . S
C3229 N1531 0.824 . S
C3244 N1333 0.735 . S
C3256 N838 0.620 . S
C3271 N1564 0.839 . S
C3283 N871 0.683 . S
C3298 N904 0.729 . S
C3310 N1498 0.819 . S
C3325 N1399 0.789 . S
C3337 N937 0.773 . S
C3352 N1432 0.731 . S
C3364 N970 0.818 . S
C3379 N1465 0.656 . S
C3391 N1003 0.688 . S
C3406 N1036 0.753 . S
C3418 N1366 0.804 . S
C3433 N1069 0.809 . S
C3445 N1234 0.748 . S
C3460 N1102 0.777 . S
C3472 N1267 0.784 . S
C3487 N1300 0.834 . S
C3499 N1135 0.613 . S
C3514 N1201 0.665 . S
C3526 N1168 0.678 . S
C3541 C18 2.086 . S
C3553 N596 1.942 1_554 S
C3568 N629 1.957 1_554 S
C3580 C51 2.076 . S
C3595 C84 2.076 . S
C3607 N662 1.874 1_554 S
C3622 N563 1.872 1_554 S
C3634 C117 2.077 . S
C3649 C150 2.071 . S
C3661 N728 1.882 1_556 S
C3676 N530 1.868 1_556 S
C3688 C183 2.082 . S
C3703 N761 1.914 1_556 S
C3715 C216 2.092 . S
C3730 C249 2.090 . S
C3742 N695 1.880 1_556 S
C3757 N299 1.948 1_455 S
C3769 C282 2.067 . S
C3784 C315 2.074 . S
C3796 N332 1.877 1_545 S
C3811 C348 2.085 . S
C3823 N365 1.944 1_655 S
C3838 N266 1.893 1_565 S
C3850 C381 2.093 . S
C3865 C414 2.090 . S
C3877 N497 1.926 1_455 S
C3892 C447 2.084 . S
C3904 N398 1.946 1_545 S
C3919 C480 2.064 . S
C3931 N431 1.911 1_655 S
C3946 N464 1.932 1_565 S
C3958 C513 2.064 . S
C3973 N101 1.956 1_545 S
C3985 C546 2.078 . S
C4000 C579 2.093 . S
C4012 N167 1.908 1_565 S
C4027 N200 1.882 1_455 S
C4039 C612 2.091 . S
C4054 N233 1.943 1_545 S
C4066 C645 2.086 . S
C4081 C678 2.063 . S
C4093 N134 1.931 1_655 S
C4108 N35 1.954 1_565 S
C4120 C711 2.080 . S
C4135 C744 2.071 . S
C4147 N68 1.883 1_455 S
C4162 N2 1.896 1_655 S
C4174 C777 2.093 . S
C4189 C810 2.081 . S
C4201 N1388 1.951 . S
C4216 N1421 1.872 . S
C4228 C843 2.077 . S
C4243 C876 2.086 . S
C4255 N1454 1.871 . S
C4270 N1355 1.946 . S
C4282 C909 2.084 . S
C4297 C942 2.073 . S
C4309 N1520 1.878 . S
C4324 C975 2.088 . S
C4336 N1322 1.874 . S
C4351 C1008 2.083 . S
C4363 N1553 1.949 . S
C4378 N1487 1.872 . S
C4390 C1041 2.077 . S
C4405 C1074 2.072 . S
C4417 N1091 1.956 . S
C4432 N1124 1.934 . S
C4444 C1107 2.064 . S
C4459 N1157 1.902 . S
C4471 C1140 2.093 . S
C4486 C1173 2.082 . S
C4498 N1058 1.950 . S
C4513 C1206 2.080 . S
C4525 N1289 1.870 . S
C4540 C1239 2.078 . S
C4552 N1190 1.954 . S
C4567 C1272 2.083 . S
C4579 N1223 1.948 . S
C4594 C1305 2.066 . S
C4606 N1256 1.898 . S
C4621 C1338 2.092 . S
C4633 N893 1.888 . S
C4648 N959 1.928 . S
C4660 C1371 2.064 . S
C4675 N992 1.931 . S
C4687 C1404 2.064 . S
C4702 N1025 1.872 . S
C4714 C1437 2.088 . S
C4729 N926 1.953 . S
C4741 C1470 2.069 . S
C4756 N827 1.956 . S
C4768 C1503 2.077 . S
C4783 N860 1.940 . S
C4795 C1536 2.065 . S
C4810 N794 1.890 . S
C4822 C1569 2.092 . S
