# Generated by pormake.
# Topology whz, (6)-cn, num edge types: 1
# Building blocks:
#     Node 0, Type 0, BuildingBlock: BETDEL_clean_sbu_0, # of connection points: 6
#     Node 1, Type 0, BuildingBlock: BETDEL_clean_sbu_0, # of connection points: 6
#     Node 2, Type 0, BuildingBlock: BETDEL_clean_sbu_0, # of connection points: 6
#     Node 3, Type 0, BuildingBlock: BETDEL_clean_sbu_0, # of connection points: 6
#     Node 4, Type 0, BuildingBlock: BETDEL_clean_sbu_0, # of connection points: 6
#     Node 5, Type 0, BuildingBlock: BETDEL_clean_sbu_0, # of connection points: 6
#     Node 6, Type 0, BuildingBlock: BETDEL_clean_sbu_0, # of connection points: 6
#     Node 7, Type 0, BuildingBlock: BETDEL_clean_sbu_0, # of connection points: 6
#     Node 8, Type 0, BuildingBlock: BETDEL_clean_sbu_0, # of connection points: 6
#     Node 9, Type 0, BuildingBlock: BETDEL_clean_sbu_0, # of connection points: 6
#     Node 10, Type 0, BuildingBlock: BETDEL_clean_sbu_0, # of connection points: 6
#     Node 11, Type 0, BuildingBlock: BETDEL_clean_sbu_0, # of connection points: 6
#     Node 12, Type 0, BuildingBlock: BETDEL_clean_sbu_0, # of connection points: 6
#     Node 13, Type 0, BuildingBlock: BETDEL_clean_sbu_0, # of connection points: 6
#     Node 14, Type 0, BuildingBlock: BETDEL_clean_sbu_0, # of connection points: 6
#     Node 15, Type 0, BuildingBlock: BETDEL_clean_sbu_0, # of connection points: 6
#     Edge 16, Type (0, 0), BuildingBlock: MIFKUJ_clean_linker_0, # of connection points: 2
#     Edge 17, Type (0, 0), BuildingBlock: MIFKUJ_clean_linker_0, # of connection points: 2
#     Edge 18, Type (0, 0), BuildingBlock: MIFKUJ_clean_linker_0, # of connection points: 2
#     Edge 19, Type (0, 0), BuildingBlock: MIFKUJ_clean_linker_0, # of connection points: 2
#     Edge 20, Type (0, 0), BuildingBlock: MIFKUJ_clean_linker_0, # of connection points: 2
#     Edge 21, Type (0, 0), BuildingBlock: MIFKUJ_clean_linker_0, # of connection points: 2
#     Edge 22, Type (0, 0), BuildingBlock: MIFKUJ_clean_linker_0, # of connection points: 2
#     Edge 23, Type (0, 0), BuildingBlock: MIFKUJ_clean_linker_0, # of connection points: 2
#     Edge 24, Type (0, 0), BuildingBlock: MIFKUJ_clean_linker_0, # of connection points: 2
#     Edge 25, Type (0, 0), BuildingBlock: MIFKUJ_clean_linker_0, # of connection points: 2
#     Edge 26, Type (0, 0), BuildingBlock: MIFKUJ_clean_linker_0, # of connection points: 2
#     Edge 27, Type (0, 0), BuildingBlock: MIFKUJ_clean_linker_0, # of connection points: 2
#     Edge 28, Type (0, 0), BuildingBlock: MIFKUJ_clean_linker_0, # of connection points: 2
#     Edge 29, Type (0, 0), BuildingBlock: MIFKUJ_clean_linker_0, # of connection points: 2
#     Edge 30, Type (0, 0), BuildingBlock: MIFKUJ_clean_linker_0, # of connection points: 2
#     Edge 31, Type (0, 0), BuildingBlock: MIFKUJ_clean_linker_0, # of connection points: 2
#     Edge 32, Type (0, 0), BuildingBlock: MIFKUJ_clean_linker_0, # of connection points: 2
#     Edge 33, Type (0, 0), BuildingBlock: MIFKUJ_clean_linker_0, # of connection points: 2
#     Edge 34, Type (0, 0), BuildingBlock: MIFKUJ_clean_linker_0, # of connection points: 2
#     Edge 35, Type (0, 0), BuildingBlock: MIFKUJ_clean_linker_0, # of connection points: 2
#     Edge 36, Type (0, 0), BuildingBlock: MIFKUJ_clean_linker_0, # of connection points: 2
#     Edge 37, Type (0, 0), BuildingBlock: MIFKUJ_clean_linker_0, # of connection points: 2
#     Edge 38, Type (0, 0), BuildingBlock: MIFKUJ_clean_linker_0, # of connection points: 2
#     Edge 39, Type (0, 0), BuildingBlock: MIFKUJ_clean_linker_0, # of connection points: 2
#     Edge 40, Type (0, 0), BuildingBlock: MIFKUJ_clean_linker_0, # of connection points: 2
#     Edge 41, Type (0, 0), BuildingBlock: MIFKUJ_clean_linker_0, # of connection points: 2
#     Edge 42, Type (0, 0), BuildingBlock: MIFKUJ_clean_linker_0, # of connection points: 2
#     Edge 43, Type (0, 0), BuildingBlock: MIFKUJ_clean_linker_0, # of connection points: 2
#     Edge 44, Type (0, 0), BuildingBlock: MIFKUJ_clean_linker_0, # of connection points: 2
#     Edge 45, Type (0, 0), BuildingBlock: MIFKUJ_clean_linker_0, # of connection points: 2
#     Edge 46, Type (0, 0), BuildingBlock: MIFKUJ_clean_linker_0, # of connection points: 2
#     Edge 47, Type (0, 0), BuildingBlock: MIFKUJ_clean_linker_0, # of connection points: 2
#     Edge 48, Type (0, 0), BuildingBlock: MIFKUJ_clean_linker_0, # of connection points: 2
#     Edge 49, Type (0, 0), BuildingBlock: MIFKUJ_clean_linker_0, # of connection points: 2
#     Edge 50, Type (0, 0), BuildingBlock: MIFKUJ_clean_linker_0, # of connection points: 2
#     Edge 51, Type (0, 0), BuildingBlock: MIFKUJ_clean_linker_0, # of connection points: 2
#     Edge 52, Type (0, 0), BuildingBlock: MIFKUJ_clean_linker_0, # of connection points: 2
#     Edge 53, Type (0, 0), BuildingBlock: MIFKUJ_clean_linker_0, # of connection points: 2
#     Edge 54, Type (0, 0), BuildingBlock: MIFKUJ_clean_linker_0, # of connection points: 2
#     Edge 55, Type (0, 0), BuildingBlock: MIFKUJ_clean_linker_0, # of connection points: 2
#     Edge 56, Type (0, 0), BuildingBlock: MIFKUJ_clean_linker_0, # of connection points: 2
#     Edge 57, Type (0, 0), BuildingBlock: MIFKUJ_clean_linker_0, # of connection points: 2
#     Edge 58, Type (0, 0), BuildingBlock: MIFKUJ_clean_linker_0, # of connection points: 2
#     Edge 59, Type (0, 0), BuildingBlock: MIFKUJ_clean_linker_0, # of connection points: 2
#     Edge 60, Type (0, 0), BuildingBlock: MIFKUJ_clean_linker_0, # of connection points: 2
#     Edge 61, Type (0, 0), BuildingBlock: MIFKUJ_clean_linker_0, # of connection points: 2
#     Edge 62, Type (0, 0), BuildingBlock: MIFKUJ_clean_linker_0, # of connection points: 2
#     Edge 63, Type (0, 0), BuildingBlock: MIFKUJ_clean_linker_0, # of connection points: 2
# Relax obj value: 0.443
# Max RMSD: 0.270
# Mean RMSD: 0.270
data_MOF--net-whz--node1-BETDEL_clean_sbu_0--edge1-MIFKUJ_clean_linker_0
_symmetry_space_group_name_H-M    P1
_symmetry_Int_Tables_number       1
_symmetry_cell_setting            triclinic
loop_
_symmetry_equiv_pos_as_xyz
'x, y, z'
_cell_length_a     44.437861
_cell_length_b     44.539476
_cell_length_c     71.440293
_cell_angle_alpha  90.142104
_cell_angle_beta   89.942068
_cell_angle_gamma 89.914007
loop_
_atom_site_label
_atom_site_type_symbol
_atom_site_fract_x
_atom_site_fract_y
_atom_site_fract_z
_atom_type_partial_charge
Dy0 Dy 0.30158 0.1749 0.13766 0.0
C1 C 0.28444 0.13837 0.06134 0.0
C2 C 0.31358 0.19243 0.17328 0.0
Dy3 Dy 0.30133 0.15041 0.09846 0.0
O4 O 0.30938 0.21043 0.1593 0.0
O5 O 0.31089 0.1647 0.16788 0.0
O6 O 0.26091 0.20148 0.13217 0.0
O7 O 0.2925 0.19625 0.11027 0.0
C8 C 0.26705 0.20763 0.11487 0.0
C9 C 0.32869 0.11588 0.12529 0.0
O10 O 0.34511 0.17665 0.09648 0.0
O11 O 0.34946 0.18393 0.12843 0.0
O12 O 0.29048 0.11845 0.07414 0.0
O13 O 0.28853 0.16472 0.06879 0.0
O14 O 0.33824 0.11702 0.10801 0.0
O15 O 0.30499 0.13078 0.1263 0.0
O16 O 0.26154 0.14511 0.14085 0.0
O17 O 0.25395 0.13898 0.10898 0.0
C18 C 0.36072 0.18613 0.11127 0.0
C19 C 0.24465 0.13593 0.12666 0.0
Dy20 Dy 0.58734 0.55926 0.3842 0.0
C21 C 0.62503 0.53535 0.30894 0.0
C22 C 0.57265 0.56626 0.42083 0.0
Dy23 Dy 0.61493 0.55016 0.34647 0.0
O24 O 0.55399 0.56832 0.40699 0.0
O25 O 0.59941 0.56001 0.41472 0.0
O26 O 0.54187 0.55699 0.37122 0.0
O27 O 0.57563 0.52934 0.36064 0.0
C28 C 0.54805 0.53634 0.35905 0.0
C29 C 0.65268 0.56934 0.37447 0.0
O30 O 0.58819 0.59452 0.34291 0.0
O31 O 0.58591 0.60657 0.37432 0.0
O32 O 0.64156 0.5535 0.31897 0.0
O33 O 0.60288 0.52628 0.31935 0.0
O34 O 0.66083 0.55077 0.36126 0.0
O35 O 0.62631 0.57785 0.37096 0.0
O36 O 0.61225 0.51554 0.38909 0.0
O37 O 0.62323 0.50406 0.35815 0.0
C38 C 0.58185 0.61416 0.35662 0.0
C39 C 0.6229 0.49692 0.37614 0.0
Dy40 Dy 0.21764 0.83899 0.63622 0.0
C41 C 0.23438 0.87719 0.56065 0.0
C42 C 0.20692 0.82302 0.67228 0.0
Dy43 Dy 0.21579 0.86529 0.5975 0.0
O44 O 0.21776 0.80542 0.65943 0.0
O45 O 0.20211 0.8496 0.6655 0.0
O46 O 0.2568 0.81145 0.62829 0.0
O47 O 0.2229 0.81856 0.60814 0.0
C48 C 0.24821 0.80575 0.61132 0.0
C49 C 0.19118 0.89946 0.62566 0.0
O50 O 0.17337 0.83679 0.59548 0.0
O51 O 0.17021 0.82708 0.62725 0.0
O52 O 0.21112 0.88914 0.56907 0.0
O53 O 0.24693 0.85878 0.57238 0.0
O54 O 0.18111 0.89994 0.6085 0.0
O55 O 0.21439 0.8837 0.62582 0.0
O56 O 0.25902 0.86705 0.6392 0.0
O57 O 0.26205 0.88086 0.60795 0.0
C58 C 0.15852 0.82574 0.61016 0.0
C59 C 0.27367 0.87994 0.62519 0.0
Dy60 Dy 0.9268 0.46362 0.88538 0.0
C61 C 0.88814 0.47735 0.80947 0.0
C62 C 0.94651 0.45622 0.92091 0.0
Dy63 Dy 0.89954 0.46146 0.84671 0.0
O64 O 0.96361 0.45575 0.9062 0.0
O65 O 0.91878 0.46107 0.91623 0.0
O66 O 0.95369 0.50312 0.87723 0.0
O67 O 0.94636 0.46948 0.85721 0.0
C68 C 0.95911 0.49475 0.8602 0.0
C69 C 0.86617 0.43554 0.87459 0.0
O70 O 0.92509 0.41713 0.84564 0.0
O71 O 0.93379 0.41486 0.87759 0.0
O72 O 0.86793 0.47044 0.82197 0.0
O73 O 0.91441 0.4746 0.81726 0.0
O74 O 0.86473 0.42671 0.85714 0.0
O75 O 0.88208 0.45869 0.87514 0.0
O76 O 0.89736 0.50387 0.88841 0.0
O77 O 0.88754 0.50891 0.85673 0.0
C78 C 0.93493 0.4024 0.86068 0.0
C79 C 0.8863 0.51942 0.87423 0.0
Dy80 Dy 0.71688 0.86674 0.91194 0.0
C81 C 0.71631 0.81024 0.84054 0.0
C82 C 0.73082 0.88124 0.94911 0.0
Dy83 Dy 0.7209 0.83678 0.87458 0.0
O84 O 0.73247 0.89929 0.93484 0.0
O85 O 0.72046 0.85572 0.94309 0.0
O86 O 0.68196 0.90025 0.9004 0.0
O87 O 0.71469 0.88237 0.88298 0.0
C88 C 0.69108 0.8977 0.88306 0.0
C89 C 0.75276 0.80777 0.90088 0.0
O90 O 0.76085 0.86654 0.87103 0.0
O91 O 0.76492 0.8776 0.90262 0.0
O92 O 0.71813 0.79621 0.85635 0.0
O93 O 0.71668 0.83909 0.84327 0.0
O94 O 0.76175 0.81314 0.884 0.0
O95 O 0.72672 0.81935 0.90328 0.0
O96 O 0.67215 0.84203 0.91306 0.0
O97 O 0.67201 0.82881 0.88172 0.0
C98 C 0.77595 0.87822 0.88526 0.0
C99 C 0.65847 0.82991 0.89827 0.0
Dy100 Dy 0.3978 0.46184 0.66437 0.0
C101 C 0.45778 0.47242 0.59451 0.0
C102 C 0.38268 0.48045 0.70064 0.0
Dy103 Dy 0.43165 0.46409 0.62823 0.0
O104 O 0.37346 0.45572 0.69263 0.0
O105 O 0.39989 0.4943 0.68886 0.0
O106 O 0.36312 0.42974 0.65086 0.0
O107 O 0.38478 0.46169 0.63493 0.0
C108 C 0.3674 0.4397 0.63387 0.0
C109 C 0.4678 0.473 0.65803 0.0
O110 O 0.40923 0.50988 0.62711 0.0
O111 O 0.37875 0.50548 0.6534 0.0
O112 O 0.46639 0.48478 0.61 0.0
O113 O 0.43428 0.45558 0.59718 0.0
O114 O 0.47307 0.45415 0.64463 0.0
O115 O 0.44122 0.48297 0.65591 0.0
O116 O 0.42689 0.41936 0.6656 0.0
O117 O 0.43098 0.41437 0.63357 0.0
C118 C 0.38822 0.52082 0.63855 0.0
C119 C 0.43388 0.40282 0.65058 0.0
Dy120 Dy 0.7964 0.15328 0.4125 0.0
C121 C 0.80929 0.19455 0.33808 0.0
C122 C 0.78261 0.14406 0.45029 0.0
Dy123 Dy 0.80441 0.18058 0.37495 0.0
O124 O 0.79669 0.12514 0.43937 0.0
O125 O 0.77714 0.16814 0.44063 0.0
O126 O 0.79929 0.10733 0.39792 0.0
O127 O 0.82496 0.14272 0.38815 0.0
C128 C 0.81764 0.116 0.38476 0.0
C129 C 0.7807 0.21948 0.40004 0.0
O130 O 0.76185 0.15374 0.37009 0.0
O131 O 0.75075 0.14226 0.40088 0.0
O132 O 0.81149 0.21351 0.35177 0.0
O133 O 0.80434 0.16782 0.34449 0.0
O134 O 0.80131 0.22585 0.3879 0.0
O135 O 0.77387 0.19186 0.39842 0.0
O136 O 0.8408 0.17995 0.41601 0.0
O137 O 0.85196 0.18414 0.38455 0.0
C138 C 0.74371 0.14185 0.38285 0.0
C139 C 0.85985 0.18766 0.40228 0.0
Dy140 Dy 0.11717 0.55594 0.16405 0.0
C141 C 0.06045 0.5558 0.09357 0.0
C142 C 0.13108 0.53932 0.2008 0.0
Dy143 Dy 0.08611 0.55065 0.12779 0.0
O144 O 0.14489 0.56009 0.19116 0.0
O145 O 0.10994 0.52831 0.19033 0.0
O146 O 0.15103 0.58885 0.15047 0.0
O147 O 0.13272 0.55429 0.13499 0.0
C148 C 0.14901 0.57707 0.13375 0.0
C149 C 0.05573 0.52328 0.15537 0.0
O150 O 0.11439 0.50954 0.12407 0.0
O151 O 0.13099 0.50845 0.15473 0.0
O152 O 0.04595 0.55079 0.10896 0.0
O153 O 0.08911 0.55784 0.09681 0.0
O154 O 0.06127 0.51185 0.13904 0.0
O155 O 0.06872 0.54882 0.15664 0.0
O156 O 0.09068 0.59955 0.16589 0.0
O157 O 0.07781 0.59962 0.13456 0.0
C158 C 0.12871 0.49575 0.13784 0.0
C159 C 0.07848 0.6131 0.15113 0.0
Dy160 Dy 0.80093 0.67135 0.63391 0.0
C161 C 0.78453 0.62879 0.55971 0.0
C162 C 0.81117 0.69199 0.66899 0.0
Dy163 Dy 0.80359 0.64285 0.5961 0.0
O164 O 0.80191 0.70819 0.65509 0.0
O165 O 0.81436 0.66418 0.66387 0.0
O166 O 0.76167 0.69767 0.62514 0.0
O167 O 0.79651 0.69043 0.60555 0.0
C168 C 0.77109 0.70337 0.60836 0.0
C169 C 0.82611 0.60962 0.62535 0.0
O170 O 0.8466 0.67035 0.59372 0.0
O171 O 0.84897 0.68132 0.62535 0.0
O172 O 0.80699 0.61617 0.56851 0.0
O173 O 0.77323 0.6491 0.57074 0.0
O174 O 0.83745 0.60834 0.60849 0.0
O175 O 0.80342 0.62602 0.6246 0.0
O176 O 0.75932 0.64389 0.63744 0.0
O177 O 0.75647 0.62936 0.60632 0.0
C178 C 0.86117 0.68185 0.60838 0.0
C179 C 0.74456 0.63092 0.62348 0.0
Dy180 Dy 0.09627 0.04716 0.88665 0.0
C181 C 0.13215 0.03134 0.81055 0.0
C182 C 0.08532 0.05579 0.92366 0.0
Dy183 Dy 0.12175 0.05008 0.84751 0.0
O184 O 0.06472 0.05201 0.91099 0.0
O185 O 0.11179 0.0549 0.9161 0.0
O186 O 0.06617 0.01014 0.87877 0.0
O187 O 0.07508 0.04372 0.85876 0.0
C188 C 0.06118 0.01903 0.86176 0.0
C189 C 0.15719 0.07176 0.87602 0.0
O190 O 0.09353 0.09262 0.84656 0.0
O191 O 0.08687 0.09559 0.87868 0.0
O192 O 0.14578 0.05356 0.81902 0.0
O193 O 0.11279 0.02013 0.82225 0.0
O194 O 0.15707 0.08364 0.85931 0.0
O195 O 0.1406 0.04923 0.87549 0.0
O196 O 0.12073 1.00335 0.88781 0.0
O197 O 0.13716 1.00345 0.85692 0.0
C198 C 0.08427 0.10756 0.86171 0.0
C199 C 0.13446 0.99013 0.87354 0.0
Dy200 Dy 0.71797 0.34169 0.1325 0.0
C201 C 0.73211 0.38515 0.05864 0.0
C202 C 0.71315 0.3158 0.16667 0.0
Dy203 Dy 0.71407 0.37173 0.09527 0.0
O204 O 0.71451 0.30142 0.15091 0.0
O205 O 0.71403 0.34458 0.1638 0.0
O206 O 0.75728 0.3166 0.12206 0.0
O207 O 0.7213 0.32392 0.10362 0.0
C208 C 0.7469 0.3112 0.10549 0.0
C209 C 0.69173 0.4042 0.12498 0.0
O210 O 0.67188 0.34269 0.09373 0.0
O211 O 0.66864 0.33605 0.12568 0.0
O212 O 0.70607 0.39201 0.06605 0.0
O213 O 0.74779 0.3713 0.07129 0.0
O214 O 0.68121 0.40692 0.10798 0.0
O215 O 0.7142 0.38746 0.12406 0.0
O216 O 0.75943 0.36923 0.13613 0.0
O217 O 0.76081 0.38673 0.1056 0.0
C218 C 0.65655 0.33372 0.10876 0.0
C219 C 0.77332 0.38388 0.12253 0.0
Dy220 Dy 0.43072 0.96987 0.38387 0.0
C221 C 0.38753 0.98707 0.30998 0.0
C222 C 0.45322 0.95963 0.41847 0.0
Dy223 Dy 0.40051 0.96871 0.34657 0.0
O224 O 0.46903 0.96699 0.40396 0.0
O225 O 0.42493 0.95807 0.41416 0.0
O226 O 0.45772 0.00863 0.37529 0.0
O227 O 0.44862 0.97493 0.35515 0.0
C228 C 0.46169 1.00015 0.35811 0.0
C229 C 0.36736 0.9467 0.37628 0.0
O230 O 0.42719 0.92538 0.34354 0.0
O231 O 0.43812 0.92168 0.37505 0.0
O232 O 0.3735 0.9659 0.31913 0.0
O233 O 0.40829 0.99773 0.32088 0.0
O234 O 0.36488 0.93628 0.35923 0.0
O235 O 0.38473 0.96867 0.37551 0.0
O236 O 0.40404 0.01202 0.38797 0.0
O237 O 0.38898 0.01605 0.35701 0.0
C238 C 0.43828 0.91004 0.35794 0.0
C239 C 0.3913 0.02749 0.37425 0.0
Dy240 Dy 0.2157 0.37063 0.41414 0.0
C241 C 0.2161 0.31885 0.34269 0.0
C242 C 0.22542 0.38373 0.45193 0.0
Dy243 Dy 0.21137 0.33991 0.37829 0.0
O244 O 0.22509 0.40308 0.43829 0.0
O245 O 0.21873 0.35759 0.44496 0.0
O246 O 0.21438 0.41535 0.39815 0.0
O247 O 0.18916 0.37957 0.38849 0.0
C248 C 0.19715 0.4059 0.38465 0.0
C249 C 0.23186 0.30323 0.40546 0.0
O250 O 0.25387 0.36719 0.3741 0.0
O251 O 0.26403 0.37457 0.40525 0.0
O252 O 0.22111 0.34636 0.34772 0.0
O253 O 0.20722 0.30331 0.35692 0.0
O254 O 0.21106 0.29667 0.39357 0.0
O255 O 0.23966 0.33039 0.40306 0.0
O256 O 0.16982 0.34625 0.41673 0.0
O257 O 0.1625 0.33787 0.38518 0.0
C258 C 0.27227 0.37627 0.38751 0.0
C259 C 0.15237 0.33679 0.40261 0.0
Dy260 Dy 0.89544 0.96787 0.16272 0.0
C261 C 0.96079 0.96957 0.09408 0.0
C262 C 0.88026 0.98593 0.19912 0.0
Dy263 Dy 0.92828 0.9737 0.12622 0.0
O264 O 0.86847 0.96321 0.19011 0.0
O265 O 0.90015 0.99813 0.18821 0.0
O266 O 0.86293 0.93308 0.14955 0.0
O267 O 0.88232 0.96611 0.1334 0.0
C268 C 0.86689 0.94271 0.13245 0.0
C269 C 0.95461 1.00435 0.1541 0.0
O270 O 0.89621 0.01187 0.12139 0.0
O271 O 0.87804 0.01309 0.15184 0.0
O272 O 0.93169 0.97174 0.09484 0.0
O273 O 0.972 0.96969 0.11078 0.0
O274 O 0.94874 0.01489 0.13766 0.0
O275 O 0.94348 0.97799 0.15543 0.0
O276 O 0.92404 0.92572 0.16482 0.0
O277 O 0.93591 0.92472 0.13326 0.0
C278 C 0.87994 0.02496 0.13473 0.0
C279 C 0.93603 0.91187 0.15003 0.0
Dy280 Dy 0.30391 0.64778 0.91384 0.0
C281 C 0.29711 0.71163 0.8447 0.0
C282 C 0.28703 0.63547 0.95069 0.0
Dy283 Dy 0.29765 0.67992 0.87713 0.0
O284 O 0.31255 0.62756 0.94296 0.0
O285 O 0.27121 0.64951 0.93819 0.0
O286 O 0.33601 0.61246 0.90115 0.0
O287 O 0.30461 0.63396 0.88454 0.0
C288 C 0.32739 0.61741 0.88393 0.0
C289 C 0.26931 0.70719 0.90585 0.0
O290 O 0.25789 0.64978 0.87334 0.0
O291 O 0.25784 0.63119 0.90367 0.0
O292 O 0.29794 0.68249 0.84568 0.0
O293 O 0.29738 0.72315 0.86135 0.0
O294 O 0.25757 0.70153 0.88969 0.0
O295 O 0.29548 0.69555 0.90641 0.0
O296 O 0.34581 0.67717 0.91482 0.0
O297 O 0.34729 0.68585 0.88294 0.0
C298 C 0.24499 0.634 0.88686 0.0
C299 C 0.36021 0.68713 0.89968 0.0
Dy300 Dy 0.61953 0.04988 0.6629 0.0
C301 C 0.56549 0.05451 0.59172 0.0
C302 C 0.63229 0.0313 0.69944 0.0
Dy303 Dy 0.5906 0.0461 0.62593 0.0
O304 O 0.6437 0.05491 0.69123 0.0
O305 O 0.61415 0.01845 0.68767 0.0
O306 O 0.65275 0.08467 0.65099 0.0
O307 O 0.63688 0.05024 0.63414 0.0
C308 C 0.65221 0.0738 0.634 0.0
C309 C 0.55871 0.01786 0.6526 0.0
O310 O 0.61759 1.00413 0.62214 0.0
O311 O 0.63531 1.00353 0.65263 0.0
O312 O 0.55084 0.04859 0.60692 0.0
O313 O 0.5942 0.05538 0.59506 0.0
O314 O 0.56455 1.00719 0.63612 0.0
O315 O 0.5717 0.04325 0.65443 0.0
O316 O 0.59087 0.09208 0.66517 0.0
O317 O 0.58327 0.09502 0.63333 0.0
C318 C 0.63244 0.99064 0.63582 0.0
C319 C 0.58118 0.10714 0.65026 0.0
H320 H 0.32364 0.2491 0.18581 0.0
H321 H 0.31624 0.26729 0.21784 0.0
H322 H 0.30013 0.17662 0.23638 0.0
H323 H 0.30783 0.15837 0.20445 0.0
H324 H 0.25102 0.21901 0.23966 0.0
H325 H 0.35593 0.20917 0.25468 0.0
H326 H 0.41031 0.21712 0.25008 0.0
H327 H 0.39767 0.31246 0.25462 0.0
H328 H 0.34312 0.30514 0.25893 0.0
H329 H 0.20578 0.26226 0.33027 0.0
H330 H 0.22917 0.23769 0.30335 0.0
H331 H 0.27395 0.32057 0.28906 0.0
H332 H 0.2523 0.34444 0.31683 0.0
H333 H 0.31129 0.27837 0.28488 0.0
H334 H 0.21013 0.2925 0.26339 0.0
H335 H 0.15472 0.29009 0.26537 0.0
H336 H 0.15903 0.19393 0.26891 0.0
H337 H 0.2145 0.1959 0.26729 0.0
C338 C 0.31948 0.23299 0.19685 0.0
C339 C 0.3159 0.20237 0.19276 0.0
C340 C 0.31546 0.24337 0.2151 0.0
C341 C 0.30765 0.22321 0.22933 0.0
C342 C 0.30633 0.19238 0.22551 0.0
C343 C 0.3107 0.18199 0.20731 0.0
C344 C 0.29527 0.23482 0.24698 0.0
C345 C 0.26426 0.23144 0.24981 0.0
C346 C 0.31249 0.25215 0.25956 0.0
C347 C 0.34534 0.25659 0.25696 0.0
C348 C 0.36467 0.23185 0.25451 0.0
C349 C 0.39556 0.23625 0.25199 0.0
C350 C 0.40743 0.26528 0.25201 0.0
C351 C 0.38845 0.28998 0.25459 0.0
C352 C 0.35754 0.28571 0.25709 0.0
C353 C 0.22029 0.27527 0.3212 0.0
C354 C 0.22661 0.30543 0.32518 0.0
C355 C 0.23358 0.26127 0.30581 0.0
C356 C 0.25281 0.27747 0.29394 0.0
C357 C 0.25906 0.30767 0.29796 0.0
C358 C 0.24629 0.32144 0.3136 0.0
C359 C 0.26685 0.26279 0.27754 0.0
C360 C 0.29806 0.26565 0.27487 0.0
C361 C 0.24969 0.24579 0.26466 0.0
C362 C 0.21639 0.24441 0.26551 0.0
C363 C 0.19921 0.2709 0.2648 0.0
C364 C 0.16782 0.2696 0.26581 0.0
C365 C 0.15336 0.24187 0.26734 0.0
C366 C 0.17027 0.21539 0.26778 0.0
C367 C 0.20167 0.21659 0.26681 0.0
H368 H 0.12906 0.24089 0.26812 0.0
H369 H 0.43135 0.26863 0.25007 0.0
H370 H 0.51556 0.48806 0.58922 0.0
H371 H 0.53878 0.50515 0.5601 0.0
H372 H 0.4554 0.48961 0.53078 0.0
H373 H 0.43229 0.47119 0.55988 0.0
H374 H 0.53769 0.47464 0.51961 0.0
H375 H 0.44765 0.56419 0.51164 0.0
H376 H 0.41141 0.59257 0.53108 0.0
H377 H 0.47246 0.58924 0.57758 0.0
H378 H 0.50922 0.56138 0.55832 0.0
H379 H 0.51608 0.5713 0.43442 0.0
H380 H 0.49966 0.55976 0.46616 0.0
H381 H 0.59226 0.5495 0.48331 0.0
H382 H 0.60884 0.56036 0.45131 0.0
H383 H 0.50758 0.57825 0.5019 0.0
H384 H 0.5972 0.48481 0.50721 0.0
H385 H 0.62882 0.45395 0.48618 0.0
H386 H 0.56253 0.4616 0.44274 0.0
H387 H 0.53041 0.49212 0.46358 0.0
C388 C 0.50247 0.48757 0.57644 0.0
C389 C 0.47227 0.47843 0.5766 0.0
C390 C 0.51573 0.49725 0.55991 0.0
C391 C 0.49861 0.49872 0.54354 0.0
C392 C 0.46877 0.4885 0.54344 0.0
C393 C 0.45569 0.47801 0.55993 0.0
C394 C 0.51121 0.51341 0.527 0.0
C395 C 0.53155 0.49743 0.51583 0.0
C396 C 0.50248 0.54283 0.52208 0.0
C397 C 0.48097 0.56038 0.53361 0.0
C398 C 0.45335 0.56964 0.52599 0.0
C399 C 0.43273 0.58564 0.53697 0.0
C400 C 0.43957 0.59259 0.55558 0.0
C401 C 0.46712 0.58373 0.5632 0.0
C402 C 0.48784 0.5678 0.55226 0.0
C403 C 0.53295 0.56729 0.44507 0.0
C404 C 0.56362 0.56602 0.44049 0.0
C405 C 0.52356 0.56088 0.46319 0.0
C406 C 0.54476 0.55323 0.47687 0.0
C407 C 0.57561 0.55488 0.47276 0.0
C408 C 0.58503 0.56107 0.45456 0.0
C409 C 0.53434 0.53959 0.49444 0.0
C410 C 0.5142 0.55565 0.50579 0.0
C411 C 0.54278 0.50997 0.49933 0.0
C412 C 0.56162 0.49099 0.48688 0.0
C413 C 0.58936 0.47977 0.4932 0.0
C414 C 0.60736 0.46237 0.48131 0.0
C415 C 0.59775 0.45591 0.46311 0.0
C416 C 0.57002 0.4667 0.4568 0.0
C417 C 0.55192 0.48406 0.46864 0.0
H418 H 0.61175 0.44249 0.45392 0.0
H419 H 0.42355 0.60491 0.56407 0.0
H420 H 0.19058 0.85882 0.70179 0.0
H421 H 0.1943 0.84596 0.73513 0.0
H422 H 0.22137 0.75588 0.72013 0.0
H423 H 0.21702 0.76835 0.68714 0.0
H424 H 0.18806 0.75532 0.7513 0.0
H425 H 0.27291 0.81539 0.72602 0.0
H426 H 0.29321 0.86204 0.71235 0.0
H427 H 0.25888 0.91266 0.75897 0.0
H428 H 0.23839 0.86625 0.77286 0.0
H429 H 0.29399 0.69102 0.80897 0.0
H430 H 0.2705 0.71661 0.78245 0.0
H431 H 0.25727 0.79576 0.81652 0.0
H432 H 0.28127 0.77042 0.84293 0.0
H433 H 0.27209 0.81058 0.78142 0.0
H434 H 0.19947 0.74867 0.81054 0.0
H435 H 0.18012 0.70226 0.8249 0.0
H436 H 0.18958 0.65587 0.77247 0.0
H437 H 0.20946 0.7019 0.75784 0.0
C438 C 0.19661 0.83612 0.70572 0.0
C439 C 0.20406 0.81465 0.69203 0.0
C440 C 0.19872 0.82881 0.7247 0.0
C441 C 0.2086 0.80011 0.73006 0.0
C442 C 0.21373 0.77815 0.71632 0.0
C443 C 0.21146 0.78536 0.69746 0.0
C444 C 0.21769 0.79345 0.74949 0.0
C445 C 0.20627 0.76747 0.75799 0.0
C446 C 0.24077 0.80992 0.75849 0.0
C447 C 0.25377 0.83753 0.75032 0.0
C448 C 0.26965 0.83651 0.7333 0.0
C449 C 0.2812 0.86287 0.72553 0.0
C450 C 0.27724 0.8903 0.73475 0.0
C451 C 0.26186 0.89141 0.75182 0.0
C452 C 0.2503 0.86511 0.75965 0.0
C453 C 0.28656 0.71403 0.81063 0.0
C454 C 0.28901 0.72865 0.82793 0.0
C455 C 0.27298 0.72855 0.79559 0.0
C456 C 0.26138 0.75773 0.79777 0.0
C457 C 0.26578 0.77313 0.81466 0.0
C458 C 0.27957 0.75866 0.82968 0.0
C459 C 0.24366 0.77148 0.78258 0.0
C460 C 0.2533 0.79885 0.77506 0.0
C461 C 0.21881 0.75637 0.77456 0.0
C462 C 0.20603 0.72878 0.7831 0.0
C463 C 0.1975 0.72856 0.80207 0.0
C464 C 0.18644 0.70232 0.81026 0.0
C465 C 0.18357 0.67616 0.79959 0.0
C466 C 0.19171 0.6762 0.78069 0.0
C467 C 0.20285 0.70238 0.77244 0.0
H468 H 0.17512 0.65586 0.80599 0.0
H469 H 0.28617 0.91067 0.72872 0.0
H470 H 0.91298 0.45695 0.95247 0.0
H471 H 0.93048 0.47158 0.98371 0.0
H472 H 0.02207 0.47238 0.96354 0.0
H473 H 1.00465 0.45782 0.93237 0.0
H474 H 0.01681 0.45162 0.99986 0.0
H475 H 0.98491 0.53463 0.9621 0.0
H476 H 0.95047 0.56452 0.94251 0.0
H477 H 0.88784 0.57064 0.98818 0.0
H478 H 0.92165 0.54006 0.00786 0.0
H479 H 0.08985 0.54566 0.06134 0.0
H480 H 0.06753 0.52882 0.03175 0.0
H481 H 0.97889 0.54018 0.05504 0.0
H482 H 1.00107 0.55797 0.08449 0.0
H483 H 0.9796 0.55258 0.0186 0.0
H484 H 0.01415 0.46777 0.05621 0.0
H485 H 0.05311 0.44297 0.07554 0.0
H486 H 0.114 0.44361 0.02885 0.0
H487 H 0.07554 0.46862 0.00942 0.0
C488 C 0.93685 0.45976 0.95489 0.0
C489 C 0.95747 0.45724 0.94012 0.0
C490 C 0.94676 0.46806 0.97262 0.0
C491 C 0.97736 0.47377 0.97562 0.0
C492 C 0.99831 0.46825 0.96133 0.0
C493 C 0.98837 0.45997 0.9436 0.0
C494 C 0.98729 0.48833 0.99297 0.0
C495 C 1.00872 0.47368 1.00398 0.0
C496 C 0.97643 0.51703 0.99826 0.0
C497 C 0.95559 0.53464 0.98632 0.0
C498 C 0.96357 0.54192 0.96784 0.0
C499 C 0.94423 0.5591 0.95675 0.0
C500 C 0.917 0.56953 0.96411 0.0
C501 C 0.90898 0.56262 0.98252 0.0
C502 C 0.92819 0.54527 0.99362 0.0
C503 C 0.06565 0.54553 0.05984 0.0
C504 C 0.04712 0.55263 0.07503 0.0
C505 C 0.05303 0.53551 0.04317 0.0
C506 C 0.02184 0.53198 0.04168 0.0
C507 C 1.00312 0.54202 0.05619 0.0
C508 C 0.01575 0.55221 0.0729 0.0
C509 C 1.00914 0.5159 0.02551 0.0
C510 C 0.98722 0.53027 0.01469 0.0
C511 C 0.01972 0.48705 0.02026 0.0
C512 C 0.04219 0.47041 0.03153 0.0
C513 C 0.03594 0.4627 0.05018 0.0
C514 C 0.05788 0.44862 0.06111 0.0
C515 C 0.08608 0.442 0.05347 0.0
C516 C 0.09218 0.44884 0.03477 0.0
C517 C 0.07029 0.46289 0.02379 0.0
H518 H 0.10323 0.4316 0.06202 0.0
H519 H 0.90209 0.58293 0.95554 0.0
H520 H 0.72454 0.75089 0.83439 0.0
H521 H 0.74486 0.72796 0.80605 0.0
H522 H 0.73866 0.81315 0.77759 0.0
H523 H 0.71926 0.83654 0.80624 0.0
H524 H 0.72874 0.72081 0.77018 0.0
H525 H 0.80306 0.82296 0.75179 0.0
H526 H 0.82426 0.86764 0.76734 0.0
H527 H 0.82419 0.82147 0.81996 0.0
H528 H 0.80386 0.77605 0.80466 0.0
H529 H 0.80704 0.74966 0.6803 0.0
H530 H 0.7981 0.76713 0.71214 0.0
H531 H 0.81176 0.67712 0.73283 0.0
H532 H 0.81996 0.65929 0.70073 0.0
H533 H 0.82277 0.76775 0.74673 0.0
H534 H 0.75469 0.66221 0.76195 0.0
H535 H 0.73145 0.6199 0.74486 0.0
H536 H 0.71616 0.67691 0.6974 0.0
H537 H 0.73903 0.71954 0.71429 0.0
C538 C 0.72687 0.76458 0.82196 0.0
C539 C 0.72091 0.79553 0.82247 0.0
C540 C 0.73848 0.75145 0.80581 0.0
C541 C 0.74399 0.76911 0.78999 0.0
C542 C 0.73522 0.79941 0.7899 0.0
C543 C 0.72395 0.81266 0.80615 0.0
C544 C 0.76099 0.75633 0.77418 0.0
C545 C 0.74955 0.73077 0.76524 0.0
C546 C 0.78806 0.76957 0.76776 0.0
C547 C 0.80168 0.79616 0.77707 0.0
C548 C 0.80787 0.82218 0.76665 0.0
C549 C 0.81975 0.84762 0.77542 0.0
C550 C 0.82556 0.84734 0.79463 0.0
C551 C 0.81973 0.82153 0.80508 0.0
C552 C 0.80807 0.79593 0.79636 0.0
C553 C 0.80885 0.73374 0.6917 0.0
C554 C 0.81333 0.70308 0.68818 0.0
C555 C 0.80402 0.74379 0.70987 0.0
C556 C 0.80368 0.72326 0.7247 0.0
C557 C 0.81152 0.69314 0.72145 0.0
C558 C 0.81618 0.68301 0.70318 0.0
C559 C 0.79022 0.73263 0.7426 0.0
C560 C 0.80229 0.7575 0.75195 0.0
C561 C 0.76356 0.71904 0.74932 0.0
C562 C 0.74879 0.69389 0.73931 0.0
C563 C 0.74621 0.66569 0.7479 0.0
C564 C 0.73316 0.64167 0.73825 0.0
C565 C 0.72241 0.64569 0.72004 0.0
C566 C 0.72455 0.6738 0.71148 0.0
C567 C 0.73756 0.69788 0.72109 0.0
H568 H 0.71239 0.62706 0.71257 0.0
H569 H 0.83459 0.86712 0.80142 0.0
H570 H 0.71322 0.25614 0.17376 0.0
H571 H 0.73008 0.23175 0.20251 0.0
H572 H 0.73987 0.31839 0.22899 0.0
H573 H 0.72297 0.34298 0.20021 0.0
H574 H 0.79208 0.28287 0.22924 0.0
H575 H 0.68637 0.27359 0.24358 0.0
H576 H 0.63386 0.25885 0.23737 0.0
H577 H 0.66099 0.16664 0.23218 0.0
H578 H 0.71377 0.18089 0.23809 0.0
H579 H 0.81435 0.25051 0.32397 0.0
H580 H 0.80135 0.26657 0.29247 0.0
H581 H 0.78668 0.17428 0.27623 0.0
H582 H 0.79904 0.1581 0.30811 0.0
H583 H 0.73929 0.20768 0.26839 0.0
H584 H 0.84413 0.21561 0.25678 0.0
H585 H 0.89688 0.22965 0.26281 0.0
H586 H 0.87258 0.32298 0.2622 0.0
H587 H 0.81959 0.30952 0.25644 0.0
C588 C 0.71822 0.26991 0.18589 0.0
C589 C 0.717 0.30136 0.18487 0.0
C590 C 0.72784 0.25598 0.20224 0.0
C591 C 0.7363 0.27337 0.21772 0.0
C592 C 0.73348 0.30472 0.21707 0.0
C593 C 0.72369 0.31868 0.20074 0.0
C594 C 0.75063 0.25903 0.23394 0.0
C595 C 0.78052 0.26668 0.23799 0.0
C596 C 0.73581 0.23695 0.24464 0.0
C597 C 0.70408 0.22836 0.24107 0.0
C598 C 0.68119 0.25021 0.24093 0.0
C599 C 0.65136 0.24193 0.23751 0.0
C600 C 0.6441 0.21184 0.23433 0.0
C601 C 0.66665 0.18995 0.23461 0.0
C602 C 0.69652 0.19811 0.23801 0.0
C603 C 0.80904 0.2336 0.31357 0.0
C604 C 0.80736 0.20316 0.31839 0.0
C605 C 0.8018 0.24276 0.29554 0.0
C606 C 0.79319 0.22158 0.28202 0.0
C607 C 0.79328 0.19092 0.28652 0.0
C608 C 0.80039 0.18173 0.30464 0.0
C609 C 0.78066 0.23201 0.26407 0.0
C610 C 0.75111 0.22358 0.25957 0.0
C611 C 0.79589 0.25325 0.25287 0.0
C612 C 0.82781 0.26151 0.25628 0.0
C613 C 0.84998 0.23912 0.25806 0.0
C614 C 0.87994 0.24699 0.26141 0.0
C615 C 0.88807 0.27718 0.26291 0.0
C616 C 0.86625 0.29959 0.26103 0.0
C617 C 0.83625 0.29186 0.25769 0.0
H618 H 0.91128 0.28322 0.26551 0.0
H619 H 0.62099 0.20548 0.23168 0.0
H620 H 0.02084 0.95928 0.09039 0.0
H621 H 0.05176 0.96866 0.06257 0.0
H622 H 0.97203 0.99488 0.03211 0.0
H623 H 0.94114 0.98416 0.05948 0.0
H624 H 1.00797 0.96391 0.01052 0.0
H625 H 0.0227 0.04575 0.05727 0.0
H626 H 0.04053 0.06293 0.08821 0.0
H627 H 0.12884 0.02868 0.07612 0.0
H628 H 0.11137 0.01088 0.04525 0.0
H629 H 0.03204 0.0634 0.94136 0.0
H630 H 0.0202 0.04756 0.9732 0.0
H631 H 0.1138 0.02681 0.98285 0.0
H632 H 0.12599 0.04378 0.95112 0.0
H633 H 0.08368 0.04545 0.01542 0.0
H634 H 0.07231 0.97267 0.96689 0.0
H635 H 0.05583 0.95366 0.9361 0.0
H636 H 0.96351 0.96775 0.95161 0.0
H637 H 0.97942 0.98734 0.98235 0.0
C638 C 0.01 0.96651 0.07759 0.0
C639 C 0.97876 0.97127 0.07697 0.0
C640 C 0.02765 0.97204 0.0618 0.0
C641 C 0.01426 0.98311 0.04544 0.0
C642 C 0.98284 0.98642 0.04463 0.0
C643 C 0.9652 0.98035 0.06024 0.0
C644 C 0.03246 0.99285 0.02926 0.0
C645 C 0.02451 0.98173 0.0116 0.0
C646 C 0.05515 0.01507 0.03077 0.0
C647 C 0.06566 0.02672 0.04907 0.0
C648 C 0.04589 0.04184 0.06125 0.0
C649 C 0.05593 0.05164 0.07878 0.0
C650 C 0.08577 0.04676 0.08416 0.0
C651 C 0.1057 0.03231 0.07197 0.0
C652 C 0.09574 0.02234 0.05447 0.0
C653 C 0.0502 0.05642 0.95049 0.0
C654 C 0.07972 0.0541 0.9438 0.0
C655 C 0.04345 0.04733 0.96861 0.0
C656 C 0.06603 0.03513 0.98003 0.0
C657 C 0.09609 0.03585 0.9741 0.0
C658 C 0.10296 0.04547 0.95601 0.0
C659 C 0.0573 0.01803 0.99678 0.0
C660 C 0.06746 0.02734 0.01441 0.0
C661 C 0.03677 0.99388 0.99531 0.0
C662 C 0.02709 0.98158 0.97692 0.0
C663 C 0.0485 0.97185 0.9637 0.0
C664 C 0.03926 0.96098 0.94625 0.0
C665 C 1.00864 0.95952 0.94191 0.0
C666 C 0.98721 0.96889 0.955 0.0
C667 C 0.99633 0.97984 0.97245 0.0
H668 H 1.00148 0.95109 0.92843 0.0
H669 H 0.0935 0.05412 0.09778 0.0
H670 H 0.42121 0.9567 0.45085 0.0
H671 H 0.43986 0.97062 0.48193 0.0
H672 H 0.52993 0.97791 0.45972 0.0
H673 H 0.51155 0.96369 0.42879 0.0
H674 H 0.52896 0.95744 0.49602 0.0
H675 H 0.48611 0.03771 0.45893 0.0
H676 H 0.4456 0.06104 0.44036 0.0
H677 H 0.3869 0.05877 0.48812 0.0
H678 H 0.42695 0.03496 0.50689 0.0
H679 H 0.59333 0.06134 0.55799 0.0
H680 H 0.57301 0.04482 0.52778 0.0
H681 H 0.48581 0.03264 0.55319 0.0
H682 H 0.50646 0.04747 0.58356 0.0
H683 H 0.48445 0.05493 0.51577 0.0
H684 H 0.52529 0.97384 0.55227 0.0
H685 H 0.56374 0.94736 0.57102 0.0
H686 H 0.62446 0.9491 0.52425 0.0
H687 H 0.58664 0.97635 0.5055 0.0
C688 C 0.44512 0.96031 0.45279 0.0
C689 C 0.46497 0.95981 0.43752 0.0
C690 C 0.45567 0.96833 0.47046 0.0
C691 C 0.48604 0.97597 0.47284 0.0
C692 C 0.50636 0.9723 0.45802 0.0
C693 C 0.49585 0.96428 0.44039 0.0
C694 C 0.49603 0.9915 0.48986 0.0
C695 C 0.51947 0.97887 0.50027 0.0
C696 C 0.48325 0.01929 0.49537 0.0
C697 C 0.45942 0.03431 0.48425 0.0
C698 C 0.46451 0.04205 0.46544 0.0
C699 C 0.44164 0.05536 0.45488 0.0
C700 C 0.41367 0.06132 0.46304 0.0
C701 C 0.40856 0.0541 0.48181 0.0
C702 C 0.43134 0.04072 0.49241 0.0
C703 C 0.5699 0.05512 0.55706 0.0
C704 C 0.55182 0.05392 0.57311 0.0
C705 C 0.55826 0.04606 0.53985 0.0
C706 C 0.52822 0.03671 0.53859 0.0
C707 C 0.50919 0.03932 0.55412 0.0
C708 C 0.521 0.04775 0.57138 0.0
C709 C 0.51753 0.02094 0.52183 0.0
C710 C 0.49399 0.03355 0.51148 0.0
C711 C 0.53019 0.99312 0.51635 0.0
C712 C 0.55339 0.9776 0.52768 0.0
C713 C 0.54709 0.96907 0.54618 0.0
C714 C 0.56869 0.95384 0.55676 0.0
C715 C 0.59655 0.94665 0.54885 0.0
C716 C 0.60288 0.95475 0.53037 0.0
C717 C 0.58142 0.97018 0.51979 0.0
H718 H 0.61319 0.93477 0.55705 0.0
H719 H 0.39598 0.07159 0.45484 0.0
H720 H 0.18105 0.12765 0.88659 0.0
H721 H 0.20325 0.1413 0.91714 0.0
H722 H 0.19285 0.04991 0.93576 0.0
H723 H 0.17094 0.0365 0.90567 0.0
H724 H 0.1748 0.08441 0.96268 0.0
H725 H 0.26359 0.08384 0.92388 0.0
H726 H 0.29532 0.09929 0.89726 0.0
H727 H 0.29241 0.19075 0.91636 0.0
H728 H 0.26033 0.17587 0.94298 0.0
H729 H 0.26592 0.08466 0.04567 0.0
H730 H 0.24505 0.07555 0.01432 0.0
H731 H 0.25517 0.16936 1.0012 0.0
H732 H 0.27583 0.17851 0.03256 0.0
H733 H 0.272 0.13693 0.9715 0.0
H734 H 0.1865 0.13746 0.01136 0.0
H735 H 0.15298 0.12341 0.03738 0.0
H736 H 0.14736 0.03345 0.01598 0.0
H737 H 0.18144 0.04674 0.99002 0.0
C738 C 0.18393 0.11043 0.89711 0.0
C739 C 0.17396 0.08095 0.89352 0.0
C740 C 0.19665 0.11823 0.9147 0.0
C741 C 0.19996 0.09672 0.92915 0.0
C742 C 0.19056 0.06723 0.92524 0.0
C743 C 0.17803 0.05951 0.90782 0.0
C744 C 0.21243 0.10441 0.94844 0.0
C745 C 0.19631 0.09552 0.96452 0.0
C746 C 0.24005 0.11983 0.95126 0.0
C747 C 0.25929 0.1288 0.93529 0.0
C748 C 0.26952 0.10728 0.92231 0.0
C749 C 0.2876 0.11593 0.90724 0.0
C750 C 0.2958 0.146 0.90508 0.0
C751 C 0.28599 0.16747 0.91803 0.0
C752 C 0.26788 0.15894 0.93311 0.0
C753 C 0.2638 0.10337 0.03611 0.0
C754 C 0.2727 0.13236 0.04182 0.0
C755 C 0.25162 0.09816 0.0181 0.0
C756 C 0.24804 0.12173 1.00509 0.0
C757 C 0.25748 0.15061 0.01071 0.0
C758 C 0.26934 0.15586 0.02878 0.0
C759 C 0.23466 0.11634 0.98575 0.0
C760 C 0.25054 0.12574 0.96968 0.0
C761 C 0.20673 0.10141 0.98293 0.0
C762 C 0.18699 0.09301 0.99888 0.0
C763 C 0.17854 0.11455 0.01234 0.0
C764 C 0.15935 0.10674 0.02706 0.0
C765 C 0.14817 0.07753 0.02838 0.0
C766 C 0.15617 0.05603 0.01498 0.0
C767 C 0.17546 0.06369 1.00027 0.0
H768 H 0.13321 0.07161 0.03973 0.0
H769 H 0.30981 0.15265 0.89341 0.0
H770 H 0.59913 0.48785 0.29077 0.0
H771 H 0.6098 0.46801 0.25943 0.0
H772 H 0.67527 0.53786 0.25081 0.0
H773 H 0.66511 0.55744 0.28253 0.0
H774 H 0.63897 0.52858 0.21866 0.0
H775 H 0.70005 0.47095 0.25943 0.0
H776 H 0.71423 0.43832 0.28581 0.0
H777 H 0.65485 0.36964 0.26554 0.0
H778 H 0.63989 0.40208 0.23917 0.0
H779 H 0.72405 0.40768 0.15709 0.0
H780 H 0.71188 0.43203 0.18657 0.0
H781 H 0.62763 0.46264 0.1635 0.0
H782 H 0.64038 0.43847 0.13336 0.0
H783 H 0.67356 0.4233 0.21157 0.0
H784 H 0.6023 0.52519 0.18832 0.0
H785 H 0.59738 0.55931 0.16133 0.0
H786 H 0.68958 0.54289 0.14639 0.0
H787 H 0.69514 0.50897 0.17341 0.0
C788 C 0.61578 0.49913 0.28223 0.0
C789 C 0.63123 0.52434 0.28932 0.0
C790 C 0.62193 0.48765 0.26422 0.0
C791 C 0.64344 0.50123 0.2525 0.0
C792 C 0.6585 0.52686 0.25939 0.0
C793 C 0.65274 0.53804 0.27761 0.0
C794 C 0.65056 0.48811 0.2334 0.0
C795 C 0.6464 0.50549 0.21714 0.0
C796 C 0.66086 0.45814 0.23111 0.0
C797 C 0.66857 0.43911 0.24744 0.0
C798 C 0.68964 0.44908 0.26075 0.0
C799 C 0.69792 0.43057 0.27566 0.0
C800 C 0.68549 0.40193 0.27733 0.0
C801 C 0.66448 0.39184 0.26421 0.0
C802 C 0.65607 0.41029 0.24928 0.0
C803 C 0.70288 0.41963 0.15811 0.0
C804 C 0.68324 0.4209 0.14263 0.0
C805 C 0.69584 0.43362 0.1752 0.0
C806 C 0.66874 0.4495 0.17768 0.0
C807 C 0.64895 0.45104 0.16217 0.0
C808 C 0.65618 0.43707 0.14485 0.0
C809 C 0.66158 0.46353 0.19662 0.0
C810 C 0.66575 0.44628 0.21295 0.0
C811 C 0.65202 0.49381 0.19895 0.0
C812 C 0.649 0.51429 0.18275 0.0
C813 C 0.62153 0.52893 0.17929 0.0
C814 C 0.61863 0.54822 0.16399 0.0
C815 C 0.64312 0.55317 0.15211 0.0
C816 C 0.6706 0.53893 0.15555 0.0
C817 C 0.67362 0.51964 0.17084 0.0
H818 H 0.64083 0.5681 0.14026 0.0
H819 H 0.69226 0.38749 0.28873 0.0
H820 H 0.28614 0.85678 0.54379 0.0
H821 H 0.30582 0.8676 0.5125 0.0
H822 H 0.22776 0.92211 0.50105 0.0
H823 H 0.20863 0.9121 0.53271 0.0
H824 H 0.29332 0.85717 0.47874 0.0
H825 H 0.24121 0.97504 0.46813 0.0
H826 H 0.22583 0.01912 0.48685 0.0
H827 H 0.28842 0.99441 0.52992 0.0
H828 H 0.3044 0.9504 0.51136 0.0
H829 H 0.32731 0.89908 0.38307 0.0
H830 H 0.30182 0.88647 0.4127 0.0
H831 H 0.34545 0.96147 0.43959 0.0
H832 H 0.36875 0.97504 0.41008 0.0
H833 H 0.29573 0.96084 0.45387 0.0
H834 H 0.36509 0.87934 0.44402 0.0
H835 H 0.3875 0.83678 0.4268 0.0
H836 H 0.30275 0.7906 0.42793 0.0
H837 H 0.27969 0.83317 0.44486 0.0
C838 C 0.27313 0.87118 0.53466 0.0
C839 C 0.24575 0.88365 0.54104 0.0
C840 C 0.28442 0.87731 0.51656 0.0
C841 C 0.26882 0.89615 0.504 0.0
C842 C 0.24103 0.90812 0.51027 0.0
C843 C 0.22985 0.9022 0.52849 0.0
C844 C 0.28177 0.90322 0.48463 0.0
C845 C 0.29368 0.87992 0.47338 0.0
C846 C 0.28309 0.93282 0.47722 0.0
C847 C 0.2737 0.95925 0.48846 0.0
C848 C 0.25171 0.97906 0.48158 0.0
C849 C 0.24289 1.00402 0.49216 0.0
C850 C 0.25606 0.00949 0.5096 0.0
C851 C 0.27815 0.99007 0.51645 0.0
C852 C 0.28707 0.9651 0.50592 0.0
C853 C 0.33133 0.91291 0.39529 0.0
C854 C 0.35071 0.93788 0.394 0.0
C855 C 0.3169 0.90552 0.41245 0.0
C856 C 0.32178 0.92251 0.42901 0.0
C857 C 0.34083 0.94764 0.42744 0.0
C858 C 0.35467 0.95526 0.41037 0.0
C859 C 0.3074 0.91481 0.44791 0.0
C860 C 0.29522 0.93803 0.45912 0.0
C861 C 0.30669 0.88527 0.45549 0.0
C862 C 0.3206 0.85956 0.44552 0.0
C863 C 0.3512 0.86017 0.4405 0.0
C864 C 0.36402 0.83604 0.43079 0.0
C865 C 0.34654 0.81101 0.42624 0.0
C866 C 0.31624 0.81002 0.43143 0.0
C867 C 0.30328 0.83415 0.44108 0.0
H868 H 0.35644 0.79234 0.41871 0.0
H869 H 0.24919 0.02882 0.51777 0.0
H870 H 0.88078 0.58234 0.6353 0.0
H871 H 0.89377 0.55937 0.66566 0.0
H872 H 0.80354 0.57617 0.68542 0.0
H873 H 0.79113 0.59965 0.65579 0.0
H874 H 0.83669 0.58918 0.71218 0.0
H875 H 0.83543 0.50225 0.67213 0.0
H876 H 0.85039 0.47096 0.64513 0.0
H877 H 0.94201 0.47127 0.66417 0.0
H878 H 0.92764 0.50287 0.69117 0.0
H879 H 0.83428 0.49405 0.79318 0.0
H880 H 0.82578 0.51537 0.76191 0.0
H881 H 0.92065 0.50863 0.75009 0.0
H882 H 0.9292 0.48756 0.78137 0.0
H883 H 0.88839 0.49129 0.71955 0.0
H884 H 0.88718 0.57616 0.761 0.0
H885 H 0.87069 0.60705 0.78781 0.0
H886 H 0.78085 0.60952 0.76582 0.0
H887 H 0.79669 0.57837 0.73897 0.0
C888 C 0.8637 0.58083 0.64608 0.0
C889 C 0.83485 0.59296 0.64291 0.0
C890 C 0.87109 0.56756 0.66354 0.0
C891 C 0.84968 0.56556 0.67822 0.0
C892 C 0.82083 0.57734 0.67475 0.0
C893 C 0.81364 0.59077 0.65755 0.0
C894 C 0.85681 0.55208 0.69731 0.0
C895 C 0.84761 0.56752 0.71363 0.0
C896 C 0.87182 0.52413 0.69974 0.0
C897 C 0.88052 0.5052 0.68354 0.0
C898 C 0.8588 0.49583 0.67047 0.0
C899 C 0.86717 0.478 0.65519 0.0
C900 C 0.89715 0.46921 0.65291 0.0
C901 C 0.91881 0.47815 0.66593 0.0
C902 C 0.91057 0.496 0.68124 0.0
C903 C 0.85334 0.49697 0.7839 0.0
C904 C 0.88246 0.48897 0.78994 0.0
C905 C 0.84849 0.50938 0.76596 0.0
C906 C 0.87256 0.51408 0.75338 0.0
C907 C 0.90155 0.50543 0.75929 0.0
C908 C 0.90645 0.49335 0.7773 0.0
C909 C 0.86761 0.52811 0.73425 0.0
C910 C 0.87736 0.51288 0.71801 0.0
C911 C 0.85273 0.5561 0.73184 0.0
C912 C 0.84307 0.57458 0.74809 0.0
C913 C 0.86384 0.58303 0.76197 0.0
C914 C 0.85462 0.60068 0.77715 0.0
C915 C 0.82473 0.61021 0.77853 0.0
C916 C 0.80399 0.60215 0.76472 0.0
C917 C 0.81308 0.5845 0.74952 0.0
H918 H 0.81764 0.62389 0.79028 0.0
H919 H 0.90358 0.45541 0.64107 0.0
H920 H 0.87673 0.96431 0.09761 0.0
H921 H 0.85438 0.95019 0.06797 0.0
H922 H 0.79791 0.88606 0.09624 0.0
H923 H 0.82283 0.89854 0.12624 0.0
H924 H 0.81423 0.86452 0.06176 0.0
H925 H 0.77492 0.95981 0.08334 0.0
H926 H 0.78535 0.01024 0.09597 0.0
H927 H 0.82964 0.03451 0.04478 0.0
H928 H 0.82081 0.98369 0.03216 0.0
H929 H 0.7198 0.84939 0.98138 0.0
H930 H 0.73962 0.85811 0.0129 0.0
H931 H 0.78912 0.93466 0.99259 0.0
H932 H 0.76772 0.92693 0.96133 0.0
H933 H 0.77352 0.94916 0.02451 0.0
H934 H 0.82051 0.85836 1.00378 0.0
H935 H 0.82339 0.80661 0.99154 0.0
H936 H 0.77335 0.77472 0.03892 0.0
H937 H 0.76986 0.82637 0.05133 0.0
C938 C 0.86022 0.94659 0.09763 0.0
C939 C 0.85209 0.93246 0.11451 0.0
C940 C 0.84689 0.9388 0.08051 0.0
C941 C 0.82355 0.91757 0.07956 0.0
C942 C 0.81562 0.90273 0.09636 0.0
C943 C 0.8298 0.90998 0.1136 0.0
C944 C 0.80704 0.91222 0.06121 0.0
C945 C 0.80481 0.883 0.05381 0.0
C946 C 0.79546 0.93626 0.05023 0.0
C947 C 0.79738 0.96783 0.05686 0.0
C948 C 0.78676 0.97593 0.07473 0.0
C949 C 0.79265 1.0045 0.08196 0.0
C950 C 0.80829 0.02551 0.07122 0.0
C951 C 0.81768 0.01814 0.05312 0.0
C952 C 0.81232 0.98941 0.04594 0.0
C953 C 0.73475 0.86823 0.98365 0.0
C954 C 0.74206 0.88742 0.96867 0.0
C955 C 0.74649 0.87307 1.00178 0.0
C956 C 0.76682 0.89671 1.0055 0.0
C957 C 0.77368 0.91618 0.9905 0.0
C958 C 0.7614 0.91172 0.97246 0.0
C959 C 0.7808 0.9013 0.02481 0.0
C960 C 0.78255 0.9305 0.03245 0.0
C961 C 0.79261 0.87731 0.03579 0.0
C962 C 0.79462 0.84627 0.02837 0.0
C963 C 0.80994 0.84034 0.01152 0.0
C964 C 0.81171 0.81102 1.00456 0.0
C965 C 0.79848 0.78741 0.01441 0.0
C966 C 0.78353 0.79305 0.03128 0.0
C967 C 0.78166 0.82233 0.03829 0.0
H968 H 0.79988 0.76473 0.009 0.0
H969 H 0.813 0.04755 0.07688 0.0
H970 H 0.34001 0.64194 0.85013 0.0
H971 H 0.34898 0.61683 0.82019 0.0
H972 H 0.34328 0.5308 0.84756 0.0
H973 H 0.33565 0.55638 0.87784 0.0
H974 H 0.38205 0.52468 0.82161 0.0
H975 H 0.28398 0.56663 0.8207 0.0
H976 H 0.24538 0.60612 0.82391 0.0
H977 H 0.28432 0.65421 0.77791 0.0
H978 H 0.32406 0.61578 0.77496 0.0
H979 H 0.35953 0.45015 0.7315 0.0
H980 H 0.34972 0.47043 0.76313 0.0
H981 H 0.37832 0.55795 0.74484 0.0
H982 H 0.38886 0.53773 0.71361 0.0
H983 H 0.32419 0.55959 0.76647 0.0
H984 H 0.42462 0.5175 0.77031 0.0
H985 H 0.462 0.47669 0.76786 0.0
H986 H 0.41279 0.42514 0.80831 0.0
H987 H 0.37487 0.4655 0.8108 0.0
C988 C 0.34088 0.61767 0.8498 0.0
C989 C 0.33695 0.60128 0.86642 0.0
C990 C 0.34579 0.60316 0.83254 0.0
C991 C 0.34588 0.57157 0.83112 0.0
C992 C 0.34313 0.55511 0.84794 0.0
C993 C 0.33886 0.56976 0.86536 0.0
C994 C 0.34843 0.55608 0.81216 0.0
C995 C 0.36892 0.53216 0.80972 0.0
C996 C 0.33155 0.56543 0.79623 0.0
C997 C 0.30728 0.58837 0.79773 0.0
C998 C 0.28452 0.58573 0.81136 0.0
C999 C 0.26244 0.60796 0.81315 0.0
C1000 C 0.26236 0.63258 0.80109 0.0
C1001 C 0.28442 0.63509 0.78724 0.0
C1002 C 0.30683 0.61316 0.78556 0.0
C1003 C 0.36365 0.47372 0.73422 0.0
C1004 C 0.37508 0.49221 0.71989 0.0
C1005 C 0.3581 0.48534 0.75237 0.0
C1006 C 0.36327 0.5159 0.75661 0.0
C1007 C 0.37402 0.5344 0.74215 0.0
C1008 C 0.38015 0.5227 0.72421 0.0
C1009 C 0.35806 0.52877 0.77601 0.0
C1010 C 0.33704 0.55212 0.77849 0.0
C1011 C 0.37392 0.51854 0.79202 0.0
C1012 C 0.39674 0.49436 0.79057 0.0
C1013 C 0.42163 0.49735 0.77855 0.0
C1014 C 0.44294 0.47432 0.77718 0.0
C1015 C 0.43972 0.4483 0.78788 0.0
C1016 C 0.41522 0.44528 0.80001 0.0
C1017 C 0.39383 0.46823 0.80141 0.0
H1018 H 0.45625 0.4305 0.7868 0.0
H1019 H 0.2453 0.64978 0.80252 0.0
H1020 H 0.7501 0.18171 0.47325 0.0
H1021 H 0.73006 0.17205 0.50462 0.0
H1022 H 0.77052 0.08403 0.50384 0.0
H1023 H 0.79006 0.09352 0.47222 0.0
H1024 H 0.71714 0.07884 0.51744 0.0
H1025 H 0.79725 0.1472 0.53163 0.0
H1026 H 0.82596 0.19438 0.52924 0.0
H1027 H 0.74848 0.24438 0.54733 0.0
H1028 H 0.71919 0.1975 0.54961 0.0
H1029 H 0.69 0.03999 0.61241 0.0
H1030 H 0.71503 0.05339 0.58309 0.0
H1031 H 0.67715 0.14245 0.58671 0.0
H1032 H 0.65418 0.12955 0.61702 0.0
H1033 H 0.72788 0.1486 0.57111 0.0
H1034 H 0.65066 0.0739 0.56113 0.0
H1035 H 0.62725 0.02382 0.56453 0.0
H1036 H 0.70197 0.98336 0.53608 0.0
H1037 H 0.72749 0.03195 0.53453 0.0
C1038 C 0.75499 0.16035 0.47979 0.0
C1039 C 0.77193 0.13849 0.47007 0.0
C1040 C 0.74356 0.15485 0.49792 0.0
C1041 C 0.74885 0.12734 0.50711 0.0
C1042 C 0.76591 0.10551 0.49736 0.0
C1043 C 0.77728 0.11099 0.4792 0.0
C1044 C 0.73584 0.12078 0.52642 0.0
C1045 C 0.71997 0.09389 0.52926 0.0
C1046 C 0.73839 0.1407 0.54193 0.0
C1047 C 0.75595 0.16888 0.54061 0.0
C1048 C 0.78628 0.16828 0.53497 0.0
C1049 C 0.80267 0.19496 0.53365 0.0
C1050 C 0.78903 0.22237 0.53808 0.0
C1051 C 0.759 0.22314 0.54388 0.0
C1052 C 0.7425 0.19652 0.5452 0.0
C1053 C 0.68752 0.06266 0.60716 0.0
C1054 C 0.67024 0.08373 0.61726 0.0
C1055 C 0.70155 0.07028 0.59011 0.0
C1056 C 0.6974 0.09878 0.58187 0.0
C1057 C 0.68082 0.12019 0.59233 0.0
C1058 C 0.66765 0.11285 0.6098 0.0
C1059 C 0.70968 0.106 0.5624 0.0
C1060 C 0.72509 0.13329 0.55942 0.0
C1061 C 0.70706 0.08611 0.54677 0.0
C1062 C 0.69126 0.05675 0.54794 0.0
C1063 C 0.66239 0.05425 0.55593 0.0
C1064 C 0.64878 0.02608 0.55764 0.0
C1065 C 0.66304 1.00057 0.55056 0.0
C1066 C 0.69103 1.00301 0.54184 0.0
C1067 C 0.70531 0.0308 0.5408 0.0
H1068 H 0.65242 0.97892 0.55192 0.0
H1069 H 0.80176 0.243 0.53705 0.0
H1070 H 0.15559 0.39046 0.35801 0.0
H1071 H 0.14456 0.41461 0.32817 0.0
H1072 H 0.21372 0.48019 0.33883 0.0
H1073 H 0.22364 0.45678 0.3694 0.0
H1074 H 0.1713 0.50852 0.32261 0.0
H1075 H 0.22365 0.42047 0.29288 0.0
H1076 H 0.23474 0.36704 0.28737 0.0
H1077 H 0.14033 0.3466 0.28901 0.0
H1078 H 0.12869 0.40054 0.29309 0.0
H1079 H 0.17533 0.55864 0.22568 0.0
H1080 H 0.18671 0.53884 0.25708 0.0
H1081 H 0.11393 0.47557 0.25161 0.0
H1082 H 0.10288 0.49496 0.22041 0.0
H1083 H 0.15967 0.44721 0.26511 0.0
H1084 H 0.11225 0.54048 0.28159 0.0
H1085 H 0.1052 0.5954 0.28156 0.0
H1086 H 0.19361 0.60721 0.30461 0.0
H1087 H 0.20134 0.55234 0.30455 0.0
C1088 C 0.16853 0.41004 0.35406 0.0
C1089 C 0.19055 0.42153 0.36631 0.0
C1090 C 0.16252 0.4237 0.33665 0.0
C1091 C 0.17883 0.44899 0.33046 0.0
C1092 C 0.20069 0.46072 0.34285 0.0
C1093 C 0.20642 0.44726 0.36047 0.0
C1094 C 0.17243 0.4635 0.3115 0.0
C1095 C 0.16918 0.49498 0.31005 0.0
C1096 C 0.16886 0.44657 0.29475 0.0
C1097 C 0.17542 0.41418 0.2939 0.0
C1098 C 0.20533 0.40447 0.29233 0.0
C1099 C 0.21167 0.37416 0.28927 0.0
C1100 C 0.18829 0.35324 0.28836 0.0
C1101 C 0.15843 0.36276 0.28995 0.0
C1102 C 0.15193 0.39325 0.29239 0.0
C1103 C 0.16167 0.54062 0.23123 0.0
C1104 C 0.13813 0.5285 0.22035 0.0
C1105 C 0.16808 0.52933 0.24933 0.0
C1106 C 0.15111 0.50562 0.25716 0.0
C1107 C 0.12757 0.49373 0.24622 0.0
C1108 C 0.12118 0.50498 0.22824 0.0
C1109 C 0.15829 0.49212 0.2762 0.0
C1110 C 0.16168 0.46081 0.27766 0.0
C1111 C 0.16209 0.50936 0.29283 0.0
C1112 C 0.15749 0.54232 0.29288 0.0
C1113 C 0.13028 0.5548 0.28651 0.0
C1114 C 0.12614 0.58592 0.28654 0.0
C1115 C 0.14897 0.60479 0.29303 0.0
C1116 C 0.17596 0.59257 0.29956 0.0
C1117 C 0.18023 0.56146 0.29954 0.0
H1118 H 0.14572 0.62888 0.29304 0.0
H1119 H 0.19328 0.32971 0.28626 0.0
H1120 H 0.73465 0.65178 0.5423 0.0
H1121 H 0.71387 0.6397 0.51149 0.0
H1122 H 0.78555 0.57607 0.50229 0.0
H1123 H 0.80652 0.5883 0.5333 0.0
H1124 H 0.77645 0.60591 0.47077 0.0
H1125 H 0.71116 0.55513 0.51267 0.0
H1126 H 0.67587 0.54713 0.53882 0.0
H1127 H 0.61325 0.60884 0.51408 0.0
H1128 H 0.64843 0.61776 0.48799 0.0
H1129 H 0.70436 0.54257 0.38862 0.0
H1130 H 0.728 0.5505 0.41938 0.0
H1131 H 0.66029 0.61643 0.43299 0.0
H1132 H 0.63684 0.60859 0.40239 0.0
H1133 H 0.66843 0.58189 0.46237 0.0
H1134 H 0.7361 0.63469 0.42142 0.0
H1135 H 0.77072 0.64011 0.39463 0.0
H1136 H 0.82804 0.5716 0.41733 0.0
H1137 H 0.79354 0.56551 0.44415 0.0
C1138 C 0.74607 0.63515 0.53378 0.0
C1139 C 0.77238 0.62105 0.5405 0.0
C1140 C 0.73397 0.62807 0.51606 0.0
C1141 C 0.74764 0.60653 0.50428 0.0
C1142 C 0.77423 0.59269 0.51088 0.0
C1143 C 0.78628 0.59967 0.52873 0.0
C1144 C 0.73444 0.599 0.48515 0.0
C1145 C 0.75289 0.60024 0.46908 0.0
C1146 C 0.70349 0.59195 0.48244 0.0
C1147 C 0.68269 0.58745 0.49848 0.0
C1148 C 0.69007 0.56736 0.51293 0.0
C1149 C 0.67004 0.56259 0.52773 0.0
C1150 C 0.64239 0.57755 0.52815 0.0
C1151 C 0.63472 0.59735 0.51378 0.0
C1152 C 0.65473 0.6023 0.49899 0.0
C1153 C 0.6947 0.55899 0.39808 0.0
C1154 C 0.66861 0.57494 0.39284 0.0
C1155 C 0.7083 0.56358 0.41579 0.0
C1156 C 0.69631 0.58435 0.42882 0.0
C1157 C 0.67027 0.60026 0.42348 0.0
C1158 C 0.65683 0.59579 0.40581 0.0
C1159 C 0.71029 0.58936 0.44804 0.0
C1160 C 0.69198 0.58759 0.46411 0.0
C1161 C 0.74133 0.59578 0.45075 0.0
C1162 C 0.76208 0.59942 0.43467 0.0
C1163 C 0.75597 0.62062 0.42062 0.0
C1164 C 0.77559 0.62384 0.40545 0.0
C1165 C 0.80151 0.60615 0.40425 0.0
C1166 C 0.80792 0.58525 0.41826 0.0
C1167 C 0.78835 0.58192 0.43345 0.0
H1168 H 0.81668 0.60868 0.3925 0.0
H1169 H 0.62686 0.57374 0.53958 0.0
H1170 H 0.10588 0.98297 0.79325 0.0
H1171 H 0.11507 0.96238 0.76197 0.0
H1172 H 0.18122 0.03114 0.7519 0.0
H1173 H 0.17174 0.05204 0.78331 0.0
H1174 H 0.15059 0.02422 0.72105 0.0
H1175 H 0.19843 0.9546 0.76145 0.0
H1176 H 0.20536 0.91799 0.7868 0.0
H1177 H 0.13952 0.86003 0.76173 0.0
H1178 H 0.13144 0.89682 0.7365 0.0
H1179 H 0.21883 0.94787 0.6417 0.0
H1180 H 0.2076 0.97195 0.67193 0.0
H1181 H 0.13153 0.91322 0.67907 0.0
H1182 H 0.14239 0.88968 0.64854 0.0
H1183 H 0.16794 0.91542 0.71092 0.0
H1184 H 0.1202 0.98678 0.67059 0.0
H1185 H 0.11709 0.02237 0.64428 0.0
H1186 H 0.1874 0.07561 0.66868 0.0
H1187 H 0.19124 0.04008 0.69502 0.0
C1188 C 0.12244 0.99381 0.78443 0.0
C1189 C 0.13804 0.01929 0.79103 0.0
C1190 C 0.12788 0.98178 0.76642 0.0
C1191 C 0.14928 0.99465 0.75425 0.0
C1192 C 0.16463 0.02043 0.76075 0.0
C1193 C 0.15923 0.03245 0.77885 0.0
C1194 C 0.15518 0.9815 0.73482 0.0
C1195 C 0.15476 1.00045 0.71901 0.0
C1196 C 0.16021 0.95029 0.73159 0.0
C1197 C 0.16398 0.92875 0.74723 0.0
C1198 C 0.185 0.93432 0.76151 0.0
C1199 C 0.18917 0.91347 0.77586 0.0
C1200 C 0.17282 0.88669 0.77591 0.0
C1201 C 0.15207 0.88084 0.76171 0.0
C1202 C 0.14762 0.90173 0.74741 0.0
C1203 C 0.19911 0.94076 0.64943 0.0
C1204 C 0.18091 0.91751 0.6423 0.0
C1205 C 0.19279 0.95444 0.66686 0.0
C1206 C 0.16847 0.94479 0.67801 0.0
C1207 C 0.15028 0.92146 0.67087 0.0
C1208 C 0.15627 0.90818 0.65324 0.0
C1209 C 0.16292 0.95805 0.69734 0.0
C1210 C 0.16358 0.93914 0.71308 0.0
C1211 C 0.1584 0.98924 0.70051 0.0
C1212 C 0.15623 0.01059 0.68468 0.0
C1213 C 0.1352 1.00592 0.67026 0.0
C1214 C 0.13326 0.02611 0.65536 0.0
C1215 C 0.15209 0.05119 0.65478 0.0
C1216 C 0.17286 0.05615 0.66913 0.0
C1217 C 0.17492 0.036 0.68406 0.0
H1218 H 0.15054 0.06681 0.64324 0.0
H1219 H 0.17632 0.87035 0.78686 0.0
H1220 H 0.6991 0.39891 0.02671 0.0
H1221 H 0.7179 0.40663 0.99456 0.0
H1222 H 0.8088 0.39408 0.01388 0.0
H1223 H 0.79011 0.38542 0.04573 0.0
H1224 H 0.80097 0.44535 0.98868 0.0
H1225 H 0.77775 0.339 0.99183 0.0
H1226 H 0.74414 0.29581 0.99707 0.0
H1227 H 0.68472 0.32772 0.9541 0.0
H1228 H 0.7178 0.37136 0.9488 0.0
H1229 H 0.88912 0.41674 0.90778 0.0
H1230 H 0.86282 0.40978 0.93763 0.0
H1231 H 0.77774 0.41948 0.90943 0.0
H1232 H 0.80449 0.42855 0.87961 0.0
H1233 H 0.77763 0.37286 0.93791 0.0
H1234 H 0.80122 0.47449 0.93109 0.0
H1235 H 0.83241 0.51877 0.92443 0.0
H1236 H 0.88452 0.50209 0.97384 0.0
H1237 H 0.85517 0.45632 0.9801 0.0
C1238 C 0.72309 0.39789 0.02413 0.0
C1239 C 0.74299 0.3915 0.03897 0.0
C1240 C 0.73389 0.40225 1.00566 0.0
C1241 C 0.76497 0.40101 1.00153 0.0
C1242 C 0.7848 0.39531 0.01647 0.0
C1243 C 0.774 0.39026 0.03477 0.0
C1244 C 0.77696 0.40497 0.98176 0.0
C1245 C 0.79611 0.42929 0.97767 0.0
C1246 C 0.76984 0.38486 0.96694 0.0
C1247 C 0.75005 0.35862 0.97008 0.0
C1248 C 0.75737 0.33696 0.98363 0.0
C1249 C 0.73845 0.31237 0.98658 0.0
C1250 C 0.71226 0.30908 0.97597 0.0
C1251 C 0.70499 0.33033 0.96234 0.0
C1252 C 0.72382 0.35499 0.95935 0.0
C1253 C 0.86484 0.41784 0.90797 0.0
C1254 C 0.84912 0.42406 0.89134 0.0
C1255 C 0.8497 0.41344 0.92506 0.0
C1256 C 0.81808 0.41447 0.9261 0.0
C1257 C 0.80209 0.41861 0.90921 0.0
C1258 C 0.81742 0.42361 0.89207 0.0
C1259 C 0.80234 0.41282 0.94495 0.0
C1260 C 0.78249 0.38902 0.94888 0.0
C1261 C 0.80831 0.43384 0.95951 0.0
C1262 C 0.82624 0.46145 0.95588 0.0
C1263 C 0.81975 0.47977 0.94034 0.0
C1264 C 0.83715 0.50517 0.93661 0.0
C1265 C 0.86048 0.51318 0.94867 0.0
C1266 C 0.86651 0.49578 0.96447 0.0
C1267 C 0.84967 0.46989 0.96802 0.0
H1268 H 0.87378 0.53293 0.94575 0.0
H1269 H 0.69765 0.29002 0.97827 0.0
H1270 H 0.30167 0.06641 0.14002 0.0
H1271 H 0.31279 0.04109 0.16963 0.0
H1272 H 0.38882 0.09965 0.17797 0.0
H1273 H 0.37838 0.12395 0.14775 0.0
H1274 H 0.40327 0.04828 0.19201 0.0
H1275 H 0.31487 0.10816 0.19778 0.0
H1276 H 0.26348 0.12575 0.19052 0.0
H1277 H 0.22818 0.03906 0.20474 0.0
H1278 H 0.27941 0.02094 0.21184 0.0
H1279 H 0.41695 0.03128 0.29076 0.0
H1280 H 0.40808 0.04981 0.25906 0.0
H1281 H 0.33571 0.98639 0.25236 0.0
H1282 H 0.34436 0.96803 0.28442 0.0
H1283 H 0.31914 0.03802 0.23718 0.0
H1284 H 0.40748 0.97756 0.23063 0.0
H1285 H 0.45881 0.96015 0.23799 0.0
H1286 H 0.49381 0.04761 0.22536 0.0
H1287 H 0.4426 0.06566 0.21814 0.0
C1288 C 0.32136 0.07322 0.14788 0.0
C1289 C 0.33959 0.0967 0.14117 0.0
C1290 C 0.32747 0.05903 0.16509 0.0
C1291 C 0.35135 0.06863 0.17666 0.0
C1292 C 0.37023 0.0915 0.1696 0.0
C1293 C 0.3644 0.10535 0.15216 0.0
C1294 C 0.3559 0.05578 0.19622 0.0
C1295 C 0.38481 0.04646 0.20188 0.0
C1296 C 0.33194 0.05237 0.20935 0.0
C1297 C 0.30102 0.06322 0.20524 0.0
C1298 C 0.29612 0.09291 0.19934 0.0
C1299 C 0.26704 0.10293 0.19522 0.0
C1300 C 0.24258 0.08352 0.19717 0.0
C1301 C 0.24716 0.05407 0.20324 0.0
C1302 C 0.27623 0.04392 0.20731 0.0
C1303 C 0.39914 0.02113 0.28258 0.0
C1304 C 0.38151 0.99794 0.2903 0.0
C1305 C 0.39415 0.03172 0.26425 0.0
C1306 C 0.37146 0.01938 0.2528 0.0
C1307 C 0.35348 0.99644 0.26061 0.0
C1308 C 0.3585 0.98581 0.27903 0.0
C1309 C 0.36648 0.03066 0.23293 0.0
C1310 C 0.33752 0.03972 0.22725 0.0
C1311 C 0.39033 0.03383 0.21977 0.0
C1312 C 0.42116 0.02303 0.22401 0.0
C1313 C 0.42609 0.99314 0.22954 0.0
C1314 C 0.45517 0.98315 0.23367 0.0
C1315 C 0.47954 1.00278 0.23219 0.0
C1316 C 0.4749 0.03243 0.22652 0.0
C1317 C 0.44586 0.04255 0.22239 0.0
H1318 H 0.50204 0.99501 0.2354 0.0
H1319 H 0.22008 0.09131 0.194 0.0
H1320 H 0.36964 0.46887 0.60051 0.0
H1321 H 0.34361 0.45779 0.5713 0.0
H1322 H 0.30144 0.38113 0.59691 0.0
H1323 H 0.32777 0.39233 0.6266 0.0
H1324 H 0.32231 0.36881 0.56 0.0
H1325 H 0.26107 0.44444 0.58963 0.0
H1326 H 0.25224 0.493 0.60538 0.0
H1327 H 0.28566 0.53967 0.55714 0.0
H1328 H 0.29508 0.49136 0.54119 0.0
H1329 H 0.22391 0.34574 0.48226 0.0
H1330 H 0.24477 0.35364 0.51363 0.0
H1331 H 0.27453 0.44193 0.49736 0.0
H1332 H 0.25243 0.43446 0.46625 0.0
H1333 H 0.25799 0.44687 0.53091 0.0
H1334 H 0.32285 0.37502 0.50175 0.0
H1335 H 0.33645 0.32817 0.48529 0.0
H1336 H 0.30183 0.27637 0.5311 0.0
H1337 H 0.28766 0.32293 0.54773 0.0
C1338 C 0.35484 0.44958 0.60007 0.0
C1339 C 0.35083 0.43162 0.61614 0.0
C1340 C 0.33979 0.4433 0.58322 0.0
C1341 C 0.32007 0.41875 0.58167 0.0
C1342 C 0.31637 0.40029 0.59758 0.0
C1343 C 0.33137 0.40677 0.61463 0.0
C1344 C 0.30344 0.41293 0.56349 0.0
C1345 C 0.30779 0.38568 0.55383 0.0
C1346 C 0.28521 0.43517 0.55486 0.0
C1347 C 0.27897 0.46426 0.56427 0.0
C1348 C 0.26668 0.46505 0.58242 0.0
C1349 C 0.26156 0.49254 0.59138 0.0
C1350 C 0.26845 0.5194 0.58228 0.0
C1351 C 0.28035 0.51884 0.56417 0.0
C1352 C 0.28554 0.49142 0.55516 0.0
C1353 C 0.23464 0.36697 0.48541 0.0
C1354 C 0.23635 0.38944 0.4716 0.0
C1355 C 0.24698 0.37141 0.50341 0.0
C1356 C 0.26215 0.39823 0.50814 0.0
C1357 C 0.26319 0.42095 0.4944 0.0
C1358 C 0.25048 0.41666 0.47648 0.0
C1359 C 0.27686 0.40266 0.5272 0.0
C1360 C 0.27227 0.42977 0.53704 0.0
C1361 C 0.29536 0.38049 0.53582 0.0
C1362 C 0.30389 0.35245 0.52589 0.0
C1363 C 0.31794 0.35363 0.50825 0.0
C1364 C 0.32578 0.32713 0.4989 0.0
C1365 C 0.31992 0.29931 0.50712 0.0
C1366 C 0.3063 0.29794 0.52473 0.0
C1367 C 0.29837 0.32437 0.53414 0.0
H1368 H 0.326 0.27882 0.49985 0.0
H1369 H 0.26452 0.54066 0.58926 0.0
H1370 H 0.83911 0.9635 0.22498 0.0
H1371 H 0.82761 0.9828 0.25652 0.0
H1372 H 0.89221 0.05379 0.24874 0.0
H1373 H 0.90405 0.03425 0.21758 0.0
H1374 H 0.89862 0.03518 0.28236 0.0
H1375 H 0.81095 0.06332 0.24726 0.0
H1376 H 0.76656 0.0552 0.22719 0.0
H1377 H 0.72872 0.99607 0.26832 0.0
H1378 H 0.77308 1.00356 0.28854 0.0
H1379 H 0.85656 0.13284 0.35695 0.0
H1380 H 0.86562 0.10939 0.32649 0.0
H1381 H 0.80233 0.03947 0.34 0.0
H1382 H 0.79266 0.06353 0.37052 0.0
H1383 H 0.79458 0.0547 0.30436 0.0
H1384 H 0.88196 0.02849 0.33997 0.0
H1385 H 0.92616 0.03776 0.36 0.0
H1386 H 0.96455 0.09423 0.31763 0.0
H1387 H 0.92038 0.0856 0.29743 0.0
C1388 C 0.85085 0.98323 0.22999 0.0
C1389 C 0.87256 0.99721 0.21855 0.0
C1390 C 0.8441 0.99449 0.2481 0.0
C1391 C 0.85866 0.02026 0.25534 0.0
C1392 C 0.88047 0.03398 0.24385 0.0
C1393 C 0.88722 0.02274 0.22585 0.0
C1394 C 0.85181 0.03285 0.27477 0.0
C1395 C 0.87579 0.03971 0.28696 0.0
C1396 C 0.8221 0.03833 0.28145 0.0
C1397 C 0.79549 0.03372 0.2693 0.0
C1398 C 0.79327 0.04839 0.25195 0.0
C1399 C 0.7681 0.04394 0.24056 0.0
C1400 C 0.74488 0.02505 0.24644 0.0
C1401 C 0.74675 0.01064 0.26376 0.0
C1402 C 0.77189 0.01499 0.27519 0.0
C1403 C 0.84462 0.11236 0.35355 0.0
C1404 C 0.82398 0.1001 0.36644 0.0
C1405 C 0.84996 0.09876 0.33601 0.0
C1406 C 0.83515 0.07208 0.33068 0.0
C1407 C 0.81431 0.05987 0.34352 0.0
C1408 C 0.8089 0.07358 0.36113 0.0
C1409 C 0.84141 0.05728 0.3118 0.0
C1410 C 0.81737 0.05003 0.29975 0.0
C1411 C 0.87108 0.0515 0.3052 0.0
C1412 C 0.89774 0.05659 0.31726 0.0
C1413 C 0.89974 0.04304 0.33497 0.0
C1414 C 0.9248 0.04816 0.34635 0.0
C1415 C 0.94811 0.06663 0.34011 0.0
C1416 C 0.94646 0.07995 0.32246 0.0
C1417 C 0.92143 0.07493 0.31103 0.0
H1418 H 0.96749 0.07057 0.34894 0.0
H1419 H 0.7254 0.02164 0.23761 0.0
H1420 H 0.16971 0.63197 0.11994 0.0
H1421 H 0.1955 0.64139 0.08993 0.0
H1422 H 0.19829 0.54613 0.07937 0.0
H1423 H 0.17051 0.53713 0.1081 0.0
H1424 H 0.24504 0.6325 0.07389 0.0
H1425 H 0.20695 0.52505 0.0474 0.0
H1426 H 0.16635 0.48995 0.03859 0.0
H1427 H 0.10767 0.56463 0.02773 0.0
H1428 H 0.14705 0.59975 0.03796 0.0
H1429 H 0.31955 0.61523 0.98158 0.0
H1430 H 0.30099 0.60702 0.01379 0.0
H1431 H 0.21233 0.63496 0.99674 0.0
H1432 H 0.23074 0.64361 0.96496 0.0
H1433 H 0.21147 0.58165 0.01583 0.0
H1434 H 0.25437 0.67992 0.02376 0.0
H1435 H 0.29538 0.71714 0.02343 0.0
H1436 H 0.34447 0.6651 0.0637 0.0
H1437 H 0.30391 0.62732 0.06407 0.0
C1438 C 0.17572 0.61309 0.11111 0.0
C1439 C 0.16764 0.58378 0.11653 0.0
C1440 C 0.19053 0.61844 0.0938 0.0
C1441 C 0.19815 0.59466 0.08144 0.0
C1442 C 0.19132 0.56535 0.08751 0.0
C1443 C 0.17585 0.56009 0.10441 0.0
C1444 C 0.21356 0.60036 0.0626 0.0
C1445 C 0.23755 0.62115 0.0613 0.0
C1446 C 0.20479 0.58588 0.04565 0.0
C1447 C 0.17938 0.56486 0.04428 0.0
C1448 C 0.18485 0.53378 0.044 0.0
C1449 C 0.1621 0.51388 0.03873 0.0
C1450 C 0.13427 0.52497 0.03288 0.0
C1451 C 0.12892 0.55592 0.03272 0.0
C1452 C 0.1512 0.5758 0.03868 0.0
C1453 C 0.29614 0.61971 0.98473 0.0
C1454 C 0.27668 0.62998 0.97051 0.0
C1455 C 0.28554 0.6152 1.00325 0.0
C1456 C 0.25512 0.62048 0.00797 0.0
C1457 C 0.23585 0.63072 0.9937 0.0
C1458 C 0.24647 0.63564 0.97541 0.0
C1459 C 0.24241 0.61368 0.0272 0.0
C1460 C 0.21906 0.59273 0.02853 0.0
C1461 C 0.25194 0.62793 0.04398 0.0
C1462 C 0.27627 0.65062 0.04378 0.0
C1463 C 0.27404 0.67626 0.03241 0.0
C1464 C 0.29717 0.69749 0.03224 0.0
C1465 C 0.32256 0.69344 0.04349 0.0
C1466 C 0.32482 0.66818 0.05497 0.0
C1467 C 0.30175 0.64686 0.05517 0.0
H1468 H 0.34044 0.70992 0.04335 0.0
H1469 H 0.11708 0.50959 0.02818 0.0
H1470 H 0.66571 0.05745 0.72808 0.0
H1471 H 0.67454 0.03813 0.75984 0.0
H1472 H 0.62256 0.95922 0.7466 0.0
H1473 H 0.61294 0.97897 0.7153 0.0
H1474 H 0.60836 0.97301 0.77961 0.0
H1475 H 0.70525 0.963 0.75048 0.0
H1476 H 0.75108 0.97964 0.73403 0.0
H1477 H 0.77086 0.04078 0.77892 0.0
H1478 H 0.72491 0.02478 0.79553 0.0
H1479 H 0.66248 0.87519 0.85235 0.0
H1480 H 0.65149 0.90042 0.82258 0.0
H1481 H 0.68738 0.98297 0.84475 0.0
H1482 H 0.69779 0.95772 0.87475 0.0
H1483 H 0.70959 0.97011 0.80861 0.0
H1484 H 0.61364 0.97712 0.83835 0.0
H1485 H 0.56839 0.95893 0.85475 0.0
H1486 H 0.54768 0.90128 0.80828 0.0
H1487 H 0.59313 0.91871 0.79172 0.0
C1488 C 0.65621 0.03597 0.73194 0.0
C1489 C 0.63862 0.01985 0.71895 0.0
C1490 C 0.66144 0.0247 0.75019 0.0
C1491 C 0.64967 0.9967 0.75597 0.0
C1492 C 0.63203 0.98079 0.74289 0.0
C1493 C 0.62659 0.99214 0.7248 0.0
C1494 C 0.65511 0.98397 0.77549 0.0
C1495 C 0.63067 0.97212 0.78571 0.0
C1496 C 0.68396 0.98316 0.78415 0.0
C1497 C 0.71144 0.99297 0.77413 0.0
C1498 C 0.71923 0.98019 0.75676 0.0
C1499 C 0.74526 0.98947 0.74743 0.0
C1500 C 0.76381 0.01133 0.75539 0.0
C1501 C 0.75642 0.0239 0.77274 0.0
C1502 C 0.7304 0.01474 0.78212 0.0
C1503 C 0.66732 0.89892 0.85105 0.0
C1504 C 0.68024 0.91458 0.86618 0.0
C1505 C 0.66118 0.91337 0.83392 0.0
C1506 C 0.66839 0.94387 0.83117 0.0
C1507 C 0.68141 0.95955 0.84632 0.0
C1508 C 0.68705 0.94518 0.86361 0.0
C1509 C 0.66295 0.95893 0.81243 0.0
C1510 C 0.68734 0.97114 0.80242 0.0
C1511 C 0.63414 0.95984 0.80388 0.0
C1512 C 0.60697 0.94902 0.81387 0.0
C1513 C 0.59962 0.96032 0.8317 0.0
C1514 C 0.57391 0.95018 0.84102 0.0
C1515 C 0.5552 0.92893 0.83258 0.0
C1516 C 0.56221 0.91772 0.81481 0.0
C1517 C 0.58795 0.92772 0.80545 0.0
H1518 H 0.53523 0.92125 0.83979 0.0
H1519 H 0.78396 0.01847 0.74815 0.0
H1520 H 0.3988 0.20581 0.13898 0.0
H1521 H 0.44736 0.23065 0.13631 0.0
H1522 H 0.4423 0.22467 0.07621 0.0
H1523 H 0.3933 0.19917 0.07881 0.0
H1524 H 0.49952 0.21393 0.08724 0.0
H1525 H 0.42882 0.29189 0.10019 0.0
H1526 H 0.38725 0.31679 0.11709 0.0
H1527 H 0.44039 0.31883 0.16723 0.0
H1528 H 0.48214 0.29352 0.15071 0.0
H1529 H 0.62446 0.31696 0.07684 0.0
H1530 H 0.5747 0.29298 0.07504 0.0
H1531 H 0.56823 0.2947 0.13521 0.0
H1532 H 0.61745 0.31868 0.13707 0.0
H1533 H 0.51547 0.30951 0.12154 0.0
H1534 H 0.58494 0.22903 0.10892 0.0
H1535 H 0.62614 0.20333 0.09213 0.0
H1536 H 0.57509 0.20632 0.04116 0.0
H1537 H 0.53374 0.23242 0.05761 0.0
C1538 C 0.4078 0.20959 0.1251 0.0
C1539 C 0.39154 0.20036 0.10911 0.0
C1540 C 0.43583 0.22412 0.12359 0.0
C1541 C 0.44881 0.23034 0.10603 0.0
C1542 C 0.43307 0.22047 0.08999 0.0
C1543 C 0.40485 0.20583 0.09149 0.0
C1544 C 0.47843 0.24735 0.10468 0.0
C1545 C 0.50273 0.23509 0.0945 0.0
C1546 C 0.48339 0.27489 0.11431 0.0
C1547 C 0.45853 0.29057 0.12424 0.0
C1548 C 0.43159 0.29749 0.11485 0.0
C1549 C 0.40799 0.31169 0.12436 0.0
C1550 C 0.41115 0.31932 0.14323 0.0
C1551 C 0.43797 0.31287 0.15262 0.0
C1552 C 0.46162 0.29863 0.14318 0.0
C1553 C 0.61244 0.31236 0.0897 0.0
C1554 C 0.62545 0.31994 0.1071 0.0
C1555 C 0.58386 0.29837 0.08868 0.0
C1556 C 0.56727 0.29146 0.10501 0.0
C1557 C 0.58009 0.29955 0.12232 0.0
C1558 C 0.60858 0.31333 0.12335 0.0
C1559 C 0.53677 0.2759 0.10432 0.0
C1560 C 0.51225 0.28846 0.11416 0.0
C1561 C 0.53163 0.24871 0.09434 0.0
C1562 C 0.55641 0.23298 0.08444 0.0
C1563 C 0.58261 0.22442 0.0941 0.0
C1564 C 0.60597 0.20975 0.08465 0.0
C1565 C 0.60327 0.20328 0.06558 0.0
C1566 C 0.57717 0.2114 0.05592 0.0
C1567 C 0.55376 0.22612 0.0653 0.0
H1568 H 0.62138 0.19192 0.05828 0.0
H1569 H 0.39284 0.33027 0.15058 0.0
H1570 H 0.55358 0.63762 0.32474 0.0
H1571 H 0.5283 0.68676 0.32172 0.0
H1572 H 0.55609 0.70993 0.3777 0.0
H1573 H 0.58067 0.66153 0.38081 0.0
H1574 H 0.49994 0.72326 0.37463 0.0
H1575 H 0.58686 0.74201 0.33584 0.0
H1576 H 0.62128 0.73291 0.30932 0.0
H1577 H 0.54834 0.74517 0.27069 0.0
H1578 H 0.5134 0.75399 0.29702 0.0
H1579 H 0.47145 0.87787 0.38326 0.0
H1580 H 0.49455 0.82866 0.37993 0.0
H1581 H 0.46028 0.82177 0.32368 0.0
H1582 H 0.43771 0.87212 0.32675 0.0
H1583 H 0.5146 0.79788 0.32411 0.0
H1584 H 0.42845 0.78284 0.36329 0.0
H1585 H 0.39439 0.79142 0.39007 0.0
H1586 H 0.46611 0.77115 0.42826 0.0
H1587 H 0.50072 0.76294 0.40174 0.0
C1588 C 0.55467 0.65338 0.33628 0.0
C1589 C 0.56926 0.64518 0.35305 0.0
C1590 C 0.54013 0.68164 0.33456 0.0
C1591 C 0.53996 0.70256 0.34951 0.0
C1592 C 0.55533 0.69453 0.36595 0.0
C1593 C 0.56963 0.66656 0.36768 0.0
C1594 C 0.52308 0.73223 0.34879 0.0
C1595 C 0.5035 0.7396 0.36362 0.0
C1596 C 0.52651 0.75361 0.33421 0.0
C1597 C 0.54746 0.7483 0.3184 0.0
C1598 C 0.57812 0.74252 0.3217 0.0
C1599 C 0.59773 0.73746 0.3067 0.0
C1600 C 0.58699 0.73836 0.28833 0.0
C1601 C 0.55662 0.74441 0.28493 0.0
C1602 C 0.53691 0.74946 0.29988 0.0
C1603 C 0.46857 0.86604 0.37012 0.0
C1604 C 0.45221 0.87928 0.35535 0.0
C1605 C 0.48182 0.8375 0.36826 0.0
C1606 C 0.4788 0.82056 0.3517 0.0
C1607 C 0.46297 0.83391 0.33672 0.0
C1608 C 0.4499 0.86282 0.33851 0.0
C1609 C 0.49217 0.78919 0.35028 0.0
C1610 C 0.51092 0.78146 0.33505 0.0
C1611 C 0.48804 0.76735 0.36454 0.0
C1612 C 0.46723 0.77245 0.38051 0.0
C1613 C 0.43701 0.78042 0.3774 0.0
C1614 C 0.4176 0.7852 0.39254 0.0
C1615 C 0.42809 0.78183 0.41085 0.0
C1616 C 0.45802 0.77375 0.41406 0.0
C1617 C 0.47753 0.76901 0.39899 0.0
H1618 H 0.41306 0.78538 0.42256 0.0
H1619 H 0.60221 0.73445 0.27674 0.0
H1620 H 0.90508 0.67397 0.58079 0.0
H1621 H 0.95517 0.69763 0.5789 0.0
H1622 H 0.9362 0.74794 0.6291 0.0
H1623 H 0.88686 0.72401 0.63132 0.0
H1624 H 0.96347 0.78398 0.60135 0.0
H1625 H 0.98033 0.68898 0.63196 0.0
H1626 H 0.97862 0.63381 0.6346 0.0
H1627 H 0.03235 0.62526 0.58487 0.0
H1628 H 0.034 0.68042 0.58179 0.0
H1629 H 0.13025 0.78721 0.63443 0.0
H1630 H 0.0811 0.76305 0.63166 0.0
H1631 H 0.06759 0.80551 0.57823 0.0
H1632 H 0.11738 0.8295 0.58077 0.0
H1633 H 0.05655 0.72294 0.60608 0.0
H1634 H 0.98934 0.82137 0.57532 0.0
H1635 H 0.99078 0.87674 0.57428 0.0
H1636 H 0.03768 0.87868 0.62679 0.0
H1637 H 0.03614 0.82338 0.62826 0.0
C1638 C 0.91151 0.69013 0.5914 0.0
C1639 C 0.89161 0.6968 0.60626 0.0
C1640 C 0.94032 0.70368 0.59034 0.0
C1641 C 0.94991 0.7248 0.60387 0.0
C1642 C 0.92973 0.73193 0.61841 0.0
C1643 C 0.90134 0.71798 0.6197 0.0
C1644 C 0.98097 0.73902 0.60333 0.0
C1645 C 0.98376 0.77049 0.60216 0.0
C1646 C 1.00788 0.7219 0.60464 0.0
C1647 C 1.00699 0.68879 0.60652 0.0
C1648 C 0.99155 0.67532 0.62149 0.0
C1649 C 0.99064 0.64406 0.62309 0.0
C1650 C 1.00529 0.62604 0.60988 0.0
C1651 C 0.02096 0.63925 0.59507 0.0
C1652 C 0.02191 0.67051 0.5934 0.0
C1653 C 0.11701 0.79148 0.62199 0.0
C1654 C 0.12819 0.81059 0.60785 0.0
C1655 C 0.08872 0.77739 0.6204 0.0
C1656 C 0.07009 0.78226 0.60477 0.0
C1657 C 0.08115 0.80127 0.59053 0.0
C1658 C 0.10983 0.81501 0.59197 0.0
C1659 C 0.0391 0.7679 0.60376 0.0
C1660 C 0.0363 0.73641 0.60483 0.0
C1661 C 0.01218 0.78501 0.60236 0.0
C1662 C 0.01293 0.81825 0.60177 0.0
C1663 C 0.99988 0.83364 0.58666 0.0
C1664 C 1.00071 0.865 0.586 0.0
C1665 C 0.01441 0.88121 0.60043 0.0
C1666 C 0.02719 0.86609 0.61559 0.0
C1667 C 0.02638 0.83474 0.61633 0.0
H1668 H 0.01506 0.90548 0.59988 0.0
H1669 H 1.00457 0.60184 0.61114 0.0
H1670 H 0.94977 0.36357 0.88904 0.0
H1671 H 0.97443 0.3148 0.88729 0.0
H1672 H 0.97709 0.321 0.82714 0.0
H1673 H 0.95152 0.37003 0.82879 0.0
H1674 H 0.96565 0.26435 0.83635 0.0
H1675 H 0.0411 0.33385 0.85599 0.0
H1676 H 0.06317 0.37406 0.87537 0.0
H1677 H 0.05594 0.31835 0.92413 0.0
H1678 H 0.03343 0.27795 0.90509 0.0
H1679 H 0.07099 0.14072 0.82973 0.0
H1680 H 0.0464 0.19005 0.82763 0.0
H1681 H 0.03931 0.19345 0.88776 0.0
H1682 H 0.06412 0.14469 0.88994 0.0
H1683 H 0.05496 0.24646 0.87638 0.0
H1684 H 0.97751 0.1778 0.85681 0.0
H1685 H 0.9552 0.13779 0.83737 0.0
H1686 H 0.96675 0.19195 0.78825 0.0
H1687 H 0.98951 0.23215 0.80738 0.0
C1688 C 0.95542 0.35473 0.87534 0.0
C1689 C 0.94859 0.37131 0.85906 0.0
C1690 C 0.96986 0.32661 0.87438 0.0
C1691 C 0.97857 0.31395 0.8571 0.0
C1692 C 0.97098 0.32997 0.84072 0.0
C1693 C 0.95627 0.3582 0.84168 0.0
C1694 C 0.99576 0.28438 0.85637 0.0
C1695 C 0.98547 0.26072 0.84491 0.0
C1696 C 0.02152 0.27884 0.86767 0.0
C1697 C 0.03535 0.30296 0.87913 0.0
C1698 C 0.04405 0.33024 0.87087 0.0
C1699 C 0.05666 0.35306 0.88179 0.0
C1700 C 0.06089 0.34879 0.90098 0.0
C1701 C 0.05262 0.32164 0.90927 0.0
C1702 C 0.03997 0.29876 0.89842 0.0
C1703 C 0.06427 0.15194 0.84253 0.0
C1704 C 0.06974 0.13826 0.86001 0.0
C1705 C 0.04992 0.18028 0.84132 0.0
C1706 C 0.04037 0.19589 0.85753 0.0
C1707 C 0.04622 0.18234 0.87495 0.0
C1708 C 0.06049 0.15413 0.87617 0.0
C1709 C 0.02462 0.22622 0.85659 0.0
C1710 C 0.03523 0.25009 0.86775 0.0
C1711 C 0.99924 0.23192 0.84499 0.0
C1712 C 0.98551 0.20783 0.83349 0.0
C1713 C 0.9755 0.18108 0.84184 0.0
C1714 C 0.96274 0.15839 0.83089 0.0
C1715 C 0.95964 0.16229 0.81158 0.0
C1716 C 0.96922 0.18894 0.8032 0.0
C1717 C 0.98203 0.21169 0.81409 0.0
H1718 H 0.94975 0.14469 0.80313 0.0
H1719 H 0.07063 0.36649 0.90942 0.0
H1720 H 0.62575 0.80128 0.87095 0.0
H1721 H 0.5763 0.77813 0.87292 0.0
H1722 H 0.56966 0.80408 0.93092 0.0
H1723 H 0.62001 0.82692 0.92914 0.0
H1724 H 0.54756 0.74858 0.92684 0.0
H1725 H 0.53012 0.8412 0.89382 0.0
H1726 H 0.53866 0.87859 0.86894 0.0
H1727 H 0.51715 0.81268 0.82711 0.0
H1728 H 0.50892 0.77479 0.85169 0.0
H1729 H 0.39029 0.70853 0.9311 0.0
H1730 H 0.4394 0.73355 0.93261 0.0
H1731 H 0.45023 0.72138 0.87307 0.0
H1732 H 0.40084 0.69771 0.87146 0.0
H1733 H 0.46952 0.77265 0.87966 0.0
H1734 H 0.49037 0.67938 0.91064 0.0
H1735 H 0.4837 0.63958 0.93422 0.0
H1736 H 0.50029 0.70321 0.97825 0.0
H1737 H 0.50671 0.74349 0.95493 0.0
C1738 C 0.61393 0.80234 0.88419 0.0
C1739 C 0.62728 0.81643 0.89985 0.0
C1740 C 0.58525 0.78905 0.88527 0.0
C1741 C 0.5684 0.78958 0.90198 0.0
C1742 C 0.58177 0.8033 0.91776 0.0
C1743 C 0.61069 0.81656 0.91671 0.0
C1744 C 0.53716 0.77572 0.90282 0.0
C1745 C 0.53038 0.75427 0.91667 0.0
C1746 C 0.51451 0.78217 0.88936 0.0
C1747 C 0.51911 0.8051 0.8746 0.0
C1748 C 0.52737 0.83465 0.87931 0.0
C1749 C 0.53215 0.85593 0.86526 0.0
C1750 C 0.5285 0.84797 0.84647 0.0
C1751 C 0.51998 0.81878 0.84168 0.0
C1752 C 0.51523 0.79741 0.85566 0.0
C1753 C 0.4032 0.71099 0.91834 0.0
C1754 C 0.39125 0.70087 0.90116 0.0
C1755 C 0.43161 0.72527 0.91921 0.0
C1756 C 0.44941 0.72935 0.90299 0.0
C1757 C 0.43745 0.71893 0.88589 0.0
C1758 C 0.40897 0.70513 0.88498 0.0
C1759 C 0.47991 0.745 0.90349 0.0
C1760 C 0.48657 0.76692 0.8899 0.0
C1761 C 0.50254 0.73863 0.91702 0.0
C1762 C 0.49868 0.7145 0.93106 0.0
C1763 C 0.49238 0.68492 0.92536 0.0
C1764 C 0.48868 0.66227 0.93868 0.0
C1765 C 0.49147 0.66888 0.95773 0.0
C1766 C 0.49807 0.69814 0.9635 0.0
C1767 C 0.50176 0.72088 0.95024 0.0
H1768 H 0.4886 0.65132 0.96801 0.0
H1769 H 0.5322 0.8644 0.8356 0.0
H1770 H 0.44878 0.36321 0.62249 0.0
H1771 H 0.47329 0.31434 0.62461 0.0
H1772 H 0.47614 0.32255 0.6847 0.0
H1773 H 0.45099 0.37164 0.68265 0.0
H1774 H 0.52595 0.29707 0.63526 0.0
H1775 H 0.4799 0.25212 0.7052 0.0
H1776 H 0.43459 0.25635 0.72504 0.0
H1777 H 0.38123 0.27725 0.6767 0.0
H1778 H 0.42613 0.27278 0.65656 0.0
H1779 H 0.5699 0.14147 0.68226 0.0
H1780 H 0.54596 0.19129 0.68433 0.0
H1781 H 0.53504 0.1921 0.62442 0.0
H1782 H 0.55916 0.14311 0.62224 0.0
H1783 H 0.49171 0.21406 0.67614 0.0
H1784 H 0.53829 0.26154 0.60644 0.0
H1785 H 0.58351 0.25689 0.58658 0.0
H1786 H 0.63579 0.23091 0.6344 0.0
H1787 H 0.59101 0.23581 0.6546 0.0
C1788 C 0.45432 0.3547 0.63625 0.0
C1789 C 0.44756 0.37178 0.6524 0.0
C1790 C 0.46861 0.32652 0.63744 0.0
C1791 C 0.47672 0.31405 0.65482 0.0
C1792 C 0.46988 0.33098 0.67105 0.0
C1793 C 0.45546 0.3593 0.66986 0.0
C1794 C 0.49282 0.28388 0.65564 0.0
C1795 C 0.51809 0.27891 0.64408 0.0
C1796 C 0.48363 0.25996 0.66749 0.0
C1797 C 0.45645 0.26247 0.67943 0.0
C1798 C 0.45848 0.25755 0.69881 0.0
C1799 C 0.43287 0.25999 0.7101 0.0
C1800 C 0.40507 0.26718 0.70214 0.0
C1801 C 0.4028 0.27182 0.68286 0.0
C1802 C 0.42833 0.26937 0.6715 0.0
C1803 C 0.56259 0.15232 0.6695 0.0
C1804 C 0.56692 0.13794 0.65207 0.0
C1805 C 0.54868 0.18092 0.6707 0.0
C1806 C 0.53884 0.1962 0.65451 0.0
C1807 C 0.54282 0.18158 0.63718 0.0
C1808 C 0.55666 0.15319 0.63597 0.0
C1809 C 0.52445 0.22718 0.65551 0.0
C1810 C 0.4996 0.2323 0.6674 0.0
C1811 C 0.534 0.25133 0.64397 0.0
C1812 C 0.5612 0.24878 0.63199 0.0
C1813 C 0.55947 0.25497 0.61273 0.0
C1814 C 0.58502 0.25227 0.60141 0.0
C1815 C 0.61248 0.24352 0.60921 0.0
C1816 C 0.61448 0.23758 0.62837 0.0
C1817 C 0.58901 0.24029 0.63975 0.0
H1818 H 0.63223 0.24139 0.60042 0.0
H1819 H 0.38528 0.26907 0.71091 0.0
H1820 H 0.12049 0.32735 0.43593 0.0
H1821 H 0.07063 0.30397 0.43974 0.0
H1822 H 0.06456 0.29213 0.37995 0.0
H1823 H 0.11322 0.31591 0.37609 0.0
H1824 H 0.01298 0.30863 0.39078 0.0
H1825 H 0.08155 0.23309 0.41391 0.0
H1826 H 0.12107 0.21296 0.43462 0.0
H1827 H 0.0654 0.23021 0.48263 0.0
H1828 H 0.02568 0.2508 0.4622 0.0
H1829 H 0.90518 0.19672 0.37707 0.0
H1830 H 0.95273 0.22271 0.38105 0.0
H1831 H 0.93306 0.23659 0.43948 0.0
H1832 H 0.88465 0.21005 0.43558 0.0
H1833 H 0.99461 0.22296 0.43346 0.0
H1834 H 0.92397 0.29389 0.40908 0.0
H1835 H 0.8846 0.31206 0.38759 0.0
H1836 H 0.94509 0.30221 0.34106 0.0
H1837 H 0.9847 0.28356 0.36224 0.0
C1838 C 0.10843 0.31996 0.42359 0.0
C1839 C 0.12129 0.3238 0.40569 0.0
C1840 C 0.07985 0.30625 0.42578 0.0
C1841 C 0.06339 0.29568 0.41015 0.0
C1842 C 0.07623 0.29993 0.39235 0.0
C1843 C 0.10445 0.31365 0.39016 0.0
C1844 C 0.0329 0.28043 0.41186 0.0
C1845 C 0.00929 0.28976 0.40006 0.0
C1846 C 0.02702 0.2562 0.42429 0.0
C1847 C 0.05082 0.24381 0.43656 0.0
C1848 C 0.07784 0.23279 0.4289 0.0
C1849 C 0.10025 0.22127 0.44058 0.0
C1850 C 0.09579 0.2204 0.45993 0.0
C1851 C 0.06885 0.23096 0.46764 0.0
C1852 C 0.04638 0.24255 0.45602 0.0
C1853 C 0.91072 0.20504 0.39089 0.0
C1854 C 0.89048 0.20125 0.40597 0.0
C1855 C 0.9382 0.22013 0.39313 0.0
C1856 C 0.94669 0.23234 0.41049 0.0
C1857 C 0.92723 0.22762 0.42586 0.0
C1858 C 0.89944 0.21237 0.42362 0.0
C1859 C 0.97528 0.25075 0.41201 0.0
C1860 C 0.99838 0.24204 0.42436 0.0
C1861 C 0.98087 0.27549 0.4 0.0
C1862 C 0.95725 0.28715 0.38725 0.0
C1863 C 0.92883 0.29545 0.39425 0.0
C1864 C 0.90647 0.30584 0.38212 0.0
C1865 C 0.91232 0.30825 0.36297 0.0
C1866 C 0.94059 0.30033 0.35591 0.0
C1867 C 0.96301 0.28988 0.36797 0.0
H1868 H 0.89498 0.31628 0.3536 0.0
H1869 H 0.11317 0.21146 0.46896 0.0
H1870 H 0.09285 0.66106 0.17454 0.0
H1871 H 0.06974 0.71117 0.17548 0.0
H1872 H 1.00601 0.68354 0.13329 0.0
H1873 H 0.03052 0.63468 0.1314 0.0
H1874 H 0.01598 0.73426 0.12495 0.0
H1875 H 0.99157 0.69634 0.18545 0.0
H1876 H 1.00071 0.67445 0.21662 0.0
H1877 H 0.0558 0.75 0.2314 0.0
H1878 H 0.04726 0.77216 0.20022 0.0
H1879 H 0.92489 0.86618 0.17564 0.0
H1880 H 0.9479 0.81594 0.17689 0.0
H1881 H 1.00573 0.8394 0.13068 0.0
H1882 H 0.9815 0.88837 0.12867 0.0
H1883 H 0.99623 0.79007 0.18377 0.0
H1884 H 0.02959 0.78241 0.10507 0.0
H1885 H 0.01083 0.79973 0.07444 0.0
H1886 H 0.9214 0.80688 0.09686 0.0
H1887 H 0.93956 0.78926 0.12755 0.0
C1888 C 0.07386 0.66571 0.1655 0.0
C1889 C 0.06373 0.64358 0.15287 0.0
C1890 C 0.06031 0.69452 0.16614 0.0
C1891 C 0.03539 0.70185 0.15466 0.0
C1892 C 0.02516 0.67935 0.14227 0.0
C1893 C 0.03922 0.65103 0.14125 0.0
C1894 C 0.02037 0.73277 0.15498 0.0
C1895 C 0.01176 0.7462 0.13793 0.0
C1896 C 0.0138 0.74898 0.17172 0.0
C1897 C 0.01903 0.73574 0.19044 0.0
C1898 C 1.00579 0.70818 0.19531 0.0
C1899 C 0.01084 0.69574 0.21298 0.0
C1900 C 0.0289 0.71078 0.22596 0.0
C1901 C 0.04187 0.73834 0.22131 0.0
C1902 C 0.03691 0.75087 0.20365 0.0
C1903 C 0.9424 0.86053 0.16568 0.0
C1904 C 0.95085 0.88144 0.15186 0.0
C1905 C 0.95575 0.83164 0.16642 0.0
C1906 C 0.97834 0.82284 0.15356 0.0
C1907 C 0.98766 0.84445 0.14036 0.0
C1908 C 0.97383 0.87287 0.13931 0.0
C1909 C 0.99204 0.79138 0.15376 0.0
C1910 C 1.00046 0.77797 0.17085 0.0
C1911 C 0.99717 0.77447 0.13712 0.0
C1912 C 0.98602 0.78481 0.11865 0.0
C1913 C 1.00591 0.78757 0.10344 0.0
C1914 C 0.99538 0.79747 0.08607 0.0
C1915 C 0.96496 0.8045 0.08372 0.0
C1916 C 0.94498 0.80154 0.09872 0.0
C1917 C 0.95538 0.79162 0.1161 0.0
H1918 H 0.95687 0.81218 0.07028 0.0
H1919 H 0.03278 0.70112 0.23963 0.0
H1920 H 0.29586 0.2585 0.10203 0.0
H1921 H 0.27365 0.30913 0.10149 0.0
H1922 H 0.18641 0.27128 0.11344 0.0
H1923 H 0.20833 0.22113 0.11334 0.0
H1924 H 0.1773 0.31757 0.09382 0.0
H1925 H 0.23626 0.29799 0.14875 0.0
H1926 H 0.28254 0.28402 0.1657 0.0
H1927 H 0.32824 0.36023 0.14249 0.0
H1928 H 0.28226 0.37448 0.12524 0.0
H1929 H 0.15242 0.45431 0.1625 0.0
H1930 H 0.17677 0.40624 0.15504 0.0
H1931 H 0.166 0.42413 0.09611 0.0
H1932 H 0.14081 0.47132 0.10346 0.0
H1933 H 0.22497 0.38834 0.13851 0.0
H1934 H 0.15744 0.35956 0.07088 0.0
H1935 H 0.10698 0.36801 0.0575 0.0
H1936 H 0.07083 0.38183 0.11261 0.0
H1937 H 0.12087 0.3727 0.12636 0.0
C1938 C 0.27174 0.26096 0.10358 0.0
C1939 C 0.25377 0.23579 0.1075 0.0
C1940 C 0.25907 0.29 0.10368 0.0
C1941 C 0.22834 0.29437 0.10797 0.0
C1942 C 0.21011 0.26887 0.11018 0.0
C1943 C 0.22266 0.24005 0.10997 0.0
C1944 C 0.21538 0.325 0.11182 0.0
C1945 C 0.18795 0.33315 0.10343 0.0
C1946 C 0.22851 0.34517 0.12488 0.0
C1947 C 0.25593 0.33713 0.13558 0.0
C1948 C 0.25621 0.31171 0.14723 0.0
C1949 C 0.28238 0.30374 0.15688 0.0
C1950 C 0.30833 0.32119 0.15514 0.0
C1951 C 0.30812 0.34673 0.1438 0.0
C1952 C 0.28201 0.35478 0.1341 0.0
C1953 C 0.15515 0.44794 0.14796 0.0
C1954 C 0.14424 0.46666 0.13364 0.0
C1955 C 0.16924 0.42043 0.14367 0.0
C1956 C 0.17296 0.411 0.12496 0.0
C1957 C 0.16287 0.43021 0.11067 0.0
C1958 C 0.14846 0.4574 0.11493 0.0
C1959 C 0.18695 0.38107 0.12035 0.0
C1960 C 0.2145 0.373 0.12867 0.0
C1961 C 0.17333 0.36044 0.10774 0.0
C1962 C 0.14304 0.36583 0.09963 0.0
C1963 C 0.1387 0.36426 0.08015 0.0
C1964 C 0.11015 0.36908 0.07251 0.0
C1965 C 0.08574 0.37552 0.0842 0.0
C1966 C 0.08978 0.37694 0.10357 0.0
C1967 C 0.11823 0.37191 0.11129 0.0
H1968 H 0.06369 0.37941 0.07824 0.0
H1969 H 0.32859 0.31495 0.16258 0.0
H1970 H 0.28784 0.40857 0.35649 0.0
H1971 H 0.3362 0.43198 0.34938 0.0
H1972 H 0.37367 0.39452 0.39997 0.0
H1973 H 0.32453 0.3731 0.40774 0.0
H1974 H 0.39591 0.44428 0.39789 0.0
H1975 H 0.38949 0.36865 0.35137 0.0
H1976 H 0.36751 0.33863 0.32577 0.0
H1977 H 0.36464 0.41676 0.29073 0.0
H1978 H 0.38623 0.44736 0.31621 0.0
H1979 H 0.5471 0.47672 0.36819 0.0
H1980 H 0.5022 0.44474 0.37031 0.0
H1981 H 0.44907 0.51425 0.34456 0.0
H1982 H 0.49364 0.54671 0.34308 0.0
H1983 H 0.43837 0.4449 0.33364 0.0
H1984 H 0.44356 0.51902 0.3853 0.0
H1985 H 0.472 0.54263 0.41107 0.0
H1986 H 0.48427 0.45649 0.43683 0.0
H1987 H 0.45629 0.43232 0.41103 0.0
C1988 C 0.30648 0.40519 0.36603 0.0
C1989 C 0.30235 0.38883 0.38263 0.0
C1990 C 0.33436 0.41843 0.36188 0.0
C1991 C 0.35933 0.41468 0.37385 0.0
C1992 C 0.35512 0.39802 0.3904 0.0
C1993 C 0.32696 0.38558 0.39483 0.0
C1994 C 0.38934 0.4289 0.36947 0.0
C1995 C 0.40513 0.44384 0.38384 0.0
C1996 C 0.40216 0.42866 0.35119 0.0
C1997 C 0.38923 0.41036 0.33578 0.0
C1998 C 0.38399 0.37948 0.33825 0.0
C1999 C 0.37162 0.36235 0.32375 0.0
C2000 C 0.36461 0.37579 0.30665 0.0
C2001 C 0.37004 0.40638 0.30399 0.0
C2002 C 0.38238 0.42363 0.31845 0.0
C2003 C 0.5261 0.48474 0.36233 0.0
C2004 C 0.52397 0.51409 0.35518 0.0
C2005 C 0.50039 0.46652 0.36368 0.0
C2006 C 0.47222 0.47709 0.3576 0.0
C2007 C 0.47055 0.50553 0.34922 0.0
C2008 C 0.49607 0.524 0.34828 0.0
C2009 C 0.44405 0.46019 0.36195 0.0
C2010 C 0.42883 0.4449 0.34762 0.0
C2011 C 0.43229 0.45914 0.38034 0.0
C2012 C 0.44808 0.47385 0.39617 0.0
C2013 C 0.45247 0.5051 0.39641 0.0
C2014 C 0.46849 0.51859 0.41102 0.0
C2015 C 0.47998 0.50106 0.42556 0.0
C2016 C 0.47536 0.47003 0.42555 0.0
C2017 C 0.45941 0.45644 0.41095 0.0
H2018 H 0.4924 0.51152 0.43684 0.0
H2019 H 0.35504 0.36249 0.29545 0.0
H2020 H 0.3022 0.7896 0.59678 0.0
H2021 H 0.32351 0.73876 0.59698 0.0
H2022 H 0.23727 0.70324 0.61332 0.0
H2023 H 0.21577 0.75405 0.6126 0.0
H2024 H 0.28572 0.6906 0.63865 0.0
H2025 H 0.26417 0.68268 0.57291 0.0
H2026 H 0.26565 0.6987 0.53991 0.0
H2027 H 0.36217 0.6942 0.54035 0.0
H2028 H 0.36131 0.6786 0.57345 0.0
H2029 H 0.33208 0.53986 0.64911 0.0
H2030 H 0.30605 0.58597 0.64036 0.0
H2031 H 0.38363 0.61396 0.60853 0.0
H2032 H 0.40911 0.56682 0.61642 0.0
H2033 H 0.33825 0.63042 0.59009 0.0
H2034 H 0.36276 0.64313 0.65461 0.0
H2035 H 0.36507 0.63039 0.68815 0.0
H2036 H 0.26855 0.63049 0.6911 0.0
H2037 H 0.26566 0.64283 0.6575 0.0
C2038 C 0.2874 0.77074 0.59935 0.0
C2039 C 0.25708 0.77577 0.60411 0.0
C2040 C 0.2997 0.74167 0.59971 0.0
C2041 C 0.2821 0.71704 0.60526 0.0
C2042 C 0.25133 0.72179 0.60893 0.0
C2043 C 0.23889 0.75081 0.60821 0.0
C2044 C 0.29653 0.68733 0.60937 0.0
C2045 C 0.29673 0.67714 0.62796 0.0
C2046 C 0.31211 0.67037 0.59564 0.0
C2047 C 0.31267 0.67976 0.57573 0.0
C2048 C 0.28573 0.68539 0.56603 0.0
C2049 C 0.28645 0.69434 0.54729 0.0
C2050 C 0.31399 0.69755 0.53806 0.0
C2051 C 0.34086 0.69175 0.54753 0.0
C2052 C 0.34026 0.68283 0.56628 0.0
C2053 C 0.34372 0.55587 0.64032 0.0
C2054 C 0.3729 0.54967 0.63367 0.0
C2055 C 0.32879 0.58247 0.63536 0.0
C2056 C 0.34293 0.60423 0.6241 0.0
C2057 C 0.37203 0.59787 0.61728 0.0
C2058 C 0.38673 0.57088 0.62189 0.0
C2059 C 0.3274 0.6334 0.61947 0.0
C2060 C 0.32713 0.64367 0.60082 0.0
C2061 C 0.31236 0.65094 0.63326 0.0
C2062 C 0.314 0.64359 0.65349 0.0
C2063 C 0.34203 0.64023 0.66238 0.0
C2064 C 0.34344 0.63311 0.68141 0.0
C2065 C 0.31697 0.62955 0.69174 0.0
C2066 C 0.28903 0.6332 0.68307 0.0
C2067 C 0.28749 0.64028 0.66404 0.0
H2068 H 0.31811 0.62403 0.70647 0.0
H2069 H 0.3145 0.70447 0.52355 0.0
H2070 H 0.01072 0.4626 0.86365 0.0
H2071 H 0.06159 0.48393 0.86456 0.0
H2072 H 0.02711 0.56809 0.8441 0.0
H2073 H 0.97601 0.5471 0.84386 0.0
H2074 H 0.09212 0.54468 0.83052 0.0
H2075 H 0.02941 0.57204 0.88445 0.0
H2076 H 0.99417 0.55806 0.90967 0.0
H2077 H 0.05932 0.49641 0.93183 0.0
H2078 H 0.0948 0.50972 0.90652 0.0
H2079 H 0.20434 0.64721 0.85936 0.0
H2080 H 0.15753 0.62156 0.85174 0.0
H2081 H 0.1737 0.55811 0.89618 0.0
H2082 H 0.21991 0.58501 0.90456 0.0
H2083 H 0.11837 0.56807 0.89648 0.0
H2084 H 0.18334 0.54229 0.84552 0.0
H2085 H 0.21874 0.55115 0.81951 0.0
H2086 H 0.15207 0.60393 0.79111 0.0
H2087 H 0.11629 0.59549 0.81701 0.0
C2088 C 0.01422 0.48513 0.85839 0.0
C2089 C 0.98942 0.50291 0.85318 0.0
C2090 C 0.0433 0.49744 0.85914 0.0
C2091 C 0.04826 0.52767 0.85443 0.0
C2092 C 0.02395 0.54467 0.84764 0.0
C2093 C 0.99476 0.53255 0.8473 0.0
C2094 C 0.07748 0.54256 0.85915 0.0
C2095 C 0.09783 0.55009 0.84489 0.0
C2096 C 0.08536 0.54888 0.87794 0.0
C2097 C 0.0646 0.54166 0.89352 0.0
C2098 C 0.03614 0.55538 0.89464 0.0
C2099 C 0.01615 0.54761 0.90894 0.0
C2100 C 0.0245 0.52633 0.92229 0.0
C2101 C 0.05291 0.51288 0.92145 0.0
C2102 C 0.07297 0.52055 0.90714 0.0
C2103 C 0.19798 0.62779 0.86756 0.0
C2104 C 0.21611 0.61817 0.88256 0.0
C2105 C 0.17117 0.61284 0.86304 0.0
C2106 C 0.16203 0.58713 0.87297 0.0
C2107 C 0.17999 0.57771 0.88814 0.0
C2108 C 0.20655 0.59312 0.89295 0.0
C2109 C 0.13357 0.57062 0.86781 0.0
C2110 C 0.11311 0.56269 0.88204 0.0
C2111 C 0.12589 0.56351 0.84896 0.0
C2112 C 0.14723 0.56845 0.83328 0.0
C2113 C 0.17628 0.55589 0.83377 0.0
C2114 C 0.19638 0.5608 0.81903 0.0
C2115 C 0.18769 0.57818 0.8037 0.0
C2116 C 0.15878 0.5905 0.80301 0.0
C2117 C 0.13855 0.5856 0.81769 0.0
H2118 H 0.20335 0.58208 0.79235 0.0
H2119 H 1.00896 0.5203 0.93329 0.0
H2120 H 0.8095 0.79188 0.90951 0.0
H2121 H 0.8297 0.74083 0.90853 0.0
H2122 H 0.7396 0.70551 0.90548 0.0
H2123 H 0.71928 0.75686 0.90663 0.0
H2124 H 0.77942 0.66649 0.92472 0.0
H2125 H 0.77469 0.71907 0.86618 0.0
H2126 H 0.78399 0.76135 0.84469 0.0
H2127 H 0.87929 0.75022 0.85163 0.0
H2128 H 0.8706 0.70824 0.87343 0.0
H2129 H 0.85288 0.55549 0.85067 0.0
H2130 H 0.82675 0.60244 0.85843 0.0
H2131 H 0.85999 0.59707 0.91503 0.0
H2132 H 0.88523 0.54998 0.90757 0.0
H2133 H 0.84378 0.65508 0.86831 0.0
H2134 H 0.81492 0.6308 0.94574 0.0
H2135 H 0.80274 0.58757 0.96591 0.0
H2136 H 0.76835 0.53951 0.91837 0.0
H2137 H 0.7802 0.58249 0.89794 0.0
C2138 C 0.79392 0.77318 0.90966 0.0
C2139 C 0.76278 0.77845 0.90847 0.0
C2140 C 0.80552 0.74395 0.90879 0.0
C2141 C 0.78627 0.71921 0.9065 0.0
C2142 C 0.75498 0.72415 0.9072 0.0
C2143 C 0.74331 0.75355 0.90812 0.0
C2144 C 0.79891 0.68918 0.9011 0.0
C2145 C 0.79354 0.664 0.91242 0.0
C2146 C 0.81676 0.68553 0.88477 0.0
C2147 C 0.82199 0.71067 0.87157 0.0
C2148 C 0.79763 0.72578 0.86323 0.0
C2149 C 0.80278 0.74966 0.85098 0.0
C2150 C 0.8322 0.75844 0.84682 0.0
C2151 C 0.85652 0.74338 0.85488 0.0
C2152 C 0.8515 0.71955 0.86718 0.0
C2153 C 0.85459 0.56427 0.86478 0.0
C2154 C 0.87115 0.54871 0.87846 0.0
C2155 C 0.83959 0.59121 0.86923 0.0
C2156 C 0.84078 0.60333 0.88746 0.0
C2157 C 0.85785 0.58806 0.90101 0.0
C2158 C 0.87258 0.56108 0.89663 0.0
C2159 C 0.825 0.63229 0.89216 0.0
C2160 C 0.8297 0.65739 0.88065 0.0
C2161 C 0.80615 0.63565 0.90813 0.0
C2162 C 0.79858 0.60982 0.92032 0.0
C2163 C 0.80462 0.61107 0.93962 0.0
C2164 C 0.79781 0.58659 0.95108 0.0
C2165 C 0.78471 0.56085 0.94343 0.0
C2166 C 0.77845 0.55949 0.92428 0.0
C2167 C 0.7853 0.58386 0.91274 0.0
H2168 H 0.77951 0.54191 0.95232 0.0
H2169 H 0.8362 0.77687 0.83734 0.0
H2170 H 0.70682 0.60015 0.59945 0.0
H2171 H 0.65872 0.57593 0.6069 0.0
H2172 H 0.66768 0.60357 0.66451 0.0
H2173 H 0.71517 0.62813 0.65717 0.0
H2174 H 0.64304 0.53117 0.62851 0.0
H2175 H 0.59995 0.61683 0.68419 0.0
H2176 H 0.60308 0.67123 0.69053 0.0
H2177 H 0.61929 0.68807 0.63224 0.0
H2178 H 0.61585 0.63387 0.62551 0.0
H2179 H 0.52274 0.45856 0.67233 0.0
H2180 H 0.56905 0.48793 0.66922 0.0
H2181 H 0.51782 0.56172 0.64656 0.0
H2182 H 0.47148 0.53306 0.65073 0.0
H2183 H 0.56241 0.58472 0.66328 0.0
H2184 H 0.55438 0.50506 0.61841 0.0
H2185 H 0.54812 0.45259 0.60794 0.0
H2186 H 0.62885 0.42751 0.63695 0.0
H2187 H 0.63537 0.47972 0.64784 0.0
C2188 C 0.69849 0.60122 0.61369 0.0
C2189 C 0.71499 0.61631 0.62765 0.0
C2190 C 0.67096 0.58722 0.61797 0.0
C2191 C 0.65916 0.58808 0.63627 0.0
C2192 C 0.67579 0.60294 0.65021 0.0
C2193 C 0.70317 0.61694 0.64597 0.0
C2194 C 0.62975 0.57324 0.64092 0.0
C2195 C 0.62547 0.54293 0.63613 0.0
C2196 C 0.60628 0.58855 0.65049 0.0
C2197 C 0.60795 0.62124 0.6544 0.0
C2198 C 0.60406 0.63216 0.67272 0.0
C2199 C 0.60591 0.66296 0.67638 0.0
C2200 C 0.61148 0.68308 0.66181 0.0
C2201 C 0.61509 0.67246 0.64353 0.0
C2202 C 0.61323 0.6417 0.63979 0.0
C2203 C 0.52126 0.48154 0.66749 0.0
C2204 C 0.49336 0.49354 0.66203 0.0
C2205 C 0.54785 0.49819 0.66534 0.0
C2206 C 0.54733 0.52683 0.657 0.0
C2207 C 0.51915 0.5397 0.65291 0.0
C2208 C 0.49248 0.52332 0.65547 0.0
C2209 C 0.57595 0.54237 0.65128 0.0
C2210 C 0.58005 0.57287 0.65578 0.0
C2211 C 0.59884 0.52752 0.64085 0.0
C2212 C 0.59523 0.49623 0.63406 0.0
C2213 C 0.57073 0.48833 0.62261 0.0
C2214 C 0.56713 0.45864 0.61661 0.0
C2215 C 0.58805 0.43675 0.6218 0.0
C2216 C 0.61266 0.44449 0.63296 0.0
C2217 C 0.61633 0.47412 0.63904 0.0
H2218 H 0.5852 0.41378 0.61715 0.0
H2219 H 0.61293 0.70691 0.66468 0.0
H2220 H 0.79392 0.27461 0.41357 0.0
H2221 H 0.76168 0.3192 0.4134 0.0
H2222 H 0.68689 0.26517 0.39497 0.0
H2223 H 0.71921 0.22025 0.39541 0.0
H2224 H 0.69661 0.3144 0.37216 0.0
H2225 H 0.68509 0.29702 0.43769 0.0
H2226 H 0.70193 0.28715 0.46996 0.0
H2227 H 0.75105 0.37009 0.47033 0.0
H2228 H 0.73487 0.38027 0.43794 0.0
H2229 H 0.60135 0.44186 0.36638 0.0
H2230 H 0.62194 0.39255 0.37453 0.0
H2231 H 0.69334 0.43566 0.40547 0.0
H2232 H 0.67101 0.48485 0.39858 0.0
H2233 H 0.68136 0.38889 0.423 0.0
H2234 H 0.69815 0.4038 0.3566 0.0
H2235 H 0.68184 0.41431 0.32424 0.0
H2236 H 0.62516 0.33633 0.32505 0.0
H2237 H 0.64085 0.32557 0.35747 0.0
C2238 C 0.7703 0.27204 0.41019 0.0
C2239 C 0.75903 0.2438 0.40483 0.0
C2240 C 0.75188 0.29762 0.40998 0.0
C2241 C 0.72173 0.29575 0.40416 0.0
C2242 C 0.71002 0.26729 0.39955 0.0
C2243 C 0.72841 0.24152 0.40004 0.0
C2244 C 0.70355 0.32381 0.40138 0.0
C2245 C 0.69282 0.33045 0.38336 0.0
C2246 C 0.69923 0.34529 0.41581 0.0
C2247 C 0.70895 0.33929 0.43531 0.0
C2248 C 0.69968 0.31305 0.44459 0.0
C2249 C 0.70907 0.30742 0.46292 0.0
C2250 C 0.7276 0.32795 0.47218 0.0
C2251 C 0.73671 0.35419 0.46314 0.0
C2252 C 0.72741 0.35992 0.4448 0.0
C2253 C 0.62128 0.44067 0.37507 0.0
C2254 C 0.63468 0.46709 0.38179 0.0
C2255 C 0.63333 0.41243 0.37958 0.0
C2256 C 0.66001 0.40994 0.39016 0.0
C2257 C 0.67293 0.43657 0.39723 0.0
C2258 C 0.66023 0.46477 0.39325 0.0
C2259 C 0.67474 0.3799 0.39362 0.0
C2260 C 0.68496 0.37287 0.41176 0.0
C2261 C 0.67897 0.35817 0.37923 0.0
C2262 C 0.67042 0.36407 0.35951 0.0
C2263 C 0.68217 0.38894 0.34987 0.0
C2264 C 0.67301 0.39496 0.33154 0.0
C2265 C 0.65234 0.37609 0.32265 0.0
C2266 C 0.64108 0.35098 0.33199 0.0
C2267 C 0.65011 0.34489 0.35032 0.0
H2268 H 0.64504 0.3809 0.30853 0.0
H2269 H 0.73484 0.32355 0.48637 0.0
H2270 H 0.81041 0.3726 0.15217 0.0
H2271 H 0.85649 0.3984 0.16117 0.0
H2272 H 0.84848 0.45606 0.11301 0.0
H2273 H 0.80258 0.42941 0.10354 0.0
H2274 H 0.90453 0.44299 0.11712 0.0
H2275 H 0.83001 0.47873 0.15989 0.0
H2276 H 0.78926 0.47465 0.18321 0.0
H2277 H 0.84907 0.42918 0.22089 0.0
H2278 H 0.89007 0.43259 0.19768 0.0
H2279 H 1.00496 0.55478 0.14798 0.0
H2280 H 0.95429 0.53323 0.14661 0.0
H2281 H 0.986 0.45421 0.17511 0.0
H2282 H 0.03707 0.47524 0.17576 0.0
H2283 H 0.91763 0.47983 0.18226 0.0
H2284 H 0.99184 0.44369 0.13655 0.0
H2285 H 0.03221 0.4561 0.11416 0.0
H2286 H 0.96938 0.5069 0.08133 0.0
H2287 H 0.92927 0.49633 0.10404 0.0
C2288 C 0.81838 0.39074 0.14341 0.0
C2289 C 0.80248 0.39898 0.12715 0.0
C2290 C 0.84479 0.40571 0.14869 0.0
C2291 C 0.85589 0.42989 0.13812 0.0
C2292 C 0.84049 0.43769 0.12157 0.0
C2293 C 0.81416 0.42239 0.11612 0.0
C2294 C 0.88361 0.44667 0.14427 0.0
C2295 C 0.90705 0.45117 0.13134 0.0
C2296 C 0.88753 0.45745 0.16289 0.0
C2297 C 0.86304 0.45568 0.17697 0.0
C2298 C 0.83442 0.4677 0.17311 0.0
C2299 C 0.81128 0.46552 0.18631 0.0
C2300 C 0.81655 0.45161 0.2035 0.0
C2301 C 0.84501 0.43993 0.20756 0.0
C2302 C 0.86822 0.44199 0.19439 0.0
C2303 C 1.00079 0.53358 0.15492 0.0
C2304 C 0.02495 0.51703 0.16239 0.0
C2305 C 0.97182 0.5211 0.15395 0.0
C2306 C 0.96624 0.49202 0.16072 0.0
C2307 C 0.98961 0.47678 0.16996 0.0
C2308 C 0.0188 0.48895 0.1705 0.0
C2309 C 0.93815 0.47572 0.15513 0.0
C2310 C 0.91485 0.4714 0.16811 0.0
C2311 C 0.9341 0.46535 0.13655 0.0
C2312 C 0.95774 0.46978 0.1222 0.0
C2313 C 0.98679 0.45787 0.12468 0.0
C2314 C 0.00969 0.46469 0.11197 0.0
C2315 C 1.00357 0.48281 0.09652 0.0
C2316 C 0.97438 0.49345 0.09348 0.0
C2317 C 0.95156 0.48713 0.1063 0.0
H2318 H 0.02145 0.48861 0.08693 0.0
H2319 H 0.79861 0.44993 0.2137 0.0
H2320 H 0.80235 0.75453 0.61463 0.0
H2321 H 0.77973 0.80465 0.61725 0.0
H2322 H 0.69793 0.77126 0.59252 0.0
H2323 H 0.72021 0.72087 0.59049 0.0
H2324 H 0.71591 0.83243 0.58118 0.0
H2325 H 0.69749 0.77238 0.63565 0.0
H2326 H 0.71193 0.7399 0.66206 0.0
H2327 H 0.76695 0.8104 0.68457 0.0
H2328 H 0.75322 0.8432 0.65808 0.0
H2329 H 0.6167 0.94877 0.6095 0.0
H2330 H 0.6409 0.90089 0.60244 0.0
H2331 H 0.70751 0.91836 0.64503 0.0
H2332 H 0.68191 0.96547 0.65296 0.0
H2333 H 0.69796 0.86398 0.64689 0.0
H2334 H 0.71992 0.92293 0.59194 0.0
H2335 H 0.71178 0.9531 0.56363 0.0
H2336 H 0.65358 0.88492 0.5413 0.0
H2337 H 0.66171 0.85415 0.56954 0.0
C2338 C 0.78014 0.75825 0.60882 0.0
C2339 C 0.76337 0.7339 0.60183 0.0
C2340 C 0.76699 0.7868 0.61067 0.0
C2341 C 0.73695 0.79169 0.60533 0.0
C2342 C 0.72112 0.76808 0.59675 0.0
C2343 C 0.73405 0.73936 0.59529 0.0
C2344 C 0.72132 0.82052 0.61004 0.0
C2345 C 0.71167 0.83925 0.59554 0.0
C2346 C 0.7163 0.82972 0.62879 0.0
C2347 C 0.72457 0.81014 0.64477 0.0
C2348 C 0.71291 0.78087 0.64612 0.0
C2349 C 0.72091 0.76243 0.66113 0.0
C2350 C 0.74035 0.77309 0.67497 0.0
C2351 C 0.75188 0.8022 0.67382 0.0
C2352 C 0.74399 0.82073 0.65882 0.0
C2353 C 0.6365 0.94242 0.6174 0.0
C2354 C 0.64735 0.96115 0.63179 0.0
C2355 C 0.65067 0.915 0.61318 0.0
C2356 C 0.67685 0.90584 0.62274 0.0
C2357 C 0.6875 0.92452 0.63728 0.0
C2358 C 0.67284 0.95162 0.64184 0.0
C2359 C 0.69266 0.87671 0.61793 0.0
C2360 C 0.70224 0.85759 0.63248 0.0
C2361 C 0.69785 0.86718 0.59917 0.0
C2362 C 0.6912 0.88645 0.58288 0.0
C2363 C 0.70511 0.91457 0.58109 0.0
C2364 C 0.7006 0.93169 0.56499 0.0
C2365 C 0.68214 0.92093 0.55062 0.0
C2366 C 0.66794 0.89315 0.55241 0.0
C2367 C 0.67254 0.87585 0.56843 0.0
H2368 H 0.67885 0.934 0.53805 0.0
H2369 H 0.74636 0.75883 0.68663 0.0
H2370 H 0.80383 0.92347 0.90496 0.0
H2371 H 0.85111 0.94927 0.89714 0.0
H2372 H 0.86261 0.89148 0.84922 0.0
H2373 H 0.815 0.86631 0.85654 0.0
H2374 H 0.91667 0.90224 0.87754 0.0
H2375 H 0.84403 0.94981 0.83617 0.0
H2376 H 0.79633 0.97615 0.82968 0.0
H2377 H 0.82212 0.0475 0.86686 0.0
H2378 H 0.86981 0.02131 0.87378 0.0
H2379 H 0.04485 0.9706 0.8409 0.0
H2380 H 0.9945 0.94824 0.84042 0.0
H2381 H 0.95927 0.02587 0.86932 0.0
H2382 H 1.00922 0.04885 0.8687 0.0
H2383 H 0.91604 1.00436 0.8499 0.0
H2384 H 0.98712 0.95999 0.89188 0.0
H2385 H 0.03474 0.93519 0.90059 0.0
H2386 H 0.01179 0.85909 0.86651 0.0
H2387 H 0.96439 0.88377 0.85718 0.0
C2388 C 0.81649 0.91616 0.89281 0.0
C2389 C 0.80555 0.89282 0.88138 0.0
C2390 C 0.84347 0.931 0.88832 0.0
C2391 C 0.86041 0.92239 0.87255 0.0
C2392 C 0.84995 0.89857 0.86143 0.0
C2393 C 0.82266 0.88424 0.86563 0.0
C2394 C 0.8889 0.93835 0.86758 0.0
C2395 C 0.91658 0.92438 0.87125 0.0
C2396 C 0.88884 0.9676 0.85989 0.0
C2397 C 0.8603 0.98343 0.85567 0.0
C2398 C 0.83939 0.97095 0.84311 0.0
C2399 C 0.81238 0.98589 0.83932 0.0
C2400 C 0.80615 0.01343 0.8479 0.0
C2401 C 0.82695 0.02614 0.86025 0.0
C2402 C 0.85398 0.01127 0.8641 0.0
C2403 C 0.026 0.98357 0.84617 0.0
C2404 C 0.03089 0.01176 0.85446 0.0
C2405 C 0.99724 0.97049 0.8463 0.0
C2406 C 0.973 0.98475 0.85548 0.0
C2407 C 0.97738 0.01412 0.86226 0.0
C2408 C 1.00598 0.02748 0.86171 0.0
C2409 C 0.94424 0.9682 0.85965 0.0
C2410 C 0.91637 0.98211 0.85603 0.0
C2411 C 0.94414 0.93904 0.86776 0.0
C2412 C 0.97233 0.92387 0.87368 0.0
C2413 C 0.9923 0.93804 0.88616 0.0
C2414 C 0.01926 0.92401 0.8912 0.0
C2415 C 0.02628 0.89559 0.88411 0.0
C2416 C 1.00633 0.88112 0.87197 0.0
C2417 C 0.97944 0.89514 0.86678 0.0
H2418 H 0.04716 0.88477 0.88803 0.0
H2419 H 0.78524 0.02497 0.84494 0.0
H2420 H 0.84998 0.0633 0.15865 0.0
H2421 H 0.82181 0.10887 0.15082 0.0
H2422 H 0.84106 0.09475 0.09229 0.0
H2423 H 0.86908 0.04915 0.1 0.0
H2424 H 0.83911 0.15921 0.13679 0.0
H2425 H 0.7838 0.12495 0.06508 0.0
H2426 H 0.75561 0.08298 0.05093 0.0
H2427 H 0.73714 0.04749 0.10556 0.0
H2428 H 0.76507 0.08928 0.12004 0.0
H2429 H 0.80159 0.29281 0.09394 0.0
H2430 H 0.82017 0.2412 0.09554 0.0
H2431 H 0.72973 0.20968 0.10492 0.0
H2432 H 0.71104 0.26149 0.10298 0.0
H2433 H 0.76225 0.16717 0.08671 0.0
H2434 H 0.77199 0.225 0.14169 0.0
H2435 H 0.78551 0.26903 0.16086 0.0
H2436 H 0.87891 0.25542 0.14779 0.0
H2437 H 0.86587 0.2115 0.12829 0.0
C2438 C 0.84811 0.06975 0.14409 0.0
C2439 C 0.8621 0.05249 0.13002 0.0
C2440 C 0.83195 0.09592 0.13961 0.0
C2441 C 0.82899 0.10541 0.1209 0.0
C2442 C 0.84252 0.08791 0.1068 0.0
C2443 C 0.85887 0.06187 0.11128 0.0
C2444 C 0.81356 0.13452 0.11626 0.0
C2445 C 0.82241 0.16075 0.12577 0.0
C2446 C 0.79091 0.13689 0.10232 0.0
C2447 C 0.77685 0.11009 0.09363 0.0
C2448 C 0.77392 0.10806 0.07406 0.0
C2449 C 0.75783 0.0844 0.06599 0.0
C2450 C 0.74442 0.0627 0.07734 0.0
C2451 C 0.74747 0.06437 0.09678 0.0
C2452 C 0.76364 0.08791 0.10492 0.0
C2453 C 0.78546 0.27471 0.09528 0.0
C2454 C 0.75481 0.2812 0.09802 0.0
C2455 C 0.79617 0.2452 0.09654 0.0
C2456 C 0.77651 0.2215 0.10086 0.0
C2457 C 0.74542 0.22751 0.10166 0.0
C2458 C 0.73465 0.25714 0.10028 0.0
C2459 C 0.78884 0.1916 0.10666 0.0
C2460 C 0.77932 0.1654 0.0975 0.0
C2461 C 0.80984 0.18897 0.1215 0.0
C2462 C 0.81793 0.21513 0.13338 0.0
C2463 C 0.7954 0.23151 0.1428 0.0
C2464 C 0.80297 0.25644 0.15374 0.0
C2465 C 0.83305 0.26507 0.1555 0.0
C2466 C 0.85561 0.24872 0.14638 0.0
C2467 C 0.84815 0.22379 0.1354 0.0
H2468 H 0.83888 0.28438 0.16397 0.0
H2469 H 0.73191 0.04444 0.07107 0.0
H2470 H 0.47526 0.05741 0.35045 0.0
H2471 H 0.52562 0.0786 0.34874 0.0
H2472 H 0.56325 0.98934 0.34605 0.0
H2473 H 0.51233 0.96807 0.34834 0.0
H2474 H 0.59093 0.01783 0.37175 0.0
H2475 H 0.57015 0.04339 0.30899 0.0
H2476 H 0.54146 0.0632 0.28219 0.0
H2477 H 0.54311 0.15145 0.30648 0.0
H2478 H 0.57142 0.13211 0.33357 0.0
H2479 H 0.72626 0.12611 0.34718 0.0
H2480 H 0.68092 0.09898 0.33756 0.0
H2481 H 0.65069 0.0971 0.39493 0.0
H2482 H 0.69632 0.12329 0.40467 0.0
H2483 H 0.62407 0.10851 0.33732 0.0
H2484 H 0.60967 0.03623 0.40455 0.0
H2485 H 0.64155 0.0125 0.4286 0.0
H2486 H 0.71588 0.01026 0.39016 0.0
H2487 H 0.68434 0.03356 0.3658 0.0
C2488 C 0.49416 0.0423 0.34851 0.0
C2489 C 0.48968 0.01107 0.34908 0.0
C2490 C 0.52316 0.05448 0.34766 0.0
C2491 C 0.54868 0.03577 0.34722 0.0
C2492 C 0.54412 1.00443 0.34639 0.0
C2493 C 0.51491 0.99219 0.3473 0.0
C2494 C 0.57959 0.04898 0.34983 0.0
C2495 C 0.59816 0.03753 0.36407 0.0
C2496 C 0.58975 0.07441 0.33968 0.0
C2497 C 0.57277 0.08623 0.32339 0.0
C2498 C 0.56422 0.06699 0.30869 0.0
C2499 C 0.54805 0.07814 0.29343 0.0
C2500 C 0.54043 0.10855 0.29265 0.0
C2501 C 0.54902 0.12789 0.30711 0.0
C2502 C 0.56518 0.11685 0.32241 0.0
C2503 C 0.70994 0.11999 0.35777 0.0
C2504 C 0.71519 0.12686 0.37676 0.0
C2505 C 0.6839 0.10443 0.35222 0.0
C2506 C 0.66231 0.09532 0.36548 0.0
C2507 C 0.66715 0.103 0.38438 0.0
C2508 C 0.6933 0.11826 0.38995 0.0
C2509 C 0.63481 0.07794 0.35964 0.0
C2510 C 0.61691 0.08865 0.34485 0.0
C2511 C 0.62566 0.0513 0.36891 0.0
C2512 C 0.64468 0.03689 0.38341 0.0
C2513 C 0.63277 0.03054 0.4012 0.0
C2514 C 0.65079 0.01718 0.41489 0.0
C2515 C 0.68074 0.00995 0.41093 0.0
C2516 C 0.69271 0.01596 0.39324 0.0
C2517 C 0.67477 0.02926 0.37949 0.0
H2518 H 0.69467 0.99965 0.42155 0.0
H2519 H 0.5279 0.11714 0.28083 0.0
H2520 H 0.21764 0.24867 0.41915 0.0
H2521 H 0.24813 0.20306 0.41728 0.0
H2522 H 0.32365 0.25522 0.3979 0.0
H2523 H 0.29319 0.30112 0.40021 0.0
H2524 H 0.26775 0.17966 0.38652 0.0
H2525 H 0.38958 0.21545 0.40503 0.0
H2526 H 0.41562 0.25018 0.42654 0.0
H2527 H 0.34063 0.2469 0.46443 0.0
H2528 H 0.31434 0.21182 0.4433 0.0
H2529 H 0.36651 0.06887 0.35009 0.0
H2530 H 0.34338 0.11726 0.35787 0.0
H2531 H 0.36179 0.10226 0.41637 0.0
H2532 H 0.38563 0.0544 0.40866 0.0
H2533 H 0.37102 0.15889 0.40933 0.0
H2534 H 0.29038 0.09038 0.39643 0.0
H2535 H 0.26175 0.05347 0.37784 0.0
H2536 H 0.2497 0.11852 0.33421 0.0
H2537 H 0.27861 0.15571 0.35244 0.0
C2538 C 0.24113 0.25057 0.41525 0.0
C2539 C 0.25308 0.27855 0.41007 0.0
C2540 C 0.25848 0.22438 0.41392 0.0
C2541 C 0.28823 0.2254 0.40726 0.0
C2542 C 0.3009 0.25367 0.40325 0.0
C2543 C 0.28353 0.28002 0.40473 0.0
C2544 C 0.30467 0.19673 0.40292 0.0
C2545 C 0.29036 0.17524 0.39155 0.0
C2546 C 0.33408 0.1905 0.40953 0.0
C2547 C 0.34987 0.21126 0.42246 0.0
C2548 C 0.3787 0.22205 0.41799 0.0
C2549 C 0.39349 0.2418 0.43011 0.0
C2550 C 0.37974 0.25082 0.44681 0.0
C2551 C 0.35121 0.23999 0.45146 0.0
C2552 C 0.33634 0.22021 0.4394 0.0
C2553 C 0.36574 0.07588 0.3646 0.0
C2554 C 0.3778 0.05745 0.37871 0.0
C2555 C 0.35238 0.10361 0.36907 0.0
C2556 C 0.35031 0.11347 0.38779 0.0
C2557 C 0.363 0.09539 0.40183 0.0
C2558 C 0.37655 0.06782 0.39737 0.0
C2559 C 0.33412 0.142 0.39285 0.0
C2560 C 0.34847 0.16344 0.40428 0.0
C2561 C 0.3044 0.14797 0.38667 0.0
C2562 C 0.2869 0.12572 0.37572 0.0
C2563 C 0.28179 0.09674 0.38281 0.0
C2564 C 0.26549 0.07578 0.37235 0.0
C2565 C 0.25398 0.08362 0.35483 0.0
C2566 C 0.25867 0.11247 0.34776 0.0
C2567 C 0.27499 0.1335 0.35816 0.0
H2568 H 0.24137 0.06736 0.34675 0.0
H2569 H 0.39121 0.26614 0.45616 0.0
H2570 H 1.00636 0.97164 0.15226 0.0
H2571 H 0.05701 0.9929 0.15058 0.0
H2572 H 0.02196 0.07906 0.16778 0.0
H2573 H 0.97117 0.05795 0.16864 0.0
H2574 H 0.05336 0.08783 0.13884 0.0
H2575 H 0.0732 0.0342 0.19523 0.0
H2576 H 0.07505 0.99053 0.21635 0.0
H2577 H 0.1342 0.94478 0.1782 0.0
H2578 H 0.1324 0.98803 0.15672 0.0
H2579 H 0.22207 0.121 0.16106 0.0
H2580 H 0.17413 0.09737 0.1686 0.0
H2581 H 0.15209 0.09312 0.1099 0.0
H2582 H 0.20028 0.11704 0.10219 0.0
H2583 H 0.14971 0.04462 0.16111 0.0
H2584 H 0.07281 0.10341 0.10591 0.0
H2585 H 0.07136 0.15078 0.08822 0.0
H2586 H 0.12495 0.19365 0.13049 0.0
H2587 H 0.12646 0.1466 0.14853 0.0
C2588 C 0.00972 0.9947 0.15666 0.0
C2589 C 0.9848 0.0129 0.16111 0.0
C2590 C 0.03877 1.00704 0.15547 0.0
C2591 C 0.04369 0.03781 0.15898 0.0
C2592 C 0.01904 0.05537 0.16484 0.0
C2593 C 0.98999 0.04314 0.16575 0.0
C2594 C 0.07361 0.05226 0.15493 0.0
C2595 C 0.07436 0.07829 0.14376 0.0
C2596 C 0.10131 0.04031 0.16142 0.0
C2597 C 0.10243 0.01425 0.17429 0.0
C2598 C 0.08642 0.01474 0.19128 0.0
C2599 C 0.08749 0.99007 0.20333 0.0
C2600 C 0.10467 0.96487 0.1986 0.0
C2601 C 0.12088 0.9643 0.18183 0.0
C2602 C 0.11986 0.9889 0.16972 0.0
C2603 C 0.20713 0.1151 0.14967 0.0
C2604 C 0.21519 0.12118 0.13097 0.0
C2605 C 0.17965 0.10137 0.15405 0.0
C2606 C 0.15918 0.09351 0.13989 0.0
C2607 C 0.16724 0.09921 0.12115 0.0
C2608 C 0.1949 0.11287 0.11674 0.0
C2609 C 0.12934 0.07989 0.14489 0.0
C2610 C 0.12865 0.05403 0.15616 0.0
C2611 C 0.10164 0.09249 0.13894 0.0
C2612 C 0.10037 0.12114 0.12835 0.0
C2613 C 0.08441 0.12285 0.1114 0.0
C2614 C 0.08351 0.14971 0.10133 0.0
C2615 C 0.09824 0.17516 0.10816 0.0
C2616 C 0.11373 0.17386 0.12514 0.0
C2617 C 0.11466 0.14706 0.13528 0.0
H2618 H 0.09754 0.19593 0.10033 0.0
H2619 H 0.10547 0.9458 0.20795 0.0
H2620 H 0.1902 0.97159 0.86187 0.0
H2621 H 0.21719 0.92601 0.8711 0.0
H2622 H 0.13901 0.89648 0.90192 0.0
H2623 H 0.11314 0.94316 0.8939 0.0
H2624 H 0.18148 0.88361 0.92182 0.0
H2625 H 0.16832 0.86696 0.85577 0.0
H2626 H 0.17246 0.8743 0.82168 0.0
H2627 H 0.26885 0.87473 0.82583 0.0
H2628 H 0.26529 0.86807 0.86001 0.0
H2629 H 0.21583 0.72542 0.91987 0.0
H2630 H 0.19682 0.77699 0.91897 0.0
H2631 H 0.28555 0.80867 0.90481 0.0
H2632 H 0.30469 0.75704 0.90601 0.0
H2633 H 0.24227 0.82194 0.87807 0.0
H2634 H 0.25302 0.83262 0.94443 0.0
H2635 H 0.24642 0.81801 0.97744 0.0
H2636 H 0.15043 0.82257 0.97119 0.0
H2637 H 0.15643 0.83679 0.93806 0.0
C2638 C 0.17873 0.95513 0.87042 0.0
C2639 C 0.14949 0.96084 0.87705 0.0
C2640 C 0.19413 0.92888 0.87566 0.0
C2641 C 0.18024 0.9071 0.88707 0.0
C2642 C 0.15062 0.91268 0.89325 0.0
C2643 C 0.13564 0.93933 0.88853 0.0
C2644 C 0.19661 0.87915 0.89321 0.0
C2645 C 0.19439 0.87005 0.91207 0.0
C2646 C 0.21446 0.86144 0.88087 0.0
C2647 C 0.2165 0.86739 0.86049 0.0
C2648 C 0.19038 0.8691 0.84946 0.0
C2649 C 0.19264 0.87304 0.8301 0.0
C2650 C 0.22092 0.87496 0.8216 0.0
C2651 C 0.24698 0.87328 0.83244 0.0
C2652 C 0.24484 0.8695 0.8518 0.0
C2653 C 0.23163 0.74359 0.91768 0.0
C2654 C 0.26186 0.73723 0.91339 0.0
C2655 C 0.22067 0.77309 0.91696 0.0
C2656 C 0.23967 0.79681 0.9117 0.0
C2657 C 0.27045 0.7908 0.90893 0.0
C2658 C 0.28151 0.7613 0.90993 0.0
C2659 C 0.2266 0.82654 0.90638 0.0
C2660 C 0.22947 0.83584 0.88771 0.0
C2661 C 0.20885 0.84397 0.91874 0.0
C2662 C 0.20519 0.83557 0.9387 0.0
C2663 C 0.2305 0.83028 0.95005 0.0
C2664 C 0.22686 0.82211 0.9688 0.0
C2665 C 0.19803 0.81931 0.9764 0.0
C2666 C 0.17276 0.82474 0.96528 0.0
C2667 C 0.17627 0.8329 0.94652 0.0
H2668 H 0.19526 0.81297 0.99092 0.0
H2669 H 0.22274 0.87755 0.80661 0.0
H2670 H 0.30978 0.87215 0.65577 0.0
H2671 H 0.35634 0.89806 0.66366 0.0
H2672 H 0.34998 0.94954 0.61275 0.0
H2673 H 0.30379 0.9226 0.60438 0.0
H2674 H 0.40506 0.93714 0.6172 0.0
H2675 H 0.33286 0.97914 0.65847 0.0
H2676 H 0.29207 0.98033 0.68187 0.0
H2677 H 0.34935 0.93644 0.72173 0.0
H2678 H 0.39044 0.93468 0.69847 0.0
H2679 H 0.50786 0.04979 0.64613 0.0
H2680 H 0.45679 0.029 0.64561 0.0
H2681 H 0.48895 0.9486 0.67237 0.0
H2682 H 0.54034 0.96888 0.67218 0.0
H2683 H 0.42034 0.97857 0.68108 0.0
H2684 H 0.49194 0.93581 0.6346 0.0
H2685 H 0.53197 0.94671 0.61166 0.0
H2686 H 0.47078 1.00194 0.58044 0.0
H2687 H 0.43088 0.99246 0.60364 0.0
C2688 C 0.31824 0.88895 0.64618 0.0
C2689 C 0.30279 0.89532 0.62944 0.0
C2690 C 0.34491 0.90402 0.65082 0.0
C2691 C 0.35666 0.92648 0.6391 0.0
C2692 C 0.34155 0.93249 0.62216 0.0
C2693 C 0.31503 0.91704 0.61736 0.0
C2694 C 0.3848 0.94326 0.64442 0.0
C2695 C 0.40804 0.94625 0.63116 0.0
C2696 C 0.38925 0.95563 0.6626 0.0
C2697 C 0.36465 0.95655 0.67666 0.0
C2698 C 0.33671 0.96955 0.67218 0.0
C2699 C 0.31355 0.97036 0.68543 0.0
C2700 C 0.31812 0.95846 0.70327 0.0
C2701 C 0.34586 0.94567 0.7079 0.0
C2702 C 0.36911 0.94479 0.6947 0.0
C2703 C 0.50376 0.02838 0.65283 0.0
C2704 C 0.52804 0.01126 0.65962 0.0
C2705 C 0.47457 0.01638 0.65237 0.0
C2706 C 0.46895 0.98721 0.65895 0.0
C2707 C 0.49262 0.97125 0.66739 0.0
C2708 C 0.52199 0.98296 0.66743 0.0
C2709 C 0.44025 0.97161 0.654 0.0
C2710 C 0.41707 0.96906 0.66724 0.0
C2711 C 0.43546 0.96028 0.63571 0.0
C2712 C 0.45862 0.96381 0.62098 0.0
C2713 C 0.48714 0.95047 0.62291 0.0
C2714 C 0.50984 0.95647 0.6099 0.0
C2715 C 0.50405 0.97534 0.59473 0.0
C2716 C 0.47539 0.98767 0.59231 0.0
C2717 C 0.45274 0.98203 0.60541 0.0
H2718 H 0.52181 0.98047 0.58493 0.0
H2719 H 0.30019 0.95926 0.71352 0.0
loop_
_geom_bond_atom_site_label_1
_geom_bond_atom_site_label_2
_geom_bond_distance
_geom_bond_site_symmetry_2
_ccdc_geom_bond_type
Dy0 O4 2.398 . S
Dy0 O5 2.491 . S
Dy0 O6 2.403 . S
Dy0 O7 2.664 . S
Dy0 O11 2.326 . S
Dy0 O15 2.310 . S
Dy0 O16 2.351 . S
C1 O12 1.185 . S
C1 O13 1.355 . S
C2 O4 1.185 . S
C2 O5 1.355 . S
Dy3 O7 2.310 . S
Dy3 O10 2.351 . S
Dy3 O12 2.398 . S
Dy3 O13 2.491 . S
Dy3 O14 2.403 . S
Dy3 O15 2.664 . S
Dy3 O17 2.326 . S
O4 Dy0 2.398 . S
O4 C2 1.185 . S
O5 Dy0 2.491 . S
O5 C2 1.355 . S
O6 Dy0 2.403 . S
O6 C8 1.254 . S
O7 Dy0 2.664 . S
O7 Dy3 2.310 . S
O7 C8 1.268 . S
C8 O6 1.254 . S
C8 O7 1.268 . S
C9 O14 1.254 . S
C9 O15 1.268 . S
O10 Dy3 2.351 . S
O10 C18 1.249 . S
O11 Dy0 2.326 . S
O11 C18 1.267 . S
O12 C1 1.185 . S
O12 Dy3 2.398 . S
O13 C1 1.355 . S
O13 Dy3 2.491 . S
O14 Dy3 2.403 . S
O14 C9 1.254 . S
O15 Dy0 2.310 . S
O15 Dy3 2.664 . S
O15 C9 1.268 . S
O16 Dy0 2.351 . S
O16 C19 1.249 . S
O17 Dy3 2.326 . S
O17 C19 1.267 . S
C18 O10 1.249 . S
C18 O11 1.267 . S
C19 O16 1.249 . S
C19 O17 1.267 . S
Dy20 O24 2.398 . S
Dy20 O25 2.491 . S
Dy20 O26 2.403 . S
Dy20 O27 2.664 . S
Dy20 O31 2.326 . S
Dy20 O35 2.310 . S
Dy20 O36 2.351 . S
C21 O32 1.185 . S
C21 O33 1.355 . S
C22 O24 1.185 . S
C22 O25 1.355 . S
Dy23 O27 2.310 . S
Dy23 O30 2.351 . S
Dy23 O32 2.398 . S
Dy23 O33 2.491 . S
Dy23 O34 2.403 . S
Dy23 O35 2.664 . S
Dy23 O37 2.326 . S
O24 Dy20 2.398 . S
O24 C22 1.185 . S
O25 Dy20 2.491 . S
O25 C22 1.355 . S
O26 Dy20 2.403 . S
O26 C28 1.254 . S
O27 Dy20 2.664 . S
O27 Dy23 2.310 . S
O27 C28 1.268 . S
C28 O26 1.254 . S
C28 O27 1.268 . S
C29 O34 1.254 . S
C29 O35 1.268 . S
O30 Dy23 2.351 . S
O30 C38 1.249 . S
O31 Dy20 2.326 . S
O31 C38 1.267 . S
O32 C21 1.185 . S
O32 Dy23 2.398 . S
O33 C21 1.355 . S
O33 Dy23 2.491 . S
O34 Dy23 2.403 . S
O34 C29 1.254 . S
O35 Dy20 2.310 . S
O35 Dy23 2.664 . S
O35 C29 1.268 . S
O36 Dy20 2.351 . S
O36 C39 1.249 . S
O37 Dy23 2.326 . S
O37 C39 1.267 . S
C38 O30 1.249 . S
C38 O31 1.267 . S
C39 O36 1.249 . S
C39 O37 1.267 . S
Dy40 O44 2.398 . S
Dy40 O45 2.491 . S
Dy40 O46 2.403 . S
Dy40 O47 2.664 . S
Dy40 O51 2.326 . S
Dy40 O55 2.310 . S
Dy40 O56 2.351 . S
C41 O52 1.185 . S
C41 O53 1.355 . S
C42 O44 1.185 . S
C42 O45 1.355 . S
Dy43 O47 2.310 . S
Dy43 O50 2.351 . S
Dy43 O52 2.398 . S
Dy43 O53 2.491 . S
Dy43 O54 2.403 . S
Dy43 O55 2.664 . S
Dy43 O57 2.326 . S
O44 Dy40 2.398 . S
O44 C42 1.185 . S
O45 Dy40 2.491 . S
O45 C42 1.355 . S
O46 Dy40 2.403 . S
O46 C48 1.254 . S
O47 Dy40 2.664 . S
O47 Dy43 2.310 . S
O47 C48 1.268 . S
C48 O46 1.254 . S
C48 O47 1.268 . S
C49 O54 1.254 . S
C49 O55 1.268 . S
O50 Dy43 2.351 . S
O50 C58 1.249 . S
O51 Dy40 2.326 . S
O51 C58 1.267 . S
O52 C41 1.185 . S
O52 Dy43 2.398 . S
O53 C41 1.355 . S
O53 Dy43 2.491 . S
O54 Dy43 2.403 . S
O54 C49 1.254 . S
O55 Dy40 2.310 . S
O55 Dy43 2.664 . S
O55 C49 1.268 . S
O56 Dy40 2.351 . S
O56 C59 1.249 . S
O57 Dy43 2.326 . S
O57 C59 1.267 . S
C58 O50 1.249 . S
C58 O51 1.267 . S
C59 O56 1.249 . S
C59 O57 1.267 . S
Dy60 O64 2.398 . S
Dy60 O65 2.491 . S
Dy60 O66 2.403 . S
Dy60 O67 2.664 . S
Dy60 O71 2.326 . S
Dy60 O75 2.310 . S
Dy60 O76 2.351 . S
C61 O72 1.185 . S
C61 O73 1.355 . S
C62 O64 1.185 . S
C62 O65 1.355 . S
Dy63 O67 2.310 . S
Dy63 O70 2.351 . S
Dy63 O72 2.398 . S
Dy63 O73 2.491 . S
Dy63 O74 2.403 . S
Dy63 O75 2.664 . S
Dy63 O77 2.326 . S
O64 Dy60 2.398 . S
O64 C62 1.185 . S
O65 Dy60 2.491 . S
O65 C62 1.355 . S
O66 Dy60 2.403 . S
O66 C68 1.254 . S
O67 Dy60 2.664 . S
O67 Dy63 2.310 . S
O67 C68 1.268 . S
C68 O66 1.254 . S
C68 O67 1.268 . S
C69 O74 1.254 . S
C69 O75 1.268 . S
O70 Dy63 2.351 . S
O70 C78 1.249 . S
O71 Dy60 2.326 . S
O71 C78 1.267 . S
O72 C61 1.185 . S
O72 Dy63 2.398 . S
O73 C61 1.355 . S
O73 Dy63 2.491 . S
O74 Dy63 2.403 . S
O74 C69 1.254 . S
O75 Dy60 2.310 . S
O75 Dy63 2.664 . S
O75 C69 1.268 . S
O76 Dy60 2.351 . S
O76 C79 1.249 . S
O77 Dy63 2.326 . S
O77 C79 1.267 . S
C78 O70 1.249 . S
C78 O71 1.267 . S
C79 O76 1.249 . S
C79 O77 1.267 . S
Dy80 O84 2.398 . S
Dy80 O85 2.491 . S
Dy80 O86 2.403 . S
Dy80 O87 2.664 . S
Dy80 O91 2.326 . S
Dy80 O95 2.310 . S
Dy80 O96 2.351 . S
C81 O92 1.185 . S
C81 O93 1.355 . S
C82 O84 1.185 . S
C82 O85 1.355 . S
Dy83 O87 2.310 . S
Dy83 O90 2.351 . S
Dy83 O92 2.398 . S
Dy83 O93 2.491 . S
Dy83 O94 2.403 . S
Dy83 O95 2.664 . S
Dy83 O97 2.326 . S
O84 Dy80 2.398 . S
O84 C82 1.185 . S
O85 Dy80 2.491 . S
O85 C82 1.355 . S
O86 Dy80 2.403 . S
O86 C88 1.254 . S
O87 Dy80 2.664 . S
O87 Dy83 2.310 . S
O87 C88 1.268 . S
C88 O86 1.254 . S
C88 O87 1.268 . S
C89 O94 1.254 . S
C89 O95 1.268 . S
O90 Dy83 2.351 . S
O90 C98 1.249 . S
O91 Dy80 2.326 . S
O91 C98 1.267 . S
O92 C81 1.185 . S
O92 Dy83 2.398 . S
O93 C81 1.355 . S
O93 Dy83 2.491 . S
O94 Dy83 2.403 . S
O94 C89 1.254 . S
O95 Dy80 2.310 . S
O95 Dy83 2.664 . S
O95 C89 1.268 . S
O96 Dy80 2.351 . S
O96 C99 1.249 . S
O97 Dy83 2.326 . S
O97 C99 1.267 . S
C98 O90 1.249 . S
C98 O91 1.267 . S
C99 O96 1.249 . S
C99 O97 1.267 . S
Dy100 O104 2.398 . S
Dy100 O105 2.491 . S
Dy100 O106 2.403 . S
Dy100 O107 2.664 . S
Dy100 O111 2.326 . S
Dy100 O115 2.310 . S
Dy100 O116 2.351 . S
C101 O112 1.185 . S
C101 O113 1.355 . S
C102 O104 1.185 . S
C102 O105 1.355 . S
Dy103 O107 2.310 . S
Dy103 O110 2.351 . S
Dy103 O112 2.398 . S
Dy103 O113 2.491 . S
Dy103 O114 2.403 . S
Dy103 O115 2.664 . S
Dy103 O117 2.326 . S
O104 Dy100 2.398 . S
O104 C102 1.185 . S
O105 Dy100 2.491 . S
O105 C102 1.355 . S
O106 Dy100 2.403 . S
O106 C108 1.254 . S
O107 Dy100 2.664 . S
O107 Dy103 2.310 . S
O107 C108 1.268 . S
C108 O106 1.254 . S
C108 O107 1.268 . S
C109 O114 1.254 . S
C109 O115 1.268 . S
O110 Dy103 2.351 . S
O110 C118 1.249 . S
O111 Dy100 2.326 . S
O111 C118 1.267 . S
O112 C101 1.185 . S
O112 Dy103 2.398 . S
O113 C101 1.355 . S
O113 Dy103 2.491 . S
O114 Dy103 2.403 . S
O114 C109 1.254 . S
O115 Dy100 2.310 . S
O115 Dy103 2.664 . S
O115 C109 1.268 . S
O116 Dy100 2.351 . S
O116 C119 1.249 . S
O117 Dy103 2.326 . S
O117 C119 1.267 . S
C118 O110 1.249 . S
C118 O111 1.267 . S
C119 O116 1.249 . S
C119 O117 1.267 . S
Dy120 O124 2.398 . S
Dy120 O125 2.491 . S
Dy120 O126 2.403 . S
Dy120 O127 2.664 . S
Dy120 O131 2.326 . S
Dy120 O135 2.310 . S
Dy120 O136 2.351 . S
C121 O132 1.185 . S
C121 O133 1.355 . S
C122 O124 1.185 . S
C122 O125 1.355 . S
Dy123 O127 2.310 . S
Dy123 O130 2.351 . S
Dy123 O132 2.398 . S
Dy123 O133 2.491 . S
Dy123 O134 2.403 . S
Dy123 O135 2.664 . S
Dy123 O137 2.326 . S
O124 Dy120 2.398 . S
O124 C122 1.185 . S
O125 Dy120 2.491 . S
O125 C122 1.355 . S
O126 Dy120 2.403 . S
O126 C128 1.254 . S
O127 Dy120 2.664 . S
O127 Dy123 2.310 . S
O127 C128 1.268 . S
C128 O126 1.254 . S
C128 O127 1.268 . S
C129 O134 1.254 . S
C129 O135 1.268 . S
O130 Dy123 2.351 . S
O130 C138 1.249 . S
O131 Dy120 2.326 . S
O131 C138 1.267 . S
O132 C121 1.185 . S
O132 Dy123 2.398 . S
O133 C121 1.355 . S
O133 Dy123 2.491 . S
O134 Dy123 2.403 . S
O134 C129 1.254 . S
O135 Dy120 2.310 . S
O135 Dy123 2.664 . S
O135 C129 1.268 . S
O136 Dy120 2.351 . S
O136 C139 1.249 . S
O137 Dy123 2.326 . S
O137 C139 1.267 . S
C138 O130 1.249 . S
C138 O131 1.267 . S
C139 O136 1.249 . S
C139 O137 1.267 . S
Dy140 O144 2.398 . S
Dy140 O145 2.491 . S
Dy140 O146 2.403 . S
Dy140 O147 2.664 . S
Dy140 O151 2.326 . S
Dy140 O155 2.310 . S
Dy140 O156 2.351 . S
C141 O152 1.185 . S
C141 O153 1.355 . S
C142 O144 1.185 . S
C142 O145 1.355 . S
Dy143 O147 2.310 . S
Dy143 O150 2.351 . S
Dy143 O152 2.398 . S
Dy143 O153 2.491 . S
Dy143 O154 2.403 . S
Dy143 O155 2.664 . S
Dy143 O157 2.326 . S
O144 Dy140 2.398 . S
O144 C142 1.185 . S
O145 Dy140 2.491 . S
O145 C142 1.355 . S
O146 Dy140 2.403 . S
O146 C148 1.254 . S
O147 Dy140 2.664 . S
O147 Dy143 2.310 . S
O147 C148 1.268 . S
C148 O146 1.254 . S
C148 O147 1.268 . S
C149 O154 1.254 . S
C149 O155 1.268 . S
O150 Dy143 2.351 . S
O150 C158 1.249 . S
O151 Dy140 2.326 . S
O151 C158 1.267 . S
O152 C141 1.185 . S
O152 Dy143 2.398 . S
O153 C141 1.355 . S
O153 Dy143 2.491 . S
O154 Dy143 2.403 . S
O154 C149 1.254 . S
O155 Dy140 2.310 . S
O155 Dy143 2.664 . S
O155 C149 1.268 . S
O156 Dy140 2.351 . S
O156 C159 1.249 . S
O157 Dy143 2.326 . S
O157 C159 1.267 . S
C158 O150 1.249 . S
C158 O151 1.267 . S
C159 O156 1.249 . S
C159 O157 1.267 . S
Dy160 O164 2.398 . S
Dy160 O165 2.491 . S
Dy160 O166 2.403 . S
Dy160 O167 2.664 . S
Dy160 O171 2.326 . S
Dy160 O175 2.310 . S
Dy160 O176 2.351 . S
C161 O172 1.185 . S
C161 O173 1.355 . S
C162 O164 1.185 . S
C162 O165 1.355 . S
Dy163 O167 2.310 . S
Dy163 O170 2.351 . S
Dy163 O172 2.398 . S
Dy163 O173 2.491 . S
Dy163 O174 2.403 . S
Dy163 O175 2.664 . S
Dy163 O177 2.326 . S
O164 Dy160 2.398 . S
O164 C162 1.185 . S
O165 Dy160 2.491 . S
O165 C162 1.355 . S
O166 Dy160 2.403 . S
O166 C168 1.254 . S
O167 Dy160 2.664 . S
O167 Dy163 2.310 . S
O167 C168 1.268 . S
C168 O166 1.254 . S
C168 O167 1.268 . S
C169 O174 1.254 . S
C169 O175 1.268 . S
O170 Dy163 2.351 . S
O170 C178 1.249 . S
O171 Dy160 2.326 . S
O171 C178 1.267 . S
O172 C161 1.185 . S
O172 Dy163 2.398 . S
O173 C161 1.355 . S
O173 Dy163 2.491 . S
O174 Dy163 2.403 . S
O174 C169 1.254 . S
O175 Dy160 2.310 . S
O175 Dy163 2.664 . S
O175 C169 1.268 . S
O176 Dy160 2.351 . S
O176 C179 1.249 . S
O177 Dy163 2.326 . S
O177 C179 1.267 . S
C178 O170 1.249 . S
C178 O171 1.267 . S
C179 O176 1.249 . S
C179 O177 1.267 . S
Dy180 O184 2.398 . S
Dy180 O185 2.491 . S
Dy180 O186 2.395 1_545 S
Dy180 O187 2.664 . S
Dy180 O191 2.326 . S
Dy180 O195 2.310 . S
Dy180 O196 2.351 1_545 S
C181 O192 1.185 . S
C181 O193 1.355 . S
C182 O184 1.185 . S
C182 O185 1.355 . S
Dy183 O187 2.310 . S
Dy183 O190 2.351 . S
Dy183 O192 2.398 . S
Dy183 O193 2.491 . S
Dy183 O194 2.403 . S
Dy183 O195 2.664 . S
Dy183 O197 2.326 1_545 S
O184 Dy180 2.398 . S
O184 C182 1.185 . S
O185 Dy180 2.491 . S
O185 C182 1.355 . S
O186 Dy180 2.395 1_565 S
O186 C188 1.250 1_565 S
O187 Dy180 2.664 . S
O187 Dy183 2.310 . S
O187 C188 1.268 . S
C188 O186 1.250 1_545 S
C188 O187 1.268 . S
C189 O194 1.254 . S
C189 O195 1.268 . S
O190 Dy183 2.351 . S
O190 C198 1.249 . S
O191 Dy180 2.326 . S
O191 C198 1.267 . S
O192 C181 1.185 . S
O192 Dy183 2.398 . S
O193 C181 1.355 . S
O193 Dy183 2.491 . S
O194 Dy183 2.403 . S
O194 C189 1.254 . S
O195 Dy180 2.310 . S
O195 Dy183 2.664 . S
O195 C189 1.268 . S
O196 Dy180 2.351 1_565 S
O196 C199 1.249 . S
O197 Dy183 2.326 1_565 S
O197 C199 1.267 . S
C198 O190 1.249 . S
C198 O191 1.267 . S
C199 O196 1.249 . S
C199 O197 1.267 . S
Dy200 O204 2.398 . S
Dy200 O205 2.491 . S
Dy200 O206 2.403 . S
Dy200 O207 2.664 . S
Dy200 O211 2.326 . S
Dy200 O215 2.310 . S
Dy200 O216 2.351 . S
C201 O212 1.185 . S
C201 O213 1.355 . S
C202 O204 1.185 . S
C202 O205 1.355 . S
Dy203 O207 2.310 . S
Dy203 O210 2.351 . S
Dy203 O212 2.398 . S
Dy203 O213 2.491 . S
Dy203 O214 2.403 . S
Dy203 O215 2.664 . S
Dy203 O217 2.326 . S
O204 Dy200 2.398 . S
O204 C202 1.185 . S
O205 Dy200 2.491 . S
O205 C202 1.355 . S
O206 Dy200 2.403 . S
O206 C208 1.254 . S
O207 Dy200 2.664 . S
O207 Dy203 2.310 . S
O207 C208 1.268 . S
C208 O206 1.254 . S
C208 O207 1.268 . S
C209 O214 1.254 . S
C209 O215 1.268 . S
O210 Dy203 2.351 . S
O210 C218 1.249 . S
O211 Dy200 2.326 . S
O211 C218 1.267 . S
O212 C201 1.185 . S
O212 Dy203 2.398 . S
O213 C201 1.355 . S
O213 Dy203 2.491 . S
O214 Dy203 2.403 . S
O214 C209 1.254 . S
O215 Dy200 2.310 . S
O215 Dy203 2.664 . S
O215 C209 1.268 . S
O216 Dy200 2.351 . S
O216 C219 1.249 . S
O217 Dy203 2.326 . S
O217 C219 1.267 . S
C218 O210 1.249 . S
C218 O211 1.267 . S
C219 O216 1.249 . S
C219 O217 1.267 . S
Dy220 O224 2.398 . S
Dy220 O225 2.491 . S
Dy220 O226 2.395 1_565 S
Dy220 O227 2.664 . S
Dy220 O231 2.326 . S
Dy220 O235 2.310 . S
Dy220 O236 2.351 1_565 S
C221 O232 1.185 . S
C221 O233 1.355 . S
C222 O224 1.185 . S
C222 O225 1.355 . S
Dy223 O227 2.310 . S
Dy223 O230 2.351 . S
Dy223 O232 2.398 . S
Dy223 O233 2.491 . S
Dy223 O234 2.403 . S
Dy223 O235 2.664 . S
Dy223 O237 2.326 1_565 S
O224 Dy220 2.398 . S
O224 C222 1.185 . S
O225 Dy220 2.491 . S
O225 C222 1.355 . S
O226 Dy220 2.395 1_545 S
O226 C228 1.250 1_545 S
O227 Dy220 2.664 . S
O227 Dy223 2.310 . S
O227 C228 1.268 . S
C228 O226 1.250 1_565 S
C228 O227 1.268 . S
C229 O234 1.254 . S
C229 O235 1.268 . S
O230 Dy223 2.351 . S
O230 C238 1.249 . S
O231 Dy220 2.326 . S
O231 C238 1.267 . S
O232 C221 1.185 . S
O232 Dy223 2.398 . S
O233 C221 1.355 . S
O233 Dy223 2.491 . S
O234 Dy223 2.403 . S
O234 C229 1.254 . S
O235 Dy220 2.310 . S
O235 Dy223 2.664 . S
O235 C229 1.268 . S
O236 Dy220 2.351 1_545 S
O236 C239 1.249 . S
O237 Dy223 2.326 1_545 S
O237 C239 1.267 . S
C238 O230 1.249 . S
C238 O231 1.267 . S
C239 O236 1.249 . S
C239 O237 1.267 . S
Dy240 O244 2.398 . S
Dy240 O245 2.491 . S
Dy240 O246 2.403 . S
Dy240 O247 2.664 . S
Dy240 O251 2.326 . S
Dy240 O255 2.310 . S
Dy240 O256 2.351 . S
C241 O252 1.185 . S
C241 O253 1.355 . S
C242 O244 1.185 . S
C242 O245 1.355 . S
Dy243 O247 2.310 . S
Dy243 O250 2.351 . S
Dy243 O252 2.398 . S
Dy243 O253 2.491 . S
Dy243 O254 2.403 . S
Dy243 O255 2.664 . S
Dy243 O257 2.326 . S
O244 Dy240 2.398 . S
O244 C242 1.185 . S
O245 Dy240 2.491 . S
O245 C242 1.355 . S
O246 Dy240 2.403 . S
O246 C248 1.254 . S
O247 Dy240 2.664 . S
O247 Dy243 2.310 . S
O247 C248 1.268 . S
C248 O246 1.254 . S
C248 O247 1.268 . S
C249 O254 1.254 . S
C249 O255 1.268 . S
O250 Dy243 2.351 . S
O250 C258 1.249 . S
O251 Dy240 2.326 . S
O251 C258 1.267 . S
O252 C241 1.185 . S
O252 Dy243 2.398 . S
O253 C241 1.355 . S
O253 Dy243 2.491 . S
O254 Dy243 2.403 . S
O254 C249 1.254 . S
O255 Dy240 2.310 . S
O255 Dy243 2.664 . S
O255 C249 1.268 . S
O256 Dy240 2.351 . S
O256 C259 1.249 . S
O257 Dy243 2.326 . S
O257 C259 1.267 . S
C258 O250 1.249 . S
C258 O251 1.267 . S
C259 O256 1.249 . S
C259 O257 1.267 . S
Dy260 O264 2.398 . S
Dy260 O265 2.491 . S
Dy260 O266 2.403 . S
Dy260 O267 2.664 . S
Dy260 O271 2.326 1_565 S
Dy260 O275 2.310 . S
Dy260 O276 2.351 . S
C261 O272 1.185 . S
C261 O273 1.355 . S
C262 O264 1.185 . S
C262 O265 1.355 . S
Dy263 O267 2.310 . S
Dy263 O270 2.351 1_565 S
Dy263 O272 2.398 . S
Dy263 O273 2.491 . S
Dy263 O274 2.395 1_565 S
Dy263 O275 2.664 . S
Dy263 O277 2.326 . S
O264 Dy260 2.398 . S
O264 C262 1.185 . S
O265 Dy260 2.491 . S
O265 C262 1.355 . S
O266 Dy260 2.403 . S
O266 C268 1.254 . S
O267 Dy260 2.664 . S
O267 Dy263 2.310 . S
O267 C268 1.268 . S
C268 O266 1.254 . S
C268 O267 1.268 . S
C269 O274 1.250 1_565 S
C269 O275 1.268 . S
O270 Dy263 2.351 1_545 S
O270 C278 1.249 . S
O271 Dy260 2.326 1_545 S
O271 C278 1.267 . S
O272 C261 1.185 . S
O272 Dy263 2.398 . S
O273 C261 1.355 . S
O273 Dy263 2.491 . S
O274 Dy263 2.395 1_545 S
O274 C269 1.250 1_545 S
O275 Dy260 2.310 . S
O275 Dy263 2.664 . S
O275 C269 1.268 . S
O276 Dy260 2.351 . S
O276 C279 1.249 . S
O277 Dy263 2.326 . S
O277 C279 1.267 . S
C278 O270 1.249 . S
C278 O271 1.267 . S
C279 O276 1.249 . S
C279 O277 1.267 . S
Dy280 O284 2.398 . S
Dy280 O285 2.491 . S
Dy280 O286 2.403 . S
Dy280 O287 2.664 . S
Dy280 O291 2.326 . S
Dy280 O295 2.310 . S
Dy280 O296 2.351 . S
C281 O292 1.185 . S
C281 O293 1.355 . S
C282 O284 1.185 . S
C282 O285 1.355 . S
Dy283 O287 2.310 . S
Dy283 O290 2.351 . S
Dy283 O292 2.398 . S
Dy283 O293 2.491 . S
Dy283 O294 2.403 . S
Dy283 O295 2.664 . S
Dy283 O297 2.326 . S
O284 Dy280 2.398 . S
O284 C282 1.185 . S
O285 Dy280 2.491 . S
O285 C282 1.355 . S
O286 Dy280 2.403 . S
O286 C288 1.254 . S
O287 Dy280 2.664 . S
O287 Dy283 2.310 . S
O287 C288 1.268 . S
C288 O286 1.254 . S
C288 O287 1.268 . S
C289 O294 1.254 . S
C289 O295 1.268 . S
O290 Dy283 2.351 . S
O290 C298 1.249 . S
O291 Dy280 2.326 . S
O291 C298 1.267 . S
O292 C281 1.185 . S
O292 Dy283 2.398 . S
O293 C281 1.355 . S
O293 Dy283 2.491 . S
O294 Dy283 2.403 . S
O294 C289 1.254 . S
O295 Dy280 2.310 . S
O295 Dy283 2.664 . S
O295 C289 1.268 . S
O296 Dy280 2.351 . S
O296 C299 1.249 . S
O297 Dy283 2.326 . S
O297 C299 1.267 . S
C298 O290 1.249 . S
C298 O291 1.267 . S
C299 O296 1.249 . S
C299 O297 1.267 . S
Dy300 O304 2.398 . S
Dy300 O305 2.491 . S
Dy300 O306 2.403 . S
Dy300 O307 2.664 . S
Dy300 O311 2.326 1_545 S
Dy300 O315 2.310 . S
Dy300 O316 2.351 . S
C301 O312 1.185 . S
C301 O313 1.355 . S
C302 O304 1.185 . S
C302 O305 1.355 . S
Dy303 O307 2.310 . S
Dy303 O310 2.351 1_545 S
Dy303 O312 2.398 . S
Dy303 O313 2.491 . S
Dy303 O314 2.395 1_545 S
Dy303 O315 2.664 . S
Dy303 O317 2.326 . S
O304 Dy300 2.398 . S
O304 C302 1.185 . S
O305 Dy300 2.491 . S
O305 C302 1.355 . S
O306 Dy300 2.403 . S
O306 C308 1.254 . S
O307 Dy300 2.664 . S
O307 Dy303 2.310 . S
O307 C308 1.268 . S
C308 O306 1.254 . S
C308 O307 1.268 . S
C309 O314 1.250 1_545 S
C309 O315 1.268 . S
O310 Dy303 2.351 1_565 S
O310 C318 1.249 . S
O311 Dy300 2.326 1_565 S
O311 C318 1.267 . S
O312 C301 1.185 . S
O312 Dy303 2.398 . S
O313 C301 1.355 . S
O313 Dy303 2.491 . S
O314 Dy303 2.395 1_565 S
O314 C309 1.250 1_565 S
O315 Dy300 2.310 . S
O315 Dy303 2.664 . S
O315 C309 1.268 . S
O316 Dy300 2.351 . S
O316 C319 1.249 . S
O317 Dy303 2.326 . S
O317 C319 1.267 . S
C318 O310 1.249 . S
C318 O311 1.267 . S
C319 O316 1.249 . S
C319 O317 1.267 . S
H320 C338 0.951 . S
H321 C340 0.951 . S
H322 C342 0.950 . S
H323 C343 0.950 . S
H324 C345 0.950 . S
H325 C348 0.950 . S
H326 C349 0.950 . S
H327 C351 0.950 . S
H328 C352 0.950 . S
H329 C353 0.951 . S
H330 C355 0.951 . S
H331 C357 0.950 . S
H332 C358 0.950 . S
H333 C360 0.950 . S
H334 C363 0.950 . S
H335 C364 0.950 . S
H336 C366 0.950 . S
H337 C367 0.950 . S
C338 H320 0.951 . S
C338 C339 1.366 . S
C338 C340 1.388 . S
C339 C338 1.366 . S
C339 C343 1.385 . S
C340 H321 0.951 . S
C340 C338 1.388 . S
C340 C341 1.366 . S
C341 C340 1.366 . S
C341 C342 1.414 . S
C341 C344 1.499 . S
C342 H322 0.950 . S
C342 C341 1.414 . S
C342 C343 1.374 . S
C343 H323 0.950 . S
C343 C339 1.385 . S
C343 C342 1.374 . S
C344 C341 1.499 . S
C344 C345 1.373 . S
C344 C346 1.389 . S
C345 H324 0.950 . S
C345 C344 1.373 . S
C345 C361 1.377 . S
C346 C344 1.389 . S
C346 C347 1.524 . S
C346 C360 1.377 . S
C347 C346 1.524 . S
C347 C348 1.397 . S
C347 C352 1.363 . S
C348 H325 0.950 . S
C348 C347 1.397 . S
C348 C349 1.334 . S
C349 H326 0.950 . S
C349 C348 1.334 . S
C349 C350 1.287 . S
C350 C349 1.287 . S
C350 C351 1.524 . S
C350 H369 0.913 . S
C351 H327 0.950 . S
C351 C350 1.524 . S
C351 C352 1.415 . S
C352 H328 0.950 . S
C352 C347 1.363 . S
C352 C351 1.415 . S
C353 H329 0.951 . S
C353 C354 1.366 . S
C353 C355 1.388 . S
C354 C353 1.366 . S
C354 C358 1.385 . S
C355 H330 0.951 . S
C355 C353 1.388 . S
C355 C356 1.366 . S
C356 C355 1.366 . S
C356 C357 1.414 . S
C356 C359 1.499 . S
C357 H331 0.950 . S
C357 C356 1.414 . S
C357 C358 1.374 . S
C358 H332 0.950 . S
C358 C354 1.385 . S
C358 C357 1.374 . S
C359 C356 1.499 . S
C359 C360 1.373 . S
C359 C361 1.389 . S
C360 H333 0.950 . S
C360 C346 1.377 . S
C360 C359 1.373 . S
C361 C345 1.377 . S
C361 C359 1.389 . S
C361 C362 1.524 . S
C362 C361 1.524 . S
C362 C363 1.397 . S
C362 C367 1.363 . S
C363 H334 0.950 . S
C363 C362 1.397 . S
C363 C364 1.334 . S
C364 H335 0.950 . S
C364 C363 1.334 . S
C364 C365 1.287 . S
C365 C364 1.287 . S
C365 C366 1.524 . S
C365 H368 0.999 . S
C366 H336 0.950 . S
C366 C365 1.524 . S
C366 C367 1.415 . S
C367 H337 0.950 . S
C367 C362 1.363 . S
C367 C366 1.415 . S
H368 C365 0.999 . S
H369 C350 0.913 . S
H370 C388 0.951 . S
H371 C390 0.951 . S
H372 C392 0.950 . S
H373 C393 0.950 . S
H374 C395 0.950 . S
H375 C398 0.950 . S
H376 C399 0.950 . S
H377 C401 0.950 . S
H378 C402 0.950 . S
H379 C403 0.951 . S
H380 C405 0.951 . S
H381 C407 0.950 . S
H382 C408 0.950 . S
H383 C410 0.950 . S
H384 C413 0.950 . S
H385 C414 0.950 . S
H386 C416 0.950 . S
H387 C417 0.950 . S
C388 H370 0.951 . S
C388 C389 1.366 . S
C388 C390 1.388 . S
C389 C388 1.366 . S
C389 C393 1.385 . S
C390 H371 0.951 . S
C390 C388 1.388 . S
C390 C391 1.366 . S
C391 C390 1.366 . S
C391 C392 1.414 . S
C391 C394 1.499 . S
C392 H372 0.950 . S
C392 C391 1.414 . S
C392 C393 1.374 . S
C393 H373 0.950 . S
C393 C389 1.385 . S
C393 C392 1.374 . S
C394 C391 1.499 . S
C394 C395 1.373 . S
C394 C396 1.389 . S
C395 H374 0.950 . S
C395 C394 1.373 . S
C395 C411 1.377 . S
C396 C394 1.389 . S
C396 C397 1.524 . S
C396 C410 1.377 . S
C397 C396 1.524 . S
C397 C398 1.397 . S
C397 C402 1.363 . S
C398 H375 0.950 . S
C398 C397 1.397 . S
C398 C399 1.334 . S
C399 H376 0.950 . S
C399 C398 1.334 . S
C399 C400 1.287 . S
C400 C399 1.287 . S
C400 C401 1.524 . S
C400 H419 0.913 . S
C401 H377 0.950 . S
C401 C400 1.524 . S
C401 C402 1.415 . S
C402 H378 0.950 . S
C402 C397 1.363 . S
C402 C401 1.415 . S
C403 H379 0.951 . S
C403 C404 1.366 . S
C403 C405 1.388 . S
C404 C403 1.366 . S
C404 C408 1.385 . S
C405 H380 0.951 . S
C405 C403 1.388 . S
C405 C406 1.366 . S
C406 C405 1.366 . S
C406 C407 1.414 . S
C406 C409 1.499 . S
C407 H381 0.950 . S
C407 C406 1.414 . S
C407 C408 1.374 . S
C408 H382 0.950 . S
C408 C404 1.385 . S
C408 C407 1.374 . S
C409 C406 1.499 . S
C409 C410 1.373 . S
C409 C411 1.389 . S
C410 H383 0.950 . S
C410 C396 1.377 . S
C410 C409 1.373 . S
C411 C395 1.377 . S
C411 C409 1.389 . S
C411 C412 1.524 . S
C412 C411 1.524 . S
C412 C413 1.397 . S
C412 C417 1.363 . S
C413 H384 0.950 . S
C413 C412 1.397 . S
C413 C414 1.334 . S
C414 H385 0.950 . S
C414 C413 1.334 . S
C414 C415 1.287 . S
C415 C414 1.287 . S
C415 C416 1.524 . S
C415 H418 0.999 . S
C416 H386 0.950 . S
C416 C415 1.524 . S
C416 C417 1.415 . S
C417 H387 0.950 . S
C417 C412 1.363 . S
C417 C416 1.415 . S
H418 C415 0.999 . S
H419 C400 0.913 . S
H420 C438 0.951 . S
H421 C440 0.951 . S
H422 C442 0.950 . S
H423 C443 0.950 . S
H424 C445 0.950 . S
H425 C448 0.950 . S
H426 C449 0.950 . S
H427 C451 0.950 . S
H428 C452 0.950 . S
H429 C453 0.951 . S
H430 C455 0.951 . S
H431 C457 0.950 . S
H432 C458 0.950 . S
H433 C460 0.950 . S
H434 C463 0.950 . S
H435 C464 0.950 . S
H436 C466 0.950 . S
H437 C467 0.950 . S
C438 H420 0.951 . S
C438 C439 1.366 . S
C438 C440 1.388 . S
C439 C438 1.366 . S
C439 C443 1.385 . S
C440 H421 0.951 . S
C440 C438 1.388 . S
C440 C441 1.366 . S
C441 C440 1.366 . S
C441 C442 1.414 . S
C441 C444 1.499 . S
C442 H422 0.950 . S
C442 C441 1.414 . S
C442 C443 1.374 . S
C443 H423 0.950 . S
C443 C439 1.385 . S
C443 C442 1.374 . S
C444 C441 1.499 . S
C444 C445 1.373 . S
C444 C446 1.389 . S
C445 H424 0.950 . S
C445 C444 1.373 . S
C445 C461 1.377 . S
C446 C444 1.389 . S
C446 C447 1.524 . S
C446 C460 1.377 . S
C447 C446 1.524 . S
C447 C448 1.397 . S
C447 C452 1.363 . S
C448 H425 0.950 . S
C448 C447 1.397 . S
C448 C449 1.334 . S
C449 H426 0.950 . S
C449 C448 1.334 . S
C449 C450 1.287 . S
C450 C449 1.287 . S
C450 C451 1.524 . S
C450 H469 0.913 . S
C451 H427 0.950 . S
C451 C450 1.524 . S
C451 C452 1.415 . S
C452 H428 0.950 . S
C452 C447 1.363 . S
C452 C451 1.415 . S
C453 H429 0.951 . S
C453 C454 1.366 . S
C453 C455 1.388 . S
C454 C453 1.366 . S
C454 C458 1.385 . S
C455 H430 0.951 . S
C455 C453 1.388 . S
C455 C456 1.366 . S
C456 C455 1.366 . S
C456 C457 1.414 . S
C456 C459 1.499 . S
C457 H431 0.950 . S
C457 C456 1.414 . S
C457 C458 1.374 . S
C458 H432 0.950 . S
C458 C454 1.385 . S
C458 C457 1.374 . S
C459 C456 1.499 . S
C459 C460 1.373 . S
C459 C461 1.389 . S
C460 H433 0.950 . S
C460 C446 1.377 . S
C460 C459 1.373 . S
C461 C445 1.377 . S
C461 C459 1.389 . S
C461 C462 1.524 . S
C462 C461 1.524 . S
C462 C463 1.397 . S
C462 C467 1.363 . S
C463 H434 0.950 . S
C463 C462 1.397 . S
C463 C464 1.334 . S
C464 H435 0.950 . S
C464 C463 1.334 . S
C464 C465 1.287 . S
C465 C464 1.287 . S
C465 C466 1.524 . S
C465 H468 0.999 . S
C466 H436 0.950 . S
C466 C465 1.524 . S
C466 C467 1.415 . S
C467 H437 0.950 . S
C467 C462 1.363 . S
C467 C466 1.415 . S
H468 C465 0.999 . S
H469 C450 0.913 . S
H470 C488 0.951 . S
H471 C490 0.951 . S
H472 C492 0.950 1_455 S
H473 C493 0.950 . S
H474 C495 0.950 . S
H475 C498 0.950 . S
H476 C499 0.950 . S
H477 C501 0.950 . S
H478 C502 0.950 1_554 S
H479 C503 0.951 . S
H480 C505 0.951 . S
H481 C507 0.950 1_655 S
H482 C508 0.950 . S
H483 C510 0.950 . S
H484 C513 0.950 . S
H485 C514 0.950 . S
H486 C516 0.950 . S
H487 C517 0.950 1_556 S
C488 H470 0.951 . S
C488 C489 1.366 . S
C488 C490 1.388 . S
C489 C488 1.366 . S
C489 C493 1.385 . S
C490 H471 0.951 . S
C490 C488 1.388 . S
C490 C491 1.366 . S
C491 C490 1.366 . S
C491 C492 1.414 . S
C491 C494 1.499 . S
C492 H472 0.950 1_655 S
C492 C491 1.414 . S
C492 C493 1.374 . S
C493 H473 0.950 . S
C493 C489 1.385 . S
C493 C492 1.374 . S
C494 C491 1.499 . S
C494 C495 1.373 1_655 S
C494 C496 1.389 . S
C495 H474 0.950 . S
C495 C494 1.373 1_455 S
C495 C511 1.377 1_556 S
C496 C494 1.389 . S
C496 C497 1.524 . S
C496 C510 1.377 1_556 S
C497 C496 1.524 . S
C497 C498 1.397 . S
C497 C502 1.363 . S
C498 H475 0.950 . S
C498 C497 1.397 . S
C498 C499 1.334 . S
C499 H476 0.950 . S
C499 C498 1.334 . S
C499 C500 1.287 . S
C500 C499 1.287 . S
C500 C501 1.524 . S
C500 H519 0.913 . S
C501 H477 0.950 . S
C501 C500 1.524 . S
C501 C502 1.415 . S
C502 H478 0.950 1_556 S
C502 C497 1.363 . S
C502 C501 1.415 . S
C503 H479 0.951 . S
C503 C504 1.366 . S
C503 C505 1.388 . S
C504 C503 1.366 . S
C504 C508 1.385 . S
C505 H480 0.951 . S
C505 C503 1.388 . S
C505 C506 1.366 . S
C506 C505 1.366 . S
C506 C507 1.414 . S
C506 C509 1.499 . S
C507 H481 0.950 1_455 S
C507 C506 1.414 . S
C507 C508 1.374 . S
C508 H482 0.950 . S
C508 C504 1.385 . S
C508 C507 1.374 . S
C509 C506 1.499 . S
C509 C510 1.373 1_455 S
C509 C511 1.389 . S
C510 H483 0.950 . S
C510 C496 1.377 1_554 S
C510 C509 1.373 1_655 S
C511 C495 1.377 1_554 S
C511 C509 1.389 . S
C511 C512 1.524 . S
C512 C511 1.524 . S
C512 C513 1.397 . S
C512 C517 1.363 . S
C513 H484 0.950 . S
C513 C512 1.397 . S
C513 C514 1.334 . S
C514 H485 0.950 . S
C514 C513 1.334 . S
C514 C515 1.287 . S
C515 C514 1.287 . S
C515 C516 1.524 . S
C515 H518 0.999 . S
C516 H486 0.950 . S
C516 C515 1.524 . S
C516 C517 1.415 . S
C517 H487 0.950 1_554 S
C517 C512 1.363 . S
C517 C516 1.415 . S
H518 C515 0.999 . S
H519 C500 0.913 . S
H520 C538 0.951 . S
H521 C540 0.951 . S
H522 C542 0.950 . S
H523 C543 0.950 . S
H524 C545 0.950 . S
H525 C548 0.950 . S
H526 C549 0.950 . S
H527 C551 0.950 . S
H528 C552 0.950 . S
H529 C553 0.951 . S
H530 C555 0.951 . S
H531 C557 0.950 . S
H532 C558 0.950 . S
H533 C560 0.950 . S
H534 C563 0.950 . S
H535 C564 0.950 . S
H536 C566 0.950 . S
H537 C567 0.950 . S
C538 H520 0.951 . S
C538 C539 1.366 . S
C538 C540 1.388 . S
C539 C538 1.366 . S
C539 C543 1.385 . S
C540 H521 0.951 . S
C540 C538 1.388 . S
C540 C541 1.366 . S
C541 C540 1.366 . S
C541 C542 1.414 . S
C541 C544 1.499 . S
C542 H522 0.950 . S
C542 C541 1.414 . S
C542 C543 1.374 . S
C543 H523 0.950 . S
C543 C539 1.385 . S
C543 C542 1.374 . S
C544 C541 1.499 . S
C544 C545 1.373 . S
C544 C546 1.389 . S
C545 H524 0.950 . S
C545 C544 1.373 . S
C545 C561 1.377 . S
C546 C544 1.389 . S
C546 C547 1.524 . S
C546 C560 1.377 . S
C547 C546 1.524 . S
C547 C548 1.397 . S
C547 C552 1.363 . S
C548 H525 0.950 . S
C548 C547 1.397 . S
C548 C549 1.334 . S
C549 H526 0.950 . S
C549 C548 1.334 . S
C549 C550 1.287 . S
C550 C549 1.287 . S
C550 C551 1.524 . S
C550 H569 0.913 . S
C551 H527 0.950 . S
C551 C550 1.524 . S
C551 C552 1.415 . S
C552 H528 0.950 . S
C552 C547 1.363 . S
C552 C551 1.415 . S
C553 H529 0.951 . S
C553 C554 1.366 . S
C553 C555 1.388 . S
C554 C553 1.366 . S
C554 C558 1.385 . S
C555 H530 0.951 . S
C555 C553 1.388 . S
C555 C556 1.366 . S
C556 C555 1.366 . S
C556 C557 1.414 . S
C556 C559 1.499 . S
C557 H531 0.950 . S
C557 C556 1.414 . S
C557 C558 1.374 . S
C558 H532 0.950 . S
C558 C554 1.385 . S
C558 C557 1.374 . S
C559 C556 1.499 . S
C559 C560 1.373 . S
C559 C561 1.389 . S
C560 H533 0.950 . S
C560 C546 1.377 . S
C560 C559 1.373 . S
C561 C545 1.377 . S
C561 C559 1.389 . S
C561 C562 1.524 . S
C562 C561 1.524 . S
C562 C563 1.397 . S
C562 C567 1.363 . S
C563 H534 0.950 . S
C563 C562 1.397 . S
C563 C564 1.334 . S
C564 H535 0.950 . S
C564 C563 1.334 . S
C564 C565 1.287 . S
C565 C564 1.287 . S
C565 C566 1.524 . S
C565 H568 0.999 . S
C566 H536 0.950 . S
C566 C565 1.524 . S
C566 C567 1.415 . S
C567 H537 0.950 . S
C567 C562 1.363 . S
C567 C566 1.415 . S
H568 C565 0.999 . S
H569 C550 0.913 . S
H570 C588 0.951 . S
H571 C590 0.951 . S
H572 C592 0.950 . S
H573 C593 0.950 . S
H574 C595 0.950 . S
H575 C598 0.950 . S
H576 C599 0.950 . S
H577 C601 0.950 . S
H578 C602 0.950 . S
H579 C603 0.951 . S
H580 C605 0.951 . S
H581 C607 0.950 . S
H582 C608 0.950 . S
H583 C610 0.950 . S
H584 C613 0.950 . S
H585 C614 0.950 . S
H586 C616 0.950 . S
H587 C617 0.950 . S
C588 H570 0.951 . S
C588 C589 1.366 . S
C588 C590 1.388 . S
C589 C588 1.366 . S
C589 C593 1.385 . S
C590 H571 0.951 . S
C590 C588 1.388 . S
C590 C591 1.366 . S
C591 C590 1.366 . S
C591 C592 1.414 . S
C591 C594 1.499 . S
C592 H572 0.950 . S
C592 C591 1.414 . S
C592 C593 1.374 . S
C593 H573 0.950 . S
C593 C589 1.385 . S
C593 C592 1.374 . S
C594 C591 1.499 . S
C594 C595 1.373 . S
C594 C596 1.389 . S
C595 H574 0.950 . S
C595 C594 1.373 . S
C595 C611 1.377 . S
C596 C594 1.389 . S
C596 C597 1.524 . S
C596 C610 1.377 . S
C597 C596 1.524 . S
C597 C598 1.397 . S
C597 C602 1.363 . S
C598 H575 0.950 . S
C598 C597 1.397 . S
C598 C599 1.334 . S
C599 H576 0.950 . S
C599 C598 1.334 . S
C599 C600 1.287 . S
C600 C599 1.287 . S
C600 C601 1.524 . S
C600 H619 0.913 . S
C601 H577 0.950 . S
C601 C600 1.524 . S
C601 C602 1.415 . S
C602 H578 0.950 . S
C602 C597 1.363 . S
C602 C601 1.415 . S
C603 H579 0.951 . S
C603 C604 1.366 . S
C603 C605 1.388 . S
C604 C603 1.366 . S
C604 C608 1.385 . S
C605 H580 0.951 . S
C605 C603 1.388 . S
C605 C606 1.366 . S
C606 C605 1.366 . S
C606 C607 1.414 . S
C606 C609 1.499 . S
C607 H581 0.950 . S
C607 C606 1.414 . S
C607 C608 1.374 . S
C608 H582 0.950 . S
C608 C604 1.385 . S
C608 C607 1.374 . S
C609 C606 1.499 . S
C609 C610 1.373 . S
C609 C611 1.389 . S
C610 H583 0.950 . S
C610 C596 1.377 . S
C610 C609 1.373 . S
C611 C595 1.377 . S
C611 C609 1.389 . S
C611 C612 1.524 . S
C612 C611 1.524 . S
C612 C613 1.397 . S
C612 C617 1.363 . S
C613 H584 0.950 . S
C613 C612 1.397 . S
C613 C614 1.334 . S
C614 H585 0.950 . S
C614 C613 1.334 . S
C614 C615 1.287 . S
C615 C614 1.287 . S
C615 C616 1.524 . S
C615 H618 0.999 . S
C616 H586 0.950 . S
C616 C615 1.524 . S
C616 C617 1.415 . S
C617 H587 0.950 . S
C617 C612 1.363 . S
C617 C616 1.415 . S
H618 C615 0.999 . S
H619 C600 0.913 . S
H620 C638 0.951 . S
H621 C640 0.951 1_455 S
H622 C642 0.950 . S
H623 C643 0.950 . S
H624 C645 0.950 . S
H625 C648 0.950 . S
H626 C649 0.946 1_655 S
H627 C651 0.950 . S
H628 C652 0.950 . S
H629 C653 0.951 . S
H630 C655 0.951 1_655 S
H631 C657 0.950 . S
H632 C658 0.950 . S
H633 C660 0.950 . S
H634 C663 0.950 . S
H635 C664 0.946 1_455 S
H636 C666 0.950 . S
H637 C667 0.950 . S
C638 H620 0.951 . S
C638 C639 1.366 . S
C638 C640 1.388 . S
C639 C638 1.366 . S
C639 C643 1.385 . S
C640 H621 0.951 1_655 S
C640 C638 1.388 . S
C640 C641 1.366 . S
C641 C640 1.366 . S
C641 C642 1.414 . S
C641 C644 1.499 . S
C642 H622 0.950 . S
C642 C641 1.414 . S
C642 C643 1.374 . S
C643 H623 0.950 . S
C643 C639 1.385 . S
C643 C642 1.374 . S
C644 C641 1.499 . S
C644 C645 1.373 1_554 S
C644 C646 1.389 1_665 S
C645 H624 0.950 . S
C645 C644 1.373 1_556 S
C645 C661 1.377 . S
C646 C644 1.389 1_445 S
C646 C647 1.524 . S
C646 C660 1.377 . S
C647 C646 1.524 . S
C647 C648 1.397 1_455 S
C647 C652 1.363 . S
C648 H625 0.950 . S
C648 C647 1.397 1_655 S
C648 C649 1.333 1_655 S
C649 H626 0.946 1_455 S
C649 C648 1.333 1_455 S
C649 C650 1.292 . S
C650 C649 1.292 . S
C650 C651 1.524 . S
C650 H669 0.913 . S
C651 H627 0.950 . S
C651 C650 1.524 . S
C651 C652 1.415 . S
C652 H628 0.950 . S
C652 C647 1.363 . S
C652 C651 1.415 . S
C653 H629 0.951 . S
C653 C654 1.366 . S
C653 C655 1.388 . S
C654 C653 1.366 . S
C654 C658 1.385 . S
C655 H630 0.951 1_455 S
C655 C653 1.388 . S
C655 C656 1.366 . S
C656 C655 1.366 . S
C656 C657 1.414 . S
C656 C659 1.499 . S
C657 H631 0.950 . S
C657 C656 1.414 . S
C657 C658 1.374 . S
C658 H632 0.950 . S
C658 C654 1.385 . S
C658 C657 1.374 . S
C659 C656 1.499 . S
C659 C660 1.373 1_556 S
C659 C661 1.389 1_445 S
C660 H633 0.950 . S
C660 C646 1.377 . S
C660 C659 1.373 1_554 S
C661 C645 1.377 . S
C661 C659 1.389 1_665 S
C661 C662 1.524 . S
C662 C661 1.524 . S
C662 C663 1.397 1_655 S
C662 C667 1.363 . S
C663 H634 0.950 . S
C663 C662 1.397 1_455 S
C663 C664 1.333 1_455 S
C664 H635 0.946 1_655 S
C664 C663 1.333 1_655 S
C664 C665 1.292 . S
C665 C664 1.292 . S
C665 C666 1.524 . S
C665 H668 0.999 . S
C666 H636 0.950 . S
C666 C665 1.524 . S
C666 C667 1.415 . S
C667 H637 0.950 . S
C667 C662 1.363 . S
C667 C666 1.415 . S
H668 C665 0.999 . S
H669 C650 0.913 . S
H670 C688 0.951 . S
H671 C690 0.951 . S
H672 C692 0.950 . S
H673 C693 0.950 . S
H674 C695 0.950 . S
H675 C698 0.950 . S
H676 C699 0.950 . S
H677 C701 0.950 . S
H678 C702 0.950 . S
H679 C703 0.951 . S
H680 C705 0.951 . S
H681 C707 0.950 . S
H682 C708 0.950 . S
H683 C710 0.950 . S
H684 C713 0.950 . S
H685 C714 0.950 . S
H686 C716 0.950 . S
H687 C717 0.950 . S
C688 H670 0.951 . S
C688 C689 1.366 . S
C688 C690 1.388 . S
C689 C688 1.366 . S
C689 C693 1.385 . S
C690 H671 0.951 . S
C690 C688 1.388 . S
C690 C691 1.366 . S
C691 C690 1.366 . S
C691 C692 1.414 . S
C691 C694 1.499 . S
C692 H672 0.950 . S
C692 C691 1.414 . S
C692 C693 1.374 . S
C693 H673 0.950 . S
C693 C689 1.385 . S
C693 C692 1.374 . S
C694 C691 1.499 . S
C694 C695 1.373 . S
C694 C696 1.389 1_565 S
C695 H674 0.950 . S
C695 C694 1.373 . S
C695 C711 1.377 . S
C696 C694 1.389 1_545 S
C696 C697 1.524 . S
C696 C710 1.377 . S
C697 C696 1.524 . S
C697 C698 1.397 . S
C697 C702 1.363 . S
C698 H675 0.950 . S
C698 C697 1.397 . S
C698 C699 1.334 . S
C699 H676 0.950 . S
C699 C698 1.334 . S
C699 C700 1.287 . S
C700 C699 1.287 . S
C700 C701 1.524 . S
C700 H719 0.913 . S
C701 H677 0.950 . S
C701 C700 1.524 . S
C701 C702 1.415 . S
C702 H678 0.950 . S
C702 C697 1.363 . S
C702 C701 1.415 . S
C703 H679 0.951 . S
C703 C704 1.366 . S
C703 C705 1.388 . S
C704 C703 1.366 . S
C704 C708 1.385 . S
C705 H680 0.951 . S
C705 C703 1.388 . S
C705 C706 1.366 . S
C706 C705 1.366 . S
C706 C707 1.414 . S
C706 C709 1.499 . S
C707 H681 0.950 . S
C707 C706 1.414 . S
C707 C708 1.374 . S
C708 H682 0.950 . S
C708 C704 1.385 . S
C708 C707 1.374 . S
C709 C706 1.499 . S
C709 C710 1.373 . S
C709 C711 1.389 1_545 S
C710 H683 0.950 . S
C710 C696 1.377 . S
C710 C709 1.373 . S
C711 C695 1.377 . S
C711 C709 1.389 1_565 S
C711 C712 1.524 . S
C712 C711 1.524 . S
C712 C713 1.397 . S
C712 C717 1.363 . S
C713 H684 0.950 . S
C713 C712 1.397 . S
C713 C714 1.334 . S
C714 H685 0.950 . S
C714 C713 1.334 . S
C714 C715 1.287 . S
C715 C714 1.287 . S
C715 C716 1.524 . S
C715 H718 0.999 . S
C716 H686 0.950 . S
C716 C715 1.524 . S
C716 C717 1.415 . S
C717 H687 0.950 . S
C717 C712 1.363 . S
C717 C716 1.415 . S
H718 C715 0.999 . S
H719 C700 0.913 . S
H720 C738 0.951 . S
H721 C740 0.951 . S
H722 C742 0.950 . S
H723 C743 0.950 . S
H724 C745 0.950 . S
H725 C748 0.950 . S
H726 C749 0.950 . S
H727 C751 0.950 . S
H728 C752 0.950 . S
H729 C753 0.951 . S
H730 C755 0.951 . S
H731 C757 0.950 . S
H732 C758 0.950 . S
H733 C760 0.950 . S
H734 C763 0.950 . S
H735 C764 0.950 . S
H736 C766 0.950 . S
H737 C767 0.950 1_565 S
C738 H720 0.951 . S
C738 C739 1.366 . S
C738 C740 1.388 . S
C739 C738 1.366 . S
C739 C743 1.385 . S
C740 H721 0.951 . S
C740 C738 1.388 . S
C740 C741 1.366 . S
C741 C740 1.366 . S
C741 C742 1.414 . S
C741 C744 1.499 . S
C742 H722 0.950 . S
C742 C741 1.414 . S
C742 C743 1.374 . S
C743 H723 0.950 . S
C743 C739 1.385 . S
C743 C742 1.374 . S
C744 C741 1.499 . S
C744 C745 1.373 . S
C744 C746 1.389 . S
C745 H724 0.950 . S
C745 C744 1.373 . S
C745 C761 1.377 1_556 S
C746 C744 1.389 . S
C746 C747 1.524 . S
C746 C760 1.377 1_556 S
C747 C746 1.524 . S
C747 C748 1.397 . S
C747 C752 1.363 . S
C748 H725 0.950 . S
C748 C747 1.397 . S
C748 C749 1.334 . S
C749 H726 0.950 . S
C749 C748 1.334 . S
C749 C750 1.287 . S
C750 C749 1.287 . S
C750 C751 1.524 . S
C750 H769 0.913 . S
C751 H727 0.950 . S
C751 C750 1.524 . S
C751 C752 1.415 . S
C752 H728 0.950 . S
C752 C747 1.363 . S
C752 C751 1.415 . S
C753 H729 0.951 . S
C753 C754 1.366 . S
C753 C755 1.388 . S
C754 C753 1.366 . S
C754 C758 1.385 . S
C755 H730 0.951 . S
C755 C753 1.388 . S
C755 C756 1.366 . S
C756 C755 1.366 . S
C756 C757 1.414 . S
C756 C759 1.499 . S
C757 H731 0.950 . S
C757 C756 1.414 . S
C757 C758 1.374 . S
C758 H732 0.950 . S
C758 C754 1.385 . S
C758 C757 1.374 . S
C759 C756 1.499 . S
C759 C760 1.373 . S
C759 C761 1.389 . S
C760 H733 0.950 . S
C760 C746 1.377 1_554 S
C760 C759 1.373 . S
C761 C745 1.377 1_554 S
C761 C759 1.389 . S
C761 C762 1.524 . S
C762 C761 1.524 . S
C762 C763 1.397 . S
C762 C767 1.363 . S
C763 H734 0.950 . S
C763 C762 1.397 . S
C763 C764 1.334 . S
C764 H735 0.950 . S
C764 C763 1.334 . S
C764 C765 1.287 . S
C765 C764 1.287 . S
C765 C766 1.524 1_545 S
C765 H768 0.999 1_545 S
C766 H736 0.950 . S
C766 C765 1.524 1_565 S
C766 C767 1.415 1_565 S
C767 H737 0.950 1_545 S
C767 C762 1.363 . S
C767 C766 1.415 1_545 S
H768 C765 0.999 1_565 S
H769 C750 0.913 . S
H770 C788 0.951 . S
H771 C790 0.951 . S
H772 C792 0.950 . S
H773 C793 0.950 . S
H774 C795 0.950 . S
H775 C798 0.950 . S
H776 C799 0.950 . S
H777 C801 0.950 . S
H778 C802 0.950 . S
H779 C803 0.951 . S
H780 C805 0.951 . S
H781 C807 0.950 . S
H782 C808 0.950 . S
H783 C810 0.950 . S
H784 C813 0.950 . S
H785 C814 0.950 . S
H786 C816 0.950 . S
H787 C817 0.950 . S
C788 H770 0.951 . S
C788 C789 1.366 . S
C788 C790 1.388 . S
C789 C788 1.366 . S
C789 C793 1.385 . S
C790 H771 0.951 . S
C790 C788 1.388 . S
C790 C791 1.366 . S
C791 C790 1.366 . S
C791 C792 1.414 . S
C791 C794 1.499 . S
C792 H772 0.950 . S
C792 C791 1.414 . S
C792 C793 1.374 . S
C793 H773 0.950 . S
C793 C789 1.385 . S
C793 C792 1.374 . S
C794 C791 1.499 . S
C794 C795 1.373 . S
C794 C796 1.389 . S
C795 H774 0.950 . S
C795 C794 1.373 . S
C795 C811 1.377 . S
C796 C794 1.389 . S
C796 C797 1.524 . S
C796 C810 1.377 . S
C797 C796 1.524 . S
C797 C798 1.397 . S
C797 C802 1.363 . S
C798 H775 0.950 . S
C798 C797 1.397 . S
C798 C799 1.334 . S
C799 H776 0.950 . S
C799 C798 1.334 . S
C799 C800 1.287 . S
C800 C799 1.287 . S
C800 C801 1.524 . S
C800 H819 0.913 . S
C801 H777 0.950 . S
C801 C800 1.524 . S
C801 C802 1.415 . S
C802 H778 0.950 . S
C802 C797 1.363 . S
C802 C801 1.415 . S
C803 H779 0.951 . S
C803 C804 1.366 . S
C803 C805 1.388 . S
C804 C803 1.366 . S
C804 C808 1.385 . S
C805 H780 0.951 . S
C805 C803 1.388 . S
C805 C806 1.366 . S
C806 C805 1.366 . S
C806 C807 1.414 . S
C806 C809 1.499 . S
C807 H781 0.950 . S
C807 C806 1.414 . S
C807 C808 1.374 . S
C808 H782 0.950 . S
C808 C804 1.385 . S
C808 C807 1.374 . S
C809 C806 1.499 . S
C809 C810 1.373 . S
C809 C811 1.389 . S
C810 H783 0.950 . S
C810 C796 1.377 . S
C810 C809 1.373 . S
C811 C795 1.377 . S
C811 C809 1.389 . S
C811 C812 1.524 . S
C812 C811 1.524 . S
C812 C813 1.397 . S
C812 C817 1.363 . S
C813 H784 0.950 . S
C813 C812 1.397 . S
C813 C814 1.334 . S
C814 H785 0.950 . S
C814 C813 1.334 . S
C814 C815 1.287 . S
C815 C814 1.287 . S
C815 C816 1.524 . S
C815 H818 0.999 . S
C816 H786 0.950 . S
C816 C815 1.524 . S
C816 C817 1.415 . S
C817 H787 0.950 . S
C817 C812 1.363 . S
C817 C816 1.415 . S
H818 C815 0.999 . S
H819 C800 0.913 . S
H820 C838 0.951 . S
H821 C840 0.951 . S
H822 C842 0.950 . S
H823 C843 0.950 . S
H824 C845 0.950 . S
H825 C848 0.950 . S
H826 C849 0.950 . S
H827 C851 0.950 . S
H828 C852 0.950 . S
H829 C853 0.951 . S
H830 C855 0.951 . S
H831 C857 0.950 . S
H832 C858 0.950 . S
H833 C860 0.950 . S
H834 C863 0.950 . S
H835 C864 0.950 . S
H836 C866 0.950 . S
H837 C867 0.950 . S
C838 H820 0.951 . S
C838 C839 1.366 . S
C838 C840 1.388 . S
C839 C838 1.366 . S
C839 C843 1.385 . S
C840 H821 0.951 . S
C840 C838 1.388 . S
C840 C841 1.366 . S
C841 C840 1.366 . S
C841 C842 1.414 . S
C841 C844 1.499 . S
C842 H822 0.950 . S
C842 C841 1.414 . S
C842 C843 1.374 . S
C843 H823 0.950 . S
C843 C839 1.385 . S
C843 C842 1.374 . S
C844 C841 1.499 . S
C844 C845 1.373 . S
C844 C846 1.389 . S
C845 H824 0.950 . S
C845 C844 1.373 . S
C845 C861 1.377 . S
C846 C844 1.389 . S
C846 C847 1.524 . S
C846 C860 1.377 . S
C847 C846 1.524 . S
C847 C848 1.397 . S
C847 C852 1.363 . S
C848 H825 0.950 . S
C848 C847 1.397 . S
C848 C849 1.334 1_565 S
C849 H826 0.950 . S
C849 C848 1.334 1_545 S
C849 C850 1.287 . S
C850 C849 1.287 . S
C850 C851 1.524 . S
C850 H869 0.913 . S
C851 H827 0.950 . S
C851 C850 1.524 . S
C851 C852 1.415 1_545 S
C852 H828 0.950 . S
C852 C847 1.363 . S
C852 C851 1.415 1_565 S
C853 H829 0.951 . S
C853 C854 1.366 . S
C853 C855 1.388 . S
C854 C853 1.366 . S
C854 C858 1.385 . S
C855 H830 0.951 . S
C855 C853 1.388 . S
C855 C856 1.366 . S
C856 C855 1.366 . S
C856 C857 1.414 . S
C856 C859 1.499 . S
C857 H831 0.950 . S
C857 C856 1.414 . S
C857 C858 1.374 . S
C858 H832 0.950 . S
C858 C854 1.385 . S
C858 C857 1.374 . S
C859 C856 1.499 . S
C859 C860 1.373 . S
C859 C861 1.389 . S
C860 H833 0.950 . S
C860 C846 1.377 . S
C860 C859 1.373 . S
C861 C845 1.377 . S
C861 C859 1.389 . S
C861 C862 1.524 . S
C862 C861 1.524 . S
C862 C863 1.397 . S
C862 C867 1.363 . S
C863 H834 0.950 . S
C863 C862 1.397 . S
C863 C864 1.334 . S
C864 H835 0.950 . S
C864 C863 1.334 . S
C864 C865 1.287 . S
C865 C864 1.287 . S
C865 C866 1.524 . S
C865 H868 0.999 . S
C866 H836 0.950 . S
C866 C865 1.524 . S
C866 C867 1.415 . S
C867 H837 0.950 . S
C867 C862 1.363 . S
C867 C866 1.415 . S
H868 C865 0.999 . S
H869 C850 0.913 . S
H870 C888 0.951 . S
H871 C890 0.951 . S
H872 C892 0.950 . S
H873 C893 0.950 . S
H874 C895 0.950 . S
H875 C898 0.950 . S
H876 C899 0.950 . S
H877 C901 0.950 . S
H878 C902 0.950 . S
H879 C903 0.951 . S
H880 C905 0.951 . S
H881 C907 0.950 . S
H882 C908 0.950 . S
H883 C910 0.950 . S
H884 C913 0.950 . S
H885 C914 0.950 . S
H886 C916 0.950 . S
H887 C917 0.950 . S
C888 H870 0.951 . S
C888 C889 1.366 . S
C888 C890 1.388 . S
C889 C888 1.366 . S
C889 C893 1.385 . S
C890 H871 0.951 . S
C890 C888 1.388 . S
C890 C891 1.366 . S
C891 C890 1.366 . S
C891 C892 1.414 . S
C891 C894 1.499 . S
C892 H872 0.950 . S
C892 C891 1.414 . S
C892 C893 1.374 . S
C893 H873 0.950 . S
C893 C889 1.385 . S
C893 C892 1.374 . S
C894 C891 1.499 . S
C894 C895 1.373 . S
C894 C896 1.389 . S
C895 H874 0.950 . S
C895 C894 1.373 . S
C895 C911 1.377 . S
C896 C894 1.389 . S
C896 C897 1.524 . S
C896 C910 1.377 . S
C897 C896 1.524 . S
C897 C898 1.397 . S
C897 C902 1.363 . S
C898 H875 0.950 . S
C898 C897 1.397 . S
C898 C899 1.334 . S
C899 H876 0.950 . S
C899 C898 1.334 . S
C899 C900 1.287 . S
C900 C899 1.287 . S
C900 C901 1.524 . S
C900 H919 0.913 . S
C901 H877 0.950 . S
C901 C900 1.524 . S
C901 C902 1.415 . S
C902 H878 0.950 . S
C902 C897 1.363 . S
C902 C901 1.415 . S
C903 H879 0.951 . S
C903 C904 1.366 . S
C903 C905 1.388 . S
C904 C903 1.366 . S
C904 C908 1.385 . S
C905 H880 0.951 . S
C905 C903 1.388 . S
C905 C906 1.366 . S
C906 C905 1.366 . S
C906 C907 1.414 . S
C906 C909 1.499 . S
C907 H881 0.950 . S
C907 C906 1.414 . S
C907 C908 1.374 . S
C908 H882 0.950 . S
C908 C904 1.385 . S
C908 C907 1.374 . S
C909 C906 1.499 . S
C909 C910 1.373 . S
C909 C911 1.389 . S
C910 H883 0.950 . S
C910 C896 1.377 . S
C910 C909 1.373 . S
C911 C895 1.377 . S
C911 C909 1.389 . S
C911 C912 1.524 . S
C912 C911 1.524 . S
C912 C913 1.397 . S
C912 C917 1.363 . S
C913 H884 0.950 . S
C913 C912 1.397 . S
C913 C914 1.334 . S
C914 H885 0.950 . S
C914 C913 1.334 . S
C914 C915 1.287 . S
C915 C914 1.287 . S
C915 C916 1.524 . S
C915 H918 0.999 . S
C916 H886 0.950 . S
C916 C915 1.524 . S
C916 C917 1.415 . S
C917 H887 0.950 . S
C917 C912 1.363 . S
C917 C916 1.415 . S
H918 C915 0.999 . S
H919 C900 0.913 . S
H920 C938 0.951 . S
H921 C940 0.951 . S
H922 C942 0.950 . S
H923 C943 0.950 . S
H924 C945 0.950 . S
H925 C948 0.950 . S
H926 C949 0.950 . S
H927 C951 0.950 . S
H928 C952 0.950 1_556 S
H929 C953 0.951 . S
H930 C955 0.951 . S
H931 C957 0.950 . S
H932 C958 0.950 . S
H933 C960 0.950 . S
H934 C963 0.950 . S
H935 C964 0.950 . S
H936 C966 0.971 . S
H937 C967 0.911 1_554 S
C938 H920 0.951 . S
C938 C939 1.366 . S
C938 C940 1.388 . S
C939 C938 1.366 . S
C939 C943 1.385 . S
C940 H921 0.951 . S
C940 C938 1.388 . S
C940 C941 1.366 . S
C941 C940 1.366 . S
C941 C942 1.414 . S
C941 C944 1.499 . S
C942 H922 0.950 . S
C942 C941 1.414 . S
C942 C943 1.374 . S
C943 H923 0.950 . S
C943 C939 1.385 . S
C943 C942 1.374 . S
C944 C941 1.499 . S
C944 C945 1.373 . S
C944 C946 1.389 . S
C945 H924 0.950 . S
C945 C944 1.373 . S
C945 C961 1.377 1_554 S
C946 C944 1.389 . S
C946 C947 1.524 . S
C946 C960 1.377 1_554 S
C947 C946 1.524 . S
C947 C948 1.397 . S
C947 C952 1.363 1_565 S
C948 H925 0.950 . S
C948 C947 1.397 . S
C948 C949 1.334 1_565 S
C949 H926 0.950 . S
C949 C948 1.334 1_545 S
C949 C950 1.287 . S
C950 C949 1.287 . S
C950 C951 1.524 . S
C950 H969 0.913 . S
C951 H927 0.950 . S
C951 C950 1.524 . S
C951 C952 1.415 . S
C952 H928 0.950 1_554 S
C952 C947 1.363 1_545 S
C952 C951 1.415 . S
C953 H929 0.951 . S
C953 C954 1.366 . S
C953 C955 1.388 . S
C954 C953 1.366 . S
C954 C958 1.385 . S
C955 H930 0.951 . S
C955 C953 1.388 . S
C955 C956 1.366 . S
C956 C955 1.366 . S
C956 C957 1.414 . S
C956 C959 1.499 . S
C957 H931 0.950 . S
C957 C956 1.414 . S
C957 C958 1.374 . S
C958 H932 0.950 . S
C958 C954 1.385 . S
C958 C957 1.374 . S
C959 C956 1.499 . S
C959 C960 1.373 . S
C959 C961 1.389 . S
C960 H933 0.950 . S
C960 C946 1.377 1_556 S
C960 C959 1.373 . S
C961 C945 1.377 1_556 S
C961 C959 1.389 . S
C961 C962 1.524 . S
C962 C961 1.524 . S
C962 C963 1.397 . S
C962 C967 1.389 . S
C963 H934 0.950 . S
C963 C962 1.397 . S
C963 C964 1.334 . S
C964 H935 0.950 . S
C964 C963 1.334 . S
C964 C965 1.287 . S
C965 C964 1.287 . S
C965 C966 1.524 . S
C965 H968 0.999 . S
C966 H936 0.971 . S
C966 C965 1.524 . S
C966 C967 1.430 . S
C967 H937 0.911 1_556 S
C967 C962 1.389 . S
C967 C966 1.430 . S
H968 C965 0.999 . S
H969 C950 0.913 . S
H970 C988 0.951 . S
H971 C990 0.951 . S
H972 C992 0.950 . S
H973 C993 0.950 . S
H974 C995 0.950 . S
H975 C998 0.950 . S
H976 C999 0.950 . S
H977 C1001 0.950 . S
H978 C1002 0.950 . S
H979 C1003 0.951 . S
H980 C1005 0.951 . S
H981 C1007 0.950 . S
H982 C1008 0.950 . S
H983 C1010 0.950 . S
H984 C1013 0.950 . S
H985 C1014 0.950 . S
H986 C1016 0.950 . S
H987 C1017 0.950 . S
C988 H970 0.951 . S
C988 C989 1.366 . S
C988 C990 1.388 . S
C989 C988 1.366 . S
C989 C993 1.385 . S
C990 H971 0.951 . S
C990 C988 1.388 . S
C990 C991 1.366 . S
C991 C990 1.366 . S
C991 C992 1.414 . S
C991 C994 1.499 . S
C992 H972 0.950 . S
C992 C991 1.414 . S
C992 C993 1.374 . S
C993 H973 0.950 . S
C993 C989 1.385 . S
C993 C992 1.374 . S
C994 C991 1.499 . S
C994 C995 1.373 . S
C994 C996 1.389 . S
C995 H974 0.950 . S
C995 C994 1.373 . S
C995 C1011 1.377 . S
C996 C994 1.389 . S
C996 C997 1.524 . S
C996 C1010 1.377 . S
C997 C996 1.524 . S
C997 C998 1.397 . S
C997 C1002 1.363 . S
C998 H975 0.950 . S
C998 C997 1.397 . S
C998 C999 1.334 . S
C999 H976 0.950 . S
C999 C998 1.334 . S
C999 C1000 1.287 . S
C1000 C999 1.287 . S
C1000 C1001 1.524 . S
C1000 H1019 0.913 . S
C1001 H977 0.950 . S
C1001 C1000 1.524 . S
C1001 C1002 1.415 . S
C1002 H978 0.950 . S
C1002 C997 1.363 . S
C1002 C1001 1.415 . S
C1003 H979 0.951 . S
C1003 C1004 1.366 . S
C1003 C1005 1.388 . S
C1004 C1003 1.366 . S
C1004 C1008 1.385 . S
C1005 H980 0.951 . S
C1005 C1003 1.388 . S
C1005 C1006 1.366 . S
C1006 C1005 1.366 . S
C1006 C1007 1.414 . S
C1006 C1009 1.499 . S
C1007 H981 0.950 . S
C1007 C1006 1.414 . S
C1007 C1008 1.374 . S
C1008 H982 0.950 . S
C1008 C1004 1.385 . S
C1008 C1007 1.374 . S
C1009 C1006 1.499 . S
C1009 C1010 1.373 . S
C1009 C1011 1.389 . S
C1010 H983 0.950 . S
C1010 C996 1.377 . S
C1010 C1009 1.373 . S
C1011 C995 1.377 . S
C1011 C1009 1.389 . S
C1011 C1012 1.524 . S
C1012 C1011 1.524 . S
C1012 C1013 1.397 . S
C1012 C1017 1.363 . S
C1013 H984 0.950 . S
C1013 C1012 1.397 . S
C1013 C1014 1.334 . S
C1014 H985 0.950 . S
C1014 C1013 1.334 . S
C1014 C1015 1.287 . S
C1015 C1014 1.287 . S
C1015 C1016 1.524 . S
C1015 H1018 0.999 . S
C1016 H986 0.950 . S
C1016 C1015 1.524 . S
C1016 C1017 1.415 . S
C1017 H987 0.950 . S
C1017 C1012 1.363 . S
C1017 C1016 1.415 . S
H1018 C1015 0.999 . S
H1019 C1000 0.913 . S
H1020 C1038 0.951 . S
H1021 C1040 0.951 . S
H1022 C1042 0.950 . S
H1023 C1043 0.950 . S
H1024 C1045 0.950 . S
H1025 C1048 0.950 . S
H1026 C1049 0.950 . S
H1027 C1051 0.950 . S
H1028 C1052 0.950 . S
H1029 C1053 0.951 . S
H1030 C1055 0.951 . S
H1031 C1057 0.950 . S
H1032 C1058 0.950 . S
H1033 C1060 0.950 . S
H1034 C1063 0.950 . S
H1035 C1064 0.950 . S
H1036 C1066 0.950 . S
H1037 C1067 0.950 1_565 S
C1038 H1020 0.951 . S
C1038 C1039 1.366 . S
C1038 C1040 1.388 . S
C1039 C1038 1.366 . S
C1039 C1043 1.385 . S
C1040 H1021 0.951 . S
C1040 C1038 1.388 . S
C1040 C1041 1.366 . S
C1041 C1040 1.366 . S
C1041 C1042 1.414 . S
C1041 C1044 1.499 . S
C1042 H1022 0.950 . S
C1042 C1041 1.414 . S
C1042 C1043 1.374 . S
C1043 H1023 0.950 . S
C1043 C1039 1.385 . S
C1043 C1042 1.374 . S
C1044 C1041 1.499 . S
C1044 C1045 1.373 . S
C1044 C1046 1.389 . S
C1045 H1024 0.950 . S
C1045 C1044 1.373 . S
C1045 C1061 1.377 . S
C1046 C1044 1.389 . S
C1046 C1047 1.524 . S
C1046 C1060 1.377 . S
C1047 C1046 1.524 . S
C1047 C1048 1.397 . S
C1047 C1052 1.363 . S
C1048 H1025 0.950 . S
C1048 C1047 1.397 . S
C1048 C1049 1.334 . S
C1049 H1026 0.950 . S
C1049 C1048 1.334 . S
C1049 C1050 1.287 . S
C1050 C1049 1.287 . S
C1050 C1051 1.524 . S
C1050 H1069 0.913 . S
C1051 H1027 0.950 . S
C1051 C1050 1.524 . S
C1051 C1052 1.415 . S
C1052 H1028 0.950 . S
C1052 C1047 1.363 . S
C1052 C1051 1.415 . S
C1053 H1029 0.951 . S
C1053 C1054 1.366 . S
C1053 C1055 1.388 . S
C1054 C1053 1.366 . S
C1054 C1058 1.385 . S
C1055 H1030 0.951 . S
C1055 C1053 1.388 . S
C1055 C1056 1.366 . S
C1056 C1055 1.366 . S
C1056 C1057 1.414 . S
C1056 C1059 1.499 . S
C1057 H1031 0.950 . S
C1057 C1056 1.414 . S
C1057 C1058 1.374 . S
C1058 H1032 0.950 . S
C1058 C1054 1.385 . S
C1058 C1057 1.374 . S
C1059 C1056 1.499 . S
C1059 C1060 1.373 . S
C1059 C1061 1.389 . S
C1060 H1033 0.950 . S
C1060 C1046 1.377 . S
C1060 C1059 1.373 . S
C1061 C1045 1.377 . S
C1061 C1059 1.389 . S
C1061 C1062 1.524 . S
C1062 C1061 1.524 . S
C1062 C1063 1.397 . S
C1062 C1067 1.363 . S
C1063 H1034 0.950 . S
C1063 C1062 1.397 . S
C1063 C1064 1.334 . S
C1064 H1035 0.950 . S
C1064 C1063 1.334 . S
C1064 C1065 1.287 1_545 S
C1065 C1064 1.287 1_565 S
C1065 C1066 1.524 . S
C1065 H1068 0.999 . S
C1066 H1036 0.950 . S
C1066 C1065 1.524 . S
C1066 C1067 1.415 1_565 S
C1067 H1037 0.950 1_545 S
C1067 C1062 1.363 . S
C1067 C1066 1.415 1_545 S
H1068 C1065 0.999 . S
H1069 C1050 0.913 . S
H1070 C1088 0.951 . S
H1071 C1090 0.951 . S
H1072 C1092 0.950 . S
H1073 C1093 0.950 . S
H1074 C1095 0.950 . S
H1075 C1098 0.950 . S
H1076 C1099 0.950 . S
H1077 C1101 0.950 . S
H1078 C1102 0.950 . S
H1079 C1103 0.951 . S
H1080 C1105 0.951 . S
H1081 C1107 0.950 . S
H1082 C1108 0.950 . S
H1083 C1110 0.950 . S
H1084 C1113 0.950 . S
H1085 C1114 0.950 . S
H1086 C1116 0.950 . S
H1087 C1117 0.950 . S
C1088 H1070 0.951 . S
C1088 C1089 1.366 . S
C1088 C1090 1.388 . S
C1089 C1088 1.366 . S
C1089 C1093 1.385 . S
C1090 H1071 0.951 . S
C1090 C1088 1.388 . S
C1090 C1091 1.366 . S
C1091 C1090 1.366 . S
C1091 C1092 1.414 . S
C1091 C1094 1.499 . S
C1092 H1072 0.950 . S
C1092 C1091 1.414 . S
C1092 C1093 1.374 . S
C1093 H1073 0.950 . S
C1093 C1089 1.385 . S
C1093 C1092 1.374 . S
C1094 C1091 1.499 . S
C1094 C1095 1.373 . S
C1094 C1096 1.389 . S
C1095 H1074 0.950 . S
C1095 C1094 1.373 . S
C1095 C1111 1.377 . S
C1096 C1094 1.389 . S
C1096 C1097 1.524 . S
C1096 C1110 1.377 . S
C1097 C1096 1.524 . S
C1097 C1098 1.397 . S
C1097 C1102 1.363 . S
C1098 H1075 0.950 . S
C1098 C1097 1.397 . S
C1098 C1099 1.334 . S
C1099 H1076 0.950 . S
C1099 C1098 1.334 . S
C1099 C1100 1.287 . S
C1100 C1099 1.287 . S
C1100 C1101 1.524 . S
C1100 H1119 0.913 . S
C1101 H1077 0.950 . S
C1101 C1100 1.524 . S
C1101 C1102 1.415 . S
C1102 H1078 0.950 . S
C1102 C1097 1.363 . S
C1102 C1101 1.415 . S
C1103 H1079 0.951 . S
C1103 C1104 1.366 . S
C1103 C1105 1.388 . S
C1104 C1103 1.366 . S
C1104 C1108 1.385 . S
C1105 H1080 0.951 . S
C1105 C1103 1.388 . S
C1105 C1106 1.366 . S
C1106 C1105 1.366 . S
C1106 C1107 1.414 . S
C1106 C1109 1.499 . S
C1107 H1081 0.950 . S
C1107 C1106 1.414 . S
C1107 C1108 1.374 . S
C1108 H1082 0.950 . S
C1108 C1104 1.385 . S
C1108 C1107 1.374 . S
C1109 C1106 1.499 . S
C1109 C1110 1.373 . S
C1109 C1111 1.389 . S
C1110 H1083 0.950 . S
C1110 C1096 1.377 . S
C1110 C1109 1.373 . S
C1111 C1095 1.377 . S
C1111 C1109 1.389 . S
C1111 C1112 1.524 . S
C1112 C1111 1.524 . S
C1112 C1113 1.397 . S
C1112 C1117 1.363 . S
C1113 H1084 0.950 . S
C1113 C1112 1.397 . S
C1113 C1114 1.334 . S
C1114 H1085 0.950 . S
C1114 C1113 1.334 . S
C1114 C1115 1.287 . S
C1115 C1114 1.287 . S
C1115 C1116 1.524 . S
C1115 H1118 0.999 . S
C1116 H1086 0.950 . S
C1116 C1115 1.524 . S
C1116 C1117 1.415 . S
C1117 H1087 0.950 . S
C1117 C1112 1.363 . S
C1117 C1116 1.415 . S
H1118 C1115 0.999 . S
H1119 C1100 0.913 . S
H1120 C1138 0.951 . S
H1121 C1140 0.951 . S
H1122 C1142 0.950 . S
H1123 C1143 0.950 . S
H1124 C1145 0.950 . S
H1125 C1148 0.950 . S
H1126 C1149 0.950 . S
H1127 C1151 0.950 . S
H1128 C1152 0.950 . S
H1129 C1153 0.951 . S
H1130 C1155 0.951 . S
H1131 C1157 0.950 . S
H1132 C1158 0.950 . S
H1133 C1160 0.950 . S
H1134 C1163 0.950 . S
H1135 C1164 0.950 . S
H1136 C1166 0.950 . S
H1137 C1167 0.950 . S
C1138 H1120 0.951 . S
C1138 C1139 1.366 . S
C1138 C1140 1.388 . S
C1139 C1138 1.366 . S
C1139 C1143 1.385 . S
C1140 H1121 0.951 . S
C1140 C1138 1.388 . S
C1140 C1141 1.366 . S
C1141 C1140 1.366 . S
C1141 C1142 1.414 . S
C1141 C1144 1.499 . S
C1142 H1122 0.950 . S
C1142 C1141 1.414 . S
C1142 C1143 1.374 . S
C1143 H1123 0.950 . S
C1143 C1139 1.385 . S
C1143 C1142 1.374 . S
C1144 C1141 1.499 . S
C1144 C1145 1.373 . S
C1144 C1146 1.389 . S
C1145 H1124 0.950 . S
C1145 C1144 1.373 . S
C1145 C1161 1.377 . S
C1146 C1144 1.389 . S
C1146 C1147 1.524 . S
C1146 C1160 1.377 . S
C1147 C1146 1.524 . S
C1147 C1148 1.397 . S
C1147 C1152 1.363 . S
C1148 H1125 0.950 . S
C1148 C1147 1.397 . S
C1148 C1149 1.334 . S
C1149 H1126 0.950 . S
C1149 C1148 1.334 . S
C1149 C1150 1.287 . S
C1150 C1149 1.287 . S
C1150 C1151 1.524 . S
C1150 H1169 0.913 . S
C1151 H1127 0.950 . S
C1151 C1150 1.524 . S
C1151 C1152 1.415 . S
C1152 H1128 0.950 . S
C1152 C1147 1.363 . S
C1152 C1151 1.415 . S
C1153 H1129 0.951 . S
C1153 C1154 1.366 . S
C1153 C1155 1.388 . S
C1154 C1153 1.366 . S
C1154 C1158 1.385 . S
C1155 H1130 0.951 . S
C1155 C1153 1.388 . S
C1155 C1156 1.366 . S
C1156 C1155 1.366 . S
C1156 C1157 1.414 . S
C1156 C1159 1.499 . S
C1157 H1131 0.950 . S
C1157 C1156 1.414 . S
C1157 C1158 1.374 . S
C1158 H1132 0.950 . S
C1158 C1154 1.385 . S
C1158 C1157 1.374 . S
C1159 C1156 1.499 . S
C1159 C1160 1.373 . S
C1159 C1161 1.389 . S
C1160 H1133 0.950 . S
C1160 C1146 1.377 . S
C1160 C1159 1.373 . S
C1161 C1145 1.377 . S
C1161 C1159 1.389 . S
C1161 C1162 1.524 . S
C1162 C1161 1.524 . S
C1162 C1163 1.397 . S
C1162 C1167 1.363 . S
C1163 H1134 0.950 . S
C1163 C1162 1.397 . S
C1163 C1164 1.334 . S
C1164 H1135 0.950 . S
C1164 C1163 1.334 . S
C1164 C1165 1.287 . S
C1165 C1164 1.287 . S
C1165 C1166 1.524 . S
C1165 H1168 0.999 . S
C1166 H1136 0.950 . S
C1166 C1165 1.524 . S
C1166 C1167 1.415 . S
C1167 H1137 0.950 . S
C1167 C1162 1.363 . S
C1167 C1166 1.415 . S
H1168 C1165 0.999 . S
H1169 C1150 0.913 . S
H1170 C1188 0.951 . S
H1171 C1190 0.951 . S
H1172 C1192 0.950 . S
H1173 C1193 0.950 . S
H1174 C1195 0.959 . S
H1175 C1198 0.950 . S
H1176 C1199 0.950 . S
H1177 C1201 0.950 . S
H1178 C1202 0.950 . S
H1179 C1203 0.951 . S
H1180 C1205 0.951 . S
H1181 C1207 0.950 . S
H1182 C1208 0.950 . S
H1183 C1210 0.950 . S
H1184 C1213 0.950 . S
H1185 C1214 0.950 . S
H1186 C1216 0.950 . S
H1187 C1217 0.950 . S
C1188 H1170 0.951 . S
C1188 C1189 1.366 1_565 S
C1188 C1190 1.388 . S
C1189 C1188 1.366 1_545 S
C1189 C1193 1.385 . S
C1190 H1171 0.951 . S
C1190 C1188 1.388 . S
C1190 C1191 1.366 . S
C1191 C1190 1.366 . S
C1191 C1192 1.414 1_565 S
C1191 C1194 1.499 . S
C1192 H1172 0.950 . S
C1192 C1191 1.414 1_545 S
C1192 C1193 1.374 . S
C1193 H1173 0.950 . S
C1193 C1189 1.385 . S
C1193 C1192 1.374 . S
C1194 C1191 1.499 . S
C1194 C1195 1.373 . S
C1194 C1196 1.389 . S
C1195 H1174 0.959 . S
C1195 C1194 1.373 . S
C1195 C1211 1.377 . S
C1196 C1194 1.389 . S
C1196 C1197 1.524 . S
C1196 C1210 1.377 . S
C1197 C1196 1.524 . S
C1197 C1198 1.397 . S
C1197 C1202 1.363 . S
C1198 H1175 0.950 . S
C1198 C1197 1.397 . S
C1198 C1199 1.334 . S
C1199 H1176 0.950 . S
C1199 C1198 1.334 . S
C1199 C1200 1.287 . S
C1200 C1199 1.287 . S
C1200 C1201 1.524 . S
C1200 H1219 0.913 . S
C1201 H1177 0.950 . S
C1201 C1200 1.524 . S
C1201 C1202 1.415 . S
C1202 H1178 0.950 . S
C1202 C1197 1.363 . S
C1202 C1201 1.415 . S
C1203 H1179 0.951 . S
C1203 C1204 1.366 . S
C1203 C1205 1.388 . S
C1204 C1203 1.366 . S
C1204 C1208 1.385 . S
C1205 H1180 0.951 . S
C1205 C1203 1.388 . S
C1205 C1206 1.366 . S
C1206 C1205 1.366 . S
C1206 C1207 1.414 . S
C1206 C1209 1.499 . S
C1207 H1181 0.950 . S
C1207 C1206 1.414 . S
C1207 C1208 1.374 . S
C1208 H1182 0.950 . S
C1208 C1204 1.385 . S
C1208 C1207 1.374 . S
C1209 C1206 1.499 . S
C1209 C1210 1.373 . S
C1209 C1211 1.389 . S
C1210 H1183 0.950 . S
C1210 C1196 1.377 . S
C1210 C1209 1.373 . S
C1211 C1195 1.377 . S
C1211 C1209 1.389 . S
C1211 C1212 1.524 . S
C1212 C1211 1.524 . S
C1212 C1213 1.397 . S
C1212 C1217 1.363 1_565 S
C1213 H1184 0.950 . S
C1213 C1212 1.397 . S
C1213 C1214 1.334 . S
C1214 H1185 0.950 . S
C1214 C1213 1.334 . S
C1214 C1215 1.287 1_565 S
C1215 C1214 1.287 1_545 S
C1215 C1216 1.524 . S
C1215 H1218 0.999 . S
C1216 H1186 0.950 . S
C1216 C1215 1.524 . S
C1216 C1217 1.415 . S
C1217 H1187 0.950 . S
C1217 C1212 1.363 1_545 S
C1217 C1216 1.415 . S
H1218 C1215 0.999 . S
H1219 C1200 0.913 . S
H1220 C1238 0.951 . S
H1221 C1240 0.951 . S
H1222 C1242 0.950 . S
H1223 C1243 0.950 . S
H1224 C1245 0.950 . S
H1225 C1248 0.950 . S
H1226 C1249 0.950 . S
H1227 C1251 0.950 . S
H1228 C1252 0.950 . S
H1229 C1253 0.951 . S
H1230 C1255 0.951 . S
H1231 C1257 0.950 . S
H1232 C1258 0.950 . S
H1233 C1260 0.950 . S
H1234 C1263 0.950 . S
H1235 C1264 0.950 . S
H1236 C1266 0.950 . S
H1237 C1267 0.950 . S
C1238 H1220 0.951 . S
C1238 C1239 1.366 . S
C1238 C1240 1.388 . S
C1239 C1238 1.366 . S
C1239 C1243 1.385 . S
C1240 H1221 0.951 . S
C1240 C1238 1.388 . S
C1240 C1241 1.366 . S
C1241 C1240 1.366 . S
C1241 C1242 1.414 . S
C1241 C1244 1.499 . S
C1242 H1222 0.950 . S
C1242 C1241 1.414 . S
C1242 C1243 1.374 . S
C1243 H1223 0.950 . S
C1243 C1239 1.385 . S
C1243 C1242 1.374 . S
C1244 C1241 1.499 . S
C1244 C1245 1.373 . S
C1244 C1246 1.387 . S
C1245 H1224 0.950 . S
C1245 C1244 1.373 . S
C1245 C1261 1.377 1_554 S
C1246 C1244 1.387 . S
C1246 C1247 1.524 . S
C1246 C1260 1.379 1_554 S
C1247 C1246 1.524 . S
C1247 C1248 1.397 . S
C1247 C1252 1.363 1_554 S
C1248 H1225 0.950 . S
C1248 C1247 1.397 . S
C1248 C1249 1.334 . S
C1249 H1226 0.950 . S
C1249 C1248 1.334 . S
C1249 C1250 1.287 . S
C1250 C1249 1.287 . S
C1250 C1251 1.524 1_554 S
C1250 H1269 0.913 . S
C1251 H1227 0.950 . S
C1251 C1250 1.524 1_556 S
C1251 C1252 1.415 . S
C1252 H1228 0.950 . S
C1252 C1247 1.363 1_556 S
C1252 C1251 1.415 . S
C1253 H1229 0.951 . S
C1253 C1254 1.366 . S
C1253 C1255 1.388 . S
C1254 C1253 1.366 . S
C1254 C1258 1.385 . S
C1255 H1230 0.951 . S
C1255 C1253 1.388 . S
C1255 C1256 1.366 . S
C1256 C1255 1.366 . S
C1256 C1257 1.414 . S
C1256 C1259 1.499 . S
C1257 H1231 0.950 . S
C1257 C1256 1.414 . S
C1257 C1258 1.374 . S
C1258 H1232 0.950 . S
C1258 C1254 1.385 . S
C1258 C1257 1.374 . S
C1259 C1256 1.499 . S
C1259 C1260 1.373 . S
C1259 C1261 1.389 . S
C1260 H1233 0.950 . S
C1260 C1246 1.379 1_556 S
C1260 C1259 1.373 . S
C1261 C1245 1.377 1_556 S
C1261 C1259 1.389 . S
C1261 C1262 1.524 . S
C1262 C1261 1.524 . S
C1262 C1263 1.397 . S
C1262 C1267 1.363 1_556 S
C1263 H1234 0.950 . S
C1263 C1262 1.397 . S
C1263 C1264 1.334 . S
C1264 H1235 0.950 . S
C1264 C1263 1.334 . S
C1264 C1265 1.287 . S
C1265 C1264 1.287 . S
C1265 C1266 1.524 1_556 S
C1265 H1268 0.999 . S
C1266 H1236 0.950 . S
C1266 C1265 1.524 1_554 S
C1266 C1267 1.415 . S
C1267 H1237 0.950 . S
C1267 C1262 1.363 1_554 S
C1267 C1266 1.415 . S
H1268 C1265 0.999 . S
H1269 C1250 0.913 . S
H1270 C1288 0.951 . S
H1271 C1290 0.951 . S
H1272 C1292 0.950 . S
H1273 C1293 0.950 . S
H1274 C1295 0.950 . S
H1275 C1298 0.950 . S
H1276 C1299 0.950 . S
H1277 C1301 0.950 . S
H1278 C1302 0.950 . S
H1279 C1303 0.951 . S
H1280 C1305 0.951 . S
H1281 C1307 0.952 . S
H1282 C1308 0.950 . S
H1283 C1310 0.950 . S
H1284 C1313 0.950 . S
H1285 C1314 0.950 . S
H1286 C1316 0.950 1_545 S
H1287 C1317 0.950 . S
C1288 H1270 0.951 . S
C1288 C1289 1.366 . S
C1288 C1290 1.388 . S
C1289 C1288 1.366 . S
C1289 C1293 1.385 . S
C1290 H1271 0.951 . S
C1290 C1288 1.388 . S
C1290 C1291 1.366 . S
C1291 C1290 1.366 . S
C1291 C1292 1.414 . S
C1291 C1294 1.499 . S
C1292 H1272 0.950 . S
C1292 C1291 1.414 . S
C1292 C1293 1.374 . S
C1293 H1273 0.950 . S
C1293 C1289 1.385 . S
C1293 C1292 1.374 . S
C1294 C1291 1.499 . S
C1294 C1295 1.373 . S
C1294 C1296 1.389 . S
C1295 H1274 0.950 . S
C1295 C1294 1.373 . S
C1295 C1311 1.377 . S
C1296 C1294 1.389 . S
C1296 C1297 1.524 . S
C1296 C1310 1.377 . S
C1297 C1296 1.524 . S
C1297 C1298 1.397 . S
C1297 C1302 1.363 . S
C1298 H1275 0.950 . S
C1298 C1297 1.397 . S
C1298 C1299 1.334 . S
C1299 H1276 0.950 . S
C1299 C1298 1.334 . S
C1299 C1300 1.287 . S
C1300 C1299 1.287 . S
C1300 C1301 1.524 . S
C1300 H1319 0.913 . S
C1301 H1277 0.950 . S
C1301 C1300 1.524 . S
C1301 C1302 1.415 . S
C1302 H1278 0.950 . S
C1302 C1297 1.363 . S
C1302 C1301 1.415 . S
C1303 H1279 0.951 . S
C1303 C1304 1.366 1_545 S
C1303 C1305 1.388 . S
C1304 C1303 1.366 1_565 S
C1304 C1308 1.385 . S
C1305 H1280 0.951 . S
C1305 C1303 1.388 . S
C1305 C1306 1.366 . S
C1306 C1305 1.366 . S
C1306 C1307 1.414 . S
C1306 C1309 1.499 . S
C1307 H1281 0.952 . S
C1307 C1306 1.414 . S
C1307 C1308 1.374 1_545 S
C1308 H1282 0.950 . S
C1308 C1304 1.385 . S
C1308 C1307 1.374 1_565 S
C1309 C1306 1.499 . S
C1309 C1310 1.373 . S
C1309 C1311 1.389 . S
C1310 H1283 0.950 . S
C1310 C1296 1.377 . S
C1310 C1309 1.373 . S
C1311 C1295 1.377 . S
C1311 C1309 1.389 . S
C1311 C1312 1.524 . S
C1312 C1311 1.524 . S
C1312 C1313 1.397 1_545 S
C1312 C1317 1.363 . S
C1313 H1284 0.950 . S
C1313 C1312 1.397 1_565 S
C1313 C1314 1.334 . S
C1314 H1285 0.950 . S
C1314 C1313 1.334 . S
C1314 C1315 1.287 . S
C1315 C1314 1.287 . S
C1315 C1316 1.524 . S
C1315 H1318 0.999 . S
C1316 H1286 0.950 1_565 S
C1316 C1315 1.524 . S
C1316 C1317 1.415 1_565 S
C1317 H1287 0.950 . S
C1317 C1312 1.363 . S
C1317 C1316 1.415 1_545 S
H1318 C1315 0.999 . S
H1319 C1300 0.913 . S
H1320 C1338 0.951 . S
H1321 C1340 0.951 . S
H1322 C1342 0.950 . S
H1323 C1343 0.950 . S
H1324 C1345 0.950 . S
H1325 C1348 0.950 . S
H1326 C1349 0.950 . S
H1327 C1351 0.950 . S
H1328 C1352 0.950 . S
H1329 C1353 0.951 . S
H1330 C1355 0.951 . S
H1331 C1357 0.950 . S
H1332 C1358 0.950 . S
H1333 C1360 0.950 . S
H1334 C1363 0.950 . S
H1335 C1364 0.950 . S
H1336 C1366 0.950 . S
H1337 C1367 0.950 . S
C1338 H1320 0.951 . S
C1338 C1339 1.366 . S
C1338 C1340 1.388 . S
C1339 C1338 1.366 . S
C1339 C1343 1.385 . S
C1340 H1321 0.951 . S
C1340 C1338 1.388 . S
C1340 C1341 1.366 . S
C1341 C1340 1.366 . S
C1341 C1342 1.414 . S
C1341 C1344 1.499 . S
C1342 H1322 0.950 . S
C1342 C1341 1.414 . S
C1342 C1343 1.374 . S
C1343 H1323 0.950 . S
C1343 C1339 1.385 . S
C1343 C1342 1.374 . S
C1344 C1341 1.499 . S
C1344 C1345 1.373 . S
C1344 C1346 1.389 . S
C1345 H1324 0.950 . S
C1345 C1344 1.373 . S
C1345 C1361 1.377 . S
C1346 C1344 1.389 . S
C1346 C1347 1.524 . S
C1346 C1360 1.377 . S
C1347 C1346 1.524 . S
C1347 C1348 1.397 . S
C1347 C1352 1.363 . S
C1348 H1325 0.950 . S
C1348 C1347 1.397 . S
C1348 C1349 1.334 . S
C1349 H1326 0.950 . S
C1349 C1348 1.334 . S
C1349 C1350 1.287 . S
C1350 C1349 1.287 . S
C1350 C1351 1.524 . S
C1350 H1369 0.913 . S
C1351 H1327 0.950 . S
C1351 C1350 1.524 . S
C1351 C1352 1.415 . S
C1352 H1328 0.950 . S
C1352 C1347 1.363 . S
C1352 C1351 1.415 . S
C1353 H1329 0.951 . S
C1353 C1354 1.366 . S
C1353 C1355 1.388 . S
C1354 C1353 1.366 . S
C1354 C1358 1.385 . S
C1355 H1330 0.951 . S
C1355 C1353 1.388 . S
C1355 C1356 1.366 . S
C1356 C1355 1.366 . S
C1356 C1357 1.414 . S
C1356 C1359 1.499 . S
C1357 H1331 0.950 . S
C1357 C1356 1.414 . S
C1357 C1358 1.374 . S
C1358 H1332 0.950 . S
C1358 C1354 1.385 . S
C1358 C1357 1.374 . S
C1359 C1356 1.499 . S
C1359 C1360 1.373 . S
C1359 C1361 1.389 . S
C1360 H1333 0.950 . S
C1360 C1346 1.377 . S
C1360 C1359 1.373 . S
C1361 C1345 1.377 . S
C1361 C1359 1.389 . S
C1361 C1362 1.524 . S
C1362 C1361 1.524 . S
C1362 C1363 1.397 . S
C1362 C1367 1.363 . S
C1363 H1334 0.950 . S
C1363 C1362 1.397 . S
C1363 C1364 1.334 . S
C1364 H1335 0.950 . S
C1364 C1363 1.334 . S
C1364 C1365 1.287 . S
C1365 C1364 1.287 . S
C1365 C1366 1.524 . S
C1365 H1368 0.999 . S
C1366 H1336 0.950 . S
C1366 C1365 1.524 . S
C1366 C1367 1.415 . S
C1367 H1337 0.950 . S
C1367 C1362 1.363 . S
C1367 C1366 1.415 . S
H1368 C1365 0.999 . S
H1369 C1350 0.913 . S
H1370 C1388 0.951 . S
H1371 C1390 0.951 . S
H1372 C1392 0.950 . S
H1373 C1393 0.950 . S
H1374 C1395 0.950 . S
H1375 C1398 0.950 . S
H1376 C1399 0.950 . S
H1377 C1401 0.950 . S
H1378 C1402 0.950 . S
H1379 C1403 0.951 . S
H1380 C1405 0.951 . S
H1381 C1407 0.950 . S
H1382 C1408 0.950 . S
H1383 C1410 0.950 . S
H1384 C1413 0.950 . S
H1385 C1414 0.950 . S
H1386 C1416 0.950 . S
H1387 C1417 0.950 . S
C1388 H1370 0.951 . S
C1388 C1389 1.366 . S
C1388 C1390 1.388 . S
C1389 C1388 1.366 . S
C1389 C1393 1.385 1_565 S
C1390 H1371 0.951 . S
C1390 C1388 1.388 . S
C1390 C1391 1.366 1_565 S
C1391 C1390 1.366 1_545 S
C1391 C1392 1.414 . S
C1391 C1394 1.499 . S
C1392 H1372 0.950 . S
C1392 C1391 1.414 . S
C1392 C1393 1.374 . S
C1393 H1373 0.950 . S
C1393 C1389 1.385 1_545 S
C1393 C1392 1.374 . S
C1394 C1391 1.499 . S
C1394 C1395 1.373 . S
C1394 C1396 1.389 . S
C1395 H1374 0.950 . S
C1395 C1394 1.373 . S
C1395 C1411 1.377 . S
C1396 C1394 1.389 . S
C1396 C1397 1.524 . S
C1396 C1410 1.377 . S
C1397 C1396 1.524 . S
C1397 C1398 1.397 . S
C1397 C1402 1.363 1_545 S
C1398 H1375 0.950 . S
C1398 C1397 1.397 . S
C1398 C1399 1.334 . S
C1399 H1376 0.950 . S
C1399 C1398 1.334 . S
C1399 C1400 1.287 1_545 S
C1400 C1399 1.287 1_565 S
C1400 C1401 1.524 . S
C1400 H1419 0.913 . S
C1401 H1377 0.950 . S
C1401 C1400 1.524 . S
C1401 C1402 1.415 . S
C1402 H1378 0.950 . S
C1402 C1397 1.363 1_565 S
C1402 C1401 1.415 . S
C1403 H1379 0.951 . S
C1403 C1404 1.366 . S
C1403 C1405 1.388 . S
C1404 C1403 1.366 . S
C1404 C1408 1.385 . S
C1405 H1380 0.951 . S
C1405 C1403 1.388 . S
C1405 C1406 1.366 . S
C1406 C1405 1.366 . S
C1406 C1407 1.414 . S
C1406 C1409 1.499 . S
C1407 H1381 0.950 . S
C1407 C1406 1.414 . S
C1407 C1408 1.374 . S
C1408 H1382 0.950 . S
C1408 C1404 1.385 . S
C1408 C1407 1.374 . S
C1409 C1406 1.499 . S
C1409 C1410 1.373 . S
C1409 C1411 1.389 . S
C1410 H1383 0.950 . S
C1410 C1396 1.377 . S
C1410 C1409 1.373 . S
C1411 C1395 1.377 . S
C1411 C1409 1.389 . S
C1411 C1412 1.524 . S
C1412 C1411 1.524 . S
C1412 C1413 1.397 . S
C1412 C1417 1.363 . S
C1413 H1384 0.950 . S
C1413 C1412 1.397 . S
C1413 C1414 1.334 . S
C1414 H1385 0.950 . S
C1414 C1413 1.334 . S
C1414 C1415 1.287 . S
C1415 C1414 1.287 . S
C1415 C1416 1.524 . S
C1415 H1418 0.999 . S
C1416 H1386 0.950 . S
C1416 C1415 1.524 . S
C1416 C1417 1.415 . S
C1417 H1387 0.950 . S
C1417 C1412 1.363 . S
C1417 C1416 1.415 . S
H1418 C1415 0.999 . S
H1419 C1400 0.913 . S
H1420 C1438 0.951 . S
H1421 C1440 0.951 . S
H1422 C1442 0.950 . S
H1423 C1443 0.950 . S
H1424 C1445 0.950 . S
H1425 C1448 0.950 . S
H1426 C1449 0.950 . S
H1427 C1451 0.950 . S
H1428 C1452 0.950 . S
H1429 C1453 0.951 . S
H1430 C1455 0.951 . S
H1431 C1457 0.950 . S
H1432 C1458 0.950 . S
H1433 C1460 0.950 . S
H1434 C1463 0.950 . S
H1435 C1464 0.950 . S
H1436 C1466 0.950 . S
H1437 C1467 0.950 . S
C1438 H1420 0.951 . S
C1438 C1439 1.366 . S
C1438 C1440 1.388 . S
C1439 C1438 1.366 . S
C1439 C1443 1.385 . S
C1440 H1421 0.951 . S
C1440 C1438 1.388 . S
C1440 C1441 1.366 . S
C1441 C1440 1.366 . S
C1441 C1442 1.414 . S
C1441 C1444 1.499 . S
C1442 H1422 0.950 . S
C1442 C1441 1.414 . S
C1442 C1443 1.374 . S
C1443 H1423 0.950 . S
C1443 C1439 1.385 . S
C1443 C1442 1.374 . S
C1444 C1441 1.499 . S
C1444 C1445 1.373 . S
C1444 C1446 1.389 . S
C1445 H1424 0.950 . S
C1445 C1444 1.373 . S
C1445 C1461 1.377 . S
C1446 C1444 1.389 . S
C1446 C1447 1.524 . S
C1446 C1460 1.377 1_554 S
C1447 C1446 1.524 . S
C1447 C1448 1.397 . S
C1447 C1452 1.363 1_554 S
C1448 H1425 0.950 . S
C1448 C1447 1.397 . S
C1448 C1449 1.334 . S
C1449 H1426 0.950 . S
C1449 C1448 1.334 . S
C1449 C1450 1.287 . S
C1450 C1449 1.287 . S
C1450 C1451 1.524 1_554 S
C1450 H1469 0.913 . S
C1451 H1427 0.950 . S
C1451 C1450 1.524 1_556 S
C1451 C1452 1.415 . S
C1452 H1428 0.950 . S
C1452 C1447 1.363 1_556 S
C1452 C1451 1.415 . S
C1453 H1429 0.951 . S
C1453 C1454 1.366 . S
C1453 C1455 1.388 . S
C1454 C1453 1.366 . S
C1454 C1458 1.385 . S
C1455 H1430 0.951 . S
C1455 C1453 1.388 . S
C1455 C1456 1.366 . S
C1456 C1455 1.366 . S
C1456 C1457 1.414 . S
C1456 C1459 1.499 . S
C1457 H1431 0.950 . S
C1457 C1456 1.414 . S
C1457 C1458 1.374 . S
C1458 H1432 0.950 . S
C1458 C1454 1.385 . S
C1458 C1457 1.374 . S
C1459 C1456 1.499 . S
C1459 C1460 1.373 . S
C1459 C1461 1.389 1_556 S
C1460 H1433 0.950 . S
C1460 C1446 1.377 1_556 S
C1460 C1459 1.373 . S
C1461 C1445 1.377 . S
C1461 C1459 1.389 1_554 S
C1461 C1462 1.525 . S
C1462 C1461 1.525 . S
C1462 C1463 1.389 1_554 S
C1462 C1467 1.371 . S
C1463 H1434 0.950 . S
C1463 C1462 1.389 1_556 S
C1463 C1464 1.334 . S
C1464 H1435 0.950 . S
C1464 C1463 1.334 . S
C1464 C1465 1.310 . S
C1465 C1464 1.310 . S
C1465 C1466 1.502 1_556 S
C1465 H1468 1.001 . S
C1466 H1436 0.950 . S
C1466 C1465 1.502 1_554 S
C1466 C1467 1.415 . S
C1467 H1437 0.950 . S
C1467 C1462 1.371 . S
C1467 C1466 1.415 . S
H1468 C1465 1.001 . S
H1469 C1450 0.913 . S
H1470 C1488 0.951 . S
H1471 C1490 0.951 . S
H1472 C1492 0.950 . S
H1473 C1493 0.950 . S
H1474 C1495 0.950 . S
H1475 C1498 0.950 . S
H1476 C1499 0.950 . S
H1477 C1501 0.950 . S
H1478 C1502 0.950 . S
H1479 C1503 0.951 . S
H1480 C1505 0.951 . S
H1481 C1507 0.950 . S
H1482 C1508 0.950 . S
H1483 C1510 0.950 . S
H1484 C1513 0.950 . S
H1485 C1514 0.950 . S
H1486 C1516 0.950 . S
H1487 C1517 0.950 . S
C1488 H1470 0.951 . S
C1488 C1489 1.366 . S
C1488 C1490 1.388 . S
C1489 C1488 1.366 . S
C1489 C1493 1.385 1_545 S
C1490 H1471 0.951 . S
C1490 C1488 1.388 . S
C1490 C1491 1.366 1_545 S
C1491 C1490 1.366 1_565 S
C1491 C1492 1.414 . S
C1491 C1494 1.499 . S
C1492 H1472 0.950 . S
C1492 C1491 1.414 . S
C1492 C1493 1.374 . S
C1493 H1473 0.950 . S
C1493 C1489 1.385 1_565 S
C1493 C1492 1.374 . S
C1494 C1491 1.499 . S
C1494 C1495 1.373 . S
C1494 C1496 1.389 . S
C1495 H1474 0.950 . S
C1495 C1494 1.373 . S
C1495 C1511 1.377 . S
C1496 C1494 1.389 . S
C1496 C1497 1.524 1_565 S
C1496 C1510 1.377 . S
C1497 C1496 1.524 1_545 S
C1497 C1498 1.397 1_545 S
C1497 C1502 1.363 . S
C1498 H1475 0.950 . S
C1498 C1497 1.397 1_565 S
C1498 C1499 1.334 1_565 S
C1499 H1476 0.950 . S
C1499 C1498 1.334 1_545 S
C1499 C1500 1.287 . S
C1500 C1499 1.287 . S
C1500 C1501 1.524 . S
C1500 H1519 0.913 . S
C1501 H1477 0.950 . S
C1501 C1500 1.524 . S
C1501 C1502 1.415 . S
C1502 H1478 0.950 . S
C1502 C1497 1.363 . S
C1502 C1501 1.415 . S
C1503 H1479 0.951 . S
C1503 C1504 1.366 . S
C1503 C1505 1.388 . S
C1504 C1503 1.366 . S
C1504 C1508 1.385 . S
C1505 H1480 0.951 . S
C1505 C1503 1.388 . S
C1505 C1506 1.366 . S
C1506 C1505 1.366 . S
C1506 C1507 1.414 . S
C1506 C1509 1.499 . S
C1507 H1481 0.950 . S
C1507 C1506 1.414 . S
C1507 C1508 1.374 . S
C1508 H1482 0.950 . S
C1508 C1504 1.385 . S
C1508 C1507 1.374 . S
C1509 C1506 1.499 . S
C1509 C1510 1.373 . S
C1509 C1511 1.389 . S
C1510 H1483 0.950 . S
C1510 C1496 1.377 . S
C1510 C1509 1.373 . S
C1511 C1495 1.377 . S
C1511 C1509 1.389 . S
C1511 C1512 1.524 . S
C1512 C1511 1.524 . S
C1512 C1513 1.397 . S
C1512 C1517 1.363 . S
C1513 H1484 0.950 . S
C1513 C1512 1.397 . S
C1513 C1514 1.334 . S
C1514 H1485 0.950 . S
C1514 C1513 1.334 . S
C1514 C1515 1.287 . S
C1515 C1514 1.287 . S
C1515 C1516 1.524 . S
C1515 H1518 0.999 . S
C1516 H1486 0.950 . S
C1516 C1515 1.524 . S
C1516 C1517 1.415 . S
C1517 H1487 0.950 . S
C1517 C1512 1.363 . S
C1517 C1516 1.415 . S
H1518 C1515 0.999 . S
H1519 C1500 0.913 . S
H1520 C1538 0.951 . S
H1521 C1540 0.951 . S
H1522 C1542 0.950 . S
H1523 C1543 0.950 . S
H1524 C1545 0.950 . S
H1525 C1548 0.950 . S
H1526 C1549 0.950 . S
H1527 C1551 0.950 . S
H1528 C1552 0.950 . S
H1529 C1553 0.951 . S
H1530 C1555 0.951 . S
H1531 C1557 0.950 . S
H1532 C1558 0.950 . S
H1533 C1560 0.950 . S
H1534 C1563 0.950 . S
H1535 C1564 0.950 . S
H1536 C1566 0.950 . S
H1537 C1567 0.950 . S
C1538 H1520 0.951 . S
C1538 C1539 1.366 . S
C1538 C1540 1.388 . S
C1539 C1538 1.366 . S
C1539 C1543 1.385 . S
C1540 H1521 0.951 . S
C1540 C1538 1.388 . S
C1540 C1541 1.366 . S
C1541 C1540 1.366 . S
C1541 C1542 1.414 . S
C1541 C1544 1.499 . S
C1542 H1522 0.950 . S
C1542 C1541 1.414 . S
C1542 C1543 1.374 . S
C1543 H1523 0.950 . S
C1543 C1539 1.385 . S
C1543 C1542 1.374 . S
C1544 C1541 1.499 . S
C1544 C1545 1.373 . S
C1544 C1546 1.389 . S
C1545 H1524 0.950 . S
C1545 C1544 1.373 . S
C1545 C1561 1.377 . S
C1546 C1544 1.389 . S
C1546 C1547 1.524 . S
C1546 C1560 1.377 . S
C1547 C1546 1.524 . S
C1547 C1548 1.397 . S
C1547 C1552 1.363 . S
C1548 H1525 0.950 . S
C1548 C1547 1.397 . S
C1548 C1549 1.334 . S
C1549 H1526 0.950 . S
C1549 C1548 1.334 . S
C1549 C1550 1.287 . S
C1550 C1549 1.287 . S
C1550 C1551 1.524 . S
C1550 H1569 0.913 . S
C1551 H1527 0.950 . S
C1551 C1550 1.524 . S
C1551 C1552 1.415 . S
C1552 H1528 0.950 . S
C1552 C1547 1.363 . S
C1552 C1551 1.415 . S
C1553 H1529 0.951 . S
C1553 C1554 1.366 . S
C1553 C1555 1.388 . S
C1554 C1553 1.366 . S
C1554 C1558 1.385 . S
C1555 H1530 0.951 . S
C1555 C1553 1.388 . S
C1555 C1556 1.366 . S
C1556 C1555 1.366 . S
C1556 C1557 1.414 . S
C1556 C1559 1.499 . S
C1557 H1531 0.950 . S
C1557 C1556 1.414 . S
C1557 C1558 1.374 . S
C1558 H1532 0.950 . S
C1558 C1554 1.385 . S
C1558 C1557 1.374 . S
C1559 C1556 1.499 . S
C1559 C1560 1.373 . S
C1559 C1561 1.389 . S
C1560 H1533 0.950 . S
C1560 C1546 1.377 . S
C1560 C1559 1.373 . S
C1561 C1545 1.377 . S
C1561 C1559 1.389 . S
C1561 C1562 1.524 . S
C1562 C1561 1.524 . S
C1562 C1563 1.397 . S
C1562 C1567 1.363 . S
C1563 H1534 0.950 . S
C1563 C1562 1.397 . S
C1563 C1564 1.334 . S
C1564 H1535 0.950 . S
C1564 C1563 1.334 . S
C1564 C1565 1.287 . S
C1565 C1564 1.287 . S
C1565 C1566 1.524 . S
C1565 H1568 0.999 . S
C1566 H1536 0.950 . S
C1566 C1565 1.524 . S
C1566 C1567 1.415 . S
C1567 H1537 0.950 . S
C1567 C1562 1.363 . S
C1567 C1566 1.415 . S
H1568 C1565 0.999 . S
H1569 C1550 0.913 . S
H1570 C1588 0.951 . S
H1571 C1590 0.951 . S
H1572 C1592 0.950 . S
H1573 C1593 0.950 . S
H1574 C1595 0.950 . S
H1575 C1598 0.950 . S
H1576 C1599 0.950 . S
H1577 C1601 0.950 . S
H1578 C1602 0.950 . S
H1579 C1603 0.951 . S
H1580 C1605 0.951 . S
H1581 C1607 0.950 . S
H1582 C1608 0.950 . S
H1583 C1610 0.950 . S
H1584 C1613 0.950 . S
H1585 C1614 0.950 . S
H1586 C1616 0.950 . S
H1587 C1617 0.950 . S
C1588 H1570 0.951 . S
C1588 C1589 1.366 . S
C1588 C1590 1.388 . S
C1589 C1588 1.366 . S
C1589 C1593 1.385 . S
C1590 H1571 0.951 . S
C1590 C1588 1.388 . S
C1590 C1591 1.366 . S
C1591 C1590 1.366 . S
C1591 C1592 1.414 . S
C1591 C1594 1.499 . S
C1592 H1572 0.950 . S
C1592 C1591 1.414 . S
C1592 C1593 1.374 . S
C1593 H1573 0.950 . S
C1593 C1589 1.385 . S
C1593 C1592 1.374 . S
C1594 C1591 1.499 . S
C1594 C1595 1.373 . S
C1594 C1596 1.389 . S
C1595 H1574 0.950 . S
C1595 C1594 1.373 . S
C1595 C1611 1.377 . S
C1596 C1594 1.389 . S
C1596 C1597 1.524 . S
C1596 C1610 1.377 . S
C1597 C1596 1.524 . S
C1597 C1598 1.397 . S
C1597 C1602 1.363 . S
C1598 H1575 0.950 . S
C1598 C1597 1.397 . S
C1598 C1599 1.334 . S
C1599 H1576 0.950 . S
C1599 C1598 1.334 . S
C1599 C1600 1.287 . S
C1600 C1599 1.287 . S
C1600 C1601 1.524 . S
C1600 H1619 0.913 . S
C1601 H1577 0.950 . S
C1601 C1600 1.524 . S
C1601 C1602 1.415 . S
C1602 H1578 0.950 . S
C1602 C1597 1.363 . S
C1602 C1601 1.415 . S
C1603 H1579 0.951 . S
C1603 C1604 1.366 . S
C1603 C1605 1.388 . S
C1604 C1603 1.366 . S
C1604 C1608 1.385 . S
C1605 H1580 0.951 . S
C1605 C1603 1.388 . S
C1605 C1606 1.366 . S
C1606 C1605 1.366 . S
C1606 C1607 1.414 . S
C1606 C1609 1.499 . S
C1607 H1581 0.950 . S
C1607 C1606 1.414 . S
C1607 C1608 1.374 . S
C1608 H1582 0.950 . S
C1608 C1604 1.385 . S
C1608 C1607 1.374 . S
C1609 C1606 1.499 . S
C1609 C1610 1.373 . S
C1609 C1611 1.389 . S
C1610 H1583 0.950 . S
C1610 C1596 1.377 . S
C1610 C1609 1.373 . S
C1611 C1595 1.377 . S
C1611 C1609 1.389 . S
C1611 C1612 1.524 . S
C1612 C1611 1.524 . S
C1612 C1613 1.397 . S
C1612 C1617 1.363 . S
C1613 H1584 0.950 . S
C1613 C1612 1.397 . S
C1613 C1614 1.334 . S
C1614 H1585 0.950 . S
C1614 C1613 1.334 . S
C1614 C1615 1.287 . S
C1615 C1614 1.287 . S
C1615 C1616 1.524 . S
C1615 H1618 0.999 . S
C1616 H1586 0.950 . S
C1616 C1615 1.524 . S
C1616 C1617 1.415 . S
C1617 H1587 0.950 . S
C1617 C1612 1.363 . S
C1617 C1616 1.415 . S
H1618 C1615 0.999 . S
H1619 C1600 0.913 . S
H1620 C1638 0.951 . S
H1621 C1640 0.951 . S
H1622 C1642 0.950 . S
H1623 C1643 0.950 . S
H1624 C1645 0.950 . S
H1625 C1648 0.950 . S
H1626 C1649 0.950 . S
H1627 C1651 0.950 . S
H1628 C1652 0.950 . S
H1629 C1653 0.951 . S
H1630 C1655 0.951 . S
H1631 C1657 0.950 . S
H1632 C1658 0.950 . S
H1633 C1660 0.950 . S
H1634 C1663 0.950 . S
H1635 C1664 0.950 . S
H1636 C1666 0.950 . S
H1637 C1667 0.950 . S
C1638 H1620 0.951 . S
C1638 C1639 1.366 . S
C1638 C1640 1.388 . S
C1639 C1638 1.366 . S
C1639 C1643 1.385 . S
C1640 H1621 0.951 . S
C1640 C1638 1.388 . S
C1640 C1641 1.366 . S
C1641 C1640 1.366 . S
C1641 C1642 1.414 . S
C1641 C1644 1.499 . S
C1642 H1622 0.950 . S
C1642 C1641 1.414 . S
C1642 C1643 1.374 . S
C1643 H1623 0.950 . S
C1643 C1639 1.385 . S
C1643 C1642 1.374 . S
C1644 C1641 1.499 . S
C1644 C1645 1.373 . S
C1644 C1646 1.389 . S
C1645 H1624 0.950 . S
C1645 C1644 1.373 . S
C1645 C1661 1.377 1_655 S
C1646 C1644 1.389 . S
C1646 C1647 1.524 . S
C1646 C1660 1.377 1_655 S
C1647 C1646 1.524 . S
C1647 C1648 1.397 . S
C1647 C1652 1.363 1_655 S
C1648 H1625 0.950 . S
C1648 C1647 1.397 . S
C1648 C1649 1.334 . S
C1649 H1626 0.950 . S
C1649 C1648 1.334 . S
C1649 C1650 1.287 . S
C1650 C1649 1.287 . S
C1650 C1651 1.524 1_655 S
C1650 H1669 0.913 . S
C1651 H1627 0.950 . S
C1651 C1650 1.524 1_455 S
C1651 C1652 1.415 . S
C1652 H1628 0.950 . S
C1652 C1647 1.363 1_455 S
C1652 C1651 1.415 . S
C1653 H1629 0.951 . S
C1653 C1654 1.366 . S
C1653 C1655 1.388 . S
C1654 C1653 1.366 . S
C1654 C1658 1.385 . S
C1655 H1630 0.951 . S
C1655 C1653 1.388 . S
C1655 C1656 1.366 . S
C1656 C1655 1.366 . S
C1656 C1657 1.414 . S
C1656 C1659 1.499 . S
C1657 H1631 0.950 . S
C1657 C1656 1.414 . S
C1657 C1658 1.374 . S
C1658 H1632 0.950 . S
C1658 C1654 1.385 . S
C1658 C1657 1.374 . S
C1659 C1656 1.499 . S
C1659 C1660 1.373 . S
C1659 C1661 1.389 . S
C1660 H1633 0.950 . S
C1660 C1646 1.377 1_455 S
C1660 C1659 1.373 . S
C1661 C1645 1.377 1_455 S
C1661 C1659 1.389 . S
C1661 C1662 1.524 . S
C1662 C1661 1.524 . S
C1662 C1663 1.397 . S
C1662 C1667 1.363 1_455 S
C1663 H1634 0.950 . S
C1663 C1662 1.397 . S
C1663 C1664 1.334 . S
C1664 H1635 0.950 . S
C1664 C1663 1.334 . S
C1664 C1665 1.287 . S
C1665 C1664 1.287 . S
C1665 C1666 1.524 1_455 S
C1665 H1668 0.999 . S
C1666 H1636 0.950 . S
C1666 C1665 1.524 1_655 S
C1666 C1667 1.415 . S
C1667 H1637 0.950 . S
C1667 C1662 1.363 1_655 S
C1667 C1666 1.415 . S
H1668 C1665 0.999 . S
H1669 C1650 0.913 . S
H1670 C1688 0.951 . S
H1671 C1690 0.951 . S
H1672 C1692 0.950 1_455 S
H1673 C1693 0.950 . S
H1674 C1695 0.950 . S
H1675 C1698 0.950 1_455 S
H1676 C1699 0.950 . S
H1677 C1701 0.950 . S
H1678 C1702 0.950 . S
H1679 C1703 0.951 . S
H1680 C1705 0.951 . S
H1681 C1707 0.950 1_655 S
H1682 C1708 0.950 . S
H1683 C1710 0.950 . S
H1684 C1713 0.950 1_655 S
H1685 C1714 0.950 . S
H1686 C1716 0.950 . S
H1687 C1717 0.950 . S
C1688 H1670 0.951 . S
C1688 C1689 1.366 . S
C1688 C1690 1.388 . S
C1689 C1688 1.366 . S
C1689 C1693 1.385 . S
C1690 H1671 0.951 . S
C1690 C1688 1.388 . S
C1690 C1691 1.366 . S
C1691 C1690 1.366 . S
C1691 C1692 1.414 . S
C1691 C1694 1.499 . S
C1692 H1672 0.950 1_655 S
C1692 C1691 1.414 . S
C1692 C1693 1.374 . S
C1693 H1673 0.950 . S
C1693 C1689 1.385 . S
C1693 C1692 1.374 . S
C1694 C1691 1.499 . S
C1694 C1695 1.373 1_655 S
C1694 C1696 1.389 . S
C1695 H1674 0.950 . S
C1695 C1694 1.373 1_455 S
C1695 C1711 1.377 . S
C1696 C1694 1.389 . S
C1696 C1697 1.524 . S
C1696 C1710 1.377 . S
C1697 C1696 1.524 . S
C1697 C1698 1.397 . S
C1697 C1702 1.363 . S
C1698 H1675 0.950 1_655 S
C1698 C1697 1.397 . S
C1698 C1699 1.334 . S
C1699 H1676 0.950 . S
C1699 C1698 1.334 . S
C1699 C1700 1.287 . S
C1700 C1699 1.287 . S
C1700 C1701 1.524 . S
C1700 H1719 0.913 . S
C1701 H1677 0.950 . S
C1701 C1700 1.524 . S
C1701 C1702 1.415 . S
C1702 H1678 0.950 . S
C1702 C1697 1.363 . S
C1702 C1701 1.415 . S
C1703 H1679 0.951 . S
C1703 C1704 1.366 . S
C1703 C1705 1.388 . S
C1704 C1703 1.366 . S
C1704 C1708 1.385 . S
C1705 H1680 0.951 . S
C1705 C1703 1.388 . S
C1705 C1706 1.366 . S
C1706 C1705 1.366 . S
C1706 C1707 1.414 . S
C1706 C1709 1.499 . S
C1707 H1681 0.950 1_455 S
C1707 C1706 1.414 . S
C1707 C1708 1.374 . S
C1708 H1682 0.950 . S
C1708 C1704 1.385 . S
C1708 C1707 1.374 . S
C1709 C1706 1.499 . S
C1709 C1710 1.373 1_455 S
C1709 C1711 1.389 . S
C1710 H1683 0.950 . S
C1710 C1696 1.377 . S
C1710 C1709 1.373 1_655 S
C1711 C1695 1.377 . S
C1711 C1709 1.389 . S
C1711 C1712 1.524 . S
C1712 C1711 1.524 . S
C1712 C1713 1.397 . S
C1712 C1717 1.363 . S
C1713 H1684 0.950 1_455 S
C1713 C1712 1.397 . S
C1713 C1714 1.334 . S
C1714 H1685 0.950 . S
C1714 C1713 1.334 . S
C1714 C1715 1.287 . S
C1715 C1714 1.287 . S
C1715 C1716 1.524 . S
C1715 H1718 0.999 . S
C1716 H1686 0.950 . S
C1716 C1715 1.524 . S
C1716 C1717 1.415 . S
C1717 H1687 0.950 . S
C1717 C1712 1.363 . S
C1717 C1716 1.415 . S
H1718 C1715 0.999 . S
H1719 C1700 0.913 . S
H1720 C1738 0.951 . S
H1721 C1740 0.951 . S
H1722 C1742 0.950 . S
H1723 C1743 0.950 . S
H1724 C1745 0.950 . S
H1725 C1748 0.950 . S
H1726 C1749 0.950 . S
H1727 C1751 0.950 . S
H1728 C1752 0.950 . S
H1729 C1753 0.951 . S
H1730 C1755 0.951 . S
H1731 C1757 0.950 . S
H1732 C1758 0.950 . S
H1733 C1760 0.950 . S
H1734 C1763 0.950 . S
H1735 C1764 0.950 . S
H1736 C1766 0.950 . S
H1737 C1767 0.950 . S
C1738 H1720 0.951 . S
C1738 C1739 1.366 . S
C1738 C1740 1.388 . S
C1739 C1738 1.366 . S
C1739 C1743 1.385 . S
C1740 H1721 0.951 . S
C1740 C1738 1.388 . S
C1740 C1741 1.366 . S
C1741 C1740 1.366 . S
C1741 C1742 1.414 . S
C1741 C1744 1.499 . S
C1742 H1722 0.950 . S
C1742 C1741 1.414 . S
C1742 C1743 1.374 . S
C1743 H1723 0.950 . S
C1743 C1739 1.385 . S
C1743 C1742 1.374 . S
C1744 C1741 1.499 . S
C1744 C1745 1.373 . S
C1744 C1746 1.389 . S
C1745 H1724 0.950 . S
C1745 C1744 1.373 . S
C1745 C1761 1.377 . S
C1746 C1744 1.389 . S
C1746 C1747 1.524 . S
C1746 C1760 1.377 . S
C1747 C1746 1.524 . S
C1747 C1748 1.397 . S
C1747 C1752 1.363 . S
C1748 H1725 0.950 . S
C1748 C1747 1.397 . S
C1748 C1749 1.334 . S
C1749 H1726 0.950 . S
C1749 C1748 1.334 . S
C1749 C1750 1.287 . S
C1750 C1749 1.287 . S
C1750 C1751 1.524 . S
C1750 H1769 0.913 . S
C1751 H1727 0.950 . S
C1751 C1750 1.524 . S
C1751 C1752 1.415 . S
C1752 H1728 0.950 . S
C1752 C1747 1.363 . S
C1752 C1751 1.415 . S
C1753 H1729 0.951 . S
C1753 C1754 1.366 . S
C1753 C1755 1.388 . S
C1754 C1753 1.366 . S
C1754 C1758 1.385 . S
C1755 H1730 0.951 . S
C1755 C1753 1.388 . S
C1755 C1756 1.366 . S
C1756 C1755 1.366 . S
C1756 C1757 1.414 . S
C1756 C1759 1.499 . S
C1757 H1731 0.950 . S
C1757 C1756 1.414 . S
C1757 C1758 1.374 . S
C1758 H1732 0.950 . S
C1758 C1754 1.385 . S
C1758 C1757 1.374 . S
C1759 C1756 1.499 . S
C1759 C1760 1.373 . S
C1759 C1761 1.389 . S
C1760 H1733 0.950 . S
C1760 C1746 1.377 . S
C1760 C1759 1.373 . S
C1761 C1745 1.377 . S
C1761 C1759 1.389 . S
C1761 C1762 1.524 . S
C1762 C1761 1.524 . S
C1762 C1763 1.397 . S
C1762 C1767 1.363 . S
C1763 H1734 0.950 . S
C1763 C1762 1.397 . S
C1763 C1764 1.334 . S
C1764 H1735 0.950 . S
C1764 C1763 1.334 . S
C1764 C1765 1.287 . S
C1765 C1764 1.287 . S
C1765 C1766 1.524 . S
C1765 H1768 0.999 . S
C1766 H1736 0.950 . S
C1766 C1765 1.524 . S
C1766 C1767 1.415 . S
C1767 H1737 0.950 . S
C1767 C1762 1.363 . S
C1767 C1766 1.415 . S
H1768 C1765 0.999 . S
H1769 C1750 0.913 . S
H1770 C1788 0.951 . S
H1771 C1790 0.951 . S
H1772 C1792 0.950 . S
H1773 C1793 0.950 . S
H1774 C1795 0.950 . S
H1775 C1798 0.950 . S
H1776 C1799 0.950 . S
H1777 C1801 0.950 . S
H1778 C1802 0.950 . S
H1779 C1803 0.951 . S
H1780 C1805 0.951 . S
H1781 C1807 0.950 . S
H1782 C1808 0.950 . S
H1783 C1810 0.950 . S
H1784 C1813 0.950 . S
H1785 C1814 0.950 . S
H1786 C1816 0.950 . S
H1787 C1817 0.950 . S
C1788 H1770 0.951 . S
C1788 C1789 1.366 . S
C1788 C1790 1.388 . S
C1789 C1788 1.366 . S
C1789 C1793 1.385 . S
C1790 H1771 0.951 . S
C1790 C1788 1.388 . S
C1790 C1791 1.366 . S
C1791 C1790 1.366 . S
C1791 C1792 1.414 . S
C1791 C1794 1.499 . S
C1792 H1772 0.950 . S
C1792 C1791 1.414 . S
C1792 C1793 1.374 . S
C1793 H1773 0.950 . S
C1793 C1789 1.385 . S
C1793 C1792 1.374 . S
C1794 C1791 1.499 . S
C1794 C1795 1.373 . S
C1794 C1796 1.389 . S
C1795 H1774 0.950 . S
C1795 C1794 1.373 . S
C1795 C1811 1.377 . S
C1796 C1794 1.389 . S
C1796 C1797 1.524 . S
C1796 C1810 1.377 . S
C1797 C1796 1.524 . S
C1797 C1798 1.397 . S
C1797 C1802 1.363 . S
C1798 H1775 0.950 . S
C1798 C1797 1.397 . S
C1798 C1799 1.334 . S
C1799 H1776 0.950 . S
C1799 C1798 1.334 . S
C1799 C1800 1.287 . S
C1800 C1799 1.287 . S
C1800 C1801 1.524 . S
C1800 H1819 0.913 . S
C1801 H1777 0.950 . S
C1801 C1800 1.524 . S
C1801 C1802 1.415 . S
C1802 H1778 0.950 . S
C1802 C1797 1.363 . S
C1802 C1801 1.415 . S
C1803 H1779 0.951 . S
C1803 C1804 1.366 . S
C1803 C1805 1.388 . S
C1804 C1803 1.366 . S
C1804 C1808 1.385 . S
C1805 H1780 0.951 . S
C1805 C1803 1.388 . S
C1805 C1806 1.366 . S
C1806 C1805 1.366 . S
C1806 C1807 1.414 . S
C1806 C1809 1.499 . S
C1807 H1781 0.950 . S
C1807 C1806 1.414 . S
C1807 C1808 1.374 . S
C1808 H1782 0.950 . S
C1808 C1804 1.385 . S
C1808 C1807 1.374 . S
C1809 C1806 1.499 . S
C1809 C1810 1.373 . S
C1809 C1811 1.389 . S
C1810 H1783 0.950 . S
C1810 C1796 1.377 . S
C1810 C1809 1.373 . S
C1811 C1795 1.377 . S
C1811 C1809 1.389 . S
C1811 C1812 1.524 . S
C1812 C1811 1.524 . S
C1812 C1813 1.397 . S
C1812 C1817 1.363 . S
C1813 H1784 0.950 . S
C1813 C1812 1.397 . S
C1813 C1814 1.334 . S
C1814 H1785 0.950 . S
C1814 C1813 1.334 . S
C1814 C1815 1.287 . S
C1815 C1814 1.287 . S
C1815 C1816 1.524 . S
C1815 H1818 0.999 . S
C1816 H1786 0.950 . S
C1816 C1815 1.524 . S
C1816 C1817 1.415 . S
C1817 H1787 0.950 . S
C1817 C1812 1.363 . S
C1817 C1816 1.415 . S
H1818 C1815 0.999 . S
H1819 C1800 0.913 . S
H1820 C1838 0.951 . S
H1821 C1840 0.951 . S
H1822 C1842 0.950 . S
H1823 C1843 0.950 . S
H1824 C1845 0.950 . S
H1825 C1848 0.950 . S
H1826 C1849 0.950 . S
H1827 C1851 0.950 . S
H1828 C1852 0.950 1_655 S
H1829 C1853 0.951 . S
H1830 C1855 0.951 . S
H1831 C1857 0.950 . S
H1832 C1858 0.950 . S
H1833 C1860 0.950 . S
H1834 C1863 0.950 . S
H1835 C1864 0.950 . S
H1836 C1866 0.950 . S
H1837 C1867 0.950 1_455 S
C1838 H1820 0.951 . S
C1838 C1839 1.366 . S
C1838 C1840 1.388 . S
C1839 C1838 1.366 . S
C1839 C1843 1.385 . S
C1840 H1821 0.951 . S
C1840 C1838 1.388 . S
C1840 C1841 1.366 . S
C1841 C1840 1.366 . S
C1841 C1842 1.414 . S
C1841 C1844 1.499 . S
C1842 H1822 0.950 . S
C1842 C1841 1.414 . S
C1842 C1843 1.374 . S
C1843 H1823 0.950 . S
C1843 C1839 1.385 . S
C1843 C1842 1.374 . S
C1844 C1841 1.499 . S
C1844 C1845 1.373 . S
C1844 C1846 1.389 . S
C1845 H1824 0.950 . S
C1845 C1844 1.373 . S
C1845 C1861 1.377 1_455 S
C1846 C1844 1.389 . S
C1846 C1847 1.524 . S
C1846 C1860 1.377 1_455 S
C1847 C1846 1.524 . S
C1847 C1848 1.397 . S
C1847 C1852 1.363 . S
C1848 H1825 0.950 . S
C1848 C1847 1.397 . S
C1848 C1849 1.334 . S
C1849 H1826 0.950 . S
C1849 C1848 1.334 . S
C1849 C1850 1.287 . S
C1850 C1849 1.287 . S
C1850 C1851 1.524 . S
C1850 H1869 0.913 . S
C1851 H1827 0.950 . S
C1851 C1850 1.524 . S
C1851 C1852 1.415 . S
C1852 H1828 0.950 1_455 S
C1852 C1847 1.363 . S
C1852 C1851 1.415 . S
C1853 H1829 0.951 . S
C1853 C1854 1.366 . S
C1853 C1855 1.388 . S
C1854 C1853 1.366 . S
C1854 C1858 1.385 . S
C1855 H1830 0.951 . S
C1855 C1853 1.388 . S
C1855 C1856 1.366 . S
C1856 C1855 1.366 . S
C1856 C1857 1.414 . S
C1856 C1859 1.499 . S
C1857 H1831 0.950 . S
C1857 C1856 1.414 . S
C1857 C1858 1.374 . S
C1858 H1832 0.950 . S
C1858 C1854 1.385 . S
C1858 C1857 1.374 . S
C1859 C1856 1.499 . S
C1859 C1860 1.373 . S
C1859 C1861 1.389 . S
C1860 H1833 0.950 . S
C1860 C1846 1.377 1_655 S
C1860 C1859 1.373 . S
C1861 C1845 1.377 1_655 S
C1861 C1859 1.389 . S
C1861 C1862 1.524 . S
C1862 C1861 1.524 . S
C1862 C1863 1.397 . S
C1862 C1867 1.363 . S
C1863 H1834 0.950 . S
C1863 C1862 1.397 . S
C1863 C1864 1.334 . S
C1864 H1835 0.950 . S
C1864 C1863 1.334 . S
C1864 C1865 1.287 . S
C1865 C1864 1.287 . S
C1865 C1866 1.524 . S
C1865 H1868 0.999 . S
C1866 H1836 0.950 . S
C1866 C1865 1.524 . S
C1866 C1867 1.415 . S
C1867 H1837 0.950 1_655 S
C1867 C1862 1.363 . S
C1867 C1866 1.415 . S
H1868 C1865 0.999 . S
H1869 C1850 0.913 . S
H1870 C1888 0.951 . S
H1871 C1890 0.951 . S
H1872 C1892 0.950 1_655 S
H1873 C1893 0.950 . S
H1874 C1895 0.950 . S
H1875 C1898 0.950 . S
H1876 C1899 0.950 . S
H1877 C1901 0.950 . S
H1878 C1902 0.950 . S
H1879 C1903 0.951 . S
H1880 C1905 0.951 . S
H1881 C1907 0.950 1_455 S
H1882 C1908 0.950 . S
H1883 C1910 0.950 . S
H1884 C1913 0.950 . S
H1885 C1914 0.950 . S
H1886 C1916 0.950 . S
H1887 C1917 0.950 . S
C1888 H1870 0.951 . S
C1888 C1889 1.366 . S
C1888 C1890 1.388 . S
C1889 C1888 1.366 . S
C1889 C1893 1.385 . S
C1890 H1871 0.951 . S
C1890 C1888 1.388 . S
C1890 C1891 1.366 . S
C1891 C1890 1.366 . S
C1891 C1892 1.414 . S
C1891 C1894 1.499 . S
C1892 H1872 0.950 1_455 S
C1892 C1891 1.414 . S
C1892 C1893 1.374 . S
C1893 H1873 0.950 . S
C1893 C1889 1.385 . S
C1893 C1892 1.374 . S
C1894 C1891 1.499 . S
C1894 C1895 1.373 1_455 S
C1894 C1896 1.389 . S
C1895 H1874 0.950 . S
C1895 C1894 1.373 1_655 S
C1895 C1911 1.377 . S
C1896 C1894 1.389 . S
C1896 C1897 1.524 . S
C1896 C1910 1.377 . S
C1897 C1896 1.524 . S
C1897 C1898 1.397 . S
C1897 C1902 1.363 . S
C1898 H1875 0.950 . S
C1898 C1897 1.397 . S
C1898 C1899 1.334 . S
C1899 H1876 0.950 . S
C1899 C1898 1.334 . S
C1899 C1900 1.287 . S
C1900 C1899 1.287 . S
C1900 C1901 1.524 . S
C1900 H1919 0.913 . S
C1901 H1877 0.950 . S
C1901 C1900 1.524 . S
C1901 C1902 1.415 . S
C1902 H1878 0.950 . S
C1902 C1897 1.363 . S
C1902 C1901 1.415 . S
C1903 H1879 0.951 . S
C1903 C1904 1.366 . S
C1903 C1905 1.388 . S
C1904 C1903 1.366 . S
C1904 C1908 1.385 . S
C1905 H1880 0.951 . S
C1905 C1903 1.388 . S
C1905 C1906 1.366 . S
C1906 C1905 1.366 . S
C1906 C1907 1.414 . S
C1906 C1909 1.499 . S
C1907 H1881 0.950 1_655 S
C1907 C1906 1.414 . S
C1907 C1908 1.374 . S
C1908 H1882 0.950 . S
C1908 C1904 1.385 . S
C1908 C1907 1.374 . S
C1909 C1906 1.499 . S
C1909 C1910 1.373 1_655 S
C1909 C1911 1.389 . S
C1910 H1883 0.950 . S
C1910 C1896 1.377 . S
C1910 C1909 1.373 1_455 S
C1911 C1895 1.377 . S
C1911 C1909 1.389 . S
C1911 C1912 1.524 . S
C1912 C1911 1.524 . S
C1912 C1913 1.397 . S
C1912 C1917 1.363 . S
C1913 H1884 0.950 . S
C1913 C1912 1.397 . S
C1913 C1914 1.334 . S
C1914 H1885 0.950 . S
C1914 C1913 1.334 . S
C1914 C1915 1.287 . S
C1915 C1914 1.287 . S
C1915 C1916 1.524 . S
C1915 H1918 0.999 . S
C1916 H1886 0.950 . S
C1916 C1915 1.524 . S
C1916 C1917 1.415 . S
C1917 H1887 0.950 . S
C1917 C1912 1.363 . S
C1917 C1916 1.415 . S
H1918 C1915 0.999 . S
H1919 C1900 0.913 . S
H1920 C1938 0.951 . S
H1921 C1940 0.951 . S
H1922 C1942 0.950 . S
H1923 C1943 0.950 . S
H1924 C1945 0.950 . S
H1925 C1948 0.950 . S
H1926 C1949 0.950 . S
H1927 C1951 0.950 . S
H1928 C1952 0.950 . S
H1929 C1953 0.951 . S
H1930 C1955 0.951 . S
H1931 C1957 0.950 . S
H1932 C1958 0.950 . S
H1933 C1960 0.950 . S
H1934 C1963 0.950 . S
H1935 C1964 0.950 . S
H1936 C1966 0.950 . S
H1937 C1967 0.950 . S
C1938 H1920 0.951 . S
C1938 C1939 1.366 . S
C1938 C1940 1.388 . S
C1939 C1938 1.366 . S
C1939 C1943 1.385 . S
C1940 H1921 0.951 . S
C1940 C1938 1.388 . S
C1940 C1941 1.366 . S
C1941 C1940 1.366 . S
C1941 C1942 1.414 . S
C1941 C1944 1.499 . S
C1942 H1922 0.950 . S
C1942 C1941 1.414 . S
C1942 C1943 1.374 . S
C1943 H1923 0.950 . S
C1943 C1939 1.385 . S
C1943 C1942 1.374 . S
C1944 C1941 1.499 . S
C1944 C1945 1.373 . S
C1944 C1946 1.389 . S
C1945 H1924 0.950 . S
C1945 C1944 1.373 . S
C1945 C1961 1.377 . S
C1946 C1944 1.389 . S
C1946 C1947 1.524 . S
C1946 C1960 1.377 . S
C1947 C1946 1.524 . S
C1947 C1948 1.397 . S
C1947 C1952 1.363 . S
C1948 H1925 0.950 . S
C1948 C1947 1.397 . S
C1948 C1949 1.334 . S
C1949 H1926 0.950 . S
C1949 C1948 1.334 . S
C1949 C1950 1.287 . S
C1950 C1949 1.287 . S
C1950 C1951 1.524 . S
C1950 H1969 0.913 . S
C1951 H1927 0.950 . S
C1951 C1950 1.524 . S
C1951 C1952 1.415 . S
C1952 H1928 0.950 . S
C1952 C1947 1.363 . S
C1952 C1951 1.415 . S
C1953 H1929 0.951 . S
C1953 C1954 1.366 . S
C1953 C1955 1.388 . S
C1954 C1953 1.366 . S
C1954 C1958 1.385 . S
C1955 H1930 0.951 . S
C1955 C1953 1.388 . S
C1955 C1956 1.366 . S
C1956 C1955 1.366 . S
C1956 C1957 1.414 . S
C1956 C1959 1.499 . S
C1957 H1931 0.950 . S
C1957 C1956 1.414 . S
C1957 C1958 1.374 . S
C1958 H1932 0.950 . S
C1958 C1954 1.385 . S
C1958 C1957 1.374 . S
C1959 C1956 1.499 . S
C1959 C1960 1.373 . S
C1959 C1961 1.389 . S
C1960 H1933 0.950 . S
C1960 C1946 1.377 . S
C1960 C1959 1.373 . S
C1961 C1945 1.377 . S
C1961 C1959 1.389 . S
C1961 C1962 1.524 . S
C1962 C1961 1.524 . S
C1962 C1963 1.397 . S
C1962 C1967 1.363 . S
C1963 H1934 0.950 . S
C1963 C1962 1.397 . S
C1963 C1964 1.334 . S
C1964 H1935 0.950 . S
C1964 C1963 1.334 . S
C1964 C1965 1.287 . S
C1965 C1964 1.287 . S
C1965 C1966 1.524 . S
C1965 H1968 0.999 . S
C1966 H1936 0.950 . S
C1966 C1965 1.524 . S
C1966 C1967 1.415 . S
C1967 H1937 0.950 . S
C1967 C1962 1.363 . S
C1967 C1966 1.415 . S
H1968 C1965 0.999 . S
H1969 C1950 0.913 . S
H1970 C1988 0.951 . S
H1971 C1990 0.951 . S
H1972 C1992 0.950 . S
H1973 C1993 0.950 . S
H1974 C1995 0.950 . S
H1975 C1998 0.950 . S
H1976 C1999 0.950 . S
H1977 C2001 0.950 . S
H1978 C2002 0.950 . S
H1979 C2003 0.951 . S
H1980 C2005 0.951 . S
H1981 C2007 0.950 . S
H1982 C2008 0.950 . S
H1983 C2010 0.950 . S
H1984 C2013 0.950 . S
H1985 C2014 0.950 . S
H1986 C2016 0.950 . S
H1987 C2017 0.950 . S
C1988 H1970 0.951 . S
C1988 C1989 1.366 . S
C1988 C1990 1.388 . S
C1989 C1988 1.366 . S
C1989 C1993 1.385 . S
C1990 H1971 0.951 . S
C1990 C1988 1.388 . S
C1990 C1991 1.366 . S
C1991 C1990 1.366 . S
C1991 C1992 1.414 . S
C1991 C1994 1.499 . S
C1992 H1972 0.950 . S
C1992 C1991 1.414 . S
C1992 C1993 1.374 . S
C1993 H1973 0.950 . S
C1993 C1989 1.385 . S
C1993 C1992 1.374 . S
C1994 C1991 1.499 . S
C1994 C1995 1.373 . S
C1994 C1996 1.389 . S
C1995 H1974 0.950 . S
C1995 C1994 1.373 . S
C1995 C2011 1.377 . S
C1996 C1994 1.389 . S
C1996 C1997 1.524 . S
C1996 C2010 1.377 . S
C1997 C1996 1.524 . S
C1997 C1998 1.397 . S
C1997 C2002 1.363 . S
C1998 H1975 0.950 . S
C1998 C1997 1.397 . S
C1998 C1999 1.334 . S
C1999 H1976 0.950 . S
C1999 C1998 1.334 . S
C1999 C2000 1.287 . S
C2000 C1999 1.287 . S
C2000 C2001 1.524 . S
C2000 H2019 0.913 . S
C2001 H1977 0.950 . S
C2001 C2000 1.524 . S
C2001 C2002 1.415 . S
C2002 H1978 0.950 . S
C2002 C1997 1.363 . S
C2002 C2001 1.415 . S
C2003 H1979 0.951 . S
C2003 C2004 1.366 . S
C2003 C2005 1.388 . S
C2004 C2003 1.366 . S
C2004 C2008 1.385 . S
C2005 H1980 0.951 . S
C2005 C2003 1.388 . S
C2005 C2006 1.366 . S
C2006 C2005 1.366 . S
C2006 C2007 1.414 . S
C2006 C2009 1.499 . S
C2007 H1981 0.950 . S
C2007 C2006 1.414 . S
C2007 C2008 1.374 . S
C2008 H1982 0.950 . S
C2008 C2004 1.385 . S
C2008 C2007 1.374 . S
C2009 C2006 1.499 . S
C2009 C2010 1.373 . S
C2009 C2011 1.389 . S
C2010 H1983 0.950 . S
C2010 C1996 1.377 . S
C2010 C2009 1.373 . S
C2011 C1995 1.377 . S
C2011 C2009 1.389 . S
C2011 C2012 1.524 . S
C2012 C2011 1.524 . S
C2012 C2013 1.397 . S
C2012 C2017 1.363 . S
C2013 H1984 0.950 . S
C2013 C2012 1.397 . S
C2013 C2014 1.334 . S
C2014 H1985 0.950 . S
C2014 C2013 1.334 . S
C2014 C2015 1.287 . S
C2015 C2014 1.287 . S
C2015 C2016 1.524 . S
C2015 H2018 0.999 . S
C2016 H1986 0.950 . S
C2016 C2015 1.524 . S
C2016 C2017 1.415 . S
C2017 H1987 0.950 . S
C2017 C2012 1.363 . S
C2017 C2016 1.415 . S
H2018 C2015 0.999 . S
H2019 C2000 0.913 . S
H2020 C2038 0.951 . S
H2021 C2040 0.951 . S
H2022 C2042 0.950 . S
H2023 C2043 0.950 . S
H2024 C2045 0.950 . S
H2025 C2048 0.950 . S
H2026 C2049 0.950 . S
H2027 C2051 0.950 . S
H2028 C2052 0.950 . S
H2029 C2053 0.951 . S
H2030 C2055 0.951 . S
H2031 C2057 0.950 . S
H2032 C2058 0.950 . S
H2033 C2060 0.950 . S
H2034 C2063 0.950 . S
H2035 C2064 0.950 . S
H2036 C2066 0.950 . S
H2037 C2067 0.950 . S
C2038 H2020 0.951 . S
C2038 C2039 1.366 . S
C2038 C2040 1.388 . S
C2039 C2038 1.366 . S
C2039 C2043 1.385 . S
C2040 H2021 0.951 . S
C2040 C2038 1.388 . S
C2040 C2041 1.366 . S
C2041 C2040 1.366 . S
C2041 C2042 1.414 . S
C2041 C2044 1.499 . S
C2042 H2022 0.950 . S
C2042 C2041 1.414 . S
C2042 C2043 1.374 . S
C2043 H2023 0.950 . S
C2043 C2039 1.385 . S
C2043 C2042 1.374 . S
C2044 C2041 1.499 . S
C2044 C2045 1.373 . S
C2044 C2046 1.389 . S
C2045 H2024 0.950 . S
C2045 C2044 1.373 . S
C2045 C2061 1.377 . S
C2046 C2044 1.389 . S
C2046 C2047 1.524 . S
C2046 C2060 1.377 . S
C2047 C2046 1.524 . S
C2047 C2048 1.397 . S
C2047 C2052 1.363 . S
C2048 H2025 0.950 . S
C2048 C2047 1.397 . S
C2048 C2049 1.334 . S
C2049 H2026 0.950 . S
C2049 C2048 1.334 . S
C2049 C2050 1.287 . S
C2050 C2049 1.287 . S
C2050 C2051 1.524 . S
C2050 H2069 0.913 . S
C2051 H2027 0.950 . S
C2051 C2050 1.524 . S
C2051 C2052 1.415 . S
C2052 H2028 0.950 . S
C2052 C2047 1.363 . S
C2052 C2051 1.415 . S
C2053 H2029 0.951 . S
C2053 C2054 1.366 . S
C2053 C2055 1.388 . S
C2054 C2053 1.366 . S
C2054 C2058 1.385 . S
C2055 H2030 0.951 . S
C2055 C2053 1.388 . S
C2055 C2056 1.366 . S
C2056 C2055 1.366 . S
C2056 C2057 1.414 . S
C2056 C2059 1.499 . S
C2057 H2031 0.950 . S
C2057 C2056 1.414 . S
C2057 C2058 1.374 . S
C2058 H2032 0.950 . S
C2058 C2054 1.385 . S
C2058 C2057 1.374 . S
C2059 C2056 1.499 . S
C2059 C2060 1.373 . S
C2059 C2061 1.389 . S
C2060 H2033 0.950 . S
C2060 C2046 1.377 . S
C2060 C2059 1.373 . S
C2061 C2045 1.377 . S
C2061 C2059 1.389 . S
C2061 C2062 1.524 . S
C2062 C2061 1.524 . S
C2062 C2063 1.397 . S
C2062 C2067 1.363 . S
C2063 H2034 0.950 . S
C2063 C2062 1.397 . S
C2063 C2064 1.334 . S
C2064 H2035 0.950 . S
C2064 C2063 1.334 . S
C2064 C2065 1.287 . S
C2065 C2064 1.287 . S
C2065 C2066 1.524 . S
C2065 H2068 0.999 . S
C2066 H2036 0.950 . S
C2066 C2065 1.524 . S
C2066 C2067 1.415 . S
C2067 H2037 0.950 . S
C2067 C2062 1.363 . S
C2067 C2066 1.415 . S
H2068 C2065 0.999 . S
H2069 C2050 0.913 . S
H2070 C2088 0.951 . S
H2071 C2090 0.951 . S
H2072 C2092 0.950 . S
H2073 C2093 0.950 . S
H2074 C2095 0.950 . S
H2075 C2098 0.950 . S
H2076 C2099 0.971 . S
H2077 C2101 0.950 . S
H2078 C2102 0.950 . S
H2079 C2103 0.951 . S
H2080 C2105 0.951 . S
H2081 C2107 0.950 . S
H2082 C2108 0.950 . S
H2083 C2110 0.950 . S
H2084 C2113 0.950 . S
H2085 C2114 0.950 . S
H2086 C2116 0.950 . S
H2087 C2117 0.950 . S
C2088 H2070 0.951 . S
C2088 C2089 1.366 . S
C2088 C2090 1.388 1_655 S
C2089 C2088 1.366 . S
C2089 C2093 1.385 . S
C2090 H2071 0.951 . S
C2090 C2088 1.388 1_455 S
C2090 C2091 1.366 . S
C2091 C2090 1.366 . S
C2091 C2092 1.414 . S
C2091 C2094 1.499 . S
C2092 H2072 0.950 . S
C2092 C2091 1.414 . S
C2092 C2093 1.374 1_455 S
C2093 H2073 0.950 . S
C2093 C2089 1.385 . S
C2093 C2092 1.374 1_655 S
C2094 C2091 1.499 . S
C2094 C2095 1.373 . S
C2094 C2096 1.389 . S
C2095 H2074 0.950 . S
C2095 C2094 1.373 . S
C2095 C2111 1.377 . S
C2096 C2094 1.389 . S
C2096 C2097 1.524 . S
C2096 C2110 1.377 . S
C2097 C2096 1.524 . S
C2097 C2098 1.397 . S
C2097 C2102 1.363 . S
C2098 H2075 0.950 . S
C2098 C2097 1.397 . S
C2098 C2099 1.319 1_455 S
C2099 H2076 0.971 . S
C2099 C2098 1.319 1_655 S
C2099 C2100 1.281 1_655 S
C2100 C2099 1.281 1_455 S
C2100 C2101 1.524 . S
C2100 H2119 0.913 1_455 S
C2101 H2077 0.950 . S
C2101 C2100 1.524 . S
C2101 C2102 1.415 . S
C2102 H2078 0.950 . S
C2102 C2097 1.363 . S
C2102 C2101 1.415 . S
C2103 H2079 0.951 . S
C2103 C2104 1.366 . S
C2103 C2105 1.388 . S
C2104 C2103 1.366 . S
C2104 C2108 1.385 . S
C2105 H2080 0.951 . S
C2105 C2103 1.388 . S
C2105 C2106 1.366 . S
C2106 C2105 1.366 . S
C2106 C2107 1.414 . S
C2106 C2109 1.499 . S
C2107 H2081 0.950 . S
C2107 C2106 1.414 . S
C2107 C2108 1.374 . S
C2108 H2082 0.950 . S
C2108 C2104 1.385 . S
C2108 C2107 1.374 . S
C2109 C2106 1.499 . S
C2109 C2110 1.373 . S
C2109 C2111 1.389 . S
C2110 H2083 0.950 . S
C2110 C2096 1.377 . S
C2110 C2109 1.373 . S
C2111 C2095 1.377 . S
C2111 C2109 1.389 . S
C2111 C2112 1.524 . S
C2112 C2111 1.524 . S
C2112 C2113 1.397 . S
C2112 C2117 1.363 . S
C2113 H2084 0.950 . S
C2113 C2112 1.397 . S
C2113 C2114 1.334 . S
C2114 H2085 0.950 . S
C2114 C2113 1.334 . S
C2114 C2115 1.287 . S
C2115 C2114 1.287 . S
C2115 C2116 1.524 . S
C2115 H2118 0.999 . S
C2116 H2086 0.950 . S
C2116 C2115 1.524 . S
C2116 C2117 1.415 . S
C2117 H2087 0.950 . S
C2117 C2112 1.363 . S
C2117 C2116 1.415 . S
H2118 C2115 0.999 . S
H2119 C2100 0.913 1_655 S
H2120 C2138 0.951 . S
H2121 C2140 0.951 . S
H2122 C2142 0.950 . S
H2123 C2143 0.950 . S
H2124 C2145 0.950 . S
H2125 C2148 0.950 . S
H2126 C2149 0.950 . S
H2127 C2151 0.950 . S
H2128 C2152 0.950 . S
H2129 C2153 0.951 . S
H2130 C2155 0.951 . S
H2131 C2157 0.950 . S
H2132 C2158 0.950 . S
H2133 C2160 0.950 . S
H2134 C2163 0.950 . S
H2135 C2164 0.950 . S
H2136 C2166 0.950 . S
H2137 C2167 0.950 . S
C2138 H2120 0.951 . S
C2138 C2139 1.366 . S
C2138 C2140 1.388 . S
C2139 C2138 1.366 . S
C2139 C2143 1.385 . S
C2140 H2121 0.951 . S
C2140 C2138 1.388 . S
C2140 C2141 1.366 . S
C2141 C2140 1.366 . S
C2141 C2142 1.414 . S
C2141 C2144 1.499 . S
C2142 H2122 0.950 . S
C2142 C2141 1.414 . S
C2142 C2143 1.374 . S
C2143 H2123 0.950 . S
C2143 C2139 1.385 . S
C2143 C2142 1.374 . S
C2144 C2141 1.499 . S
C2144 C2145 1.373 . S
C2144 C2146 1.389 . S
C2145 H2124 0.950 . S
C2145 C2144 1.373 . S
C2145 C2161 1.377 . S
C2146 C2144 1.389 . S
C2146 C2147 1.524 . S
C2146 C2160 1.377 . S
C2147 C2146 1.524 . S
C2147 C2148 1.397 . S
C2147 C2152 1.363 . S
C2148 H2125 0.950 . S
C2148 C2147 1.397 . S
C2148 C2149 1.334 . S
C2149 H2126 0.950 . S
C2149 C2148 1.334 . S
C2149 C2150 1.287 . S
C2150 C2149 1.287 . S
C2150 C2151 1.524 . S
C2150 H2169 0.913 . S
C2151 H2127 0.950 . S
C2151 C2150 1.524 . S
C2151 C2152 1.415 . S
C2152 H2128 0.950 . S
C2152 C2147 1.363 . S
C2152 C2151 1.415 . S
C2153 H2129 0.951 . S
C2153 C2154 1.366 . S
C2153 C2155 1.388 . S
C2154 C2153 1.366 . S
C2154 C2158 1.385 . S
C2155 H2130 0.951 . S
C2155 C2153 1.388 . S
C2155 C2156 1.366 . S
C2156 C2155 1.366 . S
C2156 C2157 1.414 . S
C2156 C2159 1.499 . S
C2157 H2131 0.950 . S
C2157 C2156 1.414 . S
C2157 C2158 1.374 . S
C2158 H2132 0.950 . S
C2158 C2154 1.385 . S
C2158 C2157 1.374 . S
C2159 C2156 1.499 . S
C2159 C2160 1.373 . S
C2159 C2161 1.389 . S
C2160 H2133 0.950 . S
C2160 C2146 1.377 . S
C2160 C2159 1.373 . S
C2161 C2145 1.377 . S
C2161 C2159 1.389 . S
C2161 C2162 1.524 . S
C2162 C2161 1.524 . S
C2162 C2163 1.397 . S
C2162 C2167 1.363 . S
C2163 H2134 0.950 . S
C2163 C2162 1.397 . S
C2163 C2164 1.334 . S
C2164 H2135 0.950 . S
C2164 C2163 1.334 . S
C2164 C2165 1.287 . S
C2165 C2164 1.287 . S
C2165 C2166 1.524 . S
C2165 H2168 0.999 . S
C2166 H2136 0.950 . S
C2166 C2165 1.524 . S
C2166 C2167 1.415 . S
C2167 H2137 0.950 . S
C2167 C2162 1.363 . S
C2167 C2166 1.415 . S
H2168 C2165 0.999 . S
H2169 C2150 0.913 . S
H2170 C2188 0.951 . S
H2171 C2190 0.951 . S
H2172 C2192 0.950 . S
H2173 C2193 0.950 . S
H2174 C2195 0.950 . S
H2175 C2198 0.950 . S
H2176 C2199 0.950 . S
H2177 C2201 0.950 . S
H2178 C2202 0.950 . S
H2179 C2203 0.951 . S
H2180 C2205 0.951 . S
H2181 C2207 0.950 . S
H2182 C2208 0.950 . S
H2183 C2210 0.950 . S
H2184 C2213 0.950 . S
H2185 C2214 0.950 . S
H2186 C2216 0.950 . S
H2187 C2217 0.950 . S
C2188 H2170 0.951 . S
C2188 C2189 1.366 . S
C2188 C2190 1.388 . S
C2189 C2188 1.366 . S
C2189 C2193 1.385 . S
C2190 H2171 0.951 . S
C2190 C2188 1.388 . S
C2190 C2191 1.366 . S
C2191 C2190 1.366 . S
C2191 C2192 1.414 . S
C2191 C2194 1.499 . S
C2192 H2172 0.950 . S
C2192 C2191 1.414 . S
C2192 C2193 1.374 . S
C2193 H2173 0.950 . S
C2193 C2189 1.385 . S
C2193 C2192 1.374 . S
C2194 C2191 1.499 . S
C2194 C2195 1.373 . S
C2194 C2196 1.389 . S
C2195 H2174 0.950 . S
C2195 C2194 1.373 . S
C2195 C2211 1.377 . S
C2196 C2194 1.389 . S
C2196 C2197 1.524 . S
C2196 C2210 1.377 . S
C2197 C2196 1.524 . S
C2197 C2198 1.397 . S
C2197 C2202 1.363 . S
C2198 H2175 0.950 . S
C2198 C2197 1.397 . S
C2198 C2199 1.334 . S
C2199 H2176 0.950 . S
C2199 C2198 1.334 . S
C2199 C2200 1.287 . S
C2200 C2199 1.287 . S
C2200 C2201 1.524 . S
C2200 H2219 0.913 . S
C2201 H2177 0.950 . S
C2201 C2200 1.524 . S
C2201 C2202 1.415 . S
C2202 H2178 0.950 . S
C2202 C2197 1.363 . S
C2202 C2201 1.415 . S
C2203 H2179 0.951 . S
C2203 C2204 1.366 . S
C2203 C2205 1.388 . S
C2204 C2203 1.366 . S
C2204 C2208 1.385 . S
C2205 H2180 0.951 . S
C2205 C2203 1.388 . S
C2205 C2206 1.366 . S
C2206 C2205 1.366 . S
C2206 C2207 1.414 . S
C2206 C2209 1.499 . S
C2207 H2181 0.950 . S
C2207 C2206 1.414 . S
C2207 C2208 1.374 . S
C2208 H2182 0.950 . S
C2208 C2204 1.385 . S
C2208 C2207 1.374 . S
C2209 C2206 1.499 . S
C2209 C2210 1.373 . S
C2209 C2211 1.389 . S
C2210 H2183 0.950 . S
C2210 C2196 1.377 . S
C2210 C2209 1.373 . S
C2211 C2195 1.377 . S
C2211 C2209 1.389 . S
C2211 C2212 1.524 . S
C2212 C2211 1.524 . S
C2212 C2213 1.397 . S
C2212 C2217 1.363 . S
C2213 H2184 0.950 . S
C2213 C2212 1.397 . S
C2213 C2214 1.334 . S
C2214 H2185 0.950 . S
C2214 C2213 1.334 . S
C2214 C2215 1.287 . S
C2215 C2214 1.287 . S
C2215 C2216 1.524 . S
C2215 H2218 0.999 . S
C2216 H2186 0.950 . S
C2216 C2215 1.524 . S
C2216 C2217 1.415 . S
C2217 H2187 0.950 . S
C2217 C2212 1.363 . S
C2217 C2216 1.415 . S
H2218 C2215 0.999 . S
H2219 C2200 0.913 . S
H2220 C2238 0.951 . S
H2221 C2240 0.951 . S
H2222 C2242 0.950 . S
H2223 C2243 0.950 . S
H2224 C2245 0.950 . S
H2225 C2248 0.950 . S
H2226 C2249 0.950 . S
H2227 C2251 0.950 . S
H2228 C2252 0.950 . S
H2229 C2253 0.951 . S
H2230 C2255 0.951 . S
H2231 C2257 0.950 . S
H2232 C2258 0.950 . S
H2233 C2260 0.950 . S
H2234 C2263 0.950 . S
H2235 C2264 0.950 . S
H2236 C2266 0.950 . S
H2237 C2267 0.950 . S
C2238 H2220 0.951 . S
C2238 C2239 1.366 . S
C2238 C2240 1.388 . S
C2239 C2238 1.366 . S
C2239 C2243 1.385 . S
C2240 H2221 0.951 . S
C2240 C2238 1.388 . S
C2240 C2241 1.366 . S
C2241 C2240 1.366 . S
C2241 C2242 1.414 . S
C2241 C2244 1.499 . S
C2242 H2222 0.950 . S
C2242 C2241 1.414 . S
C2242 C2243 1.374 . S
C2243 H2223 0.950 . S
C2243 C2239 1.385 . S
C2243 C2242 1.374 . S
C2244 C2241 1.499 . S
C2244 C2245 1.373 . S
C2244 C2246 1.389 . S
C2245 H2224 0.950 . S
C2245 C2244 1.373 . S
C2245 C2261 1.377 . S
C2246 C2244 1.389 . S
C2246 C2247 1.524 . S
C2246 C2260 1.377 . S
C2247 C2246 1.524 . S
C2247 C2248 1.397 . S
C2247 C2252 1.363 . S
C2248 H2225 0.950 . S
C2248 C2247 1.397 . S
C2248 C2249 1.334 . S
C2249 H2226 0.950 . S
C2249 C2248 1.334 . S
C2249 C2250 1.287 . S
C2250 C2249 1.287 . S
C2250 C2251 1.524 . S
C2250 H2269 0.913 . S
C2251 H2227 0.950 . S
C2251 C2250 1.524 . S
C2251 C2252 1.415 . S
C2252 H2228 0.950 . S
C2252 C2247 1.363 . S
C2252 C2251 1.415 . S
C2253 H2229 0.951 . S
C2253 C2254 1.366 . S
C2253 C2255 1.388 . S
C2254 C2253 1.366 . S
C2254 C2258 1.385 . S
C2255 H2230 0.951 . S
C2255 C2253 1.388 . S
C2255 C2256 1.366 . S
C2256 C2255 1.366 . S
C2256 C2257 1.414 . S
C2256 C2259 1.499 . S
C2257 H2231 0.950 . S
C2257 C2256 1.414 . S
C2257 C2258 1.374 . S
C2258 H2232 0.950 . S
C2258 C2254 1.385 . S
C2258 C2257 1.374 . S
C2259 C2256 1.499 . S
C2259 C2260 1.373 . S
C2259 C2261 1.389 . S
C2260 H2233 0.950 . S
C2260 C2246 1.377 . S
C2260 C2259 1.373 . S
C2261 C2245 1.377 . S
C2261 C2259 1.389 . S
C2261 C2262 1.524 . S
C2262 C2261 1.524 . S
C2262 C2263 1.397 . S
C2262 C2267 1.363 . S
C2263 H2234 0.950 . S
C2263 C2262 1.397 . S
C2263 C2264 1.334 . S
C2264 H2235 0.950 . S
C2264 C2263 1.334 . S
C2264 C2265 1.287 . S
C2265 C2264 1.287 . S
C2265 C2266 1.524 . S
C2265 H2268 0.999 . S
C2266 H2236 0.950 . S
C2266 C2265 1.524 . S
C2266 C2267 1.415 . S
C2267 H2237 0.950 . S
C2267 C2262 1.363 . S
C2267 C2266 1.415 . S
H2268 C2265 0.999 . S
H2269 C2250 0.913 . S
H2270 C2288 0.951 . S
H2271 C2290 0.951 . S
H2272 C2292 0.950 . S
H2273 C2293 0.950 . S
H2274 C2295 0.950 . S
H2275 C2298 0.950 . S
H2276 C2299 0.950 . S
H2277 C2301 0.950 . S
H2278 C2302 0.950 . S
H2279 C2303 0.951 . S
H2280 C2305 0.951 . S
H2281 C2307 0.951 . S
H2282 C2308 0.950 . S
H2283 C2310 0.950 . S
H2284 C2313 0.950 . S
H2285 C2314 0.950 . S
H2286 C2316 0.950 . S
H2287 C2317 0.950 . S
C2288 H2270 0.951 . S
C2288 C2289 1.366 . S
C2288 C2290 1.388 . S
C2289 C2288 1.366 . S
C2289 C2293 1.385 . S
C2290 H2271 0.951 . S
C2290 C2288 1.388 . S
C2290 C2291 1.366 . S
C2291 C2290 1.366 . S
C2291 C2292 1.414 . S
C2291 C2294 1.499 . S
C2292 H2272 0.950 . S
C2292 C2291 1.414 . S
C2292 C2293 1.374 . S
C2293 H2273 0.950 . S
C2293 C2289 1.385 . S
C2293 C2292 1.374 . S
C2294 C2291 1.499 . S
C2294 C2295 1.373 . S
C2294 C2296 1.389 . S
C2295 H2274 0.950 . S
C2295 C2294 1.373 . S
C2295 C2311 1.377 . S
C2296 C2294 1.389 . S
C2296 C2297 1.524 . S
C2296 C2310 1.377 . S
C2297 C2296 1.524 . S
C2297 C2298 1.397 . S
C2297 C2302 1.363 . S
C2298 H2275 0.950 . S
C2298 C2297 1.397 . S
C2298 C2299 1.334 . S
C2299 H2276 0.950 . S
C2299 C2298 1.334 . S
C2299 C2300 1.287 . S
C2300 C2299 1.287 . S
C2300 C2301 1.524 . S
C2300 H2319 0.913 . S
C2301 H2277 0.950 . S
C2301 C2300 1.524 . S
C2301 C2302 1.415 . S
C2302 H2278 0.950 . S
C2302 C2297 1.363 . S
C2302 C2301 1.415 . S
C2303 H2279 0.951 . S
C2303 C2304 1.366 . S
C2303 C2305 1.388 1_455 S
C2304 C2303 1.366 . S
C2304 C2308 1.385 . S
C2305 H2280 0.951 . S
C2305 C2303 1.388 1_655 S
C2305 C2306 1.366 . S
C2306 C2305 1.366 . S
C2306 C2307 1.415 . S
C2306 C2309 1.499 . S
C2307 H2281 0.951 . S
C2307 C2306 1.415 . S
C2307 C2308 1.373 1_655 S
C2308 H2282 0.950 . S
C2308 C2304 1.385 . S
C2308 C2307 1.373 1_455 S
C2309 C2306 1.499 . S
C2309 C2310 1.373 . S
C2309 C2311 1.389 . S
C2310 H2283 0.950 . S
C2310 C2296 1.377 . S
C2310 C2309 1.373 . S
C2311 C2295 1.377 . S
C2311 C2309 1.389 . S
C2311 C2312 1.524 . S
C2312 C2311 1.524 . S
C2312 C2313 1.397 . S
C2312 C2317 1.363 . S
C2313 H2284 0.950 . S
C2313 C2312 1.397 . S
C2313 C2314 1.334 . S
C2314 H2285 0.950 . S
C2314 C2313 1.334 . S
C2314 C2315 1.287 . S
C2315 C2314 1.287 . S
C2315 C2316 1.524 . S
C2315 H2318 0.999 . S
C2316 H2286 0.950 . S
C2316 C2315 1.524 . S
C2316 C2317 1.415 . S
C2317 H2287 0.950 . S
C2317 C2312 1.363 . S
C2317 C2316 1.415 . S
H2318 C2315 0.999 . S
H2319 C2300 0.913 . S
H2320 C2338 0.951 . S
H2321 C2340 0.951 . S
H2322 C2342 0.950 . S
H2323 C2343 0.950 . S
H2324 C2345 0.950 . S
H2325 C2348 0.950 . S
H2326 C2349 0.950 . S
H2327 C2351 0.950 . S
H2328 C2352 0.950 . S
H2329 C2353 0.951 . S
H2330 C2355 0.951 . S
H2331 C2357 0.950 . S
H2332 C2358 0.950 . S
H2333 C2360 0.950 . S
H2334 C2363 0.950 . S
H2335 C2364 0.950 . S
H2336 C2366 0.950 . S
H2337 C2367 0.950 . S
C2338 H2320 0.951 . S
C2338 C2339 1.366 . S
C2338 C2340 1.388 . S
C2339 C2338 1.366 . S
C2339 C2343 1.385 . S
C2340 H2321 0.951 . S
C2340 C2338 1.388 . S
C2340 C2341 1.366 . S
C2341 C2340 1.366 . S
C2341 C2342 1.414 . S
C2341 C2344 1.499 . S
C2342 H2322 0.950 . S
C2342 C2341 1.414 . S
C2342 C2343 1.374 . S
C2343 H2323 0.950 . S
C2343 C2339 1.385 . S
C2343 C2342 1.374 . S
C2344 C2341 1.499 . S
C2344 C2345 1.373 . S
C2344 C2346 1.389 . S
C2345 H2324 0.950 . S
C2345 C2344 1.373 . S
C2345 C2361 1.377 . S
C2346 C2344 1.389 . S
C2346 C2347 1.524 . S
C2346 C2360 1.377 . S
C2347 C2346 1.524 . S
C2347 C2348 1.397 . S
C2347 C2352 1.363 . S
C2348 H2325 0.950 . S
C2348 C2347 1.397 . S
C2348 C2349 1.334 . S
C2349 H2326 0.950 . S
C2349 C2348 1.334 . S
C2349 C2350 1.287 . S
C2350 C2349 1.287 . S
C2350 C2351 1.524 . S
C2350 H2369 0.913 . S
C2351 H2327 0.950 . S
C2351 C2350 1.524 . S
C2351 C2352 1.415 . S
C2352 H2328 0.950 . S
C2352 C2347 1.363 . S
C2352 C2351 1.415 . S
C2353 H2329 0.951 . S
C2353 C2354 1.366 . S
C2353 C2355 1.388 . S
C2354 C2353 1.366 . S
C2354 C2358 1.385 . S
C2355 H2330 0.951 . S
C2355 C2353 1.388 . S
C2355 C2356 1.366 . S
C2356 C2355 1.366 . S
C2356 C2357 1.414 . S
C2356 C2359 1.499 . S
C2357 H2331 0.950 . S
C2357 C2356 1.414 . S
C2357 C2358 1.374 . S
C2358 H2332 0.950 . S
C2358 C2354 1.385 . S
C2358 C2357 1.374 . S
C2359 C2356 1.499 . S
C2359 C2360 1.373 . S
C2359 C2361 1.389 . S
C2360 H2333 0.950 . S
C2360 C2346 1.377 . S
C2360 C2359 1.373 . S
C2361 C2345 1.377 . S
C2361 C2359 1.389 . S
C2361 C2362 1.524 . S
C2362 C2361 1.524 . S
C2362 C2363 1.397 . S
C2362 C2367 1.363 . S
C2363 H2334 0.950 . S
C2363 C2362 1.397 . S
C2363 C2364 1.334 . S
C2364 H2335 0.950 . S
C2364 C2363 1.334 . S
C2364 C2365 1.287 . S
C2365 C2364 1.287 . S
C2365 C2366 1.524 . S
C2365 H2368 0.999 . S
C2366 H2336 0.950 . S
C2366 C2365 1.524 . S
C2366 C2367 1.415 . S
C2367 H2337 0.950 . S
C2367 C2362 1.363 . S
C2367 C2366 1.415 . S
H2368 C2365 0.999 . S
H2369 C2350 0.913 . S
H2370 C2388 0.951 . S
H2371 C2390 0.951 . S
H2372 C2392 0.950 . S
H2373 C2393 0.950 . S
H2374 C2395 0.950 . S
H2375 C2398 0.950 . S
H2376 C2399 0.950 . S
H2377 C2401 0.950 . S
H2378 C2402 0.950 . S
H2379 C2403 0.951 . S
H2380 C2405 0.951 . S
H2381 C2407 0.950 1_545 S
H2382 C2408 0.950 . S
H2383 C2410 0.950 . S
H2384 C2413 0.950 . S
H2385 C2414 0.950 1_455 S
H2386 C2416 0.950 . S
H2387 C2417 0.950 . S
C2388 H2370 0.951 . S
C2388 C2389 1.366 . S
C2388 C2390 1.388 . S
C2389 C2388 1.366 . S
C2389 C2393 1.385 . S
C2390 H2371 0.951 . S
C2390 C2388 1.388 . S
C2390 C2391 1.366 . S
C2391 C2390 1.366 . S
C2391 C2392 1.414 . S
C2391 C2394 1.499 . S
C2392 H2372 0.950 . S
C2392 C2391 1.414 . S
C2392 C2393 1.374 . S
C2393 H2373 0.950 . S
C2393 C2389 1.385 . S
C2393 C2392 1.374 . S
C2394 C2391 1.499 . S
C2394 C2395 1.373 . S
C2394 C2396 1.389 . S
C2395 H2374 0.950 . S
C2395 C2394 1.373 . S
C2395 C2411 1.377 . S
C2396 C2394 1.389 . S
C2396 C2397 1.524 . S
C2396 C2410 1.377 . S
C2397 C2396 1.524 . S
C2397 C2398 1.397 . S
C2397 C2402 1.363 1_565 S
C2398 H2375 0.950 . S
C2398 C2397 1.397 . S
C2398 C2399 1.334 . S
C2399 H2376 0.950 . S
C2399 C2398 1.334 . S
C2399 C2400 1.287 1_565 S
C2400 C2399 1.287 1_545 S
C2400 C2401 1.524 . S
C2400 H2419 0.913 . S
C2401 H2377 0.950 . S
C2401 C2400 1.524 . S
C2401 C2402 1.415 . S
C2402 H2378 0.950 . S
C2402 C2397 1.363 1_545 S
C2402 C2401 1.415 . S
C2403 H2379 0.951 . S
C2403 C2404 1.366 . S
C2403 C2405 1.388 1_455 S
C2404 C2403 1.366 . S
C2404 C2408 1.385 1_565 S
C2405 H2380 0.951 . S
C2405 C2403 1.388 1_655 S
C2405 C2406 1.366 . S
C2406 C2405 1.366 . S
C2406 C2407 1.414 . S
C2406 C2409 1.499 . S
C2407 H2381 0.950 1_565 S
C2407 C2406 1.414 . S
C2407 C2408 1.374 1_665 S
C2408 H2382 0.950 . S
C2408 C2404 1.385 1_545 S
C2408 C2407 1.374 1_445 S
C2409 C2406 1.499 . S
C2409 C2410 1.373 . S
C2409 C2411 1.389 . S
C2410 H2383 0.950 . S
C2410 C2396 1.377 . S
C2410 C2409 1.373 . S
C2411 C2395 1.377 . S
C2411 C2409 1.389 . S
C2411 C2412 1.524 . S
C2412 C2411 1.524 . S
C2412 C2413 1.397 . S
C2412 C2417 1.363 . S
C2413 H2384 0.950 . S
C2413 C2412 1.397 . S
C2413 C2414 1.334 . S
C2414 H2385 0.950 1_655 S
C2414 C2413 1.334 . S
C2414 C2415 1.287 1_655 S
C2415 C2414 1.287 1_455 S
C2415 C2416 1.524 1_455 S
C2415 H2418 0.999 . S
C2416 H2386 0.950 . S
C2416 C2415 1.524 1_655 S
C2416 C2417 1.415 . S
C2417 H2387 0.950 . S
C2417 C2412 1.363 . S
C2417 C2416 1.415 . S
H2418 C2415 0.999 . S
H2419 C2400 0.913 . S
H2420 C2438 0.951 . S
H2421 C2440 0.951 . S
H2422 C2442 0.950 . S
H2423 C2443 0.950 . S
H2424 C2445 0.950 . S
H2425 C2448 0.950 . S
H2426 C2449 0.950 . S
H2427 C2451 0.950 . S
H2428 C2452 0.950 . S
H2429 C2453 0.951 . S
H2430 C2455 0.951 . S
H2431 C2457 0.950 . S
H2432 C2458 0.950 . S
H2433 C2460 0.950 . S
H2434 C2463 0.950 . S
H2435 C2464 0.950 . S
H2436 C2466 0.950 . S
H2437 C2467 0.950 . S
C2438 H2420 0.951 . S
C2438 C2439 1.366 . S
C2438 C2440 1.388 . S
C2439 C2438 1.366 . S
C2439 C2443 1.385 . S
C2440 H2421 0.951 . S
C2440 C2438 1.388 . S
C2440 C2441 1.366 . S
C2441 C2440 1.366 . S
C2441 C2442 1.414 . S
C2441 C2444 1.499 . S
C2442 H2422 0.950 . S
C2442 C2441 1.414 . S
C2442 C2443 1.374 . S
C2443 H2423 0.950 . S
C2443 C2439 1.385 . S
C2443 C2442 1.374 . S
C2444 C2441 1.499 . S
C2444 C2445 1.373 . S
C2444 C2446 1.389 . S
C2445 H2424 0.950 . S
C2445 C2444 1.373 . S
C2445 C2461 1.377 . S
C2446 C2444 1.389 . S
C2446 C2447 1.524 . S
C2446 C2460 1.377 . S
C2447 C2446 1.524 . S
C2447 C2448 1.397 . S
C2447 C2452 1.363 . S
C2448 H2425 0.950 . S
C2448 C2447 1.397 . S
C2448 C2449 1.334 . S
C2449 H2426 0.950 . S
C2449 C2448 1.334 . S
C2449 C2450 1.287 . S
C2450 C2449 1.287 . S
C2450 C2451 1.524 . S
C2450 H2469 0.913 . S
C2451 H2427 0.950 . S
C2451 C2450 1.524 . S
C2451 C2452 1.415 . S
C2452 H2428 0.950 . S
C2452 C2447 1.363 . S
C2452 C2451 1.415 . S
C2453 H2429 0.951 . S
C2453 C2454 1.366 . S
C2453 C2455 1.388 . S
C2454 C2453 1.366 . S
C2454 C2458 1.385 . S
C2455 H2430 0.951 . S
C2455 C2453 1.388 . S
C2455 C2456 1.366 . S
C2456 C2455 1.366 . S
C2456 C2457 1.414 . S
C2456 C2459 1.499 . S
C2457 H2431 0.950 . S
C2457 C2456 1.414 . S
C2457 C2458 1.374 . S
C2458 H2432 0.950 . S
C2458 C2454 1.385 . S
C2458 C2457 1.374 . S
C2459 C2456 1.499 . S
C2459 C2460 1.373 . S
C2459 C2461 1.389 . S
C2460 H2433 0.950 . S
C2460 C2446 1.377 . S
C2460 C2459 1.373 . S
C2461 C2445 1.377 . S
C2461 C2459 1.389 . S
C2461 C2462 1.524 . S
C2462 C2461 1.524 . S
C2462 C2463 1.397 . S
C2462 C2467 1.363 . S
C2463 H2434 0.950 . S
C2463 C2462 1.397 . S
C2463 C2464 1.334 . S
C2464 H2435 0.950 . S
C2464 C2463 1.334 . S
C2464 C2465 1.287 . S
C2465 C2464 1.287 . S
C2465 C2466 1.524 . S
C2465 H2468 0.999 . S
C2466 H2436 0.950 . S
C2466 C2465 1.524 . S
C2466 C2467 1.415 . S
C2467 H2437 0.950 . S
C2467 C2462 1.363 . S
C2467 C2466 1.415 . S
H2468 C2465 0.999 . S
H2469 C2450 0.913 . S
H2470 C2488 0.951 . S
H2471 C2490 0.951 . S
H2472 C2492 0.939 1_565 S
H2473 C2493 0.950 . S
H2474 C2495 0.950 . S
H2475 C2498 0.950 . S
H2476 C2499 0.950 . S
H2477 C2501 0.950 . S
H2478 C2502 0.950 . S
H2479 C2503 0.951 . S
H2480 C2505 0.951 . S
H2481 C2507 0.950 . S
H2482 C2508 0.950 . S
H2483 C2510 0.950 . S
H2484 C2513 0.950 . S
H2485 C2514 0.950 . S
H2486 C2516 0.950 . S
H2487 C2517 0.935 1_565 S
C2488 H2470 0.951 . S
C2488 C2489 1.366 . S
C2488 C2490 1.388 . S
C2489 C2488 1.366 . S
C2489 C2493 1.385 1_545 S
C2490 H2471 0.951 . S
C2490 C2488 1.388 . S
C2490 C2491 1.366 . S
C2491 C2490 1.366 . S
C2491 C2492 1.434 . S
C2491 C2494 1.499 . S
C2492 H2472 0.939 1_545 S
C2492 C2491 1.434 . S
C2492 C2493 1.365 1_545 S
C2493 H2473 0.950 . S
C2493 C2489 1.385 1_565 S
C2493 C2492 1.365 1_565 S
C2494 C2491 1.499 . S
C2494 C2495 1.373 . S
C2494 C2496 1.389 . S
C2495 H2474 0.950 . S
C2495 C2494 1.373 . S
C2495 C2511 1.377 . S
C2496 C2494 1.389 . S
C2496 C2497 1.524 . S
C2496 C2510 1.377 . S
C2497 C2496 1.524 . S
C2497 C2498 1.397 . S
C2497 C2502 1.363 . S
C2498 H2475 0.950 . S
C2498 C2497 1.397 . S
C2498 C2499 1.334 . S
C2499 H2476 0.950 . S
C2499 C2498 1.334 . S
C2499 C2500 1.287 . S
C2500 C2499 1.287 . S
C2500 C2501 1.524 . S
C2500 H2519 0.913 . S
C2501 H2477 0.950 . S
C2501 C2500 1.524 . S
C2501 C2502 1.415 . S
C2502 H2478 0.950 . S
C2502 C2497 1.363 . S
C2502 C2501 1.415 . S
C2503 H2479 0.951 . S
C2503 C2504 1.366 . S
C2503 C2505 1.388 . S
C2504 C2503 1.366 . S
C2504 C2508 1.385 . S
C2505 H2480 0.951 . S
C2505 C2503 1.388 . S
C2505 C2506 1.366 . S
C2506 C2505 1.366 . S
C2506 C2507 1.414 . S
C2506 C2509 1.499 . S
C2507 H2481 0.950 . S
C2507 C2506 1.414 . S
C2507 C2508 1.374 . S
C2508 H2482 0.950 . S
C2508 C2504 1.385 . S
C2508 C2507 1.374 . S
C2509 C2506 1.499 . S
C2509 C2510 1.373 . S
C2509 C2511 1.389 . S
C2510 H2483 0.950 . S
C2510 C2496 1.377 . S
C2510 C2509 1.373 . S
C2511 C2495 1.377 . S
C2511 C2509 1.389 . S
C2511 C2512 1.524 . S
C2512 C2511 1.524 . S
C2512 C2513 1.397 . S
C2512 C2517 1.391 . S
C2513 H2484 0.950 . S
C2513 C2512 1.397 . S
C2513 C2514 1.334 . S
C2514 H2485 0.950 . S
C2514 C2513 1.334 . S
C2514 C2515 1.287 . S
C2515 C2514 1.287 . S
C2515 C2516 1.524 1_545 S
C2515 H2518 1.000 1_545 S
C2516 H2486 0.950 . S
C2516 C2515 1.524 1_565 S
C2516 C2517 1.402 1_565 S
C2517 H2487 0.935 1_545 S
C2517 C2512 1.391 . S
C2517 C2516 1.402 1_545 S
H2518 C2515 1.000 1_565 S
H2519 C2500 0.913 . S
H2520 C2538 0.951 . S
H2521 C2540 0.951 . S
H2522 C2542 0.950 . S
H2523 C2543 0.950 . S
H2524 C2545 0.950 . S
H2525 C2548 0.950 . S
H2526 C2549 0.950 . S
H2527 C2551 0.950 . S
H2528 C2552 0.950 . S
H2529 C2553 0.951 . S
H2530 C2555 0.951 . S
H2531 C2557 0.950 . S
H2532 C2558 0.950 . S
H2533 C2560 0.950 . S
H2534 C2563 0.950 . S
H2535 C2564 0.950 . S
H2536 C2566 0.950 . S
H2537 C2567 0.950 . S
C2538 H2520 0.951 . S
C2538 C2539 1.366 . S
C2538 C2540 1.388 . S
C2539 C2538 1.366 . S
C2539 C2543 1.385 . S
C2540 H2521 0.951 . S
C2540 C2538 1.388 . S
C2540 C2541 1.366 . S
C2541 C2540 1.366 . S
C2541 C2542 1.414 . S
C2541 C2544 1.499 . S
C2542 H2522 0.950 . S
C2542 C2541 1.414 . S
C2542 C2543 1.374 . S
C2543 H2523 0.950 . S
C2543 C2539 1.385 . S
C2543 C2542 1.374 . S
C2544 C2541 1.499 . S
C2544 C2545 1.373 . S
C2544 C2546 1.389 . S
C2545 H2524 0.950 . S
C2545 C2544 1.373 . S
C2545 C2561 1.377 . S
C2546 C2544 1.389 . S
C2546 C2547 1.524 . S
C2546 C2560 1.377 . S
C2547 C2546 1.524 . S
C2547 C2548 1.397 . S
C2547 C2552 1.363 . S
C2548 H2525 0.950 . S
C2548 C2547 1.397 . S
C2548 C2549 1.334 . S
C2549 H2526 0.950 . S
C2549 C2548 1.334 . S
C2549 C2550 1.287 . S
C2550 C2549 1.287 . S
C2550 C2551 1.524 . S
C2550 H2569 0.913 . S
C2551 H2527 0.950 . S
C2551 C2550 1.524 . S
C2551 C2552 1.415 . S
C2552 H2528 0.950 . S
C2552 C2547 1.363 . S
C2552 C2551 1.415 . S
C2553 H2529 0.951 . S
C2553 C2554 1.366 . S
C2553 C2555 1.388 . S
C2554 C2553 1.366 . S
C2554 C2558 1.385 . S
C2555 H2530 0.951 . S
C2555 C2553 1.388 . S
C2555 C2556 1.366 . S
C2556 C2555 1.366 . S
C2556 C2557 1.414 . S
C2556 C2559 1.499 . S
C2557 H2531 0.950 . S
C2557 C2556 1.414 . S
C2557 C2558 1.374 . S
C2558 H2532 0.950 . S
C2558 C2554 1.385 . S
C2558 C2557 1.374 . S
C2559 C2556 1.499 . S
C2559 C2560 1.373 . S
C2559 C2561 1.389 . S
C2560 H2533 0.950 . S
C2560 C2546 1.377 . S
C2560 C2559 1.373 . S
C2561 C2545 1.377 . S
C2561 C2559 1.389 . S
C2561 C2562 1.524 . S
C2562 C2561 1.524 . S
C2562 C2563 1.397 . S
C2562 C2567 1.363 . S
C2563 H2534 0.950 . S
C2563 C2562 1.397 . S
C2563 C2564 1.334 . S
C2564 H2535 0.950 . S
C2564 C2563 1.334 . S
C2564 C2565 1.287 . S
C2565 C2564 1.287 . S
C2565 C2566 1.524 . S
C2565 H2568 0.999 . S
C2566 H2536 0.950 . S
C2566 C2565 1.524 . S
C2566 C2567 1.415 . S
C2567 H2537 0.950 . S
C2567 C2562 1.363 . S
C2567 C2566 1.415 . S
H2568 C2565 0.999 . S
H2569 C2550 0.913 . S
H2570 C2588 0.951 . S
H2571 C2590 0.951 1_565 S
H2572 C2592 0.952 . S
H2573 C2593 0.950 . S
H2574 C2595 0.950 . S
H2575 C2598 0.950 . S
H2576 C2599 0.950 . S
H2577 C2601 0.950 . S
H2578 C2602 0.950 . S
H2579 C2603 0.951 . S
H2580 C2605 0.951 . S
H2581 C2607 0.950 . S
H2582 C2608 0.950 . S
H2583 C2610 0.950 . S
H2584 C2613 0.950 . S
H2585 C2614 0.950 . S
H2586 C2616 0.950 . S
H2587 C2617 0.950 . S
C2588 H2570 0.951 . S
C2588 C2589 1.366 1_565 S
C2588 C2590 1.388 1_665 S
C2589 C2588 1.366 1_545 S
C2589 C2593 1.385 . S
C2590 H2571 0.951 1_545 S
C2590 C2588 1.388 1_445 S
C2590 C2591 1.366 . S
C2591 C2590 1.366 . S
C2591 C2592 1.429 . S
C2591 C2594 1.499 . S
C2592 H2572 0.952 . S
C2592 C2591 1.429 . S
C2592 C2593 1.357 1_455 S
C2593 H2573 0.950 . S
C2593 C2589 1.385 . S
C2593 C2592 1.357 1_655 S
C2594 C2591 1.499 . S
C2594 C2595 1.373 . S
C2594 C2596 1.389 . S
C2595 H2574 0.950 . S
C2595 C2594 1.373 . S
C2595 C2611 1.377 . S
C2596 C2594 1.389 . S
C2596 C2597 1.524 . S
C2596 C2610 1.377 . S
C2597 C2596 1.524 . S
C2597 C2598 1.397 . S
C2597 C2602 1.363 1_545 S
C2598 H2575 0.950 . S
C2598 C2597 1.397 . S
C2598 C2599 1.334 1_545 S
C2599 H2576 0.950 . S
C2599 C2598 1.334 1_565 S
C2599 C2600 1.287 . S
C2600 C2599 1.287 . S
C2600 C2601 1.524 . S
C2600 H2619 0.913 . S
C2601 H2577 0.950 . S
C2601 C2600 1.524 . S
C2601 C2602 1.415 . S
C2602 H2578 0.950 . S
C2602 C2597 1.363 1_565 S
C2602 C2601 1.415 . S
C2603 H2579 0.951 . S
C2603 C2604 1.366 . S
C2603 C2605 1.388 . S
C2604 C2603 1.366 . S
C2604 C2608 1.385 . S
C2605 H2580 0.951 . S
C2605 C2603 1.388 . S
C2605 C2606 1.366 . S
C2606 C2605 1.366 . S
C2606 C2607 1.414 . S
C2606 C2609 1.499 . S
C2607 H2581 0.950 . S
C2607 C2606 1.414 . S
C2607 C2608 1.374 . S
C2608 H2582 0.950 . S
C2608 C2604 1.385 . S
C2608 C2607 1.374 . S
C2609 C2606 1.499 . S
C2609 C2610 1.373 . S
C2609 C2611 1.389 . S
C2610 H2583 0.950 . S
C2610 C2596 1.377 . S
C2610 C2609 1.373 . S
C2611 C2595 1.377 . S
C2611 C2609 1.389 . S
C2611 C2612 1.524 . S
C2612 C2611 1.524 . S
C2612 C2613 1.397 . S
C2612 C2617 1.363 . S
C2613 H2584 0.950 . S
C2613 C2612 1.397 . S
C2613 C2614 1.334 . S
C2614 H2585 0.950 . S
C2614 C2613 1.334 . S
C2614 C2615 1.287 . S
C2615 C2614 1.287 . S
C2615 C2616 1.524 . S
C2615 H2618 0.999 . S
C2616 H2586 0.950 . S
C2616 C2615 1.524 . S
C2616 C2617 1.415 . S
C2617 H2587 0.950 . S
C2617 C2612 1.363 . S
C2617 C2616 1.415 . S
H2618 C2615 0.999 . S
H2619 C2600 0.913 . S
H2620 C2638 0.951 . S
H2621 C2640 0.951 . S
H2622 C2642 0.950 . S
H2623 C2643 0.950 . S
H2624 C2645 0.950 . S
H2625 C2648 0.950 . S
H2626 C2649 0.950 . S
H2627 C2651 0.950 . S
H2628 C2652 0.950 . S
H2629 C2653 0.951 . S
H2630 C2655 0.951 . S
H2631 C2657 0.950 . S
H2632 C2658 0.950 . S
H2633 C2660 0.950 . S
H2634 C2663 0.950 . S
H2635 C2664 0.950 . S
H2636 C2666 0.950 . S
H2637 C2667 0.950 . S
C2638 H2620 0.951 . S
C2638 C2639 1.366 . S
C2638 C2640 1.388 . S
C2639 C2638 1.366 . S
C2639 C2643 1.385 . S
C2640 H2621 0.951 . S
C2640 C2638 1.388 . S
C2640 C2641 1.366 . S
C2641 C2640 1.366 . S
C2641 C2642 1.414 . S
C2641 C2644 1.499 . S
C2642 H2622 0.950 . S
C2642 C2641 1.414 . S
C2642 C2643 1.374 . S
C2643 H2623 0.950 . S
C2643 C2639 1.385 . S
C2643 C2642 1.374 . S
C2644 C2641 1.499 . S
C2644 C2645 1.373 . S
C2644 C2646 1.389 . S
C2645 H2624 0.950 . S
C2645 C2644 1.373 . S
C2645 C2661 1.377 . S
C2646 C2644 1.389 . S
C2646 C2647 1.524 . S
C2646 C2660 1.377 . S
C2647 C2646 1.524 . S
C2647 C2648 1.397 . S
C2647 C2652 1.363 . S
C2648 H2625 0.950 . S
C2648 C2647 1.397 . S
C2648 C2649 1.334 . S
C2649 H2626 0.950 . S
C2649 C2648 1.334 . S
C2649 C2650 1.287 . S
C2650 C2649 1.287 . S
C2650 C2651 1.524 . S
C2650 H2669 0.913 . S
C2651 H2627 0.950 . S
C2651 C2650 1.524 . S
C2651 C2652 1.415 . S
C2652 H2628 0.950 . S
C2652 C2647 1.363 . S
C2652 C2651 1.415 . S
C2653 H2629 0.951 . S
C2653 C2654 1.366 . S
C2653 C2655 1.388 . S
C2654 C2653 1.366 . S
C2654 C2658 1.385 . S
C2655 H2630 0.951 . S
C2655 C2653 1.388 . S
C2655 C2656 1.366 . S
C2656 C2655 1.366 . S
C2656 C2657 1.414 . S
C2656 C2659 1.499 . S
C2657 H2631 0.950 . S
C2657 C2656 1.414 . S
C2657 C2658 1.374 . S
C2658 H2632 0.950 . S
C2658 C2654 1.385 . S
C2658 C2657 1.374 . S
C2659 C2656 1.499 . S
C2659 C2660 1.373 . S
C2659 C2661 1.389 . S
C2660 H2633 0.950 . S
C2660 C2646 1.377 . S
C2660 C2659 1.373 . S
C2661 C2645 1.377 . S
C2661 C2659 1.389 . S
C2661 C2662 1.524 . S
C2662 C2661 1.524 . S
C2662 C2663 1.397 . S
C2662 C2667 1.363 . S
C2663 H2634 0.950 . S
C2663 C2662 1.397 . S
C2663 C2664 1.334 . S
C2664 H2635 0.950 . S
C2664 C2663 1.334 . S
C2664 C2665 1.287 . S
C2665 C2664 1.287 . S
C2665 C2666 1.524 . S
C2665 H2668 0.999 . S
C2666 H2636 0.950 . S
C2666 C2665 1.524 . S
C2666 C2667 1.415 . S
C2667 H2637 0.950 . S
C2667 C2662 1.363 . S
C2667 C2666 1.415 . S
H2668 C2665 0.999 . S
H2669 C2650 0.913 . S
H2670 C2688 0.951 . S
H2671 C2690 0.951 . S
H2672 C2692 0.950 . S
H2673 C2693 0.950 . S
H2674 C2695 0.950 . S
H2675 C2698 0.950 . S
H2676 C2699 0.950 . S
H2677 C2701 0.950 . S
H2678 C2702 0.950 . S
H2679 C2703 0.951 . S
H2680 C2705 0.951 1_545 S
H2681 C2707 0.950 . S
H2682 C2708 0.950 . S
H2683 C2710 0.950 . S
H2684 C2713 0.950 . S
H2685 C2714 0.950 . S
H2686 C2716 0.950 . S
H2687 C2717 0.950 . S
C2688 H2670 0.951 . S
C2688 C2689 1.366 . S
C2688 C2690 1.388 . S
C2689 C2688 1.366 . S
C2689 C2693 1.385 . S
C2690 H2671 0.951 . S
C2690 C2688 1.388 . S
C2690 C2691 1.366 . S
C2691 C2690 1.366 . S
C2691 C2692 1.414 . S
C2691 C2694 1.499 . S
C2692 H2672 0.950 . S
C2692 C2691 1.414 . S
C2692 C2693 1.374 . S
C2693 H2673 0.950 . S
C2693 C2689 1.385 . S
C2693 C2692 1.374 . S
C2694 C2691 1.499 . S
C2694 C2695 1.373 . S
C2694 C2696 1.389 . S
C2695 H2674 0.950 . S
C2695 C2694 1.373 . S
C2695 C2711 1.377 . S
C2696 C2694 1.389 . S
C2696 C2697 1.524 . S
C2696 C2710 1.377 . S
C2697 C2696 1.524 . S
C2697 C2698 1.397 . S
C2697 C2702 1.363 . S
C2698 H2675 0.950 . S
C2698 C2697 1.397 . S
C2698 C2699 1.334 . S
C2699 H2676 0.950 . S
C2699 C2698 1.334 . S
C2699 C2700 1.287 . S
C2700 C2699 1.287 . S
C2700 C2701 1.524 . S
C2700 H2719 0.913 . S
C2701 H2677 0.950 . S
C2701 C2700 1.524 . S
C2701 C2702 1.415 . S
C2702 H2678 0.950 . S
C2702 C2697 1.363 . S
C2702 C2701 1.415 . S
C2703 H2679 0.951 . S
C2703 C2704 1.366 1_545 S
C2703 C2705 1.388 1_545 S
C2704 C2703 1.366 1_565 S
C2704 C2708 1.385 . S
C2705 H2680 0.951 1_565 S
C2705 C2703 1.388 1_565 S
C2705 C2706 1.366 . S
C2706 C2705 1.366 . S
C2706 C2707 1.414 . S
C2706 C2709 1.499 . S
C2707 H2681 0.950 . S
C2707 C2706 1.414 . S
C2707 C2708 1.374 . S
C2708 H2682 0.950 . S
C2708 C2704 1.385 . S
C2708 C2707 1.374 . S
C2709 C2706 1.499 . S
C2709 C2710 1.373 . S
C2709 C2711 1.389 . S
C2710 H2683 0.950 . S
C2710 C2696 1.377 . S
C2710 C2709 1.373 . S
C2711 C2695 1.377 . S
C2711 C2709 1.389 . S
C2711 C2712 1.524 . S
C2712 C2711 1.524 . S
C2712 C2713 1.397 . S
C2712 C2717 1.363 . S
C2713 H2684 0.950 . S
C2713 C2712 1.397 . S
C2713 C2714 1.334 . S
C2714 H2685 0.950 . S
C2714 C2713 1.334 . S
C2714 C2715 1.287 . S
C2715 C2714 1.287 . S
C2715 C2716 1.524 . S
C2715 H2718 0.999 . S
C2716 H2686 0.950 . S
C2716 C2715 1.524 . S
C2716 C2717 1.415 . S
C2717 H2687 0.950 . S
C2717 C2712 1.363 . S
C2717 C2716 1.415 . S
H2718 C2715 0.999 . S
H2719 C2700 0.913 . S
C339 C2 1.022 . S
C354 C241 1.022 . S
C389 C101 1.025 . S
C404 C22 1.025 . S
C439 C42 1.025 . S
C454 C281 1.025 . S
C489 C62 1.025 . S
C504 C141 1.025 . S
C539 C81 1.025 . S
C554 C162 1.025 . S
C589 C202 1.023 . S
C604 C121 1.023 . S
C639 C261 1.025 . S
C654 C182 1.025 . S
C689 C222 1.025 . S
C704 C301 1.025 . S
C739 C189 1.613 . S
C754 C1 1.590 . S
C789 C21 1.590 . S
C804 C209 1.613 . S
C839 C41 1.590 . S
C854 C229 1.613 . S
C889 C169 1.613 . S
C904 C61 1.590 . S
C939 C268 1.613 . S
C954 C82 1.590 . S
C989 C288 1.613 . S
C1004 C102 1.590 . S
C1039 C122 1.590 . S
C1054 C308 1.613 . S
C1089 C248 1.613 . S
C1104 C142 1.590 . S
C1139 C161 1.590 . S
C1154 C29 1.613 . S
C1189 C181 1.590 . S
C1204 C49 1.613 . S
C1239 C201 1.591 . S
C1254 C69 1.613 . S
C1289 C9 1.613 . S
C1304 C221 1.590 . S
C1339 C108 1.613 . S
C1354 C242 1.590 . S
C1389 C262 1.590 . S
C1404 C128 1.613 . S
C1439 C148 1.613 . S
C1454 C282 1.591 . S
C1489 C302 1.590 . S
C1504 C88 1.613 . S
C1539 C18 2.706 . S
C1554 C218 2.705 . S
C1589 C38 2.705 . S
C1604 C238 2.705 . S
C1639 C178 2.705 . S
C1654 C58 2.706 . S
C1689 C78 2.705 . S
C1704 C198 2.705 . S
C1739 C99 2.705 . S
C1754 C299 2.706 . S
C1789 C119 2.705 . S
C1804 C319 2.705 . S
C1839 C259 2.706 . S
C1854 C139 2.705 . S
C1889 C159 2.705 . S
C1904 C279 2.705 . S
C1939 C8 1.289 . S
C1954 C158 1.428 . S
C1989 C258 1.428 . S
C2004 C28 1.289 . S
C2039 C48 1.287 . S
C2054 C118 1.427 . S
C2089 C68 1.289 . S
C2104 C298 1.428 . S
C2139 C89 1.289 . S
C2154 C79 1.428 . S
C2189 C179 1.428 . S
C2204 C109 1.288 . S
C2239 C129 1.287 . S
C2254 C39 1.427 . S
C2289 C219 1.428 . S
C2304 C149 1.290 . S
C2339 C168 1.289 . S
C2354 C318 1.428 . S
C2389 C98 1.428 . S
C2404 C188 1.289 1_565 S
C2439 C278 1.428 . S
C2454 C208 1.289 . S
C2489 C228 1.288 1_545 S
C2504 C138 1.428 . S
C2539 C249 1.288 . S
C2554 C239 1.428 . S
C2589 C269 1.288 1_545 S
C2604 C19 1.428 . S
C2639 C199 1.427 . S
C2654 C289 1.287 . S
C2689 C59 1.428 . S
C2704 C309 1.289 1_565 S
