# Generated by pormake.
# Topology npo, (4)-cn, num edge types: 1
# Building blocks:
#     Node 0, Type 0, BuildingBlock: QUQFOY_clean_sbu_3, # of connection points: 4
#     Node 1, Type 0, BuildingBlock: QUQFOY_clean_sbu_3, # of connection points: 4
#     Node 2, Type 0, BuildingBlock: QUQFOY_clean_sbu_3, # of connection points: 4
#     Node 3, Type 0, BuildingBlock: QUQFOY_clean_sbu_3, # of connection points: 4
#     Node 4, Type 0, BuildingBlock: QUQFOY_clean_sbu_3, # of connection points: 4
#     Node 5, Type 0, BuildingBlock: QUQFOY_clean_sbu_3, # of connection points: 4
#     Edge 6, Type (0, 0), BuildingBlock: MIFKUJ_clean_linker_0, # of connection points: 2
#     Edge 7, Type (0, 0), BuildingBlock: MIFKUJ_clean_linker_0, # of connection points: 2
#     Edge 8, Type (0, 0), BuildingBlock: MIFKUJ_clean_linker_0, # of connection points: 2
#     Edge 9, Type (0, 0), BuildingBlock: MIFKUJ_clean_linker_0, # of connection points: 2
#     Edge 10, Type (0, 0), BuildingBlock: MIFKUJ_clean_linker_0, # of connection points: 2
#     Edge 11, Type (0, 0), BuildingBlock: MIFKUJ_clean_linker_0, # of connection points: 2
#     Edge 12, Type (0, 0), BuildingBlock: MIFKUJ_clean_linker_0, # of connection points: 2
#     Edge 13, Type (0, 0), BuildingBlock: MIFKUJ_clean_linker_0, # of connection points: 2
#     Edge 14, Type (0, 0), BuildingBlock: MIFKUJ_clean_linker_0, # of connection points: 2
#     Edge 15, Type (0, 0), BuildingBlock: MIFKUJ_clean_linker_0, # of connection points: 2
#     Edge 16, Type (0, 0), BuildingBlock: MIFKUJ_clean_linker_0, # of connection points: 2
#     Edge 17, Type (0, 0), BuildingBlock: MIFKUJ_clean_linker_0, # of connection points: 2
# Relax obj value: 0.290
# Max RMSD: 0.250
# Mean RMSD: 0.240
data_MOF--net-npo--node1-QUQFOY_clean_sbu_3--edge1-MIFKUJ_clean_linker_0
_symmetry_space_group_name_H-M    P1
_symmetry_Int_Tables_number       1
_symmetry_cell_setting            triclinic
loop_
_symmetry_equiv_pos_as_xyz
'x, y, z'
_cell_length_a     58.896094
_cell_length_b     57.615992
_cell_length_c     32.292569
_cell_angle_alpha  91.866259
_cell_angle_beta   90.451521
_cell_angle_gamma 120.68158
loop_
_atom_site_label
_atom_site_type_symbol
_atom_site_fract_x
_atom_site_fract_y
_atom_site_fract_z
_atom_type_partial_charge
C0 C 0.50537 0.13995 0.18459 0.0
O1 O 0.51107 0.13516 0.1487 0.0
Cd2 Cd 0.53256 0.11056 0.13383 0.0
O3 O 0.50916 0.12956 0.21633 0.0
Cd4 Cd 0.52481 0.09741 0.23062 0.0
C5 C 0.58567 0.14546 0.20262 0.0
O6 O 0.50808 0.06961 0.16855 0.0
O7 O 0.53844 0.06625 0.20014 0.0
O8 O 0.48866 0.06884 0.27533 0.0
C9 C 0.52142 0.05808 0.17062 0.0
O10 O 0.57686 0.1396 0.16523 0.0
C11 C 0.50336 0.07283 0.30693 0.0
O12 O 0.57061 0.13382 0.23257 0.0
O13 O 0.52799 0.08887 0.30336 0.0
C14 C 0.35868 0.50877 0.69698 0.0
O15 O 0.36868 0.51265 0.66132 0.0
Cd16 Cd 0.41463 0.53034 0.64948 0.0
O17 O 0.373 0.5137 0.72965 0.0
Cd18 Cd 0.41923 0.52962 0.75119 0.0
C19 C 0.43882 0.58995 0.7073 0.0
O20 O 0.4254 0.50555 0.69536 0.0
O21 O 0.46071 0.53083 0.73219 0.0
O22 O 0.4018 0.49786 0.80674 0.0
C23 C 0.44961 0.51399 0.70188 0.0
O24 O 0.43483 0.5781 0.67169 0.0
C25 C 0.41585 0.51518 0.83525 0.0
O26 O 0.43386 0.57676 0.74018 0.0
O27 O 0.43131 0.53919 0.8245 0.0
C28 C 0.84288 0.48266 0.26255 0.0
O29 O 0.8477 0.4782 0.2989 0.0
Cd30 Cd 0.87068 0.45451 0.31131 0.0
O31 O 0.85035 0.47471 0.23103 0.0
Cd32 Cd 0.87416 0.45096 0.21398 0.0
C33 C 0.82844 0.39444 0.25992 0.0
O34 O 0.90809 0.47367 0.26682 0.0
O35 O 0.90652 0.43869 0.2373 0.0
O36 O 0.89549 0.4805 0.15712 0.0
C37 C 0.91854 0.45931 0.26176 0.0
O38 O 0.8383 0.40657 0.29487 0.0
C39 C 0.88676 0.46163 0.12933 0.0
O40 O 0.83703 0.40665 0.22642 0.0
O41 O 0.87205 0.43771 0.14097 0.0
C42 C 0.36297 0.83933 0.78054 0.0
O43 O 0.37397 0.84435 0.8163 0.0
Cd44 Cd 0.42037 0.86975 0.8297 0.0
O45 O 0.37668 0.84953 0.7486 0.0
Cd46 Cd 0.4242 0.88183 0.73426 0.0
C47 C 0.43925 0.83533 0.76245 0.0
O48 O 0.43542 0.91088 0.79547 0.0
O49 O 0.46888 0.91387 0.76404 0.0
O50 O 0.41368 0.90845 0.68938 0.0
C51 C 0.46023 0.923 0.7921 0.0
O52 O 0.43687 0.84162 0.79971 0.0
C53 C 0.4256 0.90632 0.65822 0.0
O54 O 0.43453 0.84602 0.73221 0.0
O55 O 0.43612 0.89194 0.66192 0.0
C56 C 0.60986 0.48434 0.1996 0.0
O57 O 0.59989 0.47918 0.16302 0.0
Cd58 Cd 0.55359 0.45755 0.14612 0.0
O59 O 0.5952 0.47834 0.23101 0.0
Cd60 Cd 0.54806 0.45801 0.24774 0.0
C61 C 0.53132 0.39827 0.19667 0.0
O62 O 0.53876 0.47915 0.19348 0.0
O63 O 0.5043 0.45108 0.22589 0.0
O64 O 0.55723 0.48923 0.30679 0.0
C65 C 0.51408 0.46791 0.19748 0.0
O66 O 0.53527 0.41004 0.16248 0.0
C67 C 0.54899 0.47117 0.33352 0.0
O68 O 0.53554 0.41138 0.23115 0.0
O69 O 0.54032 0.44702 0.32029 0.0
C70 C 0.12246 0.5094 0.76237 0.0
O71 O 0.11844 0.51413 0.7995 0.0
Cd72 Cd 0.09004 0.53105 0.81879 0.0
O73 O 0.11119 0.51349 0.73197 0.0
Cd74 Cd 0.08017 0.52923 0.71775 0.0
C75 C 0.12154 0.59027 0.76744 0.0
O76 O 0.05263 0.50533 0.77335 0.0
O77 O 0.03971 0.52868 0.7407 0.0
O78 O 0.06408 0.49825 0.65684 0.0
C79 C 0.03596 0.51277 0.76951 0.0
O80 O 0.11511 0.5788 0.80199 0.0
C81 C 0.06658 0.51613 0.63222 0.0
O82 O 0.11258 0.57663 0.73335 0.0
O83 O 0.07552 0.53988 0.64759 0.0
H84 H 0.48874 0.16003 0.12385 0.0
H85 H 0.48547 0.20051 0.12881 0.0
H86 H 0.50146 0.20754 0.26056 0.0
H87 H 0.50469 0.16677 0.25601 0.0
H88 H 0.46483 0.22425 0.23525 0.0
H89 H 0.55145 0.24 0.20476 0.0
H90 H 0.58312 0.23211 0.16646 0.0
H91 H 0.56121 0.25414 0.05367 0.0
H92 H 0.52907 0.26174 0.09123 0.0
H93 H 0.52372 0.36723 0.26344 0.0
H94 H 0.51211 0.32005 0.26282 0.0
H95 H 0.50714 0.31604 0.12917 0.0
H96 H 0.51919 0.36337 0.12941 0.0
H97 H 0.53656 0.29678 0.15635 0.0
H98 H 0.45156 0.28373 0.18768 0.0
H99 H 0.4197 0.29128 0.22604 0.0
H100 H 0.43834 0.26465 0.33711 0.0
H101 H 0.47059 0.25729 0.29954 0.0
C102 C 0.49097 0.16977 0.1541 0.0
C103 C 0.49748 0.16048 0.18944 0.0
C104 C 0.48904 0.19289 0.15685 0.0
C105 C 0.49372 0.20722 0.1949 0.0
C106 C 0.49787 0.19674 0.2309 0.0
C107 C 0.49975 0.17347 0.22821 0.0
C108 C 0.49771 0.23475 0.19584 0.0
C109 C 0.48062 0.24025 0.2184 0.0
C110 C 0.51812 0.25539 0.17329 0.0
C111 C 0.53767 0.25117 0.15072 0.0
C112 C 0.55324 0.24296 0.17173 0.0
C113 C 0.57129 0.23856 0.15017 0.0
C114 C 0.57412 0.24255 0.10763 0.0
C115 C 0.55896 0.25102 0.08661 0.0
C116 C 0.54083 0.25538 0.10802 0.0
C117 C 0.51993 0.35628 0.23388 0.0
C118 C 0.52253 0.36916 0.19644 0.0
C119 C 0.51312 0.32923 0.23362 0.0
C120 C 0.50853 0.31445 0.19597 0.0
C121 C 0.51058 0.32708 0.15859 0.0
C122 C 0.51746 0.35414 0.1588 0.0
C123 C 0.50347 0.28645 0.19539 0.0
C124 C 0.52057 0.28085 0.17305 0.0
C125 C 0.48311 0.26585 0.2182 0.0
C126 C 0.46368 0.2702 0.24087 0.0
C127 C 0.44903 0.27969 0.22037 0.0
C128 C 0.43086 0.2839 0.24195 0.0
C129 C 0.42705 0.27851 0.28401 0.0
C130 C 0.44134 0.26884 0.30454 0.0
C131 C 0.45954 0.26462 0.2831 0.0
H132 H 0.41297 0.28178 0.30067 0.0
H133 H 0.58811 0.23914 0.09099 0.0
H134 H 0.33088 0.49943 0.76804 0.0
H135 H 0.28588 0.49033 0.77474 0.0
H136 H 0.27751 0.48927 0.64174 0.0
H137 H 0.32268 0.49872 0.63466 0.0
H138 H 0.2652 0.52321 0.67957 0.0
H139 H 0.24221 0.43162 0.69402 0.0
H140 H 0.2456 0.3942 0.72212 0.0
H141 H 0.22878 0.41309 0.84359 0.0
H142 H 0.22565 0.45089 0.81634 0.0
H143 H 0.1353 0.49681 0.6872 0.0
H144 H 0.17072 0.48774 0.67285 0.0
H145 H 0.18877 0.49338 0.80379 0.0
H146 H 0.15317 0.50222 0.81863 0.0
H147 H 0.19363 0.45314 0.76184 0.0
H148 H 0.22248 0.54741 0.74994 0.0
H149 H 0.21998 0.58581 0.72378 0.0
H150 H 0.22702 0.56248 0.59905 0.0
H151 H 0.22919 0.52369 0.62448 0.0
C152 C 0.31937 0.49687 0.74013 0.0
C153 C 0.33047 0.50005 0.70082 0.0
C154 C 0.29356 0.49147 0.74403 0.0
C155 C 0.27833 0.48898 0.70871 0.0
C156 C 0.28897 0.4911 0.66936 0.0
C157 C 0.31478 0.4965 0.66541 0.0
C158 C 0.25245 0.48704 0.71317 0.0
C159 C 0.24932 0.5075 0.69673 0.0
C160 C 0.2321 0.46701 0.73664 0.0
C161 C 0.23389 0.44424 0.75316 0.0
C162 C 0.23944 0.42794 0.72679 0.0
C163 C 0.24127 0.40663 0.74255 0.0
C164 C 0.23746 0.4013 0.78462 0.0
C165 C 0.23174 0.41724 0.811 0.0
C166 C 0.2299 0.43859 0.7954 0.0
C167 C 0.14653 0.49576 0.71305 0.0
C168 C 0.14168 0.50066 0.75406 0.0
C169 C 0.16673 0.49054 0.70475 0.0
C170 C 0.18253 0.49028 0.73724 0.0
C171 C 0.17676 0.49353 0.77832 0.0
C172 C 0.15651 0.49873 0.7867 0.0
C173 C 0.20656 0.48927 0.72822 0.0
C174 C 0.20939 0.46847 0.74404 0.0
C175 C 0.22681 0.50908 0.70439 0.0
C176 C 0.22568 0.53249 0.68906 0.0
C177 C 0.22328 0.55035 0.71691 0.0
C178 C 0.22196 0.5722 0.70222 0.0
C179 C 0.22326 0.57653 0.65976 0.0
C180 C 0.22596 0.55907 0.63192 0.0
C181 C 0.22725 0.53716 0.64645 0.0
H182 H 0.22223 0.59346 0.64845 0.0
H183 H 0.2389 0.38479 0.79677 0.0
H184 H 0.6215 0.17926 0.14776 0.0
H185 H 0.66568 0.21754 0.16325 0.0
H186 H 0.65696 0.1992 0.29268 0.0
H187 H 0.61238 0.16112 0.2776 0.0
H188 H 0.67451 0.25093 0.28387 0.0
H189 H 0.69941 0.18892 0.2318 0.0
H190 H 0.6994 0.15525 0.18266 0.0
H191 H 0.72908 0.21359 0.0881 0.0
H192 H 0.72893 0.24752 0.13648 0.0
H193 H 0.80599 0.36031 0.32398 0.0
H194 H 0.76792 0.31419 0.3199 0.0
H195 H 0.76239 0.31876 0.18742 0.0
H196 H 0.80057 0.36437 0.19101 0.0
H197 H 0.75435 0.27063 0.20622 0.0
H198 H 0.72293 0.3297 0.25466 0.0
H199 H 0.72201 0.36343 0.30257 0.0
H200 H 0.70401 0.31023 0.40309 0.0
H201 H 0.70514 0.27631 0.35582 0.0
C202 C 0.62905 0.18311 0.17947 0.0
C203 C 0.61335 0.16714 0.21145 0.0
C204 C 0.65442 0.20495 0.18825 0.0
C205 C 0.66477 0.21106 0.22908 0.0
C206 C 0.64938 0.19481 0.26095 0.0
C207 C 0.62392 0.17304 0.25224 0.0
C208 C 0.69085 0.23556 0.23869 0.0
C209 C 0.69212 0.25496 0.26756 0.0
C210 C 0.71371 0.24103 0.21689 0.0
C211 C 0.71401 0.22072 0.18775 0.0
C212 C 0.70578 0.19453 0.20045 0.0
C213 C 0.70583 0.1754 0.17274 0.0
C214 C 0.7142 0.18226 0.13227 0.0
C215 C 0.7226 0.2083 0.11946 0.0
C216 C 0.72258 0.2275 0.14704 0.0
C217 C 0.79676 0.35141 0.29396 0.0
C218 C 0.80623 0.36611 0.25787 0.0
C219 C 0.77498 0.32508 0.2917 0.0
C220 C 0.76213 0.31316 0.2534 0.0
C221 C 0.77201 0.32753 0.21729 0.0
C222 C 0.79381 0.3537 0.21946 0.0
C223 C 0.73777 0.28616 0.25063 0.0
C224 C 0.73683 0.26632 0.22306 0.0
C225 C 0.71518 0.28028 0.2735 0.0
C226 C 0.71443 0.30063 0.30185 0.0
C227 C 0.71897 0.32529 0.28705 0.0
C228 C 0.71838 0.34442 0.31407 0.0
C229 C 0.71304 0.33901 0.35588 0.0
C230 C 0.7082 0.31442 0.37072 0.0
C231 C 0.7088 0.29523 0.34384 0.0
H232 H 0.71259 0.35385 0.37675 0.0
H233 H 0.71421 0.16742 0.11086 0.0
H234 H 0.44792 0.80611 0.81898 0.0
H235 H 0.4556 0.76885 0.80505 0.0
H236 H 0.45433 0.77971 0.67367 0.0
H237 H 0.4462 0.81678 0.68725 0.0
H238 H 0.42266 0.7284 0.69113 0.0
H239 H 0.51197 0.79581 0.7258 0.0
H240 H 0.54835 0.83277 0.76784 0.0
H241 H 0.53089 0.78003 0.86882 0.0
H242 H 0.49415 0.74283 0.82761 0.0
H243 H 0.44902 0.62429 0.64407 0.0
H244 H 0.45698 0.67028 0.64942 0.0
H245 H 0.45488 0.6671 0.78267 0.0
H246 H 0.44729 0.62131 0.77776 0.0
H247 H 0.49226 0.71695 0.75809 0.0
H248 H 0.40014 0.65216 0.72756 0.0
H249 H 0.36278 0.615 0.68729 0.0
H250 H 0.3851 0.66322 0.57993 0.0
H251 H 0.42283 0.70056 0.61947 0.0
C252 C 0.44958 0.80082 0.78711 0.0
C253 C 0.44629 0.81436 0.75422 0.0
C254 C 0.45414 0.77959 0.77921 0.0
C255 C 0.45577 0.77164 0.73832 0.0
C256 C 0.45318 0.78555 0.70546 0.0
C257 C 0.44855 0.80675 0.71331 0.0
C258 C 0.45803 0.74746 0.72986 0.0
C259 C 0.43825 0.72617 0.70502 0.0
C260 C 0.47798 0.74428 0.74883 0.0
C261 C 0.50016 0.76657 0.77368 0.0
C262 C 0.51575 0.79214 0.75708 0.0
C263 C 0.53647 0.81312 0.78075 0.0
C264 C 0.5419 0.80876 0.821 0.0
C265 C 0.52666 0.78338 0.83764 0.0
C266 C 0.50591 0.76232 0.81411 0.0
C267 C 0.45066 0.63349 0.67456 0.0
C268 C 0.44715 0.61895 0.71047 0.0
C269 C 0.45517 0.65977 0.67754 0.0
C270 C 0.45608 0.6719 0.71641 0.0
C271 C 0.45417 0.65808 0.75237 0.0
C272 C 0.44972 0.63183 0.74946 0.0
C273 C 0.45682 0.69799 0.71963 0.0
C274 C 0.47702 0.71949 0.74362 0.0
C275 C 0.43719 0.7014 0.70006 0.0
C276 C 0.41447 0.67901 0.67631 0.0
C277 C 0.3972 0.65475 0.69527 0.0
C278 C 0.37594 0.63368 0.6726 0.0
C279 C 0.37162 0.63672 0.63104 0.0
C280 C 0.38851 0.66088 0.6121 0.0
C281 C 0.40982 0.682 0.63462 0.0
H282 H 0.35514 0.62038 0.61354 0.0
H283 H 0.55794 0.82504 0.83928 0.0
H284 H 0.64757 0.50227 0.1406 0.0
H285 H 0.69359 0.5144 0.14962 0.0
H286 H 0.68307 0.50344 0.28102 0.0
H287 H 0.63716 0.49176 0.27251 0.0
H288 H 0.73296 0.54495 0.26402 0.0
H289 H 0.67365 0.45182 0.21924 0.0
H290 H 0.63993 0.41515 0.17322 0.0
H291 H 0.69183 0.44567 0.07073 0.0
H292 H 0.72573 0.48276 0.1161 0.0
H293 H 0.81521 0.49314 0.32047 0.0
H294 H 0.78237 0.50609 0.30741 0.0
H295 H 0.80073 0.51324 0.17768 0.0
H296 H 0.83326 0.49985 0.1903 0.0
H297 H 0.75004 0.4793 0.18832 0.0
H298 H 0.81273 0.56858 0.23862 0.0
H299 H 0.84598 0.60367 0.28709 0.0
H300 H 0.78821 0.57937 0.38162 0.0
H301 H 0.75468 0.54386 0.33392 0.0
C302 C 0.65514 0.5029 0.17154 0.0
C303 C 0.63856 0.49554 0.20573 0.0
C304 C 0.68146 0.5099 0.17663 0.0
C305 C 0.69154 0.50935 0.21587 0.0
C306 C 0.67562 0.50393 0.25048 0.0
C307 C 0.64933 0.49709 0.24547 0.0
C308 C 0.71737 0.51105 0.22014 0.0
C309 C 0.73679 0.53063 0.2476 0.0
C310 C 0.72239 0.49256 0.19818 0.0
C311 C 0.70207 0.47023 0.17091 0.0
C312 C 0.67777 0.45083 0.18681 0.0
C313 C 0.65865 0.42995 0.16087 0.0
C314 C 0.6637 0.42813 0.11905 0.0
C315 C 0.68792 0.44714 0.10311 0.0
C316 C 0.7071 0.46809 0.12892 0.0
C317 C 0.8127 0.49805 0.28932 0.0
C318 C 0.82654 0.49505 0.25631 0.0
C319 C 0.79402 0.50565 0.28195 0.0
C320 C 0.78913 0.51066 0.24156 0.0
C321 C 0.80418 0.5094 0.20906 0.0
C322 C 0.82272 0.50168 0.21634 0.0
C323 C 0.76588 0.51324 0.23232 0.0
C324 C 0.74668 0.49416 0.2041 0.0
C325 C 0.76111 0.53204 0.25391 0.0
C326 C 0.78122 0.55341 0.28273 0.0
C327 C 0.80715 0.57056 0.26984 0.0
C328 C 0.82605 0.59056 0.29717 0.0
C329 C 0.81923 0.59371 0.33743 0.0
C330 C 0.79347 0.5769 0.35042 0.0
C331 C 0.7745 0.55685 0.32323 0.0
H332 H 0.83388 0.60921 0.35853 0.0
H333 H 0.64887 0.41195 0.09901 0.0
H334 H 0.33442 0.81127 0.71023 0.0
H335 H 0.28885 0.77329 0.70634 0.0
H336 H 0.28126 0.78497 0.83703 0.0
H337 H 0.3268 0.82246 0.84133 0.0
H338 H 0.26894 0.73486 0.81886 0.0
H339 H 0.24612 0.79661 0.76232 0.0
H340 H 0.24942 0.83048 0.71417 0.0
H341 H 0.23018 0.77379 0.61134 0.0
H342 H 0.2271 0.73967 0.65882 0.0
H343 H 0.13925 0.6276 0.83233 0.0
H344 H 0.17577 0.67436 0.83275 0.0
H345 H 0.18575 0.66551 0.70209 0.0
H346 H 0.14874 0.61901 0.7011 0.0
H347 H 0.19541 0.71546 0.721 0.0
H348 H 0.22267 0.65609 0.77412 0.0
H349 H 0.22054 0.62164 0.81992 0.0
H350 H 0.23321 0.67381 0.92653 0.0
H351 H 0.23509 0.70845 0.88134 0.0
C352 C 0.32285 0.80612 0.73792 0.0
C353 C 0.33431 0.81964 0.77619 0.0
C354 C 0.29676 0.78445 0.73563 0.0
C355 C 0.28165 0.77627 0.77144 0.0
C356 C 0.2926 0.79085 0.80908 0.0
C357 C 0.31865 0.81228 0.81146 0.0
C358 C 0.25571 0.75077 0.77093 0.0
C359 C 0.25269 0.73089 0.79802 0.0
C360 C 0.23485 0.74519 0.74272 0.0
C361 C 0.2366 0.76565 0.71413 0.0
C362 C 0.24279 0.79143 0.72941 0.0
C363 C 0.24458 0.81066 0.70224 0.0
C364 C 0.24007 0.80431 0.65972 0.0
C365 C 0.23369 0.77869 0.64429 0.0
C366 C 0.23188 0.75938 0.67132 0.0
C367 C 0.14895 0.63571 0.80355 0.0
C368 C 0.14133 0.61946 0.76682 0.0
C369 C 0.16984 0.66243 0.80384 0.0
C370 C 0.18383 0.67322 0.76762 0.0
C371 C 0.17528 0.65757 0.73041 0.0
C372 C 0.15417 0.63094 0.72997 0.0
C373 C 0.20868 0.69984 0.76927 0.0
C374 C 0.21158 0.71972 0.7422 0.0
C375 C 0.22967 0.70544 0.7972 0.0
C376 C 0.22875 0.68473 0.8244 0.0
C377 C 0.22483 0.66013 0.80735 0.0
C378 C 0.22369 0.64059 0.83319 0.0
C379 C 0.22667 0.6455 0.87612 0.0
C380 C 0.23087 0.67002 0.89328 0.0
C381 C 0.23199 0.68962 0.86757 0.0
H382 H 0.22578 0.63034 0.89608 0.0
H383 H 0.24147 0.81923 0.63873 0.0
H384 H 0.51018 0.93588 0.81681 0.0
H385 H 0.53537 0.9639 0.87835 0.0
H386 H 0.47408 0.9823 0.90181 0.0
H387 H 0.44898 0.95441 0.84116 0.0
H388 H 0.5247 0.02667 0.91642 0.0
H389 H 0.47223 0.92972 0.94602 0.0
H390 H 0.46177 0.88261 0.93566 0.0
H391 H 0.54177 0.90675 0.96931 0.0
H392 H 0.55274 0.95409 0.97934 0.0
H393 H 0.4846 0.03483 0.10864 0.0
H394 H 0.48824 0.01527 0.0429 0.0
H395 H 0.5628 0.02561 0.08405 0.0
H396 H 0.55932 0.04542 0.15071 0.0
H397 H 0.5246 0.97373 0.03481 0.0
H398 H 0.57133 0.06935 0.02612 0.0
H399 H 0.57836 0.11499 0.03927 0.0
H400 H 0.50842 0.09339 0.96672 0.0
H401 H 0.50065 0.04745 0.95379 0.0
C402 C 0.50245 0.94642 0.8347 0.0
C403 C 0.47757 0.94286 0.8246 0.0
C404 C 0.51679 0.96232 0.86977 0.0
C405 C 0.50648 0.97502 0.89463 0.0
C406 C 0.48242 0.97274 0.88294 0.0
C407 C 0.46803 0.95669 0.84843 0.0
C408 C 0.51879 0.98849 0.93513 0.0
C409 C 0.52519 0.01531 0.94222 0.0
C410 C 0.52008 0.97384 0.96851 0.0
C411 C 0.51338 0.94541 0.96291 0.0
C412 C 0.48761 0.92497 0.95094 0.0
C413 C 0.48159 0.89825 0.94516 0.0
C414 C 0.50111 0.8917 0.9517 0.0
C415 C 0.52668 0.91186 0.96416 0.0
C416 C 0.53282 0.93864 0.96989 0.0
C417 C 0.5016 0.03257 0.10411 0.0
C418 C 0.52185 0.04197 0.13455 0.0
C419 C 0.50364 0.02141 0.06653 0.0
C420 C 0.526 0.01951 0.05854 0.0
C421 C 0.54549 0.0271 0.08977 0.0
C422 C 0.54344 0.03835 0.12771 0.0
C423 C 0.5292 0.01141 0.01618 0.0
C424 C 0.52557 0.98562 0.00878 0.0
C425 C 0.53045 0.02702 -0.01757 0.0
C426 C 0.53541 0.05491 -0.01099 0.0
C427 C 0.55738 0.07429 0.01309 0.0
C428 C 0.56149 0.10022 0.02053 0.0
C429 C 0.54385 0.10708 0.00384 0.0
C430 C 0.52209 0.08805 0.97958 0.0
C431 C 0.51786 0.06207 0.97212 0.0
H432 H 0.54704 0.12715 0.00969 0.0
H433 H 0.49642 0.871 0.9472 0.0
H434 H 0.54973 0.44349 0.39989 0.0
H435 H 0.54303 0.45154 0.47246 0.0
H436 H 0.5375 0.5204 0.43831 0.0
H437 H 0.54589 0.5134 0.36647 0.0
H438 H 0.55848 0.53058 0.51086 0.0
H439 H 0.48154 0.45318 0.44429 0.0
H440 H 0.45742 0.40837 0.408 0.0
H441 H 0.47536 0.37333 0.50929 0.0
H442 H 0.49983 0.41803 0.54596 0.0
H443 H 0.43152 0.48675 0.62776 0.0
H444 H 0.45635 0.47918 0.57489 0.0
H445 H 0.52627 0.5186 0.65457 0.0
H446 H 0.50147 0.52718 0.7076 0.0
H447 H 0.4801 0.4524 0.56909 0.0
H448 H 0.58035 0.55023 0.59203 0.0
H449 H 0.59937 0.59675 0.62153 0.0
H450 H 0.52609 0.59367 0.59687 0.0
H451 H 0.50679 0.54729 0.56684 0.0
C452 C 0.54755 0.46061 0.40816 0.0
C453 C 0.54795 0.47763 0.37767 0.0
C454 C 0.54367 0.46517 0.44955 0.0
C455 C 0.53909 0.48617 0.46075 0.0
C456 C 0.54096 0.50404 0.43055 0.0
C457 C 0.5456 0.49995 0.38942 0.0
C458 C 0.52971 0.48812 0.50252 0.0
C459 C 0.54153 0.5134 0.52384 0.0
C460 C 0.50749 0.46579 0.51951 0.0
C461 C 0.49277 0.43894 0.49757 0.0
C462 C 0.48046 0.43593 0.45867 0.0
C463 C 0.46672 0.41056 0.43807 0.0
C464 C 0.46494 0.38803 0.45627 0.0
C465 C 0.47682 0.39081 0.49519 0.0
C466 C 0.49062 0.41614 0.51589 0.0
C467 C 0.45214 0.4937 0.63428 0.0
C468 C 0.46461 0.50775 0.67171 0.0
C469 C 0.46631 0.48923 0.60404 0.0
C470 C 0.49323 0.49845 0.61059 0.0
C471 C 0.5056 0.51163 0.64862 0.0
C472 C 0.49142 0.51644 0.67889 0.0
C473 C 0.50807 0.49511 0.57635 0.0
C474 C 0.49747 0.46945 0.5567 0.0
C475 C 0.53065 0.51733 0.56001 0.0
C476 C 0.54206 0.54521 0.57779 0.0
C477 C 0.56833 0.55952 0.59292 0.0
C478 C 0.57916 0.58585 0.60969 0.0
C479 C 0.56391 0.59811 0.61124 0.0
C480 C 0.53784 0.58411 0.59584 0.0
C481 C 0.52695 0.5578 0.57897 0.0
H482 H 0.57232 0.61849 0.62427 0.0
H483 H 0.45429 0.36841 0.44027 0.0
H484 H -0.00936 0.51489 0.76225 0.0
H485 H 0.95708 0.50354 0.81489 0.0
H486 H 0.00272 0.4855 0.89929 0.0
H487 H 0.03527 0.49541 0.84654 0.0
H488 H 0.95467 0.44963 0.90519 0.0
H489 H 0.0023 0.54755 0.90208 0.0
H490 H 0.01853 0.59116 0.86927 0.0
H491 H 0.93878 0.56964 0.83929 0.0
H492 H 0.92211 0.52576 0.87156 0.0
H493 H 0.92697 0.50797 0.0997 0.0
H494 H 0.94407 0.51491 0.02986 0.0
H495 H 0.881 0.43519 -0.0094 0.0
H496 H 0.86444 0.42769 0.06109 0.0
H497 H 0.92997 0.51616 0.95377 0.0
H498 H 0.90492 0.4063 0.92575 0.0
H499 H 0.89546 0.36657 0.9655 0.0
H500 H 0.94153 0.41862 0.06908 0.0
H501 H 0.95149 0.4586 0.02976 0.0
C502 C -0.00668 0.50835 0.79204 0.0
C503 C 0.01547 0.50598 0.80039 0.0
C504 C 0.97423 0.50198 0.82209 0.0
C505 C 0.97746 0.49385 0.8612 0.0
C506 C -0.00038 0.49148 0.86928 0.0
C507 C 0.0183 0.49725 0.83913 0.0
C508 C 0.9583 0.48812 0.89448 0.0
C509 C 0.94906 0.46409 0.91548 0.0
C510 C 0.95099 0.50695 0.9081 0.0
C511 C 0.96099 0.53328 0.88873 0.0
C512 C -0.01175 0.55206 0.88821 0.0
C513 C -0.00248 0.57683 0.86977 0.0
C514 C 0.9797 0.58313 0.85208 0.0
C515 C 0.95256 0.5647 0.85291 0.0
C516 C 0.94319 0.53989 0.87128 0.0
C517 C 0.91654 0.49204 0.07607 0.0
C518 C 0.89468 0.46711 0.08593 0.0
C519 C 0.92624 0.4961 0.03607 0.0
C520 C 0.91408 0.4754 0.00517 0.0
C521 C 0.891 0.45123 0.0142 0.0
C522 C 0.88157 0.44697 0.05443 0.0
C523 C 0.92731 0.47823 0.96527 0.0
C524 C 0.93515 0.50149 0.94285 0.0
C525 C 0.93432 0.45925 0.95125 0.0
C526 C 0.92861 0.43536 0.97504 0.0
C527 C 0.91303 0.40922 0.95699 0.0
C528 C 0.9076 0.38668 0.97943 0.0
C529 C 0.9178 0.39006 0.01985 0.0
C530 C 0.93355 0.41601 0.03785 0.0
C531 C 0.93908 0.43861 0.01551 0.0
H532 H 0.91355 0.37259 0.03718 0.0
H533 H -0.01309 0.60231 0.83782 0.0
H534 H 0.45606 0.0266 0.31562 0.0
H535 H 0.44034 -0.00043 0.37689 0.0
H536 H 0.51016 0.05917 0.44616 0.0
H537 H 0.52656 0.08556 0.38421 0.0
H538 H 0.50327 0.01346 0.46059 0.0
H539 H 0.44574 0.04873 0.46232 0.0
H540 H 0.41346 0.05989 0.43471 0.0
H541 H 0.35726 0.97557 0.41135 0.0
H542 H 0.38934 0.96392 0.43832 0.0
H543 H 0.41489 0.94667 0.64852 0.0
H544 H 0.42564 0.97584 0.58976 0.0
H545 H 0.45375 0.92937 0.524 0.0
H546 H 0.44394 0.90073 0.58333 0.0
H547 H 0.41205 0.97141 0.51201 0.0
H548 H 0.50687 0.96962 0.46972 0.0
H549 H 0.54109 0.96381 0.50419 0.0
H550 H 0.52629 0.99124 0.62052 0.0
H551 H 0.49226 -0.00245 0.58666 0.0
C552 C 0.46789 0.03409 0.34408 0.0
C553 C 0.49255 0.05814 0.34518 0.0
C554 C 0.45881 0.01868 0.3792 0.0
C555 C 0.47391 0.0274 0.41641 0.0
C556 C 0.49818 0.05192 0.41782 0.0
C557 C 0.50751 0.06705 0.38247 0.0
C558 C 0.46529 0.01013 0.45295 0.0
C559 C 0.48333 0.00439 0.47184 0.0
C560 C 0.43941 -0.00144 0.46826 0.0
C561 C 0.42004 0.00547 0.45203 0.0
C562 C 0.42657 0.03258 0.45102 0.0
C563 C 0.4083 0.03899 0.43553 0.0
C564 C 0.38335 0.01846 0.4212 0.0
C565 C 0.3766 0.99146 0.42242 0.0
C566 C 0.39481 0.98493 0.43786 0.0
C567 C 0.42312 0.9425 0.62137 0.0
C568 C 0.42887 0.92161 0.62069 0.0
C569 C 0.42921 0.95917 0.58776 0.0
C570 C 0.44098 0.95514 0.55279 0.0
C571 C 0.44526 0.93327 0.55108 0.0
C572 C 0.43953 0.91683 0.5849 0.0
C573 C 0.44994 0.97457 0.51904 0.0
C574 C 0.43198 0.98061 0.50069 0.0
C575 C 0.47619 0.98725 0.50515 0.0
C576 C 0.49683 0.98378 0.5257 0.0
C577 C 0.51099 0.9745 0.50262 0.0
C578 C 0.53034 0.97111 0.52206 0.0
C579 C 0.5358 0.97707 0.56454 0.0
C580 C 0.52198 0.98653 0.58765 0.0
C581 C 0.50264 0.98999 0.56836 0.0
H582 H 0.55077 0.9744 0.57953 0.0
H583 H 0.36923 0.02346 0.40922 0.0
H584 H 0.44389 0.54805 0.90187 0.0
H585 H 0.44889 0.53436 0.97043 0.0
H586 H 0.39233 0.4513 0.93526 0.0
H587 H 0.38741 0.4648 0.86623 0.0
H588 H 0.41813 0.50658 0.03626 0.0
H589 H 0.41904 0.41447 0.96908 0.0
H590 H 0.42418 0.39586 0.90218 0.0
H591 H 0.47458 0.4762 0.86103 0.0
H592 H 0.46998 0.49522 0.92785 0.0
H593 H 0.46047 0.44768 0.19718 0.0
H594 H 0.43341 0.45071 0.14148 0.0
H595 H 0.5034 0.49703 0.07108 0.0
H596 H 0.53037 0.49446 0.1261 0.0
H597 H 0.46102 0.45158 0.02696 0.0
H598 H 0.47972 0.52935 0.11742 0.0
H599 H 0.47781 0.55075 0.18366 0.0
H600 H 0.39308 0.50333 0.17779 0.0
H601 H 0.39454 0.48138 0.11172 0.0
C602 C 0.43214 0.52693 0.90892 0.0
C603 C 0.41563 0.50743 0.87844 0.0
C604 C 0.43484 0.51917 0.94826 0.0
C605 C 0.42118 0.49181 0.95772 0.0
C606 C 0.40318 0.4725 0.92839 0.0
C607 C 0.40047 0.48025 0.88896 0.0
C608 C 0.42885 0.48348 -0.00434 0.0
C609 C 0.42707 0.49414 0.03441 0.0
C610 C 0.4406 0.46735 -0.00682 0.0
C611 C 0.44388 0.4562 0.95317 0.0
C612 C 0.43126 0.42812 0.94575 0.0
C613 C 0.43408 0.41751 0.90787 0.0
C614 C 0.44962 0.43484 0.87731 0.0
C615 C 0.46248 0.4628 0.88465 0.0
C616 C 0.45976 0.4735 0.9225 0.0
C617 C 0.47003 0.45865 0.1699 0.0
C618 C 0.49751 0.47076 0.16591 0.0
C619 C 0.45459 0.46034 0.13825 0.0
C620 C 0.46649 0.47392 0.10222 0.0
C621 C 0.49389 0.4863 0.09858 0.0
C622 C 0.50927 0.4849 0.13017 0.0
C623 C 0.45082 0.47515 0.06739 0.0
C624 C 0.45117 0.46315 0.02914 0.0
C625 C 0.43808 0.49028 0.07037 0.0
C626 C 0.43725 0.50347 0.10999 0.0
C627 C 0.4607 0.52329 0.13048 0.0
C628 C 0.4597 0.53557 0.16793 0.0
C629 C 0.43534 0.52833 0.18501 0.0
C630 C 0.41193 0.50886 0.16459 0.0
C631 C 0.41283 0.49651 0.12714 0.0
H632 H 0.43461 0.53787 0.214 0.0
H633 H 0.45174 0.42659 0.84799 0.0
H634 H 0.0432 0.46649 0.59156 0.0
H635 H 0.02402 0.45512 0.52096 0.0
H636 H 0.05146 0.53919 0.50332 0.0
H637 H 0.07049 0.5507 0.57356 0.0
H638 H -0.00218 0.50561 0.49035 0.0
H639 H 0.0784 0.50875 0.4511 0.0
H640 H 0.11211 0.49555 0.45501 0.0
H641 H 0.05312 0.41317 0.42344 0.0
H642 H 0.01897 0.42581 0.4199 0.0
H643 H 0.95799 0.50747 0.29237 0.0
H644 H -0.01013 0.5153 0.34774 0.0
H645 H 0.96018 0.42966 0.34944 0.0
H646 H 0.92882 0.42182 0.29251 0.0
H647 H 0.01386 0.46015 0.37054 0.0
H648 H 0.93354 0.45485 0.41115 0.0
H649 H 0.89815 0.46572 0.40799 0.0
H650 H 0.95429 0.54884 0.44071 0.0
H651 H -0.00988 0.53855 0.44328 0.0
C652 C 0.04553 0.48259 0.57234 0.0
C653 C 0.05804 0.50944 0.58822 0.0
C654 C 0.03469 0.47607 0.53201 0.0
C655 C 0.03635 0.49634 0.50709 0.0
C656 C 0.04997 0.52329 0.5222 0.0
C657 C 0.06079 0.52981 0.56235 0.0
C658 C 0.02134 0.48938 0.46729 0.0
C659 C 0.00162 0.49603 0.46398 0.0
C660 C 0.02553 0.47576 0.43367 0.0
C661 C 0.04607 0.46818 0.43567 0.0
C662 C 0.07256 0.48777 0.44536 0.0
C663 C 0.09177 0.4804 0.44742 0.0
C664 C 0.08475 0.45353 0.43959 0.0
C665 C 0.05853 0.43398 0.42955 0.0
C666 C 0.03924 0.44124 0.42748 0.0
C667 C 0.95876 0.4904 0.30381 0.0
C668 C 0.94077 0.46404 0.28885 0.0
C669 C 0.97696 0.49488 0.33534 0.0
C670 C 0.97686 0.47298 0.3533 0.0
C671 C 0.96044 0.44679 0.33605 0.0
C672 C 0.94252 0.44234 0.30372 0.0
C673 C -0.00893 0.4773 0.39334 0.0
C674 C 0.01024 0.46983 0.39693 0.0
C675 C -0.01385 0.48979 0.42776 0.0
C676 C 0.96455 0.49596 0.42707 0.0
C677 C 0.93837 0.47548 0.41743 0.0
C678 C 0.91823 0.48153 0.41575 0.0
C679 C 0.92398 0.50796 0.42408 0.0
C680 C 0.94987 0.52838 0.43423 0.0
C681 C 0.9701 0.52245 0.43582 0.0
H682 H 0.90836 0.51262 0.42275 0.0
H683 H 0.09965 0.44786 0.4412 0.0
loop_
_geom_bond_atom_site_label_1
_geom_bond_atom_site_label_2
_geom_bond_distance
_geom_bond_site_symmetry_2
_ccdc_geom_bond_type
C0 O1 1.306 . S
C0 O3 1.160 . S
O1 C0 1.306 . S
O1 Cd2 2.228 . S
Cd2 O1 2.228 . S
Cd2 O6 2.273 . S
Cd2 O10 2.277 . S
O3 C0 1.160 . S
O3 Cd4 2.203 . S
Cd4 O3 2.203 . S
Cd4 O6 2.411 . S
Cd4 O7 2.333 . S
Cd4 O8 2.352 . S
Cd4 O12 2.277 . S
Cd4 O13 2.356 . S
C5 O10 1.209 . S
C5 O12 1.226 . S
O6 Cd2 2.273 . S
O6 Cd4 2.411 . S
O6 C9 1.320 . S
O7 Cd4 2.333 . S
O7 C9 1.214 . S
O8 Cd4 2.352 . S
O8 C11 1.258 . S
C9 O6 1.320 . S
C9 O7 1.214 . S
O10 Cd2 2.277 . S
O10 C5 1.209 . S
C11 O8 1.258 . S
C11 O13 1.282 . S
O12 Cd4 2.277 . S
O12 C5 1.226 . S
O13 Cd4 2.356 . S
O13 C11 1.282 . S
C14 O15 1.306 . S
C14 O17 1.160 . S
O15 C14 1.306 . S
O15 Cd16 2.228 . S
Cd16 O15 2.228 . S
Cd16 O20 2.273 . S
Cd16 O24 2.277 . S
O17 C14 1.160 . S
O17 Cd18 2.203 . S
Cd18 O17 2.203 . S
Cd18 O20 2.411 . S
Cd18 O21 2.333 . S
Cd18 O22 2.352 . S
Cd18 O26 2.277 . S
Cd18 O27 2.356 . S
C19 O24 1.209 . S
C19 O26 1.226 . S
O20 Cd16 2.273 . S
O20 Cd18 2.411 . S
O20 C23 1.320 . S
O21 Cd18 2.333 . S
O21 C23 1.214 . S
O22 Cd18 2.352 . S
O22 C25 1.258 . S
C23 O20 1.320 . S
C23 O21 1.214 . S
O24 Cd16 2.277 . S
O24 C19 1.209 . S
C25 O22 1.258 . S
C25 O27 1.282 . S
O26 Cd18 2.277 . S
O26 C19 1.226 . S
O27 Cd18 2.356 . S
O27 C25 1.282 . S
C28 O29 1.306 . S
C28 O31 1.160 . S
O29 C28 1.306 . S
O29 Cd30 2.228 . S
Cd30 O29 2.228 . S
Cd30 O34 2.273 . S
Cd30 O38 2.277 . S
O31 C28 1.160 . S
O31 Cd32 2.203 . S
Cd32 O31 2.203 . S
Cd32 O34 2.411 . S
Cd32 O35 2.333 . S
Cd32 O36 2.352 . S
Cd32 O40 2.277 . S
Cd32 O41 2.356 . S
C33 O38 1.209 . S
C33 O40 1.226 . S
O34 Cd30 2.273 . S
O34 Cd32 2.411 . S
O34 C37 1.320 . S
O35 Cd32 2.333 . S
O35 C37 1.214 . S
O36 Cd32 2.352 . S
O36 C39 1.258 . S
C37 O34 1.320 . S
C37 O35 1.214 . S
O38 Cd30 2.277 . S
O38 C33 1.209 . S
C39 O36 1.258 . S
C39 O41 1.282 . S
O40 Cd32 2.277 . S
O40 C33 1.226 . S
O41 Cd32 2.356 . S
O41 C39 1.282 . S
C42 O43 1.306 . S
C42 O45 1.160 . S
O43 C42 1.306 . S
O43 Cd44 2.228 . S
Cd44 O43 2.228 . S
Cd44 O48 2.273 . S
Cd44 O52 2.277 . S
O45 C42 1.160 . S
O45 Cd46 2.203 . S
Cd46 O45 2.203 . S
Cd46 O48 2.411 . S
Cd46 O49 2.333 . S
Cd46 O50 2.352 . S
Cd46 O54 2.277 . S
Cd46 O55 2.356 . S
C47 O52 1.209 . S
C47 O54 1.226 . S
O48 Cd44 2.273 . S
O48 Cd46 2.411 . S
O48 C51 1.320 . S
O49 Cd46 2.333 . S
O49 C51 1.214 . S
O50 Cd46 2.352 . S
O50 C53 1.258 . S
C51 O48 1.320 . S
C51 O49 1.214 . S
O52 Cd44 2.277 . S
O52 C47 1.209 . S
C53 O50 1.258 . S
C53 O55 1.282 . S
O54 Cd46 2.277 . S
O54 C47 1.226 . S
O55 Cd46 2.356 . S
O55 C53 1.282 . S
C56 O57 1.306 . S
C56 O59 1.160 . S
O57 C56 1.306 . S
O57 Cd58 2.228 . S
Cd58 O57 2.228 . S
Cd58 O62 2.273 . S
Cd58 O66 2.277 . S
O59 C56 1.160 . S
O59 Cd60 2.203 . S
Cd60 O59 2.203 . S
Cd60 O62 2.411 . S
Cd60 O63 2.333 . S
Cd60 O64 2.352 . S
Cd60 O68 2.277 . S
Cd60 O69 2.356 . S
C61 O66 1.209 . S
C61 O68 1.226 . S
O62 Cd58 2.273 . S
O62 Cd60 2.411 . S
O62 C65 1.320 . S
O63 Cd60 2.333 . S
O63 C65 1.214 . S
O64 Cd60 2.352 . S
O64 C67 1.258 . S
C65 O62 1.320 . S
C65 O63 1.214 . S
O66 Cd58 2.277 . S
O66 C61 1.209 . S
C67 O64 1.258 . S
C67 O69 1.282 . S
O68 Cd60 2.277 . S
O68 C61 1.226 . S
O69 Cd60 2.356 . S
O69 C67 1.282 . S
C70 O71 1.306 . S
C70 O73 1.160 . S
O71 C70 1.306 . S
O71 Cd72 2.228 . S
Cd72 O71 2.228 . S
Cd72 O76 2.273 . S
Cd72 O80 2.277 . S
O73 C70 1.160 . S
O73 Cd74 2.203 . S
Cd74 O73 2.203 . S
Cd74 O76 2.411 . S
Cd74 O77 2.333 . S
Cd74 O78 2.352 . S
Cd74 O82 2.277 . S
Cd74 O83 2.356 . S
C75 O80 1.209 . S
C75 O82 1.226 . S
O76 Cd72 2.273 . S
O76 Cd74 2.411 . S
O76 C79 1.320 . S
O77 Cd74 2.333 . S
O77 C79 1.214 . S
O78 Cd74 2.352 . S
O78 C81 1.258 . S
C79 O76 1.320 . S
C79 O77 1.214 . S
O80 Cd72 2.277 . S
O80 C75 1.209 . S
C81 O78 1.258 . S
C81 O83 1.282 . S
O82 Cd74 2.277 . S
O82 C75 1.226 . S
O83 Cd74 2.356 . S
O83 C81 1.282 . S
H84 C102 0.951 . S
H85 C104 0.951 . S
H86 C106 0.950 . S
H87 C107 0.950 . S
H88 C109 0.950 . S
H89 C112 0.950 . S
H90 C113 0.950 . S
H91 C115 0.950 . S
H92 C116 0.950 . S
H93 C117 0.951 . S
H94 C119 0.951 . S
H95 C121 0.950 . S
H96 C122 0.950 . S
H97 C124 0.950 . S
H98 C127 0.950 . S
H99 C128 0.950 . S
H100 C130 0.950 . S
H101 C131 0.950 . S
C102 H84 0.951 . S
C102 C103 1.366 . S
C102 C104 1.388 . S
C103 C102 1.366 . S
C103 C107 1.385 . S
C104 H85 0.951 . S
C104 C102 1.388 . S
C104 C105 1.366 . S
C105 C104 1.366 . S
C105 C106 1.414 . S
C105 C108 1.499 . S
C106 H86 0.950 . S
C106 C105 1.414 . S
C106 C107 1.374 . S
C107 H87 0.950 . S
C107 C103 1.385 . S
C107 C106 1.374 . S
C108 C105 1.499 . S
C108 C109 1.373 . S
C108 C110 1.389 . S
C109 H88 0.950 . S
C109 C108 1.373 . S
C109 C125 1.377 . S
C110 C108 1.389 . S
C110 C111 1.524 . S
C110 C124 1.377 . S
C111 C110 1.524 . S
C111 C112 1.397 . S
C111 C116 1.363 . S
C112 H89 0.950 . S
C112 C111 1.397 . S
C112 C113 1.334 . S
C113 H90 0.950 . S
C113 C112 1.334 . S
C113 C114 1.287 . S
C114 C113 1.287 . S
C114 C115 1.524 . S
C114 H133 0.913 . S
C115 H91 0.950 . S
C115 C114 1.524 . S
C115 C116 1.415 . S
C116 H92 0.950 . S
C116 C111 1.363 . S
C116 C115 1.415 . S
C117 H93 0.951 . S
C117 C118 1.366 . S
C117 C119 1.388 . S
C118 C117 1.366 . S
C118 C122 1.385 . S
C119 H94 0.951 . S
C119 C117 1.388 . S
C119 C120 1.366 . S
C120 C119 1.366 . S
C120 C121 1.414 . S
C120 C123 1.499 . S
C121 H95 0.950 . S
C121 C120 1.414 . S
C121 C122 1.374 . S
C122 H96 0.950 . S
C122 C118 1.385 . S
C122 C121 1.374 . S
C123 C120 1.499 . S
C123 C124 1.373 . S
C123 C125 1.389 . S
C124 H97 0.950 . S
C124 C110 1.377 . S
C124 C123 1.373 . S
C125 C109 1.377 . S
C125 C123 1.389 . S
C125 C126 1.524 . S
C126 C125 1.524 . S
C126 C127 1.397 . S
C126 C131 1.363 . S
C127 H98 0.950 . S
C127 C126 1.397 . S
C127 C128 1.334 . S
C128 H99 0.950 . S
C128 C127 1.334 . S
C128 C129 1.287 . S
C129 C128 1.287 . S
C129 C130 1.524 . S
C129 H132 0.999 . S
C130 H100 0.950 . S
C130 C129 1.524 . S
C130 C131 1.415 . S
C131 H101 0.950 . S
C131 C126 1.363 . S
C131 C130 1.415 . S
H132 C129 0.999 . S
H133 C114 0.913 . S
H134 C152 0.951 . S
H135 C154 0.951 . S
H136 C156 0.950 . S
H137 C157 0.950 . S
H138 C159 0.950 . S
H139 C162 0.950 . S
H140 C163 0.950 . S
H141 C165 0.950 . S
H142 C166 0.950 . S
H143 C167 0.951 . S
H144 C169 0.951 . S
H145 C171 0.950 . S
H146 C172 0.950 . S
H147 C174 0.950 . S
H148 C177 0.950 . S
H149 C178 0.950 . S
H150 C180 0.950 . S
H151 C181 0.950 . S
C152 H134 0.951 . S
C152 C153 1.366 . S
C152 C154 1.388 . S
C153 C152 1.366 . S
C153 C157 1.385 . S
C154 H135 0.951 . S
C154 C152 1.388 . S
C154 C155 1.366 . S
C155 C154 1.366 . S
C155 C156 1.414 . S
C155 C158 1.499 . S
C156 H136 0.950 . S
C156 C155 1.414 . S
C156 C157 1.374 . S
C157 H137 0.950 . S
C157 C153 1.385 . S
C157 C156 1.374 . S
C158 C155 1.499 . S
C158 C159 1.373 . S
C158 C160 1.389 . S
C159 H138 0.950 . S
C159 C158 1.373 . S
C159 C175 1.377 . S
C160 C158 1.389 . S
C160 C161 1.524 . S
C160 C174 1.377 . S
C161 C160 1.524 . S
C161 C162 1.397 . S
C161 C166 1.363 . S
C162 H139 0.950 . S
C162 C161 1.397 . S
C162 C163 1.334 . S
C163 H140 0.950 . S
C163 C162 1.334 . S
C163 C164 1.287 . S
C164 C163 1.287 . S
C164 C165 1.524 . S
C164 H183 0.913 . S
C165 H141 0.950 . S
C165 C164 1.524 . S
C165 C166 1.415 . S
C166 H142 0.950 . S
C166 C161 1.363 . S
C166 C165 1.415 . S
C167 H143 0.951 . S
C167 C168 1.366 . S
C167 C169 1.388 . S
C168 C167 1.366 . S
C168 C172 1.385 . S
C169 H144 0.951 . S
C169 C167 1.388 . S
C169 C170 1.366 . S
C170 C169 1.366 . S
C170 C171 1.414 . S
C170 C173 1.499 . S
C171 H145 0.950 . S
C171 C170 1.414 . S
C171 C172 1.374 . S
C172 H146 0.950 . S
C172 C168 1.385 . S
C172 C171 1.374 . S
C173 C170 1.499 . S
C173 C174 1.373 . S
C173 C175 1.389 . S
C174 H147 0.950 . S
C174 C160 1.377 . S
C174 C173 1.373 . S
C175 C159 1.377 . S
C175 C173 1.389 . S
C175 C176 1.524 . S
C176 C175 1.524 . S
C176 C177 1.397 . S
C176 C181 1.363 . S
C177 H148 0.950 . S
C177 C176 1.397 . S
C177 C178 1.334 . S
C178 H149 0.950 . S
C178 C177 1.334 . S
C178 C179 1.287 . S
C179 C178 1.287 . S
C179 C180 1.524 . S
C179 H182 0.999 . S
C180 H150 0.950 . S
C180 C179 1.524 . S
C180 C181 1.415 . S
C181 H151 0.950 . S
C181 C176 1.363 . S
C181 C180 1.415 . S
H182 C179 0.999 . S
H183 C164 0.913 . S
H184 C202 0.951 . S
H185 C204 0.951 . S
H186 C206 0.950 . S
H187 C207 0.950 . S
H188 C209 0.950 . S
H189 C212 0.950 . S
H190 C213 0.950 . S
H191 C215 0.950 . S
H192 C216 0.950 . S
H193 C217 0.951 . S
H194 C219 0.951 . S
H195 C221 0.950 . S
H196 C222 0.950 . S
H197 C224 0.950 . S
H198 C227 0.950 . S
H199 C228 0.950 . S
H200 C230 0.950 . S
H201 C231 0.950 . S
C202 H184 0.951 . S
C202 C203 1.366 . S
C202 C204 1.388 . S
C203 C202 1.366 . S
C203 C207 1.385 . S
C204 H185 0.951 . S
C204 C202 1.388 . S
C204 C205 1.366 . S
C205 C204 1.366 . S
C205 C206 1.414 . S
C205 C208 1.499 . S
C206 H186 0.950 . S
C206 C205 1.414 . S
C206 C207 1.374 . S
C207 H187 0.950 . S
C207 C203 1.385 . S
C207 C206 1.374 . S
C208 C205 1.499 . S
C208 C209 1.373 . S
C208 C210 1.389 . S
C209 H188 0.950 . S
C209 C208 1.373 . S
C209 C225 1.377 . S
C210 C208 1.389 . S
C210 C211 1.524 . S
C210 C224 1.377 . S
C211 C210 1.524 . S
C211 C212 1.397 . S
C211 C216 1.363 . S
C212 H189 0.950 . S
C212 C211 1.397 . S
C212 C213 1.334 . S
C213 H190 0.950 . S
C213 C212 1.334 . S
C213 C214 1.287 . S
C214 C213 1.287 . S
C214 C215 1.524 . S
C214 H233 0.913 . S
C215 H191 0.950 . S
C215 C214 1.524 . S
C215 C216 1.415 . S
C216 H192 0.950 . S
C216 C211 1.363 . S
C216 C215 1.415 . S
C217 H193 0.951 . S
C217 C218 1.366 . S
C217 C219 1.388 . S
C218 C217 1.366 . S
C218 C222 1.385 . S
C219 H194 0.951 . S
C219 C217 1.388 . S
C219 C220 1.366 . S
C220 C219 1.366 . S
C220 C221 1.414 . S
C220 C223 1.499 . S
C221 H195 0.950 . S
C221 C220 1.414 . S
C221 C222 1.374 . S
C222 H196 0.950 . S
C222 C218 1.385 . S
C222 C221 1.374 . S
C223 C220 1.499 . S
C223 C224 1.373 . S
C223 C225 1.389 . S
C224 H197 0.950 . S
C224 C210 1.377 . S
C224 C223 1.373 . S
C225 C209 1.377 . S
C225 C223 1.389 . S
C225 C226 1.524 . S
C226 C225 1.524 . S
C226 C227 1.397 . S
C226 C231 1.363 . S
C227 H198 0.950 . S
C227 C226 1.397 . S
C227 C228 1.334 . S
C228 H199 0.950 . S
C228 C227 1.334 . S
C228 C229 1.287 . S
C229 C228 1.287 . S
C229 C230 1.524 . S
C229 H232 0.999 . S
C230 H200 0.950 . S
C230 C229 1.524 . S
C230 C231 1.415 . S
C231 H201 0.950 . S
C231 C226 1.363 . S
C231 C230 1.415 . S
H232 C229 0.999 . S
H233 C214 0.913 . S
H234 C252 0.951 . S
H235 C254 0.951 . S
H236 C256 0.950 . S
H237 C257 0.950 . S
H238 C259 0.950 . S
H239 C262 0.950 . S
H240 C263 0.950 . S
H241 C265 0.950 . S
H242 C266 0.950 . S
H243 C267 0.951 . S
H244 C269 0.951 . S
H245 C271 0.950 . S
H246 C272 0.950 . S
H247 C274 0.950 . S
H248 C277 0.950 . S
H249 C278 0.950 . S
H250 C280 0.950 . S
H251 C281 0.950 . S
C252 H234 0.951 . S
C252 C253 1.366 . S
C252 C254 1.388 . S
C253 C252 1.366 . S
C253 C257 1.385 . S
C254 H235 0.951 . S
C254 C252 1.388 . S
C254 C255 1.366 . S
C255 C254 1.366 . S
C255 C256 1.414 . S
C255 C258 1.499 . S
C256 H236 0.950 . S
C256 C255 1.414 . S
C256 C257 1.374 . S
C257 H237 0.950 . S
C257 C253 1.385 . S
C257 C256 1.374 . S
C258 C255 1.499 . S
C258 C259 1.373 . S
C258 C260 1.389 . S
C259 H238 0.950 . S
C259 C258 1.373 . S
C259 C275 1.377 . S
C260 C258 1.389 . S
C260 C261 1.524 . S
C260 C274 1.377 . S
C261 C260 1.524 . S
C261 C262 1.397 . S
C261 C266 1.363 . S
C262 H239 0.950 . S
C262 C261 1.397 . S
C262 C263 1.334 . S
C263 H240 0.950 . S
C263 C262 1.334 . S
C263 C264 1.287 . S
C264 C263 1.287 . S
C264 C265 1.524 . S
C264 H283 0.913 . S
C265 H241 0.950 . S
C265 C264 1.524 . S
C265 C266 1.415 . S
C266 H242 0.950 . S
C266 C261 1.363 . S
C266 C265 1.415 . S
C267 H243 0.951 . S
C267 C268 1.366 . S
C267 C269 1.388 . S
C268 C267 1.366 . S
C268 C272 1.385 . S
C269 H244 0.951 . S
C269 C267 1.388 . S
C269 C270 1.366 . S
C270 C269 1.366 . S
C270 C271 1.414 . S
C270 C273 1.499 . S
C271 H245 0.950 . S
C271 C270 1.414 . S
C271 C272 1.374 . S
C272 H246 0.950 . S
C272 C268 1.385 . S
C272 C271 1.374 . S
C273 C270 1.499 . S
C273 C274 1.373 . S
C273 C275 1.389 . S
C274 H247 0.950 . S
C274 C260 1.377 . S
C274 C273 1.373 . S
C275 C259 1.377 . S
C275 C273 1.389 . S
C275 C276 1.524 . S
C276 C275 1.524 . S
C276 C277 1.397 . S
C276 C281 1.363 . S
C277 H248 0.950 . S
C277 C276 1.397 . S
C277 C278 1.334 . S
C278 H249 0.950 . S
C278 C277 1.334 . S
C278 C279 1.287 . S
C279 C278 1.287 . S
C279 C280 1.524 . S
C279 H282 0.999 . S
C280 H250 0.950 . S
C280 C279 1.524 . S
C280 C281 1.415 . S
C281 H251 0.950 . S
C281 C276 1.363 . S
C281 C280 1.415 . S
H282 C279 0.999 . S
H283 C264 0.913 . S
H284 C302 0.951 . S
H285 C304 0.951 . S
H286 C306 0.950 . S
H287 C307 0.950 . S
H288 C309 0.950 . S
H289 C312 0.950 . S
H290 C313 0.950 . S
H291 C315 0.950 . S
H292 C316 0.950 . S
H293 C317 0.951 . S
H294 C319 0.951 . S
H295 C321 0.950 . S
H296 C322 0.950 . S
H297 C324 0.950 . S
H298 C327 0.950 . S
H299 C328 0.950 . S
H300 C330 0.950 . S
H301 C331 0.950 . S
C302 H284 0.951 . S
C302 C303 1.366 . S
C302 C304 1.388 . S
C303 C302 1.366 . S
C303 C307 1.385 . S
C304 H285 0.951 . S
C304 C302 1.388 . S
C304 C305 1.366 . S
C305 C304 1.366 . S
C305 C306 1.414 . S
C305 C308 1.499 . S
C306 H286 0.950 . S
C306 C305 1.414 . S
C306 C307 1.374 . S
C307 H287 0.950 . S
C307 C303 1.385 . S
C307 C306 1.374 . S
C308 C305 1.499 . S
C308 C309 1.373 . S
C308 C310 1.389 . S
C309 H288 0.950 . S
C309 C308 1.373 . S
C309 C325 1.377 . S
C310 C308 1.389 . S
C310 C311 1.524 . S
C310 C324 1.377 . S
C311 C310 1.524 . S
C311 C312 1.397 . S
C311 C316 1.363 . S
C312 H289 0.950 . S
C312 C311 1.397 . S
C312 C313 1.334 . S
C313 H290 0.950 . S
C313 C312 1.334 . S
C313 C314 1.287 . S
C314 C313 1.287 . S
C314 C315 1.524 . S
C314 H333 0.913 . S
C315 H291 0.950 . S
C315 C314 1.524 . S
C315 C316 1.415 . S
C316 H292 0.950 . S
C316 C311 1.363 . S
C316 C315 1.415 . S
C317 H293 0.951 . S
C317 C318 1.366 . S
C317 C319 1.388 . S
C318 C317 1.366 . S
C318 C322 1.385 . S
C319 H294 0.951 . S
C319 C317 1.388 . S
C319 C320 1.366 . S
C320 C319 1.366 . S
C320 C321 1.414 . S
C320 C323 1.499 . S
C321 H295 0.950 . S
C321 C320 1.414 . S
C321 C322 1.374 . S
C322 H296 0.950 . S
C322 C318 1.385 . S
C322 C321 1.374 . S
C323 C320 1.499 . S
C323 C324 1.373 . S
C323 C325 1.389 . S
C324 H297 0.950 . S
C324 C310 1.377 . S
C324 C323 1.373 . S
C325 C309 1.377 . S
C325 C323 1.389 . S
C325 C326 1.524 . S
C326 C325 1.524 . S
C326 C327 1.397 . S
C326 C331 1.363 . S
C327 H298 0.950 . S
C327 C326 1.397 . S
C327 C328 1.334 . S
C328 H299 0.950 . S
C328 C327 1.334 . S
C328 C329 1.287 . S
C329 C328 1.287 . S
C329 C330 1.524 . S
C329 H332 0.999 . S
C330 H300 0.950 . S
C330 C329 1.524 . S
C330 C331 1.415 . S
C331 H301 0.950 . S
C331 C326 1.363 . S
C331 C330 1.415 . S
H332 C329 0.999 . S
H333 C314 0.913 . S
H334 C352 0.951 . S
H335 C354 0.951 . S
H336 C356 0.950 . S
H337 C357 0.950 . S
H338 C359 0.950 . S
H339 C362 0.950 . S
H340 C363 0.950 . S
H341 C365 0.950 . S
H342 C366 0.950 . S
H343 C367 0.951 . S
H344 C369 0.951 . S
H345 C371 0.950 . S
H346 C372 0.950 . S
H347 C374 0.950 . S
H348 C377 0.950 . S
H349 C378 0.950 . S
H350 C380 0.950 . S
H351 C381 0.950 . S
C352 H334 0.951 . S
C352 C353 1.366 . S
C352 C354 1.388 . S
C353 C352 1.366 . S
C353 C357 1.385 . S
C354 H335 0.951 . S
C354 C352 1.388 . S
C354 C355 1.366 . S
C355 C354 1.366 . S
C355 C356 1.414 . S
C355 C358 1.499 . S
C356 H336 0.950 . S
C356 C355 1.414 . S
C356 C357 1.374 . S
C357 H337 0.950 . S
C357 C353 1.385 . S
C357 C356 1.374 . S
C358 C355 1.499 . S
C358 C359 1.373 . S
C358 C360 1.389 . S
C359 H338 0.950 . S
C359 C358 1.373 . S
C359 C375 1.377 . S
C360 C358 1.389 . S
C360 C361 1.524 . S
C360 C374 1.377 . S
C361 C360 1.524 . S
C361 C362 1.397 . S
C361 C366 1.363 . S
C362 H339 0.950 . S
C362 C361 1.397 . S
C362 C363 1.334 . S
C363 H340 0.950 . S
C363 C362 1.334 . S
C363 C364 1.287 . S
C364 C363 1.287 . S
C364 C365 1.524 . S
C364 H383 0.913 . S
C365 H341 0.950 . S
C365 C364 1.524 . S
C365 C366 1.415 . S
C366 H342 0.950 . S
C366 C361 1.363 . S
C366 C365 1.415 . S
C367 H343 0.951 . S
C367 C368 1.366 . S
C367 C369 1.388 . S
C368 C367 1.366 . S
C368 C372 1.385 . S
C369 H344 0.951 . S
C369 C367 1.388 . S
C369 C370 1.366 . S
C370 C369 1.366 . S
C370 C371 1.414 . S
C370 C373 1.499 . S
C371 H345 0.950 . S
C371 C370 1.414 . S
C371 C372 1.374 . S
C372 H346 0.950 . S
C372 C368 1.385 . S
C372 C371 1.374 . S
C373 C370 1.499 . S
C373 C374 1.373 . S
C373 C375 1.389 . S
C374 H347 0.950 . S
C374 C360 1.377 . S
C374 C373 1.373 . S
C375 C359 1.377 . S
C375 C373 1.389 . S
C375 C376 1.524 . S
C376 C375 1.524 . S
C376 C377 1.397 . S
C376 C381 1.363 . S
C377 H348 0.950 . S
C377 C376 1.397 . S
C377 C378 1.334 . S
C378 H349 0.950 . S
C378 C377 1.334 . S
C378 C379 1.287 . S
C379 C378 1.287 . S
C379 C380 1.524 . S
C379 H382 0.999 . S
C380 H350 0.950 . S
C380 C379 1.524 . S
C380 C381 1.415 . S
C381 H351 0.950 . S
C381 C376 1.363 . S
C381 C380 1.415 . S
H382 C379 0.999 . S
H383 C364 0.913 . S
H384 C402 0.951 . S
H385 C404 0.951 . S
H386 C406 0.950 . S
H387 C407 0.950 . S
H388 C409 0.950 . S
H389 C412 0.950 . S
H390 C413 0.950 . S
H391 C415 0.950 . S
H392 C416 0.985 . S
H393 C417 0.951 . S
H394 C419 0.951 . S
H395 C421 0.950 . S
H396 C422 0.950 . S
H397 C424 0.950 . S
H398 C427 0.950 . S
H399 C428 0.950 . S
H400 C430 0.950 . S
H401 C431 0.986 . S
C402 H384 0.951 . S
C402 C403 1.366 . S
C402 C404 1.388 . S
C403 C402 1.366 . S
C403 C407 1.385 . S
C404 H385 0.951 . S
C404 C402 1.388 . S
C404 C405 1.366 . S
C405 C404 1.366 . S
C405 C406 1.414 . S
C405 C408 1.499 . S
C406 H386 0.950 . S
C406 C405 1.414 . S
C406 C407 1.374 . S
C407 H387 0.950 . S
C407 C403 1.385 . S
C407 C406 1.374 . S
C408 C405 1.499 . S
C408 C409 1.373 . S
C408 C410 1.389 . S
C409 H388 0.950 . S
C409 C408 1.373 . S
C409 C425 1.377 1_566 S
C410 C408 1.389 . S
C410 C411 1.524 . S
C410 C424 1.377 1_566 S
C411 C410 1.524 . S
C411 C412 1.397 . S
C411 C416 1.363 . S
C412 H389 0.950 . S
C412 C411 1.397 . S
C412 C413 1.334 . S
C413 H390 0.950 . S
C413 C412 1.334 . S
C413 C414 1.287 . S
C414 C413 1.287 . S
C414 C415 1.524 . S
C414 H433 0.913 . S
C415 H391 0.950 . S
C415 C414 1.524 . S
C415 C416 1.415 . S
C416 H392 0.985 . S
C416 C411 1.363 . S
C416 C415 1.415 . S
C417 H393 0.951 . S
C417 C418 1.366 . S
C417 C419 1.388 . S
C418 C417 1.366 . S
C418 C422 1.385 . S
C419 H394 0.951 . S
C419 C417 1.388 . S
C419 C420 1.366 . S
C420 C419 1.366 . S
C420 C421 1.414 . S
C420 C423 1.499 . S
C421 H395 0.950 . S
C421 C420 1.414 . S
C421 C422 1.374 . S
C422 H396 0.950 . S
C422 C418 1.385 . S
C422 C421 1.374 . S
C423 C420 1.499 . S
C423 C424 1.373 . S
C423 C425 1.389 . S
C424 H397 0.950 . S
C424 C410 1.377 1_544 S
C424 C423 1.373 . S
C425 C409 1.377 1_544 S
C425 C423 1.389 . S
C425 C426 1.524 . S
C426 C425 1.524 . S
C426 C427 1.397 . S
C426 C431 1.363 . S
C427 H398 0.950 . S
C427 C426 1.397 . S
C427 C428 1.334 . S
C428 H399 0.950 . S
C428 C427 1.334 . S
C428 C429 1.287 . S
C429 C428 1.287 . S
C429 C430 1.524 . S
C429 H432 0.999 . S
C430 H400 0.950 . S
C430 C429 1.524 . S
C430 C431 1.415 . S
C431 H401 0.986 . S
C431 C426 1.363 . S
C431 C430 1.415 . S
H432 C429 0.999 . S
H433 C414 0.913 . S
H434 C452 0.951 . S
H435 C454 0.951 . S
H436 C456 0.950 . S
H437 C457 0.950 . S
H438 C459 0.950 . S
H439 C462 0.950 . S
H440 C463 0.950 . S
H441 C465 0.950 . S
H442 C466 0.950 . S
H443 C467 0.951 . S
H444 C469 0.951 . S
H445 C471 0.950 . S
H446 C472 0.950 . S
H447 C474 0.950 . S
H448 C477 0.950 . S
H449 C478 0.950 . S
H450 C480 0.950 . S
H451 C481 0.950 . S
C452 H434 0.951 . S
C452 C453 1.366 . S
C452 C454 1.388 . S
C453 C452 1.366 . S
C453 C457 1.385 . S
C454 H435 0.951 . S
C454 C452 1.388 . S
C454 C455 1.366 . S
C455 C454 1.366 . S
C455 C456 1.414 . S
C455 C458 1.499 . S
C456 H436 0.950 . S
C456 C455 1.414 . S
C456 C457 1.374 . S
C457 H437 0.950 . S
C457 C453 1.385 . S
C457 C456 1.374 . S
C458 C455 1.499 . S
C458 C459 1.373 . S
C458 C460 1.389 . S
C459 H438 0.950 . S
C459 C458 1.373 . S
C459 C475 1.377 . S
C460 C458 1.389 . S
C460 C461 1.524 . S
C460 C474 1.377 . S
C461 C460 1.524 . S
C461 C462 1.397 . S
C461 C466 1.363 . S
C462 H439 0.950 . S
C462 C461 1.397 . S
C462 C463 1.334 . S
C463 H440 0.950 . S
C463 C462 1.334 . S
C463 C464 1.287 . S
C464 C463 1.287 . S
C464 C465 1.524 . S
C464 H483 0.913 . S
C465 H441 0.950 . S
C465 C464 1.524 . S
C465 C466 1.415 . S
C466 H442 0.950 . S
C466 C461 1.363 . S
C466 C465 1.415 . S
C467 H443 0.951 . S
C467 C468 1.366 . S
C467 C469 1.388 . S
C468 C467 1.366 . S
C468 C472 1.385 . S
C469 H444 0.951 . S
C469 C467 1.388 . S
C469 C470 1.366 . S
C470 C469 1.366 . S
C470 C471 1.414 . S
C470 C473 1.499 . S
C471 H445 0.950 . S
C471 C470 1.414 . S
C471 C472 1.374 . S
C472 H446 0.950 . S
C472 C468 1.385 . S
C472 C471 1.374 . S
C473 C470 1.499 . S
C473 C474 1.373 . S
C473 C475 1.389 . S
C474 H447 0.950 . S
C474 C460 1.377 . S
C474 C473 1.373 . S
C475 C459 1.377 . S
C475 C473 1.389 . S
C475 C476 1.524 . S
C476 C475 1.524 . S
C476 C477 1.397 . S
C476 C481 1.363 . S
C477 H448 0.950 . S
C477 C476 1.397 . S
C477 C478 1.334 . S
C478 H449 0.950 . S
C478 C477 1.334 . S
C478 C479 1.287 . S
C479 C478 1.287 . S
C479 C480 1.524 . S
C479 H482 0.999 . S
C480 H450 0.950 . S
C480 C479 1.524 . S
C480 C481 1.415 . S
C481 H451 0.950 . S
C481 C476 1.363 . S
C481 C480 1.415 . S
H482 C479 0.999 . S
H483 C464 0.913 . S
H484 C502 0.951 . S
H485 C504 0.951 . S
H486 C506 0.950 . S
H487 C507 0.950 . S
H488 C509 0.950 . S
H489 C512 0.950 . S
H490 C513 0.950 . S
H491 C515 0.950 . S
H492 C516 0.950 . S
H493 C517 0.951 . S
H494 C519 0.951 . S
H495 C521 0.950 . S
H496 C522 0.950 . S
H497 C524 0.950 . S
H498 C527 0.950 . S
H499 C528 0.950 . S
H500 C530 0.950 . S
H501 C531 0.950 . S
C502 H484 0.951 . S
C502 C503 1.366 . S
C502 C504 1.388 . S
C503 C502 1.366 . S
C503 C507 1.385 . S
C504 H485 0.951 . S
C504 C502 1.388 . S
C504 C505 1.366 . S
C505 C504 1.366 . S
C505 C506 1.414 . S
C505 C508 1.499 . S
C506 H486 0.950 . S
C506 C505 1.414 . S
C506 C507 1.374 . S
C507 H487 0.950 . S
C507 C503 1.385 . S
C507 C506 1.374 . S
C508 C505 1.499 . S
C508 C509 1.373 . S
C508 C510 1.389 . S
C509 H488 0.950 . S
C509 C508 1.373 . S
C509 C525 1.377 1_556 S
C510 C508 1.389 . S
C510 C511 1.524 1_455 S
C510 C524 1.377 1_455 S
C511 C510 1.524 1_655 S
C511 C512 1.397 1_655 S
C511 C516 1.363 . S
C512 H489 0.950 . S
C512 C511 1.397 1_455 S
C512 C513 1.334 . S
C513 H490 0.950 . S
C513 C512 1.334 . S
C513 C514 1.287 1_455 S
C514 C513 1.287 1_655 S
C514 C515 1.524 . S
C514 H533 0.913 . S
C515 H491 0.950 . S
C515 C514 1.524 . S
C515 C516 1.415 . S
C516 H492 0.950 . S
C516 C511 1.363 . S
C516 C515 1.415 . S
C517 H493 0.951 . S
C517 C518 1.366 . S
C517 C519 1.388 . S
C518 C517 1.366 . S
C518 C522 1.385 . S
C519 H494 0.951 . S
C519 C517 1.388 . S
C519 C520 1.366 . S
C520 C519 1.366 . S
C520 C521 1.414 . S
C520 C523 1.499 . S
C521 H495 0.950 . S
C521 C520 1.414 . S
C521 C522 1.374 . S
C522 H496 0.950 . S
C522 C518 1.385 . S
C522 C521 1.374 . S
C523 C520 1.499 . S
C523 C524 1.373 1_554 S
C523 C525 1.389 1_655 S
C524 H497 0.950 . S
C524 C510 1.377 1_655 S
C524 C523 1.373 1_556 S
C525 C509 1.377 1_554 S
C525 C523 1.389 1_455 S
C525 C526 1.524 . S
C526 C525 1.524 . S
C526 C527 1.397 1_455 S
C526 C531 1.363 . S
C527 H498 0.950 . S
C527 C526 1.397 1_655 S
C527 C528 1.334 . S
C528 H499 0.950 . S
C528 C527 1.334 . S
C528 C529 1.287 1_655 S
C529 C528 1.287 1_455 S
C529 C530 1.524 . S
C529 H532 0.999 . S
C530 H500 0.950 . S
C530 C529 1.524 . S
C530 C531 1.415 . S
C531 H501 0.950 . S
C531 C526 1.363 . S
C531 C530 1.415 . S
H532 C529 0.999 . S
H533 C514 0.913 . S
H534 C552 0.951 . S
H535 C554 0.951 . S
H536 C556 0.950 . S
H537 C557 0.950 . S
H538 C559 0.950 . S
H539 C562 0.950 . S
H540 C563 0.950 . S
H541 C565 0.950 . S
H542 C566 0.950 . S
H543 C567 0.951 . S
H544 C569 0.951 . S
H545 C571 0.950 . S
H546 C572 0.950 . S
H547 C574 0.950 . S
H548 C577 0.950 . S
H549 C578 0.950 . S
H550 C580 0.950 . S
H551 C581 0.950 . S
C552 H534 0.951 . S
C552 C553 1.366 . S
C552 C554 1.388 . S
C553 C552 1.366 . S
C553 C557 1.385 . S
C554 H535 0.951 . S
C554 C552 1.388 . S
C554 C555 1.366 . S
C555 C554 1.366 . S
C555 C556 1.414 . S
C555 C558 1.499 . S
C556 H536 0.950 . S
C556 C555 1.414 . S
C556 C557 1.374 . S
C557 H537 0.950 . S
C557 C553 1.385 . S
C557 C556 1.374 . S
C558 C555 1.499 . S
C558 C559 1.373 . S
C558 C560 1.389 1_545 S
C559 H538 0.950 . S
C559 C558 1.373 . S
C559 C575 1.377 . S
C560 C558 1.389 1_565 S
C560 C561 1.524 . S
C560 C574 1.377 . S
C561 C560 1.524 . S
C561 C562 1.397 1_565 S
C561 C566 1.363 . S
C562 H539 0.950 . S
C562 C561 1.397 1_545 S
C562 C563 1.334 . S
C563 H540 0.950 . S
C563 C562 1.334 . S
C563 C564 1.287 1_545 S
C564 C563 1.287 1_565 S
C564 C565 1.524 . S
C564 H583 0.913 . S
C565 H541 0.950 . S
C565 C564 1.524 . S
C565 C566 1.415 . S
C566 H542 0.950 . S
C566 C561 1.363 . S
C566 C565 1.415 . S
C567 H543 0.951 . S
C567 C568 1.366 . S
C567 C569 1.388 . S
C568 C567 1.366 . S
C568 C572 1.385 . S
C569 H544 0.951 . S
C569 C567 1.388 . S
C569 C570 1.366 . S
C570 C569 1.366 . S
C570 C571 1.414 . S
C570 C573 1.499 . S
C571 H545 0.950 . S
C571 C570 1.414 . S
C571 C572 1.374 . S
C572 H546 0.950 . S
C572 C568 1.385 . S
C572 C571 1.374 . S
C573 C570 1.499 . S
C573 C574 1.373 . S
C573 C575 1.389 1_565 S
C574 H547 0.950 . S
C574 C560 1.377 . S
C574 C573 1.373 . S
C575 C559 1.377 . S
C575 C573 1.389 1_545 S
C575 C576 1.524 . S
C576 C575 1.524 . S
C576 C577 1.397 1_545 S
C576 C581 1.363 . S
C577 H548 0.950 . S
C577 C576 1.397 1_565 S
C577 C578 1.334 . S
C578 H549 0.950 . S
C578 C577 1.334 . S
C578 C579 1.287 1_565 S
C579 C578 1.287 1_545 S
C579 C580 1.524 . S
C579 H582 0.999 . S
C580 H550 0.950 . S
C580 C579 1.524 . S
C580 C581 1.415 . S
C581 H551 0.950 . S
C581 C576 1.363 . S
C581 C580 1.415 . S
H582 C579 0.999 . S
H583 C564 0.913 . S
H584 C602 0.951 . S
H585 C604 0.951 . S
H586 C606 0.950 . S
H587 C607 0.950 . S
H588 C609 0.950 . S
H589 C612 0.950 . S
H590 C613 0.950 . S
H591 C615 0.950 . S
H592 C616 0.950 . S
H593 C617 0.951 . S
H594 C619 0.951 . S
H595 C621 0.950 . S
H596 C622 0.950 . S
H597 C624 0.950 . S
H598 C627 0.950 . S
H599 C628 0.950 . S
H600 C630 0.950 . S
H601 C631 0.950 . S
C602 H584 0.951 . S
C602 C603 1.366 . S
C602 C604 1.388 . S
C603 C602 1.366 . S
C603 C607 1.385 . S
C604 H585 0.951 . S
C604 C602 1.388 . S
C604 C605 1.366 . S
C605 C604 1.366 . S
C605 C606 1.414 . S
C605 C608 1.499 . S
C606 H586 0.950 . S
C606 C605 1.414 . S
C606 C607 1.374 . S
C607 H587 0.950 . S
C607 C603 1.385 . S
C607 C606 1.374 . S
C608 C605 1.499 . S
C608 C609 1.373 1_556 S
C608 C610 1.389 . S
C609 H588 0.950 . S
C609 C608 1.373 1_554 S
C609 C625 1.377 . S
C610 C608 1.389 . S
C610 C611 1.524 . S
C610 C624 1.377 1_556 S
C611 C610 1.524 . S
C611 C612 1.397 . S
C611 C616 1.363 . S
C612 H589 0.950 . S
C612 C611 1.397 . S
C612 C613 1.334 . S
C613 H590 0.950 . S
C613 C612 1.334 . S
C613 C614 1.287 . S
C614 C613 1.287 . S
C614 C615 1.524 . S
C614 H633 0.913 . S
C615 H591 0.950 . S
C615 C614 1.524 . S
C615 C616 1.415 . S
C616 H592 0.950 . S
C616 C611 1.363 . S
C616 C615 1.415 . S
C617 H593 0.951 . S
C617 C618 1.366 . S
C617 C619 1.388 . S
C618 C617 1.366 . S
C618 C622 1.385 . S
C619 H594 0.951 . S
C619 C617 1.388 . S
C619 C620 1.366 . S
C620 C619 1.366 . S
C620 C621 1.414 . S
C620 C623 1.499 . S
C621 H595 0.950 . S
C621 C620 1.414 . S
C621 C622 1.374 . S
C622 H596 0.950 . S
C622 C618 1.385 . S
C622 C621 1.374 . S
C623 C620 1.499 . S
C623 C624 1.373 . S
C623 C625 1.389 . S
C624 H597 0.950 . S
C624 C610 1.377 1_554 S
C624 C623 1.373 . S
C625 C609 1.377 . S
C625 C623 1.389 . S
C625 C626 1.524 . S
C626 C625 1.524 . S
C626 C627 1.397 . S
C626 C631 1.363 . S
C627 H598 0.950 . S
C627 C626 1.397 . S
C627 C628 1.334 . S
C628 H599 0.950 . S
C628 C627 1.334 . S
C628 C629 1.287 . S
C629 C628 1.287 . S
C629 C630 1.524 . S
C629 H632 0.999 . S
C630 H600 0.950 . S
C630 C629 1.524 . S
C630 C631 1.415 . S
C631 H601 0.950 . S
C631 C626 1.363 . S
C631 C630 1.415 . S
H632 C629 0.999 . S
H633 C614 0.913 . S
H634 C652 0.951 . S
H635 C654 0.951 . S
H636 C656 0.950 . S
H637 C657 0.950 . S
H638 C659 0.950 . S
H639 C662 0.950 . S
H640 C663 0.950 . S
H641 C665 0.950 1_655 S
H642 C666 0.950 . S
H643 C667 0.951 . S
H644 C669 0.951 . S
H645 C671 0.950 . S
H646 C672 0.950 . S
H647 C674 0.950 . S
H648 C677 0.950 . S
H649 C678 0.950 . S
H650 C680 0.950 . S
H651 C681 0.950 1_455 S
C652 H634 0.951 . S
C652 C653 1.366 . S
C652 C654 1.388 . S
C653 C652 1.366 . S
C653 C657 1.385 . S
C654 H635 0.951 . S
C654 C652 1.388 . S
C654 C655 1.366 . S
C655 C654 1.366 . S
C655 C656 1.414 . S
C655 C658 1.499 . S
C656 H636 0.950 . S
C656 C655 1.414 . S
C656 C657 1.374 . S
C657 H637 0.950 . S
C657 C653 1.385 . S
C657 C656 1.374 . S
C658 C655 1.499 . S
C658 C659 1.373 . S
C658 C660 1.389 . S
C659 H638 0.950 . S
C659 C658 1.373 . S
C659 C675 1.377 1_455 S
C660 C658 1.389 . S
C660 C661 1.524 . S
C660 C674 1.377 1_455 S
C661 C660 1.524 . S
C661 C662 1.397 . S
C661 C666 1.363 1_455 S
C662 H639 0.950 . S
C662 C661 1.397 . S
C662 C663 1.334 . S
C663 H640 0.950 . S
C663 C662 1.334 . S
C663 C664 1.287 . S
C664 C663 1.287 . S
C664 C665 1.524 . S
C664 H683 0.913 . S
C665 H641 0.950 1_455 S
C665 C664 1.524 . S
C665 C666 1.415 1_455 S
C666 H642 0.950 . S
C666 C661 1.363 1_655 S
C666 C665 1.415 1_655 S
C667 H643 0.951 . S
C667 C668 1.366 . S
C667 C669 1.388 . S
C668 C667 1.366 . S
C668 C672 1.385 . S
C669 H644 0.951 . S
C669 C667 1.388 . S
C669 C670 1.366 . S
C670 C669 1.366 . S
C670 C671 1.414 . S
C670 C673 1.499 . S
C671 H645 0.950 . S
C671 C670 1.414 . S
C671 C672 1.374 . S
C672 H646 0.950 . S
C672 C668 1.385 . S
C672 C671 1.374 . S
C673 C670 1.499 . S
C673 C674 1.373 . S
C673 C675 1.389 . S
C674 H647 0.950 . S
C674 C660 1.377 1_655 S
C674 C673 1.373 . S
C675 C659 1.377 1_655 S
C675 C673 1.389 . S
C675 C676 1.524 . S
C676 C675 1.524 . S
C676 C677 1.397 . S
C676 C681 1.363 . S
C677 H648 0.950 . S
C677 C676 1.397 . S
C677 C678 1.334 . S
C678 H649 0.950 . S
C678 C677 1.334 . S
C678 C679 1.287 . S
C679 C678 1.287 . S
C679 C680 1.524 . S
C679 H682 0.999 . S
C680 H650 0.950 . S
C680 C679 1.524 . S
C680 C681 1.415 . S
C681 H651 0.950 1_655 S
C681 C676 1.363 . S
C681 C680 1.415 . S
H682 C679 0.999 . S
H683 C664 0.913 . S
C103 C0 0.866 . S
C118 C61 0.873 . S
C153 C14 0.873 . S
C168 C70 0.874 . S
C203 C5 0.864 . S
C218 C33 0.866 . S
C253 C47 0.865 . S
C268 C19 0.867 . S
C303 C56 0.874 . S
C318 C28 0.872 . S
C353 C42 0.864 . S
C368 C75 0.873 . S
C403 C51 1.339 . S
C418 C9 1.339 . S
C453 C67 1.365 . S
C468 C23 1.379 . S
C503 C79 1.362 . S
C518 C39 1.353 . S
C553 C11 1.355 . S
C568 C53 1.355 . S
C603 C25 1.352 . S
C618 C65 1.363 . S
C653 C81 1.364 . S
C668 C37 1.379 . S
