# Generated by pormake.
# Topology skb, (5)-cn, num edge types: 1
# Building blocks:
#     Node 0, Type 0, BuildingBlock: XOMCOT_clean_sbu_1, # of connection points: 5
#     Node 1, Type 0, BuildingBlock: XOMCOT_clean_sbu_1, # of connection points: 5
#     Node 2, Type 0, BuildingBlock: XOMCOT_clean_sbu_1, # of connection points: 5
#     Node 3, Type 0, BuildingBlock: XOMCOT_clean_sbu_1, # of connection points: 5
#     Node 4, Type 0, BuildingBlock: XOMCOT_clean_sbu_1, # of connection points: 5
#     Node 5, Type 0, BuildingBlock: XOMCOT_clean_sbu_1, # of connection points: 5
#     Node 6, Type 0, BuildingBlock: XOMCOT_clean_sbu_1, # of connection points: 5
#     Node 7, Type 0, BuildingBlock: XOMCOT_clean_sbu_1, # of connection points: 5
#     Node 8, Type 0, BuildingBlock: XOMCOT_clean_sbu_1, # of connection points: 5
#     Node 9, Type 0, BuildingBlock: XOMCOT_clean_sbu_1, # of connection points: 5
#     Node 10, Type 0, BuildingBlock: XOMCOT_clean_sbu_1, # of connection points: 5
#     Node 11, Type 0, BuildingBlock: XOMCOT_clean_sbu_1, # of connection points: 5
#     Node 12, Type 0, BuildingBlock: XOMCOT_clean_sbu_1, # of connection points: 5
#     Node 13, Type 0, BuildingBlock: XOMCOT_clean_sbu_1, # of connection points: 5
#     Node 14, Type 0, BuildingBlock: XOMCOT_clean_sbu_1, # of connection points: 5
#     Node 15, Type 0, BuildingBlock: XOMCOT_clean_sbu_1, # of connection points: 5
#     Edge 16, Type (0, 0), BuildingBlock: EZIPEK_clean_linker_0, # of connection points: 2
#     Edge 17, Type (0, 0), BuildingBlock: EZIPEK_clean_linker_0, # of connection points: 2
#     Edge 18, Type (0, 0), BuildingBlock: EZIPEK_clean_linker_0, # of connection points: 2
#     Edge 19, Type (0, 0), BuildingBlock: EZIPEK_clean_linker_0, # of connection points: 2
#     Edge 20, Type (0, 0), BuildingBlock: EZIPEK_clean_linker_0, # of connection points: 2
#     Edge 21, Type (0, 0), BuildingBlock: EZIPEK_clean_linker_0, # of connection points: 2
#     Edge 22, Type (0, 0), BuildingBlock: EZIPEK_clean_linker_0, # of connection points: 2
#     Edge 23, Type (0, 0), BuildingBlock: EZIPEK_clean_linker_0, # of connection points: 2
#     Edge 24, Type (0, 0), BuildingBlock: EZIPEK_clean_linker_0, # of connection points: 2
#     Edge 25, Type (0, 0), BuildingBlock: EZIPEK_clean_linker_0, # of connection points: 2
#     Edge 26, Type (0, 0), BuildingBlock: EZIPEK_clean_linker_0, # of connection points: 2
#     Edge 27, Type (0, 0), BuildingBlock: EZIPEK_clean_linker_0, # of connection points: 2
#     Edge 28, Type (0, 0), BuildingBlock: EZIPEK_clean_linker_0, # of connection points: 2
#     Edge 29, Type (0, 0), BuildingBlock: EZIPEK_clean_linker_0, # of connection points: 2
#     Edge 30, Type (0, 0), BuildingBlock: EZIPEK_clean_linker_0, # of connection points: 2
#     Edge 31, Type (0, 0), BuildingBlock: EZIPEK_clean_linker_0, # of connection points: 2
#     Edge 32, Type (0, 0), BuildingBlock: EZIPEK_clean_linker_0, # of connection points: 2
#     Edge 33, Type (0, 0), BuildingBlock: EZIPEK_clean_linker_0, # of connection points: 2
#     Edge 34, Type (0, 0), BuildingBlock: EZIPEK_clean_linker_0, # of connection points: 2
#     Edge 35, Type (0, 0), BuildingBlock: EZIPEK_clean_linker_0, # of connection points: 2
#     Edge 36, Type (0, 0), BuildingBlock: EZIPEK_clean_linker_0, # of connection points: 2
#     Edge 37, Type (0, 0), BuildingBlock: EZIPEK_clean_linker_0, # of connection points: 2
#     Edge 38, Type (0, 0), BuildingBlock: EZIPEK_clean_linker_0, # of connection points: 2
#     Edge 39, Type (0, 0), BuildingBlock: EZIPEK_clean_linker_0, # of connection points: 2
#     Edge 40, Type (0, 0), BuildingBlock: EZIPEK_clean_linker_0, # of connection points: 2
#     Edge 41, Type (0, 0), BuildingBlock: EZIPEK_clean_linker_0, # of connection points: 2
#     Edge 42, Type (0, 0), BuildingBlock: EZIPEK_clean_linker_0, # of connection points: 2
#     Edge 43, Type (0, 0), BuildingBlock: EZIPEK_clean_linker_0, # of connection points: 2
#     Edge 44, Type (0, 0), BuildingBlock: EZIPEK_clean_linker_0, # of connection points: 2
#     Edge 45, Type (0, 0), BuildingBlock: EZIPEK_clean_linker_0, # of connection points: 2
#     Edge 46, Type (0, 0), BuildingBlock: EZIPEK_clean_linker_0, # of connection points: 2
#     Edge 47, Type (0, 0), BuildingBlock: EZIPEK_clean_linker_0, # of connection points: 2
#     Edge 48, Type (0, 0), BuildingBlock: EZIPEK_clean_linker_0, # of connection points: 2
#     Edge 49, Type (0, 0), BuildingBlock: EZIPEK_clean_linker_0, # of connection points: 2
#     Edge 50, Type (0, 0), BuildingBlock: EZIPEK_clean_linker_0, # of connection points: 2
#     Edge 51, Type (0, 0), BuildingBlock: EZIPEK_clean_linker_0, # of connection points: 2
#     Edge 52, Type (0, 0), BuildingBlock: EZIPEK_clean_linker_0, # of connection points: 2
#     Edge 53, Type (0, 0), BuildingBlock: EZIPEK_clean_linker_0, # of connection points: 2
#     Edge 54, Type (0, 0), BuildingBlock: EZIPEK_clean_linker_0, # of connection points: 2
#     Edge 55, Type (0, 0), BuildingBlock: EZIPEK_clean_linker_0, # of connection points: 2
# Relax obj value: 0.058
# Max RMSD: 0.104
# Mean RMSD: 0.104
data_MOF--net-skb--node1-XOMCOT_clean_sbu_1--edge1-EZIPEK_clean_linker_0
_symmetry_space_group_name_H-M    P1
_symmetry_Int_Tables_number       1
_symmetry_cell_setting            triclinic
loop_
_symmetry_equiv_pos_as_xyz
'x, y, z'
_cell_length_a     38.232542
_cell_length_b     20.24513
_cell_length_c     53.636392
_cell_angle_alpha  89.918154
_cell_angle_beta   89.93579
_cell_angle_gamma 89.941809
loop_
_atom_site_label
_atom_site_type_symbol
_atom_site_fract_x
_atom_site_fract_y
_atom_site_fract_z
_atom_type_partial_charge
C0 C 0.15339 0.12 0.10939 0.0
C1 C 0.15141 0.11935 0.08376 0.0
N2 N 0.17101 0.06891 0.0753 0.0
N3 N 0.17438 0.07048 0.11722 0.0
C4 C 0.18469 0.04 0.09589 0.0
H5 H 0.13962 0.15363 0.12158 0.0
Co6 Co 0.18359 0.05068 0.15117 0.0
C7 C 0.20128 0.90495 0.14482 0.0
O8 O 0.17287 0.88745 0.15676 0.0
N9 N 0.19348 0.02957 0.18586 0.0
C10 C 0.19111 0.97923 0.22298 0.0
C11 C 0.17767 0.98144 0.19935 0.0
C12 C 0.21661 0.05628 0.20237 0.0
N13 N 0.21553 0.0264 0.22507 0.0
O14 O 0.22521 0.10443 0.14913 0.0
H15 H 0.15657 0.95053 0.193 0.0
H16 H 0.23409 0.09652 0.19796 0.0
O17 O 0.20821 0.9665 0.14122 0.0
C18 C 0.21193 0.16156 0.15391 0.0
O19 O 0.17896 0.16426 0.16071 0.0
N20 N 0.13887 1.01402 0.1535 0.0
C21 C 0.06595 1.01238 0.15353 0.0
C22 C 0.0849 0.9699 0.13774 0.0
C23 C 0.12162 0.9736 0.13725 0.0
C24 C 0.1205 0.05381 0.1693 0.0
C25 C 0.08435 0.05414 0.16949 0.0
H26 H 0.13583 0.94738 0.12297 0.0
H27 H 0.134 0.08914 0.18086 0.0
H28 H 0.20126 0.99669 0.09533 0.0
H29 H 0.13598 0.15213 0.0722 0.0
H30 H 0.18294 0.94636 0.23783 0.0
H31 H 0.07143 0.93766 0.12484 0.0
H32 H 0.07079 0.08855 0.18159 0.0
C33 C 0.84254 0.98126 0.1109 0.0
C34 C 0.84515 0.97617 0.08539 0.0
N35 N 0.81785 1.00817 0.07513 0.0
N36 N 0.81375 1.01657 0.11692 0.0
C37 C 0.79868 0.03048 0.09462 0.0
H38 H 0.86088 0.96118 0.12424 0.0
Co39 Co 0.79975 0.037 0.15006 0.0
C40 C 0.78166 0.17153 0.12338 0.0
O41 O 0.80323 0.16648 0.10443 0.0
N42 N 0.78559 0.05804 0.18344 0.0
C43 C 0.7748 0.12174 0.2165 0.0
C44 C 0.78644 0.12044 0.19234 0.0
C45 C 0.77389 0.02171 0.20317 0.0
N46 N 0.76687 0.0598 0.22348 0.0
O47 O 0.75723 0.98789 0.14463 0.0
H48 H 0.79554 0.16288 0.18207 0.0
H49 H 0.77081 0.96861 0.20277 0.0
O50 O 0.77923 0.12491 0.13963 0.0
C51 C 0.76805 0.92829 0.14798 0.0
O52 O 0.80073 0.91887 0.15457 0.0
N53 N 0.8441 0.0711 0.15655 0.0
C54 C 0.91671 0.06288 0.15819 0.0
C55 C 0.90025 0.11464 0.1452 0.0
C56 C 0.86361 0.11681 0.14402 0.0
C57 C 0.85992 0.02539 0.17142 0.0
C58 C 0.89603 1.01932 0.17203 0.0
H59 H 0.85167 0.1515 0.13158 0.0
H60 H 0.84438 0.98833 0.18077 0.0
H61 H 0.77445 0.05752 0.09259 0.0
H62 H 0.86627 0.95322 0.07508 0.0
H63 H 0.77275 0.16496 0.22829 0.0
H64 H 0.91553 0.14955 0.13443 0.0
H65 H 0.90764 0.97866 0.18226 0.0
C66 C 0.17441 0.92741 0.93955 0.0
C67 C 0.17301 0.9284 0.96517 0.0
N68 N 0.17939 0.99038 0.97281 0.0
N69 N 0.18233 0.98823 0.93081 0.0
C70 C 0.18468 0.02583 0.95171 0.0
H71 H 0.16903 0.88489 0.92804 0.0
Co72 Co 0.18424 1.00937 0.89628 0.0
C73 C 0.20378 0.15215 0.89585 0.0
O74 O 0.17392 0.16337 0.88459 0.0
N75 N 0.18633 0.03024 0.86075 0.0
C76 C 0.174 0.06911 0.82264 0.0
C77 C 0.16277 0.06439 0.8469 0.0
C78 C 0.21187 1.01507 0.8439 0.0
N79 N 0.20485 0.03789 0.82064 0.0
O80 O 0.22585 0.95611 0.89334 0.0
H81 H 0.13884 0.08613 0.85378 0.0
H82 H 0.2355 0.98833 0.84847 0.0
O83 O 0.21126 0.0929 0.90282 0.0
C84 C 0.21292 0.90049 0.8865 0.0
O85 O 0.17971 0.89829 0.88054 0.0
N86 N 0.13994 0.04695 0.89954 0.0
C87 C 0.06825 0.05434 0.90761 0.0
C88 C 0.09073 0.10047 0.9188 0.0
C89 C 0.12702 0.09439 0.91521 0.0
C90 C 0.11799 1.00232 0.88883 0.0
C91 C 0.0824 1.00471 0.89274 0.0
H92 H 0.14446 0.12626 0.92547 0.0
H93 H 0.12818 0.96331 0.87734 0.0
H94 H 0.18839 0.07853 0.95159 0.0
H95 H 0.16659 0.88732 0.97728 0.0
H96 H 0.16048 0.09366 0.8075 0.0
H97 H 0.08043 0.13913 0.93066 0.0
H98 H 0.06588 0.968 0.88396 0.0
C99 C 0.80547 0.14017 0.93869 0.0
C100 C 0.80638 0.13919 0.9643 0.0
N101 N 0.8031 0.0762 0.97192 0.0
N102 N 0.80084 0.07831 0.92996 0.0
C103 C 0.79994 0.04018 0.95078 0.0
H104 H 0.80909 0.18341 0.92715 0.0
Co105 Co 0.80127 0.05858 0.89556 0.0
C106 C 0.78844 0.91333 0.8923 0.0
O107 O 0.81769 0.90911 0.87959 0.0
N108 N 0.80157 0.03979 0.86004 0.0
C109 C 0.81717 1.0111 0.82134 0.0
C110 C 0.82804 1.01668 0.84567 0.0
C111 C 0.77484 0.04772 0.84352 0.0
N112 N 0.78374 0.03139 0.81984 0.0
O113 O 0.7572 0.10455 0.89213 0.0
H114 H 0.85382 1.0035 0.85221 0.0
H115 H 0.74909 0.06518 0.84861 0.0
O116 O 0.77875 0.96963 0.90119 0.0
C117 C 0.76657 0.16215 0.88457 0.0
O118 O 0.79939 0.17177 0.87858 0.0
N119 N 0.8469 0.02861 0.89948 0.0
C120 C 0.91856 0.02928 0.90781 0.0
C121 C 0.89797 0.97667 0.91666 0.0
C122 C 0.86154 0.97864 0.91313 0.0
C123 C 0.86685 0.08014 0.89151 0.0
C124 C 0.90237 0.08196 0.89572 0.0
H125 H 0.84537 0.94133 0.92176 0.0
H126 H 0.85505 0.12109 0.88192 0.0
H127 H 0.79858 0.98713 0.95057 0.0
H128 H 0.81077 0.18109 0.97642 0.0
H129 H 0.83287 0.99442 0.80576 0.0
H130 H 0.90981 0.9357 0.92655 0.0
H131 H 0.91733 0.12381 0.88899 0.0
C132 C 0.16589 0.63848 0.60252 0.0
C133 C 0.16493 0.63662 0.57689 0.0
N134 N 0.17926 0.57933 0.56937 0.0
N135 N 0.18113 0.58292 0.61129 0.0
C136 C 0.18892 0.54759 0.5905 0.0
H137 H 0.15516 0.67733 0.61401 0.0
Co138 Co 0.18608 0.56253 0.64552 0.0
C139 C 0.20498 0.41746 0.6422 0.0
O140 O 0.17672 0.40175 0.65468 0.0
N141 N 0.19145 0.54135 0.68066 0.0
C142 C 0.1839 0.49445 0.71807 0.0
C143 C 0.17164 0.49876 0.69413 0.0
C144 C 0.21561 0.56278 0.6975 0.0
N145 N 0.21151 0.53485 0.72034 0.0
O146 O 0.22798 0.61578 0.64625 0.0
H147 H 0.14923 0.47194 0.6873 0.0
H148 H 0.23617 0.59756 0.6932 0.0
O149 O 0.2117 0.47837 0.63715 0.0
C150 C 0.21481 0.67256 0.65163 0.0
O151 O 0.18153 0.67545 0.65746 0.0
N152 N 0.14138 0.52597 0.64474 0.0
C153 C 0.06881 0.52127 0.64045 0.0
C154 C 0.08989 0.47588 0.62742 0.0
C155 C 0.12651 0.48113 0.62896 0.0
C156 C 0.12091 0.56905 0.65769 0.0
C157 C 0.08497 0.56851 0.65544 0.0
H158 H 0.14258 0.45155 0.61681 0.0
H159 H 0.13263 0.60637 0.66928 0.0
H160 H 0.20048 0.49885 0.59073 0.0
H161 H 0.15343 0.67334 0.5647 0.0
H162 H 0.17307 0.46436 0.73289 0.0
H163 H 0.07824 0.43914 0.61537 0.0
H164 H 0.0698 0.6051 0.66549 0.0
C165 C 0.82315 0.43726 0.60586 0.0
C166 C 0.82437 0.43683 0.58023 0.0
N167 N 0.8087 0.49198 0.5718 0.0
N168 N 0.80643 0.49214 0.61381 0.0
C169 C 0.79798 0.52475 0.59247 0.0
H170 H 0.83481 0.40061 0.61793 0.0
Co171 Co 0.80088 0.51505 0.64795 0.0
C172 C 0.78288 0.66021 0.6414 0.0
O173 O 0.81261 0.67775 0.65149 0.0
N174 N 0.79482 0.53913 0.68288 0.0
C175 C 0.79987 0.59448 0.71877 0.0
C176 C 0.81204 0.58813 0.69487 0.0
C177 C 0.77267 0.51538 0.70075 0.0
N178 N 0.77526 0.54838 0.72277 0.0
O179 O 0.75903 0.46183 0.64892 0.0
H180 H 0.83298 0.61736 0.68717 0.0
H181 H 0.75455 0.47529 0.69771 0.0
O182 O 0.77539 0.59864 0.6385 0.0
C183 C 0.77242 0.40524 0.65437 0.0
O184 O 0.80561 0.40313 0.66054 0.0
N185 N 0.84564 0.5514 0.64713 0.0
C186 C 0.9182 0.55081 0.64216 0.0
C187 C 0.89763 0.59364 0.62758 0.0
C188 C 0.86101 0.59087 0.62955 0.0
C189 C 0.86563 0.51141 0.66179 0.0
C190 C 0.90157 0.50932 0.65927 0.0
H191 H 0.84524 0.61741 0.6162 0.0
H192 H 0.85345 0.47726 0.67457 0.0
H193 H 0.78531 0.57252 0.59198 0.0
H194 H 0.83701 0.40015 0.56862 0.0
H195 H 0.80894 0.62978 0.73246 0.0
H196 H 0.90962 0.62582 0.61389 0.0
H197 H 0.91632 0.47461 0.67052 0.0
C198 C 0.16672 0.43588 0.43421 0.0
C199 C 0.16536 0.43714 0.45984 0.0
N200 N 0.18016 0.49365 0.46767 0.0
N201 N 0.18272 0.49098 0.42576 0.0
C202 C 0.19053 0.52548 0.44672 0.0
H203 H 0.15581 0.3978 0.42247 0.0
Co204 Co 0.18805 0.51203 0.39159 0.0
C205 C 0.20676 0.65576 0.39538 0.0
O206 O 0.17784 0.67151 0.38372 0.0
N207 N 0.19393 0.53388 0.35644 0.0
C208 C 0.18604 0.5789 0.31872 0.0
C209 C 0.17427 0.57651 0.34285 0.0
C210 C 0.21785 0.5113 0.33958 0.0
N211 N 0.2134 0.53781 0.31655 0.0
O212 O 0.22944 0.45795 0.39087 0.0
H213 H 0.15203 0.60403 0.34964 0.0
H214 H 0.23837 0.47649 0.34395 0.0
O215 O 0.21384 0.59488 0.40013 0.0
C216 C 0.21535 0.40241 0.38501 0.0
O217 O 0.18242 0.40217 0.37823 0.0
N218 N 0.14375 0.54955 0.39244 0.0
C219 C 0.07177 0.54741 0.39953 0.0
C220 C 0.09261 0.59228 0.4129 0.0
C221 C 0.12908 0.5906 0.40979 0.0
C222 C 0.12331 0.50795 0.37887 0.0
C223 C 0.0877 0.50504 0.38248 0.0
H224 H 0.14538 0.61894 0.42221 0.0
H225 H 0.13489 0.47342 0.36602 0.0
H226 H 0.20237 0.57399 0.44671 0.0
H227 H 0.15322 0.40068 0.47182 0.0
H228 H 0.17497 0.60787 0.30368 0.0
H229 H 0.08102 0.6253 0.42646 0.0
H230 H 0.07264 0.46915 0.37205 0.0
C231 C 0.82099 0.62873 0.43561 0.0
C232 C 0.82107 0.6278 0.46124 0.0
N233 N 0.80817 0.56942 0.46889 0.0
N234 N 0.80771 0.57153 0.42687 0.0
C235 C 0.80019 0.5361 0.44773 0.0
H236 H 0.83097 0.66819 0.42404 0.0
Co237 Co 0.80627 0.55206 0.39238 0.0
C238 C 0.79041 0.4079 0.39081 0.0
O239 O 0.81928 0.39992 0.37795 0.0
N240 N 0.8047 0.53308 0.35672 0.0
C241 C 0.81755 0.4978 0.31824 0.0
C242 C 0.82891 0.50188 0.34248 0.0
C243 C 0.77885 0.54767 0.34009 0.0
N244 N 0.78619 0.52745 0.31653 0.0
O245 O 0.76372 0.60261 0.3898 0.0
H246 H 0.85342 0.48189 0.34905 0.0
H247 H 0.75472 0.57212 0.34508 0.0
O248 O 0.78172 0.46581 0.3986 0.0
C249 C 0.77563 0.65947 0.38329 0.0
O250 O 0.80892 0.66512 0.378 0.0
N251 N 0.85096 0.51754 0.39539 0.0
C252 C 0.9227 0.51297 0.40285 0.0
C253 C 0.90103 0.46443 0.41352 0.0
C254 C 0.8646 0.4695 0.41048 0.0
C255 C 0.87205 0.56467 0.38534 0.0
C256 C 0.90756 0.56421 0.38925 0.0
H257 H 0.84761 0.43634 0.42061 0.0
H258 H 0.86121 0.6041 0.37436 0.0
H259 H 0.79011 0.48635 0.44753 0.0
H260 H 0.83112 0.66597 0.47339 0.0
H261 H 0.83157 0.47541 0.30287 0.0
H262 H 0.91202 0.42464 0.42452 0.0
H263 H 0.92333 0.6031 0.38106 0.0
C264 C 0.64031 0.08851 0.61271 0.0
C265 C 0.63783 0.09521 0.58723 0.0
N266 N 0.66561 0.06519 0.57673 0.0
N267 N 0.66951 0.05418 0.6185 0.0
C268 C 0.68483 0.04215 0.5961 0.0
H269 H 0.62177 0.10722 0.62621 0.0
Co270 Co 0.68426 0.03426 0.65157 0.0
C271 C 0.70242 0.90015 0.62503 0.0
O272 O 0.681 0.90522 0.60603 0.0
N273 N 0.69936 1.01355 0.68478 0.0
C274 C 0.71144 0.95036 0.7178 0.0
C275 C 0.69926 0.95115 0.6938 0.0
C276 C 0.7111 0.05035 0.70429 0.0
N277 N 0.7189 1.0126 0.72455 0.0
O278 O 0.72629 0.08433 0.64559 0.0
H279 H 0.69033 0.90835 0.68373 0.0
H280 H 0.71361 0.10354 0.70379 0.0
O281 O 0.70482 0.94683 0.64117 0.0
C282 C 0.71484 0.14334 0.64933 0.0
O283 O 0.68221 0.15115 0.65637 0.0
N284 N 0.64028 0.99933 0.6588 0.0
C285 C 0.56789 1.00486 0.66337 0.0
C286 C 0.58374 0.95561 0.64873 0.0
C287 C 0.62027 0.95479 0.64614 0.0
C288 C 0.62516 0.04275 0.67495 0.0
C289 C 0.58914 0.04706 0.67723 0.0
H290 H 0.63162 0.92253 0.63253 0.0
H291 H 0.64094 0.07942 0.68424 0.0
H292 H 0.70943 1.01633 0.59392 0.0
H293 H 0.61664 0.11839 0.57708 0.0
H294 H 0.71422 0.90728 0.72963 0.0
H295 H 0.56794 0.92208 0.63779 0.0
H296 H 0.57794 0.08581 0.68865 0.0
C297 C 0.34735 0.98542 0.6138 0.0
C298 C 0.3507 0.97795 0.58842 0.0
N299 N 0.32463 1.01141 0.5772 0.0
N300 N 0.31912 0.02318 0.61892 0.0
C301 C 0.30536 0.03703 0.59613 0.0
H302 H 0.36447 0.96427 0.62772 0.0
Co303 Co 0.3038 0.04213 0.65204 0.0
C304 C 0.28589 0.17753 0.62614 0.0
O305 O 0.30774 0.17384 0.60732 0.0
N306 N 0.28831 0.06131 0.68537 0.0
C307 C 0.27619 0.12237 0.71893 0.0
C308 C 0.28817 0.12318 0.69483 0.0
C309 C 0.27687 0.02322 0.7047 0.0
N310 N 0.26903 0.05964 0.72527 0.0
O311 O 0.26174 0.9929 0.64554 0.0
H312 H 0.29684 0.16669 0.68502 0.0
H313 H 0.27466 0.97002 0.70386 0.0
O314 O 0.2834 0.13001 0.64198 0.0
C315 C 0.27283 0.93362 0.64917 0.0
O316 O 0.30518 0.92497 0.65667 0.0
N317 N 0.34771 0.07653 0.65965 0.0
C318 C 0.42008 0.07006 0.66402 0.0
C319 C 0.40434 0.12029 0.64978 0.0
C320 C 0.36782 0.12164 0.6473 0.0
C321 C 0.36273 0.03217 0.67552 0.0
C322 C 0.39874 0.02737 0.67767 0.0
H323 H 0.35654 0.15491 0.63399 0.0
H324 H 0.34685 0.99515 0.68459 0.0
H325 H 0.2816 0.06512 0.59336 0.0
H326 H 0.37133 0.95149 0.57884 0.0
H327 H 0.27329 0.1647 0.73108 0.0
H328 H 0.42022 0.15428 0.63903 0.0
H329 H 0.40985 0.98788 0.6888 0.0
C330 C 0.68362 0.94593 0.43943 0.0
C331 C 0.68203 0.94645 0.46499 0.0
N332 N 0.68365 1.00947 0.47272 0.0
N333 N 0.68719 1.00816 0.43072 0.0
C334 C 0.68647 0.04611 0.45162 0.0
H335 H 0.68098 0.90255 0.42791 0.0
Co336 Co 0.68708 0.02705 0.39607 0.0
C337 C 0.70482 0.16962 0.39121 0.0
O338 O 0.67647 0.17551 0.37762 0.0
N339 N 0.68698 0.04434 0.36032 0.0
C340 C 0.67146 0.07101 0.32139 0.0
C341 C 0.66069 0.06755 0.34584 0.0
C342 C 0.71344 0.03381 0.3437 0.0
N343 N 0.70459 0.04895 0.31987 0.0
O344 O 0.7296 0.97631 0.39249 0.0
H345 H 0.63509 0.08206 0.35236 0.0
H346 H 0.73882 1.01458 0.34881 0.0
O347 O 0.71242 0.11329 0.40109 0.0
C348 C 0.71879 0.91989 0.38476 0.0
O349 O 0.68569 0.91325 0.37901 0.0
N350 N 0.64269 0.06284 0.4001 0.0
C351 C 0.57096 0.07552 0.4058 0.0
C352 C 0.59326 0.12643 0.41375 0.0
C353 C 0.62962 0.11776 0.41168 0.0
C354 C 0.62106 1.01247 0.39359 0.0
C355 C 0.58537 1.01744 0.39643 0.0
H356 H 0.64687 0.15451 0.41947 0.0
H357 H 0.63156 0.96762 0.38595 0.0
H358 H 0.68624 0.0993 0.45144 0.0
H359 H 0.67821 0.90402 0.47701 0.0
H360 H 0.65579 0.08716 0.30572 0.0
H361 H 0.58272 0.17146 0.42164 0.0
H362 H 0.56895 0.97668 0.39058 0.0
C363 C 0.32324 0.11794 0.43737 0.0
C364 C 0.32558 0.11942 0.46288 0.0
N365 N 0.31451 0.06107 0.4719 0.0
N366 N 0.30961 0.05975 0.4299 0.0
C367 C 0.30522 0.0254 0.45152 0.0
H368 H 0.33176 0.15685 0.42499 0.0
Co369 Co 0.30461 0.04083 0.39528 0.0
C370 C 0.29544 0.88974 0.40005 0.0
O371 O 0.32863 0.87881 0.39552 0.0
N372 N 0.29994 0.02269 0.35992 0.0
C373 C 0.30601 0.97155 0.32323 0.0
C374 C 0.31607 0.97272 0.3478 0.0
C375 C 0.28148 0.05334 0.34153 0.0
N376 N 0.28411 0.02234 0.31918 0.0
O377 O 0.25908 0.08183 0.39599 0.0
H378 H 0.33502 0.93989 0.35601 0.0
H379 H 0.26652 0.0977 0.34417 0.0
O380 O 0.28414 0.94969 0.40177 0.0
C381 C 0.26689 0.1422 0.39136 0.0
O382 O 0.29905 0.15628 0.38461 0.0
N383 N 0.35139 1.01542 0.39473 0.0
C384 C 0.42306 0.03469 0.3995 0.0
C385 C 0.40584 0.98794 0.41446 0.0
C386 C 0.36951 0.98105 0.4125 0.0
C387 C 0.36827 0.05972 0.3798 0.0
C388 C 0.4038 0.07064 0.38206 0.0
H389 H 0.35589 0.95183 0.42629 0.0
H390 H 0.35364 0.09146 0.36742 0.0
H391 H 0.29721 0.97445 0.45236 0.0
H392 H 0.33607 0.15937 0.47399 0.0
H393 H 0.31449 0.93644 0.30926 0.0
H394 H 0.41999 0.96039 0.42854 0.0
H395 H 0.41606 0.10831 0.37065 0.0
C396 C 0.65307 0.63063 0.1085 0.0
C397 C 0.65123 0.6337 0.08288 0.0
N398 N 0.67016 0.58363 0.07337 0.0
N399 N 0.67343 0.57921 0.11538 0.0
C400 C 0.68345 0.55138 0.09342 0.0
H401 H 0.6397 0.66322 0.1213 0.0
Co402 Co 0.68338 0.55501 0.14907 0.0
C403 C 0.69983 0.41101 0.13745 0.0
O404 O 0.66829 0.39274 0.14403 0.0
N405 N 0.69479 0.52892 0.18303 0.0
C406 C 0.69798 0.46671 0.21744 0.0
C407 C 0.68477 0.47142 0.19378 0.0
C408 C 0.71402 0.55869 0.20121 0.0
N409 N 0.71622 0.52178 0.22236 0.0
O410 O 0.72434 0.61057 0.14764 0.0
H411 H 0.66782 0.43529 0.18548 0.0
H412 H 0.72667 0.60592 0.19903 0.0
O413 O 0.70843 0.47258 0.13766 0.0
C414 C 0.7101 0.66616 0.15361 0.0
O415 O 0.67726 0.66553 0.16088 0.0
N416 N 0.63855 0.51703 0.15159 0.0
C417 C 0.56571 0.52382 0.15285 0.0
C418 C 0.58269 0.49019 0.13341 0.0
C419 C 0.61946 0.48875 0.1328 0.0
C420 C 0.62171 0.54726 0.17095 0.0
C421 C 0.58564 0.55044 0.17207 0.0
H422 H 0.63238 0.46977 0.11636 0.0
H423 H 0.63607 0.57569 0.1845 0.0
H424 H 0.69955 0.50758 0.09203 0.0
H425 H 0.63621 0.66877 0.07202 0.0
H426 H 0.6938 0.42638 0.23038 0.0
H427 H 0.56786 0.46998 0.11803 0.0
H428 H 0.57341 0.57786 0.18709 0.0
C429 C 0.3424 0.47139 0.10742 0.0
C430 C 0.34534 0.46399 0.08203 0.0
N431 N 0.32002 0.49989 0.07102 0.0
N432 N 0.31512 0.51134 0.11271 0.0
C433 C 0.30145 0.52662 0.09006 0.0
H434 H 0.35936 0.44935 0.12125 0.0
Co435 Co 0.30205 0.53168 0.14601 0.0
C436 C 0.27997 0.66702 0.12087 0.0
O437 O 0.29974 0.66567 0.10089 0.0
N438 N 0.28881 0.5518 0.17962 0.0
C439 C 0.27927 0.61292 0.21355 0.0
C440 C 0.28971 0.61364 0.18909 0.0
C441 C 0.27825 0.51387 0.1992 0.0
N442 N 0.27197 0.55033 0.21997 0.0
O443 O 0.25999 0.48071 0.14149 0.0
H444 H 0.29807 0.65695 0.179 0.0
H445 H 0.27558 0.46076 0.19842 0.0
O446 O 0.28002 0.61866 0.13646 0.0
C447 C 0.27115 0.42172 0.14557 0.0
O448 O 0.30392 0.41361 0.15224 0.0
N449 N 0.34598 0.56923 0.15152 0.0
C450 C 0.41883 0.58321 0.15832 0.0
C451 C 0.40068 0.61734 0.13919 0.0
C452 C 0.36444 0.6103 0.13633 0.0
C453 C 0.3629 0.53327 0.1692 0.0
C454 C 0.39872 0.53864 0.17261 0.0
H455 H 0.35224 0.63291 0.12049 0.0
H456 H 0.34897 0.49551 0.17943 0.0
H457 H 0.27828 0.55646 0.08744 0.0
H458 H 0.36543 0.43646 0.07229 0.0
H459 H 0.27739 0.65516 0.22585 0.0
H460 H 0.41387 0.64536 0.12494 0.0
H461 H 0.41018 0.5034 0.18528 0.0
C462 C 0.66472 0.45681 0.93582 0.0
C463 C 0.66356 0.45735 0.96143 0.0
N464 N 0.67589 0.51575 0.96944 0.0
N465 N 0.67826 0.51419 0.92735 0.0
C466 C 0.68468 0.54944 0.94843 0.0
H467 H 0.65523 0.41737 0.92411 0.0
Co468 Co 0.6813 0.53379 0.8927 0.0
C469 C 0.70178 0.67646 0.89174 0.0
O470 O 0.67345 0.68825 0.87875 0.0
N471 N 0.68442 0.55283 0.85695 0.0
C472 C 0.67393 0.59227 0.81865 0.0
C473 C 0.66229 0.58946 0.84284 0.0
C474 C 0.70923 0.53333 0.84018 0.0
N475 N 0.70325 0.55602 0.81669 0.0
O476 O 0.72227 0.47829 0.89056 0.0
H477 H 0.63895 0.61392 0.84946 0.0
H478 H 0.73167 0.50348 0.845 0.0
O479 O 0.70849 0.61731 0.8993 0.0
C480 C 0.70892 0.42248 0.8842 0.0
O481 O 0.67551 0.41997 0.87892 0.0
N482 N 0.63767 0.57338 0.89509 0.0
C483 C 0.56581 0.58696 0.9003 0.0
C484 C 0.58844 0.63237 0.9118 0.0
C485 C 0.6248 0.62277 0.90987 0.0
C486 C 0.61565 0.52931 0.88422 0.0
C487 C 0.58 0.53449 0.88687 0.0
H488 H 0.64227 0.65365 0.92054 0.0
H489 H 0.62582 0.48877 0.8735 0.0
H490 H 0.69453 0.59933 0.94848 0.0
H491 H 0.65309 0.41886 0.97331 0.0
H492 H 0.6614 0.61834 0.80344 0.0
H493 H 0.57817 0.67311 0.92264 0.0
H494 H 0.56347 0.49787 0.87804 0.0
C495 C 0.32444 0.61259 0.93183 0.0
C496 C 0.3266 0.61334 0.95736 0.0
N497 N 0.31261 0.55701 0.96624 0.0
N498 N 0.30824 0.55692 0.92432 0.0
C499 C 0.30166 0.52343 0.94581 0.0
H500 H 0.33473 0.65003 0.91946 0.0
Co501 Co 0.30163 0.53695 0.89014 0.0
C502 C 0.29065 0.38804 0.8979 0.0
O503 O 0.323 0.37289 0.8922 0.0
N504 N 0.29501 0.51669 0.85521 0.0
C505 C 0.29647 0.46187 0.81907 0.0
C506 C 0.30682 0.46177 0.84356 0.0
C507 C 0.27896 0.55101 0.83662 0.0
N508 N 0.27885 0.51803 0.81462 0.0
O509 O 0.2568 0.58001 0.89162 0.0
H510 H 0.32258 0.4239 0.852 0.0
H511 H 0.2678 0.59945 0.83885 0.0
O512 O 0.28064 0.44872 0.89844 0.0
C513 C 0.26544 0.63995 0.88695 0.0
O514 O 0.29769 0.65246 0.88002 0.0
N515 N 0.34794 0.50929 0.88861 0.0
C516 C 0.41923 0.53415 0.8934 0.0
C517 C 0.40301 0.48573 0.90824 0.0
C518 C 0.36677 0.47631 0.90638 0.0
C519 C 0.36405 0.55351 0.87324 0.0
C520 C 0.39917 0.56791 0.87577 0.0
H521 H 0.35373 0.44739 0.92054 0.0
H522 H 0.34891 0.58394 0.86072 0.0
H523 H 0.29017 0.47465 0.94649 0.0
H524 H 0.33888 0.65117 0.96859 0.0
H525 H 0.30177 0.42378 0.80542 0.0
H526 H 0.41766 0.4595 0.92241 0.0
H527 H 0.41038 0.60689 0.86444 0.0
C528 C 0.2709 0.0346 0.24968 0.0
C529 C 0.23407 0.0415 0.248 0.0
C530 C 0.23015 0.04209 0.29379 0.0
C531 C 0.26715 0.03754 0.29556 0.0
N532 N 0.3227 0.05073 0.27507 0.0
N533 N 0.18057 0.07343 0.26815 0.0
C534 C 0.2875 0.04083 0.27339 0.0
C535 C 0.21444 0.05281 0.27005 0.0
N536 N 0.28987 1.018 0.22906 0.0
N537 N 0.2097 0.03097 0.31423 0.0
H538 H 0.16892 0.08309 0.25093 0.0
H539 H 0.16566 0.08774 0.2835 0.0
H540 H 0.21979 1.01818 0.33159 0.0
H541 H 0.18254 0.0276 0.31333 0.0
H542 H 0.3163 1.0055 0.22979 0.0
H543 H 0.27859 1.01134 0.21158 0.0
H544 H 0.3386 0.05878 0.25957 0.0
H545 H 0.33515 0.05821 0.29214 0.0
C546 C 0.72061 1.01528 0.25184 0.0
C547 C 0.7545 0.04189 0.24822 0.0
C548 C 0.75796 0.06663 0.29312 0.0
C549 C 0.72418 0.03878 0.29682 0.0
N550 N 0.68012 0.96512 0.28104 0.0
N551 N 0.80922 0.07373 0.2664 0.0
C552 C 0.70775 1.00601 0.27655 0.0
C553 C 0.77441 0.06101 0.2693 0.0
N554 N 0.69966 1.00313 0.23182 0.0
N555 N 0.77362 0.1019 0.31165 0.0
H556 H 0.82179 0.06839 0.24922 0.0
H557 H 0.82605 0.08244 0.2813 0.0
H558 H 0.7628 0.10767 0.32926 0.0
H559 H 0.79621 0.12973 0.30891 0.0
H560 H 0.67347 0.98963 0.23352 0.0
H561 H 0.70752 1.01272 0.21359 0.0
H562 H 0.66876 0.93593 0.26727 0.0
H563 H 0.67148 0.95471 0.29909 0.0
C564 C 0.27539 0.05603 0.77121 0.0
C565 C 0.25597 0.03944 0.74957 0.0
C566 C 0.20804 1.00171 0.77659 0.0
C567 C 0.22462 0.03019 0.79765 0.0
N568 N 0.2733 0.09115 0.8144 0.0
N569 N 0.20128 1.00469 0.73172 0.0
C570 C 0.2584 0.05831 0.79492 0.0
C571 C 0.22175 1.01342 0.75225 0.0
N572 N 0.31016 0.06982 0.76892 0.0
N573 N 0.1791 0.96338 0.77999 0.0
H574 H 0.20977 1.01649 0.71382 0.0
H575 H 0.17493 0.99189 0.73271 0.0
H576 H 0.16924 0.9528 0.7977 0.0
H577 H 0.16739 0.93676 0.76563 0.0
H578 H 0.32661 0.07706 0.78415 0.0
H579 H 0.32309 0.06721 0.7518 0.0
H580 H 0.29619 0.11868 0.81272 0.0
H581 H 0.26129 0.09558 0.83175 0.0
C582 C 0.76556 0.05958 0.75179 0.0
C583 C 0.73194 0.03122 0.74897 0.0
C584 C 0.73044 1.00765 0.79401 0.0
C585 C 0.76363 0.03832 0.79694 0.0
N586 N 0.80599 0.11373 0.77984 0.0
N587 N 0.67844 0.99644 0.76838 0.0
C588 C 0.77892 0.07101 0.77617 0.0
C589 C 0.71308 1.01149 0.77052 0.0
N590 N 0.78589 0.07111 0.73135 0.0
N591 N 0.71637 0.97128 0.81295 0.0
H592 H 0.66514 1.00052 0.75146 0.0
H593 H 0.66236 0.98699 0.78367 0.0
H594 H 0.72834 0.96573 0.8302 0.0
H595 H 0.6942 0.94197 0.81079 0.0
H596 H 0.8119 0.08614 0.73254 0.0
H597 H 0.77789 0.05907 0.71339 0.0
H598 H 0.81643 0.14279 0.76561 0.0
H599 H 0.81502 0.12558 0.79763 0.0
C600 C 0.21175 0.56181 0.76528 0.0
C601 C 0.23068 0.54564 0.74335 0.0
C602 C 0.28362 0.53424 0.7689 0.0
C603 C 0.26309 0.53623 0.79096 0.0
N604 N 0.20566 0.5426 0.80956 0.0
N605 N 0.2849 0.50957 0.72475 0.0
C606 C 0.22664 0.54856 0.78908 0.0
C607 C 0.26689 0.5309 0.74518 0.0
N608 N 0.17941 0.58976 0.76322 0.0
N609 N 0.3192 0.5361 0.77071 0.0
H610 H 0.27351 0.50488 0.70724 0.0
H611 H 0.31035 0.4913 0.72567 0.0
H612 H 0.3319 0.54089 0.78783 0.0
H613 H 0.33563 0.54017 0.75527 0.0
H614 H 0.16542 0.60757 0.7785 0.0
H615 H 0.16852 0.60168 0.74595 0.0
H616 H 0.17847 0.54502 0.80865 0.0
H617 H 0.21502 0.52845 0.82699 0.0
C618 C 0.72004 0.53557 0.74776 0.0
C619 C 0.75709 0.53818 0.74638 0.0
C620 C 0.75924 0.55092 0.79203 0.0
C621 C 0.72236 0.54325 0.7936 0.0
N622 N 0.67037 0.5037 0.77306 0.0
N623 N 0.81146 0.5246 0.76844 0.0
C624 C 0.70362 0.52766 0.77146 0.0
C625 C 0.77651 0.53804 0.76897 0.0
N626 N 0.70021 0.5449 0.72693 0.0
N627 N 0.77778 0.57464 0.81179 0.0
H628 H 0.82435 0.5112 0.75205 0.0
H629 H 0.82638 0.51901 0.78457 0.0
H630 H 0.76614 0.58941 0.8284 0.0
H631 H 0.80425 0.58657 0.81059 0.0
H632 H 0.67304 0.54913 0.72758 0.0
H633 H 0.7109 0.55573 0.70954 0.0
H634 H 0.65651 0.48711 0.75755 0.0
H635 H 0.65858 0.49279 0.79013 0.0
C636 C 0.2817 0.54148 0.2654 0.0
C637 C 0.25994 0.53007 0.24446 0.0
C638 C 0.21207 0.50014 0.27281 0.0
C639 C 0.23158 0.52401 0.29337 0.0
N640 N 0.28496 0.57063 0.30922 0.0
N641 N 0.20291 0.50493 0.22816 0.0
C642 C 0.26671 0.54442 0.28977 0.0
C643 C 0.22483 0.50982 0.24812 0.0
N644 N 0.31673 0.55002 0.26175 0.0
N645 N 0.18109 0.46871 0.2771 0.0
H646 H 0.21105 0.51471 0.20999 0.0
H647 H 0.17611 0.49683 0.22983 0.0
H648 H 0.17172 0.46038 0.29512 0.0
H649 H 0.1668 0.44531 0.26315 0.0
H650 H 0.33474 0.5533 0.27625 0.0
H651 H 0.32802 0.54743 0.24404 0.0
H652 H 0.30924 0.59333 0.30724 0.0
H653 H 0.27474 0.57349 0.32717 0.0
C654 C 0.713 0.52813 0.26847 0.0
C655 C 0.7326 0.53643 0.24618 0.0
C656 C 0.78407 0.56074 0.27187 0.0
C657 C 0.76649 0.53747 0.29356 0.0
N658 N 0.71388 0.49012 0.31116 0.0
N659 N 0.78914 0.55201 0.22702 0.0
C660 C 0.73067 0.51944 0.29163 0.0
C661 C 0.76877 0.55115 0.24792 0.0
N662 N 0.67735 0.5293 0.26748 0.0
N663 N 0.81506 0.59345 0.27422 0.0
H664 H 0.77943 0.54185 0.20931 0.0
H665 H 0.81629 0.55631 0.22769 0.0
H666 H 0.8257 0.60495 0.29158 0.0
H667 H 0.8277 0.61587 0.2592 0.0
H668 H 0.66163 0.52879 0.28337 0.0
H669 H 0.66386 0.53861 0.25093 0.0
H670 H 0.68887 0.47009 0.30967 0.0
H671 H 0.72597 0.47975 0.32806 0.0
C672 C 0.22482 0.27411 0.17043 0.0
C673 C 0.23039 0.22632 0.15133 0.0
C674 C 0.25737 0.31305 0.12547 0.0
C675 C 0.24945 0.36093 0.14401 0.0
N676 N 0.21707 0.38984 0.18064 0.0
N677 N 0.24581 0.20428 0.10842 0.0
C678 C 0.23033 0.3422 0.16534 0.0
C679 C 0.2451 0.24673 0.12819 0.0
N680 N 0.2152 0.25418 0.19381 0.0
N681 N 0.27699 0.33108 0.10529 0.0
H682 H 0.23754 0.15542 0.10957 0.0
H683 H 0.25234 0.21881 0.09038 0.0
H684 H 0.28364 0.38015 0.10174 0.0
H685 H 0.28762 0.29736 0.09273 0.0
H686 H 0.21402 0.28603 0.20903 0.0
H687 H 0.21198 0.20466 0.1986 0.0
H688 H 0.20038 0.37981 0.19554 0.0
H689 H 0.21955 0.43992 0.17645 0.0
C690 C 0.72017 0.78004 0.17057 0.0
C691 C 0.72706 0.7327 0.15145 0.0
C692 C 0.75521 0.82062 0.12682 0.0
C693 C 0.74623 0.86787 0.14536 0.0
N694 N 0.71188 0.89546 0.1812 0.0
N695 N 0.74402 0.71321 0.1086 0.0
C696 C 0.72584 0.84838 0.16597 0.0
C697 C 0.74268 0.75432 0.12876 0.0
N698 N 0.70945 0.75961 0.19364 0.0
N699 N 0.77627 0.83906 0.10746 0.0
H700 H 0.73513 0.66468 0.10894 0.0
H701 H 0.75137 0.72894 0.09085 0.0
H702 H 0.78357 0.88805 0.10451 0.0
H703 H 0.7876 0.80559 0.09511 0.0
H704 H 0.7075 0.79113 0.20892 0.0
H705 H 0.70605 0.71013 0.1983 0.0
H706 H 0.69417 0.88494 0.19544 0.0
H707 H 0.71496 0.94573 0.17758 0.0
C708 C 0.24229 0.80769 0.90984 0.0
C709 C 0.23149 0.83598 0.88678 0.0
C710 C 0.22828 0.7253 0.86821 0.0
C711 C 0.24226 0.69788 0.89011 0.0
N712 N 0.25729 0.70784 0.93312 0.0
N713 N 0.22026 0.82293 0.84284 0.0
C714 C 0.24751 0.73786 0.91142 0.0
C715 C 0.22638 0.79489 0.86561 0.0
N716 N 0.24692 0.84733 0.93016 0.0
N717 N 0.21563 0.684 0.8503 0.0
H718 H 0.21969 0.87396 0.84022 0.0
H719 H 0.21924 0.79611 0.8263 0.0
H720 H 0.21452 0.63306 0.85326 0.0
H721 H 0.20266 0.70011 0.83435 0.0
H722 H 0.25202 0.83028 0.94808 0.0
H723 H 0.24613 0.89863 0.92913 0.0
H724 H 0.26474 0.73233 0.94927 0.0
H725 H 0.2568 0.6565 0.93489 0.0
C726 C 0.73379 0.32507 0.90657 0.0
C727 C 0.72783 0.35851 0.88369 0.0
C728 C 0.74056 0.25595 0.861 0.0
C729 C 0.74385 0.22147 0.88394 0.0
N730 N 0.73426 0.21966 0.92821 0.0
N731 N 0.71789 0.35101 0.83921 0.0
C732 C 0.7374 0.25499 0.90664 0.0
C733 C 0.72895 0.3225 0.86093 0.0
N734 N 0.73616 0.3602 0.92821 0.0
N735 N 0.74948 0.22563 0.83916 0.0
H736 H 0.71009 0.40006 0.83794 0.0
H737 H 0.71396 0.32457 0.8228 0.0
H738 H 0.75586 0.17577 0.83816 0.0
H739 H 0.75238 0.25079 0.82232 0.0
H740 H 0.74325 0.33917 0.9452 0.0
H741 H 0.73463 0.41158 0.92865 0.0
H742 H 0.72699 0.24055 0.94517 0.0
H743 H 0.73505 0.16818 0.92842 0.0
C744 C 0.75761 0.82017 0.8704 0.0
C745 C 0.76564 0.85292 0.89316 0.0
C746 C 0.73275 0.76711 0.91595 0.0
C747 C 0.72765 0.7316 0.89343 0.0
N748 N 0.74153 0.71804 0.84995 0.0
N749 N 0.76774 0.8478 0.93803 0.0
C750 C 0.74216 0.75627 0.87092 0.0
C751 C 0.75509 0.82373 0.9161 0.0
N752 N 0.76334 0.85124 0.84812 0.0
N753 N 0.71527 0.74847 0.937 0.0
H754 H 0.78552 0.88654 0.93863 0.0
H755 H 0.76361 0.82489 0.95519 0.0
H756 H 0.69862 0.70783 0.93743 0.0
H757 H 0.71504 0.77647 0.95328 0.0
H758 H 0.75446 0.83298 0.83112 0.0
H759 H 0.77373 0.89862 0.84673 0.0
H760 H 0.7549 0.73006 0.83363 0.0
H761 H 0.73053 0.67097 0.84969 0.0
C762 C 0.26734 0.28669 0.91987 0.0
C763 C 0.26522 0.33222 0.89972 0.0
C764 C 0.23155 0.25105 0.87593 0.0
C765 C 0.22927 0.20882 0.89709 0.0
N766 N 0.24359 0.18971 0.94036 0.0
N767 N 0.23808 0.3628 0.86082 0.0
C768 C 0.24694 0.22733 0.9194 0.0
C769 C 0.24492 0.31607 0.87853 0.0
N770 N 0.28921 0.29987 0.93937 0.0
N771 N 0.22268 0.22776 0.85288 0.0
H772 H 0.24598 0.41173 0.86262 0.0
H773 H 0.221 0.3549 0.84599 0.0
H774 H 0.21544 0.17878 0.84982 0.0
H775 H 0.22685 0.25438 0.8365 0.0
H776 H 0.29538 0.2655 0.95315 0.0
H777 H 0.30268 0.34447 0.94105 0.0
H778 H 0.25187 0.20488 0.95793 0.0
H779 H 0.23106 0.14435 0.94041 0.0
C780 C 0.71577 0.31126 0.11218 0.0
C781 C 0.7251 0.35699 0.13111 0.0
C782 C 0.77423 0.28461 0.14294 0.0
C783 C 0.76178 0.23486 0.12647 0.0
N784 N 0.71916 0.19892 0.09641 0.0
N785 N 0.76151 0.3842 0.16635 0.0
C786 C 0.7322 0.24788 0.11125 0.0
C787 C 0.75409 0.34318 0.14685 0.0
N788 N 0.6916 0.32935 0.09468 0.0
N789 N 0.80594 0.27706 0.15429 0.0
H790 H 0.74849 0.42867 0.16938 0.0
H791 H 0.77913 0.37217 0.18044 0.0
H792 H 0.82136 0.23511 0.15203 0.0
H793 H 0.81829 0.31454 0.16422 0.0
H794 H 0.68583 0.30127 0.07897 0.0
H795 H 0.67976 0.37585 0.09459 0.0
H796 H 0.69552 0.20257 0.0869 0.0
H797 H 0.73067 0.15231 0.09511 0.0
C798 C 0.25621 0.83589 0.14885 0.0
C799 C 0.22477 0.85064 0.13592 0.0
C800 C 0.22848 0.74331 0.1143 0.0
C801 C 0.26055 0.72954 0.12656 0.0
N802 N 0.30905 0.76955 0.15095 0.0
N803 N 0.18522 0.82556 0.10243 0.0
C804 C 0.27564 0.77792 0.14249 0.0
C805 C 0.21221 0.80633 0.11746 0.0
N806 N 0.26681 0.87577 0.16794 0.0
N807 N 0.21312 0.69545 0.10009 0.0
H808 H 0.17369 0.8721 0.1038 0.0
H809 H 0.17668 0.79861 0.08709 0.0
H810 H 0.22452 0.64926 0.09712 0.0
H811 H 0.18798 0.69946 0.0928 0.0
H812 H 0.28698 0.86343 0.18013 0.0
H813 H 0.25394 0.91949 0.17263 0.0
H814 H 0.3229 0.80606 0.16037 0.0
H815 H 0.32403 0.72796 0.14679 0.0
C816 C 0.24903 0.76047 0.62827 0.0
C817 C 0.2337 0.73695 0.65075 0.0
C818 C 0.23222 0.85079 0.66681 0.0
C819 C 0.2516 0.87278 0.64605 0.0
N820 N 0.28114 0.84817 0.60753 0.0
N821 N 0.21728 0.75869 0.69346 0.0
C822 C 0.26072 0.82737 0.62689 0.0
C823 C 0.22729 0.782 0.67062 0.0
N824 N 0.251 0.72035 0.60785 0.0
N825 N 0.21825 0.89601 0.68281 0.0
H826 H 0.21451 0.70845 0.69723 0.0
H827 H 0.21534 0.78844 0.70923 0.0
H828 H 0.22039 0.94662 0.67952 0.0
H829 H 0.2014 0.88361 0.69735 0.0
H830 H 0.25786 0.7373 0.59017 0.0
H831 H 0.24364 0.67087 0.6081 0.0
H832 H 0.29254 0.81624 0.59465 0.0
H833 H 0.28776 0.89766 0.60507 0.0
C834 C 0.73826 0.31859 0.63021 0.0
C835 C 0.75407 0.34023 0.65276 0.0
C836 C 0.75591 0.22487 0.66741 0.0
C837 C 0.73586 0.20476 0.64675 0.0
N838 N 0.70494 0.23333 0.60917 0.0
N839 N 0.77123 0.31443 0.69502 0.0
C840 C 0.72622 0.252 0.62833 0.0
C841 C 0.7609 0.29331 0.67199 0.0
N842 N 0.73615 0.36008 0.61015 0.0
N843 N 0.77037 0.17828 0.68264 0.0
H844 H 0.77388 0.36428 0.69946 0.0
H845 H 0.77347 0.28312 0.71037 0.0
H846 H 0.7681 0.12797 0.67884 0.0
H847 H 0.78772 0.18948 0.69698 0.0
H848 H 0.72889 0.34437 0.59242 0.0
H849 H 0.74397 0.40927 0.61064 0.0
H850 H 0.69326 0.26668 0.59692 0.0
H851 H 0.69773 0.18429 0.60635 0.0
C852 C 0.22692 0.29191 0.36708 0.0
C853 C 0.23212 0.33639 0.3873 0.0
C854 C 0.24741 0.24191 0.41411 0.0
C855 C 0.24259 0.19882 0.39364 0.0
N856 N 0.2148 0.17902 0.35465 0.0
N857 N 0.24348 0.35289 0.43116 0.0
C858 C 0.22824 0.22286 0.37135 0.0
C859 C 0.24148 0.31121 0.4112 0.0
N860 N 0.22126 0.31594 0.34361 0.0
N861 N 0.25767 0.21547 0.43633 0.0
H862 H 0.24162 0.40398 0.42953 0.0
H863 H 0.24632 0.33727 0.44953 0.0
H864 H 0.25725 0.16449 0.43925 0.0
H865 H 0.26607 0.24285 0.45159 0.0
H866 H 0.22034 0.28608 0.32783 0.0
H867 H 0.22091 0.36632 0.33964 0.0
H868 H 0.20151 0.19295 0.33853 0.0
H869 H 0.2134 0.12869 0.35885 0.0
C870 C 0.75073 0.75528 0.40604 0.0
C871 C 0.75534 0.72172 0.3831 0.0
C872 C 0.74151 0.82414 0.36063 0.0
C873 C 0.7402 0.85897 0.38358 0.0
N874 N 0.75274 0.86054 0.42751 0.0
N875 N 0.76199 0.72827 0.33832 0.0
C876 C 0.74778 0.82539 0.40612 0.0
C877 C 0.75267 0.75735 0.36032 0.0
N878 N 0.74913 0.72014 0.42775 0.0
N879 N 0.73135 0.85442 0.33903 0.0
H880 H 0.76917 0.67891 0.33699 0.0
H881 H 0.76497 0.75431 0.32168 0.0
H882 H 0.72528 0.90442 0.33807 0.0
H883 H 0.7271 0.82911 0.32241 0.0
H884 H 0.74314 0.74136 0.44492 0.0
H885 H 0.75001 0.66868 0.42811 0.0
H886 H 0.76089 0.83924 0.44421 0.0
H887 H 0.75262 0.91201 0.42773 0.0
C888 C 0.75333 0.32346 0.36953 0.0
C889 C 0.76622 0.35007 0.39219 0.0
C890 C 0.73869 0.25811 0.41509 0.0
C891 C 0.72877 0.22825 0.39216 0.0
N892 N 0.73321 0.22715 0.34722 0.0
N893 N 0.77698 0.33577 0.43609 0.0
C894 C 0.73797 0.25956 0.3693 0.0
C895 C 0.76049 0.31551 0.41489 0.0
N896 N 0.75514 0.36002 0.34812 0.0
N897 N 0.72607 0.2337 0.43702 0.0
H898 H 0.79337 0.37682 0.43648 0.0
H899 H 0.77684 0.3087 0.45263 0.0
H900 H 0.70964 0.1929 0.43777 0.0
H901 H 0.72931 0.25733 0.4541 0.0
H902 H 0.74264 0.34681 0.33162 0.0
H903 H 0.76633 0.40686 0.34747 0.0
H904 H 0.74306 0.24402 0.33026 0.0
H905 H 0.72252 0.17998 0.34608 0.0
C906 C 0.26025 0.71862 0.383 0.0
C907 C 0.23236 0.71005 0.39998 0.0
C908 C 0.24569 0.81909 0.41838 0.0
C909 C 0.27123 0.83069 0.3995 0.0
N910 N 0.29475 0.79644 0.35961 0.0
N911 N 0.19609 0.75403 0.43268 0.0
C912 C 0.27645 0.78154 0.38076 0.0
C913 C 0.22439 0.76095 0.41734 0.0
N914 N 0.27106 0.66693 0.36855 0.0
N915 N 0.24244 0.86211 0.4378 0.0
H916 H 0.1817 0.71038 0.43375 0.0
H917 H 0.18592 0.7923 0.44343 0.0
H918 H 0.25642 0.9059 0.43887 0.0
H919 H 0.22755 0.85244 0.45366 0.0
H920 H 0.29378 0.66831 0.35782 0.0
H921 H 0.25939 0.62047 0.36919 0.0
H922 H 0.29627 0.76513 0.34425 0.0
H923 H 0.3045 0.84324 0.35595 0.0
C924 C 0.76831 0.75962 0.61534 0.0
C925 C 0.75826 0.71454 0.63437 0.0
C926 C 0.70903 0.78755 0.64524 0.0
C927 C 0.72192 0.83656 0.62854 0.0
N928 N 0.76532 0.87131 0.59875 0.0
N929 N 0.72105 0.68832 0.66927 0.0
C930 C 0.7519 0.82294 0.61377 0.0
C931 C 0.72896 0.72899 0.6497 0.0
N932 N 0.79314 0.741 0.59841 0.0
N933 N 0.67714 0.79586 0.6563 0.0
H934 H 0.73425 0.64411 0.67268 0.0
H935 H 0.70293 0.7004 0.68305 0.0
H936 H 0.66189 0.83789 0.65363 0.0
H937 H 0.66454 0.75898 0.66644 0.0
H938 H 0.79957 0.76853 0.58266 0.0
H939 H 0.80492 0.69453 0.59881 0.0
H940 H 0.78922 0.86736 0.58954 0.0
H941 H 0.75379 0.9178 0.59693 0.0
C942 C 0.25841 0.34785 0.65095 0.0
C943 C 0.22935 0.3624 0.63544 0.0
C944 C 0.2361 0.25406 0.61494 0.0
C945 C 0.26596 0.24056 0.62981 0.0
N946 N 0.31014 0.28097 0.65799 0.0
N947 N 0.195 0.33585 0.59931 0.0
C948 C 0.27847 0.28937 0.64666 0.0
C949 C 0.21958 0.31731 0.61641 0.0
N950 N 0.26608 0.3887 0.67046 0.0
N951 N 0.22293 0.20568 0.59989 0.0
H952 H 0.18332 0.38234 0.59956 0.0
H953 H 0.18879 0.3083 0.58356 0.0
H954 H 0.23455 0.15924 0.59817 0.0
H955 H 0.19913 0.20951 0.59059 0.0
H956 H 0.28399 0.37679 0.68438 0.0
H957 H 0.25286 0.43301 0.67358 0.0
H958 H 0.32252 0.31772 0.66828 0.0
H959 H 0.32546 0.23895 0.65547 0.0
C960 C 0.97142 0.04147 0.13267 0.0
C961 C 0.95508 0.05029 0.15628 0.0
C962 C 0.00896 1.01361 0.17647 0.0
C963 C 0.02702 1.01718 0.15339 0.0
N964 N 0.02572 0.05003 0.1099 0.0
N965 N 0.96197 0.0596 0.20095 0.0
C966 C 0.0084 0.03528 0.13149 0.0
C967 C 0.97493 0.04063 0.17832 0.0
N968 N 0.95187 0.03606 0.11146 0.0
N969 N 0.02418 0.98384 0.1966 0.0
H970 H 0.93794 0.0835 0.20294 0.0
H971 H 0.97683 0.05833 0.21723 0.0
H972 H 0.04862 0.96098 0.19559 0.0
H973 H 0.01086 0.97563 0.21329 0.0
H974 H 0.9628 0.02397 0.09424 0.0
H975 H 0.92462 0.03596 0.1115 0.0
H976 H 0.01307 0.06933 0.09429 0.0
H977 H 0.05287 0.04976 0.10834 0.0
C978 C 0.01052 0.06099 0.88709 0.0
C979 C 0.02962 0.05705 0.90963 0.0
C980 C 0.97505 0.03607 0.93232 0.0
C981 C 0.95727 0.03021 0.90919 0.0
N982 N 0.96079 1.01981 0.86439 0.0
N983 N 0.03089 0.03 0.95353 0.0
C984 C 0.97593 0.03722 0.8865 0.0
C985 C 0.01218 0.04174 0.93232 0.0
N986 N 0.02552 0.08765 0.86625 0.0
N987 N 0.95665 0.03864 0.95414 0.0
H988 H 0.05806 0.03362 0.95429 0.0
H989 H 0.01961 1.0118 0.96985 0.0
H990 H 0.92946 0.0352 0.9549 0.0
H991 H 0.9682 0.04965 0.97122 0.0
H992 H 0.01163 0.0964 0.84986 0.0
H993 H 0.05073 0.10745 0.8663 0.0
H994 H 0.97447 1.019 0.84757 0.0
H995 H 0.9358 0.99928 0.86335 0.0
C996 C 0.9769 0.5488 0.66247 0.0
C997 C 0.95705 0.54705 0.64018 0.0
C998 C 0.01136 0.52998 0.61665 0.0
C999 C 0.02987 0.52142 0.63942 0.0
N1000 N 0.0264 0.50192 0.68383 0.0
N1001 N 0.95529 0.51851 0.59631 0.0
C1002 C 0.01132 0.52391 0.66228 0.0
C1003 C 0.97415 0.53262 0.61723 0.0
N1004 N 0.9633 0.57574 0.68371 0.0
N1005 N 0.02887 0.53865 0.5947 0.0
H1006 H 0.92808 0.51616 0.59612 0.0
H1007 H 0.96693 0.50218 0.57984 0.0
H1008 H 0.05605 0.54013 0.59346 0.0
H1009 H 0.0162 0.55103 0.57813 0.0
H1010 H 0.97804 0.58212 0.69988 0.0
H1011 H 0.93879 0.59847 0.68419 0.0
H1012 H 0.0127 0.49874 0.70061 0.0
H1013 H 0.05114 0.48004 0.68418 0.0
C1014 C 0.97926 0.51601 0.38069 0.0
C1015 C 0.96142 0.51117 0.40375 0.0
C1016 C 0.01717 0.52608 0.42541 0.0
C1017 C 0.03321 0.54285 0.40229 0.0
N1018 N 0.02549 0.57237 0.35895 0.0
N1019 N 0.96283 0.52338 0.44861 0.0
C1020 C 0.01291 0.54379 0.38023 0.0
C1021 C 0.98014 0.51936 0.42639 0.0
N1022 N 0.96386 0.4946 0.35921 0.0
N1023 N 0.03699 0.51369 0.44605 0.0
H1024 H 0.93573 0.5196 0.45013 0.0
H1025 H 0.97527 0.53595 0.46522 0.0
H1026 H 0.06422 0.51528 0.44592 0.0
H1027 H 0.02643 0.49552 0.46261 0.0
H1028 H 0.97704 0.49322 0.34218 0.0
H1029 H 0.93939 0.4717 0.35909 0.0
H1030 H 0.01032 0.57818 0.34294 0.0
H1031 H 0.04953 0.59673 0.35831 0.0
C1032 C 0.47722 0.05116 0.68598 0.0
C1033 C 0.45842 0.05695 0.66329 0.0
C1034 C 0.51222 0.03309 0.64021 0.0
C1035 C 0.5295 1.0175 0.66293 0.0
N1036 N 0.52495 0.99666 0.70717 0.0
N1037 N 0.45671 0.03453 0.6189 0.0
C1038 C 0.51089 0.02189 0.68577 0.0
C1039 C 0.47546 0.04251 0.64036 0.0
N1040 N 0.46337 0.07517 0.70764 0.0
N1041 N 0.53075 0.04221 0.61868 0.0
H1042 H 0.42951 0.03692 0.61822 0.0
H1043 H 0.46805 1.01811 0.60234 0.0
H1044 H 0.55794 0.03984 0.61779 0.0
H1045 H 0.51924 0.05951 0.60231 0.0
H1046 H 0.47741 0.07706 0.72427 0.0
H1047 H 0.43936 0.09967 0.70831 0.0
H1048 H 0.51106 0.99377 0.72386 0.0
H1049 H 0.54897 0.97217 0.7075 0.0
C1050 C 0.48235 0.04643 0.38043 0.0
C1051 C 0.46097 0.04874 0.40203 0.0
C1052 C 0.51209 0.0785 0.42712 0.0
C1053 C 0.53243 0.08136 0.40503 0.0
N1054 N 0.53403 0.08921 0.36021 0.0
N1055 N 0.45388 0.0859 0.44465 0.0
C1056 C 0.51634 0.07311 0.38151 0.0
C1057 C 0.47527 0.07053 0.42508 0.0
N1058 N 0.47101 1.01562 0.35927 0.0
N1059 N 0.52782 0.08042 0.44995 0.0
H1060 H 0.42668 0.08384 0.44355 0.0
H1061 H 0.46304 0.10732 0.46105 0.0
H1062 H 0.55469 0.08666 0.45221 0.0
H1063 H 0.5144 0.07109 0.46651 0.0
H1064 H 0.48704 1.00796 0.34381 0.0
H1065 H 0.44706 0.99115 0.35821 0.0
H1066 H 0.52242 0.08861 0.34264 0.0
H1067 H 0.55906 0.10979 0.36057 0.0
C1068 C 0.50768 0.51462 0.17353 0.0
C1069 C 0.5276 0.53827 0.1531 0.0
C1070 C 0.48055 0.61715 0.14359 0.0
C1071 C 0.45855 0.5839 0.16079 0.0
N1072 N 0.46339 0.54583 0.20313 0.0
N1073 N 0.53342 0.61533 0.11876 0.0
C1074 C 0.47539 0.54506 0.17918 0.0
C1075 C 0.51411 0.59031 0.13801 0.0
N1076 N 0.51955 0.46314 0.18765 0.0
N1077 N 0.47249 0.68013 0.13661 0.0
H1078 H 0.55886 0.60012 0.11479 0.0
H1079 H 0.52311 0.64813 0.10569 0.0
H1080 H 0.45184 0.70573 0.14496 0.0
H1081 H 0.48895 0.70982 0.12592 0.0
H1082 H 0.50442 0.44141 0.20162 0.0
H1083 H 0.54296 0.43859 0.18378 0.0
H1084 H 0.47666 0.52331 0.21784 0.0
H1085 H 0.44258 0.57623 0.20845 0.0
C1086 C 0.47057 0.57076 0.92005 0.0
C1087 C 0.45665 0.55275 0.89639 0.0
C1088 C 0.51057 0.59039 0.87685 0.0
C1089 C 0.52714 0.59245 0.90039 0.0
N1090 N 0.5231 0.57688 0.94503 0.0
N1091 N 0.46819 0.5307 0.85274 0.0
C1092 C 0.50722 0.58107 0.92231 0.0
C1093 C 0.47793 0.55877 0.87482 0.0
N1094 N 0.44903 0.58054 0.94003 0.0
N1095 N 0.52694 0.61561 0.85632 0.0
H1096 H 0.44588 0.50147 0.85094 0.0
H1097 H 0.48446 0.52991 0.83713 0.0
H1098 H 0.55108 0.63952 0.8575 0.0
H1099 H 0.51483 0.61862 0.83894 0.0
H1100 H 0.45802 0.59859 0.95705 0.0
H1101 H 0.42186 0.57809 0.93877 0.0
H1102 H 0.5099 0.56166 0.96106 0.0
H1103 H 0.54985 0.58388 0.94754 0.0
C1104 C 0.20804 0.03336 1.01109 0.0
C1105 C 0.17733 1.01378 0.99828 0.0
C1106 C 0.14374 0.02308 0.03721 0.0
C1107 C 0.17376 0.04767 0.04959 0.0
N1108 N 0.23317 0.0858 0.04769 0.0
N1109 N 0.11483 1.00216 0.99772 0.0
C1110 C 0.20563 0.0554 0.03633 0.0
C1111 C 0.14481 1.01214 1.01099 0.0
N1112 N 0.23963 0.02862 0.99934 0.0
N1113 N 0.11457 1.00798 0.05078 0.0
H1114 H 0.11488 0.99589 0.97841 0.0
H1115 H 0.08988 1.00645 1.00537 0.0
H1116 H 0.11347 1.01367 0.0701 0.0
H1117 H 0.09285 0.98416 0.04333 0.0
H1118 H 0.26347 0.03574 1.00829 0.0
H1119 H 0.24205 1.01267 0.98093 0.0
H1120 H 0.25605 0.09908 0.03843 0.0
H1121 H 0.23199 0.10232 0.06608 0.0
C1122 C 0.7791 0.02313 1.01025 0.0
C1123 C 0.80733 0.05313 0.99731 0.0
C1124 C 0.84038 0.05968 0.03636 0.0
C1125 C 0.81365 0.02427 0.04896 0.0
N1126 N 0.76007 0.96243 0.04698 0.0
N1127 N 0.86796 0.0843 0.99676 0.0
C1128 C 0.78364 1.00314 0.03562 0.0
C1129 C 0.83896 0.06655 1.01003 0.0
N1130 N 0.74762 1.01617 0.99859 0.0
N1131 N 0.86621 0.08981 0.04971 0.0
H1132 H 0.86799 0.08708 0.97733 0.0
H1133 H 0.89266 0.08903 1.00476 0.0
H1134 H 0.8668 0.08959 0.06915 0.0
H1135 H 0.88466 0.12114 0.04167 0.0
H1136 H 0.72498 1.00079 1.00771 0.0
H1137 H 0.74357 0.03074 0.98016 0.0
H1138 H 0.73936 0.94014 0.03763 0.0
H1139 H 0.76303 0.94654 0.06536 0.0
C1140 C 0.21229 0.54777 0.53123 0.0
C1141 C 0.18002 0.55498 0.54403 0.0
C1142 C 0.14839 0.53096 0.50531 0.0
C1143 C 0.1805 0.51763 0.49307 0.0
N1144 N 0.24284 0.50383 0.49507 0.0
N1145 N 0.11764 0.54055 0.54471 0.0
C1146 C 0.21249 0.52353 0.50624 0.0
C1147 C 0.14811 0.54286 0.53143 0.0
N1148 N 0.24255 0.56631 0.54273 0.0
N1149 N 0.11831 0.53458 0.49168 0.0
H1150 H 0.11688 0.54675 0.56401 0.0
H1151 H 0.09384 0.52603 0.53705 0.0
H1152 H 0.11805 0.52867 0.47237 0.0
H1153 H 0.09445 0.54993 0.49906 0.0
H1154 H 0.26663 0.5685 0.53368 0.0
H1155 H 0.24302 0.58448 0.56092 0.0
H1156 H 0.26666 0.50067 0.5044 0.0
H1157 H 0.24359 0.48568 0.47689 0.0
C1158 C 0.77565 0.53734 0.50731 0.0
C1159 C 0.80777 0.54599 0.49445 0.0
C1160 C 0.83974 0.52818 0.53362 0.0
C1161 C 0.8079 0.51385 0.54605 0.0
N1162 N 0.74593 0.49521 0.54419 0.0
N1163 N 0.87042 0.53671 0.49411 0.0
C1164 C 0.77588 0.51588 0.53273 0.0
C1165 C 0.83986 0.53764 0.5073 0.0
N1166 N 0.74504 0.5519 0.49543 0.0
N1167 N 0.8697 0.53504 0.5472 0.0
H1168 H 0.87111 0.54129 0.47473 0.0
H1169 H 0.89453 0.5249 0.50198 0.0
H1170 H 0.87008 0.53069 0.56658 0.0
H1171 H 0.89325 0.55137 0.53963 0.0
H1172 H 0.72087 0.55309 0.50437 0.0
H1173 H 0.74425 0.5676 0.4769 0.0
H1174 H 0.72224 0.48918 0.53491 0.0
H1175 H 0.74549 0.47928 0.56269 0.0
C1176 C 0.64453 1.01795 0.53684 0.0
C1177 C 0.67058 0.0527 0.55032 0.0
C1178 C 0.70574 0.06089 0.51189 0.0
C1179 C 0.67824 0.03107 0.4982 0.0
N1180 N 0.61822 0.99655 0.49657 0.0
N1181 N 0.72334 0.11729 0.54985 0.0
C1182 C 0.64659 1.01447 0.51041 0.0
C1183 C 0.70051 0.0771 0.53758 0.0
N1184 N 0.6188 0.98508 0.54942 0.0
N1185 N 0.73726 0.07123 0.50059 0.0
H1186 H 0.71994 0.13031 0.56849 0.0
H1187 H 0.74384 0.14193 0.54107 0.0
H1188 H 0.74173 0.05987 0.4819 0.0
H1189 H 0.75954 0.08645 0.51015 0.0
H1190 H 0.6009 0.95401 0.54069 0.0
H1191 H 0.61779 0.9829 0.56883 0.0
H1192 H 0.59343 0.98946 0.5042 0.0
H1193 H 0.61874 0.99589 0.47711 0.0
C1194 C 0.28667 0.02298 0.51169 0.0
C1195 C 0.31693 0.04085 0.49785 0.0
C1196 C 0.35023 0.04753 0.53684 0.0
C1197 C 0.32121 0.02297 0.55052 0.0
N1198 N 0.26367 0.97463 0.54982 0.0
N1199 N 0.37954 0.05148 0.49685 0.0
C1200 C 0.28987 1.00702 0.53761 0.0
C1201 C 0.34936 0.04718 0.51036 0.0
N1202 N 0.25471 0.02399 0.50041 0.0
N1203 N 0.37796 0.07473 0.5491 0.0
H1204 H 0.37981 0.04781 0.47744 0.0
H1205 H 0.40428 0.05088 0.50499 0.0
H1206 H 0.37831 0.08094 0.5684 0.0
H1207 H 0.39851 0.0983 0.53993 0.0
H1208 H 0.23132 1.01793 0.51013 0.0
H1209 H 0.25144 0.03644 0.4817 0.0
H1210 H 0.24159 0.95622 0.54084 0.0
H1211 H 0.26562 0.96071 0.56847 0.0
C1212 C 0.70471 0.56857 0.03423 0.0
C1213 C 0.67233 0.56565 0.04719 0.0
C1214 C 0.64233 0.54297 1.00759 0.0
C1215 C 0.67495 0.53846 0.99511 0.0
N1216 N 0.73772 0.53828 0.99714 0.0
N1217 N 0.61132 0.53696 0.04698 0.0
C1218 C 0.70636 0.54914 1.00859 0.0
C1219 C 0.64138 0.54928 0.03403 0.0
N1220 N 0.7336 0.59205 0.0462 0.0
N1221 N 0.61218 0.54307 0.99396 0.0
H1222 H 0.61021 0.53816 0.06641 0.0
H1223 H 0.58864 0.51889 0.0387 0.0
H1224 H 0.61223 0.54102 0.97452 0.0
H1225 H 0.58762 0.55214 1.00167 0.0
H1226 H 0.75723 0.60158 0.03724 0.0
H1227 H 0.733 0.60715 0.06478 0.0
H1228 H 0.76155 0.53858 1.00653 0.0
H1229 H 0.73961 0.52401 0.97851 0.0
C1230 C 0.28306 0.52055 1.00564 0.0
C1231 C 0.314 0.53573 0.99209 0.0
C1232 C 0.347 0.53627 0.03121 0.0
C1233 C 0.3172 0.51366 0.0445 0.0
N1234 N 0.2584 0.47136 0.04308 0.0
N1235 N 0.37691 0.53829 0.9915 0.0
C1236 C 0.28557 0.50204 0.03134 0.0
C1237 C 0.34645 0.53734 1.00478 0.0
N1238 N 0.25126 0.52657 0.99436 0.0
N1239 N 0.37525 0.56025 0.04383 0.0
H1240 H 0.37736 0.53495 0.97209 0.0
H1241 H 0.40145 0.53439 0.99984 0.0
H1242 H 0.37546 0.56574 0.06315 0.0
H1243 H 0.3965 0.58223 0.0349 0.0
H1244 H 0.22768 0.52235 1.00398 0.0
H1245 H 0.24851 0.5416 0.97587 0.0
H1246 H 0.23583 0.45628 0.03383 0.0
H1247 H 0.25992 0.45529 0.06153 0.0
loop_
_geom_bond_atom_site_label_1
_geom_bond_atom_site_label_2
_geom_bond_distance
_geom_bond_site_symmetry_2
_ccdc_geom_bond_type
C0 C1 1.351 . S
C0 N3 1.368 . S
C0 H5 0.931 . S
C1 C0 1.351 . S
C1 N2 1.373 . S
C1 H29 0.930 . S
N2 C1 1.373 . S
N2 C4 1.340 . S
N3 C0 1.368 . S
N3 C4 1.321 . S
N3 Co6 2.135 . S
C4 N2 1.340 . S
C4 N3 1.321 . S
C4 H28 0.930 1_545 S
H5 C0 0.931 . S
Co6 N3 2.135 . S
Co6 N9 2.121 . S
Co6 O14 2.055 . S
Co6 O17 2.039 1_545 S
Co6 N20 2.140 . S
C7 O8 1.227 . S
C7 O17 1.265 . S
O8 C7 1.227 . S
N9 Co6 2.121 . S
N9 C11 1.375 1_545 S
N9 C12 1.313 . S
C10 C11 1.338 . S
C10 N13 1.377 1_565 S
C10 H30 0.930 . S
C11 N9 1.375 1_565 S
C11 C10 1.338 . S
C11 H15 0.931 . S
C12 N9 1.313 . S
C12 N13 1.344 . S
C12 H16 0.930 . S
N13 C10 1.377 1_545 S
N13 C12 1.344 . S
O14 Co6 2.055 . S
O14 C18 1.253 . S
H15 C11 0.931 . S
H16 C12 0.930 . S
O17 Co6 2.039 1_565 S
O17 C7 1.265 . S
C18 O14 1.253 . S
C18 O19 1.227 . S
O19 C18 1.227 . S
N20 Co6 2.140 . S
N20 C23 1.346 1_545 S
N20 C24 1.345 . S
C21 C22 1.387 1_545 S
C21 C25 1.391 . S
C22 C21 1.387 1_565 S
C22 C23 1.369 . S
C22 H31 0.929 . S
C23 N20 1.346 1_565 S
C23 C22 1.369 . S
C23 H26 0.928 . S
C24 N20 1.345 . S
C24 C25 1.371 . S
C24 H27 0.931 . S
C25 C21 1.391 . S
C25 C24 1.371 . S
C25 H32 0.930 . S
H26 C23 0.928 . S
H27 C24 0.931 . S
H28 C4 0.930 1_565 S
H29 C1 0.930 . S
H30 C10 0.930 . S
H31 C22 0.929 . S
H32 C25 0.930 . S
C33 C34 1.351 . S
C33 N36 1.368 . S
C33 H38 0.931 . S
C34 C33 1.351 . S
C34 N35 1.373 1_565 S
C34 H62 0.930 . S
N35 C34 1.373 1_545 S
N35 C37 1.340 . S
N36 C33 1.368 . S
N36 C37 1.321 1_565 S
N36 Co39 2.135 1_565 S
C37 N35 1.340 . S
C37 N36 1.321 1_545 S
C37 H61 0.930 . S
H38 C33 0.931 . S
Co39 N36 2.135 1_545 S
Co39 N42 2.121 . S
Co39 O47 2.055 1_545 S
Co39 O50 2.039 . S
Co39 N53 2.140 . S
C40 O41 1.227 . S
C40 O50 1.265 . S
O41 C40 1.227 . S
N42 Co39 2.121 . S
N42 C44 1.375 . S
N42 C45 1.313 1_545 S
C43 C44 1.338 . S
C43 N46 1.377 . S
C43 H63 0.930 . S
C44 N42 1.375 . S
C44 C43 1.338 . S
C44 H48 0.931 . S
C45 N42 1.313 1_565 S
C45 N46 1.344 1_565 S
C45 H49 0.930 . S
N46 C43 1.377 . S
N46 C45 1.344 1_545 S
O47 Co39 2.055 1_565 S
O47 C51 1.253 . S
H48 C44 0.931 . S
H49 C45 0.930 . S
O50 Co39 2.039 . S
O50 C40 1.265 . S
C51 O47 1.253 . S
C51 O52 1.227 . S
O52 C51 1.227 . S
N53 Co39 2.140 . S
N53 C56 1.346 . S
N53 C57 1.345 1_545 S
C54 C55 1.387 . S
C54 C58 1.391 1_545 S
C55 C54 1.387 . S
C55 C56 1.369 . S
C55 H64 0.929 . S
C56 N53 1.346 . S
C56 C55 1.369 . S
C56 H59 0.928 . S
C57 N53 1.345 1_565 S
C57 C58 1.371 . S
C57 H60 0.931 . S
C58 C54 1.391 1_565 S
C58 C57 1.371 . S
C58 H65 0.930 . S
H59 C56 0.928 . S
H60 C57 0.931 . S
H61 C37 0.930 . S
H62 C34 0.930 . S
H63 C43 0.930 . S
H64 C55 0.929 . S
H65 C58 0.930 . S
C66 C67 1.351 . S
C66 N69 1.368 . S
C66 H71 0.931 . S
C67 C66 1.351 . S
C67 N68 1.373 1_565 S
C67 H95 0.930 . S
N68 C67 1.373 1_545 S
N68 C70 1.340 . S
N69 C66 1.368 . S
N69 C70 1.321 1_565 S
N69 Co72 2.135 1_565 S
C70 N68 1.340 . S
C70 N69 1.321 1_545 S
C70 H94 0.930 . S
H71 C66 0.931 . S
Co72 N69 2.135 1_545 S
Co72 N75 2.121 . S
Co72 O80 2.055 1_545 S
Co72 O83 2.039 . S
Co72 N86 2.140 . S
C73 O74 1.227 . S
C73 O83 1.265 . S
O74 C73 1.227 . S
N75 Co72 2.121 . S
N75 C77 1.375 . S
N75 C78 1.313 1_545 S
C76 C77 1.338 . S
C76 N79 1.377 . S
C76 H96 0.930 . S
C77 N75 1.375 . S
C77 C76 1.338 . S
C77 H81 0.931 . S
C78 N75 1.313 1_565 S
C78 N79 1.344 1_565 S
C78 H82 0.930 . S
N79 C76 1.377 . S
N79 C78 1.344 1_545 S
O80 Co72 2.055 1_565 S
O80 C84 1.253 . S
H81 C77 0.931 . S
H82 C78 0.930 . S
O83 Co72 2.039 . S
O83 C73 1.265 . S
C84 O80 1.253 . S
C84 O85 1.227 . S
O85 C84 1.227 . S
N86 Co72 2.140 . S
N86 C89 1.346 . S
N86 C90 1.345 1_545 S
C87 C88 1.387 . S
C87 C91 1.391 1_545 S
C88 C87 1.387 . S
C88 C89 1.369 . S
C88 H97 0.929 . S
C89 N86 1.346 . S
C89 C88 1.369 . S
C89 H92 0.928 . S
C90 N86 1.345 1_565 S
C90 C91 1.371 . S
C90 H93 0.931 . S
C91 C87 1.391 1_565 S
C91 C90 1.371 . S
C91 H98 0.930 . S
H92 C89 0.928 . S
H93 C90 0.931 . S
H94 C70 0.930 . S
H95 C67 0.930 . S
H96 C76 0.930 . S
H97 C88 0.929 . S
H98 C91 0.930 . S
C99 C100 1.351 . S
C99 N102 1.368 . S
C99 H104 0.931 . S
C100 C99 1.351 . S
C100 N101 1.373 . S
C100 H128 0.930 . S
N101 C100 1.373 . S
N101 C103 1.340 . S
N102 C99 1.368 . S
N102 C103 1.321 . S
N102 Co105 2.135 . S
C103 N101 1.340 . S
C103 N102 1.321 . S
C103 H127 0.930 1_545 S
H104 C99 0.931 . S
Co105 N102 2.135 . S
Co105 N108 2.121 . S
Co105 O113 2.055 . S
Co105 O116 2.039 1_545 S
Co105 N119 2.140 . S
C106 O107 1.227 . S
C106 O116 1.265 . S
O107 C106 1.227 . S
N108 Co105 2.121 . S
N108 C110 1.375 1_545 S
N108 C111 1.313 . S
C109 C110 1.338 . S
C109 N112 1.377 1_565 S
C109 H129 0.930 . S
C110 N108 1.375 1_565 S
C110 C109 1.338 . S
C110 H114 0.931 . S
C111 N108 1.313 . S
C111 N112 1.344 . S
C111 H115 0.930 . S
N112 C109 1.377 1_545 S
N112 C111 1.344 . S
O113 Co105 2.055 . S
O113 C117 1.253 . S
H114 C110 0.931 . S
H115 C111 0.930 . S
O116 Co105 2.039 1_565 S
O116 C106 1.265 . S
C117 O113 1.253 . S
C117 O118 1.227 . S
O118 C117 1.227 . S
N119 Co105 2.140 . S
N119 C122 1.346 1_545 S
N119 C123 1.345 . S
C120 C121 1.387 1_545 S
C120 C124 1.391 . S
C121 C120 1.387 1_565 S
C121 C122 1.369 . S
C121 H130 0.929 . S
C122 N119 1.346 1_565 S
C122 C121 1.369 . S
C122 H125 0.928 . S
C123 N119 1.345 . S
C123 C124 1.371 . S
C123 H126 0.931 . S
C124 C120 1.391 . S
C124 C123 1.371 . S
C124 H131 0.930 . S
H125 C122 0.928 . S
H126 C123 0.931 . S
H127 C103 0.930 1_565 S
H128 C100 0.930 . S
H129 C109 0.930 . S
H130 C121 0.929 . S
H131 C124 0.930 . S
C132 C133 1.351 . S
C132 N135 1.368 . S
C132 H137 0.931 . S
C133 C132 1.351 . S
C133 N134 1.373 . S
C133 H161 0.930 . S
N134 C133 1.373 . S
N134 C136 1.340 . S
N135 C132 1.368 . S
N135 C136 1.321 . S
N135 Co138 2.135 . S
C136 N134 1.340 . S
C136 N135 1.321 . S
C136 H160 0.930 . S
H137 C132 0.931 . S
Co138 N135 2.135 . S
Co138 N141 2.121 . S
Co138 O146 2.055 . S
Co138 O149 2.039 . S
Co138 N152 2.140 . S
C139 O140 1.227 . S
C139 O149 1.265 . S
O140 C139 1.227 . S
N141 Co138 2.121 . S
N141 C143 1.375 . S
N141 C144 1.313 . S
C142 C143 1.338 . S
C142 N145 1.377 . S
C142 H162 0.930 . S
C143 N141 1.375 . S
C143 C142 1.338 . S
C143 H147 0.931 . S
C144 N141 1.313 . S
C144 N145 1.344 . S
C144 H148 0.930 . S
N145 C142 1.377 . S
N145 C144 1.344 . S
O146 Co138 2.055 . S
O146 C150 1.253 . S
H147 C143 0.931 . S
H148 C144 0.930 . S
O149 Co138 2.039 . S
O149 C139 1.265 . S
C150 O146 1.253 . S
C150 O151 1.227 . S
O151 C150 1.227 . S
N152 Co138 2.140 . S
N152 C155 1.346 . S
N152 C156 1.345 . S
C153 C154 1.387 . S
C153 C157 1.391 . S
C154 C153 1.387 . S
C154 C155 1.369 . S
C154 H163 0.929 . S
C155 N152 1.346 . S
C155 C154 1.369 . S
C155 H158 0.928 . S
C156 N152 1.345 . S
C156 C157 1.371 . S
C156 H159 0.931 . S
C157 C153 1.391 . S
C157 C156 1.371 . S
C157 H164 0.930 . S
H158 C155 0.928 . S
H159 C156 0.931 . S
H160 C136 0.930 . S
H161 C133 0.930 . S
H162 C142 0.930 . S
H163 C154 0.929 . S
H164 C157 0.930 . S
C165 C166 1.351 . S
C165 N168 1.368 . S
C165 H170 0.931 . S
C166 C165 1.351 . S
C166 N167 1.373 . S
C166 H194 0.930 . S
N167 C166 1.373 . S
N167 C169 1.340 . S
N168 C165 1.368 . S
N168 C169 1.321 . S
N168 Co171 2.135 . S
C169 N167 1.340 . S
C169 N168 1.321 . S
C169 H193 0.930 . S
H170 C165 0.931 . S
Co171 N168 2.135 . S
Co171 N174 2.121 . S
Co171 O179 2.055 . S
Co171 O182 2.039 . S
Co171 N185 2.140 . S
C172 O173 1.227 . S
C172 O182 1.265 . S
O173 C172 1.227 . S
N174 Co171 2.121 . S
N174 C176 1.375 . S
N174 C177 1.313 . S
C175 C176 1.338 . S
C175 N178 1.377 . S
C175 H195 0.930 . S
C176 N174 1.375 . S
C176 C175 1.338 . S
C176 H180 0.931 . S
C177 N174 1.313 . S
C177 N178 1.344 . S
C177 H181 0.930 . S
N178 C175 1.377 . S
N178 C177 1.344 . S
O179 Co171 2.055 . S
O179 C183 1.253 . S
H180 C176 0.931 . S
H181 C177 0.930 . S
O182 Co171 2.039 . S
O182 C172 1.265 . S
C183 O179 1.253 . S
C183 O184 1.227 . S
O184 C183 1.227 . S
N185 Co171 2.140 . S
N185 C188 1.346 . S
N185 C189 1.345 . S
C186 C187 1.387 . S
C186 C190 1.391 . S
C187 C186 1.387 . S
C187 C188 1.369 . S
C187 H196 0.929 . S
C188 N185 1.346 . S
C188 C187 1.369 . S
C188 H191 0.928 . S
C189 N185 1.345 . S
C189 C190 1.371 . S
C189 H192 0.931 . S
C190 C186 1.391 . S
C190 C189 1.371 . S
C190 H197 0.930 . S
H191 C188 0.928 . S
H192 C189 0.931 . S
H193 C169 0.930 . S
H194 C166 0.930 . S
H195 C175 0.930 . S
H196 C187 0.929 . S
H197 C190 0.930 . S
C198 C199 1.351 . S
C198 N201 1.368 . S
C198 H203 0.931 . S
C199 C198 1.351 . S
C199 N200 1.373 . S
C199 H227 0.930 . S
N200 C199 1.373 . S
N200 C202 1.340 . S
N201 C198 1.368 . S
N201 C202 1.321 . S
N201 Co204 2.135 . S
C202 N200 1.340 . S
C202 N201 1.321 . S
C202 H226 0.930 . S
H203 C198 0.931 . S
Co204 N201 2.135 . S
Co204 N207 2.121 . S
Co204 O212 2.055 . S
Co204 O215 2.039 . S
Co204 N218 2.140 . S
C205 O206 1.227 . S
C205 O215 1.265 . S
O206 C205 1.227 . S
N207 Co204 2.121 . S
N207 C209 1.375 . S
N207 C210 1.313 . S
C208 C209 1.338 . S
C208 N211 1.377 . S
C208 H228 0.930 . S
C209 N207 1.375 . S
C209 C208 1.338 . S
C209 H213 0.931 . S
C210 N207 1.313 . S
C210 N211 1.344 . S
C210 H214 0.930 . S
N211 C208 1.377 . S
N211 C210 1.344 . S
O212 Co204 2.055 . S
O212 C216 1.253 . S
H213 C209 0.931 . S
H214 C210 0.930 . S
O215 Co204 2.039 . S
O215 C205 1.265 . S
C216 O212 1.253 . S
C216 O217 1.227 . S
O217 C216 1.227 . S
N218 Co204 2.140 . S
N218 C221 1.346 . S
N218 C222 1.345 . S
C219 C220 1.387 . S
C219 C223 1.391 . S
C220 C219 1.387 . S
C220 C221 1.369 . S
C220 H229 0.929 . S
C221 N218 1.346 . S
C221 C220 1.369 . S
C221 H224 0.928 . S
C222 N218 1.345 . S
C222 C223 1.371 . S
C222 H225 0.931 . S
C223 C219 1.391 . S
C223 C222 1.371 . S
C223 H230 0.930 . S
H224 C221 0.928 . S
H225 C222 0.931 . S
H226 C202 0.930 . S
H227 C199 0.930 . S
H228 C208 0.930 . S
H229 C220 0.929 . S
H230 C223 0.930 . S
C231 C232 1.351 . S
C231 N234 1.368 . S
C231 H236 0.931 . S
C232 C231 1.351 . S
C232 N233 1.373 . S
C232 H260 0.930 . S
N233 C232 1.373 . S
N233 C235 1.340 . S
N234 C231 1.368 . S
N234 C235 1.321 . S
N234 Co237 2.135 . S
C235 N233 1.340 . S
C235 N234 1.321 . S
C235 H259 0.930 . S
H236 C231 0.931 . S
Co237 N234 2.135 . S
Co237 N240 2.121 . S
Co237 O245 2.055 . S
Co237 O248 2.039 . S
Co237 N251 2.140 . S
C238 O239 1.227 . S
C238 O248 1.265 . S
O239 C238 1.227 . S
N240 Co237 2.121 . S
N240 C242 1.375 . S
N240 C243 1.313 . S
C241 C242 1.338 . S
C241 N244 1.377 . S
C241 H261 0.930 . S
C242 N240 1.375 . S
C242 C241 1.338 . S
C242 H246 0.931 . S
C243 N240 1.313 . S
C243 N244 1.344 . S
C243 H247 0.930 . S
N244 C241 1.377 . S
N244 C243 1.344 . S
O245 Co237 2.055 . S
O245 C249 1.253 . S
H246 C242 0.931 . S
H247 C243 0.930 . S
O248 Co237 2.039 . S
O248 C238 1.265 . S
C249 O245 1.253 . S
C249 O250 1.227 . S
O250 C249 1.227 . S
N251 Co237 2.140 . S
N251 C254 1.346 . S
N251 C255 1.345 . S
C252 C253 1.387 . S
C252 C256 1.391 . S
C253 C252 1.387 . S
C253 C254 1.369 . S
C253 H262 0.929 . S
C254 N251 1.346 . S
C254 C253 1.369 . S
C254 H257 0.928 . S
C255 N251 1.345 . S
C255 C256 1.371 . S
C255 H258 0.931 . S
C256 C252 1.391 . S
C256 C255 1.371 . S
C256 H263 0.930 . S
H257 C254 0.928 . S
H258 C255 0.931 . S
H259 C235 0.930 . S
H260 C232 0.930 . S
H261 C241 0.930 . S
H262 C253 0.929 . S
H263 C256 0.930 . S
C264 C265 1.351 . S
C264 N267 1.368 . S
C264 H269 0.931 . S
C265 C264 1.351 . S
C265 N266 1.373 . S
C265 H293 0.930 . S
N266 C265 1.373 . S
N266 C268 1.340 . S
N267 C264 1.368 . S
N267 C268 1.321 . S
N267 Co270 2.135 . S
C268 N266 1.340 . S
C268 N267 1.321 . S
C268 H292 0.930 1_545 S
H269 C264 0.931 . S
Co270 N267 2.135 . S
Co270 N273 2.121 . S
Co270 O278 2.055 . S
Co270 O281 2.039 1_545 S
Co270 N284 2.140 . S
C271 O272 1.227 . S
C271 O281 1.265 . S
O272 C271 1.227 . S
N273 Co270 2.121 . S
N273 C275 1.375 1_545 S
N273 C276 1.313 . S
C274 C275 1.338 . S
C274 N277 1.377 1_565 S
C274 H294 0.930 . S
C275 N273 1.375 1_565 S
C275 C274 1.338 . S
C275 H279 0.931 . S
C276 N273 1.313 . S
C276 N277 1.344 . S
C276 H280 0.930 . S
N277 C274 1.377 1_545 S
N277 C276 1.344 . S
O278 Co270 2.055 . S
O278 C282 1.253 . S
H279 C275 0.931 . S
H280 C276 0.930 . S
O281 Co270 2.039 1_565 S
O281 C271 1.265 . S
C282 O278 1.253 . S
C282 O283 1.227 . S
O283 C282 1.227 . S
N284 Co270 2.140 . S
N284 C287 1.346 1_545 S
N284 C288 1.345 . S
C285 C286 1.387 1_545 S
C285 C289 1.391 . S
C286 C285 1.387 1_565 S
C286 C287 1.369 . S
C286 H295 0.929 . S
C287 N284 1.346 1_565 S
C287 C286 1.369 . S
C287 H290 0.928 . S
C288 N284 1.345 . S
C288 C289 1.371 . S
C288 H291 0.931 . S
C289 C285 1.391 . S
C289 C288 1.371 . S
C289 H296 0.930 . S
H290 C287 0.928 . S
H291 C288 0.931 . S
H292 C268 0.930 1_565 S
H293 C265 0.930 . S
H294 C274 0.930 . S
H295 C286 0.929 . S
H296 C289 0.930 . S
C297 C298 1.351 . S
C297 N300 1.368 . S
C297 H302 0.931 . S
C298 C297 1.351 . S
C298 N299 1.373 1_565 S
C298 H326 0.930 . S
N299 C298 1.373 1_545 S
N299 C301 1.340 . S
N300 C297 1.368 . S
N300 C301 1.321 1_565 S
N300 Co303 2.135 1_565 S
C301 N299 1.340 . S
C301 N300 1.321 1_545 S
C301 H325 0.930 . S
H302 C297 0.931 . S
Co303 N300 2.135 1_545 S
Co303 N306 2.121 . S
Co303 O311 2.055 1_545 S
Co303 O314 2.039 . S
Co303 N317 2.140 . S
C304 O305 1.227 . S
C304 O314 1.265 . S
O305 C304 1.227 . S
N306 Co303 2.121 . S
N306 C308 1.375 . S
N306 C309 1.313 1_545 S
C307 C308 1.338 . S
C307 N310 1.377 . S
C307 H327 0.930 . S
C308 N306 1.375 . S
C308 C307 1.338 . S
C308 H312 0.931 . S
C309 N306 1.313 1_565 S
C309 N310 1.344 1_565 S
C309 H313 0.930 . S
N310 C307 1.377 . S
N310 C309 1.344 1_545 S
O311 Co303 2.055 1_565 S
O311 C315 1.253 . S
H312 C308 0.931 . S
H313 C309 0.930 . S
O314 Co303 2.039 . S
O314 C304 1.265 . S
C315 O311 1.253 . S
C315 O316 1.227 . S
O316 C315 1.227 . S
N317 Co303 2.140 . S
N317 C320 1.346 . S
N317 C321 1.345 1_545 S
C318 C319 1.387 . S
C318 C322 1.391 1_545 S
C319 C318 1.387 . S
C319 C320 1.369 . S
C319 H328 0.929 . S
C320 N317 1.346 . S
C320 C319 1.369 . S
C320 H323 0.928 . S
C321 N317 1.345 1_565 S
C321 C322 1.371 . S
C321 H324 0.931 . S
C322 C318 1.391 1_565 S
C322 C321 1.371 . S
C322 H329 0.930 . S
H323 C320 0.928 . S
H324 C321 0.931 . S
H325 C301 0.930 . S
H326 C298 0.930 . S
H327 C307 0.930 . S
H328 C319 0.929 . S
H329 C322 0.930 . S
C330 C331 1.351 . S
C330 N333 1.368 . S
C330 H335 0.931 . S
C331 C330 1.351 . S
C331 N332 1.373 1_565 S
C331 H359 0.930 . S
N332 C331 1.373 1_545 S
N332 C334 1.340 . S
N333 C330 1.368 . S
N333 C334 1.321 1_565 S
N333 Co336 2.135 1_565 S
C334 N332 1.340 . S
C334 N333 1.321 1_545 S
C334 H358 0.930 . S
H335 C330 0.931 . S
Co336 N333 2.135 1_545 S
Co336 N339 2.121 . S
Co336 O344 2.055 1_545 S
Co336 O347 2.039 . S
Co336 N350 2.140 . S
C337 O338 1.227 . S
C337 O347 1.265 . S
O338 C337 1.227 . S
N339 Co336 2.121 . S
N339 C341 1.375 . S
N339 C342 1.313 1_545 S
C340 C341 1.338 . S
C340 N343 1.377 . S
C340 H360 0.930 . S
C341 N339 1.375 . S
C341 C340 1.338 . S
C341 H345 0.931 . S
C342 N339 1.313 1_565 S
C342 N343 1.344 1_565 S
C342 H346 0.930 . S
N343 C340 1.377 . S
N343 C342 1.344 1_545 S
O344 Co336 2.055 1_565 S
O344 C348 1.253 . S
H345 C341 0.931 . S
H346 C342 0.930 . S
O347 Co336 2.039 . S
O347 C337 1.265 . S
C348 O344 1.253 . S
C348 O349 1.227 . S
O349 C348 1.227 . S
N350 Co336 2.140 . S
N350 C353 1.346 . S
N350 C354 1.345 1_545 S
C351 C352 1.387 . S
C351 C355 1.391 1_545 S
C352 C351 1.387 . S
C352 C353 1.369 . S
C352 H361 0.929 . S
C353 N350 1.346 . S
C353 C352 1.369 . S
C353 H356 0.928 . S
C354 N350 1.345 1_565 S
C354 C355 1.371 . S
C354 H357 0.931 . S
C355 C351 1.391 1_565 S
C355 C354 1.371 . S
C355 H362 0.930 . S
H356 C353 0.928 . S
H357 C354 0.931 . S
H358 C334 0.930 . S
H359 C331 0.930 . S
H360 C340 0.930 . S
H361 C352 0.929 . S
H362 C355 0.930 . S
C363 C364 1.351 . S
C363 N366 1.368 . S
C363 H368 0.931 . S
C364 C363 1.351 . S
C364 N365 1.373 . S
C364 H392 0.930 . S
N365 C364 1.373 . S
N365 C367 1.340 . S
N366 C363 1.368 . S
N366 C367 1.321 . S
N366 Co369 2.135 . S
C367 N365 1.340 . S
C367 N366 1.321 . S
C367 H391 0.930 1_545 S
H368 C363 0.931 . S
Co369 N366 2.135 . S
Co369 N372 2.121 . S
Co369 O377 2.055 . S
Co369 O380 2.039 1_545 S
Co369 N383 2.140 . S
C370 O371 1.227 . S
C370 O380 1.265 . S
O371 C370 1.227 . S
N372 Co369 2.121 . S
N372 C374 1.375 1_545 S
N372 C375 1.313 . S
C373 C374 1.338 . S
C373 N376 1.377 1_565 S
C373 H393 0.930 . S
C374 N372 1.375 1_565 S
C374 C373 1.338 . S
C374 H378 0.931 . S
C375 N372 1.313 . S
C375 N376 1.344 . S
C375 H379 0.930 . S
N376 C373 1.377 1_545 S
N376 C375 1.344 . S
O377 Co369 2.055 . S
O377 C381 1.253 . S
H378 C374 0.931 . S
H379 C375 0.930 . S
O380 Co369 2.039 1_565 S
O380 C370 1.265 . S
C381 O377 1.253 . S
C381 O382 1.227 . S
O382 C381 1.227 . S
N383 Co369 2.140 . S
N383 C386 1.346 1_545 S
N383 C387 1.345 . S
C384 C385 1.387 1_545 S
C384 C388 1.391 . S
C385 C384 1.387 1_565 S
C385 C386 1.369 . S
C385 H394 0.929 . S
C386 N383 1.346 1_565 S
C386 C385 1.369 . S
C386 H389 0.928 . S
C387 N383 1.345 . S
C387 C388 1.371 . S
C387 H390 0.931 . S
C388 C384 1.391 . S
C388 C387 1.371 . S
C388 H395 0.930 . S
H389 C386 0.928 . S
H390 C387 0.931 . S
H391 C367 0.930 1_565 S
H392 C364 0.930 . S
H393 C373 0.930 . S
H394 C385 0.929 . S
H395 C388 0.930 . S
C396 C397 1.351 . S
C396 N399 1.368 . S
C396 H401 0.931 . S
C397 C396 1.351 . S
C397 N398 1.373 . S
C397 H425 0.930 . S
N398 C397 1.373 . S
N398 C400 1.340 . S
N399 C396 1.368 . S
N399 C400 1.321 . S
N399 Co402 2.135 . S
C400 N398 1.340 . S
C400 N399 1.321 . S
C400 H424 0.930 . S
H401 C396 0.931 . S
Co402 N399 2.135 . S
Co402 N405 2.121 . S
Co402 O410 2.055 . S
Co402 O413 2.039 . S
Co402 N416 2.140 . S
C403 O404 1.227 . S
C403 O413 1.265 . S
O404 C403 1.227 . S
N405 Co402 2.121 . S
N405 C407 1.375 . S
N405 C408 1.313 . S
C406 C407 1.338 . S
C406 N409 1.377 . S
C406 H426 0.930 . S
C407 N405 1.375 . S
C407 C406 1.338 . S
C407 H411 0.931 . S
C408 N405 1.313 . S
C408 N409 1.344 . S
C408 H412 0.930 . S
N409 C406 1.377 . S
N409 C408 1.344 . S
O410 Co402 2.055 . S
O410 C414 1.253 . S
H411 C407 0.931 . S
H412 C408 0.930 . S
O413 Co402 2.039 . S
O413 C403 1.265 . S
C414 O410 1.253 . S
C414 O415 1.227 . S
O415 C414 1.227 . S
N416 Co402 2.140 . S
N416 C419 1.346 . S
N416 C420 1.345 . S
C417 C418 1.387 . S
C417 C421 1.391 . S
C418 C417 1.387 . S
C418 C419 1.369 . S
C418 H427 0.929 . S
C419 N416 1.346 . S
C419 C418 1.369 . S
C419 H422 0.928 . S
C420 N416 1.345 . S
C420 C421 1.371 . S
C420 H423 0.931 . S
C421 C417 1.391 . S
C421 C420 1.371 . S
C421 H428 0.930 . S
H422 C419 0.928 . S
H423 C420 0.931 . S
H424 C400 0.930 . S
H425 C397 0.930 . S
H426 C406 0.930 . S
H427 C418 0.929 . S
H428 C421 0.930 . S
C429 C430 1.351 . S
C429 N432 1.368 . S
C429 H434 0.931 . S
C430 C429 1.351 . S
C430 N431 1.373 . S
C430 H458 0.930 . S
N431 C430 1.373 . S
N431 C433 1.340 . S
N432 C429 1.368 . S
N432 C433 1.321 . S
N432 Co435 2.135 . S
C433 N431 1.340 . S
C433 N432 1.321 . S
C433 H457 0.930 . S
H434 C429 0.931 . S
Co435 N432 2.135 . S
Co435 N438 2.121 . S
Co435 O443 2.055 . S
Co435 O446 2.039 . S
Co435 N449 2.140 . S
C436 O437 1.227 . S
C436 O446 1.265 . S
O437 C436 1.227 . S
N438 Co435 2.121 . S
N438 C440 1.375 . S
N438 C441 1.313 . S
C439 C440 1.338 . S
C439 N442 1.377 . S
C439 H459 0.930 . S
C440 N438 1.375 . S
C440 C439 1.338 . S
C440 H444 0.931 . S
C441 N438 1.313 . S
C441 N442 1.344 . S
C441 H445 0.930 . S
N442 C439 1.377 . S
N442 C441 1.344 . S
O443 Co435 2.055 . S
O443 C447 1.253 . S
H444 C440 0.931 . S
H445 C441 0.930 . S
O446 Co435 2.039 . S
O446 C436 1.265 . S
C447 O443 1.253 . S
C447 O448 1.227 . S
O448 C447 1.227 . S
N449 Co435 2.140 . S
N449 C452 1.346 . S
N449 C453 1.345 . S
C450 C451 1.387 . S
C450 C454 1.391 . S
C451 C450 1.387 . S
C451 C452 1.369 . S
C451 H460 0.929 . S
C452 N449 1.346 . S
C452 C451 1.369 . S
C452 H455 0.928 . S
C453 N449 1.345 . S
C453 C454 1.371 . S
C453 H456 0.931 . S
C454 C450 1.391 . S
C454 C453 1.371 . S
C454 H461 0.930 . S
H455 C452 0.928 . S
H456 C453 0.931 . S
H457 C433 0.930 . S
H458 C430 0.930 . S
H459 C439 0.930 . S
H460 C451 0.929 . S
H461 C454 0.930 . S
C462 C463 1.351 . S
C462 N465 1.368 . S
C462 H467 0.931 . S
C463 C462 1.351 . S
C463 N464 1.373 . S
C463 H491 0.930 . S
N464 C463 1.373 . S
N464 C466 1.340 . S
N465 C462 1.368 . S
N465 C466 1.321 . S
N465 Co468 2.135 . S
C466 N464 1.340 . S
C466 N465 1.321 . S
C466 H490 0.930 . S
H467 C462 0.931 . S
Co468 N465 2.135 . S
Co468 N471 2.121 . S
Co468 O476 2.055 . S
Co468 O479 2.039 . S
Co468 N482 2.140 . S
C469 O470 1.227 . S
C469 O479 1.265 . S
O470 C469 1.227 . S
N471 Co468 2.121 . S
N471 C473 1.375 . S
N471 C474 1.313 . S
C472 C473 1.338 . S
C472 N475 1.377 . S
C472 H492 0.930 . S
C473 N471 1.375 . S
C473 C472 1.338 . S
C473 H477 0.931 . S
C474 N471 1.313 . S
C474 N475 1.344 . S
C474 H478 0.930 . S
N475 C472 1.377 . S
N475 C474 1.344 . S
O476 Co468 2.055 . S
O476 C480 1.253 . S
H477 C473 0.931 . S
H478 C474 0.930 . S
O479 Co468 2.039 . S
O479 C469 1.265 . S
C480 O476 1.253 . S
C480 O481 1.227 . S
O481 C480 1.227 . S
N482 Co468 2.140 . S
N482 C485 1.346 . S
N482 C486 1.345 . S
C483 C484 1.387 . S
C483 C487 1.391 . S
C484 C483 1.387 . S
C484 C485 1.369 . S
C484 H493 0.929 . S
C485 N482 1.346 . S
C485 C484 1.369 . S
C485 H488 0.928 . S
C486 N482 1.345 . S
C486 C487 1.371 . S
C486 H489 0.931 . S
C487 C483 1.391 . S
C487 C486 1.371 . S
C487 H494 0.930 . S
H488 C485 0.928 . S
H489 C486 0.931 . S
H490 C466 0.930 . S
H491 C463 0.930 . S
H492 C472 0.930 . S
H493 C484 0.929 . S
H494 C487 0.930 . S
C495 C496 1.351 . S
C495 N498 1.368 . S
C495 H500 0.931 . S
C496 C495 1.351 . S
C496 N497 1.373 . S
C496 H524 0.930 . S
N497 C496 1.373 . S
N497 C499 1.340 . S
N498 C495 1.368 . S
N498 C499 1.321 . S
N498 Co501 2.135 . S
C499 N497 1.340 . S
C499 N498 1.321 . S
C499 H523 0.930 . S
H500 C495 0.931 . S
Co501 N498 2.135 . S
Co501 N504 2.121 . S
Co501 O509 2.055 . S
Co501 O512 2.039 . S
Co501 N515 2.140 . S
C502 O503 1.227 . S
C502 O512 1.265 . S
O503 C502 1.227 . S
N504 Co501 2.121 . S
N504 C506 1.375 . S
N504 C507 1.313 . S
C505 C506 1.338 . S
C505 N508 1.377 . S
C505 H525 0.930 . S
C506 N504 1.375 . S
C506 C505 1.338 . S
C506 H510 0.931 . S
C507 N504 1.313 . S
C507 N508 1.344 . S
C507 H511 0.930 . S
N508 C505 1.377 . S
N508 C507 1.344 . S
O509 Co501 2.055 . S
O509 C513 1.253 . S
H510 C506 0.931 . S
H511 C507 0.930 . S
O512 Co501 2.039 . S
O512 C502 1.265 . S
C513 O509 1.253 . S
C513 O514 1.227 . S
O514 C513 1.227 . S
N515 Co501 2.140 . S
N515 C518 1.346 . S
N515 C519 1.345 . S
C516 C517 1.387 . S
C516 C520 1.391 . S
C517 C516 1.387 . S
C517 C518 1.369 . S
C517 H526 0.929 . S
C518 N515 1.346 . S
C518 C517 1.369 . S
C518 H521 0.928 . S
C519 N515 1.345 . S
C519 C520 1.371 . S
C519 H522 0.931 . S
C520 C516 1.391 . S
C520 C519 1.371 . S
C520 H527 0.930 . S
H521 C518 0.928 . S
H522 C519 0.931 . S
H523 C499 0.930 . S
H524 C496 0.930 . S
H525 C505 0.930 . S
H526 C517 0.929 . S
H527 C520 0.930 . S
C528 C529 1.363 . S
C528 C534 1.379 . S
C528 N536 1.356 . S
C529 C528 1.363 . S
C529 C535 1.363 . S
C530 C531 1.363 . S
C530 C535 1.379 . S
C530 N537 1.356 1_545 S
C531 C530 1.363 . S
C531 C534 1.363 . S
N532 C534 1.356 . S
N532 H544 0.984 . S
N532 H545 0.985 . S
N533 C535 1.356 1_565 S
N533 H538 0.984 . S
N533 H539 0.985 . S
C534 C528 1.379 . S
C534 C531 1.363 . S
C534 N532 1.356 . S
C535 C529 1.363 . S
C535 C530 1.379 . S
C535 N533 1.356 1_545 S
N536 C528 1.356 . S
N536 H542 0.984 . S
N536 H543 0.984 . S
N537 C530 1.356 1_565 S
N537 H540 0.984 . S
N537 H541 0.985 . S
H538 N533 0.984 . S
H539 N533 0.985 . S
H540 N537 0.984 . S
H541 N537 0.985 . S
H542 N536 0.984 . S
H543 N536 0.984 . S
H544 N532 0.984 . S
H545 N532 0.985 . S
C546 C547 1.363 . S
C546 C552 1.379 . S
C546 N554 1.356 . S
C547 C546 1.363 . S
C547 C553 1.363 1_565 S
C548 C549 1.363 1_545 S
C548 C553 1.379 . S
C548 N555 1.356 . S
C549 C548 1.363 1_565 S
C549 C552 1.363 . S
N550 C552 1.356 . S
N550 H562 0.984 . S
N550 H563 0.985 . S
N551 C553 1.356 . S
N551 H556 0.984 . S
N551 H557 0.985 . S
C552 C546 1.379 . S
C552 C549 1.363 . S
C552 N550 1.356 . S
C553 C547 1.363 1_545 S
C553 C548 1.379 . S
C553 N551 1.356 . S
N554 C546 1.356 . S
N554 H560 0.984 . S
N554 H561 0.984 . S
N555 C548 1.356 . S
N555 H558 0.984 . S
N555 H559 0.985 . S
H556 N551 0.984 . S
H557 N551 0.985 . S
H558 N555 0.984 . S
H559 N555 0.985 . S
H560 N554 0.984 . S
H561 N554 0.984 . S
H562 N550 0.984 . S
H563 N550 0.985 . S
C564 C565 1.363 1_545 S
C564 C570 1.379 . S
C564 N572 1.356 . S
C565 C564 1.363 1_565 S
C565 C571 1.363 . S
C566 C567 1.363 . S
C566 C571 1.379 . S
C566 N573 1.356 . S
C567 C566 1.363 . S
C567 C570 1.363 1_565 S
N568 C570 1.356 . S
N568 H580 0.984 . S
N568 H581 0.985 . S
N569 C571 1.356 . S
N569 H574 0.984 . S
N569 H575 0.985 . S
C570 C564 1.379 . S
C570 C567 1.363 1_545 S
C570 N568 1.356 . S
C571 C565 1.363 . S
C571 C566 1.379 . S
C571 N569 1.356 . S
N572 C564 1.356 . S
N572 H578 0.984 . S
N572 H579 0.984 . S
N573 C566 1.356 . S
N573 H576 0.984 . S
N573 H577 0.985 . S
H574 N569 0.984 . S
H575 N569 0.985 . S
H576 N573 0.984 . S
H577 N573 0.985 . S
H578 N572 0.984 . S
H579 N572 0.984 . S
H580 N568 0.984 . S
H581 N568 0.985 . S
C582 C583 1.363 . S
C582 C588 1.379 . S
C582 N590 1.356 . S
C583 C582 1.363 . S
C583 C589 1.363 . S
C584 C585 1.363 . S
C584 C589 1.379 . S
C584 N591 1.356 1_545 S
C585 C584 1.363 . S
C585 C588 1.363 . S
N586 C588 1.356 . S
N586 H598 0.984 . S
N586 H599 0.985 . S
N587 C589 1.356 1_565 S
N587 H592 0.984 . S
N587 H593 0.985 . S
C588 C582 1.379 . S
C588 C585 1.363 . S
C588 N586 1.356 . S
C589 C583 1.363 . S
C589 C584 1.379 . S
C589 N587 1.356 1_545 S
N590 C582 1.356 . S
N590 H596 0.984 . S
N590 H597 0.984 . S
N591 C584 1.356 1_565 S
N591 H594 0.984 . S
N591 H595 0.985 . S
H592 N587 0.984 . S
H593 N587 0.985 . S
H594 N591 0.984 . S
H595 N591 0.985 . S
H596 N590 0.984 . S
H597 N590 0.984 . S
H598 N586 0.984 . S
H599 N586 0.985 . S
C600 C601 1.363 . S
C600 C606 1.379 . S
C600 N608 1.356 . S
C601 C600 1.363 . S
C601 C607 1.363 . S
C602 C603 1.363 . S
C602 C607 1.379 . S
C602 N609 1.356 . S
C603 C602 1.363 . S
C603 C606 1.363 . S
N604 C606 1.356 . S
N604 H616 0.984 . S
N604 H617 0.985 . S
N605 C607 1.356 . S
N605 H610 0.984 . S
N605 H611 0.985 . S
C606 C600 1.379 . S
C606 C603 1.363 . S
C606 N604 1.356 . S
C607 C601 1.363 . S
C607 C602 1.379 . S
C607 N605 1.356 . S
N608 C600 1.356 . S
N608 H614 0.984 . S
N608 H615 0.984 . S
N609 C602 1.356 . S
N609 H612 0.984 . S
N609 H613 0.985 . S
H610 N605 0.984 . S
H611 N605 0.985 . S
H612 N609 0.984 . S
H613 N609 0.985 . S
H614 N608 0.984 . S
H615 N608 0.984 . S
H616 N604 0.984 . S
H617 N604 0.985 . S
C618 C619 1.363 . S
C618 C624 1.379 . S
C618 N626 1.356 . S
C619 C618 1.363 . S
C619 C625 1.363 . S
C620 C621 1.363 . S
C620 C625 1.379 . S
C620 N627 1.356 . S
C621 C620 1.363 . S
C621 C624 1.363 . S
N622 C624 1.356 . S
N622 H634 0.984 . S
N622 H635 0.985 . S
N623 C625 1.356 . S
N623 H628 0.984 . S
N623 H629 0.985 . S
C624 C618 1.379 . S
C624 C621 1.363 . S
C624 N622 1.356 . S
C625 C619 1.363 . S
C625 C620 1.379 . S
C625 N623 1.356 . S
N626 C618 1.356 . S
N626 H632 0.984 . S
N626 H633 0.984 . S
N627 C620 1.356 . S
N627 H630 0.984 . S
N627 H631 0.985 . S
H628 N623 0.984 . S
H629 N623 0.985 . S
H630 N627 0.984 . S
H631 N627 0.985 . S
H632 N626 0.984 . S
H633 N626 0.984 . S
H634 N622 0.984 . S
H635 N622 0.985 . S
C636 C637 1.363 . S
C636 C642 1.379 . S
C636 N644 1.356 . S
C637 C636 1.363 . S
C637 C643 1.363 . S
C638 C639 1.363 . S
C638 C643 1.379 . S
C638 N645 1.356 . S
C639 C638 1.363 . S
C639 C642 1.363 . S
N640 C642 1.356 . S
N640 H652 0.984 . S
N640 H653 0.985 . S
N641 C643 1.356 . S
N641 H646 0.984 . S
N641 H647 0.985 . S
C642 C636 1.379 . S
C642 C639 1.363 . S
C642 N640 1.356 . S
C643 C637 1.363 . S
C643 C638 1.379 . S
C643 N641 1.356 . S
N644 C636 1.356 . S
N644 H650 0.984 . S
N644 H651 0.984 . S
N645 C638 1.356 . S
N645 H648 0.984 . S
N645 H649 0.985 . S
H646 N641 0.984 . S
H647 N641 0.985 . S
H648 N645 0.984 . S
H649 N645 0.985 . S
H650 N644 0.984 . S
H651 N644 0.984 . S
H652 N640 0.984 . S
H653 N640 0.985 . S
C654 C655 1.363 . S
C654 C660 1.379 . S
C654 N662 1.356 . S
C655 C654 1.363 . S
C655 C661 1.363 . S
C656 C657 1.363 . S
C656 C661 1.379 . S
C656 N663 1.356 . S
C657 C656 1.363 . S
C657 C660 1.363 . S
N658 C660 1.356 . S
N658 H670 0.984 . S
N658 H671 0.985 . S
N659 C661 1.356 . S
N659 H664 0.984 . S
N659 H665 0.985 . S
C660 C654 1.379 . S
C660 C657 1.363 . S
C660 N658 1.356 . S
C661 C655 1.363 . S
C661 C656 1.379 . S
C661 N659 1.356 . S
N662 C654 1.356 . S
N662 H668 0.984 . S
N662 H669 0.984 . S
N663 C656 1.356 . S
N663 H666 0.984 . S
N663 H667 0.985 . S
H664 N659 0.984 . S
H665 N659 0.985 . S
H666 N663 0.984 . S
H667 N663 0.985 . S
H668 N662 0.984 . S
H669 N662 0.984 . S
H670 N658 0.984 . S
H671 N658 0.985 . S
C672 C673 1.363 . S
C672 C678 1.379 . S
C672 N680 1.356 . S
C673 C672 1.363 . S
C673 C679 1.363 . S
C674 C675 1.363 . S
C674 C679 1.379 . S
C674 N681 1.356 . S
C675 C674 1.363 . S
C675 C678 1.363 . S
N676 C678 1.356 . S
N676 H688 0.984 . S
N676 H689 0.985 . S
N677 C679 1.356 . S
N677 H682 0.984 . S
N677 H683 0.985 . S
C678 C672 1.379 . S
C678 C675 1.363 . S
C678 N676 1.356 . S
C679 C673 1.363 . S
C679 C674 1.379 . S
C679 N677 1.356 . S
N680 C672 1.356 . S
N680 H686 0.984 . S
N680 H687 0.984 . S
N681 C674 1.356 . S
N681 H684 0.984 . S
N681 H685 0.985 . S
H682 N677 0.984 . S
H683 N677 0.985 . S
H684 N681 0.984 . S
H685 N681 0.985 . S
H686 N680 0.984 . S
H687 N680 0.984 . S
H688 N676 0.984 . S
H689 N676 0.985 . S
C690 C691 1.363 . S
C690 C696 1.379 . S
C690 N698 1.356 . S
C691 C690 1.363 . S
C691 C697 1.363 . S
C692 C693 1.363 . S
C692 C697 1.379 . S
C692 N699 1.356 . S
C693 C692 1.363 . S
C693 C696 1.363 . S
N694 C696 1.356 . S
N694 H706 0.984 . S
N694 H707 0.985 . S
N695 C697 1.356 . S
N695 H700 0.984 . S
N695 H701 0.985 . S
C696 C690 1.379 . S
C696 C693 1.363 . S
C696 N694 1.356 . S
C697 C691 1.363 . S
C697 C692 1.379 . S
C697 N695 1.356 . S
N698 C690 1.356 . S
N698 H704 0.984 . S
N698 H705 0.984 . S
N699 C692 1.356 . S
N699 H702 0.984 . S
N699 H703 0.985 . S
H700 N695 0.984 . S
H701 N695 0.985 . S
H702 N699 0.984 . S
H703 N699 0.985 . S
H704 N698 0.984 . S
H705 N698 0.984 . S
H706 N694 0.984 . S
H707 N694 0.985 . S
C708 C709 1.363 . S
C708 C714 1.379 . S
C708 N716 1.356 . S
C709 C708 1.363 . S
C709 C715 1.363 . S
C710 C711 1.363 . S
C710 C715 1.379 . S
C710 N717 1.356 . S
C711 C710 1.363 . S
C711 C714 1.363 . S
N712 C714 1.356 . S
N712 H724 0.984 . S
N712 H725 0.985 . S
N713 C715 1.356 . S
N713 H718 0.984 . S
N713 H719 0.985 . S
C714 C708 1.379 . S
C714 C711 1.363 . S
C714 N712 1.356 . S
C715 C709 1.363 . S
C715 C710 1.379 . S
C715 N713 1.356 . S
N716 C708 1.356 . S
N716 H722 0.984 . S
N716 H723 0.984 . S
N717 C710 1.356 . S
N717 H720 0.984 . S
N717 H721 0.985 . S
H718 N713 0.984 . S
H719 N713 0.985 . S
H720 N717 0.984 . S
H721 N717 0.985 . S
H722 N716 0.984 . S
H723 N716 0.984 . S
H724 N712 0.984 . S
H725 N712 0.985 . S
C726 C727 1.363 . S
C726 C732 1.379 . S
C726 N734 1.356 . S
C727 C726 1.363 . S
C727 C733 1.363 . S
C728 C729 1.363 . S
C728 C733 1.379 . S
C728 N735 1.356 . S
C729 C728 1.363 . S
C729 C732 1.363 . S
N730 C732 1.356 . S
N730 H742 0.984 . S
N730 H743 0.985 . S
N731 C733 1.356 . S
N731 H736 0.984 . S
N731 H737 0.985 . S
C732 C726 1.379 . S
C732 C729 1.363 . S
C732 N730 1.356 . S
C733 C727 1.363 . S
C733 C728 1.379 . S
C733 N731 1.356 . S
N734 C726 1.356 . S
N734 H740 0.984 . S
N734 H741 0.984 . S
N735 C728 1.356 . S
N735 H738 0.984 . S
N735 H739 0.985 . S
H736 N731 0.984 . S
H737 N731 0.985 . S
H738 N735 0.984 . S
H739 N735 0.985 . S
H740 N734 0.984 . S
H741 N734 0.984 . S
H742 N730 0.984 . S
H743 N730 0.985 . S
C744 C745 1.363 . S
C744 C750 1.379 . S
C744 N752 1.356 . S
C745 C744 1.363 . S
C745 C751 1.363 . S
C746 C747 1.363 . S
C746 C751 1.379 . S
C746 N753 1.356 . S
C747 C746 1.363 . S
C747 C750 1.363 . S
N748 C750 1.356 . S
N748 H760 0.984 . S
N748 H761 0.985 . S
N749 C751 1.356 . S
N749 H754 0.984 . S
N749 H755 0.985 . S
C750 C744 1.379 . S
C750 C747 1.363 . S
C750 N748 1.356 . S
C751 C745 1.363 . S
C751 C746 1.379 . S
C751 N749 1.356 . S
N752 C744 1.356 . S
N752 H758 0.984 . S
N752 H759 0.984 . S
N753 C746 1.356 . S
N753 H756 0.984 . S
N753 H757 0.985 . S
H754 N749 0.984 . S
H755 N749 0.985 . S
H756 N753 0.984 . S
H757 N753 0.985 . S
H758 N752 0.984 . S
H759 N752 0.984 . S
H760 N748 0.984 . S
H761 N748 0.985 . S
C762 C763 1.363 . S
C762 C768 1.379 . S
C762 N770 1.356 . S
C763 C762 1.363 . S
C763 C769 1.363 . S
C764 C765 1.363 . S
C764 C769 1.379 . S
C764 N771 1.356 . S
C765 C764 1.363 . S
C765 C768 1.363 . S
N766 C768 1.356 . S
N766 H778 0.984 . S
N766 H779 0.985 . S
N767 C769 1.356 . S
N767 H772 0.984 . S
N767 H773 0.985 . S
C768 C762 1.379 . S
C768 C765 1.363 . S
C768 N766 1.356 . S
C769 C763 1.363 . S
C769 C764 1.379 . S
C769 N767 1.356 . S
N770 C762 1.356 . S
N770 H776 0.984 . S
N770 H777 0.984 . S
N771 C764 1.356 . S
N771 H774 0.984 . S
N771 H775 0.985 . S
H772 N767 0.984 . S
H773 N767 0.985 . S
H774 N771 0.984 . S
H775 N771 0.985 . S
H776 N770 0.984 . S
H777 N770 0.984 . S
H778 N766 0.984 . S
H779 N766 0.985 . S
C780 C781 1.363 . S
C780 C786 1.379 . S
C780 N788 1.356 . S
C781 C780 1.363 . S
C781 C787 1.363 . S
C782 C783 1.363 . S
C782 C787 1.379 . S
C782 N789 1.356 . S
C783 C782 1.363 . S
C783 C786 1.363 . S
N784 C786 1.356 . S
N784 H796 0.984 . S
N784 H797 0.985 . S
N785 C787 1.356 . S
N785 H790 0.984 . S
N785 H791 0.985 . S
C786 C780 1.379 . S
C786 C783 1.363 . S
C786 N784 1.356 . S
C787 C781 1.363 . S
C787 C782 1.379 . S
C787 N785 1.356 . S
N788 C780 1.356 . S
N788 H794 0.984 . S
N788 H795 0.984 . S
N789 C782 1.356 . S
N789 H792 0.984 . S
N789 H793 0.985 . S
H790 N785 0.984 . S
H791 N785 0.985 . S
H792 N789 0.984 . S
H793 N789 0.985 . S
H794 N788 0.984 . S
H795 N788 0.984 . S
H796 N784 0.984 . S
H797 N784 0.985 . S
C798 C799 1.363 . S
C798 C804 1.379 . S
C798 N806 1.356 . S
C799 C798 1.363 . S
C799 C805 1.363 . S
C800 C801 1.363 . S
C800 C805 1.379 . S
C800 N807 1.356 . S
C801 C800 1.363 . S
C801 C804 1.363 . S
N802 C804 1.356 . S
N802 H814 0.984 . S
N802 H815 0.985 . S
N803 C805 1.356 . S
N803 H808 0.984 . S
N803 H809 0.985 . S
C804 C798 1.379 . S
C804 C801 1.363 . S
C804 N802 1.356 . S
C805 C799 1.363 . S
C805 C800 1.379 . S
C805 N803 1.356 . S
N806 C798 1.356 . S
N806 H812 0.984 . S
N806 H813 0.984 . S
N807 C800 1.356 . S
N807 H810 0.984 . S
N807 H811 0.985 . S
H808 N803 0.984 . S
H809 N803 0.985 . S
H810 N807 0.984 . S
H811 N807 0.985 . S
H812 N806 0.984 . S
H813 N806 0.984 . S
H814 N802 0.984 . S
H815 N802 0.985 . S
C816 C817 1.363 . S
C816 C822 1.379 . S
C816 N824 1.356 . S
C817 C816 1.363 . S
C817 C823 1.363 . S
C818 C819 1.363 . S
C818 C823 1.379 . S
C818 N825 1.356 . S
C819 C818 1.363 . S
C819 C822 1.363 . S
N820 C822 1.356 . S
N820 H832 0.984 . S
N820 H833 0.985 . S
N821 C823 1.356 . S
N821 H826 0.984 . S
N821 H827 0.985 . S
C822 C816 1.379 . S
C822 C819 1.363 . S
C822 N820 1.356 . S
C823 C817 1.363 . S
C823 C818 1.379 . S
C823 N821 1.356 . S
N824 C816 1.356 . S
N824 H830 0.984 . S
N824 H831 0.984 . S
N825 C818 1.356 . S
N825 H828 0.984 . S
N825 H829 0.985 . S
H826 N821 0.984 . S
H827 N821 0.985 . S
H828 N825 0.984 . S
H829 N825 0.985 . S
H830 N824 0.984 . S
H831 N824 0.984 . S
H832 N820 0.984 . S
H833 N820 0.985 . S
C834 C835 1.363 . S
C834 C840 1.379 . S
C834 N842 1.356 . S
C835 C834 1.363 . S
C835 C841 1.363 . S
C836 C837 1.363 . S
C836 C841 1.379 . S
C836 N843 1.356 . S
C837 C836 1.363 . S
C837 C840 1.363 . S
N838 C840 1.356 . S
N838 H850 0.984 . S
N838 H851 0.985 . S
N839 C841 1.356 . S
N839 H844 0.984 . S
N839 H845 0.985 . S
C840 C834 1.379 . S
C840 C837 1.363 . S
C840 N838 1.356 . S
C841 C835 1.363 . S
C841 C836 1.379 . S
C841 N839 1.356 . S
N842 C834 1.356 . S
N842 H848 0.984 . S
N842 H849 0.984 . S
N843 C836 1.356 . S
N843 H846 0.984 . S
N843 H847 0.985 . S
H844 N839 0.984 . S
H845 N839 0.985 . S
H846 N843 0.984 . S
H847 N843 0.985 . S
H848 N842 0.984 . S
H849 N842 0.984 . S
H850 N838 0.984 . S
H851 N838 0.985 . S
C852 C853 1.363 . S
C852 C858 1.379 . S
C852 N860 1.356 . S
C853 C852 1.363 . S
C853 C859 1.363 . S
C854 C855 1.363 . S
C854 C859 1.379 . S
C854 N861 1.356 . S
C855 C854 1.363 . S
C855 C858 1.363 . S
N856 C858 1.356 . S
N856 H868 0.984 . S
N856 H869 0.985 . S
N857 C859 1.356 . S
N857 H862 0.984 . S
N857 H863 0.985 . S
C858 C852 1.379 . S
C858 C855 1.363 . S
C858 N856 1.356 . S
C859 C853 1.363 . S
C859 C854 1.379 . S
C859 N857 1.356 . S
N860 C852 1.356 . S
N860 H866 0.984 . S
N860 H867 0.984 . S
N861 C854 1.356 . S
N861 H864 0.984 . S
N861 H865 0.985 . S
H862 N857 0.984 . S
H863 N857 0.985 . S
H864 N861 0.984 . S
H865 N861 0.985 . S
H866 N860 0.984 . S
H867 N860 0.984 . S
H868 N856 0.984 . S
H869 N856 0.985 . S
C870 C871 1.363 . S
C870 C876 1.379 . S
C870 N878 1.356 . S
C871 C870 1.363 . S
C871 C877 1.363 . S
C872 C873 1.363 . S
C872 C877 1.379 . S
C872 N879 1.356 . S
C873 C872 1.363 . S
C873 C876 1.363 . S
N874 C876 1.356 . S
N874 H886 0.984 . S
N874 H887 0.985 . S
N875 C877 1.356 . S
N875 H880 0.984 . S
N875 H881 0.985 . S
C876 C870 1.379 . S
C876 C873 1.363 . S
C876 N874 1.356 . S
C877 C871 1.363 . S
C877 C872 1.379 . S
C877 N875 1.356 . S
N878 C870 1.356 . S
N878 H884 0.984 . S
N878 H885 0.984 . S
N879 C872 1.356 . S
N879 H882 0.984 . S
N879 H883 0.985 . S
H880 N875 0.984 . S
H881 N875 0.985 . S
H882 N879 0.984 . S
H883 N879 0.985 . S
H884 N878 0.984 . S
H885 N878 0.984 . S
H886 N874 0.984 . S
H887 N874 0.985 . S
C888 C889 1.363 . S
C888 C894 1.379 . S
C888 N896 1.356 . S
C889 C888 1.363 . S
C889 C895 1.363 . S
C890 C891 1.363 . S
C890 C895 1.379 . S
C890 N897 1.356 . S
C891 C890 1.363 . S
C891 C894 1.363 . S
N892 C894 1.356 . S
N892 H904 0.984 . S
N892 H905 0.985 . S
N893 C895 1.356 . S
N893 H898 0.984 . S
N893 H899 0.985 . S
C894 C888 1.379 . S
C894 C891 1.363 . S
C894 N892 1.356 . S
C895 C889 1.363 . S
C895 C890 1.379 . S
C895 N893 1.356 . S
N896 C888 1.356 . S
N896 H902 0.984 . S
N896 H903 0.984 . S
N897 C890 1.356 . S
N897 H900 0.984 . S
N897 H901 0.985 . S
H898 N893 0.984 . S
H899 N893 0.985 . S
H900 N897 0.984 . S
H901 N897 0.985 . S
H902 N896 0.984 . S
H903 N896 0.984 . S
H904 N892 0.984 . S
H905 N892 0.985 . S
C906 C907 1.363 . S
C906 C912 1.379 . S
C906 N914 1.356 . S
C907 C906 1.363 . S
C907 C913 1.363 . S
C908 C909 1.363 . S
C908 C913 1.379 . S
C908 N915 1.356 . S
C909 C908 1.363 . S
C909 C912 1.363 . S
N910 C912 1.356 . S
N910 H922 0.984 . S
N910 H923 0.985 . S
N911 C913 1.356 . S
N911 H916 0.984 . S
N911 H917 0.985 . S
C912 C906 1.379 . S
C912 C909 1.363 . S
C912 N910 1.356 . S
C913 C907 1.363 . S
C913 C908 1.379 . S
C913 N911 1.356 . S
N914 C906 1.356 . S
N914 H920 0.984 . S
N914 H921 0.984 . S
N915 C908 1.356 . S
N915 H918 0.984 . S
N915 H919 0.985 . S
H916 N911 0.984 . S
H917 N911 0.985 . S
H918 N915 0.984 . S
H919 N915 0.985 . S
H920 N914 0.984 . S
H921 N914 0.984 . S
H922 N910 0.984 . S
H923 N910 0.985 . S
C924 C925 1.363 . S
C924 C930 1.379 . S
C924 N932 1.356 . S
C925 C924 1.363 . S
C925 C931 1.363 . S
C926 C927 1.363 . S
C926 C931 1.379 . S
C926 N933 1.356 . S
C927 C926 1.363 . S
C927 C930 1.363 . S
N928 C930 1.356 . S
N928 H940 0.984 . S
N928 H941 0.985 . S
N929 C931 1.356 . S
N929 H934 0.984 . S
N929 H935 0.985 . S
C930 C924 1.379 . S
C930 C927 1.363 . S
C930 N928 1.356 . S
C931 C925 1.363 . S
C931 C926 1.379 . S
C931 N929 1.356 . S
N932 C924 1.356 . S
N932 H938 0.984 . S
N932 H939 0.984 . S
N933 C926 1.356 . S
N933 H936 0.984 . S
N933 H937 0.985 . S
H934 N929 0.984 . S
H935 N929 0.985 . S
H936 N933 0.984 . S
H937 N933 0.985 . S
H938 N932 0.984 . S
H939 N932 0.984 . S
H940 N928 0.984 . S
H941 N928 0.985 . S
C942 C943 1.363 . S
C942 C948 1.379 . S
C942 N950 1.356 . S
C943 C942 1.363 . S
C943 C949 1.363 . S
C944 C945 1.363 . S
C944 C949 1.379 . S
C944 N951 1.356 . S
C945 C944 1.363 . S
C945 C948 1.363 . S
N946 C948 1.356 . S
N946 H958 0.984 . S
N946 H959 0.985 . S
N947 C949 1.356 . S
N947 H952 0.984 . S
N947 H953 0.985 . S
C948 C942 1.379 . S
C948 C945 1.363 . S
C948 N946 1.356 . S
C949 C943 1.363 . S
C949 C944 1.379 . S
C949 N947 1.356 . S
N950 C942 1.356 . S
N950 H956 0.984 . S
N950 H957 0.984 . S
N951 C944 1.356 . S
N951 H954 0.984 . S
N951 H955 0.985 . S
H952 N947 0.984 . S
H953 N947 0.985 . S
H954 N951 0.984 . S
H955 N951 0.985 . S
H956 N950 0.984 . S
H957 N950 0.984 . S
H958 N946 0.984 . S
H959 N946 0.985 . S
C960 C961 1.363 1_565 S
C960 C966 1.379 1_655 S
C960 N968 1.356 . S
C961 C960 1.363 1_545 S
C961 C967 1.363 . S
C962 C963 1.363 . S
C962 C967 1.379 1_455 S
C962 N969 1.356 . S
C963 C962 1.363 . S
C963 C966 1.363 1_545 S
N964 C966 1.356 . S
N964 H976 0.984 . S
N964 H977 0.985 . S
N965 C967 1.356 . S
N965 H970 0.984 . S
N965 H971 0.985 . S
C966 C960 1.379 1_455 S
C966 C963 1.363 1_565 S
C966 N964 1.356 . S
C967 C961 1.363 . S
C967 C962 1.379 1_655 S
C967 N965 1.356 . S
N968 C960 1.356 . S
N968 H974 0.984 . S
N968 H975 0.984 . S
N969 C962 1.356 . S
N969 H972 0.984 . S
N969 H973 0.985 . S
H970 N965 0.984 . S
H971 N965 0.985 . S
H972 N969 0.984 . S
H973 N969 0.985 . S
H974 N968 0.984 . S
H975 N968 0.984 . S
H976 N964 0.984 . S
H977 N964 0.985 . S
C978 C979 1.363 . S
C978 C984 1.379 1_455 S
C978 N986 1.356 . S
C979 C978 1.363 . S
C979 C985 1.363 1_545 S
C980 C981 1.363 1_565 S
C980 C985 1.379 1_655 S
C980 N987 1.356 . S
C981 C980 1.363 1_545 S
C981 C984 1.363 . S
N982 C984 1.356 . S
N982 H994 0.984 . S
N982 H995 0.985 . S
N983 C985 1.356 . S
N983 H988 0.984 . S
N983 H989 0.985 . S
C984 C978 1.379 1_655 S
C984 C981 1.363 . S
C984 N982 1.356 . S
C985 C979 1.363 1_565 S
C985 C980 1.379 1_455 S
C985 N983 1.356 . S
N986 C978 1.356 . S
N986 H992 0.984 . S
N986 H993 0.984 . S
N987 C980 1.356 . S
N987 H990 0.984 . S
N987 H991 0.985 . S
H988 N983 0.984 . S
H989 N983 0.985 . S
H990 N987 0.984 . S
H991 N987 0.985 . S
H992 N986 0.984 . S
H993 N986 0.984 . S
H994 N982 0.984 . S
H995 N982 0.985 . S
C996 C997 1.363 . S
C996 C1002 1.379 1_655 S
C996 N1004 1.356 . S
C997 C996 1.363 . S
C997 C1003 1.363 . S
C998 C999 1.363 . S
C998 C1003 1.379 1_455 S
C998 N1005 1.356 . S
C999 C998 1.363 . S
C999 C1002 1.363 . S
N1000 C1002 1.356 . S
N1000 H1012 0.984 . S
N1000 H1013 0.985 . S
N1001 C1003 1.356 . S
N1001 H1006 0.984 . S
N1001 H1007 0.985 . S
C1002 C996 1.379 1_455 S
C1002 C999 1.363 . S
C1002 N1000 1.356 . S
C1003 C997 1.363 . S
C1003 C998 1.379 1_655 S
C1003 N1001 1.356 . S
N1004 C996 1.356 . S
N1004 H1010 0.984 . S
N1004 H1011 0.984 . S
N1005 C998 1.356 . S
N1005 H1008 0.984 . S
N1005 H1009 0.985 . S
H1006 N1001 0.984 . S
H1007 N1001 0.985 . S
H1008 N1005 0.984 . S
H1009 N1005 0.985 . S
H1010 N1004 0.984 . S
H1011 N1004 0.984 . S
H1012 N1000 0.984 . S
H1013 N1000 0.985 . S
C1014 C1015 1.363 . S
C1014 C1020 1.379 1_655 S
C1014 N1022 1.356 . S
C1015 C1014 1.363 . S
C1015 C1021 1.363 . S
C1016 C1017 1.363 . S
C1016 C1021 1.379 1_455 S
C1016 N1023 1.356 . S
C1017 C1016 1.363 . S
C1017 C1020 1.363 . S
N1018 C1020 1.356 . S
N1018 H1030 0.984 . S
N1018 H1031 0.985 . S
N1019 C1021 1.356 . S
N1019 H1024 0.984 . S
N1019 H1025 0.985 . S
C1020 C1014 1.379 1_455 S
C1020 C1017 1.363 . S
C1020 N1018 1.356 . S
C1021 C1015 1.363 . S
C1021 C1016 1.379 1_655 S
C1021 N1019 1.356 . S
N1022 C1014 1.356 . S
N1022 H1028 0.984 . S
N1022 H1029 0.984 . S
N1023 C1016 1.356 . S
N1023 H1026 0.984 . S
N1023 H1027 0.985 . S
H1024 N1019 0.984 . S
H1025 N1019 0.985 . S
H1026 N1023 0.984 . S
H1027 N1023 0.985 . S
H1028 N1022 0.984 . S
H1029 N1022 0.984 . S
H1030 N1018 0.984 . S
H1031 N1018 0.985 . S
C1032 C1033 1.363 . S
C1032 C1038 1.379 . S
C1032 N1040 1.356 . S
C1033 C1032 1.363 . S
C1033 C1039 1.363 1_545 S
C1034 C1035 1.363 1_565 S
C1034 C1039 1.379 . S
C1034 N1041 1.356 . S
C1035 C1034 1.363 1_545 S
C1035 C1038 1.363 . S
N1036 C1038 1.356 . S
N1036 H1048 0.984 . S
N1036 H1049 0.985 . S
N1037 C1039 1.356 . S
N1037 H1042 0.984 . S
N1037 H1043 0.985 . S
C1038 C1032 1.379 . S
C1038 C1035 1.363 . S
C1038 N1036 1.356 . S
C1039 C1033 1.363 1_565 S
C1039 C1034 1.379 . S
C1039 N1037 1.356 . S
N1040 C1032 1.356 . S
N1040 H1046 0.984 . S
N1040 H1047 0.984 . S
N1041 C1034 1.356 . S
N1041 H1044 0.984 . S
N1041 H1045 0.985 . S
H1042 N1037 0.984 . S
H1043 N1037 0.985 . S
H1044 N1041 0.984 . S
H1045 N1041 0.985 . S
H1046 N1040 0.984 . S
H1047 N1040 0.984 . S
H1048 N1036 0.984 . S
H1049 N1036 0.985 . S
C1050 C1051 1.363 1_565 S
C1050 C1056 1.379 . S
C1050 N1058 1.356 . S
C1051 C1050 1.363 1_545 S
C1051 C1057 1.363 . S
C1052 C1053 1.363 . S
C1052 C1057 1.379 . S
C1052 N1059 1.356 . S
C1053 C1052 1.363 . S
C1053 C1056 1.363 1_545 S
N1054 C1056 1.356 . S
N1054 H1066 0.984 . S
N1054 H1067 0.985 . S
N1055 C1057 1.356 . S
N1055 H1060 0.984 . S
N1055 H1061 0.985 . S
C1056 C1050 1.379 . S
C1056 C1053 1.363 1_565 S
C1056 N1054 1.356 . S
C1057 C1051 1.363 . S
C1057 C1052 1.379 . S
C1057 N1055 1.356 . S
N1058 C1050 1.356 . S
N1058 H1064 0.984 . S
N1058 H1065 0.984 . S
N1059 C1052 1.356 . S
N1059 H1062 0.984 . S
N1059 H1063 0.985 . S
H1060 N1055 0.984 . S
H1061 N1055 0.985 . S
H1062 N1059 0.984 . S
H1063 N1059 0.985 . S
H1064 N1058 0.984 . S
H1065 N1058 0.984 . S
H1066 N1054 0.984 . S
H1067 N1054 0.985 . S
C1068 C1069 1.363 . S
C1068 C1074 1.379 . S
C1068 N1076 1.356 . S
C1069 C1068 1.363 . S
C1069 C1075 1.363 . S
C1070 C1071 1.363 . S
C1070 C1075 1.379 . S
C1070 N1077 1.356 . S
C1071 C1070 1.363 . S
C1071 C1074 1.363 . S
N1072 C1074 1.356 . S
N1072 H1084 0.984 . S
N1072 H1085 0.985 . S
N1073 C1075 1.356 . S
N1073 H1078 0.984 . S
N1073 H1079 0.985 . S
C1074 C1068 1.379 . S
C1074 C1071 1.363 . S
C1074 N1072 1.356 . S
C1075 C1069 1.363 . S
C1075 C1070 1.379 . S
C1075 N1073 1.356 . S
N1076 C1068 1.356 . S
N1076 H1082 0.984 . S
N1076 H1083 0.984 . S
N1077 C1070 1.356 . S
N1077 H1080 0.984 . S
N1077 H1081 0.985 . S
H1078 N1073 0.984 . S
H1079 N1073 0.985 . S
H1080 N1077 0.984 . S
H1081 N1077 0.985 . S
H1082 N1076 0.984 . S
H1083 N1076 0.984 . S
H1084 N1072 0.984 . S
H1085 N1072 0.985 . S
C1086 C1087 1.363 . S
C1086 C1092 1.379 . S
C1086 N1094 1.356 . S
C1087 C1086 1.363 . S
C1087 C1093 1.363 . S
C1088 C1089 1.363 . S
C1088 C1093 1.379 . S
C1088 N1095 1.356 . S
C1089 C1088 1.363 . S
C1089 C1092 1.363 . S
N1090 C1092 1.356 . S
N1090 H1102 0.984 . S
N1090 H1103 0.985 . S
N1091 C1093 1.356 . S
N1091 H1096 0.984 . S
N1091 H1097 0.985 . S
C1092 C1086 1.379 . S
C1092 C1089 1.363 . S
C1092 N1090 1.356 . S
C1093 C1087 1.363 . S
C1093 C1088 1.379 . S
C1093 N1091 1.356 . S
N1094 C1086 1.356 . S
N1094 H1100 0.984 . S
N1094 H1101 0.984 . S
N1095 C1088 1.356 . S
N1095 H1098 0.984 . S
N1095 H1099 0.985 . S
H1096 N1091 0.984 . S
H1097 N1091 0.985 . S
H1098 N1095 0.984 . S
H1099 N1095 0.985 . S
H1100 N1094 0.984 . S
H1101 N1094 0.984 . S
H1102 N1090 0.984 . S
H1103 N1090 0.985 . S
C1104 C1105 1.363 . S
C1104 C1110 1.379 1_556 S
C1104 N1112 1.356 . S
C1105 C1104 1.363 . S
C1105 C1111 1.363 1_545 S
C1106 C1107 1.363 1_565 S
C1106 C1111 1.379 1_554 S
C1106 N1113 1.356 . S
C1107 C1106 1.363 1_545 S
C1107 C1110 1.363 . S
N1108 C1110 1.356 . S
N1108 H1120 0.984 . S
N1108 H1121 0.985 . S
N1109 C1111 1.356 . S
N1109 H1114 0.984 . S
N1109 H1115 0.985 . S
C1110 C1104 1.379 1_554 S
C1110 C1107 1.363 . S
C1110 N1108 1.356 . S
C1111 C1105 1.363 1_565 S
C1111 C1106 1.379 1_556 S
C1111 N1109 1.356 . S
N1112 C1104 1.356 . S
N1112 H1118 0.984 . S
N1112 H1119 0.984 . S
N1113 C1106 1.356 . S
N1113 H1116 0.984 . S
N1113 H1117 0.985 . S
H1114 N1109 0.984 . S
H1115 N1109 0.985 . S
H1116 N1113 0.984 . S
H1117 N1113 0.985 . S
H1118 N1112 0.984 . S
H1119 N1112 0.984 . S
H1120 N1108 0.984 . S
H1121 N1108 0.985 . S
C1122 C1123 1.363 1_565 S
C1122 C1128 1.379 1_556 S
C1122 N1130 1.356 . S
C1123 C1122 1.363 1_545 S
C1123 C1129 1.363 . S
C1124 C1125 1.363 . S
C1124 C1129 1.379 1_554 S
C1124 N1131 1.356 . S
C1125 C1124 1.363 . S
C1125 C1128 1.363 1_545 S
N1126 C1128 1.356 . S
N1126 H1138 0.984 . S
N1126 H1139 0.985 . S
N1127 C1129 1.356 . S
N1127 H1132 0.984 . S
N1127 H1133 0.985 . S
C1128 C1122 1.379 1_554 S
C1128 C1125 1.363 1_565 S
C1128 N1126 1.356 . S
C1129 C1123 1.363 . S
C1129 C1124 1.379 1_556 S
C1129 N1127 1.356 . S
N1130 C1122 1.356 . S
N1130 H1136 0.984 . S
N1130 H1137 0.984 . S
N1131 C1124 1.356 . S
N1131 H1134 0.984 . S
N1131 H1135 0.985 . S
H1132 N1127 0.984 . S
H1133 N1127 0.985 . S
H1134 N1131 0.984 . S
H1135 N1131 0.985 . S
H1136 N1130 0.984 . S
H1137 N1130 0.984 . S
H1138 N1126 0.984 . S
H1139 N1126 0.985 . S
C1140 C1141 1.363 . S
C1140 C1146 1.379 . S
C1140 N1148 1.356 . S
C1141 C1140 1.363 . S
C1141 C1147 1.363 . S
C1142 C1143 1.363 . S
C1142 C1147 1.379 . S
C1142 N1149 1.356 . S
C1143 C1142 1.363 . S
C1143 C1146 1.363 . S
N1144 C1146 1.356 . S
N1144 H1156 0.984 . S
N1144 H1157 0.985 . S
N1145 C1147 1.356 . S
N1145 H1150 0.984 . S
N1145 H1151 0.985 . S
C1146 C1140 1.379 . S
C1146 C1143 1.363 . S
C1146 N1144 1.356 . S
C1147 C1141 1.363 . S
C1147 C1142 1.379 . S
C1147 N1145 1.356 . S
N1148 C1140 1.356 . S
N1148 H1154 0.984 . S
N1148 H1155 0.984 . S
N1149 C1142 1.356 . S
N1149 H1152 0.984 . S
N1149 H1153 0.985 . S
H1150 N1145 0.984 . S
H1151 N1145 0.985 . S
H1152 N1149 0.984 . S
H1153 N1149 0.985 . S
H1154 N1148 0.984 . S
H1155 N1148 0.984 . S
H1156 N1144 0.984 . S
H1157 N1144 0.985 . S
C1158 C1159 1.363 . S
C1158 C1164 1.379 . S
C1158 N1166 1.356 . S
C1159 C1158 1.363 . S
C1159 C1165 1.363 . S
C1160 C1161 1.363 . S
C1160 C1165 1.379 . S
C1160 N1167 1.356 . S
C1161 C1160 1.363 . S
C1161 C1164 1.363 . S
N1162 C1164 1.356 . S
N1162 H1174 0.984 . S
N1162 H1175 0.985 . S
N1163 C1165 1.356 . S
N1163 H1168 0.984 . S
N1163 H1169 0.985 . S
C1164 C1158 1.379 . S
C1164 C1161 1.363 . S
C1164 N1162 1.356 . S
C1165 C1159 1.363 . S
C1165 C1160 1.379 . S
C1165 N1163 1.356 . S
N1166 C1158 1.356 . S
N1166 H1172 0.984 . S
N1166 H1173 0.984 . S
N1167 C1160 1.356 . S
N1167 H1170 0.984 . S
N1167 H1171 0.985 . S
H1168 N1163 0.984 . S
H1169 N1163 0.985 . S
H1170 N1167 0.984 . S
H1171 N1167 0.985 . S
H1172 N1166 0.984 . S
H1173 N1166 0.984 . S
H1174 N1162 0.984 . S
H1175 N1162 0.985 . S
C1176 C1177 1.363 . S
C1176 C1182 1.379 . S
C1176 N1184 1.356 . S
C1177 C1176 1.363 . S
C1177 C1183 1.363 1_545 S
C1178 C1179 1.363 1_565 S
C1178 C1183 1.379 . S
C1178 N1185 1.356 . S
C1179 C1178 1.363 1_545 S
C1179 C1182 1.363 . S
N1180 C1182 1.356 . S
N1180 H1192 0.984 . S
N1180 H1193 0.985 . S
N1181 C1183 1.356 . S
N1181 H1186 0.984 . S
N1181 H1187 0.985 . S
C1182 C1176 1.379 . S
C1182 C1179 1.363 . S
C1182 N1180 1.356 . S
C1183 C1177 1.363 1_565 S
C1183 C1178 1.379 . S
C1183 N1181 1.356 . S
N1184 C1176 1.356 . S
N1184 H1190 0.984 . S
N1184 H1191 0.984 . S
N1185 C1178 1.356 . S
N1185 H1188 0.984 . S
N1185 H1189 0.985 . S
H1186 N1181 0.984 . S
H1187 N1181 0.985 . S
H1188 N1185 0.984 . S
H1189 N1185 0.985 . S
H1190 N1184 0.984 . S
H1191 N1184 0.984 . S
H1192 N1180 0.984 . S
H1193 N1180 0.985 . S
C1194 C1195 1.363 1_565 S
C1194 C1200 1.379 . S
C1194 N1202 1.356 . S
C1195 C1194 1.363 1_545 S
C1195 C1201 1.363 . S
C1196 C1197 1.363 . S
C1196 C1201 1.379 . S
C1196 N1203 1.356 . S
C1197 C1196 1.363 . S
C1197 C1200 1.363 1_545 S
N1198 C1200 1.356 . S
N1198 H1210 0.984 . S
N1198 H1211 0.985 . S
N1199 C1201 1.356 . S
N1199 H1204 0.984 . S
N1199 H1205 0.985 . S
C1200 C1194 1.379 . S
C1200 C1197 1.363 1_565 S
C1200 N1198 1.356 . S
C1201 C1195 1.363 . S
C1201 C1196 1.379 . S
C1201 N1199 1.356 . S
N1202 C1194 1.356 . S
N1202 H1208 0.984 . S
N1202 H1209 0.984 . S
N1203 C1196 1.356 . S
N1203 H1206 0.984 . S
N1203 H1207 0.985 . S
H1204 N1199 0.984 . S
H1205 N1199 0.985 . S
H1206 N1203 0.984 . S
H1207 N1203 0.985 . S
H1208 N1202 0.984 . S
H1209 N1202 0.984 . S
H1210 N1198 0.984 . S
H1211 N1198 0.985 . S
C1212 C1213 1.363 . S
C1212 C1218 1.379 1_554 S
C1212 N1220 1.356 . S
C1213 C1212 1.363 . S
C1213 C1219 1.363 . S
C1214 C1215 1.363 . S
C1214 C1219 1.379 1_556 S
C1214 N1221 1.356 . S
C1215 C1214 1.363 . S
C1215 C1218 1.363 . S
N1216 C1218 1.356 . S
N1216 H1228 0.984 . S
N1216 H1229 0.985 . S
N1217 C1219 1.356 . S
N1217 H1222 0.984 . S
N1217 H1223 0.985 . S
C1218 C1212 1.379 1_556 S
C1218 C1215 1.363 . S
C1218 N1216 1.356 . S
C1219 C1213 1.363 . S
C1219 C1214 1.379 1_554 S
C1219 N1217 1.356 . S
N1220 C1212 1.356 . S
N1220 H1226 0.984 . S
N1220 H1227 0.984 . S
N1221 C1214 1.356 . S
N1221 H1224 0.984 . S
N1221 H1225 0.985 . S
H1222 N1217 0.984 . S
H1223 N1217 0.985 . S
H1224 N1221 0.984 . S
H1225 N1221 0.985 . S
H1226 N1220 0.984 . S
H1227 N1220 0.984 . S
H1228 N1216 0.984 . S
H1229 N1216 0.985 . S
C1230 C1231 1.363 . S
C1230 C1236 1.379 1_556 S
C1230 N1238 1.356 . S
C1231 C1230 1.363 . S
C1231 C1237 1.363 . S
C1232 C1233 1.363 . S
C1232 C1237 1.379 1_554 S
C1232 N1239 1.356 . S
C1233 C1232 1.363 . S
C1233 C1236 1.363 . S
N1234 C1236 1.356 . S
N1234 H1246 0.984 . S
N1234 H1247 0.985 . S
N1235 C1237 1.356 . S
N1235 H1240 0.984 . S
N1235 H1241 0.985 . S
C1236 C1230 1.379 1_554 S
C1236 C1233 1.363 . S
C1236 N1234 1.356 . S
C1237 C1231 1.363 . S
C1237 C1232 1.379 1_556 S
C1237 N1235 1.356 . S
N1238 C1230 1.356 . S
N1238 H1244 0.984 . S
N1238 H1245 0.984 . S
N1239 C1232 1.356 . S
N1239 H1242 0.984 . S
N1239 H1243 0.985 . S
H1240 N1235 0.984 . S
H1241 N1235 0.985 . S
H1242 N1239 0.984 . S
H1243 N1239 0.985 . S
H1244 N1238 0.984 . S
H1245 N1238 0.984 . S
H1246 N1234 0.984 . S
H1247 N1234 0.985 . S
C529 N13 1.545 . S
C531 N376 1.545 . S
C547 N46 1.545 1_565 S
C549 N343 1.545 1_565 S
C565 N310 1.545 1_565 S
C567 N79 1.545 1_565 S
C583 N277 1.545 . S
C585 N112 1.545 . S
C601 N145 1.545 . S
C603 N508 1.545 . S
C619 N178 1.545 . S
C621 N475 1.545 . S
C637 N442 1.545 . S
C639 N211 1.545 . S
C655 N409 1.545 . S
C657 N244 1.545 . S
C673 C18 1.160 . S
C675 C447 1.160 . S
C691 C414 1.160 . S
C693 C51 1.160 . S
C709 C84 1.160 . S
C711 C513 1.160 . S
C727 C480 1.160 . S
C729 C117 1.160 . S
C745 C106 1.626 . S
C747 C469 1.626 . S
C763 C502 1.626 . S
C765 C73 1.626 . S
C781 C403 1.626 . S
C783 C40 1.626 . S
C799 C7 1.626 . S
C801 C436 1.626 . S
C817 C150 1.160 . S
C819 C315 1.160 . S
C835 C183 1.160 . S
C837 C282 1.160 . S
C853 C216 1.160 . S
C855 C381 1.160 . S
C871 C249 1.160 . S
C873 C348 1.160 . S
C889 C238 1.626 . S
C891 C337 1.626 . S
C907 C205 1.626 . S
C909 C370 1.626 . S
C925 C172 1.626 . S
C927 C271 1.626 . S
C943 C139 1.626 . S
C945 C304 1.626 . S
C961 C54 1.499 . S
C963 C21 1.499 . S
C979 C87 1.499 . S
C981 C120 1.499 . S
C997 C186 1.499 . S
C999 C153 1.499 . S
C1015 C252 1.499 . S
C1017 C219 1.499 . S
C1033 C318 1.499 . S
C1035 C285 1.499 . S
C1051 C384 1.499 . S
C1053 C351 1.499 . S
C1069 C417 1.499 . S
C1071 C450 1.499 . S
C1087 C516 1.499 . S
C1089 C483 1.499 . S
C1105 N68 1.469 . S
C1107 N2 1.469 . S
C1123 N101 1.469 . S
C1125 N35 1.469 . S
C1141 N134 1.469 . S
C1143 N200 1.469 . S
C1159 N233 1.469 . S
C1161 N167 1.469 . S
C1177 N266 1.469 . S
C1179 N332 1.469 . S
C1195 N365 1.469 . S
C1197 N299 1.469 . S
C1213 N398 1.469 . S
C1215 N464 1.469 . S
C1231 N497 1.469 . S
C1233 N431 1.469 . S
