# Generated by pormake.
# Topology uoc, (4)-cn, num edge types: 1
# Building blocks:
#     Node 0, Type 0, BuildingBlock: ESEHIV_clean_sbu_0, # of connection points: 4
#     Node 1, Type 0, BuildingBlock: ESEHIV_clean_sbu_0, # of connection points: 4
#     Node 2, Type 0, BuildingBlock: ESEHIV_clean_sbu_0, # of connection points: 4
#     Node 3, Type 0, BuildingBlock: ESEHIV_clean_sbu_0, # of connection points: 4
#     Node 4, Type 0, BuildingBlock: ESEHIV_clean_sbu_0, # of connection points: 4
#     Node 5, Type 0, BuildingBlock: ESEHIV_clean_sbu_0, # of connection points: 4
#     Node 6, Type 0, BuildingBlock: ESEHIV_clean_sbu_0, # of connection points: 4
#     Node 7, Type 0, BuildingBlock: ESEHIV_clean_sbu_0, # of connection points: 4
#     Edge 8, Type (0, 0), BuildingBlock: TEMPAE_clean_linker_10, # of connection points: 2
#     Edge 9, Type (0, 0), BuildingBlock: TEMPAE_clean_linker_10, # of connection points: 2
#     Edge 10, Type (0, 0), BuildingBlock: TEMPAE_clean_linker_10, # of connection points: 2
#     Edge 11, Type (0, 0), BuildingBlock: TEMPAE_clean_linker_10, # of connection points: 2
#     Edge 12, Type (0, 0), BuildingBlock: TEMPAE_clean_linker_10, # of connection points: 2
#     Edge 13, Type (0, 0), BuildingBlock: TEMPAE_clean_linker_10, # of connection points: 2
#     Edge 14, Type (0, 0), BuildingBlock: TEMPAE_clean_linker_10, # of connection points: 2
#     Edge 15, Type (0, 0), BuildingBlock: TEMPAE_clean_linker_10, # of connection points: 2
#     Edge 16, Type (0, 0), BuildingBlock: TEMPAE_clean_linker_10, # of connection points: 2
#     Edge 17, Type (0, 0), BuildingBlock: TEMPAE_clean_linker_10, # of connection points: 2
#     Edge 18, Type (0, 0), BuildingBlock: TEMPAE_clean_linker_10, # of connection points: 2
#     Edge 19, Type (0, 0), BuildingBlock: TEMPAE_clean_linker_10, # of connection points: 2
#     Edge 20, Type (0, 0), BuildingBlock: TEMPAE_clean_linker_10, # of connection points: 2
#     Edge 21, Type (0, 0), BuildingBlock: TEMPAE_clean_linker_10, # of connection points: 2
#     Edge 22, Type (0, 0), BuildingBlock: TEMPAE_clean_linker_10, # of connection points: 2
#     Edge 23, Type (0, 0), BuildingBlock: TEMPAE_clean_linker_10, # of connection points: 2
# Relax obj value: 0.054
# Max RMSD: 0.263
# Mean RMSD: 0.263
data_MOF--net-uoc--node1-ESEHIV_clean_sbu_0--edge1-TEMPAE_clean_linker_10
_symmetry_space_group_name_H-M    P1
_symmetry_Int_Tables_number       1
_symmetry_cell_setting            triclinic
loop_
_symmetry_equiv_pos_as_xyz
'x, y, z'
_cell_length_a     33.244337
_cell_length_b     33.267723
_cell_length_c     52.414498
_cell_angle_alpha  90.037537
_cell_angle_beta   90.080322
_cell_angle_gamma 91.253897
loop_
_atom_site_label
_atom_site_type_symbol
_atom_site_fract_x
_atom_site_fract_y
_atom_site_fract_z
_atom_type_partial_charge
Cu0 Cu 0.10083 0.27234 0.15704 0.0
N1 N 0.0718 0.22744 0.16863 0.0
N2 N 0.0466 0.1652 0.17376 0.0
C3 C 0.07009 0.18973 0.15926 0.0
C4 C 0.03277 0.18861 0.19274 0.0
C5 C 0.04831 0.22691 0.18948 0.0
O6 O 0.13252 0.26004 0.12697 0.0
C7 C 0.15014 0.27096 0.20108 0.0
O8 O 0.14942 0.23197 0.19706 0.0
H9 H 0.0864 0.18027 0.14254 0.0
H10 H 0.04323 0.25263 0.20159 0.0
N11 N 0.06384 0.31061 0.14748 0.0
N12 N 0.03446 0.36932 0.14066 0.0
C13 C 0.06647 0.3507 0.1508 0.0
C14 C 0.02908 0.30353 0.13496 0.0
C15 C 1.01088 0.3397 0.13069 0.0
C16 C 0.15679 0.23116 0.12503 0.0
O17 O 0.16317 0.20807 0.14488 0.0
H18 H 0.09177 0.36591 0.15992 0.0
H19 H 0.01797 0.27409 0.12922 0.0
O20 O 0.1327 0.29381 0.18525 0.0
H21 H 1.01274 0.17885 0.20788 0.0
H22 H 0.98241 0.34383 0.12111 0.0
Cu23 Cu 0.77497 0.60251 0.39746 0.0
N24 N 0.72946 0.57508 0.38522 0.0
N25 N 0.6668 0.55085 0.38026 0.0
C26 C 0.69223 0.5726 0.39525 0.0
C27 C 0.6891 0.53894 0.36024 0.0
C28 C 0.7277 0.55385 0.3634 0.0
O29 O 0.76353 0.63068 0.42901 0.0
C30 C 0.77258 0.6551 0.35506 0.0
O31 O 0.73345 0.6509 0.3578 0.0
H32 H 0.68375 0.58713 0.41285 0.0
H33 H 0.75279 0.54989 0.35059 0.0
N34 N 0.81328 0.56431 0.40461 0.0
N35 N 0.87189 0.53339 0.40858 0.0
C36 C 0.85326 0.56696 0.40077 0.0
C37 C 0.80623 0.52804 0.41515 0.0
C38 C 0.8423 0.50887 0.41764 0.0
C39 C 0.73542 0.65566 0.43167 0.0
O40 O 0.71308 0.66471 0.41188 0.0
H41 H 0.86821 0.59292 0.39233 0.0
H42 H 0.7769 0.51658 0.42085 0.0
O43 O 0.79573 0.63807 0.37091 0.0
H44 H 0.67835 0.52064 0.34446 0.0
H45 H 0.84642 0.47957 0.42608 0.0
Cu46 Cu 0.42675 0.25269 0.65888 0.0
N47 N 0.45507 0.2981 0.67041 0.0
N48 N 0.48134 0.3602 0.67396 0.0
C49 C 0.45891 0.33459 0.65948 0.0
C50 C 0.49214 0.33875 0.69464 0.0
C51 C 0.47598 0.3005 0.69234 0.0
O52 O 0.39764 0.26393 0.6276 0.0
C53 C 0.37541 0.25636 0.70185 0.0
O54 O 0.37977 0.29539 0.69871 0.0
H55 H 0.44569 0.34211 0.64128 0.0
H56 H 0.47867 0.2762 0.70589 0.0
N57 N 0.46435 0.2139 0.65151 0.0
N58 N 0.49471 0.15503 0.64755 0.0
C59 C 0.46146 0.17401 0.65556 0.0
C60 C 0.50045 0.22052 0.64061 0.0
C61 C 0.51926 0.18429 0.63812 0.0
C62 C 0.37372 0.29294 0.62489 0.0
O63 O 0.36644 0.31637 0.64446 0.0
H64 H 0.43558 0.15938 0.66432 0.0
H65 H 0.51203 0.24968 0.63468 0.0
O66 O 0.39183 0.23277 0.68602 0.0
H67 H 0.50951 0.35013 0.71066 0.0
H68 H 0.54836 0.17983 0.62946 0.0
Cu69 Cu 0.76073 0.92863 0.8982 0.0
N70 N 0.80396 0.95953 0.88629 0.0
N71 N 0.86615 0.98439 0.88047 0.0
C72 C 0.84264 0.95823 0.89376 0.0
C73 C 0.84113 1.0028 0.8641 0.0
C74 C 0.80279 0.9874 0.86777 0.0
O75 O 0.77908 0.89449 0.92573 0.0
C76 C 0.76074 0.8788 0.85475 0.0
O77 O 0.79928 0.87646 0.86002 0.0
H78 H 0.85338 0.93792 0.90825 0.0
H79 H 0.77589 0.99575 0.85761 0.0
N80 N 0.72225 0.96336 0.91057 0.0
N81 N 0.66345 0.99234 0.91798 0.0
C82 C 0.68263 0.96303 0.90529 0.0
C83 C 0.72852 0.9938 0.92707 0.0
C84 C 0.69231 1.01176 0.93169 0.0
C85 C 0.75559 0.88214 0.94335 0.0
O86 O 0.71716 0.89032 0.94198 0.0
H87 H 0.66832 0.94177 0.89234 0.0
H88 H 0.75739 1.002 0.93533 0.0
O89 O 0.73831 0.89842 0.8697 0.0
H90 H 0.84982 0.02599 0.85059 0.0
H91 H 0.68754 0.03656 0.94463 0.0
Cu92 Cu 0.60048 0.75589 0.64716 0.0
N93 N 0.56207 0.71663 0.65525 0.0
N94 N 0.53128 0.65693 0.66039 0.0
C95 C 0.56454 0.67668 0.65184 0.0
C96 C 0.50705 0.68569 0.66945 0.0
C97 C 0.52613 0.72249 0.6662 0.0
O98 O 0.63373 0.73534 0.61986 0.0
C99 C 0.65452 0.79836 0.68098 0.0
O100 O 0.66172 0.82242 0.66158 0.0
H101 H 0.59056 0.6624 0.64377 0.0
H102 H 0.51476 0.75153 0.67152 0.0
N103 N 0.57331 0.8003 0.63494 0.0
N104 N 0.54848 0.86163 0.63005 0.0
C105 C 0.5699 0.83716 0.64524 0.0
C106 C 0.55305 0.80129 0.61275 0.0
C107 C 0.53776 0.83905 0.60964 0.0
C108 C 0.65288 0.75851 0.60459 0.0
O109 O 0.65316 0.79747 0.6087 0.0
H110 H 0.58352 0.84608 0.66318 0.0
H111 H 0.54995 0.77625 0.59967 0.0
O112 O 0.63045 0.76844 0.67815 0.0
H113 H 0.47755 0.68055 0.67768 0.0
H114 H 0.51999 0.849 0.59362 0.0
Cu115 Cu 0.26419 0.09696 0.91051 0.0
N116 N 0.22437 0.06137 0.89886 0.0
N117 N 0.16418 0.03247 0.89161 0.0
C118 C 0.18475 0.06211 0.90396 0.0
C119 C 0.19217 1.01237 0.87834 0.0
C120 C 0.22924 0.03029 0.88286 0.0
O121 O 0.24286 0.12791 0.93858 0.0
C122 C 0.25881 0.14198 0.86501 0.0
O123 O 0.22014 0.13387 0.86737 0.0
H124 H 0.17143 0.08405 0.91643 0.0
H125 H 0.25772 0.02173 0.87476 0.0
N126 N 0.30661 0.06698 0.92271 0.0
N127 N 0.36795 0.04265 0.92869 0.0
C128 C 0.34534 0.06849 0.91526 0.0
C129 C 0.3045 0.0393 0.94135 0.0
C130 C 0.34228 0.02424 0.94512 0.0
C131 C 0.26578 0.14785 0.95363 0.0
O132 O 0.30454 0.1501 0.94883 0.0
H133 H 0.35675 0.08864 0.90063 0.0
H134 H 0.2773 0.03077 0.95148 0.0
O135 O 0.28282 0.13024 0.88227 0.0
H136 H 0.18624 0.98719 0.8657 0.0
H137 H 0.35011 1.00118 0.95869 0.0
Cu138 Cu 0.92892 0.76782 0.14549 0.0
N139 N 0.96538 0.8081 0.15531 0.0
N140 N 0.99521 0.86831 0.16062 0.0
C141 C 0.96373 0.84768 0.15027 0.0
C142 C 0.01739 0.84045 0.17257 0.0
C143 C 0.9989 0.80336 0.16925 0.0
O144 O 0.89466 0.78811 0.11861 0.0
C145 C 0.88833 0.77343 0.19278 0.0
O146 O 0.89699 0.81198 0.19053 0.0
H147 H 0.93998 0.86093 0.13916 0.0
H148 H 1.0089 0.77493 0.17665 0.0
N149 N 0.95813 0.72523 0.13278 0.0
N150 N 0.98398 0.66432 0.12787 0.0
C151 C 0.95985 0.68762 0.14209 0.0
C152 C 0.98188 0.72594 0.11206 0.0
C153 C 0.99786 0.68843 0.10895 0.0
C154 C 0.87682 0.76452 0.10293 0.0
O155 O 0.87964 0.7255 0.10606 0.0
H156 H 0.94392 0.67777 0.15904 0.0
H157 H 0.98686 0.7519 0.09996 0.0
O158 O 0.89829 0.74959 0.17499 0.0
H159 H 0.04454 0.84647 0.18346 0.0
H160 H 0.01747 0.67945 0.0936 0.0
Cu161 Cu 0.27164 0.42814 0.40999 0.0
N162 N 0.3109 0.46685 0.4025 0.0
N163 N 0.37069 0.49792 0.39807 0.0
C164 C 0.35082 0.46444 0.40619 0.0
C165 C 0.34194 0.52219 0.38898 0.0
C166 C 0.30512 0.50292 0.39175 0.0
O167 O 0.29205 0.39428 0.43706 0.0
C168 C 0.22991 0.37478 0.37544 0.0
O169 O 0.20591 0.36663 0.39472 0.0
H170 H 0.36484 0.43865 0.41473 0.0
H171 H 0.27616 0.51414 0.38607 0.0
N172 N 0.22691 0.45479 0.42222 0.0
N173 N 0.16526 0.47894 0.42703 0.0
C174 C 0.19005 0.45796 0.41183 0.0
C175 C 0.2256 0.47476 0.44449 0.0
C176 C 0.18764 0.48962 0.44756 0.0
C177 C 0.26883 0.37515 0.45231 0.0
O178 O 0.22982 0.37518 0.44829 0.0
H179 H 0.18135 0.44449 0.3938 0.0
H180 H 0.25055 0.47792 0.45766 0.0
O181 O 0.25958 0.39907 0.37861 0.0
H182 H 0.34711 0.55137 0.38033 0.0
H183 H 0.17741 0.5071 0.46362 0.0
C184 C 0.19528 0.18571 0.09626 0.0
C185 C 0.17522 0.22191 0.09997 0.0
C186 C 0.21061 0.1754 0.07221 0.0
C187 C 0.2061 0.20207 0.0514 0.0
C188 C 0.18673 0.23908 0.05515 0.0
C189 C 0.17138 0.24848 0.07935 0.0
C190 C 0.23087 0.13554 0.06896 0.0
C191 C 0.18168 0.26849 0.03351 0.0
C192 C 0.27476 0.18675 0.99433 0.0
C193 C 0.24962 0.1646 0.9777 0.0
C194 C 0.26074 0.19997 1.01812 0.0
C195 C 0.22069 0.19063 1.02556 0.0
C196 C 0.19488 0.16914 1.00862 0.0
C197 C 0.2096 0.15652 0.98488 0.0
C198 C 0.28907 0.22316 0.03553 0.0
C199 C 0.152 0.1585 1.01585 0.0
H200 H 0.19829 0.16493 0.11203 0.0
H201 H 0.15606 0.27659 0.08204 0.0
H202 H 0.21398 0.11681 0.05488 0.0
H203 H 0.26174 0.14034 0.06138 0.0
H204 H 0.23276 0.11858 0.08716 0.0
H205 H 0.16749 0.29674 0.03982 0.0
H206 H 0.21135 0.27609 1.0249 0.0
H207 H 0.16273 0.25458 1.01832 0.0
H208 H 0.30568 0.19326 0.98894 0.0
H209 H 0.18993 0.13941 0.97221 0.0
H210 H 0.29434 0.2056 0.05316 0.0
H211 H 0.27545 0.25189 0.04135 0.0
H212 H 0.31857 0.22989 1.02637 0.0
H213 H 0.15174 0.13874 0.0329 0.0
H214 H 0.13541 0.14283 1.0002 0.0
H215 H 0.13566 0.18607 1.02097 0.0
C216 C 0.76352 0.69121 0.31361 0.0
C217 C 0.78936 0.67609 0.33233 0.0
C218 C 0.77874 0.70839 0.29104 0.0
C219 C 0.82083 0.71069 0.28709 0.0
C220 C 0.84713 0.69643 0.30618 0.0
C221 C 0.83109 0.67925 0.32855 0.0
C222 C 0.7497 0.72324 0.27116 0.0
C223 C 0.89221 0.69858 0.30275 0.0
C224 C 0.86007 0.7165 0.21903 0.0
C225 C 0.86961 0.7576 0.21654 0.0
C226 C 0.84395 0.70091 0.24182 0.0
C227 C 0.83732 0.727 0.26269 0.0
C228 C 0.84654 0.76856 0.26024 0.0
C229 C 0.86248 0.78337 0.23719 0.0
C230 C 0.83429 0.65643 0.24363 0.0
C231 C 0.83997 0.79731 0.28207 0.0
H232 H 0.73124 0.68894 0.31632 0.0
H233 H 0.8513 0.66771 0.3429 0.0
H234 H 0.75659 0.7552 0.26655 0.0
H235 H 0.75308 0.70576 0.25328 0.0
H236 H 0.71789 0.72054 0.2775 0.0
H237 H 0.90857 0.68766 0.31981 0.0
H238 H 0.90087 0.68016 0.28607 0.0
H239 H 0.9022 0.73 0.2988 0.0
H240 H 0.86546 0.69634 0.2032 0.0
H241 H 0.86982 0.81515 0.23551 0.0
H242 H 0.80207 0.65157 0.24847 0.0
H243 H 0.8522 0.6429 0.25916 0.0
H244 H 0.84068 0.64029 0.22557 0.0
H245 H 0.80794 0.79616 0.28798 0.0
H246 H 0.84832 0.82883 0.27702 0.0
H247 H 0.85811 0.78825 0.29881 0.0
C248 C 0.36091 0.27474 0.5791 0.0
C249 C 0.3566 0.30186 0.5994 0.0
C250 C 0.34647 0.28365 0.55458 0.0
C251 C 0.32758 0.32075 0.55018 0.0
C252 C 0.32276 0.34805 0.57064 0.0
C253 C 0.33715 0.3382 0.59501 0.0
C254 C 0.35181 0.25359 0.53333 0.0
C255 C 0.30301 0.38803 0.5667 0.0
C256 C 0.32516 0.36509 0.48335 0.0
C257 C 0.28502 0.3576 0.47614 0.0
C258 C 0.33965 0.35245 0.50716 0.0
C259 C 0.3135 0.33151 0.52409 0.0
C260 C 0.27342 0.32247 0.51652 0.0
C261 C 0.25962 0.33574 0.49269 0.0
C262 C 0.38258 0.36277 0.51454 0.0
C263 C 0.24474 0.2998 0.5339 0.0
H264 H 0.37578 0.24651 0.58231 0.0
H265 H 0.33381 0.35942 0.61052 0.0
H266 H 0.32226 0.24581 0.52455 0.0
H267 H 0.37103 0.26699 0.51813 0.0
H268 H 0.3658 0.2255 0.54008 0.0
H269 H 0.30115 0.4057 0.58463 0.0
H270 H 0.32023 0.40604 0.55244 0.0
H271 H 0.27217 0.38329 0.55901 0.0
H272 H 0.34502 0.382 0.47074 0.0
H273 H 0.22862 0.32964 0.48725 0.0
H274 H 0.39847 0.33522 0.52025 0.0
H275 H 0.38287 0.38328 0.53125 0.0
H276 H 0.39958 0.37755 0.49876 0.0
H277 H 0.25823 0.27127 0.54024 0.0
H278 H 0.21545 0.29275 0.52451 0.0
H279 H 0.23906 0.31794 0.55124 0.0
C280 C 0.76931 0.84098 0.81379 0.0
C281 C 0.74456 0.86256 0.83033 0.0
C282 C 0.75545 0.8283 0.7897 0.0
C283 C 0.71595 0.83758 0.78186 0.0
C284 C 0.69049 0.85848 0.7987 0.0
C285 C 0.70504 0.8706 0.82274 0.0
C286 C 0.7834 0.80576 0.77239 0.0
C287 C 0.64819 0.869 0.79105 0.0
C288 C 0.69299 0.84387 0.71086 0.0
C289 C 0.67201 0.80746 0.70648 0.0
C290 C 0.70774 0.85385 0.73524 0.0
C291 C 0.70166 0.82666 0.75573 0.0
C292 C 0.68122 0.78951 0.75134 0.0
C293 C 0.66653 0.78042 0.72681 0.0
C294 C 0.72923 0.89384 0.73916 0.0
C295 C 0.67442 0.75959 0.77263 0.0
H296 H 0.79984 0.83452 0.81949 0.0
H297 H 0.68568 0.88728 0.83534 0.0
H298 H 0.76892 0.77705 0.76613 0.0
H299 H 0.78973 0.82379 0.755 0.0
H300 H 0.81244 0.79906 0.78183 0.0
H301 H 0.63175 0.88413 0.80666 0.0
H302 H 0.64911 0.88923 0.77423 0.0
H303 H 0.63099 0.84146 0.78541 0.0
H304 H 0.69729 0.86501 0.69533 0.0
H305 H 0.65048 0.75216 0.72362 0.0
H306 H 0.75975 0.88916 0.74706 0.0
H307 H 0.71261 0.91202 0.75325 0.0
H308 H 0.73215 0.91131 0.72118 0.0
H309 H 0.70357 0.75188 0.78151 0.0
H310 H 0.65925 0.73145 0.76589 0.0
H311 H 0.65567 0.77309 0.78774 0.0
C312 C 0.18477 0.33703 0.34498 0.0
C313 C 0.22102 0.35814 0.34969 0.0
C314 C 0.17501 0.32298 0.32041 0.0
C315 C 0.20227 0.3299 0.30005 0.0
C316 C 0.23922 0.35055 0.30475 0.0
C317 C 0.24808 0.36454 0.32947 0.0
C318 C 0.13521 0.30124 0.31615 0.0
C319 C 0.26923 0.35819 0.28361 0.0
C320 C 0.18862 0.26274 0.24179 0.0
C321 C 0.16679 0.28738 0.22531 0.0
C322 C 0.20137 0.27658 0.26586 0.0
C323 C 0.19176 0.3159 0.27379 0.0
C324 C 0.17068 0.34132 0.25699 0.0
C325 C 0.15864 0.32683 0.23291 0.0
C326 C 0.22423 0.24873 0.28308 0.0
C327 C 0.1597 0.38339 0.26476 0.0
H328 H 0.1636 0.33203 0.36042 0.0
H329 H 0.27622 0.38073 0.33292 0.0
H330 H 0.11708 0.31783 0.30201 0.0
H331 H 0.14027 0.27087 0.30819 0.0
H332 H 0.11749 0.29798 0.33401 0.0
H333 H 0.29712 0.37365 0.29055 0.0
H334 H 0.27746 0.32935 0.27457 0.0
H335 H 0.25556 0.37698 0.26857 0.0
H336 H 0.19523 0.23228 0.23605 0.0
H337 H 0.14169 0.34607 0.22035 0.0
H338 H 0.20611 0.24178 0.30034 0.0
H339 H 0.25267 0.26355 0.28958 0.0
H340 H 0.23153 0.22002 0.27348 0.0
H341 H 0.13916 0.38206 0.28142 0.0
H342 H 0.1447 0.39991 0.24912 0.0
H343 H 0.18702 0.40072 0.2707 0.0
C344 C 0.66163 0.70267 0.57309 0.0
C345 C 0.67023 0.74239 0.58071 0.0
C346 C 0.6742 0.68837 0.54924 0.0
C347 C 0.69626 0.71425 0.5327 0.0
C348 C 0.70638 0.75386 0.54069 0.0
C349 C 0.69309 0.76751 0.56454 0.0
C350 C 0.66266 0.64597 0.54139 0.0
C351 C 0.73028 0.78221 0.52375 0.0
C352 C 0.75279 0.66646 0.47778 0.0
C353 C 0.72634 0.67223 0.45726 0.0
C354 C 0.74372 0.6805 0.50236 0.0
C355 C 0.70714 0.70044 0.5066 0.0
C356 C 0.6805 0.70667 0.48593 0.0
C357 C 0.69052 0.69269 0.4615 0.0
C358 C 0.77311 0.67368 0.52384 0.0
C359 C 0.64106 0.72754 0.48969 0.0
H360 H 0.64391 0.68305 0.58541 0.0
H361 H 0.70005 0.79817 0.57031 0.0
H362 H 0.64256 0.64673 0.52448 0.0
H363 H 0.68982 0.62932 0.5358 0.0
H364 H 0.64696 0.62911 0.55687 0.0
H365 H 0.73799 0.81107 0.53344 0.0
H366 H 0.75853 0.768 0.51756 0.0
H367 H 0.7127 0.78881 0.50629 0.0
H368 H 0.78062 0.65081 0.47468 0.0
H369 H 0.66982 0.69715 0.44581 0.0
H370 H 0.75874 0.65459 0.53874 0.0
H371 H 0.78166 0.70277 0.53293 0.0
H372 H 0.80087 0.65891 0.51722 0.0
H373 H 0.62223 0.71058 0.50365 0.0
H374 H 0.62384 0.73034 0.47163 0.0
H375 H 0.64657 0.75806 0.49768 0.0
C376 C 0.34111 0.26648 0.74381 0.0
C377 C 0.35494 0.24021 0.72494 0.0
C378 C 0.32434 0.25179 0.76664 0.0
C379 C 0.32111 0.20979 0.7707 0.0
C380 C 0.33413 0.18308 0.75149 0.0
C381 C 0.35096 0.1986 0.72888 0.0
C382 C 0.31084 0.28125 0.78665 0.0
C383 C 0.33093 0.13808 0.75503 0.0
C384 C 0.31578 0.17008 0.83869 0.0
C385 C 0.27452 0.1614 0.84144 0.0
C386 C 0.33126 0.18626 0.81588 0.0
C387 C 0.3049 0.19377 0.79525 0.0
C388 C 0.26318 0.18559 0.79802 0.0
C389 C 0.24848 0.16962 0.82108 0.0
C390 C 0.37592 0.19484 0.81374 0.0
C391 C 0.23412 0.1931 0.77645 0.0
H392 H 0.34406 0.29868 0.74099 0.0
H393 H 0.36151 0.17805 0.71442 0.0
H394 H 0.27881 0.27532 0.79154 0.0
H395 H 0.32863 0.27734 0.80436 0.0
H396 H 0.31435 0.31297 0.78026 0.0
H397 H 0.3411 0.1214 0.73792 0.0
H398 H 0.34943 0.12901 0.7716 0.0
H399 H 0.29933 0.12891 0.75921 0.0
H400 H 0.33615 0.16386 0.8543 0.0
H401 H 0.21657 0.16295 0.82296 0.0
H402 H 0.38149 0.22687 0.80872 0.0
H403 H 0.38873 0.17645 0.7982 0.0
H404 H 0.39223 0.18823 0.83172 0.0
H405 H 0.23621 0.22506 0.77047 0.0
H406 H 0.20247 0.18584 0.78181 0.0
H407 H 0.24214 0.17461 0.75967 0.0
C408 C 0.84089 0.75469 0.06125 0.0
C409 C 0.85599 0.78076 0.08022 0.0
C410 C 0.82343 0.76964 0.03886 0.0
C411 C 0.82079 0.81169 0.03536 0.0
C412 C 0.83519 0.83816 0.05465 0.0
C413 C 0.85269 0.8224 0.07681 0.0
C414 C 0.80849 0.74043 1.01872 0.0
C415 C 0.83268 0.88319 0.05172 0.0
C416 C 0.81307 0.85386 0.96812 0.0
C417 C 0.7719 0.86187 0.96626 0.0
C418 C 0.82925 0.83701 0.99035 0.0
C419 C 0.80372 0.82807 1.0113 0.0
C420 C 0.76204 0.83545 1.00939 0.0
C421 C 0.74663 0.85217 0.9869 0.0
C422 C 0.87382 0.82937 0.99158 0.0
C423 C 0.73384 0.82638 0.03131 0.0
H424 H 0.84333 0.72248 0.06366 0.0
H425 H 0.8642 0.84279 0.09135 0.0
H426 H 0.77634 0.74564 1.01446 0.0
H427 H 0.8255 0.74539 1.00076 0.0
H428 H 0.81177 0.70861 1.02464 0.0
H429 H 0.84407 0.89963 0.06881 0.0
H430 H 0.85048 0.89321 0.03491 0.0
H431 H 0.80105 0.89169 0.04826 0.0
H432 H 0.83284 0.86121 0.95229 0.0
H433 H 0.7148 0.85828 0.98569 0.0
H434 H 0.87895 0.79732 0.99613 0.0
H435 H 0.8878 0.84761 1.00709 0.0
H436 H 0.88938 0.83687 0.9734 0.0
H437 H 0.73572 0.79429 0.03683 0.0
H438 H 0.70207 0.8329 1.02656 0.0
H439 H 0.74291 0.84456 0.0482 0.0
C440 C 0.04036 0.10503 0.14618 0.0
C441 C 0.03916 0.12263 0.17049 0.0
C442 C 0.03321 0.06356 0.14288 0.0
C443 C 0.02477 0.03916 0.16442 0.0
C444 C 0.02358 0.05674 0.18899 0.0
C445 C 0.03079 0.09819 0.19172 0.0
C446 C 0.03457 0.04588 0.11637 0.0
C447 C 1.01493 0.0317 0.21247 0.0
C448 C 0.97094 0.93786 0.15752 0.0
C449 C 1.00282 0.91117 0.16002 0.0
C450 C 0.97778 0.97964 0.15818 0.0
C451 C 0.01744 0.99513 0.16148 0.0
C452 C 0.04986 0.96843 0.16338 0.0
C453 C 0.04217 0.92681 0.1626 0.0
C454 C 0.94241 1.00718 0.15611 0.0
C455 C 0.09261 0.98381 0.16683 0.0
H456 H 0.04636 0.12376 0.12967 0.0
H457 H 0.03052 0.11137 0.2106 0.0
H458 H 0.05763 0.02231 0.11549 0.0
H459 H 1.00518 0.03123 0.11168 0.0
H460 H 0.04162 0.06893 0.10162 0.0
H461 H 1.01474 0.05007 0.23018 0.0
H462 H 0.98529 0.01601 0.21052 0.0
H463 H 0.03795 1.00826 0.21452 0.0
H464 H 0.94043 0.92614 0.1558 0.0
H465 H 0.06704 0.90647 0.16407 0.0
H466 H 0.94777 0.02971 0.14082 0.0
H467 H 0.93885 0.02393 0.17425 0.0
H468 H 0.91383 0.99048 0.15196 0.0
H469 H 0.10069 1.00529 0.15139 0.0
H470 H 0.11462 0.95916 0.16681 0.0
H471 H 0.09538 1.00034 0.18516 0.0
C472 C 0.1078 0.49008 0.39807 0.0
C473 C 0.12331 0.48695 0.42288 0.0
C474 C 0.06696 0.49792 0.39391 0.0
C475 C 0.04106 0.50261 0.41507 0.0
C476 C 0.05652 0.49937 0.44014 0.0
C477 C 0.0974 0.4916 0.44372 0.0
C478 C 0.05155 0.50135 0.36691 0.0
C479 C 0.0298 0.50387 0.46321 0.0
C480 C 0.94271 0.55775 0.40913 0.0
C481 C 0.91447 0.52578 0.40842 0.0
C482 C 0.98413 0.55065 0.41045 0.0
C483 C 0.99766 0.51062 0.4112 0.0
C484 C 0.96945 0.47822 0.40979 0.0
C485 C 0.92825 0.4862 0.40835 0.0
C486 C 1.01334 0.58599 0.41187 0.0
C487 C 0.98272 0.4351 0.41049 0.0
H488 H 0.12772 0.48695 0.3819 0.0
H489 H 0.10896 0.48852 0.46292 0.0
H490 H 0.02708 0.47875 0.36354 0.0
H491 H 0.0386 0.53144 0.3639 0.0
H492 H 0.07557 0.49682 0.35254 0.0
H493 H 0.04659 0.50074 0.48142 0.0
H494 H 1.01562 0.53375 0.46296 0.0
H495 H 1.00518 0.48082 0.46271 0.0
H496 H 0.93247 0.5884 0.40945 0.0
H497 H 0.90678 0.46132 0.40729 0.0
H498 H 0.03699 0.58319 0.3971 0.0
H499 H 0.0286 0.58632 0.43071 0.0
H500 H 0.99824 0.61516 0.40921 0.0
H501 H 1.00523 0.42981 0.39532 0.0
H502 H 0.95717 0.41338 0.40794 0.0
H503 H 0.99747 0.42892 0.42904 0.0
C504 C 0.46386 0.42532 0.65461 0.0
C505 C 0.49007 0.40223 0.66929 0.0
C506 C 0.47072 0.4668 0.65137 0.0
C507 C 0.5045 0.48565 0.66317 0.0
C508 C 0.53167 0.46235 0.6774 0.0
C509 C 0.52418 0.42095 0.68023 0.0
C510 C 0.44115 0.49064 0.63597 0.0
C511 C 0.56812 0.48133 0.69021 0.0
C512 C 0.54057 0.58948 0.64187 0.0
C513 C 0.52379 0.6141 0.66062 0.0
C514 C 0.53406 0.54764 0.64218 0.0
C515 C 0.51039 0.53003 0.66181 0.0
C516 C 0.49312 0.55474 0.68067 0.0
C517 C 0.49996 0.59646 0.6798 0.0
C518 C 0.55268 0.52227 0.62163 0.0
C519 C 0.46795 0.53705 0.70202 0.0
H520 H 0.43725 0.41127 0.6463 0.0
H521 H 0.54499 0.40324 0.69117 0.0
H522 H 0.42563 0.5121 0.64861 0.0
H523 H 0.45718 0.50859 0.62116 0.0
H524 H 0.41808 0.47108 0.6265 0.0
H525 H 0.5872 0.45875 0.69969 0.0
H526 H 0.58669 0.49805 0.67602 0.0
H527 H 0.5584 0.50334 0.70474 0.0
H528 H 0.55854 0.60301 0.6268 0.0
H529 H 0.48737 0.61522 0.69453 0.0
H530 H 0.52896 0.50433 0.61162 0.0
H531 H 0.57368 0.50072 0.63033 0.0
H532 H 0.56943 0.54072 0.60734 0.0
H533 H 0.4423 0.51919 0.69406 0.0
H534 H 0.45593 0.56049 0.71486 0.0
H535 H 0.48629 0.51629 0.71354 0.0
C536 C 0.59268 0.96961 0.91232 0.0
C537 C 0.62095 1.00039 0.91775 0.0
C538 C 0.55123 0.9767 0.91298 0.0
C539 C 0.53766 0.01549 0.9193 0.0
C540 C 0.56598 0.04687 0.92436 0.0
C541 C 0.60725 0.03896 0.92349 0.0
C542 C 0.52193 0.94245 0.90746 0.0
C543 C 0.55267 0.08867 0.9311 0.0
C544 C 0.43011 0.04242 0.90287 0.0
C545 C 0.41054 0.03624 0.92628 0.0
C546 C 0.47149 0.03581 0.90027 0.0
C547 C 0.49383 0.02282 0.92163 0.0
C548 C 0.47432 0.01674 0.94534 0.0
C549 C 0.43295 0.0235 0.94737 0.0
C550 C 0.49124 0.04243 0.87465 0.0
C551 C 0.49716 1.00316 0.96861 0.0
H552 H 0.60287 0.93963 0.90817 0.0
H553 H 0.62882 0.06308 0.92727 0.0
H554 H 0.50365 0.93577 0.9247 0.0
H555 H 0.50084 0.95105 0.89208 0.0
H556 H 0.53733 0.91462 0.90161 0.0
H557 H 0.57849 0.11004 0.93374 0.0
H558 H 0.53287 0.10038 0.91589 0.0
H559 H 0.53485 0.08773 0.94898 0.0
H560 H 0.41292 0.05178 0.88643 0.0
H561 H 0.41822 0.01928 0.96561 0.0
H562 H 0.50454 1.01404 0.8679 0.0
H563 H 0.51617 0.06498 0.87641 0.0
H564 H 0.46972 0.05297 0.85999 0.0
H565 H 0.51132 0.97389 0.96475 0.0
H566 H 0.47751 0.99982 0.98564 0.0
H567 H 0.52173 0.02515 0.97311 0.0
C568 C 0.96476 0.59693 0.14435 0.0
C569 C 0.99232 0.6223 0.13154 0.0
C570 C 0.97184 0.55572 0.14715 0.0
C571 C 1.00723 0.53939 0.1368 0.0
C572 C 0.03553 0.56489 0.12428 0.0
C573 C 0.02778 0.606 0.12187 0.0
C574 C 0.941 0.52948 0.16069 0.0
C575 C 0.07367 0.54861 0.11303 0.0
C576 C 0.04196 0.43723 0.1594 0.0
C577 C 0.02744 0.4119 0.13989 0.0
C578 C 0.03532 0.47877 0.1588 0.0
C579 C 1.01392 0.49537 0.1381 0.0
C580 C 0.99921 0.46996 0.11836 0.0
C581 C 1.00606 0.42856 0.11954 0.0
C582 C 0.05116 0.50488 0.18031 0.0
C583 C 0.97656 0.48657 0.09584 0.0
H584 H 0.9371 0.60904 0.15165 0.0
H585 H 0.0496 0.62541 0.11238 0.0
H586 H 0.92787 0.50717 0.14713 0.0
H587 H 0.9555 0.51242 0.17625 0.0
H588 H 0.91621 0.54718 0.16894 0.0
H589 H 0.09316 0.57263 0.10455 0.0
H590 H 0.09106 0.53289 0.12793 0.0
H591 H 0.06607 0.52623 0.09797 0.0
H592 H 0.05805 0.42445 0.17533 0.0
H593 H 0.99529 0.40926 0.10423 0.0
H594 H 0.026 0.52088 0.18942 0.0
H595 H 0.0724 0.52809 0.17273 0.0
H596 H 0.06688 0.48724 0.19514 0.0
H597 H 0.94955 0.50248 0.10254 0.0
H598 H 0.96683 0.46271 0.08219 0.0
H599 H 0.99582 0.50885 0.08556 0.0
C600 C 0.44045 0.47356 0.39767 0.0
C601 C 0.41361 0.50555 0.398 0.0
C602 C 0.48217 0.48058 0.39635 0.0
C603 C 0.49748 0.52056 0.39518 0.0
C604 C 0.47071 0.55302 0.3961 0.0
C605 C 0.42915 0.54512 0.39758 0.0
C606 C 0.5098 0.44517 0.39547 0.0
C607 C 0.48592 0.59609 0.39493 0.0
C608 C 0.6084 0.54105 0.40888 0.0
C609 C 0.62441 0.54323 0.38416 0.0
C610 C 0.56712 0.53359 0.41282 0.0
C611 C 0.54129 0.52839 0.39152 0.0
C612 C 0.55726 0.53072 0.36654 0.0
C613 C 0.59859 0.53806 0.36318 0.0
C614 C 0.55118 0.53106 0.43975 0.0
C615 C 0.53065 0.52567 0.34332 0.0
H616 H 0.42887 0.4429 0.3977 0.0
H617 H 0.40879 0.57004 0.39832 0.0
H618 H 0.5253 0.44438 0.37675 0.0
H619 H 0.53339 0.44831 0.41038 0.0
H620 H 0.49337 0.41608 0.39829 0.0
H621 H 0.4613 0.61792 0.39696 0.0
H622 H 0.5084 0.60188 0.41023 0.0
H623 H 0.50126 0.60163 0.37644 0.0
H624 H 0.62825 0.54459 0.42516 0.0
H625 H 0.61062 0.54039 0.34404 0.0
H626 H 0.53682 0.50109 0.44302 0.0
H627 H 0.52769 0.55379 0.44264 0.0
H628 H 0.5752 0.53599 0.45424 0.0
H629 H 0.51512 0.49582 0.34377 0.0
H630 H 0.54781 0.52832 0.32521 0.0
H631 H 0.50705 0.54875 0.34341 0.0
C632 C 0.46985 0.08441 0.64749 0.0
C633 C 0.50203 0.11242 0.64789 0.0
C634 C 0.47667 0.04295 0.64632 0.0
C635 C 0.51663 0.02917 0.64542 0.0
C636 C 0.54924 0.05717 0.64654 0.0
C637 C 0.54154 0.0984 0.64782 0.0
C638 C 0.44111 1.01397 0.64522 0.0
C639 C 0.59229 0.04363 0.64567 0.0
C640 C 0.53728 0.91919 0.65886 0.0
C641 C 0.54019 0.90351 0.63409 0.0
C642 C 0.52934 0.96001 0.66291 0.0
C643 C 0.52435 0.98571 0.64167 0.0
C644 C 0.52726 0.97006 0.61665 0.0
C645 C 0.53512 0.9292 0.61318 0.0
C646 C 0.52626 0.97563 0.68987 0.0
C647 C 0.52241 0.99656 0.5935 0.0
H648 H 0.43925 0.09485 0.6473 0.0
H649 H 0.56658 0.11972 0.64865 0.0
H650 H 0.44037 0.99859 0.62643 0.0
H651 H 0.44402 0.99041 0.66004 0.0
H652 H 0.41207 0.02926 0.64801 0.0
H653 H 0.61422 0.06905 0.64799 0.0
H654 H 0.59767 0.02126 0.66091 0.0
H655 H 0.59812 0.02867 0.62715 0.0
H656 H 0.54071 0.89943 0.67509 0.0
H657 H 0.53801 0.91752 0.59401 0.0
H658 H 0.4963 0.98887 0.69292 0.0
H659 H 0.54912 0.9999 0.69309 0.0
H660 H 0.5307 0.95169 0.7043 0.0
H661 H 0.49261 1.0109 0.59391 0.0
H662 H 0.52509 0.97958 0.57534 0.0
H663 H 0.54562 0.02103 0.59372 0.0
C664 C 0.93191 1.00331 0.86174 0.0
C665 C 0.90901 0.99085 0.88287 0.0
C666 C 0.97363 1.00979 0.86373 0.0
C667 C 0.99295 1.0038 0.88746 0.0
C668 C 0.97006 0.99123 0.90889 0.0
C669 C 0.92836 0.98482 0.90632 0.0
C670 C 0.99705 0.02291 0.84039 0.0
C671 C 0.98959 0.9848 0.93455 0.0
C672 C 0.10545 0.98645 0.88602 0.0
C673 C 0.12125 0.02492 0.89162 0.0
C674 C 0.06377 0.979 0.88497 0.0
C675 C 0.03716 1.01075 0.88976 0.0
C676 C 0.05281 0.04946 0.89591 0.0
C677 C 0.09463 0.0561 0.8967 0.0
C678 C 0.0482 0.93728 0.87839 0.0
C679 C 0.02536 0.08408 0.90117 0.0
H680 H 0.91728 1.00742 0.84349 0.0
H681 H 0.91078 0.9757 0.92278 0.0
H682 H 1.01278 0.05208 0.84411 0.0
H683 H 0.02043 1.00065 0.83599 0.0
H684 H 0.97749 0.02623 0.82336 0.0
H685 H 0.96758 0.97478 0.94928 0.0
H686 H 1.01323 0.96192 0.93293 0.0
H687 H 1.00452 1.01313 0.9411 0.0
H688 H 0.1257 0.96202 0.88249 0.0
H689 H 0.1064 0.08603 0.90071 0.0
H690 H 0.03028 0.93823 0.86053 0.0
H691 H 0.02792 0.92588 0.89367 0.0
H692 H 0.07286 0.91566 0.87578 0.0
H693 H 1.0074 0.09066 0.88387 0.0
H694 H 0.04226 0.11185 0.90686 0.0
H695 H 1.00385 0.07594 0.91658 0.0
loop_
_geom_bond_atom_site_label_1
_geom_bond_atom_site_label_2
_geom_bond_distance
_geom_bond_site_symmetry_2
_ccdc_geom_bond_type
Cu0 N1 1.999 . S
Cu0 O6 1.974 . S
Cu0 N11 1.985 . S
Cu0 O20 1.959 . S
N1 Cu0 1.999 . S
N1 C3 1.263 . S
N1 C5 1.389 . S
N2 C3 1.358 . S
N2 C4 1.400 . S
C3 N1 1.263 . S
C3 N2 1.358 . S
C3 H9 0.930 . S
C4 N2 1.400 . S
C4 C5 1.351 . S
C4 H21 0.930 . S
C5 N1 1.389 . S
C5 C4 1.351 . S
C5 H10 0.930 . S
O6 Cu0 1.974 . S
O6 C16 1.282 . S
C7 O8 1.261 . S
C7 O20 1.251 . S
O8 C7 1.261 . S
H9 C3 0.930 . S
H10 C5 0.930 . S
N11 Cu0 1.985 . S
N11 C13 1.335 . S
N11 C14 1.390 . S
N12 C13 1.345 . S
N12 C15 1.336 . S
C13 N11 1.335 . S
C13 N12 1.345 . S
C13 H18 0.930 . S
C14 N11 1.390 . S
C14 C15 1.346 . S
C14 H19 0.930 . S
C15 N12 1.336 . S
C15 C14 1.346 . S
C15 H22 0.929 . S
C16 O6 1.282 . S
C16 O17 1.216 . S
O17 C16 1.216 . S
H18 C13 0.930 . S
H19 C14 0.930 . S
O20 Cu0 1.959 . S
O20 C7 1.251 . S
H21 C4 0.930 . S
H22 C15 0.929 . S
Cu23 N24 1.999 . S
Cu23 O29 1.974 . S
Cu23 N34 1.985 . S
Cu23 O43 1.959 . S
N24 Cu23 1.999 . S
N24 C26 1.263 . S
N24 C28 1.389 . S
N25 C26 1.358 . S
N25 C27 1.400 . S
C26 N24 1.263 . S
C26 N25 1.358 . S
C26 H32 0.930 . S
C27 N25 1.400 . S
C27 C28 1.351 . S
C27 H44 0.930 . S
C28 N24 1.389 . S
C28 C27 1.351 . S
C28 H33 0.930 . S
O29 Cu23 1.974 . S
O29 C39 1.282 . S
C30 O31 1.261 . S
C30 O43 1.251 . S
O31 C30 1.261 . S
H32 C26 0.930 . S
H33 C28 0.930 . S
N34 Cu23 1.985 . S
N34 C36 1.335 . S
N34 C37 1.390 . S
N35 C36 1.345 . S
N35 C38 1.336 . S
C36 N34 1.335 . S
C36 N35 1.345 . S
C36 H41 0.930 . S
C37 N34 1.390 . S
C37 C38 1.346 . S
C37 H42 0.930 . S
C38 N35 1.336 . S
C38 C37 1.346 . S
C38 H45 0.929 . S
C39 O29 1.282 . S
C39 O40 1.216 . S
O40 C39 1.216 . S
H41 C36 0.930 . S
H42 C37 0.930 . S
O43 Cu23 1.959 . S
O43 C30 1.251 . S
H44 C27 0.930 . S
H45 C38 0.929 . S
Cu46 N47 1.999 . S
Cu46 O52 1.974 . S
Cu46 N57 1.985 . S
Cu46 O66 1.959 . S
N47 Cu46 1.999 . S
N47 C49 1.263 . S
N47 C51 1.389 . S
N48 C49 1.358 . S
N48 C50 1.400 . S
C49 N47 1.263 . S
C49 N48 1.358 . S
C49 H55 0.930 . S
C50 N48 1.400 . S
C50 C51 1.351 . S
C50 H67 0.930 . S
C51 N47 1.389 . S
C51 C50 1.351 . S
C51 H56 0.930 . S
O52 Cu46 1.974 . S
O52 C62 1.282 . S
C53 O54 1.261 . S
C53 O66 1.251 . S
O54 C53 1.261 . S
H55 C49 0.930 . S
H56 C51 0.930 . S
N57 Cu46 1.985 . S
N57 C59 1.335 . S
N57 C60 1.390 . S
N58 C59 1.345 . S
N58 C61 1.336 . S
C59 N57 1.335 . S
C59 N58 1.345 . S
C59 H64 0.930 . S
C60 N57 1.390 . S
C60 C61 1.346 . S
C60 H65 0.930 . S
C61 N58 1.336 . S
C61 C60 1.346 . S
C61 H68 0.929 . S
C62 O52 1.282 . S
C62 O63 1.216 . S
O63 C62 1.216 . S
H64 C59 0.930 . S
H65 C60 0.930 . S
O66 Cu46 1.959 . S
O66 C53 1.251 . S
H67 C50 0.930 . S
H68 C61 0.929 . S
Cu69 N70 1.999 . S
Cu69 O75 1.974 . S
Cu69 N80 1.985 . S
Cu69 O89 1.959 . S
N70 Cu69 1.999 . S
N70 C72 1.263 . S
N70 C74 1.389 . S
N71 C72 1.358 . S
N71 C73 1.400 . S
C72 N70 1.263 . S
C72 N71 1.358 . S
C72 H78 0.930 . S
C73 N71 1.400 . S
C73 C74 1.351 . S
C73 H90 0.930 . S
C74 N70 1.389 . S
C74 C73 1.351 . S
C74 H79 0.930 . S
O75 Cu69 1.974 . S
O75 C85 1.282 . S
C76 O77 1.261 . S
C76 O89 1.251 . S
O77 C76 1.261 . S
H78 C72 0.930 . S
H79 C74 0.930 . S
N80 Cu69 1.985 . S
N80 C82 1.335 . S
N80 C83 1.390 . S
N81 C82 1.345 . S
N81 C84 1.336 . S
C82 N80 1.335 . S
C82 N81 1.345 . S
C82 H87 0.930 . S
C83 N80 1.390 . S
C83 C84 1.346 . S
C83 H88 0.930 . S
C84 N81 1.336 . S
C84 C83 1.346 . S
C84 H91 0.929 . S
C85 O75 1.282 . S
C85 O86 1.216 . S
O86 C85 1.216 . S
H87 C82 0.930 . S
H88 C83 0.930 . S
O89 Cu69 1.959 . S
O89 C76 1.251 . S
H90 C73 0.930 . S
H91 C84 0.929 . S
Cu92 N93 1.999 . S
Cu92 O98 1.974 . S
Cu92 N103 1.985 . S
Cu92 O112 1.959 . S
N93 Cu92 1.999 . S
N93 C95 1.263 . S
N93 C97 1.389 . S
N94 C95 1.358 . S
N94 C96 1.400 . S
C95 N93 1.263 . S
C95 N94 1.358 . S
C95 H101 0.930 . S
C96 N94 1.400 . S
C96 C97 1.351 . S
C96 H113 0.930 . S
C97 N93 1.389 . S
C97 C96 1.351 . S
C97 H102 0.930 . S
O98 Cu92 1.974 . S
O98 C108 1.282 . S
C99 O100 1.261 . S
C99 O112 1.251 . S
O100 C99 1.261 . S
H101 C95 0.930 . S
H102 C97 0.930 . S
N103 Cu92 1.985 . S
N103 C105 1.335 . S
N103 C106 1.390 . S
N104 C105 1.345 . S
N104 C107 1.336 . S
C105 N103 1.335 . S
C105 N104 1.345 . S
C105 H110 0.930 . S
C106 N103 1.390 . S
C106 C107 1.346 . S
C106 H111 0.930 . S
C107 N104 1.336 . S
C107 C106 1.346 . S
C107 H114 0.929 . S
C108 O98 1.282 . S
C108 O109 1.216 . S
O109 C108 1.216 . S
H110 C105 0.930 . S
H111 C106 0.930 . S
O112 Cu92 1.959 . S
O112 C99 1.251 . S
H113 C96 0.930 . S
H114 C107 0.929 . S
Cu115 N116 1.999 . S
Cu115 O121 1.974 . S
Cu115 N126 1.985 . S
Cu115 O135 1.959 . S
N116 Cu115 1.999 . S
N116 C118 1.263 . S
N116 C120 1.389 . S
N117 C118 1.358 . S
N117 C119 1.400 . S
C118 N116 1.263 . S
C118 N117 1.358 . S
C118 H124 0.930 . S
C119 N117 1.400 . S
C119 C120 1.351 . S
C119 H136 0.930 . S
C120 N116 1.389 . S
C120 C119 1.351 . S
C120 H125 0.930 . S
O121 Cu115 1.974 . S
O121 C131 1.282 . S
C122 O123 1.261 . S
C122 O135 1.251 . S
O123 C122 1.261 . S
H124 C118 0.930 . S
H125 C120 0.930 . S
N126 Cu115 1.985 . S
N126 C128 1.335 . S
N126 C129 1.390 . S
N127 C128 1.345 . S
N127 C130 1.336 . S
C128 N126 1.335 . S
C128 N127 1.345 . S
C128 H133 0.930 . S
C129 N126 1.390 . S
C129 C130 1.346 . S
C129 H134 0.930 . S
C130 N127 1.336 . S
C130 C129 1.346 . S
C130 H137 0.929 . S
C131 O121 1.282 . S
C131 O132 1.216 . S
O132 C131 1.216 . S
H133 C128 0.930 . S
H134 C129 0.930 . S
O135 Cu115 1.959 . S
O135 C122 1.251 . S
H136 C119 0.930 . S
H137 C130 0.929 . S
Cu138 N139 1.999 . S
Cu138 O144 1.974 . S
Cu138 N149 1.985 . S
Cu138 O158 1.959 . S
N139 Cu138 1.999 . S
N139 C141 1.263 . S
N139 C143 1.389 . S
N140 C141 1.358 . S
N140 C142 1.400 . S
C141 N139 1.263 . S
C141 N140 1.358 . S
C141 H147 0.930 . S
C142 N140 1.400 . S
C142 C143 1.351 . S
C142 H159 0.930 . S
C143 N139 1.389 . S
C143 C142 1.351 . S
C143 H148 0.930 . S
O144 Cu138 1.974 . S
O144 C154 1.282 . S
C145 O146 1.261 . S
C145 O158 1.251 . S
O146 C145 1.261 . S
H147 C141 0.930 . S
H148 C143 0.930 . S
N149 Cu138 1.985 . S
N149 C151 1.335 . S
N149 C152 1.390 . S
N150 C151 1.345 . S
N150 C153 1.336 . S
C151 N149 1.335 . S
C151 N150 1.345 . S
C151 H156 0.930 . S
C152 N149 1.390 . S
C152 C153 1.346 . S
C152 H157 0.930 . S
C153 N150 1.336 . S
C153 C152 1.346 . S
C153 H160 0.929 . S
C154 O144 1.282 . S
C154 O155 1.216 . S
O155 C154 1.216 . S
H156 C151 0.930 . S
H157 C152 0.930 . S
O158 Cu138 1.959 . S
O158 C145 1.251 . S
H159 C142 0.930 . S
H160 C153 0.929 . S
Cu161 N162 1.999 . S
Cu161 O167 1.974 . S
Cu161 N172 1.985 . S
Cu161 O181 1.959 . S
N162 Cu161 1.999 . S
N162 C164 1.263 . S
N162 C166 1.389 . S
N163 C164 1.358 . S
N163 C165 1.400 . S
C164 N162 1.263 . S
C164 N163 1.358 . S
C164 H170 0.930 . S
C165 N163 1.400 . S
C165 C166 1.351 . S
C165 H182 0.930 . S
C166 N162 1.389 . S
C166 C165 1.351 . S
C166 H171 0.930 . S
O167 Cu161 1.974 . S
O167 C177 1.282 . S
C168 O169 1.261 . S
C168 O181 1.251 . S
O169 C168 1.261 . S
H170 C164 0.930 . S
H171 C166 0.930 . S
N172 Cu161 1.985 . S
N172 C174 1.335 . S
N172 C175 1.390 . S
N173 C174 1.345 . S
N173 C176 1.336 . S
C174 N172 1.335 . S
C174 N173 1.345 . S
C174 H179 0.930 . S
C175 N172 1.390 . S
C175 C176 1.346 . S
C175 H180 0.930 . S
C176 N173 1.336 . S
C176 C175 1.346 . S
C176 H183 0.929 . S
C177 O167 1.282 . S
C177 O178 1.216 . S
O178 C177 1.216 . S
H179 C174 0.930 . S
H180 C175 0.930 . S
O181 Cu161 1.959 . S
O181 C168 1.251 . S
H182 C165 0.930 . S
H183 C176 0.929 . S
C184 C185 1.391 . S
C184 C186 1.394 . S
C184 H200 0.931 . S
C185 C184 1.391 . S
C185 C189 1.376 . S
C186 C184 1.394 . S
C186 C187 1.369 . S
C186 C190 1.531 . S
C187 C186 1.369 . S
C187 C188 1.410 . S
C187 C195 1.503 1_554 S
C188 C187 1.410 . S
C188 C189 1.392 . S
C188 C191 1.511 1_554 S
C189 C185 1.376 . S
C189 C188 1.392 . S
C189 H201 0.929 . S
C190 C186 1.531 . S
C190 H202 0.960 . S
C190 H203 0.962 . S
C190 H204 0.960 . S
C191 C188 1.511 1_556 S
C191 H205 0.961 . S
C191 H206 0.961 . S
C191 H207 0.961 . S
C192 C193 1.370 . S
C192 C194 1.363 . S
C192 H208 0.931 . S
C193 C192 1.370 . S
C193 C197 1.408 . S
C194 C192 1.363 . S
C194 C195 1.370 . S
C194 C198 1.524 . S
C195 C187 1.503 1_556 S
C195 C194 1.370 . S
C195 C196 1.403 . S
C196 C195 1.403 . S
C196 C197 1.404 . S
C196 C199 1.539 . S
C197 C193 1.408 . S
C197 C196 1.404 . S
C197 H209 0.930 . S
C198 C194 1.524 . S
C198 H210 0.956 1_556 S
C198 H211 0.961 . S
C198 H212 0.961 . S
C199 C196 1.539 . S
C199 H213 0.952 1_556 S
C199 H214 0.961 . S
C199 H215 0.960 . S
H200 C184 0.931 . S
H201 C189 0.929 . S
H202 C190 0.960 . S
H203 C190 0.962 . S
H204 C190 0.960 . S
H205 C191 0.961 . S
H206 C191 0.961 . S
H207 C191 0.961 . S
H208 C192 0.931 . S
H209 C197 0.930 . S
H210 C198 0.956 1_554 S
H211 C198 0.961 . S
H212 C198 0.961 . S
H213 C199 0.952 1_554 S
H214 C199 0.961 . S
H215 C199 0.960 . S
C216 C217 1.391 . S
C216 C218 1.394 . S
C216 H232 0.931 . S
C217 C216 1.391 . S
C217 C221 1.376 . S
C218 C216 1.394 . S
C218 C219 1.369 . S
C218 C222 1.531 . S
C219 C218 1.369 . S
C219 C220 1.410 . S
C219 C227 1.503 . S
C220 C219 1.410 . S
C220 C221 1.392 . S
C220 C223 1.511 . S
C221 C217 1.376 . S
C221 C220 1.392 . S
C221 H233 0.929 . S
C222 C218 1.531 . S
C222 H234 0.960 . S
C222 H235 0.962 . S
C222 H236 0.960 . S
C223 C220 1.511 . S
C223 H237 0.961 . S
C223 H238 0.961 . S
C223 H239 0.961 . S
C224 C225 1.370 . S
C224 C226 1.363 . S
C224 H240 0.931 . S
C225 C224 1.370 . S
C225 C229 1.408 . S
C226 C224 1.363 . S
C226 C227 1.370 . S
C226 C230 1.524 . S
C227 C219 1.503 . S
C227 C226 1.370 . S
C227 C228 1.403 . S
C228 C227 1.403 . S
C228 C229 1.404 . S
C228 C231 1.539 . S
C229 C225 1.408 . S
C229 C228 1.404 . S
C229 H241 0.930 . S
C230 C226 1.524 . S
C230 H242 0.956 . S
C230 H243 0.961 . S
C230 H244 0.961 . S
C231 C228 1.539 . S
C231 H245 0.958 . S
C231 H246 0.961 . S
C231 H247 0.960 . S
H232 C216 0.931 . S
H233 C221 0.929 . S
H234 C222 0.960 . S
H235 C222 0.962 . S
H236 C222 0.960 . S
H237 C223 0.961 . S
H238 C223 0.961 . S
H239 C223 0.961 . S
H240 C224 0.931 . S
H241 C229 0.930 . S
H242 C230 0.956 . S
H243 C230 0.961 . S
H244 C230 0.961 . S
H245 C231 0.958 . S
H246 C231 0.961 . S
H247 C231 0.960 . S
C248 C249 1.391 . S
C248 C250 1.394 . S
C248 H264 0.931 . S
C249 C248 1.391 . S
C249 C253 1.376 . S
C250 C248 1.394 . S
C250 C251 1.369 . S
C250 C254 1.531 . S
C251 C250 1.369 . S
C251 C252 1.410 . S
C251 C259 1.503 . S
C252 C251 1.410 . S
C252 C253 1.392 . S
C252 C255 1.511 . S
C253 C249 1.376 . S
C253 C252 1.392 . S
C253 H265 0.929 . S
C254 C250 1.531 . S
C254 H266 0.960 . S
C254 H267 0.962 . S
C254 H268 0.960 . S
C255 C252 1.511 . S
C255 H269 0.961 . S
C255 H270 0.961 . S
C255 H271 0.961 . S
C256 C257 1.370 . S
C256 C258 1.363 . S
C256 H272 0.931 . S
C257 C256 1.370 . S
C257 C261 1.408 . S
C258 C256 1.363 . S
C258 C259 1.370 . S
C258 C262 1.524 . S
C259 C251 1.503 . S
C259 C258 1.370 . S
C259 C260 1.403 . S
C260 C259 1.403 . S
C260 C261 1.404 . S
C260 C263 1.539 . S
C261 C257 1.408 . S
C261 C260 1.404 . S
C261 H273 0.930 . S
C262 C258 1.524 . S
C262 H274 0.956 . S
C262 H275 0.961 . S
C262 H276 0.961 . S
C263 C260 1.539 . S
C263 H277 0.958 . S
C263 H278 0.961 . S
C263 H279 0.960 . S
H264 C248 0.931 . S
H265 C253 0.929 . S
H266 C254 0.960 . S
H267 C254 0.962 . S
H268 C254 0.960 . S
H269 C255 0.961 . S
H270 C255 0.961 . S
H271 C255 0.961 . S
H272 C256 0.931 . S
H273 C261 0.930 . S
H274 C262 0.956 . S
H275 C262 0.961 . S
H276 C262 0.961 . S
H277 C263 0.958 . S
H278 C263 0.961 . S
H279 C263 0.960 . S
C280 C281 1.391 . S
C280 C282 1.394 . S
C280 H296 0.931 . S
C281 C280 1.391 . S
C281 C285 1.376 . S
C282 C280 1.394 . S
C282 C283 1.369 . S
C282 C286 1.531 . S
C283 C282 1.369 . S
C283 C284 1.410 . S
C283 C291 1.503 . S
C284 C283 1.410 . S
C284 C285 1.392 . S
C284 C287 1.511 . S
C285 C281 1.376 . S
C285 C284 1.392 . S
C285 H297 0.929 . S
C286 C282 1.531 . S
C286 H298 0.960 . S
C286 H299 0.962 . S
C286 H300 0.960 . S
C287 C284 1.511 . S
C287 H301 0.961 . S
C287 H302 0.961 . S
C287 H303 0.961 . S
C288 C289 1.370 . S
C288 C290 1.363 . S
C288 H304 0.931 . S
C289 C288 1.370 . S
C289 C293 1.408 . S
C290 C288 1.363 . S
C290 C291 1.370 . S
C290 C294 1.524 . S
C291 C283 1.503 . S
C291 C290 1.370 . S
C291 C292 1.403 . S
C292 C291 1.403 . S
C292 C293 1.404 . S
C292 C295 1.539 . S
C293 C289 1.408 . S
C293 C292 1.404 . S
C293 H305 0.930 . S
C294 C290 1.524 . S
C294 H306 0.956 . S
C294 H307 0.961 . S
C294 H308 0.961 . S
C295 C292 1.539 . S
C295 H309 0.958 . S
C295 H310 0.961 . S
C295 H311 0.960 . S
H296 C280 0.931 . S
H297 C285 0.929 . S
H298 C286 0.960 . S
H299 C286 0.962 . S
H300 C286 0.960 . S
H301 C287 0.961 . S
H302 C287 0.961 . S
H303 C287 0.961 . S
H304 C288 0.931 . S
H305 C293 0.930 . S
H306 C294 0.956 . S
H307 C294 0.961 . S
H308 C294 0.961 . S
H309 C295 0.958 . S
H310 C295 0.961 . S
H311 C295 0.960 . S
C312 C313 1.391 . S
C312 C314 1.394 . S
C312 H328 0.931 . S
C313 C312 1.391 . S
C313 C317 1.376 . S
C314 C312 1.394 . S
C314 C315 1.369 . S
C314 C318 1.531 . S
C315 C314 1.369 . S
C315 C316 1.410 . S
C315 C323 1.503 . S
C316 C315 1.410 . S
C316 C317 1.392 . S
C316 C319 1.511 . S
C317 C313 1.376 . S
C317 C316 1.392 . S
C317 H329 0.929 . S
C318 C314 1.531 . S
C318 H330 0.960 . S
C318 H331 0.962 . S
C318 H332 0.960 . S
C319 C316 1.511 . S
C319 H333 0.961 . S
C319 H334 0.961 . S
C319 H335 0.961 . S
C320 C321 1.370 . S
C320 C322 1.363 . S
C320 H336 0.931 . S
C321 C320 1.370 . S
C321 C325 1.408 . S
C322 C320 1.363 . S
C322 C323 1.370 . S
C322 C326 1.524 . S
C323 C315 1.503 . S
C323 C322 1.370 . S
C323 C324 1.403 . S
C324 C323 1.403 . S
C324 C325 1.404 . S
C324 C327 1.539 . S
C325 C321 1.408 . S
C325 C324 1.404 . S
C325 H337 0.930 . S
C326 C322 1.524 . S
C326 H338 0.956 . S
C326 H339 0.961 . S
C326 H340 0.961 . S
C327 C324 1.539 . S
C327 H341 0.958 . S
C327 H342 0.961 . S
C327 H343 0.960 . S
H328 C312 0.931 . S
H329 C317 0.929 . S
H330 C318 0.960 . S
H331 C318 0.962 . S
H332 C318 0.960 . S
H333 C319 0.961 . S
H334 C319 0.961 . S
H335 C319 0.961 . S
H336 C320 0.931 . S
H337 C325 0.930 . S
H338 C326 0.956 . S
H339 C326 0.961 . S
H340 C326 0.961 . S
H341 C327 0.958 . S
H342 C327 0.961 . S
H343 C327 0.960 . S
C344 C345 1.391 . S
C344 C346 1.394 . S
C344 H360 0.931 . S
C345 C344 1.391 . S
C345 C349 1.376 . S
C346 C344 1.394 . S
C346 C347 1.369 . S
C346 C350 1.531 . S
C347 C346 1.369 . S
C347 C348 1.410 . S
C347 C355 1.503 . S
C348 C347 1.410 . S
C348 C349 1.392 . S
C348 C351 1.511 . S
C349 C345 1.376 . S
C349 C348 1.392 . S
C349 H361 0.929 . S
C350 C346 1.531 . S
C350 H362 0.960 . S
C350 H363 0.962 . S
C350 H364 0.960 . S
C351 C348 1.511 . S
C351 H365 0.961 . S
C351 H366 0.961 . S
C351 H367 0.961 . S
C352 C353 1.370 . S
C352 C354 1.363 . S
C352 H368 0.931 . S
C353 C352 1.370 . S
C353 C357 1.408 . S
C354 C352 1.363 . S
C354 C355 1.370 . S
C354 C358 1.524 . S
C355 C347 1.503 . S
C355 C354 1.370 . S
C355 C356 1.403 . S
C356 C355 1.403 . S
C356 C357 1.404 . S
C356 C359 1.539 . S
C357 C353 1.408 . S
C357 C356 1.404 . S
C357 H369 0.930 . S
C358 C354 1.524 . S
C358 H370 0.956 . S
C358 H371 0.961 . S
C358 H372 0.961 . S
C359 C356 1.539 . S
C359 H373 0.958 . S
C359 H374 0.961 . S
C359 H375 0.960 . S
H360 C344 0.931 . S
H361 C349 0.929 . S
H362 C350 0.960 . S
H363 C350 0.962 . S
H364 C350 0.960 . S
H365 C351 0.961 . S
H366 C351 0.961 . S
H367 C351 0.961 . S
H368 C352 0.931 . S
H369 C357 0.930 . S
H370 C358 0.956 . S
H371 C358 0.961 . S
H372 C358 0.961 . S
H373 C359 0.958 . S
H374 C359 0.961 . S
H375 C359 0.960 . S
C376 C377 1.391 . S
C376 C378 1.394 . S
C376 H392 0.931 . S
C377 C376 1.391 . S
C377 C381 1.376 . S
C378 C376 1.394 . S
C378 C379 1.369 . S
C378 C382 1.531 . S
C379 C378 1.369 . S
C379 C380 1.410 . S
C379 C387 1.503 . S
C380 C379 1.410 . S
C380 C381 1.392 . S
C380 C383 1.511 . S
C381 C377 1.376 . S
C381 C380 1.392 . S
C381 H393 0.929 . S
C382 C378 1.531 . S
C382 H394 0.960 . S
C382 H395 0.962 . S
C382 H396 0.960 . S
C383 C380 1.511 . S
C383 H397 0.961 . S
C383 H398 0.961 . S
C383 H399 0.961 . S
C384 C385 1.370 . S
C384 C386 1.363 . S
C384 H400 0.931 . S
C385 C384 1.370 . S
C385 C389 1.408 . S
C386 C384 1.363 . S
C386 C387 1.370 . S
C386 C390 1.524 . S
C387 C379 1.503 . S
C387 C386 1.370 . S
C387 C388 1.403 . S
C388 C387 1.403 . S
C388 C389 1.404 . S
C388 C391 1.539 . S
C389 C385 1.408 . S
C389 C388 1.404 . S
C389 H401 0.930 . S
C390 C386 1.524 . S
C390 H402 0.956 . S
C390 H403 0.961 . S
C390 H404 0.961 . S
C391 C388 1.539 . S
C391 H405 0.958 . S
C391 H406 0.961 . S
C391 H407 0.960 . S
H392 C376 0.931 . S
H393 C381 0.929 . S
H394 C382 0.960 . S
H395 C382 0.962 . S
H396 C382 0.960 . S
H397 C383 0.961 . S
H398 C383 0.961 . S
H399 C383 0.961 . S
H400 C384 0.931 . S
H401 C389 0.930 . S
H402 C390 0.956 . S
H403 C390 0.961 . S
H404 C390 0.961 . S
H405 C391 0.958 . S
H406 C391 0.961 . S
H407 C391 0.960 . S
C408 C409 1.391 . S
C408 C410 1.394 . S
C408 H424 0.931 . S
C409 C408 1.391 . S
C409 C413 1.376 . S
C410 C408 1.394 . S
C410 C411 1.369 . S
C410 C414 1.531 1_554 S
C411 C410 1.369 . S
C411 C412 1.410 . S
C411 C419 1.503 1_554 S
C412 C411 1.410 . S
C412 C413 1.392 . S
C412 C415 1.511 . S
C413 C409 1.376 . S
C413 C412 1.392 . S
C413 H425 0.929 . S
C414 C410 1.531 1_556 S
C414 H426 0.960 . S
C414 H427 0.962 . S
C414 H428 0.960 . S
C415 C412 1.511 . S
C415 H429 0.961 . S
C415 H430 0.961 . S
C415 H431 0.961 . S
C416 C417 1.370 . S
C416 C418 1.363 . S
C416 H432 0.931 . S
C417 C416 1.370 . S
C417 C421 1.408 . S
C418 C416 1.363 . S
C418 C419 1.370 . S
C418 C422 1.524 . S
C419 C411 1.503 1_556 S
C419 C418 1.370 . S
C419 C420 1.403 . S
C420 C419 1.403 . S
C420 C421 1.404 . S
C420 C423 1.539 1_556 S
C421 C417 1.408 . S
C421 C420 1.404 . S
C421 H433 0.930 . S
C422 C418 1.524 . S
C422 H434 0.956 . S
C422 H435 0.961 . S
C422 H436 0.961 . S
C423 C420 1.539 1_554 S
C423 H437 0.958 1_554 S
C423 H438 0.962 . S
C423 H439 0.960 . S
H424 C408 0.931 . S
H425 C413 0.929 . S
H426 C414 0.960 . S
H427 C414 0.962 . S
H428 C414 0.960 . S
H429 C415 0.961 . S
H430 C415 0.961 . S
H431 C415 0.961 . S
H432 C416 0.931 . S
H433 C421 0.930 . S
H434 C422 0.956 . S
H435 C422 0.961 . S
H436 C422 0.961 . S
H437 C423 0.958 1_556 S
H438 C423 0.962 . S
H439 C423 0.960 . S
C440 C441 1.391 . S
C440 C442 1.394 . S
C440 H456 0.931 . S
C441 C440 1.391 . S
C441 C445 1.376 . S
C442 C440 1.394 . S
C442 C443 1.369 . S
C442 C446 1.531 1_455 S
C443 C442 1.369 . S
C443 C444 1.410 . S
C443 C451 1.503 1_445 S
C444 C443 1.410 . S
C444 C445 1.392 . S
C444 C447 1.511 1_545 S
C445 C441 1.376 . S
C445 C444 1.392 . S
C445 H457 0.929 . S
C446 C442 1.531 1_655 S
C446 H458 0.960 . S
C446 H459 0.962 . S
C446 H460 0.960 1_655 S
C447 C444 1.511 1_565 S
C447 H461 0.961 1_565 S
C447 H462 0.961 . S
C447 H463 0.961 . S
C448 C449 1.370 . S
C448 C450 1.363 . S
C448 H464 0.931 . S
C449 C448 1.370 . S
C449 C453 1.408 . S
C450 C448 1.363 . S
C450 C451 1.370 . S
C450 C454 1.524 1_565 S
C451 C443 1.503 1_665 S
C451 C450 1.370 . S
C451 C452 1.403 1_655 S
C452 C451 1.403 1_455 S
C452 C453 1.404 1_455 S
C452 C455 1.539 . S
C453 C449 1.408 . S
C453 C452 1.404 1_655 S
C453 H465 0.930 . S
C454 C450 1.524 1_545 S
C454 H466 0.956 . S
C454 H467 0.961 . S
C454 H468 0.961 . S
C455 C452 1.539 . S
C455 H469 0.958 . S
C455 H470 0.961 . S
C455 H471 0.960 . S
H456 C440 0.931 . S
H457 C445 0.929 . S
H458 C446 0.960 . S
H459 C446 0.962 . S
H460 C446 0.960 1_455 S
H461 C447 0.961 1_545 S
H462 C447 0.961 . S
H463 C447 0.961 . S
H464 C448 0.931 . S
H465 C453 0.930 . S
H466 C454 0.956 . S
H467 C454 0.961 . S
H468 C454 0.961 . S
H469 C455 0.958 . S
H470 C455 0.961 . S
H471 C455 0.960 . S
C472 C473 1.391 . S
C472 C474 1.394 . S
C472 H488 0.931 . S
C473 C472 1.391 . S
C473 C477 1.376 . S
C474 C472 1.394 . S
C474 C475 1.369 . S
C474 C478 1.531 . S
C475 C474 1.369 . S
C475 C476 1.410 . S
C475 C483 1.503 1_455 S
C476 C475 1.410 . S
C476 C477 1.392 . S
C476 C479 1.511 . S
C477 C473 1.376 . S
C477 C476 1.392 . S
C477 H489 0.929 . S
C478 C474 1.531 . S
C478 H490 0.960 1_455 S
C478 H491 0.962 . S
C478 H492 0.960 . S
C479 C476 1.511 . S
C479 H493 0.961 . S
C479 H494 0.961 1_455 S
C479 H495 0.961 1_455 S
C480 C481 1.370 . S
C480 C482 1.363 . S
C480 H496 0.931 . S
C481 C480 1.370 . S
C481 C485 1.408 . S
C482 C480 1.363 . S
C482 C483 1.370 . S
C482 C486 1.524 1_655 S
C483 C475 1.503 1_655 S
C483 C482 1.370 . S
C483 C484 1.403 . S
C484 C483 1.403 . S
C484 C485 1.404 . S
C484 C487 1.539 . S
C485 C481 1.408 . S
C485 C484 1.404 . S
C485 H497 0.930 . S
C486 C482 1.524 1_455 S
C486 H498 0.956 . S
C486 H499 0.961 . S
C486 H500 0.961 . S
C487 C484 1.539 . S
C487 H501 0.958 . S
C487 H502 0.961 . S
C487 H503 0.960 . S
H488 C472 0.931 . S
H489 C477 0.929 . S
H490 C478 0.960 1_655 S
H491 C478 0.962 . S
H492 C478 0.960 . S
H493 C479 0.961 . S
H494 C479 0.961 1_655 S
H495 C479 0.961 1_655 S
H496 C480 0.931 . S
H497 C485 0.930 . S
H498 C486 0.956 . S
H499 C486 0.961 . S
H500 C486 0.961 . S
H501 C487 0.958 . S
H502 C487 0.961 . S
H503 C487 0.960 . S
C504 C505 1.391 . S
C504 C506 1.394 . S
C504 H520 0.931 . S
C505 C504 1.391 . S
C505 C509 1.376 . S
C506 C504 1.394 . S
C506 C507 1.369 . S
C506 C510 1.531 . S
C507 C506 1.369 . S
C507 C508 1.410 . S
C507 C515 1.503 . S
C508 C507 1.410 . S
C508 C509 1.392 . S
C508 C511 1.511 . S
C509 C505 1.376 . S
C509 C508 1.392 . S
C509 H521 0.929 . S
C510 C506 1.531 . S
C510 H522 0.960 . S
C510 H523 0.962 . S
C510 H524 0.960 . S
C511 C508 1.511 . S
C511 H525 0.961 . S
C511 H526 0.961 . S
C511 H527 0.961 . S
C512 C513 1.370 . S
C512 C514 1.363 . S
C512 H528 0.931 . S
C513 C512 1.370 . S
C513 C517 1.408 . S
C514 C512 1.363 . S
C514 C515 1.370 . S
C514 C518 1.524 . S
C515 C507 1.503 . S
C515 C514 1.370 . S
C515 C516 1.403 . S
C516 C515 1.403 . S
C516 C517 1.404 . S
C516 C519 1.539 . S
C517 C513 1.408 . S
C517 C516 1.404 . S
C517 H529 0.930 . S
C518 C514 1.524 . S
C518 H530 0.956 . S
C518 H531 0.961 . S
C518 H532 0.961 . S
C519 C516 1.539 . S
C519 H533 0.958 . S
C519 H534 0.961 . S
C519 H535 0.960 . S
H520 C504 0.931 . S
H521 C509 0.929 . S
H522 C510 0.960 . S
H523 C510 0.962 . S
H524 C510 0.960 . S
H525 C511 0.961 . S
H526 C511 0.961 . S
H527 C511 0.961 . S
H528 C512 0.931 . S
H529 C517 0.930 . S
H530 C518 0.956 . S
H531 C518 0.961 . S
H532 C518 0.961 . S
H533 C519 0.958 . S
H534 C519 0.961 . S
H535 C519 0.960 . S
C536 C537 1.391 . S
C536 C538 1.394 . S
C536 H552 0.931 . S
C537 C536 1.391 . S
C537 C541 1.376 . S
C538 C536 1.394 . S
C538 C539 1.369 . S
C538 C542 1.531 . S
C539 C538 1.369 . S
C539 C540 1.410 1_565 S
C539 C547 1.503 1_565 S
C540 C539 1.410 1_545 S
C540 C541 1.392 1_545 S
C540 C543 1.511 . S
C541 C537 1.376 . S
C541 C540 1.392 1_565 S
C541 H553 0.929 . S
C542 C538 1.531 . S
C542 H554 0.960 . S
C542 H555 0.962 . S
C542 H556 0.960 . S
C543 C540 1.511 . S
C543 H557 0.961 . S
C543 H558 0.961 . S
C543 H559 0.961 . S
C544 C545 1.370 . S
C544 C546 1.363 . S
C544 H560 0.931 . S
C545 C544 1.370 . S
C545 C549 1.408 . S
C546 C544 1.363 . S
C546 C547 1.370 . S
C546 C550 1.524 1_545 S
C547 C539 1.503 1_545 S
C547 C546 1.370 . S
C547 C548 1.403 . S
C548 C547 1.403 . S
C548 C549 1.404 . S
C548 C551 1.539 . S
C549 C545 1.408 . S
C549 C548 1.404 . S
C549 H561 0.930 . S
C550 C546 1.524 1_565 S
C550 H562 0.956 . S
C550 H563 0.961 . S
C550 H564 0.961 . S
C551 C548 1.539 . S
C551 H565 0.958 . S
C551 H566 0.961 . S
C551 H567 0.960 . S
H552 C536 0.931 . S
H553 C541 0.929 . S
H554 C542 0.960 . S
H555 C542 0.962 . S
H556 C542 0.960 . S
H557 C543 0.961 . S
H558 C543 0.961 . S
H559 C543 0.961 . S
H560 C544 0.931 . S
H561 C549 0.930 . S
H562 C550 0.956 . S
H563 C550 0.961 . S
H564 C550 0.961 . S
H565 C551 0.958 . S
H566 C551 0.961 . S
H567 C551 0.960 . S
C568 C569 1.391 . S
C568 C570 1.394 . S
C568 H584 0.931 . S
C569 C568 1.391 . S
C569 C573 1.376 . S
C570 C568 1.394 . S
C570 C571 1.369 . S
C570 C574 1.531 . S
C571 C570 1.369 . S
C571 C572 1.410 1_655 S
C571 C579 1.503 1_655 S
C572 C571 1.410 1_455 S
C572 C573 1.392 1_455 S
C572 C575 1.511 . S
C573 C569 1.376 . S
C573 C572 1.392 1_655 S
C573 H585 0.929 . S
C574 C570 1.531 . S
C574 H586 0.960 . S
C574 H587 0.962 . S
C574 H588 0.960 . S
C575 C572 1.511 . S
C575 H589 0.961 . S
C575 H590 0.961 . S
C575 H591 0.961 . S
C576 C577 1.370 . S
C576 C578 1.363 . S
C576 H592 0.931 . S
C577 C576 1.370 . S
C577 C581 1.408 . S
C578 C576 1.363 . S
C578 C579 1.370 . S
C578 C582 1.524 1_455 S
C579 C571 1.503 1_455 S
C579 C578 1.370 . S
C579 C580 1.403 . S
C580 C579 1.403 . S
C580 C581 1.404 . S
C580 C583 1.539 . S
C581 C577 1.408 . S
C581 C580 1.404 . S
C581 H593 0.930 . S
C582 C578 1.524 1_655 S
C582 H594 0.956 . S
C582 H595 0.961 1_655 S
C582 H596 0.961 1_655 S
C583 C580 1.539 . S
C583 H597 0.958 . S
C583 H598 0.961 . S
C583 H599 0.960 . S
H584 C568 0.931 . S
H585 C573 0.929 . S
H586 C574 0.960 . S
H587 C574 0.962 . S
H588 C574 0.960 . S
H589 C575 0.961 . S
H590 C575 0.961 . S
H591 C575 0.961 . S
H592 C576 0.931 . S
H593 C581 0.930 . S
H594 C582 0.956 . S
H595 C582 0.961 1_455 S
H596 C582 0.961 1_455 S
H597 C583 0.958 . S
H598 C583 0.961 . S
H599 C583 0.960 . S
C600 C601 1.391 . S
C600 C602 1.394 . S
C600 H616 0.931 . S
C601 C600 1.391 . S
C601 C605 1.376 . S
C602 C600 1.394 . S
C602 C603 1.369 . S
C602 C606 1.531 . S
C603 C602 1.369 . S
C603 C604 1.410 . S
C603 C611 1.503 . S
C604 C603 1.410 . S
C604 C605 1.392 . S
C604 C607 1.511 . S
C605 C601 1.376 . S
C605 C604 1.392 . S
C605 H617 0.929 . S
C606 C602 1.531 . S
C606 H618 0.960 . S
C606 H619 0.962 . S
C606 H620 0.960 . S
C607 C604 1.511 . S
C607 H621 0.961 . S
C607 H622 0.961 . S
C607 H623 0.961 . S
C608 C609 1.370 . S
C608 C610 1.363 . S
C608 H624 0.931 . S
C609 C608 1.370 . S
C609 C613 1.408 . S
C610 C608 1.363 . S
C610 C611 1.370 . S
C610 C614 1.524 . S
C611 C603 1.503 . S
C611 C610 1.370 . S
C611 C612 1.403 . S
C612 C611 1.403 . S
C612 C613 1.404 . S
C612 C615 1.539 . S
C613 C609 1.408 . S
C613 C612 1.404 . S
C613 H625 0.930 . S
C614 C610 1.524 . S
C614 H626 0.956 . S
C614 H627 0.961 . S
C614 H628 0.961 . S
C615 C612 1.539 . S
C615 H629 0.958 . S
C615 H630 0.961 . S
C615 H631 0.960 . S
H616 C600 0.931 . S
H617 C605 0.929 . S
H618 C606 0.960 . S
H619 C606 0.962 . S
H620 C606 0.960 . S
H621 C607 0.961 . S
H622 C607 0.961 . S
H623 C607 0.961 . S
H624 C608 0.931 . S
H625 C613 0.930 . S
H626 C614 0.956 . S
H627 C614 0.961 . S
H628 C614 0.961 . S
H629 C615 0.958 . S
H630 C615 0.961 . S
H631 C615 0.960 . S
C632 C633 1.391 . S
C632 C634 1.394 . S
C632 H648 0.931 . S
C633 C632 1.391 . S
C633 C637 1.376 . S
C634 C632 1.394 . S
C634 C635 1.369 . S
C634 C638 1.531 1_545 S
C635 C634 1.369 . S
C635 C636 1.410 . S
C635 C643 1.503 1_545 S
C636 C635 1.410 . S
C636 C637 1.392 . S
C636 C639 1.511 . S
C637 C633 1.376 . S
C637 C636 1.392 . S
C637 H649 0.929 . S
C638 C634 1.531 1_565 S
C638 H650 0.960 . S
C638 H651 0.962 . S
C638 H652 0.960 . S
C639 C636 1.511 . S
C639 H653 0.961 . S
C639 H654 0.961 . S
C639 H655 0.961 . S
C640 C641 1.370 . S
C640 C642 1.363 . S
C640 H656 0.931 . S
C641 C640 1.370 . S
C641 C645 1.408 . S
C642 C640 1.363 . S
C642 C643 1.370 . S
C642 C646 1.524 . S
C643 C635 1.503 1_565 S
C643 C642 1.370 . S
C643 C644 1.403 . S
C644 C643 1.403 . S
C644 C645 1.404 . S
C644 C647 1.539 . S
C645 C641 1.408 . S
C645 C644 1.404 . S
C645 H657 0.930 . S
C646 C642 1.524 . S
C646 H658 0.956 . S
C646 H659 0.961 1_565 S
C646 H660 0.961 . S
C647 C644 1.539 . S
C647 H661 0.958 . S
C647 H662 0.961 . S
C647 H663 0.960 . S
H648 C632 0.931 . S
H649 C637 0.929 . S
H650 C638 0.960 . S
H651 C638 0.962 . S
H652 C638 0.960 . S
H653 C639 0.961 . S
H654 C639 0.961 . S
H655 C639 0.961 . S
H656 C640 0.931 . S
H657 C645 0.930 . S
H658 C646 0.956 . S
H659 C646 0.961 1_545 S
H660 C646 0.961 . S
H661 C647 0.958 . S
H662 C647 0.961 . S
H663 C647 0.960 . S
C664 C665 1.391 . S
C664 C666 1.394 . S
C664 H680 0.931 . S
C665 C664 1.391 . S
C665 C669 1.376 . S
C666 C664 1.394 . S
C666 C667 1.369 . S
C666 C670 1.531 . S
C667 C666 1.369 . S
C667 C668 1.410 . S
C667 C675 1.503 1_665 S
C668 C667 1.410 . S
C668 C669 1.392 . S
C668 C671 1.511 1_565 S
C669 C665 1.376 . S
C669 C668 1.392 . S
C669 H681 0.929 . S
C670 C666 1.531 . S
C670 H682 0.960 1_565 S
C670 H683 0.962 1_655 S
C670 H684 0.960 . S
C671 C668 1.511 1_545 S
C671 H685 0.961 1_545 S
C671 H686 0.961 1_655 S
C671 H687 0.961 . S
C672 C673 1.370 . S
C672 C674 1.359 1_545 S
C672 H688 0.931 . S
C673 C672 1.370 . S
C673 C677 1.408 . S
C674 C672 1.359 1_565 S
C674 C675 1.366 1_565 S
C674 C678 1.532 . S
C675 C667 1.503 1_445 S
C675 C674 1.366 1_545 S
C675 C676 1.403 . S
C676 C675 1.403 . S
C676 C677 1.404 . S
C676 C679 1.539 1_455 S
C677 C673 1.408 . S
C677 C676 1.404 . S
C677 H689 0.930 . S
C678 C674 1.532 . S
C678 H690 0.956 . S
C678 H691 0.961 . S
C678 H692 0.961 . S
C679 C676 1.539 1_655 S
C679 H693 0.958 . S
C679 H694 0.961 . S
C679 H695 0.960 . S
H680 C664 0.931 . S
H681 C669 0.929 . S
H682 C670 0.960 1_545 S
H683 C670 0.962 1_455 S
H684 C670 0.960 . S
H685 C671 0.961 1_565 S
H686 C671 0.961 1_455 S
H687 C671 0.961 . S
H688 C672 0.931 . S
H689 C677 0.930 . S
H690 C678 0.956 . S
H691 C678 0.961 . S
H692 C678 0.961 . S
H693 C679 0.958 . S
H694 C679 0.961 . S
H695 C679 0.960 . S
C185 C16 1.869 . S
C193 C131 1.861 . S
C217 C30 1.879 . S
C225 C145 1.908 . S
C249 C62 1.842 . S
C257 C177 1.844 . S
C281 C76 1.888 . S
C289 C99 1.913 . S
C313 C168 1.895 . S
C321 C7 1.913 . S
C345 C108 1.865 . S
C353 C39 1.843 . S
C377 C53 1.882 . S
C385 C122 1.911 . S
C409 C154 1.823 . S
C417 C85 1.852 . S
C441 N2 1.723 . S
C449 N140 1.670 . S
C473 N173 1.847 . S
C481 N35 1.820 . S
C505 N48 1.668 . S
C513 N94 1.682 . S
C537 N81 1.800 . S
C545 N127 1.828 . S
C569 N150 1.803 . S
C577 N12 1.826 . S
C601 N163 1.663 . S
C609 N25 1.684 . S
C633 N58 1.814 . S
C641 N104 1.821 . S
C665 N71 1.638 . S
C673 N117 1.702 . S
