# Generated by pormake.
# Topology ull, (4)-cn, num edge types: 1
# Building blocks:
#     Node 0, Type 0, BuildingBlock: KUFVIS_clean_sbu_0, # of connection points: 4
#     Node 1, Type 0, BuildingBlock: KUFVIS_clean_sbu_0, # of connection points: 4
#     Node 2, Type 0, BuildingBlock: KUFVIS_clean_sbu_0, # of connection points: 4
#     Node 3, Type 0, BuildingBlock: KUFVIS_clean_sbu_0, # of connection points: 4
#     Node 4, Type 0, BuildingBlock: KUFVIS_clean_sbu_0, # of connection points: 4
#     Node 5, Type 0, BuildingBlock: KUFVIS_clean_sbu_0, # of connection points: 4
#     Node 6, Type 0, BuildingBlock: KUFVIS_clean_sbu_0, # of connection points: 4
#     Node 7, Type 0, BuildingBlock: KUFVIS_clean_sbu_0, # of connection points: 4
#     Node 8, Type 0, BuildingBlock: KUFVIS_clean_sbu_0, # of connection points: 4
#     Node 9, Type 0, BuildingBlock: KUFVIS_clean_sbu_0, # of connection points: 4
#     Node 10, Type 0, BuildingBlock: KUFVIS_clean_sbu_0, # of connection points: 4
#     Node 11, Type 0, BuildingBlock: KUFVIS_clean_sbu_0, # of connection points: 4
#     Node 12, Type 0, BuildingBlock: KUFVIS_clean_sbu_0, # of connection points: 4
#     Node 13, Type 0, BuildingBlock: KUFVIS_clean_sbu_0, # of connection points: 4
#     Node 14, Type 0, BuildingBlock: KUFVIS_clean_sbu_0, # of connection points: 4
#     Node 15, Type 0, BuildingBlock: KUFVIS_clean_sbu_0, # of connection points: 4
#     Node 16, Type 0, BuildingBlock: KUFVIS_clean_sbu_0, # of connection points: 4
#     Node 17, Type 0, BuildingBlock: KUFVIS_clean_sbu_0, # of connection points: 4
#     Node 18, Type 0, BuildingBlock: KUFVIS_clean_sbu_0, # of connection points: 4
#     Node 19, Type 0, BuildingBlock: KUFVIS_clean_sbu_0, # of connection points: 4
#     Node 20, Type 0, BuildingBlock: KUFVIS_clean_sbu_0, # of connection points: 4
#     Node 21, Type 0, BuildingBlock: KUFVIS_clean_sbu_0, # of connection points: 4
#     Node 22, Type 0, BuildingBlock: KUFVIS_clean_sbu_0, # of connection points: 4
#     Node 23, Type 0, BuildingBlock: KUFVIS_clean_sbu_0, # of connection points: 4
#     Node 24, Type 0, BuildingBlock: KUFVIS_clean_sbu_0, # of connection points: 4
#     Node 25, Type 0, BuildingBlock: KUFVIS_clean_sbu_0, # of connection points: 4
#     Node 26, Type 0, BuildingBlock: KUFVIS_clean_sbu_0, # of connection points: 4
#     Node 27, Type 0, BuildingBlock: KUFVIS_clean_sbu_0, # of connection points: 4
#     Node 28, Type 0, BuildingBlock: KUFVIS_clean_sbu_0, # of connection points: 4
#     Node 29, Type 0, BuildingBlock: KUFVIS_clean_sbu_0, # of connection points: 4
#     Node 30, Type 0, BuildingBlock: KUFVIS_clean_sbu_0, # of connection points: 4
#     Node 31, Type 0, BuildingBlock: KUFVIS_clean_sbu_0, # of connection points: 4
#     Node 32, Type 0, BuildingBlock: KUFVIS_clean_sbu_0, # of connection points: 4
#     Node 33, Type 0, BuildingBlock: KUFVIS_clean_sbu_0, # of connection points: 4
#     Node 34, Type 0, BuildingBlock: KUFVIS_clean_sbu_0, # of connection points: 4
#     Node 35, Type 0, BuildingBlock: KUFVIS_clean_sbu_0, # of connection points: 4
#     Node 36, Type 0, BuildingBlock: KUFVIS_clean_sbu_0, # of connection points: 4
#     Node 37, Type 0, BuildingBlock: KUFVIS_clean_sbu_0, # of connection points: 4
#     Node 38, Type 0, BuildingBlock: KUFVIS_clean_sbu_0, # of connection points: 4
#     Node 39, Type 0, BuildingBlock: KUFVIS_clean_sbu_0, # of connection points: 4
#     Node 40, Type 0, BuildingBlock: KUFVIS_clean_sbu_0, # of connection points: 4
#     Node 41, Type 0, BuildingBlock: KUFVIS_clean_sbu_0, # of connection points: 4
#     Node 42, Type 0, BuildingBlock: KUFVIS_clean_sbu_0, # of connection points: 4
#     Node 43, Type 0, BuildingBlock: KUFVIS_clean_sbu_0, # of connection points: 4
#     Node 44, Type 0, BuildingBlock: KUFVIS_clean_sbu_0, # of connection points: 4
#     Node 45, Type 0, BuildingBlock: KUFVIS_clean_sbu_0, # of connection points: 4
#     Node 46, Type 0, BuildingBlock: KUFVIS_clean_sbu_0, # of connection points: 4
#     Node 47, Type 0, BuildingBlock: KUFVIS_clean_sbu_0, # of connection points: 4
#     Edge 48, Type (0, 0), BuildingBlock: UVAHIK_clean_linker_0, # of connection points: 2
#     Edge 49, Type (0, 0), BuildingBlock: UVAHIK_clean_linker_0, # of connection points: 2
#     Edge 50, Type (0, 0), BuildingBlock: UVAHIK_clean_linker_0, # of connection points: 2
#     Edge 51, Type (0, 0), BuildingBlock: UVAHIK_clean_linker_0, # of connection points: 2
#     Edge 52, Type (0, 0), BuildingBlock: UVAHIK_clean_linker_0, # of connection points: 2
#     Edge 53, Type (0, 0), BuildingBlock: UVAHIK_clean_linker_0, # of connection points: 2
#     Edge 54, Type (0, 0), BuildingBlock: UVAHIK_clean_linker_0, # of connection points: 2
#     Edge 55, Type (0, 0), BuildingBlock: UVAHIK_clean_linker_0, # of connection points: 2
#     Edge 56, Type (0, 0), BuildingBlock: UVAHIK_clean_linker_0, # of connection points: 2
#     Edge 57, Type (0, 0), BuildingBlock: UVAHIK_clean_linker_0, # of connection points: 2
#     Edge 58, Type (0, 0), BuildingBlock: UVAHIK_clean_linker_0, # of connection points: 2
#     Edge 59, Type (0, 0), BuildingBlock: UVAHIK_clean_linker_0, # of connection points: 2
#     Edge 60, Type (0, 0), BuildingBlock: UVAHIK_clean_linker_0, # of connection points: 2
#     Edge 61, Type (0, 0), BuildingBlock: UVAHIK_clean_linker_0, # of connection points: 2
#     Edge 62, Type (0, 0), BuildingBlock: UVAHIK_clean_linker_0, # of connection points: 2
#     Edge 63, Type (0, 0), BuildingBlock: UVAHIK_clean_linker_0, # of connection points: 2
#     Edge 64, Type (0, 0), BuildingBlock: UVAHIK_clean_linker_0, # of connection points: 2
#     Edge 65, Type (0, 0), BuildingBlock: UVAHIK_clean_linker_0, # of connection points: 2
#     Edge 66, Type (0, 0), BuildingBlock: UVAHIK_clean_linker_0, # of connection points: 2
#     Edge 67, Type (0, 0), BuildingBlock: UVAHIK_clean_linker_0, # of connection points: 2
#     Edge 68, Type (0, 0), BuildingBlock: UVAHIK_clean_linker_0, # of connection points: 2
#     Edge 69, Type (0, 0), BuildingBlock: UVAHIK_clean_linker_0, # of connection points: 2
#     Edge 70, Type (0, 0), BuildingBlock: UVAHIK_clean_linker_0, # of connection points: 2
#     Edge 71, Type (0, 0), BuildingBlock: UVAHIK_clean_linker_0, # of connection points: 2
#     Edge 72, Type (0, 0), BuildingBlock: UVAHIK_clean_linker_0, # of connection points: 2
#     Edge 73, Type (0, 0), BuildingBlock: UVAHIK_clean_linker_0, # of connection points: 2
#     Edge 74, Type (0, 0), BuildingBlock: UVAHIK_clean_linker_0, # of connection points: 2
#     Edge 75, Type (0, 0), BuildingBlock: UVAHIK_clean_linker_0, # of connection points: 2
#     Edge 76, Type (0, 0), BuildingBlock: UVAHIK_clean_linker_0, # of connection points: 2
#     Edge 77, Type (0, 0), BuildingBlock: UVAHIK_clean_linker_0, # of connection points: 2
#     Edge 78, Type (0, 0), BuildingBlock: UVAHIK_clean_linker_0, # of connection points: 2
#     Edge 79, Type (0, 0), BuildingBlock: UVAHIK_clean_linker_0, # of connection points: 2
#     Edge 80, Type (0, 0), BuildingBlock: UVAHIK_clean_linker_0, # of connection points: 2
#     Edge 81, Type (0, 0), BuildingBlock: UVAHIK_clean_linker_0, # of connection points: 2
#     Edge 82, Type (0, 0), BuildingBlock: UVAHIK_clean_linker_0, # of connection points: 2
#     Edge 83, Type (0, 0), BuildingBlock: UVAHIK_clean_linker_0, # of connection points: 2
#     Edge 84, Type (0, 0), BuildingBlock: UVAHIK_clean_linker_0, # of connection points: 2
#     Edge 85, Type (0, 0), BuildingBlock: UVAHIK_clean_linker_0, # of connection points: 2
#     Edge 86, Type (0, 0), BuildingBlock: UVAHIK_clean_linker_0, # of connection points: 2
#     Edge 87, Type (0, 0), BuildingBlock: UVAHIK_clean_linker_0, # of connection points: 2
#     Edge 88, Type (0, 0), BuildingBlock: UVAHIK_clean_linker_0, # of connection points: 2
#     Edge 89, Type (0, 0), BuildingBlock: UVAHIK_clean_linker_0, # of connection points: 2
#     Edge 90, Type (0, 0), BuildingBlock: UVAHIK_clean_linker_0, # of connection points: 2
#     Edge 91, Type (0, 0), BuildingBlock: UVAHIK_clean_linker_0, # of connection points: 2
#     Edge 92, Type (0, 0), BuildingBlock: UVAHIK_clean_linker_0, # of connection points: 2
#     Edge 93, Type (0, 0), BuildingBlock: UVAHIK_clean_linker_0, # of connection points: 2
#     Edge 94, Type (0, 0), BuildingBlock: UVAHIK_clean_linker_0, # of connection points: 2
#     Edge 95, Type (0, 0), BuildingBlock: UVAHIK_clean_linker_0, # of connection points: 2
#     Edge 96, Type (0, 0), BuildingBlock: UVAHIK_clean_linker_0, # of connection points: 2
#     Edge 97, Type (0, 0), BuildingBlock: UVAHIK_clean_linker_0, # of connection points: 2
#     Edge 98, Type (0, 0), BuildingBlock: UVAHIK_clean_linker_0, # of connection points: 2
#     Edge 99, Type (0, 0), BuildingBlock: UVAHIK_clean_linker_0, # of connection points: 2
#     Edge 100, Type (0, 0), BuildingBlock: UVAHIK_clean_linker_0, # of connection points: 2
#     Edge 101, Type (0, 0), BuildingBlock: UVAHIK_clean_linker_0, # of connection points: 2
#     Edge 102, Type (0, 0), BuildingBlock: UVAHIK_clean_linker_0, # of connection points: 2
#     Edge 103, Type (0, 0), BuildingBlock: UVAHIK_clean_linker_0, # of connection points: 2
#     Edge 104, Type (0, 0), BuildingBlock: UVAHIK_clean_linker_0, # of connection points: 2
#     Edge 105, Type (0, 0), BuildingBlock: UVAHIK_clean_linker_0, # of connection points: 2
#     Edge 106, Type (0, 0), BuildingBlock: UVAHIK_clean_linker_0, # of connection points: 2
#     Edge 107, Type (0, 0), BuildingBlock: UVAHIK_clean_linker_0, # of connection points: 2
#     Edge 108, Type (0, 0), BuildingBlock: UVAHIK_clean_linker_0, # of connection points: 2
#     Edge 109, Type (0, 0), BuildingBlock: UVAHIK_clean_linker_0, # of connection points: 2
#     Edge 110, Type (0, 0), BuildingBlock: UVAHIK_clean_linker_0, # of connection points: 2
#     Edge 111, Type (0, 0), BuildingBlock: UVAHIK_clean_linker_0, # of connection points: 2
#     Edge 112, Type (0, 0), BuildingBlock: UVAHIK_clean_linker_0, # of connection points: 2
#     Edge 113, Type (0, 0), BuildingBlock: UVAHIK_clean_linker_0, # of connection points: 2
#     Edge 114, Type (0, 0), BuildingBlock: UVAHIK_clean_linker_0, # of connection points: 2
#     Edge 115, Type (0, 0), BuildingBlock: UVAHIK_clean_linker_0, # of connection points: 2
#     Edge 116, Type (0, 0), BuildingBlock: UVAHIK_clean_linker_0, # of connection points: 2
#     Edge 117, Type (0, 0), BuildingBlock: UVAHIK_clean_linker_0, # of connection points: 2
#     Edge 118, Type (0, 0), BuildingBlock: UVAHIK_clean_linker_0, # of connection points: 2
#     Edge 119, Type (0, 0), BuildingBlock: UVAHIK_clean_linker_0, # of connection points: 2
#     Edge 120, Type (0, 0), BuildingBlock: UVAHIK_clean_linker_0, # of connection points: 2
#     Edge 121, Type (0, 0), BuildingBlock: UVAHIK_clean_linker_0, # of connection points: 2
#     Edge 122, Type (0, 0), BuildingBlock: UVAHIK_clean_linker_0, # of connection points: 2
#     Edge 123, Type (0, 0), BuildingBlock: UVAHIK_clean_linker_0, # of connection points: 2
#     Edge 124, Type (0, 0), BuildingBlock: UVAHIK_clean_linker_0, # of connection points: 2
#     Edge 125, Type (0, 0), BuildingBlock: UVAHIK_clean_linker_0, # of connection points: 2
#     Edge 126, Type (0, 0), BuildingBlock: UVAHIK_clean_linker_0, # of connection points: 2
#     Edge 127, Type (0, 0), BuildingBlock: UVAHIK_clean_linker_0, # of connection points: 2
#     Edge 128, Type (0, 0), BuildingBlock: UVAHIK_clean_linker_0, # of connection points: 2
#     Edge 129, Type (0, 0), BuildingBlock: UVAHIK_clean_linker_0, # of connection points: 2
#     Edge 130, Type (0, 0), BuildingBlock: UVAHIK_clean_linker_0, # of connection points: 2
#     Edge 131, Type (0, 0), BuildingBlock: UVAHIK_clean_linker_0, # of connection points: 2
#     Edge 132, Type (0, 0), BuildingBlock: UVAHIK_clean_linker_0, # of connection points: 2
#     Edge 133, Type (0, 0), BuildingBlock: UVAHIK_clean_linker_0, # of connection points: 2
#     Edge 134, Type (0, 0), BuildingBlock: UVAHIK_clean_linker_0, # of connection points: 2
#     Edge 135, Type (0, 0), BuildingBlock: UVAHIK_clean_linker_0, # of connection points: 2
#     Edge 136, Type (0, 0), BuildingBlock: UVAHIK_clean_linker_0, # of connection points: 2
#     Edge 137, Type (0, 0), BuildingBlock: UVAHIK_clean_linker_0, # of connection points: 2
#     Edge 138, Type (0, 0), BuildingBlock: UVAHIK_clean_linker_0, # of connection points: 2
#     Edge 139, Type (0, 0), BuildingBlock: UVAHIK_clean_linker_0, # of connection points: 2
#     Edge 140, Type (0, 0), BuildingBlock: UVAHIK_clean_linker_0, # of connection points: 2
#     Edge 141, Type (0, 0), BuildingBlock: UVAHIK_clean_linker_0, # of connection points: 2
#     Edge 142, Type (0, 0), BuildingBlock: UVAHIK_clean_linker_0, # of connection points: 2
#     Edge 143, Type (0, 0), BuildingBlock: UVAHIK_clean_linker_0, # of connection points: 2
# Relax obj value: 0.046
# Max RMSD: 0.119
# Mean RMSD: 0.119
data_MOF--net-ull--node1-KUFVIS_clean_sbu_0--edge1-UVAHIK_clean_linker_0
_symmetry_space_group_name_H-M    P1
_symmetry_Int_Tables_number       1
_symmetry_cell_setting            triclinic
loop_
_symmetry_equiv_pos_as_xyz
'x, y, z'
_cell_length_a     78.680028
_cell_length_b     78.660349
_cell_length_c     78.671729
_cell_angle_alpha  89.993223
_cell_angle_beta   90.005522
_cell_angle_gamma 90.002027
loop_
_atom_site_label
_atom_site_type_symbol
_atom_site_fract_x
_atom_site_fract_y
_atom_site_fract_z
_atom_type_partial_charge
Mn0 Mn 0.02362 0.33938 0.17324 0.0
Mn1 Mn 0.02284 0.29817 0.16145 0.0
C2 C 0.01488 0.31879 0.19228 0.0
C3 C 0.03854 0.36225 0.18453 0.0
C4 C 0.99648 0.32412 0.15023 0.0
O5 O 0.03816 0.33914 0.15177 0.0
O6 O 0.03885 0.31094 0.14671 0.0
C7 C 0.05794 0.28857 0.171 0.0
N8 N 0.04087 0.28608 0.17234 0.0
C9 C 0.04494 0.26252 0.19144 0.0
C10 C 0.06257 0.26478 0.19018 0.0
C11 C 0.0691 0.27789 0.17996 0.0
C12 C 0.03446 0.27357 0.18222 0.0
H13 H 0.063 0.29866 0.16316 0.0
C14 C 0.0434 0.32624 0.1434 0.0
O15 O 0.02516 0.36465 0.17514 0.0
O16 O 0.04339 0.34669 0.18695 0.0
N17 N 0.00793 0.28429 0.17475 0.0
C18 C 0.99061 0.2842 0.17504 0.0
C19 C 0.98205 0.27193 0.18478 0.0
C20 C 0.99137 0.25981 0.19399 0.0
C21 C 0.00918 0.26009 0.19343 0.0
C22 C 0.017 0.27252 0.18337 0.0
H23 H 0.98337 0.29341 0.16789 0.0
O24 O 0.01064 0.33455 0.1946 0.0
O25 O 0.02418 0.31563 0.17903 0.0
O26 O 0.00209 0.33663 0.15888 0.0
O27 O 0.00361 0.30951 0.14999 0.0
C28 C 0.01947 0.24865 0.20259 0.0
C29 C 0.03734 0.24991 0.20165 0.0
H30 H 0.07122 0.25659 0.19711 0.0
H31 H 0.08269 0.27976 0.17898 0.0
H32 H 0.9683 0.2718 0.18515 0.0
H33 H 0.98472 0.25037 0.20148 0.0
H34 H 0.01378 0.23897 0.21057 0.0
H35 H 0.04512 0.24119 0.20893 0.0
Mn36 Mn 0.65431 0.02233 0.17771 0.0
Mn37 Mn 0.69422 0.02429 0.1623 0.0
C38 C 0.67678 0.01281 0.19401 0.0
C39 C 0.63257 0.0359 0.19248 0.0
C40 C 0.66835 0.99759 0.15147 0.0
O41 O 0.65202 0.03822 0.15744 0.0
O42 O 0.6796 0.04091 0.15007 0.0
C43 C 0.70321 0.05894 0.17393 0.0
N44 N 0.70651 0.04195 0.17359 0.0
C45 C 0.73126 0.04555 0.19121 0.0
C46 C 0.72822 0.06311 0.1916 0.0
C47 C 0.7141 0.06982 0.18296 0.0
C48 C 0.71999 0.03534 0.18195 0.0
H49 H 0.6923 0.06413 0.16741 0.0
C50 C 0.66385 0.0448 0.1485 0.0
O51 O 0.62927 0.02321 0.1824 0.0
O52 O 0.64823 0.04083 0.19345 0.0
N53 N 0.70977 0.00902 0.17314 0.0
C54 C 0.71045 0.99173 0.17219 0.0
C55 C 0.72359 0.98298 0.18052 0.0
C56 C 0.73595 0.99208 0.18963 0.0
C57 C 0.7351 0.00987 0.19027 0.0
C58 C 0.72179 0.01791 0.18161 0.0
H59 H 0.70098 0.98465 0.16523 0.0
O60 O 0.66142 0.00795 0.19743 0.0
O61 O 0.67844 0.02328 0.18136 0.0
O62 O 0.65639 0.00199 0.16156 0.0
O63 O 0.68255 0.00546 0.15045 0.0
C64 C 0.7468 0.01992 0.19937 0.0
C65 C 0.74484 0.03774 0.19989 0.0
H66 H 0.73654 0.07154 0.19862 0.0
H67 H 0.7116 0.08334 0.1833 0.0
H68 H 0.72415 0.96924 0.17997 0.0
H69 H 0.74598 0.98527 0.19617 0.0
H70 H 0.7572 0.01405 0.20623 0.0
H71 H 0.75376 0.04531 0.20716 0.0
Mn72 Mn 0.9739 0.65545 0.17402 0.0
Mn73 Mn 0.97642 0.69614 0.16092 0.0
C74 C 0.98414 0.67616 0.19217 0.0
C75 C 0.95769 0.63423 0.18678 0.0
C76 C 0.0013 0.66858 0.14997 0.0
O77 O 0.95893 0.65571 0.15291 0.0
O78 O 0.95952 0.68372 0.14685 0.0
C79 C 0.94199 0.70778 0.17061 0.0
N80 N 0.95918 0.70941 0.17172 0.0
C81 C 0.95656 0.73349 0.1904 0.0
C82 C 0.93882 0.73214 0.18937 0.0
C83 C 0.93151 0.7192 0.17946 0.0
C84 C 0.96635 0.72177 0.18127 0.0
H85 H 0.93632 0.69783 0.16304 0.0
C86 C 0.95413 0.66855 0.14421 0.0
O87 O 0.97066 0.63037 0.17728 0.0
O88 O 0.95403 0.65018 0.18838 0.0
N89 N 0.99221 0.7096 0.17365 0.0
C90 C 0.0095 0.70865 0.17395 0.0
C91 C 0.01877 0.72043 0.18365 0.0
C92 C 0.01019 0.73312 0.19282 0.0
C93 C 0.99241 0.73395 0.19216 0.0
C94 C 0.98385 0.72193 0.18221 0.0
H95 H 0.01617 0.69894 0.16692 0.0
O96 O 0.98763 0.66029 0.1949 0.0
O97 O 0.97472 0.67934 0.17901 0.0
O98 O 0.99528 0.6565 0.15903 0.0
O99 O 0.99485 0.6835 0.14957 0.0
C100 C 0.98282 0.7461 0.20118 0.0
C101 C 0.96491 0.74584 0.20034 0.0
H102 H 0.93069 0.74088 0.19623 0.0
H103 H 0.91782 0.71803 0.17866 0.0
H104 H 0.0325 0.7197 0.1841 0.0
H105 H 0.01738 0.7421 0.2004 0.0
H106 H 0.98909 0.75554 0.20901 0.0
H107 H 0.95767 0.75508 0.20753 0.0
Mn108 Mn 0.34175 0.9732 0.17473 0.0
Mn109 Mn 0.30202 0.97399 0.15886 0.0
C110 C 0.31979 0.98417 0.19084 0.0
C111 C 0.36269 0.95823 0.18922 0.0
C112 C 0.33006 0.99825 0.14786 0.0
O113 O 0.34297 0.95702 0.15448 0.0
O114 O 0.31521 0.95579 0.14742 0.0
C115 C 0.28948 0.94068 0.17107 0.0
N116 N 0.28792 0.95791 0.17038 0.0
C117 C 0.26257 0.95717 0.18747 0.0
C118 C 0.26384 0.93941 0.18827 0.0
C119 C 0.27738 0.93114 0.18007 0.0
C120 C 0.27498 0.966 0.17827 0.0
H121 H 0.2999 0.93429 0.16483 0.0
C122 C 0.33065 0.95083 0.14588 0.0
O123 O 0.36663 0.97081 0.17926 0.0
O124 O 0.34675 0.95428 0.19047 0.0
N125 N 0.28792 0.99098 0.1691 0.0
C126 C 0.28907 0.00822 0.16789 0.0
C127 C 0.27678 0.01842 0.17585 0.0
C128 C 0.26338 0.0108 0.18487 0.0
C129 C 0.26238 0.99303 0.18581 0.0
C130 C 0.27494 0.98352 0.17753 0.0
H131 H 0.29932 0.01416 0.16096 0.0
O132 O 0.33541 0.98799 0.19446 0.0
O133 O 0.31761 0.9739 0.17813 0.0
O134 O 0.34121 0.99367 0.1587 0.0
O135 O 0.31547 0.99121 0.14645 0.0
C136 C 0.24956 0.98439 0.19485 0.0
C137 C 0.24967 0.96648 0.1957 0.0
H138 H 0.25457 0.932 0.19527 0.0
H139 H 0.27849 0.91744 0.18072 0.0
H140 H 0.27765 0.03213 0.17508 0.0
H141 H 0.254 0.01872 0.19111 0.0
H142 H 0.2397 0.99142 0.20141 0.0
H143 H 0.23989 0.95999 0.20291 0.0
Mn144 Mn 0.02087 0.65679 0.81794 0.0
Mn145 Mn 0.02082 0.69743 0.83153 0.0
C146 C 0.00977 0.67806 0.80099 0.0
C147 C 0.03445 0.63489 0.80342 0.0
C148 C 0.99591 0.67075 0.84419 0.0
O149 O 0.03786 0.6563 0.83752 0.0
O150 O 0.03805 0.68413 0.84436 0.0
C151 C 0.05503 0.70755 0.81957 0.0
N152 N 0.03789 0.70998 0.81964 0.0
C153 C 0.04034 0.73403 0.80089 0.0
C154 C 0.05803 0.73185 0.80069 0.0
C155 C 0.06539 0.71853 0.81004 0.0
C156 C 0.03066 0.72271 0.81064 0.0
H157 H 0.06073 0.69731 0.8267 0.0
C158 C 0.0434 0.66884 0.84623 0.0
O159 O 0.02266 0.63164 0.81454 0.0
O160 O 0.03875 0.65065 0.80142 0.0
N161 N 0.00485 0.71173 0.82001 0.0
C162 C 0.98756 0.71164 0.82096 0.0
C163 C 0.9782 0.72393 0.812 0.0
C164 C 0.98672 0.73625 0.80228 0.0
C165 C 0.00452 0.7362 0.80165 0.0
C166 C 0.01317 0.7237 0.81092 0.0
H167 H 0.98094 0.70221 0.82843 0.0
O168 O 0.00533 0.66237 0.79857 0.0
O169 O 0.02052 0.68076 0.8132 0.0
O170 O 0.00114 0.65852 0.83489 0.0
O171 O 0.00261 0.68556 0.84406 0.0
C172 C 0.01402 0.74794 0.79202 0.0
C173 C 0.03192 0.74682 0.7916 0.0
H174 H 0.06607 0.74025 0.79331 0.0
H175 H 0.07903 0.71672 0.80989 0.0
H176 H 0.96446 0.72387 0.81255 0.0
H177 H 0.97946 0.74562 0.79527 0.0
H178 H 0.00768 0.75772 0.78469 0.0
H179 H 0.03906 0.75576 0.78394 0.0
Mn180 Mn 0.341 0.02115 0.82251 0.0
Mn181 Mn 0.30095 0.02275 0.83758 0.0
C182 C 0.31874 0.01146 0.80603 0.0
C183 C 0.36274 0.03478 0.80777 0.0
C184 C 0.32694 0.99625 0.84862 0.0
O185 O 0.343 0.03712 0.84276 0.0
O186 O 0.31534 0.03945 0.84998 0.0
C187 C 0.29177 0.05736 0.82598 0.0
N188 N 0.2886 0.04034 0.82624 0.0
C189 C 0.26405 0.04378 0.80832 0.0
C190 C 0.26694 0.06137 0.80803 0.0
C191 C 0.28089 0.06818 0.81686 0.0
C192 C 0.27528 0.03364 0.8177 0.0
H193 H 0.30256 0.06262 0.83263 0.0
C194 C 0.33103 0.04354 0.85164 0.0
O195 O 0.36606 0.02218 0.81795 0.0
O196 O 0.34707 0.03966 0.80675 0.0
N197 N 0.28563 0.00738 0.82655 0.0
C198 C 0.28513 0.99008 0.82739 0.0
C199 C 0.27219 0.98124 0.81883 0.0
C200 C 0.25986 0.99026 0.80959 0.0
C201 C 0.26053 0.00807 0.80906 0.0
C202 C 0.27363 0.0162 0.81796 0.0
H203 H 0.29457 0.98306 0.83444 0.0
O204 O 0.33416 0.00668 0.80277 0.0
O205 O 0.31689 0.02192 0.81865 0.0
O206 O 0.33896 0.0008 0.83868 0.0
O207 O 0.31265 0.00397 0.8495 0.0
C208 C 0.24888 0.01804 0.79982 0.0
C209 C 0.25067 0.03589 0.79941 0.0
H210 H 0.25864 0.06975 0.80092 0.0
H211 H 0.28329 0.08172 0.81658 0.0
H212 H 0.27177 0.9675 0.81929 0.0
H213 H 0.25001 0.98339 0.80286 0.0
H214 H 0.23865 0.01211 0.79278 0.0
H215 H 0.24179 0.0434 0.79204 0.0
Mn216 Mn 0.9736 0.34411 0.82165 0.0
Mn217 Mn 0.97468 0.30407 0.83696 0.0
C218 C 0.98315 0.32212 0.80474 0.0
C219 C 0.95875 0.36544 0.80753 0.0
C220 C 0.00049 0.33119 0.84639 0.0
O221 O 0.95854 0.34557 0.84271 0.0
O222 O 0.95858 0.31797 0.85047 0.0
C223 C 0.9397 0.29356 0.82796 0.0
N224 N 0.95679 0.29104 0.82695 0.0
C225 C 0.95298 0.26615 0.80958 0.0
C226 C 0.93533 0.26841 0.81052 0.0
C227 C 0.92867 0.2822 0.81972 0.0
C228 C 0.96334 0.27786 0.81808 0.0
H229 H 0.93455 0.30417 0.83498 0.0
C230 C 0.95372 0.33341 0.85234 0.0
O231 O 0.97165 0.36908 0.8172 0.0
O232 O 0.95417 0.34964 0.80676 0.0
N233 N 0.98976 0.28919 0.82501 0.0
C234 C 0.00708 0.28917 0.82486 0.0
C235 C 0.01577 0.27632 0.81603 0.0
C236 C 0.00658 0.26357 0.80755 0.0
C237 C 0.98876 0.26377 0.80802 0.0
C238 C 0.98081 0.27679 0.81718 0.0
H239 H 0.01421 0.29891 0.8314 0.0
O240 O 0.98724 0.33768 0.80118 0.0
O241 O 0.97352 0.31995 0.81795 0.0
O242 O 0.99487 0.34295 0.83671 0.0
O243 O 0.99367 0.31649 0.8476 0.0
C244 C 0.97859 0.25168 0.79958 0.0
C245 C 0.96071 0.2529 0.80031 0.0
H246 H 0.92677 0.25972 0.80412 0.0
H247 H 0.91506 0.28408 0.82043 0.0
H248 H 0.02952 0.27625 0.81573 0.0
H249 H 0.01332 0.25374 0.80068 0.0
H250 H 0.98439 0.24153 0.7923 0.0
H251 H 0.95303 0.24367 0.79359 0.0
Mn252 Mn 0.6549 0.97652 0.82013 0.0
Mn253 Mn 0.69516 0.97914 0.83457 0.0
C254 C 0.67612 0.98721 0.80289 0.0
C255 C 0.63395 0.96098 0.80624 0.0
C256 C 0.66726 0.0039 0.84465 0.0
O257 O 0.65451 0.96104 0.84087 0.0
O258 O 0.68217 0.96232 0.84823 0.0
C259 C 0.7068 0.94457 0.8253 0.0
N260 N 0.70863 0.96175 0.82424 0.0
C261 C 0.73323 0.95888 0.8063 0.0
C262 C 0.73168 0.94115 0.8073 0.0
C263 C 0.71838 0.93397 0.81681 0.0
C264 C 0.72133 0.9688 0.81507 0.0
H265 H 0.69656 0.93899 0.83254 0.0
C266 C 0.66706 0.9565 0.85011 0.0
O267 O 0.62996 0.97359 0.81615 0.0
O268 O 0.6499 0.95712 0.80505 0.0
N269 N 0.70919 0.99479 0.82229 0.0
C270 C 0.70846 0.0121 0.82198 0.0
C271 C 0.72067 0.02125 0.81271 0.0
C272 C 0.73355 0.01253 0.80396 0.0
C273 C 0.73415 0.99473 0.8046 0.0
C274 C 0.72171 0.9863 0.81413 0.0
H275 H 0.69856 0.01887 0.82863 0.0
O276 O 0.66034 0.99077 0.79978 0.0
O277 O 0.67896 0.97747 0.8159 0.0
O278 O 0.65545 0.99751 0.83553 0.0
O279 O 0.6823 0.99777 0.84541 0.0
C280 C 0.74645 0.98502 0.79594 0.0
C281 C 0.74596 0.96711 0.79675 0.0
H282 H 0.74055 0.93294 0.80071 0.0
H283 H 0.71705 0.9203 0.81756 0.0
H284 H 0.72011 0.03499 0.81226 0.0
H285 H 0.74286 0.01963 0.7967 0.0
H286 H 0.7562 0.99119 0.78843 0.0
H287 H 0.75534 0.95978 0.78983 0.0
Mn288 Mn 0.17809 0.01874 0.34341 0.0
Mn289 Mn 0.16259 0.02032 0.30357 0.0
C290 C 0.19494 0.01023 0.32096 0.0
C291 C 0.19148 0.0332 0.36547 0.0
C292 C 0.15244 0.99353 0.32966 0.0
O293 O 0.15688 0.03349 0.34555 0.0
O294 O 0.15045 0.03727 0.31785 0.0
C295 C 0.17401 0.05473 0.29351 0.0
N296 N 0.17373 0.03765 0.2907 0.0
C297 C 0.191 0.04063 0.26563 0.0
C298 C 0.19134 0.05827 0.26816 0.0
C299 C 0.18284 0.06534 0.28219 0.0
C300 C 0.18193 0.0307 0.2773 0.0
H301 H 0.1676 0.0602 0.30435 0.0
C302 C 0.14835 0.04054 0.33367 0.0
O303 O 0.18233 0.01976 0.36849 0.0
O304 O 0.19259 0.0382 0.34983 0.0
N305 N 0.17343 0.00464 0.28843 0.0
C306 C 0.17265 0.98734 0.28832 0.0
C307 C 0.18091 0.97824 0.27537 0.0
C308 C 0.18979 0.98703 0.26261 0.0
C309 C 0.1903 0.00484 0.2629 0.0
C310 C 0.18169 0.01322 0.27604 0.0
H311 H 0.16582 0.9805 0.29806 0.0
O312 O 0.1987 0.0056 0.33633 0.0
O313 O 0.1817 0.01994 0.31934 0.0
O314 O 0.1632 0.99752 0.34114 0.0
O315 O 0.15066 0.0018 0.31576 0.0
C316 C 0.19924 0.01459 0.25083 0.0
C317 C 0.19962 0.03247 0.25221 0.0
H318 H 0.19822 0.06649 0.25952 0.0
H319 H 0.18315 0.07893 0.2843 0.0
H320 H 0.18047 0.9645 0.27525 0.0
H321 H 0.19626 0.97996 0.25273 0.0
H322 H 0.20609 0.00845 0.24058 0.0
H323 H 0.20677 0.03981 0.24301 0.0
Mn324 Mn 0.97977 0.17581 0.34217 0.0
Mn325 Mn 0.98339 0.15934 0.30284 0.0
C326 C 0.99236 0.19147 0.32076 0.0
C327 C 0.96376 0.19121 0.36168 0.0
C328 C 0.00557 0.14867 0.33263 0.0
O329 O 0.96317 0.15588 0.34251 0.0
O330 O 0.96455 0.14779 0.31503 0.0
C331 C 0.95076 0.17102 0.28818 0.0
N332 N 0.96806 0.17059 0.28772 0.0
C333 C 0.96865 0.18793 0.26252 0.0
C334 C 0.95084 0.18845 0.26266 0.0
C335 C 0.94186 0.17999 0.27557 0.0
C336 C 0.97683 0.17873 0.27538 0.0
H337 H 0.94381 0.16459 0.29813 0.0
C338 C 0.95822 0.14674 0.33002 0.0
O339 O 0.97557 0.18081 0.36675 0.0
O340 O 0.961 0.19213 0.34548 0.0
N341 N 0.00107 0.16974 0.28974 0.0
C342 C 0.01822 0.16875 0.29196 0.0
C343 C 0.02905 0.17697 0.28038 0.0
C344 C 0.02215 0.18604 0.26663 0.0
C345 C 0.00447 0.18677 0.26455 0.0
C346 C 0.99431 0.17822 0.27641 0.0
H347 H 0.02359 0.16182 0.30251 0.0
O348 O 0.99532 0.1952 0.33655 0.0
O349 O 0.98218 0.17878 0.31814 0.0
O350 O -0.00012 0.15939 0.34338 0.0
O351 O -0.0001 0.14726 0.31746 0.0
C352 C 0.99651 0.19587 0.25133 0.0
C353 C 0.97862 0.19644 0.25031 0.0
H354 H 0.94393 0.19544 0.25301 0.0
H355 H 0.92812 0.18041 0.27582 0.0
H356 H 0.04268 0.17636 0.28209 0.0
H357 H 0.03054 0.19248 0.25782 0.0
H358 H 0.00404 0.20267 0.24201 0.0
H359 H 0.97266 0.20367 0.24022 0.0
Mn360 Mn 0.8241 0.9763 0.34072 0.0
Mn361 Mn 0.83691 0.9796 0.29992 0.0
C362 C 0.80559 0.98623 0.32019 0.0
C363 C 0.81194 0.96008 0.36228 0.0
C364 C 0.84686 0.00482 0.32744 0.0
O365 O 0.84558 0.96182 0.34029 0.0
O366 O 0.8518 0.96346 0.31238 0.0
C367 C 0.82872 0.94464 0.28864 0.0
N368 N 0.82691 0.96176 0.2868 0.0
C369 C 0.80842 0.95809 0.26271 0.0
C370 C 0.81018 0.94042 0.26427 0.0
C371 C 0.82034 0.93367 0.27732 0.0
C372 C 0.8171 0.96838 0.27434 0.0
H373 H 0.83649 0.9394 0.29867 0.0
C374 C 0.85458 0.95777 0.3274 0.0
O375 O 0.8213 0.97323 0.36581 0.0
O376 O 0.81018 0.95615 0.34639 0.0
N377 N 0.82354 0.99468 0.28627 0.0
C378 C 0.82268 0.01197 0.28688 0.0
C379 C 0.81291 0.02072 0.27477 0.0
C380 C 0.80421 0.01162 0.26211 0.0
C381 C 0.80536 0.99384 0.26167 0.0
C382 C 0.81545 0.98583 0.27396 0.0
H383 H 0.82935 0.01904 0.29656 0.0
O384 O 0.80289 0.98956 0.3361 0.0
O385 O 0.81891 0.9771 0.31681 0.0
O386 O 0.83846 0.99804 0.33958 0.0
O387 O 0.84735 -0.00131 0.31239 0.0
C388 C 0.79672 0.98375 0.24967 0.0
C389 C 0.7982 0.96588 0.25022 0.0
H390 H 0.80369 0.93191 0.2556 0.0
H391 H 0.82169 0.92004 0.27865 0.0
H392 H 0.81206 0.03444 0.27521 0.0
H393 H 0.79663 0.01841 0.25284 0.0
H394 H 0.78873 0.98959 0.24009 0.0
H395 H 0.79133 0.95824 0.24106 0.0
Mn396 Mn 0.02221 0.81868 0.34236 0.0
Mn397 Mn 0.02254 0.83062 0.3012 0.0
C398 C 0.01067 0.80114 0.32182 0.0
C399 C 0.03568 0.80468 0.36467 0.0
C400 C 0.99803 0.84504 0.32744 0.0
O401 O 0.03946 0.83803 0.34205 0.0
O402 O 0.04049 0.84316 0.31383 0.0
C403 C 0.05603 0.81653 0.29141 0.0
N404 N 0.03892 0.81748 0.28898 0.0
C405 C 0.04028 0.79778 0.26561 0.0
C406 C 0.05794 0.79673 0.26775 0.0
C407 C 0.06584 0.80611 0.28074 0.0
C408 C 0.03118 0.80842 0.27659 0.0
H409 H 0.06213 0.8236 0.30146 0.0
C410 C 0.04558 0.8457 0.32911 0.0
O411 O 0.02411 0.81612 0.36763 0.0
O412 O 0.03985 0.80213 0.34896 0.0
N413 N 0.00592 0.81929 0.28749 0.0
C414 C 0.98869 0.82103 0.28769 0.0
C415 C 0.97883 0.81217 0.27573 0.0
C416 C 0.98677 0.80171 0.26364 0.0
C417 C 0.00453 0.80021 0.26361 0.0
C418 C 0.01371 0.80948 0.27573 0.0
H419 H 0.9825 0.82906 0.29693 0.0
O420 O 0.00631 0.79936 0.33761 0.0
O421 O 0.02164 0.81303 0.31862 0.0
O422 O 0.00278 0.83588 0.33998 0.0
O423 O 0.00496 0.84437 0.31274 0.0
C424 C 0.01345 0.78967 0.25221 0.0
C425 C 0.03131 0.78842 0.25324 0.0
H426 H 0.06554 0.78863 0.2596 0.0
H427 H 0.07945 0.80526 0.28255 0.0
H428 H 0.96513 0.81338 0.27585 0.0
H429 H 0.97911 0.79482 0.25451 0.0
H430 H 0.00669 0.78228 0.24276 0.0
H431 H 0.03801 0.78006 0.24458 0.0
Mn432 Mn 0.17616 0.97485 0.65472 0.0
Mn433 Mn 0.16278 0.97572 0.69541 0.0
C434 C 0.19415 0.98447 0.67581 0.0
C435 C 0.18853 0.95971 0.63259 0.0
C436 C 0.15165 0.00125 0.66861 0.0
O437 O 0.15495 0.95989 0.65441 0.0
O438 O 0.14926 0.95883 0.68247 0.0
C439 C 0.17352 0.9413 0.70616 0.0
N440 N 0.174 0.95847 0.70831 0.0
C441 C 0.19235 0.95579 0.73264 0.0
C442 C 0.19198 0.93807 0.73075 0.0
C443 C 0.18256 0.9308 0.71742 0.0
C444 C 0.18309 0.9656 0.72104 0.0
H445 H 0.16632 0.93569 0.69591 0.0
C446 C 0.14645 0.9543 0.66707 0.0
O447 O 0.17902 0.97287 0.62957 0.0
O448 O 0.19048 0.95523 0.64832 0.0
N449 N 0.17486 0.99153 0.70941 0.0
C450 C 0.17445 0.00884 0.70905 0.0
C451 C 0.18342 0.0181 0.7214 0.0
C452 C 0.1926 0.00948 0.73405 0.0
C453 C 0.19274 0.99166 0.73424 0.0
C454 C 0.18342 0.98311 0.72171 0.0
H455 H 0.16734 0.01555 0.69941 0.0
O456 O 0.19703 0.98839 0.66006 0.0
O457 O 0.18105 0.97485 0.67864 0.0
O458 O 0.16133 0.99615 0.65665 0.0
O459 O 0.15084 0.99412 0.68319 0.0
C460 C 0.20192 0.98204 0.74624 0.0
C461 C 0.20177 0.96412 0.74541 0.0
H462 H 0.19898 0.92992 0.73937 0.0
H463 H 0.18228 0.91714 0.71583 0.0
H464 H 0.18326 0.03186 0.72116 0.0
H465 H 0.19955 0.01667 0.74351 0.0
H466 H 0.20932 0.9883 0.75602 0.0
H467 H 0.20908 0.95687 0.75455 0.0
Mn468 Mn 0.02286 0.17703 0.65766 0.0
Mn469 Mn 0.02166 0.16126 0.69737 0.0
C470 C 0.01128 0.19304 0.67938 0.0
C471 C 0.03817 0.19193 0.63724 0.0
C472 C 0.99813 0.14977 0.66884 0.0
O473 O 0.03911 0.15682 0.65675 0.0
O474 O 0.04054 0.15034 0.68469 0.0
C475 C 0.05422 0.17465 0.71065 0.0
N476 N 0.03701 0.1733 0.71185 0.0
C477 C 0.03658 0.19052 0.73713 0.0
C478 C 0.05433 0.1919 0.73628 0.0
C479 C 0.06318 0.18398 0.72294 0.0
C480 C 0.02836 0.18098 0.72455 0.0
H481 H 0.06104 0.16871 0.70033 0.0
C482 C 0.04546 0.14862 0.66925 0.0
O483 O 0.02585 0.18183 0.63285 0.0
O484 O 0.04176 0.19291 0.65327 0.0
N485 N 0.00402 0.17106 0.71098 0.0
C486 C 0.98685 0.16939 0.70936 0.0
C487 C 0.97611 0.17712 0.72133 0.0
C488 C 0.98311 0.1864 0.73489 0.0
C489 C 0.00081 0.18782 0.73637 0.0
C490 C 0.01088 0.17975 0.72412 0.0
H491 H 0.98139 0.16227 0.69899 0.0
O492 O 0.00779 0.19667 0.66369 0.0
O493 O 0.02161 0.18042 0.68174 0.0
O494 O 0.00253 0.16084 0.65782 0.0
O495 O 0.00512 0.14835 0.68346 0.0
C496 C 0.00883 0.19717 0.74937 0.0
C497 C 0.02671 0.19852 0.74974 0.0
H498 H 0.06127 0.19918 0.74569 0.0
H499 H 0.07686 0.18512 0.72212 0.0
H500 H 0.96246 0.17597 0.72009 0.0
H501 H 0.97477 0.19246 0.74402 0.0
H502 H 0.00137 0.2036 0.75899 0.0
H503 H 0.03272 0.20597 0.75964 0.0
Mn504 Mn 0.81989 0.02467 0.65322 0.0
Mn505 Mn 0.83291 0.02299 0.694 0.0
C506 C 0.80195 0.01418 0.67399 0.0
C507 C 0.80669 0.04031 0.63181 0.0
C508 C 0.84445 0.99799 0.66676 0.0
O509 O 0.84081 0.03997 0.65332 0.0
O510 O 0.84638 0.04029 0.68146 0.0
C511 C 0.82166 0.05716 0.70507 0.0
N512 N 0.82143 0.03996 0.70706 0.0
C513 C 0.80268 0.04213 0.73114 0.0
C514 C 0.80288 0.05988 0.72947 0.0
C515 C 0.81237 0.06741 0.71634 0.0
C516 C 0.81223 0.03257 0.71955 0.0
H517 H 0.82882 0.06298 0.69492 0.0
C518 C 0.84909 0.04535 0.66621 0.0
O519 O 0.81654 0.02756 0.62809 0.0
O520 O 0.80514 0.04418 0.64772 0.0
N521 N 0.82079 0.00688 0.70765 0.0
C522 C 0.82127 0.98957 0.707 0.0
C523 C 0.81218 0.98007 0.71907 0.0
C524 C 0.80278 0.98843 0.73173 0.0
C525 C 0.80255 0.00625 0.7322 0.0
C526 C 0.81201 0.01505 0.71995 0.0
H527 H 0.82848 0.98305 0.69732 0.0
O528 O 0.79926 0.01057 0.65815 0.0
O529 O 0.81486 0.02394 0.67711 0.0
O530 O 0.83521 0.0036 0.65462 0.0
O531 O 0.8449 0.00477 0.68154 0.0
C532 C 0.79311 0.01562 0.7442 0.0
C533 C 0.79313 0.03354 0.74363 0.0
H534 H 0.79566 0.06783 0.73808 0.0
H535 H 0.81247 0.08109 0.71489 0.0
H536 H 0.81239 0.96632 0.7186 0.0
H537 H 0.79572 0.98105 0.74096 0.0
H538 H 0.78559 0.00916 0.75376 0.0
H539 H 0.78561 0.0406 0.75275 0.0
Mn540 Mn 0.97322 0.8228 0.65174 0.0
Mn541 Mn 0.97502 0.83485 0.69283 0.0
C542 C 0.98325 0.80415 0.67209 0.0
C543 C 0.95767 0.8108 0.62968 0.0
C544 C 0.00023 0.84662 0.66597 0.0
O545 O 0.95813 0.84387 0.65235 0.0
O546 O 0.95816 0.84908 0.68052 0.0
C547 C 0.94053 0.82443 0.70366 0.0
N548 N 0.95771 0.82353 0.70557 0.0
C549 C 0.95496 0.80434 0.72924 0.0
C550 C 0.93723 0.80513 0.72759 0.0
C551 C 0.92999 0.81519 0.71472 0.0
C552 C 0.96481 0.81385 0.71786 0.0
H553 H 0.93493 0.83211 0.69376 0.0
C554 C 0.95304 0.85215 0.66536 0.0
O555 O 0.97068 0.8205 0.62655 0.0
O556 O 0.95356 0.80852 0.64545 0.0
N557 N 0.99075 0.82201 0.70625 0.0
C558 C 0.00806 0.8221 0.70569 0.0
C559 C 0.01728 0.81248 0.71757 0.0
C560 C 0.00863 0.803 0.72997 0.0
C561 C 0.99082 0.8032 0.73038 0.0
C562 C 0.98231 0.81315 0.71831 0.0
H563 H 0.01479 0.82941 0.69623 0.0
O564 O 0.98698 0.80186 0.6562 0.0
O565 O 0.97368 0.81714 0.67551 0.0
O566 O 0.99447 0.83778 0.65363 0.0
O567 O 0.99353 0.84672 0.68077 0.0
C568 C 0.98116 0.79375 0.74214 0.0
C569 C 0.96324 0.79428 0.74153 0.0
H570 H 0.92905 0.79797 0.73605 0.0
H571 H 0.91632 0.8158 0.71332 0.0
H572 H 0.03103 0.81238 0.71717 0.0
H573 H 0.01579 0.79555 0.73908 0.0
H574 H 0.98739 0.78585 0.75155 0.0
H575 H 0.95596 0.78677 0.75049 0.0
Mn576 Mn 0.34245 0.17647 0.02234 0.0
Mn577 Mn 0.30291 0.16036 0.01957 0.0
C578 C 0.32077 0.19273 0.01106 0.0
C579 C 0.36259 0.19111 0.03828 0.0
C580 C 0.33196 0.15028 0.99609 0.0
O581 O 0.34327 0.15567 0.03786 0.0
O582 O 0.31546 0.14852 0.03798 0.0
C583 C 0.28906 0.17177 0.05263 0.0
N584 N 0.28811 0.17139 0.03536 0.0
C585 C 0.2627 0.18842 0.03552 0.0
C586 C 0.26329 0.18882 0.05333 0.0
C587 C 0.27656 0.18051 0.06192 0.0
C588 C 0.27546 0.17944 0.02696 0.0
H589 H 0.29932 0.16554 0.05926 0.0
C590 C 0.33076 0.14686 0.04334 0.0
O591 O 0.36716 0.18135 0.02576 0.0
O592 O 0.34653 0.19177 0.04183 0.0
N593 N 0.28944 0.171 0.0023 0.0
C594 C 0.29132 0.17031 0.9851 0.0
C595 C 0.27944 0.17855 0.97462 0.0
C596 C 0.26571 0.18732 0.98193 0.0
C597 C 0.26397 0.18773 -0.00034 0.0
C598 C 0.27613 0.17919 0.00945 0.0
H599 H 0.30184 0.16359 0.9794 0.0
O600 O 0.33647 0.19658 0.00792 0.0
O601 O 0.31833 0.17968 0.02084 0.0
O602 O 0.34281 0.16107 0.00143 0.0
O603 O 0.31714 0.14848 0.00253 0.0
C604 C 0.2508 0.19654 0.00801 0.0
C605 C 0.25017 0.1969 0.02592 0.0
H606 H 0.25374 0.19563 0.06053 0.0
H607 H 0.27719 0.18088 0.07565 0.0
H608 H 0.28089 0.17818 0.96095 0.0
H609 H 0.25666 0.19378 0.97381 0.0
H610 H 0.24124 0.20331 0.00077 0.0
H611 H 0.24014 0.20394 0.03219 0.0
Mn612 Mn 0.34095 0.81864 0.97472 0.0
Mn613 Mn 0.30039 0.83176 0.97917 0.0
C614 C 0.32046 0.80019 0.98484 0.0
C615 C 0.36197 0.80629 0.95798 0.0
C616 C 0.32852 0.84099 0.00394 0.0
O617 O 0.34044 0.84027 0.96049 0.0
O618 O 0.31273 0.84699 0.96323 0.0
C619 C 0.28846 0.82467 0.94418 0.0
N620 N 0.28693 0.82233 0.96127 0.0
C621 C 0.26276 0.80397 0.95745 0.0
C622 C 0.26401 0.80627 0.93982 0.0
C623 C 0.27694 0.81663 0.93316 0.0
C624 C 0.27459 0.81231 0.96781 0.0
H625 H 0.2984 0.83259 0.93901 0.0
C626 C 0.32761 0.84963 0.9571 0.0
O627 O 0.36593 0.81557 0.97107 0.0
O628 O 0.34598 0.80485 0.95435 0.0
N629 N 0.2869 0.81804 0.99409 0.0
C630 C 0.28779 0.81667 0.01133 0.0
C631 C 0.27588 0.80657 0.01997 0.0
C632 C 0.26312 0.79807 0.01082 0.0
C633 C 0.26234 0.79983 0.99311 0.0
C634 C 0.27448 0.81017 0.9852 0.0
H635 H 0.29759 0.82313 0.01843 0.0
O636 O 0.33641 0.79734 0.98785 0.0
O637 O 0.31703 0.81366 0.97594 0.0
O638 O 0.34046 0.83279 0.9966 0.0
O639 O 0.31328 0.84157 -0.00168 0.0
C640 C 0.25011 0.79157 0.98297 0.0
C641 C 0.25036 0.79357 0.96515 0.0
H642 H 0.25518 0.80006 0.93128 0.0
H643 H 0.27804 0.81841 0.91957 0.0
H644 H 0.27658 0.80527 0.03365 0.0
H645 H 0.25404 0.79017 0.01751 0.0
H646 H 0.24058 0.78346 0.98873 0.0
H647 H 0.24104 0.78696 0.95747 0.0
Mn648 Mn 0.17782 0.34286 0.97251 0.0
Mn649 Mn 0.16406 0.30232 0.97132 0.0
C650 C 0.19476 0.32124 0.98295 0.0
C651 C 0.19224 0.36483 0.95894 0.0
C652 C 0.15138 0.32859 0.99681 0.0
O653 O 0.15789 0.3439 0.95597 0.0
O654 O 0.15207 0.31587 0.95369 0.0
C655 C 0.17753 0.29251 0.93758 0.0
N656 N 0.17647 0.28975 0.95463 0.0
C657 C 0.19489 0.2654 0.9527 0.0
C658 C 0.19597 0.26784 0.93508 0.0
C659 C 0.18731 0.28149 0.9275 0.0
C660 C 0.18489 0.27675 0.96208 0.0
H661 H 0.17105 0.3031 0.93174 0.0
C662 C 0.14991 0.33142 0.9493 0.0
O663 O 0.18161 0.36802 0.97119 0.0
O664 O 0.19385 0.34913 0.95431 0.0
N665 N 0.17483 0.28779 0.98762 0.0
C666 C 0.17332 0.28782 0.00487 0.0
C667 C 0.18164 0.27526 0.01446 0.0
C668 C 0.19136 0.26277 0.00621 0.0
C669 C 0.19266 0.26292 0.98844 0.0
C670 C 0.18393 0.27564 0.97954 0.0
H671 H 0.16587 0.29738 0.0113 0.0
O672 O 0.19747 0.33682 0.98756 0.0
O673 O 0.1824 0.31889 0.97231 0.0
O674 O 0.16127 0.34071 0.99247 0.0
O675 O 0.15101 0.31419 0.98924 0.0
C676 C 0.20251 0.25114 0.97923 0.0
C677 C 0.20366 0.25241 0.96138 0.0
H678 H 0.20359 0.25943 0.92728 0.0
H679 H 0.18822 0.28355 0.91393 0.0
H680 H 0.1806 0.27525 0.02817 0.0
H681 H 0.19787 0.25319 0.01366 0.0
H682 H 0.20946 0.24122 0.98577 0.0
H683 H 0.2115 0.24345 0.95446 0.0
Mn684 Mn 0.65216 0.17561 0.97641 0.0
Mn685 Mn 0.69154 0.15913 0.97955 0.0
C686 C 0.67393 0.19162 0.98785 0.0
C687 C 0.63221 0.19055 0.96049 0.0
C688 C 0.66235 0.14944 0.00294 0.0
O689 O 0.65126 0.15505 0.9606 0.0
O690 O 0.6788 0.14708 0.96144 0.0
C691 C 0.70537 0.16968 0.94619 0.0
N692 N 0.70631 0.16978 0.96347 0.0
C693 C 0.73163 0.18694 0.96284 0.0
C694 C 0.731 0.18691 0.94503 0.0
C695 C 0.71779 0.17827 0.93667 0.0
C696 C 0.71894 0.17809 0.97164 0.0
H697 H 0.69519 0.16312 0.93972 0.0
C698 C 0.66364 0.14581 0.95557 0.0
O699 O 0.62751 0.1807 0.97291 0.0
O700 O 0.6483 0.19115 0.95706 0.0
N701 N 0.70518 0.16998 0.99654 0.0
C702 C 0.70348 0.16949 0.01377 0.0
C703 C 0.71543 0.17791 0.02402 0.0
C704 C 0.72904 0.18666 0.01647 0.0
C705 C 0.73061 0.18686 -0.00128 0.0
C706 C 0.71839 0.17813 0.98916 0.0
H707 H 0.69304 0.1628 0.01965 0.0
O708 O 0.65825 0.19554 0.99103 0.0
O709 O 0.67629 0.17858 0.97804 0.0
O710 O 0.65149 0.16003 0.9972 0.0
O711 O 0.67731 0.14768 0.99684 0.0
C712 C 0.74366 0.19562 0.99013 0.0
C713 C 0.74416 0.19566 0.9722 0.0
H714 H 0.7405 0.19361 0.93764 0.0
H715 H 0.71716 0.17827 0.92293 0.0
H716 H 0.71412 0.1777 0.03771 0.0
H717 H 0.73814 0.19326 0.02441 0.0
H718 H 0.75324 0.20255 0.99718 0.0
H719 H 0.75412 0.20264 0.96574 0.0
Mn720 Mn 0.82022 0.65519 0.97259 0.0
Mn721 Mn 0.83256 0.6962 0.97483 0.0
C722 C 0.8019 0.67556 0.98317 0.0
C723 C 0.80734 0.63347 0.95712 0.0
C724 C 0.844 0.66914 -7e-05 0.0
O725 O 0.84107 0.65569 0.95723 0.0
O726 O 0.84703 0.68369 0.95836 0.0
C727 C 0.82269 0.70675 0.94009 0.0
N728 N 0.8216 0.70886 0.95723 0.0
C729 C 0.80249 0.73253 0.95398 0.0
C730 C 0.8035 0.73068 0.93628 0.0
C731 C 0.8136 0.7177 0.92931 0.0
C732 C 0.81184 0.72123 0.96407 0.0
H733 H 0.8304 0.69675 0.9347 0.0
C734 C 0.84984 0.66863 0.9528 0.0
O735 O 0.8174 0.63002 0.96978 0.0
O736 O 0.80546 0.64933 0.95316 0.0
N737 N 0.81964 0.70989 0.99025 0.0
C738 C 0.81964 0.70963 0.00757 0.0
C739 C 0.8101 0.72176 0.01654 0.0
C740 C 0.80077 0.73409 0.00762 0.0
C741 C 0.80104 0.73418 0.98981 0.0
C742 C 0.81095 0.7219 0.98156 0.0
H743 H 0.82683 0.70022 0.0145 0.0
O744 O 0.79957 0.65965 0.98675 0.0
O745 O 0.81474 0.67903 0.97339 0.0
O746 O 0.83555 0.65676 0.99368 0.0
O747 O 0.84394 0.68413 0.99362 0.0
C748 C 0.79174 0.74585 0.9799 0.0
C749 C 0.79241 0.74498 0.962 0.0
H750 H 0.79647 0.73907 0.92792 0.0
H751 H 0.81437 0.71615 0.91566 0.0
H752 H 0.80994 0.7216 0.03029 0.0
H753 H 0.79341 0.7434 0.01459 0.0
H754 H 0.78386 0.7554 0.98593 0.0
H755 H 0.78503 0.75388 0.95452 0.0
Mn756 Mn 0.6561 0.82304 0.02147 0.0
Mn757 Mn 0.69686 0.83595 0.01853 0.0
C758 C 0.67668 0.80473 0.01134 0.0
C759 C 0.63464 0.81043 0.03742 0.0
C760 C 0.66944 0.8462 0.99332 0.0
O761 O 0.65641 0.84426 0.03628 0.0
O762 O 0.68427 0.8507 0.03473 0.0
C763 C 0.70793 0.82749 0.05349 0.0
N764 N 0.70983 0.82576 0.03637 0.0
C765 C 0.73377 0.80709 0.04006 0.0
C766 C 0.73214 0.80875 0.05773 0.0
C767 C 0.71913 0.81896 0.06447 0.0
C768 C 0.72224 0.8159 0.02976 0.0
H769 H 0.69792 0.83529 0.05873 0.0
C770 C 0.66923 0.8533 0.04044 0.0
O771 O 0.63101 0.82004 0.02447 0.0
O772 O 0.65054 0.80878 0.04134 0.0
N773 N 0.71057 0.82267 0.00343 0.0
C774 C 0.71005 0.82192 0.98613 0.0
C775 C 0.72205 0.812 0.9774 0.0
C776 C 0.73454 0.80308 0.98652 0.0
C777 C 0.73496 0.80421 0.0043 0.0
C778 C 0.72273 0.81438 0.01231 0.0
H779 H 0.70048 0.82873 0.97905 0.0
O780 O 0.66079 0.80208 0.00788 0.0
O781 O 0.68 0.8179 0.0207 0.0
O782 O 0.65727 0.83777 -1e-05 0.0
O783 O 0.68449 0.84656 -0.00053 0.0
C784 C 0.74689 0.79549 0.01441 0.0
C785 C 0.74626 0.79687 0.03228 0.0
H786 H 0.74072 0.80216 0.06624 0.0
H787 H 0.71774 0.82025 0.0781 0.0
H788 H 0.72165 0.81119 0.96368 0.0
H789 H 0.74369 0.79533 0.97976 0.0
H790 H 0.75648 0.78751 0.00857 0.0
H791 H 0.75536 0.78991 0.03992 0.0
Mn792 Mn 0.17487 0.65115 0.01908 0.0
Mn793 Mn 0.16298 0.69232 0.01721 0.0
C794 C 0.19379 0.67152 0.0096 0.0
C795 C 0.18647 0.62892 0.03477 0.0
C796 C 0.15217 0.66585 0.99119 0.0
O797 O 0.15345 0.65161 0.03365 0.0
O798 O 0.14793 0.6797 0.0331 0.0
C799 C 0.17193 0.70218 0.05241 0.0
N800 N 0.17353 0.70458 0.03534 0.0
C801 C 0.19267 0.72807 0.03956 0.0
C802 C 0.19114 0.72593 0.05719 0.0
C803 C 0.18076 0.7129 0.06363 0.0
C804 C 0.18357 0.717 0.029 0.0
H805 H 0.164 0.69215 0.05741 0.0
C806 C 0.14479 0.66455 0.03822 0.0
O807 O 0.1771 0.62591 0.0215 0.0
O808 O 0.18866 0.64467 0.03904 0.0
N809 N 0.17648 0.70614 0.00242 0.0
C810 C 0.17698 0.70619 0.9851 0.0
C811 C 0.18681 0.71844 0.97663 0.0
C812 C 0.19592 0.73058 0.98602 0.0
C813 C 0.19516 0.73034 0.00382 0.0
C814 C 0.18497 0.71796 0.01156 0.0
H815 H 0.16997 0.69693 0.97781 0.0
O816 O 0.19612 0.65565 0.00587 0.0
O817 O 0.18062 0.67495 0.01893 0.0
O818 O 0.16041 0.65331 0.99744 0.0
O819 O 0.15204 0.68068 0.99786 0.0
C820 C 0.20422 0.74179 0.01419 0.0
C821 C 0.20304 0.7406 0.03205 0.0
H822 H 0.19796 0.73413 0.06589 0.0
H823 H 0.17958 0.71111 0.07722 0.0
H824 H 0.18735 0.71853 0.96288 0.0
H825 H 0.20348 0.74001 0.97943 0.0
H826 H 0.21231 0.75141 0.00856 0.0
H827 H 0.21024 0.74934 0.03989 0.0
Mn828 Mn 0.82002 0.33938 0.02278 0.0
Mn829 Mn 0.83372 0.29903 0.01836 0.0
C830 C 0.80209 0.31882 0.01194 0.0
C831 C 0.80734 0.36011 0.03958 0.0
C832 C 0.84411 0.32786 0.99479 0.0
O833 O 0.84134 0.33877 0.03752 0.0
O834 O 0.84772 0.31087 0.03568 0.0
C835 C 0.82432 0.28571 0.05227 0.0
N836 N 0.82318 0.28484 0.03502 0.0
C837 C 0.80483 0.26041 0.03659 0.0
C838 C 0.80588 0.26098 0.05438 0.0
C839 C 0.81564 0.27371 0.06224 0.0
C840 C 0.81377 0.27269 0.02732 0.0
H841 H 0.83178 0.2955 0.05835 0.0
C842 C 0.85028 0.32583 0.04164 0.0
O843 O 0.81681 0.36426 0.02669 0.0
O844 O 0.80574 0.34406 0.04291 0.0
N845 N 0.82112 0.28614 0.00202 0.0
C846 C 0.82089 0.28777 0.98478 0.0
C847 C 0.8115 0.27617 0.97499 0.0
C848 C 0.80255 0.26296 0.983 0.0
C849 C 0.80309 0.26145 0.00075 0.0
C850 C 0.81279 0.2733 0.00984 0.0
H851 H 0.8278 0.29786 0.97855 0.0
O852 O 0.79905 0.33477 0.00909 0.0
O853 O 0.8154 0.31549 0.02107 0.0
O854 O 0.83471 0.33936 0.00131 0.0
O855 O 0.84491 0.31266 0.0005 0.0
C856 C 0.79422 0.24879 0.00981 0.0
C857 C 0.79504 0.24831 0.02772 0.0
H858 H 0.79916 0.25179 0.06212 0.0
H859 H 0.81645 0.27428 0.07596 0.0
H860 H 0.81114 0.27742 0.96129 0.0
H861 H 0.79525 0.25409 0.97541 0.0
H862 H 0.78656 0.2395 0.00313 0.0
H863 H 0.78797 0.23867 0.03455 0.0
Mn864 Mn 0.52342 0.84476 0.67414 0.0
Mn865 Mn 0.52237 0.80382 0.66161 0.0
C866 C 0.51364 0.82412 0.69254 0.0
C867 C 0.53867 0.86699 0.68615 0.0
C868 C 0.49697 0.83049 0.64989 0.0
O869 O 0.53844 0.84457 0.653 0.0
O870 O 0.53936 0.8164 0.64782 0.0
C871 C 0.55673 0.79315 0.67262 0.0
N872 N 0.53955 0.79111 0.67316 0.0
C873 C 0.5421 0.76735 0.69228 0.0
C874 C 0.55983 0.76914 0.69185 0.0
C875 C 0.56717 0.78212 0.68201 0.0
C876 C 0.53235 0.7787 0.68264 0.0
H877 H 0.5624 0.80315 0.66511 0.0
C878 C 0.544 0.83172 0.64477 0.0
O879 O 0.52556 0.86995 0.67654 0.0
O880 O 0.54303 0.85126 0.68838 0.0
N881 N 0.50649 0.79018 0.67402 0.0
C882 C 0.48918 0.79061 0.67359 0.0
C883 C 0.47986 0.77861 0.68296 0.0
C884 C 0.48842 0.76622 0.69256 0.0
C885 C 0.50624 0.76594 0.6927 0.0
C886 C 0.51485 0.77812 0.68298 0.0
H887 H 0.48253 0.80005 0.66618 0.0
O888 O 0.50979 0.83995 0.69506 0.0
O889 O 0.52328 0.82095 0.67953 0.0
O890 O 0.50215 0.84264 0.65929 0.0
O891 O 0.50403 0.81585 0.64939 0.0
C892 C 0.51579 0.7542 0.70228 0.0
C893 C 0.53371 0.75494 0.70211 0.0
H894 H 0.56793 0.7607 0.69912 0.0
H895 H 0.58083 0.78363 0.68168 0.0
H896 H 0.46611 0.77891 0.68279 0.0
H897 H 0.48118 0.75704 0.69983 0.0
H898 H 0.50948 0.74471 0.71001 0.0
H899 H 0.54091 0.746 0.70971 0.0
Mn900 Mn 0.1561 0.52175 0.67828 0.0
Mn901 Mn 0.19698 0.52157 0.66548 0.0
C902 C 0.17708 0.51121 0.69594 0.0
C903 C 0.13397 0.53573 0.69205 0.0
C904 C 0.17058 0.49624 0.65294 0.0
O905 O 0.15589 0.538 0.65808 0.0
O906 O 0.18396 0.53863 0.65215 0.0
C907 C 0.20682 0.55593 0.67727 0.0
N908 N 0.20933 0.5388 0.67735 0.0
C909 C 0.23315 0.54152 0.69634 0.0
C910 C 0.23093 0.55921 0.69632 0.0
C911 C 0.21767 0.56643 0.68679 0.0
C912 C 0.22196 0.5317 0.68659 0.0
H913 H 0.19657 0.56152 0.67006 0.0
C914 C 0.16863 0.54361 0.64971 0.0
O915 O 0.13089 0.5236 0.68125 0.0
O916 O 0.14968 0.54016 0.69408 0.0
N917 N 0.21104 0.50575 0.67751 0.0
C918 C 0.21091 0.48844 0.67687 0.0
C919 C 0.22307 0.47921 0.68612 0.0
C920 C 0.23531 0.48787 0.69582 0.0
C921 C 0.23531 0.50569 0.69614 0.0
C922 C 0.22293 0.5142 0.68659 0.0
H923 H 0.20154 0.48171 0.66944 0.0
O924 O 0.16136 0.50685 0.69825 0.0
O925 O 0.17996 0.5216 0.68346 0.0
O926 O 0.1582 0.50152 0.66201 0.0
O927 O 0.18531 0.50312 0.65304 0.0
C928 C 0.24695 0.51532 0.70575 0.0
C929 C 0.24584 0.53323 0.70589 0.0
H930 H 0.23923 0.56735 0.7037 0.0
H931 H 0.21579 0.58006 0.68682 0.0
H932 H 0.22299 0.46546 0.68582 0.0
H933 H 0.24459 0.4807 0.70305 0.0
H934 H 0.25664 0.50909 0.71328 0.0
H935 H 0.25469 0.54048 0.71354 0.0
Mn936 Mn 0.47428 0.15092 0.6778 0.0
Mn937 Mn 0.47491 0.19235 0.66685 0.0
C938 C 0.48422 0.17098 0.69685 0.0
C939 C 0.4593 0.12817 0.68924 0.0
C940 C 0.5004 0.16628 0.65382 0.0
O941 O 0.459 0.1518 0.65686 0.0
O942 O 0.45763 0.1802 0.653 0.0
C943 C 0.44073 0.2023 0.67904 0.0
N944 N 0.45788 0.20456 0.67914 0.0
C945 C 0.45555 0.2279 0.69878 0.0
C946 C 0.43784 0.22594 0.69874 0.0
C947 C 0.43041 0.21304 0.68888 0.0
C948 C 0.46518 0.21683 0.68871 0.0
H949 H 0.43498 0.19233 0.67156 0.0
C950 C 0.45305 0.16497 0.64944 0.0
O951 O 0.47229 0.12563 0.67935 0.0
O952 O 0.4549 0.14378 0.69207 0.0
N953 N 0.49094 0.20568 0.67941 0.0
C954 C 0.50825 0.20535 0.67868 0.0
C955 C 0.51767 0.21727 0.68806 0.0
C956 C 0.50921 0.22946 0.69799 0.0
C957 C 0.4914 0.22959 0.69849 0.0
C958 C 0.48269 0.21752 0.68874 0.0
H959 H 0.51483 0.19607 0.67103 0.0
O960 O 0.48819 0.15509 0.69873 0.0
O961 O 0.47439 0.17454 0.6841 0.0
O962 O 0.49526 0.1537 0.6627 0.0
O963 O 0.4932 0.18087 0.65397 0.0
C964 C 0.48196 0.2411 0.70846 0.0
C965 C 0.46405 0.24021 0.70866 0.0
H966 H 0.42984 0.23416 0.70636 0.0
H967 H 0.41675 0.21136 0.68888 0.0
H968 H 0.53141 0.21706 0.68763 0.0
H969 H 0.51653 0.23861 0.70522 0.0
H970 H 0.48836 0.25052 0.7162 0.0
H971 H 0.45694 0.24895 0.71657 0.0
Mn972 Mn 0.84341 0.47659 0.6759 0.0
Mn973 Mn 0.80244 0.47636 0.66337 0.0
C974 C 0.82245 0.48518 0.69451 0.0
C975 C 0.86612 0.46176 0.68761 0.0
C976 C 0.82806 0.50327 0.65248 0.0
O977 O 0.84382 0.46221 0.65441 0.0
O978 O 0.81572 0.46022 0.64911 0.0
C979 C 0.79335 0.44125 0.67344 0.0
N980 N 0.79047 0.4583 0.67437 0.0
C981 C 0.76677 0.45413 0.69324 0.0
C982 C 0.76937 0.43652 0.69236 0.0
C983 C 0.78276 0.43006 0.68245 0.0
C984 C 0.7777 0.46466 0.68394 0.0
H985 H 0.80369 0.43625 0.66593 0.0
C986 C 0.83124 0.45629 0.64606 0.0
O987 O 0.86868 0.47522 0.67836 0.0
O988 O 0.85054 0.45685 0.68965 0.0
N989 N 0.78808 0.49125 0.67619 0.0
C990 C 0.78778 0.50858 0.67634 0.0
C991 C 0.77534 0.51707 0.68592 0.0
C992 C 0.76328 0.50769 0.69515 0.0
C993 C 0.76376 0.48988 0.69471 0.0
C994 C 0.77634 0.48211 0.6848 0.0
H995 H 0.79699 0.51587 0.66927 0.0
O996 O 0.83813 0.48952 0.69712 0.0
O997 O 0.8196 0.47572 0.68129 0.0
O998 O 0.84052 0.49808 0.66151 0.0
O999 O 0.81369 0.49567 0.65185 0.0
C1000 C 0.75242 0.47953 0.70393 0.0
C1001 C 0.75395 0.46167 0.70324 0.0
H1002 H 0.76128 0.42785 0.69935 0.0
H1003 H 0.78492 0.41649 0.6818 0.0
H1004 H 0.77507 0.53082 0.68621 0.0
H1005 H 0.75377 0.51429 0.70259 0.0
H1006 H 0.74263 0.48518 0.7118 0.0
H1007 H 0.74531 0.45386 0.71058 0.0
Mn1008 Mn 0.51926 0.15446 0.31982 0.0
Mn1009 Mn 0.51845 0.19546 0.33228 0.0
C1010 C 0.50984 0.1753 0.30135 0.0
C1011 C 0.53416 0.13195 0.30784 0.0
C1012 C 0.49265 0.16907 0.34383 0.0
O1013 O 0.5344 0.15451 0.34088 0.0
O1014 O 0.53507 0.18265 0.3463 0.0
C1015 C 0.55316 0.20572 0.32201 0.0
N1016 N 0.53602 0.20796 0.32111 0.0
C1017 C 0.53926 0.23201 0.30249 0.0
C1018 C 0.55696 0.23002 0.30328 0.0
C1019 C 0.56393 0.21679 0.31304 0.0
C1020 C 0.52918 0.22058 0.31166 0.0
H1021 H 0.55856 0.19557 0.32951 0.0
C1022 C 0.53989 0.16735 0.34919 0.0
O1023 O 0.52103 0.12924 0.31748 0.0
O1024 O 0.53873 0.1476 0.3055 0.0
N1025 N 0.503 0.20933 0.31959 0.0
C1026 C 0.48568 0.20906 0.31958 0.0
C1027 C 0.47671 0.22123 0.31008 0.0
C1028 C 0.48562 0.23365 0.30085 0.0
C1029 C 0.50344 0.2338 0.30123 0.0
C1030 C 0.51169 0.22137 0.31095 0.0
H1031 H 0.47875 0.19959 0.32671 0.0
O1032 O 0.50566 0.15954 0.29889 0.0
O1033 O 0.51946 0.1783 0.31439 0.0
O1034 O 0.4981 0.15675 0.33479 0.0
O1035 O 0.49968 0.18372 0.34411 0.0
C1036 C 0.51334 0.24568 0.2922 0.0
C1037 C 0.53124 0.24475 0.29278 0.0
H1038 H 0.56531 0.23852 0.29637 0.0
H1039 H 0.57757 0.21513 0.31367 0.0
H1040 H 0.46296 0.22103 0.30986 0.0
H1041 H 0.47867 0.24295 0.29346 0.0
H1042 H 0.50731 0.25544 0.28457 0.0
H1043 H 0.53871 0.2538 0.28558 0.0
Mn1044 Mn 0.84398 0.51917 0.32162 0.0
Mn1045 Mn 0.80499 0.51369 0.33856 0.0
C1046 C 0.8224 0.50796 0.30519 0.0
C1047 C 0.86343 0.53638 0.30745 0.0
C1048 C 0.83523 0.49105 0.34657 0.0
O1049 O 0.84458 0.53393 0.34296 0.0
O1050 O 0.81721 0.53173 0.35129 0.0
C1051 C 0.78908 0.54684 0.33057 0.0
N1052 N 0.78903 0.52957 0.32943 0.0
C1053 C 0.76265 0.52979 0.31395 0.0
C1054 C 0.76236 0.54758 0.31505 0.0
C1055 C 0.77565 0.55614 0.32337 0.0
C1056 C 0.77627 0.52119 0.32154 0.0
H1057 H 0.7993 0.55346 0.3369 0.0
C1058 C 0.83217 0.53808 0.35261 0.0
O1059 O 0.86846 0.52359 0.31662 0.0
O1060 O 0.84725 0.53945 0.30704 0.0
N1061 N 0.79191 0.4967 0.32706 0.0
C1062 C 0.79493 0.47969 0.32575 0.0
C1063 C 0.78333 0.46937 0.31695 0.0
C1064 C 0.76873 0.47661 0.30966 0.0
C1065 C 0.76586 0.49413 0.31123 0.0
C1066 C 0.77782 0.50377 0.32023 0.0
H1067 H 0.80617 0.47407 0.33126 0.0
O1068 O 0.83816 0.50546 0.30106 0.0
O1069 O 0.81977 0.51696 0.3188 0.0
O1070 O 0.84565 0.49758 0.33603 0.0
O1071 O 0.82013 0.49653 0.34882 0.0
C1072 C 0.75185 0.50248 0.30382 0.0
C1073 C 0.75023 0.52029 0.30521 0.0
H1074 H 0.75211 0.55481 0.30937 0.0
H1075 H 0.77556 0.56987 0.32418 0.0
H1076 H 0.78567 0.45587 0.31572 0.0
H1077 H 0.7599 0.46863 0.30273 0.0
H1078 H 0.74241 0.49536 0.29676 0.0
H1079 H 0.73956 0.52659 0.2992 0.0
Mn1080 Mn 0.47403 0.83982 0.32135 0.0
Mn1081 Mn 0.47669 0.79929 0.33484 0.0
C1082 C 0.48496 0.81914 0.3036 0.0
C1083 C 0.45801 0.86087 0.30817 0.0
C1084 C 0.50056 0.82748 0.34651 0.0
O1085 O 0.4587 0.83943 0.34226 0.0
O1086 O 0.45866 0.81127 0.34787 0.0
C1087 C 0.44323 0.78659 0.32323 0.0
N1088 N 0.4605 0.78542 0.32319 0.0
C1089 C 0.45966 0.76124 0.30446 0.0
C1090 C 0.44186 0.76208 0.30445 0.0
C1091 C 0.43362 0.77484 0.31384 0.0
C1092 C 0.46856 0.77325 0.31413 0.0
H1093 H 0.43685 0.79646 0.33032 0.0
C1094 C 0.45337 0.82647 0.35048 0.0
O1095 O 0.47067 0.86482 0.31803 0.0
O1096 O 0.45444 0.84488 0.30654 0.0
N1097 N 0.49356 0.7863 0.32305 0.0
C1098 C 0.51081 0.78783 0.32364 0.0
C1099 C 0.52096 0.77632 0.31452 0.0
C1100 C 0.51331 0.76333 0.30496 0.0
C1101 C 0.49554 0.76192 0.30465 0.0
C1102 C 0.48608 0.77366 0.31412 0.0
H1103 H 0.51677 0.79777 0.33097 0.0
O1104 O 0.48824 0.83504 0.30077 0.0
O1105 O 0.47532 0.81595 0.31658 0.0
O1106 O 0.49502 0.83913 0.33667 0.0
O1107 O 0.49413 0.81255 0.34719 0.0
C1108 C 0.48686 0.74952 0.29508 0.0
C1109 C 0.46893 0.74921 0.29496 0.0
H1110 H 0.4344 0.75311 0.29713 0.0
H1111 H 0.41989 0.77565 0.31378 0.0
H1112 H 0.53466 0.7775 0.31481 0.0
H1113 H 0.52118 0.75458 0.29782 0.0
H1114 H 0.49383 0.74033 0.28757 0.0
H1115 H 0.46239 0.73978 0.28734 0.0
Mn1116 Mn 0.15138 0.47452 0.31959 0.0
Mn1117 Mn 0.19034 0.47405 0.33722 0.0
C1118 C 0.1742 0.48556 0.30483 0.0
C1119 C 0.13118 0.46023 0.30337 0.0
C1120 C 0.16228 0.49864 0.34761 0.0
O1121 O 0.1489 0.458 0.33941 0.0
O1122 O 0.17633 0.45577 0.34757 0.0
C1123 C 0.20268 0.4409 0.32442 0.0
N1124 N 0.20461 0.45804 0.3258 0.0
C1125 C 0.23048 0.45732 0.30951 0.0
C1126 C 0.22888 0.43963 0.30807 0.0
C1127 C 0.21489 0.43139 0.31551 0.0
C1128 C 0.21797 0.46611 0.31862 0.0
H1129 H 0.19187 0.43454 0.32999 0.0
C1130 C 0.16068 0.4513 0.34836 0.0
O1131 O 0.12672 0.47248 0.31354 0.0
O1132 O 0.1471 0.45611 0.30314 0.0
N1133 N 0.20519 0.49105 0.32809 0.0
C1134 C 0.20432 0.50827 0.32977 0.0
C1135 C 0.21706 0.51846 0.32253 0.0
C1136 C 0.23059 0.51085 0.31372 0.0
C1137 C 0.2313 0.4931 0.31228 0.0
C1138 C 0.21832 0.48359 0.31989 0.0
H1139 H 0.19395 0.5142 0.33652 0.0
O1140 O 0.15882 0.48971 0.30059 0.0
O1141 O 0.17563 0.47491 0.31734 0.0
O1142 O 0.15149 0.49457 0.33619 0.0
O1143 O 0.17663 0.49122 0.34948 0.0
C1144 C 0.24421 0.48449 0.30335 0.0
C1145 C 0.24379 0.46662 0.30194 0.0
H1146 H 0.2382 0.43226 0.30111 0.0
H1147 H 0.21349 0.41775 0.31434 0.0
H1148 H 0.21642 0.53216 0.32367 0.0
H1149 H 0.24031 0.51877 0.308 0.0
H1150 H 0.25438 0.49152 0.29728 0.0
H1151 H 0.25364 0.46017 0.2948 0.0
Mn1152 Mn 0.67578 0.52005 0.8422 0.0
Mn1153 Mn 0.66291 0.51933 0.80133 0.0
C1154 C 0.69383 0.51015 0.82124 0.0
C1155 C 0.68846 0.53507 0.8643 0.0
C1156 C 0.65144 0.49355 0.82777 0.0
O1157 O 0.65498 0.53551 0.84238 0.0
O1158 O 0.64912 0.53598 0.81435 0.0
C1159 C 0.67336 0.55405 0.79125 0.0
N1160 N 0.67408 0.53692 0.78885 0.0
C1161 C 0.6926 0.54022 0.76473 0.0
C1162 C 0.69197 0.55791 0.76688 0.0
C1163 C 0.68235 0.56484 0.78023 0.0
C1164 C 0.68339 0.53011 0.77612 0.0
H1165 H 0.66599 0.55943 0.8015 0.0
C1166 C 0.64652 0.54096 0.82965 0.0
O1167 O 0.67869 0.52211 0.86741 0.0
O1168 O 0.69049 0.53938 0.84855 0.0
N1169 N 0.67534 0.50389 0.78721 0.0
C1170 C 0.67521 0.48657 0.78733 0.0
C1171 C 0.68453 0.47762 0.77501 0.0
C1172 C 0.69374 0.48657 0.7626 0.0
C1173 C 0.69352 0.50439 0.76261 0.0
C1174 C 0.68395 0.51262 0.77517 0.0
H1175 H 0.66814 0.47961 0.79681 0.0
O1176 O 0.69639 0.50606 0.83699 0.0
O1177 O 0.68095 0.52003 0.8183 0.0
O1178 O 0.66042 0.49906 0.84014 0.0
O1179 O 0.65118 0.50055 0.8131 0.0
C1180 C 0.70256 0.51432 0.75077 0.0
C1181 C 0.70217 0.53222 0.75187 0.0
H1182 H 0.69891 0.56627 0.75842 0.0
H1183 H 0.68187 0.57848 0.78202 0.0
H1184 H 0.68464 0.46387 0.77509 0.0
H1185 H 0.70101 0.47963 0.75319 0.0
H1186 H 0.71007 0.50832 0.74092 0.0
H1187 H 0.70939 0.53971 0.74286 0.0
Mn1188 Mn 0.47743 0.67751 0.83992 0.0
Mn1189 Mn 0.4802 0.66416 0.79929 0.0
C1190 C 0.48751 0.69562 0.81912 0.0
C1191 C 0.46131 0.68997 0.86133 0.0
C1192 C 0.50531 0.65395 0.82685 0.0
O1193 O 0.46265 0.65627 0.83979 0.0
O1194 O 0.46368 0.6498 0.81191 0.0
C1195 C 0.44546 0.67302 0.78787 0.0
N1196 N 0.46262 0.67446 0.78607 0.0
C1197 C 0.4594 0.69274 0.76176 0.0
C1198 C 0.4417 0.69137 0.76328 0.0
C1199 C 0.4347 0.68151 0.77643 0.0
C1200 C 0.46948 0.684 0.77353 0.0
H1201 H 0.44004 0.66547 0.79797 0.0
C1202 C 0.45814 0.64731 0.82704 0.0
O1203 O 0.47441 0.68058 0.86498 0.0
O1204 O 0.45748 0.69172 0.84542 0.0
N1205 N 0.4956 0.67708 0.78556 0.0
C1206 C 0.5129 0.67768 0.78629 0.0
C1207 C 0.52187 0.6873 0.77422 0.0
C1208 C 0.51298 0.69609 0.76146 0.0
C1209 C 0.4952 0.69514 0.76087 0.0
C1210 C 0.48695 0.68527 0.77318 0.0
H1211 H 0.5198 0.67097 0.79606 0.0
O1212 O 0.49096 0.69848 0.83498 0.0
O1213 O 0.47817 0.68239 0.81597 0.0
O1214 O 0.49891 0.66277 0.83887 0.0
O1215 O 0.49903 0.65334 0.81187 0.0
C1216 C 0.48532 0.70375 0.74867 0.0
C1217 C 0.46743 0.70262 0.74915 0.0
H1218 H 0.43335 0.69793 0.75451 0.0
H1219 H 0.42105 0.68045 0.77774 0.0
H1220 H 0.53559 0.68798 0.77477 0.0
H1221 H 0.51993 0.70361 0.75225 0.0
H1222 H 0.49135 0.71149 0.739 0.0
H1223 H 0.45997 0.70951 0.73986 0.0
Mn1224 Mn 0.32218 0.47784 0.84539 0.0
Mn1225 Mn 0.33316 0.47843 0.80395 0.0
C1226 C 0.30303 0.48732 0.82525 0.0
C1227 C 0.31085 0.46298 0.86826 0.0
C1228 C 0.34557 0.50444 0.82973 0.0
O1229 O 0.34313 0.46263 0.84468 0.0
O1230 O 0.34763 0.4619 0.81639 0.0
C1231 C 0.32244 0.44362 0.79446 0.0
N1232 N 0.32154 0.46074 0.79202 0.0
C1233 C 0.30192 0.45728 0.7688 0.0
C1234 C 0.30272 0.4396 0.771 0.0
C1235 C 0.31299 0.43275 0.78391 0.0
C1236 C 0.31164 0.46747 0.77969 0.0
H1237 H 0.33029 0.43831 0.80439 0.0
C1238 C 0.351 0.4571 0.8316 0.0
O1239 O 0.32061 0.47609 0.87069 0.0
O1240 O 0.30805 0.45841 0.85269 0.0
N1241 N 0.32002 0.49376 0.79036 0.0
C1242 C 0.3201 0.51108 0.79039 0.0
C1243 C 0.31031 0.51994 0.77837 0.0
C1244 C 0.30064 0.51091 0.76639 0.0
C1245 C 0.30081 0.49309 0.76654 0.0
C1246 C 0.31095 0.48495 0.77871 0.0
H1247 H 0.32754 0.5181 0.79952 0.0
O1248 O 0.30116 0.49151 0.84108 0.0
O1249 O 0.31589 0.47761 0.82176 0.0
O1250 O 0.33712 0.49896 0.84246 0.0
O1251 O 0.34532 0.49734 0.81511 0.0
C1252 C 0.29116 0.48308 0.75525 0.0
C1253 C 0.29167 0.46519 0.75642 0.0
H1254 H 0.29541 0.43118 0.76292 0.0
H1255 H 0.3136 0.41913 0.78573 0.0
H1256 H 0.31021 0.5337 0.77835 0.0
H1257 H 0.29308 0.51779 0.75716 0.0
H1258 H 0.28312 0.48902 0.74578 0.0
H1259 H 0.284 0.45764 0.74783 0.0
Mn1260 Mn 0.52008 0.32032 0.84144 0.0
Mn1261 Mn 0.51746 0.33245 0.80042 0.0
C1262 C 0.51025 0.30152 0.82115 0.0
C1263 C 0.53607 0.30869 0.86339 0.0
C1264 C 0.49217 0.34335 0.82753 0.0
O1265 O 0.53472 0.34164 0.84076 0.0
O1266 O 0.53387 0.34728 0.81268 0.0
C1267 C 0.55228 0.32341 0.78941 0.0
N1268 N 0.53514 0.32181 0.78761 0.0
C1269 C 0.53854 0.30269 0.76397 0.0
C1270 C 0.55623 0.30421 0.76551 0.0
C1271 C 0.56312 0.31458 0.77831 0.0
C1272 C 0.52837 0.31181 0.77538 0.0
H1273 H 0.55763 0.33134 0.79926 0.0
C1274 C 0.53927 0.35025 0.82777 0.0
O1275 O 0.52288 0.3181 0.86659 0.0
O1276 O 0.54008 0.30643 0.84758 0.0
N1277 N 0.50217 0.31902 0.78706 0.0
C1278 C 0.48488 0.31837 0.78773 0.0
C1279 C 0.476 0.30827 0.77599 0.0
C1280 C 0.48497 0.29907 0.7636 0.0
C1281 C 0.50275 0.30008 0.76304 0.0
C1282 C 0.51091 0.31043 0.77501 0.0
H1283 H 0.4779 0.3254 0.79722 0.0
O1284 O 0.50672 0.29913 0.83707 0.0
O1285 O 0.51952 0.31471 0.81766 0.0
O1286 O 0.49854 0.33486 0.83981 0.0
O1287 O 0.49852 0.34358 0.81257 0.0
C1288 C 0.51272 0.29107 0.75121 0.0
C1289 C 0.5306 0.29232 0.75171 0.0
H1290 H 0.56463 0.29739 0.75701 0.0
H1291 H 0.57676 0.31575 0.77963 0.0
H1292 H 0.46227 0.30755 0.77651 0.0
H1293 H 0.47809 0.29118 0.75465 0.0
H1294 H 0.50676 0.28294 0.74181 0.0
H1295 H 0.53813 0.28513 0.74271 0.0
Mn1296 Mn 0.67566 0.47483 0.15531 0.0
Mn1297 Mn 0.66112 0.48008 0.19534 0.0
C1298 C 0.69399 0.48338 0.17656 0.0
C1299 C 0.68769 0.45747 0.13464 0.0
C1300 C 0.65494 0.50553 0.16699 0.0
O1301 O 0.65317 0.46215 0.15481 0.0
O1302 O 0.64524 0.46547 0.18215 0.0
C1303 C 0.66449 0.44469 0.20767 0.0
N1304 N 0.6681 0.46153 0.20937 0.0
C1305 C 0.68376 0.45646 0.23515 0.0
C1306 C 0.68011 0.43906 0.23374 0.0
C1307 C 0.67046 0.43316 0.21991 0.0
C1308 C 0.67735 0.46736 0.22264 0.0
H1309 H 0.65709 0.44011 0.19705 0.0
C1310 C 0.64291 0.45957 0.16712 0.0
O1311 O 0.67948 0.47119 0.13045 0.0
O1312 O 0.68823 0.4536 0.15063 0.0
N1313 N 0.67527 0.49383 0.20958 0.0
C1314 C 0.67884 0.51073 0.2083 0.0
C1315 C 0.68904 0.51851 0.22071 0.0
C1316 C 0.69532 0.50889 0.23438 0.0
C1317 C 0.69136 0.49155 0.23551 0.0
C1318 C 0.68108 0.4845 0.22279 0.0
H1319 H 0.6741 0.51817 0.19779 0.0
O1320 O 0.69753 0.4864 0.16075 0.0
O1321 O 0.67978 0.47546 0.17952 0.0
O1322 O 0.66296 0.49768 0.15527 0.0
O1323 O 0.65356 0.49991 0.18215 0.0
C1324 C 0.69762 0.48087 0.24846 0.0
C1325 C 0.69383 0.46334 0.24828 0.0
H1326 H 0.68479 0.43011 0.24309 0.0
H1327 H 0.66767 0.41974 0.21869 0.0
H1328 H 0.6921 0.53189 0.21972 0.0
H1329 H 0.70334 0.5149 0.24382 0.0
H1330 H 0.70565 0.48596 0.25843 0.0
H1331 H 0.69896 0.45522 0.25814 0.0
Mn1332 Mn 0.52199 0.67683 0.15241 0.0
Mn1333 Mn 0.52113 0.66173 0.19244 0.0
C1334 C 0.51143 0.69353 0.17416 0.0
C1335 C 0.53711 0.69082 0.13123 0.0
C1336 C 0.49661 0.65052 0.16471 0.0
O1337 O 0.53786 0.65628 0.15146 0.0
O1338 O 0.53899 0.64972 0.17935 0.0
C1339 C 0.55472 0.67355 0.20458 0.0
N1340 N 0.53749 0.67321 0.20623 0.0
C1341 C 0.5387 0.69063 0.23134 0.0
C1342 C 0.55646 0.69108 0.22997 0.0
C1343 C 0.5645 0.68254 0.2165 0.0
C1344 C 0.52962 0.68145 0.21909 0.0
H1345 H 0.56093 0.66701 0.19423 0.0
C1346 C 0.54388 0.64776 0.16393 0.0
O1347 O 0.52438 0.68098 0.12744 0.0
O1348 O 0.54113 0.69218 0.14713 0.0
N1349 N 0.50442 0.67251 0.20645 0.0
C1350 C 0.48716 0.67154 0.20545 0.0
C1351 C 0.47717 0.67982 0.21772 0.0
C1352 C 0.48503 0.6889 0.23094 0.0
C1353 C 0.50282 0.68958 0.23179 0.0
C1354 C 0.51211 0.68101 0.21926 0.0
H1355 H 0.48104 0.66455 0.19535 0.0
O1356 O 0.50756 0.69692 0.1585 0.0
O1357 O 0.52147 0.68066 0.17649 0.0
O1358 O 0.50128 0.66107 0.15329 0.0
O1359 O 0.50365 0.64937 0.17931 0.0
C1360 C 0.5117 0.69861 0.24445 0.0
C1361 C 0.52962 0.69915 0.24422 0.0
H1362 H 0.56404 0.69806 0.23911 0.0
H1363 H 0.57819 0.6829 0.21531 0.0
H1364 H 0.46345 0.67924 0.21697 0.0
H1365 H 0.47729 0.69537 0.2403 0.0
H1366 H 0.50486 0.7054 0.25429 0.0
H1367 H 0.53629 0.70635 0.25388 0.0
Mn1368 Mn 0.31915 0.52368 0.15647 0.0
Mn1369 Mn 0.33316 0.52406 0.19698 0.0
C1370 C 0.30185 0.51398 0.17816 0.0
C1371 C 0.30521 0.5379 0.13454 0.0
C1372 C 0.3443 0.4979 0.17071 0.0
O1373 O 0.33981 0.5393 0.15533 0.0
O1374 O 0.34615 0.54081 0.18327 0.0
C1375 C 0.32189 0.55865 0.20662 0.0
N1376 N 0.32188 0.54157 0.20948 0.0
C1377 C 0.30382 0.54481 0.23396 0.0
C1378 C 0.30381 0.56246 0.2314 0.0
C1379 C 0.31284 0.56939 0.21763 0.0
C1380 C 0.31312 0.53475 0.2226 0.0
H1381 H 0.32868 0.56401 0.19597 0.0
C1382 C 0.34837 0.5453 0.16776 0.0
O1383 O 0.31527 0.52518 0.13132 0.0
O1384 O 0.30391 0.54261 0.15025 0.0
N1385 N 0.32153 0.50856 0.21172 0.0
C1386 C 0.32209 0.49124 0.21189 0.0
C1387 C 0.31338 0.48229 0.22464 0.0
C1388 C 0.30428 0.49121 0.23713 0.0
C1389 C 0.30397 0.50902 0.23677 0.0
C1390 C 0.31305 0.51727 0.22387 0.0
H1391 H 0.32906 0.4843 0.20233 0.0
O1392 O 0.29887 0.50953 0.16258 0.0
O1393 O 0.31468 0.52406 0.1805 0.0
O1394 O 0.3348 0.50293 0.15853 0.0
O1395 O 0.34499 0.50531 0.18517 0.0
C1396 C 0.2948 0.51891 0.24855 0.0
C1397 C 0.29468 0.53679 0.24711 0.0
H1398 H 0.29677 0.57078 0.23981 0.0
H1399 H 0.31277 0.58298 0.21549 0.0
H1400 H 0.31365 0.46853 0.22481 0.0
H1401 H 0.29748 0.48425 0.24688 0.0
H1402 H 0.28758 0.51288 0.25861 0.0
H1403 H 0.28736 0.54424 0.25608 0.0
Mn1404 Mn 0.47356 0.32325 0.15582 0.0
Mn1405 Mn 0.47609 0.33487 0.19695 0.0
C1406 C 0.48473 0.30469 0.17561 0.0
C1407 C 0.45768 0.31111 0.13407 0.0
C1408 C 0.49989 0.34808 0.16947 0.0
O1409 O 0.45786 0.3438 0.15719 0.0
O1410 O 0.45822 0.34856 0.18546 0.0
C1411 C 0.44251 0.32286 0.2089 0.0
N1412 N 0.45977 0.32261 0.21012 0.0
C1413 C 0.45871 0.30271 0.23334 0.0
C1414 C 0.44091 0.30284 0.2324 0.0
C1415 C 0.43278 0.31293 0.22011 0.0
C1416 C 0.46772 0.31292 0.22188 0.0
H1417 H 0.43622 0.33056 0.19943 0.0
C1418 C 0.45272 0.35168 0.17042 0.0
O1419 O 0.47031 0.32123 0.13069 0.0
O1420 O 0.45417 0.30843 0.14993 0.0
N1421 N 0.49284 0.32245 0.20951 0.0
C1422 C 0.5101 0.32314 0.20819 0.0
C1423 C 0.52015 0.31347 0.21934 0.0
C1424 C 0.51238 0.30329 0.23177 0.0
C1425 C 0.4946 0.30289 0.23298 0.0
C1426 C 0.48524 0.31291 0.22162 0.0
H1427 H 0.51615 0.33095 0.19867 0.0
O1428 O 0.48809 0.3027 0.1596 0.0
O1429 O 0.47488 0.31736 0.17945 0.0
O1430 O 0.49432 0.33891 0.15729 0.0
O1431 O 0.4936 0.34781 0.18445 0.0
C1432 C 0.4858 0.29273 0.24482 0.0
C1433 C 0.46787 0.29261 0.24497 0.0
H1434 H 0.43337 0.29513 0.24096 0.0
H1435 H 0.41906 0.31303 0.21926 0.0
H1436 H 0.53386 0.31383 0.21831 0.0
H1437 H 0.52017 0.29575 0.24026 0.0
H1438 H 0.49269 0.28477 0.2537 0.0
H1439 H 0.46124 0.28457 0.25397 0.0
Mn1440 Mn 0.84157 0.67612 0.52058 0.0
Mn1441 Mn 0.80086 0.6631 0.51749 0.0
C1442 C 0.8212 0.69394 0.50922 0.0
C1443 C 0.8626 0.68959 0.53643 0.0
C1444 C 0.8288 0.65158 0.49339 0.0
O1445 O 0.84092 0.6556 0.53635 0.0
O1446 O 0.81302 0.64926 0.53477 0.0
C1447 C 0.78894 0.67347 0.55164 0.0
N1448 N 0.78747 0.67427 0.53441 0.0
C1449 C 0.76362 0.69333 0.53646 0.0
C1450 C 0.76482 0.69262 0.55423 0.0
C1451 C 0.77755 0.68268 0.56185 0.0
C1452 C 0.77529 0.68383 0.52695 0.0
H1453 H 0.79875 0.66591 0.55754 0.0
C1454 C 0.82797 0.64688 0.54082 0.0
O1455 O 0.86658 0.67939 0.52404 0.0
O1456 O 0.84662 0.69129 0.5399 0.0
N1457 N 0.78758 0.67558 0.50134 0.0
C1458 C 0.78857 0.67543 0.48405 0.0
C1459 C 0.77687 0.68492 0.47449 0.0
C1460 C 0.76422 0.69441 0.48278 0.0
C1461 C 0.76337 0.69428 0.50058 0.0
C1462 C 0.77526 0.68442 0.50944 0.0
H1463 H 0.79827 0.66819 0.47759 0.0
O1464 O 0.83715 0.69645 0.50595 0.0
O1465 O 0.81771 0.68119 0.51909 0.0
O1466 O 0.84084 0.66042 0.49977 0.0
O1467 O 0.81367 0.65146 0.49934 0.0
C1468 C 0.75135 0.70374 0.50989 0.0
C1469 C 0.7515 0.7033 0.52782 0.0
H1470 H 0.75611 0.69977 0.56215 0.0
H1471 H 0.7786 0.68214 0.57555 0.0
H1472 H 0.77762 0.68498 0.46075 0.0
H1473 H 0.75529 0.70181 0.47536 0.0
H1474 H 0.74207 0.71157 0.50339 0.0
H1475 H 0.74233 0.71079 0.53484 0.0
Mn1476 Mn 0.84154 0.32003 0.47714 0.0
Mn1477 Mn 0.80305 0.33869 0.47654 0.0
C1478 C 0.81839 0.30612 0.48853 0.0
C1479 C 0.86128 0.30297 0.46327 0.0
C1480 C 0.83135 0.34871 0.50093 0.0
O1481 O 0.84444 0.33927 0.46008 0.0
O1482 O 0.8174 0.34872 0.45828 0.0
C1483 C 0.79064 0.32607 0.44333 0.0
N1484 N 0.78868 0.32747 0.46047 0.0
C1485 C 0.76275 0.31126 0.45968 0.0
C1486 C 0.76441 0.30979 0.44199 0.0
C1487 C 0.77844 0.3172 0.4338 0.0
C1488 C 0.77525 0.32036 0.4685 0.0
H1489 H 0.80149 0.33161 0.437 0.0
C1490 C 0.833 0.34876 0.45354 0.0
O1491 O 0.86607 0.31351 0.47507 0.0
O1492 O 0.84532 0.30285 0.45929 0.0
N1493 N 0.78794 0.32989 0.49347 0.0
C1494 C 0.78875 0.3316 0.51068 0.0
C1495 C 0.77593 0.32443 0.52083 0.0
C1496 C 0.76241 0.31562 0.51319 0.0
C1497 C 0.76179 0.31413 0.49544 0.0
C1498 C 0.77482 0.3217 0.48597 0.0
H1499 H 0.79913 0.3383 0.51664 0.0
O1500 O 0.83366 0.30165 0.49285 0.0
O1501 O 0.81726 0.31844 0.47762 0.0
O1502 O 0.84192 0.33715 0.4967 0.0
O1503 O 0.8169 0.35076 0.49375 0.0
C1504 C 0.74892 0.30515 0.48681 0.0
C1505 C 0.7494 0.30371 0.46894 0.0
H1506 H 0.75509 0.30284 0.43461 0.0
H1507 H 0.77987 0.31601 0.42017 0.0
H1508 H 0.77652 0.32561 0.53453 0.0
H1509 H 0.75265 0.30995 0.52107 0.0
H1510 H 0.73872 0.29909 0.4938 0.0
H1511 H 0.73958 0.29655 0.46247 0.0
Mn1512 Mn 0.67733 0.84375 0.47226 0.0
Mn1513 Mn 0.66354 0.80322 0.47456 0.0
C1514 C 0.69522 0.82256 0.48189 0.0
C1515 C 0.69049 0.86508 0.45646 0.0
C1516 C 0.65407 0.83035 0.50037 0.0
O1517 O 0.65593 0.84425 0.45767 0.0
O1518 O 0.64878 0.81654 0.45902 0.0
C1519 C 0.67125 0.79288 0.43922 0.0
N1520 N 0.67314 0.79047 0.45626 0.0
C1521 C 0.691 0.76606 0.45171 0.0
C1522 C 0.68916 0.76821 0.43411 0.0
C1523 C 0.67929 0.78171 0.42785 0.0
C1524 C 0.68271 0.7776 0.46242 0.0
H1525 H 0.66368 0.80326 0.43437 0.0
C1526 C 0.64636 0.83175 0.45369 0.0
O1527 O 0.68109 0.86883 0.46954 0.0
O1528 O 0.69156 0.84919 0.45234 0.0
N1529 N 0.67664 0.78879 0.48912 0.0
C1530 C 0.67751 0.78877 0.50642 0.0
C1531 C 0.68712 0.77621 0.51472 0.0
C1532 C 0.69555 0.76371 0.50517 0.0
C1533 C 0.69424 0.76383 0.48739 0.0
C1534 C 0.68443 0.77661 0.47983 0.0
H1535 H 0.671 0.79831 0.51383 0.0
O1536 O 0.69827 0.83831 0.48559 0.0
O1537 O 0.68191 0.81971 0.47257 0.0
O1538 O 0.66264 0.84255 0.49388 0.0
O1539 O 0.65352 0.81541 0.49398 0.0
C1540 C 0.70241 0.75186 0.47688 0.0
C1541 C 0.70087 0.75303 0.45905 0.0
H1542 H 0.69536 0.75964 0.4253 0.0
H1543 H 0.67787 0.7835 0.41428 0.0
H1544 H 0.68803 0.77619 0.52844 0.0
H1545 H 0.70305 0.75412 0.5116 0.0
H1546 H 0.71008 0.74183 0.48237 0.0
H1547 H 0.70741 0.74389 0.45109 0.0
Mn1548 Mn 0.15368 0.67478 0.47595 0.0
Mn1549 Mn 0.19355 0.65925 0.47452 0.0
C1550 C 0.17602 0.69061 0.48658 0.0
C1551 C 0.1321 0.6903 0.46296 0.0
C1552 C 0.16675 0.64724 0.49968 0.0
O1553 O 0.15183 0.65516 0.45902 0.0
O1554 O 0.17957 0.64813 0.45671 0.0
C1555 C 0.20417 0.67263 0.44098 0.0
N1556 N 0.20671 0.67134 0.45806 0.0
C1557 C 0.23188 0.68865 0.45648 0.0
C1558 C 0.22965 0.68999 0.43884 0.0
C1559 C 0.21569 0.682 0.43108 0.0
C1560 C 0.22001 0.67909 0.46568 0.0
H1561 H 0.19338 0.66662 0.43499 0.0
C1562 C 0.16395 0.64669 0.45229 0.0
O1563 O 0.12868 0.67934 0.47485 0.0
O1564 O 0.14781 0.69157 0.4582 0.0
N1565 N 0.20841 0.6692 0.49103 0.0
C1566 C 0.20812 0.66758 0.50827 0.0
C1567 C 0.22085 0.6754 0.51804 0.0
C1568 C 0.2338 0.68469 0.50999 0.0
C1569 C 0.23392 0.68605 0.49222 0.0
C1570 C 0.22095 0.67791 0.48314 0.0
H1571 H 0.19822 0.66044 0.51454 0.0
O1572 O 0.16058 0.69387 0.49132 0.0
O1573 O 0.17781 0.67834 0.47572 0.0
O1574 O 0.15519 0.65787 0.49565 0.0
O1575 O 0.18111 0.64628 0.49212 0.0
C1576 C 0.24623 0.6954 0.48318 0.0
C1577 C 0.2452 0.69672 0.46533 0.0
H1578 H 0.23845 0.69728 0.43117 0.0
H1579 H 0.2138 0.68309 0.4175 0.0
H1580 H 0.22067 0.6743 0.53175 0.0
H1581 H 0.24352 0.69081 0.51757 0.0
H1582 H 0.25639 0.70186 0.48986 0.0
H1583 H 0.25457 0.70419 0.45855 0.0
Mn1584 Mn 0.31977 0.15615 0.47624 0.0
Mn1585 Mn 0.33373 0.19662 0.47777 0.0
C1586 C 0.30242 0.17735 0.48687 0.0
C1587 C 0.30604 0.13473 0.46109 0.0
C1588 C 0.34528 0.16906 0.5023 0.0
O1589 O 0.34041 0.15588 0.46047 0.0
O1590 O 0.34674 0.18385 0.46039 0.0
C1591 C 0.32257 0.20824 0.44378 0.0
N1592 N 0.32233 0.20997 0.461 0.0
C1593 C 0.30404 0.23442 0.45915 0.0
C1594 C 0.30417 0.23296 0.44138 0.0
C1595 C 0.31344 0.21978 0.43367 0.0
C1596 C 0.31339 0.22255 0.46855 0.0
H1597 H 0.32967 0.19811 0.43782 0.0
C1598 C 0.34907 0.16858 0.45518 0.0
O1599 O 0.31615 0.13108 0.47365 0.0
O1600 O 0.3045 0.15062 0.45708 0.0
N1601 N 0.32203 0.21037 0.49408 0.0
C1602 C 0.32263 0.20955 0.51137 0.0
C1603 C 0.31369 0.2216 0.52104 0.0
C1604 C 0.30436 0.23444 0.51284 0.0
C1605 C 0.30409 0.23513 0.49504 0.0
C1606 C 0.31332 0.22283 0.48607 0.0
H1607 H 0.32981 0.19974 0.51774 0.0
O1608 O 0.29948 0.16158 0.49066 0.0
O1609 O 0.31528 0.18012 0.47694 0.0
O1610 O 0.33546 0.15726 0.49704 0.0
O1611 O 0.34589 0.18389 0.49566 0.0
C1612 C 0.29486 0.2474 0.48583 0.0
C1613 C 0.29481 0.24703 0.4679 0.0
H1614 H 0.2971 0.2418 0.43354 0.0
H1615 H 0.31353 0.21852 0.41998 0.0
H1616 H 0.31396 0.22099 0.53478 0.0
H1617 H 0.29738 0.24363 0.52034 0.0
H1618 H 0.28756 0.25705 0.49241 0.0
H1619 H 0.28747 0.2564 0.46096 0.0
Mn1620 Mn 0.15377 0.32285 0.52165 0.0
Mn1621 Mn 0.19395 0.33675 0.51654 0.0
C1622 C 0.17429 0.30475 0.51107 0.0
C1623 C 0.13309 0.31067 0.53886 0.0
C1624 C 0.16481 0.34642 0.4931 0.0
O1625 O 0.15447 0.34456 0.53587 0.0
O1626 O 0.18239 0.35079 0.53402 0.0
C1627 C 0.20805 0.32777 0.55024 0.0
N1628 N 0.20854 0.32643 0.53299 0.0
C1629 C 0.23301 0.30811 0.53425 0.0
C1630 C 0.23283 0.30938 0.55203 0.0
C1631 C 0.22027 0.31922 0.56006 0.0
C1632 C 0.22054 0.31696 0.52514 0.0
H1633 H 0.19839 0.33528 0.55646 0.0
C1634 C 0.16746 0.3534 0.54001 0.0
O1635 O 0.12894 0.31979 0.52572 0.0
O1636 O 0.14914 0.30911 0.54221 0.0
N1637 N 0.20654 0.32402 0.50005 0.0
C1638 C 0.20447 0.32348 0.48287 0.0
C1639 C 0.21579 0.31389 0.47295 0.0
C1640 C 0.22918 0.30504 0.48078 0.0
C1641 C 0.23113 0.30588 0.49848 0.0
C1642 C 0.21955 0.31577 0.50769 0.0
H1643 H 0.19422 0.33027 0.47677 0.0
O1644 O 0.15832 0.30154 0.5085 0.0
O1645 O 0.17766 0.31831 0.51983 0.0
O1646 O 0.15359 0.33681 0.49977 0.0
O1647 O 0.17996 0.34781 0.49879 0.0
C1648 C 0.24397 0.29709 0.50736 0.0
C1649 C 0.24488 0.29817 0.52524 0.0
H1650 H 0.24218 0.30273 0.55965 0.0
H1651 H 0.22 0.32019 0.57377 0.0
H1652 H 0.21419 0.31328 0.4593 0.0
H1653 H 0.23781 0.29755 0.4731 0.0
H1654 H 0.25306 0.28928 0.50058 0.0
H1655 H 0.25465 0.29117 0.53194 0.0
Mn1656 Mn 0.67306 0.15681 0.52113 0.0
Mn1657 Mn 0.65898 0.19729 0.51909 0.0
C1658 C 0.69083 0.17822 0.51163 0.0
C1659 C 0.68599 0.13518 0.53664 0.0
C1660 C 0.64934 0.17005 0.49343 0.0
O1661 O 0.65177 0.15626 0.53592 0.0
O1662 O 0.64489 0.18407 0.53532 0.0
C1663 C 0.66763 0.20818 0.55406 0.0
N1664 N 0.669 0.21038 0.53694 0.0
C1665 C 0.68677 0.23501 0.54064 0.0
C1666 C 0.68547 0.23307 0.55831 0.0
C1667 C 0.67589 0.21958 0.56504 0.0
C1668 C 0.67824 0.22327 0.53033 0.0
H1669 H 0.66032 0.1978 0.55928 0.0
C1670 C 0.64262 0.16883 0.54062 0.0
O1671 O 0.67659 0.13174 0.52349 0.0
O1672 O 0.6874 0.15101 0.54095 0.0
N1673 N 0.67164 0.21157 0.50398 0.0
C1674 C 0.6722 0.21123 0.48667 0.0
C1675 C 0.68141 0.22378 0.47793 0.0
C1676 C 0.68985 0.23659 0.48706 0.0
C1677 C 0.68904 0.23672 0.50486 0.0
C1678 C 0.67951 0.22399 0.51287 0.0
H1679 H 0.66574 0.20143 0.47958 0.0
O1680 O 0.69399 0.16251 0.50778 0.0
O1681 O 0.67749 0.18087 0.52093 0.0
O1682 O 0.65836 0.15807 0.49964 0.0
O1683 O 0.64844 0.18489 0.5 0.0
C1684 C 0.69748 0.24885 0.51498 0.0
C1685 C 0.6964 0.24795 0.53286 0.0
H1686 H 0.69186 0.2418 0.56683 0.0
H1687 H 0.6749 0.21795 0.57867 0.0
H1688 H 0.68201 0.22357 0.46419 0.0
H1689 H 0.69698 0.24621 0.48027 0.0
H1690 H 0.70503 0.25878 0.50914 0.0
H1691 H 0.70314 0.25721 0.54051 0.0
Mn1692 Mn 0.31984 0.84039 0.52279 0.0
Mn1693 Mn 0.33423 0.80012 0.52295 0.0
C1694 C 0.30292 0.81879 0.51236 0.0
C1695 C 0.30573 0.86187 0.5374 0.0
C1696 C 0.34636 0.82731 0.49817 0.0
O1697 O 0.34028 0.84124 0.53875 0.0
O1698 O 0.34589 0.81317 0.54113 0.0
C1699 C 0.32095 0.78858 0.55621 0.0
N1700 N 0.32197 0.78666 0.53904 0.0
C1701 C 0.30383 0.76203 0.53986 0.0
C1702 C 0.30276 0.76363 0.55758 0.0
C1703 C 0.31132 0.77699 0.56578 0.0
C1704 C 0.31371 0.77391 0.53101 0.0
H1705 H 0.32738 0.79893 0.56253 0.0
C1706 C 0.34818 0.82872 0.54545 0.0
O1707 O 0.31586 0.86547 0.52484 0.0
O1708 O 0.30436 0.84604 0.54166 0.0
N1709 N 0.32368 0.78618 0.506 0.0
C1710 C 0.32508 0.7871 0.48876 0.0
C1711 C 0.31674 0.77501 0.47861 0.0
C1712 C 0.30712 0.76207 0.48627 0.0
C1713 C 0.30596 0.7613 0.50404 0.0
C1714 C 0.31466 0.77361 0.51351 0.0
H1715 H 0.33245 0.79701 0.48278 0.0
O1716 O 0.2998 0.83444 0.50822 0.0
O1717 O 0.31563 0.81642 0.52257 0.0
O1718 O 0.33576 0.83889 0.50229 0.0
O1719 O 0.34734 0.81291 0.50568 0.0
C1720 C 0.29623 0.74901 0.5127 0.0
C1721 C 0.29515 0.74939 0.5306 0.0
H1722 H 0.29524 0.75479 0.56499 0.0
H1723 H 0.31043 0.7784 0.57943 0.0
H1724 H 0.31768 0.7757 0.4649 0.0
H1725 H 0.30058 0.75287 0.47839 0.0
H1726 H 0.2893 0.73938 0.50571 0.0
H1727 H 0.28739 0.74006 0.5371 0.0
C1728 C 0.12472 0.4378 0.28214 0.0
C1729 C 0.11923 0.45199 0.29147 0.0
C1730 C 0.11461 0.43098 0.26934 0.0
C1731 C 0.07132 0.42769 0.25277 0.0
H1732 H 0.09534 0.41413 0.21186 0.0
C1733 C 0.03891 0.39162 0.19693 0.0
C1734 C 0.04738 0.37634 0.19315 0.0
C1735 C 0.04676 0.40394 0.20712 0.0
C1736 C 0.08844 0.41795 0.22315 0.0
H1737 H 0.09849 0.46975 0.29518 0.0
H1738 H 0.08061 0.45763 0.27262 0.0
H1739 H 0.11035 0.42974 0.234 0.0
H1740 H 0.07086 0.36229 0.1963 0.0
H1741 H 0.08463 0.38384 0.21368 0.0
H1742 H 0.04949 0.4154 0.24198 0.0
C1743 C 0.09283 0.45189 0.27528 0.0
C1744 C 0.09703 0.42681 0.23586 0.0
C1745 C 0.10303 0.45879 0.2882 0.0
C1746 C 0.06404 0.37394 0.19903 0.0
C1747 C 0.07195 0.38632 0.20891 0.0
C1748 C 0.06267 0.41884 0.23996 0.0
C1749 C 0.09875 0.43817 0.26547 0.0
C1750 C 0.08875 0.43121 0.25107 0.0
C1751 C 0.06329 0.40129 0.21334 0.0
C1752 C 0.07134 0.41338 0.22532 0.0
H1753 H 0.13705 0.43213 0.28445 0.0
H1754 H 0.11933 0.42009 0.26233 0.0
H1755 H 0.06462 0.43093 0.26435 0.0
H1756 H 0.02601 0.39372 0.19262 0.0
H1757 H 0.03984 0.41541 0.21033 0.0
C1758 C 0.60377 0.03613 0.20651 0.0
C1759 C 0.61964 0.04381 0.20356 0.0
C1760 C 0.59277 0.04273 0.21891 0.0
C1761 C 0.59466 0.06827 0.25803 0.0
H1762 H 0.54704 0.07845 0.2505 0.0
C1763 C 0.55983 0.12084 0.29323 0.0
C1764 C 0.54323 0.11807 0.2991 0.0
C1765 C 0.56807 0.10855 0.28352 0.0
C1766 C 0.56024 0.07533 0.2529 0.0
H1767 H 0.63597 0.06495 0.2105 0.0
H1768 H 0.61689 0.07641 0.23177 0.0
H1769 H 0.56319 0.06308 0.22868 0.0
H1770 H 0.52226 0.10021 0.29971 0.0
H1771 H 0.5367 0.07866 0.28227 0.0
H1772 H 0.59201 0.08111 0.28184 0.0
C1773 C 0.61305 0.06511 0.2249 0.0
C1774 C 0.56946 0.06659 0.24042 0.0
C1775 C 0.62394 0.05859 0.2126 0.0
C1776 C 0.53512 0.10258 0.2954 0.0
C1777 C 0.5433 0.09034 0.28538 0.0
C1778 C 0.58551 0.077 0.27041 0.0
C1779 C 0.59758 0.05702 0.22854 0.0
C1780 C 0.58693 0.06357 0.24263 0.0
C1781 C 0.55982 0.09329 0.27927 0.0
C1782 C 0.56838 0.08116 0.26771 0.0
H1783 H 0.60015 0.02471 0.19973 0.0
H1784 H 0.58084 0.03632 0.22141 0.0
H1785 H 0.60802 0.06574 0.26025 0.0
H1786 H 0.56638 0.13265 0.29589 0.0
H1787 H 0.58073 0.11125 0.27882 0.0
C1788 C 0.93205 0.62584 0.2031 0.0
C1789 C 0.94813 0.6215 0.19669 0.0
C1790 C 0.92396 0.61543 0.2149 0.0
C1791 C 0.92339 0.57294 0.23484 0.0
H1792 H 0.90242 0.598 0.27179 0.0
C1793 C 0.8917 0.54031 0.29321 0.0
C1794 C 0.87529 0.54636 0.29687 0.0
C1795 C 0.90214 0.54901 0.2817 0.0
C1796 C 0.90818 0.59082 0.26155 0.0
H1797 H 0.96796 0.60241 0.19687 0.0
H1798 H 0.95381 0.58413 0.21783 0.0
H1799 H 0.91727 0.61332 0.24943 0.0
H1800 H 0.85715 0.56648 0.29177 0.0
H1801 H 0.87536 0.58169 0.27196 0.0
H1802 H 0.91413 0.5504 0.2471 0.0
C1803 C 0.94745 0.59558 0.21358 0.0
C1804 C 0.91662 0.59959 0.24868 0.0
C1805 C 0.95554 0.606 0.20158 0.0
C1806 C 0.86973 0.56151 0.28924 0.0
C1807 C 0.88019 0.57026 0.27793 0.0
C1808 C 0.91496 0.56412 0.24781 0.0
C1809 C 0.93182 0.60051 0.22077 0.0
C1810 C 0.92398 0.59081 0.23496 0.0
C1811 C 0.89642 0.56401 0.27386 0.0
C1812 C 0.90697 0.57303 0.2611 0.0
H1813 H 0.92593 0.6376 0.19939 0.0
H1814 H 0.9117 0.61934 0.21979 0.0
H1815 H 0.92893 0.56582 0.22444 0.0
H1816 H 0.89629 0.52861 0.29884 0.0
H1817 H 0.91464 0.54398 0.27888 0.0
C1818 C 0.45596 0.8896 0.29434 0.0
C1819 C 0.44887 0.87357 0.29781 0.0
C1820 C 0.44848 0.90027 0.28217 0.0
C1821 C 0.42117 0.89694 0.24432 0.0
H1822 H 0.41377 0.9454 0.24946 0.0
C1823 C 0.37138 0.93306 0.20618 0.0
C1824 C 0.37549 0.94903 0.19935 0.0
C1825 C 0.3827 0.92469 0.21689 0.0
C1826 C 0.41605 0.93192 0.24775 0.0
H1827 H 0.42781 0.85666 0.29229 0.0
H1828 H 0.41467 0.87529 0.2715 0.0
H1829 H 0.42864 0.92958 0.27186 0.0
H1830 H 0.39473 0.96871 0.1982 0.0
H1831 H 0.41461 0.95402 0.21734 0.0
H1832 H 0.40816 0.89909 0.22056 0.0
C1833 C 0.42624 0.87947 0.2777 0.0
C1834 C 0.4245 0.92288 0.26056 0.0
C1835 C 0.43369 0.86885 0.28972 0.0
C1836 C 0.39131 0.95636 0.20323 0.0
C1837 C 0.4026 0.94804 0.21423 0.0
C1838 C 0.41271 0.90591 0.23162 0.0
C1839 C 0.43383 0.89503 0.27336 0.0
C1840 C 0.42667 0.9052 0.25918 0.0
C1841 C 0.39833 0.93215 0.22119 0.0
C1842 C 0.40964 0.92339 0.23341 0.0
H1843 H 0.46769 0.89353 0.30038 0.0
H1844 H 0.45457 0.91224 0.27912 0.0
H1845 H 0.42308 0.8834 0.24266 0.0
H1846 H 0.35928 0.9271 0.20341 0.0
H1847 H 0.379 0.91254 0.22222 0.0
C1848 C 0.12537 0.5524 0.71745 0.0
C1849 C 0.1206 0.54328 0.70285 0.0
C1850 C 0.11312 0.55893 0.72841 0.0
C1851 C 0.07083 0.57574 0.72992 0.0
H1852 H 0.07653 0.571 0.77873 0.0
C1853 C 0.05056 0.62649 0.77758 0.0
C1854 C 0.04185 0.62162 0.79239 0.0
C1855 C 0.05708 0.6143 0.76654 0.0
C1856 C 0.07457 0.5722 0.76515 0.0
H1857 H 0.09922 0.53398 0.68819 0.0
H1858 H 0.07757 0.54609 0.70725 0.0
H1859 H 0.09385 0.55384 0.75941 0.0
H1860 H 0.0332 0.60014 0.80732 0.0
H1861 H 0.04527 0.57862 0.7881 0.0
H1862 H 0.05225 0.59482 0.73566 0.0
C1863 C 0.09089 0.54785 0.71022 0.0
C1864 C 0.08452 0.56248 0.75411 0.0
C1865 C 0.10324 0.54099 0.69933 0.0
C1866 C 0.0399 0.60423 0.79601 0.0
C1867 C 0.04674 0.59196 0.78504 0.0
C1868 C 0.06103 0.58563 0.74096 0.0
C1869 C 0.09578 0.55673 0.72494 0.0
C1870 C 0.0831 0.56455 0.73642 0.0
C1871 C 0.05527 0.59693 0.77013 0.0
C1872 C 0.0632 0.58432 0.75865 0.0
H1873 H 0.13864 0.55431 0.7206 0.0
H1874 H 0.11723 0.56597 0.73951 0.0
H1875 H 0.06954 0.57761 0.71634 0.0
H1876 H 0.0522 0.63979 0.77437 0.0
H1877 H 0.06385 0.61849 0.7553 0.0
C1878 C 0.37128 0.05712 0.78721 0.0
C1879 C 0.37562 0.04249 0.79648 0.0
C1880 C 0.38199 0.06327 0.77457 0.0
C1881 C 0.4252 0.06412 0.75807 0.0
H1882 H 0.40185 0.07719 0.71661 0.0
C1883 C 0.45859 0.09885 0.7018 0.0
C1884 C 0.4503 0.11418 0.69785 0.0
C1885 C 0.45056 0.08671 0.71209 0.0
C1886 C 0.40857 0.07348 0.72804 0.0
H1887 H 0.39504 0.02333 0.80039 0.0
H1888 H 0.41405 0.03433 0.77813 0.0
H1889 H 0.38627 0.06259 0.73905 0.0
H1890 H 0.42697 0.12853 0.70078 0.0
H1891 H 0.4129 0.10731 0.71829 0.0
H1892 H 0.4474 0.07566 0.74717 0.0
C1893 C 0.40222 0.04089 0.7807 0.0
C1894 C 0.39966 0.06519 0.7409 0.0
C1895 C 0.39139 0.03465 0.79344 0.0
C1896 C 0.43365 0.11682 0.70364 0.0
C1897 C 0.42557 0.10463 0.7136 0.0
C1898 C 0.43417 0.07244 0.74512 0.0
C1899 C 0.39733 0.05497 0.77082 0.0
C1900 C 0.4077 0.06103 0.75631 0.0
C1901 C 0.43403 0.0896 0.71821 0.0
C1902 C 0.42574 0.07775 0.73027 0.0
H1903 H 0.35932 0.06359 0.78936 0.0
H1904 H 0.37811 0.07442 0.76748 0.0
H1905 H 0.4317 0.06102 0.7698 0.0
H1906 H 0.47149 0.09659 0.69757 0.0
H1907 H 0.45733 0.0752 0.71545 0.0
C1908 C 0.87741 0.43589 0.70164 0.0
C1909 C 0.87998 0.45274 0.69641 0.0
C1910 C 0.88932 0.42775 0.71189 0.0
C1911 C 0.9203 0.43637 0.74477 0.0
H1912 H 0.93057 0.38853 0.73878 0.0
C1913 C 0.95799 0.39414 0.79344 0.0
C1914 C 0.95061 0.37811 0.79631 0.0
C1915 C 0.95155 0.40486 0.78072 0.0
C1916 C 0.92782 0.4019 0.74064 0.0
H1917 H 0.8972 0.47422 0.69736 0.0
H1918 H 0.91812 0.45993 0.71567 0.0
H1919 H 0.9165 0.40412 0.71603 0.0
H1920 H 0.93011 0.36121 0.7889 0.0
H1921 H 0.91889 0.37983 0.76702 0.0
H1922 H 0.93114 0.43389 0.7697 0.0
C1923 C 0.90687 0.45306 0.71169 0.0
C1924 C 0.91983 0.41082 0.72759 0.0
C1925 C 0.895 0.46116 0.70115 0.0
C1926 C 0.9362 0.37339 0.7869 0.0
C1927 C 0.92985 0.38401 0.77425 0.0
C1928 C 0.92834 0.4274 0.75789 0.0
C1929 C 0.904 0.43634 0.71732 0.0
C1930 C 0.91544 0.42798 0.72974 0.0
C1931 C 0.93772 0.39962 0.77068 0.0
C1932 C 0.93159 0.40992 0.75614 0.0
H1933 H 0.86595 0.42909 0.69817 0.0
H1934 H 0.88665 0.41494 0.71618 0.0
H1935 H 0.91698 0.44958 0.74679 0.0
H1936 H 0.96913 0.3981 0.80049 0.0
H1937 H 0.95779 0.41689 0.77828 0.0
C1938 C 0.60536 0.95956 0.79206 0.0
C1939 C 0.62142 0.95239 0.79525 0.0
C1940 C 0.59485 0.95274 0.77938 0.0
C1941 C 0.59858 0.92797 0.73995 0.0
H1942 H 0.55059 0.9181 0.74519 0.0
C1943 C 0.56437 0.87756 0.70105 0.0
C1944 C 0.54782 0.88061 0.69516 0.0
C1945 C 0.57253 0.88936 0.7114 0.0
C1946 C 0.56391 0.92113 0.74343 0.0
H1947 H 0.63854 0.93182 0.78858 0.0
H1948 H 0.62022 0.91989 0.76683 0.0
H1949 H 0.56598 0.93248 0.76816 0.0
H1950 H 0.52692 0.89855 0.69508 0.0
H1951 H 0.54123 0.91927 0.71359 0.0
H1952 H 0.59673 0.91613 0.71555 0.0
C1953 C 0.6159 0.931 0.77371 0.0
C1954 C 0.57271 0.92929 0.75658 0.0
C1955 C 0.62633 0.93777 0.78629 0.0
C1956 C 0.53974 0.89597 0.69938 0.0
C1957 C 0.54784 0.90773 0.71003 0.0
C1958 C 0.58983 0.91983 0.72688 0.0
C1959 C 0.6003 0.93871 0.76974 0.0
C1960 C 0.59026 0.93224 0.75517 0.0
C1961 C 0.56425 0.9044 0.71628 0.0
C1962 C 0.57255 0.91583 0.72871 0.0
H1963 H 0.60127 0.97086 0.79877 0.0
H1964 H 0.58283 0.95886 0.77663 0.0
H1965 H 0.61202 0.9305 0.73832 0.0
H1966 H 0.5709 0.86582 0.69798 0.0
H1967 H 0.5851 0.88636 0.71617 0.0
C1968 C 0.20582 0.05924 0.37602 0.0
C1969 C 0.20077 0.04238 0.37892 0.0
C1970 C 0.21587 0.06778 0.38781 0.0
C1971 C 0.24832 0.06114 0.41966 0.0
H1972 H 0.23915 0.10844 0.43009 0.0
C1973 C 0.29349 0.10534 0.45924 0.0
C1974 C 0.29543 0.1218 0.45252 0.0
C1975 C 0.28156 0.0941 0.4522 0.0
C1976 C 0.24192 0.09525 0.42727 0.0
H1977 H 0.20204 0.02125 0.39656 0.0
H1978 H 0.22006 0.03626 0.41726 0.0
H1979 H 0.21788 0.09167 0.41511 0.0
H1980 H 0.28716 0.13901 0.43262 0.0
H1981 H 0.26672 0.11948 0.42032 0.0
H1982 H 0.2727 0.06499 0.43132 0.0
C1983 C 0.21606 0.0428 0.40583 0.0
C1984 C 0.22971 0.08564 0.41877 0.0
C1985 C 0.2057 0.03429 0.39408 0.0
C1986 C 0.28585 0.1265 0.43822 0.0
C1987 C 0.27402 0.11535 0.43124 0.0
C1988 C 0.26063 0.07081 0.42817 0.0
C1989 C 0.22129 0.05962 0.40273 0.0
C1990 C 0.23298 0.06866 0.41439 0.0
C1991 C 0.27139 0.0992 0.43841 0.0
C1992 C 0.25775 0.08813 0.43153 0.0
H1993 H 0.2022 0.0658 0.36446 0.0
H1994 H 0.21986 0.08066 0.38498 0.0
H1995 H 0.25119 0.04808 0.41636 0.0
H1996 H 0.3007 0.10139 0.47028 0.0
H1997 H 0.27985 0.0817 0.45793 0.0
C1998 C 0.8907 0.29352 0.45497 0.0
C1999 C 0.87304 0.29096 0.45497 0.0
C2000 C 0.90138 0.28225 0.4462 0.0
C2001 C 0.89926 0.25077 0.41132 0.0
H2002 H 0.94422 0.23757 0.42656 0.0
C2003 C 0.94436 0.21556 0.36691 0.0
C2004 C 0.95426 0.20226 0.3735 0.0
C2005 C 0.93539 0.22632 0.3777 0.0
C2006 C 0.93162 0.24102 0.42224 0.0
H2007 H 0.85278 0.27413 0.44677 0.0
H2008 H 0.87126 0.25438 0.43211 0.0
H2009 H 0.92675 0.25618 0.44438 0.0
H2010 H 0.96273 0.1899 0.39662 0.0
H2011 H 0.94649 0.20851 0.41564 0.0
H2012 H 0.90371 0.23532 0.38953 0.0
C2013 C 0.87693 0.26533 0.43822 0.0
C2014 C 0.92171 0.25185 0.43233 0.0
C2015 C 0.86632 0.27664 0.4467 0.0
C2016 C 0.95514 0.20003 0.3912 0.0
C2017 C 0.94595 0.21076 0.40207 0.0
C2018 C 0.90904 0.23991 0.40136 0.0
C2019 C 0.89454 0.26817 0.43749 0.0
C2020 C 0.90539 0.25682 0.42697 0.0
C2021 C 0.93585 0.22394 0.39539 0.0
C2022 C 0.92539 0.235 0.40658 0.0
H2023 H 0.89619 0.30443 0.46131 0.0
H2024 H 0.91489 0.28484 0.44582 0.0
H2025 H 0.88689 0.25454 0.40661 0.0
H2026 H 0.94363 0.21781 0.35334 0.0
H2027 H 0.92811 0.23659 0.37212 0.0
C2028 C 0.70542 0.89333 0.45514 0.0
C2029 C 0.70111 0.87773 0.44755 0.0
C2030 C 0.71801 0.90368 0.44788 0.0
C2031 C 0.7556 0.89933 0.42045 0.0
H2032 H 0.75271 0.94808 0.41387 0.0
C2033 C 0.79583 0.93452 0.37151 0.0
C2034 C 0.80246 0.95061 0.37541 0.0
C2035 C 0.78505 0.92623 0.38285 0.0
C2036 C 0.75382 0.93451 0.41593 0.0
H2037 H 0.70559 0.86138 0.42581 0.0
H2038 H 0.72715 0.87942 0.41312 0.0
H2039 H 0.72957 0.93306 0.4284 0.0
H2040 H 0.80337 0.97051 0.39444 0.0
H2041 H 0.78425 0.95595 0.41438 0.0
H2042 H 0.77954 0.9006 0.40767 0.0
C2043 C 0.72124 0.88349 0.42487 0.0
C2044 C 0.74057 0.92593 0.42419 0.0
C2045 C 0.70878 0.87321 0.43208 0.0
C2046 C 0.79851 0.95805 0.39117 0.0
C2047 C 0.78748 0.94981 0.40249 0.0
C2048 C 0.76877 0.90786 0.41224 0.0
C2049 C 0.72643 0.89853 0.43296 0.0
C2050 C 0.74111 0.90817 0.42605 0.0
C2051 C 0.7805 0.93389 0.39832 0.0
C2052 C 0.76781 0.92546 0.40944 0.0
H2053 H 0.69974 0.8971 0.4671 0.0
H2054 H 0.72171 0.91526 0.45434 0.0
H2055 H 0.7566 0.88569 0.42212 0.0
H2056 H 0.79863 0.92847 0.35945 0.0
H2057 H 0.77973 0.91406 0.37917 0.0
C2058 C 0.05098 0.77856 0.37358 0.0
C2059 C 0.04286 0.79378 0.37817 0.0
C2060 C 0.05723 0.76758 0.38596 0.0
C2061 C 0.07537 0.76627 0.42764 0.0
H2062 H 0.06778 0.71767 0.42341 0.0
C2063 C 0.1244 0.71641 0.4469 0.0
C2064 C 0.11914 0.70194 0.45595 0.0
C2065 C 0.11252 0.728 0.44073 0.0
C2066 C 0.06979 0.73121 0.42498 0.0
H2067 H 0.03499 0.80953 0.39936 0.0
H2068 H 0.04664 0.7904 0.42123 0.0
H2069 H 0.05094 0.73748 0.40634 0.0
H2070 H 0.09729 0.68821 0.4656 0.0
H2071 H 0.07631 0.70838 0.4542 0.0
H2072 H 0.09491 0.75994 0.44553 0.0
C2073 C 0.04784 0.78697 0.40795 0.0
C2074 C 0.06024 0.74252 0.41517 0.0
C2075 C 0.04124 0.79789 0.39548 0.0
C2076 C 0.10169 0.69924 0.45863 0.0
C2077 C 0.08972 0.71076 0.45216 0.0
C2078 C 0.08508 0.75494 0.43729 0.0
C2079 C 0.05574 0.77164 0.40325 0.0
C2080 C 0.06333 0.7601 0.41601 0.0
C2081 C 0.09508 0.72531 0.44326 0.0
C2082 C 0.08274 0.73729 0.43563 0.0
H2083 H 0.05235 0.77495 0.36036 0.0
H2084 H 0.06353 0.75599 0.38199 0.0
H2085 H 0.07804 0.77976 0.42846 0.0
H2086 H 0.13775 0.71893 0.4447 0.0
H2087 H 0.117 0.73895 0.43366 0.0
C2088 C 0.20355 0.93402 0.62207 0.0
C2089 C 0.19762 0.95056 0.619 0.0
C2090 C 0.21365 0.92575 0.61012 0.0
C2091 C 0.24495 0.93363 0.57747 0.0
H2092 H 0.23842 0.88566 0.56821 0.0
C2093 C 0.29191 0.89072 0.53836 0.0
C2094 C 0.29489 0.87472 0.54576 0.0
C2095 C 0.27952 0.9016 0.54519 0.0
C2096 C 0.24043 0.89906 0.57069 0.0
H2097 H 0.19732 0.97136 0.60093 0.0
H2098 H 0.21541 0.95686 0.57998 0.0
H2099 H 0.21642 0.90149 0.58317 0.0
H2100 H 0.28813 0.85805 0.56667 0.0
H2101 H 0.2669 0.87695 0.57857 0.0
H2102 H 0.26934 0.93094 0.5655 0.0
C2103 C 0.21206 0.95034 0.59164 0.0
C2104 C 0.22781 0.90811 0.57918 0.0
C2105 C 0.20165 0.95855 0.60354 0.0
C2106 C 0.28598 0.87019 0.56054 0.0
C2107 C 0.27371 0.88097 0.5673 0.0
C2108 C 0.25767 0.92451 0.56896 0.0
C2109 C 0.21824 0.9339 0.59492 0.0
C2110 C 0.23018 0.92533 0.58316 0.0
C2111 C 0.26997 0.89655 0.55943 0.0
C2112 C 0.25575 0.90699 0.56605 0.0
H2113 H 0.20063 0.92755 0.63387 0.0
H2114 H 0.21839 0.91316 0.61308 0.0
H2115 H 0.24711 0.9469 0.58046 0.0
H2116 H 0.29858 0.89451 0.52694 0.0
H2117 H 0.27694 0.91359 0.53894 0.0
C2118 C 0.06211 0.21119 0.63004 0.0
C2119 C 0.04709 0.203 0.62499 0.0
C2120 C 0.06956 0.22348 0.61973 0.0
C2121 C 0.07132 0.24097 0.57635 0.0
H2122 H 0.08887 0.2804 0.60026 0.0
C2123 C 0.10422 0.29764 0.54219 0.0
C2124 C 0.12033 0.30136 0.54894 0.0
C2125 C 0.09303 0.28697 0.55102 0.0
C2126 C 0.08399 0.26949 0.59341 0.0
H2127 H 0.02845 0.20068 0.60484 0.0
H2128 H 0.04151 0.22244 0.5867 0.0
H2129 H 0.07384 0.25838 0.61599 0.0
H2130 H 0.13712 0.29749 0.57045 0.0
H2131 H 0.11755 0.27921 0.58595 0.0
H2132 H 0.08174 0.25215 0.55376 0.0
C2133 C 0.04752 0.21924 0.59866 0.0
C2134 C 0.07547 0.25683 0.60241 0.0
C2135 C 0.04007 0.20679 0.60901 0.0
C2136 C 0.12479 0.29484 0.56494 0.0
C2137 C 0.11355 0.28443 0.57384 0.0
C2138 C 0.0798 0.25374 0.5673 0.0
C2139 C 0.06211 0.22802 0.60415 0.0
C2140 C 0.06948 0.24218 0.59408 0.0
C2141 C 0.09769 0.28014 0.56685 0.0
C2142 C 0.0866 0.26788 0.57585 0.0
H2143 H 0.06794 0.2084 0.6422 0.0
H2144 H 0.08108 0.22963 0.6241 0.0
H2145 H 0.06687 0.22983 0.56958 0.0
H2146 H 0.10051 0.30243 0.52983 0.0
H2147 H 0.08084 0.28391 0.54541 0.0
C2148 C 0.79229 0.04177 0.60328 0.0
C2149 C 0.79619 0.04922 0.61905 0.0
C2150 C 0.77982 0.04902 0.59276 0.0
C2151 C 0.74184 0.07593 0.59674 0.0
H2152 H 0.74578 0.08374 0.54825 0.0
C2153 C 0.70225 0.12565 0.562 0.0
C2154 C 0.6957 0.122 0.54581 0.0
C2155 C 0.71301 0.11418 0.57014 0.0
C2156 C 0.74438 0.08134 0.56174 0.0
H2157 H 0.79112 0.0707 0.63558 0.0
H2158 H 0.76978 0.08336 0.61727 0.0
H2159 H 0.76868 0.06898 0.56344 0.0
H2160 H 0.695 0.10335 0.52554 0.0
H2161 H 0.71414 0.08322 0.53984 0.0
H2162 H 0.71786 0.08863 0.59525 0.0
C2163 C 0.7759 0.07173 0.61317 0.0
C2164 C 0.75749 0.07294 0.57041 0.0
C2165 C 0.78824 0.06453 0.62361 0.0
C2166 C 0.6998 0.10642 0.53808 0.0
C2167 C 0.71082 0.09498 0.54617 0.0
C2168 C 0.72881 0.08428 0.58812 0.0
C2169 C 0.77112 0.06377 0.59793 0.0
C2170 C 0.75656 0.07067 0.58811 0.0
C2171 C 0.71764 0.09885 0.56224 0.0
C2172 C 0.73016 0.08754 0.57064 0.0
H2173 H 0.7982 0.02993 0.59948 0.0
H2174 H 0.77643 0.04268 0.58102 0.0
H2175 H 0.74055 0.07395 0.61031 0.0
H2176 H 0.69933 0.13756 0.56827 0.0
H2177 H 0.71821 0.11762 0.58242 0.0
C2178 C 0.87032 0.70917 0.55992 0.0
C2179 C 0.87521 0.70038 0.54519 0.0
C2180 C 0.88072 0.72174 0.56676 0.0
C2181 C 0.92376 0.73944 0.56823 0.0
H2182 H 0.8993 0.78015 0.5816 0.0
C2183 C 0.9564 0.79731 0.6008 0.0
C2184 C 0.94844 0.80164 0.6162 0.0
C2185 C 0.94828 0.78643 0.58926 0.0
C2186 C 0.90632 0.7689 0.57786 0.0
H2187 H 0.8953 0.69712 0.52661 0.0
H2188 H 0.91368 0.71926 0.53874 0.0
H2189 H 0.88418 0.75712 0.56748 0.0
H2190 H 0.92554 0.79876 0.63124 0.0
H2191 H 0.91132 0.78017 0.61108 0.0
H2192 H 0.94585 0.7512 0.5791 0.0
C2193 C 0.90172 0.71638 0.5449 0.0
C2194 C 0.89766 0.75569 0.56986 0.0
C2195 C 0.89124 0.70369 0.53801 0.0
C2196 C 0.93198 0.79562 0.61947 0.0
C2197 C 0.9238 0.78503 0.60789 0.0
C2198 C 0.93247 0.75275 0.57626 0.0
C2199 C 0.89625 0.72589 0.55902 0.0
C2200 C 0.90615 0.74059 0.56548 0.0
C2201 C 0.93198 0.78004 0.59282 0.0
C2202 C 0.92368 0.76736 0.58163 0.0
H2203 H 0.85814 0.70677 0.56586 0.0
H2204 H 0.87639 0.72851 0.57794 0.0
H2205 H 0.93062 0.72796 0.56495 0.0
H2206 H 0.96915 0.8017 0.59804 0.0
H2207 H 0.95482 0.7828 0.5777 0.0
C2208 C 0.45559 0.29838 0.1049 0.0
C2209 C 0.44816 0.30205 0.12072 0.0
C2210 C 0.44723 0.28773 0.09332 0.0
C2211 C 0.4052 0.2701 0.08267 0.0
H2212 H 0.42953 0.22995 0.06755 0.0
C2213 C 0.36929 0.21096 0.06193 0.0
C2214 C 0.37464 0.20238 0.04723 0.0
C2215 C 0.37941 0.22352 0.06921 0.0
C2216 C 0.42264 0.24122 0.07143 0.0
H2217 H 0.42593 0.29822 0.13655 0.0
H2218 H 0.41126 0.28004 0.11631 0.0
H2219 H 0.44488 0.2527 0.08228 0.0
H2220 H 0.39516 0.19966 0.02905 0.0
H2221 H 0.41297 0.22182 0.04184 0.0
H2222 H 0.38294 0.25865 0.07219 0.0
C2223 C 0.42353 0.28524 0.11283 0.0
C2224 C 0.43142 0.25424 0.07981 0.0
C2225 C 0.43196 0.29559 0.12445 0.0
C2226 C 0.39074 0.20605 0.04041 0.0
C2227 C 0.40091 0.21874 0.04771 0.0
C2228 C 0.39647 0.25718 0.07427 0.0
C2229 C 0.43119 0.28093 0.09729 0.0
C2230 C 0.42266 0.26856 0.08594 0.0
C2231 C 0.39511 0.22791 0.06192 0.0
C2232 C 0.40497 0.24235 0.06904 0.0
H2233 H 0.46813 0.30313 0.10179 0.0
H2234 H 0.45336 0.28463 0.08139 0.0
H2235 H 0.39819 0.28113 0.08703 0.0
H2236 H 0.35702 0.20829 0.0676 0.0
H2237 H 0.37479 0.23 0.08045 0.0
C2238 C 0.36989 0.78824 0.9333 0.0
C2239 C 0.37466 0.79618 0.94855 0.0
C2240 C 0.38054 0.77637 0.92562 0.0
C2241 C 0.42413 0.75955 0.92361 0.0
H2242 H 0.40071 0.71948 0.90688 0.0
C2243 C 0.45875 0.70324 0.89025 0.0
C2244 C 0.45155 0.69921 0.8744 0.0
C2245 C 0.45006 0.71386 0.90161 0.0
C2246 C 0.40744 0.73057 0.91152 0.0
H2247 H 0.39474 0.79862 0.96725 0.0
H2248 H 0.41349 0.77769 0.95375 0.0
H2249 H 0.38478 0.74142 0.92178 0.0
H2250 H 0.42943 0.70247 0.85829 0.0
H2251 H 0.41423 0.72063 0.87812 0.0
H2252 H 0.44678 0.74866 0.913 0.0
C2253 C 0.40146 0.78072 0.94777 0.0
C2254 C 0.39831 0.74318 0.91996 0.0
C2255 C 0.39076 0.79272 0.95547 0.0
C2256 C 0.43529 0.70537 0.87041 0.0
C2257 C 0.42655 0.71571 0.8818 0.0
C2258 C 0.43331 0.74684 0.91515 0.0
C2259 C 0.39619 0.77205 0.93305 0.0
C2260 C 0.40644 0.75804 0.92566 0.0
C2261 C 0.43393 0.72031 0.89739 0.0
C2262 C 0.42493 0.73246 0.90863 0.0
H2263 H 0.35764 0.79078 0.92754 0.0
H2264 H 0.37632 0.77028 0.91401 0.0
H2265 H 0.43074 0.77085 0.92787 0.0
H2266 H 0.47133 0.69874 0.89358 0.0
H2267 H 0.45598 0.71717 0.91359 0.0
C2268 C 0.29716 0.43711 0.87993 0.0
C2269 C 0.30234 0.454 0.8823 0.0
C2270 C 0.28718 0.429 0.89208 0.0
C2271 C 0.25444 0.43743 0.92291 0.0
H2272 H 0.26147 0.38994 0.93408 0.0
C2273 C 0.2057 0.39389 0.95925 0.0
C2274 C 0.20346 0.37792 0.95151 0.0
C2275 C 0.21841 0.40498 0.95345 0.0
C2276 C 0.25935 0.40322 0.93112 0.0
H2277 H 0.30156 0.4756 0.89938 0.0
H2278 H 0.28361 0.46138 0.92068 0.0
H2279 H 0.28406 0.40589 0.92013 0.0
H2280 H 0.21198 0.36155 0.931 0.0
H2281 H 0.23382 0.3808 0.92092 0.0
H2282 H 0.22935 0.43444 0.93328 0.0
C2283 C 0.28749 0.45445 0.90943 0.0
C2284 C 0.27229 0.41235 0.92321 0.0
C2285 C 0.29781 0.46251 0.89734 0.0
C2286 C 0.2135 0.37366 0.93739 0.0
C2287 C 0.22612 0.38463 0.93168 0.0
C2288 C 0.2414 0.42825 0.93086 0.0
C2289 C 0.28194 0.43767 0.90678 0.0
C2290 C 0.26973 0.42934 0.91843 0.0
C2291 C 0.22906 0.40018 0.93992 0.0
C2292 C 0.24354 0.41087 0.93439 0.0
H2293 H 0.30048 0.43027 0.86845 0.0
H2294 H 0.28293 0.41613 0.8896 0.0
H2295 H 0.25213 0.45051 0.91929 0.0
H2296 H 0.19815 0.39749 0.97019 0.0
H2297 H 0.22036 0.41697 0.95994 0.0
C2298 C 0.60394 0.20519 0.95801 0.0
C2299 C 0.62024 0.20186 0.9515 0.0
C2300 C 0.59371 0.21776 0.95061 0.0
C2301 C 0.5978 0.25638 0.92417 0.0
H2302 H 0.54967 0.25067 0.91527 0.0
C2303 C 0.56213 0.29396 0.87341 0.0
C2304 C 0.54566 0.29989 0.87686 0.0
C2305 C 0.57068 0.28385 0.88516 0.0
C2306 C 0.56303 0.25256 0.91798 0.0
H2307 H 0.6382 0.20831 0.9316 0.0
H2308 H 0.62033 0.22981 0.91855 0.0
H2309 H 0.5653 0.22833 0.93029 0.0
H2310 H 0.52534 0.30029 0.89545 0.0
H2311 H 0.54033 0.28223 0.91606 0.0
H2312 H 0.5957 0.28028 0.91136 0.0
C2313 C 0.61559 0.22315 0.92964 0.0
C2314 C 0.57198 0.23977 0.92653 0.0
C2315 C 0.62578 0.21071 0.93703 0.0
C2316 C 0.53808 0.29595 0.89254 0.0
C2317 C 0.54657 0.28555 0.90425 0.0
C2318 C 0.5889 0.26908 0.91559 0.0
C2319 C 0.59963 0.22716 0.93659 0.0
C2320 C 0.58957 0.24135 0.92927 0.0
C2321 C 0.56288 0.27926 0.90055 0.0
C2322 C 0.57154 0.2671 0.91201 0.0
H2323 H 0.59938 0.19859 0.9692 0.0
H2324 H 0.58146 0.22055 0.95623 0.0
H2325 H 0.61124 0.2582 0.92651 0.0
H2326 H 0.56828 0.29681 0.86143 0.0
H2327 H 0.58316 0.27905 0.88189 0.0
C2328 C 0.70229 0.53625 0.89307 0.0
C2329 C 0.69773 0.54425 0.87776 0.0
C2330 C 0.71305 0.54451 0.90465 0.0
C2331 C 0.72926 0.58688 0.91643 0.0
H2332 H 0.77106 0.56398 0.92914 0.0
C2333 C 0.78786 0.62486 0.93383 0.0
C2334 C 0.79685 0.62043 0.9486 0.0
C2335 C 0.7756 0.614 0.92715 0.0
C2336 C 0.75933 0.57044 0.92593 0.0
H2337 H 0.70014 0.56731 0.86287 0.0
H2338 H 0.71849 0.58176 0.88308 0.0
H2339 H 0.74834 0.548 0.91493 0.0
H2340 H 0.80076 0.60067 0.9674 0.0
H2341 H 0.77919 0.58144 0.95553 0.0
H2342 H 0.74029 0.60938 0.92688 0.0
C2343 C 0.71391 0.56914 0.88618 0.0
C2344 C 0.74633 0.5613 0.91786 0.0
C2345 C 0.70346 0.56084 0.87457 0.0
C2346 C 0.79404 0.60439 0.95598 0.0
C2347 C 0.78168 0.59343 0.94924 0.0
C2348 C 0.74218 0.59596 0.92446 0.0
C2349 C 0.71907 0.56099 0.90121 0.0
C2350 C 0.73142 0.56961 0.91253 0.0
C2351 C 0.77197 0.59842 0.93508 0.0
C2352 C 0.75758 0.58799 0.92874 0.0
H2353 H 0.69813 0.52341 0.89576 0.0
H2354 H 0.71682 0.53798 0.91617 0.0
H2355 H 0.71778 0.59353 0.91273 0.0
H2356 H 0.78986 0.63705 0.92772 0.0
H2357 H 0.76866 0.61799 0.91595 0.0
C2358 C 0.56242 0.7074 0.12232 0.0
C2359 C 0.54634 0.70079 0.11833 0.0
C2360 C 0.57077 0.71817 0.11103 0.0
C2361 C 0.56327 0.74954 0.07816 0.0
H2362 H 0.61184 0.74487 0.07123 0.0
C2363 C 0.60585 0.79668 0.039 0.0
C2364 C 0.62172 0.80022 0.04641 0.0
C2365 C 0.59508 0.78446 0.04626 0.0
C2366 C 0.59828 0.74639 0.0731 0.0
H2367 H 0.52644 0.70004 0.09929 0.0
H2368 H 0.5411 0.71925 0.07946 0.0
H2369 H 0.59623 0.72239 0.08567 0.0
H2370 H 0.63819 0.79479 0.06785 0.0
H2371 H 0.61941 0.77388 0.08057 0.0
H2372 H 0.56553 0.77388 0.06597 0.0
C2373 C 0.54719 0.71594 0.09135 0.0
C2374 C 0.58935 0.73349 0.08129 0.0
C2375 C 0.53889 0.70489 0.10261 0.0
C2376 C 0.62614 0.79219 0.06172 0.0
C2377 C 0.61544 0.7801 0.06894 0.0
C2378 C 0.57226 0.76255 0.06994 0.0
C2379 C 0.56317 0.72274 0.09554 0.0
C2380 C 0.57187 0.73514 0.08436 0.0
C2381 C 0.60008 0.77566 0.061 0.0
C2382 C 0.58996 0.7613 0.06784 0.0
H2383 H 0.56848 0.70446 0.13433 0.0
H2384 H 0.58298 0.72337 0.1147 0.0
H2385 H 0.54979 0.75115 0.08044 0.0
H2386 H 0.60215 0.80267 0.02717 0.0
H2387 H 0.58326 0.78134 0.03992 0.0
C2388 C 0.20069 0.6185 0.06093 0.0
C2389 C 0.19531 0.61535 0.04423 0.0
C2390 C 0.21092 0.60683 0.06944 0.0
C2391 C 0.24347 0.57517 0.06197 0.0
H2392 H 0.23713 0.5664 0.11006 0.0
C2393 C 0.29144 0.53803 0.10564 0.0
C2394 C 0.29423 0.54579 0.1215 0.0
C2395 C 0.27889 0.54434 0.09462 0.0
C2396 C 0.23909 0.56873 0.09663 0.0
H2397 H 0.19604 0.59735 0.0234 0.0
H2398 H 0.21433 0.57685 0.03832 0.0
H2399 H 0.21467 0.58036 0.09396 0.0
H2400 H 0.28692 0.56685 0.13775 0.0
H2401 H 0.26539 0.57784 0.11861 0.0
H2402 H 0.26823 0.56401 0.0649 0.0
C2403 C 0.21047 0.58837 0.0448 0.0
C2404 C 0.22621 0.57666 0.08741 0.0
C2405 C 0.19993 0.60001 0.03633 0.0
C2406 C 0.28495 0.56044 0.12572 0.0
C2407 C 0.27251 0.56668 0.11481 0.0
C2408 C 0.25643 0.56719 0.07125 0.0
C2409 C 0.2162 0.5918 0.06138 0.0
C2410 C 0.22848 0.5805 0.07014 0.0
C2411 C 0.26897 0.55843 0.09938 0.0
C2412 C 0.25457 0.56448 0.0888 0.0
H2413 H 0.19733 0.63023 0.06733 0.0
H2414 H 0.21529 0.60993 0.08213 0.0
H2415 H 0.24558 0.57804 0.04868 0.0
H2416 H 0.29839 0.52669 0.10207 0.0
H2417 H 0.27648 0.53781 0.08274 0.0
C2418 C 0.70437 0.43174 0.12707 0.0
C2419 C 0.69779 0.44762 0.12228 0.0
C2420 C 0.71641 0.42359 0.11697 0.0
C2421 C 0.73643 0.42213 0.07465 0.0
H2422 H 0.77382 0.40273 0.10032 0.0
C2423 C 0.79426 0.38902 0.04273 0.0
C2424 C 0.79764 0.37279 0.0494 0.0
C2425 C 0.7832 0.40009 0.05122 0.0
C2426 C 0.76347 0.40808 0.09298 0.0
H2427 H 0.69788 0.46699 0.10267 0.0
H2428 H 0.71913 0.45269 0.08495 0.0
H2429 H 0.75123 0.41774 0.11518 0.0
H2430 H 0.79273 0.35568 0.07044 0.0
H2431 H 0.77371 0.37497 0.08529 0.0
H2432 H 0.74873 0.4122 0.05243 0.0
C2433 C 0.71489 0.44656 0.09652 0.0
C2434 C 0.75048 0.4166 0.10148 0.0
C2435 C 0.70272 0.45472 0.10664 0.0
C2436 C 0.79036 0.36811 0.06499 0.0
C2437 C 0.77952 0.37919 0.07354 0.0
C2438 C 0.74951 0.4136 0.0661 0.0
C2439 C 0.72226 0.43118 0.1019 0.0
C2440 C 0.73659 0.42334 0.09247 0.0
C2441 C 0.77559 0.39518 0.06662 0.0
C2442 C 0.76295 0.40616 0.07525 0.0
H2443 H 0.70067 0.42586 0.13896 0.0
H2444 H 0.72148 0.41151 0.12122 0.0
H2445 H 0.7259 0.4272 0.06737 0.0
H2446 H 0.79964 0.39291 0.03067 0.0
H2447 H 0.78045 0.41239 0.04568 0.0
C2448 C 0.01198 0.21029 0.30436 0.0
C2449 C 0.99556 0.20423 0.30758 0.0
C2450 C 0.01459 0.22279 0.29196 0.0
C2451 C 0.99282 0.24359 0.25532 0.0
H2452 H 0.02735 0.27818 0.26164 0.0
C2453 C 0.02709 0.29862 0.21315 0.0
C2454 C 0.01274 0.30647 0.20608 0.0
C2455 C 0.02528 0.28676 0.22622 0.0
C2456 C 0.01772 0.26853 0.25968 0.0
H2457 H 0.96887 0.20715 0.30168 0.0
H2458 H 0.9732 0.22931 0.28057 0.0
H2459 H 0.02386 0.25595 0.28298 0.0
H2460 H 0.98546 0.30934 0.20774 0.0
H2461 H 0.98214 0.28824 0.2305 0.0
H2462 H 0.98638 0.25651 0.2323 0.0
C2463 C 0.98424 0.22396 0.28681 0.0
C2464 C 0.01578 0.25572 0.27185 0.0
C2465 C 0.98172 0.21132 0.29894 0.0
C2466 C 0.99662 0.30307 0.21282 0.0
C2467 C 0.99476 0.29102 0.22575 0.0
C2468 C 0.99462 0.25651 0.24332 0.0
C2469 C 0.00072 0.22975 0.283 0.0
C2470 C 0.00326 0.24311 0.26984 0.0
C2471 C 0.00907 0.28261 0.23242 0.0
C2472 C 0.00706 0.26911 0.24537 0.0
H2473 H 0.02278 0.20513 0.31117 0.0
H2474 H 0.02746 0.22682 0.28928 0.0
H2475 H 0.98326 0.23395 0.25313 0.0
H2476 H 0.03969 0.30149 0.20839 0.0
H2477 H 0.03651 0.28045 0.23108 0.0
C2478 C 0.78527 0.97534 0.29877 0.0
C2479 C 0.79209 0.98916 0.30772 0.0
C2480 C 0.77233 0.97787 0.28692 0.0
C2481 C 0.75449 0.01041 0.25901 0.0
H2482 H 0.71561 0.98022 0.25665 0.0
C2483 C 0.69814 0.02378 0.21433 0.0
C2484 C 0.69032 0.00988 0.20644 0.0
C2485 C 0.71041 0.02121 0.22688 0.0
C2486 C 0.72651 0.98861 0.25693 0.0
H2487 H 0.7901 0.01614 0.31252 0.0
H2488 H 0.76753 0.02075 0.29146 0.0
H2489 H 0.7371 0.97583 0.27851 0.0
H2490 H 0.68825 0.98249 0.20582 0.0
H2491 H 0.71028 0.97781 0.22727 0.0
H2492 H 0.74417 0.02305 0.23733 0.0
C2493 C 0.77242 0.00802 0.29335 0.0
C2494 C 0.73877 0.98614 0.26952 0.0
C2495 C 0.78523 0.00542 0.30538 0.0
C2496 C 0.69445 0.99336 0.21159 0.0
C2497 C 0.70691 0.99073 0.22397 0.0
C2498 C 0.74233 0.01279 0.24631 0.0
C2499 C 0.76596 0.99428 0.2839 0.0
C2500 C 0.75285 0.99704 0.2707 0.0
C2501 C 0.71505 0.00465 0.23178 0.0
C2502 C 0.72815 0.00194 0.24512 0.0
H2503 H 0.7901 0.9626 0.30082 0.0
H2504 H 0.76764 0.96707 0.2798 0.0
H2505 H 0.76531 0.01889 0.25951 0.0
H2506 H 0.69464 0.03666 0.2109 0.0
H2507 H 0.71606 0.03223 0.23287 0.0
C2508 C 0.00285 0.69131 0.21272 0.0
C2509 C 0.9867 0.68861 0.20577 0.0
C2510 C 0.00501 0.70293 0.22598 0.0
C2511 C 0.98338 0.73907 0.24739 0.0
H2512 H 0.01688 0.73057 0.28251 0.0
C2513 C 0.99042 0.78236 0.30626 0.0
C2514 C 0.00712 0.78749 0.30967 0.0
C2515 C 0.98734 0.76942 0.29446 0.0
C2516 C 0.00754 0.73314 0.27273 0.0
H2517 H 0.95994 0.69454 0.20792 0.0
H2518 H 0.96352 0.71449 0.23136 0.0
H2519 H 0.0127 0.7097 0.26001 0.0
H2520 H 0.03373 0.78236 0.30498 0.0
H2521 H 0.02843 0.7598 0.28434 0.0
H2522 H 0.97818 0.76247 0.26024 0.0
C2523 C 0.97469 0.70836 0.22616 0.0
C2524 C 0.00519 0.72123 0.25978 0.0
C2525 C 0.97261 0.69694 0.21277 0.0
C2526 C 0.02072 0.77886 0.30208 0.0
C2527 C 0.01769 0.76584 0.29047 0.0
C2528 C 0.98567 0.75092 0.26039 0.0
C2529 C 0.99095 0.71164 0.23284 0.0
C2530 C 0.99319 0.72412 0.24685 0.0
C2531 C 0.00097 0.76117 0.28632 0.0
C2532 C 0.99786 0.74814 0.27311 0.0
H2533 H 0.01382 0.68472 0.20763 0.0
H2534 H 0.01774 0.70525 0.23067 0.0
H2535 H 0.97413 0.74183 0.2376 0.0
H2536 H 0.9798 0.78865 0.31236 0.0
H2537 H 0.97433 0.7659 0.29167 0.0
C2538 C 0.21293 0.99149 0.30292 0.0
C2539 C 0.20731 0.00781 0.30727 0.0
C2540 C 0.22489 0.98937 0.28997 0.0
C2541 C 0.2589 0.01151 0.26697 0.0
H2542 H 0.251 0.9772 0.2325 0.0
C2543 C 0.30302 0.00425 0.2087 0.0
C2544 C 0.30633 0.98764 0.20323 0.0
C2545 C 0.2905 0.00727 0.22096 0.0
C2546 C 0.25349 0.98676 0.24208 0.0
H2547 H 0.21058 0.03476 0.30285 0.0
H2548 H 0.23154 0.03113 0.28017 0.0
H2549 H 0.23021 0.98128 0.25506 0.0
H2550 H 0.3004 0.96105 0.20695 0.0
H2551 H 0.27883 0.96615 0.2286 0.0
H2552 H 0.2823 0.01682 0.25423 0.0
C2553 C 0.22653 0.01996 0.28646 0.0
C2554 C 0.24157 0.98906 0.25501 0.0
C2555 C 0.21444 0.02203 0.29926 0.0
C2556 C 0.29758 0.97402 0.21064 0.0
C2557 C 0.28523 0.97698 0.22299 0.0
C2558 C 0.27087 0.00915 0.25408 0.0
C2559 C 0.23172 0.0036 0.28154 0.0
C2560 C 0.24421 0.00138 0.26764 0.0
C2561 C 0.28144 0.99364 0.22824 0.0
C2562 C 0.26836 0.99667 0.24153 0.0
H2563 H 0.20782 0.98041 0.30931 0.0
H2564 H 0.22889 0.97663 0.28662 0.0
H2565 H 0.26133 0.021 0.27665 0.0
H2566 H 0.30991 0.01488 0.2033 0.0
H2567 H 0.28783 0.02027 0.2246 0.0
C2568 C 0.99027 0.69419 0.78189 0.0
C2569 C 0.00675 0.69064 0.78759 0.0
C2570 C 0.98769 0.70602 0.76887 0.0
C2571 C 0.0097 0.74112 0.746 0.0
H2572 H 0.97333 0.7349 0.71335 0.0
C2573 C 0.00258 0.78402 0.68704 0.0
C2574 C 0.9862 0.79045 0.68435 0.0
C2575 C 0.0052 0.77106 0.69891 0.0
C2576 C 0.98348 0.73684 0.72245 0.0
H2577 H 0.03353 0.69526 0.78343 0.0
H2578 H 0.0292 0.7155 0.7604 0.0
H2579 H 0.97762 0.71383 0.73567 0.0
H2580 H 0.95954 0.78756 0.69041 0.0
H2581 H 0.96405 0.76493 0.71123 0.0
H2582 H 0.01568 0.764 0.73259 0.0
C2583 C 0.01815 0.70992 0.76641 0.0
C2584 C 0.98589 0.72482 0.7353 0.0
C2585 C 0.02066 0.69831 0.77956 0.0
C2586 C 0.97234 0.78306 0.69275 0.0
C2587 C 0.97491 0.77001 0.70447 0.0
C2588 C 0.00736 0.75305 0.73309 0.0
C2589 C 0.00162 0.7141 0.76102 0.0
C2590 C -0.001 0.72684 0.74729 0.0
C2591 C 0.9914 0.76408 0.7079 0.0
C2592 C 0.9942 0.75107 0.72122 0.0
H2593 H 0.9794 0.68811 0.78777 0.0
H2594 H 0.97478 0.70903 0.76518 0.0
H2595 H 0.0198 0.74326 0.75509 0.0
H2596 H 0.01335 0.78932 0.6803 0.0
H2597 H 0.01802 0.76653 0.70111 0.0
C2598 C 0.21319 0.00397 0.69191 0.0
C2599 C 0.20726 0.9875 0.68867 0.0
C2600 C 0.22559 0.00667 0.70435 0.0
C2601 C 0.25954 0.98525 0.72835 0.0
H2602 H 0.25176 0.02078 0.7616 0.0
C2603 C 0.30161 0.99198 0.78795 0.0
C2604 C 0.30538 0.0085 0.79341 0.0
C2605 C 0.28948 0.98935 0.77525 0.0
C2606 C 0.25423 0.01091 0.75234 0.0
H2607 H 0.21047 0.9608 0.69442 0.0
H2608 H 0.23215 0.96543 0.71619 0.0
H2609 H 0.23146 0.01662 0.7386 0.0
H2610 H 0.30071 0.03527 0.78922 0.0
H2611 H 0.27979 0.03081 0.76677 0.0
H2612 H 0.28245 0.97969 0.74184 0.0
C2613 C 0.22709 0.97631 0.70943 0.0
C2614 C 0.24258 0.00854 0.73916 0.0
C2615 C 0.21458 0.97366 0.69715 0.0
C2616 C 0.29748 0.02239 0.78556 0.0
C2617 C 0.28551 0.0198 0.77273 0.0
C2618 C 0.27126 0.9877 0.74145 0.0
C2619 C 0.23252 0.99286 0.71336 0.0
C2620 C 0.2451 0.99566 0.72706 0.0
C2621 C 0.28131 0.00324 0.76745 0.0
C2622 C 0.26873 0.00053 0.75363 0.0
H2623 H 0.20793 0.01475 0.68514 0.0
H2624 H 0.22975 0.01954 0.70693 0.0
H2625 H 0.26191 0.97535 0.71908 0.0
H2626 H 0.30787 0.98114 0.79368 0.0
H2627 H 0.28645 0.97642 0.77162 0.0
C2628 C 0.02106 0.21315 0.70141 0.0
C2629 C 0.00757 0.20543 0.69275 0.0
C2630 C 0.01791 0.22553 0.71367 0.0
C2631 C 0.98504 0.25587 0.72821 0.0
H2632 H 0.01357 0.25786 0.76837 0.0
C2633 C 0.00209 0.30527 0.78583 0.0
C2634 C 0.98579 0.30878 0.79205 0.0
C2635 C 0.00441 0.29254 0.77367 0.0
C2636 C 0.00558 0.25751 0.75717 0.0
H2637 H 0.98034 0.20494 0.68922 0.0
H2638 H 0.97459 0.22623 0.71122 0.0
H2639 H 0.0179 0.2353 0.74766 0.0
H2640 H 0.95898 0.30316 0.78958 0.0
H2641 H 0.96296 0.28088 0.76824 0.0
H2642 H 0.97265 0.27808 0.73792 0.0
C2643 C 0.98765 0.22285 0.70852 0.0
C2644 C 0.00805 0.24459 0.74528 0.0
C2645 C 0.99087 0.21059 0.69605 0.0
C2646 C 0.97172 0.30021 0.78526 0.0
C2647 C 0.97399 0.28765 0.77296 0.0
C2648 C 0.98248 0.26871 0.7402 0.0
C2649 C 0.00116 0.23045 0.71749 0.0
C2650 C 0.99792 0.2437 0.73056 0.0
C2651 C 0.99038 0.28352 0.76724 0.0
C2652 C 0.99284 0.26974 0.7547 0.0
H2653 H 0.03409 0.20968 0.69858 0.0
H2654 H 0.02865 0.23139 0.71997 0.0
H2655 H 0.97719 0.25576 0.71691 0.0
H2656 H 0.01303 0.3121 0.79066 0.0
H2657 H 0.01715 0.28979 0.76925 0.0
C2658 C 0.78267 0.99453 0.68962 0.0
C2659 C 0.78862 0.01103 0.68658 0.0
C2660 C 0.76998 0.99176 0.70174 0.0
C2661 C 0.73507 0.01269 0.72444 0.0
H2662 H 0.74294 0.97832 0.75884 0.0
C2663 C 0.69176 0.00651 0.78328 0.0
C2664 C 0.68896 0.99018 0.78975 0.0
C2665 C 0.70378 0.00906 0.77046 0.0
C2666 C 0.7404 0.98784 0.74925 0.0
H2667 H 0.78522 0.03771 0.69234 0.0
H2668 H 0.76295 0.03295 0.7135 0.0
H2669 H 0.76371 0.98243 0.73632 0.0
H2670 H 0.69512 0.9635 0.78717 0.0
H2671 H 0.71569 0.96774 0.76441 0.0
H2672 H 0.7116 0.01791 0.73706 0.0
C2673 C 0.76825 0.02212 0.70685 0.0
C2674 C 0.75234 0.99018 0.73635 0.0
C2675 C 0.78107 0.02483 0.69493 0.0
C2676 C 0.69759 0.9763 0.78269 0.0
C2677 C 0.70938 0.97877 0.7697 0.0
C2678 C 0.72302 0.01023 0.73723 0.0
C2679 C 0.76277 0.00554 0.71056 0.0
C2680 C 0.74982 0.00268 0.72388 0.0
C2681 C 0.71277 0.99521 0.76352 0.0
C2682 C 0.72556 0.99782 0.74986 0.0
H2683 H 0.78812 0.98379 0.68294 0.0
H2684 H 0.76579 0.97888 0.70422 0.0
H2685 H 0.73274 0.0223 0.71485 0.0
H2686 H 0.68494 0.01732 0.78842 0.0
H2687 H 0.70618 0.02191 0.76617 0.0
C2688 C 0.2158 0.30056 0.97214 0.0
C2689 C 0.20774 0.30827 0.98602 0.0
C2690 C 0.22828 0.28827 0.97476 0.0
C2691 C 0.24272 0.25708 0.00599 0.0
H2692 H 0.28441 0.25727 0.97969 0.0
C2693 C 0.29827 0.21213 0.02128 0.0
C2694 C 0.30738 0.20519 0.00765 0.0
C2695 C 0.28604 0.22463 0.01843 0.0
C2696 C 0.27272 0.25686 0.98695 0.0
H2697 H 0.207 0.31037 0.01341 0.0
H2698 H 0.22879 0.28851 0.01814 0.0
H2699 H 0.26342 0.27963 0.9753 0.0
H2700 H 0.31173 0.20623 0.98055 0.0
H2701 H 0.28986 0.22778 0.97532 0.0
H2702 H 0.25186 0.23429 0.01756 0.0
C2703 C 0.22522 0.29173 0.00524 0.0
C2704 C 0.26075 0.26972 0.98449 0.0
C2705 C 0.21285 0.30421 0.00258 0.0
C2706 C 0.30455 0.21127 0.99117 0.0
C2707 C 0.29216 0.22366 0.98825 0.0
C2708 C 0.25463 0.24416 0.00838 0.0
C2709 C 0.23295 0.28356 0.99134 0.0
C2710 C 0.24568 0.26999 0.99404 0.0
C2711 C 0.28275 0.23049 0.00187 0.0
C2712 C 0.26982 0.24393 -0.00106 0.0
H2713 H 0.21231 0.30393 0.95925 0.0
H2714 H 0.23397 0.28214 0.96382 0.0
H2715 H 0.23108 0.25684 0.01333 0.0
H2716 H 0.30072 0.20797 0.03418 0.0
H2717 H 0.27935 0.22986 0.02927 0.0
C2718 C 0.2149 0.69216 0.02059 0.0
C2719 C 0.20748 0.68381 0.00671 0.0
C2720 C 0.22808 0.70375 0.01806 0.0
C2721 C 0.24507 0.73267 0.9862 0.0
H2722 H 0.28539 0.73309 0.01453 0.0
C2723 C 0.29932 0.77988 0.97346 0.0
C2724 C 0.30803 0.78657 0.98746 0.0
C2725 C 0.28781 0.76656 0.9756 0.0
C2726 C 0.27409 0.73338 0.00668 0.0
H2727 H 0.20861 0.67982 0.97954 0.0
H2728 H 0.2315 0.70054 0.97493 0.0
H2729 H 0.26392 0.71117 0.01874 0.0
H2730 H 0.31254 0.78423 0.01444 0.0
H2731 H 0.29168 0.76158 0.01855 0.0
H2732 H 0.25475 0.75507 0.97445 0.0
C2733 C 0.22696 0.69831 0.98774 0.0
C2734 C 0.26186 0.72072 0.00904 0.0
C2735 C 0.21394 0.6865 0.99034 0.0
C2736 C 0.30565 0.77938 0.00355 0.0
C2737 C 0.29384 0.76629 0.00581 0.0
C2738 C 0.25714 0.74547 0.98401 0.0
C2739 C 0.23404 0.70715 0.00157 0.0
C2740 C 0.24724 0.72026 -0.00118 0.0
C2741 C 0.28469 0.75975 0.99185 0.0
C2742 C 0.27184 0.74602 0.99421 0.0
H2743 H 0.21037 0.68982 0.03339 0.0
H2744 H 0.23327 0.71042 0.02893 0.0
H2745 H 0.23386 0.73268 0.97823 0.0
H2746 H 0.30147 0.78492 0.96082 0.0
H2747 H 0.28146 0.7616 0.96446 0.0
C2748 C 0.78184 0.30348 0.993 0.0
C2749 C 0.78868 0.30622 0.00921 0.0
C2750 C 0.76914 0.29126 0.99068 0.0
C2751 C 0.73533 0.26829 0.01273 0.0
H2752 H 0.74205 0.23372 0.97829 0.0
C2753 C 0.6906 0.21039 0.00717 0.0
C2754 C 0.68731 0.2042 0.99083 0.0
C2755 C 0.7031 0.22279 0.00965 0.0
C2756 C 0.73982 0.24338 0.98782 0.0
H2757 H 0.78689 0.29975 0.03589 0.0
H2758 H 0.76453 0.27852 0.03191 0.0
H2759 H 0.76303 0.25621 0.9817 0.0
H2760 H 0.69322 0.20677 0.9641 0.0
H2761 H 0.71456 0.22879 0.9682 0.0
H2762 H 0.71191 0.25588 0.01861 0.0
C2763 C 0.76917 0.28546 0.02096 0.0
C2764 C 0.75188 0.25624 0.98977 0.0
C2765 C 0.78202 0.29744 0.02321 0.0
C2766 C 0.69602 0.21105 0.97689 0.0
C2767 C 0.70827 0.22361 0.97928 0.0
C2768 C 0.72312 0.25559 0.01063 0.0
C2769 C 0.76279 0.28208 0.00465 0.0
C2770 C 0.74976 0.26877 0.00226 0.0
C2771 C 0.71209 0.22956 0.99571 0.0
C2772 C 0.72522 0.24294 0.99816 0.0
H2773 H 0.78662 0.31045 0.98213 0.0
H2774 H 0.76426 0.28899 0.97801 0.0
H2775 H 0.73336 0.27792 0.02239 0.0
H2776 H 0.68375 0.20541 0.01803 0.0
H2777 H 0.70581 0.22691 0.02249 0.0
C2778 C 0.78229 0.69035 0.00312 0.0
C2779 C 0.78835 0.68785 0.98657 0.0
C2780 C 0.76939 0.70217 0.00618 0.0
C2781 C 0.73428 0.72516 0.98575 0.0
H2782 H 0.742 0.75878 0.02091 0.0
C2783 C 0.69163 0.78443 0.99224 0.0
C2784 C 0.68908 0.79114 0.00851 0.0
C2785 C 0.70329 0.77126 0.98977 0.0
C2786 C 0.73947 0.74939 0.01118 0.0
H2787 H 0.78488 0.69424 0.96004 0.0
H2788 H 0.76224 0.71489 0.9653 0.0
H2789 H 0.76267 0.73627 0.01652 0.0
H2790 H 0.69522 0.78861 0.03518 0.0
H2791 H 0.71508 0.76519 0.03111 0.0
H2792 H 0.71089 0.73794 0.98062 0.0
C2793 C 0.76762 0.70804 0.97597 0.0
C2794 C 0.75139 0.7365 0.00866 0.0
C2795 C 0.78066 0.69642 0.97297 0.0
C2796 C 0.69752 0.78394 0.02243 0.0
C2797 C 0.70891 0.77057 0.02005 0.0
C2798 C 0.72223 0.73792 0.98841 0.0
C2799 C 0.76205 0.71124 0.99263 0.0
C2800 C 0.74898 0.72436 0.99582 0.0
C2801 C 0.71213 0.76418 0.00365 0.0
C2802 C 0.72474 0.75032 0.00106 0.0
H2803 H 0.78784 0.68349 0.0137 0.0
H2804 H 0.76515 0.70423 0.01911 0.0
H2805 H 0.73202 0.71581 0.97589 0.0
H2806 H 0.68495 0.78967 0.9814 0.0
H2807 H 0.70556 0.76686 0.97693 0.0
C2808 C 0.47634 0.71604 0.79796 0.0
C2809 C 0.49029 0.70904 0.80651 0.0
C2810 C 0.47866 0.72918 0.78628 0.0
C2811 C 0.51003 0.76176 0.77231 0.0
H2812 H 0.48195 0.76238 0.73181 0.0
C2813 C 0.52442 0.80342 0.71365 0.0
C2814 C 0.51059 0.81163 0.706 0.0
C2815 C 0.52176 0.79168 0.72667 0.0
C2816 C 0.48978 0.76244 0.74312 0.0
H2817 H 0.51741 0.71065 0.81054 0.0
H2818 H 0.52176 0.7331 0.78947 0.0
H2819 H 0.47783 0.74016 0.75286 0.0
H2820 H 0.48335 0.8152 0.70652 0.0
H2821 H 0.47854 0.79427 0.72918 0.0
H2822 H 0.52216 0.78396 0.76224 0.0
C2823 C 0.50895 0.7287 0.79185 0.0
C2824 C 0.48743 0.7497 0.75524 0.0
C2825 C 0.50654 0.71574 0.80378 0.0
C2826 C 0.49412 0.80863 0.71204 0.0
C2827 C 0.49141 0.7967 0.72492 0.0
C2828 C 0.51248 0.7744 0.76009 0.0
C2829 C 0.49503 0.73554 0.78289 0.0
C2830 C 0.49753 0.74917 0.77 0.0
C2831 C 0.50521 0.78801 0.73225 0.0
C2832 C 0.50238 0.77486 0.74539 0.0
H2833 H 0.4636 0.71138 0.80037 0.0
H2834 H 0.46757 0.73439 0.78002 0.0
H2835 H 0.5178 0.76201 0.78366 0.0
H2836 H 0.53728 0.80599 0.70945 0.0
H2837 H 0.53262 0.78514 0.73204 0.0
C2838 C 0.28265 0.50638 0.81032 0.0
C2839 C 0.28908 0.49004 0.81324 0.0
C2840 C 0.26954 0.5088 0.79858 0.0
C2841 C 0.23521 0.48661 0.77549 0.0
H2842 H 0.24158 0.52248 0.74234 0.0
C2843 C 0.19302 0.49215 0.71561 0.0
C2844 C 0.18948 0.50851 0.70956 0.0
C2845 C 0.20471 0.48987 0.72881 0.0
C2846 C 0.23945 0.51251 0.75157 0.0
H2847 H 0.28599 0.46326 0.8078 0.0
H2848 H 0.26313 0.46741 0.78719 0.0
H2849 H 0.26222 0.51883 0.76497 0.0
H2850 H 0.19392 0.53539 0.71326 0.0
H2851 H 0.21387 0.53159 0.73661 0.0
H2852 H 0.21231 0.48041 0.76224 0.0
C2853 C 0.26831 0.4784 0.79367 0.0
C2854 C 0.25132 0.51043 0.76456 0.0
C2855 C 0.2815 0.47603 0.80526 0.0
C2856 C 0.19697 0.52261 0.71741 0.0
C2857 C 0.20842 0.5204 0.73075 0.0
C2858 C 0.22324 0.48876 0.76255 0.0
C2859 C 0.26241 0.49484 0.78995 0.0
C2860 C 0.24938 0.49742 0.77661 0.0
C2861 C 0.21262 0.50399 0.73649 0.0
C2862 C 0.22526 0.50169 0.75036 0.0
H2863 H 0.2881 0.51728 0.81673 0.0
H2864 H 0.26504 0.52159 0.79617 0.0
H2865 H 0.23328 0.47659 0.78473 0.0
H2866 H 0.18707 0.48114 0.70985 0.0
H2867 H 0.20774 0.47705 0.73276 0.0
C2868 C 0.52169 0.28046 0.80076 0.0
C2869 C 0.50764 0.28768 0.80897 0.0
C2870 C 0.51954 0.26688 0.78957 0.0
C2871 C 0.48843 0.23362 0.77655 0.0
H2872 H 0.5167 0.23185 0.73623 0.0
C2873 C 0.47371 0.19109 0.71866 0.0
C2874 C 0.48744 0.18307 0.71065 0.0
C2875 C 0.47653 0.20272 0.73174 0.0
C2876 C 0.50881 0.23208 0.7475 0.0
H2877 H 0.48051 0.28601 0.81288 0.0
H2878 H 0.47645 0.26277 0.79263 0.0
H2879 H 0.52069 0.25467 0.75661 0.0
H2880 H 0.5147 0.17959 0.71068 0.0
H2881 H 0.5198 0.20028 0.7335 0.0
H2882 H 0.47632 0.21115 0.76707 0.0
C2883 C 0.48921 0.26735 0.79493 0.0
C2884 C 0.5111 0.24518 0.75924 0.0
C2885 C 0.49146 0.28076 0.80638 0.0
C2886 C 0.50399 0.18603 0.71649 0.0
C2887 C 0.50687 0.19783 0.72946 0.0
C2888 C 0.48603 0.22062 0.7647 0.0
C2889 C 0.50324 0.26027 0.78632 0.0
C2890 C 0.5009 0.24617 0.77391 0.0
C2891 C 0.49317 0.20644 0.73706 0.0
C2892 C 0.49617 0.21976 0.75003 0.0
H2893 H 0.53438 0.2853 0.80308 0.0
H2894 H 0.5307 0.26153 0.78358 0.0
H2895 H 0.4806 0.23371 0.78786 0.0
H2896 H 0.46079 0.18856 0.71461 0.0
H2897 H 0.46574 0.2092 0.7373 0.0
C2898 C 0.80666 0.50418 0.71422 0.0
C2899 C 0.80981 0.48784 0.70791 0.0
C2900 C 0.79467 0.50658 0.72709 0.0
C2901 C 0.77199 0.48459 0.7616 0.0
H2902 H 0.73875 0.52041 0.75548 0.0
C2903 C 0.71336 0.49093 0.80537 0.0
C2904 C 0.70725 0.50732 0.80864 0.0
C2905 C 0.72627 0.48847 0.79341 0.0
C2906 C 0.74799 0.51044 0.75754 0.0
H2907 H 0.80442 0.46104 0.71092 0.0
H2908 H 0.78335 0.46516 0.73343 0.0
H2909 H 0.76081 0.51634 0.73431 0.0
H2910 H 0.71061 0.53411 0.80347 0.0
H2911 H 0.73352 0.53001 0.78305 0.0
H2912 H 0.75938 0.47882 0.78496 0.0
C2913 C 0.78984 0.47616 0.72829 0.0
C2914 C 0.76066 0.50813 0.74535 0.0
C2915 C 0.80169 0.47381 0.7153 0.0
C2916 C 0.71481 0.5213 0.80063 0.0
C2917 C 0.72789 0.51891 0.78891 0.0
C2918 C 0.75937 0.48697 0.77387 0.0
C2919 C 0.78601 0.4926 0.73413 0.0
C2920 C 0.77277 0.49517 0.74724 0.0
C2921 C 0.73364 0.50244 0.78494 0.0
C2922 C 0.74716 0.4999 0.77197 0.0
H2923 H 0.81318 0.5151 0.70893 0.0
H2924 H 0.79218 0.51937 0.73157 0.0
H2925 H 0.7813 0.47463 0.76349 0.0
H2926 H 0.70784 0.48003 0.81171 0.0
H2927 H 0.73022 0.47559 0.79058 0.0
C2928 C 0.49122 0.19121 0.28125 0.0
C2929 C 0.50743 0.18778 0.28772 0.0
C2930 C 0.48916 0.20316 0.26825 0.0
C2931 C 0.51187 0.23891 0.24706 0.0
H2932 H 0.47602 0.23385 0.21365 0.0
C2933 C 0.50447 0.28443 0.18989 0.0
C2934 C 0.488 0.29074 0.18751 0.0
C2935 C 0.50731 0.27105 0.20126 0.0
C2936 C 0.48602 0.23546 0.22297 0.0
H2937 H 0.53434 0.19269 0.28492 0.0
H2938 H 0.53093 0.21309 0.26185 0.0
H2939 H 0.48015 0.21187 0.23507 0.0
H2940 H 0.46141 0.28734 0.19365 0.0
H2941 H 0.46629 0.26398 0.21353 0.0
H2942 H 0.51776 0.26248 0.23481 0.0
C2943 C 0.51966 0.20733 0.26726 0.0
C2944 C 0.48836 0.22291 0.23531 0.0
C2945 C 0.52165 0.19563 0.28042 0.0
C2946 C 0.47429 0.28292 0.19575 0.0
C2947 C 0.47706 0.26945 0.20693 0.0
C2948 C 0.50959 0.2514 0.23467 0.0
C2949 C 0.50337 0.21147 0.26115 0.0
C2950 C 0.5012 0.22455 0.24764 0.0
C2951 C 0.49363 0.26353 0.20998 0.0
C2952 C 0.49656 0.24987 0.22258 0.0
H2953 H 0.48014 0.18502 0.28658 0.0
H2954 H 0.4764 0.20613 0.26406 0.0
H2955 H 0.52181 0.24074 0.25637 0.0
H2956 H 0.51514 0.29009 0.18328 0.0
H2957 H 0.52018 0.26657 0.20321 0.0
C2958 C 0.80865 0.48944 0.28347 0.0
C2959 C 0.809 0.50468 0.29263 0.0
C2960 C 0.79647 0.4869 0.27077 0.0
C2961 C 0.76345 0.51076 0.24527 0.0
H2962 H 0.75106 0.465 0.23229 0.0
C2963 C 0.71731 0.50022 0.18966 0.0
C2964 C 0.70726 0.48555 0.18949 0.0
C2965 C 0.7302 0.50208 0.20172 0.0
C2966 C 0.75395 0.47794 0.2359 0.0
H2967 H 0.79819 0.52983 0.29474 0.0
H2968 H 0.7758 0.52494 0.27433 0.0
H2969 H 0.77085 0.46922 0.25512 0.0
H2970 H 0.70401 0.46045 0.20015 0.0
H2971 H 0.72505 0.46418 0.2223 0.0
H2972 H 0.74514 0.51954 0.22751 0.0
C2973 C 0.78495 0.51489 0.27629 0.0
C2974 C 0.76583 0.48038 0.24887 0.0
C2975 C 0.79752 0.5176 0.28847 0.0
C2976 C 0.71099 0.47231 0.20076 0.0
C2977 C 0.72347 0.47434 0.21319 0.0
C2978 C 0.75099 0.50833 0.2329 0.0
C2979 C 0.78422 0.49951 0.26711 0.0
C2980 C 0.77101 0.49684 0.25363 0.0
C2981 C 0.73319 0.48938 0.21406 0.0
C2982 C 0.74621 0.49188 0.22773 0.0
H2983 H 0.81787 0.47954 0.28605 0.0
H2984 H 0.79698 0.47513 0.26371 0.0
H2985 H 0.76715 0.5237 0.24803 0.0
H2986 H 0.71512 0.51029 0.18053 0.0
H2987 H 0.73782 0.5135 0.20117 0.0
C2988 C 0.52229 0.7136 0.19577 0.0
C2989 C 0.5084 0.70624 0.18741 0.0
C2990 C 0.51975 0.7261 0.20807 0.0
C2991 C 0.48773 0.75695 0.22382 0.0
H2992 H 0.51676 0.75749 0.26367 0.0
C2993 C 0.47413 0.79807 0.28295 0.0
C2994 C 0.48799 0.80656 0.29023 0.0
C2995 C 0.47667 0.78627 0.26998 0.0
C2996 C 0.50867 0.75758 0.25253 0.0
H2997 H 0.4811 0.70657 0.18444 0.0
H2998 H 0.47643 0.728 0.20652 0.0
H2999 H 0.52088 0.73575 0.24206 0.0
H3000 H 0.51517 0.81048 0.28914 0.0
H3001 H 0.51978 0.78945 0.26652 0.0
H3002 H 0.47543 0.77875 0.23452 0.0
C3003 C 0.48933 0.7243 0.20353 0.0
C3004 C 0.511 0.74511 0.24013 0.0
C3005 C 0.49194 0.71194 0.19102 0.0
C3006 C 0.50438 0.80371 0.2839 0.0
C3007 C 0.50698 0.79171 0.27105 0.0
C3008 C 0.48533 0.76935 0.23629 0.0
C3009 C 0.50323 0.7315 0.21226 0.0
C3010 C 0.50058 0.74464 0.22559 0.0
C3011 C 0.49314 0.78282 0.26405 0.0
C3012 C 0.49581 0.7698 0.25074 0.0
H3013 H 0.53515 0.70971 0.19272 0.0
H3014 H 0.53078 0.73163 0.21417 0.0
H3015 H 0.47968 0.75721 0.21266 0.0
H3016 H 0.46132 0.8005 0.28739 0.0
H3017 H 0.46578 0.77956 0.26487 0.0
C3018 C 0.28149 0.52515 0.19936 0.0
C3019 C 0.28892 0.51115 0.19123 0.0
C3020 C 0.26909 0.52272 0.21178 0.0
C3021 C 0.25371 0.49111 0.24228 0.0
H3022 H 0.21306 0.51899 0.24325 0.0
C3023 C 0.19696 0.4756 0.2856 0.0
C3024 C 0.18821 0.48915 0.29314 0.0
C3025 C 0.20963 0.4787 0.27362 0.0
C3026 C 0.22447 0.51128 0.24334 0.0
H3027 H 0.28856 0.48381 0.1885 0.0
H3028 H 0.2669 0.4794 0.21053 0.0
H3029 H 0.23418 0.52347 0.22104 0.0
H3030 H 0.18501 0.51643 0.29371 0.0
H3031 H 0.20762 0.52205 0.27303 0.0
H3032 H 0.2441 0.47896 0.26459 0.0
C3033 C 0.27093 0.49223 0.20758 0.0
C3034 C 0.23652 0.51381 0.23057 0.0
C3035 C 0.28322 0.49471 0.19499 0.0
C3036 C 0.19191 0.50585 0.28822 0.0
C3037 C 0.20472 0.509 0.27632 0.0
C3038 C 0.24171 0.48865 0.25512 0.0
C3039 C 0.26387 0.50622 0.2162 0.0
C3040 C 0.25119 0.50366 0.22984 0.0
C3041 C 0.2137 0.49544 0.26885 0.0
C3042 C 0.22688 0.49862 0.25573 0.0
H3043 H 0.28542 0.53797 0.19622 0.0
H3044 H 0.26391 0.53372 0.21823 0.0
H3045 H 0.26503 0.48329 0.24217 0.0
H3046 H 0.19384 0.46258 0.28885 0.0
H3047 H 0.21599 0.46794 0.26785 0.0
C3048 C 0.80026 0.71505 0.5194 0.0
C3049 C 0.8089 0.70747 0.50579 0.0
C3050 C 0.78878 0.72821 0.51646 0.0
C3051 C 0.77285 0.76219 0.50686 0.0
H3052 H 0.73893 0.7558 0.47172 0.0
C3053 C 0.71507 0.8068 0.50079 0.0
C3054 C 0.70845 0.80974 0.48455 0.0
C3055 C 0.72784 0.79469 0.50314 0.0
C3056 C 0.7484 0.75794 0.48146 0.0
H3057 H 0.81346 0.70821 0.4787 0.0
H3058 H 0.79294 0.73116 0.47338 0.0
H3059 H 0.76064 0.73423 0.4761 0.0
H3060 H 0.71077 0.80381 0.45781 0.0
H3061 H 0.73351 0.78312 0.46168 0.0
H3062 H 0.76092 0.786 0.51209 0.0
C3063 C 0.79486 0.72673 0.48627 0.0
C3064 C 0.76083 0.74553 0.48395 0.0
C3065 C 0.80655 0.71369 0.48928 0.0
C3066 C 0.71537 0.80123 0.47054 0.0
C3067 C 0.72835 0.78937 0.47279 0.0
C3068 C 0.76052 0.77468 0.50427 0.0
C3069 C 0.78581 0.73403 0.49985 0.0
C3070 C 0.77308 0.74749 0.49675 0.0
C3071 C 0.73461 0.78576 0.48916 0.0
C3072 C 0.74803 0.77266 0.49164 0.0
H3073 H 0.80232 0.7107 0.5323 0.0
H3074 H 0.78193 0.73358 0.52713 0.0
H3075 H 0.7823 0.76409 0.51669 0.0
H3076 H 0.71004 0.81353 0.5117 0.0
H3077 H 0.73216 0.79213 0.51595 0.0
C3078 C 0.71074 0.19465 0.49326 0.0
C3079 C 0.704 0.19118 0.50936 0.0
C3080 C 0.72307 0.20731 0.49133 0.0
C3081 C 0.75584 0.23116 0.5144 0.0
H3082 H 0.74912 0.26512 0.47932 0.0
C3083 C 0.8001 0.28936 0.50824 0.0
C3084 C 0.80425 0.29443 0.4917 0.0
C3085 C 0.78727 0.27735 0.51092 0.0
C3086 C 0.7513 0.25566 0.48907 0.0
H3087 H 0.70571 0.19676 0.53624 0.0
H3088 H 0.72735 0.21883 0.53295 0.0
H3089 H 0.72861 0.24215 0.48253 0.0
H3090 H 0.79938 0.29034 0.46495 0.0
H3091 H 0.77729 0.26914 0.46948 0.0
H3092 H 0.77877 0.24429 0.52066 0.0
C3093 C 0.72293 0.21211 0.52177 0.0
C3094 C 0.73952 0.24252 0.49091 0.0
C3095 C 0.71047 0.19965 0.52364 0.0
C3096 C 0.79591 0.28698 0.47785 0.0
C3097 C 0.78325 0.27487 0.48048 0.0
C3098 C 0.76774 0.24419 0.51244 0.0
C3099 C 0.72914 0.21627 0.50557 0.0
C3100 C 0.7417 0.23012 0.50355 0.0
C3101 C 0.77875 0.2699 0.49704 0.0
C3102 C 0.76566 0.25655 0.49969 0.0
H3103 H 0.70613 0.18793 0.48216 0.0
H3104 H 0.72785 0.2101 0.47872 0.0
H3105 H 0.75789 0.22168 0.52417 0.0
H3106 H 0.80668 0.29479 0.51905 0.0
H3107 H 0.78403 0.27394 0.52385 0.0
C3108 C 0.28435 0.80193 0.49304 0.0
C3109 C 0.29 0.80573 0.50948 0.0
C3110 C 0.27191 0.78948 0.49058 0.0
C3111 C 0.23727 0.76688 0.51248 0.0
H3112 H 0.2441 0.73289 0.47748 0.0
C3113 C 0.19347 0.70836 0.50617 0.0
C3114 C 0.18945 0.70313 0.48964 0.0
C3115 C 0.20595 0.72073 0.5088 0.0
C3116 C 0.24193 0.74234 0.48724 0.0
H3117 H 0.28634 0.80091 0.53631 0.0
H3118 H 0.26465 0.7791 0.5321 0.0
H3119 H 0.26522 0.75517 0.48148 0.0
H3120 H 0.19407 0.7074 0.46287 0.0
H3121 H 0.21564 0.7292 0.46734 0.0
H3122 H 0.21395 0.75417 0.51819 0.0
C3123 C 0.26993 0.78544 0.52107 0.0
C3124 C 0.25401 0.75513 0.48948 0.0
C3125 C 0.28244 0.79774 0.52348 0.0
C3126 C 0.19745 0.71089 0.47576 0.0
C3127 C 0.2098 0.72334 0.47834 0.0
C3128 C 0.22517 0.7541 0.51022 0.0
C3129 C 0.26467 0.78103 0.50459 0.0
C3130 C 0.25179 0.76755 0.5021 0.0
C3131 C 0.21428 0.72834 0.4949 0.0
C3132 C 0.22735 0.74169 0.49756 0.0
H3133 H 0.2898 0.80832 0.48213 0.0
H3134 H 0.26788 0.78653 0.47775 0.0
H3135 H 0.23513 0.77641 0.52218 0.0
H3136 H 0.18715 0.70268 0.51701 0.0
H3137 H 0.20918 0.72421 0.52172 0.0
C3138 C 0.18925 0.28422 0.49214 0.0
C3139 C 0.18694 0.29138 0.50827 0.0
C3140 C 0.20135 0.27142 0.48975 0.0
C3141 C 0.23602 0.25376 0.488 0.0
H3142 H 0.23754 0.21477 0.51813 0.0
C3143 C 0.28171 0.19815 0.47561 0.0
C3144 C 0.28918 0.19015 0.48965 0.0
C3145 C 0.26878 0.21004 0.47789 0.0
C3146 C 0.2375 0.22569 0.50976 0.0
H3147 H 0.19409 0.29008 0.53481 0.0
H3148 H 0.21516 0.26758 0.53071 0.0
H3149 H 0.2157 0.23638 0.52209 0.0
H3150 H 0.28861 0.18736 0.51696 0.0
H3151 H 0.26651 0.20884 0.52122 0.0
H3152 H 0.25794 0.24345 0.47587 0.0
C3153 C 0.20796 0.27203 0.51985 0.0
C3154 C 0.22491 0.23801 0.51198 0.0
C3155 C 0.19607 0.28498 0.52216 0.0
C3156 C 0.28315 0.19368 0.50601 0.0
C3157 C 0.2704 0.20584 0.50837 0.0
C3158 C 0.24872 0.24156 0.48589 0.0
C3159 C 0.21087 0.26529 0.50359 0.0
C3160 C 0.22403 0.25212 0.50109 0.0
C3161 C 0.26309 0.21424 0.49432 0.0
C3162 C 0.24963 0.22733 0.49672 0.0
H3163 H 0.18199 0.28878 0.48137 0.0
H3164 H 0.20322 0.26626 0.47713 0.0
H3165 H 0.23576 0.26465 0.47958 0.0
H3166 H 0.28587 0.19514 0.46282 0.0
H3167 H 0.2632 0.21584 0.46674 0.0
C3168 C 0.06113 0.31465 0.11974 0.0
C3169 C 0.05542 0.32878 0.12909 0.0
C3170 C 0.07244 0.31668 0.10628 0.0
C3171 C 0.08859 0.34752 0.07515 0.0
H3172 H 0.12339 0.31309 0.06922 0.0
C3173 C 0.13878 0.34664 0.02012 0.0
C3174 C 0.14031 0.3308 0.01192 0.0
C3175 C 0.12903 0.34824 0.03494 0.0
C3176 C 0.11373 0.32279 0.0707 0.0
H3177 H 0.05719 0.35622 0.13146 0.0
H3178 H 0.07719 0.35972 0.10786 0.0
H3179 H 0.10573 0.31274 0.09461 0.0
H3180 H 0.13239 0.30434 0.01274 0.0
H3181 H 0.11564 0.30716 0.03847 0.0
H3182 H 0.09669 0.35744 0.05103 0.0
C3183 C 0.07271 0.34708 0.11099 0.0
C3184 C 0.10358 0.32258 0.08522 0.0
C3185 C 0.06132 0.34506 0.12454 0.0
C3186 C 0.1316 0.31673 0.01869 0.0
C3187 C 0.12206 0.3183 0.03352 0.0
C3188 C 0.09888 0.34779 0.06061 0.0
C3189 C 0.07847 0.33287 0.10179 0.0
C3190 C 0.09057 0.33463 0.08739 0.0
C3191 C 0.12083 0.33399 0.04191 0.0
C3192 C 0.11121 0.33513 0.05806 0.0
H3193 H 0.05684 0.30192 0.12274 0.0
H3194 H 0.07631 0.3055 0.09924 0.0
H3195 H 0.07864 0.35694 0.07643 0.0
H3196 H 0.14526 0.35776 0.01522 0.0
H3197 H 0.12826 0.36049 0.04119 0.0
C3198 C 0.64341 0.05679 0.12716 0.0
C3199 C 0.65929 0.05739 0.13533 0.0
C3200 C 0.63985 0.06777 0.11362 0.0
C3201 C 0.65211 0.10799 0.0936 0.0
H3202 H 0.64228 0.08596 0.05059 0.0
C3203 C 0.64599 0.14468 0.02988 0.0
C3204 C 0.65768 0.13882 0.0177 0.0
C3205 C 0.64271 0.13511 0.04452 0.0
C3206 C 0.6448 0.09228 0.06256 0.0
H3207 H 0.68354 0.07048 0.13631 0.0
H3208 H 0.67713 0.0899 0.11302 0.0
H3209 H 0.64265 0.06915 0.07681 0.0
H3210 H 0.67454 0.11809 0.01092 0.0
H3211 H 0.66848 0.10124 0.03625 0.0
H3212 H 0.6547 0.13104 0.07929 0.0
C3213 C 0.66753 0.08084 0.11696 0.0
C3214 C 0.64492 0.08272 0.07753 0.0
C3215 C 0.67123 0.06966 0.13021 0.0
C3216 C 0.66553 0.12296 0.02012 0.0
C3217 C 0.66198 0.11326 0.03454 0.0
C3218 C 0.65168 0.11762 0.07868 0.0
C3219 C 0.65194 0.0798 0.10834 0.0
C3220 C 0.64906 0.09041 0.0931 0.0
C3221 C 0.65076 0.11937 0.04699 0.0
C3222 C 0.64851 0.10974 0.06298 0.0
H3223 H 0.634 0.04742 0.1308 0.0
H3224 H 0.62774 0.06675 0.10713 0.0
H3225 H 0.65531 0.11419 0.10548 0.0
H3226 H 0.63982 0.15689 0.02837 0.0
H3227 H 0.63402 0.14006 0.05398 0.0
C3228 C 0.93459 0.68028 0.12206 0.0
C3229 C 0.94148 0.66607 0.13045 0.0
C3230 C 0.92265 0.67824 0.10915 0.0
C3231 C 0.90705 0.64831 0.07714 0.0
H3232 H 0.86958 0.68029 0.07495 0.0
C3233 C 0.8568 0.65005 0.02234 0.0
C3234 C 0.85414 0.66642 0.0156 0.0
C3235 C 0.86627 0.64786 0.03728 0.0
C3236 C 0.87997 0.67125 0.07539 0.0
H3237 H 0.94118 0.6385 0.13168 0.0
H3238 H 0.92021 0.63497 0.10894 0.0
H3239 H 0.88824 0.68025 0.09965 0.0
H3240 H 0.85949 0.69328 0.01934 0.0
H3241 H 0.87577 0.68942 0.04517 0.0
H3242 H 0.89888 0.63962 0.05259 0.0
C3243 C 0.92418 0.64768 0.11246 0.0
C3244 C 0.89066 0.67125 0.08951 0.0
C3245 C 0.93613 0.64972 0.12551 0.0
C3246 C 0.86119 0.68047 0.02411 0.0
C3247 C 0.87045 0.6783 0.03902 0.0
C3248 C 0.89627 0.64829 0.06296 0.0
C3249 C 0.91725 0.66195 0.10422 0.0
C3250 C 0.90463 0.66015 0.09032 0.0
C3251 C 0.87303 0.66201 0.04584 0.0
C3252 C 0.88295 0.66014 0.06175 0.0
H3253 H 0.93837 0.69307 0.12546 0.0
H3254 H 0.91781 0.68948 0.10285 0.0
H3255 H 0.91774 0.63964 0.07739 0.0
H3256 H 0.8516 0.63894 0.01608 0.0
H3257 H 0.86809 0.63516 0.04228 0.0
C3258 C 0.34903 0.85343 0.0252 0.0
C3259 C 0.33223 0.85007 0.02003 0.0
C3260 C 0.35222 0.8622 0.04038 0.0
C3261 C 0.33257 0.87279 0.08143 0.0
H3262 H 0.3595 0.91407 0.08032 0.0
C3263 C 0.32046 0.92761 0.12683 0.0
C3264 C 0.33408 0.93707 0.13348 0.0
C3265 C 0.32327 0.91499 0.11476 0.0
C3266 C 0.35226 0.90238 0.08096 0.0
H3267 H 0.30566 0.8532 0.02689 0.0
H3268 H 0.31126 0.86818 0.05323 0.0
H3269 H 0.35906 0.89526 0.05552 0.0
H3270 H 0.36144 0.94046 0.13276 0.0
H3271 H 0.36633 0.91831 0.11136 0.0
H3272 H 0.3253 0.88007 0.10658 0.0
C3273 C 0.32195 0.86401 0.04562 0.0
C3274 C 0.35199 0.89164 0.06677 0.0
C3275 C 0.31876 0.85552 0.03043 0.0
C3276 C 0.35068 0.9334 0.12789 0.0
C3277 C 0.35348 0.92078 0.11562 0.0
C3278 C 0.33289 0.88344 0.09559 0.0
C3279 C 0.33868 0.86747 0.05076 0.0
C3280 C 0.34162 0.8771 0.06667 0.0
C3281 C 0.33976 0.91147 0.10892 0.0
C3282 C 0.34219 0.89869 0.09527 0.0
H3283 H 0.35969 0.84945 0.01745 0.0
H3284 H 0.36524 0.86476 0.04406 0.0
H3285 H 0.32472 0.86148 0.08179 0.0
H3286 H 0.30752 0.92999 0.13086 0.0
H3287 H 0.31239 0.90827 0.10965 0.0
C3288 C 0.0646 0.67978 0.86722 0.0
C3289 C 0.05666 0.66585 0.85931 0.0
C3290 C 0.07668 0.67731 0.87993 0.0
C3291 C 0.09054 0.64696 0.91244 0.0
H3292 H 0.1291 0.67757 0.91514 0.0
C3293 C 0.13957 0.64719 0.96832 0.0
C3294 C 0.14254 0.66347 0.97515 0.0
C3295 C 0.13048 0.64529 0.9531 0.0
C3296 C 0.11841 0.66891 0.91454 0.0
H3297 H 0.05545 0.6383 0.85853 0.0
H3298 H 0.07671 0.63399 0.88089 0.0
H3299 H 0.11095 0.67799 0.89005 0.0
H3300 H 0.13821 0.69048 0.97122 0.0
H3301 H 0.12262 0.68712 0.94487 0.0
H3302 H 0.09792 0.63817 0.9372 0.0
C3303 C 0.07341 0.64684 0.8772 0.0
C3304 C 0.10799 0.66917 0.9002 0.0
C3305 C 0.06131 0.64931 0.86434 0.0
C3306 C 0.13624 0.67774 0.96639 0.0
C3307 C 0.12738 0.67584 0.95118 0.0
C3308 C 0.10105 0.64666 0.92682 0.0
C3309 C 0.08121 0.66084 0.88513 0.0
C3310 C 0.09362 0.6586 0.8992 0.0
C3311 C 0.12442 0.65964 0.94433 0.0
C3312 C 0.11477 0.65802 0.92821 0.0
H3313 H 0.06142 0.69271 0.8637 0.0
H3314 H 0.08219 0.68839 0.88597 0.0
H3315 H 0.07952 0.63871 0.91209 0.0
H3316 H 0.1442 0.63593 0.97475 0.0
H3317 H 0.12836 0.63264 0.94808 0.0
C3318 C 0.32318 0.06836 0.86978 0.0
C3319 C 0.33532 0.05625 0.86479 0.0
C3320 C 0.32666 0.07971 0.88294 0.0
C3321 C 0.34915 0.08245 0.92241 0.0
H3322 H 0.33892 0.13065 0.91987 0.0
C3323 C 0.32865 0.12353 0.97933 0.0
C3324 C 0.33645 0.13947 0.9814 0.0
C3325 C 0.33208 0.11362 0.96503 0.0
C3326 C 0.34205 0.11726 0.9207 0.0
H3327 H 0.36075 0.0467 0.86949 0.0
H3328 H 0.36662 0.06632 0.89303 0.0
H3329 H 0.33845 0.11337 0.89396 0.0
H3330 H 0.35408 0.15747 0.97022 0.0
H3331 H 0.35968 0.14025 0.94483 0.0
H3332 H 0.35179 0.08616 0.94929 0.0
C3333 C 0.35452 0.0671 0.8865 0.0
C3334 C 0.3417 0.1074 0.90593 0.0
C3335 C 0.35118 0.05594 0.87304 0.0
C3336 C 0.34795 0.14519 0.96899 0.0
C3337 C 0.35111 0.13541 0.95447 0.0
C3338 C 0.34919 0.09226 0.93722 0.0
C3339 C 0.34223 0.07899 0.89162 0.0
C3340 C 0.34494 0.08985 0.90672 0.0
C3341 C 0.34313 0.11958 0.95235 0.0
C3342 C 0.34533 0.10968 0.93652 0.0
H3343 H 0.31088 0.06896 0.86363 0.0
H3344 H 0.31691 0.08866 0.88677 0.0
H3345 H 0.35155 0.06892 0.92334 0.0
H3346 H 0.31979 0.11875 0.98872 0.0
H3347 H 0.32565 0.10153 0.96359 0.0
C3348 C 0.85323 0.34779 0.97138 0.0
C3349 C 0.85511 0.33229 0.98015 0.0
C3350 C 0.86402 0.35186 0.9578 0.0
C3351 C 0.90624 0.34158 0.94075 0.0
H3352 H 0.88826 0.35349 0.89641 0.0
C3353 C 0.94089 0.32499 0.88002 0.0
C3354 C 0.94243 0.33708 0.86695 0.0
C3355 C 0.93068 0.32815 0.89409 0.0
C3356 C 0.89348 0.35055 0.9088 0.0
H3357 H 0.86979 0.30892 0.98139 0.0
H3358 H 0.88849 0.31606 0.95797 0.0
H3359 H 0.86913 0.35217 0.92103 0.0
H3360 H 0.93418 0.36196 0.85837 0.0
H3361 H 0.91588 0.36736 0.88314 0.0
H3362 H 0.93039 0.33923 0.92854 0.0
C3363 C 0.87877 0.32511 0.96163 0.0
C3364 C 0.88256 0.34977 0.92286 0.0
C3365 C 0.86794 0.32097 0.97499 0.0
C3366 C 0.93331 0.35242 0.86825 0.0
C3367 C 0.92282 0.3555 0.88236 0.0
C3368 C 0.91709 0.34236 0.92679 0.0
C3369 C 0.87702 0.34062 0.95296 0.0
C3370 C 0.88877 0.34461 0.9388 0.0
C3371 C 0.92159 0.34342 0.89547 0.0
C3372 C 0.91071 0.34618 0.91057 0.0
H3373 H 0.84343 0.35676 0.97499 0.0
H3374 H 0.8624 0.36387 0.95127 0.0
H3375 H 0.91141 0.33792 0.95299 0.0
H3376 H 0.94773 0.31304 0.87953 0.0
H3377 H 0.92974 0.31848 0.90386 0.0
C3378 C 0.68013 0.86229 0.96812 0.0
C3379 C 0.66631 0.8558 0.97742 0.0
C3380 C 0.67749 0.87119 0.95305 0.0
C3381 C 0.64701 0.89741 0.93028 0.0
H3382 H 0.67739 0.88882 0.89241 0.0
C3383 C 0.64797 0.9383 0.86836 0.0
C3384 C 0.66439 0.9435 0.86349 0.0
C3385 C 0.64579 0.92599 0.88106 0.0
C3386 C 0.6688 0.89136 0.90287 0.0
H3387 H 0.6388 0.85378 0.97814 0.0
H3388 H 0.63422 0.86968 0.95172 0.0
H3389 H 0.67785 0.86998 0.917 0.0
H3390 H 0.69135 0.93967 0.86812 0.0
H3391 H 0.68752 0.91844 0.89008 0.0
H3392 H 0.63842 0.91921 0.91631 0.0
C3393 C 0.64709 0.86769 0.9562 0.0
C3394 C 0.66905 0.88058 0.91692 0.0
C3395 C 0.64973 0.85857 0.97127 0.0
C3396 C 0.67851 0.93605 0.87152 0.0
C3397 C 0.67633 0.92373 0.88403 0.0
C3398 C 0.64677 0.90826 0.91617 0.0
C3399 C 0.66098 0.87398 0.9469 0.0
C3400 C 0.65858 0.88381 0.93101 0.0
C3401 C 0.65999 0.91852 0.88894 0.0
C3402 C 0.65809 0.90565 0.90259 0.0
H3403 H 0.69308 0.86045 0.97241 0.0
H3404 H 0.68844 0.87614 0.94632 0.0
H3405 H 0.63883 0.90021 0.941 0.0
H3406 H 0.63682 0.94379 0.86244 0.0
H3407 H 0.63304 0.92219 0.8846 0.0
C3408 C 0.13074 0.06594 0.32662 0.0
C3409 C 0.13514 0.05309 0.33822 0.0
C3410 C 0.11757 0.07722 0.33026 0.0
C3411 C 0.07731 0.07917 0.35127 0.0
H3412 H 0.08078 0.12779 0.34364 0.0
C3413 C 0.03155 0.14261 0.3501 0.0
C3414 C 0.01976 0.13745 0.3377 0.0
C3415 C 0.0457 0.13248 0.35381 0.0
C3416 C 0.07967 0.11427 0.34607 0.0
H3417 H 0.1294 0.04212 0.36284 0.0
H3418 H 0.10583 0.06165 0.36896 0.0
H3419 H 0.10651 0.11026 0.34355 0.0
H3420 H 0.0131 0.11736 0.32003 0.0
H3421 H 0.03757 0.09955 0.3268 0.0
H3422 H 0.05037 0.08304 0.35278 0.0
C3423 C 0.11283 0.06305 0.35719 0.0
C3424 C 0.09434 0.10427 0.34593 0.0
C3425 C 0.1263 0.05195 0.3537 0.0
C3426 C 0.02202 0.12171 0.32958 0.0
C3427 C 0.03594 0.11146 0.33353 0.0
C3428 C 0.0626 0.08913 0.3511 0.0
C3429 C 0.10831 0.07571 0.34543 0.0
C3430 C 0.09324 0.08659 0.34818 0.0
C3431 C 0.04804 0.11687 0.34547 0.0
C3432 C 0.06364 0.10671 0.34815 0.0
H3433 H 0.13736 0.06718 0.31462 0.0
H3434 H 0.1142 0.08677 0.32092 0.0
H3435 H 0.07613 0.06554 0.3529 0.0
H3436 H 0.03016 0.15472 0.35651 0.0
H3437 H 0.05489 0.1369 0.36306 0.0
C3438 C 0.93915 0.12943 0.34912 0.0
C3439 C 0.94438 0.13424 0.3327 0.0
C3440 C 0.92646 0.1171 0.35131 0.0
C3441 C 0.89139 0.09569 0.32837 0.0
H3442 H 0.90037 0.05743 0.35815 0.0
C3443 C 0.86262 0.03028 0.31682 0.0
C3444 C 0.85626 0.02085 0.33061 0.0
C3445 C 0.87136 0.04543 0.31949 0.0
C3446 C 0.89752 0.06818 0.35002 0.0
H3447 H 0.94002 0.13012 0.30574 0.0
H3448 H 0.91814 0.10881 0.30957 0.0
H3449 H 0.91932 0.08211 0.35861 0.0
H3450 H 0.85428 0.02001 0.35812 0.0
H3451 H 0.86992 0.04657 0.36278 0.0
H3452 H 0.87002 0.08154 0.31929 0.0
C3453 C 0.92371 0.11458 0.32077 0.0
C3454 C 0.90835 0.08231 0.35029 0.0
C3455 C 0.93641 0.12672 0.31858 0.0
C3456 C 0.85897 0.02697 0.34721 0.0
C3457 C 0.86795 0.04213 0.34989 0.0
C3458 C 0.88063 0.08161 0.32807 0.0
C3459 C 0.91863 0.10955 0.33713 0.0
C3460 C 0.9057 0.09595 0.33904 0.0
C3461 C 0.87413 0.05154 0.33602 0.0
C3462 C 0.8839 0.06747 0.33848 0.0
H3463 H 0.94503 0.13497 0.36027 0.0
H3464 H 0.92276 0.1135 0.36407 0.0
H3465 H 0.88881 0.10617 0.31982 0.0
H3466 H 0.86081 0.02601 0.30386 0.0
H3467 H 0.87623 0.05225 0.30856 0.0
C3468 C 0.87319 0.93896 0.3456 0.0
C3469 C 0.86887 0.94562 0.32956 0.0
C3470 C 0.88656 0.92727 0.34723 0.0
C3471 C 0.91147 0.89662 0.32179 0.0
H3472 H 0.94589 0.90135 0.35676 0.0
C3473 C 0.97649 0.86514 0.31546 0.0
C3474 C 0.98326 0.85658 0.32962 0.0
C3475 C 0.96205 0.87528 0.31707 0.0
C3476 C 0.93624 0.89975 0.34707 0.0
H3477 H 0.87542 0.94525 0.30271 0.0
H3478 H 0.89855 0.9252 0.30562 0.0
H3479 H 0.92118 0.92033 0.35676 0.0
H3480 H 0.98031 0.85242 0.35675 0.0
H3481 H 0.95501 0.87035 0.35953 0.0
H3482 H 0.92661 0.87637 0.31186 0.0
C3483 C 0.89151 0.92877 0.31691 0.0
C3484 C 0.9221 0.91058 0.34708 0.0
C3485 C 0.87827 0.9404 0.31528 0.0
C3486 C 0.97542 0.85878 0.34556 0.0
C3487 C 0.96097 0.86908 0.34719 0.0
C3488 C 0.92556 0.88589 0.32176 0.0
C3489 C 0.89575 0.92195 0.33285 0.0
C3490 C 0.90978 0.90938 0.33417 0.0
C3491 C 0.95401 0.87722 0.33288 0.0
C3492 C 0.9383 0.88758 0.33414 0.0
H3493 H 0.86623 0.94269 0.35687 0.0
H3494 H 0.88951 0.92219 0.35968 0.0
H3495 H 0.902 0.8951 0.31191 0.0
H3496 H 0.98216 0.86384 0.30298 0.0
H3497 H 0.95717 0.88164 0.30587 0.0
C3498 C 0.14654 0.96509 0.34306 0.0
C3499 C 0.14159 0.97836 0.33216 0.0
C3500 C 0.13678 0.95023 0.34422 0.0
C3501 C 0.10976 0.92275 0.34974 0.0
H3502 H 0.08888 0.90759 0.30778 0.0
C3503 C 0.05961 0.86848 0.34654 0.0
C3504 C 0.05894 0.85869 0.33162 0.0
C3505 C 0.07091 0.8822 0.34779 0.0
C3506 C 0.0948 0.91142 0.3196 0.0
H3507 H 0.12204 0.98683 0.31466 0.0
H3508 H 0.10483 0.96137 0.31709 0.0
H3509 H 0.10605 0.93305 0.30779 0.0
H3510 H 0.0704 0.85473 0.30688 0.0
H3511 H 0.0905 0.878 0.30933 0.0
H3512 H 0.09888 0.90063 0.36137 0.0
C3513 C 0.11654 0.96206 0.3243 0.0
C3514 C 0.10443 0.92628 0.31967 0.0
C3515 C 0.12637 0.97674 0.32298 0.0
C3516 C 0.07043 0.86221 0.31843 0.0
C3517 C 0.08188 0.87567 0.3198 0.0
C3518 C 0.1002 0.90771 0.34964 0.0
C3519 C 0.12179 0.94843 0.33462 0.0
C3520 C 0.11191 0.93227 0.33475 0.0
C3521 C 0.0819 0.88621 0.33424 0.0
C3522 C 0.09255 0.90188 0.33455 0.0
H3523 H 0.15825 0.96595 0.35027 0.0
H3524 H 0.14129 0.93997 0.3522 0.0
H3525 H 0.11524 0.92703 0.36162 0.0
H3526 H 0.05086 0.86607 0.35689 0.0
H3527 H 0.07048 0.89007 0.35907 0.0
C3528 C 0.02319 0.85887 0.64717 0.0
C3529 C 0.01542 0.85747 0.66323 0.0
C3530 C 0.03728 0.86954 0.64484 0.0
C3531 C 0.05802 0.90681 0.66429 0.0
H3532 H 0.09901 0.89184 0.64133 0.0
C3533 C 0.1219 0.9373 0.67784 0.0
C3534 C 0.13209 0.94244 0.66407 0.0
C3535 C 0.10766 0.92714 0.67524 0.0
C3536 C 0.08754 0.89626 0.64753 0.0
H3537 H 0.01677 0.8659 0.68952 0.0
H3538 H 0.04112 0.88423 0.68544 0.0
H3539 H 0.07368 0.87359 0.64126 0.0
H3540 H 0.13554 0.94029 0.63677 0.0
H3541 H 0.11049 0.9222 0.6323 0.0
H3542 H 0.07191 0.92915 0.67106 0.0
C3543 C 0.03618 0.87737 0.67457 0.0
C3544 C 0.07307 0.88585 0.64749 0.0
C3545 C 0.02223 0.86675 0.67691 0.0
C3546 C 0.12794 0.93663 0.64765 0.0
C3547 C 0.11365 0.92627 0.64507 0.0
C3548 C 0.07241 0.91711 0.66438 0.0
C3549 C 0.04376 0.87906 0.6585 0.0
C3550 C 0.05835 0.89083 0.65634 0.0
C3551 C 0.10322 0.92174 0.65884 0.0
C3552 C 0.08746 0.91173 0.65646 0.0
H3553 H 0.01832 0.85187 0.63637 0.0
H3554 H 0.04288 0.87061 0.6323 0.0
H3555 H 0.04673 0.91119 0.67085 0.0
H3556 H 0.12471 0.94134 0.6907 0.0
H3557 H 0.10002 0.92356 0.68613 0.0
C3558 C 0.14537 0.02894 0.65396 0.0
C3559 C 0.14084 0.01635 0.66579 0.0
C3560 C 0.13569 0.04382 0.65249 0.0
C3561 C 0.10864 0.07138 0.64713 0.0
H3562 H 0.09062 0.08872 0.68957 0.0
C3563 C 0.05873 0.12579 0.65141 0.0
C3564 C 0.05898 0.13605 0.66601 0.0
C3565 C 0.07013 0.1122 0.6498 0.0
C3566 C 0.09575 0.08428 0.6776 0.0
H3567 H 0.12207 0.00894 0.68457 0.0
H3568 H 0.10497 0.03442 0.68163 0.0
H3569 H 0.1075 0.06309 0.68969 0.0
H3570 H 0.07217 0.14115 0.68964 0.0
H3571 H 0.09249 0.11816 0.6865 0.0
H3572 H 0.09723 0.09307 0.63519 0.0
C3573 C 0.11631 0.03323 0.67393 0.0
C3574 C 0.1052 0.06933 0.67763 0.0
C3575 C 0.12607 0.01855 0.67556 0.0
C3576 C 0.07151 0.13326 0.67838 0.0
C3577 C 0.08308 0.11998 0.67662 0.0
C3578 C 0.09926 0.08653 0.64712 0.0
C3579 C 0.12122 0.04626 0.66271 0.0
C3580 C 0.1116 0.06254 0.6624 0.0
C3581 C 0.08212 0.10884 0.66267 0.0
C3582 C 0.09266 0.09313 0.66238 0.0
H3583 H 0.15671 0.02758 0.64627 0.0
H3584 H 0.13989 0.05363 0.6438 0.0
H3585 H 0.11331 0.06646 0.63516 0.0
H3586 H 0.04914 0.12768 0.6417 0.0
H3587 H 0.06896 0.10386 0.63892 0.0
C3588 C 0.98266 0.12246 0.67315 0.0
C3589 C 0.98377 0.1383 0.66501 0.0
C3590 C 0.96837 0.11221 0.671 0.0
C3591 C 0.93282 0.09957 0.67539 0.0
H3592 H 0.9061 0.09648 0.63409 0.0
C3593 C 0.86731 0.06886 0.67704 0.0
C3594 C 0.86287 0.05787 0.6637 0.0
C3595 C 0.88137 0.07952 0.67563 0.0
C3596 C 0.91349 0.09711 0.64568 0.0
H3597 H 0.97105 0.15558 0.64773 0.0
H3598 H 0.94571 0.13791 0.64443 0.0
H3599 H 0.93287 0.11228 0.63395 0.0
H3600 H 0.86927 0.04991 0.63812 0.0
H3601 H 0.89434 0.06819 0.63585 0.0
H3602 H 0.91398 0.084 0.68702 0.0
C3603 C 0.95606 0.13323 0.6522 0.0
C3604 C 0.92875 0.10631 0.64565 0.0
C3605 C 0.97055 0.1434 0.65413 0.0
C3606 C 0.8724 0.05827 0.6486 0.0
C3607 C 0.88672 0.06879 0.64729 0.0
C3608 C 0.91774 0.0903 0.67538 0.0
C3609 C 0.95464 0.11768 0.66094 0.0
C3610 C 0.93859 0.10766 0.66054 0.0
C3611 C 0.8916 0.07923 0.66099 0.0
C3612 C 0.90778 0.08905 0.6606 0.0
H3613 H 0.99278 0.11806 0.68139 0.0
H3614 H 0.96798 0.10009 0.67753 0.0
H3615 H 0.93983 0.10055 0.68719 0.0
H3616 H 0.86005 0.06905 0.68874 0.0
H3617 H 0.8844 0.08777 0.68622 0.0
C3618 C 0.93495 0.87111 0.64682 0.0
C3619 C 0.94048 0.86605 0.66307 0.0
C3620 C 0.92318 0.88438 0.64499 0.0
C3621 C 0.89074 0.90829 0.66933 0.0
H3622 H 0.8986 0.94444 0.63673 0.0
C3623 C 0.86255 0.97442 0.67802 0.0
C3624 C 0.85479 0.98244 0.66404 0.0
C3625 C 0.87175 0.95945 0.6759 0.0
C3626 C 0.8961 0.9343 0.64571 0.0
H3627 H 0.93786 0.87106 0.69012 0.0
H3628 H 0.91771 0.89406 0.68689 0.0
H3629 H 0.91697 0.91927 0.63662 0.0
H3630 H 0.851 0.98106 0.63675 0.0
H3631 H 0.86742 0.9548 0.63306 0.0
H3632 H 0.8703 0.92349 0.67881 0.0
C3633 C 0.92221 0.88767 0.67556 0.0
C3634 C 0.90659 0.9199 0.64564 0.0
C3635 C 0.93393 0.87452 0.67739 0.0
C3636 C 0.85676 0.9752 0.64779 0.0
C3637 C 0.86619 0.96021 0.64565 0.0
C3638 C 0.88036 0.92265 0.66945 0.0
C3639 C 0.91665 0.89275 0.65937 0.0
C3640 C 0.9043 0.90696 0.65779 0.0
C3641 C 0.87357 0.9521 0.65975 0.0
C3642 C 0.88322 0.93601 0.65796 0.0
H3643 H 0.93972 0.86488 0.63551 0.0
H3644 H 0.91908 0.88797 0.63235 0.0
H3645 H 0.88836 0.89836 0.67858 0.0
H3646 H 0.86139 0.97958 0.69073 0.0
H3647 H 0.87754 0.95363 0.68697 0.0
C3648 C 0.32549 0.01405 0.12081 0.0
C3649 C 0.33374 0.0128 0.13658 0.0
C3650 C 0.32755 0.02845 0.1107 0.0
C3651 C 0.35279 0.06811 0.1049 0.0
H3652 H 0.31113 0.08305 0.08327 0.0
C3653 C 0.34896 0.12421 0.05656 0.0
C3654 C 0.3338 0.13364 0.0563 0.0
C3655 C 0.35057 0.11009 0.06731 0.0
C3656 C 0.32286 0.07925 0.08939 0.0
H3657 H 0.35112 0.02534 0.15387 0.0
H3658 H 0.35427 0.05089 0.13644 0.0
H3659 H 0.31116 0.05712 0.09969 0.0
H3660 H 0.30904 0.13661 0.068 0.0
H3661 H 0.31209 0.11265 0.08716 0.0
H3662 H 0.36425 0.09079 0.09497 0.0
C3663 C 0.34648 0.04057 0.13172 0.0
C3664 C 0.32295 0.06413 0.09858 0.0
C3665 C 0.34463 0.02597 0.14175 0.0
C3666 C 0.32077 0.12942 0.06772 0.0
C3667 C 0.32248 0.11558 0.07862 0.0
C3668 C 0.35265 0.08342 0.09576 0.0
C3669 C 0.33763 0.04213 0.11624 0.0
C3670 C 0.33791 0.05828 0.10639 0.0
C3671 C 0.33712 0.10534 0.07812 0.0
C3672 C 0.33763 0.08919 0.08795 0.0
H3673 H 0.31724 0.00396 0.11635 0.0
H3674 H 0.32094 0.02897 0.09863 0.0
H3675 H 0.36457 0.06393 0.11067 0.0
H3676 H 0.3592 0.1272 0.04784 0.0
H3677 H 0.362 0.10246 0.06656 0.0
C3678 C 0.34493 0.97236 0.86023 0.0
C3679 C 0.32922 0.98087 0.85931 0.0
C3680 C 0.34662 0.95749 0.86992 0.0
C3681 C 0.32096 0.92247 0.88718 0.0
H3682 H 0.35745 0.91609 0.91972 0.0
C3683 C 0.31548 0.87416 0.94092 0.0
C3684 C 0.32966 0.86417 0.94524 0.0
C3685 C 0.31701 0.88761 0.92951 0.0
C3686 C 0.34734 0.91756 0.91049 0.0
H3687 H 0.30303 0.98045 0.86813 0.0
H3688 H 0.30602 0.95472 0.88482 0.0
H3689 H 0.35739 0.94122 0.90129 0.0
H3690 H 0.3567 0.86072 0.94096 0.0
H3691 H 0.35933 0.88436 0.92086 0.0
H3692 H 0.31075 0.89905 0.89638 0.0
C3693 C 0.31699 0.95943 0.87796 0.0
C3694 C 0.34731 0.93195 0.89996 0.0
C3695 C 0.31533 0.97428 0.86845 0.0
C3696 C 0.34551 0.86814 0.93793 0.0
C3697 C 0.34704 0.88171 0.92647 0.0
C3698 C 0.32103 0.90814 0.8976 0.0
C3699 C 0.33258 0.95077 0.87869 0.0
C3700 C 0.33386 0.93473 0.88853 0.0
C3701 C 0.33275 0.89148 0.92203 0.0
C3702 C 0.33395 0.90574 0.90969 0.0
H3703 H 0.3559 0.97709 0.8534 0.0
H3704 H 0.35878 0.95105 0.87026 0.0
H3705 H 0.31064 0.92409 0.87822 0.0
H3706 H 0.30307 0.8716 0.9463 0.0
H3707 H 0.30581 0.8951 0.92665 0.0
C3708 C 0.02807 0.34645 0.85186 0.0
C3709 C 0.01583 0.33438 0.85676 0.0
C3710 C 0.04324 0.34813 0.86106 0.0
C3711 C 0.07152 0.35369 0.88753 0.0
H3712 H 0.09008 0.31119 0.90418 0.0
C3713 C 0.12664 0.34921 0.93669 0.0
C3714 C 0.13715 0.3348 0.93598 0.0
C3715 C 0.11294 0.35088 0.92542 0.0
C3716 C 0.08531 0.32319 0.89942 0.0
H3717 H 0.00937 0.31545 0.87575 0.0
H3718 H 0.03535 0.31873 0.89197 0.0
H3719 H 0.0641 0.31096 0.88788 0.0
H3720 H 0.14257 0.31164 0.92209 0.0
H3721 H 0.11941 0.31494 0.902 0.0
H3722 H 0.0932 0.36581 0.89881 0.0
C3723 C 0.03364 0.32647 0.88071 0.0
C3724 C 0.07016 0.32308 0.8903 0.0
C3725 C 0.01868 0.32464 0.87144 0.0
C3726 C 0.1345 0.32274 0.92311 0.0
C3727 C 0.12112 0.32459 0.91167 0.0
C3728 C 0.08686 0.35379 0.8966 0.0
C3729 C 0.04632 0.33788 0.8754 0.0
C3730 C 0.06291 0.33832 0.88445 0.0
C3731 C 0.10974 0.3383 0.91309 0.0
C3732 C 0.09389 0.33852 0.90274 0.0
H3733 H 0.02621 0.35413 0.84058 0.0
H3734 H 0.05276 0.35701 0.8566 0.0
H3735 H 0.06625 0.36566 0.88324 0.0
H3736 H 0.12841 0.35868 0.94653 0.0
H3737 H 0.10441 0.36157 0.92694 0.0
C3738 C 0.67473 0.12542 0.93398 0.0
C3739 C 0.66072 0.13303 0.94204 0.0
C3740 C 0.67239 0.11318 0.92144 0.0
C3741 C 0.64295 0.08073 0.90655 0.0
H3742 H 0.67363 0.08021 0.86795 0.0
C3743 C 0.64701 0.02553 0.85684 0.0
C3744 C 0.66372 0.01958 0.85447 0.0
C3745 C 0.64398 0.04055 0.86594 0.0
C3746 C 0.66492 0.08023 0.87861 0.0
H3747 H 0.63317 0.13375 0.94309 0.0
H3748 H 0.62908 0.11205 0.92105 0.0
H3749 H 0.6728 0.10499 0.88652 0.0
H3750 H 0.69031 0.0248 0.85987 0.0
H3751 H 0.685 0.05086 0.87544 0.0
H3752 H 0.63548 0.05565 0.8988 0.0
C3753 C 0.64188 0.1157 0.92457 0.0
C3754 C 0.66445 0.09439 0.88924 0.0
C3755 C 0.64423 0.12814 0.93712 0.0
C3756 C 0.67727 0.02895 0.86139 0.0
C3757 C 0.67426 0.04399 0.87023 0.0
C3758 C 0.64337 0.06653 0.89581 0.0
C3759 C 0.65597 0.10814 0.91659 0.0
C3760 C 0.65396 0.09453 0.90369 0.0
C3761 C 0.65762 0.04999 0.87254 0.0
C3762 C 0.65483 0.06594 0.88213 0.0
H3763 H 0.68763 0.12886 0.93736 0.0
H3764 H 0.68351 0.10738 0.91577 0.0
H3765 H 0.63477 0.08048 0.91761 0.0
H3766 H 0.63628 0.01859 0.85172 0.0
H3767 H 0.63103 0.04491 0.86759 0.0
C3768 C 0.97506 0.68136 0.86572 0.0
C3769 C 0.98119 0.66793 0.85566 0.0
C3770 C 0.96124 0.67899 0.87653 0.0
C3771 C 0.92364 0.65237 0.88402 0.0
H3772 H 0.92492 0.67449 0.92806 0.0
C3773 C 0.86856 0.65033 0.9342 0.0
C3774 C 0.86445 0.66633 0.94109 0.0
C3775 C 0.88296 0.64837 0.92385 0.0
C3776 C 0.92437 0.66825 0.91579 0.0
H3777 H 0.97738 0.6414 0.84904 0.0
H3778 H 0.95314 0.63726 0.86811 0.0
H3779 H 0.9501 0.67475 0.9101 0.0
H3780 H 0.87209 0.69289 0.94202 0.0
H3781 H 0.89694 0.6894 0.92422 0.0
H3782 H 0.89769 0.64611 0.88979 0.0
C3783 C 0.9591 0.64966 0.86749 0.0
C3784 C 0.93877 0.66842 0.90549 0.0
C3785 C 0.97302 0.65203 0.85663 0.0
C3786 C 0.87485 0.68033 0.93711 0.0
C3787 C 0.8892 0.67834 0.92695 0.0
C3788 C 0.90917 0.65214 0.89441 0.0
C3789 C 0.95314 0.66311 0.87764 0.0
C3790 C 0.93844 0.66093 0.88928 0.0
C3791 C 0.89355 0.66234 0.92039 0.0
C3792 C 0.90929 0.66052 0.91019 0.0
H3793 H 0.98088 0.69384 0.86526 0.0
H3794 H 0.95675 0.68972 0.8839 0.0
H3795 H 0.92298 0.64652 0.87157 0.0
H3796 H 0.86081 0.63929 0.93695 0.0
H3797 H 0.88603 0.63589 0.91892 0.0
C3798 C 0.65034 0.97387 0.13956 0.0
C3799 C 0.66612 0.98223 0.14075 0.0
C3800 C 0.64867 0.95908 0.12975 0.0
C3801 C 0.67416 0.92392 0.11271 0.0
H3802 H 0.63879 0.91879 0.07875 0.0
C3803 C 0.68105 0.87706 0.05792 0.0
C3804 C 0.66692 0.86742 0.05274 0.0
C3805 C 0.67925 0.89014 0.06972 0.0
C3806 C 0.64857 0.9199 0.08838 0.0
H3807 H 0.69244 0.98163 0.13235 0.0
H3808 H 0.68949 0.95601 0.1155 0.0
H3809 H 0.63855 0.94352 0.0977 0.0
H3810 H 0.6397 0.86419 0.05588 0.0
H3811 H 0.63659 0.88717 0.07665 0.0
H3812 H 0.68436 0.90055 0.10338 0.0
C3813 C 0.67845 0.96078 0.12221 0.0
C3814 C 0.64843 0.93405 0.0992 0.0
C3815 C 0.68009 0.97556 0.13181 0.0
C3816 C 0.65086 0.87134 0.05958 0.0
C3817 C 0.64905 0.88453 0.07143 0.0
C3818 C 0.67426 0.90981 0.102 0.0
C3819 C 0.66279 0.9523 0.12117 0.0
C3820 C 0.66151 0.93641 0.11114 0.0
C3821 C 0.66329 0.89396 0.07672 0.0
C3822 C 0.66176 0.90788 0.08939 0.0
H3823 H 0.63931 0.97868 0.14624 0.0
H3824 H 0.63645 0.95277 0.12916 0.0
H3825 H 0.6842 0.92523 0.12204 0.0
H3826 H 0.69363 0.87452 0.05292 0.0
H3827 H 0.69042 0.89739 0.07324 0.0
C3828 C 0.02374 0.64917 0.1376 0.0
C3829 C 0.01637 0.66542 0.13906 0.0
C3830 C 0.03752 0.64643 0.12661 0.0
C3831 C 0.0572 0.66487 0.08836 0.0
H3832 H 0.0985 0.64172 0.10206 0.0
C3833 C 0.11977 0.67616 0.05401 0.0
C3834 C 0.13015 0.66219 0.04991 0.0
C3835 C 0.10572 0.6742 0.06458 0.0
C3836 C 0.08694 0.64797 0.09798 0.0
H3837 H 0.01824 0.69164 0.13047 0.0
H3838 H 0.04199 0.68685 0.11157 0.0
H3839 H 0.07401 0.64241 0.12139 0.0
H3840 H 0.13398 0.63519 0.05415 0.0
H3841 H 0.10924 0.63181 0.07282 0.0
H3842 H 0.07008 0.67082 0.06521 0.0
C3843 C 0.03698 0.67615 0.11864 0.0
C3844 C 0.07294 0.64837 0.10903 0.0
C3845 C 0.02336 0.67889 0.12959 0.0
C3846 C 0.12623 0.64621 0.05697 0.0
C3847 C 0.11212 0.64427 0.0677 0.0
C3848 C 0.07109 0.66449 0.0774 0.0
C3849 C 0.04407 0.65988 0.11682 0.0
C3850 C 0.05813 0.65728 0.1045 0.0
C3851 C 0.10161 0.65823 0.07142 0.0
C3852 C 0.08628 0.65649 0.08227 0.0
H3853 H 0.01873 0.63852 0.14475 0.0
H3854 H 0.04278 0.63376 0.12546 0.0
H3855 H 0.0458 0.67149 0.08435 0.0
H3856 H 0.12239 0.68871 0.04896 0.0
H3857 H 0.09806 0.68527 0.06747 0.0
C3858 C 0.97444 0.31273 0.13035 0.0
C3859 C 0.98105 0.32649 0.13965 0.0
C3860 C 0.96037 0.31487 0.11983 0.0
C3861 C 0.92314 0.34167 0.1115 0.0
H3862 H 0.92481 0.31911 0.06769 0.0
C3863 C 0.86882 0.34395 0.06058 0.0
C3864 C 0.86474 0.328 0.05355 0.0
C3865 C 0.88305 0.34579 0.07116 0.0
C3866 C 0.92413 0.32546 0.0799 0.0
H3867 H 0.97767 0.35328 0.14542 0.0
H3868 H 0.95295 0.35698 0.12688 0.0
H3869 H 0.9497 0.31871 0.08604 0.0
H3870 H 0.87223 0.3014 0.05264 0.0
H3871 H 0.89677 0.30466 0.07088 0.0
H3872 H 0.89736 0.34816 0.1053 0.0
C3873 C 0.95877 0.34454 0.12785 0.0
C3874 C 0.93837 0.32521 0.09041 0.0
C3875 C 0.97295 0.34241 0.13841 0.0
C3876 C 0.87499 0.31393 0.05764 0.0
C3877 C 0.88916 0.31579 0.06806 0.0
C3878 C 0.90883 0.34195 0.1009 0.0
C3879 C 0.9525 0.33082 0.11828 0.0
C3880 C 0.9379 0.33289 0.10652 0.0
C3881 C 0.89349 0.33174 0.07475 0.0
C3882 C 0.90907 0.33343 0.0852 0.0
H3883 H 0.98018 0.30024 0.13108 0.0
H3884 H 0.95561 0.30396 0.1129 0.0
H3885 H 0.92242 0.34769 0.12386 0.0
H3886 H 0.86117 0.35505 0.05776 0.0
H3887 H 0.88612 0.35823 0.07619 0.0
C3888 C 0.63538 0.81966 0.52367 0.0
C3889 C 0.64378 0.8334 0.51588 0.0
C3890 C 0.62473 0.82226 0.53754 0.0
C3891 C 0.61418 0.85048 0.57276 0.0
H3892 H 0.57154 0.82576 0.57099 0.0
C3893 C 0.56204 0.85078 0.62625 0.0
C3894 C 0.5561 0.83444 0.63055 0.0
C3895 C 0.57278 0.85309 0.6122 0.0
C3896 C 0.58339 0.83275 0.57169 0.0
H3897 H 0.64799 0.86064 0.51713 0.0
H3898 H 0.6292 0.86515 0.54165 0.0
H3899 H 0.59032 0.82562 0.54644 0.0
H3900 H 0.55733 0.80769 0.62368 0.0
H3901 H 0.57581 0.81178 0.59942 0.0
H3902 H 0.60723 0.85726 0.59831 0.0
C3903 C 0.63096 0.85239 0.5368 0.0
C3904 C 0.59414 0.83266 0.55764 0.0
C3905 C 0.64167 0.84979 0.52277 0.0
C3906 C 0.56147 0.82049 0.62074 0.0
C3907 C 0.57202 0.82282 0.60674 0.0
C3908 C 0.60333 0.85059 0.58692 0.0
C3909 C 0.62213 0.83865 0.54407 0.0
C3910 C 0.60989 0.84104 0.5582 0.0
C3911 C 0.5776 0.83913 0.60215 0.0
C3912 C 0.58809 0.84125 0.58665 0.0
H3913 H 0.63683 0.80681 0.51895 0.0
H3914 H 0.61842 0.81137 0.54313 0.0
H3915 H 0.62625 0.85706 0.57352 0.0
H3916 H 0.55823 0.8618 0.63357 0.0
H3917 H 0.57694 0.8658 0.60893 0.0
C3918 C 0.15071 0.55618 0.62647 0.0
C3919 C 0.16581 0.55614 0.636 0.0
C3920 C 0.14916 0.56661 0.61211 0.0
C3921 C 0.17668 0.58896 0.58104 0.0
H3922 H 0.13444 0.60908 0.56563 0.0
C3923 C 0.15281 0.64048 0.52758 0.0
C3924 C 0.16388 0.63583 0.51435 0.0
C3925 C 0.15156 0.63047 0.54224 0.0
C3926 C 0.14638 0.60366 0.56983 0.0
H3927 H 0.1906 0.56785 0.63876 0.0
H3928 H 0.18765 0.58648 0.61436 0.0
H3929 H 0.13515 0.59354 0.5925 0.0
H3930 H 0.18148 0.6165 0.50562 0.0
H3931 H 0.17882 0.59874 0.53074 0.0
H3932 H 0.18814 0.59957 0.55892 0.0
C3933 C 0.17725 0.57799 0.61741 0.0
C3934 C 0.14674 0.59458 0.58515 0.0
C3935 C 0.1789 0.5674 0.63151 0.0
C3936 C 0.17303 0.62057 0.51571 0.0
C3937 C 0.17158 0.61044 0.53019 0.0
C3938 C 0.17637 0.59814 0.5659 0.0
C3939 C 0.16261 0.57735 0.60717 0.0
C3940 C 0.16193 0.58715 0.59097 0.0
C3941 C 0.1612 0.61547 0.54386 0.0
C3942 C 0.16122 0.60557 0.56001 0.0
H3943 H 0.14043 0.54758 0.62962 0.0
H3944 H 0.13773 0.5657 0.6045 0.0
H3945 H 0.18856 0.58315 0.58486 0.0
H3946 H 0.14565 0.65223 0.52691 0.0
H3947 H 0.14355 0.63484 0.55253 0.0
C3948 C 0.37187 0.17487 0.51845 0.0
C3949 C 0.35663 0.16572 0.5169 0.0
C3950 C 0.38219 0.17286 0.53269 0.0
C3951 C 0.39511 0.17622 0.56823 0.0
H3952 H 0.40126 0.13382 0.59258 0.0
C3953 C 0.42873 0.17599 0.63242 0.0
C3954 C 0.44028 0.16282 0.63582 0.0
C3955 C 0.41756 0.17489 0.61873 0.0
C3956 C 0.39978 0.14574 0.58584 0.0
H3957 H 0.34048 0.14688 0.52882 0.0
H3958 H 0.35826 0.14377 0.55417 0.0
H3959 H 0.38459 0.13422 0.56635 0.0
H3960 H 0.44879 0.13786 0.62787 0.0
H3961 H 0.42966 0.13618 0.6034 0.0
H3962 H 0.41078 0.18767 0.58708 0.0
C3963 C 0.36241 0.15226 0.54416 0.0
C3964 C 0.39005 0.14601 0.57091 0.0
C3965 C 0.35218 0.15408 0.52969 0.0
C3966 C 0.44001 0.14821 0.62555 0.0
C3967 C 0.42899 0.14723 0.61158 0.0
C3968 C 0.40492 0.17592 0.58295 0.0
C3969 C 0.37739 0.16189 0.54598 0.0
C3970 C 0.38764 0.16127 0.56189 0.0
C3971 C 0.41788 0.16075 0.60779 0.0
C3972 C 0.40733 0.16072 0.59205 0.0
H3973 H 0.37581 0.18372 0.50864 0.0
H3974 H 0.39388 0.18009 0.53335 0.0
H3975 H 0.3933 0.1883 0.56187 0.0
H3976 H 0.42842 0.18731 0.64027 0.0
H3977 H 0.40883 0.18532 0.61657 0.0
C3978 C 0.82799 0.37613 0.51662 0.0
C3979 C 0.83561 0.36002 0.51532 0.0
C3980 C 0.83101 0.38641 0.53077 0.0
C3981 C 0.84702 0.40831 0.55885 0.0
H3982 H 0.83564 0.38782 0.60225 0.0
C3983 C 0.85016 0.44444 0.62326 0.0
C3984 C 0.83459 0.44423 0.63203 0.0
C3985 C 0.85284 0.43359 0.60941 0.0
C3986 C 0.83901 0.39364 0.59023 0.0
H3987 H 0.85257 0.34215 0.5277 0.0
H3988 H 0.85746 0.36003 0.55273 0.0
H3989 H 0.83631 0.37021 0.57659 0.0
H3990 H 0.80986 0.43211 0.63353 0.0
H3991 H 0.81473 0.41293 0.60967 0.0
H3992 H 0.84943 0.4318 0.57248 0.0
C3993 C 0.84933 0.3647 0.54265 0.0
C3994 C 0.83949 0.38358 0.57561 0.0
C3995 C 0.84658 0.35454 0.52832 0.0
C3996 C 0.82196 0.43264 0.62699 0.0
C3997 C 0.82478 0.42159 0.61341 0.0
C3998 C 0.84684 0.41832 0.57354 0.0
C3999 C 0.84145 0.38067 0.54404 0.0
C4000 C 0.84312 0.3909 0.55974 0.0
C4001 C 0.84015 0.4221 0.60438 0.0
C4002 C 0.84245 0.41113 0.58928 0.0
H4003 H 0.81953 0.38073 0.50677 0.0
H4004 H 0.82466 0.3986 0.53162 0.0
H4005 H 0.84989 0.41422 0.54675 0.0
H4006 H 0.86011 0.45328 0.62682 0.0
H4007 H 0.8648 0.43419 0.60262 0.0
C4008 C 0.55755 0.14837 0.36813 0.0
C4009 C 0.55273 0.16475 0.36277 0.0
C4010 C 0.56969 0.14629 0.38103 0.0
C4011 C 0.60429 0.16949 0.40293 0.0
H4012 H 0.59516 0.13957 0.44103 0.0
C4013 C 0.63284 0.18077 0.46849 0.0
C4014 C 0.63966 0.16695 0.47755 0.0
C4015 C 0.6239 0.17817 0.45343 0.0
C4016 C 0.59802 0.14775 0.43033 0.0
H4017 H 0.55703 0.19176 0.36678 0.0
H4018 H 0.57784 0.18811 0.3891 0.0
H4019 H 0.57635 0.13912 0.4162 0.0
H4020 H 0.64219 0.13947 0.4779 0.0
H4021 H 0.62617 0.13495 0.45153 0.0
H4022 H 0.62551 0.17862 0.41726 0.0
C4023 C 0.57247 0.17685 0.38327 0.0
C4024 C 0.58728 0.14749 0.41613 0.0
C4025 C 0.56037 0.17893 0.37052 0.0
C4026 C 0.63715 0.1504 0.47121 0.0
C4027 C 0.62796 0.14779 0.45617 0.0
C4028 C 0.61493 0.1698 0.41709 0.0
C4029 C 0.57732 0.16054 0.38866 0.0
C4030 C 0.59002 0.15876 0.40252 0.0
C4031 C 0.62138 0.16169 0.44709 0.0
C4032 C 0.6116 0.15933 0.43115 0.0
H4033 H 0.55193 0.13717 0.36244 0.0
H4034 H 0.57321 0.13356 0.38492 0.0
H4035 H 0.60697 0.17804 0.39247 0.0
H4036 H 0.63447 0.1937 0.47295 0.0
H4037 H 0.61874 0.18911 0.44685 0.0
C4038 C 0.82069 0.55836 0.37414 0.0
C4039 C 0.83482 0.55126 0.36582 0.0
C4040 C 0.8228 0.57088 0.38647 0.0
C4041 C 0.85245 0.58772 0.41775 0.0
H4042 H 0.82045 0.62524 0.41826 0.0
C4043 C 0.84873 0.63875 0.47177 0.0
C4044 C 0.83213 0.64128 0.47795 0.0
C4045 C 0.85151 0.62918 0.45699 0.0
C4046 C 0.82951 0.61486 0.41827 0.0
H4047 H 0.86235 0.55178 0.36409 0.0
H4048 H 0.86602 0.57373 0.38595 0.0
H4049 H 0.82107 0.60597 0.39403 0.0
H4050 H 0.80547 0.63565 0.47337 0.0
H4051 H 0.81033 0.61921 0.44781 0.0
H4052 H 0.86048 0.59643 0.44234 0.0
C4053 C 0.85331 0.5695 0.38276 0.0
C4054 C 0.82986 0.60384 0.40442 0.0
C4055 C 0.85119 0.557 0.37023 0.0
C4056 C 0.81843 0.63403 0.46904 0.0
C4057 C 0.82119 0.62468 0.45428 0.0
C4058 C 0.85211 0.59882 0.43168 0.0
C4059 C 0.83909 0.57664 0.3909 0.0
C4060 C 0.8409 0.58981 0.40427 0.0
C4061 C 0.83771 0.62221 0.44803 0.0
C4062 C 0.84021 0.61214 0.4323 0.0
H4063 H 0.80787 0.55433 0.37111 0.0
H4064 H 0.81161 0.57591 0.39272 0.0
H4065 H 0.86107 0.57699 0.41798 0.0
H4066 H 0.85957 0.64412 0.47834 0.0
H4067 H 0.86438 0.62744 0.45243 0.0
C4068 C 0.35314 0.84095 0.47012 0.0
C4069 C 0.35787 0.83026 0.48362 0.0
C4070 C 0.36341 0.84223 0.45563 0.0
C4071 C 0.39071 0.84776 0.42857 0.0
H4072 H 0.41293 0.80598 0.41488 0.0
C4073 C 0.4399 0.8441 0.37343 0.0
C4074 C 0.44066 0.8289 0.36409 0.0
C4075 C 0.42908 0.84548 0.38751 0.0
C4076 C 0.40665 0.81773 0.41832 0.0
H4077 H 0.37754 0.81343 0.49307 0.0
H4078 H 0.39571 0.81619 0.46828 0.0
H4079 H 0.39573 0.80631 0.4403 0.0
H4080 H 0.42987 0.80368 0.3614 0.0
H4081 H 0.41058 0.8063 0.38531 0.0
H4082 H 0.40117 0.85892 0.40602 0.0
C4083 C 0.38378 0.82306 0.46845 0.0
C4084 C 0.39701 0.81801 0.43316 0.0
C4085 C 0.37342 0.82155 0.48274 0.0
C4086 C 0.42978 0.81547 0.36852 0.0
C4087 C 0.41879 0.81694 0.38234 0.0
C4088 C 0.40026 0.84743 0.41353 0.0
C4089 C 0.37871 0.83303 0.45449 0.0
C4090 C 0.38898 0.83303 0.43858 0.0
C4091 C 0.41865 0.83175 0.39235 0.0
C4092 C 0.40833 0.83238 0.40821 0.0
H4093 H 0.34118 0.84776 0.47044 0.0
H4094 H 0.35901 0.84993 0.44511 0.0
H4095 H 0.38482 0.85959 0.4324 0.0
H4096 H 0.44819 0.85465 0.37032 0.0
H4097 H 0.4294 0.85705 0.39497 0.0
C4098 C 0.14056 0.4384 0.36943 0.0
C4099 C 0.15619 0.43798 0.36079 0.0
C4100 C 0.13738 0.42703 0.38275 0.0
C4101 C 0.15042 0.38658 0.40195 0.0
H4102 H 0.14358 0.40873 0.44548 0.0
C4103 C 0.14757 0.35071 0.46663 0.0
C4104 C 0.16015 0.35648 0.47795 0.0
C4105 C 0.14377 0.35999 0.45194 0.0
C4106 C 0.14525 0.40238 0.43337 0.0
H4107 H 0.18028 0.42477 0.35856 0.0
H4108 H 0.17451 0.40467 0.38143 0.0
H4109 H 0.14222 0.42548 0.41927 0.0
H4110 H 0.17822 0.37666 0.48306 0.0
H4111 H 0.17124 0.39304 0.45764 0.0
H4112 H 0.15391 0.36355 0.41613 0.0
C4113 C 0.16482 0.41386 0.37805 0.0
C4114 C 0.14437 0.4119 0.41842 0.0
C4115 C 0.16816 0.42543 0.36505 0.0
C4116 C 0.16853 0.37187 0.47453 0.0
C4117 C 0.16446 0.3813 0.46007 0.0
C4118 C 0.15097 0.37698 0.4169 0.0
C4119 C 0.1496 0.41482 0.38729 0.0
C4120 C 0.14744 0.40417 0.40263 0.0
C4121 C 0.15218 0.37536 0.44858 0.0
C4122 C 0.14891 0.38492 0.43275 0.0
H4123 H 0.13116 0.448 0.36645 0.0
H4124 H 0.12556 0.42799 0.38974 0.0
H4125 H 0.15284 0.38037 0.3899 0.0
H4126 H 0.14097 0.33885 0.46893 0.0
H4127 H 0.13428 0.35518 0.4432 0.0
C4128 C 0.62797 0.55886 0.84877 0.0
C4129 C 0.63322 0.55406 0.83235 0.0
C4130 C 0.61541 0.57132 0.85096 0.0
C4131 C 0.59482 0.60694 0.82824 0.0
H4132 H 0.55598 0.59836 0.85737 0.0
C4133 C 0.53032 0.63745 0.81633 0.0
C4134 C 0.52103 0.64406 0.83009 0.0
C4135 C 0.54515 0.62818 0.81906 0.0
C4136 C 0.5669 0.60107 0.84943 0.0
H4137 H 0.62937 0.55874 0.80539 0.0
H4138 H 0.60766 0.58017 0.80923 0.0
H4139 H 0.58024 0.57881 0.85783 0.0
H4140 H 0.52005 0.64592 0.8576 0.0
H4141 H 0.54604 0.62935 0.86236 0.0
H4142 H 0.5813 0.62878 0.81935 0.0
C4143 C 0.61331 0.57449 0.82043 0.0
C4144 C 0.58077 0.5899 0.84969 0.0
C4145 C 0.62569 0.56204 0.81824 0.0
C4146 C 0.52693 0.64106 0.84672 0.0
C4147 C 0.54175 0.63154 0.84946 0.0
C4148 C 0.581 0.61802 0.82794 0.0
C4149 C 0.60805 0.57933 0.83678 0.0
C4150 C 0.59461 0.59244 0.83867 0.0
C4151 C 0.55104 0.62512 0.83562 0.0
C4152 C 0.56667 0.6149 0.83811 0.0
H4153 H 0.6335 0.55297 0.85992 0.0
H4154 H 0.6116 0.57483 0.86372 0.0
H4155 H 0.60548 0.60944 0.81989 0.0
H4156 H 0.5262 0.63946 0.80335 0.0
H4157 H 0.55189 0.62316 0.80815 0.0
C4158 C 0.43966 0.62907 0.84585 0.0
C4159 C 0.44553 0.63351 0.82953 0.0
C4160 C 0.42757 0.61615 0.84789 0.0
C4161 C 0.39455 0.59282 0.824 0.0
H4162 H 0.40113 0.55709 0.85733 0.0
C4163 C 0.3631 0.52782 0.81724 0.0
C4164 C 0.35597 0.52005 0.83167 0.0
C4165 C 0.37271 0.54261 0.81876 0.0
C4166 C 0.39897 0.56713 0.84815 0.0
H4167 H 0.44324 0.62774 0.80261 0.0
H4168 H 0.42243 0.60534 0.80622 0.0
H4169 H 0.42046 0.58148 0.85685 0.0
H4170 H 0.35353 0.52176 0.8591 0.0
H4171 H 0.37056 0.5477 0.86174 0.0
H4172 H 0.37339 0.57835 0.815 0.0
C4173 C 0.42698 0.61194 0.81742 0.0
C4174 C 0.41003 0.58108 0.84788 0.0
C4175 C 0.43905 0.62473 0.81538 0.0
C4176 C 0.35881 0.52743 0.84772 0.0
C4177 C 0.3686 0.54223 0.84925 0.0
C4178 C 0.38356 0.57892 0.82426 0.0
C4179 C 0.42102 0.60754 0.83366 0.0
C4180 C 0.40819 0.59383 0.83549 0.0
C4181 C 0.37554 0.55002 0.83475 0.0
C4182 C 0.38592 0.56571 0.83603 0.0
H4183 H 0.44437 0.63557 0.85703 0.0
H4184 H 0.42317 0.61305 0.86056 0.0
H4185 H 0.39256 0.60265 0.81456 0.0
H4186 H 0.36122 0.52255 0.80466 0.0
H4187 H 0.37813 0.54816 0.80738 0.0
C4188 C 0.37007 0.43908 0.85006 0.0
C4189 C 0.3645 0.44412 0.83381 0.0
C4190 C 0.38273 0.42665 0.85182 0.0
C4191 C 0.40314 0.39153 0.82816 0.0
H4192 H 0.44194 0.39937 0.85754 0.0
C4193 C 0.46731 0.35985 0.81662 0.0
C4194 C 0.47648 0.35335 0.83051 0.0
C4195 C 0.45258 0.36933 0.81917 0.0
C4196 C 0.43104 0.39687 0.84951 0.0
H4197 H 0.36791 0.43994 0.80671 0.0
H4198 H 0.38984 0.41858 0.80982 0.0
H4199 H 0.41784 0.41906 0.85825 0.0
H4200 H 0.47731 0.35183 0.85805 0.0
H4201 H 0.45149 0.36869 0.86248 0.0
H4202 H 0.4165 0.36971 0.819 0.0
C4203 C 0.38434 0.42404 0.8212 0.0
C4204 C 0.41726 0.40812 0.84992 0.0
C4205 C 0.37184 0.43644 0.81944 0.0
C4206 C 0.47053 0.35662 0.84707 0.0
C4207 C 0.45581 0.36631 0.84962 0.0
C4208 C 0.41688 0.38036 0.82773 0.0
C4209 C 0.3899 0.41894 0.83738 0.0
C4210 C 0.4034 0.40584 0.83886 0.0
C4211 C 0.44666 0.37269 0.83566 0.0
C4212 C 0.43118 0.38318 0.83802 0.0
H4213 H 0.36469 0.44472 0.8614 0.0
H4214 H 0.38675 0.42294 0.86445 0.0
H4215 H 0.39246 0.38922 0.81978 0.0
H4216 H 0.47147 0.35762 0.80369 0.0
H4217 H 0.44595 0.37431 0.80817 0.0
C4218 C 0.55807 0.3729 0.8157 0.0
C4219 C 0.55176 0.36422 0.83 0.0
C4220 C 0.57006 0.3858 0.81751 0.0
C4221 C 0.58724 0.41701 0.8476 0.0
H4222 H 0.62347 0.41962 0.81428 0.0
C4223 C 0.6386 0.47069 0.84629 0.0
C4224 C 0.64104 0.47799 0.83013 0.0
C4225 C 0.62882 0.4559 0.84814 0.0
C4226 C 0.61342 0.41907 0.82367 0.0
H4227 H 0.55314 0.36251 0.85751 0.0
H4228 H 0.5742 0.38519 0.86064 0.0
H4229 H 0.60433 0.39529 0.81419 0.0
H4230 H 0.63503 0.47538 0.80328 0.0
H4231 H 0.61819 0.44982 0.80655 0.0
H4232 H 0.59625 0.44105 0.85684 0.0
C4233 C 0.56972 0.38194 0.84803 0.0
C4234 C 0.60244 0.40516 0.82361 0.0
C4235 C 0.55771 0.36891 0.84622 0.0
C4236 C 0.63349 0.47017 0.81593 0.0
C4237 C 0.6239 0.4554 0.81777 0.0
C4238 C 0.59829 0.43097 0.84769 0.0
C4239 C 0.57611 0.39043 0.83366 0.0
C4240 C 0.58893 0.4042 0.83525 0.0
C4241 C 0.6215 0.44805 0.83385 0.0
C4242 C 0.61119 0.43234 0.8354 0.0
H4243 H 0.55381 0.3697 0.803 0.0
H4244 H 0.57448 0.39231 0.8062 0.0
H4245 H 0.57691 0.41664 0.8567 0.0
H4246 H 0.6442 0.4764 0.85749 0.0
H4247 H 0.62717 0.45048 0.86069 0.0
C4248 C 0.51894 0.37174 0.17879 0.0
C4249 C 0.51419 0.35994 0.16624 0.0
C4250 C 0.53213 0.38319 0.17591 0.0
C4251 C 0.57089 0.38987 0.15136 0.0
H4252 H 0.56542 0.43631 0.16702 0.0
C4253 C 0.62525 0.44002 0.14888 0.0
C4254 C 0.6275 0.44914 0.16412 0.0
C4255 C 0.61082 0.42986 0.14648 0.0
C4256 C 0.56716 0.42338 0.1626 0.0
H4257 H 0.51982 0.35086 0.14079 0.0
H4258 H 0.54312 0.37092 0.13584 0.0
H4259 H 0.54122 0.41699 0.16759 0.0
H4260 H 0.61618 0.45481 0.18866 0.0
H4261 H 0.59127 0.43718 0.18447 0.0
H4262 H 0.59702 0.39619 0.14686 0.0
C4263 C 0.53648 0.37123 0.14789 0.0
C4264 C 0.55331 0.41233 0.16292 0.0
C4265 C 0.52312 0.3598 0.15073 0.0
C4266 C 0.61492 0.44801 0.17676 0.0
C4267 C 0.60053 0.43798 0.17431 0.0
C4268 C 0.58481 0.40096 0.15105 0.0
C4269 C 0.54101 0.38313 0.16043 0.0
C4270 C 0.55514 0.39533 0.15778 0.0
C4271 C 0.59831 0.42877 0.15918 0.0
C4272 C 0.58318 0.41769 0.15715 0.0
H4273 H 0.51242 0.37225 0.19091 0.0
H4274 H 0.53553 0.39199 0.18594 0.0
H4275 H 0.57268 0.37681 0.14737 0.0
H4276 H 0.6347 0.44058 0.13889 0.0
H4277 H 0.60942 0.42294 0.13466 0.0
C4278 C 0.64039 0.53196 0.17653 0.0
C4279 C 0.6461 0.52169 0.16307 0.0
C4280 C 0.63015 0.54602 0.17343 0.0
C4281 C 0.6155 0.57748 0.14303 0.0
H4282 H 0.57571 0.57736 0.17217 0.0
C4283 C 0.56098 0.62909 0.14414 0.0
C4284 C 0.55693 0.63454 0.16071 0.0
C4285 C 0.5723 0.61551 0.14162 0.0
C4286 C 0.58674 0.57757 0.16392 0.0
H4287 H 0.64641 0.51886 0.13564 0.0
H4288 H 0.6283 0.54377 0.13021 0.0
H4289 H 0.59508 0.55328 0.17267 0.0
H4290 H 0.56247 0.63066 0.18751 0.0
H4291 H 0.58189 0.60723 0.18308 0.0
H4292 H 0.60719 0.60217 0.13467 0.0
C4293 C 0.63182 0.5407 0.14316 0.0
C4294 C 0.59781 0.5638 0.16421 0.0
C4295 C 0.64215 0.52648 0.14628 0.0
C4296 C 0.56499 0.62666 0.17458 0.0
C4297 C 0.57614 0.61319 0.17207 0.0
C4298 C 0.60432 0.59139 0.14274 0.0
C4299 C 0.62531 0.55023 0.15679 0.0
C4300 C 0.61259 0.56385 0.15422 0.0
C4301 C 0.5796 0.60719 0.15564 0.0
C4302 C 0.59016 0.59174 0.15364 0.0
H4303 H 0.64341 0.52889 0.18961 0.0
H4304 H 0.62561 0.55339 0.18414 0.0
H4305 H 0.62681 0.57775 0.13517 0.0
H4306 H 0.55507 0.63495 0.13318 0.0
H4307 H 0.57483 0.61113 0.12882 0.0
C4308 C 0.4812 0.62333 0.16956 0.0
C4309 C 0.48211 0.6391 0.16127 0.0
C4310 C 0.46689 0.61305 0.16781 0.0
C4311 C 0.43148 0.60062 0.1733 0.0
H4312 H 0.40397 0.59631 0.13264 0.0
C4313 C 0.36638 0.56953 0.1772 0.0
C4314 C 0.36186 0.55794 0.16441 0.0
C4315 C 0.38022 0.58034 0.17509 0.0
C4316 C 0.41159 0.5973 0.14405 0.0
H4317 H 0.46906 0.65621 0.14408 0.0
H4318 H 0.44364 0.63846 0.14147 0.0
H4319 H 0.43062 0.61237 0.13159 0.0
H4320 H 0.36785 0.54909 0.13902 0.0
H4321 H 0.39259 0.56769 0.13552 0.0
H4322 H 0.41301 0.5852 0.18568 0.0
C4323 C 0.45416 0.63388 0.14907 0.0
C4324 C 0.42677 0.60664 0.1435 0.0
C4325 C 0.46868 0.64409 0.15061 0.0
C4326 C 0.37106 0.55792 0.1491 0.0
C4327 C 0.38518 0.56861 0.14708 0.0
C4328 C 0.41649 0.59124 0.17381 0.0
C4329 C 0.45294 0.61842 0.158 0.0
C4330 C 0.4369 0.60839 0.15815 0.0
C4331 C 0.39018 0.57963 0.16027 0.0
C4332 C 0.40625 0.58956 0.15927 0.0
H4333 H 0.4915 0.619 0.17762 0.0
H4334 H 0.46665 0.60099 0.17445 0.0
H4335 H 0.43873 0.60192 0.18493 0.0
H4336 H 0.35937 0.57007 0.18904 0.0
H4337 H 0.38335 0.58904 0.1853 0.0
C4338 C 0.4336 0.37385 0.1829 0.0
C4339 C 0.43982 0.36532 0.16848 0.0
C4340 C 0.42182 0.38698 0.18128 0.0
C4341 C 0.40567 0.41887 0.15113 0.0
H4342 H 0.37054 0.42386 0.18534 0.0
C4343 C 0.35622 0.47435 0.15248 0.0
C4344 C 0.3546 0.48225 0.16846 0.0
C4345 C 0.36555 0.45926 0.15077 0.0
C4346 C 0.38029 0.42264 0.1757 0.0
H4347 H 0.43828 0.36392 0.14096 0.0
H4348 H 0.41752 0.38688 0.13816 0.0
H4349 H 0.38838 0.39857 0.18534 0.0
H4350 H 0.36171 0.48047 0.1951 0.0
H4351 H 0.37773 0.45432 0.19208 0.0
H4352 H 0.39756 0.44314 0.14166 0.0
C4353 C 0.42196 0.38342 0.15073 0.0
C4354 C 0.39054 0.40818 0.17571 0.0
C4355 C 0.4338 0.37021 0.15235 0.0
C4356 C 0.36262 0.47479 0.18259 0.0
C4357 C 0.37173 0.4597 0.18091 0.0
C4358 C 0.3953 0.43334 0.15106 0.0
C4359 C 0.41586 0.39196 0.1652 0.0
C4360 C 0.40367 0.40633 0.16374 0.0
C4361 C 0.37321 0.45171 0.16503 0.0
C4362 C 0.38282 0.43556 0.16364 0.0
H4363 H 0.43793 0.3705 0.19554 0.0
H4364 H 0.41765 0.39348 0.19268 0.0
H4365 H 0.41573 0.41788 0.14179 0.0
H4366 H 0.35025 0.47976 0.14132 0.0
H4367 H 0.36651 0.45334 0.13838 0.0
C4368 C 0.81577 0.52671 0.63486 0.0
C4369 C 0.83006 0.51908 0.64242 0.0
C4370 C 0.8174 0.54167 0.62551 0.0
C4371 C 0.84737 0.56687 0.6006 0.0
H4372 H 0.81328 0.60203 0.60627 0.0
C4373 C 0.84616 0.62889 0.56017 0.0
C4374 C 0.83004 0.63336 0.55381 0.0
C4375 C 0.84782 0.61602 0.57238 0.0
C4376 C 0.82286 0.59231 0.60448 0.0
H4377 H 0.85735 0.52122 0.64589 0.0
H4378 H 0.86017 0.54743 0.62932 0.0
H4379 H 0.8132 0.57745 0.62509 0.0
H4380 H 0.80304 0.62776 0.55547 0.0
H4381 H 0.80597 0.60543 0.57643 0.0
H4382 H 0.85671 0.58156 0.57962 0.0
C4383 C 0.84772 0.54173 0.63075 0.0
C4384 C 0.82283 0.57825 0.61528 0.0
C4385 C 0.84608 0.52677 0.64028 0.0
C4386 C 0.81567 0.62472 0.56001 0.0
C4387 C 0.81732 0.61197 0.57219 0.0
C4388 C 0.84737 0.58096 0.58972 0.0
C4389 C 0.83335 0.54937 0.62337 0.0
C4390 C 0.8348 0.56517 0.61318 0.0
C4391 C 0.83338 0.60747 0.57855 0.0
C4392 C 0.83483 0.59361 0.59128 0.0
H4393 H 0.80323 0.52119 0.6362 0.0
H4394 H 0.80613 0.54711 0.61975 0.0
H4395 H 0.8567 0.55694 0.59866 0.0
H4396 H 0.8575 0.63528 0.55569 0.0
H4397 H 0.86036 0.61287 0.5771 0.0
C4398 C 0.8341 0.47408 0.37324 0.0
C4399 C 0.8406 0.47625 0.35676 0.0
C4400 C 0.83807 0.45959 0.38264 0.0
C4401 C 0.85602 0.43107 0.40215 0.0
H4402 H 0.84055 0.38882 0.38195 0.0
C4403 C 0.85447 0.36761 0.43937 0.0
C4404 C 0.83793 0.36087 0.44004 0.0
C4405 C 0.85851 0.38035 0.42762 0.0
C4406 C 0.84516 0.40049 0.38764 0.0
H4407 H 0.85652 0.46513 0.33723 0.0
H4408 H 0.86301 0.43929 0.35359 0.0
H4409 H 0.84164 0.41472 0.36466 0.0
H4410 H 0.81295 0.36149 0.42838 0.0
H4411 H 0.82013 0.38341 0.40768 0.0
H4412 H 0.85897 0.417 0.42528 0.0
C4413 C 0.85509 0.44903 0.35925 0.0
C4414 C 0.84587 0.41524 0.37776 0.0
C4415 C 0.85143 0.46378 0.34995 0.0
C4416 C 0.82577 0.36651 0.42823 0.0
C4417 C 0.82991 0.37895 0.4163 0.0
C4418 C 0.85559 0.41627 0.41195 0.0
C4419 C 0.84835 0.44681 0.37563 0.0
C4420 C 0.85077 0.43075 0.38509 0.0
C4421 C 0.84619 0.38624 0.4161 0.0
C4422 C 0.84963 0.40098 0.40493 0.0
H4423 H 0.82578 0.48353 0.37881 0.0
H4424 H 0.83257 0.45809 0.39517 0.0
H4425 H 0.85984 0.44291 0.40806 0.0
H4426 H 0.86408 0.36354 0.44835 0.0
H4427 H 0.87115 0.38581 0.4277 0.0
C4428 C 0.52018 0.81931 0.37015 0.0
C4429 C 0.51515 0.83125 0.35784 0.0
C4430 C 0.5338 0.82267 0.38095 0.0
C4431 C 0.57303 0.84719 0.38491 0.0
H4432 H 0.56933 0.83326 0.43206 0.0
C4433 C 0.62894 0.85014 0.43395 0.0
C4434 C 0.63128 0.83475 0.44279 0.0
C4435 C 0.61442 0.85266 0.42391 0.0
C4436 C 0.57054 0.83726 0.41894 0.0
H4437 H 0.5207 0.85612 0.34721 0.0
H4438 H 0.5447 0.86191 0.36617 0.0
H4439 H 0.54431 0.83241 0.41384 0.0
H4440 H 0.62012 0.81 0.44796 0.0
H4441 H 0.59506 0.81446 0.43068 0.0
H4442 H 0.59948 0.85156 0.39002 0.0
C4443 C 0.53798 0.84996 0.36737 0.0
C4444 C 0.55624 0.83675 0.40851 0.0
C4445 C 0.5242 0.84665 0.35657 0.0
C4446 C 0.61882 0.82201 0.44136 0.0
C4447 C 0.60434 0.8246 0.43155 0.0
C4448 C 0.5874 0.84773 0.39541 0.0
C4449 C 0.54283 0.83802 0.37974 0.0
C4450 C 0.55744 0.84115 0.39125 0.0
C4451 C 0.60191 0.83995 0.42278 0.0
C4452 C 0.58638 0.84222 0.41237 0.0
H4453 H 0.51359 0.8073 0.3715 0.0
H4454 H 0.53743 0.81307 0.39014 0.0
H4455 H 0.57433 0.85064 0.37165 0.0
H4456 H 0.63832 0.86019 0.43475 0.0
H4457 H 0.61285 0.8646 0.41724 0.0
C4458 C 0.17237 0.63029 0.42662 0.0
C4459 C 0.16009 0.63397 0.43903 0.0
C4460 C 0.1702 0.61661 0.4156 0.0
C4461 C 0.13994 0.58381 0.39999 0.0
H4462 H 0.18166 0.55817 0.39437 0.0
C4463 C 0.16701 0.51459 0.37459 0.0
C4464 C 0.15853 0.51317 0.35895 0.0
C4465 C 0.16505 0.52906 0.38462 0.0
C4466 C 0.16982 0.56502 0.39594 0.0
H4467 H 0.13546 0.62683 0.44905 0.0
H4468 H 0.13187 0.60241 0.43003 0.0
H4469 H 0.182 0.58426 0.41057 0.0
H4470 H 0.14075 0.5255 0.34189 0.0
H4471 H 0.13766 0.55111 0.35926 0.0
H4472 H 0.12774 0.56404 0.38568 0.0
C4473 C 0.14306 0.61032 0.42865 0.0
C4474 C 0.17008 0.58021 0.40501 0.0
C4475 C 0.14511 0.62426 0.43957 0.0
C4476 C 0.14744 0.52624 0.3539 0.0
C4477 C 0.14563 0.54088 0.36388 0.0
C4478 C 0.13967 0.56846 0.39091 0.0
C4479 C 0.15588 0.60602 0.41693 0.0
C4480 C 0.1552 0.58988 0.40709 0.0
C4481 C 0.15477 0.54262 0.37916 0.0
C4482 C 0.15464 0.55887 0.38884 0.0
H4483 H 0.18393 0.6377 0.42573 0.0
H4484 H 0.18008 0.61401 0.40637 0.0
H4485 H 0.12827 0.59098 0.40131 0.0
H4486 H 0.17543 0.50462 0.37899 0.0
H4487 H 0.1719 0.52975 0.39654 0.0
C4488 C 0.46966 0.15039 0.35613 0.0
C4489 C 0.47753 0.16641 0.35479 0.0
C4490 C 0.45576 0.14803 0.36703 0.0
C4491 C 0.436 0.16706 0.405 0.0
H4492 H 0.39473 0.14406 0.39088 0.0
C4493 C 0.37303 0.1797 0.4376 0.0
C4494 C 0.36306 0.1658 0.44283 0.0
C4495 C 0.38696 0.17734 0.42698 0.0
C4496 C 0.40629 0.15027 0.39506 0.0
H4497 H 0.47654 0.19261 0.36352 0.0
H4498 H 0.45248 0.18849 0.38225 0.0
H4499 H 0.41951 0.14443 0.37191 0.0
H4500 H 0.35963 0.13853 0.4403 0.0
H4501 H 0.38414 0.13448 0.42139 0.0
H4502 H 0.42275 0.17338 0.42784 0.0
C4503 C 0.4572 0.17766 0.37517 0.0
C4504 C 0.42044 0.15049 0.38423 0.0
C4505 C 0.47099 0.18004 0.36432 0.0
C4506 C 0.36708 0.1495 0.4366 0.0
C4507 C 0.38106 0.14717 0.42577 0.0
C4508 C 0.42193 0.16689 0.41572 0.0
C4509 C 0.44956 0.16161 0.37683 0.0
C4510 C 0.43526 0.15934 0.38892 0.0
C4511 C 0.3913 0.16106 0.42117 0.0
C4512 C 0.40677 0.15894 0.41067 0.0
H4513 H 0.47434 0.13962 0.34895 0.0
H4514 H 0.45012 0.13551 0.36807 0.0
H4515 H 0.44738 0.17361 0.40915 0.0
H4516 H 0.37031 0.19248 0.44193 0.0
H4517 H 0.39444 0.18833 0.42336 0.0
C4518 C 0.18212 0.4734 0.63406 0.0
C4519 C 0.16808 0.48104 0.64206 0.0
C4520 C 0.18009 0.4588 0.62424 0.0
C4521 C 0.14946 0.43436 0.59926 0.0
H4522 H 0.18299 0.3986 0.60449 0.0
C4523 C 0.1495 0.37193 0.5591 0.0
C4524 C 0.16552 0.3673 0.55262 0.0
C4525 C 0.14805 0.38502 0.57111 0.0
C4526 C 0.17356 0.40849 0.60283 0.0
H4527 H 0.14077 0.47937 0.64569 0.0
H4528 H 0.13725 0.45378 0.62831 0.0
H4529 H 0.18364 0.42307 0.62342 0.0
H4530 H 0.19256 0.37292 0.55376 0.0
H4531 H 0.18997 0.39557 0.57439 0.0
H4532 H 0.13967 0.41988 0.57832 0.0
C4533 C 0.14983 0.4592 0.62976 0.0
C4534 C 0.17393 0.4225 0.61367 0.0
C4535 C 0.15187 0.4738 0.63975 0.0
C4536 C 0.17999 0.37606 0.55842 0.0
C4537 C 0.17854 0.389 0.5704 0.0
C4538 C 0.14911 0.4203 0.58833 0.0
C4539 C 0.16397 0.45146 0.62206 0.0
C4540 C 0.16218 0.43579 0.61174 0.0
C4541 C 0.1626 0.39359 0.57697 0.0
C4542 C 0.16145 0.40745 0.58974 0.0
H4543 H 0.1948 0.47859 0.63549 0.0
H4544 H 0.19119 0.4533 0.61823 0.0
H4545 H 0.14026 0.44445 0.59746 0.0
H4546 H 0.13809 0.36547 0.55491 0.0
H4547 H 0.13559 0.38827 0.57599 0.0
C4548 C 0.61991 0.1801 0.55973 0.0
C4549 C 0.62885 0.16606 0.55322 0.0
C4550 C 0.60718 0.17791 0.57181 0.0
C4551 C 0.57658 0.14736 0.58886 0.0
H4552 H 0.57387 0.1804 0.62537 0.0
C4553 C 0.5231 0.14809 0.64039 0.0
C4554 C 0.51575 0.16419 0.64308 0.0
C4555 C 0.53779 0.1464 0.63046 0.0
C4556 C 0.57445 0.17109 0.61524 0.0
H4557 H 0.63122 0.13858 0.55431 0.0
H4558 H 0.60874 0.13477 0.57557 0.0
H4559 H 0.59822 0.18066 0.60628 0.0
H4560 H 0.51812 0.1911 0.63731 0.0
H4561 H 0.54357 0.18812 0.62017 0.0
H4562 H 0.55252 0.13804 0.59776 0.0
C4563 C 0.6117 0.14748 0.57118 0.0
C4564 C 0.58838 0.17123 0.60431 0.0
C4565 C 0.62459 0.14968 0.55906 0.0
C4566 C 0.52339 0.1785 0.63557 0.0
C4567 C 0.53807 0.17683 0.62582 0.0
C4568 C 0.56259 0.14718 0.59989 0.0
C4569 C 0.60298 0.16162 0.57777 0.0
C4570 C 0.58936 0.15972 0.59068 0.0
C4571 C 0.54549 0.1608 0.62322 0.0
C4572 C 0.56118 0.15938 0.61287 0.0
H4573 H 0.62275 0.19292 0.55557 0.0
H4574 H 0.60047 0.18904 0.57637 0.0
H4575 H 0.57697 0.13836 0.57845 0.0
H4576 H 0.51753 0.13679 0.64595 0.0
H4577 H 0.54327 0.1339 0.62866 0.0
C4578 C 0.47934 0.82291 0.62469 0.0
C4579 C 0.48181 0.83312 0.63911 0.0
C4580 C 0.46459 0.82438 0.61502 0.0
C4581 C 0.42835 0.8208 0.60429 0.0
H4582 H 0.40501 0.86328 0.59539 0.0
C4583 C 0.36393 0.81996 0.57142 0.0
C4584 C 0.36109 0.83206 0.55863 0.0
C4585 C 0.37744 0.82181 0.58271 0.0
C4586 C 0.41143 0.85133 0.59768 0.0
H4587 H 0.47093 0.85325 0.65446 0.0
H4588 H 0.44476 0.85547 0.63782 0.0
H4589 H 0.43179 0.86345 0.61117 0.0
H4590 H 0.36965 0.85599 0.54805 0.0
H4591 H 0.39383 0.85892 0.56739 0.0
H4592 H 0.40865 0.80867 0.59026 0.0
C4593 C 0.45443 0.84654 0.6338 0.0
C4594 C 0.42668 0.8514 0.60688 0.0
C4595 C 0.46938 0.84523 0.64338 0.0
C4596 C 0.37156 0.8465 0.55784 0.0
C4597 C 0.38537 0.84818 0.56897 0.0
C4598 C 0.41329 0.82073 0.595 0.0
C4599 C 0.45173 0.83589 0.61968 0.0
C4600 C 0.43537 0.83612 0.61019 0.0
C4601 C 0.38874 0.83558 0.58124 0.0
C4602 C 0.40458 0.83597 0.59158 0.0
H4603 H 0.48881 0.81366 0.62089 0.0
H4604 H 0.4632 0.81633 0.60394 0.0
H4605 H 0.43446 0.80873 0.60686 0.0
H4606 H 0.35589 0.80883 0.5725 0.0
H4607 H 0.37928 0.81214 0.59234 0.0
loop_
_geom_bond_atom_site_label_1
_geom_bond_atom_site_label_2
_geom_bond_distance
_geom_bond_site_symmetry_2
_ccdc_geom_bond_type
Mn0 O5 2.095 . S
Mn0 O15 2.162 . S
Mn0 O16 2.297 . S
Mn0 O24 2.385 . S
Mn0 O25 2.209 . S
Mn0 O26 2.094 . S
Mn1 O6 2.121 . S
Mn1 N8 2.257 . S
Mn1 N17 2.298 . S
Mn1 O25 2.215 . S
Mn1 O27 2.117 . S
C2 O24 1.234 . S
C2 O25 1.283 . S
C3 O15 1.281 . S
C3 O16 1.236 . S
C4 O26 1.240 1_655 S
C4 O27 1.264 1_655 S
O5 Mn0 2.095 . S
O5 C14 1.250 . S
O6 Mn1 2.121 . S
O6 C14 1.258 . S
C7 N8 1.326 . S
C7 C11 1.460 . S
C7 H13 0.929 . S
N8 Mn1 2.257 . S
N8 C7 1.326 . S
N8 C12 1.362 . S
C9 C10 1.258 . S
C9 C12 1.431 . S
C9 C29 1.449 . S
C10 C9 1.258 . S
C10 C11 1.477 . S
C10 H30 0.931 . S
C11 C7 1.460 . S
C11 C10 1.477 . S
C11 H31 0.930 . S
C12 N8 1.362 . S
C12 C9 1.431 . S
C12 C22 1.476 . S
H13 C7 0.929 . S
C14 O5 1.250 . S
C14 O6 1.258 . S
O15 Mn0 2.162 . S
O15 C3 1.281 . S
O16 Mn0 2.297 . S
O16 C3 1.236 . S
N17 Mn1 2.298 . S
N17 C18 1.307 1_455 S
N17 C22 1.324 . S
C18 N17 1.307 1_655 S
C18 C19 1.457 . S
C18 H23 0.929 . S
C19 C18 1.457 . S
C19 C20 1.291 . S
C19 H32 0.931 . S
C20 C19 1.291 . S
C20 C21 1.373 . S
C20 H33 0.929 . S
C21 C20 1.373 . S
C21 C22 1.396 1_655 S
C21 C28 1.401 1_655 S
C22 C12 1.476 . S
C22 N17 1.324 . S
C22 C21 1.396 1_455 S
H23 C18 0.929 . S
O24 Mn0 2.385 . S
O24 C2 1.234 . S
O25 Mn0 2.209 . S
O25 Mn1 2.215 . S
O25 C2 1.283 . S
O26 Mn0 2.094 . S
O26 C4 1.240 1_455 S
O27 Mn1 2.117 . S
O27 C4 1.264 1_455 S
C28 C21 1.401 1_455 S
C28 C29 1.404 . S
C28 H34 0.926 1_455 S
C29 C9 1.449 . S
C29 C28 1.404 . S
C29 H35 0.930 . S
H30 C10 0.931 . S
H31 C11 0.930 . S
H32 C19 0.931 . S
H33 C20 0.929 . S
H34 C28 0.926 1_655 S
H35 C29 0.930 . S
Mn36 O41 2.095 . S
Mn36 O51 2.162 . S
Mn36 O52 2.297 . S
Mn36 O60 2.385 . S
Mn36 O61 2.209 . S
Mn36 O62 2.094 . S
Mn37 O42 2.121 . S
Mn37 N44 2.257 . S
Mn37 N53 2.298 . S
Mn37 O61 2.215 . S
Mn37 O63 2.117 . S
C38 O60 1.234 . S
C38 O61 1.283 . S
C39 O51 1.281 . S
C39 O52 1.236 . S
C40 O62 1.240 1_565 S
C40 O63 1.264 1_565 S
O41 Mn36 2.095 . S
O41 C50 1.250 . S
O42 Mn37 2.121 . S
O42 C50 1.258 . S
C43 N44 1.326 . S
C43 C47 1.460 . S
C43 H49 0.929 . S
N44 Mn37 2.257 . S
N44 C43 1.326 . S
N44 C48 1.362 . S
C45 C46 1.258 . S
C45 C48 1.431 . S
C45 C65 1.449 . S
C46 C45 1.258 . S
C46 C47 1.477 . S
C46 H66 0.931 . S
C47 C43 1.460 . S
C47 C46 1.477 . S
C47 H67 0.930 . S
C48 N44 1.362 . S
C48 C45 1.431 . S
C48 C58 1.476 . S
H49 C43 0.929 . S
C50 O41 1.250 . S
C50 O42 1.258 . S
O51 Mn36 2.162 . S
O51 C39 1.281 . S
O52 Mn36 2.297 . S
O52 C39 1.236 . S
N53 Mn37 2.298 . S
N53 C54 1.307 1_545 S
N53 C58 1.324 . S
C54 N53 1.307 1_565 S
C54 C55 1.457 . S
C54 H59 0.929 . S
C55 C54 1.457 . S
C55 C56 1.291 . S
C55 H68 0.931 . S
C56 C55 1.291 . S
C56 C57 1.373 . S
C56 H69 0.929 . S
C57 C56 1.373 . S
C57 C58 1.396 1_565 S
C57 C64 1.401 1_565 S
C58 C48 1.476 . S
C58 N53 1.324 . S
C58 C57 1.396 1_545 S
H59 C54 0.929 . S
O60 Mn36 2.385 . S
O60 C38 1.234 . S
O61 Mn36 2.209 . S
O61 Mn37 2.215 . S
O61 C38 1.283 . S
O62 Mn36 2.094 . S
O62 C40 1.240 1_545 S
O63 Mn37 2.117 . S
O63 C40 1.264 1_545 S
C64 C57 1.401 1_545 S
C64 C65 1.404 . S
C64 H70 0.926 1_545 S
C65 C45 1.449 . S
C65 C64 1.404 . S
C65 H71 0.930 . S
H66 C46 0.931 . S
H67 C47 0.930 . S
H68 C55 0.931 . S
H69 C56 0.929 . S
H70 C64 0.926 1_565 S
H71 C65 0.930 . S
Mn72 O77 2.095 . S
Mn72 O87 2.162 . S
Mn72 O88 2.297 . S
Mn72 O96 2.385 . S
Mn72 O97 2.209 . S
Mn72 O98 2.094 . S
Mn73 O78 2.121 . S
Mn73 N80 2.257 . S
Mn73 N89 2.298 . S
Mn73 O97 2.215 . S
Mn73 O99 2.117 . S
C74 O96 1.234 . S
C74 O97 1.283 . S
C75 O87 1.281 . S
C75 O88 1.236 . S
C76 O98 1.240 1_455 S
C76 O99 1.264 1_455 S
O77 Mn72 2.095 . S
O77 C86 1.250 . S
O78 Mn73 2.121 . S
O78 C86 1.258 . S
C79 N80 1.326 . S
C79 C83 1.460 . S
C79 H85 0.929 . S
N80 Mn73 2.257 . S
N80 C79 1.326 . S
N80 C84 1.362 . S
C81 C82 1.258 . S
C81 C84 1.431 . S
C81 C101 1.449 . S
C82 C81 1.258 . S
C82 C83 1.477 . S
C82 H102 0.931 . S
C83 C79 1.460 . S
C83 C82 1.477 . S
C83 H103 0.930 . S
C84 N80 1.362 . S
C84 C81 1.431 . S
C84 C94 1.476 . S
H85 C79 0.929 . S
C86 O77 1.250 . S
C86 O78 1.258 . S
O87 Mn72 2.162 . S
O87 C75 1.281 . S
O88 Mn72 2.297 . S
O88 C75 1.236 . S
N89 Mn73 2.298 . S
N89 C90 1.307 1_655 S
N89 C94 1.324 . S
C90 N89 1.307 1_455 S
C90 C91 1.457 . S
C90 H95 0.929 . S
C91 C90 1.457 . S
C91 C92 1.291 . S
C91 H104 0.931 . S
C92 C91 1.291 . S
C92 C93 1.373 . S
C92 H105 0.929 . S
C93 C92 1.373 . S
C93 C94 1.396 1_455 S
C93 C100 1.401 1_455 S
C94 C84 1.476 . S
C94 N89 1.324 . S
C94 C93 1.396 1_655 S
H95 C90 0.929 . S
O96 Mn72 2.385 . S
O96 C74 1.234 . S
O97 Mn72 2.209 . S
O97 Mn73 2.215 . S
O97 C74 1.283 . S
O98 Mn72 2.094 . S
O98 C76 1.240 1_655 S
O99 Mn73 2.117 . S
O99 C76 1.264 1_655 S
C100 C93 1.401 1_655 S
C100 C101 1.404 . S
C100 H106 0.926 1_655 S
C101 C81 1.449 . S
C101 C100 1.404 . S
C101 H107 0.930 . S
H102 C82 0.931 . S
H103 C83 0.930 . S
H104 C91 0.931 . S
H105 C92 0.929 . S
H106 C100 0.926 1_455 S
H107 C101 0.930 . S
Mn108 O113 2.095 . S
Mn108 O123 2.162 . S
Mn108 O124 2.297 . S
Mn108 O132 2.385 . S
Mn108 O133 2.209 . S
Mn108 O134 2.094 . S
Mn109 O114 2.121 . S
Mn109 N116 2.257 . S
Mn109 N125 2.298 . S
Mn109 O133 2.215 . S
Mn109 O135 2.117 . S
C110 O132 1.234 . S
C110 O133 1.283 . S
C111 O123 1.281 . S
C111 O124 1.236 . S
C112 O134 1.240 1_545 S
C112 O135 1.264 1_545 S
O113 Mn108 2.095 . S
O113 C122 1.250 . S
O114 Mn109 2.121 . S
O114 C122 1.258 . S
C115 N116 1.326 . S
C115 C119 1.460 . S
C115 H121 0.929 . S
N116 Mn109 2.257 . S
N116 C115 1.326 . S
N116 C120 1.362 . S
C117 C118 1.258 . S
C117 C120 1.431 . S
C117 C137 1.449 . S
C118 C117 1.258 . S
C118 C119 1.477 . S
C118 H138 0.931 . S
C119 C115 1.460 . S
C119 C118 1.477 . S
C119 H139 0.930 . S
C120 N116 1.362 . S
C120 C117 1.431 . S
C120 C130 1.476 . S
H121 C115 0.929 . S
C122 O113 1.250 . S
C122 O114 1.258 . S
O123 Mn108 2.162 . S
O123 C111 1.281 . S
O124 Mn108 2.297 . S
O124 C111 1.236 . S
N125 Mn109 2.298 . S
N125 C126 1.307 1_565 S
N125 C130 1.324 . S
C126 N125 1.307 1_545 S
C126 C127 1.457 . S
C126 H131 0.929 . S
C127 C126 1.457 . S
C127 C128 1.291 . S
C127 H140 0.931 . S
C128 C127 1.291 . S
C128 C129 1.373 . S
C128 H141 0.929 . S
C129 C128 1.373 . S
C129 C130 1.396 1_545 S
C129 C136 1.401 1_545 S
C130 C120 1.476 . S
C130 N125 1.324 . S
C130 C129 1.396 1_565 S
H131 C126 0.929 . S
O132 Mn108 2.385 . S
O132 C110 1.234 . S
O133 Mn108 2.209 . S
O133 Mn109 2.215 . S
O133 C110 1.283 . S
O134 Mn108 2.094 . S
O134 C112 1.240 1_565 S
O135 Mn109 2.117 . S
O135 C112 1.264 1_565 S
C136 C129 1.401 1_565 S
C136 C137 1.404 . S
C136 H142 0.926 1_565 S
C137 C117 1.449 . S
C137 C136 1.404 . S
C137 H143 0.930 . S
H138 C118 0.931 . S
H139 C119 0.930 . S
H140 C127 0.931 . S
H141 C128 0.929 . S
H142 C136 0.926 1_545 S
H143 C137 0.930 . S
Mn144 O149 2.095 . S
Mn144 O159 2.162 . S
Mn144 O160 2.297 . S
Mn144 O168 2.385 . S
Mn144 O169 2.209 . S
Mn144 O170 2.094 . S
Mn145 O150 2.121 . S
Mn145 N152 2.257 . S
Mn145 N161 2.298 . S
Mn145 O169 2.215 . S
Mn145 O171 2.117 . S
C146 O168 1.234 . S
C146 O169 1.283 . S
C147 O159 1.281 . S
C147 O160 1.236 . S
C148 O170 1.240 1_655 S
C148 O171 1.264 1_655 S
O149 Mn144 2.095 . S
O149 C158 1.250 . S
O150 Mn145 2.121 . S
O150 C158 1.258 . S
C151 N152 1.326 . S
C151 C155 1.460 . S
C151 H157 0.929 . S
N152 Mn145 2.257 . S
N152 C151 1.326 . S
N152 C156 1.362 . S
C153 C154 1.258 . S
C153 C156 1.431 . S
C153 C173 1.449 . S
C154 C153 1.258 . S
C154 C155 1.477 . S
C154 H174 0.931 . S
C155 C151 1.460 . S
C155 C154 1.477 . S
C155 H175 0.930 . S
C156 N152 1.362 . S
C156 C153 1.431 . S
C156 C166 1.476 . S
H157 C151 0.929 . S
C158 O149 1.250 . S
C158 O150 1.258 . S
O159 Mn144 2.162 . S
O159 C147 1.281 . S
O160 Mn144 2.297 . S
O160 C147 1.236 . S
N161 Mn145 2.298 . S
N161 C162 1.307 1_455 S
N161 C166 1.324 . S
C162 N161 1.307 1_655 S
C162 C163 1.457 . S
C162 H167 0.929 . S
C163 C162 1.457 . S
C163 C164 1.291 . S
C163 H176 0.931 . S
C164 C163 1.291 . S
C164 C165 1.373 . S
C164 H177 0.929 . S
C165 C164 1.373 . S
C165 C166 1.396 1_655 S
C165 C172 1.401 1_655 S
C166 C156 1.476 . S
C166 N161 1.324 . S
C166 C165 1.396 1_455 S
H167 C162 0.929 . S
O168 Mn144 2.385 . S
O168 C146 1.234 . S
O169 Mn144 2.209 . S
O169 Mn145 2.215 . S
O169 C146 1.283 . S
O170 Mn144 2.094 . S
O170 C148 1.240 1_455 S
O171 Mn145 2.117 . S
O171 C148 1.264 1_455 S
C172 C165 1.401 1_455 S
C172 C173 1.404 . S
C172 H178 0.926 1_455 S
C173 C153 1.449 . S
C173 C172 1.404 . S
C173 H179 0.930 . S
H174 C154 0.931 . S
H175 C155 0.930 . S
H176 C163 0.931 . S
H177 C164 0.929 . S
H178 C172 0.926 1_655 S
H179 C173 0.930 . S
Mn180 O185 2.095 . S
Mn180 O195 2.162 . S
Mn180 O196 2.297 . S
Mn180 O204 2.385 . S
Mn180 O205 2.209 . S
Mn180 O206 2.094 . S
Mn181 O186 2.121 . S
Mn181 N188 2.257 . S
Mn181 N197 2.298 . S
Mn181 O205 2.215 . S
Mn181 O207 2.117 . S
C182 O204 1.234 . S
C182 O205 1.283 . S
C183 O195 1.281 . S
C183 O196 1.236 . S
C184 O206 1.240 1_565 S
C184 O207 1.264 1_565 S
O185 Mn180 2.095 . S
O185 C194 1.250 . S
O186 Mn181 2.121 . S
O186 C194 1.258 . S
C187 N188 1.326 . S
C187 C191 1.460 . S
C187 H193 0.929 . S
N188 Mn181 2.257 . S
N188 C187 1.326 . S
N188 C192 1.362 . S
C189 C190 1.258 . S
C189 C192 1.431 . S
C189 C209 1.449 . S
C190 C189 1.258 . S
C190 C191 1.477 . S
C190 H210 0.931 . S
C191 C187 1.460 . S
C191 C190 1.477 . S
C191 H211 0.930 . S
C192 N188 1.362 . S
C192 C189 1.431 . S
C192 C202 1.476 . S
H193 C187 0.929 . S
C194 O185 1.250 . S
C194 O186 1.258 . S
O195 Mn180 2.162 . S
O195 C183 1.281 . S
O196 Mn180 2.297 . S
O196 C183 1.236 . S
N197 Mn181 2.298 . S
N197 C198 1.307 1_545 S
N197 C202 1.324 . S
C198 N197 1.307 1_565 S
C198 C199 1.457 . S
C198 H203 0.929 . S
C199 C198 1.457 . S
C199 C200 1.291 . S
C199 H212 0.931 . S
C200 C199 1.291 . S
C200 C201 1.373 . S
C200 H213 0.929 . S
C201 C200 1.373 . S
C201 C202 1.396 1_565 S
C201 C208 1.401 1_565 S
C202 C192 1.476 . S
C202 N197 1.324 . S
C202 C201 1.396 1_545 S
H203 C198 0.929 . S
O204 Mn180 2.385 . S
O204 C182 1.234 . S
O205 Mn180 2.209 . S
O205 Mn181 2.215 . S
O205 C182 1.283 . S
O206 Mn180 2.094 . S
O206 C184 1.240 1_545 S
O207 Mn181 2.117 . S
O207 C184 1.264 1_545 S
C208 C201 1.401 1_545 S
C208 C209 1.404 . S
C208 H214 0.926 1_545 S
C209 C189 1.449 . S
C209 C208 1.404 . S
C209 H215 0.930 . S
H210 C190 0.931 . S
H211 C191 0.930 . S
H212 C199 0.931 . S
H213 C200 0.929 . S
H214 C208 0.926 1_565 S
H215 C209 0.930 . S
Mn216 O221 2.095 . S
Mn216 O231 2.162 . S
Mn216 O232 2.297 . S
Mn216 O240 2.385 . S
Mn216 O241 2.209 . S
Mn216 O242 2.094 . S
Mn217 O222 2.121 . S
Mn217 N224 2.257 . S
Mn217 N233 2.298 . S
Mn217 O241 2.215 . S
Mn217 O243 2.117 . S
C218 O240 1.234 . S
C218 O241 1.283 . S
C219 O231 1.281 . S
C219 O232 1.236 . S
C220 O242 1.240 1_455 S
C220 O243 1.264 1_455 S
O221 Mn216 2.095 . S
O221 C230 1.250 . S
O222 Mn217 2.121 . S
O222 C230 1.258 . S
C223 N224 1.326 . S
C223 C227 1.460 . S
C223 H229 0.929 . S
N224 Mn217 2.257 . S
N224 C223 1.326 . S
N224 C228 1.362 . S
C225 C226 1.258 . S
C225 C228 1.431 . S
C225 C245 1.449 . S
C226 C225 1.258 . S
C226 C227 1.477 . S
C226 H246 0.931 . S
C227 C223 1.460 . S
C227 C226 1.477 . S
C227 H247 0.930 . S
C228 N224 1.362 . S
C228 C225 1.431 . S
C228 C238 1.476 . S
H229 C223 0.929 . S
C230 O221 1.250 . S
C230 O222 1.258 . S
O231 Mn216 2.162 . S
O231 C219 1.281 . S
O232 Mn216 2.297 . S
O232 C219 1.236 . S
N233 Mn217 2.298 . S
N233 C234 1.307 1_655 S
N233 C238 1.324 . S
C234 N233 1.307 1_455 S
C234 C235 1.457 . S
C234 H239 0.929 . S
C235 C234 1.457 . S
C235 C236 1.291 . S
C235 H248 0.931 . S
C236 C235 1.291 . S
C236 C237 1.373 . S
C236 H249 0.929 . S
C237 C236 1.373 . S
C237 C238 1.396 1_455 S
C237 C244 1.401 1_455 S
C238 C228 1.476 . S
C238 N233 1.324 . S
C238 C237 1.396 1_655 S
H239 C234 0.929 . S
O240 Mn216 2.385 . S
O240 C218 1.234 . S
O241 Mn216 2.209 . S
O241 Mn217 2.215 . S
O241 C218 1.283 . S
O242 Mn216 2.094 . S
O242 C220 1.240 1_655 S
O243 Mn217 2.117 . S
O243 C220 1.264 1_655 S
C244 C237 1.401 1_655 S
C244 C245 1.404 . S
C244 H250 0.926 1_655 S
C245 C225 1.449 . S
C245 C244 1.404 . S
C245 H251 0.930 . S
H246 C226 0.931 . S
H247 C227 0.930 . S
H248 C235 0.931 . S
H249 C236 0.929 . S
H250 C244 0.926 1_455 S
H251 C245 0.930 . S
Mn252 O257 2.095 . S
Mn252 O267 2.162 . S
Mn252 O268 2.297 . S
Mn252 O276 2.385 . S
Mn252 O277 2.209 . S
Mn252 O278 2.094 . S
Mn253 O258 2.121 . S
Mn253 N260 2.257 . S
Mn253 N269 2.298 . S
Mn253 O277 2.215 . S
Mn253 O279 2.117 . S
C254 O276 1.234 . S
C254 O277 1.283 . S
C255 O267 1.281 . S
C255 O268 1.236 . S
C256 O278 1.240 1_545 S
C256 O279 1.264 1_545 S
O257 Mn252 2.095 . S
O257 C266 1.250 . S
O258 Mn253 2.121 . S
O258 C266 1.258 . S
C259 N260 1.326 . S
C259 C263 1.460 . S
C259 H265 0.929 . S
N260 Mn253 2.257 . S
N260 C259 1.326 . S
N260 C264 1.362 . S
C261 C262 1.258 . S
C261 C264 1.431 . S
C261 C281 1.449 . S
C262 C261 1.258 . S
C262 C263 1.477 . S
C262 H282 0.931 . S
C263 C259 1.460 . S
C263 C262 1.477 . S
C263 H283 0.930 . S
C264 N260 1.362 . S
C264 C261 1.431 . S
C264 C274 1.476 . S
H265 C259 0.929 . S
C266 O257 1.250 . S
C266 O258 1.258 . S
O267 Mn252 2.162 . S
O267 C255 1.281 . S
O268 Mn252 2.297 . S
O268 C255 1.236 . S
N269 Mn253 2.298 . S
N269 C270 1.307 1_565 S
N269 C274 1.324 . S
C270 N269 1.307 1_545 S
C270 C271 1.457 . S
C270 H275 0.929 . S
C271 C270 1.457 . S
C271 C272 1.291 . S
C271 H284 0.931 . S
C272 C271 1.291 . S
C272 C273 1.373 . S
C272 H285 0.929 . S
C273 C272 1.373 . S
C273 C274 1.396 1_545 S
C273 C280 1.401 1_545 S
C274 C264 1.476 . S
C274 N269 1.324 . S
C274 C273 1.396 1_565 S
H275 C270 0.929 . S
O276 Mn252 2.385 . S
O276 C254 1.234 . S
O277 Mn252 2.209 . S
O277 Mn253 2.215 . S
O277 C254 1.283 . S
O278 Mn252 2.094 . S
O278 C256 1.240 1_565 S
O279 Mn253 2.117 . S
O279 C256 1.264 1_565 S
C280 C273 1.401 1_565 S
C280 C281 1.404 . S
C280 H286 0.926 1_565 S
C281 C261 1.449 . S
C281 C280 1.404 . S
C281 H287 0.930 . S
H282 C262 0.931 . S
H283 C263 0.930 . S
H284 C271 0.931 . S
H285 C272 0.929 . S
H286 C280 0.926 1_545 S
H287 C281 0.930 . S
Mn288 O293 2.095 . S
Mn288 O303 2.162 . S
Mn288 O304 2.297 . S
Mn288 O312 2.385 . S
Mn288 O313 2.209 . S
Mn288 O314 2.094 . S
Mn289 O294 2.121 . S
Mn289 N296 2.257 . S
Mn289 N305 2.298 . S
Mn289 O313 2.215 . S
Mn289 O315 2.117 . S
C290 O312 1.234 . S
C290 O313 1.283 . S
C291 O303 1.281 . S
C291 O304 1.236 . S
C292 O314 1.240 1_565 S
C292 O315 1.264 1_565 S
O293 Mn288 2.095 . S
O293 C302 1.250 . S
O294 Mn289 2.121 . S
O294 C302 1.258 . S
C295 N296 1.326 . S
C295 C299 1.460 . S
C295 H301 0.929 . S
N296 Mn289 2.257 . S
N296 C295 1.326 . S
N296 C300 1.362 . S
C297 C298 1.258 . S
C297 C300 1.431 . S
C297 C317 1.449 . S
C298 C297 1.258 . S
C298 C299 1.477 . S
C298 H318 0.931 . S
C299 C295 1.460 . S
C299 C298 1.477 . S
C299 H319 0.930 . S
C300 N296 1.362 . S
C300 C297 1.431 . S
C300 C310 1.476 . S
H301 C295 0.929 . S
C302 O293 1.250 . S
C302 O294 1.258 . S
O303 Mn288 2.162 . S
O303 C291 1.281 . S
O304 Mn288 2.297 . S
O304 C291 1.236 . S
N305 Mn289 2.298 . S
N305 C306 1.307 1_545 S
N305 C310 1.324 . S
C306 N305 1.307 1_565 S
C306 C307 1.457 . S
C306 H311 0.929 . S
C307 C306 1.457 . S
C307 C308 1.291 . S
C307 H320 0.931 . S
C308 C307 1.291 . S
C308 C309 1.373 . S
C308 H321 0.929 . S
C309 C308 1.373 . S
C309 C310 1.396 1_565 S
C309 C316 1.401 1_565 S
C310 C300 1.476 . S
C310 N305 1.324 . S
C310 C309 1.396 1_545 S
H311 C306 0.929 . S
O312 Mn288 2.385 . S
O312 C290 1.234 . S
O313 Mn288 2.209 . S
O313 Mn289 2.215 . S
O313 C290 1.283 . S
O314 Mn288 2.094 . S
O314 C292 1.240 1_545 S
O315 Mn289 2.117 . S
O315 C292 1.264 1_545 S
C316 C309 1.401 1_545 S
C316 C317 1.404 . S
C316 H322 0.926 1_545 S
C317 C297 1.449 . S
C317 C316 1.404 . S
C317 H323 0.930 . S
H318 C298 0.931 . S
H319 C299 0.930 . S
H320 C307 0.931 . S
H321 C308 0.929 . S
H322 C316 0.926 1_565 S
H323 C317 0.930 . S
Mn324 O329 2.095 . S
Mn324 O339 2.162 . S
Mn324 O340 2.297 . S
Mn324 O348 2.385 . S
Mn324 O349 2.209 . S
Mn324 O350 2.094 . S
Mn325 O330 2.121 . S
Mn325 N332 2.257 . S
Mn325 N341 2.298 . S
Mn325 O349 2.215 . S
Mn325 O351 2.117 . S
C326 O348 1.234 . S
C326 O349 1.283 . S
C327 O339 1.281 . S
C327 O340 1.236 . S
C328 O350 1.240 1_455 S
C328 O351 1.264 1_455 S
O329 Mn324 2.095 . S
O329 C338 1.250 . S
O330 Mn325 2.121 . S
O330 C338 1.258 . S
C331 N332 1.326 . S
C331 C335 1.460 . S
C331 H337 0.929 . S
N332 Mn325 2.257 . S
N332 C331 1.326 . S
N332 C336 1.362 . S
C333 C334 1.258 . S
C333 C336 1.431 . S
C333 C353 1.449 . S
C334 C333 1.258 . S
C334 C335 1.477 . S
C334 H354 0.931 . S
C335 C331 1.460 . S
C335 C334 1.477 . S
C335 H355 0.930 . S
C336 N332 1.362 . S
C336 C333 1.431 . S
C336 C346 1.476 . S
H337 C331 0.929 . S
C338 O329 1.250 . S
C338 O330 1.258 . S
O339 Mn324 2.162 . S
O339 C327 1.281 . S
O340 Mn324 2.297 . S
O340 C327 1.236 . S
N341 Mn325 2.298 . S
N341 C342 1.307 1_655 S
N341 C346 1.324 . S
C342 N341 1.307 1_455 S
C342 C343 1.457 . S
C342 H347 0.929 . S
C343 C342 1.457 . S
C343 C344 1.291 . S
C343 H356 0.931 . S
C344 C343 1.291 . S
C344 C345 1.373 . S
C344 H357 0.929 . S
C345 C344 1.373 . S
C345 C346 1.396 1_455 S
C345 C352 1.401 1_455 S
C346 C336 1.476 . S
C346 N341 1.324 . S
C346 C345 1.396 1_655 S
H347 C342 0.929 . S
O348 Mn324 2.385 . S
O348 C326 1.234 . S
O349 Mn324 2.209 . S
O349 Mn325 2.215 . S
O349 C326 1.283 . S
O350 Mn324 2.094 . S
O350 C328 1.240 1_655 S
O351 Mn325 2.117 . S
O351 C328 1.264 1_655 S
C352 C345 1.401 1_655 S
C352 C353 1.404 . S
C352 H358 0.926 1_655 S
C353 C333 1.449 . S
C353 C352 1.404 . S
C353 H359 0.930 . S
H354 C334 0.931 . S
H355 C335 0.930 . S
H356 C343 0.931 . S
H357 C344 0.929 . S
H358 C352 0.926 1_455 S
H359 C353 0.930 . S
Mn360 O365 2.095 . S
Mn360 O375 2.162 . S
Mn360 O376 2.297 . S
Mn360 O384 2.385 . S
Mn360 O385 2.209 . S
Mn360 O386 2.094 . S
Mn361 O366 2.121 . S
Mn361 N368 2.257 . S
Mn361 N377 2.298 . S
Mn361 O385 2.215 . S
Mn361 O387 2.117 . S
C362 O384 1.234 . S
C362 O385 1.283 . S
C363 O375 1.281 . S
C363 O376 1.236 . S
C364 O386 1.240 1_545 S
C364 O387 1.264 1_545 S
O365 Mn360 2.095 . S
O365 C374 1.250 . S
O366 Mn361 2.121 . S
O366 C374 1.258 . S
C367 N368 1.326 . S
C367 C371 1.460 . S
C367 H373 0.929 . S
N368 Mn361 2.257 . S
N368 C367 1.326 . S
N368 C372 1.362 . S
C369 C370 1.258 . S
C369 C372 1.431 . S
C369 C389 1.449 . S
C370 C369 1.258 . S
C370 C371 1.477 . S
C370 H390 0.931 . S
C371 C367 1.460 . S
C371 C370 1.477 . S
C371 H391 0.930 . S
C372 N368 1.362 . S
C372 C369 1.431 . S
C372 C382 1.476 . S
H373 C367 0.929 . S
C374 O365 1.250 . S
C374 O366 1.258 . S
O375 Mn360 2.162 . S
O375 C363 1.281 . S
O376 Mn360 2.297 . S
O376 C363 1.236 . S
N377 Mn361 2.298 . S
N377 C378 1.307 1_565 S
N377 C382 1.324 . S
C378 N377 1.307 1_545 S
C378 C379 1.457 . S
C378 H383 0.929 . S
C379 C378 1.457 . S
C379 C380 1.291 . S
C379 H392 0.931 . S
C380 C379 1.291 . S
C380 C381 1.373 . S
C380 H393 0.929 . S
C381 C380 1.373 . S
C381 C382 1.396 1_545 S
C381 C388 1.401 1_545 S
C382 C372 1.476 . S
C382 N377 1.324 . S
C382 C381 1.396 1_565 S
H383 C378 0.929 . S
O384 Mn360 2.385 . S
O384 C362 1.234 . S
O385 Mn360 2.209 . S
O385 Mn361 2.215 . S
O385 C362 1.283 . S
O386 Mn360 2.094 . S
O386 C364 1.240 1_565 S
O387 Mn361 2.117 . S
O387 C364 1.264 1_565 S
C388 C381 1.401 1_565 S
C388 C389 1.404 . S
C388 H394 0.926 1_565 S
C389 C369 1.449 . S
C389 C388 1.404 . S
C389 H395 0.930 . S
H390 C370 0.931 . S
H391 C371 0.930 . S
H392 C379 0.931 . S
H393 C380 0.929 . S
H394 C388 0.926 1_545 S
H395 C389 0.930 . S
Mn396 O401 2.095 . S
Mn396 O411 2.162 . S
Mn396 O412 2.297 . S
Mn396 O420 2.385 . S
Mn396 O421 2.209 . S
Mn396 O422 2.094 . S
Mn397 O402 2.121 . S
Mn397 N404 2.257 . S
Mn397 N413 2.298 . S
Mn397 O421 2.215 . S
Mn397 O423 2.117 . S
C398 O420 1.234 . S
C398 O421 1.283 . S
C399 O411 1.281 . S
C399 O412 1.236 . S
C400 O422 1.240 1_655 S
C400 O423 1.264 1_655 S
O401 Mn396 2.095 . S
O401 C410 1.250 . S
O402 Mn397 2.121 . S
O402 C410 1.258 . S
C403 N404 1.326 . S
C403 C407 1.460 . S
C403 H409 0.929 . S
N404 Mn397 2.257 . S
N404 C403 1.326 . S
N404 C408 1.362 . S
C405 C406 1.258 . S
C405 C408 1.431 . S
C405 C425 1.449 . S
C406 C405 1.258 . S
C406 C407 1.477 . S
C406 H426 0.931 . S
C407 C403 1.460 . S
C407 C406 1.477 . S
C407 H427 0.930 . S
C408 N404 1.362 . S
C408 C405 1.431 . S
C408 C418 1.476 . S
H409 C403 0.929 . S
C410 O401 1.250 . S
C410 O402 1.258 . S
O411 Mn396 2.162 . S
O411 C399 1.281 . S
O412 Mn396 2.297 . S
O412 C399 1.236 . S
N413 Mn397 2.298 . S
N413 C414 1.307 1_455 S
N413 C418 1.324 . S
C414 N413 1.307 1_655 S
C414 C415 1.457 . S
C414 H419 0.929 . S
C415 C414 1.457 . S
C415 C416 1.291 . S
C415 H428 0.931 . S
C416 C415 1.291 . S
C416 C417 1.373 . S
C416 H429 0.929 . S
C417 C416 1.373 . S
C417 C418 1.396 1_655 S
C417 C424 1.401 1_655 S
C418 C408 1.476 . S
C418 N413 1.324 . S
C418 C417 1.396 1_455 S
H419 C414 0.929 . S
O420 Mn396 2.385 . S
O420 C398 1.234 . S
O421 Mn396 2.209 . S
O421 Mn397 2.215 . S
O421 C398 1.283 . S
O422 Mn396 2.094 . S
O422 C400 1.240 1_455 S
O423 Mn397 2.117 . S
O423 C400 1.264 1_455 S
C424 C417 1.401 1_455 S
C424 C425 1.404 . S
C424 H430 0.926 1_455 S
C425 C405 1.449 . S
C425 C424 1.404 . S
C425 H431 0.930 . S
H426 C406 0.931 . S
H427 C407 0.930 . S
H428 C415 0.931 . S
H429 C416 0.929 . S
H430 C424 0.926 1_655 S
H431 C425 0.930 . S
Mn432 O437 2.095 . S
Mn432 O447 2.162 . S
Mn432 O448 2.297 . S
Mn432 O456 2.385 . S
Mn432 O457 2.209 . S
Mn432 O458 2.094 . S
Mn433 O438 2.121 . S
Mn433 N440 2.257 . S
Mn433 N449 2.298 . S
Mn433 O457 2.215 . S
Mn433 O459 2.117 . S
C434 O456 1.234 . S
C434 O457 1.283 . S
C435 O447 1.281 . S
C435 O448 1.236 . S
C436 O458 1.240 1_545 S
C436 O459 1.264 1_545 S
O437 Mn432 2.095 . S
O437 C446 1.250 . S
O438 Mn433 2.121 . S
O438 C446 1.258 . S
C439 N440 1.326 . S
C439 C443 1.460 . S
C439 H445 0.929 . S
N440 Mn433 2.257 . S
N440 C439 1.326 . S
N440 C444 1.362 . S
C441 C442 1.258 . S
C441 C444 1.431 . S
C441 C461 1.449 . S
C442 C441 1.258 . S
C442 C443 1.477 . S
C442 H462 0.931 . S
C443 C439 1.460 . S
C443 C442 1.477 . S
C443 H463 0.930 . S
C444 N440 1.362 . S
C444 C441 1.431 . S
C444 C454 1.476 . S
H445 C439 0.929 . S
C446 O437 1.250 . S
C446 O438 1.258 . S
O447 Mn432 2.162 . S
O447 C435 1.281 . S
O448 Mn432 2.297 . S
O448 C435 1.236 . S
N449 Mn433 2.298 . S
N449 C450 1.307 1_565 S
N449 C454 1.324 . S
C450 N449 1.307 1_545 S
C450 C451 1.457 . S
C450 H455 0.929 . S
C451 C450 1.457 . S
C451 C452 1.291 . S
C451 H464 0.931 . S
C452 C451 1.291 . S
C452 C453 1.373 . S
C452 H465 0.929 . S
C453 C452 1.373 . S
C453 C454 1.396 1_545 S
C453 C460 1.401 1_545 S
C454 C444 1.476 . S
C454 N449 1.324 . S
C454 C453 1.396 1_565 S
H455 C450 0.929 . S
O456 Mn432 2.385 . S
O456 C434 1.234 . S
O457 Mn432 2.209 . S
O457 Mn433 2.215 . S
O457 C434 1.283 . S
O458 Mn432 2.094 . S
O458 C436 1.240 1_565 S
O459 Mn433 2.117 . S
O459 C436 1.264 1_565 S
C460 C453 1.401 1_565 S
C460 C461 1.404 . S
C460 H466 0.926 1_565 S
C461 C441 1.449 . S
C461 C460 1.404 . S
C461 H467 0.930 . S
H462 C442 0.931 . S
H463 C443 0.930 . S
H464 C451 0.931 . S
H465 C452 0.929 . S
H466 C460 0.926 1_545 S
H467 C461 0.930 . S
Mn468 O473 2.095 . S
Mn468 O483 2.162 . S
Mn468 O484 2.297 . S
Mn468 O492 2.385 . S
Mn468 O493 2.209 . S
Mn468 O494 2.094 . S
Mn469 O474 2.121 . S
Mn469 N476 2.257 . S
Mn469 N485 2.298 . S
Mn469 O493 2.215 . S
Mn469 O495 2.117 . S
C470 O492 1.234 . S
C470 O493 1.283 . S
C471 O483 1.281 . S
C471 O484 1.236 . S
C472 O494 1.240 1_655 S
C472 O495 1.264 1_655 S
O473 Mn468 2.095 . S
O473 C482 1.250 . S
O474 Mn469 2.121 . S
O474 C482 1.258 . S
C475 N476 1.326 . S
C475 C479 1.460 . S
C475 H481 0.929 . S
N476 Mn469 2.257 . S
N476 C475 1.326 . S
N476 C480 1.362 . S
C477 C478 1.258 . S
C477 C480 1.431 . S
C477 C497 1.449 . S
C478 C477 1.258 . S
C478 C479 1.477 . S
C478 H498 0.931 . S
C479 C475 1.460 . S
C479 C478 1.477 . S
C479 H499 0.930 . S
C480 N476 1.362 . S
C480 C477 1.431 . S
C480 C490 1.476 . S
H481 C475 0.929 . S
C482 O473 1.250 . S
C482 O474 1.258 . S
O483 Mn468 2.162 . S
O483 C471 1.281 . S
O484 Mn468 2.297 . S
O484 C471 1.236 . S
N485 Mn469 2.298 . S
N485 C486 1.307 1_455 S
N485 C490 1.324 . S
C486 N485 1.307 1_655 S
C486 C487 1.457 . S
C486 H491 0.929 . S
C487 C486 1.457 . S
C487 C488 1.291 . S
C487 H500 0.931 . S
C488 C487 1.291 . S
C488 C489 1.373 . S
C488 H501 0.929 . S
C489 C488 1.373 . S
C489 C490 1.396 1_655 S
C489 C496 1.401 1_655 S
C490 C480 1.476 . S
C490 N485 1.324 . S
C490 C489 1.396 1_455 S
H491 C486 0.929 . S
O492 Mn468 2.385 . S
O492 C470 1.234 . S
O493 Mn468 2.209 . S
O493 Mn469 2.215 . S
O493 C470 1.283 . S
O494 Mn468 2.094 . S
O494 C472 1.240 1_455 S
O495 Mn469 2.117 . S
O495 C472 1.264 1_455 S
C496 C489 1.401 1_455 S
C496 C497 1.404 . S
C496 H502 0.926 1_455 S
C497 C477 1.449 . S
C497 C496 1.404 . S
C497 H503 0.930 . S
H498 C478 0.931 . S
H499 C479 0.930 . S
H500 C487 0.931 . S
H501 C488 0.929 . S
H502 C496 0.926 1_655 S
H503 C497 0.930 . S
Mn504 O509 2.095 . S
Mn504 O519 2.162 . S
Mn504 O520 2.297 . S
Mn504 O528 2.385 . S
Mn504 O529 2.209 . S
Mn504 O530 2.094 . S
Mn505 O510 2.121 . S
Mn505 N512 2.257 . S
Mn505 N521 2.298 . S
Mn505 O529 2.215 . S
Mn505 O531 2.117 . S
C506 O528 1.234 . S
C506 O529 1.283 . S
C507 O519 1.281 . S
C507 O520 1.236 . S
C508 O530 1.240 1_565 S
C508 O531 1.264 1_565 S
O509 Mn504 2.095 . S
O509 C518 1.250 . S
O510 Mn505 2.121 . S
O510 C518 1.258 . S
C511 N512 1.326 . S
C511 C515 1.460 . S
C511 H517 0.929 . S
N512 Mn505 2.257 . S
N512 C511 1.326 . S
N512 C516 1.362 . S
C513 C514 1.258 . S
C513 C516 1.431 . S
C513 C533 1.449 . S
C514 C513 1.258 . S
C514 C515 1.477 . S
C514 H534 0.931 . S
C515 C511 1.460 . S
C515 C514 1.477 . S
C515 H535 0.930 . S
C516 N512 1.362 . S
C516 C513 1.431 . S
C516 C526 1.476 . S
H517 C511 0.929 . S
C518 O509 1.250 . S
C518 O510 1.258 . S
O519 Mn504 2.162 . S
O519 C507 1.281 . S
O520 Mn504 2.297 . S
O520 C507 1.236 . S
N521 Mn505 2.298 . S
N521 C522 1.307 1_545 S
N521 C526 1.324 . S
C522 N521 1.307 1_565 S
C522 C523 1.457 . S
C522 H527 0.929 . S
C523 C522 1.457 . S
C523 C524 1.291 . S
C523 H536 0.931 . S
C524 C523 1.291 . S
C524 C525 1.373 . S
C524 H537 0.929 . S
C525 C524 1.373 . S
C525 C526 1.396 1_565 S
C525 C532 1.401 1_565 S
C526 C516 1.476 . S
C526 N521 1.324 . S
C526 C525 1.396 1_545 S
H527 C522 0.929 . S
O528 Mn504 2.385 . S
O528 C506 1.234 . S
O529 Mn504 2.209 . S
O529 Mn505 2.215 . S
O529 C506 1.283 . S
O530 Mn504 2.094 . S
O530 C508 1.240 1_545 S
O531 Mn505 2.117 . S
O531 C508 1.264 1_545 S
C532 C525 1.401 1_545 S
C532 C533 1.404 . S
C532 H538 0.926 1_545 S
C533 C513 1.449 . S
C533 C532 1.404 . S
C533 H539 0.930 . S
H534 C514 0.931 . S
H535 C515 0.930 . S
H536 C523 0.931 . S
H537 C524 0.929 . S
H538 C532 0.926 1_565 S
H539 C533 0.930 . S
Mn540 O545 2.095 . S
Mn540 O555 2.162 . S
Mn540 O556 2.297 . S
Mn540 O564 2.385 . S
Mn540 O565 2.209 . S
Mn540 O566 2.094 . S
Mn541 O546 2.121 . S
Mn541 N548 2.257 . S
Mn541 N557 2.298 . S
Mn541 O565 2.215 . S
Mn541 O567 2.117 . S
C542 O564 1.234 . S
C542 O565 1.283 . S
C543 O555 1.281 . S
C543 O556 1.236 . S
C544 O566 1.240 1_455 S
C544 O567 1.264 1_455 S
O545 Mn540 2.095 . S
O545 C554 1.250 . S
O546 Mn541 2.121 . S
O546 C554 1.258 . S
C547 N548 1.326 . S
C547 C551 1.460 . S
C547 H553 0.929 . S
N548 Mn541 2.257 . S
N548 C547 1.326 . S
N548 C552 1.362 . S
C549 C550 1.258 . S
C549 C552 1.431 . S
C549 C569 1.449 . S
C550 C549 1.258 . S
C550 C551 1.477 . S
C550 H570 0.931 . S
C551 C547 1.460 . S
C551 C550 1.477 . S
C551 H571 0.930 . S
C552 N548 1.362 . S
C552 C549 1.431 . S
C552 C562 1.476 . S
H553 C547 0.929 . S
C554 O545 1.250 . S
C554 O546 1.258 . S
O555 Mn540 2.162 . S
O555 C543 1.281 . S
O556 Mn540 2.297 . S
O556 C543 1.236 . S
N557 Mn541 2.298 . S
N557 C558 1.307 1_655 S
N557 C562 1.324 . S
C558 N557 1.307 1_455 S
C558 C559 1.457 . S
C558 H563 0.929 . S
C559 C558 1.457 . S
C559 C560 1.291 . S
C559 H572 0.931 . S
C560 C559 1.291 . S
C560 C561 1.373 . S
C560 H573 0.929 . S
C561 C560 1.373 . S
C561 C562 1.396 1_455 S
C561 C568 1.401 1_455 S
C562 C552 1.476 . S
C562 N557 1.324 . S
C562 C561 1.396 1_655 S
H563 C558 0.929 . S
O564 Mn540 2.385 . S
O564 C542 1.234 . S
O565 Mn540 2.209 . S
O565 Mn541 2.215 . S
O565 C542 1.283 . S
O566 Mn540 2.094 . S
O566 C544 1.240 1_655 S
O567 Mn541 2.117 . S
O567 C544 1.264 1_655 S
C568 C561 1.401 1_655 S
C568 C569 1.404 . S
C568 H574 0.926 1_655 S
C569 C549 1.449 . S
C569 C568 1.404 . S
C569 H575 0.930 . S
H570 C550 0.931 . S
H571 C551 0.930 . S
H572 C559 0.931 . S
H573 C560 0.929 . S
H574 C568 0.926 1_455 S
H575 C569 0.930 . S
Mn576 O581 2.095 . S
Mn576 O591 2.162 . S
Mn576 O592 2.297 . S
Mn576 O600 2.385 . S
Mn576 O601 2.209 . S
Mn576 O602 2.094 . S
Mn577 O582 2.121 . S
Mn577 N584 2.257 . S
Mn577 N593 2.298 . S
Mn577 O601 2.215 . S
Mn577 O603 2.117 . S
C578 O600 1.234 . S
C578 O601 1.283 . S
C579 O591 1.281 . S
C579 O592 1.236 . S
C580 O602 1.240 1_556 S
C580 O603 1.264 1_556 S
O581 Mn576 2.095 . S
O581 C590 1.250 . S
O582 Mn577 2.121 . S
O582 C590 1.258 . S
C583 N584 1.326 . S
C583 C587 1.460 . S
C583 H589 0.929 . S
N584 Mn577 2.257 . S
N584 C583 1.326 . S
N584 C588 1.362 . S
C585 C586 1.258 . S
C585 C588 1.431 . S
C585 C605 1.449 . S
C586 C585 1.258 . S
C586 C587 1.477 . S
C586 H606 0.931 . S
C587 C583 1.460 . S
C587 C586 1.477 . S
C587 H607 0.930 . S
C588 N584 1.362 . S
C588 C585 1.431 . S
C588 C598 1.476 . S
H589 C583 0.929 . S
C590 O581 1.250 . S
C590 O582 1.258 . S
O591 Mn576 2.162 . S
O591 C579 1.281 . S
O592 Mn576 2.297 . S
O592 C579 1.236 . S
N593 Mn577 2.298 . S
N593 C594 1.307 1_554 S
N593 C598 1.324 . S
C594 N593 1.307 1_556 S
C594 C595 1.457 . S
C594 H599 0.929 . S
C595 C594 1.457 . S
C595 C596 1.291 . S
C595 H608 0.931 . S
C596 C595 1.291 . S
C596 C597 1.373 . S
C596 H609 0.929 . S
C597 C596 1.373 . S
C597 C598 1.396 1_556 S
C597 C604 1.401 1_556 S
C598 C588 1.476 . S
C598 N593 1.324 . S
C598 C597 1.396 1_554 S
H599 C594 0.929 . S
O600 Mn576 2.385 . S
O600 C578 1.234 . S
O601 Mn576 2.209 . S
O601 Mn577 2.215 . S
O601 C578 1.283 . S
O602 Mn576 2.094 . S
O602 C580 1.240 1_554 S
O603 Mn577 2.117 . S
O603 C580 1.264 1_554 S
C604 C597 1.401 1_554 S
C604 C605 1.404 . S
C604 H610 0.926 1_554 S
C605 C585 1.449 . S
C605 C604 1.404 . S
C605 H611 0.930 . S
H606 C586 0.931 . S
H607 C587 0.930 . S
H608 C595 0.931 . S
H609 C596 0.929 . S
H610 C604 0.926 1_556 S
H611 C605 0.930 . S
Mn612 O617 2.095 . S
Mn612 O627 2.162 . S
Mn612 O628 2.297 . S
Mn612 O636 2.385 . S
Mn612 O637 2.209 . S
Mn612 O638 2.094 . S
Mn613 O618 2.121 . S
Mn613 N620 2.257 . S
Mn613 N629 2.298 . S
Mn613 O637 2.215 . S
Mn613 O639 2.117 . S
C614 O636 1.234 . S
C614 O637 1.283 . S
C615 O627 1.281 . S
C615 O628 1.236 . S
C616 O638 1.240 1_554 S
C616 O639 1.264 1_554 S
O617 Mn612 2.095 . S
O617 C626 1.250 . S
O618 Mn613 2.121 . S
O618 C626 1.258 . S
C619 N620 1.326 . S
C619 C623 1.460 . S
C619 H625 0.929 . S
N620 Mn613 2.257 . S
N620 C619 1.326 . S
N620 C624 1.362 . S
C621 C622 1.258 . S
C621 C624 1.431 . S
C621 C641 1.449 . S
C622 C621 1.258 . S
C622 C623 1.477 . S
C622 H642 0.931 . S
C623 C619 1.460 . S
C623 C622 1.477 . S
C623 H643 0.930 . S
C624 N620 1.362 . S
C624 C621 1.431 . S
C624 C634 1.476 . S
H625 C619 0.929 . S
C626 O617 1.250 . S
C626 O618 1.258 . S
O627 Mn612 2.162 . S
O627 C615 1.281 . S
O628 Mn612 2.297 . S
O628 C615 1.236 . S
N629 Mn613 2.298 . S
N629 C630 1.307 1_556 S
N629 C634 1.324 . S
C630 N629 1.307 1_554 S
C630 C631 1.457 . S
C630 H635 0.929 . S
C631 C630 1.457 . S
C631 C632 1.291 . S
C631 H644 0.931 . S
C632 C631 1.291 . S
C632 C633 1.373 . S
C632 H645 0.929 . S
C633 C632 1.373 . S
C633 C634 1.396 1_554 S
C633 C640 1.401 1_554 S
C634 C624 1.476 . S
C634 N629 1.324 . S
C634 C633 1.396 1_556 S
H635 C630 0.929 . S
O636 Mn612 2.385 . S
O636 C614 1.234 . S
O637 Mn612 2.209 . S
O637 Mn613 2.215 . S
O637 C614 1.283 . S
O638 Mn612 2.094 . S
O638 C616 1.240 1_556 S
O639 Mn613 2.117 . S
O639 C616 1.264 1_556 S
C640 C633 1.401 1_556 S
C640 C641 1.404 . S
C640 H646 0.926 1_556 S
C641 C621 1.449 . S
C641 C640 1.404 . S
C641 H647 0.930 . S
H642 C622 0.931 . S
H643 C623 0.930 . S
H644 C631 0.931 . S
H645 C632 0.929 . S
H646 C640 0.926 1_554 S
H647 C641 0.930 . S
Mn648 O653 2.095 . S
Mn648 O663 2.162 . S
Mn648 O664 2.297 . S
Mn648 O672 2.385 . S
Mn648 O673 2.209 . S
Mn648 O674 2.094 . S
Mn649 O654 2.121 . S
Mn649 N656 2.257 . S
Mn649 N665 2.298 . S
Mn649 O673 2.215 . S
Mn649 O675 2.117 . S
C650 O672 1.234 . S
C650 O673 1.283 . S
C651 O663 1.281 . S
C651 O664 1.236 . S
C652 O674 1.240 1_554 S
C652 O675 1.264 1_554 S
O653 Mn648 2.095 . S
O653 C662 1.250 . S
O654 Mn649 2.121 . S
O654 C662 1.258 . S
C655 N656 1.326 . S
C655 C659 1.460 . S
C655 H661 0.929 . S
N656 Mn649 2.257 . S
N656 C655 1.326 . S
N656 C660 1.362 . S
C657 C658 1.258 . S
C657 C660 1.431 . S
C657 C677 1.449 . S
C658 C657 1.258 . S
C658 C659 1.477 . S
C658 H678 0.931 . S
C659 C655 1.460 . S
C659 C658 1.477 . S
C659 H679 0.930 . S
C660 N656 1.362 . S
C660 C657 1.431 . S
C660 C670 1.476 . S
H661 C655 0.929 . S
C662 O653 1.250 . S
C662 O654 1.258 . S
O663 Mn648 2.162 . S
O663 C651 1.281 . S
O664 Mn648 2.297 . S
O664 C651 1.236 . S
N665 Mn649 2.298 . S
N665 C666 1.307 1_556 S
N665 C670 1.324 . S
C666 N665 1.307 1_554 S
C666 C667 1.457 . S
C666 H671 0.929 . S
C667 C666 1.457 . S
C667 C668 1.291 . S
C667 H680 0.931 . S
C668 C667 1.291 . S
C668 C669 1.373 . S
C668 H681 0.929 . S
C669 C668 1.373 . S
C669 C670 1.396 1_554 S
C669 C676 1.401 1_554 S
C670 C660 1.476 . S
C670 N665 1.324 . S
C670 C669 1.396 1_556 S
H671 C666 0.929 . S
O672 Mn648 2.385 . S
O672 C650 1.234 . S
O673 Mn648 2.209 . S
O673 Mn649 2.215 . S
O673 C650 1.283 . S
O674 Mn648 2.094 . S
O674 C652 1.240 1_556 S
O675 Mn649 2.117 . S
O675 C652 1.264 1_556 S
C676 C669 1.401 1_556 S
C676 C677 1.404 . S
C676 H682 0.926 1_556 S
C677 C657 1.449 . S
C677 C676 1.404 . S
C677 H683 0.930 . S
H678 C658 0.931 . S
H679 C659 0.930 . S
H680 C667 0.931 . S
H681 C668 0.929 . S
H682 C676 0.926 1_554 S
H683 C677 0.930 . S
Mn684 O689 2.095 . S
Mn684 O699 2.162 . S
Mn684 O700 2.297 . S
Mn684 O708 2.385 . S
Mn684 O709 2.209 . S
Mn684 O710 2.094 . S
Mn685 O690 2.121 . S
Mn685 N692 2.257 . S
Mn685 N701 2.298 . S
Mn685 O709 2.215 . S
Mn685 O711 2.117 . S
C686 O708 1.234 . S
C686 O709 1.283 . S
C687 O699 1.281 . S
C687 O700 1.236 . S
C688 O710 1.240 1_554 S
C688 O711 1.264 1_554 S
O689 Mn684 2.095 . S
O689 C698 1.250 . S
O690 Mn685 2.121 . S
O690 C698 1.258 . S
C691 N692 1.326 . S
C691 C695 1.460 . S
C691 H697 0.929 . S
N692 Mn685 2.257 . S
N692 C691 1.326 . S
N692 C696 1.362 . S
C693 C694 1.258 . S
C693 C696 1.431 . S
C693 C713 1.449 . S
C694 C693 1.258 . S
C694 C695 1.477 . S
C694 H714 0.931 . S
C695 C691 1.460 . S
C695 C694 1.477 . S
C695 H715 0.930 . S
C696 N692 1.362 . S
C696 C693 1.431 . S
C696 C706 1.476 . S
H697 C691 0.929 . S
C698 O689 1.250 . S
C698 O690 1.258 . S
O699 Mn684 2.162 . S
O699 C687 1.281 . S
O700 Mn684 2.297 . S
O700 C687 1.236 . S
N701 Mn685 2.298 . S
N701 C702 1.307 1_556 S
N701 C706 1.324 . S
C702 N701 1.307 1_554 S
C702 C703 1.457 . S
C702 H707 0.929 . S
C703 C702 1.457 . S
C703 C704 1.291 . S
C703 H716 0.931 . S
C704 C703 1.291 . S
C704 C705 1.373 . S
C704 H717 0.929 . S
C705 C704 1.373 . S
C705 C706 1.396 1_554 S
C705 C712 1.401 1_554 S
C706 C696 1.476 . S
C706 N701 1.324 . S
C706 C705 1.396 1_556 S
H707 C702 0.929 . S
O708 Mn684 2.385 . S
O708 C686 1.234 . S
O709 Mn684 2.209 . S
O709 Mn685 2.215 . S
O709 C686 1.283 . S
O710 Mn684 2.094 . S
O710 C688 1.240 1_556 S
O711 Mn685 2.117 . S
O711 C688 1.264 1_556 S
C712 C705 1.401 1_556 S
C712 C713 1.404 . S
C712 H718 0.926 1_556 S
C713 C693 1.449 . S
C713 C712 1.404 . S
C713 H719 0.930 . S
H714 C694 0.931 . S
H715 C695 0.930 . S
H716 C703 0.931 . S
H717 C704 0.929 . S
H718 C712 0.926 1_554 S
H719 C713 0.930 . S
Mn720 O725 2.095 . S
Mn720 O735 2.162 . S
Mn720 O736 2.297 . S
Mn720 O744 2.385 . S
Mn720 O745 2.209 . S
Mn720 O746 2.094 . S
Mn721 O726 2.121 . S
Mn721 N728 2.257 . S
Mn721 N737 2.298 . S
Mn721 O745 2.215 . S
Mn721 O747 2.117 . S
C722 O744 1.234 . S
C722 O745 1.283 . S
C723 O735 1.281 . S
C723 O736 1.236 . S
C724 O746 1.240 1_554 S
C724 O747 1.264 1_554 S
O725 Mn720 2.095 . S
O725 C734 1.250 . S
O726 Mn721 2.121 . S
O726 C734 1.258 . S
C727 N728 1.326 . S
C727 C731 1.460 . S
C727 H733 0.929 . S
N728 Mn721 2.257 . S
N728 C727 1.326 . S
N728 C732 1.362 . S
C729 C730 1.258 . S
C729 C732 1.431 . S
C729 C749 1.449 . S
C730 C729 1.258 . S
C730 C731 1.477 . S
C730 H750 0.931 . S
C731 C727 1.460 . S
C731 C730 1.477 . S
C731 H751 0.930 . S
C732 N728 1.362 . S
C732 C729 1.431 . S
C732 C742 1.476 . S
H733 C727 0.929 . S
C734 O725 1.250 . S
C734 O726 1.258 . S
O735 Mn720 2.162 . S
O735 C723 1.281 . S
O736 Mn720 2.297 . S
O736 C723 1.236 . S
N737 Mn721 2.298 . S
N737 C738 1.307 1_556 S
N737 C742 1.324 . S
C738 N737 1.307 1_554 S
C738 C739 1.457 . S
C738 H743 0.929 . S
C739 C738 1.457 . S
C739 C740 1.291 . S
C739 H752 0.931 . S
C740 C739 1.291 . S
C740 C741 1.373 . S
C740 H753 0.929 . S
C741 C740 1.373 . S
C741 C742 1.396 1_554 S
C741 C748 1.401 1_554 S
C742 C732 1.476 . S
C742 N737 1.324 . S
C742 C741 1.396 1_556 S
H743 C738 0.929 . S
O744 Mn720 2.385 . S
O744 C722 1.234 . S
O745 Mn720 2.209 . S
O745 Mn721 2.215 . S
O745 C722 1.283 . S
O746 Mn720 2.094 . S
O746 C724 1.240 1_556 S
O747 Mn721 2.117 . S
O747 C724 1.264 1_556 S
C748 C741 1.401 1_556 S
C748 C749 1.404 . S
C748 H754 0.926 1_556 S
C749 C729 1.449 . S
C749 C748 1.404 . S
C749 H755 0.930 . S
H750 C730 0.931 . S
H751 C731 0.930 . S
H752 C739 0.931 . S
H753 C740 0.929 . S
H754 C748 0.926 1_554 S
H755 C749 0.930 . S
Mn756 O761 2.095 . S
Mn756 O771 2.162 . S
Mn756 O772 2.297 . S
Mn756 O780 2.385 . S
Mn756 O781 2.209 . S
Mn756 O782 2.094 . S
Mn757 O762 2.121 . S
Mn757 N764 2.257 . S
Mn757 N773 2.298 . S
Mn757 O781 2.215 . S
Mn757 O783 2.117 . S
C758 O780 1.234 . S
C758 O781 1.283 . S
C759 O771 1.281 . S
C759 O772 1.236 . S
C760 O782 1.240 1_556 S
C760 O783 1.264 1_556 S
O761 Mn756 2.095 . S
O761 C770 1.250 . S
O762 Mn757 2.121 . S
O762 C770 1.258 . S
C763 N764 1.326 . S
C763 C767 1.460 . S
C763 H769 0.929 . S
N764 Mn757 2.257 . S
N764 C763 1.326 . S
N764 C768 1.362 . S
C765 C766 1.258 . S
C765 C768 1.431 . S
C765 C785 1.449 . S
C766 C765 1.258 . S
C766 C767 1.477 . S
C766 H786 0.931 . S
C767 C763 1.460 . S
C767 C766 1.477 . S
C767 H787 0.930 . S
C768 N764 1.362 . S
C768 C765 1.431 . S
C768 C778 1.476 . S
H769 C763 0.929 . S
C770 O761 1.250 . S
C770 O762 1.258 . S
O771 Mn756 2.162 . S
O771 C759 1.281 . S
O772 Mn756 2.297 . S
O772 C759 1.236 . S
N773 Mn757 2.298 . S
N773 C774 1.307 1_554 S
N773 C778 1.324 . S
C774 N773 1.307 1_556 S
C774 C775 1.457 . S
C774 H779 0.929 . S
C775 C774 1.457 . S
C775 C776 1.291 . S
C775 H788 0.931 . S
C776 C775 1.291 . S
C776 C777 1.373 . S
C776 H789 0.929 . S
C777 C776 1.373 . S
C777 C778 1.396 1_556 S
C777 C784 1.401 1_556 S
C778 C768 1.476 . S
C778 N773 1.324 . S
C778 C777 1.396 1_554 S
H779 C774 0.929 . S
O780 Mn756 2.385 . S
O780 C758 1.234 . S
O781 Mn756 2.209 . S
O781 Mn757 2.215 . S
O781 C758 1.283 . S
O782 Mn756 2.094 . S
O782 C760 1.240 1_554 S
O783 Mn757 2.117 . S
O783 C760 1.264 1_554 S
C784 C777 1.401 1_554 S
C784 C785 1.404 . S
C784 H790 0.926 1_554 S
C785 C765 1.449 . S
C785 C784 1.404 . S
C785 H791 0.930 . S
H786 C766 0.931 . S
H787 C767 0.930 . S
H788 C775 0.931 . S
H789 C776 0.929 . S
H790 C784 0.926 1_556 S
H791 C785 0.930 . S
Mn792 O797 2.095 . S
Mn792 O807 2.162 . S
Mn792 O808 2.297 . S
Mn792 O816 2.385 . S
Mn792 O817 2.209 . S
Mn792 O818 2.094 . S
Mn793 O798 2.121 . S
Mn793 N800 2.257 . S
Mn793 N809 2.298 . S
Mn793 O817 2.215 . S
Mn793 O819 2.117 . S
C794 O816 1.234 . S
C794 O817 1.283 . S
C795 O807 1.281 . S
C795 O808 1.236 . S
C796 O818 1.240 1_556 S
C796 O819 1.264 1_556 S
O797 Mn792 2.095 . S
O797 C806 1.250 . S
O798 Mn793 2.121 . S
O798 C806 1.258 . S
C799 N800 1.326 . S
C799 C803 1.460 . S
C799 H805 0.929 . S
N800 Mn793 2.257 . S
N800 C799 1.326 . S
N800 C804 1.362 . S
C801 C802 1.258 . S
C801 C804 1.431 . S
C801 C821 1.449 . S
C802 C801 1.258 . S
C802 C803 1.477 . S
C802 H822 0.931 . S
C803 C799 1.460 . S
C803 C802 1.477 . S
C803 H823 0.930 . S
C804 N800 1.362 . S
C804 C801 1.431 . S
C804 C814 1.476 . S
H805 C799 0.929 . S
C806 O797 1.250 . S
C806 O798 1.258 . S
O807 Mn792 2.162 . S
O807 C795 1.281 . S
O808 Mn792 2.297 . S
O808 C795 1.236 . S
N809 Mn793 2.298 . S
N809 C810 1.307 1_554 S
N809 C814 1.324 . S
C810 N809 1.307 1_556 S
C810 C811 1.457 . S
C810 H815 0.929 . S
C811 C810 1.457 . S
C811 C812 1.291 . S
C811 H824 0.931 . S
C812 C811 1.291 . S
C812 C813 1.373 . S
C812 H825 0.929 . S
C813 C812 1.373 . S
C813 C814 1.396 1_556 S
C813 C820 1.401 1_556 S
C814 C804 1.476 . S
C814 N809 1.324 . S
C814 C813 1.396 1_554 S
H815 C810 0.929 . S
O816 Mn792 2.385 . S
O816 C794 1.234 . S
O817 Mn792 2.209 . S
O817 Mn793 2.215 . S
O817 C794 1.283 . S
O818 Mn792 2.094 . S
O818 C796 1.240 1_554 S
O819 Mn793 2.117 . S
O819 C796 1.264 1_554 S
C820 C813 1.401 1_554 S
C820 C821 1.404 . S
C820 H826 0.926 1_554 S
C821 C801 1.449 . S
C821 C820 1.404 . S
C821 H827 0.930 . S
H822 C802 0.931 . S
H823 C803 0.930 . S
H824 C811 0.931 . S
H825 C812 0.929 . S
H826 C820 0.926 1_556 S
H827 C821 0.930 . S
Mn828 O833 2.095 . S
Mn828 O843 2.162 . S
Mn828 O844 2.297 . S
Mn828 O852 2.385 . S
Mn828 O853 2.209 . S
Mn828 O854 2.094 . S
Mn829 O834 2.121 . S
Mn829 N836 2.257 . S
Mn829 N845 2.298 . S
Mn829 O853 2.215 . S
Mn829 O855 2.117 . S
C830 O852 1.234 . S
C830 O853 1.283 . S
C831 O843 1.281 . S
C831 O844 1.236 . S
C832 O854 1.240 1_556 S
C832 O855 1.264 1_556 S
O833 Mn828 2.095 . S
O833 C842 1.250 . S
O834 Mn829 2.121 . S
O834 C842 1.258 . S
C835 N836 1.326 . S
C835 C839 1.460 . S
C835 H841 0.929 . S
N836 Mn829 2.257 . S
N836 C835 1.326 . S
N836 C840 1.362 . S
C837 C838 1.258 . S
C837 C840 1.431 . S
C837 C857 1.449 . S
C838 C837 1.258 . S
C838 C839 1.477 . S
C838 H858 0.931 . S
C839 C835 1.460 . S
C839 C838 1.477 . S
C839 H859 0.930 . S
C840 N836 1.362 . S
C840 C837 1.431 . S
C840 C850 1.476 . S
H841 C835 0.929 . S
C842 O833 1.250 . S
C842 O834 1.258 . S
O843 Mn828 2.162 . S
O843 C831 1.281 . S
O844 Mn828 2.297 . S
O844 C831 1.236 . S
N845 Mn829 2.298 . S
N845 C846 1.307 1_554 S
N845 C850 1.324 . S
C846 N845 1.307 1_556 S
C846 C847 1.457 . S
C846 H851 0.929 . S
C847 C846 1.457 . S
C847 C848 1.291 . S
C847 H860 0.931 . S
C848 C847 1.291 . S
C848 C849 1.373 . S
C848 H861 0.929 . S
C849 C848 1.373 . S
C849 C850 1.396 1_556 S
C849 C856 1.401 1_556 S
C850 C840 1.476 . S
C850 N845 1.324 . S
C850 C849 1.396 1_554 S
H851 C846 0.929 . S
O852 Mn828 2.385 . S
O852 C830 1.234 . S
O853 Mn828 2.209 . S
O853 Mn829 2.215 . S
O853 C830 1.283 . S
O854 Mn828 2.094 . S
O854 C832 1.240 1_554 S
O855 Mn829 2.117 . S
O855 C832 1.264 1_554 S
C856 C849 1.401 1_554 S
C856 C857 1.404 . S
C856 H862 0.926 1_554 S
C857 C837 1.449 . S
C857 C856 1.404 . S
C857 H863 0.930 . S
H858 C838 0.931 . S
H859 C839 0.930 . S
H860 C847 0.931 . S
H861 C848 0.929 . S
H862 C856 0.926 1_556 S
H863 C857 0.930 . S
Mn864 O869 2.095 . S
Mn864 O879 2.162 . S
Mn864 O880 2.297 . S
Mn864 O888 2.385 . S
Mn864 O889 2.209 . S
Mn864 O890 2.094 . S
Mn865 O870 2.121 . S
Mn865 N872 2.257 . S
Mn865 N881 2.282 . S
Mn865 O889 2.215 . S
Mn865 O891 2.117 . S
C866 O888 1.234 . S
C866 O889 1.283 . S
C867 O879 1.281 . S
C867 O880 1.236 . S
C868 O890 1.240 . S
C868 O891 1.264 . S
O869 Mn864 2.095 . S
O869 C878 1.250 . S
O870 Mn865 2.121 . S
O870 C878 1.258 . S
C871 N872 1.326 . S
C871 C875 1.460 . S
C871 H877 0.929 . S
N872 Mn865 2.257 . S
N872 C871 1.326 . S
N872 C876 1.362 . S
C873 C874 1.258 . S
C873 C876 1.431 . S
C873 C893 1.449 . S
C874 C873 1.258 . S
C874 C875 1.477 . S
C874 H894 0.931 . S
C875 C871 1.460 . S
C875 C874 1.477 . S
C875 H895 0.930 . S
C876 N872 1.362 . S
C876 C873 1.431 . S
C876 C886 1.476 . S
H877 C871 0.929 . S
C878 O869 1.250 . S
C878 O870 1.258 . S
O879 Mn864 2.162 . S
O879 C867 1.281 . S
O880 Mn864 2.297 . S
O880 C867 1.236 . S
N881 Mn865 2.282 . S
N881 C882 1.328 . S
N881 C886 1.318 . S
C882 N881 1.328 . S
C882 C883 1.457 . S
C882 H887 0.929 . S
C883 C882 1.457 . S
C883 C884 1.291 . S
C883 H896 0.931 . S
C884 C883 1.291 . S
C884 C885 1.373 . S
C884 H897 0.929 . S
C885 C884 1.373 . S
C885 C886 1.396 . S
C885 C892 1.403 . S
C886 C876 1.476 . S
C886 N881 1.318 . S
C886 C885 1.396 . S
H887 C882 0.929 . S
O888 Mn864 2.385 . S
O888 C866 1.234 . S
O889 Mn864 2.209 . S
O889 Mn865 2.215 . S
O889 C866 1.283 . S
O890 Mn864 2.094 . S
O890 C868 1.240 . S
O891 Mn865 2.117 . S
O891 C868 1.264 . S
C892 C885 1.403 . S
C892 C893 1.399 . S
C892 H898 0.929 . S
C893 C873 1.449 . S
C893 C892 1.399 . S
C893 H899 0.930 . S
H894 C874 0.931 . S
H895 C875 0.930 . S
H896 C883 0.931 . S
H897 C884 0.929 . S
H898 C892 0.929 . S
H899 C893 0.930 . S
Mn900 O905 2.095 . S
Mn900 O915 2.162 . S
Mn900 O916 2.297 . S
Mn900 O924 2.385 . S
Mn900 O925 2.209 . S
Mn900 O926 2.094 . S
Mn901 O906 2.121 . S
Mn901 N908 2.257 . S
Mn901 N917 2.282 . S
Mn901 O925 2.215 . S
Mn901 O927 2.117 . S
C902 O924 1.234 . S
C902 O925 1.283 . S
C903 O915 1.281 . S
C903 O916 1.236 . S
C904 O926 1.240 . S
C904 O927 1.264 . S
O905 Mn900 2.095 . S
O905 C914 1.250 . S
O906 Mn901 2.121 . S
O906 C914 1.258 . S
C907 N908 1.326 . S
C907 C911 1.460 . S
C907 H913 0.929 . S
N908 Mn901 2.257 . S
N908 C907 1.326 . S
N908 C912 1.362 . S
C909 C910 1.258 . S
C909 C912 1.431 . S
C909 C929 1.449 . S
C910 C909 1.258 . S
C910 C911 1.477 . S
C910 H930 0.931 . S
C911 C907 1.460 . S
C911 C910 1.477 . S
C911 H931 0.930 . S
C912 N908 1.362 . S
C912 C909 1.431 . S
C912 C922 1.476 . S
H913 C907 0.929 . S
C914 O905 1.250 . S
C914 O906 1.258 . S
O915 Mn900 2.162 . S
O915 C903 1.281 . S
O916 Mn900 2.297 . S
O916 C903 1.236 . S
N917 Mn901 2.282 . S
N917 C918 1.328 . S
N917 C922 1.318 . S
C918 N917 1.328 . S
C918 C919 1.457 . S
C918 H923 0.929 . S
C919 C918 1.457 . S
C919 C920 1.291 . S
C919 H932 0.931 . S
C920 C919 1.291 . S
C920 C921 1.373 . S
C920 H933 0.929 . S
C921 C920 1.373 . S
C921 C922 1.396 . S
C921 C928 1.403 . S
C922 C912 1.476 . S
C922 N917 1.318 . S
C922 C921 1.396 . S
H923 C918 0.929 . S
O924 Mn900 2.385 . S
O924 C902 1.234 . S
O925 Mn900 2.209 . S
O925 Mn901 2.215 . S
O925 C902 1.283 . S
O926 Mn900 2.094 . S
O926 C904 1.240 . S
O927 Mn901 2.117 . S
O927 C904 1.264 . S
C928 C921 1.403 . S
C928 C929 1.399 . S
C928 H934 0.929 . S
C929 C909 1.449 . S
C929 C928 1.399 . S
C929 H935 0.930 . S
H930 C910 0.931 . S
H931 C911 0.930 . S
H932 C919 0.931 . S
H933 C920 0.929 . S
H934 C928 0.929 . S
H935 C929 0.930 . S
Mn936 O941 2.095 . S
Mn936 O951 2.162 . S
Mn936 O952 2.297 . S
Mn936 O960 2.385 . S
Mn936 O961 2.209 . S
Mn936 O962 2.094 . S
Mn937 O942 2.121 . S
Mn937 N944 2.257 . S
Mn937 N953 2.282 . S
Mn937 O961 2.215 . S
Mn937 O963 2.117 . S
C938 O960 1.234 . S
C938 O961 1.283 . S
C939 O951 1.281 . S
C939 O952 1.236 . S
C940 O962 1.240 . S
C940 O963 1.264 . S
O941 Mn936 2.095 . S
O941 C950 1.250 . S
O942 Mn937 2.121 . S
O942 C950 1.258 . S
C943 N944 1.326 . S
C943 C947 1.460 . S
C943 H949 0.929 . S
N944 Mn937 2.257 . S
N944 C943 1.326 . S
N944 C948 1.362 . S
C945 C946 1.258 . S
C945 C948 1.431 . S
C945 C965 1.449 . S
C946 C945 1.258 . S
C946 C947 1.477 . S
C946 H966 0.931 . S
C947 C943 1.460 . S
C947 C946 1.477 . S
C947 H967 0.930 . S
C948 N944 1.362 . S
C948 C945 1.431 . S
C948 C958 1.476 . S
H949 C943 0.929 . S
C950 O941 1.250 . S
C950 O942 1.258 . S
O951 Mn936 2.162 . S
O951 C939 1.281 . S
O952 Mn936 2.297 . S
O952 C939 1.236 . S
N953 Mn937 2.282 . S
N953 C954 1.328 . S
N953 C958 1.318 . S
C954 N953 1.328 . S
C954 C955 1.457 . S
C954 H959 0.929 . S
C955 C954 1.457 . S
C955 C956 1.291 . S
C955 H968 0.931 . S
C956 C955 1.291 . S
C956 C957 1.373 . S
C956 H969 0.929 . S
C957 C956 1.373 . S
C957 C958 1.396 . S
C957 C964 1.403 . S
C958 C948 1.476 . S
C958 N953 1.318 . S
C958 C957 1.396 . S
H959 C954 0.929 . S
O960 Mn936 2.385 . S
O960 C938 1.234 . S
O961 Mn936 2.209 . S
O961 Mn937 2.215 . S
O961 C938 1.283 . S
O962 Mn936 2.094 . S
O962 C940 1.240 . S
O963 Mn937 2.117 . S
O963 C940 1.264 . S
C964 C957 1.403 . S
C964 C965 1.399 . S
C964 H970 0.929 . S
C965 C945 1.449 . S
C965 C964 1.399 . S
C965 H971 0.930 . S
H966 C946 0.931 . S
H967 C947 0.930 . S
H968 C955 0.931 . S
H969 C956 0.929 . S
H970 C964 0.929 . S
H971 C965 0.930 . S
Mn972 O977 2.095 . S
Mn972 O987 2.162 . S
Mn972 O988 2.297 . S
Mn972 O996 2.385 . S
Mn972 O997 2.209 . S
Mn972 O998 2.094 . S
Mn973 O978 2.121 . S
Mn973 N980 2.257 . S
Mn973 N989 2.282 . S
Mn973 O997 2.215 . S
Mn973 O999 2.117 . S
C974 O996 1.234 . S
C974 O997 1.283 . S
C975 O987 1.281 . S
C975 O988 1.236 . S
C976 O998 1.240 . S
C976 O999 1.264 . S
O977 Mn972 2.095 . S
O977 C986 1.250 . S
O978 Mn973 2.121 . S
O978 C986 1.258 . S
C979 N980 1.326 . S
C979 C983 1.460 . S
C979 H985 0.929 . S
N980 Mn973 2.257 . S
N980 C979 1.326 . S
N980 C984 1.362 . S
C981 C982 1.258 . S
C981 C984 1.431 . S
C981 C1001 1.449 . S
C982 C981 1.258 . S
C982 C983 1.477 . S
C982 H1002 0.931 . S
C983 C979 1.460 . S
C983 C982 1.477 . S
C983 H1003 0.930 . S
C984 N980 1.362 . S
C984 C981 1.431 . S
C984 C994 1.476 . S
H985 C979 0.929 . S
C986 O977 1.250 . S
C986 O978 1.258 . S
O987 Mn972 2.162 . S
O987 C975 1.281 . S
O988 Mn972 2.297 . S
O988 C975 1.236 . S
N989 Mn973 2.282 . S
N989 C990 1.328 . S
N989 C994 1.318 . S
C990 N989 1.328 . S
C990 C991 1.457 . S
C990 H995 0.929 . S
C991 C990 1.457 . S
C991 C992 1.291 . S
C991 H1004 0.931 . S
C992 C991 1.291 . S
C992 C993 1.373 . S
C992 H1005 0.929 . S
C993 C992 1.373 . S
C993 C994 1.396 . S
C993 C1000 1.403 . S
C994 C984 1.476 . S
C994 N989 1.318 . S
C994 C993 1.396 . S
H995 C990 0.929 . S
O996 Mn972 2.385 . S
O996 C974 1.234 . S
O997 Mn972 2.209 . S
O997 Mn973 2.215 . S
O997 C974 1.283 . S
O998 Mn972 2.094 . S
O998 C976 1.240 . S
O999 Mn973 2.117 . S
O999 C976 1.264 . S
C1000 C993 1.403 . S
C1000 C1001 1.399 . S
C1000 H1006 0.929 . S
C1001 C981 1.449 . S
C1001 C1000 1.399 . S
C1001 H1007 0.930 . S
H1002 C982 0.931 . S
H1003 C983 0.930 . S
H1004 C991 0.931 . S
H1005 C992 0.929 . S
H1006 C1000 0.929 . S
H1007 C1001 0.930 . S
Mn1008 O1013 2.095 . S
Mn1008 O1023 2.162 . S
Mn1008 O1024 2.297 . S
Mn1008 O1032 2.385 . S
Mn1008 O1033 2.209 . S
Mn1008 O1034 2.094 . S
Mn1009 O1014 2.121 . S
Mn1009 N1016 2.257 . S
Mn1009 N1025 2.282 . S
Mn1009 O1033 2.215 . S
Mn1009 O1035 2.117 . S
C1010 O1032 1.234 . S
C1010 O1033 1.283 . S
C1011 O1023 1.281 . S
C1011 O1024 1.236 . S
C1012 O1034 1.240 . S
C1012 O1035 1.264 . S
O1013 Mn1008 2.095 . S
O1013 C1022 1.250 . S
O1014 Mn1009 2.121 . S
O1014 C1022 1.258 . S
C1015 N1016 1.326 . S
C1015 C1019 1.460 . S
C1015 H1021 0.929 . S
N1016 Mn1009 2.257 . S
N1016 C1015 1.326 . S
N1016 C1020 1.362 . S
C1017 C1018 1.258 . S
C1017 C1020 1.431 . S
C1017 C1037 1.449 . S
C1018 C1017 1.258 . S
C1018 C1019 1.477 . S
C1018 H1038 0.931 . S
C1019 C1015 1.460 . S
C1019 C1018 1.477 . S
C1019 H1039 0.930 . S
C1020 N1016 1.362 . S
C1020 C1017 1.431 . S
C1020 C1030 1.476 . S
H1021 C1015 0.929 . S
C1022 O1013 1.250 . S
C1022 O1014 1.258 . S
O1023 Mn1008 2.162 . S
O1023 C1011 1.281 . S
O1024 Mn1008 2.297 . S
O1024 C1011 1.236 . S
N1025 Mn1009 2.282 . S
N1025 C1026 1.328 . S
N1025 C1030 1.318 . S
C1026 N1025 1.328 . S
C1026 C1027 1.457 . S
C1026 H1031 0.929 . S
C1027 C1026 1.457 . S
C1027 C1028 1.291 . S
C1027 H1040 0.931 . S
C1028 C1027 1.291 . S
C1028 C1029 1.373 . S
C1028 H1041 0.929 . S
C1029 C1028 1.373 . S
C1029 C1030 1.396 . S
C1029 C1036 1.403 . S
C1030 C1020 1.476 . S
C1030 N1025 1.318 . S
C1030 C1029 1.396 . S
H1031 C1026 0.929 . S
O1032 Mn1008 2.385 . S
O1032 C1010 1.234 . S
O1033 Mn1008 2.209 . S
O1033 Mn1009 2.215 . S
O1033 C1010 1.283 . S
O1034 Mn1008 2.094 . S
O1034 C1012 1.240 . S
O1035 Mn1009 2.117 . S
O1035 C1012 1.264 . S
C1036 C1029 1.403 . S
C1036 C1037 1.399 . S
C1036 H1042 0.929 . S
C1037 C1017 1.449 . S
C1037 C1036 1.399 . S
C1037 H1043 0.930 . S
H1038 C1018 0.931 . S
H1039 C1019 0.930 . S
H1040 C1027 0.931 . S
H1041 C1028 0.929 . S
H1042 C1036 0.929 . S
H1043 C1037 0.930 . S
Mn1044 O1049 2.095 . S
Mn1044 O1059 2.162 . S
Mn1044 O1060 2.297 . S
Mn1044 O1068 2.385 . S
Mn1044 O1069 2.209 . S
Mn1044 O1070 2.094 . S
Mn1045 O1050 2.121 . S
Mn1045 N1052 2.257 . S
Mn1045 N1061 2.282 . S
Mn1045 O1069 2.215 . S
Mn1045 O1071 2.117 . S
C1046 O1068 1.234 . S
C1046 O1069 1.283 . S
C1047 O1059 1.281 . S
C1047 O1060 1.236 . S
C1048 O1070 1.240 . S
C1048 O1071 1.264 . S
O1049 Mn1044 2.095 . S
O1049 C1058 1.250 . S
O1050 Mn1045 2.121 . S
O1050 C1058 1.258 . S
C1051 N1052 1.326 . S
C1051 C1055 1.460 . S
C1051 H1057 0.929 . S
N1052 Mn1045 2.257 . S
N1052 C1051 1.326 . S
N1052 C1056 1.362 . S
C1053 C1054 1.258 . S
C1053 C1056 1.431 . S
C1053 C1073 1.449 . S
C1054 C1053 1.258 . S
C1054 C1055 1.477 . S
C1054 H1074 0.931 . S
C1055 C1051 1.460 . S
C1055 C1054 1.477 . S
C1055 H1075 0.930 . S
C1056 N1052 1.362 . S
C1056 C1053 1.431 . S
C1056 C1066 1.476 . S
H1057 C1051 0.929 . S
C1058 O1049 1.250 . S
C1058 O1050 1.258 . S
O1059 Mn1044 2.162 . S
O1059 C1047 1.281 . S
O1060 Mn1044 2.297 . S
O1060 C1047 1.236 . S
N1061 Mn1045 2.282 . S
N1061 C1062 1.328 . S
N1061 C1066 1.318 . S
C1062 N1061 1.328 . S
C1062 C1063 1.457 . S
C1062 H1067 0.929 . S
C1063 C1062 1.457 . S
C1063 C1064 1.291 . S
C1063 H1076 0.931 . S
C1064 C1063 1.291 . S
C1064 C1065 1.373 . S
C1064 H1077 0.929 . S
C1065 C1064 1.373 . S
C1065 C1066 1.396 . S
C1065 C1072 1.403 . S
C1066 C1056 1.476 . S
C1066 N1061 1.318 . S
C1066 C1065 1.396 . S
H1067 C1062 0.929 . S
O1068 Mn1044 2.385 . S
O1068 C1046 1.234 . S
O1069 Mn1044 2.209 . S
O1069 Mn1045 2.215 . S
O1069 C1046 1.283 . S
O1070 Mn1044 2.094 . S
O1070 C1048 1.240 . S
O1071 Mn1045 2.117 . S
O1071 C1048 1.264 . S
C1072 C1065 1.403 . S
C1072 C1073 1.399 . S
C1072 H1078 0.929 . S
C1073 C1053 1.449 . S
C1073 C1072 1.399 . S
C1073 H1079 0.930 . S
H1074 C1054 0.931 . S
H1075 C1055 0.930 . S
H1076 C1063 0.931 . S
H1077 C1064 0.929 . S
H1078 C1072 0.929 . S
H1079 C1073 0.930 . S
Mn1080 O1085 2.095 . S
Mn1080 O1095 2.162 . S
Mn1080 O1096 2.297 . S
Mn1080 O1104 2.385 . S
Mn1080 O1105 2.209 . S
Mn1080 O1106 2.094 . S
Mn1081 O1086 2.121 . S
Mn1081 N1088 2.257 . S
Mn1081 N1097 2.282 . S
Mn1081 O1105 2.215 . S
Mn1081 O1107 2.117 . S
C1082 O1104 1.234 . S
C1082 O1105 1.283 . S
C1083 O1095 1.281 . S
C1083 O1096 1.236 . S
C1084 O1106 1.240 . S
C1084 O1107 1.264 . S
O1085 Mn1080 2.095 . S
O1085 C1094 1.250 . S
O1086 Mn1081 2.121 . S
O1086 C1094 1.258 . S
C1087 N1088 1.326 . S
C1087 C1091 1.460 . S
C1087 H1093 0.929 . S
N1088 Mn1081 2.257 . S
N1088 C1087 1.326 . S
N1088 C1092 1.362 . S
C1089 C1090 1.258 . S
C1089 C1092 1.431 . S
C1089 C1109 1.449 . S
C1090 C1089 1.258 . S
C1090 C1091 1.477 . S
C1090 H1110 0.931 . S
C1091 C1087 1.460 . S
C1091 C1090 1.477 . S
C1091 H1111 0.930 . S
C1092 N1088 1.362 . S
C1092 C1089 1.431 . S
C1092 C1102 1.476 . S
H1093 C1087 0.929 . S
C1094 O1085 1.250 . S
C1094 O1086 1.258 . S
O1095 Mn1080 2.162 . S
O1095 C1083 1.281 . S
O1096 Mn1080 2.297 . S
O1096 C1083 1.236 . S
N1097 Mn1081 2.282 . S
N1097 C1098 1.328 . S
N1097 C1102 1.318 . S
C1098 N1097 1.328 . S
C1098 C1099 1.457 . S
C1098 H1103 0.929 . S
C1099 C1098 1.457 . S
C1099 C1100 1.291 . S
C1099 H1112 0.931 . S
C1100 C1099 1.291 . S
C1100 C1101 1.373 . S
C1100 H1113 0.929 . S
C1101 C1100 1.373 . S
C1101 C1102 1.396 . S
C1101 C1108 1.403 . S
C1102 C1092 1.476 . S
C1102 N1097 1.318 . S
C1102 C1101 1.396 . S
H1103 C1098 0.929 . S
O1104 Mn1080 2.385 . S
O1104 C1082 1.234 . S
O1105 Mn1080 2.209 . S
O1105 Mn1081 2.215 . S
O1105 C1082 1.283 . S
O1106 Mn1080 2.094 . S
O1106 C1084 1.240 . S
O1107 Mn1081 2.117 . S
O1107 C1084 1.264 . S
C1108 C1101 1.403 . S
C1108 C1109 1.399 . S
C1108 H1114 0.929 . S
C1109 C1089 1.449 . S
C1109 C1108 1.399 . S
C1109 H1115 0.930 . S
H1110 C1090 0.931 . S
H1111 C1091 0.930 . S
H1112 C1099 0.931 . S
H1113 C1100 0.929 . S
H1114 C1108 0.929 . S
H1115 C1109 0.930 . S
Mn1116 O1121 2.095 . S
Mn1116 O1131 2.162 . S
Mn1116 O1132 2.297 . S
Mn1116 O1140 2.385 . S
Mn1116 O1141 2.209 . S
Mn1116 O1142 2.094 . S
Mn1117 O1122 2.121 . S
Mn1117 N1124 2.257 . S
Mn1117 N1133 2.282 . S
Mn1117 O1141 2.215 . S
Mn1117 O1143 2.117 . S
C1118 O1140 1.234 . S
C1118 O1141 1.283 . S
C1119 O1131 1.281 . S
C1119 O1132 1.236 . S
C1120 O1142 1.240 . S
C1120 O1143 1.264 . S
O1121 Mn1116 2.095 . S
O1121 C1130 1.250 . S
O1122 Mn1117 2.121 . S
O1122 C1130 1.258 . S
C1123 N1124 1.326 . S
C1123 C1127 1.460 . S
C1123 H1129 0.929 . S
N1124 Mn1117 2.257 . S
N1124 C1123 1.326 . S
N1124 C1128 1.362 . S
C1125 C1126 1.258 . S
C1125 C1128 1.431 . S
C1125 C1145 1.449 . S
C1126 C1125 1.258 . S
C1126 C1127 1.477 . S
C1126 H1146 0.931 . S
C1127 C1123 1.460 . S
C1127 C1126 1.477 . S
C1127 H1147 0.930 . S
C1128 N1124 1.362 . S
C1128 C1125 1.431 . S
C1128 C1138 1.476 . S
H1129 C1123 0.929 . S
C1130 O1121 1.250 . S
C1130 O1122 1.258 . S
O1131 Mn1116 2.162 . S
O1131 C1119 1.281 . S
O1132 Mn1116 2.297 . S
O1132 C1119 1.236 . S
N1133 Mn1117 2.282 . S
N1133 C1134 1.328 . S
N1133 C1138 1.318 . S
C1134 N1133 1.328 . S
C1134 C1135 1.457 . S
C1134 H1139 0.929 . S
C1135 C1134 1.457 . S
C1135 C1136 1.291 . S
C1135 H1148 0.931 . S
C1136 C1135 1.291 . S
C1136 C1137 1.373 . S
C1136 H1149 0.929 . S
C1137 C1136 1.373 . S
C1137 C1138 1.396 . S
C1137 C1144 1.403 . S
C1138 C1128 1.476 . S
C1138 N1133 1.318 . S
C1138 C1137 1.396 . S
H1139 C1134 0.929 . S
O1140 Mn1116 2.385 . S
O1140 C1118 1.234 . S
O1141 Mn1116 2.209 . S
O1141 Mn1117 2.215 . S
O1141 C1118 1.283 . S
O1142 Mn1116 2.094 . S
O1142 C1120 1.240 . S
O1143 Mn1117 2.117 . S
O1143 C1120 1.264 . S
C1144 C1137 1.403 . S
C1144 C1145 1.399 . S
C1144 H1150 0.929 . S
C1145 C1125 1.449 . S
C1145 C1144 1.399 . S
C1145 H1151 0.930 . S
H1146 C1126 0.931 . S
H1147 C1127 0.930 . S
H1148 C1135 0.931 . S
H1149 C1136 0.929 . S
H1150 C1144 0.929 . S
H1151 C1145 0.930 . S
Mn1152 O1157 2.095 . S
Mn1152 O1167 2.162 . S
Mn1152 O1168 2.297 . S
Mn1152 O1176 2.385 . S
Mn1152 O1177 2.209 . S
Mn1152 O1178 2.094 . S
Mn1153 O1158 2.121 . S
Mn1153 N1160 2.257 . S
Mn1153 N1169 2.282 . S
Mn1153 O1177 2.215 . S
Mn1153 O1179 2.117 . S
C1154 O1176 1.234 . S
C1154 O1177 1.283 . S
C1155 O1167 1.281 . S
C1155 O1168 1.236 . S
C1156 O1178 1.240 . S
C1156 O1179 1.264 . S
O1157 Mn1152 2.095 . S
O1157 C1166 1.250 . S
O1158 Mn1153 2.121 . S
O1158 C1166 1.258 . S
C1159 N1160 1.326 . S
C1159 C1163 1.460 . S
C1159 H1165 0.929 . S
N1160 Mn1153 2.257 . S
N1160 C1159 1.326 . S
N1160 C1164 1.362 . S
C1161 C1162 1.258 . S
C1161 C1164 1.431 . S
C1161 C1181 1.449 . S
C1162 C1161 1.258 . S
C1162 C1163 1.477 . S
C1162 H1182 0.931 . S
C1163 C1159 1.460 . S
C1163 C1162 1.477 . S
C1163 H1183 0.930 . S
C1164 N1160 1.362 . S
C1164 C1161 1.431 . S
C1164 C1174 1.476 . S
H1165 C1159 0.929 . S
C1166 O1157 1.250 . S
C1166 O1158 1.258 . S
O1167 Mn1152 2.162 . S
O1167 C1155 1.281 . S
O1168 Mn1152 2.297 . S
O1168 C1155 1.236 . S
N1169 Mn1153 2.282 . S
N1169 C1170 1.328 . S
N1169 C1174 1.318 . S
C1170 N1169 1.328 . S
C1170 C1171 1.457 . S
C1170 H1175 0.929 . S
C1171 C1170 1.457 . S
C1171 C1172 1.291 . S
C1171 H1184 0.931 . S
C1172 C1171 1.291 . S
C1172 C1173 1.373 . S
C1172 H1185 0.929 . S
C1173 C1172 1.373 . S
C1173 C1174 1.396 . S
C1173 C1180 1.403 . S
C1174 C1164 1.476 . S
C1174 N1169 1.318 . S
C1174 C1173 1.396 . S
H1175 C1170 0.929 . S
O1176 Mn1152 2.385 . S
O1176 C1154 1.234 . S
O1177 Mn1152 2.209 . S
O1177 Mn1153 2.215 . S
O1177 C1154 1.283 . S
O1178 Mn1152 2.094 . S
O1178 C1156 1.240 . S
O1179 Mn1153 2.117 . S
O1179 C1156 1.264 . S
C1180 C1173 1.403 . S
C1180 C1181 1.399 . S
C1180 H1186 0.929 . S
C1181 C1161 1.449 . S
C1181 C1180 1.399 . S
C1181 H1187 0.930 . S
H1182 C1162 0.931 . S
H1183 C1163 0.930 . S
H1184 C1171 0.931 . S
H1185 C1172 0.929 . S
H1186 C1180 0.929 . S
H1187 C1181 0.930 . S
Mn1188 O1193 2.095 . S
Mn1188 O1203 2.162 . S
Mn1188 O1204 2.297 . S
Mn1188 O1212 2.385 . S
Mn1188 O1213 2.209 . S
Mn1188 O1214 2.094 . S
Mn1189 O1194 2.121 . S
Mn1189 N1196 2.257 . S
Mn1189 N1205 2.282 . S
Mn1189 O1213 2.215 . S
Mn1189 O1215 2.117 . S
C1190 O1212 1.234 . S
C1190 O1213 1.283 . S
C1191 O1203 1.281 . S
C1191 O1204 1.236 . S
C1192 O1214 1.240 . S
C1192 O1215 1.264 . S
O1193 Mn1188 2.095 . S
O1193 C1202 1.250 . S
O1194 Mn1189 2.121 . S
O1194 C1202 1.258 . S
C1195 N1196 1.326 . S
C1195 C1199 1.460 . S
C1195 H1201 0.929 . S
N1196 Mn1189 2.257 . S
N1196 C1195 1.326 . S
N1196 C1200 1.362 . S
C1197 C1198 1.258 . S
C1197 C1200 1.431 . S
C1197 C1217 1.449 . S
C1198 C1197 1.258 . S
C1198 C1199 1.477 . S
C1198 H1218 0.931 . S
C1199 C1195 1.460 . S
C1199 C1198 1.477 . S
C1199 H1219 0.930 . S
C1200 N1196 1.362 . S
C1200 C1197 1.431 . S
C1200 C1210 1.476 . S
H1201 C1195 0.929 . S
C1202 O1193 1.250 . S
C1202 O1194 1.258 . S
O1203 Mn1188 2.162 . S
O1203 C1191 1.281 . S
O1204 Mn1188 2.297 . S
O1204 C1191 1.236 . S
N1205 Mn1189 2.282 . S
N1205 C1206 1.328 . S
N1205 C1210 1.318 . S
C1206 N1205 1.328 . S
C1206 C1207 1.457 . S
C1206 H1211 0.929 . S
C1207 C1206 1.457 . S
C1207 C1208 1.291 . S
C1207 H1220 0.931 . S
C1208 C1207 1.291 . S
C1208 C1209 1.373 . S
C1208 H1221 0.929 . S
C1209 C1208 1.373 . S
C1209 C1210 1.396 . S
C1209 C1216 1.403 . S
C1210 C1200 1.476 . S
C1210 N1205 1.318 . S
C1210 C1209 1.396 . S
H1211 C1206 0.929 . S
O1212 Mn1188 2.385 . S
O1212 C1190 1.234 . S
O1213 Mn1188 2.209 . S
O1213 Mn1189 2.215 . S
O1213 C1190 1.283 . S
O1214 Mn1188 2.094 . S
O1214 C1192 1.240 . S
O1215 Mn1189 2.117 . S
O1215 C1192 1.264 . S
C1216 C1209 1.403 . S
C1216 C1217 1.399 . S
C1216 H1222 0.929 . S
C1217 C1197 1.449 . S
C1217 C1216 1.399 . S
C1217 H1223 0.930 . S
H1218 C1198 0.931 . S
H1219 C1199 0.930 . S
H1220 C1207 0.931 . S
H1221 C1208 0.929 . S
H1222 C1216 0.929 . S
H1223 C1217 0.930 . S
Mn1224 O1229 2.095 . S
Mn1224 O1239 2.162 . S
Mn1224 O1240 2.297 . S
Mn1224 O1248 2.385 . S
Mn1224 O1249 2.209 . S
Mn1224 O1250 2.094 . S
Mn1225 O1230 2.121 . S
Mn1225 N1232 2.257 . S
Mn1225 N1241 2.282 . S
Mn1225 O1249 2.215 . S
Mn1225 O1251 2.117 . S
C1226 O1248 1.234 . S
C1226 O1249 1.283 . S
C1227 O1239 1.281 . S
C1227 O1240 1.236 . S
C1228 O1250 1.240 . S
C1228 O1251 1.264 . S
O1229 Mn1224 2.095 . S
O1229 C1238 1.250 . S
O1230 Mn1225 2.121 . S
O1230 C1238 1.258 . S
C1231 N1232 1.326 . S
C1231 C1235 1.460 . S
C1231 H1237 0.929 . S
N1232 Mn1225 2.257 . S
N1232 C1231 1.326 . S
N1232 C1236 1.362 . S
C1233 C1234 1.258 . S
C1233 C1236 1.431 . S
C1233 C1253 1.449 . S
C1234 C1233 1.258 . S
C1234 C1235 1.477 . S
C1234 H1254 0.931 . S
C1235 C1231 1.460 . S
C1235 C1234 1.477 . S
C1235 H1255 0.930 . S
C1236 N1232 1.362 . S
C1236 C1233 1.431 . S
C1236 C1246 1.476 . S
H1237 C1231 0.929 . S
C1238 O1229 1.250 . S
C1238 O1230 1.258 . S
O1239 Mn1224 2.162 . S
O1239 C1227 1.281 . S
O1240 Mn1224 2.297 . S
O1240 C1227 1.236 . S
N1241 Mn1225 2.282 . S
N1241 C1242 1.328 . S
N1241 C1246 1.318 . S
C1242 N1241 1.328 . S
C1242 C1243 1.457 . S
C1242 H1247 0.929 . S
C1243 C1242 1.457 . S
C1243 C1244 1.291 . S
C1243 H1256 0.931 . S
C1244 C1243 1.291 . S
C1244 C1245 1.373 . S
C1244 H1257 0.929 . S
C1245 C1244 1.373 . S
C1245 C1246 1.396 . S
C1245 C1252 1.403 . S
C1246 C1236 1.476 . S
C1246 N1241 1.318 . S
C1246 C1245 1.396 . S
H1247 C1242 0.929 . S
O1248 Mn1224 2.385 . S
O1248 C1226 1.234 . S
O1249 Mn1224 2.209 . S
O1249 Mn1225 2.215 . S
O1249 C1226 1.283 . S
O1250 Mn1224 2.094 . S
O1250 C1228 1.240 . S
O1251 Mn1225 2.117 . S
O1251 C1228 1.264 . S
C1252 C1245 1.403 . S
C1252 C1253 1.399 . S
C1252 H1258 0.929 . S
C1253 C1233 1.449 . S
C1253 C1252 1.399 . S
C1253 H1259 0.930 . S
H1254 C1234 0.931 . S
H1255 C1235 0.930 . S
H1256 C1243 0.931 . S
H1257 C1244 0.929 . S
H1258 C1252 0.929 . S
H1259 C1253 0.930 . S
Mn1260 O1265 2.095 . S
Mn1260 O1275 2.162 . S
Mn1260 O1276 2.297 . S
Mn1260 O1284 2.385 . S
Mn1260 O1285 2.209 . S
Mn1260 O1286 2.094 . S
Mn1261 O1266 2.121 . S
Mn1261 N1268 2.257 . S
Mn1261 N1277 2.282 . S
Mn1261 O1285 2.215 . S
Mn1261 O1287 2.117 . S
C1262 O1284 1.234 . S
C1262 O1285 1.283 . S
C1263 O1275 1.281 . S
C1263 O1276 1.236 . S
C1264 O1286 1.240 . S
C1264 O1287 1.264 . S
O1265 Mn1260 2.095 . S
O1265 C1274 1.250 . S
O1266 Mn1261 2.121 . S
O1266 C1274 1.258 . S
C1267 N1268 1.326 . S
C1267 C1271 1.460 . S
C1267 H1273 0.929 . S
N1268 Mn1261 2.257 . S
N1268 C1267 1.326 . S
N1268 C1272 1.362 . S
C1269 C1270 1.258 . S
C1269 C1272 1.431 . S
C1269 C1289 1.449 . S
C1270 C1269 1.258 . S
C1270 C1271 1.477 . S
C1270 H1290 0.931 . S
C1271 C1267 1.460 . S
C1271 C1270 1.477 . S
C1271 H1291 0.930 . S
C1272 N1268 1.362 . S
C1272 C1269 1.431 . S
C1272 C1282 1.476 . S
H1273 C1267 0.929 . S
C1274 O1265 1.250 . S
C1274 O1266 1.258 . S
O1275 Mn1260 2.162 . S
O1275 C1263 1.281 . S
O1276 Mn1260 2.297 . S
O1276 C1263 1.236 . S
N1277 Mn1261 2.282 . S
N1277 C1278 1.328 . S
N1277 C1282 1.318 . S
C1278 N1277 1.328 . S
C1278 C1279 1.457 . S
C1278 H1283 0.929 . S
C1279 C1278 1.457 . S
C1279 C1280 1.291 . S
C1279 H1292 0.931 . S
C1280 C1279 1.291 . S
C1280 C1281 1.373 . S
C1280 H1293 0.929 . S
C1281 C1280 1.373 . S
C1281 C1282 1.396 . S
C1281 C1288 1.403 . S
C1282 C1272 1.476 . S
C1282 N1277 1.318 . S
C1282 C1281 1.396 . S
H1283 C1278 0.929 . S
O1284 Mn1260 2.385 . S
O1284 C1262 1.234 . S
O1285 Mn1260 2.209 . S
O1285 Mn1261 2.215 . S
O1285 C1262 1.283 . S
O1286 Mn1260 2.094 . S
O1286 C1264 1.240 . S
O1287 Mn1261 2.117 . S
O1287 C1264 1.264 . S
C1288 C1281 1.403 . S
C1288 C1289 1.399 . S
C1288 H1294 0.929 . S
C1289 C1269 1.449 . S
C1289 C1288 1.399 . S
C1289 H1295 0.930 . S
H1290 C1270 0.931 . S
H1291 C1271 0.930 . S
H1292 C1279 0.931 . S
H1293 C1280 0.929 . S
H1294 C1288 0.929 . S
H1295 C1289 0.930 . S
Mn1296 O1301 2.095 . S
Mn1296 O1311 2.162 . S
Mn1296 O1312 2.297 . S
Mn1296 O1320 2.385 . S
Mn1296 O1321 2.209 . S
Mn1296 O1322 2.094 . S
Mn1297 O1302 2.121 . S
Mn1297 N1304 2.257 . S
Mn1297 N1313 2.282 . S
Mn1297 O1321 2.215 . S
Mn1297 O1323 2.117 . S
C1298 O1320 1.234 . S
C1298 O1321 1.283 . S
C1299 O1311 1.281 . S
C1299 O1312 1.236 . S
C1300 O1322 1.240 . S
C1300 O1323 1.264 . S
O1301 Mn1296 2.095 . S
O1301 C1310 1.250 . S
O1302 Mn1297 2.121 . S
O1302 C1310 1.258 . S
C1303 N1304 1.326 . S
C1303 C1307 1.460 . S
C1303 H1309 0.929 . S
N1304 Mn1297 2.257 . S
N1304 C1303 1.326 . S
N1304 C1308 1.362 . S
C1305 C1306 1.258 . S
C1305 C1308 1.431 . S
C1305 C1325 1.449 . S
C1306 C1305 1.258 . S
C1306 C1307 1.477 . S
C1306 H1326 0.931 . S
C1307 C1303 1.460 . S
C1307 C1306 1.477 . S
C1307 H1327 0.930 . S
C1308 N1304 1.362 . S
C1308 C1305 1.431 . S
C1308 C1318 1.476 . S
H1309 C1303 0.929 . S
C1310 O1301 1.250 . S
C1310 O1302 1.258 . S
O1311 Mn1296 2.162 . S
O1311 C1299 1.281 . S
O1312 Mn1296 2.297 . S
O1312 C1299 1.236 . S
N1313 Mn1297 2.282 . S
N1313 C1314 1.328 . S
N1313 C1318 1.318 . S
C1314 N1313 1.328 . S
C1314 C1315 1.457 . S
C1314 H1319 0.929 . S
C1315 C1314 1.457 . S
C1315 C1316 1.291 . S
C1315 H1328 0.931 . S
C1316 C1315 1.291 . S
C1316 C1317 1.373 . S
C1316 H1329 0.929 . S
C1317 C1316 1.373 . S
C1317 C1318 1.396 . S
C1317 C1324 1.403 . S
C1318 C1308 1.476 . S
C1318 N1313 1.318 . S
C1318 C1317 1.396 . S
H1319 C1314 0.929 . S
O1320 Mn1296 2.385 . S
O1320 C1298 1.234 . S
O1321 Mn1296 2.209 . S
O1321 Mn1297 2.215 . S
O1321 C1298 1.283 . S
O1322 Mn1296 2.094 . S
O1322 C1300 1.240 . S
O1323 Mn1297 2.117 . S
O1323 C1300 1.264 . S
C1324 C1317 1.403 . S
C1324 C1325 1.399 . S
C1324 H1330 0.929 . S
C1325 C1305 1.449 . S
C1325 C1324 1.399 . S
C1325 H1331 0.930 . S
H1326 C1306 0.931 . S
H1327 C1307 0.930 . S
H1328 C1315 0.931 . S
H1329 C1316 0.929 . S
H1330 C1324 0.929 . S
H1331 C1325 0.930 . S
Mn1332 O1337 2.095 . S
Mn1332 O1347 2.162 . S
Mn1332 O1348 2.297 . S
Mn1332 O1356 2.385 . S
Mn1332 O1357 2.209 . S
Mn1332 O1358 2.094 . S
Mn1333 O1338 2.121 . S
Mn1333 N1340 2.257 . S
Mn1333 N1349 2.282 . S
Mn1333 O1357 2.215 . S
Mn1333 O1359 2.117 . S
C1334 O1356 1.234 . S
C1334 O1357 1.283 . S
C1335 O1347 1.281 . S
C1335 O1348 1.236 . S
C1336 O1358 1.240 . S
C1336 O1359 1.264 . S
O1337 Mn1332 2.095 . S
O1337 C1346 1.250 . S
O1338 Mn1333 2.121 . S
O1338 C1346 1.258 . S
C1339 N1340 1.326 . S
C1339 C1343 1.460 . S
C1339 H1345 0.929 . S
N1340 Mn1333 2.257 . S
N1340 C1339 1.326 . S
N1340 C1344 1.362 . S
C1341 C1342 1.258 . S
C1341 C1344 1.431 . S
C1341 C1361 1.449 . S
C1342 C1341 1.258 . S
C1342 C1343 1.477 . S
C1342 H1362 0.931 . S
C1343 C1339 1.460 . S
C1343 C1342 1.477 . S
C1343 H1363 0.930 . S
C1344 N1340 1.362 . S
C1344 C1341 1.431 . S
C1344 C1354 1.476 . S
H1345 C1339 0.929 . S
C1346 O1337 1.250 . S
C1346 O1338 1.258 . S
O1347 Mn1332 2.162 . S
O1347 C1335 1.281 . S
O1348 Mn1332 2.297 . S
O1348 C1335 1.236 . S
N1349 Mn1333 2.282 . S
N1349 C1350 1.328 . S
N1349 C1354 1.318 . S
C1350 N1349 1.328 . S
C1350 C1351 1.457 . S
C1350 H1355 0.929 . S
C1351 C1350 1.457 . S
C1351 C1352 1.291 . S
C1351 H1364 0.931 . S
C1352 C1351 1.291 . S
C1352 C1353 1.373 . S
C1352 H1365 0.929 . S
C1353 C1352 1.373 . S
C1353 C1354 1.396 . S
C1353 C1360 1.403 . S
C1354 C1344 1.476 . S
C1354 N1349 1.318 . S
C1354 C1353 1.396 . S
H1355 C1350 0.929 . S
O1356 Mn1332 2.385 . S
O1356 C1334 1.234 . S
O1357 Mn1332 2.209 . S
O1357 Mn1333 2.215 . S
O1357 C1334 1.283 . S
O1358 Mn1332 2.094 . S
O1358 C1336 1.240 . S
O1359 Mn1333 2.117 . S
O1359 C1336 1.264 . S
C1360 C1353 1.403 . S
C1360 C1361 1.399 . S
C1360 H1366 0.929 . S
C1361 C1341 1.449 . S
C1361 C1360 1.399 . S
C1361 H1367 0.930 . S
H1362 C1342 0.931 . S
H1363 C1343 0.930 . S
H1364 C1351 0.931 . S
H1365 C1352 0.929 . S
H1366 C1360 0.929 . S
H1367 C1361 0.930 . S
Mn1368 O1373 2.095 . S
Mn1368 O1383 2.162 . S
Mn1368 O1384 2.297 . S
Mn1368 O1392 2.385 . S
Mn1368 O1393 2.209 . S
Mn1368 O1394 2.094 . S
Mn1369 O1374 2.121 . S
Mn1369 N1376 2.257 . S
Mn1369 N1385 2.282 . S
Mn1369 O1393 2.215 . S
Mn1369 O1395 2.117 . S
C1370 O1392 1.234 . S
C1370 O1393 1.283 . S
C1371 O1383 1.281 . S
C1371 O1384 1.236 . S
C1372 O1394 1.240 . S
C1372 O1395 1.264 . S
O1373 Mn1368 2.095 . S
O1373 C1382 1.250 . S
O1374 Mn1369 2.121 . S
O1374 C1382 1.258 . S
C1375 N1376 1.326 . S
C1375 C1379 1.460 . S
C1375 H1381 0.929 . S
N1376 Mn1369 2.257 . S
N1376 C1375 1.326 . S
N1376 C1380 1.362 . S
C1377 C1378 1.258 . S
C1377 C1380 1.431 . S
C1377 C1397 1.449 . S
C1378 C1377 1.258 . S
C1378 C1379 1.477 . S
C1378 H1398 0.931 . S
C1379 C1375 1.460 . S
C1379 C1378 1.477 . S
C1379 H1399 0.930 . S
C1380 N1376 1.362 . S
C1380 C1377 1.431 . S
C1380 C1390 1.476 . S
H1381 C1375 0.929 . S
C1382 O1373 1.250 . S
C1382 O1374 1.258 . S
O1383 Mn1368 2.162 . S
O1383 C1371 1.281 . S
O1384 Mn1368 2.297 . S
O1384 C1371 1.236 . S
N1385 Mn1369 2.282 . S
N1385 C1386 1.328 . S
N1385 C1390 1.318 . S
C1386 N1385 1.328 . S
C1386 C1387 1.457 . S
C1386 H1391 0.929 . S
C1387 C1386 1.457 . S
C1387 C1388 1.291 . S
C1387 H1400 0.931 . S
C1388 C1387 1.291 . S
C1388 C1389 1.373 . S
C1388 H1401 0.929 . S
C1389 C1388 1.373 . S
C1389 C1390 1.396 . S
C1389 C1396 1.403 . S
C1390 C1380 1.476 . S
C1390 N1385 1.318 . S
C1390 C1389 1.396 . S
H1391 C1386 0.929 . S
O1392 Mn1368 2.385 . S
O1392 C1370 1.234 . S
O1393 Mn1368 2.209 . S
O1393 Mn1369 2.215 . S
O1393 C1370 1.283 . S
O1394 Mn1368 2.094 . S
O1394 C1372 1.240 . S
O1395 Mn1369 2.117 . S
O1395 C1372 1.264 . S
C1396 C1389 1.403 . S
C1396 C1397 1.399 . S
C1396 H1402 0.929 . S
C1397 C1377 1.449 . S
C1397 C1396 1.399 . S
C1397 H1403 0.930 . S
H1398 C1378 0.931 . S
H1399 C1379 0.930 . S
H1400 C1387 0.931 . S
H1401 C1388 0.929 . S
H1402 C1396 0.929 . S
H1403 C1397 0.930 . S
Mn1404 O1409 2.095 . S
Mn1404 O1419 2.162 . S
Mn1404 O1420 2.297 . S
Mn1404 O1428 2.385 . S
Mn1404 O1429 2.209 . S
Mn1404 O1430 2.094 . S
Mn1405 O1410 2.121 . S
Mn1405 N1412 2.257 . S
Mn1405 N1421 2.282 . S
Mn1405 O1429 2.215 . S
Mn1405 O1431 2.117 . S
C1406 O1428 1.234 . S
C1406 O1429 1.283 . S
C1407 O1419 1.281 . S
C1407 O1420 1.236 . S
C1408 O1430 1.240 . S
C1408 O1431 1.264 . S
O1409 Mn1404 2.095 . S
O1409 C1418 1.250 . S
O1410 Mn1405 2.121 . S
O1410 C1418 1.258 . S
C1411 N1412 1.326 . S
C1411 C1415 1.460 . S
C1411 H1417 0.929 . S
N1412 Mn1405 2.257 . S
N1412 C1411 1.326 . S
N1412 C1416 1.362 . S
C1413 C1414 1.258 . S
C1413 C1416 1.431 . S
C1413 C1433 1.449 . S
C1414 C1413 1.258 . S
C1414 C1415 1.477 . S
C1414 H1434 0.931 . S
C1415 C1411 1.460 . S
C1415 C1414 1.477 . S
C1415 H1435 0.930 . S
C1416 N1412 1.362 . S
C1416 C1413 1.431 . S
C1416 C1426 1.476 . S
H1417 C1411 0.929 . S
C1418 O1409 1.250 . S
C1418 O1410 1.258 . S
O1419 Mn1404 2.162 . S
O1419 C1407 1.281 . S
O1420 Mn1404 2.297 . S
O1420 C1407 1.236 . S
N1421 Mn1405 2.282 . S
N1421 C1422 1.328 . S
N1421 C1426 1.318 . S
C1422 N1421 1.328 . S
C1422 C1423 1.457 . S
C1422 H1427 0.929 . S
C1423 C1422 1.457 . S
C1423 C1424 1.291 . S
C1423 H1436 0.931 . S
C1424 C1423 1.291 . S
C1424 C1425 1.373 . S
C1424 H1437 0.929 . S
C1425 C1424 1.373 . S
C1425 C1426 1.396 . S
C1425 C1432 1.403 . S
C1426 C1416 1.476 . S
C1426 N1421 1.318 . S
C1426 C1425 1.396 . S
H1427 C1422 0.929 . S
O1428 Mn1404 2.385 . S
O1428 C1406 1.234 . S
O1429 Mn1404 2.209 . S
O1429 Mn1405 2.215 . S
O1429 C1406 1.283 . S
O1430 Mn1404 2.094 . S
O1430 C1408 1.240 . S
O1431 Mn1405 2.117 . S
O1431 C1408 1.264 . S
C1432 C1425 1.403 . S
C1432 C1433 1.399 . S
C1432 H1438 0.929 . S
C1433 C1413 1.449 . S
C1433 C1432 1.399 . S
C1433 H1439 0.930 . S
H1434 C1414 0.931 . S
H1435 C1415 0.930 . S
H1436 C1423 0.931 . S
H1437 C1424 0.929 . S
H1438 C1432 0.929 . S
H1439 C1433 0.930 . S
Mn1440 O1445 2.095 . S
Mn1440 O1455 2.162 . S
Mn1440 O1456 2.297 . S
Mn1440 O1464 2.385 . S
Mn1440 O1465 2.209 . S
Mn1440 O1466 2.094 . S
Mn1441 O1446 2.121 . S
Mn1441 N1448 2.257 . S
Mn1441 N1457 2.282 . S
Mn1441 O1465 2.215 . S
Mn1441 O1467 2.117 . S
C1442 O1464 1.234 . S
C1442 O1465 1.283 . S
C1443 O1455 1.281 . S
C1443 O1456 1.236 . S
C1444 O1466 1.240 . S
C1444 O1467 1.264 . S
O1445 Mn1440 2.095 . S
O1445 C1454 1.250 . S
O1446 Mn1441 2.121 . S
O1446 C1454 1.258 . S
C1447 N1448 1.326 . S
C1447 C1451 1.460 . S
C1447 H1453 0.929 . S
N1448 Mn1441 2.257 . S
N1448 C1447 1.326 . S
N1448 C1452 1.362 . S
C1449 C1450 1.258 . S
C1449 C1452 1.431 . S
C1449 C1469 1.449 . S
C1450 C1449 1.258 . S
C1450 C1451 1.477 . S
C1450 H1470 0.931 . S
C1451 C1447 1.460 . S
C1451 C1450 1.477 . S
C1451 H1471 0.930 . S
C1452 N1448 1.362 . S
C1452 C1449 1.431 . S
C1452 C1462 1.476 . S
H1453 C1447 0.929 . S
C1454 O1445 1.250 . S
C1454 O1446 1.258 . S
O1455 Mn1440 2.162 . S
O1455 C1443 1.281 . S
O1456 Mn1440 2.297 . S
O1456 C1443 1.236 . S
N1457 Mn1441 2.282 . S
N1457 C1458 1.328 . S
N1457 C1462 1.318 . S
C1458 N1457 1.328 . S
C1458 C1459 1.457 . S
C1458 H1463 0.929 . S
C1459 C1458 1.457 . S
C1459 C1460 1.291 . S
C1459 H1472 0.931 . S
C1460 C1459 1.291 . S
C1460 C1461 1.373 . S
C1460 H1473 0.929 . S
C1461 C1460 1.373 . S
C1461 C1462 1.396 . S
C1461 C1468 1.403 . S
C1462 C1452 1.476 . S
C1462 N1457 1.318 . S
C1462 C1461 1.396 . S
H1463 C1458 0.929 . S
O1464 Mn1440 2.385 . S
O1464 C1442 1.234 . S
O1465 Mn1440 2.209 . S
O1465 Mn1441 2.215 . S
O1465 C1442 1.283 . S
O1466 Mn1440 2.094 . S
O1466 C1444 1.240 . S
O1467 Mn1441 2.117 . S
O1467 C1444 1.264 . S
C1468 C1461 1.403 . S
C1468 C1469 1.399 . S
C1468 H1474 0.929 . S
C1469 C1449 1.449 . S
C1469 C1468 1.399 . S
C1469 H1475 0.930 . S
H1470 C1450 0.931 . S
H1471 C1451 0.930 . S
H1472 C1459 0.931 . S
H1473 C1460 0.929 . S
H1474 C1468 0.929 . S
H1475 C1469 0.930 . S
Mn1476 O1481 2.095 . S
Mn1476 O1491 2.162 . S
Mn1476 O1492 2.297 . S
Mn1476 O1500 2.385 . S
Mn1476 O1501 2.209 . S
Mn1476 O1502 2.094 . S
Mn1477 O1482 2.121 . S
Mn1477 N1484 2.257 . S
Mn1477 N1493 2.282 . S
Mn1477 O1501 2.215 . S
Mn1477 O1503 2.117 . S
C1478 O1500 1.234 . S
C1478 O1501 1.283 . S
C1479 O1491 1.281 . S
C1479 O1492 1.236 . S
C1480 O1502 1.240 . S
C1480 O1503 1.264 . S
O1481 Mn1476 2.095 . S
O1481 C1490 1.250 . S
O1482 Mn1477 2.121 . S
O1482 C1490 1.258 . S
C1483 N1484 1.326 . S
C1483 C1487 1.460 . S
C1483 H1489 0.929 . S
N1484 Mn1477 2.257 . S
N1484 C1483 1.326 . S
N1484 C1488 1.362 . S
C1485 C1486 1.258 . S
C1485 C1488 1.431 . S
C1485 C1505 1.449 . S
C1486 C1485 1.258 . S
C1486 C1487 1.477 . S
C1486 H1506 0.931 . S
C1487 C1483 1.460 . S
C1487 C1486 1.477 . S
C1487 H1507 0.930 . S
C1488 N1484 1.362 . S
C1488 C1485 1.431 . S
C1488 C1498 1.476 . S
H1489 C1483 0.929 . S
C1490 O1481 1.250 . S
C1490 O1482 1.258 . S
O1491 Mn1476 2.162 . S
O1491 C1479 1.281 . S
O1492 Mn1476 2.297 . S
O1492 C1479 1.236 . S
N1493 Mn1477 2.282 . S
N1493 C1494 1.328 . S
N1493 C1498 1.318 . S
C1494 N1493 1.328 . S
C1494 C1495 1.457 . S
C1494 H1499 0.929 . S
C1495 C1494 1.457 . S
C1495 C1496 1.291 . S
C1495 H1508 0.931 . S
C1496 C1495 1.291 . S
C1496 C1497 1.373 . S
C1496 H1509 0.929 . S
C1497 C1496 1.373 . S
C1497 C1498 1.396 . S
C1497 C1504 1.403 . S
C1498 C1488 1.476 . S
C1498 N1493 1.318 . S
C1498 C1497 1.396 . S
H1499 C1494 0.929 . S
O1500 Mn1476 2.385 . S
O1500 C1478 1.234 . S
O1501 Mn1476 2.209 . S
O1501 Mn1477 2.215 . S
O1501 C1478 1.283 . S
O1502 Mn1476 2.094 . S
O1502 C1480 1.240 . S
O1503 Mn1477 2.117 . S
O1503 C1480 1.264 . S
C1504 C1497 1.403 . S
C1504 C1505 1.399 . S
C1504 H1510 0.929 . S
C1505 C1485 1.449 . S
C1505 C1504 1.399 . S
C1505 H1511 0.930 . S
H1506 C1486 0.931 . S
H1507 C1487 0.930 . S
H1508 C1495 0.931 . S
H1509 C1496 0.929 . S
H1510 C1504 0.929 . S
H1511 C1505 0.930 . S
Mn1512 O1517 2.095 . S
Mn1512 O1527 2.162 . S
Mn1512 O1528 2.297 . S
Mn1512 O1536 2.385 . S
Mn1512 O1537 2.209 . S
Mn1512 O1538 2.094 . S
Mn1513 O1518 2.121 . S
Mn1513 N1520 2.257 . S
Mn1513 N1529 2.282 . S
Mn1513 O1537 2.215 . S
Mn1513 O1539 2.117 . S
C1514 O1536 1.234 . S
C1514 O1537 1.283 . S
C1515 O1527 1.281 . S
C1515 O1528 1.236 . S
C1516 O1538 1.240 . S
C1516 O1539 1.264 . S
O1517 Mn1512 2.095 . S
O1517 C1526 1.250 . S
O1518 Mn1513 2.121 . S
O1518 C1526 1.258 . S
C1519 N1520 1.326 . S
C1519 C1523 1.460 . S
C1519 H1525 0.929 . S
N1520 Mn1513 2.257 . S
N1520 C1519 1.326 . S
N1520 C1524 1.362 . S
C1521 C1522 1.258 . S
C1521 C1524 1.431 . S
C1521 C1541 1.449 . S
C1522 C1521 1.258 . S
C1522 C1523 1.477 . S
C1522 H1542 0.931 . S
C1523 C1519 1.460 . S
C1523 C1522 1.477 . S
C1523 H1543 0.930 . S
C1524 N1520 1.362 . S
C1524 C1521 1.431 . S
C1524 C1534 1.476 . S
H1525 C1519 0.929 . S
C1526 O1517 1.250 . S
C1526 O1518 1.258 . S
O1527 Mn1512 2.162 . S
O1527 C1515 1.281 . S
O1528 Mn1512 2.297 . S
O1528 C1515 1.236 . S
N1529 Mn1513 2.282 . S
N1529 C1530 1.328 . S
N1529 C1534 1.318 . S
C1530 N1529 1.328 . S
C1530 C1531 1.457 . S
C1530 H1535 0.929 . S
C1531 C1530 1.457 . S
C1531 C1532 1.291 . S
C1531 H1544 0.931 . S
C1532 C1531 1.291 . S
C1532 C1533 1.373 . S
C1532 H1545 0.929 . S
C1533 C1532 1.373 . S
C1533 C1534 1.396 . S
C1533 C1540 1.403 . S
C1534 C1524 1.476 . S
C1534 N1529 1.318 . S
C1534 C1533 1.396 . S
H1535 C1530 0.929 . S
O1536 Mn1512 2.385 . S
O1536 C1514 1.234 . S
O1537 Mn1512 2.209 . S
O1537 Mn1513 2.215 . S
O1537 C1514 1.283 . S
O1538 Mn1512 2.094 . S
O1538 C1516 1.240 . S
O1539 Mn1513 2.117 . S
O1539 C1516 1.264 . S
C1540 C1533 1.403 . S
C1540 C1541 1.399 . S
C1540 H1546 0.929 . S
C1541 C1521 1.449 . S
C1541 C1540 1.399 . S
C1541 H1547 0.930 . S
H1542 C1522 0.931 . S
H1543 C1523 0.930 . S
H1544 C1531 0.931 . S
H1545 C1532 0.929 . S
H1546 C1540 0.929 . S
H1547 C1541 0.930 . S
Mn1548 O1553 2.095 . S
Mn1548 O1563 2.162 . S
Mn1548 O1564 2.297 . S
Mn1548 O1572 2.385 . S
Mn1548 O1573 2.209 . S
Mn1548 O1574 2.094 . S
Mn1549 O1554 2.121 . S
Mn1549 N1556 2.257 . S
Mn1549 N1565 2.282 . S
Mn1549 O1573 2.215 . S
Mn1549 O1575 2.117 . S
C1550 O1572 1.234 . S
C1550 O1573 1.283 . S
C1551 O1563 1.281 . S
C1551 O1564 1.236 . S
C1552 O1574 1.240 . S
C1552 O1575 1.264 . S
O1553 Mn1548 2.095 . S
O1553 C1562 1.250 . S
O1554 Mn1549 2.121 . S
O1554 C1562 1.258 . S
C1555 N1556 1.326 . S
C1555 C1559 1.460 . S
C1555 H1561 0.929 . S
N1556 Mn1549 2.257 . S
N1556 C1555 1.326 . S
N1556 C1560 1.362 . S
C1557 C1558 1.258 . S
C1557 C1560 1.431 . S
C1557 C1577 1.449 . S
C1558 C1557 1.258 . S
C1558 C1559 1.477 . S
C1558 H1578 0.931 . S
C1559 C1555 1.460 . S
C1559 C1558 1.477 . S
C1559 H1579 0.930 . S
C1560 N1556 1.362 . S
C1560 C1557 1.431 . S
C1560 C1570 1.476 . S
H1561 C1555 0.929 . S
C1562 O1553 1.250 . S
C1562 O1554 1.258 . S
O1563 Mn1548 2.162 . S
O1563 C1551 1.281 . S
O1564 Mn1548 2.297 . S
O1564 C1551 1.236 . S
N1565 Mn1549 2.282 . S
N1565 C1566 1.328 . S
N1565 C1570 1.318 . S
C1566 N1565 1.328 . S
C1566 C1567 1.457 . S
C1566 H1571 0.929 . S
C1567 C1566 1.457 . S
C1567 C1568 1.291 . S
C1567 H1580 0.931 . S
C1568 C1567 1.291 . S
C1568 C1569 1.373 . S
C1568 H1581 0.929 . S
C1569 C1568 1.373 . S
C1569 C1570 1.396 . S
C1569 C1576 1.403 . S
C1570 C1560 1.476 . S
C1570 N1565 1.318 . S
C1570 C1569 1.396 . S
H1571 C1566 0.929 . S
O1572 Mn1548 2.385 . S
O1572 C1550 1.234 . S
O1573 Mn1548 2.209 . S
O1573 Mn1549 2.215 . S
O1573 C1550 1.283 . S
O1574 Mn1548 2.094 . S
O1574 C1552 1.240 . S
O1575 Mn1549 2.117 . S
O1575 C1552 1.264 . S
C1576 C1569 1.403 . S
C1576 C1577 1.399 . S
C1576 H1582 0.929 . S
C1577 C1557 1.449 . S
C1577 C1576 1.399 . S
C1577 H1583 0.930 . S
H1578 C1558 0.931 . S
H1579 C1559 0.930 . S
H1580 C1567 0.931 . S
H1581 C1568 0.929 . S
H1582 C1576 0.929 . S
H1583 C1577 0.930 . S
Mn1584 O1589 2.095 . S
Mn1584 O1599 2.162 . S
Mn1584 O1600 2.297 . S
Mn1584 O1608 2.385 . S
Mn1584 O1609 2.209 . S
Mn1584 O1610 2.094 . S
Mn1585 O1590 2.121 . S
Mn1585 N1592 2.257 . S
Mn1585 N1601 2.282 . S
Mn1585 O1609 2.215 . S
Mn1585 O1611 2.117 . S
C1586 O1608 1.234 . S
C1586 O1609 1.283 . S
C1587 O1599 1.281 . S
C1587 O1600 1.236 . S
C1588 O1610 1.240 . S
C1588 O1611 1.264 . S
O1589 Mn1584 2.095 . S
O1589 C1598 1.250 . S
O1590 Mn1585 2.121 . S
O1590 C1598 1.258 . S
C1591 N1592 1.326 . S
C1591 C1595 1.460 . S
C1591 H1597 0.929 . S
N1592 Mn1585 2.257 . S
N1592 C1591 1.326 . S
N1592 C1596 1.362 . S
C1593 C1594 1.258 . S
C1593 C1596 1.431 . S
C1593 C1613 1.449 . S
C1594 C1593 1.258 . S
C1594 C1595 1.477 . S
C1594 H1614 0.931 . S
C1595 C1591 1.460 . S
C1595 C1594 1.477 . S
C1595 H1615 0.930 . S
C1596 N1592 1.362 . S
C1596 C1593 1.431 . S
C1596 C1606 1.476 . S
H1597 C1591 0.929 . S
C1598 O1589 1.250 . S
C1598 O1590 1.258 . S
O1599 Mn1584 2.162 . S
O1599 C1587 1.281 . S
O1600 Mn1584 2.297 . S
O1600 C1587 1.236 . S
N1601 Mn1585 2.282 . S
N1601 C1602 1.328 . S
N1601 C1606 1.318 . S
C1602 N1601 1.328 . S
C1602 C1603 1.457 . S
C1602 H1607 0.929 . S
C1603 C1602 1.457 . S
C1603 C1604 1.291 . S
C1603 H1616 0.931 . S
C1604 C1603 1.291 . S
C1604 C1605 1.373 . S
C1604 H1617 0.929 . S
C1605 C1604 1.373 . S
C1605 C1606 1.396 . S
C1605 C1612 1.403 . S
C1606 C1596 1.476 . S
C1606 N1601 1.318 . S
C1606 C1605 1.396 . S
H1607 C1602 0.929 . S
O1608 Mn1584 2.385 . S
O1608 C1586 1.234 . S
O1609 Mn1584 2.209 . S
O1609 Mn1585 2.215 . S
O1609 C1586 1.283 . S
O1610 Mn1584 2.094 . S
O1610 C1588 1.240 . S
O1611 Mn1585 2.117 . S
O1611 C1588 1.264 . S
C1612 C1605 1.403 . S
C1612 C1613 1.399 . S
C1612 H1618 0.929 . S
C1613 C1593 1.449 . S
C1613 C1612 1.399 . S
C1613 H1619 0.930 . S
H1614 C1594 0.931 . S
H1615 C1595 0.930 . S
H1616 C1603 0.931 . S
H1617 C1604 0.929 . S
H1618 C1612 0.929 . S
H1619 C1613 0.930 . S
Mn1620 O1625 2.095 . S
Mn1620 O1635 2.162 . S
Mn1620 O1636 2.297 . S
Mn1620 O1644 2.385 . S
Mn1620 O1645 2.209 . S
Mn1620 O1646 2.094 . S
Mn1621 O1626 2.121 . S
Mn1621 N1628 2.257 . S
Mn1621 N1637 2.282 . S
Mn1621 O1645 2.215 . S
Mn1621 O1647 2.117 . S
C1622 O1644 1.234 . S
C1622 O1645 1.283 . S
C1623 O1635 1.281 . S
C1623 O1636 1.236 . S
C1624 O1646 1.240 . S
C1624 O1647 1.264 . S
O1625 Mn1620 2.095 . S
O1625 C1634 1.250 . S
O1626 Mn1621 2.121 . S
O1626 C1634 1.258 . S
C1627 N1628 1.326 . S
C1627 C1631 1.460 . S
C1627 H1633 0.929 . S
N1628 Mn1621 2.257 . S
N1628 C1627 1.326 . S
N1628 C1632 1.362 . S
C1629 C1630 1.258 . S
C1629 C1632 1.431 . S
C1629 C1649 1.449 . S
C1630 C1629 1.258 . S
C1630 C1631 1.477 . S
C1630 H1650 0.931 . S
C1631 C1627 1.460 . S
C1631 C1630 1.477 . S
C1631 H1651 0.930 . S
C1632 N1628 1.362 . S
C1632 C1629 1.431 . S
C1632 C1642 1.476 . S
H1633 C1627 0.929 . S
C1634 O1625 1.250 . S
C1634 O1626 1.258 . S
O1635 Mn1620 2.162 . S
O1635 C1623 1.281 . S
O1636 Mn1620 2.297 . S
O1636 C1623 1.236 . S
N1637 Mn1621 2.282 . S
N1637 C1638 1.328 . S
N1637 C1642 1.318 . S
C1638 N1637 1.328 . S
C1638 C1639 1.457 . S
C1638 H1643 0.929 . S
C1639 C1638 1.457 . S
C1639 C1640 1.291 . S
C1639 H1652 0.931 . S
C1640 C1639 1.291 . S
C1640 C1641 1.373 . S
C1640 H1653 0.929 . S
C1641 C1640 1.373 . S
C1641 C1642 1.396 . S
C1641 C1648 1.403 . S
C1642 C1632 1.476 . S
C1642 N1637 1.318 . S
C1642 C1641 1.396 . S
H1643 C1638 0.929 . S
O1644 Mn1620 2.385 . S
O1644 C1622 1.234 . S
O1645 Mn1620 2.209 . S
O1645 Mn1621 2.215 . S
O1645 C1622 1.283 . S
O1646 Mn1620 2.094 . S
O1646 C1624 1.240 . S
O1647 Mn1621 2.117 . S
O1647 C1624 1.264 . S
C1648 C1641 1.403 . S
C1648 C1649 1.399 . S
C1648 H1654 0.929 . S
C1649 C1629 1.449 . S
C1649 C1648 1.399 . S
C1649 H1655 0.930 . S
H1650 C1630 0.931 . S
H1651 C1631 0.930 . S
H1652 C1639 0.931 . S
H1653 C1640 0.929 . S
H1654 C1648 0.929 . S
H1655 C1649 0.930 . S
Mn1656 O1661 2.095 . S
Mn1656 O1671 2.162 . S
Mn1656 O1672 2.297 . S
Mn1656 O1680 2.385 . S
Mn1656 O1681 2.209 . S
Mn1656 O1682 2.094 . S
Mn1657 O1662 2.121 . S
Mn1657 N1664 2.257 . S
Mn1657 N1673 2.282 . S
Mn1657 O1681 2.215 . S
Mn1657 O1683 2.117 . S
C1658 O1680 1.234 . S
C1658 O1681 1.283 . S
C1659 O1671 1.281 . S
C1659 O1672 1.236 . S
C1660 O1682 1.240 . S
C1660 O1683 1.264 . S
O1661 Mn1656 2.095 . S
O1661 C1670 1.250 . S
O1662 Mn1657 2.121 . S
O1662 C1670 1.258 . S
C1663 N1664 1.326 . S
C1663 C1667 1.460 . S
C1663 H1669 0.929 . S
N1664 Mn1657 2.257 . S
N1664 C1663 1.326 . S
N1664 C1668 1.362 . S
C1665 C1666 1.258 . S
C1665 C1668 1.431 . S
C1665 C1685 1.449 . S
C1666 C1665 1.258 . S
C1666 C1667 1.477 . S
C1666 H1686 0.931 . S
C1667 C1663 1.460 . S
C1667 C1666 1.477 . S
C1667 H1687 0.930 . S
C1668 N1664 1.362 . S
C1668 C1665 1.431 . S
C1668 C1678 1.476 . S
H1669 C1663 0.929 . S
C1670 O1661 1.250 . S
C1670 O1662 1.258 . S
O1671 Mn1656 2.162 . S
O1671 C1659 1.281 . S
O1672 Mn1656 2.297 . S
O1672 C1659 1.236 . S
N1673 Mn1657 2.282 . S
N1673 C1674 1.328 . S
N1673 C1678 1.318 . S
C1674 N1673 1.328 . S
C1674 C1675 1.457 . S
C1674 H1679 0.929 . S
C1675 C1674 1.457 . S
C1675 C1676 1.291 . S
C1675 H1688 0.931 . S
C1676 C1675 1.291 . S
C1676 C1677 1.373 . S
C1676 H1689 0.929 . S
C1677 C1676 1.373 . S
C1677 C1678 1.396 . S
C1677 C1684 1.403 . S
C1678 C1668 1.476 . S
C1678 N1673 1.318 . S
C1678 C1677 1.396 . S
H1679 C1674 0.929 . S
O1680 Mn1656 2.385 . S
O1680 C1658 1.234 . S
O1681 Mn1656 2.209 . S
O1681 Mn1657 2.215 . S
O1681 C1658 1.283 . S
O1682 Mn1656 2.094 . S
O1682 C1660 1.240 . S
O1683 Mn1657 2.117 . S
O1683 C1660 1.264 . S
C1684 C1677 1.403 . S
C1684 C1685 1.399 . S
C1684 H1690 0.929 . S
C1685 C1665 1.449 . S
C1685 C1684 1.399 . S
C1685 H1691 0.930 . S
H1686 C1666 0.931 . S
H1687 C1667 0.930 . S
H1688 C1675 0.931 . S
H1689 C1676 0.929 . S
H1690 C1684 0.929 . S
H1691 C1685 0.930 . S
Mn1692 O1697 2.095 . S
Mn1692 O1707 2.162 . S
Mn1692 O1708 2.297 . S
Mn1692 O1716 2.385 . S
Mn1692 O1717 2.209 . S
Mn1692 O1718 2.094 . S
Mn1693 O1698 2.121 . S
Mn1693 N1700 2.257 . S
Mn1693 N1709 2.282 . S
Mn1693 O1717 2.215 . S
Mn1693 O1719 2.117 . S
C1694 O1716 1.234 . S
C1694 O1717 1.283 . S
C1695 O1707 1.281 . S
C1695 O1708 1.236 . S
C1696 O1718 1.240 . S
C1696 O1719 1.264 . S
O1697 Mn1692 2.095 . S
O1697 C1706 1.250 . S
O1698 Mn1693 2.121 . S
O1698 C1706 1.258 . S
C1699 N1700 1.326 . S
C1699 C1703 1.460 . S
C1699 H1705 0.929 . S
N1700 Mn1693 2.257 . S
N1700 C1699 1.326 . S
N1700 C1704 1.362 . S
C1701 C1702 1.258 . S
C1701 C1704 1.431 . S
C1701 C1721 1.449 . S
C1702 C1701 1.258 . S
C1702 C1703 1.477 . S
C1702 H1722 0.931 . S
C1703 C1699 1.460 . S
C1703 C1702 1.477 . S
C1703 H1723 0.930 . S
C1704 N1700 1.362 . S
C1704 C1701 1.431 . S
C1704 C1714 1.476 . S
H1705 C1699 0.929 . S
C1706 O1697 1.250 . S
C1706 O1698 1.258 . S
O1707 Mn1692 2.162 . S
O1707 C1695 1.281 . S
O1708 Mn1692 2.297 . S
O1708 C1695 1.236 . S
N1709 Mn1693 2.282 . S
N1709 C1710 1.328 . S
N1709 C1714 1.318 . S
C1710 N1709 1.328 . S
C1710 C1711 1.457 . S
C1710 H1715 0.929 . S
C1711 C1710 1.457 . S
C1711 C1712 1.291 . S
C1711 H1724 0.931 . S
C1712 C1711 1.291 . S
C1712 C1713 1.373 . S
C1712 H1725 0.929 . S
C1713 C1712 1.373 . S
C1713 C1714 1.396 . S
C1713 C1720 1.403 . S
C1714 C1704 1.476 . S
C1714 N1709 1.318 . S
C1714 C1713 1.396 . S
H1715 C1710 0.929 . S
O1716 Mn1692 2.385 . S
O1716 C1694 1.234 . S
O1717 Mn1692 2.209 . S
O1717 Mn1693 2.215 . S
O1717 C1694 1.283 . S
O1718 Mn1692 2.094 . S
O1718 C1696 1.240 . S
O1719 Mn1693 2.117 . S
O1719 C1696 1.264 . S
C1720 C1713 1.403 . S
C1720 C1721 1.399 . S
C1720 H1726 0.929 . S
C1721 C1701 1.449 . S
C1721 C1720 1.399 . S
C1721 H1727 0.930 . S
H1722 C1702 0.931 . S
H1723 C1703 0.930 . S
H1724 C1711 0.931 . S
H1725 C1712 0.929 . S
H1726 C1720 0.929 . S
H1727 C1721 0.930 . S
C1728 C1729 1.349 . S
C1728 C1730 1.327 . S
C1728 H1753 0.950 . S
C1729 C1728 1.349 . S
C1729 C1745 1.349 . S
C1730 C1728 1.327 . S
C1730 C1749 1.429 . S
C1730 H1754 0.950 . S
C1731 C1748 1.574 . S
C1731 C1750 1.368 . S
C1731 H1755 0.949 . S
H1732 C1736 0.949 . S
C1733 C1734 1.349 . S
C1733 C1735 1.327 . S
C1733 H1756 0.950 . S
C1734 C1733 1.349 . S
C1734 C1746 1.349 . S
C1735 C1733 1.327 . S
C1735 C1751 1.429 . S
C1735 H1757 0.950 . S
C1736 H1732 0.949 . S
C1736 C1744 1.574 . S
C1736 C1752 1.368 . S
H1737 C1745 0.950 . S
H1738 C1743 0.950 . S
H1739 C1744 0.949 . S
H1740 C1746 0.950 . S
H1741 C1747 0.950 . S
H1742 C1748 0.949 . S
C1743 H1738 0.950 . S
C1743 C1745 1.327 . S
C1743 C1749 1.429 . S
C1744 C1736 1.574 . S
C1744 H1739 0.949 . S
C1744 C1750 1.368 . S
C1745 C1729 1.349 . S
C1745 H1737 0.950 . S
C1745 C1743 1.327 . S
C1746 C1734 1.349 . S
C1746 H1740 0.950 . S
C1746 C1747 1.327 . S
C1747 H1741 0.950 . S
C1747 C1746 1.327 . S
C1747 C1751 1.429 . S
C1748 C1731 1.574 . S
C1748 H1742 0.949 . S
C1748 C1752 1.368 . S
C1749 C1730 1.429 . S
C1749 C1743 1.429 . S
C1749 C1750 1.523 . S
C1750 C1731 1.368 . S
C1750 C1744 1.368 . S
C1750 C1749 1.523 . S
C1751 C1735 1.429 . S
C1751 C1747 1.429 . S
C1751 C1752 1.523 . S
C1752 C1736 1.368 . S
C1752 C1748 1.368 . S
C1752 C1751 1.523 . S
H1753 C1728 0.950 . S
H1754 C1730 0.950 . S
H1755 C1731 0.949 . S
H1756 C1733 0.950 . S
H1757 C1735 0.950 . S
C1758 C1759 1.349 . S
C1758 C1760 1.327 . S
C1758 H1783 0.950 . S
C1759 C1758 1.349 . S
C1759 C1775 1.349 . S
C1760 C1758 1.327 . S
C1760 C1779 1.429 . S
C1760 H1784 0.950 . S
C1761 C1778 1.574 . S
C1761 C1780 1.368 . S
C1761 H1785 0.949 . S
H1762 C1766 0.949 . S
C1763 C1764 1.349 . S
C1763 C1765 1.327 . S
C1763 H1786 0.950 . S
C1764 C1763 1.349 . S
C1764 C1776 1.349 . S
C1765 C1763 1.327 . S
C1765 C1781 1.429 . S
C1765 H1787 0.950 . S
C1766 H1762 0.949 . S
C1766 C1774 1.574 . S
C1766 C1782 1.368 . S
H1767 C1775 0.950 . S
H1768 C1773 0.950 . S
H1769 C1774 0.949 . S
H1770 C1776 0.950 . S
H1771 C1777 0.950 . S
H1772 C1778 0.949 . S
C1773 H1768 0.950 . S
C1773 C1775 1.327 . S
C1773 C1779 1.429 . S
C1774 C1766 1.574 . S
C1774 H1769 0.949 . S
C1774 C1780 1.368 . S
C1775 C1759 1.349 . S
C1775 H1767 0.950 . S
C1775 C1773 1.327 . S
C1776 C1764 1.349 . S
C1776 H1770 0.950 . S
C1776 C1777 1.327 . S
C1777 H1771 0.950 . S
C1777 C1776 1.327 . S
C1777 C1781 1.429 . S
C1778 C1761 1.574 . S
C1778 H1772 0.949 . S
C1778 C1782 1.368 . S
C1779 C1760 1.429 . S
C1779 C1773 1.429 . S
C1779 C1780 1.523 . S
C1780 C1761 1.368 . S
C1780 C1774 1.368 . S
C1780 C1779 1.523 . S
C1781 C1765 1.429 . S
C1781 C1777 1.429 . S
C1781 C1782 1.523 . S
C1782 C1766 1.368 . S
C1782 C1778 1.368 . S
C1782 C1781 1.523 . S
H1783 C1758 0.950 . S
H1784 C1760 0.950 . S
H1785 C1761 0.949 . S
H1786 C1763 0.950 . S
H1787 C1765 0.950 . S
C1788 C1789 1.349 . S
C1788 C1790 1.327 . S
C1788 H1813 0.950 . S
C1789 C1788 1.349 . S
C1789 C1805 1.349 . S
C1790 C1788 1.327 . S
C1790 C1809 1.429 . S
C1790 H1814 0.950 . S
C1791 C1808 1.574 . S
C1791 C1810 1.368 . S
C1791 H1815 0.949 . S
H1792 C1796 0.949 . S
C1793 C1794 1.349 . S
C1793 C1795 1.327 . S
C1793 H1816 0.950 . S
C1794 C1793 1.349 . S
C1794 C1806 1.349 . S
C1795 C1793 1.327 . S
C1795 C1811 1.429 . S
C1795 H1817 0.950 . S
C1796 H1792 0.949 . S
C1796 C1804 1.574 . S
C1796 C1812 1.368 . S
H1797 C1805 0.950 . S
H1798 C1803 0.950 . S
H1799 C1804 0.949 . S
H1800 C1806 0.950 . S
H1801 C1807 0.950 . S
H1802 C1808 0.949 . S
C1803 H1798 0.950 . S
C1803 C1805 1.327 . S
C1803 C1809 1.429 . S
C1804 C1796 1.574 . S
C1804 H1799 0.949 . S
C1804 C1810 1.368 . S
C1805 C1789 1.349 . S
C1805 H1797 0.950 . S
C1805 C1803 1.327 . S
C1806 C1794 1.349 . S
C1806 H1800 0.950 . S
C1806 C1807 1.327 . S
C1807 H1801 0.950 . S
C1807 C1806 1.327 . S
C1807 C1811 1.429 . S
C1808 C1791 1.574 . S
C1808 H1802 0.949 . S
C1808 C1812 1.368 . S
C1809 C1790 1.429 . S
C1809 C1803 1.429 . S
C1809 C1810 1.523 . S
C1810 C1791 1.368 . S
C1810 C1804 1.368 . S
C1810 C1809 1.523 . S
C1811 C1795 1.429 . S
C1811 C1807 1.429 . S
C1811 C1812 1.523 . S
C1812 C1796 1.368 . S
C1812 C1808 1.368 . S
C1812 C1811 1.523 . S
H1813 C1788 0.950 . S
H1814 C1790 0.950 . S
H1815 C1791 0.949 . S
H1816 C1793 0.950 . S
H1817 C1795 0.950 . S
C1818 C1819 1.349 . S
C1818 C1820 1.327 . S
C1818 H1843 0.950 . S
C1819 C1818 1.349 . S
C1819 C1835 1.349 . S
C1820 C1818 1.327 . S
C1820 C1839 1.429 . S
C1820 H1844 0.950 . S
C1821 C1838 1.574 . S
C1821 C1840 1.368 . S
C1821 H1845 0.949 . S
H1822 C1826 0.949 . S
C1823 C1824 1.349 . S
C1823 C1825 1.327 . S
C1823 H1846 0.950 . S
C1824 C1823 1.349 . S
C1824 C1836 1.349 . S
C1825 C1823 1.327 . S
C1825 C1841 1.429 . S
C1825 H1847 0.950 . S
C1826 H1822 0.949 . S
C1826 C1834 1.574 . S
C1826 C1842 1.368 . S
H1827 C1835 0.950 . S
H1828 C1833 0.950 . S
H1829 C1834 0.949 . S
H1830 C1836 0.950 . S
H1831 C1837 0.950 . S
H1832 C1838 0.949 . S
C1833 H1828 0.950 . S
C1833 C1835 1.327 . S
C1833 C1839 1.429 . S
C1834 C1826 1.574 . S
C1834 H1829 0.949 . S
C1834 C1840 1.368 . S
C1835 C1819 1.349 . S
C1835 H1827 0.950 . S
C1835 C1833 1.327 . S
C1836 C1824 1.349 . S
C1836 H1830 0.950 . S
C1836 C1837 1.327 . S
C1837 H1831 0.950 . S
C1837 C1836 1.327 . S
C1837 C1841 1.429 . S
C1838 C1821 1.574 . S
C1838 H1832 0.949 . S
C1838 C1842 1.368 . S
C1839 C1820 1.429 . S
C1839 C1833 1.429 . S
C1839 C1840 1.523 . S
C1840 C1821 1.368 . S
C1840 C1834 1.368 . S
C1840 C1839 1.523 . S
C1841 C1825 1.429 . S
C1841 C1837 1.429 . S
C1841 C1842 1.523 . S
C1842 C1826 1.368 . S
C1842 C1838 1.368 . S
C1842 C1841 1.523 . S
H1843 C1818 0.950 . S
H1844 C1820 0.950 . S
H1845 C1821 0.949 . S
H1846 C1823 0.950 . S
H1847 C1825 0.950 . S
C1848 C1849 1.349 . S
C1848 C1850 1.327 . S
C1848 H1873 0.950 . S
C1849 C1848 1.349 . S
C1849 C1865 1.349 . S
C1850 C1848 1.327 . S
C1850 C1869 1.429 . S
C1850 H1874 0.950 . S
C1851 C1868 1.574 . S
C1851 C1870 1.368 . S
C1851 H1875 0.949 . S
H1852 C1856 0.949 . S
C1853 C1854 1.349 . S
C1853 C1855 1.327 . S
C1853 H1876 0.950 . S
C1854 C1853 1.349 . S
C1854 C1866 1.349 . S
C1855 C1853 1.327 . S
C1855 C1871 1.429 . S
C1855 H1877 0.950 . S
C1856 H1852 0.949 . S
C1856 C1864 1.574 . S
C1856 C1872 1.368 . S
H1857 C1865 0.950 . S
H1858 C1863 0.950 . S
H1859 C1864 0.949 . S
H1860 C1866 0.950 . S
H1861 C1867 0.950 . S
H1862 C1868 0.949 . S
C1863 H1858 0.950 . S
C1863 C1865 1.327 . S
C1863 C1869 1.429 . S
C1864 C1856 1.574 . S
C1864 H1859 0.949 . S
C1864 C1870 1.368 . S
C1865 C1849 1.349 . S
C1865 H1857 0.950 . S
C1865 C1863 1.327 . S
C1866 C1854 1.349 . S
C1866 H1860 0.950 . S
C1866 C1867 1.327 . S
C1867 H1861 0.950 . S
C1867 C1866 1.327 . S
C1867 C1871 1.429 . S
C1868 C1851 1.574 . S
C1868 H1862 0.949 . S
C1868 C1872 1.368 . S
C1869 C1850 1.429 . S
C1869 C1863 1.429 . S
C1869 C1870 1.523 . S
C1870 C1851 1.368 . S
C1870 C1864 1.368 . S
C1870 C1869 1.523 . S
C1871 C1855 1.429 . S
C1871 C1867 1.429 . S
C1871 C1872 1.523 . S
C1872 C1856 1.368 . S
C1872 C1868 1.368 . S
C1872 C1871 1.523 . S
H1873 C1848 0.950 . S
H1874 C1850 0.950 . S
H1875 C1851 0.949 . S
H1876 C1853 0.950 . S
H1877 C1855 0.950 . S
C1878 C1879 1.349 . S
C1878 C1880 1.327 . S
C1878 H1903 0.950 . S
C1879 C1878 1.349 . S
C1879 C1895 1.349 . S
C1880 C1878 1.327 . S
C1880 C1899 1.429 . S
C1880 H1904 0.950 . S
C1881 C1898 1.574 . S
C1881 C1900 1.368 . S
C1881 H1905 0.949 . S
H1882 C1886 0.949 . S
C1883 C1884 1.349 . S
C1883 C1885 1.327 . S
C1883 H1906 0.950 . S
C1884 C1883 1.349 . S
C1884 C1896 1.349 . S
C1885 C1883 1.327 . S
C1885 C1901 1.429 . S
C1885 H1907 0.950 . S
C1886 H1882 0.949 . S
C1886 C1894 1.574 . S
C1886 C1902 1.368 . S
H1887 C1895 0.950 . S
H1888 C1893 0.950 . S
H1889 C1894 0.949 . S
H1890 C1896 0.950 . S
H1891 C1897 0.950 . S
H1892 C1898 0.949 . S
C1893 H1888 0.950 . S
C1893 C1895 1.327 . S
C1893 C1899 1.429 . S
C1894 C1886 1.574 . S
C1894 H1889 0.949 . S
C1894 C1900 1.368 . S
C1895 C1879 1.349 . S
C1895 H1887 0.950 . S
C1895 C1893 1.327 . S
C1896 C1884 1.349 . S
C1896 H1890 0.950 . S
C1896 C1897 1.327 . S
C1897 H1891 0.950 . S
C1897 C1896 1.327 . S
C1897 C1901 1.429 . S
C1898 C1881 1.574 . S
C1898 H1892 0.949 . S
C1898 C1902 1.368 . S
C1899 C1880 1.429 . S
C1899 C1893 1.429 . S
C1899 C1900 1.523 . S
C1900 C1881 1.368 . S
C1900 C1894 1.368 . S
C1900 C1899 1.523 . S
C1901 C1885 1.429 . S
C1901 C1897 1.429 . S
C1901 C1902 1.523 . S
C1902 C1886 1.368 . S
C1902 C1898 1.368 . S
C1902 C1901 1.523 . S
H1903 C1878 0.950 . S
H1904 C1880 0.950 . S
H1905 C1881 0.949 . S
H1906 C1883 0.950 . S
H1907 C1885 0.950 . S
C1908 C1909 1.349 . S
C1908 C1910 1.327 . S
C1908 H1933 0.950 . S
C1909 C1908 1.349 . S
C1909 C1925 1.349 . S
C1910 C1908 1.327 . S
C1910 C1929 1.429 . S
C1910 H1934 0.950 . S
C1911 C1928 1.574 . S
C1911 C1930 1.368 . S
C1911 H1935 0.949 . S
H1912 C1916 0.949 . S
C1913 C1914 1.349 . S
C1913 C1915 1.327 . S
C1913 H1936 0.950 . S
C1914 C1913 1.349 . S
C1914 C1926 1.349 . S
C1915 C1913 1.327 . S
C1915 C1931 1.429 . S
C1915 H1937 0.950 . S
C1916 H1912 0.949 . S
C1916 C1924 1.574 . S
C1916 C1932 1.368 . S
H1917 C1925 0.950 . S
H1918 C1923 0.950 . S
H1919 C1924 0.949 . S
H1920 C1926 0.950 . S
H1921 C1927 0.950 . S
H1922 C1928 0.949 . S
C1923 H1918 0.950 . S
C1923 C1925 1.327 . S
C1923 C1929 1.429 . S
C1924 C1916 1.574 . S
C1924 H1919 0.949 . S
C1924 C1930 1.368 . S
C1925 C1909 1.349 . S
C1925 H1917 0.950 . S
C1925 C1923 1.327 . S
C1926 C1914 1.349 . S
C1926 H1920 0.950 . S
C1926 C1927 1.327 . S
C1927 H1921 0.950 . S
C1927 C1926 1.327 . S
C1927 C1931 1.429 . S
C1928 C1911 1.574 . S
C1928 H1922 0.949 . S
C1928 C1932 1.368 . S
C1929 C1910 1.429 . S
C1929 C1923 1.429 . S
C1929 C1930 1.523 . S
C1930 C1911 1.368 . S
C1930 C1924 1.368 . S
C1930 C1929 1.523 . S
C1931 C1915 1.429 . S
C1931 C1927 1.429 . S
C1931 C1932 1.523 . S
C1932 C1916 1.368 . S
C1932 C1928 1.368 . S
C1932 C1931 1.523 . S
H1933 C1908 0.950 . S
H1934 C1910 0.950 . S
H1935 C1911 0.949 . S
H1936 C1913 0.950 . S
H1937 C1915 0.950 . S
C1938 C1939 1.349 . S
C1938 C1940 1.327 . S
C1938 H1963 0.950 . S
C1939 C1938 1.349 . S
C1939 C1955 1.349 . S
C1940 C1938 1.327 . S
C1940 C1959 1.429 . S
C1940 H1964 0.950 . S
C1941 C1958 1.574 . S
C1941 C1960 1.368 . S
C1941 H1965 0.949 . S
H1942 C1946 0.949 . S
C1943 C1944 1.349 . S
C1943 C1945 1.327 . S
C1943 H1966 0.950 . S
C1944 C1943 1.349 . S
C1944 C1956 1.349 . S
C1945 C1943 1.327 . S
C1945 C1961 1.429 . S
C1945 H1967 0.950 . S
C1946 H1942 0.949 . S
C1946 C1954 1.574 . S
C1946 C1962 1.368 . S
H1947 C1955 0.950 . S
H1948 C1953 0.950 . S
H1949 C1954 0.949 . S
H1950 C1956 0.950 . S
H1951 C1957 0.950 . S
H1952 C1958 0.949 . S
C1953 H1948 0.950 . S
C1953 C1955 1.327 . S
C1953 C1959 1.429 . S
C1954 C1946 1.574 . S
C1954 H1949 0.949 . S
C1954 C1960 1.368 . S
C1955 C1939 1.349 . S
C1955 H1947 0.950 . S
C1955 C1953 1.327 . S
C1956 C1944 1.349 . S
C1956 H1950 0.950 . S
C1956 C1957 1.327 . S
C1957 H1951 0.950 . S
C1957 C1956 1.327 . S
C1957 C1961 1.429 . S
C1958 C1941 1.574 . S
C1958 H1952 0.949 . S
C1958 C1962 1.368 . S
C1959 C1940 1.429 . S
C1959 C1953 1.429 . S
C1959 C1960 1.523 . S
C1960 C1941 1.368 . S
C1960 C1954 1.368 . S
C1960 C1959 1.523 . S
C1961 C1945 1.429 . S
C1961 C1957 1.429 . S
C1961 C1962 1.523 . S
C1962 C1946 1.368 . S
C1962 C1958 1.368 . S
C1962 C1961 1.523 . S
H1963 C1938 0.950 . S
H1964 C1940 0.950 . S
H1965 C1941 0.949 . S
H1966 C1943 0.950 . S
H1967 C1945 0.950 . S
C1968 C1969 1.349 . S
C1968 C1970 1.327 . S
C1968 H1993 0.950 . S
C1969 C1968 1.349 . S
C1969 C1985 1.349 . S
C1970 C1968 1.327 . S
C1970 C1989 1.429 . S
C1970 H1994 0.950 . S
C1971 C1988 1.574 . S
C1971 C1990 1.368 . S
C1971 H1995 0.949 . S
H1972 C1976 0.949 . S
C1973 C1974 1.349 . S
C1973 C1975 1.327 . S
C1973 H1996 0.950 . S
C1974 C1973 1.349 . S
C1974 C1986 1.349 . S
C1975 C1973 1.327 . S
C1975 C1991 1.429 . S
C1975 H1997 0.950 . S
C1976 H1972 0.949 . S
C1976 C1984 1.574 . S
C1976 C1992 1.368 . S
H1977 C1985 0.950 . S
H1978 C1983 0.950 . S
H1979 C1984 0.949 . S
H1980 C1986 0.950 . S
H1981 C1987 0.950 . S
H1982 C1988 0.949 . S
C1983 H1978 0.950 . S
C1983 C1985 1.327 . S
C1983 C1989 1.429 . S
C1984 C1976 1.574 . S
C1984 H1979 0.949 . S
C1984 C1990 1.368 . S
C1985 C1969 1.349 . S
C1985 H1977 0.950 . S
C1985 C1983 1.327 . S
C1986 C1974 1.349 . S
C1986 H1980 0.950 . S
C1986 C1987 1.327 . S
C1987 H1981 0.950 . S
C1987 C1986 1.327 . S
C1987 C1991 1.429 . S
C1988 C1971 1.574 . S
C1988 H1982 0.949 . S
C1988 C1992 1.368 . S
C1989 C1970 1.429 . S
C1989 C1983 1.429 . S
C1989 C1990 1.523 . S
C1990 C1971 1.368 . S
C1990 C1984 1.368 . S
C1990 C1989 1.523 . S
C1991 C1975 1.429 . S
C1991 C1987 1.429 . S
C1991 C1992 1.523 . S
C1992 C1976 1.368 . S
C1992 C1988 1.368 . S
C1992 C1991 1.523 . S
H1993 C1968 0.950 . S
H1994 C1970 0.950 . S
H1995 C1971 0.949 . S
H1996 C1973 0.950 . S
H1997 C1975 0.950 . S
C1998 C1999 1.349 . S
C1998 C2000 1.327 . S
C1998 H2023 0.950 . S
C1999 C1998 1.349 . S
C1999 C2015 1.349 . S
C2000 C1998 1.327 . S
C2000 C2019 1.429 . S
C2000 H2024 0.950 . S
C2001 C2018 1.574 . S
C2001 C2020 1.368 . S
C2001 H2025 0.949 . S
H2002 C2006 0.949 . S
C2003 C2004 1.349 . S
C2003 C2005 1.327 . S
C2003 H2026 0.950 . S
C2004 C2003 1.349 . S
C2004 C2016 1.349 . S
C2005 C2003 1.327 . S
C2005 C2021 1.429 . S
C2005 H2027 0.950 . S
C2006 H2002 0.949 . S
C2006 C2014 1.574 . S
C2006 C2022 1.368 . S
H2007 C2015 0.950 . S
H2008 C2013 0.950 . S
H2009 C2014 0.949 . S
H2010 C2016 0.950 . S
H2011 C2017 0.950 . S
H2012 C2018 0.949 . S
C2013 H2008 0.950 . S
C2013 C2015 1.327 . S
C2013 C2019 1.429 . S
C2014 C2006 1.574 . S
C2014 H2009 0.949 . S
C2014 C2020 1.368 . S
C2015 C1999 1.349 . S
C2015 H2007 0.950 . S
C2015 C2013 1.327 . S
C2016 C2004 1.349 . S
C2016 H2010 0.950 . S
C2016 C2017 1.327 . S
C2017 H2011 0.950 . S
C2017 C2016 1.327 . S
C2017 C2021 1.429 . S
C2018 C2001 1.574 . S
C2018 H2012 0.949 . S
C2018 C2022 1.368 . S
C2019 C2000 1.429 . S
C2019 C2013 1.429 . S
C2019 C2020 1.523 . S
C2020 C2001 1.368 . S
C2020 C2014 1.368 . S
C2020 C2019 1.523 . S
C2021 C2005 1.429 . S
C2021 C2017 1.429 . S
C2021 C2022 1.523 . S
C2022 C2006 1.368 . S
C2022 C2018 1.368 . S
C2022 C2021 1.523 . S
H2023 C1998 0.950 . S
H2024 C2000 0.950 . S
H2025 C2001 0.949 . S
H2026 C2003 0.950 . S
H2027 C2005 0.950 . S
C2028 C2029 1.349 . S
C2028 C2030 1.327 . S
C2028 H2053 0.950 . S
C2029 C2028 1.349 . S
C2029 C2045 1.349 . S
C2030 C2028 1.327 . S
C2030 C2049 1.429 . S
C2030 H2054 0.950 . S
C2031 C2048 1.574 . S
C2031 C2050 1.368 . S
C2031 H2055 0.949 . S
H2032 C2036 0.949 . S
C2033 C2034 1.349 . S
C2033 C2035 1.327 . S
C2033 H2056 0.950 . S
C2034 C2033 1.349 . S
C2034 C2046 1.349 . S
C2035 C2033 1.327 . S
C2035 C2051 1.429 . S
C2035 H2057 0.950 . S
C2036 H2032 0.949 . S
C2036 C2044 1.574 . S
C2036 C2052 1.368 . S
H2037 C2045 0.950 . S
H2038 C2043 0.950 . S
H2039 C2044 0.949 . S
H2040 C2046 0.950 . S
H2041 C2047 0.950 . S
H2042 C2048 0.949 . S
C2043 H2038 0.950 . S
C2043 C2045 1.327 . S
C2043 C2049 1.429 . S
C2044 C2036 1.574 . S
C2044 H2039 0.949 . S
C2044 C2050 1.368 . S
C2045 C2029 1.349 . S
C2045 H2037 0.950 . S
C2045 C2043 1.327 . S
C2046 C2034 1.349 . S
C2046 H2040 0.950 . S
C2046 C2047 1.327 . S
C2047 H2041 0.950 . S
C2047 C2046 1.327 . S
C2047 C2051 1.429 . S
C2048 C2031 1.574 . S
C2048 H2042 0.949 . S
C2048 C2052 1.368 . S
C2049 C2030 1.429 . S
C2049 C2043 1.429 . S
C2049 C2050 1.523 . S
C2050 C2031 1.368 . S
C2050 C2044 1.368 . S
C2050 C2049 1.523 . S
C2051 C2035 1.429 . S
C2051 C2047 1.429 . S
C2051 C2052 1.523 . S
C2052 C2036 1.368 . S
C2052 C2048 1.368 . S
C2052 C2051 1.523 . S
H2053 C2028 0.950 . S
H2054 C2030 0.950 . S
H2055 C2031 0.949 . S
H2056 C2033 0.950 . S
H2057 C2035 0.950 . S
C2058 C2059 1.349 . S
C2058 C2060 1.327 . S
C2058 H2083 0.950 . S
C2059 C2058 1.349 . S
C2059 C2075 1.349 . S
C2060 C2058 1.327 . S
C2060 C2079 1.429 . S
C2060 H2084 0.950 . S
C2061 C2078 1.574 . S
C2061 C2080 1.368 . S
C2061 H2085 0.949 . S
H2062 C2066 0.949 . S
C2063 C2064 1.349 . S
C2063 C2065 1.327 . S
C2063 H2086 0.950 . S
C2064 C2063 1.349 . S
C2064 C2076 1.349 . S
C2065 C2063 1.327 . S
C2065 C2081 1.429 . S
C2065 H2087 0.950 . S
C2066 H2062 0.949 . S
C2066 C2074 1.574 . S
C2066 C2082 1.368 . S
H2067 C2075 0.950 . S
H2068 C2073 0.950 . S
H2069 C2074 0.949 . S
H2070 C2076 0.950 . S
H2071 C2077 0.950 . S
H2072 C2078 0.949 . S
C2073 H2068 0.950 . S
C2073 C2075 1.327 . S
C2073 C2079 1.429 . S
C2074 C2066 1.574 . S
C2074 H2069 0.949 . S
C2074 C2080 1.368 . S
C2075 C2059 1.349 . S
C2075 H2067 0.950 . S
C2075 C2073 1.327 . S
C2076 C2064 1.349 . S
C2076 H2070 0.950 . S
C2076 C2077 1.327 . S
C2077 H2071 0.950 . S
C2077 C2076 1.327 . S
C2077 C2081 1.429 . S
C2078 C2061 1.574 . S
C2078 H2072 0.949 . S
C2078 C2082 1.368 . S
C2079 C2060 1.429 . S
C2079 C2073 1.429 . S
C2079 C2080 1.523 . S
C2080 C2061 1.368 . S
C2080 C2074 1.368 . S
C2080 C2079 1.523 . S
C2081 C2065 1.429 . S
C2081 C2077 1.429 . S
C2081 C2082 1.523 . S
C2082 C2066 1.368 . S
C2082 C2078 1.368 . S
C2082 C2081 1.523 . S
H2083 C2058 0.950 . S
H2084 C2060 0.950 . S
H2085 C2061 0.949 . S
H2086 C2063 0.950 . S
H2087 C2065 0.950 . S
C2088 C2089 1.349 . S
C2088 C2090 1.327 . S
C2088 H2113 0.950 . S
C2089 C2088 1.349 . S
C2089 C2105 1.349 . S
C2090 C2088 1.327 . S
C2090 C2109 1.429 . S
C2090 H2114 0.950 . S
C2091 C2108 1.574 . S
C2091 C2110 1.368 . S
C2091 H2115 0.949 . S
H2092 C2096 0.949 . S
C2093 C2094 1.349 . S
C2093 C2095 1.327 . S
C2093 H2116 0.950 . S
C2094 C2093 1.349 . S
C2094 C2106 1.349 . S
C2095 C2093 1.327 . S
C2095 C2111 1.429 . S
C2095 H2117 0.950 . S
C2096 H2092 0.949 . S
C2096 C2104 1.574 . S
C2096 C2112 1.368 . S
H2097 C2105 0.950 . S
H2098 C2103 0.950 . S
H2099 C2104 0.949 . S
H2100 C2106 0.950 . S
H2101 C2107 0.950 . S
H2102 C2108 0.949 . S
C2103 H2098 0.950 . S
C2103 C2105 1.327 . S
C2103 C2109 1.429 . S
C2104 C2096 1.574 . S
C2104 H2099 0.949 . S
C2104 C2110 1.368 . S
C2105 C2089 1.349 . S
C2105 H2097 0.950 . S
C2105 C2103 1.327 . S
C2106 C2094 1.349 . S
C2106 H2100 0.950 . S
C2106 C2107 1.327 . S
C2107 H2101 0.950 . S
C2107 C2106 1.327 . S
C2107 C2111 1.429 . S
C2108 C2091 1.574 . S
C2108 H2102 0.949 . S
C2108 C2112 1.368 . S
C2109 C2090 1.429 . S
C2109 C2103 1.429 . S
C2109 C2110 1.523 . S
C2110 C2091 1.368 . S
C2110 C2104 1.368 . S
C2110 C2109 1.523 . S
C2111 C2095 1.429 . S
C2111 C2107 1.429 . S
C2111 C2112 1.523 . S
C2112 C2096 1.368 . S
C2112 C2108 1.368 . S
C2112 C2111 1.523 . S
H2113 C2088 0.950 . S
H2114 C2090 0.950 . S
H2115 C2091 0.949 . S
H2116 C2093 0.950 . S
H2117 C2095 0.950 . S
C2118 C2119 1.349 . S
C2118 C2120 1.327 . S
C2118 H2143 0.950 . S
C2119 C2118 1.349 . S
C2119 C2135 1.349 . S
C2120 C2118 1.327 . S
C2120 C2139 1.429 . S
C2120 H2144 0.950 . S
C2121 C2138 1.574 . S
C2121 C2140 1.368 . S
C2121 H2145 0.949 . S
H2122 C2126 0.949 . S
C2123 C2124 1.349 . S
C2123 C2125 1.327 . S
C2123 H2146 0.950 . S
C2124 C2123 1.349 . S
C2124 C2136 1.349 . S
C2125 C2123 1.327 . S
C2125 C2141 1.429 . S
C2125 H2147 0.950 . S
C2126 H2122 0.949 . S
C2126 C2134 1.574 . S
C2126 C2142 1.368 . S
H2127 C2135 0.950 . S
H2128 C2133 0.950 . S
H2129 C2134 0.949 . S
H2130 C2136 0.950 . S
H2131 C2137 0.950 . S
H2132 C2138 0.949 . S
C2133 H2128 0.950 . S
C2133 C2135 1.327 . S
C2133 C2139 1.429 . S
C2134 C2126 1.574 . S
C2134 H2129 0.949 . S
C2134 C2140 1.368 . S
C2135 C2119 1.349 . S
C2135 H2127 0.950 . S
C2135 C2133 1.327 . S
C2136 C2124 1.349 . S
C2136 H2130 0.950 . S
C2136 C2137 1.327 . S
C2137 H2131 0.950 . S
C2137 C2136 1.327 . S
C2137 C2141 1.429 . S
C2138 C2121 1.574 . S
C2138 H2132 0.949 . S
C2138 C2142 1.368 . S
C2139 C2120 1.429 . S
C2139 C2133 1.429 . S
C2139 C2140 1.523 . S
C2140 C2121 1.368 . S
C2140 C2134 1.368 . S
C2140 C2139 1.523 . S
C2141 C2125 1.429 . S
C2141 C2137 1.429 . S
C2141 C2142 1.523 . S
C2142 C2126 1.368 . S
C2142 C2138 1.368 . S
C2142 C2141 1.523 . S
H2143 C2118 0.950 . S
H2144 C2120 0.950 . S
H2145 C2121 0.949 . S
H2146 C2123 0.950 . S
H2147 C2125 0.950 . S
C2148 C2149 1.349 . S
C2148 C2150 1.327 . S
C2148 H2173 0.950 . S
C2149 C2148 1.349 . S
C2149 C2165 1.349 . S
C2150 C2148 1.327 . S
C2150 C2169 1.429 . S
C2150 H2174 0.950 . S
C2151 C2168 1.574 . S
C2151 C2170 1.368 . S
C2151 H2175 0.949 . S
H2152 C2156 0.949 . S
C2153 C2154 1.349 . S
C2153 C2155 1.327 . S
C2153 H2176 0.950 . S
C2154 C2153 1.349 . S
C2154 C2166 1.349 . S
C2155 C2153 1.327 . S
C2155 C2171 1.429 . S
C2155 H2177 0.950 . S
C2156 H2152 0.949 . S
C2156 C2164 1.574 . S
C2156 C2172 1.368 . S
H2157 C2165 0.950 . S
H2158 C2163 0.950 . S
H2159 C2164 0.949 . S
H2160 C2166 0.950 . S
H2161 C2167 0.950 . S
H2162 C2168 0.949 . S
C2163 H2158 0.950 . S
C2163 C2165 1.327 . S
C2163 C2169 1.429 . S
C2164 C2156 1.574 . S
C2164 H2159 0.949 . S
C2164 C2170 1.368 . S
C2165 C2149 1.349 . S
C2165 H2157 0.950 . S
C2165 C2163 1.327 . S
C2166 C2154 1.349 . S
C2166 H2160 0.950 . S
C2166 C2167 1.327 . S
C2167 H2161 0.950 . S
C2167 C2166 1.327 . S
C2167 C2171 1.429 . S
C2168 C2151 1.574 . S
C2168 H2162 0.949 . S
C2168 C2172 1.368 . S
C2169 C2150 1.429 . S
C2169 C2163 1.429 . S
C2169 C2170 1.523 . S
C2170 C2151 1.368 . S
C2170 C2164 1.368 . S
C2170 C2169 1.523 . S
C2171 C2155 1.429 . S
C2171 C2167 1.429 . S
C2171 C2172 1.523 . S
C2172 C2156 1.368 . S
C2172 C2168 1.368 . S
C2172 C2171 1.523 . S
H2173 C2148 0.950 . S
H2174 C2150 0.950 . S
H2175 C2151 0.949 . S
H2176 C2153 0.950 . S
H2177 C2155 0.950 . S
C2178 C2179 1.349 . S
C2178 C2180 1.327 . S
C2178 H2203 0.950 . S
C2179 C2178 1.349 . S
C2179 C2195 1.349 . S
C2180 C2178 1.327 . S
C2180 C2199 1.429 . S
C2180 H2204 0.950 . S
C2181 C2198 1.574 . S
C2181 C2200 1.368 . S
C2181 H2205 0.949 . S
H2182 C2186 0.949 . S
C2183 C2184 1.349 . S
C2183 C2185 1.327 . S
C2183 H2206 0.950 . S
C2184 C2183 1.349 . S
C2184 C2196 1.349 . S
C2185 C2183 1.327 . S
C2185 C2201 1.429 . S
C2185 H2207 0.950 . S
C2186 H2182 0.949 . S
C2186 C2194 1.574 . S
C2186 C2202 1.368 . S
H2187 C2195 0.950 . S
H2188 C2193 0.950 . S
H2189 C2194 0.949 . S
H2190 C2196 0.950 . S
H2191 C2197 0.950 . S
H2192 C2198 0.949 . S
C2193 H2188 0.950 . S
C2193 C2195 1.327 . S
C2193 C2199 1.429 . S
C2194 C2186 1.574 . S
C2194 H2189 0.949 . S
C2194 C2200 1.368 . S
C2195 C2179 1.349 . S
C2195 H2187 0.950 . S
C2195 C2193 1.327 . S
C2196 C2184 1.349 . S
C2196 H2190 0.950 . S
C2196 C2197 1.327 . S
C2197 H2191 0.950 . S
C2197 C2196 1.327 . S
C2197 C2201 1.429 . S
C2198 C2181 1.574 . S
C2198 H2192 0.949 . S
C2198 C2202 1.368 . S
C2199 C2180 1.429 . S
C2199 C2193 1.429 . S
C2199 C2200 1.523 . S
C2200 C2181 1.368 . S
C2200 C2194 1.368 . S
C2200 C2199 1.523 . S
C2201 C2185 1.429 . S
C2201 C2197 1.429 . S
C2201 C2202 1.523 . S
C2202 C2186 1.368 . S
C2202 C2198 1.368 . S
C2202 C2201 1.523 . S
H2203 C2178 0.950 . S
H2204 C2180 0.950 . S
H2205 C2181 0.949 . S
H2206 C2183 0.950 . S
H2207 C2185 0.950 . S
C2208 C2209 1.349 . S
C2208 C2210 1.327 . S
C2208 H2233 0.950 . S
C2209 C2208 1.349 . S
C2209 C2225 1.349 . S
C2210 C2208 1.327 . S
C2210 C2229 1.429 . S
C2210 H2234 0.950 . S
C2211 C2228 1.574 . S
C2211 C2230 1.368 . S
C2211 H2235 0.949 . S
H2212 C2216 0.949 . S
C2213 C2214 1.349 . S
C2213 C2215 1.327 . S
C2213 H2236 0.950 . S
C2214 C2213 1.349 . S
C2214 C2226 1.349 . S
C2215 C2213 1.327 . S
C2215 C2231 1.429 . S
C2215 H2237 0.950 . S
C2216 H2212 0.949 . S
C2216 C2224 1.574 . S
C2216 C2232 1.368 . S
H2217 C2225 0.950 . S
H2218 C2223 0.950 . S
H2219 C2224 0.949 . S
H2220 C2226 0.950 . S
H2221 C2227 0.950 . S
H2222 C2228 0.949 . S
C2223 H2218 0.950 . S
C2223 C2225 1.327 . S
C2223 C2229 1.429 . S
C2224 C2216 1.574 . S
C2224 H2219 0.949 . S
C2224 C2230 1.368 . S
C2225 C2209 1.349 . S
C2225 H2217 0.950 . S
C2225 C2223 1.327 . S
C2226 C2214 1.349 . S
C2226 H2220 0.950 . S
C2226 C2227 1.327 . S
C2227 H2221 0.950 . S
C2227 C2226 1.327 . S
C2227 C2231 1.429 . S
C2228 C2211 1.574 . S
C2228 H2222 0.949 . S
C2228 C2232 1.368 . S
C2229 C2210 1.429 . S
C2229 C2223 1.429 . S
C2229 C2230 1.523 . S
C2230 C2211 1.368 . S
C2230 C2224 1.368 . S
C2230 C2229 1.523 . S
C2231 C2215 1.429 . S
C2231 C2227 1.429 . S
C2231 C2232 1.523 . S
C2232 C2216 1.368 . S
C2232 C2228 1.368 . S
C2232 C2231 1.523 . S
H2233 C2208 0.950 . S
H2234 C2210 0.950 . S
H2235 C2211 0.949 . S
H2236 C2213 0.950 . S
H2237 C2215 0.950 . S
C2238 C2239 1.349 . S
C2238 C2240 1.327 . S
C2238 H2263 0.950 . S
C2239 C2238 1.349 . S
C2239 C2255 1.349 . S
C2240 C2238 1.327 . S
C2240 C2259 1.429 . S
C2240 H2264 0.950 . S
C2241 C2258 1.574 . S
C2241 C2260 1.368 . S
C2241 H2265 0.949 . S
H2242 C2246 0.949 . S
C2243 C2244 1.349 . S
C2243 C2245 1.327 . S
C2243 H2266 0.950 . S
C2244 C2243 1.349 . S
C2244 C2256 1.349 . S
C2245 C2243 1.327 . S
C2245 C2261 1.429 . S
C2245 H2267 0.950 . S
C2246 H2242 0.949 . S
C2246 C2254 1.574 . S
C2246 C2262 1.368 . S
H2247 C2255 0.950 . S
H2248 C2253 0.950 . S
H2249 C2254 0.949 . S
H2250 C2256 0.950 . S
H2251 C2257 0.950 . S
H2252 C2258 0.949 . S
C2253 H2248 0.950 . S
C2253 C2255 1.327 . S
C2253 C2259 1.429 . S
C2254 C2246 1.574 . S
C2254 H2249 0.949 . S
C2254 C2260 1.368 . S
C2255 C2239 1.349 . S
C2255 H2247 0.950 . S
C2255 C2253 1.327 . S
C2256 C2244 1.349 . S
C2256 H2250 0.950 . S
C2256 C2257 1.327 . S
C2257 H2251 0.950 . S
C2257 C2256 1.327 . S
C2257 C2261 1.429 . S
C2258 C2241 1.574 . S
C2258 H2252 0.949 . S
C2258 C2262 1.368 . S
C2259 C2240 1.429 . S
C2259 C2253 1.429 . S
C2259 C2260 1.523 . S
C2260 C2241 1.368 . S
C2260 C2254 1.368 . S
C2260 C2259 1.523 . S
C2261 C2245 1.429 . S
C2261 C2257 1.429 . S
C2261 C2262 1.523 . S
C2262 C2246 1.368 . S
C2262 C2258 1.368 . S
C2262 C2261 1.523 . S
H2263 C2238 0.950 . S
H2264 C2240 0.950 . S
H2265 C2241 0.949 . S
H2266 C2243 0.950 . S
H2267 C2245 0.950 . S
C2268 C2269 1.349 . S
C2268 C2270 1.327 . S
C2268 H2293 0.950 . S
C2269 C2268 1.349 . S
C2269 C2285 1.349 . S
C2270 C2268 1.327 . S
C2270 C2289 1.429 . S
C2270 H2294 0.950 . S
C2271 C2288 1.574 . S
C2271 C2290 1.368 . S
C2271 H2295 0.949 . S
H2272 C2276 0.949 . S
C2273 C2274 1.349 . S
C2273 C2275 1.327 . S
C2273 H2296 0.950 . S
C2274 C2273 1.349 . S
C2274 C2286 1.349 . S
C2275 C2273 1.327 . S
C2275 C2291 1.429 . S
C2275 H2297 0.950 . S
C2276 H2272 0.949 . S
C2276 C2284 1.574 . S
C2276 C2292 1.368 . S
H2277 C2285 0.950 . S
H2278 C2283 0.950 . S
H2279 C2284 0.949 . S
H2280 C2286 0.950 . S
H2281 C2287 0.950 . S
H2282 C2288 0.949 . S
C2283 H2278 0.950 . S
C2283 C2285 1.327 . S
C2283 C2289 1.429 . S
C2284 C2276 1.574 . S
C2284 H2279 0.949 . S
C2284 C2290 1.368 . S
C2285 C2269 1.349 . S
C2285 H2277 0.950 . S
C2285 C2283 1.327 . S
C2286 C2274 1.349 . S
C2286 H2280 0.950 . S
C2286 C2287 1.327 . S
C2287 H2281 0.950 . S
C2287 C2286 1.327 . S
C2287 C2291 1.429 . S
C2288 C2271 1.574 . S
C2288 H2282 0.949 . S
C2288 C2292 1.368 . S
C2289 C2270 1.429 . S
C2289 C2283 1.429 . S
C2289 C2290 1.523 . S
C2290 C2271 1.368 . S
C2290 C2284 1.368 . S
C2290 C2289 1.523 . S
C2291 C2275 1.429 . S
C2291 C2287 1.429 . S
C2291 C2292 1.523 . S
C2292 C2276 1.368 . S
C2292 C2288 1.368 . S
C2292 C2291 1.523 . S
H2293 C2268 0.950 . S
H2294 C2270 0.950 . S
H2295 C2271 0.949 . S
H2296 C2273 0.950 . S
H2297 C2275 0.950 . S
C2298 C2299 1.349 . S
C2298 C2300 1.327 . S
C2298 H2323 0.950 . S
C2299 C2298 1.349 . S
C2299 C2315 1.349 . S
C2300 C2298 1.327 . S
C2300 C2319 1.429 . S
C2300 H2324 0.950 . S
C2301 C2318 1.574 . S
C2301 C2320 1.368 . S
C2301 H2325 0.949 . S
H2302 C2306 0.949 . S
C2303 C2304 1.349 . S
C2303 C2305 1.327 . S
C2303 H2326 0.950 . S
C2304 C2303 1.349 . S
C2304 C2316 1.349 . S
C2305 C2303 1.327 . S
C2305 C2321 1.429 . S
C2305 H2327 0.950 . S
C2306 H2302 0.949 . S
C2306 C2314 1.574 . S
C2306 C2322 1.368 . S
H2307 C2315 0.950 . S
H2308 C2313 0.950 . S
H2309 C2314 0.949 . S
H2310 C2316 0.950 . S
H2311 C2317 0.950 . S
H2312 C2318 0.949 . S
C2313 H2308 0.950 . S
C2313 C2315 1.327 . S
C2313 C2319 1.429 . S
C2314 C2306 1.574 . S
C2314 H2309 0.949 . S
C2314 C2320 1.368 . S
C2315 C2299 1.349 . S
C2315 H2307 0.950 . S
C2315 C2313 1.327 . S
C2316 C2304 1.349 . S
C2316 H2310 0.950 . S
C2316 C2317 1.327 . S
C2317 H2311 0.950 . S
C2317 C2316 1.327 . S
C2317 C2321 1.429 . S
C2318 C2301 1.574 . S
C2318 H2312 0.949 . S
C2318 C2322 1.368 . S
C2319 C2300 1.429 . S
C2319 C2313 1.429 . S
C2319 C2320 1.523 . S
C2320 C2301 1.368 . S
C2320 C2314 1.368 . S
C2320 C2319 1.523 . S
C2321 C2305 1.429 . S
C2321 C2317 1.429 . S
C2321 C2322 1.523 . S
C2322 C2306 1.368 . S
C2322 C2318 1.368 . S
C2322 C2321 1.523 . S
H2323 C2298 0.950 . S
H2324 C2300 0.950 . S
H2325 C2301 0.949 . S
H2326 C2303 0.950 . S
H2327 C2305 0.950 . S
C2328 C2329 1.349 . S
C2328 C2330 1.327 . S
C2328 H2353 0.950 . S
C2329 C2328 1.349 . S
C2329 C2345 1.349 . S
C2330 C2328 1.327 . S
C2330 C2349 1.429 . S
C2330 H2354 0.950 . S
C2331 C2348 1.574 . S
C2331 C2350 1.368 . S
C2331 H2355 0.949 . S
H2332 C2336 0.949 . S
C2333 C2334 1.349 . S
C2333 C2335 1.327 . S
C2333 H2356 0.950 . S
C2334 C2333 1.349 . S
C2334 C2346 1.349 . S
C2335 C2333 1.327 . S
C2335 C2351 1.429 . S
C2335 H2357 0.950 . S
C2336 H2332 0.949 . S
C2336 C2344 1.574 . S
C2336 C2352 1.368 . S
H2337 C2345 0.950 . S
H2338 C2343 0.950 . S
H2339 C2344 0.949 . S
H2340 C2346 0.950 . S
H2341 C2347 0.950 . S
H2342 C2348 0.949 . S
C2343 H2338 0.950 . S
C2343 C2345 1.327 . S
C2343 C2349 1.429 . S
C2344 C2336 1.574 . S
C2344 H2339 0.949 . S
C2344 C2350 1.368 . S
C2345 C2329 1.349 . S
C2345 H2337 0.950 . S
C2345 C2343 1.327 . S
C2346 C2334 1.349 . S
C2346 H2340 0.950 . S
C2346 C2347 1.327 . S
C2347 H2341 0.950 . S
C2347 C2346 1.327 . S
C2347 C2351 1.429 . S
C2348 C2331 1.574 . S
C2348 H2342 0.949 . S
C2348 C2352 1.368 . S
C2349 C2330 1.429 . S
C2349 C2343 1.429 . S
C2349 C2350 1.523 . S
C2350 C2331 1.368 . S
C2350 C2344 1.368 . S
C2350 C2349 1.523 . S
C2351 C2335 1.429 . S
C2351 C2347 1.429 . S
C2351 C2352 1.523 . S
C2352 C2336 1.368 . S
C2352 C2348 1.368 . S
C2352 C2351 1.523 . S
H2353 C2328 0.950 . S
H2354 C2330 0.950 . S
H2355 C2331 0.949 . S
H2356 C2333 0.950 . S
H2357 C2335 0.950 . S
C2358 C2359 1.349 . S
C2358 C2360 1.327 . S
C2358 H2383 0.950 . S
C2359 C2358 1.349 . S
C2359 C2375 1.349 . S
C2360 C2358 1.327 . S
C2360 C2379 1.429 . S
C2360 H2384 0.950 . S
C2361 C2378 1.574 . S
C2361 C2380 1.368 . S
C2361 H2385 0.949 . S
H2362 C2366 0.949 . S
C2363 C2364 1.349 . S
C2363 C2365 1.327 . S
C2363 H2386 0.950 . S
C2364 C2363 1.349 . S
C2364 C2376 1.349 . S
C2365 C2363 1.327 . S
C2365 C2381 1.429 . S
C2365 H2387 0.950 . S
C2366 H2362 0.949 . S
C2366 C2374 1.574 . S
C2366 C2382 1.368 . S
H2367 C2375 0.950 . S
H2368 C2373 0.950 . S
H2369 C2374 0.949 . S
H2370 C2376 0.950 . S
H2371 C2377 0.950 . S
H2372 C2378 0.949 . S
C2373 H2368 0.950 . S
C2373 C2375 1.327 . S
C2373 C2379 1.429 . S
C2374 C2366 1.574 . S
C2374 H2369 0.949 . S
C2374 C2380 1.368 . S
C2375 C2359 1.349 . S
C2375 H2367 0.950 . S
C2375 C2373 1.327 . S
C2376 C2364 1.349 . S
C2376 H2370 0.950 . S
C2376 C2377 1.327 . S
C2377 H2371 0.950 . S
C2377 C2376 1.327 . S
C2377 C2381 1.429 . S
C2378 C2361 1.574 . S
C2378 H2372 0.949 . S
C2378 C2382 1.368 . S
C2379 C2360 1.429 . S
C2379 C2373 1.429 . S
C2379 C2380 1.523 . S
C2380 C2361 1.368 . S
C2380 C2374 1.368 . S
C2380 C2379 1.523 . S
C2381 C2365 1.429 . S
C2381 C2377 1.429 . S
C2381 C2382 1.523 . S
C2382 C2366 1.368 . S
C2382 C2378 1.368 . S
C2382 C2381 1.523 . S
H2383 C2358 0.950 . S
H2384 C2360 0.950 . S
H2385 C2361 0.949 . S
H2386 C2363 0.950 . S
H2387 C2365 0.950 . S
C2388 C2389 1.349 . S
C2388 C2390 1.327 . S
C2388 H2413 0.950 . S
C2389 C2388 1.349 . S
C2389 C2405 1.349 . S
C2390 C2388 1.327 . S
C2390 C2409 1.429 . S
C2390 H2414 0.950 . S
C2391 C2408 1.574 . S
C2391 C2410 1.368 . S
C2391 H2415 0.949 . S
H2392 C2396 0.949 . S
C2393 C2394 1.349 . S
C2393 C2395 1.327 . S
C2393 H2416 0.950 . S
C2394 C2393 1.349 . S
C2394 C2406 1.349 . S
C2395 C2393 1.327 . S
C2395 C2411 1.429 . S
C2395 H2417 0.950 . S
C2396 H2392 0.949 . S
C2396 C2404 1.574 . S
C2396 C2412 1.368 . S
H2397 C2405 0.950 . S
H2398 C2403 0.950 . S
H2399 C2404 0.949 . S
H2400 C2406 0.950 . S
H2401 C2407 0.950 . S
H2402 C2408 0.949 . S
C2403 H2398 0.950 . S
C2403 C2405 1.327 . S
C2403 C2409 1.429 . S
C2404 C2396 1.574 . S
C2404 H2399 0.949 . S
C2404 C2410 1.368 . S
C2405 C2389 1.349 . S
C2405 H2397 0.950 . S
C2405 C2403 1.327 . S
C2406 C2394 1.349 . S
C2406 H2400 0.950 . S
C2406 C2407 1.327 . S
C2407 H2401 0.950 . S
C2407 C2406 1.327 . S
C2407 C2411 1.429 . S
C2408 C2391 1.574 . S
C2408 H2402 0.949 . S
C2408 C2412 1.368 . S
C2409 C2390 1.429 . S
C2409 C2403 1.429 . S
C2409 C2410 1.523 . S
C2410 C2391 1.368 . S
C2410 C2404 1.368 . S
C2410 C2409 1.523 . S
C2411 C2395 1.429 . S
C2411 C2407 1.429 . S
C2411 C2412 1.523 . S
C2412 C2396 1.368 . S
C2412 C2408 1.368 . S
C2412 C2411 1.523 . S
H2413 C2388 0.950 . S
H2414 C2390 0.950 . S
H2415 C2391 0.949 . S
H2416 C2393 0.950 . S
H2417 C2395 0.950 . S
C2418 C2419 1.349 . S
C2418 C2420 1.327 . S
C2418 H2443 0.950 . S
C2419 C2418 1.349 . S
C2419 C2435 1.349 . S
C2420 C2418 1.327 . S
C2420 C2439 1.429 . S
C2420 H2444 0.950 . S
C2421 C2438 1.574 . S
C2421 C2440 1.368 . S
C2421 H2445 0.949 . S
H2422 C2426 0.949 . S
C2423 C2424 1.349 . S
C2423 C2425 1.327 . S
C2423 H2446 0.950 . S
C2424 C2423 1.349 . S
C2424 C2436 1.349 . S
C2425 C2423 1.327 . S
C2425 C2441 1.429 . S
C2425 H2447 0.950 . S
C2426 H2422 0.949 . S
C2426 C2434 1.574 . S
C2426 C2442 1.368 . S
H2427 C2435 0.950 . S
H2428 C2433 0.950 . S
H2429 C2434 0.949 . S
H2430 C2436 0.950 . S
H2431 C2437 0.950 . S
H2432 C2438 0.949 . S
C2433 H2428 0.950 . S
C2433 C2435 1.327 . S
C2433 C2439 1.429 . S
C2434 C2426 1.574 . S
C2434 H2429 0.949 . S
C2434 C2440 1.368 . S
C2435 C2419 1.349 . S
C2435 H2427 0.950 . S
C2435 C2433 1.327 . S
C2436 C2424 1.349 . S
C2436 H2430 0.950 . S
C2436 C2437 1.327 . S
C2437 H2431 0.950 . S
C2437 C2436 1.327 . S
C2437 C2441 1.429 . S
C2438 C2421 1.574 . S
C2438 H2432 0.949 . S
C2438 C2442 1.368 . S
C2439 C2420 1.429 . S
C2439 C2433 1.429 . S
C2439 C2440 1.523 . S
C2440 C2421 1.368 . S
C2440 C2434 1.368 . S
C2440 C2439 1.523 . S
C2441 C2425 1.429 . S
C2441 C2437 1.429 . S
C2441 C2442 1.523 . S
C2442 C2426 1.368 . S
C2442 C2438 1.368 . S
C2442 C2441 1.523 . S
H2443 C2418 0.950 . S
H2444 C2420 0.950 . S
H2445 C2421 0.949 . S
H2446 C2423 0.950 . S
H2447 C2425 0.950 . S
C2448 C2449 1.349 . S
C2448 C2450 1.327 . S
C2448 H2473 0.950 . S
C2449 C2448 1.349 . S
C2449 C2465 1.349 . S
C2450 C2448 1.327 . S
C2450 C2469 1.429 . S
C2450 H2474 0.950 . S
C2451 C2468 1.574 1_655 S
C2451 C2470 1.368 . S
C2451 H2475 0.949 . S
H2452 C2456 0.949 . S
C2453 C2454 1.349 . S
C2453 C2455 1.327 . S
C2453 H2476 0.950 . S
C2454 C2453 1.349 . S
C2454 C2466 1.349 . S
C2455 C2453 1.327 . S
C2455 C2471 1.429 . S
C2455 H2477 0.950 . S
C2456 H2452 0.949 . S
C2456 C2464 1.574 1_455 S
C2456 C2472 1.368 . S
H2457 C2465 0.950 . S
H2458 C2463 0.950 . S
H2459 C2464 0.949 . S
H2460 C2466 0.950 . S
H2461 C2467 0.950 . S
H2462 C2468 0.949 . S
C2463 H2458 0.950 . S
C2463 C2465 1.327 . S
C2463 C2469 1.429 . S
C2464 C2456 1.574 1_655 S
C2464 H2459 0.949 . S
C2464 C2470 1.368 . S
C2465 C2449 1.349 . S
C2465 H2457 0.950 . S
C2465 C2463 1.327 . S
C2466 C2454 1.349 . S
C2466 H2460 0.950 . S
C2466 C2467 1.327 . S
C2467 H2461 0.950 . S
C2467 C2466 1.327 . S
C2467 C2471 1.429 . S
C2468 C2451 1.574 1_455 S
C2468 H2462 0.949 . S
C2468 C2472 1.368 . S
C2469 C2450 1.429 . S
C2469 C2463 1.429 . S
C2469 C2470 1.523 . S
C2470 C2451 1.368 . S
C2470 C2464 1.368 . S
C2470 C2469 1.523 . S
C2471 C2455 1.429 . S
C2471 C2467 1.429 . S
C2471 C2472 1.523 . S
C2472 C2456 1.368 . S
C2472 C2468 1.368 . S
C2472 C2471 1.523 . S
H2473 C2448 0.950 . S
H2474 C2450 0.950 . S
H2475 C2451 0.949 . S
H2476 C2453 0.950 . S
H2477 C2455 0.950 . S
C2478 C2479 1.349 . S
C2478 C2480 1.327 . S
C2478 H2503 0.950 . S
C2479 C2478 1.349 . S
C2479 C2495 1.349 . S
C2480 C2478 1.327 . S
C2480 C2499 1.429 . S
C2480 H2504 0.950 . S
C2481 C2498 1.574 . S
C2481 C2500 1.368 1_545 S
C2481 H2505 0.949 . S
H2482 C2486 0.949 . S
C2483 C2484 1.349 . S
C2483 C2485 1.327 . S
C2483 H2506 0.950 . S
C2484 C2483 1.349 . S
C2484 C2496 1.349 . S
C2485 C2483 1.327 . S
C2485 C2501 1.429 . S
C2485 H2507 0.950 . S
C2486 H2482 0.949 . S
C2486 C2494 1.574 . S
C2486 C2502 1.368 1_565 S
H2487 C2495 0.950 1_545 S
H2488 C2493 0.956 . S
H2489 C2494 0.949 . S
H2490 C2496 0.950 1_565 S
H2491 C2497 0.956 . S
H2492 C2498 0.949 . S
C2493 H2488 0.956 . S
C2493 C2495 1.325 1_545 S
C2493 C2499 1.424 1_545 S
C2494 C2486 1.574 . S
C2494 H2489 0.949 . S
C2494 C2500 1.368 . S
C2495 C2479 1.349 . S
C2495 H2487 0.950 1_565 S
C2495 C2493 1.325 1_565 S
C2496 C2484 1.349 . S
C2496 H2490 0.950 1_545 S
C2496 C2497 1.325 1_545 S
C2497 H2491 0.956 . S
C2497 C2496 1.325 1_565 S
C2497 C2501 1.424 1_565 S
C2498 C2481 1.574 . S
C2498 H2492 0.949 . S
C2498 C2502 1.368 . S
C2499 C2480 1.429 . S
C2499 C2493 1.424 1_565 S
C2499 C2500 1.523 . S
C2500 C2481 1.368 1_565 S
C2500 C2494 1.368 . S
C2500 C2499 1.523 . S
C2501 C2485 1.429 . S
C2501 C2497 1.424 1_545 S
C2501 C2502 1.523 . S
C2502 C2486 1.368 1_545 S
C2502 C2498 1.368 . S
C2502 C2501 1.523 . S
H2503 C2478 0.950 . S
H2504 C2480 0.950 . S
H2505 C2481 0.949 . S
H2506 C2483 0.950 . S
H2507 C2485 0.950 . S
C2508 C2509 1.349 . S
C2508 C2510 1.327 . S
C2508 H2533 0.950 . S
C2509 C2508 1.349 . S
C2509 C2525 1.349 . S
C2510 C2508 1.327 . S
C2510 C2529 1.429 . S
C2510 H2534 0.950 1_655 S
C2511 C2528 1.574 . S
C2511 C2530 1.368 . S
C2511 H2535 0.949 . S
H2512 C2516 0.949 . S
C2513 C2514 1.349 . S
C2513 C2515 1.327 . S
C2513 H2536 0.950 . S
C2514 C2513 1.349 . S
C2514 C2526 1.349 . S
C2515 C2513 1.327 . S
C2515 C2531 1.429 . S
C2515 H2537 0.950 1_455 S
C2516 H2512 0.949 . S
C2516 C2524 1.574 . S
C2516 C2532 1.368 . S
H2517 C2525 0.950 . S
H2518 C2523 0.950 . S
H2519 C2524 0.949 . S
H2520 C2526 0.950 . S
H2521 C2527 0.950 . S
H2522 C2528 0.949 . S
C2523 H2518 0.950 . S
C2523 C2525 1.327 . S
C2523 C2529 1.429 . S
C2524 C2516 1.574 . S
C2524 H2519 0.949 . S
C2524 C2530 1.368 1_455 S
C2525 C2509 1.349 . S
C2525 H2517 0.950 . S
C2525 C2523 1.327 . S
C2526 C2514 1.349 . S
C2526 H2520 0.950 . S
C2526 C2527 1.327 . S
C2527 H2521 0.950 . S
C2527 C2526 1.327 . S
C2527 C2531 1.429 . S
C2528 C2511 1.574 . S
C2528 H2522 0.949 . S
C2528 C2532 1.368 1_655 S
C2529 C2510 1.429 . S
C2529 C2523 1.429 . S
C2529 C2530 1.523 . S
C2530 C2511 1.368 . S
C2530 C2524 1.368 1_655 S
C2530 C2529 1.523 . S
C2531 C2515 1.429 . S
C2531 C2527 1.429 . S
C2531 C2532 1.523 . S
C2532 C2516 1.368 . S
C2532 C2528 1.368 1_455 S
C2532 C2531 1.523 . S
H2533 C2508 0.950 . S
H2534 C2510 0.950 1_455 S
H2535 C2511 0.949 . S
H2536 C2513 0.950 . S
H2537 C2515 0.950 1_655 S
C2538 C2539 1.349 . S
C2538 C2540 1.327 1_545 S
C2538 H2563 0.950 1_545 S
C2539 C2538 1.349 . S
C2539 C2555 1.349 . S
C2540 C2538 1.327 1_565 S
C2540 C2559 1.429 1_565 S
C2540 H2564 0.950 . S
C2541 C2558 1.574 . S
C2541 C2560 1.368 . S
C2541 H2565 0.949 . S
H2542 C2546 0.949 . S
C2543 C2544 1.349 . S
C2543 C2545 1.327 1_565 S
C2543 H2566 0.950 1_565 S
C2544 C2543 1.349 . S
C2544 C2556 1.349 . S
C2545 C2543 1.327 1_545 S
C2545 C2561 1.429 1_545 S
C2545 H2567 0.950 . S
C2546 H2542 0.949 . S
C2546 C2554 1.574 . S
C2546 C2562 1.368 . S
H2547 C2555 0.950 . S
H2548 C2553 0.950 . S
H2549 C2554 0.949 . S
H2550 C2556 0.950 . S
H2551 C2557 0.950 . S
H2552 C2558 0.949 . S
C2553 H2548 0.950 . S
C2553 C2555 1.327 . S
C2553 C2559 1.429 . S
C2554 C2546 1.574 . S
C2554 H2549 0.949 . S
C2554 C2560 1.368 1_565 S
C2555 C2539 1.349 . S
C2555 H2547 0.950 . S
C2555 C2553 1.327 . S
C2556 C2544 1.349 . S
C2556 H2550 0.950 . S
C2556 C2557 1.327 . S
C2557 H2551 0.950 . S
C2557 C2556 1.327 . S
C2557 C2561 1.429 . S
C2558 C2541 1.574 . S
C2558 H2552 0.949 . S
C2558 C2562 1.368 1_545 S
C2559 C2540 1.429 1_545 S
C2559 C2553 1.429 . S
C2559 C2560 1.523 . S
C2560 C2541 1.368 . S
C2560 C2554 1.368 1_545 S
C2560 C2559 1.523 . S
C2561 C2545 1.429 1_565 S
C2561 C2557 1.429 . S
C2561 C2562 1.523 . S
C2562 C2546 1.368 . S
C2562 C2558 1.368 1_565 S
C2562 C2561 1.523 . S
H2563 C2538 0.950 1_565 S
H2564 C2540 0.950 . S
H2565 C2541 0.949 . S
H2566 C2543 0.950 1_545 S
H2567 C2545 0.950 . S
C2568 C2569 1.349 . S
C2568 C2570 1.327 . S
C2568 H2593 0.950 . S
C2569 C2568 1.349 . S
C2569 C2585 1.349 . S
C2570 C2568 1.327 . S
C2570 C2589 1.429 . S
C2570 H2594 0.950 1_455 S
C2571 C2588 1.574 . S
C2571 C2590 1.368 . S
C2571 H2595 0.949 . S
H2572 C2576 0.949 . S
C2573 C2574 1.349 . S
C2573 C2575 1.327 . S
C2573 H2596 0.950 . S
C2574 C2573 1.349 . S
C2574 C2586 1.349 . S
C2575 C2573 1.327 . S
C2575 C2591 1.429 . S
C2575 H2597 0.950 1_655 S
C2576 H2572 0.949 . S
C2576 C2584 1.574 . S
C2576 C2592 1.368 . S
H2577 C2585 0.950 . S
H2578 C2583 0.950 . S
H2579 C2584 0.949 . S
H2580 C2586 0.950 . S
H2581 C2587 0.950 . S
H2582 C2588 0.949 . S
C2583 H2578 0.950 . S
C2583 C2585 1.327 . S
C2583 C2589 1.429 . S
C2584 C2576 1.574 . S
C2584 H2579 0.949 . S
C2584 C2590 1.368 1_655 S
C2585 C2569 1.349 . S
C2585 H2577 0.950 . S
C2585 C2583 1.327 . S
C2586 C2574 1.349 . S
C2586 H2580 0.950 . S
C2586 C2587 1.327 . S
C2587 H2581 0.950 . S
C2587 C2586 1.327 . S
C2587 C2591 1.429 . S
C2588 C2571 1.574 . S
C2588 H2582 0.949 . S
C2588 C2592 1.368 1_455 S
C2589 C2570 1.429 . S
C2589 C2583 1.429 . S
C2589 C2590 1.523 . S
C2590 C2571 1.368 . S
C2590 C2584 1.368 1_455 S
C2590 C2589 1.523 . S
C2591 C2575 1.429 . S
C2591 C2587 1.429 . S
C2591 C2592 1.523 . S
C2592 C2576 1.368 . S
C2592 C2588 1.368 1_655 S
C2592 C2591 1.523 . S
H2593 C2568 0.950 . S
H2594 C2570 0.950 1_655 S
H2595 C2571 0.949 . S
H2596 C2573 0.950 . S
H2597 C2575 0.950 1_455 S
C2598 C2599 1.349 . S
C2598 C2600 1.327 . S
C2598 H2623 0.950 . S
C2599 C2598 1.349 . S
C2599 C2615 1.349 . S
C2600 C2598 1.327 . S
C2600 C2619 1.429 . S
C2600 H2624 0.950 1_565 S
C2601 C2618 1.574 . S
C2601 C2620 1.368 . S
C2601 H2625 0.949 . S
H2602 C2606 0.949 . S
C2603 C2604 1.349 . S
C2603 C2605 1.327 . S
C2603 H2626 0.950 . S
C2604 C2603 1.349 . S
C2604 C2616 1.349 . S
C2605 C2603 1.327 . S
C2605 C2621 1.429 . S
C2605 H2627 0.950 1_545 S
C2606 H2602 0.949 . S
C2606 C2614 1.574 . S
C2606 C2622 1.368 . S
H2607 C2615 0.950 . S
H2608 C2613 0.950 . S
H2609 C2614 0.949 . S
H2610 C2616 0.950 . S
H2611 C2617 0.950 . S
H2612 C2618 0.949 . S
C2613 H2608 0.950 . S
C2613 C2615 1.327 . S
C2613 C2619 1.429 . S
C2614 C2606 1.574 . S
C2614 H2609 0.949 . S
C2614 C2620 1.368 1_545 S
C2615 C2599 1.349 . S
C2615 H2607 0.950 . S
C2615 C2613 1.327 . S
C2616 C2604 1.349 . S
C2616 H2610 0.950 . S
C2616 C2617 1.327 . S
C2617 H2611 0.950 . S
C2617 C2616 1.327 . S
C2617 C2621 1.429 . S
C2618 C2601 1.574 . S
C2618 H2612 0.949 . S
C2618 C2622 1.368 1_565 S
C2619 C2600 1.429 . S
C2619 C2613 1.429 . S
C2619 C2620 1.523 . S
C2620 C2601 1.368 . S
C2620 C2614 1.368 1_565 S
C2620 C2619 1.523 . S
C2621 C2605 1.429 . S
C2621 C2617 1.429 . S
C2621 C2622 1.523 . S
C2622 C2606 1.368 . S
C2622 C2618 1.368 1_545 S
C2622 C2621 1.523 . S
H2623 C2598 0.950 . S
H2624 C2600 0.950 1_545 S
H2625 C2601 0.949 . S
H2626 C2603 0.950 . S
H2627 C2605 0.950 1_565 S
C2628 C2629 1.349 . S
C2628 C2630 1.327 . S
C2628 H2653 0.950 . S
C2629 C2628 1.349 . S
C2629 C2645 1.349 . S
C2630 C2628 1.327 . S
C2630 C2649 1.429 . S
C2630 H2654 0.950 . S
C2631 C2648 1.574 . S
C2631 C2650 1.368 1_655 S
C2631 H2655 0.949 . S
H2632 C2636 0.949 . S
C2633 C2634 1.349 . S
C2633 C2635 1.327 . S
C2633 H2656 0.950 . S
C2634 C2633 1.349 . S
C2634 C2646 1.349 . S
C2635 C2633 1.327 . S
C2635 C2651 1.429 . S
C2635 H2657 0.950 . S
C2636 H2632 0.949 . S
C2636 C2644 1.574 . S
C2636 C2652 1.368 1_455 S
H2637 C2645 0.950 . S
H2638 C2643 0.950 . S
H2639 C2644 0.949 . S
H2640 C2646 0.950 . S
H2641 C2647 0.950 . S
H2642 C2648 0.949 . S
C2643 H2638 0.950 . S
C2643 C2645 1.327 . S
C2643 C2649 1.429 . S
C2644 C2636 1.574 . S
C2644 H2639 0.949 . S
C2644 C2650 1.368 . S
C2645 C2629 1.349 . S
C2645 H2637 0.950 . S
C2645 C2643 1.327 . S
C2646 C2634 1.349 . S
C2646 H2640 0.950 . S
C2646 C2647 1.327 . S
C2647 H2641 0.950 . S
C2647 C2646 1.327 . S
C2647 C2651 1.429 . S
C2648 C2631 1.574 . S
C2648 H2642 0.949 . S
C2648 C2652 1.368 . S
C2649 C2630 1.429 . S
C2649 C2643 1.429 . S
C2649 C2650 1.523 . S
C2650 C2631 1.368 1_455 S
C2650 C2644 1.368 . S
C2650 C2649 1.523 . S
C2651 C2635 1.429 . S
C2651 C2647 1.429 . S
C2651 C2652 1.523 . S
C2652 C2636 1.368 1_655 S
C2652 C2648 1.368 . S
C2652 C2651 1.523 . S
H2653 C2628 0.950 . S
H2654 C2630 0.950 . S
H2655 C2631 0.949 . S
H2656 C2633 0.950 . S
H2657 C2635 0.950 . S
C2658 C2659 1.349 . S
C2658 C2660 1.327 . S
C2658 H2683 0.959 . S
C2659 C2658 1.349 . S
C2659 C2675 1.349 . S
C2660 C2658 1.327 . S
C2660 C2679 1.429 . S
C2660 H2684 0.950 1_545 S
C2661 C2678 1.574 . S
C2661 C2680 1.368 . S
C2661 H2685 0.949 . S
H2662 C2666 0.949 . S
C2663 C2664 1.349 . S
C2663 C2665 1.327 . S
C2663 H2686 0.959 . S
C2664 C2663 1.349 . S
C2664 C2676 1.349 . S
C2665 C2663 1.327 . S
C2665 C2681 1.429 . S
C2665 H2687 0.950 1_565 S
C2666 H2662 0.949 . S
C2666 C2674 1.574 . S
C2666 C2682 1.368 . S
H2667 C2675 0.950 . S
H2668 C2673 0.950 . S
H2669 C2674 0.949 . S
H2670 C2676 0.950 . S
H2671 C2677 0.950 . S
H2672 C2678 0.949 . S
C2673 H2668 0.950 . S
C2673 C2675 1.327 . S
C2673 C2679 1.429 . S
C2674 C2666 1.574 . S
C2674 H2669 0.949 . S
C2674 C2680 1.368 1_565 S
C2675 C2659 1.349 . S
C2675 H2667 0.950 . S
C2675 C2673 1.327 . S
C2676 C2664 1.349 . S
C2676 H2670 0.950 . S
C2676 C2677 1.327 . S
C2677 H2671 0.950 . S
C2677 C2676 1.327 . S
C2677 C2681 1.429 . S
C2678 C2661 1.574 . S
C2678 H2672 0.949 . S
C2678 C2682 1.368 1_545 S
C2679 C2660 1.429 . S
C2679 C2673 1.429 . S
C2679 C2680 1.523 . S
C2680 C2661 1.368 . S
C2680 C2674 1.368 1_545 S
C2680 C2679 1.523 . S
C2681 C2665 1.429 . S
C2681 C2677 1.429 . S
C2681 C2682 1.523 . S
C2682 C2666 1.368 . S
C2682 C2678 1.368 1_565 S
C2682 C2681 1.523 . S
H2683 C2658 0.959 . S
H2684 C2660 0.950 1_565 S
H2685 C2661 0.949 . S
H2686 C2663 0.959 . S
H2687 C2665 0.950 1_545 S
C2688 C2689 1.349 . S
C2688 C2690 1.327 . S
C2688 H2713 0.950 . S
C2689 C2688 1.349 . S
C2689 C2705 1.349 . S
C2690 C2688 1.327 . S
C2690 C2709 1.429 . S
C2690 H2714 0.950 . S
C2691 C2708 1.574 . S
C2691 C2710 1.368 1_554 S
C2691 H2715 0.949 . S
H2692 C2696 0.949 . S
C2693 C2694 1.349 . S
C2693 C2695 1.327 . S
C2693 H2716 0.950 . S
C2694 C2693 1.349 . S
C2694 C2706 1.349 . S
C2695 C2693 1.327 . S
C2695 C2711 1.429 . S
C2695 H2717 0.950 . S
C2696 H2692 0.949 . S
C2696 C2704 1.574 . S
C2696 C2712 1.368 1_556 S
H2697 C2705 0.968 . S
H2698 C2703 0.950 1_554 S
H2699 C2704 0.949 . S
H2700 C2706 0.968 . S
H2701 C2707 0.950 1_556 S
H2702 C2708 0.949 . S
C2703 H2698 0.950 1_556 S
C2703 C2705 1.327 . S
C2703 C2709 1.429 . S
C2704 C2696 1.574 . S
C2704 H2699 0.949 . S
C2704 C2710 1.368 . S
C2705 C2689 1.349 . S
C2705 H2697 0.968 . S
C2705 C2703 1.327 . S
C2706 C2694 1.349 . S
C2706 H2700 0.968 . S
C2706 C2707 1.327 . S
C2707 H2701 0.950 1_554 S
C2707 C2706 1.327 . S
C2707 C2711 1.429 . S
C2708 C2691 1.574 . S
C2708 H2702 0.949 . S
C2708 C2712 1.368 . S
C2709 C2690 1.429 . S
C2709 C2703 1.429 . S
C2709 C2710 1.523 . S
C2710 C2691 1.368 1_556 S
C2710 C2704 1.368 . S
C2710 C2709 1.523 . S
C2711 C2695 1.429 . S
C2711 C2707 1.429 . S
C2711 C2712 1.523 . S
C2712 C2696 1.368 1_554 S
C2712 C2708 1.368 . S
C2712 C2711 1.523 . S
H2713 C2688 0.950 . S
H2714 C2690 0.950 . S
H2715 C2691 0.949 . S
H2716 C2693 0.950 . S
H2717 C2695 0.950 . S
C2718 C2719 1.349 . S
C2718 C2720 1.327 . S
C2718 H2743 0.950 . S
C2719 C2718 1.349 . S
C2719 C2735 1.349 . S
C2720 C2718 1.327 . S
C2720 C2739 1.429 . S
C2720 H2744 0.950 . S
C2721 C2738 1.574 . S
C2721 C2740 1.368 1_556 S
C2721 H2745 0.949 . S
H2722 C2726 0.949 . S
C2723 C2724 1.349 . S
C2723 C2725 1.327 . S
C2723 H2746 0.950 . S
C2724 C2723 1.349 . S
C2724 C2736 1.349 . S
C2725 C2723 1.327 . S
C2725 C2741 1.429 . S
C2725 H2747 0.950 . S
C2726 H2722 0.949 . S
C2726 C2734 1.574 . S
C2726 C2742 1.368 1_554 S
H2727 C2735 0.950 1_556 S
H2728 C2733 0.950 . S
H2729 C2734 0.949 . S
H2730 C2736 0.950 1_554 S
H2731 C2737 0.950 . S
H2732 C2738 0.949 . S
C2733 H2728 0.950 . S
C2733 C2735 1.327 1_556 S
C2733 C2739 1.429 1_556 S
C2734 C2726 1.574 . S
C2734 H2729 0.949 . S
C2734 C2740 1.368 . S
C2735 C2719 1.349 . S
C2735 H2727 0.950 1_554 S
C2735 C2733 1.327 1_554 S
C2736 C2724 1.349 . S
C2736 H2730 0.950 1_556 S
C2736 C2737 1.327 1_556 S
C2737 H2731 0.950 . S
C2737 C2736 1.327 1_554 S
C2737 C2741 1.429 1_554 S
C2738 C2721 1.574 . S
C2738 H2732 0.949 . S
C2738 C2742 1.368 . S
C2739 C2720 1.429 . S
C2739 C2733 1.429 1_554 S
C2739 C2740 1.523 . S
C2740 C2721 1.368 1_554 S
C2740 C2734 1.368 . S
C2740 C2739 1.523 . S
C2741 C2725 1.429 . S
C2741 C2737 1.429 1_556 S
C2741 C2742 1.523 . S
C2742 C2726 1.368 1_556 S
C2742 C2738 1.368 . S
C2742 C2741 1.523 . S
H2743 C2718 0.950 . S
H2744 C2720 0.950 . S
H2745 C2721 0.949 . S
H2746 C2723 0.950 . S
H2747 C2725 0.950 . S
C2748 C2749 1.349 . S
C2748 C2750 1.327 1_554 S
C2748 H2773 0.950 1_554 S
C2749 C2748 1.349 . S
C2749 C2765 1.349 . S
C2750 C2748 1.327 1_556 S
C2750 C2769 1.429 1_556 S
C2750 H2774 0.950 . S
C2751 C2768 1.574 . S
C2751 C2770 1.368 . S
C2751 H2775 0.949 . S
H2752 C2756 0.949 . S
C2753 C2754 1.349 . S
C2753 C2755 1.327 1_556 S
C2753 H2776 0.950 1_556 S
C2754 C2753 1.349 . S
C2754 C2766 1.349 . S
C2755 C2753 1.327 1_554 S
C2755 C2771 1.429 1_554 S
C2755 H2777 0.950 . S
C2756 H2752 0.949 . S
C2756 C2764 1.574 . S
C2756 C2772 1.368 . S
H2757 C2765 0.950 . S
H2758 C2763 0.950 . S
H2759 C2764 0.949 . S
H2760 C2766 0.950 . S
H2761 C2767 0.950 . S
H2762 C2768 0.949 . S
C2763 H2758 0.950 . S
C2763 C2765 1.327 . S
C2763 C2769 1.429 . S
C2764 C2756 1.574 . S
C2764 H2759 0.949 . S
C2764 C2770 1.368 1_556 S
C2765 C2749 1.349 . S
C2765 H2757 0.950 . S
C2765 C2763 1.327 . S
C2766 C2754 1.349 . S
C2766 H2760 0.950 . S
C2766 C2767 1.327 . S
C2767 H2761 0.950 . S
C2767 C2766 1.327 . S
C2767 C2771 1.429 . S
C2768 C2751 1.574 . S
C2768 H2762 0.949 . S
C2768 C2772 1.368 1_554 S
C2769 C2750 1.429 1_554 S
C2769 C2763 1.429 . S
C2769 C2770 1.523 . S
C2770 C2751 1.368 . S
C2770 C2764 1.368 1_554 S
C2770 C2769 1.523 . S
C2771 C2755 1.429 1_556 S
C2771 C2767 1.429 . S
C2771 C2772 1.523 . S
C2772 C2756 1.368 . S
C2772 C2768 1.368 1_556 S
C2772 C2771 1.523 . S
H2773 C2748 0.950 1_556 S
H2774 C2750 0.950 . S
H2775 C2751 0.949 . S
H2776 C2753 0.950 1_554 S
H2777 C2755 0.950 . S
C2778 C2779 1.349 . S
C2778 C2780 1.327 1_556 S
C2778 H2803 0.950 1_556 S
C2779 C2778 1.349 . S
C2779 C2795 1.349 . S
C2780 C2778 1.327 1_554 S
C2780 C2799 1.429 1_554 S
C2780 H2804 0.950 . S
C2781 C2798 1.574 . S
C2781 C2800 1.368 . S
C2781 H2805 0.949 . S
H2782 C2786 0.949 . S
C2783 C2784 1.349 . S
C2783 C2785 1.327 1_554 S
C2783 H2806 0.950 1_554 S
C2784 C2783 1.349 . S
C2784 C2796 1.349 . S
C2785 C2783 1.327 1_556 S
C2785 C2801 1.429 1_556 S
C2785 H2807 0.950 . S
C2786 H2782 0.949 . S
C2786 C2794 1.574 . S
C2786 C2802 1.368 . S
H2787 C2795 0.950 . S
H2788 C2793 0.950 . S
H2789 C2794 0.949 . S
H2790 C2796 0.950 . S
H2791 C2797 0.950 . S
H2792 C2798 0.949 . S
C2793 H2788 0.950 . S
C2793 C2795 1.327 . S
C2793 C2799 1.429 . S
C2794 C2786 1.574 . S
C2794 H2789 0.949 . S
C2794 C2800 1.368 1_554 S
C2795 C2779 1.349 . S
C2795 H2787 0.950 . S
C2795 C2793 1.327 . S
C2796 C2784 1.349 . S
C2796 H2790 0.950 . S
C2796 C2797 1.327 . S
C2797 H2791 0.950 . S
C2797 C2796 1.327 . S
C2797 C2801 1.429 . S
C2798 C2781 1.574 . S
C2798 H2792 0.949 . S
C2798 C2802 1.368 1_556 S
C2799 C2780 1.429 1_556 S
C2799 C2793 1.429 . S
C2799 C2800 1.523 . S
C2800 C2781 1.368 . S
C2800 C2794 1.368 1_556 S
C2800 C2799 1.523 . S
C2801 C2785 1.429 1_554 S
C2801 C2797 1.429 . S
C2801 C2802 1.523 . S
C2802 C2786 1.368 . S
C2802 C2798 1.368 1_554 S
C2802 C2801 1.523 . S
H2803 C2778 0.950 1_554 S
H2804 C2780 0.950 . S
H2805 C2781 0.949 . S
H2806 C2783 0.950 1_556 S
H2807 C2785 0.950 . S
C2808 C2809 1.349 . S
C2808 C2810 1.327 . S
C2808 H2833 0.950 . S
C2809 C2808 1.349 . S
C2809 C2825 1.349 . S
C2810 C2808 1.327 . S
C2810 C2829 1.429 . S
C2810 H2834 0.950 . S
C2811 C2828 1.574 . S
C2811 C2830 1.368 . S
C2811 H2835 0.949 . S
H2812 C2816 0.949 . S
C2813 C2814 1.349 . S
C2813 C2815 1.327 . S
C2813 H2836 0.950 . S
C2814 C2813 1.349 . S
C2814 C2826 1.349 . S
C2815 C2813 1.327 . S
C2815 C2831 1.429 . S
C2815 H2837 0.950 . S
C2816 H2812 0.949 . S
C2816 C2824 1.574 . S
C2816 C2832 1.368 . S
H2817 C2825 0.950 . S
H2818 C2823 0.950 . S
H2819 C2824 0.949 . S
H2820 C2826 0.950 . S
H2821 C2827 0.950 . S
H2822 C2828 0.949 . S
C2823 H2818 0.950 . S
C2823 C2825 1.327 . S
C2823 C2829 1.429 . S
C2824 C2816 1.574 . S
C2824 H2819 0.949 . S
C2824 C2830 1.368 . S
C2825 C2809 1.349 . S
C2825 H2817 0.950 . S
C2825 C2823 1.327 . S
C2826 C2814 1.349 . S
C2826 H2820 0.950 . S
C2826 C2827 1.327 . S
C2827 H2821 0.950 . S
C2827 C2826 1.327 . S
C2827 C2831 1.429 . S
C2828 C2811 1.574 . S
C2828 H2822 0.949 . S
C2828 C2832 1.368 . S
C2829 C2810 1.429 . S
C2829 C2823 1.429 . S
C2829 C2830 1.523 . S
C2830 C2811 1.368 . S
C2830 C2824 1.368 . S
C2830 C2829 1.523 . S
C2831 C2815 1.429 . S
C2831 C2827 1.429 . S
C2831 C2832 1.523 . S
C2832 C2816 1.368 . S
C2832 C2828 1.368 . S
C2832 C2831 1.523 . S
H2833 C2808 0.950 . S
H2834 C2810 0.950 . S
H2835 C2811 0.949 . S
H2836 C2813 0.950 . S
H2837 C2815 0.950 . S
C2838 C2839 1.349 . S
C2838 C2840 1.327 . S
C2838 H2863 0.950 . S
C2839 C2838 1.349 . S
C2839 C2855 1.349 . S
C2840 C2838 1.327 . S
C2840 C2859 1.429 . S
C2840 H2864 0.950 . S
C2841 C2858 1.574 . S
C2841 C2860 1.368 . S
C2841 H2865 0.949 . S
H2842 C2846 0.949 . S
C2843 C2844 1.349 . S
C2843 C2845 1.327 . S
C2843 H2866 0.950 . S
C2844 C2843 1.349 . S
C2844 C2856 1.349 . S
C2845 C2843 1.327 . S
C2845 C2861 1.429 . S
C2845 H2867 0.950 . S
C2846 H2842 0.949 . S
C2846 C2854 1.574 . S
C2846 C2862 1.368 . S
H2847 C2855 0.950 . S
H2848 C2853 0.950 . S
H2849 C2854 0.949 . S
H2850 C2856 0.950 . S
H2851 C2857 0.950 . S
H2852 C2858 0.949 . S
C2853 H2848 0.950 . S
C2853 C2855 1.327 . S
C2853 C2859 1.429 . S
C2854 C2846 1.574 . S
C2854 H2849 0.949 . S
C2854 C2860 1.368 . S
C2855 C2839 1.349 . S
C2855 H2847 0.950 . S
C2855 C2853 1.327 . S
C2856 C2844 1.349 . S
C2856 H2850 0.950 . S
C2856 C2857 1.327 . S
C2857 H2851 0.950 . S
C2857 C2856 1.327 . S
C2857 C2861 1.429 . S
C2858 C2841 1.574 . S
C2858 H2852 0.949 . S
C2858 C2862 1.368 . S
C2859 C2840 1.429 . S
C2859 C2853 1.429 . S
C2859 C2860 1.523 . S
C2860 C2841 1.368 . S
C2860 C2854 1.368 . S
C2860 C2859 1.523 . S
C2861 C2845 1.429 . S
C2861 C2857 1.429 . S
C2861 C2862 1.523 . S
C2862 C2846 1.368 . S
C2862 C2858 1.368 . S
C2862 C2861 1.523 . S
H2863 C2838 0.950 . S
H2864 C2840 0.950 . S
H2865 C2841 0.949 . S
H2866 C2843 0.950 . S
H2867 C2845 0.950 . S
C2868 C2869 1.349 . S
C2868 C2870 1.327 . S
C2868 H2893 0.950 . S
C2869 C2868 1.349 . S
C2869 C2885 1.349 . S
C2870 C2868 1.327 . S
C2870 C2889 1.429 . S
C2870 H2894 0.950 . S
C2871 C2888 1.574 . S
C2871 C2890 1.368 . S
C2871 H2895 0.949 . S
H2872 C2876 0.949 . S
C2873 C2874 1.349 . S
C2873 C2875 1.327 . S
C2873 H2896 0.950 . S
C2874 C2873 1.349 . S
C2874 C2886 1.349 . S
C2875 C2873 1.327 . S
C2875 C2891 1.429 . S
C2875 H2897 0.950 . S
C2876 H2872 0.949 . S
C2876 C2884 1.574 . S
C2876 C2892 1.368 . S
H2877 C2885 0.950 . S
H2878 C2883 0.950 . S
H2879 C2884 0.949 . S
H2880 C2886 0.950 . S
H2881 C2887 0.950 . S
H2882 C2888 0.949 . S
C2883 H2878 0.950 . S
C2883 C2885 1.327 . S
C2883 C2889 1.429 . S
C2884 C2876 1.574 . S
C2884 H2879 0.949 . S
C2884 C2890 1.368 . S
C2885 C2869 1.349 . S
C2885 H2877 0.950 . S
C2885 C2883 1.327 . S
C2886 C2874 1.349 . S
C2886 H2880 0.950 . S
C2886 C2887 1.327 . S
C2887 H2881 0.950 . S
C2887 C2886 1.327 . S
C2887 C2891 1.429 . S
C2888 C2871 1.574 . S
C2888 H2882 0.949 . S
C2888 C2892 1.368 . S
C2889 C2870 1.429 . S
C2889 C2883 1.429 . S
C2889 C2890 1.523 . S
C2890 C2871 1.368 . S
C2890 C2884 1.368 . S
C2890 C2889 1.523 . S
C2891 C2875 1.429 . S
C2891 C2887 1.429 . S
C2891 C2892 1.523 . S
C2892 C2876 1.368 . S
C2892 C2888 1.368 . S
C2892 C2891 1.523 . S
H2893 C2868 0.950 . S
H2894 C2870 0.950 . S
H2895 C2871 0.949 . S
H2896 C2873 0.950 . S
H2897 C2875 0.950 . S
C2898 C2899 1.349 . S
C2898 C2900 1.327 . S
C2898 H2923 0.950 . S
C2899 C2898 1.349 . S
C2899 C2915 1.349 . S
C2900 C2898 1.327 . S
C2900 C2919 1.429 . S
C2900 H2924 0.950 . S
C2901 C2918 1.574 . S
C2901 C2920 1.368 . S
C2901 H2925 0.949 . S
H2902 C2906 0.949 . S
C2903 C2904 1.349 . S
C2903 C2905 1.327 . S
C2903 H2926 0.950 . S
C2904 C2903 1.349 . S
C2904 C2916 1.349 . S
C2905 C2903 1.327 . S
C2905 C2921 1.429 . S
C2905 H2927 0.950 . S
C2906 H2902 0.949 . S
C2906 C2914 1.574 . S
C2906 C2922 1.368 . S
H2907 C2915 0.950 . S
H2908 C2913 0.950 . S
H2909 C2914 0.949 . S
H2910 C2916 0.950 . S
H2911 C2917 0.950 . S
H2912 C2918 0.949 . S
C2913 H2908 0.950 . S
C2913 C2915 1.327 . S
C2913 C2919 1.429 . S
C2914 C2906 1.574 . S
C2914 H2909 0.949 . S
C2914 C2920 1.368 . S
C2915 C2899 1.349 . S
C2915 H2907 0.950 . S
C2915 C2913 1.327 . S
C2916 C2904 1.349 . S
C2916 H2910 0.950 . S
C2916 C2917 1.327 . S
C2917 H2911 0.950 . S
C2917 C2916 1.327 . S
C2917 C2921 1.429 . S
C2918 C2901 1.574 . S
C2918 H2912 0.949 . S
C2918 C2922 1.368 . S
C2919 C2900 1.429 . S
C2919 C2913 1.429 . S
C2919 C2920 1.523 . S
C2920 C2901 1.368 . S
C2920 C2914 1.368 . S
C2920 C2919 1.523 . S
C2921 C2905 1.429 . S
C2921 C2917 1.429 . S
C2921 C2922 1.523 . S
C2922 C2906 1.368 . S
C2922 C2918 1.368 . S
C2922 C2921 1.523 . S
H2923 C2898 0.950 . S
H2924 C2900 0.950 . S
H2925 C2901 0.949 . S
H2926 C2903 0.950 . S
H2927 C2905 0.950 . S
C2928 C2929 1.349 . S
C2928 C2930 1.327 . S
C2928 H2953 0.950 . S
C2929 C2928 1.349 . S
C2929 C2945 1.349 . S
C2930 C2928 1.327 . S
C2930 C2949 1.429 . S
C2930 H2954 0.950 . S
C2931 C2948 1.574 . S
C2931 C2950 1.368 . S
C2931 H2955 0.949 . S
H2932 C2936 0.949 . S
C2933 C2934 1.349 . S
C2933 C2935 1.327 . S
C2933 H2956 0.950 . S
C2934 C2933 1.349 . S
C2934 C2946 1.349 . S
C2935 C2933 1.327 . S
C2935 C2951 1.429 . S
C2935 H2957 0.950 . S
C2936 H2932 0.949 . S
C2936 C2944 1.574 . S
C2936 C2952 1.368 . S
H2937 C2945 0.950 . S
H2938 C2943 0.950 . S
H2939 C2944 0.949 . S
H2940 C2946 0.950 . S
H2941 C2947 0.950 . S
H2942 C2948 0.949 . S
C2943 H2938 0.950 . S
C2943 C2945 1.327 . S
C2943 C2949 1.429 . S
C2944 C2936 1.574 . S
C2944 H2939 0.949 . S
C2944 C2950 1.368 . S
C2945 C2929 1.349 . S
C2945 H2937 0.950 . S
C2945 C2943 1.327 . S
C2946 C2934 1.349 . S
C2946 H2940 0.950 . S
C2946 C2947 1.327 . S
C2947 H2941 0.950 . S
C2947 C2946 1.327 . S
C2947 C2951 1.429 . S
C2948 C2931 1.574 . S
C2948 H2942 0.949 . S
C2948 C2952 1.368 . S
C2949 C2930 1.429 . S
C2949 C2943 1.429 . S
C2949 C2950 1.523 . S
C2950 C2931 1.368 . S
C2950 C2944 1.368 . S
C2950 C2949 1.523 . S
C2951 C2935 1.429 . S
C2951 C2947 1.429 . S
C2951 C2952 1.523 . S
C2952 C2936 1.368 . S
C2952 C2948 1.368 . S
C2952 C2951 1.523 . S
H2953 C2928 0.950 . S
H2954 C2930 0.950 . S
H2955 C2931 0.949 . S
H2956 C2933 0.950 . S
H2957 C2935 0.950 . S
C2958 C2959 1.349 . S
C2958 C2960 1.327 . S
C2958 H2983 0.950 . S
C2959 C2958 1.349 . S
C2959 C2975 1.349 . S
C2960 C2958 1.327 . S
C2960 C2979 1.429 . S
C2960 H2984 0.950 . S
C2961 C2978 1.574 . S
C2961 C2980 1.368 . S
C2961 H2985 0.949 . S
H2962 C2966 0.949 . S
C2963 C2964 1.349 . S
C2963 C2965 1.327 . S
C2963 H2986 0.950 . S
C2964 C2963 1.349 . S
C2964 C2976 1.349 . S
C2965 C2963 1.327 . S
C2965 C2981 1.429 . S
C2965 H2987 0.950 . S
C2966 H2962 0.949 . S
C2966 C2974 1.574 . S
C2966 C2982 1.368 . S
H2967 C2975 0.950 . S
H2968 C2973 0.950 . S
H2969 C2974 0.949 . S
H2970 C2976 0.950 . S
H2971 C2977 0.950 . S
H2972 C2978 0.949 . S
C2973 H2968 0.950 . S
C2973 C2975 1.327 . S
C2973 C2979 1.429 . S
C2974 C2966 1.574 . S
C2974 H2969 0.949 . S
C2974 C2980 1.368 . S
C2975 C2959 1.349 . S
C2975 H2967 0.950 . S
C2975 C2973 1.327 . S
C2976 C2964 1.349 . S
C2976 H2970 0.950 . S
C2976 C2977 1.327 . S
C2977 H2971 0.950 . S
C2977 C2976 1.327 . S
C2977 C2981 1.429 . S
C2978 C2961 1.574 . S
C2978 H2972 0.949 . S
C2978 C2982 1.368 . S
C2979 C2960 1.429 . S
C2979 C2973 1.429 . S
C2979 C2980 1.523 . S
C2980 C2961 1.368 . S
C2980 C2974 1.368 . S
C2980 C2979 1.523 . S
C2981 C2965 1.429 . S
C2981 C2977 1.429 . S
C2981 C2982 1.523 . S
C2982 C2966 1.368 . S
C2982 C2978 1.368 . S
C2982 C2981 1.523 . S
H2983 C2958 0.950 . S
H2984 C2960 0.950 . S
H2985 C2961 0.949 . S
H2986 C2963 0.950 . S
H2987 C2965 0.950 . S
C2988 C2989 1.349 . S
C2988 C2990 1.327 . S
C2988 H3013 0.950 . S
C2989 C2988 1.349 . S
C2989 C3005 1.349 . S
C2990 C2988 1.327 . S
C2990 C3009 1.429 . S
C2990 H3014 0.950 . S
C2991 C3008 1.574 . S
C2991 C3010 1.368 . S
C2991 H3015 0.949 . S
H2992 C2996 0.949 . S
C2993 C2994 1.349 . S
C2993 C2995 1.327 . S
C2993 H3016 0.950 . S
C2994 C2993 1.349 . S
C2994 C3006 1.349 . S
C2995 C2993 1.327 . S
C2995 C3011 1.429 . S
C2995 H3017 0.950 . S
C2996 H2992 0.949 . S
C2996 C3004 1.574 . S
C2996 C3012 1.368 . S
H2997 C3005 0.950 . S
H2998 C3003 0.950 . S
H2999 C3004 0.949 . S
H3000 C3006 0.950 . S
H3001 C3007 0.950 . S
H3002 C3008 0.949 . S
C3003 H2998 0.950 . S
C3003 C3005 1.327 . S
C3003 C3009 1.429 . S
C3004 C2996 1.574 . S
C3004 H2999 0.949 . S
C3004 C3010 1.368 . S
C3005 C2989 1.349 . S
C3005 H2997 0.950 . S
C3005 C3003 1.327 . S
C3006 C2994 1.349 . S
C3006 H3000 0.950 . S
C3006 C3007 1.327 . S
C3007 H3001 0.950 . S
C3007 C3006 1.327 . S
C3007 C3011 1.429 . S
C3008 C2991 1.574 . S
C3008 H3002 0.949 . S
C3008 C3012 1.368 . S
C3009 C2990 1.429 . S
C3009 C3003 1.429 . S
C3009 C3010 1.523 . S
C3010 C2991 1.368 . S
C3010 C3004 1.368 . S
C3010 C3009 1.523 . S
C3011 C2995 1.429 . S
C3011 C3007 1.429 . S
C3011 C3012 1.523 . S
C3012 C2996 1.368 . S
C3012 C3008 1.368 . S
C3012 C3011 1.523 . S
H3013 C2988 0.950 . S
H3014 C2990 0.950 . S
H3015 C2991 0.949 . S
H3016 C2993 0.950 . S
H3017 C2995 0.950 . S
C3018 C3019 1.349 . S
C3018 C3020 1.327 . S
C3018 H3043 0.950 . S
C3019 C3018 1.349 . S
C3019 C3035 1.349 . S
C3020 C3018 1.327 . S
C3020 C3039 1.429 . S
C3020 H3044 0.950 . S
C3021 C3038 1.574 . S
C3021 C3040 1.368 . S
C3021 H3045 0.949 . S
H3022 C3026 0.949 . S
C3023 C3024 1.349 . S
C3023 C3025 1.327 . S
C3023 H3046 0.950 . S
C3024 C3023 1.349 . S
C3024 C3036 1.349 . S
C3025 C3023 1.327 . S
C3025 C3041 1.429 . S
C3025 H3047 0.950 . S
C3026 H3022 0.949 . S
C3026 C3034 1.574 . S
C3026 C3042 1.368 . S
H3027 C3035 0.950 . S
H3028 C3033 0.950 . S
H3029 C3034 0.949 . S
H3030 C3036 0.950 . S
H3031 C3037 0.950 . S
H3032 C3038 0.949 . S
C3033 H3028 0.950 . S
C3033 C3035 1.327 . S
C3033 C3039 1.429 . S
C3034 C3026 1.574 . S
C3034 H3029 0.949 . S
C3034 C3040 1.368 . S
C3035 C3019 1.349 . S
C3035 H3027 0.950 . S
C3035 C3033 1.327 . S
C3036 C3024 1.349 . S
C3036 H3030 0.950 . S
C3036 C3037 1.327 . S
C3037 H3031 0.950 . S
C3037 C3036 1.327 . S
C3037 C3041 1.429 . S
C3038 C3021 1.574 . S
C3038 H3032 0.949 . S
C3038 C3042 1.368 . S
C3039 C3020 1.429 . S
C3039 C3033 1.429 . S
C3039 C3040 1.523 . S
C3040 C3021 1.368 . S
C3040 C3034 1.368 . S
C3040 C3039 1.523 . S
C3041 C3025 1.429 . S
C3041 C3037 1.429 . S
C3041 C3042 1.523 . S
C3042 C3026 1.368 . S
C3042 C3038 1.368 . S
C3042 C3041 1.523 . S
H3043 C3018 0.950 . S
H3044 C3020 0.950 . S
H3045 C3021 0.949 . S
H3046 C3023 0.950 . S
H3047 C3025 0.950 . S
C3048 C3049 1.349 . S
C3048 C3050 1.327 . S
C3048 H3073 0.950 . S
C3049 C3048 1.349 . S
C3049 C3065 1.349 . S
C3050 C3048 1.327 . S
C3050 C3069 1.429 . S
C3050 H3074 0.950 . S
C3051 C3068 1.574 . S
C3051 C3070 1.368 . S
C3051 H3075 0.949 . S
H3052 C3056 0.949 . S
C3053 C3054 1.349 . S
C3053 C3055 1.327 . S
C3053 H3076 0.950 . S
C3054 C3053 1.349 . S
C3054 C3066 1.349 . S
C3055 C3053 1.327 . S
C3055 C3071 1.429 . S
C3055 H3077 0.950 . S
C3056 H3052 0.949 . S
C3056 C3064 1.574 . S
C3056 C3072 1.368 . S
H3057 C3065 0.950 . S
H3058 C3063 0.950 . S
H3059 C3064 0.949 . S
H3060 C3066 0.950 . S
H3061 C3067 0.950 . S
H3062 C3068 0.949 . S
C3063 H3058 0.950 . S
C3063 C3065 1.327 . S
C3063 C3069 1.429 . S
C3064 C3056 1.574 . S
C3064 H3059 0.949 . S
C3064 C3070 1.368 . S
C3065 C3049 1.349 . S
C3065 H3057 0.950 . S
C3065 C3063 1.327 . S
C3066 C3054 1.349 . S
C3066 H3060 0.950 . S
C3066 C3067 1.327 . S
C3067 H3061 0.950 . S
C3067 C3066 1.327 . S
C3067 C3071 1.429 . S
C3068 C3051 1.574 . S
C3068 H3062 0.949 . S
C3068 C3072 1.368 . S
C3069 C3050 1.429 . S
C3069 C3063 1.429 . S
C3069 C3070 1.523 . S
C3070 C3051 1.368 . S
C3070 C3064 1.368 . S
C3070 C3069 1.523 . S
C3071 C3055 1.429 . S
C3071 C3067 1.429 . S
C3071 C3072 1.523 . S
C3072 C3056 1.368 . S
C3072 C3068 1.368 . S
C3072 C3071 1.523 . S
H3073 C3048 0.950 . S
H3074 C3050 0.950 . S
H3075 C3051 0.949 . S
H3076 C3053 0.950 . S
H3077 C3055 0.950 . S
C3078 C3079 1.349 . S
C3078 C3080 1.327 . S
C3078 H3103 0.950 . S
C3079 C3078 1.349 . S
C3079 C3095 1.349 . S
C3080 C3078 1.327 . S
C3080 C3099 1.429 . S
C3080 H3104 0.950 . S
C3081 C3098 1.574 . S
C3081 C3100 1.368 . S
C3081 H3105 0.949 . S
H3082 C3086 0.949 . S
C3083 C3084 1.349 . S
C3083 C3085 1.327 . S
C3083 H3106 0.950 . S
C3084 C3083 1.349 . S
C3084 C3096 1.349 . S
C3085 C3083 1.327 . S
C3085 C3101 1.429 . S
C3085 H3107 0.950 . S
C3086 H3082 0.949 . S
C3086 C3094 1.574 . S
C3086 C3102 1.368 . S
H3087 C3095 0.950 . S
H3088 C3093 0.950 . S
H3089 C3094 0.949 . S
H3090 C3096 0.950 . S
H3091 C3097 0.950 . S
H3092 C3098 0.949 . S
C3093 H3088 0.950 . S
C3093 C3095 1.327 . S
C3093 C3099 1.429 . S
C3094 C3086 1.574 . S
C3094 H3089 0.949 . S
C3094 C3100 1.368 . S
C3095 C3079 1.349 . S
C3095 H3087 0.950 . S
C3095 C3093 1.327 . S
C3096 C3084 1.349 . S
C3096 H3090 0.950 . S
C3096 C3097 1.327 . S
C3097 H3091 0.950 . S
C3097 C3096 1.327 . S
C3097 C3101 1.429 . S
C3098 C3081 1.574 . S
C3098 H3092 0.949 . S
C3098 C3102 1.368 . S
C3099 C3080 1.429 . S
C3099 C3093 1.429 . S
C3099 C3100 1.523 . S
C3100 C3081 1.368 . S
C3100 C3094 1.368 . S
C3100 C3099 1.523 . S
C3101 C3085 1.429 . S
C3101 C3097 1.429 . S
C3101 C3102 1.523 . S
C3102 C3086 1.368 . S
C3102 C3098 1.368 . S
C3102 C3101 1.523 . S
H3103 C3078 0.950 . S
H3104 C3080 0.950 . S
H3105 C3081 0.949 . S
H3106 C3083 0.950 . S
H3107 C3085 0.950 . S
C3108 C3109 1.349 . S
C3108 C3110 1.327 . S
C3108 H3133 0.950 . S
C3109 C3108 1.349 . S
C3109 C3125 1.349 . S
C3110 C3108 1.327 . S
C3110 C3129 1.429 . S
C3110 H3134 0.950 . S
C3111 C3128 1.574 . S
C3111 C3130 1.368 . S
C3111 H3135 0.949 . S
H3112 C3116 0.949 . S
C3113 C3114 1.349 . S
C3113 C3115 1.327 . S
C3113 H3136 0.950 . S
C3114 C3113 1.349 . S
C3114 C3126 1.349 . S
C3115 C3113 1.327 . S
C3115 C3131 1.429 . S
C3115 H3137 0.950 . S
C3116 H3112 0.949 . S
C3116 C3124 1.574 . S
C3116 C3132 1.368 . S
H3117 C3125 0.950 . S
H3118 C3123 0.950 . S
H3119 C3124 0.949 . S
H3120 C3126 0.950 . S
H3121 C3127 0.950 . S
H3122 C3128 0.949 . S
C3123 H3118 0.950 . S
C3123 C3125 1.327 . S
C3123 C3129 1.429 . S
C3124 C3116 1.574 . S
C3124 H3119 0.949 . S
C3124 C3130 1.368 . S
C3125 C3109 1.349 . S
C3125 H3117 0.950 . S
C3125 C3123 1.327 . S
C3126 C3114 1.349 . S
C3126 H3120 0.950 . S
C3126 C3127 1.327 . S
C3127 H3121 0.950 . S
C3127 C3126 1.327 . S
C3127 C3131 1.429 . S
C3128 C3111 1.574 . S
C3128 H3122 0.949 . S
C3128 C3132 1.368 . S
C3129 C3110 1.429 . S
C3129 C3123 1.429 . S
C3129 C3130 1.523 . S
C3130 C3111 1.368 . S
C3130 C3124 1.368 . S
C3130 C3129 1.523 . S
C3131 C3115 1.429 . S
C3131 C3127 1.429 . S
C3131 C3132 1.523 . S
C3132 C3116 1.368 . S
C3132 C3128 1.368 . S
C3132 C3131 1.523 . S
H3133 C3108 0.950 . S
H3134 C3110 0.950 . S
H3135 C3111 0.949 . S
H3136 C3113 0.950 . S
H3137 C3115 0.950 . S
C3138 C3139 1.349 . S
C3138 C3140 1.327 . S
C3138 H3163 0.950 . S
C3139 C3138 1.349 . S
C3139 C3155 1.349 . S
C3140 C3138 1.327 . S
C3140 C3159 1.429 . S
C3140 H3164 0.950 . S
C3141 C3158 1.574 . S
C3141 C3160 1.368 . S
C3141 H3165 0.949 . S
H3142 C3146 0.949 . S
C3143 C3144 1.349 . S
C3143 C3145 1.327 . S
C3143 H3166 0.950 . S
C3144 C3143 1.349 . S
C3144 C3156 1.349 . S
C3145 C3143 1.327 . S
C3145 C3161 1.429 . S
C3145 H3167 0.950 . S
C3146 H3142 0.949 . S
C3146 C3154 1.574 . S
C3146 C3162 1.368 . S
H3147 C3155 0.950 . S
H3148 C3153 0.950 . S
H3149 C3154 0.949 . S
H3150 C3156 0.950 . S
H3151 C3157 0.950 . S
H3152 C3158 0.949 . S
C3153 H3148 0.950 . S
C3153 C3155 1.327 . S
C3153 C3159 1.429 . S
C3154 C3146 1.574 . S
C3154 H3149 0.949 . S
C3154 C3160 1.368 . S
C3155 C3139 1.349 . S
C3155 H3147 0.950 . S
C3155 C3153 1.327 . S
C3156 C3144 1.349 . S
C3156 H3150 0.950 . S
C3156 C3157 1.327 . S
C3157 H3151 0.950 . S
C3157 C3156 1.327 . S
C3157 C3161 1.429 . S
C3158 C3141 1.574 . S
C3158 H3152 0.949 . S
C3158 C3162 1.368 . S
C3159 C3140 1.429 . S
C3159 C3153 1.429 . S
C3159 C3160 1.523 . S
C3160 C3141 1.368 . S
C3160 C3154 1.368 . S
C3160 C3159 1.523 . S
C3161 C3145 1.429 . S
C3161 C3157 1.429 . S
C3161 C3162 1.523 . S
C3162 C3146 1.368 . S
C3162 C3158 1.368 . S
C3162 C3161 1.523 . S
H3163 C3138 0.950 . S
H3164 C3140 0.950 . S
H3165 C3141 0.949 . S
H3166 C3143 0.950 . S
H3167 C3145 0.950 . S
C3168 C3169 1.349 . S
C3168 C3170 1.327 . S
C3168 H3193 0.950 . S
C3169 C3168 1.349 . S
C3169 C3185 1.349 . S
C3170 C3168 1.327 . S
C3170 C3189 1.429 . S
C3170 H3194 0.950 . S
C3171 C3188 1.574 . S
C3171 C3190 1.368 . S
C3171 H3195 0.949 . S
H3172 C3176 0.949 . S
C3173 C3174 1.349 . S
C3173 C3175 1.327 . S
C3173 H3196 0.950 . S
C3174 C3173 1.349 . S
C3174 C3186 1.349 . S
C3175 C3173 1.327 . S
C3175 C3191 1.429 . S
C3175 H3197 0.950 . S
C3176 H3172 0.949 . S
C3176 C3184 1.574 . S
C3176 C3192 1.368 . S
H3177 C3185 0.950 . S
H3178 C3183 0.950 . S
H3179 C3184 0.949 . S
H3180 C3186 0.950 . S
H3181 C3187 0.950 . S
H3182 C3188 0.949 . S
C3183 H3178 0.950 . S
C3183 C3185 1.327 . S
C3183 C3189 1.429 . S
C3184 C3176 1.574 . S
C3184 H3179 0.949 . S
C3184 C3190 1.368 . S
C3185 C3169 1.349 . S
C3185 H3177 0.950 . S
C3185 C3183 1.327 . S
C3186 C3174 1.349 . S
C3186 H3180 0.950 . S
C3186 C3187 1.327 . S
C3187 H3181 0.950 . S
C3187 C3186 1.327 . S
C3187 C3191 1.429 . S
C3188 C3171 1.574 . S
C3188 H3182 0.949 . S
C3188 C3192 1.368 . S
C3189 C3170 1.429 . S
C3189 C3183 1.429 . S
C3189 C3190 1.523 . S
C3190 C3171 1.368 . S
C3190 C3184 1.368 . S
C3190 C3189 1.523 . S
C3191 C3175 1.429 . S
C3191 C3187 1.429 . S
C3191 C3192 1.523 . S
C3192 C3176 1.368 . S
C3192 C3188 1.368 . S
C3192 C3191 1.523 . S
H3193 C3168 0.950 . S
H3194 C3170 0.950 . S
H3195 C3171 0.949 . S
H3196 C3173 0.950 . S
H3197 C3175 0.950 . S
C3198 C3199 1.349 . S
C3198 C3200 1.327 . S
C3198 H3223 0.950 . S
C3199 C3198 1.349 . S
C3199 C3215 1.349 . S
C3200 C3198 1.327 . S
C3200 C3219 1.429 . S
C3200 H3224 0.950 . S
C3201 C3218 1.574 . S
C3201 C3220 1.368 . S
C3201 H3225 0.949 . S
H3202 C3206 0.949 . S
C3203 C3204 1.349 . S
C3203 C3205 1.327 . S
C3203 H3226 0.950 . S
C3204 C3203 1.349 . S
C3204 C3216 1.349 . S
C3205 C3203 1.327 . S
C3205 C3221 1.429 . S
C3205 H3227 0.950 . S
C3206 H3202 0.949 . S
C3206 C3214 1.574 . S
C3206 C3222 1.368 . S
H3207 C3215 0.950 . S
H3208 C3213 0.950 . S
H3209 C3214 0.949 . S
H3210 C3216 0.950 . S
H3211 C3217 0.950 . S
H3212 C3218 0.949 . S
C3213 H3208 0.950 . S
C3213 C3215 1.327 . S
C3213 C3219 1.429 . S
C3214 C3206 1.574 . S
C3214 H3209 0.949 . S
C3214 C3220 1.368 . S
C3215 C3199 1.349 . S
C3215 H3207 0.950 . S
C3215 C3213 1.327 . S
C3216 C3204 1.349 . S
C3216 H3210 0.950 . S
C3216 C3217 1.327 . S
C3217 H3211 0.950 . S
C3217 C3216 1.327 . S
C3217 C3221 1.429 . S
C3218 C3201 1.574 . S
C3218 H3212 0.949 . S
C3218 C3222 1.368 . S
C3219 C3200 1.429 . S
C3219 C3213 1.429 . S
C3219 C3220 1.523 . S
C3220 C3201 1.368 . S
C3220 C3214 1.368 . S
C3220 C3219 1.523 . S
C3221 C3205 1.429 . S
C3221 C3217 1.429 . S
C3221 C3222 1.523 . S
C3222 C3206 1.368 . S
C3222 C3218 1.368 . S
C3222 C3221 1.523 . S
H3223 C3198 0.950 . S
H3224 C3200 0.950 . S
H3225 C3201 0.949 . S
H3226 C3203 0.950 . S
H3227 C3205 0.950 . S
C3228 C3229 1.349 . S
C3228 C3230 1.327 . S
C3228 H3253 0.950 . S
C3229 C3228 1.349 . S
C3229 C3245 1.349 . S
C3230 C3228 1.327 . S
C3230 C3249 1.429 . S
C3230 H3254 0.950 . S
C3231 C3248 1.574 . S
C3231 C3250 1.368 . S
C3231 H3255 0.949 . S
H3232 C3236 0.949 . S
C3233 C3234 1.349 . S
C3233 C3235 1.327 . S
C3233 H3256 0.950 . S
C3234 C3233 1.349 . S
C3234 C3246 1.349 . S
C3235 C3233 1.327 . S
C3235 C3251 1.429 . S
C3235 H3257 0.950 . S
C3236 H3232 0.949 . S
C3236 C3244 1.574 . S
C3236 C3252 1.368 . S
H3237 C3245 0.950 . S
H3238 C3243 0.950 . S
H3239 C3244 0.949 . S
H3240 C3246 0.950 . S
H3241 C3247 0.950 . S
H3242 C3248 0.949 . S
C3243 H3238 0.950 . S
C3243 C3245 1.327 . S
C3243 C3249 1.429 . S
C3244 C3236 1.574 . S
C3244 H3239 0.949 . S
C3244 C3250 1.368 . S
C3245 C3229 1.349 . S
C3245 H3237 0.950 . S
C3245 C3243 1.327 . S
C3246 C3234 1.349 . S
C3246 H3240 0.950 . S
C3246 C3247 1.327 . S
C3247 H3241 0.950 . S
C3247 C3246 1.327 . S
C3247 C3251 1.429 . S
C3248 C3231 1.574 . S
C3248 H3242 0.949 . S
C3248 C3252 1.368 . S
C3249 C3230 1.429 . S
C3249 C3243 1.429 . S
C3249 C3250 1.523 . S
C3250 C3231 1.368 . S
C3250 C3244 1.368 . S
C3250 C3249 1.523 . S
C3251 C3235 1.429 . S
C3251 C3247 1.429 . S
C3251 C3252 1.523 . S
C3252 C3236 1.368 . S
C3252 C3248 1.368 . S
C3252 C3251 1.523 . S
H3253 C3228 0.950 . S
H3254 C3230 0.950 . S
H3255 C3231 0.949 . S
H3256 C3233 0.950 . S
H3257 C3235 0.950 . S
C3258 C3259 1.349 . S
C3258 C3260 1.327 . S
C3258 H3283 0.950 . S
C3259 C3258 1.349 . S
C3259 C3275 1.349 . S
C3260 C3258 1.327 . S
C3260 C3279 1.429 . S
C3260 H3284 0.950 . S
C3261 C3278 1.574 . S
C3261 C3280 1.368 . S
C3261 H3285 0.949 . S
H3262 C3266 0.949 . S
C3263 C3264 1.349 . S
C3263 C3265 1.327 . S
C3263 H3286 0.950 . S
C3264 C3263 1.349 . S
C3264 C3276 1.349 . S
C3265 C3263 1.327 . S
C3265 C3281 1.429 . S
C3265 H3287 0.950 . S
C3266 H3262 0.949 . S
C3266 C3274 1.574 . S
C3266 C3282 1.368 . S
H3267 C3275 0.950 . S
H3268 C3273 0.950 . S
H3269 C3274 0.949 . S
H3270 C3276 0.950 . S
H3271 C3277 0.950 . S
H3272 C3278 0.949 . S
C3273 H3268 0.950 . S
C3273 C3275 1.327 . S
C3273 C3279 1.429 . S
C3274 C3266 1.574 . S
C3274 H3269 0.949 . S
C3274 C3280 1.368 . S
C3275 C3259 1.349 . S
C3275 H3267 0.950 . S
C3275 C3273 1.327 . S
C3276 C3264 1.349 . S
C3276 H3270 0.950 . S
C3276 C3277 1.327 . S
C3277 H3271 0.950 . S
C3277 C3276 1.327 . S
C3277 C3281 1.429 . S
C3278 C3261 1.574 . S
C3278 H3272 0.949 . S
C3278 C3282 1.368 . S
C3279 C3260 1.429 . S
C3279 C3273 1.429 . S
C3279 C3280 1.523 . S
C3280 C3261 1.368 . S
C3280 C3274 1.368 . S
C3280 C3279 1.523 . S
C3281 C3265 1.429 . S
C3281 C3277 1.429 . S
C3281 C3282 1.523 . S
C3282 C3266 1.368 . S
C3282 C3278 1.368 . S
C3282 C3281 1.523 . S
H3283 C3258 0.950 . S
H3284 C3260 0.950 . S
H3285 C3261 0.949 . S
H3286 C3263 0.950 . S
H3287 C3265 0.950 . S
C3288 C3289 1.349 . S
C3288 C3290 1.327 . S
C3288 H3313 0.950 . S
C3289 C3288 1.349 . S
C3289 C3305 1.349 . S
C3290 C3288 1.327 . S
C3290 C3309 1.429 . S
C3290 H3314 0.950 . S
C3291 C3308 1.574 . S
C3291 C3310 1.368 . S
C3291 H3315 0.949 . S
H3292 C3296 0.949 . S
C3293 C3294 1.349 . S
C3293 C3295 1.327 . S
C3293 H3316 0.950 . S
C3294 C3293 1.349 . S
C3294 C3306 1.349 . S
C3295 C3293 1.327 . S
C3295 C3311 1.429 . S
C3295 H3317 0.950 . S
C3296 H3292 0.949 . S
C3296 C3304 1.574 . S
C3296 C3312 1.368 . S
H3297 C3305 0.950 . S
H3298 C3303 0.950 . S
H3299 C3304 0.949 . S
H3300 C3306 0.950 . S
H3301 C3307 0.950 . S
H3302 C3308 0.949 . S
C3303 H3298 0.950 . S
C3303 C3305 1.327 . S
C3303 C3309 1.429 . S
C3304 C3296 1.574 . S
C3304 H3299 0.949 . S
C3304 C3310 1.368 . S
C3305 C3289 1.349 . S
C3305 H3297 0.950 . S
C3305 C3303 1.327 . S
C3306 C3294 1.349 . S
C3306 H3300 0.950 . S
C3306 C3307 1.327 . S
C3307 H3301 0.950 . S
C3307 C3306 1.327 . S
C3307 C3311 1.429 . S
C3308 C3291 1.574 . S
C3308 H3302 0.949 . S
C3308 C3312 1.368 . S
C3309 C3290 1.429 . S
C3309 C3303 1.429 . S
C3309 C3310 1.523 . S
C3310 C3291 1.368 . S
C3310 C3304 1.368 . S
C3310 C3309 1.523 . S
C3311 C3295 1.429 . S
C3311 C3307 1.429 . S
C3311 C3312 1.523 . S
C3312 C3296 1.368 . S
C3312 C3308 1.368 . S
C3312 C3311 1.523 . S
H3313 C3288 0.950 . S
H3314 C3290 0.950 . S
H3315 C3291 0.949 . S
H3316 C3293 0.950 . S
H3317 C3295 0.950 . S
C3318 C3319 1.349 . S
C3318 C3320 1.327 . S
C3318 H3343 0.950 . S
C3319 C3318 1.349 . S
C3319 C3335 1.349 . S
C3320 C3318 1.327 . S
C3320 C3339 1.429 . S
C3320 H3344 0.950 . S
C3321 C3338 1.574 . S
C3321 C3340 1.368 . S
C3321 H3345 0.949 . S
H3322 C3326 0.949 . S
C3323 C3324 1.349 . S
C3323 C3325 1.327 . S
C3323 H3346 0.950 . S
C3324 C3323 1.349 . S
C3324 C3336 1.349 . S
C3325 C3323 1.327 . S
C3325 C3341 1.429 . S
C3325 H3347 0.950 . S
C3326 H3322 0.949 . S
C3326 C3334 1.574 . S
C3326 C3342 1.368 . S
H3327 C3335 0.950 . S
H3328 C3333 0.950 . S
H3329 C3334 0.949 . S
H3330 C3336 0.950 . S
H3331 C3337 0.950 . S
H3332 C3338 0.949 . S
C3333 H3328 0.950 . S
C3333 C3335 1.327 . S
C3333 C3339 1.429 . S
C3334 C3326 1.574 . S
C3334 H3329 0.949 . S
C3334 C3340 1.368 . S
C3335 C3319 1.349 . S
C3335 H3327 0.950 . S
C3335 C3333 1.327 . S
C3336 C3324 1.349 . S
C3336 H3330 0.950 . S
C3336 C3337 1.327 . S
C3337 H3331 0.950 . S
C3337 C3336 1.327 . S
C3337 C3341 1.429 . S
C3338 C3321 1.574 . S
C3338 H3332 0.949 . S
C3338 C3342 1.368 . S
C3339 C3320 1.429 . S
C3339 C3333 1.429 . S
C3339 C3340 1.523 . S
C3340 C3321 1.368 . S
C3340 C3334 1.368 . S
C3340 C3339 1.523 . S
C3341 C3325 1.429 . S
C3341 C3337 1.429 . S
C3341 C3342 1.523 . S
C3342 C3326 1.368 . S
C3342 C3338 1.368 . S
C3342 C3341 1.523 . S
H3343 C3318 0.950 . S
H3344 C3320 0.950 . S
H3345 C3321 0.949 . S
H3346 C3323 0.950 . S
H3347 C3325 0.950 . S
C3348 C3349 1.349 . S
C3348 C3350 1.327 . S
C3348 H3373 0.950 . S
C3349 C3348 1.349 . S
C3349 C3365 1.349 . S
C3350 C3348 1.327 . S
C3350 C3369 1.429 . S
C3350 H3374 0.950 . S
C3351 C3368 1.574 . S
C3351 C3370 1.368 . S
C3351 H3375 0.949 . S
H3352 C3356 0.949 . S
C3353 C3354 1.349 . S
C3353 C3355 1.327 . S
C3353 H3376 0.950 . S
C3354 C3353 1.349 . S
C3354 C3366 1.349 . S
C3355 C3353 1.327 . S
C3355 C3371 1.429 . S
C3355 H3377 0.950 . S
C3356 H3352 0.949 . S
C3356 C3364 1.574 . S
C3356 C3372 1.368 . S
H3357 C3365 0.950 . S
H3358 C3363 0.950 . S
H3359 C3364 0.949 . S
H3360 C3366 0.950 . S
H3361 C3367 0.950 . S
H3362 C3368 0.949 . S
C3363 H3358 0.950 . S
C3363 C3365 1.327 . S
C3363 C3369 1.429 . S
C3364 C3356 1.574 . S
C3364 H3359 0.949 . S
C3364 C3370 1.368 . S
C3365 C3349 1.349 . S
C3365 H3357 0.950 . S
C3365 C3363 1.327 . S
C3366 C3354 1.349 . S
C3366 H3360 0.950 . S
C3366 C3367 1.327 . S
C3367 H3361 0.950 . S
C3367 C3366 1.327 . S
C3367 C3371 1.429 . S
C3368 C3351 1.574 . S
C3368 H3362 0.949 . S
C3368 C3372 1.368 . S
C3369 C3350 1.429 . S
C3369 C3363 1.429 . S
C3369 C3370 1.523 . S
C3370 C3351 1.368 . S
C3370 C3364 1.368 . S
C3370 C3369 1.523 . S
C3371 C3355 1.429 . S
C3371 C3367 1.429 . S
C3371 C3372 1.523 . S
C3372 C3356 1.368 . S
C3372 C3368 1.368 . S
C3372 C3371 1.523 . S
H3373 C3348 0.950 . S
H3374 C3350 0.950 . S
H3375 C3351 0.949 . S
H3376 C3353 0.950 . S
H3377 C3355 0.950 . S
C3378 C3379 1.349 . S
C3378 C3380 1.327 . S
C3378 H3403 0.950 . S
C3379 C3378 1.349 . S
C3379 C3395 1.349 . S
C3380 C3378 1.327 . S
C3380 C3399 1.429 . S
C3380 H3404 0.950 . S
C3381 C3398 1.574 . S
C3381 C3400 1.368 . S
C3381 H3405 0.949 . S
H3382 C3386 0.949 . S
C3383 C3384 1.349 . S
C3383 C3385 1.327 . S
C3383 H3406 0.950 . S
C3384 C3383 1.349 . S
C3384 C3396 1.349 . S
C3385 C3383 1.327 . S
C3385 C3401 1.429 . S
C3385 H3407 0.950 . S
C3386 H3382 0.949 . S
C3386 C3394 1.574 . S
C3386 C3402 1.368 . S
H3387 C3395 0.950 . S
H3388 C3393 0.950 . S
H3389 C3394 0.949 . S
H3390 C3396 0.950 . S
H3391 C3397 0.950 . S
H3392 C3398 0.949 . S
C3393 H3388 0.950 . S
C3393 C3395 1.327 . S
C3393 C3399 1.429 . S
C3394 C3386 1.574 . S
C3394 H3389 0.949 . S
C3394 C3400 1.368 . S
C3395 C3379 1.349 . S
C3395 H3387 0.950 . S
C3395 C3393 1.327 . S
C3396 C3384 1.349 . S
C3396 H3390 0.950 . S
C3396 C3397 1.327 . S
C3397 H3391 0.950 . S
C3397 C3396 1.327 . S
C3397 C3401 1.429 . S
C3398 C3381 1.574 . S
C3398 H3392 0.949 . S
C3398 C3402 1.368 . S
C3399 C3380 1.429 . S
C3399 C3393 1.429 . S
C3399 C3400 1.523 . S
C3400 C3381 1.368 . S
C3400 C3394 1.368 . S
C3400 C3399 1.523 . S
C3401 C3385 1.429 . S
C3401 C3397 1.429 . S
C3401 C3402 1.523 . S
C3402 C3386 1.368 . S
C3402 C3398 1.368 . S
C3402 C3401 1.523 . S
H3403 C3378 0.950 . S
H3404 C3380 0.950 . S
H3405 C3381 0.949 . S
H3406 C3383 0.950 . S
H3407 C3385 0.950 . S
C3408 C3409 1.349 . S
C3408 C3410 1.327 . S
C3408 H3433 0.950 . S
C3409 C3408 1.349 . S
C3409 C3425 1.349 . S
C3410 C3408 1.327 . S
C3410 C3429 1.429 . S
C3410 H3434 0.950 . S
C3411 C3428 1.574 . S
C3411 C3430 1.368 . S
C3411 H3435 0.949 . S
H3412 C3416 0.949 . S
C3413 C3414 1.349 . S
C3413 C3415 1.327 . S
C3413 H3436 0.950 . S
C3414 C3413 1.349 . S
C3414 C3426 1.349 . S
C3415 C3413 1.327 . S
C3415 C3431 1.429 . S
C3415 H3437 0.950 . S
C3416 H3412 0.949 . S
C3416 C3424 1.574 . S
C3416 C3432 1.368 . S
H3417 C3425 0.950 . S
H3418 C3423 0.950 . S
H3419 C3424 0.949 . S
H3420 C3426 0.950 . S
H3421 C3427 0.950 . S
H3422 C3428 0.949 . S
C3423 H3418 0.950 . S
C3423 C3425 1.327 . S
C3423 C3429 1.429 . S
C3424 C3416 1.574 . S
C3424 H3419 0.949 . S
C3424 C3430 1.368 . S
C3425 C3409 1.349 . S
C3425 H3417 0.950 . S
C3425 C3423 1.327 . S
C3426 C3414 1.349 . S
C3426 H3420 0.950 . S
C3426 C3427 1.327 . S
C3427 H3421 0.950 . S
C3427 C3426 1.327 . S
C3427 C3431 1.429 . S
C3428 C3411 1.574 . S
C3428 H3422 0.949 . S
C3428 C3432 1.368 . S
C3429 C3410 1.429 . S
C3429 C3423 1.429 . S
C3429 C3430 1.523 . S
C3430 C3411 1.368 . S
C3430 C3424 1.368 . S
C3430 C3429 1.523 . S
C3431 C3415 1.429 . S
C3431 C3427 1.429 . S
C3431 C3432 1.523 . S
C3432 C3416 1.368 . S
C3432 C3428 1.368 . S
C3432 C3431 1.523 . S
H3433 C3408 0.950 . S
H3434 C3410 0.950 . S
H3435 C3411 0.949 . S
H3436 C3413 0.950 . S
H3437 C3415 0.950 . S
C3438 C3439 1.349 . S
C3438 C3440 1.327 . S
C3438 H3463 0.950 . S
C3439 C3438 1.349 . S
C3439 C3455 1.349 . S
C3440 C3438 1.327 . S
C3440 C3459 1.429 . S
C3440 H3464 0.950 . S
C3441 C3458 1.574 . S
C3441 C3460 1.368 . S
C3441 H3465 0.949 . S
H3442 C3446 0.949 . S
C3443 C3444 1.349 . S
C3443 C3445 1.327 . S
C3443 H3466 0.950 . S
C3444 C3443 1.349 . S
C3444 C3456 1.349 . S
C3445 C3443 1.327 . S
C3445 C3461 1.429 . S
C3445 H3467 0.950 . S
C3446 H3442 0.949 . S
C3446 C3454 1.574 . S
C3446 C3462 1.368 . S
H3447 C3455 0.950 . S
H3448 C3453 0.950 . S
H3449 C3454 0.949 . S
H3450 C3456 0.950 . S
H3451 C3457 0.950 . S
H3452 C3458 0.949 . S
C3453 H3448 0.950 . S
C3453 C3455 1.327 . S
C3453 C3459 1.429 . S
C3454 C3446 1.574 . S
C3454 H3449 0.949 . S
C3454 C3460 1.368 . S
C3455 C3439 1.349 . S
C3455 H3447 0.950 . S
C3455 C3453 1.327 . S
C3456 C3444 1.349 . S
C3456 H3450 0.950 . S
C3456 C3457 1.327 . S
C3457 H3451 0.950 . S
C3457 C3456 1.327 . S
C3457 C3461 1.429 . S
C3458 C3441 1.574 . S
C3458 H3452 0.949 . S
C3458 C3462 1.368 . S
C3459 C3440 1.429 . S
C3459 C3453 1.429 . S
C3459 C3460 1.523 . S
C3460 C3441 1.368 . S
C3460 C3454 1.368 . S
C3460 C3459 1.523 . S
C3461 C3445 1.429 . S
C3461 C3457 1.429 . S
C3461 C3462 1.523 . S
C3462 C3446 1.368 . S
C3462 C3458 1.368 . S
C3462 C3461 1.523 . S
H3463 C3438 0.950 . S
H3464 C3440 0.950 . S
H3465 C3441 0.949 . S
H3466 C3443 0.950 . S
H3467 C3445 0.950 . S
C3468 C3469 1.349 . S
C3468 C3470 1.327 . S
C3468 H3493 0.950 . S
C3469 C3468 1.349 . S
C3469 C3485 1.349 . S
C3470 C3468 1.327 . S
C3470 C3489 1.429 . S
C3470 H3494 0.950 . S
C3471 C3488 1.574 . S
C3471 C3490 1.368 . S
C3471 H3495 0.949 . S
H3472 C3476 0.949 . S
C3473 C3474 1.349 . S
C3473 C3475 1.327 . S
C3473 H3496 0.950 . S
C3474 C3473 1.349 . S
C3474 C3486 1.349 . S
C3475 C3473 1.327 . S
C3475 C3491 1.429 . S
C3475 H3497 0.950 . S
C3476 H3472 0.949 . S
C3476 C3484 1.574 . S
C3476 C3492 1.368 . S
H3477 C3485 0.950 . S
H3478 C3483 0.950 . S
H3479 C3484 0.949 . S
H3480 C3486 0.950 . S
H3481 C3487 0.950 . S
H3482 C3488 0.949 . S
C3483 H3478 0.950 . S
C3483 C3485 1.327 . S
C3483 C3489 1.429 . S
C3484 C3476 1.574 . S
C3484 H3479 0.949 . S
C3484 C3490 1.368 . S
C3485 C3469 1.349 . S
C3485 H3477 0.950 . S
C3485 C3483 1.327 . S
C3486 C3474 1.349 . S
C3486 H3480 0.950 . S
C3486 C3487 1.327 . S
C3487 H3481 0.950 . S
C3487 C3486 1.327 . S
C3487 C3491 1.429 . S
C3488 C3471 1.574 . S
C3488 H3482 0.949 . S
C3488 C3492 1.368 . S
C3489 C3470 1.429 . S
C3489 C3483 1.429 . S
C3489 C3490 1.523 . S
C3490 C3471 1.368 . S
C3490 C3484 1.368 . S
C3490 C3489 1.523 . S
C3491 C3475 1.429 . S
C3491 C3487 1.429 . S
C3491 C3492 1.523 . S
C3492 C3476 1.368 . S
C3492 C3488 1.368 . S
C3492 C3491 1.523 . S
H3493 C3468 0.950 . S
H3494 C3470 0.950 . S
H3495 C3471 0.949 . S
H3496 C3473 0.950 . S
H3497 C3475 0.950 . S
C3498 C3499 1.349 . S
C3498 C3500 1.327 . S
C3498 H3523 0.950 . S
C3499 C3498 1.349 . S
C3499 C3515 1.349 . S
C3500 C3498 1.327 . S
C3500 C3519 1.429 . S
C3500 H3524 0.950 . S
C3501 C3518 1.574 . S
C3501 C3520 1.368 . S
C3501 H3525 0.949 . S
H3502 C3506 0.949 . S
C3503 C3504 1.349 . S
C3503 C3505 1.327 . S
C3503 H3526 0.950 . S
C3504 C3503 1.349 . S
C3504 C3516 1.349 . S
C3505 C3503 1.327 . S
C3505 C3521 1.429 . S
C3505 H3527 0.950 . S
C3506 H3502 0.949 . S
C3506 C3514 1.574 . S
C3506 C3522 1.368 . S
H3507 C3515 0.950 . S
H3508 C3513 0.950 . S
H3509 C3514 0.949 . S
H3510 C3516 0.950 . S
H3511 C3517 0.950 . S
H3512 C3518 0.949 . S
C3513 H3508 0.950 . S
C3513 C3515 1.327 . S
C3513 C3519 1.429 . S
C3514 C3506 1.574 . S
C3514 H3509 0.949 . S
C3514 C3520 1.368 . S
C3515 C3499 1.349 . S
C3515 H3507 0.950 . S
C3515 C3513 1.327 . S
C3516 C3504 1.349 . S
C3516 H3510 0.950 . S
C3516 C3517 1.327 . S
C3517 H3511 0.950 . S
C3517 C3516 1.327 . S
C3517 C3521 1.429 . S
C3518 C3501 1.574 . S
C3518 H3512 0.949 . S
C3518 C3522 1.368 . S
C3519 C3500 1.429 . S
C3519 C3513 1.429 . S
C3519 C3520 1.523 . S
C3520 C3501 1.368 . S
C3520 C3514 1.368 . S
C3520 C3519 1.523 . S
C3521 C3505 1.429 . S
C3521 C3517 1.429 . S
C3521 C3522 1.523 . S
C3522 C3506 1.368 . S
C3522 C3518 1.368 . S
C3522 C3521 1.523 . S
H3523 C3498 0.950 . S
H3524 C3500 0.950 . S
H3525 C3501 0.949 . S
H3526 C3503 0.950 . S
H3527 C3505 0.950 . S
C3528 C3529 1.349 . S
C3528 C3530 1.327 . S
C3528 H3553 0.950 . S
C3529 C3528 1.349 . S
C3529 C3545 1.349 . S
C3530 C3528 1.327 . S
C3530 C3549 1.429 . S
C3530 H3554 0.950 . S
C3531 C3548 1.574 . S
C3531 C3550 1.368 . S
C3531 H3555 0.949 . S
H3532 C3536 0.949 . S
C3533 C3534 1.349 . S
C3533 C3535 1.327 . S
C3533 H3556 0.950 . S
C3534 C3533 1.349 . S
C3534 C3546 1.349 . S
C3535 C3533 1.327 . S
C3535 C3551 1.429 . S
C3535 H3557 0.950 . S
C3536 H3532 0.949 . S
C3536 C3544 1.574 . S
C3536 C3552 1.368 . S
H3537 C3545 0.950 . S
H3538 C3543 0.950 . S
H3539 C3544 0.949 . S
H3540 C3546 0.950 . S
H3541 C3547 0.950 . S
H3542 C3548 0.949 . S
C3543 H3538 0.950 . S
C3543 C3545 1.327 . S
C3543 C3549 1.429 . S
C3544 C3536 1.574 . S
C3544 H3539 0.949 . S
C3544 C3550 1.368 . S
C3545 C3529 1.349 . S
C3545 H3537 0.950 . S
C3545 C3543 1.327 . S
C3546 C3534 1.349 . S
C3546 H3540 0.950 . S
C3546 C3547 1.327 . S
C3547 H3541 0.950 . S
C3547 C3546 1.327 . S
C3547 C3551 1.429 . S
C3548 C3531 1.574 . S
C3548 H3542 0.949 . S
C3548 C3552 1.368 . S
C3549 C3530 1.429 . S
C3549 C3543 1.429 . S
C3549 C3550 1.523 . S
C3550 C3531 1.368 . S
C3550 C3544 1.368 . S
C3550 C3549 1.523 . S
C3551 C3535 1.429 . S
C3551 C3547 1.429 . S
C3551 C3552 1.523 . S
C3552 C3536 1.368 . S
C3552 C3548 1.368 . S
C3552 C3551 1.523 . S
H3553 C3528 0.950 . S
H3554 C3530 0.950 . S
H3555 C3531 0.949 . S
H3556 C3533 0.950 . S
H3557 C3535 0.950 . S
C3558 C3559 1.349 . S
C3558 C3560 1.327 . S
C3558 H3583 0.950 . S
C3559 C3558 1.349 . S
C3559 C3575 1.349 . S
C3560 C3558 1.327 . S
C3560 C3579 1.429 . S
C3560 H3584 0.950 . S
C3561 C3578 1.574 . S
C3561 C3580 1.368 . S
C3561 H3585 0.949 . S
H3562 C3566 0.949 . S
C3563 C3564 1.349 . S
C3563 C3565 1.327 . S
C3563 H3586 0.950 . S
C3564 C3563 1.349 . S
C3564 C3576 1.349 . S
C3565 C3563 1.327 . S
C3565 C3581 1.429 . S
C3565 H3587 0.950 . S
C3566 H3562 0.949 . S
C3566 C3574 1.574 . S
C3566 C3582 1.368 . S
H3567 C3575 0.950 . S
H3568 C3573 0.950 . S
H3569 C3574 0.949 . S
H3570 C3576 0.950 . S
H3571 C3577 0.950 . S
H3572 C3578 0.949 . S
C3573 H3568 0.950 . S
C3573 C3575 1.327 . S
C3573 C3579 1.429 . S
C3574 C3566 1.574 . S
C3574 H3569 0.949 . S
C3574 C3580 1.368 . S
C3575 C3559 1.349 . S
C3575 H3567 0.950 . S
C3575 C3573 1.327 . S
C3576 C3564 1.349 . S
C3576 H3570 0.950 . S
C3576 C3577 1.327 . S
C3577 H3571 0.950 . S
C3577 C3576 1.327 . S
C3577 C3581 1.429 . S
C3578 C3561 1.574 . S
C3578 H3572 0.949 . S
C3578 C3582 1.368 . S
C3579 C3560 1.429 . S
C3579 C3573 1.429 . S
C3579 C3580 1.523 . S
C3580 C3561 1.368 . S
C3580 C3574 1.368 . S
C3580 C3579 1.523 . S
C3581 C3565 1.429 . S
C3581 C3577 1.429 . S
C3581 C3582 1.523 . S
C3582 C3566 1.368 . S
C3582 C3578 1.368 . S
C3582 C3581 1.523 . S
H3583 C3558 0.950 . S
H3584 C3560 0.950 . S
H3585 C3561 0.949 . S
H3586 C3563 0.950 . S
H3587 C3565 0.950 . S
C3588 C3589 1.349 . S
C3588 C3590 1.327 . S
C3588 H3613 0.950 . S
C3589 C3588 1.349 . S
C3589 C3605 1.349 . S
C3590 C3588 1.327 . S
C3590 C3609 1.429 . S
C3590 H3614 0.950 . S
C3591 C3608 1.574 . S
C3591 C3610 1.368 . S
C3591 H3615 0.949 . S
H3592 C3596 0.949 . S
C3593 C3594 1.349 . S
C3593 C3595 1.327 . S
C3593 H3616 0.950 . S
C3594 C3593 1.349 . S
C3594 C3606 1.349 . S
C3595 C3593 1.327 . S
C3595 C3611 1.429 . S
C3595 H3617 0.950 . S
C3596 H3592 0.949 . S
C3596 C3604 1.574 . S
C3596 C3612 1.368 . S
H3597 C3605 0.950 . S
H3598 C3603 0.950 . S
H3599 C3604 0.949 . S
H3600 C3606 0.950 . S
H3601 C3607 0.950 . S
H3602 C3608 0.949 . S
C3603 H3598 0.950 . S
C3603 C3605 1.327 . S
C3603 C3609 1.429 . S
C3604 C3596 1.574 . S
C3604 H3599 0.949 . S
C3604 C3610 1.368 . S
C3605 C3589 1.349 . S
C3605 H3597 0.950 . S
C3605 C3603 1.327 . S
C3606 C3594 1.349 . S
C3606 H3600 0.950 . S
C3606 C3607 1.327 . S
C3607 H3601 0.950 . S
C3607 C3606 1.327 . S
C3607 C3611 1.429 . S
C3608 C3591 1.574 . S
C3608 H3602 0.949 . S
C3608 C3612 1.368 . S
C3609 C3590 1.429 . S
C3609 C3603 1.429 . S
C3609 C3610 1.523 . S
C3610 C3591 1.368 . S
C3610 C3604 1.368 . S
C3610 C3609 1.523 . S
C3611 C3595 1.429 . S
C3611 C3607 1.429 . S
C3611 C3612 1.523 . S
C3612 C3596 1.368 . S
C3612 C3608 1.368 . S
C3612 C3611 1.523 . S
H3613 C3588 0.950 . S
H3614 C3590 0.950 . S
H3615 C3591 0.949 . S
H3616 C3593 0.950 . S
H3617 C3595 0.950 . S
C3618 C3619 1.349 . S
C3618 C3620 1.327 . S
C3618 H3643 0.950 . S
C3619 C3618 1.349 . S
C3619 C3635 1.349 . S
C3620 C3618 1.327 . S
C3620 C3639 1.429 . S
C3620 H3644 0.950 . S
C3621 C3638 1.574 . S
C3621 C3640 1.368 . S
C3621 H3645 0.949 . S
H3622 C3626 0.949 . S
C3623 C3624 1.349 . S
C3623 C3625 1.327 . S
C3623 H3646 0.950 . S
C3624 C3623 1.349 . S
C3624 C3636 1.349 . S
C3625 C3623 1.327 . S
C3625 C3641 1.429 . S
C3625 H3647 0.950 . S
C3626 H3622 0.949 . S
C3626 C3634 1.574 . S
C3626 C3642 1.368 . S
H3627 C3635 0.950 . S
H3628 C3633 0.950 . S
H3629 C3634 0.949 . S
H3630 C3636 0.950 . S
H3631 C3637 0.950 . S
H3632 C3638 0.949 . S
C3633 H3628 0.950 . S
C3633 C3635 1.327 . S
C3633 C3639 1.429 . S
C3634 C3626 1.574 . S
C3634 H3629 0.949 . S
C3634 C3640 1.368 . S
C3635 C3619 1.349 . S
C3635 H3627 0.950 . S
C3635 C3633 1.327 . S
C3636 C3624 1.349 . S
C3636 H3630 0.950 . S
C3636 C3637 1.327 . S
C3637 H3631 0.950 . S
C3637 C3636 1.327 . S
C3637 C3641 1.429 . S
C3638 C3621 1.574 . S
C3638 H3632 0.949 . S
C3638 C3642 1.368 . S
C3639 C3620 1.429 . S
C3639 C3633 1.429 . S
C3639 C3640 1.523 . S
C3640 C3621 1.368 . S
C3640 C3634 1.368 . S
C3640 C3639 1.523 . S
C3641 C3625 1.429 . S
C3641 C3637 1.429 . S
C3641 C3642 1.523 . S
C3642 C3626 1.368 . S
C3642 C3638 1.368 . S
C3642 C3641 1.523 . S
H3643 C3618 0.950 . S
H3644 C3620 0.950 . S
H3645 C3621 0.949 . S
H3646 C3623 0.950 . S
H3647 C3625 0.950 . S
C3648 C3649 1.349 . S
C3648 C3650 1.327 . S
C3648 H3673 0.950 . S
C3649 C3648 1.349 . S
C3649 C3665 1.349 . S
C3650 C3648 1.327 . S
C3650 C3669 1.429 . S
C3650 H3674 0.950 . S
C3651 C3668 1.574 . S
C3651 C3670 1.368 . S
C3651 H3675 0.949 . S
H3652 C3656 0.949 . S
C3653 C3654 1.349 . S
C3653 C3655 1.327 . S
C3653 H3676 0.950 . S
C3654 C3653 1.349 . S
C3654 C3666 1.349 . S
C3655 C3653 1.327 . S
C3655 C3671 1.429 . S
C3655 H3677 0.950 . S
C3656 H3652 0.949 . S
C3656 C3664 1.574 . S
C3656 C3672 1.368 . S
H3657 C3665 0.950 . S
H3658 C3663 0.950 . S
H3659 C3664 0.949 . S
H3660 C3666 0.950 . S
H3661 C3667 0.950 . S
H3662 C3668 0.949 . S
C3663 H3658 0.950 . S
C3663 C3665 1.327 . S
C3663 C3669 1.429 . S
C3664 C3656 1.574 . S
C3664 H3659 0.949 . S
C3664 C3670 1.368 . S
C3665 C3649 1.349 . S
C3665 H3657 0.950 . S
C3665 C3663 1.327 . S
C3666 C3654 1.349 . S
C3666 H3660 0.950 . S
C3666 C3667 1.327 . S
C3667 H3661 0.950 . S
C3667 C3666 1.327 . S
C3667 C3671 1.429 . S
C3668 C3651 1.574 . S
C3668 H3662 0.949 . S
C3668 C3672 1.368 . S
C3669 C3650 1.429 . S
C3669 C3663 1.429 . S
C3669 C3670 1.523 . S
C3670 C3651 1.368 . S
C3670 C3664 1.368 . S
C3670 C3669 1.523 . S
C3671 C3655 1.429 . S
C3671 C3667 1.429 . S
C3671 C3672 1.523 . S
C3672 C3656 1.368 . S
C3672 C3668 1.368 . S
C3672 C3671 1.523 . S
H3673 C3648 0.950 . S
H3674 C3650 0.950 . S
H3675 C3651 0.949 . S
H3676 C3653 0.950 . S
H3677 C3655 0.950 . S
C3678 C3679 1.349 . S
C3678 C3680 1.327 . S
C3678 H3703 0.950 . S
C3679 C3678 1.349 . S
C3679 C3695 1.349 . S
C3680 C3678 1.327 . S
C3680 C3699 1.429 . S
C3680 H3704 0.950 . S
C3681 C3698 1.574 . S
C3681 C3700 1.368 . S
C3681 H3705 0.949 . S
H3682 C3686 0.949 . S
C3683 C3684 1.349 . S
C3683 C3685 1.327 . S
C3683 H3706 0.950 . S
C3684 C3683 1.349 . S
C3684 C3696 1.349 . S
C3685 C3683 1.327 . S
C3685 C3701 1.429 . S
C3685 H3707 0.950 . S
C3686 H3682 0.949 . S
C3686 C3694 1.574 . S
C3686 C3702 1.368 . S
H3687 C3695 0.950 . S
H3688 C3693 0.950 . S
H3689 C3694 0.949 . S
H3690 C3696 0.950 . S
H3691 C3697 0.950 . S
H3692 C3698 0.949 . S
C3693 H3688 0.950 . S
C3693 C3695 1.327 . S
C3693 C3699 1.429 . S
C3694 C3686 1.574 . S
C3694 H3689 0.949 . S
C3694 C3700 1.368 . S
C3695 C3679 1.349 . S
C3695 H3687 0.950 . S
C3695 C3693 1.327 . S
C3696 C3684 1.349 . S
C3696 H3690 0.950 . S
C3696 C3697 1.327 . S
C3697 H3691 0.950 . S
C3697 C3696 1.327 . S
C3697 C3701 1.429 . S
C3698 C3681 1.574 . S
C3698 H3692 0.949 . S
C3698 C3702 1.368 . S
C3699 C3680 1.429 . S
C3699 C3693 1.429 . S
C3699 C3700 1.523 . S
C3700 C3681 1.368 . S
C3700 C3694 1.368 . S
C3700 C3699 1.523 . S
C3701 C3685 1.429 . S
C3701 C3697 1.429 . S
C3701 C3702 1.523 . S
C3702 C3686 1.368 . S
C3702 C3698 1.368 . S
C3702 C3701 1.523 . S
H3703 C3678 0.950 . S
H3704 C3680 0.950 . S
H3705 C3681 0.949 . S
H3706 C3683 0.950 . S
H3707 C3685 0.950 . S
C3708 C3709 1.349 . S
C3708 C3710 1.327 . S
C3708 H3733 0.950 . S
C3709 C3708 1.349 . S
C3709 C3725 1.349 . S
C3710 C3708 1.327 . S
C3710 C3729 1.429 . S
C3710 H3734 0.950 . S
C3711 C3728 1.574 . S
C3711 C3730 1.368 . S
C3711 H3735 0.949 . S
H3712 C3716 0.949 . S
C3713 C3714 1.349 . S
C3713 C3715 1.327 . S
C3713 H3736 0.950 . S
C3714 C3713 1.349 . S
C3714 C3726 1.349 . S
C3715 C3713 1.327 . S
C3715 C3731 1.429 . S
C3715 H3737 0.950 . S
C3716 H3712 0.949 . S
C3716 C3724 1.574 . S
C3716 C3732 1.368 . S
H3717 C3725 0.950 . S
H3718 C3723 0.950 . S
H3719 C3724 0.949 . S
H3720 C3726 0.950 . S
H3721 C3727 0.950 . S
H3722 C3728 0.949 . S
C3723 H3718 0.950 . S
C3723 C3725 1.327 . S
C3723 C3729 1.429 . S
C3724 C3716 1.574 . S
C3724 H3719 0.949 . S
C3724 C3730 1.368 . S
C3725 C3709 1.349 . S
C3725 H3717 0.950 . S
C3725 C3723 1.327 . S
C3726 C3714 1.349 . S
C3726 H3720 0.950 . S
C3726 C3727 1.327 . S
C3727 H3721 0.950 . S
C3727 C3726 1.327 . S
C3727 C3731 1.429 . S
C3728 C3711 1.574 . S
C3728 H3722 0.949 . S
C3728 C3732 1.368 . S
C3729 C3710 1.429 . S
C3729 C3723 1.429 . S
C3729 C3730 1.523 . S
C3730 C3711 1.368 . S
C3730 C3724 1.368 . S
C3730 C3729 1.523 . S
C3731 C3715 1.429 . S
C3731 C3727 1.429 . S
C3731 C3732 1.523 . S
C3732 C3716 1.368 . S
C3732 C3728 1.368 . S
C3732 C3731 1.523 . S
H3733 C3708 0.950 . S
H3734 C3710 0.950 . S
H3735 C3711 0.949 . S
H3736 C3713 0.950 . S
H3737 C3715 0.950 . S
C3738 C3739 1.349 . S
C3738 C3740 1.327 . S
C3738 H3763 0.950 . S
C3739 C3738 1.349 . S
C3739 C3755 1.349 . S
C3740 C3738 1.327 . S
C3740 C3759 1.429 . S
C3740 H3764 0.950 . S
C3741 C3758 1.574 . S
C3741 C3760 1.368 . S
C3741 H3765 0.949 . S
H3742 C3746 0.949 . S
C3743 C3744 1.349 . S
C3743 C3745 1.327 . S
C3743 H3766 0.950 . S
C3744 C3743 1.349 . S
C3744 C3756 1.349 . S
C3745 C3743 1.327 . S
C3745 C3761 1.429 . S
C3745 H3767 0.950 . S
C3746 H3742 0.949 . S
C3746 C3754 1.574 . S
C3746 C3762 1.368 . S
H3747 C3755 0.950 . S
H3748 C3753 0.950 . S
H3749 C3754 0.949 . S
H3750 C3756 0.950 . S
H3751 C3757 0.950 . S
H3752 C3758 0.949 . S
C3753 H3748 0.950 . S
C3753 C3755 1.327 . S
C3753 C3759 1.429 . S
C3754 C3746 1.574 . S
C3754 H3749 0.949 . S
C3754 C3760 1.368 . S
C3755 C3739 1.349 . S
C3755 H3747 0.950 . S
C3755 C3753 1.327 . S
C3756 C3744 1.349 . S
C3756 H3750 0.950 . S
C3756 C3757 1.327 . S
C3757 H3751 0.950 . S
C3757 C3756 1.327 . S
C3757 C3761 1.429 . S
C3758 C3741 1.574 . S
C3758 H3752 0.949 . S
C3758 C3762 1.368 . S
C3759 C3740 1.429 . S
C3759 C3753 1.429 . S
C3759 C3760 1.523 . S
C3760 C3741 1.368 . S
C3760 C3754 1.368 . S
C3760 C3759 1.523 . S
C3761 C3745 1.429 . S
C3761 C3757 1.429 . S
C3761 C3762 1.523 . S
C3762 C3746 1.368 . S
C3762 C3758 1.368 . S
C3762 C3761 1.523 . S
H3763 C3738 0.950 . S
H3764 C3740 0.950 . S
H3765 C3741 0.949 . S
H3766 C3743 0.950 . S
H3767 C3745 0.950 . S
C3768 C3769 1.349 . S
C3768 C3770 1.327 . S
C3768 H3793 0.950 . S
C3769 C3768 1.349 . S
C3769 C3785 1.349 . S
C3770 C3768 1.327 . S
C3770 C3789 1.429 . S
C3770 H3794 0.950 . S
C3771 C3788 1.574 . S
C3771 C3790 1.368 . S
C3771 H3795 0.949 . S
H3772 C3776 0.949 . S
C3773 C3774 1.349 . S
C3773 C3775 1.327 . S
C3773 H3796 0.950 . S
C3774 C3773 1.349 . S
C3774 C3786 1.349 . S
C3775 C3773 1.327 . S
C3775 C3791 1.429 . S
C3775 H3797 0.950 . S
C3776 H3772 0.949 . S
C3776 C3784 1.574 . S
C3776 C3792 1.368 . S
H3777 C3785 0.950 . S
H3778 C3783 0.950 . S
H3779 C3784 0.949 . S
H3780 C3786 0.950 . S
H3781 C3787 0.950 . S
H3782 C3788 0.949 . S
C3783 H3778 0.950 . S
C3783 C3785 1.327 . S
C3783 C3789 1.429 . S
C3784 C3776 1.574 . S
C3784 H3779 0.949 . S
C3784 C3790 1.368 . S
C3785 C3769 1.349 . S
C3785 H3777 0.950 . S
C3785 C3783 1.327 . S
C3786 C3774 1.349 . S
C3786 H3780 0.950 . S
C3786 C3787 1.327 . S
C3787 H3781 0.950 . S
C3787 C3786 1.327 . S
C3787 C3791 1.429 . S
C3788 C3771 1.574 . S
C3788 H3782 0.949 . S
C3788 C3792 1.368 . S
C3789 C3770 1.429 . S
C3789 C3783 1.429 . S
C3789 C3790 1.523 . S
C3790 C3771 1.368 . S
C3790 C3784 1.368 . S
C3790 C3789 1.523 . S
C3791 C3775 1.429 . S
C3791 C3787 1.429 . S
C3791 C3792 1.523 . S
C3792 C3776 1.368 . S
C3792 C3788 1.368 . S
C3792 C3791 1.523 . S
H3793 C3768 0.950 . S
H3794 C3770 0.950 . S
H3795 C3771 0.949 . S
H3796 C3773 0.950 . S
H3797 C3775 0.950 . S
C3798 C3799 1.349 . S
C3798 C3800 1.327 . S
C3798 H3823 0.950 . S
C3799 C3798 1.349 . S
C3799 C3815 1.349 . S
C3800 C3798 1.327 . S
C3800 C3819 1.429 . S
C3800 H3824 0.950 . S
C3801 C3818 1.574 . S
C3801 C3820 1.368 . S
C3801 H3825 0.949 . S
H3802 C3806 0.949 . S
C3803 C3804 1.349 . S
C3803 C3805 1.327 . S
C3803 H3826 0.950 . S
C3804 C3803 1.349 . S
C3804 C3816 1.349 . S
C3805 C3803 1.327 . S
C3805 C3821 1.429 . S
C3805 H3827 0.950 . S
C3806 H3802 0.949 . S
C3806 C3814 1.574 . S
C3806 C3822 1.368 . S
H3807 C3815 0.950 . S
H3808 C3813 0.950 . S
H3809 C3814 0.949 . S
H3810 C3816 0.950 . S
H3811 C3817 0.950 . S
H3812 C3818 0.949 . S
C3813 H3808 0.950 . S
C3813 C3815 1.327 . S
C3813 C3819 1.429 . S
C3814 C3806 1.574 . S
C3814 H3809 0.949 . S
C3814 C3820 1.368 . S
C3815 C3799 1.349 . S
C3815 H3807 0.950 . S
C3815 C3813 1.327 . S
C3816 C3804 1.349 . S
C3816 H3810 0.950 . S
C3816 C3817 1.327 . S
C3817 H3811 0.950 . S
C3817 C3816 1.327 . S
C3817 C3821 1.429 . S
C3818 C3801 1.574 . S
C3818 H3812 0.949 . S
C3818 C3822 1.368 . S
C3819 C3800 1.429 . S
C3819 C3813 1.429 . S
C3819 C3820 1.523 . S
C3820 C3801 1.368 . S
C3820 C3814 1.368 . S
C3820 C3819 1.523 . S
C3821 C3805 1.429 . S
C3821 C3817 1.429 . S
C3821 C3822 1.523 . S
C3822 C3806 1.368 . S
C3822 C3818 1.368 . S
C3822 C3821 1.523 . S
H3823 C3798 0.950 . S
H3824 C3800 0.950 . S
H3825 C3801 0.949 . S
H3826 C3803 0.950 . S
H3827 C3805 0.950 . S
C3828 C3829 1.349 . S
C3828 C3830 1.327 . S
C3828 H3853 0.950 . S
C3829 C3828 1.349 . S
C3829 C3845 1.349 . S
C3830 C3828 1.327 . S
C3830 C3849 1.429 . S
C3830 H3854 0.950 . S
C3831 C3848 1.574 . S
C3831 C3850 1.368 . S
C3831 H3855 0.949 . S
H3832 C3836 0.949 . S
C3833 C3834 1.349 . S
C3833 C3835 1.327 . S
C3833 H3856 0.950 . S
C3834 C3833 1.349 . S
C3834 C3846 1.349 . S
C3835 C3833 1.327 . S
C3835 C3851 1.429 . S
C3835 H3857 0.950 . S
C3836 H3832 0.949 . S
C3836 C3844 1.574 . S
C3836 C3852 1.368 . S
H3837 C3845 0.950 . S
H3838 C3843 0.950 . S
H3839 C3844 0.949 . S
H3840 C3846 0.950 . S
H3841 C3847 0.950 . S
H3842 C3848 0.949 . S
C3843 H3838 0.950 . S
C3843 C3845 1.327 . S
C3843 C3849 1.429 . S
C3844 C3836 1.574 . S
C3844 H3839 0.949 . S
C3844 C3850 1.368 . S
C3845 C3829 1.349 . S
C3845 H3837 0.950 . S
C3845 C3843 1.327 . S
C3846 C3834 1.349 . S
C3846 H3840 0.950 . S
C3846 C3847 1.327 . S
C3847 H3841 0.950 . S
C3847 C3846 1.327 . S
C3847 C3851 1.429 . S
C3848 C3831 1.574 . S
C3848 H3842 0.949 . S
C3848 C3852 1.368 . S
C3849 C3830 1.429 . S
C3849 C3843 1.429 . S
C3849 C3850 1.523 . S
C3850 C3831 1.368 . S
C3850 C3844 1.368 . S
C3850 C3849 1.523 . S
C3851 C3835 1.429 . S
C3851 C3847 1.429 . S
C3851 C3852 1.523 . S
C3852 C3836 1.368 . S
C3852 C3848 1.368 . S
C3852 C3851 1.523 . S
H3853 C3828 0.950 . S
H3854 C3830 0.950 . S
H3855 C3831 0.949 . S
H3856 C3833 0.950 . S
H3857 C3835 0.950 . S
C3858 C3859 1.349 . S
C3858 C3860 1.327 . S
C3858 H3883 0.950 . S
C3859 C3858 1.349 . S
C3859 C3875 1.349 . S
C3860 C3858 1.327 . S
C3860 C3879 1.429 . S
C3860 H3884 0.950 . S
C3861 C3878 1.574 . S
C3861 C3880 1.368 . S
C3861 H3885 0.949 . S
H3862 C3866 0.949 . S
C3863 C3864 1.349 . S
C3863 C3865 1.327 . S
C3863 H3886 0.950 . S
C3864 C3863 1.349 . S
C3864 C3876 1.349 . S
C3865 C3863 1.327 . S
C3865 C3881 1.429 . S
C3865 H3887 0.950 . S
C3866 H3862 0.949 . S
C3866 C3874 1.574 . S
C3866 C3882 1.368 . S
H3867 C3875 0.950 . S
H3868 C3873 0.950 . S
H3869 C3874 0.949 . S
H3870 C3876 0.950 . S
H3871 C3877 0.950 . S
H3872 C3878 0.949 . S
C3873 H3868 0.950 . S
C3873 C3875 1.327 . S
C3873 C3879 1.429 . S
C3874 C3866 1.574 . S
C3874 H3869 0.949 . S
C3874 C3880 1.368 . S
C3875 C3859 1.349 . S
C3875 H3867 0.950 . S
C3875 C3873 1.327 . S
C3876 C3864 1.349 . S
C3876 H3870 0.950 . S
C3876 C3877 1.327 . S
C3877 H3871 0.950 . S
C3877 C3876 1.327 . S
C3877 C3881 1.429 . S
C3878 C3861 1.574 . S
C3878 H3872 0.949 . S
C3878 C3882 1.368 . S
C3879 C3860 1.429 . S
C3879 C3873 1.429 . S
C3879 C3880 1.523 . S
C3880 C3861 1.368 . S
C3880 C3874 1.368 . S
C3880 C3879 1.523 . S
C3881 C3865 1.429 . S
C3881 C3877 1.429 . S
C3881 C3882 1.523 . S
C3882 C3866 1.368 . S
C3882 C3878 1.368 . S
C3882 C3881 1.523 . S
H3883 C3858 0.950 . S
H3884 C3860 0.950 . S
H3885 C3861 0.949 . S
H3886 C3863 0.950 . S
H3887 C3865 0.950 . S
C3888 C3889 1.349 . S
C3888 C3890 1.327 . S
C3888 H3913 0.950 . S
C3889 C3888 1.349 . S
C3889 C3905 1.349 . S
C3890 C3888 1.327 . S
C3890 C3909 1.429 . S
C3890 H3914 0.950 . S
C3891 C3908 1.574 . S
C3891 C3910 1.368 . S
C3891 H3915 0.949 . S
H3892 C3896 0.949 . S
C3893 C3894 1.349 . S
C3893 C3895 1.327 . S
C3893 H3916 0.950 . S
C3894 C3893 1.349 . S
C3894 C3906 1.349 . S
C3895 C3893 1.327 . S
C3895 C3911 1.429 . S
C3895 H3917 0.950 . S
C3896 H3892 0.949 . S
C3896 C3904 1.574 . S
C3896 C3912 1.368 . S
H3897 C3905 0.950 . S
H3898 C3903 0.950 . S
H3899 C3904 0.949 . S
H3900 C3906 0.950 . S
H3901 C3907 0.950 . S
H3902 C3908 0.949 . S
C3903 H3898 0.950 . S
C3903 C3905 1.327 . S
C3903 C3909 1.429 . S
C3904 C3896 1.574 . S
C3904 H3899 0.949 . S
C3904 C3910 1.368 . S
C3905 C3889 1.349 . S
C3905 H3897 0.950 . S
C3905 C3903 1.327 . S
C3906 C3894 1.349 . S
C3906 H3900 0.950 . S
C3906 C3907 1.327 . S
C3907 H3901 0.950 . S
C3907 C3906 1.327 . S
C3907 C3911 1.429 . S
C3908 C3891 1.574 . S
C3908 H3902 0.949 . S
C3908 C3912 1.368 . S
C3909 C3890 1.429 . S
C3909 C3903 1.429 . S
C3909 C3910 1.523 . S
C3910 C3891 1.368 . S
C3910 C3904 1.368 . S
C3910 C3909 1.523 . S
C3911 C3895 1.429 . S
C3911 C3907 1.429 . S
C3911 C3912 1.523 . S
C3912 C3896 1.368 . S
C3912 C3908 1.368 . S
C3912 C3911 1.523 . S
H3913 C3888 0.950 . S
H3914 C3890 0.950 . S
H3915 C3891 0.949 . S
H3916 C3893 0.950 . S
H3917 C3895 0.950 . S
C3918 C3919 1.349 . S
C3918 C3920 1.327 . S
C3918 H3943 0.950 . S
C3919 C3918 1.349 . S
C3919 C3935 1.349 . S
C3920 C3918 1.327 . S
C3920 C3939 1.429 . S
C3920 H3944 0.950 . S
C3921 C3938 1.574 . S
C3921 C3940 1.368 . S
C3921 H3945 0.949 . S
H3922 C3926 0.949 . S
C3923 C3924 1.349 . S
C3923 C3925 1.327 . S
C3923 H3946 0.950 . S
C3924 C3923 1.349 . S
C3924 C3936 1.349 . S
C3925 C3923 1.327 . S
C3925 C3941 1.429 . S
C3925 H3947 0.950 . S
C3926 H3922 0.949 . S
C3926 C3934 1.574 . S
C3926 C3942 1.368 . S
H3927 C3935 0.950 . S
H3928 C3933 0.950 . S
H3929 C3934 0.949 . S
H3930 C3936 0.950 . S
H3931 C3937 0.950 . S
H3932 C3938 0.949 . S
C3933 H3928 0.950 . S
C3933 C3935 1.327 . S
C3933 C3939 1.429 . S
C3934 C3926 1.574 . S
C3934 H3929 0.949 . S
C3934 C3940 1.368 . S
C3935 C3919 1.349 . S
C3935 H3927 0.950 . S
C3935 C3933 1.327 . S
C3936 C3924 1.349 . S
C3936 H3930 0.950 . S
C3936 C3937 1.327 . S
C3937 H3931 0.950 . S
C3937 C3936 1.327 . S
C3937 C3941 1.429 . S
C3938 C3921 1.574 . S
C3938 H3932 0.949 . S
C3938 C3942 1.368 . S
C3939 C3920 1.429 . S
C3939 C3933 1.429 . S
C3939 C3940 1.523 . S
C3940 C3921 1.368 . S
C3940 C3934 1.368 . S
C3940 C3939 1.523 . S
C3941 C3925 1.429 . S
C3941 C3937 1.429 . S
C3941 C3942 1.523 . S
C3942 C3926 1.368 . S
C3942 C3938 1.368 . S
C3942 C3941 1.523 . S
H3943 C3918 0.950 . S
H3944 C3920 0.950 . S
H3945 C3921 0.949 . S
H3946 C3923 0.950 . S
H3947 C3925 0.950 . S
C3948 C3949 1.349 . S
C3948 C3950 1.327 . S
C3948 H3973 0.950 . S
C3949 C3948 1.349 . S
C3949 C3965 1.349 . S
C3950 C3948 1.327 . S
C3950 C3969 1.429 . S
C3950 H3974 0.950 . S
C3951 C3968 1.574 . S
C3951 C3970 1.368 . S
C3951 H3975 0.949 . S
H3952 C3956 0.949 . S
C3953 C3954 1.349 . S
C3953 C3955 1.327 . S
C3953 H3976 0.950 . S
C3954 C3953 1.349 . S
C3954 C3966 1.349 . S
C3955 C3953 1.327 . S
C3955 C3971 1.429 . S
C3955 H3977 0.950 . S
C3956 H3952 0.949 . S
C3956 C3964 1.574 . S
C3956 C3972 1.368 . S
H3957 C3965 0.950 . S
H3958 C3963 0.950 . S
H3959 C3964 0.949 . S
H3960 C3966 0.950 . S
H3961 C3967 0.950 . S
H3962 C3968 0.949 . S
C3963 H3958 0.950 . S
C3963 C3965 1.327 . S
C3963 C3969 1.429 . S
C3964 C3956 1.574 . S
C3964 H3959 0.949 . S
C3964 C3970 1.368 . S
C3965 C3949 1.349 . S
C3965 H3957 0.950 . S
C3965 C3963 1.327 . S
C3966 C3954 1.349 . S
C3966 H3960 0.950 . S
C3966 C3967 1.327 . S
C3967 H3961 0.950 . S
C3967 C3966 1.327 . S
C3967 C3971 1.429 . S
C3968 C3951 1.574 . S
C3968 H3962 0.949 . S
C3968 C3972 1.368 . S
C3969 C3950 1.429 . S
C3969 C3963 1.429 . S
C3969 C3970 1.523 . S
C3970 C3951 1.368 . S
C3970 C3964 1.368 . S
C3970 C3969 1.523 . S
C3971 C3955 1.429 . S
C3971 C3967 1.429 . S
C3971 C3972 1.523 . S
C3972 C3956 1.368 . S
C3972 C3968 1.368 . S
C3972 C3971 1.523 . S
H3973 C3948 0.950 . S
H3974 C3950 0.950 . S
H3975 C3951 0.949 . S
H3976 C3953 0.950 . S
H3977 C3955 0.950 . S
C3978 C3979 1.349 . S
C3978 C3980 1.327 . S
C3978 H4003 0.950 . S
C3979 C3978 1.349 . S
C3979 C3995 1.349 . S
C3980 C3978 1.327 . S
C3980 C3999 1.429 . S
C3980 H4004 0.950 . S
C3981 C3998 1.574 . S
C3981 C4000 1.368 . S
C3981 H4005 0.949 . S
H3982 C3986 0.949 . S
C3983 C3984 1.349 . S
C3983 C3985 1.327 . S
C3983 H4006 0.950 . S
C3984 C3983 1.349 . S
C3984 C3996 1.349 . S
C3985 C3983 1.327 . S
C3985 C4001 1.429 . S
C3985 H4007 0.950 . S
C3986 H3982 0.949 . S
C3986 C3994 1.574 . S
C3986 C4002 1.368 . S
H3987 C3995 0.950 . S
H3988 C3993 0.950 . S
H3989 C3994 0.949 . S
H3990 C3996 0.950 . S
H3991 C3997 0.950 . S
H3992 C3998 0.949 . S
C3993 H3988 0.950 . S
C3993 C3995 1.327 . S
C3993 C3999 1.429 . S
C3994 C3986 1.574 . S
C3994 H3989 0.949 . S
C3994 C4000 1.368 . S
C3995 C3979 1.349 . S
C3995 H3987 0.950 . S
C3995 C3993 1.327 . S
C3996 C3984 1.349 . S
C3996 H3990 0.950 . S
C3996 C3997 1.327 . S
C3997 H3991 0.950 . S
C3997 C3996 1.327 . S
C3997 C4001 1.429 . S
C3998 C3981 1.574 . S
C3998 H3992 0.949 . S
C3998 C4002 1.368 . S
C3999 C3980 1.429 . S
C3999 C3993 1.429 . S
C3999 C4000 1.523 . S
C4000 C3981 1.368 . S
C4000 C3994 1.368 . S
C4000 C3999 1.523 . S
C4001 C3985 1.429 . S
C4001 C3997 1.429 . S
C4001 C4002 1.523 . S
C4002 C3986 1.368 . S
C4002 C3998 1.368 . S
C4002 C4001 1.523 . S
H4003 C3978 0.950 . S
H4004 C3980 0.950 . S
H4005 C3981 0.949 . S
H4006 C3983 0.950 . S
H4007 C3985 0.950 . S
C4008 C4009 1.349 . S
C4008 C4010 1.327 . S
C4008 H4033 0.950 . S
C4009 C4008 1.349 . S
C4009 C4025 1.349 . S
C4010 C4008 1.327 . S
C4010 C4029 1.429 . S
C4010 H4034 0.950 . S
C4011 C4028 1.574 . S
C4011 C4030 1.368 . S
C4011 H4035 0.949 . S
H4012 C4016 0.949 . S
C4013 C4014 1.349 . S
C4013 C4015 1.327 . S
C4013 H4036 0.950 . S
C4014 C4013 1.349 . S
C4014 C4026 1.349 . S
C4015 C4013 1.327 . S
C4015 C4031 1.429 . S
C4015 H4037 0.950 . S
C4016 H4012 0.949 . S
C4016 C4024 1.574 . S
C4016 C4032 1.368 . S
H4017 C4025 0.950 . S
H4018 C4023 0.950 . S
H4019 C4024 0.949 . S
H4020 C4026 0.950 . S
H4021 C4027 0.950 . S
H4022 C4028 0.949 . S
C4023 H4018 0.950 . S
C4023 C4025 1.327 . S
C4023 C4029 1.429 . S
C4024 C4016 1.574 . S
C4024 H4019 0.949 . S
C4024 C4030 1.368 . S
C4025 C4009 1.349 . S
C4025 H4017 0.950 . S
C4025 C4023 1.327 . S
C4026 C4014 1.349 . S
C4026 H4020 0.950 . S
C4026 C4027 1.327 . S
C4027 H4021 0.950 . S
C4027 C4026 1.327 . S
C4027 C4031 1.429 . S
C4028 C4011 1.574 . S
C4028 H4022 0.949 . S
C4028 C4032 1.368 . S
C4029 C4010 1.429 . S
C4029 C4023 1.429 . S
C4029 C4030 1.523 . S
C4030 C4011 1.368 . S
C4030 C4024 1.368 . S
C4030 C4029 1.523 . S
C4031 C4015 1.429 . S
C4031 C4027 1.429 . S
C4031 C4032 1.523 . S
C4032 C4016 1.368 . S
C4032 C4028 1.368 . S
C4032 C4031 1.523 . S
H4033 C4008 0.950 . S
H4034 C4010 0.950 . S
H4035 C4011 0.949 . S
H4036 C4013 0.950 . S
H4037 C4015 0.950 . S
C4038 C4039 1.349 . S
C4038 C4040 1.327 . S
C4038 H4063 0.950 . S
C4039 C4038 1.349 . S
C4039 C4055 1.349 . S
C4040 C4038 1.327 . S
C4040 C4059 1.429 . S
C4040 H4064 0.950 . S
C4041 C4058 1.574 . S
C4041 C4060 1.368 . S
C4041 H4065 0.949 . S
H4042 C4046 0.949 . S
C4043 C4044 1.349 . S
C4043 C4045 1.327 . S
C4043 H4066 0.950 . S
C4044 C4043 1.349 . S
C4044 C4056 1.349 . S
C4045 C4043 1.327 . S
C4045 C4061 1.429 . S
C4045 H4067 0.950 . S
C4046 H4042 0.949 . S
C4046 C4054 1.574 . S
C4046 C4062 1.368 . S
H4047 C4055 0.950 . S
H4048 C4053 0.950 . S
H4049 C4054 0.949 . S
H4050 C4056 0.950 . S
H4051 C4057 0.950 . S
H4052 C4058 0.949 . S
C4053 H4048 0.950 . S
C4053 C4055 1.327 . S
C4053 C4059 1.429 . S
C4054 C4046 1.574 . S
C4054 H4049 0.949 . S
C4054 C4060 1.368 . S
C4055 C4039 1.349 . S
C4055 H4047 0.950 . S
C4055 C4053 1.327 . S
C4056 C4044 1.349 . S
C4056 H4050 0.950 . S
C4056 C4057 1.327 . S
C4057 H4051 0.950 . S
C4057 C4056 1.327 . S
C4057 C4061 1.429 . S
C4058 C4041 1.574 . S
C4058 H4052 0.949 . S
C4058 C4062 1.368 . S
C4059 C4040 1.429 . S
C4059 C4053 1.429 . S
C4059 C4060 1.523 . S
C4060 C4041 1.368 . S
C4060 C4054 1.368 . S
C4060 C4059 1.523 . S
C4061 C4045 1.429 . S
C4061 C4057 1.429 . S
C4061 C4062 1.523 . S
C4062 C4046 1.368 . S
C4062 C4058 1.368 . S
C4062 C4061 1.523 . S
H4063 C4038 0.950 . S
H4064 C4040 0.950 . S
H4065 C4041 0.949 . S
H4066 C4043 0.950 . S
H4067 C4045 0.950 . S
C4068 C4069 1.349 . S
C4068 C4070 1.327 . S
C4068 H4093 0.950 . S
C4069 C4068 1.349 . S
C4069 C4085 1.349 . S
C4070 C4068 1.327 . S
C4070 C4089 1.429 . S
C4070 H4094 0.950 . S
C4071 C4088 1.574 . S
C4071 C4090 1.368 . S
C4071 H4095 0.949 . S
H4072 C4076 0.949 . S
C4073 C4074 1.349 . S
C4073 C4075 1.327 . S
C4073 H4096 0.950 . S
C4074 C4073 1.349 . S
C4074 C4086 1.349 . S
C4075 C4073 1.327 . S
C4075 C4091 1.429 . S
C4075 H4097 0.950 . S
C4076 H4072 0.949 . S
C4076 C4084 1.574 . S
C4076 C4092 1.368 . S
H4077 C4085 0.950 . S
H4078 C4083 0.950 . S
H4079 C4084 0.949 . S
H4080 C4086 0.950 . S
H4081 C4087 0.950 . S
H4082 C4088 0.949 . S
C4083 H4078 0.950 . S
C4083 C4085 1.327 . S
C4083 C4089 1.429 . S
C4084 C4076 1.574 . S
C4084 H4079 0.949 . S
C4084 C4090 1.368 . S
C4085 C4069 1.349 . S
C4085 H4077 0.950 . S
C4085 C4083 1.327 . S
C4086 C4074 1.349 . S
C4086 H4080 0.950 . S
C4086 C4087 1.327 . S
C4087 H4081 0.950 . S
C4087 C4086 1.327 . S
C4087 C4091 1.429 . S
C4088 C4071 1.574 . S
C4088 H4082 0.949 . S
C4088 C4092 1.368 . S
C4089 C4070 1.429 . S
C4089 C4083 1.429 . S
C4089 C4090 1.523 . S
C4090 C4071 1.368 . S
C4090 C4084 1.368 . S
C4090 C4089 1.523 . S
C4091 C4075 1.429 . S
C4091 C4087 1.429 . S
C4091 C4092 1.523 . S
C4092 C4076 1.368 . S
C4092 C4088 1.368 . S
C4092 C4091 1.523 . S
H4093 C4068 0.950 . S
H4094 C4070 0.950 . S
H4095 C4071 0.949 . S
H4096 C4073 0.950 . S
H4097 C4075 0.950 . S
C4098 C4099 1.349 . S
C4098 C4100 1.327 . S
C4098 H4123 0.950 . S
C4099 C4098 1.349 . S
C4099 C4115 1.349 . S
C4100 C4098 1.327 . S
C4100 C4119 1.429 . S
C4100 H4124 0.950 . S
C4101 C4118 1.574 . S
C4101 C4120 1.368 . S
C4101 H4125 0.949 . S
H4102 C4106 0.949 . S
C4103 C4104 1.349 . S
C4103 C4105 1.327 . S
C4103 H4126 0.950 . S
C4104 C4103 1.349 . S
C4104 C4116 1.349 . S
C4105 C4103 1.327 . S
C4105 C4121 1.429 . S
C4105 H4127 0.950 . S
C4106 H4102 0.949 . S
C4106 C4114 1.574 . S
C4106 C4122 1.368 . S
H4107 C4115 0.950 . S
H4108 C4113 0.950 . S
H4109 C4114 0.949 . S
H4110 C4116 0.950 . S
H4111 C4117 0.950 . S
H4112 C4118 0.949 . S
C4113 H4108 0.950 . S
C4113 C4115 1.327 . S
C4113 C4119 1.429 . S
C4114 C4106 1.574 . S
C4114 H4109 0.949 . S
C4114 C4120 1.368 . S
C4115 C4099 1.349 . S
C4115 H4107 0.950 . S
C4115 C4113 1.327 . S
C4116 C4104 1.349 . S
C4116 H4110 0.950 . S
C4116 C4117 1.327 . S
C4117 H4111 0.950 . S
C4117 C4116 1.327 . S
C4117 C4121 1.429 . S
C4118 C4101 1.574 . S
C4118 H4112 0.949 . S
C4118 C4122 1.368 . S
C4119 C4100 1.429 . S
C4119 C4113 1.429 . S
C4119 C4120 1.523 . S
C4120 C4101 1.368 . S
C4120 C4114 1.368 . S
C4120 C4119 1.523 . S
C4121 C4105 1.429 . S
C4121 C4117 1.429 . S
C4121 C4122 1.523 . S
C4122 C4106 1.368 . S
C4122 C4118 1.368 . S
C4122 C4121 1.523 . S
H4123 C4098 0.950 . S
H4124 C4100 0.950 . S
H4125 C4101 0.949 . S
H4126 C4103 0.950 . S
H4127 C4105 0.950 . S
C4128 C4129 1.349 . S
C4128 C4130 1.327 . S
C4128 H4153 0.950 . S
C4129 C4128 1.349 . S
C4129 C4145 1.349 . S
C4130 C4128 1.327 . S
C4130 C4149 1.429 . S
C4130 H4154 0.950 . S
C4131 C4148 1.574 . S
C4131 C4150 1.368 . S
C4131 H4155 0.949 . S
H4132 C4136 0.949 . S
C4133 C4134 1.349 . S
C4133 C4135 1.327 . S
C4133 H4156 0.950 . S
C4134 C4133 1.349 . S
C4134 C4146 1.349 . S
C4135 C4133 1.327 . S
C4135 C4151 1.429 . S
C4135 H4157 0.950 . S
C4136 H4132 0.949 . S
C4136 C4144 1.574 . S
C4136 C4152 1.368 . S
H4137 C4145 0.950 . S
H4138 C4143 0.950 . S
H4139 C4144 0.949 . S
H4140 C4146 0.950 . S
H4141 C4147 0.950 . S
H4142 C4148 0.949 . S
C4143 H4138 0.950 . S
C4143 C4145 1.327 . S
C4143 C4149 1.429 . S
C4144 C4136 1.574 . S
C4144 H4139 0.949 . S
C4144 C4150 1.368 . S
C4145 C4129 1.349 . S
C4145 H4137 0.950 . S
C4145 C4143 1.327 . S
C4146 C4134 1.349 . S
C4146 H4140 0.950 . S
C4146 C4147 1.327 . S
C4147 H4141 0.950 . S
C4147 C4146 1.327 . S
C4147 C4151 1.429 . S
C4148 C4131 1.574 . S
C4148 H4142 0.949 . S
C4148 C4152 1.368 . S
C4149 C4130 1.429 . S
C4149 C4143 1.429 . S
C4149 C4150 1.523 . S
C4150 C4131 1.368 . S
C4150 C4144 1.368 . S
C4150 C4149 1.523 . S
C4151 C4135 1.429 . S
C4151 C4147 1.429 . S
C4151 C4152 1.523 . S
C4152 C4136 1.368 . S
C4152 C4148 1.368 . S
C4152 C4151 1.523 . S
H4153 C4128 0.950 . S
H4154 C4130 0.950 . S
H4155 C4131 0.949 . S
H4156 C4133 0.950 . S
H4157 C4135 0.950 . S
C4158 C4159 1.349 . S
C4158 C4160 1.327 . S
C4158 H4183 0.950 . S
C4159 C4158 1.349 . S
C4159 C4175 1.349 . S
C4160 C4158 1.327 . S
C4160 C4179 1.429 . S
C4160 H4184 0.950 . S
C4161 C4178 1.574 . S
C4161 C4180 1.368 . S
C4161 H4185 0.949 . S
H4162 C4166 0.949 . S
C4163 C4164 1.349 . S
C4163 C4165 1.327 . S
C4163 H4186 0.950 . S
C4164 C4163 1.349 . S
C4164 C4176 1.349 . S
C4165 C4163 1.327 . S
C4165 C4181 1.429 . S
C4165 H4187 0.950 . S
C4166 H4162 0.949 . S
C4166 C4174 1.574 . S
C4166 C4182 1.368 . S
H4167 C4175 0.950 . S
H4168 C4173 0.950 . S
H4169 C4174 0.949 . S
H4170 C4176 0.950 . S
H4171 C4177 0.950 . S
H4172 C4178 0.949 . S
C4173 H4168 0.950 . S
C4173 C4175 1.327 . S
C4173 C4179 1.429 . S
C4174 C4166 1.574 . S
C4174 H4169 0.949 . S
C4174 C4180 1.368 . S
C4175 C4159 1.349 . S
C4175 H4167 0.950 . S
C4175 C4173 1.327 . S
C4176 C4164 1.349 . S
C4176 H4170 0.950 . S
C4176 C4177 1.327 . S
C4177 H4171 0.950 . S
C4177 C4176 1.327 . S
C4177 C4181 1.429 . S
C4178 C4161 1.574 . S
C4178 H4172 0.949 . S
C4178 C4182 1.368 . S
C4179 C4160 1.429 . S
C4179 C4173 1.429 . S
C4179 C4180 1.523 . S
C4180 C4161 1.368 . S
C4180 C4174 1.368 . S
C4180 C4179 1.523 . S
C4181 C4165 1.429 . S
C4181 C4177 1.429 . S
C4181 C4182 1.523 . S
C4182 C4166 1.368 . S
C4182 C4178 1.368 . S
C4182 C4181 1.523 . S
H4183 C4158 0.950 . S
H4184 C4160 0.950 . S
H4185 C4161 0.949 . S
H4186 C4163 0.950 . S
H4187 C4165 0.950 . S
C4188 C4189 1.349 . S
C4188 C4190 1.327 . S
C4188 H4213 0.950 . S
C4189 C4188 1.349 . S
C4189 C4205 1.349 . S
C4190 C4188 1.327 . S
C4190 C4209 1.429 . S
C4190 H4214 0.950 . S
C4191 C4208 1.574 . S
C4191 C4210 1.368 . S
C4191 H4215 0.949 . S
H4192 C4196 0.949 . S
C4193 C4194 1.349 . S
C4193 C4195 1.327 . S
C4193 H4216 0.950 . S
C4194 C4193 1.349 . S
C4194 C4206 1.349 . S
C4195 C4193 1.327 . S
C4195 C4211 1.429 . S
C4195 H4217 0.950 . S
C4196 H4192 0.949 . S
C4196 C4204 1.574 . S
C4196 C4212 1.368 . S
H4197 C4205 0.950 . S
H4198 C4203 0.950 . S
H4199 C4204 0.949 . S
H4200 C4206 0.950 . S
H4201 C4207 0.950 . S
H4202 C4208 0.949 . S
C4203 H4198 0.950 . S
C4203 C4205 1.327 . S
C4203 C4209 1.429 . S
C4204 C4196 1.574 . S
C4204 H4199 0.949 . S
C4204 C4210 1.368 . S
C4205 C4189 1.349 . S
C4205 H4197 0.950 . S
C4205 C4203 1.327 . S
C4206 C4194 1.349 . S
C4206 H4200 0.950 . S
C4206 C4207 1.327 . S
C4207 H4201 0.950 . S
C4207 C4206 1.327 . S
C4207 C4211 1.429 . S
C4208 C4191 1.574 . S
C4208 H4202 0.949 . S
C4208 C4212 1.368 . S
C4209 C4190 1.429 . S
C4209 C4203 1.429 . S
C4209 C4210 1.523 . S
C4210 C4191 1.368 . S
C4210 C4204 1.368 . S
C4210 C4209 1.523 . S
C4211 C4195 1.429 . S
C4211 C4207 1.429 . S
C4211 C4212 1.523 . S
C4212 C4196 1.368 . S
C4212 C4208 1.368 . S
C4212 C4211 1.523 . S
H4213 C4188 0.950 . S
H4214 C4190 0.950 . S
H4215 C4191 0.949 . S
H4216 C4193 0.950 . S
H4217 C4195 0.950 . S
C4218 C4219 1.349 . S
C4218 C4220 1.327 . S
C4218 H4243 0.950 . S
C4219 C4218 1.349 . S
C4219 C4235 1.349 . S
C4220 C4218 1.327 . S
C4220 C4239 1.429 . S
C4220 H4244 0.950 . S
C4221 C4238 1.574 . S
C4221 C4240 1.368 . S
C4221 H4245 0.949 . S
H4222 C4226 0.949 . S
C4223 C4224 1.349 . S
C4223 C4225 1.327 . S
C4223 H4246 0.950 . S
C4224 C4223 1.349 . S
C4224 C4236 1.349 . S
C4225 C4223 1.327 . S
C4225 C4241 1.429 . S
C4225 H4247 0.950 . S
C4226 H4222 0.949 . S
C4226 C4234 1.574 . S
C4226 C4242 1.368 . S
H4227 C4235 0.950 . S
H4228 C4233 0.950 . S
H4229 C4234 0.949 . S
H4230 C4236 0.950 . S
H4231 C4237 0.950 . S
H4232 C4238 0.949 . S
C4233 H4228 0.950 . S
C4233 C4235 1.327 . S
C4233 C4239 1.429 . S
C4234 C4226 1.574 . S
C4234 H4229 0.949 . S
C4234 C4240 1.368 . S
C4235 C4219 1.349 . S
C4235 H4227 0.950 . S
C4235 C4233 1.327 . S
C4236 C4224 1.349 . S
C4236 H4230 0.950 . S
C4236 C4237 1.327 . S
C4237 H4231 0.950 . S
C4237 C4236 1.327 . S
C4237 C4241 1.429 . S
C4238 C4221 1.574 . S
C4238 H4232 0.949 . S
C4238 C4242 1.368 . S
C4239 C4220 1.429 . S
C4239 C4233 1.429 . S
C4239 C4240 1.523 . S
C4240 C4221 1.368 . S
C4240 C4234 1.368 . S
C4240 C4239 1.523 . S
C4241 C4225 1.429 . S
C4241 C4237 1.429 . S
C4241 C4242 1.523 . S
C4242 C4226 1.368 . S
C4242 C4238 1.368 . S
C4242 C4241 1.523 . S
H4243 C4218 0.950 . S
H4244 C4220 0.950 . S
H4245 C4221 0.949 . S
H4246 C4223 0.950 . S
H4247 C4225 0.950 . S
C4248 C4249 1.349 . S
C4248 C4250 1.327 . S
C4248 H4273 0.950 . S
C4249 C4248 1.349 . S
C4249 C4265 1.349 . S
C4250 C4248 1.327 . S
C4250 C4269 1.429 . S
C4250 H4274 0.950 . S
C4251 C4268 1.574 . S
C4251 C4270 1.368 . S
C4251 H4275 0.949 . S
H4252 C4256 0.949 . S
C4253 C4254 1.349 . S
C4253 C4255 1.327 . S
C4253 H4276 0.950 . S
C4254 C4253 1.349 . S
C4254 C4266 1.349 . S
C4255 C4253 1.327 . S
C4255 C4271 1.429 . S
C4255 H4277 0.950 . S
C4256 H4252 0.949 . S
C4256 C4264 1.574 . S
C4256 C4272 1.368 . S
H4257 C4265 0.950 . S
H4258 C4263 0.950 . S
H4259 C4264 0.949 . S
H4260 C4266 0.950 . S
H4261 C4267 0.950 . S
H4262 C4268 0.949 . S
C4263 H4258 0.950 . S
C4263 C4265 1.327 . S
C4263 C4269 1.429 . S
C4264 C4256 1.574 . S
C4264 H4259 0.949 . S
C4264 C4270 1.368 . S
C4265 C4249 1.349 . S
C4265 H4257 0.950 . S
C4265 C4263 1.327 . S
C4266 C4254 1.349 . S
C4266 H4260 0.950 . S
C4266 C4267 1.327 . S
C4267 H4261 0.950 . S
C4267 C4266 1.327 . S
C4267 C4271 1.429 . S
C4268 C4251 1.574 . S
C4268 H4262 0.949 . S
C4268 C4272 1.368 . S
C4269 C4250 1.429 . S
C4269 C4263 1.429 . S
C4269 C4270 1.523 . S
C4270 C4251 1.368 . S
C4270 C4264 1.368 . S
C4270 C4269 1.523 . S
C4271 C4255 1.429 . S
C4271 C4267 1.429 . S
C4271 C4272 1.523 . S
C4272 C4256 1.368 . S
C4272 C4268 1.368 . S
C4272 C4271 1.523 . S
H4273 C4248 0.950 . S
H4274 C4250 0.950 . S
H4275 C4251 0.949 . S
H4276 C4253 0.950 . S
H4277 C4255 0.950 . S
C4278 C4279 1.349 . S
C4278 C4280 1.327 . S
C4278 H4303 0.950 . S
C4279 C4278 1.349 . S
C4279 C4295 1.349 . S
C4280 C4278 1.327 . S
C4280 C4299 1.429 . S
C4280 H4304 0.950 . S
C4281 C4298 1.574 . S
C4281 C4300 1.368 . S
C4281 H4305 0.949 . S
H4282 C4286 0.949 . S
C4283 C4284 1.349 . S
C4283 C4285 1.327 . S
C4283 H4306 0.950 . S
C4284 C4283 1.349 . S
C4284 C4296 1.349 . S
C4285 C4283 1.327 . S
C4285 C4301 1.429 . S
C4285 H4307 0.950 . S
C4286 H4282 0.949 . S
C4286 C4294 1.574 . S
C4286 C4302 1.368 . S
H4287 C4295 0.950 . S
H4288 C4293 0.950 . S
H4289 C4294 0.949 . S
H4290 C4296 0.950 . S
H4291 C4297 0.950 . S
H4292 C4298 0.949 . S
C4293 H4288 0.950 . S
C4293 C4295 1.327 . S
C4293 C4299 1.429 . S
C4294 C4286 1.574 . S
C4294 H4289 0.949 . S
C4294 C4300 1.368 . S
C4295 C4279 1.349 . S
C4295 H4287 0.950 . S
C4295 C4293 1.327 . S
C4296 C4284 1.349 . S
C4296 H4290 0.950 . S
C4296 C4297 1.327 . S
C4297 H4291 0.950 . S
C4297 C4296 1.327 . S
C4297 C4301 1.429 . S
C4298 C4281 1.574 . S
C4298 H4292 0.949 . S
C4298 C4302 1.368 . S
C4299 C4280 1.429 . S
C4299 C4293 1.429 . S
C4299 C4300 1.523 . S
C4300 C4281 1.368 . S
C4300 C4294 1.368 . S
C4300 C4299 1.523 . S
C4301 C4285 1.429 . S
C4301 C4297 1.429 . S
C4301 C4302 1.523 . S
C4302 C4286 1.368 . S
C4302 C4298 1.368 . S
C4302 C4301 1.523 . S
H4303 C4278 0.950 . S
H4304 C4280 0.950 . S
H4305 C4281 0.949 . S
H4306 C4283 0.950 . S
H4307 C4285 0.950 . S
C4308 C4309 1.349 . S
C4308 C4310 1.327 . S
C4308 H4333 0.950 . S
C4309 C4308 1.349 . S
C4309 C4325 1.349 . S
C4310 C4308 1.327 . S
C4310 C4329 1.429 . S
C4310 H4334 0.950 . S
C4311 C4328 1.574 . S
C4311 C4330 1.368 . S
C4311 H4335 0.949 . S
H4312 C4316 0.949 . S
C4313 C4314 1.349 . S
C4313 C4315 1.327 . S
C4313 H4336 0.950 . S
C4314 C4313 1.349 . S
C4314 C4326 1.349 . S
C4315 C4313 1.327 . S
C4315 C4331 1.429 . S
C4315 H4337 0.950 . S
C4316 H4312 0.949 . S
C4316 C4324 1.574 . S
C4316 C4332 1.368 . S
H4317 C4325 0.950 . S
H4318 C4323 0.950 . S
H4319 C4324 0.949 . S
H4320 C4326 0.950 . S
H4321 C4327 0.950 . S
H4322 C4328 0.949 . S
C4323 H4318 0.950 . S
C4323 C4325 1.327 . S
C4323 C4329 1.429 . S
C4324 C4316 1.574 . S
C4324 H4319 0.949 . S
C4324 C4330 1.368 . S
C4325 C4309 1.349 . S
C4325 H4317 0.950 . S
C4325 C4323 1.327 . S
C4326 C4314 1.349 . S
C4326 H4320 0.950 . S
C4326 C4327 1.327 . S
C4327 H4321 0.950 . S
C4327 C4326 1.327 . S
C4327 C4331 1.429 . S
C4328 C4311 1.574 . S
C4328 H4322 0.949 . S
C4328 C4332 1.368 . S
C4329 C4310 1.429 . S
C4329 C4323 1.429 . S
C4329 C4330 1.523 . S
C4330 C4311 1.368 . S
C4330 C4324 1.368 . S
C4330 C4329 1.523 . S
C4331 C4315 1.429 . S
C4331 C4327 1.429 . S
C4331 C4332 1.523 . S
C4332 C4316 1.368 . S
C4332 C4328 1.368 . S
C4332 C4331 1.523 . S
H4333 C4308 0.950 . S
H4334 C4310 0.950 . S
H4335 C4311 0.949 . S
H4336 C4313 0.950 . S
H4337 C4315 0.950 . S
C4338 C4339 1.349 . S
C4338 C4340 1.327 . S
C4338 H4363 0.950 . S
C4339 C4338 1.349 . S
C4339 C4355 1.349 . S
C4340 C4338 1.327 . S
C4340 C4359 1.429 . S
C4340 H4364 0.950 . S
C4341 C4358 1.574 . S
C4341 C4360 1.368 . S
C4341 H4365 0.949 . S
H4342 C4346 0.949 . S
C4343 C4344 1.349 . S
C4343 C4345 1.327 . S
C4343 H4366 0.950 . S
C4344 C4343 1.349 . S
C4344 C4356 1.349 . S
C4345 C4343 1.327 . S
C4345 C4361 1.429 . S
C4345 H4367 0.950 . S
C4346 H4342 0.949 . S
C4346 C4354 1.574 . S
C4346 C4362 1.368 . S
H4347 C4355 0.950 . S
H4348 C4353 0.950 . S
H4349 C4354 0.949 . S
H4350 C4356 0.950 . S
H4351 C4357 0.950 . S
H4352 C4358 0.949 . S
C4353 H4348 0.950 . S
C4353 C4355 1.327 . S
C4353 C4359 1.429 . S
C4354 C4346 1.574 . S
C4354 H4349 0.949 . S
C4354 C4360 1.368 . S
C4355 C4339 1.349 . S
C4355 H4347 0.950 . S
C4355 C4353 1.327 . S
C4356 C4344 1.349 . S
C4356 H4350 0.950 . S
C4356 C4357 1.327 . S
C4357 H4351 0.950 . S
C4357 C4356 1.327 . S
C4357 C4361 1.429 . S
C4358 C4341 1.574 . S
C4358 H4352 0.949 . S
C4358 C4362 1.368 . S
C4359 C4340 1.429 . S
C4359 C4353 1.429 . S
C4359 C4360 1.523 . S
C4360 C4341 1.368 . S
C4360 C4354 1.368 . S
C4360 C4359 1.523 . S
C4361 C4345 1.429 . S
C4361 C4357 1.429 . S
C4361 C4362 1.523 . S
C4362 C4346 1.368 . S
C4362 C4358 1.368 . S
C4362 C4361 1.523 . S
H4363 C4338 0.950 . S
H4364 C4340 0.950 . S
H4365 C4341 0.949 . S
H4366 C4343 0.950 . S
H4367 C4345 0.950 . S
C4368 C4369 1.349 . S
C4368 C4370 1.327 . S
C4368 H4393 0.950 . S
C4369 C4368 1.349 . S
C4369 C4385 1.349 . S
C4370 C4368 1.327 . S
C4370 C4389 1.429 . S
C4370 H4394 0.950 . S
C4371 C4388 1.574 . S
C4371 C4390 1.368 . S
C4371 H4395 0.949 . S
H4372 C4376 0.949 . S
C4373 C4374 1.349 . S
C4373 C4375 1.327 . S
C4373 H4396 0.950 . S
C4374 C4373 1.349 . S
C4374 C4386 1.349 . S
C4375 C4373 1.327 . S
C4375 C4391 1.429 . S
C4375 H4397 0.950 . S
C4376 H4372 0.949 . S
C4376 C4384 1.574 . S
C4376 C4392 1.368 . S
H4377 C4385 0.950 . S
H4378 C4383 0.950 . S
H4379 C4384 0.949 . S
H4380 C4386 0.950 . S
H4381 C4387 0.950 . S
H4382 C4388 0.949 . S
C4383 H4378 0.950 . S
C4383 C4385 1.327 . S
C4383 C4389 1.429 . S
C4384 C4376 1.574 . S
C4384 H4379 0.949 . S
C4384 C4390 1.368 . S
C4385 C4369 1.349 . S
C4385 H4377 0.950 . S
C4385 C4383 1.327 . S
C4386 C4374 1.349 . S
C4386 H4380 0.950 . S
C4386 C4387 1.327 . S
C4387 H4381 0.950 . S
C4387 C4386 1.327 . S
C4387 C4391 1.429 . S
C4388 C4371 1.574 . S
C4388 H4382 0.949 . S
C4388 C4392 1.368 . S
C4389 C4370 1.429 . S
C4389 C4383 1.429 . S
C4389 C4390 1.523 . S
C4390 C4371 1.368 . S
C4390 C4384 1.368 . S
C4390 C4389 1.523 . S
C4391 C4375 1.429 . S
C4391 C4387 1.429 . S
C4391 C4392 1.523 . S
C4392 C4376 1.368 . S
C4392 C4388 1.368 . S
C4392 C4391 1.523 . S
H4393 C4368 0.950 . S
H4394 C4370 0.950 . S
H4395 C4371 0.949 . S
H4396 C4373 0.950 . S
H4397 C4375 0.950 . S
C4398 C4399 1.349 . S
C4398 C4400 1.327 . S
C4398 H4423 0.950 . S
C4399 C4398 1.349 . S
C4399 C4415 1.349 . S
C4400 C4398 1.327 . S
C4400 C4419 1.429 . S
C4400 H4424 0.950 . S
C4401 C4418 1.574 . S
C4401 C4420 1.368 . S
C4401 H4425 0.949 . S
H4402 C4406 0.949 . S
C4403 C4404 1.349 . S
C4403 C4405 1.327 . S
C4403 H4426 0.950 . S
C4404 C4403 1.349 . S
C4404 C4416 1.349 . S
C4405 C4403 1.327 . S
C4405 C4421 1.429 . S
C4405 H4427 0.950 . S
C4406 H4402 0.949 . S
C4406 C4414 1.574 . S
C4406 C4422 1.368 . S
H4407 C4415 0.950 . S
H4408 C4413 0.950 . S
H4409 C4414 0.949 . S
H4410 C4416 0.950 . S
H4411 C4417 0.950 . S
H4412 C4418 0.949 . S
C4413 H4408 0.950 . S
C4413 C4415 1.327 . S
C4413 C4419 1.429 . S
C4414 C4406 1.574 . S
C4414 H4409 0.949 . S
C4414 C4420 1.368 . S
C4415 C4399 1.349 . S
C4415 H4407 0.950 . S
C4415 C4413 1.327 . S
C4416 C4404 1.349 . S
C4416 H4410 0.950 . S
C4416 C4417 1.327 . S
C4417 H4411 0.950 . S
C4417 C4416 1.327 . S
C4417 C4421 1.429 . S
C4418 C4401 1.574 . S
C4418 H4412 0.949 . S
C4418 C4422 1.368 . S
C4419 C4400 1.429 . S
C4419 C4413 1.429 . S
C4419 C4420 1.523 . S
C4420 C4401 1.368 . S
C4420 C4414 1.368 . S
C4420 C4419 1.523 . S
C4421 C4405 1.429 . S
C4421 C4417 1.429 . S
C4421 C4422 1.523 . S
C4422 C4406 1.368 . S
C4422 C4418 1.368 . S
C4422 C4421 1.523 . S
H4423 C4398 0.950 . S
H4424 C4400 0.950 . S
H4425 C4401 0.949 . S
H4426 C4403 0.950 . S
H4427 C4405 0.950 . S
C4428 C4429 1.349 . S
C4428 C4430 1.327 . S
C4428 H4453 0.950 . S
C4429 C4428 1.349 . S
C4429 C4445 1.349 . S
C4430 C4428 1.327 . S
C4430 C4449 1.429 . S
C4430 H4454 0.950 . S
C4431 C4448 1.574 . S
C4431 C4450 1.368 . S
C4431 H4455 0.949 . S
H4432 C4436 0.949 . S
C4433 C4434 1.349 . S
C4433 C4435 1.327 . S
C4433 H4456 0.950 . S
C4434 C4433 1.349 . S
C4434 C4446 1.349 . S
C4435 C4433 1.327 . S
C4435 C4451 1.429 . S
C4435 H4457 0.950 . S
C4436 H4432 0.949 . S
C4436 C4444 1.574 . S
C4436 C4452 1.368 . S
H4437 C4445 0.950 . S
H4438 C4443 0.950 . S
H4439 C4444 0.949 . S
H4440 C4446 0.950 . S
H4441 C4447 0.950 . S
H4442 C4448 0.949 . S
C4443 H4438 0.950 . S
C4443 C4445 1.327 . S
C4443 C4449 1.429 . S
C4444 C4436 1.574 . S
C4444 H4439 0.949 . S
C4444 C4450 1.368 . S
C4445 C4429 1.349 . S
C4445 H4437 0.950 . S
C4445 C4443 1.327 . S
C4446 C4434 1.349 . S
C4446 H4440 0.950 . S
C4446 C4447 1.327 . S
C4447 H4441 0.950 . S
C4447 C4446 1.327 . S
C4447 C4451 1.429 . S
C4448 C4431 1.574 . S
C4448 H4442 0.949 . S
C4448 C4452 1.368 . S
C4449 C4430 1.429 . S
C4449 C4443 1.429 . S
C4449 C4450 1.523 . S
C4450 C4431 1.368 . S
C4450 C4444 1.368 . S
C4450 C4449 1.523 . S
C4451 C4435 1.429 . S
C4451 C4447 1.429 . S
C4451 C4452 1.523 . S
C4452 C4436 1.368 . S
C4452 C4448 1.368 . S
C4452 C4451 1.523 . S
H4453 C4428 0.950 . S
H4454 C4430 0.950 . S
H4455 C4431 0.949 . S
H4456 C4433 0.950 . S
H4457 C4435 0.950 . S
C4458 C4459 1.349 . S
C4458 C4460 1.327 . S
C4458 H4483 0.950 . S
C4459 C4458 1.349 . S
C4459 C4475 1.349 . S
C4460 C4458 1.327 . S
C4460 C4479 1.429 . S
C4460 H4484 0.950 . S
C4461 C4478 1.574 . S
C4461 C4480 1.368 . S
C4461 H4485 0.949 . S
H4462 C4466 0.949 . S
C4463 C4464 1.349 . S
C4463 C4465 1.327 . S
C4463 H4486 0.950 . S
C4464 C4463 1.349 . S
C4464 C4476 1.349 . S
C4465 C4463 1.327 . S
C4465 C4481 1.429 . S
C4465 H4487 0.950 . S
C4466 H4462 0.949 . S
C4466 C4474 1.574 . S
C4466 C4482 1.368 . S
H4467 C4475 0.950 . S
H4468 C4473 0.950 . S
H4469 C4474 0.949 . S
H4470 C4476 0.950 . S
H4471 C4477 0.950 . S
H4472 C4478 0.949 . S
C4473 H4468 0.950 . S
C4473 C4475 1.327 . S
C4473 C4479 1.429 . S
C4474 C4466 1.574 . S
C4474 H4469 0.949 . S
C4474 C4480 1.368 . S
C4475 C4459 1.349 . S
C4475 H4467 0.950 . S
C4475 C4473 1.327 . S
C4476 C4464 1.349 . S
C4476 H4470 0.950 . S
C4476 C4477 1.327 . S
C4477 H4471 0.950 . S
C4477 C4476 1.327 . S
C4477 C4481 1.429 . S
C4478 C4461 1.574 . S
C4478 H4472 0.949 . S
C4478 C4482 1.368 . S
C4479 C4460 1.429 . S
C4479 C4473 1.429 . S
C4479 C4480 1.523 . S
C4480 C4461 1.368 . S
C4480 C4474 1.368 . S
C4480 C4479 1.523 . S
C4481 C4465 1.429 . S
C4481 C4477 1.429 . S
C4481 C4482 1.523 . S
C4482 C4466 1.368 . S
C4482 C4478 1.368 . S
C4482 C4481 1.523 . S
H4483 C4458 0.950 . S
H4484 C4460 0.950 . S
H4485 C4461 0.949 . S
H4486 C4463 0.950 . S
H4487 C4465 0.950 . S
C4488 C4489 1.349 . S
C4488 C4490 1.327 . S
C4488 H4513 0.950 . S
C4489 C4488 1.349 . S
C4489 C4505 1.349 . S
C4490 C4488 1.327 . S
C4490 C4509 1.429 . S
C4490 H4514 0.950 . S
C4491 C4508 1.574 . S
C4491 C4510 1.368 . S
C4491 H4515 0.949 . S
H4492 C4496 0.949 . S
C4493 C4494 1.349 . S
C4493 C4495 1.327 . S
C4493 H4516 0.950 . S
C4494 C4493 1.349 . S
C4494 C4506 1.349 . S
C4495 C4493 1.327 . S
C4495 C4511 1.429 . S
C4495 H4517 0.950 . S
C4496 H4492 0.949 . S
C4496 C4504 1.574 . S
C4496 C4512 1.368 . S
H4497 C4505 0.950 . S
H4498 C4503 0.950 . S
H4499 C4504 0.949 . S
H4500 C4506 0.950 . S
H4501 C4507 0.950 . S
H4502 C4508 0.949 . S
C4503 H4498 0.950 . S
C4503 C4505 1.327 . S
C4503 C4509 1.429 . S
C4504 C4496 1.574 . S
C4504 H4499 0.949 . S
C4504 C4510 1.368 . S
C4505 C4489 1.349 . S
C4505 H4497 0.950 . S
C4505 C4503 1.327 . S
C4506 C4494 1.349 . S
C4506 H4500 0.950 . S
C4506 C4507 1.327 . S
C4507 H4501 0.950 . S
C4507 C4506 1.327 . S
C4507 C4511 1.429 . S
C4508 C4491 1.574 . S
C4508 H4502 0.949 . S
C4508 C4512 1.368 . S
C4509 C4490 1.429 . S
C4509 C4503 1.429 . S
C4509 C4510 1.523 . S
C4510 C4491 1.368 . S
C4510 C4504 1.368 . S
C4510 C4509 1.523 . S
C4511 C4495 1.429 . S
C4511 C4507 1.429 . S
C4511 C4512 1.523 . S
C4512 C4496 1.368 . S
C4512 C4508 1.368 . S
C4512 C4511 1.523 . S
H4513 C4488 0.950 . S
H4514 C4490 0.950 . S
H4515 C4491 0.949 . S
H4516 C4493 0.950 . S
H4517 C4495 0.950 . S
C4518 C4519 1.349 . S
C4518 C4520 1.327 . S
C4518 H4543 0.950 . S
C4519 C4518 1.349 . S
C4519 C4535 1.349 . S
C4520 C4518 1.327 . S
C4520 C4539 1.429 . S
C4520 H4544 0.950 . S
C4521 C4538 1.574 . S
C4521 C4540 1.368 . S
C4521 H4545 0.949 . S
H4522 C4526 0.949 . S
C4523 C4524 1.349 . S
C4523 C4525 1.327 . S
C4523 H4546 0.950 . S
C4524 C4523 1.349 . S
C4524 C4536 1.349 . S
C4525 C4523 1.327 . S
C4525 C4541 1.429 . S
C4525 H4547 0.950 . S
C4526 H4522 0.949 . S
C4526 C4534 1.574 . S
C4526 C4542 1.368 . S
H4527 C4535 0.950 . S
H4528 C4533 0.950 . S
H4529 C4534 0.949 . S
H4530 C4536 0.950 . S
H4531 C4537 0.950 . S
H4532 C4538 0.949 . S
C4533 H4528 0.950 . S
C4533 C4535 1.327 . S
C4533 C4539 1.429 . S
C4534 C4526 1.574 . S
C4534 H4529 0.949 . S
C4534 C4540 1.368 . S
C4535 C4519 1.349 . S
C4535 H4527 0.950 . S
C4535 C4533 1.327 . S
C4536 C4524 1.349 . S
C4536 H4530 0.950 . S
C4536 C4537 1.327 . S
C4537 H4531 0.950 . S
C4537 C4536 1.327 . S
C4537 C4541 1.429 . S
C4538 C4521 1.574 . S
C4538 H4532 0.949 . S
C4538 C4542 1.368 . S
C4539 C4520 1.429 . S
C4539 C4533 1.429 . S
C4539 C4540 1.523 . S
C4540 C4521 1.368 . S
C4540 C4534 1.368 . S
C4540 C4539 1.523 . S
C4541 C4525 1.429 . S
C4541 C4537 1.429 . S
C4541 C4542 1.523 . S
C4542 C4526 1.368 . S
C4542 C4538 1.368 . S
C4542 C4541 1.523 . S
H4543 C4518 0.950 . S
H4544 C4520 0.950 . S
H4545 C4521 0.949 . S
H4546 C4523 0.950 . S
H4547 C4525 0.950 . S
C4548 C4549 1.349 . S
C4548 C4550 1.327 . S
C4548 H4573 0.950 . S
C4549 C4548 1.349 . S
C4549 C4565 1.349 . S
C4550 C4548 1.327 . S
C4550 C4569 1.429 . S
C4550 H4574 0.950 . S
C4551 C4568 1.574 . S
C4551 C4570 1.368 . S
C4551 H4575 0.949 . S
H4552 C4556 0.949 . S
C4553 C4554 1.349 . S
C4553 C4555 1.327 . S
C4553 H4576 0.950 . S
C4554 C4553 1.349 . S
C4554 C4566 1.349 . S
C4555 C4553 1.327 . S
C4555 C4571 1.429 . S
C4555 H4577 0.950 . S
C4556 H4552 0.949 . S
C4556 C4564 1.574 . S
C4556 C4572 1.368 . S
H4557 C4565 0.950 . S
H4558 C4563 0.950 . S
H4559 C4564 0.949 . S
H4560 C4566 0.950 . S
H4561 C4567 0.950 . S
H4562 C4568 0.949 . S
C4563 H4558 0.950 . S
C4563 C4565 1.327 . S
C4563 C4569 1.429 . S
C4564 C4556 1.574 . S
C4564 H4559 0.949 . S
C4564 C4570 1.368 . S
C4565 C4549 1.349 . S
C4565 H4557 0.950 . S
C4565 C4563 1.327 . S
C4566 C4554 1.349 . S
C4566 H4560 0.950 . S
C4566 C4567 1.327 . S
C4567 H4561 0.950 . S
C4567 C4566 1.327 . S
C4567 C4571 1.429 . S
C4568 C4551 1.574 . S
C4568 H4562 0.949 . S
C4568 C4572 1.368 . S
C4569 C4550 1.429 . S
C4569 C4563 1.429 . S
C4569 C4570 1.523 . S
C4570 C4551 1.368 . S
C4570 C4564 1.368 . S
C4570 C4569 1.523 . S
C4571 C4555 1.429 . S
C4571 C4567 1.429 . S
C4571 C4572 1.523 . S
C4572 C4556 1.368 . S
C4572 C4568 1.368 . S
C4572 C4571 1.523 . S
H4573 C4548 0.950 . S
H4574 C4550 0.950 . S
H4575 C4551 0.949 . S
H4576 C4553 0.950 . S
H4577 C4555 0.950 . S
C4578 C4579 1.349 . S
C4578 C4580 1.327 . S
C4578 H4603 0.950 . S
C4579 C4578 1.349 . S
C4579 C4595 1.349 . S
C4580 C4578 1.327 . S
C4580 C4599 1.429 . S
C4580 H4604 0.950 . S
C4581 C4598 1.574 . S
C4581 C4600 1.368 . S
C4581 H4605 0.949 . S
H4582 C4586 0.949 . S
C4583 C4584 1.349 . S
C4583 C4585 1.327 . S
C4583 H4606 0.950 . S
C4584 C4583 1.349 . S
C4584 C4596 1.349 . S
C4585 C4583 1.327 . S
C4585 C4601 1.429 . S
C4585 H4607 0.950 . S
C4586 H4582 0.949 . S
C4586 C4594 1.574 . S
C4586 C4602 1.368 . S
H4587 C4595 0.950 . S
H4588 C4593 0.950 . S
H4589 C4594 0.949 . S
H4590 C4596 0.950 . S
H4591 C4597 0.950 . S
H4592 C4598 0.949 . S
C4593 H4588 0.950 . S
C4593 C4595 1.327 . S
C4593 C4599 1.429 . S
C4594 C4586 1.574 . S
C4594 H4589 0.949 . S
C4594 C4600 1.368 . S
C4595 C4579 1.349 . S
C4595 H4587 0.950 . S
C4595 C4593 1.327 . S
C4596 C4584 1.349 . S
C4596 H4590 0.950 . S
C4596 C4597 1.327 . S
C4597 H4591 0.950 . S
C4597 C4596 1.327 . S
C4597 C4601 1.429 . S
C4598 C4581 1.574 . S
C4598 H4592 0.949 . S
C4598 C4602 1.368 . S
C4599 C4580 1.429 . S
C4599 C4593 1.429 . S
C4599 C4600 1.523 . S
C4600 C4581 1.368 . S
C4600 C4594 1.368 . S
C4600 C4599 1.523 . S
C4601 C4585 1.429 . S
C4601 C4597 1.429 . S
C4601 C4602 1.523 . S
C4602 C4586 1.368 . S
C4602 C4598 1.368 . S
C4602 C4601 1.523 . S
H4603 C4578 0.950 . S
H4604 C4580 0.950 . S
H4605 C4581 0.949 . S
H4606 C4583 0.950 . S
H4607 C4585 0.950 . S
C1729 C1119 1.298 . S
C1734 C3 1.298 . S
C1759 C39 1.298 . S
C1764 C1011 1.298 . S
C1789 C75 1.298 . S
C1794 C1047 1.298 . S
C1819 C1083 1.298 . S
C1824 C111 1.298 . S
C1849 C903 1.298 . S
C1854 C147 1.298 . S
C1879 C183 1.298 . S
C1884 C939 1.298 . S
C1909 C975 1.298 . S
C1914 C219 1.298 . S
C1939 C255 1.298 . S
C1944 C867 1.298 . S
C1969 C291 1.298 . S
C1974 C1587 1.298 . S
C1999 C1479 1.298 . S
C2004 C327 1.298 . S
C2029 C1515 1.298 . S
C2034 C363 1.298 . S
C2059 C399 1.298 . S
C2064 C1551 1.298 . S
C2089 C435 1.298 . S
C2094 C1695 1.298 . S
C2119 C471 1.298 . S
C2124 C1623 1.298 . S
C2149 C507 1.298 . S
C2154 C1659 1.298 . S
C2179 C1443 1.298 . S
C2184 C543 1.298 . S
C2209 C1407 1.298 . S
C2214 C579 1.298 . S
C2239 C615 1.298 . S
C2244 C1191 1.298 . S
C2269 C1227 1.298 . S
C2274 C651 1.298 . S
C2299 C687 1.298 . S
C2304 C1263 1.298 . S
C2329 C1155 1.298 . S
C2334 C723 1.298 . S
C2359 C1335 1.298 . S
C2364 C759 1.298 . S
C2389 C795 1.298 . S
C2394 C1371 1.298 . S
C2419 C1299 1.298 . S
C2424 C831 1.298 . S
C2449 C326 1.251 . S
C2454 C2 1.251 . S
C2479 C362 1.251 . S
C2484 C38 1.251 . S
C2509 C74 1.251 . S
C2514 C398 1.251 . S
C2539 C290 1.251 . S
C2544 C110 1.251 . S
C2569 C146 1.251 . S
C2574 C542 1.251 . S
C2599 C434 1.251 . S
C2604 C182 1.251 . S
C2629 C470 1.251 . S
C2634 C218 1.251 . S
C2659 C506 1.251 . S
C2664 C254 1.251 . S
C2689 C650 1.251 . S
C2694 C578 1.251 . S
C2719 C794 1.251 . S
C2724 C614 1.251 . S
C2749 C830 1.251 . S
C2754 C686 1.251 . S
C2779 C722 1.251 . S
C2784 C758 1.251 . S
C2809 C1190 1.251 . S
C2814 C866 1.251 . S
C2839 C1226 1.251 . S
C2844 C902 1.251 . S
C2869 C1262 1.251 . S
C2874 C938 1.251 . S
C2899 C974 1.251 . S
C2904 C1154 1.251 . S
C2929 C1010 1.251 . S
C2934 C1406 1.251 . S
C2959 C1046 1.251 . S
C2964 C1298 1.251 . S
C2989 C1334 1.251 . S
C2994 C1082 1.251 . S
C3019 C1370 1.251 . S
C3024 C1118 1.251 . S
C3049 C1442 1.251 . S
C3054 C1514 1.251 . S
C3079 C1658 1.251 . S
C3084 C1478 1.251 . S
C3109 C1694 1.251 . S
C3114 C1550 1.251 . S
C3139 C1622 1.251 . S
C3144 C1586 1.251 . S
C3169 C14 1.303 . S
C3174 C652 1.317 . S
C3199 C50 1.303 . S
C3204 C688 1.317 . S
C3229 C86 1.303 . S
C3234 C724 1.317 . S
C3259 C616 1.317 . S
C3264 C122 1.303 . S
C3289 C158 1.303 . S
C3294 C796 1.317 . S
C3319 C194 1.303 . S
C3324 C580 1.317 . S
C3349 C832 1.317 . S
C3354 C230 1.303 . S
C3379 C760 1.317 . S
C3384 C266 1.303 . S
C3409 C302 1.303 . S
C3414 C328 1.317 . S
C3439 C338 1.303 . S
C3444 C364 1.317 . S
C3469 C374 1.303 . S
C3474 C400 1.317 . S
C3499 C292 1.317 . S
C3504 C410 1.303 . S
C3529 C544 1.317 . S
C3534 C446 1.303 . S
C3559 C436 1.317 . S
C3564 C482 1.303 . S
C3589 C472 1.317 . S
C3594 C518 1.303 . S
C3619 C554 1.303 . S
C3624 C508 1.317 . S
C3649 C112 1.317 . S
C3654 C590 1.303 . S
C3679 C184 1.317 . S
C3684 C626 1.303 . S
C3709 C220 1.317 . S
C3714 C662 1.303 . S
C3739 C698 1.303 . S
C3744 C256 1.317 . S
C3769 C148 1.317 . S
C3774 C734 1.303 . S
C3799 C40 1.317 . S
C3804 C770 1.303 . S
C3829 C76 1.317 . S
C3834 C806 1.303 . S
C3859 C4 1.317 . S
C3864 C842 1.303 . S
C3889 C1516 1.317 . S
C3894 C878 1.303 . S
C3919 C914 1.303 . S
C3924 C1552 1.317 . S
C3949 C1588 1.317 . S
C3954 C950 1.303 . S
C3979 C1480 1.317 . S
C3984 C986 1.303 . S
C4009 C1022 1.303 . S
C4014 C1660 1.317 . S
C4039 C1058 1.303 . S
C4044 C1444 1.317 . S
C4069 C1696 1.317 . S
C4074 C1094 1.303 . S
C4099 C1130 1.303 . S
C4104 C1624 1.317 . S
C4129 C1166 1.303 . S
C4134 C1192 1.317 . S
C4159 C1202 1.303 . S
C4164 C1228 1.317 . S
C4189 C1238 1.303 . S
C4194 C1264 1.317 . S
C4219 C1274 1.303 . S
C4224 C1156 1.317 . S
C4249 C1408 1.317 . S
C4254 C1310 1.303 . S
C4279 C1300 1.317 . S
C4284 C1346 1.303 . S
C4309 C1336 1.317 . S
C4314 C1382 1.303 . S
C4339 C1418 1.303 . S
C4344 C1372 1.317 . S
C4369 C976 1.317 . S
C4374 C1454 1.303 . S
C4399 C1048 1.317 . S
C4404 C1490 1.303 . S
C4429 C1084 1.317 . S
C4434 C1526 1.303 . S
C4459 C1562 1.303 . S
C4464 C1120 1.317 . S
C4489 C1012 1.317 . S
C4494 C1598 1.303 . S
C4519 C904 1.317 . S
C4524 C1634 1.303 . S
C4549 C1670 1.303 . S
C4554 C940 1.317 . S
C4579 C868 1.317 . S
C4584 C1706 1.303 . S
