# Generated by pormake.
# Topology umn, (4)-cn, num edge types: 1
# Building blocks:
#     Node 0, Type 0, BuildingBlock: GALJAG_clean_sbu_0, # of connection points: 4
#     Node 1, Type 0, BuildingBlock: GALJAG_clean_sbu_0, # of connection points: 4
#     Node 2, Type 0, BuildingBlock: GALJAG_clean_sbu_0, # of connection points: 4
#     Node 3, Type 0, BuildingBlock: GALJAG_clean_sbu_0, # of connection points: 4
#     Node 4, Type 0, BuildingBlock: GALJAG_clean_sbu_0, # of connection points: 4
#     Node 5, Type 0, BuildingBlock: GALJAG_clean_sbu_0, # of connection points: 4
#     Node 6, Type 0, BuildingBlock: GALJAG_clean_sbu_0, # of connection points: 4
#     Node 7, Type 0, BuildingBlock: GALJAG_clean_sbu_0, # of connection points: 4
#     Node 8, Type 0, BuildingBlock: GALJAG_clean_sbu_0, # of connection points: 4
#     Node 9, Type 0, BuildingBlock: GALJAG_clean_sbu_0, # of connection points: 4
#     Node 10, Type 0, BuildingBlock: GALJAG_clean_sbu_0, # of connection points: 4
#     Node 11, Type 0, BuildingBlock: GALJAG_clean_sbu_0, # of connection points: 4
#     Node 12, Type 0, BuildingBlock: GALJAG_clean_sbu_0, # of connection points: 4
#     Node 13, Type 0, BuildingBlock: GALJAG_clean_sbu_0, # of connection points: 4
#     Node 14, Type 0, BuildingBlock: GALJAG_clean_sbu_0, # of connection points: 4
#     Node 15, Type 0, BuildingBlock: GALJAG_clean_sbu_0, # of connection points: 4
#     Node 16, Type 0, BuildingBlock: GALJAG_clean_sbu_0, # of connection points: 4
#     Node 17, Type 0, BuildingBlock: GALJAG_clean_sbu_0, # of connection points: 4
#     Node 18, Type 0, BuildingBlock: GALJAG_clean_sbu_0, # of connection points: 4
#     Node 19, Type 0, BuildingBlock: GALJAG_clean_sbu_0, # of connection points: 4
#     Node 20, Type 0, BuildingBlock: GALJAG_clean_sbu_0, # of connection points: 4
#     Node 21, Type 0, BuildingBlock: GALJAG_clean_sbu_0, # of connection points: 4
#     Node 22, Type 0, BuildingBlock: GALJAG_clean_sbu_0, # of connection points: 4
#     Node 23, Type 0, BuildingBlock: GALJAG_clean_sbu_0, # of connection points: 4
#     Node 24, Type 0, BuildingBlock: GALJAG_clean_sbu_0, # of connection points: 4
#     Node 25, Type 0, BuildingBlock: GALJAG_clean_sbu_0, # of connection points: 4
#     Node 26, Type 0, BuildingBlock: GALJAG_clean_sbu_0, # of connection points: 4
#     Node 27, Type 0, BuildingBlock: GALJAG_clean_sbu_0, # of connection points: 4
#     Node 28, Type 0, BuildingBlock: GALJAG_clean_sbu_0, # of connection points: 4
#     Node 29, Type 0, BuildingBlock: GALJAG_clean_sbu_0, # of connection points: 4
#     Node 30, Type 0, BuildingBlock: GALJAG_clean_sbu_0, # of connection points: 4
#     Node 31, Type 0, BuildingBlock: GALJAG_clean_sbu_0, # of connection points: 4
#     Node 32, Type 0, BuildingBlock: GALJAG_clean_sbu_0, # of connection points: 4
#     Node 33, Type 0, BuildingBlock: GALJAG_clean_sbu_0, # of connection points: 4
#     Node 34, Type 0, BuildingBlock: GALJAG_clean_sbu_0, # of connection points: 4
#     Node 35, Type 0, BuildingBlock: GALJAG_clean_sbu_0, # of connection points: 4
#     Edge 36, Type (0, 0), BuildingBlock: KIFKEQ_clean_linker_1, # of connection points: 2
#     Edge 37, Type (0, 0), BuildingBlock: KIFKEQ_clean_linker_1, # of connection points: 2
#     Edge 38, Type (0, 0), BuildingBlock: KIFKEQ_clean_linker_1, # of connection points: 2
#     Edge 39, Type (0, 0), BuildingBlock: KIFKEQ_clean_linker_1, # of connection points: 2
#     Edge 40, Type (0, 0), BuildingBlock: KIFKEQ_clean_linker_1, # of connection points: 2
#     Edge 41, Type (0, 0), BuildingBlock: KIFKEQ_clean_linker_1, # of connection points: 2
#     Edge 42, Type (0, 0), BuildingBlock: KIFKEQ_clean_linker_1, # of connection points: 2
#     Edge 43, Type (0, 0), BuildingBlock: KIFKEQ_clean_linker_1, # of connection points: 2
#     Edge 44, Type (0, 0), BuildingBlock: KIFKEQ_clean_linker_1, # of connection points: 2
#     Edge 45, Type (0, 0), BuildingBlock: KIFKEQ_clean_linker_1, # of connection points: 2
#     Edge 46, Type (0, 0), BuildingBlock: KIFKEQ_clean_linker_1, # of connection points: 2
#     Edge 47, Type (0, 0), BuildingBlock: KIFKEQ_clean_linker_1, # of connection points: 2
#     Edge 48, Type (0, 0), BuildingBlock: KIFKEQ_clean_linker_1, # of connection points: 2
#     Edge 49, Type (0, 0), BuildingBlock: KIFKEQ_clean_linker_1, # of connection points: 2
#     Edge 50, Type (0, 0), BuildingBlock: KIFKEQ_clean_linker_1, # of connection points: 2
#     Edge 51, Type (0, 0), BuildingBlock: KIFKEQ_clean_linker_1, # of connection points: 2
#     Edge 52, Type (0, 0), BuildingBlock: KIFKEQ_clean_linker_1, # of connection points: 2
#     Edge 53, Type (0, 0), BuildingBlock: KIFKEQ_clean_linker_1, # of connection points: 2
#     Edge 54, Type (0, 0), BuildingBlock: KIFKEQ_clean_linker_1, # of connection points: 2
#     Edge 55, Type (0, 0), BuildingBlock: KIFKEQ_clean_linker_1, # of connection points: 2
#     Edge 56, Type (0, 0), BuildingBlock: KIFKEQ_clean_linker_1, # of connection points: 2
#     Edge 57, Type (0, 0), BuildingBlock: KIFKEQ_clean_linker_1, # of connection points: 2
#     Edge 58, Type (0, 0), BuildingBlock: KIFKEQ_clean_linker_1, # of connection points: 2
#     Edge 59, Type (0, 0), BuildingBlock: KIFKEQ_clean_linker_1, # of connection points: 2
#     Edge 60, Type (0, 0), BuildingBlock: KIFKEQ_clean_linker_1, # of connection points: 2
#     Edge 61, Type (0, 0), BuildingBlock: KIFKEQ_clean_linker_1, # of connection points: 2
#     Edge 62, Type (0, 0), BuildingBlock: KIFKEQ_clean_linker_1, # of connection points: 2
#     Edge 63, Type (0, 0), BuildingBlock: KIFKEQ_clean_linker_1, # of connection points: 2
#     Edge 64, Type (0, 0), BuildingBlock: KIFKEQ_clean_linker_1, # of connection points: 2
#     Edge 65, Type (0, 0), BuildingBlock: KIFKEQ_clean_linker_1, # of connection points: 2
#     Edge 66, Type (0, 0), BuildingBlock: KIFKEQ_clean_linker_1, # of connection points: 2
#     Edge 67, Type (0, 0), BuildingBlock: KIFKEQ_clean_linker_1, # of connection points: 2
#     Edge 68, Type (0, 0), BuildingBlock: KIFKEQ_clean_linker_1, # of connection points: 2
#     Edge 69, Type (0, 0), BuildingBlock: KIFKEQ_clean_linker_1, # of connection points: 2
#     Edge 70, Type (0, 0), BuildingBlock: KIFKEQ_clean_linker_1, # of connection points: 2
#     Edge 71, Type (0, 0), BuildingBlock: KIFKEQ_clean_linker_1, # of connection points: 2
#     Edge 72, Type (0, 0), BuildingBlock: KIFKEQ_clean_linker_1, # of connection points: 2
#     Edge 73, Type (0, 0), BuildingBlock: KIFKEQ_clean_linker_1, # of connection points: 2
#     Edge 74, Type (0, 0), BuildingBlock: KIFKEQ_clean_linker_1, # of connection points: 2
#     Edge 75, Type (0, 0), BuildingBlock: KIFKEQ_clean_linker_1, # of connection points: 2
#     Edge 76, Type (0, 0), BuildingBlock: KIFKEQ_clean_linker_1, # of connection points: 2
#     Edge 77, Type (0, 0), BuildingBlock: KIFKEQ_clean_linker_1, # of connection points: 2
#     Edge 78, Type (0, 0), BuildingBlock: KIFKEQ_clean_linker_1, # of connection points: 2
#     Edge 79, Type (0, 0), BuildingBlock: KIFKEQ_clean_linker_1, # of connection points: 2
#     Edge 80, Type (0, 0), BuildingBlock: KIFKEQ_clean_linker_1, # of connection points: 2
#     Edge 81, Type (0, 0), BuildingBlock: KIFKEQ_clean_linker_1, # of connection points: 2
#     Edge 82, Type (0, 0), BuildingBlock: KIFKEQ_clean_linker_1, # of connection points: 2
#     Edge 83, Type (0, 0), BuildingBlock: KIFKEQ_clean_linker_1, # of connection points: 2
#     Edge 84, Type (0, 0), BuildingBlock: KIFKEQ_clean_linker_1, # of connection points: 2
#     Edge 85, Type (0, 0), BuildingBlock: KIFKEQ_clean_linker_1, # of connection points: 2
#     Edge 86, Type (0, 0), BuildingBlock: KIFKEQ_clean_linker_1, # of connection points: 2
#     Edge 87, Type (0, 0), BuildingBlock: KIFKEQ_clean_linker_1, # of connection points: 2
#     Edge 88, Type (0, 0), BuildingBlock: KIFKEQ_clean_linker_1, # of connection points: 2
#     Edge 89, Type (0, 0), BuildingBlock: KIFKEQ_clean_linker_1, # of connection points: 2
#     Edge 90, Type (0, 0), BuildingBlock: KIFKEQ_clean_linker_1, # of connection points: 2
#     Edge 91, Type (0, 0), BuildingBlock: KIFKEQ_clean_linker_1, # of connection points: 2
#     Edge 92, Type (0, 0), BuildingBlock: KIFKEQ_clean_linker_1, # of connection points: 2
#     Edge 93, Type (0, 0), BuildingBlock: KIFKEQ_clean_linker_1, # of connection points: 2
#     Edge 94, Type (0, 0), BuildingBlock: KIFKEQ_clean_linker_1, # of connection points: 2
#     Edge 95, Type (0, 0), BuildingBlock: KIFKEQ_clean_linker_1, # of connection points: 2
#     Edge 96, Type (0, 0), BuildingBlock: KIFKEQ_clean_linker_1, # of connection points: 2
#     Edge 97, Type (0, 0), BuildingBlock: KIFKEQ_clean_linker_1, # of connection points: 2
#     Edge 98, Type (0, 0), BuildingBlock: KIFKEQ_clean_linker_1, # of connection points: 2
#     Edge 99, Type (0, 0), BuildingBlock: KIFKEQ_clean_linker_1, # of connection points: 2
#     Edge 100, Type (0, 0), BuildingBlock: KIFKEQ_clean_linker_1, # of connection points: 2
#     Edge 101, Type (0, 0), BuildingBlock: KIFKEQ_clean_linker_1, # of connection points: 2
#     Edge 102, Type (0, 0), BuildingBlock: KIFKEQ_clean_linker_1, # of connection points: 2
#     Edge 103, Type (0, 0), BuildingBlock: KIFKEQ_clean_linker_1, # of connection points: 2
#     Edge 104, Type (0, 0), BuildingBlock: KIFKEQ_clean_linker_1, # of connection points: 2
#     Edge 105, Type (0, 0), BuildingBlock: KIFKEQ_clean_linker_1, # of connection points: 2
#     Edge 106, Type (0, 0), BuildingBlock: KIFKEQ_clean_linker_1, # of connection points: 2
#     Edge 107, Type (0, 0), BuildingBlock: KIFKEQ_clean_linker_1, # of connection points: 2
# Relax obj value: 0.191
# Max RMSD: 0.184
# Mean RMSD: 0.184
data_MOF--net-umn--node1-GALJAG_clean_sbu_0--edge1-KIFKEQ_clean_linker_1
_symmetry_space_group_name_H-M    P1
_symmetry_Int_Tables_number       1
_symmetry_cell_setting            triclinic
loop_
_symmetry_equiv_pos_as_xyz
'x, y, z'
_cell_length_a     85.707489
_cell_length_b     85.69161
_cell_length_c     37.022458
_cell_angle_alpha  90.005479
_cell_angle_beta   89.971722
_cell_angle_gamma 120.00477
loop_
_atom_site_label
_atom_site_type_symbol
_atom_site_fract_x
_atom_site_fract_y
_atom_site_fract_z
_atom_type_partial_charge
In0 In 0.35915 0.09732 0.23147 0.0
O1 O 0.36638 0.10423 0.29174 0.0
O2 O 0.33889 0.09209 0.27478 0.0
C3 C 0.38563 0.10326 0.18474 0.0
C4 C 0.35089 0.12168 0.20844 0.0
C5 C 0.34363 0.06161 0.23204 0.0
O6 O 0.38872 0.1059 0.21844 0.0
O7 O 0.36969 0.09845 0.17542 0.0
O8 O 0.33624 0.0695 0.21677 0.0
O9 O 0.35893 0.07183 0.24574 0.0
C10 C 0.34996 0.09805 0.30062 0.0
O11 O 0.34198 0.10527 0.19906 0.0
O12 O 0.36436 0.12585 0.22865 0.0
In13 In 0.88853 0.25906 0.23181 0.0
O14 O 0.88081 0.25776 0.29196 0.0
O15 O 0.89618 0.24569 0.27453 0.0
C16 C 0.88164 0.27923 0.18586 0.0
C17 C 0.86515 0.22591 0.2097 0.0
C18 C 0.92401 0.28058 0.2327 0.0
O19 O 0.87912 0.27953 0.21965 0.0
O20 O 0.88678 0.26841 0.17612 0.0
O21 O 0.91667 0.26628 0.21394 0.0
O22 O 0.91334 0.28414 0.24956 0.0
C23 C 0.88898 0.2493 0.30054 0.0
O24 O 0.88158 0.23385 0.20039 0.0
O25 O 0.86048 0.235 0.22932 0.0
In26 In 0.72638 0.62841 0.23139 0.0
O27 O 0.75161 0.6463 0.1995 0.0
O28 O 0.75068 0.62479 0.23072 0.0
C29 C 0.70566 0.64332 0.22809 0.0
C30 C 0.73485 0.63767 0.30109 0.0
C31 C 0.70645 0.60091 0.18607 0.0
O32 O 0.72122 0.65081 0.21401 0.0
O33 O 0.70053 0.62816 0.24257 0.0
O34 O 0.70548 0.5986 0.22009 0.0
O35 O 0.71785 0.6166 0.17581 0.0
C36 C 0.75968 0.63816 0.21016 0.0
O37 O 0.72725 0.62123 0.29134 0.0
O38 O 0.73803 0.64876 0.27589 0.0
In39 In 0.0914 0.35792 0.29002 0.0
O40 O 0.10142 0.36533 0.23111 0.0
O41 O 0.08535 0.33764 0.24641 0.0
C42 C 0.09694 0.38439 0.33647 0.0
C43 C 0.1135 0.34732 0.31604 0.0
C44 C 0.05605 0.34436 0.28479 0.0
O45 O 0.10042 0.38763 0.30301 0.0
O46 O 0.09144 0.36829 0.34575 0.0
O47 O 0.06269 0.3374 0.3055 0.0
O48 O 0.0673 0.35837 0.26804 0.0
C49 C 0.09351 0.34884 0.22146 0.0
O50 O 0.09657 0.33806 0.32003 0.0
O51 O 0.11926 0.36221 0.29973 0.0
In52 In 0.62508 0.73002 0.29192 0.0
O53 O 0.61638 0.72955 0.23254 0.0
O54 O 0.644 0.74613 0.24743 0.0
C55 C 0.59947 0.70952 0.34027 0.0
C56 C 0.63474 0.76254 0.31783 0.0
C57 C 0.6403 0.70959 0.28685 0.0
O58 O 0.59557 0.70987 0.30725 0.0
O59 O 0.61585 0.71971 0.34818 0.0
O60 O 0.64781 0.72442 0.30378 0.0
O61 O 0.62497 0.70498 0.27384 0.0
C62 C 0.63244 0.74049 0.22251 0.0
O63 O 0.64432 0.75523 0.32195 0.0
O64 O 0.61992 0.75312 0.30144 0.0
In65 In 0.25631 0.89431 0.29123 0.0
O66 O 0.25467 0.88516 0.23168 0.0
O67 O 0.2435 0.9016 0.2468 0.0
C68 C 0.2767 0.88807 0.33783 0.0
C69 C 0.22339 0.87153 0.31552 0.0
C70 C 0.27747 0.9299 0.29054 0.0
O71 O 0.27713 0.88551 0.30409 0.0
O72 O 0.26566 0.89299 0.34727 0.0
O73 O 0.26242 0.92239 0.30674 0.0
O74 O 0.28193 0.91935 0.27604 0.0
C75 C 0.24664 0.89357 0.2218 0.0
O76 O 0.23104 0.88833 0.32125 0.0
O77 O 0.23262 0.86619 0.29825 0.0
In78 In 0.62689 0.89358 0.79449 0.0
O79 O 0.61916 0.88523 0.73463 0.0
O80 O 0.64681 0.90143 0.74943 0.0
C81 C 0.60006 0.88679 0.84112 0.0
C82 C 0.63726 0.87068 0.81705 0.0
C83 C 0.64159 0.92921 0.79666 0.0
O84 O 0.59714 0.88437 0.80735 0.0
O85 O 0.61603 0.89179 0.85055 0.0
O86 O 0.64899 0.92128 0.81169 0.0
O87 O 0.62659 0.91903 0.78172 0.0
C88 C 0.63554 0.89372 0.72445 0.0
O89 O 0.64633 0.88742 0.82331 0.0
O90 O 0.62261 0.86542 0.80016 0.0
In91 In 0.09274 0.72758 0.79296 0.0
O92 O 0.09832 0.7527 0.82308 0.0
O93 O 0.12064 0.75182 0.79912 0.0
C94 C 0.05715 0.70629 0.79486 0.0
C95 C 0.09261 0.73671 0.72337 0.0
C96 C 0.09993 0.7073 0.838 0.0
O97 O 0.06491 0.72147 0.8105 0.0
O98 O 0.06748 0.70176 0.77961 0.0
O99 O 0.10174 0.70675 0.80402 0.0
O100 O 0.09538 0.71847 0.84843 0.0
C101 C 0.11507 0.76077 0.81672 0.0
O102 O 0.10168 0.72937 0.73317 0.0
O103 O 0.08433 0.73943 0.74848 0.0
In104 In 0.25754 0.3643 0.79114 0.0
O105 O 0.25825 0.37106 0.73044 0.0
O106 O 0.24235 0.3438 0.74828 0.0
C107 C 0.27829 0.39159 0.83616 0.0
C108 C 0.22506 0.35646 0.81425 0.0
C109 C 0.27695 0.34791 0.79354 0.0
O110 O 0.27878 0.39406 0.80222 0.0
O111 O 0.26706 0.37586 0.84646 0.0
O112 O 0.26154 0.34108 0.80812 0.0
O113 O 0.28256 0.36311 0.7789 0.0
C114 C 0.24774 0.35463 0.72204 0.0
O115 O 0.23261 0.34774 0.82446 0.0
O116 O 0.2342 0.36953 0.79305 0.0
In117 In 0.8902 0.62693 0.73176 0.0
O118 O 0.88256 0.64414 0.69859 0.0
O119 O 0.86176 0.62175 0.72788 0.0
C120 C 0.9258 0.64179 0.73445 0.0
C121 C 0.88906 0.63647 0.80043 0.0
C122 C 0.88449 0.60053 0.68505 0.0
O123 O 0.9184 0.64945 0.71828 0.0
O124 O 0.91516 0.62653 0.74791 0.0
O125 O 0.88122 0.59727 0.71858 0.0
O126 O 0.88989 0.61663 0.67587 0.0
C127 C 0.86608 0.63521 0.70753 0.0
O128 O 0.88278 0.61998 0.79192 0.0
O129 O 0.8953 0.64744 0.77443 0.0
In130 In 0.35523 0.25861 0.73199 0.0
O131 O 0.36404 0.25818 0.79096 0.0
O132 O 0.33637 0.24193 0.77612 0.0
C133 C 0.38102 0.27961 0.68428 0.0
C134 C 0.34522 0.22637 0.70413 0.0
C135 C 0.34012 0.27906 0.7387 0.0
O136 O 0.38485 0.27876 0.71714 0.0
O137 O 0.36462 0.26966 0.67619 0.0
O138 O 0.33263 0.26448 0.72092 0.0
O139 O 0.35535 0.28341 0.75187 0.0
C140 C 0.34799 0.24712 0.80089 0.0
O141 O 0.33572 0.23383 0.70106 0.0
O142 O 0.36012 0.23553 0.72037 0.0
In143 In 0.72639 0.09674 0.73231 0.0
O144 O 0.751 0.10182 0.70109 0.0
O145 O 0.74926 0.12467 0.71935 0.0
C146 C 0.70708 0.06103 0.73942 0.0
C147 C 0.73735 0.10195 0.80172 0.0
C148 C 0.70555 0.10152 0.6842 0.0
O149 O 0.72192 0.06858 0.72258 0.0
O150 O 0.70195 0.07149 0.75147 0.0
O151 O 0.70691 0.10695 0.71661 0.0
O152 O 0.7148 0.09422 0.67682 0.0
C153 C 0.75836 0.11881 0.70322 0.0
O154 O 0.72406 0.10361 0.79185 0.0
O155 O 0.74514 0.09856 0.77668 0.0
In156 In 0.02305 0.42773 0.56857 0.0
O157 O 0.00339 0.43274 0.53769 0.0
O158 O 0.02818 0.45562 0.55505 0.0
C159 C 0.00719 0.39238 0.57988 0.0
C160 C 0.01692 0.43359 0.63711 0.0
C161 C 0.04779 0.43101 0.51962 0.0
O162 O -0.00013 0.3992 0.56078 0.0
O163 O 0.02271 0.40335 0.59168 0.0
O164 O 0.05234 0.43674 0.55175 0.0
O165 O 0.03121 0.42415 0.51288 0.0
C166 C 0.01307 0.44974 0.53952 0.0
O167 O 0.03266 0.43748 0.62696 0.0
O168 O 0.00515 0.42762 0.61261 0.0
In169 In 0.55639 0.59273 0.56978 0.0
O170 O 0.5509 0.56785 0.53902 0.0
O171 O 0.5283 0.56981 0.55815 0.0
C172 C 0.59194 0.6129 0.57674 0.0
C173 C 0.55231 0.58047 0.63791 0.0
C174 C 0.55166 0.61419 0.52327 0.0
O175 O 0.58488 0.59966 0.55519 0.0
O176 O 0.58107 0.61616 0.59355 0.0
O177 O 0.54741 0.61344 0.5564 0.0
O178 O 0.55768 0.60397 0.51443 0.0
C179 C 0.53395 0.56054 0.54197 0.0
O180 O 0.54727 0.59162 0.62896 0.0
O181 O 0.55865 0.57552 0.61251 0.0
In182 In 0.39422 0.9616 0.56909 0.0
O183 O 0.38998 0.95149 0.62809 0.0
O184 O 0.4139 0.97586 0.61432 0.0
C185 C 0.37202 0.93646 0.52116 0.0
C186 C 0.42621 0.97121 0.5402 0.0
C187 C 0.37804 0.98107 0.57805 0.0
O188 O 0.37362 0.9321 0.55314 0.0
O189 O 0.38156 0.95301 0.51418 0.0
O190 O 0.39104 0.98589 0.55631 0.0
O191 O 0.37301 0.96633 0.59401 0.0
C192 C 0.40449 0.96506 0.63885 0.0
O193 O 0.41951 0.98144 0.54023 0.0
O194 O 0.41646 0.95577 0.55416 0.0
In195 In 0.75984 0.69293 0.62745 0.0
O196 O 0.76858 0.70017 0.56778 0.0
O197 O 0.7526 0.67257 0.58355 0.0
C198 C 0.76644 0.7198 0.67372 0.0
C199 C 0.78227 0.68214 0.6508 0.0
C200 C 0.72433 0.67906 0.6264 0.0
O201 O 0.76928 0.72277 0.64004 0.0
O202 O 0.76111 0.70377 0.68324 0.0
O203 O 0.73165 0.67228 0.64572 0.0
O204 O 0.73502 0.69306 0.60894 0.0
C205 C 0.76031 0.68367 0.55825 0.0
O206 O 0.76543 0.67307 0.65619 0.0
O207 O 0.78783 0.697 0.63447 0.0
In208 In 0.29203 0.06354 0.62432 0.0
O209 O 0.28452 0.06241 0.56408 0.0
O210 O 0.31169 0.07996 0.58096 0.0
C211 C 0.26538 0.04193 0.67008 0.0
C212 C 0.29947 0.0959 0.64761 0.0
C213 C 0.30994 0.04562 0.62294 0.0
O214 O 0.26241 0.04198 0.63646 0.0
O215 O 0.2813 0.05289 0.6797 0.0
O216 O 0.31522 0.05962 0.64208 0.0
O217 O 0.29539 0.04047 0.60597 0.0
C218 C 0.30064 0.07379 0.55511 0.0
O219 O 0.30884 0.08885 0.65645 0.0
O220 O 0.28594 0.0863 0.6278 0.0
In221 In 0.92273 0.22534 0.62626 0.0
O222 O 0.89731 0.21737 0.6579 0.0
O223 O 0.89823 0.19739 0.62474 0.0
C224 C 0.9423 0.26085 0.63552 0.0
C225 C 0.91564 0.22767 0.55613 0.0
C226 C 0.94328 0.21745 0.66924 0.0
O227 O 0.92631 0.25184 0.64724 0.0
O228 O 0.94833 0.25181 0.62009 0.0
O229 O 0.94473 0.21767 0.63508 0.0
O230 O 0.93092 0.22008 0.68069 0.0
C231 C 0.88917 0.20141 0.64589 0.0
O232 O 0.92235 0.21803 0.56584 0.0
O233 O 0.91273 0.23569 0.5815 0.0
In234 In 0.29256 0.22671 0.12464 0.0
O235 O 0.31268 0.22193 0.15452 0.0
O236 O 0.2883 0.19895 0.13585 0.0
C237 C 0.30604 0.26202 0.11774 0.0
C238 C 0.30101 0.2233 0.05629 0.0
C239 C 0.26646 0.22108 0.17217 0.0
O240 O 0.31312 0.25562 0.13872 0.0
O241 O 0.29203 0.25058 0.10136 0.0
O242 O 0.26277 0.21663 0.13917 0.0
O243 O 0.28286 0.22771 0.18041 0.0
C244 C 0.30337 0.20495 0.15155 0.0
O245 O 0.28466 0.21726 0.06562 0.0
O246 O 0.31237 0.23036 0.08142 0.0
In247 In 0.75889 0.06398 0.11781 0.0
O248 O 0.76523 0.06039 0.05872 0.0
O249 O 0.76357 0.08363 0.07295 0.0
C250 C 0.76179 0.04178 0.16578 0.0
C251 C 0.78128 0.09593 0.14684 0.0
C252 C 0.72329 0.04721 0.10838 0.0
O253 O 0.76788 0.04347 0.13386 0.0
O254 O 0.7547 0.05125 0.17269 0.0
O255 O 0.73117 0.06021 0.13023 0.0
O256 O 0.73328 0.04248 0.09259 0.0
C257 C 0.76552 0.07464 0.04825 0.0
O258 O 0.76434 0.08922 0.14692 0.0
O259 O 0.78696 0.0862 0.13272 0.0
In260 In 0.92224 0.6927 0.12468 0.0
O261 O 0.89702 0.67391 0.15501 0.0
O262 O 0.89934 0.69826 0.13376 0.0
C263 C 0.94169 0.67635 0.1226 0.0
C264 C 0.91203 0.68523 0.05506 0.0
C265 C 0.94314 0.71872 0.17207 0.0
O266 O 0.9267 0.66947 0.13883 0.0
O267 O 0.94691 0.69159 0.10847 0.0
O268 O 0.94294 0.72229 0.1388 0.0
O269 O 0.93259 0.70251 0.18067 0.0
C270 C 0.88984 0.68358 0.15056 0.0
O271 O 0.92322 0.70124 0.06493 0.0
O272 O 0.90608 0.67379 0.08019 0.0
In273 In 0.55497 0.96086 0.06377 0.0
O274 O 0.54755 0.95414 0.12404 0.0
O275 O 0.56169 0.98163 0.10672 0.0
C276 C 0.54936 0.93351 0.01956 0.0
C277 C 0.53046 0.96907 0.04139 0.0
C278 C 0.59075 0.97778 0.0628 0.0
O279 O 0.54749 0.93127 0.05356 0.0
O280 O 0.55321 0.94899 1.0088 0.0
O281 O 0.58208 0.98329 0.04409 0.0
O282 O 0.58128 0.96346 0.08047 0.0
C283 C 0.555 0.97073 0.1327 0.0
O284 O 0.54678 0.9779 0.03154 0.0
O285 O 0.52641 0.95569 0.06171 0.0
In286 In 0.0253 0.59137 0.06823 0.0
O287 O 0.00516 0.56633 0.0391 0.0
O288 O 0.03001 0.56818 0.05576 0.0
C289 C 0.00811 0.61004 0.07335 0.0
C290 C 0.02091 0.58183 0.13858 0.0
C291 C 0.05086 0.61174 0.01943 0.0
O292 O 0.00112 0.59494 0.05761 0.0
O293 O 0.02378 0.61571 0.08547 0.0
O294 O 0.05497 0.61067 0.05194 0.0
O295 O 0.03431 0.60237 0.01223 0.0
C296 C 0.01472 0.5589 0.04094 0.0
O297 O 0.03527 0.59549 0.12749 0.0
O298 O 0.00968 0.57298 0.11429 0.0
In299 In 0.39291 0.42926 0.06351 0.0
O300 O 0.39523 0.43862 0.1229 0.0
O301 O 0.4055 0.42141 0.10743 0.0
C302 C 0.37357 0.43694 0.01695 0.0
C303 C 0.42628 0.45071 0.03991 0.0
C304 C 0.37017 0.39396 0.06501 0.0
O305 O 0.37344 0.43982 0.05062 0.0
O306 O 0.38376 0.43095 1.00763 0.0
O307 O 0.38421 0.40078 0.04552 0.0
O308 O 0.36745 0.40505 0.08249 0.0
C309 C 0.40288 0.4298 0.13252 0.0
O310 O 0.41807 0.43384 0.03483 0.0
O311 O 0.41738 0.45677 0.05604 0.0
In312 In 0.69021 0.76103 0.89881 0.0
O313 O 0.67347 0.76915 0.86529 0.0
O314 O 0.69564 0.78959 0.89555 0.0
C315 C 0.67438 0.72527 0.89931 0.0
C316 C 0.68076 0.76207 0.96765 0.0
C317 C 0.71715 0.76708 0.85319 0.0
O318 O 0.66721 0.7333 0.88376 0.0
O319 O 0.68961 0.73537 0.91338 0.0
O320 O 0.71996 0.76983 0.88693 0.0
O321 O 0.70122 0.76198 0.84331 0.0
C322 C 0.68242 0.78554 0.87472 0.0
O323 O 0.69717 0.76799 0.95911 0.0
O324 O 0.6698 0.75616 0.94163 0.0
In325 In 0.22134 0.92471 0.89603 0.0
O326 O 0.21394 0.89956 0.86403 0.0
O327 O 0.19314 0.90083 0.89383 0.0
C328 C 0.25699 0.9451 0.89586 0.0
C329 C 0.22148 0.91499 0.965 0.0
C330 C 0.21498 0.94545 0.85053 0.0
O331 O 0.24904 0.93071 0.8775 0.0
O332 O 0.24687 0.94934 0.9129 0.0
O333 O 0.2129 0.94599 0.88442 0.0
O334 O 0.21941 0.93413 0.84052 0.0
C335 C 0.19757 0.89174 0.87365 0.0
O336 O 0.21336 0.92345 0.95605 0.0
O337 O 0.22883 0.91139 0.93927 0.0
In338 In 0.06069 0.29646 0.8933 0.0
O339 O 0.08583 0.31652 0.86381 0.0
O340 O 0.08501 0.29305 0.8861 0.0
C341 C 0.03913 0.31046 0.89327 0.0
C342 C 0.06986 0.30482 0.96317 0.0
C343 C 0.04073 0.26958 0.84674 0.0
O344 O 0.05429 0.31818 0.87753 0.0
O345 O 0.03476 0.29548 0.90781 0.0
O346 O 0.0405 0.2666 0.88043 0.0
O347 O 0.05138 0.28564 0.83734 0.0
C348 C 0.09395 0.30782 0.86932 0.0
O349 O 0.06239 0.28852 0.95252 0.0
O350 O 0.07262 0.31615 0.93875 0.0
In351 In 0.42495 0.02605 0.95419 0.0
O352 O 0.43245 0.03529 0.89495 0.0
O353 O 0.4274 0.00917 0.9105 0.0
C354 C 0.42927 0.05183 1.0016 0.0
C355 C 0.44679 0.01586 0.98334 0.0
C356 C 0.38935 0.00919 0.94517 0.0
O357 O 0.43489 0.05582 0.9693 0.0
O358 O 0.42191 0.0353 1.00915 0.0
O359 O 0.39661 0.00338 0.96705 0.0
O360 O 0.4 0.02363 0.92907 0.0
C361 C 0.43099 0.02037 0.88537 0.0
O362 O 0.42979 0.00603 0.98417 0.0
O363 O 0.45276 0.03114 0.96851 0.0
In364 In 0.95746 0.39567 0.95836 0.0
O365 O 0.97471 0.42033 0.9919 0.0
O366 O 0.95244 0.41902 0.96271 0.0
C367 C 0.97251 0.37511 0.95509 0.0
C368 C 0.9674 0.40707 0.89021 0.0
C369 C 0.93089 0.375 1.00477 0.0
O370 O 0.97992 0.38998 0.97193 0.0
O371 O 0.95733 0.37051 0.94128 0.0
O372 O 0.9277 0.37515 0.97124 0.0
O373 O 0.94702 0.38549 0.01402 0.0
C374 C 0.96592 0.42803 0.98308 0.0
O375 O 0.95086 0.3967 0.89818 0.0
O376 O 0.97819 0.41152 0.91644 0.0
In377 In 0.58927 0.55746 0.95881 0.0
O378 O 0.58885 0.55006 0.89867 0.0
O379 O 0.57287 0.56136 0.91662 0.0
C380 C 0.61047 0.55242 1.0053 0.0
C381 C 0.55728 0.53296 0.98413 0.0
C382 C 0.60894 0.59317 0.95532 0.0
O383 O 0.61031 0.54892 0.97185 0.0
O384 O 0.59976 0.55781 0.01442 0.0
O385 O 0.59404 0.58537 0.97204 0.0
O386 O 0.61399 0.58289 0.94174 0.0
C387 C 0.57795 0.55554 0.89047 0.0
O388 O 0.5646 0.54946 0.99272 0.0
O389 O 0.56644 0.5288 0.96351 0.0
In390 In 0.95892 0.55808 0.45565 0.0
O391 O 0.97613 0.55032 0.48833 0.0
O392 O 0.953 0.52941 0.461 0.0
C393 C 0.97549 0.59385 0.45171 0.0
C394 C 0.9666 0.55537 0.38635 0.0
C395 C 0.93298 0.55304 0.50314 0.0
O396 O 0.98266 0.58594 0.46771 0.0
O397 O 0.95995 0.58367 0.43907 0.0
O398 O 0.92932 0.54896 0.46999 0.0
O399 O 0.94926 0.559 0.51158 0.0
C400 C 0.96674 0.53374 0.4805 0.0
O401 O 0.95096 0.55218 0.39549 0.0
O402 O 0.97762 0.55925 0.41197 0.0
In403 In 0.42598 0.39744 0.45878 0.0
O404 O 0.4335 0.4225 0.49129 0.0
O405 O 0.45421 0.42124 0.46111 0.0
C406 C 0.39031 0.37693 0.45901 0.0
C407 C 0.42608 0.40685 0.38947 0.0
C408 C 0.4321 0.37658 0.50436 0.0
O409 O 0.39815 0.39222 0.47433 0.0
O410 O 0.40057 0.37199 0.44496 0.0
O411 O 0.43424 0.37609 0.47047 0.0
O412 O 0.4278 0.38799 0.51446 0.0
C413 C 0.44986 0.43032 0.4815 0.0
O414 O 0.43426 0.39854 0.39893 0.0
O415 O 0.41848 0.41036 0.41483 0.0
In416 In 0.58989 0.02852 0.45772 0.0
O417 O 0.56476 0.01039 0.48963 0.0
O418 O 0.56544 0.0319 0.45883 0.0
C419 C 0.611 0.01405 0.45991 0.0
C420 C 0.58122 0.01892 0.38826 0.0
C421 C 0.60997 0.05605 0.50283 0.0
O422 O 0.59561 0.00645 0.47477 0.0
O423 O 0.61579 0.02914 0.44541 0.0
O424 O 0.6108 0.05833 0.46881 0.0
O425 O 0.59857 0.04039 0.51324 0.0
C426 C 0.55653 0.01841 0.47918 0.0
O427 O 0.58855 0.03539 0.39772 0.0
O428 O 0.57834 0.00799 0.41364 0.0
In429 In 0.2227 0.29411 0.40015 0.0
O430 O 0.21602 0.28704 0.46052 0.0
O431 O 0.22719 0.31436 0.443 0.0
C432 C 0.21716 0.26756 0.35393 0.0
C433 C 0.19807 0.30177 0.37621 0.0
C434 C 0.25844 0.3101 0.40165 0.0
O435 O 0.21414 0.26449 0.38756 0.0
O436 O 0.22223 0.28355 0.34442 0.0
O437 O 0.25047 0.31726 0.38582 0.0
O438 O 0.24829 0.29477 0.41532 0.0
C439 C 0.22168 0.30341 0.46908 0.0
O440 O 0.21448 0.31084 0.36695 0.0
O441 O 0.19404 0.28847 0.39683 0.0
In442 In 0.68986 0.92619 0.39689 0.0
O443 O 0.69713 0.92513 0.45667 0.0
O444 O 0.6695 0.91369 0.44114 0.0
C445 C 0.71636 0.94641 0.34985 0.0
C446 C 0.68052 0.89309 0.37511 0.0
C447 C 0.67547 0.94735 0.39752 0.0
O448 O 0.71941 0.9471 0.3836 0.0
O449 O 0.70045 0.93511 0.3406 0.0
O450 O 0.6676 0.93204 0.38228 0.0
O451 O 0.69074 0.95201 0.41097 0.0
C452 C 0.68065 0.91711 0.46636 0.0
O453 O 0.67196 0.90088 0.3653 0.0
O454 O 0.69412 0.9023 0.39503 0.0
In455 In 0.06071 0.76173 0.39786 0.0
O456 O 0.06138 0.76927 0.45807 0.0
O457 O 0.07404 0.7544 0.44128 0.0
C458 C 0.03972 0.76784 0.35264 0.0
C459 C 0.09336 0.78621 0.37515 0.0
C460 C 0.04083 0.72601 0.39651 0.0
O461 O 0.03918 0.76981 0.38658 0.0
O462 O 0.05118 0.76363 0.34239 0.0
O463 O 0.05617 0.73425 0.38147 0.0
O464 O 0.0355 0.73591 0.41084 0.0
C465 C 0.07009 0.76143 0.46705 0.0
O466 O 0.08577 0.76994 0.3649 0.0
O467 O 0.0842 0.79017 0.39618 0.0
H468 H 0.31069 0.94867 0.2603 0.0
H469 H 0.26807 0.9551 0.30731 0.0
H470 H 0.32688 0.98048 0.24407 0.0
H471 H 0.28443 0.98707 0.29136 0.0
H472 H 0.30845 0.03697 0.21814 0.0
H473 H 0.29271 0.00491 0.23353 0.0
H474 H 0.34246 0.01032 0.274 0.0
H475 H 0.35818 0.04218 0.25835 0.0
C476 C 0.30491 0.95696 0.26759 0.0
C477 C 0.28814 0.94947 0.28503 0.0
C478 C 0.31418 0.97514 0.25831 0.0
C479 C 0.3068 0.98613 0.26618 0.0
C480 C 0.29025 0.97877 0.28449 0.0
C481 C 0.28101 0.96057 0.29397 0.0
C482 C 0.31603 0.03121 0.22985 0.0
C483 C 0.33449 0.042 0.23711 0.0
C484 C 0.30701 0.01296 0.23899 0.0
C485 C 0.31637 0.00525 0.25525 0.0
C486 C 0.33495 0.01593 0.26135 0.0
C487 C 0.34393 0.03415 0.25242 0.0
H488 H 0.04017 0.34949 0.22637 0.0
H489 H 0.02842 0.32014 0.32701 0.0
H490 H 0.00802 0.33432 0.21235 0.0
H491 H -0.00389 0.30532 0.31321 0.0
H492 H 0.94132 0.30383 0.28741 0.0
H493 H 0.97356 0.31966 0.30038 0.0
H494 H 0.98305 0.29747 0.20374 0.0
H495 H 0.95058 0.28111 0.19103 0.0
C496 C 0.03068 0.33995 0.24565 0.0
C497 C 0.03667 0.33597 0.27783 0.0
C498 C 0.01238 0.33124 0.23748 0.0
C499 C -0.00018 0.31873 0.26172 0.0
C500 C 0.00571 0.31499 0.29424 0.0
C501 C 0.02407 0.32341 0.30209 0.0
C502 C 0.95029 0.30245 0.26873 0.0
C503 C 0.94355 0.2913 0.23817 0.0
C504 C 0.96865 0.31139 0.27633 0.0
C505 C 0.98055 0.30961 0.2531 0.0
C506 C 0.97396 0.29895 0.22193 0.0
C507 C 0.9555 0.28966 0.2147 0.0
H508 H 0.71632 0.6784 0.21283 0.0
H509 H 0.67131 0.62882 0.25244 0.0
H510 H 0.70004 0.6943 0.22697 0.0
H511 H 0.6552 0.64472 0.26685 0.0
H512 H 0.62584 0.67683 0.25459 0.0
H513 H 0.64131 0.66067 0.23708 0.0
H514 H 0.69053 0.70264 0.28468 0.0
H515 H 0.67508 0.71899 0.30192 0.0
C516 C 0.70287 0.67087 0.22404 0.0
C517 C 0.69507 0.65242 0.23164 0.0
C518 C 0.69366 0.67999 0.23247 0.0
C519 C 0.67648 0.67075 0.24834 0.0
C520 C 0.6684 0.65214 0.25449 0.0
C521 C 0.67763 0.64306 0.24628 0.0
C522 C 0.63993 0.68254 0.26157 0.0
C523 C 0.64929 0.69914 0.27963 0.0
C524 C 0.64876 0.67329 0.25155 0.0
C525 C 0.66712 0.6805 0.25928 0.0
C526 C 0.67642 0.69695 0.27791 0.0
C527 C 0.66755 0.70618 0.28811 0.0
H528 H 0.67633 0.95381 0.81374 0.0
H529 H 0.62724 0.94882 0.77023 0.0
H530 H 0.69217 0.98606 0.80016 0.0
H531 H 0.64308 0.9809 0.75643 0.0
H532 H 0.67415 0.04224 0.77077 0.0
H533 H 0.6582 0.01053 0.78772 0.0
H534 H 0.70126 0.00429 0.74261 0.0
H535 H 0.71739 0.03618 0.72587 0.0
C536 C 0.6689 0.95966 0.80175 0.0
C537 C 0.6506 0.94888 0.79297 0.0
C538 C 0.67798 0.97802 0.79367 0.0
C539 C 0.66885 0.98586 0.77697 0.0
C540 C 0.65039 0.97519 0.76948 0.0
C541 C 0.64136 0.95685 0.77733 0.0
C542 C 0.68017 0.03408 0.76427 0.0
C543 C 0.69698 0.04161 0.74697 0.0
C544 C 0.67103 0.01595 0.77395 0.0
C545 C 0.67857 0.00505 0.76665 0.0
C546 C 0.6953 0.01252 0.74898 0.0
C547 C 0.70442 0.03067 0.73909 0.0
H548 H 0.03235 0.71616 0.81187 0.0
H549 H 0.03786 0.67265 0.76667 0.0
H550 H 0.00034 0.70008 0.79633 0.0
H551 H 0.006 0.65672 0.7509 0.0
H552 H 0.94425 0.62667 0.76308 0.0
H553 H 0.97591 0.64184 0.78024 0.0
H554 H 0.98299 0.69195 0.73783 0.0
H555 H 0.95115 0.67678 0.7209 0.0
C556 C 0.02666 0.70307 0.79911 0.0
C557 C 0.03752 0.69564 0.7904 0.0
C558 C 0.00844 0.69398 0.78987 0.0
C559 C 0.00082 0.67729 0.77206 0.0
C560 C 0.01154 0.66955 0.76472 0.0
C561 C 0.02975 0.67866 0.77374 0.0
C562 C 0.95261 0.64089 0.75708 0.0
C563 C 0.9453 0.65059 0.7407 0.0
C564 C 0.9707 0.64954 0.76689 0.0
C565 C 0.98179 0.66807 0.76064 0.0
C566 C 0.97461 0.6777 0.74343 0.0
C567 C 0.95649 0.669 0.7334 0.0
H568 H 0.35466 0.31151 0.77226 0.0
H569 H 0.30559 0.27025 0.7227 0.0
H570 H 0.33956 0.32814 0.78889 0.0
H571 H 0.2905 0.28706 0.73913 0.0
H572 H 0.2651 0.31259 0.80903 0.0
H573 H 0.28072 0.29587 0.79631 0.0
H574 H 0.32671 0.34468 0.75691 0.0
H575 H 0.31125 0.36137 0.76982 0.0
C576 C 0.34068 0.30608 0.76468 0.0
C577 C 0.33128 0.28963 0.74613 0.0
C578 C 0.33207 0.3156 0.77418 0.0
C579 C 0.31387 0.30881 0.76546 0.0
C580 C 0.30449 0.29244 0.7466 0.0
C581 C 0.31315 0.28294 0.73689 0.0
C582 C 0.27864 0.31976 0.79818 0.0
C583 C 0.28698 0.33823 0.79032 0.0
C584 C 0.28748 0.31018 0.79059 0.0
C585 C 0.30483 0.31899 0.77537 0.0
C586 C 0.31339 0.3376 0.76883 0.0
C587 C 0.30452 0.34712 0.77615 0.0
H588 H 0.9727 0.36653 0.56391 0.0
H589 H 0.02066 0.37531 0.62001 0.0
H590 H 0.95711 0.33507 0.58342 0.0
H591 H 0.00502 0.34401 0.63983 0.0
H592 H 0.97767 0.28229 0.6197 0.0
H593 H -0.00651 0.31465 0.60928 0.0
H594 H 0.94577 0.31647 0.63996 0.0
H595 H 0.9298 0.28388 0.65012 0.0
C596 C 0.97989 0.36172 0.58033 0.0
C597 C -0.00209 0.37326 0.59017 0.0
C598 C 0.97093 0.34381 0.59184 0.0
C599 C 0.97987 0.33719 0.61325 0.0
C600 C -0.00213 0.34877 0.62314 0.0
C601 C 0.0068 0.36665 0.61174 0.0
C602 C 0.97065 0.28964 0.62483 0.0
C603 C 0.95251 0.28063 0.63546 0.0
C604 C 0.97972 0.30816 0.61897 0.0
C605 C 0.97077 0.31798 0.6235 0.0
C606 C 0.95287 0.30911 0.63583 0.0
C607 C 0.94381 0.29055 0.64195 0.0
H608 H 0.60837 0.63301 0.63595 0.0
H609 H 0.6191 0.61557 0.53406 0.0
H610 H 0.6406 0.64926 0.6495 0.0
H611 H 0.65147 0.63227 0.54741 0.0
H612 H 0.70684 0.68471 0.57164 0.0
H613 H 0.67451 0.66853 0.55963 0.0
H614 H 0.66534 0.63761 0.65728 0.0
H615 H 0.69789 0.65352 0.66907 0.0
C616 C 0.61765 0.6328 0.61635 0.0
C617 C 0.61136 0.62315 0.58389 0.0
C618 C 0.63599 0.64196 0.62425 0.0
C619 C 0.6483 0.6419 0.59946 0.0
C620 C 0.64209 0.63246 0.56679 0.0
C621 C 0.62368 0.62295 0.55921 0.0
C622 C 0.69792 0.67457 0.59072 0.0
C623 C 0.70477 0.67033 0.62132 0.0
C624 C 0.67951 0.66527 0.58367 0.0
C625 C 0.66766 0.65187 0.60747 0.0
C626 C 0.67437 0.64796 0.63865 0.0
C627 C 0.69288 0.65701 0.64535 0.0
H628 H 0.33665 0.04764 0.66638 0.0
H629 H 0.30748 0.02393 0.56758 0.0
H630 H 0.35485 0.0332 0.65605 0.0
H631 H 0.32588 0.01 0.55702 0.0
H632 H 0.37766 0.00667 0.53491 0.0
H633 H 0.36211 0.02364 0.54691 0.0
H634 H 0.34445 -0.00278 0.65028 0.0
H635 H 0.35954 0.97998 0.63809 0.0
C636 C 0.33418 0.03939 0.64254 0.0
C637 C 0.32064 0.03675 0.6179 0.0
C638 C 0.34455 0.03121 0.63664 0.0
C639 C 0.34175 0.02071 0.60562 0.0
C640 C 0.32834 0.01823 0.5809 0.0
C641 C 0.31775 0.02604 0.58716 0.0
C642 C 0.37052 0.0046 0.56021 0.0
C643 C 0.36959 0.99196 0.58545 0.0
C644 C 0.36169 0.01426 0.56703 0.0
C645 C 0.35222 0.01166 0.5995 0.0
C646 C 0.3518 -0.00053 0.62521 0.0
C647 C 0.36029 0.98956 0.61808 0.0
H648 H 0.36808 0.367 0.02242 0.0
H649 H 0.34715 0.37711 0.12044 0.0
H650 H 0.3512 0.33457 0.03523 0.0
H651 H 0.33073 0.34485 0.13349 0.0
H652 H 0.3302 0.2899 0.15946 0.0
H653 H 0.34453 0.32215 0.14549 0.0
H654 H 0.31496 0.30974 0.04531 0.0
H655 H 0.30029 0.2776 0.0595 0.0
C656 C 0.35977 0.36227 0.04644 0.0
C657 C 0.35885 0.37446 0.07041 0.0
C658 C 0.35016 0.34382 0.05371 0.0
C659 C 0.33987 0.33745 0.08539 0.0
C660 C 0.33871 0.34959 0.10902 0.0
C661 C 0.34798 0.36796 0.1014 0.0
C662 C 0.32668 0.29411 0.13465 0.0
C663 C 0.31415 0.28138 0.1106 0.0
C664 C 0.33481 0.31246 0.12674 0.0
C665 C 0.33077 0.3182 0.09436 0.0
C666 C 0.31825 0.30549 0.07035 0.0
C667 C 0.30984 0.2872 0.07859 0.0
H668 H 0.61536 0.00451 0.01916 0.0
H669 H 0.61016 0.97488 0.11722 0.0
H670 H 0.64798 0.02286 0.02946 0.0
H671 H 0.64247 0.99344 0.12775 0.0
H672 H 0.6968 0.04602 0.15115 0.0
H673 H 0.66433 0.02986 0.1386 0.0
H674 H 0.67412 0.01305 0.03523 0.0
H675 H 0.70642 0.02875 0.04796 0.0
C676 C 0.6212 0.00193 0.04276 0.0
C677 C 0.61036 0.98826 0.06727 0.0
C678 C 0.63974 0.0124 0.04865 0.0
C679 C 0.64748 0.00956 0.07954 0.0
C680 C 0.63665 -0.00407 0.10398 0.0
C681 C 0.61826 0.98524 0.09773 0.0
C682 C 0.69197 0.03894 0.12573 0.0
C683 C 0.70396 0.03842 0.10065 0.0
C684 C 0.67351 0.02975 0.11861 0.0
C685 C 0.66695 0.02035 0.08599 0.0
C686 C 0.67899 0.02035 0.06043 0.0
C687 C 0.69737 0.02918 0.06786 0.0
H688 H 0.93108 0.64154 0.14036 0.0
H689 H 0.97501 0.68974 0.09351 0.0
H690 H 0.94723 0.62531 0.12792 0.0
H691 H 0.99099 0.67352 0.08088 0.0
H692 H 0.0217 0.64347 0.10192 0.0
H693 H 0.00557 0.65942 0.11553 0.0
H694 H 0.95669 0.61503 0.07216 0.0
H695 H 0.97284 0.59888 0.05876 0.0
C696 C 0.94422 0.64867 0.1277 0.0
C697 C 0.95184 0.66686 0.11792 0.0
C698 C 0.95336 0.63936 0.1203 0.0
C699 C 0.97027 0.64818 0.10332 0.0
C700 C 0.97801 0.66647 0.09424 0.0
C701 C 0.96886 0.67572 0.10142 0.0
C702 C 0.00753 0.63714 0.09511 0.0
C703 C -0.00151 0.61997 0.07924 0.0
C704 C -0.00166 0.64629 0.10283 0.0
C705 C 0.97992 0.6384 0.09497 0.0
C706 C 0.97087 0.62128 0.07885 0.0
C707 C 0.98012 0.61214 0.07091 0.0
H708 H 0.64191 0.61243 0.92441 0.0
H709 H 0.59859 0.61782 0.97101 0.0
H710 H 0.65766 0.64425 0.90847 0.0
H711 H 0.61453 0.64985 0.95532 0.0
H712 H 0.63924 0.70079 0.88433 0.0
H713 H 0.62336 0.66856 0.89842 0.0
H714 H 0.67276 0.6736 0.94008 0.0
H715 H 0.6886 0.7056 0.92575 0.0
C716 C 0.63585 0.62048 0.93158 0.0
C717 C 0.61906 0.61271 0.949 0.0
C718 C 0.64487 0.63867 0.92247 0.0
C719 C 0.63725 0.64943 0.9305 0.0
C720 C 0.62057 0.64175 0.94841 0.0
C721 C 0.61156 0.62351 0.95772 0.0
C722 C 0.64671 0.69492 0.89605 0.0
C723 C 0.66511 0.70563 0.90397 0.0
C724 C 0.63761 0.67657 0.90443 0.0
C725 C 0.64684 0.66869 0.92055 0.0
C726 C 0.66536 0.67933 0.92746 0.0
C727 C 0.6744 0.69763 0.9193 0.0
H728 H 0.37311 0.01205 0.88491 0.0
H729 H 0.36217 0.98457 0.98764 0.0
H730 H 0.34089 -0.0039 0.87123 0.0
H731 H 0.3298 0.96894 0.97416 0.0
H732 H 0.27542 0.96852 0.94963 0.0
H733 H 0.30775 0.9835 0.96125 0.0
H734 H 0.31519 0.95959 0.86494 0.0
H735 H 0.2826 0.94409 0.85356 0.0
C736 C 0.36378 0.00265 0.90458 0.0
C737 C 0.37 -0.00045 0.9374 0.0
C738 C 0.34545 0.99349 0.89662 0.0
C739 C 0.33309 0.9814 0.9217 0.0
C740 C 0.33924 0.97828 0.95455 0.0
C741 C 0.35764 0.98716 0.9622 0.0
C742 C 0.28395 0.96655 0.93076 0.0
C743 C 0.2766 0.95521 0.90064 0.0
C744 C 0.30236 0.97499 0.93761 0.0
C745 C 0.31372 0.9725 0.91408 0.0
C746 C 0.30653 0.9616 0.88338 0.0
C747 C 0.288 0.95281 0.8769 0.0
H748 H 0.04847 0.34509 0.87711 0.0
H749 H 0.00546 0.29552 0.92165 0.0
H750 H 0.03184 0.36044 0.89282 0.0
H751 H 0.98896 0.31088 0.93752 0.0
H752 H 0.95801 0.34179 0.92525 0.0
H753 H 0.97371 0.32583 0.90783 0.0
H754 H 0.02324 0.36907 0.95174 0.0
H755 H 0.00754 0.38517 0.96901 0.0
C756 C 0.03537 0.33745 0.8898 0.0
C757 C 0.02824 0.31916 0.89825 0.0
C758 C 0.02597 0.34625 0.8991 0.0
C759 C 0.00924 0.33686 0.91671 0.0
C760 C 0.00181 0.3184 0.92385 0.0
C761 C 0.01125 0.30964 0.91479 0.0
C762 C 0.97221 0.3478 0.93153 0.0
C763 C 0.98159 0.36469 0.94849 0.0
C764 C 0.98117 0.33867 0.92156 0.0
C765 C -0.00032 0.34632 0.92818 0.0
C766 C 0.00899 0.36303 0.94587 0.0
C767 C -1e-05 0.37213 0.95609 0.0
H768 H 0.00713 0.70596 0.42365 0.0
H769 H 0.05179 0.70187 0.38031 0.0
H770 H -0.00854 0.67399 0.43799 0.0
H771 H 0.03589 0.66964 0.3943 0.0
H772 H 0.0107 0.61852 0.46601 0.0
H773 H 0.02653 0.65061 0.45059 0.0
H774 H 0.97726 0.64485 0.40643 0.0
H775 H 0.96147 0.61306 0.42219 0.0
C776 C 0.01348 0.69816 0.41673 0.0
C777 C 0.03065 0.70635 0.40086 0.0
C778 C 0.0045 0.67986 0.42491 0.0
C779 C 0.01253 0.66941 0.41743 0.0
C780 C 0.02954 0.67749 0.40077 0.0
C781 C 0.03852 0.69584 0.39242 0.0
C782 C 0.00327 0.62421 0.45336 0.0
C783 C 0.98489 0.61338 0.44538 0.0
C784 C 0.01234 0.64247 0.44421 0.0
C785 C 0.0031 0.65013 0.42717 0.0
C786 C 0.98466 0.63932 0.4198 0.0
C787 C 0.97565 0.62112 0.42879 0.0
H788 H 0.28295 0.34524 0.38662 0.0
H789 H 0.27792 0.29616 0.43038 0.0
H790 H 0.31499 0.36132 0.40218 0.0
H791 H 0.30971 0.31221 0.44629 0.0
H792 H 0.37106 0.34322 0.43142 0.0
H793 H 0.33922 0.32704 0.41595 0.0
H794 H 0.33341 0.37071 0.45913 0.0
H795 H 0.36549 0.38712 0.47425 0.0
C796 C 0.28874 0.33788 0.3992 0.0
C797 C 0.27802 0.31949 0.40727 0.0
C798 C 0.30697 0.3471 0.40846 0.0
C799 C 0.31474 0.33801 0.42568 0.0
C800 C 0.30408 0.31951 0.43284 0.0
C801 C 0.2859 0.31035 0.42376 0.0
C802 C 0.36295 0.3493 0.43798 0.0
C803 C 0.3707 0.36641 0.45403 0.0
C804 C 0.34473 0.34002 0.42914 0.0
C805 C 0.33392 0.3477 0.43612 0.0
C806 C 0.34155 0.36463 0.453 0.0
C807 C 0.35981 0.3739 0.46201 0.0
H808 H 0.64053 0.93781 0.38376 0.0
H809 H 0.69066 0.98102 0.42575 0.0
H810 H 0.62535 0.95442 0.40104 0.0
H811 H 0.67549 -0.00258 0.44341 0.0
H812 H 0.64478 0.02859 0.43242 0.0
H813 H 0.66067 0.01276 0.41574 0.0
H814 H 0.61704 0.96333 0.45921 0.0
H815 H 0.60095 0.97915 0.47553 0.0
C816 C 0.64832 0.95093 0.39626 0.0
C817 C 0.66674 0.95815 0.40343 0.0
C818 C 0.63962 0.96032 0.40652 0.0
C819 C 0.64923 0.97709 0.42391 0.0
C820 C 0.66778 0.98455 0.42993 0.0
C821 C 0.67644 0.97516 0.41982 0.0
C822 C 0.63869 0.0144 0.43888 0.0
C823 C 0.62163 0.00506 0.45517 0.0
C824 C 0.64779 0.00535 0.42933 0.0
C825 C 0.63997 0.9868 0.43583 0.0
C826 C 0.6232 0.97758 0.45335 0.0
C827 C 0.61411 0.98666 0.46306 0.0
H828 H 0.28294 0.05757 0.49209 0.0
H829 H 0.3329 0.10135 0.53297 0.0
H830 H 0.29526 0.06438 0.43077 0.0
H831 H 0.34501 0.10848 0.47202 0.0
H832 H 0.36832 0.10232 0.36427 0.0
H833 H 0.35596 0.09705 0.42559 0.0
H834 H 0.30444 0.08571 0.38269 0.0
H835 H 0.31661 0.09046 0.32188 0.0
C836 C 0.29641 0.06883 0.4879 0.0
C837 C 0.30693 0.07887 0.51736 0.0
C838 C 0.30351 0.07278 0.45277 0.0
C839 C 0.32124 0.08693 0.44636 0.0
C840 C 0.33149 0.09726 0.47587 0.0
C841 C 0.32445 0.09326 0.51086 0.0
C842 C 0.35443 0.09887 0.36809 0.0
C843 C 0.34346 0.09675 0.33824 0.0
C844 C 0.34731 0.09587 0.40321 0.0
C845 C 0.3291 0.09079 0.40919 0.0
C846 C 0.31837 0.0892 0.37922 0.0
C847 C 0.32543 0.09209 0.34429 0.0
H848 H 0.91301 0.20734 0.49627 0.0
H849 H 0.9083 0.25294 0.53075 0.0
H850 H 0.90461 0.21089 0.43487 0.0
H851 H 0.90072 0.25699 0.46975 0.0
H852 H 0.87337 0.25255 0.36313 0.0
H853 H 0.87847 0.2457 0.42472 0.0
H854 H 0.91552 0.22953 0.38378 0.0
H855 H 0.90982 0.23559 0.32278 0.0
C856 C 0.91034 0.2182 0.49065 0.0
C857 C 0.91131 0.22983 0.51834 0.0
C858 C 0.90557 0.2203 0.45546 0.0
C859 C 0.90186 0.23421 0.44715 0.0
C860 C 0.90301 0.24587 0.47503 0.0
C861 C 0.90756 0.24364 0.51008 0.0
C862 C 0.88245 0.24738 0.36741 0.0
C863 C 0.89117 0.24464 0.33807 0.0
C864 C 0.8855 0.24355 0.40272 0.0
C865 C 0.89751 0.23709 0.40947 0.0
C866 C 0.90597 0.23415 0.37987 0.0
C867 C 0.90279 0.23779 0.34474 0.0
H868 H 0.73868 0.64965 0.5341 0.0
H869 H 0.77753 0.70298 0.49692 0.0
H870 H 0.73363 0.63857 0.47269 0.0
H871 H 0.77309 0.69165 0.43484 0.0
H872 H 0.74438 0.67085 0.32675 0.0
H873 H 0.7519 0.68202 0.38805 0.0
H874 H 0.74453 0.63052 0.42242 0.0
H875 H 0.73615 0.61908 0.36071 0.0
C876 C 0.74639 0.659 0.51275 0.0
C877 C 0.75849 0.67726 0.52043 0.0
C878 C 0.74358 0.65256 0.47737 0.0
C879 C 0.75293 0.66412 0.44848 0.0
C880 C 0.76539 0.68236 0.45625 0.0
C881 C 0.76806 0.68888 0.49184 0.0
C882 C 0.74437 0.66187 0.34736 0.0
C883 C 0.73958 0.64402 0.33888 0.0
C884 C 0.74888 0.66838 0.38261 0.0
C885 C 0.74895 0.65729 0.41048 0.0
C886 C 0.74438 0.63943 0.40187 0.0
C887 C 0.73963 0.63283 0.36649 0.0
H888 H 0.07308 0.31472 0.19658 0.0
H889 H 0.11126 0.36858 0.16096 0.0
H890 H 0.06877 0.30401 0.13491 0.0
H891 H 0.10762 0.35766 0.09872 0.0
H892 H 0.0792 0.33764 0.99038 0.0
H893 H 0.08659 0.3482 0.05197 0.0
H894 H 0.07983 0.29662 0.0839 0.0
H895 H 0.07154 0.28574 0.02176 0.0
C896 C 0.08082 0.32427 0.17554 0.0
C897 C 0.09245 0.34257 0.1837 0.0
C898 C 0.07845 0.31804 0.14001 0.0
C899 C 0.08778 0.32989 0.11148 0.0
C900 C 0.09991 0.34815 0.11981 0.0
C901 C 0.10213 0.35444 0.15551 0.0
C902 C 0.07932 0.32851 1.01047 0.0
C903 C 0.07471 0.31079 1.00116 0.0
C904 C 0.08377 0.33467 0.04592 0.0
C905 C 0.08397 0.32339 0.07322 0.0
C906 C 0.0796 0.30568 0.06379 0.0
C907 C 0.0749 0.29941 0.02817 0.0
H908 H 0.66414 0.76828 0.19903 0.0
H909 H 0.6141 0.72383 0.16025 0.0
H910 H 0.67586 0.77482 0.13776 0.0
H911 H 0.62602 0.73006 0.09856 0.0
H912 H 0.64732 0.75454 0.98823 0.0
H913 H 0.63515 0.75062 0.04896 0.0
H914 H 0.68671 0.76262 0.09281 0.0
H915 H 0.69905 0.76706 0.03162 0.0
C916 C 0.65557 0.75995 0.17728 0.0
C917 C 0.63818 0.74551 0.18448 0.0
C918 C 0.66238 0.76361 0.14213 0.0
C919 C 0.65204 0.75285 0.11312 0.0
C920 C 0.63436 0.73875 0.12016 0.0
C921 C 0.62747 0.73515 0.15549 0.0
C922 C 0.65613 0.75649 1.01083 0.0
C923 C 0.67418 0.7611 1.0051 0.0
C924 C 0.64908 0.75408 0.04572 0.0
C925 C 0.65984 0.75614 0.07593 0.0
C926 C 0.67804 0.76112 0.07023 0.0
C927 C 0.68515 0.76363 0.03517 0.0
H928 H 0.24625 0.87423 0.16171 0.0
H929 H 0.23589 0.91629 0.19648 0.0
H930 H 0.23803 0.87742 0.09988 0.0
H931 H 0.22858 0.92009 0.13526 0.0
H932 H 0.2037 0.91598 0.02628 0.0
H933 H 0.20792 0.90858 0.08802 0.0
H934 H 0.24859 0.89672 0.05001 0.0
H935 H 0.24372 0.90322 0.98874 0.0
C936 C 0.2423 0.88418 0.15613 0.0
C937 C 0.24172 0.89496 0.184 0.0
C938 C 0.23765 0.8861 0.12067 0.0
C939 C 0.23256 0.89903 0.1123 0.0
C940 C 0.23198 0.90972 0.14046 0.0
C941 C 0.23637 0.90764 0.17572 0.0
C942 C 0.21341 0.91166 0.03124 0.0
C943 C 0.22336 0.91023 1.00264 0.0
C944 C 0.21595 0.90749 0.06665 0.0
C945 C 0.22869 0.90207 0.07431 0.0
C946 C 0.23843 0.90048 0.04541 0.0
C947 C 0.23573 0.90439 1.01013 0.0
H948 H 0.6161 0.87556 0.66389 0.0
H949 H 0.66912 0.91615 0.69908 0.0
H950 H 0.62718 0.87943 0.60165 0.0
H951 H 0.67993 0.92061 0.6375 0.0
H952 H 0.69961 0.91707 0.52651 0.0
H953 H 0.68835 0.90931 0.58848 0.0
H954 H 0.63615 0.89965 0.55319 0.0
H955 H 0.64715 0.90653 0.49169 0.0
C956 C 0.63007 0.88533 0.65832 0.0
C957 C 0.64169 0.89551 0.68642 0.0
C958 C 0.63645 0.88765 0.62264 0.0
C959 C 0.65454 0.90037 0.61427 0.0
C960 C 0.66607 0.91043 0.64266 0.0
C961 C 0.65978 0.90796 0.67813 0.0
C962 C 0.68573 0.91318 0.53213 0.0
C963 C 0.67432 0.91243 0.50421 0.0
C964 C 0.67924 0.9088 0.56767 0.0
C965 C 0.66126 0.90383 0.57613 0.0
C966 C 0.64992 0.90302 0.54792 0.0
C967 C 0.65632 0.90715 0.51253 0.0
H968 H 0.08331 0.74034 0.49034 0.0
H969 H 0.06769 0.77813 0.52878 0.0
H970 H 0.08996 0.73551 0.55151 0.0
H971 H 0.07519 0.77395 0.59049 0.0
H972 H 0.06839 0.74549 0.69813 0.0
H973 H 0.06424 0.75271 0.63703 0.0
H974 H 0.10906 0.7467 0.6017 0.0
H975 H 0.11266 0.73859 0.66337 0.0
C976 C 0.08153 0.74784 0.51192 0.0
C977 C 0.07487 0.75957 0.50469 0.0
C978 C 0.08552 0.74518 0.54714 0.0
C979 C 0.08317 0.75431 0.57626 0.0
C980 C 0.07689 0.76641 0.56891 0.0
C981 C 0.07267 0.76892 0.53353 0.0
C982 C 0.07743 0.74574 0.67739 0.0
C983 C 0.09085 0.74141 0.68563 0.0
C984 C 0.07514 0.75008 0.64223 0.0
C985 C 0.08635 0.75045 0.61414 0.0
C986 C 0.09998 0.74633 0.62245 0.0
C987 C 0.10213 0.74174 0.6578 0.0
H988 H 0.21928 0.28581 0.53283 0.0
H989 H 0.2277 0.3363 0.48998 0.0
H990 H 0.22508 0.29857 0.59378 0.0
H991 H 0.23295 0.34886 0.55051 0.0
H992 H 0.22131 0.32144 0.70163 0.0
H993 H 0.21367 0.30884 0.64119 0.0
H994 H 0.25511 0.35945 0.59706 0.0
H995 H 0.26239 0.37226 0.65796 0.0
C996 C 0.22205 0.2995 0.53651 0.0
C997 C 0.22307 0.31003 0.5066 0.0
C998 C 0.22537 0.30686 0.57142 0.0
C999 C 0.22965 0.32486 0.57717 0.0
C1000 C 0.2301 0.33513 0.5472 0.0
C1001 C 0.22691 0.32783 0.51244 0.0
C1002 C 0.22872 0.32996 0.67901 0.0
C1003 C 0.24249 0.34788 0.6846 0.0
C1004 C 0.22442 0.32265 0.6443 0.0
C1005 C 0.23385 0.333 0.6141 0.0
C1006 C 0.2474 0.35109 0.6196 0.0
C1007 C 0.25164 0.35847 0.65449 0.0
H1008 H 0.88383 0.65374 0.03191 0.0
H1009 H 0.9289 0.70321 0.99257 0.0
H1010 H 0.87694 0.64194 0.97075 0.0
H1011 H 0.92232 0.69118 0.93098 0.0
H1012 H 0.89737 0.67016 0.82093 0.0
H1013 H 0.90171 0.68244 0.88161 0.0
H1014 H 0.88847 0.63053 0.9256 0.0
H1015 H 0.88363 0.61809 0.86446 0.0
C1016 C 0.89224 0.66216 1.01006 0.0
C1017 C 0.90695 0.67942 0.01709 0.0
C1018 C 0.88837 0.6553 0.97496 0.0
C1019 C 0.89918 0.66545 0.94582 0.0
C1020 C 0.91358 0.683 0.95268 0.0
C1021 C 0.91739 0.68994 0.98796 0.0
C1022 C 0.89523 0.66129 0.84355 0.0
C1023 C 0.89016 0.64312 0.83786 0.0
C1024 C 0.89788 0.66841 0.87841 0.0
C1025 C 0.89562 0.65759 0.90866 0.0
C1026 C 0.89016 0.63926 0.90301 0.0
C1027 C 0.8874 0.63209 0.86798 0.0
H1028 H 0.28217 0.21801 0.99302 0.0
H1029 H 0.33398 0.22983 0.03468 0.0
H1030 H 0.29414 0.22263 0.9315 0.0
H1031 H 0.34579 0.23394 0.97358 0.0
H1032 H 0.36653 0.2626 0.86365 0.0
H1033 H 0.35482 0.25523 0.92538 0.0
H1034 H 0.30484 0.21121 0.88477 0.0
H1035 H 0.31634 0.2189 0.82347 0.0
C1036 C 0.29598 0.22124 0.98899 0.0
C1037 C 0.30712 0.22362 0.01869 0.0
C1038 C 0.30289 0.22388 0.95373 0.0
C1039 C 0.32104 0.22884 0.94746 0.0
C1040 C 0.3319 0.23053 0.97728 0.0
C1041 C 0.32505 0.22801 0.01236 0.0
C1042 C 0.35317 0.2512 0.86808 0.0
C1043 C 0.34236 0.24141 0.83872 0.0
C1044 C 0.34641 0.24694 0.90344 0.0
C1045 C 0.32875 0.2327 0.91015 0.0
C1046 C 0.3183 0.22249 0.88071 0.0
C1047 C 0.32499 0.22682 0.84553 0.0
H1048 H 0.77099 0.11495 0.82848 0.0
H1049 H 0.71496 0.08656 0.85949 0.0
H1050 H 0.77934 0.1088 0.88789 0.0
H1051 H 0.7233 0.07984 0.91866 0.0
H1052 H 0.74751 0.05168 0.9928 0.0
H1053 H 0.74068 0.05987 0.93365 0.0
H1054 H 0.77453 0.11619 0.95921 0.0
H1055 H 0.78083 0.10804 0.01872 0.0
C1056 C 0.76052 0.10772 0.84835 0.0
C1057 C 0.74236 0.10144 0.83967 0.0
C1058 C 0.76528 0.1041 0.88214 0.0
C1059 C 0.75194 0.09367 0.90753 0.0
C1060 C 0.73381 0.0878 0.89932 0.0
C1061 C 0.72907 0.09185 0.86578 0.0
C1062 C 0.75385 0.06577 0.98534 0.0
C1063 C 0.76488 0.07924 1.01005 0.0
C1064 C 0.74973 0.07046 0.95183 0.0
C1065 C 0.75694 0.08866 0.9422 0.0
C1066 C 0.76877 0.10208 0.96609 0.0
C1067 C 0.77249 0.09742 0.99992 0.0
H1068 H 0.03466 0.43415 0.69947 0.0
H1069 H 0.98661 0.43288 0.66027 0.0
H1070 H 0.02254 0.42898 0.761 0.0
H1071 H 0.97469 0.42809 0.72139 0.0
H1072 H 0.0013 0.43255 0.87122 0.0
H1073 H 0.01406 0.44129 0.81101 0.0
H1074 H 0.96234 0.40378 0.76476 0.0
H1075 H 0.94942 0.39527 0.82546 0.0
C1076 C 0.02174 0.43322 0.70412 0.0
C1077 C 0.01157 0.43385 0.67505 0.0
C1078 C 0.01474 0.4302 0.73934 0.0
C1079 C -0.00252 0.42784 0.74612 0.0
C1080 C 0.9878 0.4294 0.71713 0.0
C1081 C -0.00526 0.43234 0.6821 0.0
C1082 C -0.00743 0.42623 0.84822 0.0
C1083 C 0.97432 0.41315 0.85313 0.0
C1084 C -4e-05 0.43118 0.81365 0.0
C1085 C 0.98932 0.42317 0.78295 0.0
C1086 C 0.97091 0.41038 0.7878 0.0
C1087 C 0.96348 0.40545 0.82255 0.0
H1088 H 0.59162 0.55149 0.82607 0.0
H1089 H 0.55113 0.56185 0.87075 0.0
H1090 H 0.58366 0.55637 0.76527 0.0
H1091 H 0.54289 0.56626 0.8104 0.0
H1092 H 0.55623 0.55232 0.65885 0.0
H1093 H 0.56084 0.54455 0.71951 0.0
H1094 H 0.55464 0.58801 0.76262 0.0
H1095 H 0.54955 0.5955 0.70156 0.0
C1096 C 0.58083 0.5545 0.82286 0.0
C1097 C 0.57208 0.55635 0.8532 0.0
C1098 C 0.57622 0.55727 0.78804 0.0
C1099 C 0.56269 0.56187 0.78286 0.0
C1100 C 0.5536 0.56312 0.81329 0.0
C1101 C 0.55825 0.56044 0.84793 0.0
C1102 C 0.55561 0.56009 0.68133 0.0
C1103 C 0.55256 0.57457 0.67542 0.0
C1104 C 0.55844 0.55572 0.71613 0.0
C1105 C 0.55838 0.56577 0.74604 0.0
C1106 C 0.55464 0.57986 0.74027 0.0
C1107 C 0.55171 0.58418 0.70531 0.0
H1108 H 0.41616 0.02759 0.82707 0.0
H1109 H 0.44388 -0.00054 0.85934 0.0
H1110 H 0.40966 0.01253 0.76796 0.0
H1111 H 0.43794 0.98494 0.79997 0.0
H1112 H 0.43774 0.98257 0.66911 0.0
H1113 H 0.44575 -0.00306 0.7287 0.0
H1114 H 0.38942 0.97532 0.75302 0.0
H1115 H 0.38135 0.96039 0.69379 0.0
C1116 C 0.42136 0.01867 0.82106 0.0
C1117 C 0.43069 0.01483 0.84751 0.0
C1118 C 0.41743 0.00988 0.78755 0.0
C1119 C 0.42315 -0.00254 0.77972 0.0
C1120 C 0.43335 -0.00559 0.80543 0.0
C1121 C 0.43685 0.00281 0.83921 0.0
C1122 C 0.42707 0.98045 0.68765 0.0
C1123 C 0.40893 0.97016 0.67714 0.0
C1124 C 0.43166 0.98878 0.72154 0.0
C1125 C 0.41821 0.98742 0.74509 0.0
C1126 C 0.40003 0.97668 0.7351 0.0
C1127 C 0.39541 0.96793 0.70154 0.0
H1128 H 0.53931 0.95167 0.19507 0.0
H1129 H 0.57548 0.00527 0.1552 0.0
H1130 H 0.54399 0.96353 0.25669 0.0
H1131 H 0.58083 0.01694 0.21623 0.0
H1132 H 0.57843 0.03658 0.32848 0.0
H1133 H 0.56994 0.02459 0.26711 0.0
H1134 H 0.56578 0.9745 0.30217 0.0
H1135 H 0.57335 0.98615 0.3631 0.0
C1136 C 0.54826 0.96595 0.19947 0.0
C1137 C 0.55701 0.97748 0.17027 0.0
C1138 C 0.55107 0.97278 0.2348 0.0
C1139 C 0.56289 0.99127 0.24171 0.0
C1140 C 0.5714 0.00275 0.21222 0.0
C1141 C 0.56842 -0.00403 0.17707 0.0
C1142 C 0.57563 0.02302 0.3229 0.0
C1143 C 0.57654 0.01234 0.35061 0.0
C1144 C 0.57082 0.01611 0.28773 0.0
C1145 C 0.56707 -0.00153 0.27944 0.0
C1146 C 0.5681 0.98793 0.30739 0.0
C1147 C 0.57265 -0.00528 0.34242 0.0
H1148 H 0.9898 0.54515 0.36138 0.0
H1149 H 0.95804 0.56879 0.32728 0.0
H1150 H 0.00415 0.55127 0.30179 0.0
H1151 H 0.97296 0.5755 0.26786 0.0
H1152 H 0.02718 0.60524 0.19408 0.0
H1153 H 0.01277 0.59757 0.25398 0.0
H1154 H 0.98836 0.54103 0.22868 0.0
H1155 H 0.00216 0.54864 0.16851 0.0
C1156 C 0.9857 0.5514 0.34089 0.0
C1157 C 0.97267 0.55631 0.34869 0.0
C1158 C -0.00601 0.55499 0.307 0.0
C1159 C 0.98978 0.56404 0.28062 0.0
C1160 C 0.97648 0.56862 0.28801 0.0
C1161 C 0.96781 0.56459 0.3217 0.0
C1162 C 0.01911 0.5912 0.20173 0.0
C1163 C 0.01593 0.57751 0.17695 0.0
C1164 C 0.01069 0.58683 0.23567 0.0
C1165 C -0.00064 0.56873 0.24555 0.0
C1166 C -0.00301 0.55507 0.22153 0.0
C1167 C 0.00499 0.55942 0.18734 0.0
H1168 H 0.41332 0.40675 0.15753 0.0
H1169 H 0.40365 0.44922 0.19266 0.0
H1170 H 0.4203 0.40258 0.21882 0.0
H1171 H 0.41153 0.44565 0.2545 0.0
H1172 H 0.40424 0.41892 0.36493 0.0
H1173 H 0.40006 0.42587 0.30357 0.0
H1174 H 0.44067 0.41362 0.26689 0.0
H1175 H 0.44422 0.40581 0.32878 0.0
C1176 C 0.41293 0.41542 0.17838 0.0
C1177 C 0.40784 0.42829 0.17021 0.0
C1178 C 0.41713 0.41312 0.21366 0.0
C1179 C 0.41658 0.42377 0.24192 0.0
C1180 C 0.41184 0.43696 0.23362 0.0
C1181 C 0.4074 0.43912 0.19816 0.0
C1182 C 0.41236 0.41775 0.34383 0.0
C1183 C 0.42452 0.41171 0.35173 0.0
C1184 C 0.41007 0.42193 0.30851 0.0
C1185 C 0.42002 0.42039 0.27996 0.0
C1186 C 0.43252 0.41471 0.288 0.0
C1187 C 0.43466 0.4103 0.32348 0.0
H1188 H 0.33772 0.21478 0.17068 0.0
H1189 H 0.28468 0.16835 0.15709 0.0
H1190 H 0.34987 0.19505 0.18341 0.0
H1191 H 0.29663 0.14858 0.17137 0.0
H1192 H 0.3262 0.11771 0.15774 0.0
H1193 H 0.315 0.13822 0.14482 0.0
H1194 H 0.35054 0.17492 0.22636 0.0
H1195 H 0.36226 0.15472 0.23806 0.0
C1196 C 0.32861 0.20034 0.17105 0.0
C1197 C 0.31028 0.19306 0.16282 0.0
C1198 C 0.33556 0.18903 0.17845 0.0
C1199 C 0.32426 0.17021 0.17816 0.0
C1200 C 0.30579 0.16299 0.17101 0.0
C1201 C 0.2989 0.17431 0.16318 0.0
C1202 C 0.33172 0.13025 0.17261 0.0
C1203 C 0.3451 0.13466 0.19884 0.0
C1204 C 0.32519 0.14192 0.1655 0.0
C1205 C 0.33172 0.15814 0.18483 0.0
C1206 C 0.34535 0.16265 0.21067 0.0
C1207 C 0.35204 0.15107 0.21745 0.0
H1208 H 0.77232 0.12109 0.16544 0.0
H1209 H 0.81777 0.11263 0.1555 0.0
H1210 H 0.79253 0.15254 0.18034 0.0
H1211 H 0.83807 0.14403 0.17197 0.0
H1212 H 0.87023 0.20514 0.1607 0.0
H1213 H 0.84988 0.17344 0.14695 0.0
H1214 H 0.81188 0.17213 0.22552 0.0
H1215 H 0.8319 0.20397 0.23803 0.0
C1216 C 0.78664 0.12591 0.16707 0.0
C1217 C 0.7935 0.11445 0.15926 0.0
C1218 C 0.79823 0.14393 0.17576 0.0
C1219 C 0.81694 0.15085 0.17725 0.0
C1220 C 0.82376 0.13922 0.17038 0.0
C1221 C 0.81214 0.1212 0.16129 0.0
C1222 C 0.85746 0.19806 0.1748 0.0
C1223 C 0.85258 0.20699 0.20027 0.0
C1224 C 0.84587 0.17987 0.16721 0.0
C1225 C 0.82927 0.1702 0.18527 0.0
C1226 C 0.82443 0.17921 0.21072 0.0
C1227 C 0.83592 0.19745 0.21798 0.0
H1228 H 0.78006 0.66241 0.15831 0.0
H1229 H 0.78199 0.62832 0.24205 0.0
H1230 H 0.81176 0.67357 0.14478 0.0
H1231 H 0.81382 0.64003 0.22982 0.0
H1232 H 0.86492 0.65004 0.17279 0.0
H1233 H 0.83339 0.63894 0.18654 0.0
H1234 H 0.84119 0.69225 0.16832 0.0
H1235 H 0.87266 0.70313 0.15289 0.0
C1236 C 0.78731 0.65736 0.17387 0.0
C1237 C 0.77861 0.64445 0.20106 0.0
C1238 C 0.8055 0.66387 0.16639 0.0
C1239 C 0.81537 0.65776 0.18631 0.0
C1240 C 0.80657 0.64482 0.21354 0.0
C1241 C 0.78835 0.63814 0.22065 0.0
C1242 C 0.85992 0.65941 0.17196 0.0
C1243 C 0.87119 0.67744 0.16177 0.0
C1244 C 0.84185 0.65307 0.18 0.0
C1245 C 0.83472 0.66468 0.1785 0.0
C1246 C 0.84616 0.68286 0.16908 0.0
C1247 C 0.86421 0.68914 0.16057 0.0
H1248 H 0.10406 0.3132 0.33632 0.0
H1249 H 0.1501 0.36628 0.3204 0.0
H1250 H 0.12408 0.30144 0.3496 0.0
H1251 H 0.17017 0.35476 0.33525 0.0
H1252 H 0.20165 0.32576 0.32417 0.0
H1253 H 0.18079 0.33639 0.31006 0.0
H1254 H 0.14443 0.30146 0.39277 0.0
H1255 H 0.16497 0.29029 0.40564 0.0
C1256 C 0.11848 0.3224 0.33625 0.0
C1257 C 0.12557 0.34063 0.32725 0.0
C1258 C 0.12995 0.31569 0.34397 0.0
C1259 C 0.14875 0.32712 0.34326 0.0
C1260 C 0.15578 0.34549 0.33523 0.0
C1261 C 0.1443 0.35214 0.32706 0.0
C1262 C 0.18911 0.32025 0.33904 0.0
C1263 C 0.18489 0.30721 0.36595 0.0
C1264 C 0.17723 0.32646 0.33124 0.0
C1265 C 0.161 0.31993 0.35055 0.0
C1266 C 0.15669 0.30663 0.37707 0.0
C1267 C 0.16847 0.30025 0.38453 0.0
H1268 H 0.69124 0.87121 0.40589 0.0
H1269 H 0.65575 0.8723 0.32441 0.0
H1270 H 0.67963 0.83935 0.39417 0.0
H1271 H 0.64467 0.84058 0.31135 0.0
H1272 H 0.61532 0.77981 0.32135 0.0
H1273 H 0.62645 0.8114 0.33599 0.0
H1274 H 0.67995 0.81925 0.3513 0.0
H1275 H 0.6686 0.78757 0.33834 0.0
C1276 C 0.68114 0.86467 0.38505 0.0
C1277 C 0.67439 0.87418 0.36601 0.0
C1278 C 0.67451 0.84641 0.37823 0.0
C1279 C 0.66117 0.83735 0.35185 0.0
C1280 C 0.65467 0.84702 0.33236 0.0
C1281 C 0.66114 0.86523 0.33955 0.0
C1282 C 0.62941 0.78829 0.32823 0.0
C1283 C 0.6411 0.78127 0.32882 0.0
C1284 C 0.63584 0.80642 0.33627 0.0
C1285 C 0.65414 0.81792 0.34459 0.0
C1286 C 0.66574 0.81076 0.34557 0.0
C1287 C 0.65925 0.7926 0.33801 0.0
H1288 H 0.11358 0.78306 0.32205 0.0
H1289 H 0.11527 0.81873 0.40633 0.0
H1290 H 0.14506 0.80402 0.30785 0.0
H1291 H 0.14696 0.83932 0.39339 0.0
H1292 H 0.19863 0.88049 0.33752 0.0
H1293 H 0.16691 0.8602 0.35065 0.0
H1294 H 0.17425 0.81446 0.33174 0.0
H1295 H 0.2058 0.83485 0.31697 0.0
C1296 C 0.12073 0.79539 0.33755 0.0
C1297 C 0.11204 0.79932 0.36521 0.0
C1298 C 0.1388 0.80732 0.32968 0.0
C1299 C 0.14861 0.8233 0.34968 0.0
C1300 C 0.13977 0.82728 0.37711 0.0
C1301 C 0.12163 0.81546 0.38462 0.0
C1302 C 0.19345 0.86609 0.33638 0.0
C1303 C 0.20461 0.85921 0.32619 0.0
C1304 C 0.17529 0.85445 0.34403 0.0
C1305 C 0.16799 0.83568 0.34212 0.0
C1306 C 0.17933 0.82884 0.33273 0.0
C1307 C 0.19744 0.8405 0.32459 0.0
H1308 H 0.61834 0.83398 0.81786 0.0
H1309 H 0.67118 0.87973 0.83756 0.0
H1310 H 0.62973 0.81366 0.83162 0.0
H1311 H 0.68282 0.85954 0.84961 0.0
H1312 H 0.69338 0.8183 0.90503 0.0
H1313 H 0.68226 0.83885 0.89209 0.0
H1314 H 0.64836 0.80316 0.80752 0.0
H1315 H 0.65891 0.78222 0.8218 0.0
C1316 C 0.6324 0.83966 0.82504 0.0
C1317 C 0.64387 0.85838 0.82679 0.0
C1318 C 0.63899 0.82805 0.83259 0.0
C1319 C 0.65724 0.83496 0.84151 0.0
C1320 C 0.66865 0.85374 0.84339 0.0
C1321 C 0.662 0.86532 0.83636 0.0
C1322 C 0.68365 0.81494 0.8835 0.0
C1323 C 0.67697 0.79869 0.86443 0.0
C1324 C 0.67731 0.82674 0.87598 0.0
C1325 C 0.66433 0.82263 0.84886 0.0
C1326 C 0.65805 0.80656 0.82911 0.0
C1327 C 0.66421 0.79465 0.83701 0.0
H1328 H 0.10526 0.78492 0.83837 0.0
H1329 H 0.15177 0.77926 0.81759 0.0
H1330 H 0.12486 0.81683 0.85079 0.0
H1331 H 0.17151 0.81102 0.83176 0.0
H1332 H 0.20148 0.87169 0.82124 0.0
H1333 H 0.18124 0.83997 0.80768 0.0
H1334 H 0.14541 0.83739 0.8928 0.0
H1335 H 0.16525 0.86929 0.90499 0.0
C1336 C 0.11971 0.79048 0.83705 0.0
C1337 C 0.12704 0.77968 0.827 0.0
C1338 C 0.13096 0.80875 0.8443 0.0
C1339 C 0.14979 0.81654 0.84216 0.0
C1340 C 0.15708 0.80557 0.83291 0.0
C1341 C 0.1458 0.78734 0.82513 0.0
C1342 C 0.18918 0.86433 0.83676 0.0
C1343 C 0.18487 0.8729 0.86406 0.0
C1344 C 0.17766 0.84612 0.82927 0.0
C1345 C 0.16175 0.83605 0.84935 0.0
C1346 C 0.1574 0.84476 0.87644 0.0
C1347 C 0.16879 0.86303 0.88353 0.0
H1348 H 0.11276 0.28995 0.86839 0.0
H1349 H 0.11795 0.34198 0.84808 0.0
H1350 H 0.14464 0.30235 0.85506 0.0
H1351 H 0.14999 0.35463 0.83632 0.0
H1352 H 0.20292 0.36668 0.78261 0.0
H1353 H 0.17099 0.35482 0.79457 0.0
H1354 H 0.17326 0.32188 0.88067 0.0
H1355 H 0.20497 0.33319 0.8675 0.0
C1356 C 0.12075 0.30405 0.8611 0.0
C1357 C 0.11293 0.31501 0.8592 0.0
C1358 C 0.13905 0.31121 0.85381 0.0
C1359 C 0.14993 0.32954 0.84496 0.0
C1360 C 0.14198 0.34042 0.84261 0.0
C1361 C 0.12363 0.33319 0.84945 0.0
C1362 C 0.19659 0.35703 0.80428 0.0
C1363 C 0.20634 0.35079 0.82407 0.0
C1364 C 0.17831 0.35025 0.81122 0.0
C1365 C 0.1695 0.33727 0.83839 0.0
C1366 C 0.1795 0.33153 0.85897 0.0
C1367 C 0.19771 0.33813 0.8517 0.0
H1368 H 0.83311 0.62411 0.73695 0.0
H1369 H 0.87006 0.65951 0.65575 0.0
H1370 H 0.81289 0.63566 0.72436 0.0
H1371 H 0.84946 0.67051 0.6418 0.0
H1372 H 0.81896 0.7008 0.65308 0.0
H1373 H 0.83895 0.689 0.66659 0.0
H1374 H 0.79265 0.63587 0.68177 0.0
H1375 H 0.77278 0.64791 0.66997 0.0
C1376 C 0.83673 0.63414 0.71592 0.0
C1377 C 0.85313 0.64095 0.69734 0.0
C1378 C 0.82512 0.64073 0.7086 0.0
C1379 C 0.82956 0.65409 0.68217 0.0
C1380 C 0.84579 0.66051 0.66288 0.0
C1381 C 0.85751 0.65409 0.67059 0.0
C1382 C 0.81311 0.68664 0.65962 0.0
C1383 C 0.79436 0.67527 0.66063 0.0
C1384 C 0.82454 0.67982 0.66701 0.0
C1385 C 0.81742 0.66144 0.67504 0.0
C1386 C 0.79861 0.65014 0.67624 0.0
C1387 C 0.78721 0.65702 0.66936 0.0
H1388 H 0.31109 0.2016 0.68435 0.0
H1389 H 0.36437 0.20894 0.6986 0.0
H1390 H 0.29933 0.1698 0.67161 0.0
H1391 H 0.35282 0.17728 0.68423 0.0
H1392 H 0.32391 0.11691 0.69835 0.0
H1393 H 0.33472 0.14858 0.71093 0.0
H1394 H 0.29891 0.14899 0.6291 0.0
H1395 H 0.28757 0.11709 0.61778 0.0
C1396 C 0.32034 0.19646 0.68408 0.0
C1397 C 0.33861 0.20767 0.69257 0.0
C1398 C 0.31362 0.17824 0.67668 0.0
C1399 C 0.3251 0.17092 0.67718 0.0
C1400 C 0.34353 0.18236 0.68446 0.0
C1401 C 0.35019 0.20053 0.69233 0.0
C1402 C 0.31824 0.12376 0.68337 0.0
C1403 C 0.30491 0.1146 0.65716 0.0
C1404 C 0.32456 0.14195 0.69027 0.0
C1405 C 0.31785 0.15141 0.67072 0.0
C1406 C 0.30424 0.14209 0.64494 0.0
C1407 C 0.29776 0.12382 0.63839 0.0
H1408 H 0.86854 0.20506 0.6973 0.0
H1409 H 0.86682 0.16954 0.61264 0.0
H1410 H 0.83662 0.18496 0.70913 0.0
H1411 H 0.83471 0.14976 0.62339 0.0
H1412 H 0.78249 0.10916 0.68025 0.0
H1413 H 0.81416 0.12895 0.66613 0.0
H1414 H 0.80776 0.17537 0.68325 0.0
H1415 H 0.77618 0.15548 0.69882 0.0
C1416 C 0.86129 0.19296 0.68119 0.0
C1417 C 0.87012 0.1888 0.65416 0.0
C1418 C 0.84297 0.18152 0.68769 0.0
C1419 C 0.83306 0.16581 0.667 0.0
C1420 C 0.84198 0.16163 0.64011 0.0
C1421 C 0.86036 0.17297 0.63389 0.0
C1422 C 0.78782 0.1236 0.68066 0.0
C1423 C 0.77693 0.13081 0.69078 0.0
C1424 C 0.80596 0.13495 0.67244 0.0
C1425 C 0.81354 0.15376 0.67381 0.0
C1426 C 0.80244 0.16094 0.68269 0.0
C1427 C 0.78432 0.14957 0.69128 0.0
H1428 H 0.03232 0.48623 0.53154 0.0
H1429 H 0.97871 0.44027 0.52167 0.0
H1430 H 0.0207 0.50625 0.51675 0.0
H1431 H 0.96692 0.46022 0.50856 0.0
H1432 H 0.95439 0.50013 0.45307 0.0
H1433 H 0.96591 0.4798 0.46503 0.0
H1434 H 0.00313 0.51754 0.54327 0.0
H1435 H -0.0079 0.53817 0.52999 0.0
C1436 C 0.01806 0.48044 0.52612 0.0
C1437 C 0.00642 0.46174 0.52767 0.0
C1438 C 0.01135 0.49189 0.51803 0.0
C1439 C -0.00717 0.48487 0.51182 0.0
C1440 C 0.98128 0.46609 0.51272 0.0
C1441 C 0.98803 0.45465 0.52033 0.0
C1442 C 0.96493 0.50398 0.47303 0.0
C1443 C 0.97238 0.5207 0.49059 0.0
C1444 C 0.97152 0.49233 0.47996 0.0
C1445 C 0.98555 0.49708 0.50494 0.0
C1446 C -0.00739 0.51362 0.52326 0.0
C1447 C 0.98617 0.52537 0.51597 0.0
H1448 H 0.49733 0.54326 0.53664 0.0
H1449 H 0.54312 0.53575 0.52145 0.0
H1450 H 0.47711 0.51174 0.52115 0.0
H1451 H 0.52299 0.50412 0.50759 0.0
H1452 H 0.44564 0.45087 0.53239 0.0
H1453 H 0.46616 0.48254 0.54599 0.0
H1454 H 0.50288 0.48412 0.46395 0.0
H1455 H 0.48271 0.45229 0.45163 0.0
C1456 C 0.50304 0.53485 0.52994 0.0
C1457 C 0.52176 0.54191 0.53017 0.0
C1458 C 0.49148 0.51677 0.52142 0.0
C1459 C 0.49841 0.50534 0.51341 0.0
C1460 C 0.51718 0.51256 0.51311 0.0
C1461 C 0.52873 0.53068 0.52118 0.0
C1462 C 0.45818 0.45799 0.51754 0.0
C1463 C 0.46264 0.44916 0.49108 0.0
C1464 C 0.46986 0.47618 0.52503 0.0
C1465 C 0.48613 0.48593 0.50588 0.0
C1466 C 0.4906 0.47698 0.47958 0.0
C1467 C 0.47903 0.45874 0.47243 0.0
H1468 H 0.53589 0.99284 0.52881 0.0
H1469 H 0.53426 0.02886 0.44923 0.0
H1470 H 0.50406 0.98112 0.54191 0.0
H1471 H 0.50232 0.01668 0.46115 0.0
H1472 H 0.45112 0.00526 0.52064 0.0
H1473 H 0.48262 0.01668 0.50601 0.0
H1474 H 0.4747 0.96292 0.51658 0.0
H1475 H 0.44322 0.95163 0.53272 0.0
C1476 C 0.52869 -0.00179 0.51409 0.0
C1477 C 0.53752 0.01181 0.48818 0.0
C1478 C 0.51043 0.99138 0.5213 0.0
C1479 C 0.50061 -0.0021 0.50246 0.0
C1480 C 0.50952 0.01154 0.47654 0.0
C1481 C 0.52782 0.0185 0.46963 0.0
C1482 C 0.45607 -0.00415 0.51955 0.0
C1483 C 0.44476 0.97757 0.52788 0.0
C1484 C 0.47412 0.00238 0.51101 0.0
C1485 C 0.48122 0.99073 0.51023 0.0
C1486 C 0.46974 0.97232 0.5176 0.0
C1487 C 0.45169 0.96581 0.52651 0.0
H1488 H 0.4833 0.03502 0.99088 0.0
H1489 H 0.43721 0.98159 1.00255 0.0
H1490 H 0.50324 0.02336 1.00598 0.0
H1491 H 0.4571 0.96977 0.01617 0.0
H1492 H 0.4974 0.95753 0.07116 0.0
H1493 H 0.47714 0.96922 0.05982 0.0
H1494 H 0.51389 0.00523 0.97881 0.0
H1495 H 0.53443 0.99401 0.99128 0.0
C1496 C 0.47745 0.0208 0.99679 0.0
C1497 C 0.45874 0.0092 0.99553 0.0
C1498 C 0.48886 0.01407 1.00509 0.0
C1499 C 0.48178 -0.00441 0.01189 0.0
C1500 C 0.463 0.9841 1.01147 0.0
C1501 C 0.4516 0.99086 1.00356 0.0
C1502 C 0.50105 0.96785 0.05076 0.0
C1503 C 0.51747 0.9749 0.03212 0.0
C1504 C 0.48944 0.97453 0.0442 0.0
C1505 C 0.49395 0.98826 0.0186 0.0
C1506 C 0.51019 -0.00505 0.9993 0.0
C1507 C 0.52188 0.9884 1.00615 0.0
H1508 H 0.03332 0.54089 0.03447 0.0
H1509 H 0.98026 0.53444 0.02294 0.0
H1510 H 0.02111 0.50909 0.02016 0.0
H1511 H 0.96789 0.50257 1.01026 0.0
H1512 H 0.95467 0.44999 0.95469 0.0
H1513 H 0.96682 0.48193 0.96667 0.0
H1514 H 0.00272 0.48025 0.04666 0.0
H1515 H 0.99106 0.44845 0.03342 0.0
C1516 C 0.01906 0.53266 0.02882 0.0
C1517 C 0.00774 0.54009 0.02973 0.0
C1518 C 0.01202 0.51441 0.02099 0.0
C1519 C -0.00652 0.50323 0.01437 0.0
C1520 C 0.98225 0.51082 0.01474 0.0
C1521 C 0.98933 0.52908 0.02212 0.0
C1522 C 0.96505 0.45644 0.97504 0.0
C1523 C 0.97195 0.4468 0.99312 0.0
C1524 C 0.972 0.47473 0.98198 0.0
C1525 C 0.98584 0.4837 1.00747 0.0
C1526 C -0.00764 0.47386 0.02628 0.0
C1527 C 0.98555 0.45561 0.01901 0.0
H1528 H 0.45041 0.44026 0.02135 0.0
H1529 H 0.44508 0.48733 0.03698 0.0
H1530 H 0.48253 0.45951 1.01005 0.0
H1531 H 0.47702 0.50665 0.02407 0.0
H1532 H 0.53719 0.53676 0.03655 0.0
H1533 H 0.50556 0.51628 0.05042 0.0
H1534 H 0.50365 0.4797 0.9677 0.0
H1535 H 0.53548 0.49984 0.95512 0.0
C1536 C 0.45608 0.45474 0.02179 0.0
C1537 C 0.44532 0.46234 0.03008 0.0
C1538 C 0.47447 0.46578 0.01523 0.0
C1539 C 0.4824 0.48464 0.01639 0.0
C1540 C 0.47146 0.49219 0.0238 0.0
C1541 C 0.45313 0.48114 0.03083 0.0
C1542 C 0.53002 0.52423 0.0217 0.0
C1543 C 0.53871 0.51987 0.99477 0.0
C1544 C 0.51187 0.51257 0.02936 0.0
C1545 C 0.50198 0.49644 1.00985 0.0
C1546 C 0.51087 0.4919 0.98352 0.0
C1547 C 0.5291 0.50346 0.97623 0.0
H1548 H 0.43237 0.08506 0.99029 0.0
H1549 H 0.42678 0.04764 0.07416 0.0
H1550 H 0.42741 0.10327 0.03512 0.0
H1551 H 0.42172 0.06549 0.11849 0.0
H1552 H 0.4158 0.10058 0.19741 0.0
H1553 H 0.43224 0.09318 0.15279 0.0
H1554 H 0.40016 0.0974 0.06753 0.0
H1555 H 0.38407 0.10498 0.11179 0.0
C1556 C 0.43053 0.08098 0.01837 0.0
C1557 C 0.42977 0.06484 0.02865 0.0
C1558 C 0.42759 0.09132 0.04403 0.0
C1559 C 0.42405 0.08581 0.08046 0.0
C1560 C 0.42459 0.07032 0.0909 0.0
C1561 C 0.42734 0.05996 0.06534 0.0
C1562 C 0.41271 0.10049 0.16902 0.0
C1563 C 0.39851 0.10315 0.15815 0.0
C1564 C 0.42201 0.09611 0.14346 0.0
C1565 C 0.41737 0.09444 0.10654 0.0
C1566 C 0.40422 0.09866 0.09557 0.0
C1567 C 0.39488 0.1029 0.12105 0.0
H1568 H 0.88261 0.31131 0.19909 0.0
H1569 H 0.88041 0.27637 0.11287 0.0
H1570 H 0.88905 0.33508 0.15491 0.0
H1571 H 0.88718 0.29999 0.06912 0.0
H1572 H 0.89872 0.34384 0.99206 0.0
H1573 H 0.88073 0.32032 0.03632 0.0
H1574 H 0.91608 0.35388 0.12145 0.0
H1575 H 0.93358 0.37723 0.07771 0.0
C1576 C 0.88301 0.30853 0.17067 0.0
C1577 C 0.88122 0.29206 0.15952 0.0
C1578 C 0.88685 0.32219 0.14534 0.0
C1579 C 0.88892 0.3196 0.10838 0.0
C1580 C 0.88559 0.30253 0.09715 0.0
C1581 C 0.88182 0.28897 0.12237 0.0
C1582 C 0.90227 0.34633 0.02038 0.0
C1583 C 0.91768 0.36229 0.03132 0.0
C1584 C 0.89207 0.33283 0.04575 0.0
C1585 C 0.89704 0.33507 0.08253 0.0
C1586 C 0.91167 0.35164 0.09358 0.0
C1587 C 0.92184 0.36504 0.06834 0.0
H1588 H 0.64193 0.55197 0.99275 0.0
H1589 H 0.60829 0.55322 0.07818 0.0
H1590 H 0.66559 0.55807 0.03703 0.0
H1591 H 0.63177 0.55967 0.12191 0.0
H1592 H 0.67445 0.56979 0.19971 0.0
H1593 H 0.65078 0.55205 0.15573 0.0
H1594 H 0.68576 0.58493 0.06944 0.0
H1595 H 0.70933 0.60215 0.11301 0.0
C1596 C 0.63943 0.55312 0.02103 0.0
C1597 C 0.62335 0.55233 0.0319 0.0
C1598 C 0.65301 0.55675 0.04641 0.0
C1599 C 0.65073 0.55958 0.08312 0.0
C1600 C 0.63406 0.55741 0.09411 0.0
C1601 C 0.62059 0.55386 0.06886 0.0
C1602 C 0.67723 0.57282 0.17124 0.0
C1603 C 0.69366 0.58751 0.1599 0.0
C1604 C 0.66362 0.56277 0.14601 0.0
C1605 C 0.6662 0.56721 0.10896 0.0
C1606 C 0.68323 0.58096 0.09755 0.0
C1607 C 0.69676 0.59097 0.12268 0.0
H1608 H 0.09858 0.38308 0.40944 0.0
H1609 H 0.09435 0.41456 0.32306 0.0
H1610 H 0.09135 0.39962 0.45333 0.0
H1611 H 0.08718 0.43137 0.36727 0.0
H1612 H 0.08089 0.43368 0.52962 0.0
H1613 H 0.09825 0.42769 0.48451 0.0
H1614 H 0.05955 0.42117 0.40265 0.0
H1615 H 0.04247 0.42722 0.44728 0.0
C1616 C 0.0966 0.39392 0.39993 0.0
C1617 C 0.09686 0.39741 0.36276 0.0
C1618 C 0.09255 0.4035 0.42518 0.0
C1619 C 0.08849 0.41673 0.41388 0.0
C1620 C 0.09004 0.42112 0.37685 0.0
C1621 C 0.09428 0.41161 0.35152 0.0
C1622 C 0.0764 0.43141 0.50179 0.0
C1623 C 0.06023 0.43075 0.49207 0.0
C1624 C 0.08626 0.42788 0.47598 0.0
C1625 C 0.08025 0.42384 0.43993 0.0
C1626 C 0.06473 0.42442 0.42995 0.0
C1627 C 0.05483 0.42775 0.45568 0.0
H1628 H 0.55232 0.64615 0.53616 0.0
H1629 H 0.55146 0.61162 0.45039 0.0
H1630 H 0.55873 0.6699 0.49179 0.0
H1631 H 0.55798 0.63514 0.40646 0.0
H1632 H 0.56725 0.67829 0.32912 0.0
H1633 H 0.54995 0.65489 0.37408 0.0
H1634 H 0.58623 0.68886 0.45763 0.0
H1635 H 0.60319 0.71208 0.41308 0.0
C1636 C 0.553 0.64346 0.50779 0.0
C1637 C 0.55158 0.62711 0.49679 0.0
C1638 C 0.5568 0.65708 0.48238 0.0
C1639 C 0.55905 0.65452 0.44551 0.0
C1640 C 0.55619 0.6376 0.43443 0.0
C1641 C 0.55258 0.62413 0.45974 0.0
C1642 C 0.57117 0.68091 0.35725 0.0
C1643 C 0.58669 0.69692 0.3675 0.0
C1644 C 0.56135 0.66747 0.383 0.0
C1645 C 0.56679 0.66989 0.41949 0.0
C1646 C 0.5815 0.68653 0.42996 0.0
C1647 C 0.59134 0.69983 0.40429 0.0
H1648 H 0.34125 0.90367 0.5319 0.0
H1649 H 0.37378 0.94121 0.44876 0.0
H1650 H 0.31784 0.88627 0.48691 0.0
H1651 H 0.35064 0.92415 0.40427 0.0
H1652 H 0.3092 0.88999 0.32494 0.0
H1653 H 0.33289 0.89666 0.36944 0.0
H1654 H 0.29703 0.89326 0.45499 0.0
H1655 H 0.27349 0.88642 0.41084 0.0
C1656 C 0.34358 0.90794 0.50393 0.0
C1657 C 0.35925 0.92389 0.49392 0.0
C1658 C 0.33016 0.89807 0.47819 0.0
C1659 C 0.33228 0.90385 0.44193 0.0
C1660 C 0.34855 0.91912 0.43172 0.0
C1661 C 0.3618 0.92903 0.45737 0.0
C1662 C 0.30624 0.89012 0.35335 0.0
C1663 C 0.28956 0.88789 0.36434 0.0
C1664 C 0.31984 0.89408 0.37885 0.0
C1665 C 0.31696 0.89573 0.41582 0.0
C1666 C 0.29974 0.89198 0.4269 0.0
C1667 C 0.28625 0.88817 0.40148 0.0
H1668 H 0.60298 0.88782 0.91416 0.0
H1669 H 0.56766 0.88525 0.8284 0.0
H1670 H 0.58547 0.89384 0.95757 0.0
H1671 H 0.54962 0.89082 0.87234 0.0
H1672 H 0.54799 0.93422 0.94648 0.0
H1673 H 0.55539 0.91745 0.90382 0.0
H1674 H 0.55885 0.88601 0.99148 0.0
H1675 H 0.55185 0.90335 0.0346 0.0
C1676 C 0.59113 0.88805 0.9047 0.0
C1677 C 0.58687 0.88631 0.86771 0.0
C1678 C 0.58095 0.89137 0.92978 0.0
C1679 C 0.56618 0.89305 0.91858 0.0
C1680 C 0.56109 0.88993 0.88188 0.0
C1681 C 0.57133 0.88659 0.85669 0.0
C1682 C 0.54992 0.92345 0.95666 0.0
C1683 C 0.54958 0.92029 0.994 0.0
C1684 C 0.55405 0.91369 0.93205 0.0
C1685 C 0.55796 0.90046 0.94407 0.0
C1686 C 0.55622 0.89632 0.98128 0.0
C1687 C 0.55206 0.90613 1.00601 0.0
H1688 H 0.08417 0.64178 0.03002 0.0
H1689 H 0.04621 0.60995 0.94692 0.0
H1690 H 0.10194 0.66506 0.98513 0.0
H1691 H 0.06361 0.63302 0.90253 0.0
H1692 H 0.09742 0.67466 0.82357 0.0
H1693 H 0.09074 0.65064 0.86727 0.0
H1694 H 0.09568 0.6864 0.95435 0.0
H1695 H 0.10258 0.71026 0.91098 0.0
C1696 C 0.07988 0.63955 1.00206 0.0
C1697 C 0.0637 0.62414 0.99207 0.0
C1698 C 0.08998 0.65292 0.97637 0.0
C1699 C 0.08415 0.65102 0.94019 0.0
C1700 C 0.06867 0.63494 0.92992 0.0
C1701 C 0.05857 0.62173 0.95553 0.0
C1702 C 0.09765 0.67751 0.85212 0.0
C1703 C 0.10031 0.69427 0.8638 0.0
C1704 C 0.09368 0.66373 0.87718 0.0
C1705 C 0.09241 0.66648 0.91437 0.0
C1706 C 0.09665 0.68376 0.92607 0.0
C1707 C 0.1005 0.69745 0.9011 0.0
H1708 H 0.31064 0.4223 0.82225 0.0
H1709 H 0.27547 0.39055 0.90913 0.0
H1710 H 0.3345 0.43972 0.86617 0.0
H1711 H 0.29916 0.40742 0.9526 0.0
H1712 H 0.34294 0.43894 0.02941 0.0
H1713 H 0.31973 0.434 0.98496 0.0
H1714 H 0.3531 0.43159 0.90007 0.0
H1715 H 0.37619 0.43694 0.94401 0.0
C1716 C 0.30785 0.41936 0.85074 0.0
C1717 C 0.29127 0.40491 0.86217 0.0
C1718 C 0.32156 0.42922 0.87594 0.0
C1719 C 0.31891 0.42484 0.91302 0.0
C1720 C 0.30176 0.41136 0.92447 0.0
C1721 C 0.28815 0.40154 0.8994 0.0
C1722 C 0.34549 0.43791 1.00109 0.0
C1723 C 0.36128 0.43809 0.99028 0.0
C1724 C 0.33214 0.43493 0.97561 0.0
C1725 C 0.33437 0.43212 0.93886 0.0
C1726 C 0.35086 0.43382 0.92792 0.0
C1727 C 0.36411 0.43675 0.95327 0.0
H1728 H 0.88419 0.6028 0.61205 0.0
H1729 H 0.88525 0.56929 0.69791 0.0
H1730 H 0.89093 0.58593 0.56821 0.0
H1731 H 0.89178 0.55202 0.65365 0.0
H1732 H 0.93625 0.55408 0.57602 0.0
H1733 H 0.91916 0.56041 0.62004 0.0
H1734 H 0.88348 0.5585 0.53557 0.0
H1735 H 0.90095 0.55236 0.49109 0.0
C1736 C 0.88538 0.59147 0.62144 0.0
C1737 C 0.8844 0.58751 0.65851 0.0
C1738 C 0.88913 0.58167 0.59618 0.0
C1739 C 0.8921 0.56769 0.60732 0.0
C1740 C 0.8898 0.56287 0.64418 0.0
C1741 C 0.88593 0.57265 0.66953 0.0
C1742 C 0.92451 0.5546 0.56689 0.0
C1743 C 0.92008 0.55293 0.52999 0.0
C1744 C 0.91459 0.5581 0.59227 0.0
C1745 C 0.89999 0.56014 0.58143 0.0
C1746 C 0.89478 0.55723 0.54479 0.0
C1747 C 0.9047 0.55359 0.51932 0.0
H1748 H 0.37701 0.27824 0.61155 0.0
H1749 H 0.4139 0.31003 0.69618 0.0
H1750 H 0.3946 0.30166 0.56788 0.0
H1751 H 0.43188 0.33363 0.65202 0.0
H1752 H 0.43359 0.37908 0.57748 0.0
H1753 H 0.42595 0.35499 0.62067 0.0
H1754 H 0.42198 0.31955 0.53372 0.0
H1755 H 0.42938 0.34381 0.49016 0.0
C1756 C 0.38917 0.2901 0.62068 0.0
C1757 C 0.39395 0.29237 0.65742 0.0
C1758 C 0.39939 0.30351 0.59548 0.0
C1759 C 0.41464 0.31965 0.60634 0.0
C1760 C 0.42009 0.32145 0.64278 0.0
C1761 C 0.40988 0.3079 0.66806 0.0
C1762 C 0.43154 0.36629 0.5676 0.0
C1763 C 0.43187 0.36329 0.53034 0.0
C1764 C 0.42726 0.35246 0.59248 0.0
C1765 C 0.42311 0.3352 0.58075 0.0
C1766 C 0.42483 0.33261 0.54365 0.0
C1767 C 0.42922 0.34653 0.51869 0.0
H1768 H 0.60686 0.05571 0.57583 0.0
H1769 H 0.64277 0.08603 0.48868 0.0
H1770 H 0.63072 0.07236 0.61935 0.0
H1771 H 0.66678 0.10307 0.53253 0.0
H1772 H 0.70712 0.09857 0.61169 0.0
H1773 H 0.68407 0.09316 0.5675 0.0
H1774 H 0.65234 0.0997 0.6505 0.0
H1775 H 0.6756 0.10494 0.69522 0.0
C1776 C 0.61974 0.06635 0.56604 0.0
C1777 C 0.623 0.06938 0.52876 0.0
C1778 C 0.63343 0.07601 0.5911 0.0
C1779 C 0.6508 0.08892 0.57952 0.0
C1780 C 0.65363 0.09302 0.54236 0.0
C1781 C 0.63985 0.08337 0.51721 0.0
C1782 C 0.69541 0.09924 0.62044 0.0
C1783 C 0.69308 0.10197 0.65703 0.0
C1784 C 0.68221 0.09629 0.59495 0.0
C1785 C 0.66623 0.09586 0.60535 0.0
C1786 C 0.6644 0.09975 0.64162 0.0
C1787 C 0.67776 0.10287 0.66721 0.0
H1788 H 0.76671 0.71766 0.74674 0.0
H1789 H 0.7663 0.75133 0.6605 0.0
H1790 H 0.75999 0.73464 0.79022 0.0
H1791 H 0.75991 0.76881 0.70444 0.0
H1792 H 0.71524 0.76728 0.78013 0.0
H1793 H 0.73276 0.76114 0.73693 0.0
H1794 H 0.7668 0.76141 0.8233 0.0
H1795 H 0.74878 0.76721 0.86697 0.0
C1796 C 0.76569 0.72907 0.73719 0.0
C1797 C 0.76679 0.73299 0.70009 0.0
C1798 C 0.76196 0.73894 0.76227 0.0
C1799 C 0.75916 0.75301 0.75093 0.0
C1800 C 0.76169 0.75787 0.71408 0.0
C1801 C 0.7655 0.74797 0.6889 0.0
C1802 C 0.72671 0.76643 0.78989 0.0
C1803 C 0.73047 0.76747 0.82706 0.0
C1804 C 0.7369 0.76305 0.76497 0.0
C1805 C 0.75113 0.76057 0.77652 0.0
C1806 C 0.75576 0.76297 0.81349 0.0
C1807 C 0.74554 0.76643 0.83852 0.0
H1808 H 0.23335 0.01064 0.65696 0.0
H1809 H 0.26798 0.04385 0.74305 0.0
H1810 H 0.21521 0.98706 0.70099 0.0
H1811 H 0.25038 0.02043 0.78653 0.0
H1812 H 0.21666 0.97786 0.86394 0.0
H1813 H 0.22349 0.00177 0.81986 0.0
H1814 H 0.22098 0.96646 0.7339 0.0
H1815 H 0.21375 0.9427 0.77752 0.0
C1816 C 0.23685 0.01306 0.68531 0.0
C1817 C 0.25221 0.029 0.69644 0.0
C1818 C 0.22655 -0.00048 0.71056 0.0
C1819 C 0.23141 0.00169 0.74741 0.0
C1820 C 0.24603 0.01823 0.75862 0.0
C1821 C 0.25627 0.03167 0.73351 0.0
C1822 C 0.21701 0.97509 0.8355 0.0
C1823 C 0.2149 0.95849 0.82428 0.0
C1824 C 0.22109 0.98883 0.81022 0.0
C1825 C 0.2231 0.9862 0.77324 0.0
C1826 C 0.21945 0.96904 0.76194 0.0
C1827 C 0.21542 0.9554 0.7871 0.0
H1828 H 0.97631 0.22104 0.65366 0.0
H1829 H 0.94086 0.21464 0.74234 0.0
H1830 H 0.00075 0.22836 0.69652 0.0
H1831 H 0.96519 0.22248 0.78482 0.0
H1832 H 0.01051 0.23663 0.85959 0.0
H1833 H 0.98698 0.21812 0.81587 0.0
H1834 H 0.01871 0.25483 0.73064 0.0
H1835 H 0.04215 0.27276 0.77378 0.0
C1836 C 0.9736 0.22074 0.68231 0.0
C1837 C 0.95672 0.21749 0.69455 0.0
C1838 C 0.98765 0.22512 0.70692 0.0
C1839 C 0.98511 0.22637 0.74425 0.0
C1840 C 0.96774 0.22157 0.75648 0.0
C1841 C 0.95375 0.21717 0.73197 0.0
C1842 C 0.01261 0.2404 0.83133 0.0
C1843 C 0.02809 0.25627 0.82024 0.0
C1844 C -0.00092 0.22989 0.80627 0.0
C1845 C 0.00076 0.23505 0.76963 0.0
C1846 C 0.01689 0.25023 0.75837 0.0
C1847 C 0.03034 0.26066 0.78329 0.0
H1848 H 0.26992 0.22232 0.24497 0.0
H1849 H 0.23395 0.21943 0.16036 0.0
H1850 H 0.25259 0.22826 0.28908 0.0
H1851 H 0.21622 0.22516 0.20495 0.0
H1852 H 0.21631 0.26936 0.28091 0.0
H1853 H 0.2232 0.25255 0.23719 0.0
H1854 H 0.22528 0.21951 0.32309 0.0
H1855 H 0.2186 0.23672 0.36721 0.0
C1856 C 0.25798 0.22249 0.23594 0.0
C1857 C 0.25342 0.22062 0.1991 0.0
C1858 C 0.24792 0.22576 0.26138 0.0
C1859 C 0.23306 0.22736 0.25066 0.0
C1860 C 0.22773 0.22423 0.21409 0.0
C1861 C 0.23778 0.22081 0.18855 0.0
C1862 C 0.2178 0.25822 0.29044 0.0
C1863 C 0.21714 0.25451 0.32758 0.0
C1864 C 0.22163 0.24846 0.26525 0.0
C1865 C 0.225 0.23476 0.27654 0.0
C1866 C 0.223 0.23014 0.3135 0.0
C1867 C 0.21904 0.23989 0.33878 0.0
H1868 H 0.76426 0.01123 0.15518 0.0
H1869 H 0.7584 0.04332 0.23814 0.0
H1870 H 0.75852 0.9879 0.20022 0.0
H1871 H 0.75261 0.02026 0.28267 0.0
H1872 H 0.74652 0.9793 0.36229 0.0
H1873 H 0.76301 0.00306 0.31756 0.0
H1874 H 0.73091 0.96665 0.23242 0.0
H1875 H 0.71473 0.94305 0.27683 0.0
C1876 C 0.76217 0.01348 0.18312 0.0
C1877 C 0.76161 0.02901 0.19306 0.0
C1878 C 0.75878 0.0001 0.20889 0.0
C1879 C 0.75501 0.00213 0.24513 0.0
C1880 C 0.75566 0.01825 0.25525 0.0
C1881 C 0.75884 0.03145 0.22957 0.0
C1882 C 0.74341 0.97625 0.33392 0.0
C1883 C 0.72921 0.95937 0.32313 0.0
C1884 C 0.75274 0.98989 0.30828 0.0
C1885 C 0.74814 0.98686 0.27136 0.0
C1886 C 0.73495 0.96948 0.26047 0.0
C1887 C 0.72557 0.95595 0.28604 0.0
H1888 H 0.00722 0.7658 0.36672 0.0
H1889 H 0.04227 0.76926 0.27956 0.0
H1890 H 0.98321 0.75911 0.32301 0.0
H1891 H 0.01842 0.76224 0.23627 0.0
H1892 H 0.94121 0.71511 0.24491 0.0
H1893 H 0.96463 0.73226 0.28876 0.0
H1894 H -0.00221 0.76869 0.2045 0.0
H1895 H 0.97421 0.75108 0.16012 0.0
C1896 C 0.00995 0.76559 0.33821 0.0
C1897 C 0.02656 0.76785 0.32664 0.0
C1898 C -0.00384 0.76161 0.31314 0.0
C1899 C -0.00126 0.75987 0.27604 0.0
C1900 C 0.01589 0.76359 0.26443 0.0
C1901 C 0.02958 0.7675 0.28939 0.0
C1902 C 0.95334 0.72701 0.23578 0.0
C1903 C 0.95595 0.7316 0.19894 0.0
C1904 C 0.96677 0.73697 0.26109 0.0
C1905 C 0.98325 0.75181 0.25027 0.0
C1906 C 0.98537 0.75718 0.21372 0.0
C1907 C 0.97182 0.74719 0.1883 0.0
loop_
_geom_bond_atom_site_label_1
_geom_bond_atom_site_label_2
_geom_bond_distance
_geom_bond_site_symmetry_2
_ccdc_geom_bond_type
In0 O1 2.294 . S
In0 O2 2.326 . S
In0 O6 2.266 . S
In0 O7 2.326 . S
In0 O8 2.266 . S
In0 O9 2.326 . S
In0 O11 2.294 . S
In0 O12 2.326 . S
O1 In0 2.294 . S
O1 C10 1.240 . S
O2 In0 2.326 . S
O2 C10 1.252 . S
C3 O6 1.252 . S
C3 O7 1.260 . S
C4 O11 1.240 . S
C4 O12 1.252 . S
C5 O8 1.252 . S
C5 O9 1.260 . S
O6 In0 2.266 . S
O6 C3 1.252 . S
O7 In0 2.326 . S
O7 C3 1.260 . S
O8 In0 2.266 . S
O8 C5 1.252 . S
O9 In0 2.326 . S
O9 C5 1.260 . S
C10 O1 1.240 . S
C10 O2 1.252 . S
O11 In0 2.294 . S
O11 C4 1.240 . S
O12 In0 2.326 . S
O12 C4 1.252 . S
In13 O14 2.294 . S
In13 O15 2.326 . S
In13 O19 2.266 . S
In13 O20 2.326 . S
In13 O21 2.266 . S
In13 O22 2.326 . S
In13 O24 2.294 . S
In13 O25 2.326 . S
O14 In13 2.294 . S
O14 C23 1.240 . S
O15 In13 2.326 . S
O15 C23 1.252 . S
C16 O19 1.252 . S
C16 O20 1.260 . S
C17 O24 1.240 . S
C17 O25 1.252 . S
C18 O21 1.252 . S
C18 O22 1.260 . S
O19 In13 2.266 . S
O19 C16 1.252 . S
O20 In13 2.326 . S
O20 C16 1.260 . S
O21 In13 2.266 . S
O21 C18 1.252 . S
O22 In13 2.326 . S
O22 C18 1.260 . S
C23 O14 1.240 . S
C23 O15 1.252 . S
O24 In13 2.294 . S
O24 C17 1.240 . S
O25 In13 2.326 . S
O25 C17 1.252 . S
In26 O27 2.294 . S
In26 O28 2.326 . S
In26 O32 2.266 . S
In26 O33 2.326 . S
In26 O34 2.266 . S
In26 O35 2.326 . S
In26 O37 2.294 . S
In26 O38 2.326 . S
O27 In26 2.294 . S
O27 C36 1.240 . S
O28 In26 2.326 . S
O28 C36 1.252 . S
C29 O32 1.252 . S
C29 O33 1.260 . S
C30 O37 1.240 . S
C30 O38 1.252 . S
C31 O34 1.252 . S
C31 O35 1.260 . S
O32 In26 2.266 . S
O32 C29 1.252 . S
O33 In26 2.326 . S
O33 C29 1.260 . S
O34 In26 2.266 . S
O34 C31 1.252 . S
O35 In26 2.326 . S
O35 C31 1.260 . S
C36 O27 1.240 . S
C36 O28 1.252 . S
O37 In26 2.294 . S
O37 C30 1.240 . S
O38 In26 2.326 . S
O38 C30 1.252 . S
In39 O40 2.294 . S
In39 O41 2.326 . S
In39 O45 2.266 . S
In39 O46 2.326 . S
In39 O47 2.266 . S
In39 O48 2.326 . S
In39 O50 2.294 . S
In39 O51 2.326 . S
O40 In39 2.294 . S
O40 C49 1.240 . S
O41 In39 2.326 . S
O41 C49 1.252 . S
C42 O45 1.252 . S
C42 O46 1.260 . S
C43 O50 1.240 . S
C43 O51 1.252 . S
C44 O47 1.252 . S
C44 O48 1.260 . S
O45 In39 2.266 . S
O45 C42 1.252 . S
O46 In39 2.326 . S
O46 C42 1.260 . S
O47 In39 2.266 . S
O47 C44 1.252 . S
O48 In39 2.326 . S
O48 C44 1.260 . S
C49 O40 1.240 . S
C49 O41 1.252 . S
O50 In39 2.294 . S
O50 C43 1.240 . S
O51 In39 2.326 . S
O51 C43 1.252 . S
In52 O53 2.294 . S
In52 O54 2.326 . S
In52 O58 2.266 . S
In52 O59 2.326 . S
In52 O60 2.266 . S
In52 O61 2.326 . S
In52 O63 2.294 . S
In52 O64 2.326 . S
O53 In52 2.294 . S
O53 C62 1.240 . S
O54 In52 2.326 . S
O54 C62 1.252 . S
C55 O58 1.252 . S
C55 O59 1.260 . S
C56 O63 1.240 . S
C56 O64 1.252 . S
C57 O60 1.252 . S
C57 O61 1.260 . S
O58 In52 2.266 . S
O58 C55 1.252 . S
O59 In52 2.326 . S
O59 C55 1.260 . S
O60 In52 2.266 . S
O60 C57 1.252 . S
O61 In52 2.326 . S
O61 C57 1.260 . S
C62 O53 1.240 . S
C62 O54 1.252 . S
O63 In52 2.294 . S
O63 C56 1.240 . S
O64 In52 2.326 . S
O64 C56 1.252 . S
In65 O66 2.294 . S
In65 O67 2.326 . S
In65 O71 2.266 . S
In65 O72 2.326 . S
In65 O73 2.266 . S
In65 O74 2.326 . S
In65 O76 2.294 . S
In65 O77 2.326 . S
O66 In65 2.294 . S
O66 C75 1.240 . S
O67 In65 2.326 . S
O67 C75 1.252 . S
C68 O71 1.252 . S
C68 O72 1.260 . S
C69 O76 1.240 . S
C69 O77 1.252 . S
C70 O73 1.252 . S
C70 O74 1.260 . S
O71 In65 2.266 . S
O71 C68 1.252 . S
O72 In65 2.326 . S
O72 C68 1.260 . S
O73 In65 2.266 . S
O73 C70 1.252 . S
O74 In65 2.326 . S
O74 C70 1.260 . S
C75 O66 1.240 . S
C75 O67 1.252 . S
O76 In65 2.294 . S
O76 C69 1.240 . S
O77 In65 2.326 . S
O77 C69 1.252 . S
In78 O79 2.294 . S
In78 O80 2.326 . S
In78 O84 2.266 . S
In78 O85 2.326 . S
In78 O86 2.266 . S
In78 O87 2.326 . S
In78 O89 2.294 . S
In78 O90 2.326 . S
O79 In78 2.294 . S
O79 C88 1.240 . S
O80 In78 2.326 . S
O80 C88 1.252 . S
C81 O84 1.252 . S
C81 O85 1.260 . S
C82 O89 1.240 . S
C82 O90 1.252 . S
C83 O86 1.252 . S
C83 O87 1.260 . S
O84 In78 2.266 . S
O84 C81 1.252 . S
O85 In78 2.326 . S
O85 C81 1.260 . S
O86 In78 2.266 . S
O86 C83 1.252 . S
O87 In78 2.326 . S
O87 C83 1.260 . S
C88 O79 1.240 . S
C88 O80 1.252 . S
O89 In78 2.294 . S
O89 C82 1.240 . S
O90 In78 2.326 . S
O90 C82 1.252 . S
In91 O92 2.294 . S
In91 O93 2.326 . S
In91 O97 2.266 . S
In91 O98 2.326 . S
In91 O99 2.266 . S
In91 O100 2.326 . S
In91 O102 2.294 . S
In91 O103 2.326 . S
O92 In91 2.294 . S
O92 C101 1.240 . S
O93 In91 2.326 . S
O93 C101 1.252 . S
C94 O97 1.252 . S
C94 O98 1.260 . S
C95 O102 1.240 . S
C95 O103 1.252 . S
C96 O99 1.252 . S
C96 O100 1.260 . S
O97 In91 2.266 . S
O97 C94 1.252 . S
O98 In91 2.326 . S
O98 C94 1.260 . S
O99 In91 2.266 . S
O99 C96 1.252 . S
O100 In91 2.326 . S
O100 C96 1.260 . S
C101 O92 1.240 . S
C101 O93 1.252 . S
O102 In91 2.294 . S
O102 C95 1.240 . S
O103 In91 2.326 . S
O103 C95 1.252 . S
In104 O105 2.294 . S
In104 O106 2.326 . S
In104 O110 2.266 . S
In104 O111 2.326 . S
In104 O112 2.266 . S
In104 O113 2.326 . S
In104 O115 2.294 . S
In104 O116 2.326 . S
O105 In104 2.294 . S
O105 C114 1.240 . S
O106 In104 2.326 . S
O106 C114 1.252 . S
C107 O110 1.252 . S
C107 O111 1.260 . S
C108 O115 1.240 . S
C108 O116 1.252 . S
C109 O112 1.252 . S
C109 O113 1.260 . S
O110 In104 2.266 . S
O110 C107 1.252 . S
O111 In104 2.326 . S
O111 C107 1.260 . S
O112 In104 2.266 . S
O112 C109 1.252 . S
O113 In104 2.326 . S
O113 C109 1.260 . S
C114 O105 1.240 . S
C114 O106 1.252 . S
O115 In104 2.294 . S
O115 C108 1.240 . S
O116 In104 2.326 . S
O116 C108 1.252 . S
In117 O118 2.294 . S
In117 O119 2.326 . S
In117 O123 2.266 . S
In117 O124 2.326 . S
In117 O125 2.266 . S
In117 O126 2.326 . S
In117 O128 2.294 . S
In117 O129 2.326 . S
O118 In117 2.294 . S
O118 C127 1.240 . S
O119 In117 2.326 . S
O119 C127 1.252 . S
C120 O123 1.252 . S
C120 O124 1.260 . S
C121 O128 1.240 . S
C121 O129 1.252 . S
C122 O125 1.252 . S
C122 O126 1.260 . S
O123 In117 2.266 . S
O123 C120 1.252 . S
O124 In117 2.326 . S
O124 C120 1.260 . S
O125 In117 2.266 . S
O125 C122 1.252 . S
O126 In117 2.326 . S
O126 C122 1.260 . S
C127 O118 1.240 . S
C127 O119 1.252 . S
O128 In117 2.294 . S
O128 C121 1.240 . S
O129 In117 2.326 . S
O129 C121 1.252 . S
In130 O131 2.294 . S
In130 O132 2.326 . S
In130 O136 2.266 . S
In130 O137 2.326 . S
In130 O138 2.266 . S
In130 O139 2.326 . S
In130 O141 2.294 . S
In130 O142 2.326 . S
O131 In130 2.294 . S
O131 C140 1.240 . S
O132 In130 2.326 . S
O132 C140 1.252 . S
C133 O136 1.252 . S
C133 O137 1.260 . S
C134 O141 1.240 . S
C134 O142 1.252 . S
C135 O138 1.252 . S
C135 O139 1.260 . S
O136 In130 2.266 . S
O136 C133 1.252 . S
O137 In130 2.326 . S
O137 C133 1.260 . S
O138 In130 2.266 . S
O138 C135 1.252 . S
O139 In130 2.326 . S
O139 C135 1.260 . S
C140 O131 1.240 . S
C140 O132 1.252 . S
O141 In130 2.294 . S
O141 C134 1.240 . S
O142 In130 2.326 . S
O142 C134 1.252 . S
In143 O144 2.294 . S
In143 O145 2.326 . S
In143 O149 2.266 . S
In143 O150 2.326 . S
In143 O151 2.266 . S
In143 O152 2.326 . S
In143 O154 2.294 . S
In143 O155 2.326 . S
O144 In143 2.294 . S
O144 C153 1.240 . S
O145 In143 2.326 . S
O145 C153 1.252 . S
C146 O149 1.252 . S
C146 O150 1.260 . S
C147 O154 1.240 . S
C147 O155 1.252 . S
C148 O151 1.252 . S
C148 O152 1.260 . S
O149 In143 2.266 . S
O149 C146 1.252 . S
O150 In143 2.326 . S
O150 C146 1.260 . S
O151 In143 2.266 . S
O151 C148 1.252 . S
O152 In143 2.326 . S
O152 C148 1.260 . S
C153 O144 1.240 . S
C153 O145 1.252 . S
O154 In143 2.294 . S
O154 C147 1.240 . S
O155 In143 2.326 . S
O155 C147 1.252 . S
In156 O157 2.294 . S
In156 O158 2.326 . S
In156 O162 2.266 . S
In156 O163 2.326 . S
In156 O164 2.266 . S
In156 O165 2.326 . S
In156 O167 2.294 . S
In156 O168 2.326 . S
O157 In156 2.294 . S
O157 C166 1.240 . S
O158 In156 2.326 . S
O158 C166 1.252 . S
C159 O162 1.252 . S
C159 O163 1.260 . S
C160 O167 1.240 . S
C160 O168 1.252 . S
C161 O164 1.252 . S
C161 O165 1.260 . S
O162 In156 2.266 . S
O162 C159 1.252 . S
O163 In156 2.326 . S
O163 C159 1.260 . S
O164 In156 2.266 . S
O164 C161 1.252 . S
O165 In156 2.326 . S
O165 C161 1.260 . S
C166 O157 1.240 . S
C166 O158 1.252 . S
O167 In156 2.294 . S
O167 C160 1.240 . S
O168 In156 2.326 . S
O168 C160 1.252 . S
In169 O170 2.294 . S
In169 O171 2.326 . S
In169 O175 2.266 . S
In169 O176 2.326 . S
In169 O177 2.266 . S
In169 O178 2.326 . S
In169 O180 2.294 . S
In169 O181 2.326 . S
O170 In169 2.294 . S
O170 C179 1.240 . S
O171 In169 2.326 . S
O171 C179 1.252 . S
C172 O175 1.252 . S
C172 O176 1.260 . S
C173 O180 1.240 . S
C173 O181 1.252 . S
C174 O177 1.252 . S
C174 O178 1.260 . S
O175 In169 2.266 . S
O175 C172 1.252 . S
O176 In169 2.326 . S
O176 C172 1.260 . S
O177 In169 2.266 . S
O177 C174 1.252 . S
O178 In169 2.326 . S
O178 C174 1.260 . S
C179 O170 1.240 . S
C179 O171 1.252 . S
O180 In169 2.294 . S
O180 C173 1.240 . S
O181 In169 2.326 . S
O181 C173 1.252 . S
In182 O183 2.294 . S
In182 O184 2.326 . S
In182 O188 2.266 . S
In182 O189 2.326 . S
In182 O190 2.266 . S
In182 O191 2.326 . S
In182 O193 2.294 . S
In182 O194 2.326 . S
O183 In182 2.294 . S
O183 C192 1.240 . S
O184 In182 2.326 . S
O184 C192 1.252 . S
C185 O188 1.252 . S
C185 O189 1.260 . S
C186 O193 1.240 . S
C186 O194 1.252 . S
C187 O190 1.252 . S
C187 O191 1.260 . S
O188 In182 2.266 . S
O188 C185 1.252 . S
O189 In182 2.326 . S
O189 C185 1.260 . S
O190 In182 2.266 . S
O190 C187 1.252 . S
O191 In182 2.326 . S
O191 C187 1.260 . S
C192 O183 1.240 . S
C192 O184 1.252 . S
O193 In182 2.294 . S
O193 C186 1.240 . S
O194 In182 2.326 . S
O194 C186 1.252 . S
In195 O196 2.294 . S
In195 O197 2.326 . S
In195 O201 2.266 . S
In195 O202 2.326 . S
In195 O203 2.266 . S
In195 O204 2.326 . S
In195 O206 2.294 . S
In195 O207 2.326 . S
O196 In195 2.294 . S
O196 C205 1.240 . S
O197 In195 2.326 . S
O197 C205 1.252 . S
C198 O201 1.252 . S
C198 O202 1.260 . S
C199 O206 1.240 . S
C199 O207 1.252 . S
C200 O203 1.252 . S
C200 O204 1.260 . S
O201 In195 2.266 . S
O201 C198 1.252 . S
O202 In195 2.326 . S
O202 C198 1.260 . S
O203 In195 2.266 . S
O203 C200 1.252 . S
O204 In195 2.326 . S
O204 C200 1.260 . S
C205 O196 1.240 . S
C205 O197 1.252 . S
O206 In195 2.294 . S
O206 C199 1.240 . S
O207 In195 2.326 . S
O207 C199 1.252 . S
In208 O209 2.294 . S
In208 O210 2.326 . S
In208 O214 2.266 . S
In208 O215 2.326 . S
In208 O216 2.266 . S
In208 O217 2.326 . S
In208 O219 2.294 . S
In208 O220 2.326 . S
O209 In208 2.294 . S
O209 C218 1.240 . S
O210 In208 2.326 . S
O210 C218 1.252 . S
C211 O214 1.252 . S
C211 O215 1.260 . S
C212 O219 1.240 . S
C212 O220 1.252 . S
C213 O216 1.252 . S
C213 O217 1.260 . S
O214 In208 2.266 . S
O214 C211 1.252 . S
O215 In208 2.326 . S
O215 C211 1.260 . S
O216 In208 2.266 . S
O216 C213 1.252 . S
O217 In208 2.326 . S
O217 C213 1.260 . S
C218 O209 1.240 . S
C218 O210 1.252 . S
O219 In208 2.294 . S
O219 C212 1.240 . S
O220 In208 2.326 . S
O220 C212 1.252 . S
In221 O222 2.294 . S
In221 O223 2.326 . S
In221 O227 2.266 . S
In221 O228 2.326 . S
In221 O229 2.266 . S
In221 O230 2.326 . S
In221 O232 2.294 . S
In221 O233 2.326 . S
O222 In221 2.294 . S
O222 C231 1.240 . S
O223 In221 2.326 . S
O223 C231 1.252 . S
C224 O227 1.252 . S
C224 O228 1.260 . S
C225 O232 1.240 . S
C225 O233 1.252 . S
C226 O229 1.252 . S
C226 O230 1.260 . S
O227 In221 2.266 . S
O227 C224 1.252 . S
O228 In221 2.326 . S
O228 C224 1.260 . S
O229 In221 2.266 . S
O229 C226 1.252 . S
O230 In221 2.326 . S
O230 C226 1.260 . S
C231 O222 1.240 . S
C231 O223 1.252 . S
O232 In221 2.294 . S
O232 C225 1.240 . S
O233 In221 2.326 . S
O233 C225 1.252 . S
In234 O235 2.294 . S
In234 O236 2.326 . S
In234 O240 2.266 . S
In234 O241 2.326 . S
In234 O242 2.266 . S
In234 O243 2.326 . S
In234 O245 2.294 . S
In234 O246 2.326 . S
O235 In234 2.294 . S
O235 C244 1.240 . S
O236 In234 2.326 . S
O236 C244 1.252 . S
C237 O240 1.252 . S
C237 O241 1.260 . S
C238 O245 1.240 . S
C238 O246 1.252 . S
C239 O242 1.252 . S
C239 O243 1.260 . S
O240 In234 2.266 . S
O240 C237 1.252 . S
O241 In234 2.326 . S
O241 C237 1.260 . S
O242 In234 2.266 . S
O242 C239 1.252 . S
O243 In234 2.326 . S
O243 C239 1.260 . S
C244 O235 1.240 . S
C244 O236 1.252 . S
O245 In234 2.294 . S
O245 C238 1.240 . S
O246 In234 2.326 . S
O246 C238 1.252 . S
In247 O248 2.294 . S
In247 O249 2.326 . S
In247 O253 2.266 . S
In247 O254 2.326 . S
In247 O255 2.266 . S
In247 O256 2.326 . S
In247 O258 2.294 . S
In247 O259 2.326 . S
O248 In247 2.294 . S
O248 C257 1.240 . S
O249 In247 2.326 . S
O249 C257 1.252 . S
C250 O253 1.252 . S
C250 O254 1.260 . S
C251 O258 1.240 . S
C251 O259 1.252 . S
C252 O255 1.252 . S
C252 O256 1.260 . S
O253 In247 2.266 . S
O253 C250 1.252 . S
O254 In247 2.326 . S
O254 C250 1.260 . S
O255 In247 2.266 . S
O255 C252 1.252 . S
O256 In247 2.326 . S
O256 C252 1.260 . S
C257 O248 1.240 . S
C257 O249 1.252 . S
O258 In247 2.294 . S
O258 C251 1.240 . S
O259 In247 2.326 . S
O259 C251 1.252 . S
In260 O261 2.294 . S
In260 O262 2.326 . S
In260 O266 2.266 . S
In260 O267 2.326 . S
In260 O268 2.266 . S
In260 O269 2.326 . S
In260 O271 2.294 . S
In260 O272 2.326 . S
O261 In260 2.294 . S
O261 C270 1.240 . S
O262 In260 2.326 . S
O262 C270 1.252 . S
C263 O266 1.252 . S
C263 O267 1.260 . S
C264 O271 1.240 . S
C264 O272 1.252 . S
C265 O268 1.252 . S
C265 O269 1.260 . S
O266 In260 2.266 . S
O266 C263 1.252 . S
O267 In260 2.326 . S
O267 C263 1.260 . S
O268 In260 2.266 . S
O268 C265 1.252 . S
O269 In260 2.326 . S
O269 C265 1.260 . S
C270 O261 1.240 . S
C270 O262 1.252 . S
O271 In260 2.294 . S
O271 C264 1.240 . S
O272 In260 2.326 . S
O272 C264 1.252 . S
In273 O274 2.294 . S
In273 O275 2.326 . S
In273 O279 2.266 . S
In273 O280 2.326 . S
In273 O281 2.266 . S
In273 O282 2.326 . S
In273 O284 2.294 . S
In273 O285 2.326 . S
O274 In273 2.294 . S
O274 C283 1.240 . S
O275 In273 2.326 . S
O275 C283 1.252 . S
C276 O279 1.252 . S
C276 O280 1.260 . S
C277 O284 1.240 . S
C277 O285 1.252 . S
C278 O281 1.252 . S
C278 O282 1.260 . S
O279 In273 2.266 . S
O279 C276 1.252 . S
O280 In273 2.326 . S
O280 C276 1.260 . S
O281 In273 2.266 . S
O281 C278 1.252 . S
O282 In273 2.326 . S
O282 C278 1.260 . S
C283 O274 1.240 . S
C283 O275 1.252 . S
O284 In273 2.294 . S
O284 C277 1.240 . S
O285 In273 2.326 . S
O285 C277 1.252 . S
In286 O287 2.294 . S
In286 O288 2.326 . S
In286 O292 2.266 . S
In286 O293 2.326 . S
In286 O294 2.266 . S
In286 O295 2.326 . S
In286 O297 2.294 . S
In286 O298 2.326 . S
O287 In286 2.294 . S
O287 C296 1.240 . S
O288 In286 2.326 . S
O288 C296 1.252 . S
C289 O292 1.252 . S
C289 O293 1.260 . S
C290 O297 1.240 . S
C290 O298 1.252 . S
C291 O294 1.252 . S
C291 O295 1.260 . S
O292 In286 2.266 . S
O292 C289 1.252 . S
O293 In286 2.326 . S
O293 C289 1.260 . S
O294 In286 2.266 . S
O294 C291 1.252 . S
O295 In286 2.326 . S
O295 C291 1.260 . S
C296 O287 1.240 . S
C296 O288 1.252 . S
O297 In286 2.294 . S
O297 C290 1.240 . S
O298 In286 2.326 . S
O298 C290 1.252 . S
In299 O300 2.294 . S
In299 O301 2.326 . S
In299 O305 2.266 . S
In299 O306 2.326 . S
In299 O307 2.266 . S
In299 O308 2.326 . S
In299 O310 2.294 . S
In299 O311 2.326 . S
O300 In299 2.294 . S
O300 C309 1.240 . S
O301 In299 2.326 . S
O301 C309 1.252 . S
C302 O305 1.252 . S
C302 O306 1.260 . S
C303 O310 1.240 . S
C303 O311 1.252 . S
C304 O307 1.252 . S
C304 O308 1.260 . S
O305 In299 2.266 . S
O305 C302 1.252 . S
O306 In299 2.326 . S
O306 C302 1.260 . S
O307 In299 2.266 . S
O307 C304 1.252 . S
O308 In299 2.326 . S
O308 C304 1.260 . S
C309 O300 1.240 . S
C309 O301 1.252 . S
O310 In299 2.294 . S
O310 C303 1.240 . S
O311 In299 2.326 . S
O311 C303 1.252 . S
In312 O313 2.294 . S
In312 O314 2.326 . S
In312 O318 2.266 . S
In312 O319 2.326 . S
In312 O320 2.266 . S
In312 O321 2.326 . S
In312 O323 2.294 . S
In312 O324 2.326 . S
O313 In312 2.294 . S
O313 C322 1.240 . S
O314 In312 2.326 . S
O314 C322 1.252 . S
C315 O318 1.252 . S
C315 O319 1.260 . S
C316 O323 1.240 . S
C316 O324 1.252 . S
C317 O320 1.252 . S
C317 O321 1.260 . S
O318 In312 2.266 . S
O318 C315 1.252 . S
O319 In312 2.326 . S
O319 C315 1.260 . S
O320 In312 2.266 . S
O320 C317 1.252 . S
O321 In312 2.326 . S
O321 C317 1.260 . S
C322 O313 1.240 . S
C322 O314 1.252 . S
O323 In312 2.294 . S
O323 C316 1.240 . S
O324 In312 2.326 . S
O324 C316 1.252 . S
In325 O326 2.294 . S
In325 O327 2.326 . S
In325 O331 2.266 . S
In325 O332 2.326 . S
In325 O333 2.266 . S
In325 O334 2.326 . S
In325 O336 2.294 . S
In325 O337 2.326 . S
O326 In325 2.294 . S
O326 C335 1.240 . S
O327 In325 2.326 . S
O327 C335 1.252 . S
C328 O331 1.252 . S
C328 O332 1.260 . S
C329 O336 1.240 . S
C329 O337 1.252 . S
C330 O333 1.252 . S
C330 O334 1.260 . S
O331 In325 2.266 . S
O331 C328 1.252 . S
O332 In325 2.326 . S
O332 C328 1.260 . S
O333 In325 2.266 . S
O333 C330 1.252 . S
O334 In325 2.326 . S
O334 C330 1.260 . S
C335 O326 1.240 . S
C335 O327 1.252 . S
O336 In325 2.294 . S
O336 C329 1.240 . S
O337 In325 2.326 . S
O337 C329 1.252 . S
In338 O339 2.294 . S
In338 O340 2.326 . S
In338 O344 2.266 . S
In338 O345 2.326 . S
In338 O346 2.266 . S
In338 O347 2.326 . S
In338 O349 2.294 . S
In338 O350 2.326 . S
O339 In338 2.294 . S
O339 C348 1.240 . S
O340 In338 2.326 . S
O340 C348 1.252 . S
C341 O344 1.252 . S
C341 O345 1.260 . S
C342 O349 1.240 . S
C342 O350 1.252 . S
C343 O346 1.252 . S
C343 O347 1.260 . S
O344 In338 2.266 . S
O344 C341 1.252 . S
O345 In338 2.326 . S
O345 C341 1.260 . S
O346 In338 2.266 . S
O346 C343 1.252 . S
O347 In338 2.326 . S
O347 C343 1.260 . S
C348 O339 1.240 . S
C348 O340 1.252 . S
O349 In338 2.294 . S
O349 C342 1.240 . S
O350 In338 2.326 . S
O350 C342 1.252 . S
In351 O352 2.294 . S
In351 O353 2.326 . S
In351 O357 2.266 . S
In351 O358 2.326 . S
In351 O359 2.266 . S
In351 O360 2.326 . S
In351 O362 2.294 . S
In351 O363 2.326 . S
O352 In351 2.294 . S
O352 C361 1.240 . S
O353 In351 2.326 . S
O353 C361 1.252 . S
C354 O357 1.252 . S
C354 O358 1.260 . S
C355 O362 1.240 . S
C355 O363 1.252 . S
C356 O359 1.252 . S
C356 O360 1.260 . S
O357 In351 2.266 . S
O357 C354 1.252 . S
O358 In351 2.326 . S
O358 C354 1.260 . S
O359 In351 2.266 . S
O359 C356 1.252 . S
O360 In351 2.326 . S
O360 C356 1.260 . S
C361 O352 1.240 . S
C361 O353 1.252 . S
O362 In351 2.294 . S
O362 C355 1.240 . S
O363 In351 2.326 . S
O363 C355 1.252 . S
In364 O365 2.294 . S
In364 O366 2.326 . S
In364 O370 2.266 . S
In364 O371 2.326 . S
In364 O372 2.266 . S
In364 O373 2.326 . S
In364 O375 2.294 . S
In364 O376 2.326 . S
O365 In364 2.294 . S
O365 C374 1.240 . S
O366 In364 2.326 . S
O366 C374 1.252 . S
C367 O370 1.252 . S
C367 O371 1.260 . S
C368 O375 1.240 . S
C368 O376 1.252 . S
C369 O372 1.252 . S
C369 O373 1.260 . S
O370 In364 2.266 . S
O370 C367 1.252 . S
O371 In364 2.326 . S
O371 C367 1.260 . S
O372 In364 2.266 . S
O372 C369 1.252 . S
O373 In364 2.326 . S
O373 C369 1.260 . S
C374 O365 1.240 . S
C374 O366 1.252 . S
O375 In364 2.294 . S
O375 C368 1.240 . S
O376 In364 2.326 . S
O376 C368 1.252 . S
In377 O378 2.294 . S
In377 O379 2.326 . S
In377 O383 2.266 . S
In377 O384 2.326 . S
In377 O385 2.266 . S
In377 O386 2.326 . S
In377 O388 2.294 . S
In377 O389 2.326 . S
O378 In377 2.294 . S
O378 C387 1.240 . S
O379 In377 2.326 . S
O379 C387 1.252 . S
C380 O383 1.252 . S
C380 O384 1.260 . S
C381 O388 1.240 . S
C381 O389 1.252 . S
C382 O385 1.252 . S
C382 O386 1.260 . S
O383 In377 2.266 . S
O383 C380 1.252 . S
O384 In377 2.326 . S
O384 C380 1.260 . S
O385 In377 2.266 . S
O385 C382 1.252 . S
O386 In377 2.326 . S
O386 C382 1.260 . S
C387 O378 1.240 . S
C387 O379 1.252 . S
O388 In377 2.294 . S
O388 C381 1.240 . S
O389 In377 2.326 . S
O389 C381 1.252 . S
In390 O391 2.294 . S
In390 O392 2.326 . S
In390 O396 2.266 . S
In390 O397 2.326 . S
In390 O398 2.266 . S
In390 O399 2.326 . S
In390 O401 2.294 . S
In390 O402 2.326 . S
O391 In390 2.294 . S
O391 C400 1.240 . S
O392 In390 2.326 . S
O392 C400 1.252 . S
C393 O396 1.252 . S
C393 O397 1.260 . S
C394 O401 1.240 . S
C394 O402 1.252 . S
C395 O398 1.252 . S
C395 O399 1.260 . S
O396 In390 2.266 . S
O396 C393 1.252 . S
O397 In390 2.326 . S
O397 C393 1.260 . S
O398 In390 2.266 . S
O398 C395 1.252 . S
O399 In390 2.326 . S
O399 C395 1.260 . S
C400 O391 1.240 . S
C400 O392 1.252 . S
O401 In390 2.294 . S
O401 C394 1.240 . S
O402 In390 2.326 . S
O402 C394 1.252 . S
In403 O404 2.294 . S
In403 O405 2.326 . S
In403 O409 2.266 . S
In403 O410 2.326 . S
In403 O411 2.266 . S
In403 O412 2.326 . S
In403 O414 2.294 . S
In403 O415 2.326 . S
O404 In403 2.294 . S
O404 C413 1.240 . S
O405 In403 2.326 . S
O405 C413 1.252 . S
C406 O409 1.252 . S
C406 O410 1.260 . S
C407 O414 1.240 . S
C407 O415 1.252 . S
C408 O411 1.252 . S
C408 O412 1.260 . S
O409 In403 2.266 . S
O409 C406 1.252 . S
O410 In403 2.326 . S
O410 C406 1.260 . S
O411 In403 2.266 . S
O411 C408 1.252 . S
O412 In403 2.326 . S
O412 C408 1.260 . S
C413 O404 1.240 . S
C413 O405 1.252 . S
O414 In403 2.294 . S
O414 C407 1.240 . S
O415 In403 2.326 . S
O415 C407 1.252 . S
In416 O417 2.294 . S
In416 O418 2.326 . S
In416 O422 2.266 . S
In416 O423 2.326 . S
In416 O424 2.266 . S
In416 O425 2.326 . S
In416 O427 2.294 . S
In416 O428 2.326 . S
O417 In416 2.294 . S
O417 C426 1.240 . S
O418 In416 2.326 . S
O418 C426 1.252 . S
C419 O422 1.252 . S
C419 O423 1.260 . S
C420 O427 1.240 . S
C420 O428 1.252 . S
C421 O424 1.252 . S
C421 O425 1.260 . S
O422 In416 2.266 . S
O422 C419 1.252 . S
O423 In416 2.326 . S
O423 C419 1.260 . S
O424 In416 2.266 . S
O424 C421 1.252 . S
O425 In416 2.326 . S
O425 C421 1.260 . S
C426 O417 1.240 . S
C426 O418 1.252 . S
O427 In416 2.294 . S
O427 C420 1.240 . S
O428 In416 2.326 . S
O428 C420 1.252 . S
In429 O430 2.294 . S
In429 O431 2.326 . S
In429 O435 2.266 . S
In429 O436 2.326 . S
In429 O437 2.266 . S
In429 O438 2.326 . S
In429 O440 2.294 . S
In429 O441 2.326 . S
O430 In429 2.294 . S
O430 C439 1.240 . S
O431 In429 2.326 . S
O431 C439 1.252 . S
C432 O435 1.252 . S
C432 O436 1.260 . S
C433 O440 1.240 . S
C433 O441 1.252 . S
C434 O437 1.252 . S
C434 O438 1.260 . S
O435 In429 2.266 . S
O435 C432 1.252 . S
O436 In429 2.326 . S
O436 C432 1.260 . S
O437 In429 2.266 . S
O437 C434 1.252 . S
O438 In429 2.326 . S
O438 C434 1.260 . S
C439 O430 1.240 . S
C439 O431 1.252 . S
O440 In429 2.294 . S
O440 C433 1.240 . S
O441 In429 2.326 . S
O441 C433 1.252 . S
In442 O443 2.294 . S
In442 O444 2.326 . S
In442 O448 2.266 . S
In442 O449 2.326 . S
In442 O450 2.266 . S
In442 O451 2.326 . S
In442 O453 2.294 . S
In442 O454 2.326 . S
O443 In442 2.294 . S
O443 C452 1.240 . S
O444 In442 2.326 . S
O444 C452 1.252 . S
C445 O448 1.252 . S
C445 O449 1.260 . S
C446 O453 1.240 . S
C446 O454 1.252 . S
C447 O450 1.252 . S
C447 O451 1.260 . S
O448 In442 2.266 . S
O448 C445 1.252 . S
O449 In442 2.326 . S
O449 C445 1.260 . S
O450 In442 2.266 . S
O450 C447 1.252 . S
O451 In442 2.326 . S
O451 C447 1.260 . S
C452 O443 1.240 . S
C452 O444 1.252 . S
O453 In442 2.294 . S
O453 C446 1.240 . S
O454 In442 2.326 . S
O454 C446 1.252 . S
In455 O456 2.294 . S
In455 O457 2.326 . S
In455 O461 2.266 . S
In455 O462 2.326 . S
In455 O463 2.266 . S
In455 O464 2.326 . S
In455 O466 2.294 . S
In455 O467 2.326 . S
O456 In455 2.294 . S
O456 C465 1.240 . S
O457 In455 2.326 . S
O457 C465 1.252 . S
C458 O461 1.252 . S
C458 O462 1.260 . S
C459 O466 1.240 . S
C459 O467 1.252 . S
C460 O463 1.252 . S
C460 O464 1.260 . S
O461 In455 2.266 . S
O461 C458 1.252 . S
O462 In455 2.326 . S
O462 C458 1.260 . S
O463 In455 2.266 . S
O463 C460 1.252 . S
O464 In455 2.326 . S
O464 C460 1.260 . S
C465 O456 1.240 . S
C465 O457 1.252 . S
O466 In455 2.294 . S
O466 C459 1.240 . S
O467 In455 2.326 . S
O467 C459 1.252 . S
H468 C476 0.950 . S
H469 C481 0.950 . S
H470 C478 0.950 . S
H471 C480 0.950 . S
H472 C482 0.950 . S
H473 C484 0.950 . S
H474 C486 0.950 . S
H475 C487 0.950 . S
C476 H468 0.950 . S
C476 C477 1.386 . S
C476 C478 1.391 . S
C477 C476 1.386 . S
C477 C481 1.393 . S
C478 H470 0.950 . S
C478 C476 1.391 . S
C478 C479 1.400 . S
C479 C478 1.400 . S
C479 C480 1.398 . S
C479 C485 1.491 1_565 S
C480 H471 0.950 . S
C480 C479 1.398 . S
C480 C481 1.391 . S
C481 H469 0.950 . S
C481 C477 1.393 . S
C481 C480 1.391 . S
C482 H472 0.950 . S
C482 C483 1.386 . S
C482 C484 1.391 . S
C483 C482 1.386 . S
C483 C487 1.393 . S
C484 H473 0.950 . S
C484 C482 1.391 . S
C484 C485 1.400 . S
C485 C479 1.491 1_545 S
C485 C484 1.400 . S
C485 C486 1.398 . S
C486 H474 0.950 . S
C486 C485 1.398 . S
C486 C487 1.391 . S
C487 H475 0.950 . S
C487 C483 1.393 . S
C487 C486 1.391 . S
H488 C496 0.950 . S
H489 C501 0.950 . S
H490 C498 0.950 . S
H491 C500 0.950 . S
H492 C502 0.950 . S
H493 C504 0.950 . S
H494 C506 0.950 . S
H495 C507 0.950 . S
C496 H488 0.950 . S
C496 C497 1.386 . S
C496 C498 1.391 . S
C497 C496 1.386 . S
C497 C501 1.393 . S
C498 H490 0.950 . S
C498 C496 1.391 . S
C498 C499 1.400 . S
C499 C498 1.400 . S
C499 C500 1.398 . S
C499 C505 1.491 1_455 S
C500 H491 0.950 . S
C500 C499 1.398 . S
C500 C501 1.391 . S
C501 H489 0.950 . S
C501 C497 1.393 . S
C501 C500 1.391 . S
C502 H492 0.950 . S
C502 C503 1.386 . S
C502 C504 1.391 . S
C503 C502 1.386 . S
C503 C507 1.393 . S
C504 H493 0.950 . S
C504 C502 1.391 . S
C504 C505 1.400 . S
C505 C499 1.491 1_655 S
C505 C504 1.400 . S
C505 C506 1.398 . S
C506 H494 0.950 . S
C506 C505 1.398 . S
C506 C507 1.391 . S
C507 H495 0.950 . S
C507 C503 1.393 . S
C507 C506 1.391 . S
H508 C516 0.950 . S
H509 C521 0.950 . S
H510 C518 0.950 . S
H511 C520 0.950 . S
H512 C522 0.950 . S
H513 C524 0.950 . S
H514 C526 0.950 . S
H515 C527 0.950 . S
C516 H508 0.950 . S
C516 C517 1.386 . S
C516 C518 1.391 . S
C517 C516 1.386 . S
C517 C521 1.393 . S
C518 H510 0.950 . S
C518 C516 1.391 . S
C518 C519 1.400 . S
C519 C518 1.400 . S
C519 C520 1.398 . S
C519 C525 1.491 . S
C520 H511 0.950 . S
C520 C519 1.398 . S
C520 C521 1.391 . S
C521 H509 0.950 . S
C521 C517 1.393 . S
C521 C520 1.391 . S
C522 H512 0.950 . S
C522 C523 1.386 . S
C522 C524 1.391 . S
C523 C522 1.386 . S
C523 C527 1.393 . S
C524 H513 0.950 . S
C524 C522 1.391 . S
C524 C525 1.400 . S
C525 C519 1.491 . S
C525 C524 1.400 . S
C525 C526 1.398 . S
C526 H514 0.950 . S
C526 C525 1.398 . S
C526 C527 1.391 . S
C527 H515 0.950 . S
C527 C523 1.393 . S
C527 C526 1.391 . S
H528 C536 0.950 . S
H529 C541 0.950 . S
H530 C538 0.950 . S
H531 C540 0.950 . S
H532 C542 0.950 . S
H533 C544 0.950 . S
H534 C546 0.950 . S
H535 C547 0.950 . S
C536 H528 0.950 . S
C536 C537 1.386 . S
C536 C538 1.391 . S
C537 C536 1.386 . S
C537 C541 1.393 . S
C538 H530 0.950 . S
C538 C536 1.391 . S
C538 C539 1.400 . S
C539 C538 1.400 . S
C539 C540 1.398 . S
C539 C545 1.491 1_565 S
C540 H531 0.950 . S
C540 C539 1.398 . S
C540 C541 1.391 . S
C541 H529 0.950 . S
C541 C537 1.393 . S
C541 C540 1.391 . S
C542 H532 0.950 . S
C542 C543 1.386 . S
C542 C544 1.391 . S
C543 C542 1.386 . S
C543 C547 1.393 . S
C544 H533 0.950 . S
C544 C542 1.391 . S
C544 C545 1.400 . S
C545 C539 1.491 1_545 S
C545 C544 1.400 . S
C545 C546 1.398 . S
C546 H534 0.950 . S
C546 C545 1.398 . S
C546 C547 1.391 . S
C547 H535 0.950 . S
C547 C543 1.393 . S
C547 C546 1.391 . S
H548 C556 0.950 . S
H549 C561 0.950 . S
H550 C558 0.950 . S
H551 C560 0.950 . S
H552 C562 0.950 . S
H553 C564 0.950 . S
H554 C566 0.950 . S
H555 C567 0.950 . S
C556 H548 0.950 . S
C556 C557 1.386 . S
C556 C558 1.391 . S
C557 C556 1.386 . S
C557 C561 1.393 . S
C558 H550 0.950 . S
C558 C556 1.391 . S
C558 C559 1.400 . S
C559 C558 1.400 . S
C559 C560 1.398 . S
C559 C565 1.491 1_455 S
C560 H551 0.950 . S
C560 C559 1.398 . S
C560 C561 1.391 . S
C561 H549 0.950 . S
C561 C557 1.393 . S
C561 C560 1.391 . S
C562 H552 0.950 . S
C562 C563 1.386 . S
C562 C564 1.391 . S
C563 C562 1.386 . S
C563 C567 1.393 . S
C564 H553 0.950 . S
C564 C562 1.391 . S
C564 C565 1.400 . S
C565 C559 1.491 1_655 S
C565 C564 1.400 . S
C565 C566 1.398 . S
C566 H554 0.950 . S
C566 C565 1.398 . S
C566 C567 1.391 . S
C567 H555 0.950 . S
C567 C563 1.393 . S
C567 C566 1.391 . S
H568 C576 0.950 . S
H569 C581 0.950 . S
H570 C578 0.950 . S
H571 C580 0.950 . S
H572 C582 0.950 . S
H573 C584 0.950 . S
H574 C586 0.950 . S
H575 C587 0.950 . S
C576 H568 0.950 . S
C576 C577 1.386 . S
C576 C578 1.391 . S
C577 C576 1.386 . S
C577 C581 1.393 . S
C578 H570 0.950 . S
C578 C576 1.391 . S
C578 C579 1.400 . S
C579 C578 1.400 . S
C579 C580 1.398 . S
C579 C585 1.491 . S
C580 H571 0.950 . S
C580 C579 1.398 . S
C580 C581 1.391 . S
C581 H569 0.950 . S
C581 C577 1.393 . S
C581 C580 1.391 . S
C582 H572 0.950 . S
C582 C583 1.386 . S
C582 C584 1.391 . S
C583 C582 1.386 . S
C583 C587 1.393 . S
C584 H573 0.950 . S
C584 C582 1.391 . S
C584 C585 1.400 . S
C585 C579 1.491 . S
C585 C584 1.400 . S
C585 C586 1.398 . S
C586 H574 0.950 . S
C586 C585 1.398 . S
C586 C587 1.391 . S
C587 H575 0.950 . S
C587 C583 1.393 . S
C587 C586 1.391 . S
H588 C596 0.950 . S
H589 C601 0.950 . S
H590 C598 0.950 . S
H591 C600 0.950 . S
H592 C602 0.950 . S
H593 C604 0.950 . S
H594 C606 0.950 . S
H595 C607 0.950 . S
C596 H588 0.950 . S
C596 C597 1.386 1_655 S
C596 C598 1.391 . S
C597 C596 1.386 1_455 S
C597 C601 1.393 . S
C598 H590 0.950 . S
C598 C596 1.391 . S
C598 C599 1.400 . S
C599 C598 1.400 . S
C599 C600 1.398 1_655 S
C599 C605 1.491 . S
C600 H591 0.950 . S
C600 C599 1.398 1_455 S
C600 C601 1.391 . S
C601 H589 0.950 . S
C601 C597 1.393 . S
C601 C600 1.391 . S
C602 H592 0.950 . S
C602 C603 1.386 . S
C602 C604 1.391 . S
C603 C602 1.386 . S
C603 C607 1.393 . S
C604 H593 0.950 . S
C604 C602 1.391 . S
C604 C605 1.400 . S
C605 C599 1.491 . S
C605 C604 1.400 . S
C605 C606 1.398 . S
C606 H594 0.950 . S
C606 C605 1.398 . S
C606 C607 1.391 . S
C607 H595 0.950 . S
C607 C603 1.393 . S
C607 C606 1.391 . S
H608 C616 0.950 . S
H609 C621 0.950 . S
H610 C618 0.950 . S
H611 C620 0.950 . S
H612 C622 0.950 . S
H613 C624 0.950 . S
H614 C626 0.950 . S
H615 C627 0.950 . S
C616 H608 0.950 . S
C616 C617 1.386 . S
C616 C618 1.391 . S
C617 C616 1.386 . S
C617 C621 1.393 . S
C618 H610 0.950 . S
C618 C616 1.391 . S
C618 C619 1.400 . S
C619 C618 1.400 . S
C619 C620 1.398 . S
C619 C625 1.491 . S
C620 H611 0.950 . S
C620 C619 1.398 . S
C620 C621 1.391 . S
C621 H609 0.950 . S
C621 C617 1.393 . S
C621 C620 1.391 . S
C622 H612 0.950 . S
C622 C623 1.386 . S
C622 C624 1.391 . S
C623 C622 1.386 . S
C623 C627 1.393 . S
C624 H613 0.950 . S
C624 C622 1.391 . S
C624 C625 1.400 . S
C625 C619 1.491 . S
C625 C624 1.400 . S
C625 C626 1.398 . S
C626 H614 0.950 . S
C626 C625 1.398 . S
C626 C627 1.391 . S
C627 H615 0.950 . S
C627 C623 1.393 . S
C627 C626 1.391 . S
H628 C636 0.950 . S
H629 C641 0.950 . S
H630 C638 0.950 . S
H631 C640 0.950 . S
H632 C642 0.950 . S
H633 C644 0.950 . S
H634 C646 0.950 . S
H635 C647 0.950 . S
C636 H628 0.950 . S
C636 C637 1.386 . S
C636 C638 1.391 . S
C637 C636 1.386 . S
C637 C641 1.393 . S
C638 H630 0.950 . S
C638 C636 1.391 . S
C638 C639 1.400 . S
C639 C638 1.400 . S
C639 C640 1.398 . S
C639 C645 1.491 . S
C640 H631 0.950 . S
C640 C639 1.398 . S
C640 C641 1.391 . S
C641 H629 0.950 . S
C641 C637 1.393 . S
C641 C640 1.391 . S
C642 H632 0.950 . S
C642 C643 1.386 . S
C642 C644 1.391 1_565 S
C643 C642 1.386 . S
C643 C647 1.393 1_565 S
C644 H633 0.950 . S
C644 C642 1.391 1_545 S
C644 C645 1.400 . S
C645 C639 1.491 . S
C645 C644 1.400 . S
C645 C646 1.398 . S
C646 H634 0.950 . S
C646 C645 1.398 . S
C646 C647 1.391 . S
C647 H635 0.950 . S
C647 C643 1.393 1_545 S
C647 C646 1.391 . S
H648 C656 0.950 . S
H649 C661 0.950 . S
H650 C658 0.950 . S
H651 C660 0.950 . S
H652 C662 0.950 . S
H653 C664 0.950 . S
H654 C666 0.950 . S
H655 C667 0.950 . S
C656 H648 0.950 . S
C656 C657 1.386 . S
C656 C658 1.391 . S
C657 C656 1.386 . S
C657 C661 1.393 . S
C658 H650 0.950 . S
C658 C656 1.391 . S
C658 C659 1.400 . S
C659 C658 1.400 . S
C659 C660 1.398 . S
C659 C665 1.491 . S
C660 H651 0.950 . S
C660 C659 1.398 . S
C660 C661 1.391 . S
C661 H649 0.950 . S
C661 C657 1.393 . S
C661 C660 1.391 . S
C662 H652 0.950 . S
C662 C663 1.386 . S
C662 C664 1.391 . S
C663 C662 1.386 . S
C663 C667 1.393 . S
C664 H653 0.950 . S
C664 C662 1.391 . S
C664 C665 1.400 . S
C665 C659 1.491 . S
C665 C664 1.400 . S
C665 C666 1.398 . S
C666 H654 0.950 . S
C666 C665 1.398 . S
C666 C667 1.391 . S
C667 H655 0.950 . S
C667 C663 1.393 . S
C667 C666 1.391 . S
H668 C676 0.950 . S
H669 C681 0.950 . S
H670 C678 0.950 . S
H671 C680 0.950 . S
H672 C682 0.950 . S
H673 C684 0.950 . S
H674 C686 0.950 . S
H675 C687 0.950 . S
C676 H668 0.950 . S
C676 C677 1.386 1_545 S
C676 C678 1.391 . S
C677 C676 1.386 1_565 S
C677 C681 1.393 . S
C678 H670 0.950 . S
C678 C676 1.391 . S
C678 C679 1.400 . S
C679 C678 1.400 . S
C679 C680 1.398 . S
C679 C685 1.491 . S
C680 H671 0.950 . S
C680 C679 1.398 . S
C680 C681 1.391 1_545 S
C681 H669 0.950 . S
C681 C677 1.393 . S
C681 C680 1.391 1_565 S
C682 H672 0.950 . S
C682 C683 1.386 . S
C682 C684 1.391 . S
C683 C682 1.386 . S
C683 C687 1.393 . S
C684 H673 0.950 . S
C684 C682 1.391 . S
C684 C685 1.400 . S
C685 C679 1.491 . S
C685 C684 1.400 . S
C685 C686 1.398 . S
C686 H674 0.950 . S
C686 C685 1.398 . S
C686 C687 1.391 . S
C687 H675 0.950 . S
C687 C683 1.393 . S
C687 C686 1.391 . S
H688 C696 0.950 . S
H689 C701 0.950 . S
H690 C698 0.950 . S
H691 C700 0.950 . S
H692 C702 0.950 . S
H693 C704 0.950 . S
H694 C706 0.950 . S
H695 C707 0.950 . S
C696 H688 0.950 . S
C696 C697 1.386 . S
C696 C698 1.391 . S
C697 C696 1.386 . S
C697 C701 1.393 . S
C698 H690 0.950 . S
C698 C696 1.391 . S
C698 C699 1.400 . S
C699 C698 1.400 . S
C699 C700 1.398 . S
C699 C705 1.491 . S
C700 H691 0.950 . S
C700 C699 1.398 . S
C700 C701 1.391 . S
C701 H689 0.950 . S
C701 C697 1.393 . S
C701 C700 1.391 . S
C702 H692 0.950 . S
C702 C703 1.386 . S
C702 C704 1.391 . S
C703 C702 1.386 . S
C703 C707 1.393 1_455 S
C704 H693 0.950 . S
C704 C702 1.391 . S
C704 C705 1.400 1_455 S
C705 C699 1.491 . S
C705 C704 1.400 1_655 S
C705 C706 1.398 . S
C706 H694 0.950 . S
C706 C705 1.398 . S
C706 C707 1.391 . S
C707 H695 0.950 . S
C707 C703 1.393 1_655 S
C707 C706 1.391 . S
H708 C716 0.950 . S
H709 C721 0.950 . S
H710 C718 0.950 . S
H711 C720 0.950 . S
H712 C722 0.950 . S
H713 C724 0.950 . S
H714 C726 0.950 . S
H715 C727 0.950 . S
C716 H708 0.950 . S
C716 C717 1.386 . S
C716 C718 1.391 . S
C717 C716 1.386 . S
C717 C721 1.393 . S
C718 H710 0.950 . S
C718 C716 1.391 . S
C718 C719 1.400 . S
C719 C718 1.400 . S
C719 C720 1.398 . S
C719 C725 1.491 . S
C720 H711 0.950 . S
C720 C719 1.398 . S
C720 C721 1.391 . S
C721 H709 0.950 . S
C721 C717 1.393 . S
C721 C720 1.391 . S
C722 H712 0.950 . S
C722 C723 1.386 . S
C722 C724 1.391 . S
C723 C722 1.386 . S
C723 C727 1.393 . S
C724 H713 0.950 . S
C724 C722 1.391 . S
C724 C725 1.400 . S
C725 C719 1.491 . S
C725 C724 1.400 . S
C725 C726 1.398 . S
C726 H714 0.950 . S
C726 C725 1.398 . S
C726 C727 1.391 . S
C727 H715 0.950 . S
C727 C723 1.393 . S
C727 C726 1.391 . S
H728 C736 0.950 . S
H729 C741 0.949 . S
H730 C738 0.950 . S
H731 C740 0.950 . S
H732 C742 0.950 . S
H733 C744 0.950 . S
H734 C746 0.950 . S
H735 C747 0.950 . S
C736 H728 0.950 . S
C736 C737 1.386 . S
C736 C738 1.391 1_545 S
C737 C736 1.386 . S
C737 C741 1.393 1_545 S
C738 H730 0.950 . S
C738 C736 1.391 1_565 S
C738 C739 1.400 . S
C739 C738 1.400 . S
C739 C740 1.398 . S
C739 C745 1.491 . S
C740 H731 0.950 . S
C740 C739 1.398 . S
C740 C741 1.391 . S
C741 H729 0.949 . S
C741 C737 1.393 1_565 S
C741 C740 1.391 . S
C742 H732 0.950 . S
C742 C743 1.386 . S
C742 C744 1.391 . S
C743 C742 1.386 . S
C743 C747 1.393 . S
C744 H733 0.950 . S
C744 C742 1.391 . S
C744 C745 1.400 . S
C745 C739 1.491 . S
C745 C744 1.400 . S
C745 C746 1.398 . S
C746 H734 0.950 . S
C746 C745 1.398 . S
C746 C747 1.391 . S
C747 H735 0.950 . S
C747 C743 1.393 . S
C747 C746 1.391 . S
H748 C756 0.950 . S
H749 C761 0.950 . S
H750 C758 0.950 . S
H751 C760 0.997 . S
H752 C762 0.950 . S
H753 C764 0.950 . S
H754 C766 0.950 . S
H755 C767 0.950 . S
C756 H748 0.950 . S
C756 C757 1.386 . S
C756 C758 1.391 . S
C757 C756 1.386 . S
C757 C761 1.393 . S
C758 H750 0.950 . S
C758 C756 1.391 . S
C758 C759 1.400 . S
C759 C758 1.400 . S
C759 C760 1.398 . S
C759 C765 1.491 . S
C760 H751 0.997 . S
C760 C759 1.398 . S
C760 C761 1.391 . S
C761 H749 0.950 . S
C761 C757 1.393 . S
C761 C760 1.391 . S
C762 H752 0.950 . S
C762 C763 1.386 . S
C762 C764 1.391 . S
C763 C762 1.386 . S
C763 C767 1.393 1_655 S
C764 H753 0.950 . S
C764 C762 1.391 . S
C764 C765 1.400 1_655 S
C765 C759 1.491 . S
C765 C764 1.400 1_455 S
C765 C766 1.398 . S
C766 H754 0.950 . S
C766 C765 1.398 . S
C766 C767 1.391 . S
C767 H755 0.950 . S
C767 C763 1.393 1_455 S
C767 C766 1.391 . S
H768 C776 0.950 . S
H769 C781 0.950 . S
H770 C778 0.950 . S
H771 C780 0.950 . S
H772 C782 0.950 . S
H773 C784 0.950 . S
H774 C786 0.948 1_655 S
H775 C787 0.950 . S
C776 H768 0.950 . S
C776 C777 1.386 . S
C776 C778 1.391 . S
C777 C776 1.386 . S
C777 C781 1.393 . S
C778 H770 0.950 . S
C778 C776 1.391 . S
C778 C779 1.400 . S
C779 C778 1.400 . S
C779 C780 1.398 . S
C779 C785 1.491 . S
C780 H771 0.950 . S
C780 C779 1.398 . S
C780 C781 1.391 . S
C781 H769 0.950 . S
C781 C777 1.393 . S
C781 C780 1.391 . S
C782 H772 0.950 . S
C782 C783 1.386 1_455 S
C782 C784 1.391 . S
C783 C782 1.386 1_655 S
C783 C787 1.393 . S
C784 H773 0.950 . S
C784 C782 1.391 . S
C784 C785 1.400 . S
C785 C779 1.491 . S
C785 C784 1.400 . S
C785 C786 1.400 . S
C786 H774 0.948 1_455 S
C786 C785 1.400 . S
C786 C787 1.391 1_455 S
C787 H775 0.950 . S
C787 C783 1.393 . S
C787 C786 1.391 1_655 S
H788 C796 0.950 . S
H789 C801 0.950 . S
H790 C798 0.950 . S
H791 C800 0.950 . S
H792 C802 0.950 . S
H793 C804 0.950 . S
H794 C806 0.950 . S
H795 C807 0.950 . S
C796 H788 0.950 . S
C796 C797 1.386 . S
C796 C798 1.391 . S
C797 C796 1.386 . S
C797 C801 1.393 . S
C798 H790 0.950 . S
C798 C796 1.391 . S
C798 C799 1.400 . S
C799 C798 1.400 . S
C799 C800 1.398 . S
C799 C805 1.491 . S
C800 H791 0.950 . S
C800 C799 1.398 . S
C800 C801 1.391 . S
C801 H789 0.950 . S
C801 C797 1.393 . S
C801 C800 1.391 . S
C802 H792 0.950 . S
C802 C803 1.386 . S
C802 C804 1.391 . S
C803 C802 1.386 . S
C803 C807 1.393 . S
C804 H793 0.950 . S
C804 C802 1.391 . S
C804 C805 1.400 . S
C805 C799 1.491 . S
C805 C804 1.400 . S
C805 C806 1.398 . S
C806 H794 0.950 . S
C806 C805 1.398 . S
C806 C807 1.391 . S
C807 H795 0.950 . S
C807 C803 1.393 . S
C807 C806 1.391 . S
H808 C816 0.950 . S
H809 C821 0.950 . S
H810 C818 0.950 . S
H811 C820 0.950 . S
H812 C822 0.950 . S
H813 C824 0.950 . S
H814 C826 0.950 . S
H815 C827 0.950 . S
C816 H808 0.950 . S
C816 C817 1.386 . S
C816 C818 1.391 . S
C817 C816 1.386 . S
C817 C821 1.393 . S
C818 H810 0.950 . S
C818 C816 1.391 . S
C818 C819 1.400 . S
C819 C818 1.400 . S
C819 C820 1.398 . S
C819 C825 1.491 . S
C820 H811 0.950 . S
C820 C819 1.398 . S
C820 C821 1.391 . S
C821 H809 0.950 . S
C821 C817 1.393 . S
C821 C820 1.391 . S
C822 H812 0.950 . S
C822 C823 1.386 . S
C822 C824 1.391 . S
C823 C822 1.386 . S
C823 C827 1.393 1_545 S
C824 H813 0.950 . S
C824 C822 1.391 . S
C824 C825 1.400 1_545 S
C825 C819 1.491 . S
C825 C824 1.400 1_565 S
C825 C826 1.398 . S
C826 H814 0.950 . S
C826 C825 1.398 . S
C826 C827 1.391 . S
C827 H815 0.950 . S
C827 C823 1.393 1_565 S
C827 C826 1.391 . S
H828 C836 0.950 . S
H829 C841 0.950 . S
H830 C838 0.950 . S
H831 C840 0.950 . S
H832 C842 0.950 . S
H833 C844 0.950 . S
H834 C846 0.950 . S
H835 C847 0.950 . S
C836 H828 0.950 . S
C836 C837 1.386 . S
C836 C838 1.391 . S
C837 C836 1.386 . S
C837 C841 1.393 . S
C838 H830 0.950 . S
C838 C836 1.391 . S
C838 C839 1.400 . S
C839 C838 1.400 . S
C839 C840 1.398 . S
C839 C845 1.491 . S
C840 H831 0.950 . S
C840 C839 1.398 . S
C840 C841 1.391 . S
C841 H829 0.950 . S
C841 C837 1.393 . S
C841 C840 1.391 . S
C842 H832 0.950 . S
C842 C843 1.386 . S
C842 C844 1.391 . S
C843 C842 1.386 . S
C843 C847 1.393 . S
C844 H833 0.950 . S
C844 C842 1.391 . S
C844 C845 1.400 . S
C845 C839 1.491 . S
C845 C844 1.400 . S
C845 C846 1.398 . S
C846 H834 0.950 . S
C846 C845 1.398 . S
C846 C847 1.391 . S
C847 H835 0.950 . S
C847 C843 1.393 . S
C847 C846 1.391 . S
H848 C856 0.950 . S
H849 C861 0.950 . S
H850 C858 0.950 . S
H851 C860 0.950 . S
H852 C862 0.950 . S
H853 C864 0.950 . S
H854 C866 0.950 . S
H855 C867 0.950 . S
C856 H848 0.950 . S
C856 C857 1.386 . S
C856 C858 1.391 . S
C857 C856 1.386 . S
C857 C861 1.393 . S
C858 H850 0.950 . S
C858 C856 1.391 . S
C858 C859 1.400 . S
C859 C858 1.400 . S
C859 C860 1.398 . S
C859 C865 1.491 . S
C860 H851 0.950 . S
C860 C859 1.398 . S
C860 C861 1.391 . S
C861 H849 0.950 . S
C861 C857 1.393 . S
C861 C860 1.391 . S
C862 H852 0.950 . S
C862 C863 1.386 . S
C862 C864 1.391 . S
C863 C862 1.386 . S
C863 C867 1.393 . S
C864 H853 0.950 . S
C864 C862 1.391 . S
C864 C865 1.400 . S
C865 C859 1.491 . S
C865 C864 1.400 . S
C865 C866 1.398 . S
C866 H854 0.950 . S
C866 C865 1.398 . S
C866 C867 1.391 . S
C867 H855 0.950 . S
C867 C863 1.393 . S
C867 C866 1.391 . S
H868 C876 0.950 . S
H869 C881 0.950 . S
H870 C878 0.950 . S
H871 C880 0.950 . S
H872 C882 0.950 . S
H873 C884 0.950 . S
H874 C886 0.950 . S
H875 C887 0.950 . S
C876 H868 0.950 . S
C876 C877 1.386 . S
C876 C878 1.391 . S
C877 C876 1.386 . S
C877 C881 1.393 . S
C878 H870 0.950 . S
C878 C876 1.391 . S
C878 C879 1.400 . S
C879 C878 1.400 . S
C879 C880 1.398 . S
C879 C885 1.491 . S
C880 H871 0.950 . S
C880 C879 1.398 . S
C880 C881 1.391 . S
C881 H869 0.950 . S
C881 C877 1.393 . S
C881 C880 1.391 . S
C882 H872 0.950 . S
C882 C883 1.386 . S
C882 C884 1.391 . S
C883 C882 1.386 . S
C883 C887 1.393 . S
C884 H873 0.950 . S
C884 C882 1.391 . S
C884 C885 1.400 . S
C885 C879 1.491 . S
C885 C884 1.400 . S
C885 C886 1.398 . S
C886 H874 0.950 . S
C886 C885 1.398 . S
C886 C887 1.391 . S
C887 H875 0.950 . S
C887 C883 1.393 . S
C887 C886 1.391 . S
H888 C896 0.950 . S
H889 C901 0.950 . S
H890 C898 0.950 . S
H891 C900 0.950 . S
H892 C902 0.950 1_556 S
H893 C904 0.950 . S
H894 C906 0.950 . S
H895 C907 0.950 . S
C896 H888 0.950 . S
C896 C897 1.386 . S
C896 C898 1.391 . S
C897 C896 1.386 . S
C897 C901 1.393 . S
C898 H890 0.950 . S
C898 C896 1.391 . S
C898 C899 1.400 . S
C899 C898 1.400 . S
C899 C900 1.398 . S
C899 C905 1.491 . S
C900 H891 0.950 . S
C900 C899 1.398 . S
C900 C901 1.391 . S
C901 H889 0.950 . S
C901 C897 1.393 . S
C901 C900 1.391 . S
C902 H892 0.950 1_554 S
C902 C903 1.386 . S
C902 C904 1.391 . S
C903 C902 1.386 . S
C903 C907 1.393 . S
C904 H893 0.950 . S
C904 C902 1.391 . S
C904 C905 1.400 . S
C905 C899 1.491 . S
C905 C904 1.400 . S
C905 C906 1.398 . S
C906 H894 0.950 . S
C906 C905 1.398 . S
C906 C907 1.391 . S
C907 H895 0.950 . S
C907 C903 1.393 . S
C907 C906 1.391 . S
H908 C916 0.950 . S
H909 C921 0.950 . S
H910 C918 0.950 . S
H911 C920 0.950 . S
H912 C922 0.950 1_556 S
H913 C924 0.950 . S
H914 C926 0.950 . S
H915 C927 0.950 . S
C916 H908 0.950 . S
C916 C917 1.386 . S
C916 C918 1.391 . S
C917 C916 1.386 . S
C917 C921 1.393 . S
C918 H910 0.950 . S
C918 C916 1.391 . S
C918 C919 1.400 . S
C919 C918 1.400 . S
C919 C920 1.398 . S
C919 C925 1.491 . S
C920 H911 0.950 . S
C920 C919 1.398 . S
C920 C921 1.391 . S
C921 H909 0.950 . S
C921 C917 1.393 . S
C921 C920 1.391 . S
C922 H912 0.950 1_554 S
C922 C923 1.386 . S
C922 C924 1.391 . S
C923 C922 1.386 . S
C923 C927 1.393 . S
C924 H913 0.950 . S
C924 C922 1.391 . S
C924 C925 1.400 . S
C925 C919 1.491 . S
C925 C924 1.400 . S
C925 C926 1.398 . S
C926 H914 0.950 . S
C926 C925 1.398 . S
C926 C927 1.391 . S
C927 H915 0.950 . S
C927 C923 1.393 . S
C927 C926 1.391 . S
H928 C936 0.950 . S
H929 C941 0.950 . S
H930 C938 0.950 . S
H931 C940 0.950 . S
H932 C942 0.950 . S
H933 C944 0.950 . S
H934 C946 0.950 . S
H935 C947 0.950 1_556 S
C936 H928 0.950 . S
C936 C937 1.386 . S
C936 C938 1.391 . S
C937 C936 1.386 . S
C937 C941 1.393 . S
C938 H930 0.950 . S
C938 C936 1.391 . S
C938 C939 1.400 . S
C939 C938 1.400 . S
C939 C940 1.398 . S
C939 C945 1.491 . S
C940 H931 0.950 . S
C940 C939 1.398 . S
C940 C941 1.391 . S
C941 H929 0.950 . S
C941 C937 1.393 . S
C941 C940 1.391 . S
C942 H932 0.950 . S
C942 C943 1.386 . S
C942 C944 1.391 . S
C943 C942 1.386 . S
C943 C947 1.393 . S
C944 H933 0.950 . S
C944 C942 1.391 . S
C944 C945 1.400 . S
C945 C939 1.491 . S
C945 C944 1.400 . S
C945 C946 1.398 . S
C946 H934 0.950 . S
C946 C945 1.398 . S
C946 C947 1.391 . S
C947 H935 0.950 1_554 S
C947 C943 1.393 . S
C947 C946 1.391 . S
H948 C956 0.950 . S
H949 C961 0.950 . S
H950 C958 0.950 . S
H951 C960 0.950 . S
H952 C962 0.950 . S
H953 C964 0.950 . S
H954 C966 0.950 . S
H955 C967 0.950 . S
C956 H948 0.950 . S
C956 C957 1.386 . S
C956 C958 1.391 . S
C957 C956 1.386 . S
C957 C961 1.393 . S
C958 H950 0.950 . S
C958 C956 1.391 . S
C958 C959 1.400 . S
C959 C958 1.400 . S
C959 C960 1.398 . S
C959 C965 1.491 . S
C960 H951 0.950 . S
C960 C959 1.398 . S
C960 C961 1.391 . S
C961 H949 0.950 . S
C961 C957 1.393 . S
C961 C960 1.391 . S
C962 H952 0.950 . S
C962 C963 1.386 . S
C962 C964 1.391 . S
C963 C962 1.386 . S
C963 C967 1.393 . S
C964 H953 0.950 . S
C964 C962 1.391 . S
C964 C965 1.400 . S
C965 C959 1.491 . S
C965 C964 1.400 . S
C965 C966 1.398 . S
C966 H954 0.950 . S
C966 C965 1.398 . S
C966 C967 1.391 . S
C967 H955 0.950 . S
C967 C963 1.393 . S
C967 C966 1.391 . S
H968 C976 0.950 . S
H969 C981 0.950 . S
H970 C978 0.950 . S
H971 C980 0.950 . S
H972 C982 0.950 . S
H973 C984 0.950 . S
H974 C986 0.950 . S
H975 C987 0.950 . S
C976 H968 0.950 . S
C976 C977 1.386 . S
C976 C978 1.391 . S
C977 C976 1.386 . S
C977 C981 1.393 . S
C978 H970 0.950 . S
C978 C976 1.391 . S
C978 C979 1.400 . S
C979 C978 1.400 . S
C979 C980 1.398 . S
C979 C985 1.491 . S
C980 H971 0.950 . S
C980 C979 1.398 . S
C980 C981 1.391 . S
C981 H969 0.950 . S
C981 C977 1.393 . S
C981 C980 1.391 . S
C982 H972 0.950 . S
C982 C983 1.386 . S
C982 C984 1.391 . S
C983 C982 1.386 . S
C983 C987 1.393 . S
C984 H973 0.950 . S
C984 C982 1.391 . S
C984 C985 1.400 . S
C985 C979 1.491 . S
C985 C984 1.400 . S
C985 C986 1.398 . S
C986 H974 0.950 . S
C986 C985 1.398 . S
C986 C987 1.391 . S
C987 H975 0.950 . S
C987 C983 1.393 . S
C987 C986 1.391 . S
H988 C996 0.950 . S
H989 C1001 0.950 . S
H990 C998 0.950 . S
H991 C1000 0.950 . S
H992 C1002 0.950 . S
H993 C1004 0.950 . S
H994 C1006 0.950 . S
H995 C1007 0.950 . S
C996 H988 0.950 . S
C996 C997 1.386 . S
C996 C998 1.391 . S
C997 C996 1.386 . S
C997 C1001 1.393 . S
C998 H990 0.950 . S
C998 C996 1.391 . S
C998 C999 1.400 . S
C999 C998 1.400 . S
C999 C1000 1.398 . S
C999 C1005 1.491 . S
C1000 H991 0.950 . S
C1000 C999 1.398 . S
C1000 C1001 1.391 . S
C1001 H989 0.950 . S
C1001 C997 1.393 . S
C1001 C1000 1.391 . S
C1002 H992 0.950 . S
C1002 C1003 1.386 . S
C1002 C1004 1.391 . S
C1003 C1002 1.386 . S
C1003 C1007 1.393 . S
C1004 H993 0.950 . S
C1004 C1002 1.391 . S
C1004 C1005 1.400 . S
C1005 C999 1.491 . S
C1005 C1004 1.400 . S
C1005 C1006 1.398 . S
C1006 H994 0.950 . S
C1006 C1005 1.398 . S
C1006 C1007 1.391 . S
C1007 H995 0.950 . S
C1007 C1003 1.393 . S
C1007 C1006 1.391 . S
H1008 C1016 0.950 1_554 S
H1009 C1021 0.950 . S
H1010 C1018 0.950 . S
H1011 C1020 0.950 . S
H1012 C1022 0.950 . S
H1013 C1024 0.950 . S
H1014 C1026 0.950 . S
H1015 C1027 0.950 . S
C1016 H1008 0.950 1_556 S
C1016 C1017 1.386 . S
C1016 C1018 1.391 . S
C1017 C1016 1.386 . S
C1017 C1021 1.393 . S
C1018 H1010 0.950 . S
C1018 C1016 1.391 . S
C1018 C1019 1.400 . S
C1019 C1018 1.400 . S
C1019 C1020 1.398 . S
C1019 C1025 1.491 . S
C1020 H1011 0.950 . S
C1020 C1019 1.398 . S
C1020 C1021 1.391 . S
C1021 H1009 0.950 . S
C1021 C1017 1.393 . S
C1021 C1020 1.391 . S
C1022 H1012 0.950 . S
C1022 C1023 1.386 . S
C1022 C1024 1.391 . S
C1023 C1022 1.386 . S
C1023 C1027 1.393 . S
C1024 H1013 0.950 . S
C1024 C1022 1.391 . S
C1024 C1025 1.400 . S
C1025 C1019 1.491 . S
C1025 C1024 1.400 . S
C1025 C1026 1.398 . S
C1026 H1014 0.950 . S
C1026 C1025 1.398 . S
C1026 C1027 1.391 . S
C1027 H1015 0.950 . S
C1027 C1023 1.393 . S
C1027 C1026 1.391 . S
H1028 C1036 0.950 . S
H1029 C1041 0.950 1_554 S
H1030 C1038 0.950 . S
H1031 C1040 0.950 . S
H1032 C1042 0.950 . S
H1033 C1044 0.950 . S
H1034 C1046 0.950 . S
H1035 C1047 0.950 . S
C1036 H1028 0.950 . S
C1036 C1037 1.386 . S
C1036 C1038 1.391 . S
C1037 C1036 1.386 . S
C1037 C1041 1.393 . S
C1038 H1030 0.950 . S
C1038 C1036 1.391 . S
C1038 C1039 1.400 . S
C1039 C1038 1.400 . S
C1039 C1040 1.398 . S
C1039 C1045 1.491 . S
C1040 H1031 0.950 . S
C1040 C1039 1.398 . S
C1040 C1041 1.391 . S
C1041 H1029 0.950 1_556 S
C1041 C1037 1.393 . S
C1041 C1040 1.391 . S
C1042 H1032 0.950 . S
C1042 C1043 1.386 . S
C1042 C1044 1.391 . S
C1043 C1042 1.386 . S
C1043 C1047 1.393 . S
C1044 H1033 0.950 . S
C1044 C1042 1.391 . S
C1044 C1045 1.400 . S
C1045 C1039 1.491 . S
C1045 C1044 1.400 . S
C1045 C1046 1.398 . S
C1046 H1034 0.950 . S
C1046 C1045 1.398 . S
C1046 C1047 1.391 . S
C1047 H1035 0.950 . S
C1047 C1043 1.393 . S
C1047 C1046 1.391 . S
H1048 C1056 0.950 . S
H1049 C1061 0.950 . S
H1050 C1058 0.950 . S
H1051 C1060 0.950 . S
H1052 C1062 0.968 . S
H1053 C1064 0.950 . S
H1054 C1066 0.950 . S
H1055 C1067 0.950 . S
C1056 H1048 0.950 . S
C1056 C1057 1.386 . S
C1056 C1058 1.391 . S
C1057 C1056 1.386 . S
C1057 C1061 1.393 . S
C1058 H1050 0.950 . S
C1058 C1056 1.391 . S
C1058 C1059 1.400 . S
C1059 C1058 1.400 . S
C1059 C1060 1.398 . S
C1059 C1065 1.491 . S
C1060 H1051 0.950 . S
C1060 C1059 1.398 . S
C1060 C1061 1.391 . S
C1061 H1049 0.950 . S
C1061 C1057 1.393 . S
C1061 C1060 1.391 . S
C1062 H1052 0.968 . S
C1062 C1063 1.386 . S
C1062 C1064 1.391 . S
C1063 C1062 1.386 . S
C1063 C1067 1.393 . S
C1064 H1053 0.950 . S
C1064 C1062 1.391 . S
C1064 C1065 1.400 . S
C1065 C1059 1.491 . S
C1065 C1064 1.400 . S
C1065 C1066 1.398 . S
C1066 H1054 0.950 . S
C1066 C1065 1.398 . S
C1066 C1067 1.391 . S
C1067 H1055 0.950 . S
C1067 C1063 1.393 . S
C1067 C1066 1.391 . S
H1068 C1076 0.950 . S
H1069 C1081 0.950 . S
H1070 C1078 0.950 . S
H1071 C1080 0.950 . S
H1072 C1082 0.950 . S
H1073 C1084 0.950 . S
H1074 C1086 0.950 . S
H1075 C1087 0.950 . S
C1076 H1068 0.950 . S
C1076 C1077 1.386 . S
C1076 C1078 1.391 . S
C1077 C1076 1.386 . S
C1077 C1081 1.393 . S
C1078 H1070 0.950 . S
C1078 C1076 1.391 . S
C1078 C1079 1.400 . S
C1079 C1078 1.400 . S
C1079 C1080 1.398 . S
C1079 C1085 1.491 1_455 S
C1080 H1071 0.950 . S
C1080 C1079 1.398 . S
C1080 C1081 1.391 . S
C1081 H1069 0.950 . S
C1081 C1077 1.393 . S
C1081 C1080 1.391 . S
C1082 H1072 0.950 . S
C1082 C1083 1.386 . S
C1082 C1084 1.391 . S
C1083 C1082 1.386 . S
C1083 C1087 1.393 . S
C1084 H1073 0.950 . S
C1084 C1082 1.391 . S
C1084 C1085 1.400 . S
C1085 C1079 1.491 1_655 S
C1085 C1084 1.400 . S
C1085 C1086 1.398 . S
C1086 H1074 0.950 . S
C1086 C1085 1.398 . S
C1086 C1087 1.391 . S
C1087 H1075 0.950 . S
C1087 C1083 1.393 . S
C1087 C1086 1.391 . S
H1088 C1096 0.950 . S
H1089 C1101 0.950 . S
H1090 C1098 0.950 . S
H1091 C1100 0.950 . S
H1092 C1102 0.950 . S
H1093 C1104 0.950 . S
H1094 C1106 0.950 . S
H1095 C1107 0.950 . S
C1096 H1088 0.950 . S
C1096 C1097 1.386 . S
C1096 C1098 1.391 . S
C1097 C1096 1.386 . S
C1097 C1101 1.393 . S
C1098 H1090 0.950 . S
C1098 C1096 1.391 . S
C1098 C1099 1.400 . S
C1099 C1098 1.400 . S
C1099 C1100 1.398 . S
C1099 C1105 1.491 . S
C1100 H1091 0.950 . S
C1100 C1099 1.398 . S
C1100 C1101 1.391 . S
C1101 H1089 0.950 . S
C1101 C1097 1.393 . S
C1101 C1100 1.391 . S
C1102 H1092 0.950 . S
C1102 C1103 1.386 . S
C1102 C1104 1.391 . S
C1103 C1102 1.386 . S
C1103 C1107 1.393 . S
C1104 H1093 0.950 . S
C1104 C1102 1.391 . S
C1104 C1105 1.400 . S
C1105 C1099 1.491 . S
C1105 C1104 1.400 . S
C1105 C1106 1.398 . S
C1106 H1094 0.950 . S
C1106 C1105 1.398 . S
C1106 C1107 1.391 . S
C1107 H1095 0.950 . S
C1107 C1103 1.393 . S
C1107 C1106 1.391 . S
H1108 C1116 0.950 . S
H1109 C1121 0.950 . S
H1110 C1118 0.950 . S
H1111 C1120 0.950 . S
H1112 C1122 0.950 . S
H1113 C1124 0.950 . S
H1114 C1126 0.950 . S
H1115 C1127 0.950 . S
C1116 H1108 0.950 . S
C1116 C1117 1.386 . S
C1116 C1118 1.391 . S
C1117 C1116 1.386 . S
C1117 C1121 1.393 . S
C1118 H1110 0.950 . S
C1118 C1116 1.391 . S
C1118 C1119 1.400 . S
C1119 C1118 1.400 . S
C1119 C1120 1.398 . S
C1119 C1125 1.491 1_545 S
C1120 H1111 0.950 . S
C1120 C1119 1.398 . S
C1120 C1121 1.391 . S
C1121 H1109 0.950 . S
C1121 C1117 1.393 . S
C1121 C1120 1.391 . S
C1122 H1112 0.950 . S
C1122 C1123 1.386 . S
C1122 C1124 1.391 . S
C1123 C1122 1.386 . S
C1123 C1127 1.393 . S
C1124 H1113 0.950 . S
C1124 C1122 1.391 . S
C1124 C1125 1.400 . S
C1125 C1119 1.491 1_565 S
C1125 C1124 1.400 . S
C1125 C1126 1.398 . S
C1126 H1114 0.950 . S
C1126 C1125 1.398 . S
C1126 C1127 1.391 . S
C1127 H1115 0.950 . S
C1127 C1123 1.393 . S
C1127 C1126 1.391 . S
H1128 C1136 0.950 . S
H1129 C1141 0.950 . S
H1130 C1138 0.950 . S
H1131 C1140 0.950 1_545 S
H1132 C1142 0.950 . S
H1133 C1144 0.950 . S
H1134 C1146 0.950 1_565 S
H1135 C1147 0.950 . S
C1136 H1128 0.950 . S
C1136 C1137 1.386 . S
C1136 C1138 1.391 . S
C1137 C1136 1.386 . S
C1137 C1141 1.393 . S
C1138 H1130 0.950 . S
C1138 C1136 1.391 . S
C1138 C1139 1.400 . S
C1139 C1138 1.400 . S
C1139 C1140 1.398 . S
C1139 C1145 1.491 1_565 S
C1140 H1131 0.950 1_565 S
C1140 C1139 1.398 . S
C1140 C1141 1.391 . S
C1141 H1129 0.950 . S
C1141 C1137 1.393 . S
C1141 C1140 1.391 . S
C1142 H1132 0.950 . S
C1142 C1143 1.386 . S
C1142 C1144 1.391 . S
C1143 C1142 1.386 . S
C1143 C1147 1.393 . S
C1144 H1133 0.950 . S
C1144 C1142 1.391 . S
C1144 C1145 1.400 . S
C1145 C1139 1.491 1_545 S
C1145 C1144 1.400 . S
C1145 C1146 1.398 . S
C1146 H1134 0.950 1_545 S
C1146 C1145 1.398 . S
C1146 C1147 1.391 . S
C1147 H1135 0.950 . S
C1147 C1143 1.393 . S
C1147 C1146 1.391 . S
H1148 C1156 0.950 . S
H1149 C1161 0.950 . S
H1150 C1158 0.950 . S
H1151 C1160 0.950 . S
H1152 C1162 0.950 . S
H1153 C1164 0.950 . S
H1154 C1166 0.950 . S
H1155 C1167 0.950 . S
C1156 H1148 0.950 . S
C1156 C1157 1.386 . S
C1156 C1158 1.391 . S
C1157 C1156 1.386 . S
C1157 C1161 1.393 . S
C1158 H1150 0.950 . S
C1158 C1156 1.391 . S
C1158 C1159 1.400 . S
C1159 C1158 1.400 . S
C1159 C1160 1.398 . S
C1159 C1165 1.491 1_655 S
C1160 H1151 0.950 . S
C1160 C1159 1.398 . S
C1160 C1161 1.391 . S
C1161 H1149 0.950 . S
C1161 C1157 1.393 . S
C1161 C1160 1.391 . S
C1162 H1152 0.950 . S
C1162 C1163 1.386 . S
C1162 C1164 1.391 . S
C1163 C1162 1.386 . S
C1163 C1167 1.393 . S
C1164 H1153 0.950 . S
C1164 C1162 1.391 . S
C1164 C1165 1.400 . S
C1165 C1159 1.491 1_455 S
C1165 C1164 1.400 . S
C1165 C1166 1.398 . S
C1166 H1154 0.950 . S
C1166 C1165 1.398 . S
C1166 C1167 1.391 . S
C1167 H1155 0.950 . S
C1167 C1163 1.393 . S
C1167 C1166 1.391 . S
H1168 C1176 0.950 . S
H1169 C1181 0.950 . S
H1170 C1178 0.950 . S
H1171 C1180 0.950 . S
H1172 C1182 0.950 . S
H1173 C1184 0.950 . S
H1174 C1186 0.950 . S
H1175 C1187 0.950 . S
C1176 H1168 0.950 . S
C1176 C1177 1.386 . S
C1176 C1178 1.391 . S
C1177 C1176 1.386 . S
C1177 C1181 1.393 . S
C1178 H1170 0.950 . S
C1178 C1176 1.391 . S
C1178 C1179 1.400 . S
C1179 C1178 1.400 . S
C1179 C1180 1.398 . S
C1179 C1185 1.491 . S
C1180 H1171 0.950 . S
C1180 C1179 1.398 . S
C1180 C1181 1.391 . S
C1181 H1169 0.950 . S
C1181 C1177 1.393 . S
C1181 C1180 1.391 . S
C1182 H1172 0.950 . S
C1182 C1183 1.386 . S
C1182 C1184 1.391 . S
C1183 C1182 1.386 . S
C1183 C1187 1.393 . S
C1184 H1173 0.950 . S
C1184 C1182 1.391 . S
C1184 C1185 1.400 . S
C1185 C1179 1.491 . S
C1185 C1184 1.400 . S
C1185 C1186 1.398 . S
C1186 H1174 0.950 . S
C1186 C1185 1.398 . S
C1186 C1187 1.391 . S
C1187 H1175 0.950 . S
C1187 C1183 1.393 . S
C1187 C1186 1.391 . S
H1188 C1196 0.950 . S
H1189 C1201 0.950 . S
H1190 C1198 0.950 . S
H1191 C1200 0.950 . S
H1192 C1202 0.950 . S
H1193 C1204 0.950 . S
H1194 C1206 0.950 . S
H1195 C1207 0.950 . S
C1196 H1188 0.950 . S
C1196 C1197 1.386 . S
C1196 C1198 1.391 . S
C1197 C1196 1.386 . S
C1197 C1201 1.393 . S
C1198 H1190 0.950 . S
C1198 C1196 1.391 . S
C1198 C1199 1.400 . S
C1199 C1198 1.400 . S
C1199 C1200 1.398 . S
C1199 C1205 1.491 . S
C1200 H1191 0.950 . S
C1200 C1199 1.398 . S
C1200 C1201 1.391 . S
C1201 H1189 0.950 . S
C1201 C1197 1.393 . S
C1201 C1200 1.391 . S
C1202 H1192 0.950 . S
C1202 C1203 1.386 . S
C1202 C1204 1.391 . S
C1203 C1202 1.386 . S
C1203 C1207 1.393 . S
C1204 H1193 0.950 . S
C1204 C1202 1.391 . S
C1204 C1205 1.400 . S
C1205 C1199 1.491 . S
C1205 C1204 1.400 . S
C1205 C1206 1.398 . S
C1206 H1194 0.950 . S
C1206 C1205 1.398 . S
C1206 C1207 1.391 . S
C1207 H1195 0.950 . S
C1207 C1203 1.393 . S
C1207 C1206 1.391 . S
H1208 C1216 0.950 . S
H1209 C1221 0.950 . S
H1210 C1218 0.950 . S
H1211 C1220 0.950 . S
H1212 C1222 0.950 . S
H1213 C1224 0.950 . S
H1214 C1226 0.950 . S
H1215 C1227 0.950 . S
C1216 H1208 0.950 . S
C1216 C1217 1.386 . S
C1216 C1218 1.391 . S
C1217 C1216 1.386 . S
C1217 C1221 1.393 . S
C1218 H1210 0.950 . S
C1218 C1216 1.391 . S
C1218 C1219 1.400 . S
C1219 C1218 1.400 . S
C1219 C1220 1.398 . S
C1219 C1225 1.491 . S
C1220 H1211 0.950 . S
C1220 C1219 1.398 . S
C1220 C1221 1.391 . S
C1221 H1209 0.950 . S
C1221 C1217 1.393 . S
C1221 C1220 1.391 . S
C1222 H1212 0.950 . S
C1222 C1223 1.386 . S
C1222 C1224 1.391 . S
C1223 C1222 1.386 . S
C1223 C1227 1.393 . S
C1224 H1213 0.950 . S
C1224 C1222 1.391 . S
C1224 C1225 1.400 . S
C1225 C1219 1.491 . S
C1225 C1224 1.400 . S
C1225 C1226 1.398 . S
C1226 H1214 0.950 . S
C1226 C1225 1.398 . S
C1226 C1227 1.391 . S
C1227 H1215 0.950 . S
C1227 C1223 1.393 . S
C1227 C1226 1.391 . S
H1228 C1236 0.950 . S
H1229 C1241 0.950 . S
H1230 C1238 0.950 . S
H1231 C1240 0.950 . S
H1232 C1242 0.950 . S
H1233 C1244 0.950 . S
H1234 C1246 0.950 . S
H1235 C1247 0.950 . S
C1236 H1228 0.950 . S
C1236 C1237 1.386 . S
C1236 C1238 1.391 . S
C1237 C1236 1.386 . S
C1237 C1241 1.393 . S
C1238 H1230 0.950 . S
C1238 C1236 1.391 . S
C1238 C1239 1.400 . S
C1239 C1238 1.400 . S
C1239 C1240 1.398 . S
C1239 C1245 1.491 . S
C1240 H1231 0.950 . S
C1240 C1239 1.398 . S
C1240 C1241 1.391 . S
C1241 H1229 0.950 . S
C1241 C1237 1.393 . S
C1241 C1240 1.391 . S
C1242 H1232 0.950 . S
C1242 C1243 1.386 . S
C1242 C1244 1.391 . S
C1243 C1242 1.386 . S
C1243 C1247 1.393 . S
C1244 H1233 0.950 . S
C1244 C1242 1.391 . S
C1244 C1245 1.400 . S
C1245 C1239 1.491 . S
C1245 C1244 1.400 . S
C1245 C1246 1.398 . S
C1246 H1234 0.950 . S
C1246 C1245 1.398 . S
C1246 C1247 1.391 . S
C1247 H1235 0.950 . S
C1247 C1243 1.393 . S
C1247 C1246 1.391 . S
H1248 C1256 0.950 . S
H1249 C1261 0.950 . S
H1250 C1258 0.950 . S
H1251 C1260 0.950 . S
H1252 C1262 0.950 . S
H1253 C1264 0.950 . S
H1254 C1266 0.950 . S
H1255 C1267 0.950 . S
C1256 H1248 0.950 . S
C1256 C1257 1.386 . S
C1256 C1258 1.391 . S
C1257 C1256 1.386 . S
C1257 C1261 1.393 . S
C1258 H1250 0.950 . S
C1258 C1256 1.391 . S
C1258 C1259 1.400 . S
C1259 C1258 1.400 . S
C1259 C1260 1.398 . S
C1259 C1265 1.491 . S
C1260 H1251 0.950 . S
C1260 C1259 1.398 . S
C1260 C1261 1.391 . S
C1261 H1249 0.950 . S
C1261 C1257 1.393 . S
C1261 C1260 1.391 . S
C1262 H1252 0.950 . S
C1262 C1263 1.386 . S
C1262 C1264 1.391 . S
C1263 C1262 1.386 . S
C1263 C1267 1.393 . S
C1264 H1253 0.950 . S
C1264 C1262 1.391 . S
C1264 C1265 1.400 . S
C1265 C1259 1.491 . S
C1265 C1264 1.400 . S
C1265 C1266 1.398 . S
C1266 H1254 0.950 . S
C1266 C1265 1.398 . S
C1266 C1267 1.391 . S
C1267 H1255 0.950 . S
C1267 C1263 1.393 . S
C1267 C1266 1.391 . S
H1268 C1276 0.950 . S
H1269 C1281 0.950 . S
H1270 C1278 0.950 . S
H1271 C1280 0.950 . S
H1272 C1282 0.950 . S
H1273 C1284 0.950 . S
H1274 C1286 0.950 . S
H1275 C1287 0.950 . S
C1276 H1268 0.950 . S
C1276 C1277 1.386 . S
C1276 C1278 1.391 . S
C1277 C1276 1.386 . S
C1277 C1281 1.393 . S
C1278 H1270 0.950 . S
C1278 C1276 1.391 . S
C1278 C1279 1.400 . S
C1279 C1278 1.400 . S
C1279 C1280 1.398 . S
C1279 C1285 1.491 . S
C1280 H1271 0.950 . S
C1280 C1279 1.398 . S
C1280 C1281 1.391 . S
C1281 H1269 0.950 . S
C1281 C1277 1.393 . S
C1281 C1280 1.391 . S
C1282 H1272 0.950 . S
C1282 C1283 1.386 . S
C1282 C1284 1.391 . S
C1283 C1282 1.386 . S
C1283 C1287 1.393 . S
C1284 H1273 0.950 . S
C1284 C1282 1.391 . S
C1284 C1285 1.400 . S
C1285 C1279 1.491 . S
C1285 C1284 1.400 . S
C1285 C1286 1.398 . S
C1286 H1274 0.950 . S
C1286 C1285 1.398 . S
C1286 C1287 1.391 . S
C1287 H1275 0.950 . S
C1287 C1283 1.393 . S
C1287 C1286 1.391 . S
H1288 C1296 0.950 . S
H1289 C1301 0.950 . S
H1290 C1298 0.950 . S
H1291 C1300 0.950 . S
H1292 C1302 0.950 . S
H1293 C1304 0.950 . S
H1294 C1306 0.950 . S
H1295 C1307 0.950 . S
C1296 H1288 0.950 . S
C1296 C1297 1.386 . S
C1296 C1298 1.391 . S
C1297 C1296 1.386 . S
C1297 C1301 1.393 . S
C1298 H1290 0.950 . S
C1298 C1296 1.391 . S
C1298 C1299 1.400 . S
C1299 C1298 1.400 . S
C1299 C1300 1.398 . S
C1299 C1305 1.491 . S
C1300 H1291 0.950 . S
C1300 C1299 1.398 . S
C1300 C1301 1.391 . S
C1301 H1289 0.950 . S
C1301 C1297 1.393 . S
C1301 C1300 1.391 . S
C1302 H1292 0.950 . S
C1302 C1303 1.386 . S
C1302 C1304 1.391 . S
C1303 C1302 1.386 . S
C1303 C1307 1.393 . S
C1304 H1293 0.950 . S
C1304 C1302 1.391 . S
C1304 C1305 1.400 . S
C1305 C1299 1.491 . S
C1305 C1304 1.400 . S
C1305 C1306 1.398 . S
C1306 H1294 0.950 . S
C1306 C1305 1.398 . S
C1306 C1307 1.391 . S
C1307 H1295 0.950 . S
C1307 C1303 1.393 . S
C1307 C1306 1.391 . S
H1308 C1316 0.950 . S
H1309 C1321 0.950 . S
H1310 C1318 0.950 . S
H1311 C1320 0.950 . S
H1312 C1322 0.950 . S
H1313 C1324 0.950 . S
H1314 C1326 0.950 . S
H1315 C1327 0.950 . S
C1316 H1308 0.950 . S
C1316 C1317 1.386 . S
C1316 C1318 1.391 . S
C1317 C1316 1.386 . S
C1317 C1321 1.393 . S
C1318 H1310 0.950 . S
C1318 C1316 1.391 . S
C1318 C1319 1.400 . S
C1319 C1318 1.400 . S
C1319 C1320 1.398 . S
C1319 C1325 1.491 . S
C1320 H1311 0.950 . S
C1320 C1319 1.398 . S
C1320 C1321 1.391 . S
C1321 H1309 0.950 . S
C1321 C1317 1.393 . S
C1321 C1320 1.391 . S
C1322 H1312 0.950 . S
C1322 C1323 1.386 . S
C1322 C1324 1.391 . S
C1323 C1322 1.386 . S
C1323 C1327 1.393 . S
C1324 H1313 0.950 . S
C1324 C1322 1.391 . S
C1324 C1325 1.400 . S
C1325 C1319 1.491 . S
C1325 C1324 1.400 . S
C1325 C1326 1.398 . S
C1326 H1314 0.950 . S
C1326 C1325 1.398 . S
C1326 C1327 1.391 . S
C1327 H1315 0.950 . S
C1327 C1323 1.393 . S
C1327 C1326 1.391 . S
H1328 C1336 0.950 . S
H1329 C1341 0.950 . S
H1330 C1338 0.950 . S
H1331 C1340 0.950 . S
H1332 C1342 0.950 . S
H1333 C1344 0.950 . S
H1334 C1346 0.950 . S
H1335 C1347 0.950 . S
C1336 H1328 0.950 . S
C1336 C1337 1.386 . S
C1336 C1338 1.391 . S
C1337 C1336 1.386 . S
C1337 C1341 1.393 . S
C1338 H1330 0.950 . S
C1338 C1336 1.391 . S
C1338 C1339 1.400 . S
C1339 C1338 1.400 . S
C1339 C1340 1.398 . S
C1339 C1345 1.491 . S
C1340 H1331 0.950 . S
C1340 C1339 1.398 . S
C1340 C1341 1.391 . S
C1341 H1329 0.950 . S
C1341 C1337 1.393 . S
C1341 C1340 1.391 . S
C1342 H1332 0.950 . S
C1342 C1343 1.386 . S
C1342 C1344 1.391 . S
C1343 C1342 1.386 . S
C1343 C1347 1.393 . S
C1344 H1333 0.950 . S
C1344 C1342 1.391 . S
C1344 C1345 1.400 . S
C1345 C1339 1.491 . S
C1345 C1344 1.400 . S
C1345 C1346 1.398 . S
C1346 H1334 0.950 . S
C1346 C1345 1.398 . S
C1346 C1347 1.391 . S
C1347 H1335 0.950 . S
C1347 C1343 1.393 . S
C1347 C1346 1.391 . S
H1348 C1356 0.950 . S
H1349 C1361 0.950 . S
H1350 C1358 0.950 . S
H1351 C1360 0.950 . S
H1352 C1362 0.950 . S
H1353 C1364 0.950 . S
H1354 C1366 0.950 . S
H1355 C1367 0.950 . S
C1356 H1348 0.950 . S
C1356 C1357 1.386 . S
C1356 C1358 1.391 . S
C1357 C1356 1.386 . S
C1357 C1361 1.393 . S
C1358 H1350 0.950 . S
C1358 C1356 1.391 . S
C1358 C1359 1.400 . S
C1359 C1358 1.400 . S
C1359 C1360 1.398 . S
C1359 C1365 1.491 . S
C1360 H1351 0.950 . S
C1360 C1359 1.398 . S
C1360 C1361 1.391 . S
C1361 H1349 0.950 . S
C1361 C1357 1.393 . S
C1361 C1360 1.391 . S
C1362 H1352 0.950 . S
C1362 C1363 1.386 . S
C1362 C1364 1.391 . S
C1363 C1362 1.386 . S
C1363 C1367 1.393 . S
C1364 H1353 0.950 . S
C1364 C1362 1.391 . S
C1364 C1365 1.400 . S
C1365 C1359 1.491 . S
C1365 C1364 1.400 . S
C1365 C1366 1.398 . S
C1366 H1354 0.950 . S
C1366 C1365 1.398 . S
C1366 C1367 1.391 . S
C1367 H1355 0.950 . S
C1367 C1363 1.393 . S
C1367 C1366 1.391 . S
H1368 C1376 0.950 . S
H1369 C1381 0.950 . S
H1370 C1378 0.950 . S
H1371 C1380 0.950 . S
H1372 C1382 0.950 . S
H1373 C1384 0.950 . S
H1374 C1386 0.950 . S
H1375 C1387 0.950 . S
C1376 H1368 0.950 . S
C1376 C1377 1.386 . S
C1376 C1378 1.391 . S
C1377 C1376 1.386 . S
C1377 C1381 1.393 . S
C1378 H1370 0.950 . S
C1378 C1376 1.391 . S
C1378 C1379 1.400 . S
C1379 C1378 1.400 . S
C1379 C1380 1.398 . S
C1379 C1385 1.491 . S
C1380 H1371 0.950 . S
C1380 C1379 1.398 . S
C1380 C1381 1.391 . S
C1381 H1369 0.950 . S
C1381 C1377 1.393 . S
C1381 C1380 1.391 . S
C1382 H1372 0.950 . S
C1382 C1383 1.386 . S
C1382 C1384 1.391 . S
C1383 C1382 1.386 . S
C1383 C1387 1.393 . S
C1384 H1373 0.950 . S
C1384 C1382 1.391 . S
C1384 C1385 1.400 . S
C1385 C1379 1.491 . S
C1385 C1384 1.400 . S
C1385 C1386 1.398 . S
C1386 H1374 0.950 . S
C1386 C1385 1.398 . S
C1386 C1387 1.391 . S
C1387 H1375 0.950 . S
C1387 C1383 1.393 . S
C1387 C1386 1.391 . S
H1388 C1396 0.950 . S
H1389 C1401 0.950 . S
H1390 C1398 0.950 . S
H1391 C1400 0.950 . S
H1392 C1402 0.950 . S
H1393 C1404 0.950 . S
H1394 C1406 0.950 . S
H1395 C1407 0.950 . S
C1396 H1388 0.950 . S
C1396 C1397 1.386 . S
C1396 C1398 1.391 . S
C1397 C1396 1.386 . S
C1397 C1401 1.393 . S
C1398 H1390 0.950 . S
C1398 C1396 1.391 . S
C1398 C1399 1.400 . S
C1399 C1398 1.400 . S
C1399 C1400 1.398 . S
C1399 C1405 1.491 . S
C1400 H1391 0.950 . S
C1400 C1399 1.398 . S
C1400 C1401 1.391 . S
C1401 H1389 0.950 . S
C1401 C1397 1.393 . S
C1401 C1400 1.391 . S
C1402 H1392 0.950 . S
C1402 C1403 1.386 . S
C1402 C1404 1.391 . S
C1403 C1402 1.386 . S
C1403 C1407 1.393 . S
C1404 H1393 0.950 . S
C1404 C1402 1.391 . S
C1404 C1405 1.400 . S
C1405 C1399 1.491 . S
C1405 C1404 1.400 . S
C1405 C1406 1.398 . S
C1406 H1394 0.950 . S
C1406 C1405 1.398 . S
C1406 C1407 1.391 . S
C1407 H1395 0.950 . S
C1407 C1403 1.393 . S
C1407 C1406 1.391 . S
H1408 C1416 0.950 . S
H1409 C1421 0.950 . S
H1410 C1418 0.950 . S
H1411 C1420 0.950 . S
H1412 C1422 0.950 . S
H1413 C1424 0.950 . S
H1414 C1426 0.950 . S
H1415 C1427 0.950 . S
C1416 H1408 0.950 . S
C1416 C1417 1.386 . S
C1416 C1418 1.391 . S
C1417 C1416 1.386 . S
C1417 C1421 1.393 . S
C1418 H1410 0.950 . S
C1418 C1416 1.391 . S
C1418 C1419 1.400 . S
C1419 C1418 1.400 . S
C1419 C1420 1.398 . S
C1419 C1425 1.491 . S
C1420 H1411 0.950 . S
C1420 C1419 1.398 . S
C1420 C1421 1.391 . S
C1421 H1409 0.950 . S
C1421 C1417 1.393 . S
C1421 C1420 1.391 . S
C1422 H1412 0.950 . S
C1422 C1423 1.386 . S
C1422 C1424 1.391 . S
C1423 C1422 1.386 . S
C1423 C1427 1.393 . S
C1424 H1413 0.950 . S
C1424 C1422 1.391 . S
C1424 C1425 1.400 . S
C1425 C1419 1.491 . S
C1425 C1424 1.400 . S
C1425 C1426 1.398 . S
C1426 H1414 0.950 . S
C1426 C1425 1.398 . S
C1426 C1427 1.391 . S
C1427 H1415 0.950 . S
C1427 C1423 1.393 . S
C1427 C1426 1.391 . S
H1428 C1436 0.950 . S
H1429 C1441 0.952 1_655 S
H1430 C1438 0.950 . S
H1431 C1440 0.950 . S
H1432 C1442 0.950 . S
H1433 C1444 0.950 . S
H1434 C1446 0.950 . S
H1435 C1447 0.952 1_455 S
C1436 H1428 0.950 . S
C1436 C1437 1.386 . S
C1436 C1438 1.391 . S
C1437 C1436 1.386 . S
C1437 C1441 1.393 . S
C1438 H1430 0.950 . S
C1438 C1436 1.391 . S
C1438 C1439 1.400 . S
C1439 C1438 1.400 . S
C1439 C1440 1.398 1_455 S
C1439 C1445 1.491 1_455 S
C1440 H1431 0.950 . S
C1440 C1439 1.398 1_655 S
C1440 C1441 1.391 1_655 S
C1441 H1429 0.952 1_455 S
C1441 C1437 1.393 . S
C1441 C1440 1.391 1_455 S
C1442 H1432 0.950 . S
C1442 C1443 1.386 . S
C1442 C1444 1.391 . S
C1443 C1442 1.386 . S
C1443 C1447 1.393 . S
C1444 H1433 0.950 . S
C1444 C1442 1.391 . S
C1444 C1445 1.400 . S
C1445 C1439 1.491 1_655 S
C1445 C1444 1.400 . S
C1445 C1446 1.398 1_655 S
C1446 H1434 0.950 . S
C1446 C1445 1.398 1_455 S
C1446 C1447 1.391 1_455 S
C1447 H1435 0.952 1_655 S
C1447 C1443 1.393 . S
C1447 C1446 1.391 1_655 S
H1448 C1456 0.950 . S
H1449 C1461 0.950 . S
H1450 C1458 0.950 . S
H1451 C1460 0.950 . S
H1452 C1462 0.950 . S
H1453 C1464 0.950 . S
H1454 C1466 0.950 . S
H1455 C1467 0.950 . S
C1456 H1448 0.950 . S
C1456 C1457 1.386 . S
C1456 C1458 1.391 . S
C1457 C1456 1.386 . S
C1457 C1461 1.393 . S
C1458 H1450 0.950 . S
C1458 C1456 1.391 . S
C1458 C1459 1.400 . S
C1459 C1458 1.400 . S
C1459 C1460 1.398 . S
C1459 C1465 1.491 . S
C1460 H1451 0.950 . S
C1460 C1459 1.398 . S
C1460 C1461 1.391 . S
C1461 H1449 0.950 . S
C1461 C1457 1.393 . S
C1461 C1460 1.391 . S
C1462 H1452 0.950 . S
C1462 C1463 1.386 . S
C1462 C1464 1.391 . S
C1463 C1462 1.386 . S
C1463 C1467 1.393 . S
C1464 H1453 0.950 . S
C1464 C1462 1.391 . S
C1464 C1465 1.400 . S
C1465 C1459 1.491 . S
C1465 C1464 1.400 . S
C1465 C1466 1.398 . S
C1466 H1454 0.950 . S
C1466 C1465 1.398 . S
C1466 C1467 1.391 . S
C1467 H1455 0.950 . S
C1467 C1463 1.393 . S
C1467 C1466 1.391 . S
H1468 C1476 0.932 1_565 S
H1469 C1481 0.950 . S
H1470 C1478 0.950 . S
H1471 C1480 0.950 . S
H1472 C1482 0.932 1_545 S
H1473 C1484 0.950 . S
H1474 C1486 0.950 . S
H1475 C1487 0.950 . S
C1476 H1468 0.932 1_545 S
C1476 C1477 1.400 . S
C1476 C1478 1.394 1_545 S
C1477 C1476 1.400 . S
C1477 C1481 1.393 . S
C1478 H1470 0.950 . S
C1478 C1476 1.394 1_565 S
C1478 C1479 1.400 1_565 S
C1479 C1478 1.400 1_545 S
C1479 C1480 1.398 . S
C1479 C1485 1.491 1_545 S
C1480 H1471 0.950 . S
C1480 C1479 1.398 . S
C1480 C1481 1.391 . S
C1481 H1469 0.950 . S
C1481 C1477 1.393 . S
C1481 C1480 1.391 . S
C1482 H1472 0.932 1_565 S
C1482 C1483 1.400 . S
C1482 C1484 1.394 1_565 S
C1483 C1482 1.400 . S
C1483 C1487 1.393 . S
C1484 H1473 0.950 . S
C1484 C1482 1.394 1_545 S
C1484 C1485 1.400 1_545 S
C1485 C1479 1.491 1_565 S
C1485 C1484 1.400 1_565 S
C1485 C1486 1.398 . S
C1486 H1474 0.950 . S
C1486 C1485 1.398 . S
C1486 C1487 1.391 . S
C1487 H1475 0.950 . S
C1487 C1483 1.393 . S
C1487 C1486 1.391 . S
H1488 C1496 0.950 . S
H1489 C1501 0.950 1_554 S
H1490 C1498 0.950 . S
H1491 C1500 0.950 . S
H1492 C1502 0.950 . S
H1493 C1504 0.950 . S
H1494 C1506 0.950 . S
H1495 C1507 0.950 1_556 S
C1496 H1488 0.950 . S
C1496 C1497 1.386 . S
C1496 C1498 1.391 . S
C1497 C1496 1.386 . S
C1497 C1501 1.393 . S
C1498 H1490 0.950 . S
C1498 C1496 1.391 . S
C1498 C1499 1.400 . S
C1499 C1498 1.400 . S
C1499 C1500 1.398 1_556 S
C1499 C1505 1.491 1_546 S
C1500 H1491 0.950 . S
C1500 C1499 1.398 1_554 S
C1500 C1501 1.391 1_554 S
C1501 H1489 0.950 1_556 S
C1501 C1497 1.393 . S
C1501 C1500 1.391 1_556 S
C1502 H1492 0.950 . S
C1502 C1503 1.386 . S
C1502 C1504 1.391 . S
C1503 C1502 1.386 . S
C1503 C1507 1.393 . S
C1504 H1493 0.950 . S
C1504 C1502 1.391 . S
C1504 C1505 1.400 . S
C1505 C1499 1.491 1_564 S
C1505 C1504 1.400 . S
C1505 C1506 1.398 1_554 S
C1506 H1494 0.950 . S
C1506 C1505 1.398 1_556 S
C1506 C1507 1.391 1_556 S
C1507 H1495 0.950 1_554 S
C1507 C1503 1.393 . S
C1507 C1506 1.391 1_554 S
H1508 C1516 0.950 . S
H1509 C1521 1.019 . S
H1510 C1518 0.950 . S
H1511 C1520 0.950 . S
H1512 C1522 0.950 . S
H1513 C1524 0.950 . S
H1514 C1526 0.950 . S
H1515 C1527 1.019 . S
C1516 H1508 0.950 . S
C1516 C1517 1.386 . S
C1516 C1518 1.391 . S
C1517 C1516 1.386 . S
C1517 C1521 1.333 1_455 S
C1518 H1510 0.950 . S
C1518 C1516 1.391 . S
C1518 C1519 1.400 . S
C1519 C1518 1.400 . S
C1519 C1520 1.398 1_455 S
C1519 C1525 1.491 1_454 S
C1520 H1511 0.950 . S
C1520 C1519 1.398 1_655 S
C1520 C1521 1.384 . S
C1521 H1509 1.019 . S
C1521 C1517 1.333 1_655 S
C1521 C1520 1.384 . S
C1522 H1512 0.950 . S
C1522 C1523 1.386 . S
C1522 C1524 1.391 . S
C1523 C1522 1.386 . S
C1523 C1527 1.333 1_655 S
C1524 H1513 0.950 . S
C1524 C1522 1.391 . S
C1524 C1525 1.400 . S
C1525 C1519 1.491 1_656 S
C1525 C1524 1.400 . S
C1525 C1526 1.398 1_655 S
C1526 H1514 0.950 . S
C1526 C1525 1.398 1_455 S
C1526 C1527 1.384 . S
C1527 H1515 1.019 . S
C1527 C1523 1.333 1_455 S
C1527 C1526 1.384 . S
H1528 C1536 0.950 1_556 S
H1529 C1541 0.950 . S
H1530 C1538 0.950 . S
H1531 C1540 0.950 . S
H1532 C1542 0.950 1_554 S
H1533 C1544 0.950 . S
H1534 C1546 0.950 . S
H1535 C1547 0.950 . S
C1536 H1528 0.950 1_554 S
C1536 C1537 1.386 . S
C1536 C1538 1.391 1_554 S
C1537 C1536 1.386 . S
C1537 C1541 1.393 . S
C1538 H1530 0.950 . S
C1538 C1536 1.391 1_556 S
C1538 C1539 1.400 1_556 S
C1539 C1538 1.400 1_554 S
C1539 C1540 1.398 . S
C1539 C1545 1.491 1_554 S
C1540 H1531 0.950 . S
C1540 C1539 1.398 . S
C1540 C1541 1.391 . S
C1541 H1529 0.950 . S
C1541 C1537 1.393 . S
C1541 C1540 1.391 . S
C1542 H1532 0.950 1_556 S
C1542 C1543 1.386 . S
C1542 C1544 1.391 1_556 S
C1543 C1542 1.386 . S
C1543 C1547 1.393 . S
C1544 H1533 0.950 . S
C1544 C1542 1.391 1_554 S
C1544 C1545 1.400 1_554 S
C1545 C1539 1.491 1_556 S
C1545 C1544 1.400 1_556 S
C1545 C1546 1.398 . S
C1546 H1534 0.950 . S
C1546 C1545 1.398 . S
C1546 C1547 1.391 . S
C1547 H1535 0.950 . S
C1547 C1543 1.393 . S
C1547 C1546 1.391 . S
H1548 C1556 0.950 1_556 S
H1549 C1561 0.950 . S
H1550 C1558 0.950 . S
H1551 C1560 0.950 . S
H1552 C1562 0.950 . S
H1553 C1564 0.950 . S
H1554 C1566 0.950 . S
H1555 C1567 0.950 . S
C1556 H1548 0.950 1_554 S
C1556 C1557 1.386 . S
C1556 C1558 1.391 . S
C1557 C1556 1.386 . S
C1557 C1561 1.393 . S
C1558 H1550 0.950 . S
C1558 C1556 1.391 . S
C1558 C1559 1.400 . S
C1559 C1558 1.400 . S
C1559 C1560 1.398 . S
C1559 C1565 1.491 . S
C1560 H1551 0.950 . S
C1560 C1559 1.398 . S
C1560 C1561 1.391 . S
C1561 H1549 0.950 . S
C1561 C1557 1.393 . S
C1561 C1560 1.391 . S
C1562 H1552 0.950 . S
C1562 C1563 1.386 . S
C1562 C1564 1.391 . S
C1563 C1562 1.386 . S
C1563 C1567 1.393 . S
C1564 H1553 0.950 . S
C1564 C1562 1.391 . S
C1564 C1565 1.400 . S
C1565 C1559 1.491 . S
C1565 C1564 1.400 . S
C1565 C1566 1.398 . S
C1566 H1554 0.950 . S
C1566 C1565 1.398 . S
C1566 C1567 1.391 . S
C1567 H1555 0.950 . S
C1567 C1563 1.393 . S
C1567 C1566 1.391 . S
H1568 C1576 0.950 . S
H1569 C1581 0.950 . S
H1570 C1578 0.950 . S
H1571 C1580 0.950 . S
H1572 C1582 0.950 1_556 S
H1573 C1584 0.950 . S
H1574 C1586 0.950 . S
H1575 C1587 0.950 . S
C1576 H1568 0.950 . S
C1576 C1577 1.386 . S
C1576 C1578 1.391 . S
C1577 C1576 1.386 . S
C1577 C1581 1.393 . S
C1578 H1570 0.950 . S
C1578 C1576 1.391 . S
C1578 C1579 1.400 . S
C1579 C1578 1.400 . S
C1579 C1580 1.398 . S
C1579 C1585 1.491 . S
C1580 H1571 0.950 . S
C1580 C1579 1.398 . S
C1580 C1581 1.391 . S
C1581 H1569 0.950 . S
C1581 C1577 1.393 . S
C1581 C1580 1.391 . S
C1582 H1572 0.950 1_554 S
C1582 C1583 1.386 . S
C1582 C1584 1.391 . S
C1583 C1582 1.386 . S
C1583 C1587 1.393 . S
C1584 H1573 0.950 . S
C1584 C1582 1.391 . S
C1584 C1585 1.400 . S
C1585 C1579 1.491 . S
C1585 C1584 1.400 . S
C1585 C1586 1.398 . S
C1586 H1574 0.950 . S
C1586 C1585 1.398 . S
C1586 C1587 1.391 . S
C1587 H1575 0.950 . S
C1587 C1583 1.393 . S
C1587 C1586 1.391 . S
H1588 C1596 0.950 1_556 S
H1589 C1601 0.950 . S
H1590 C1598 0.950 . S
H1591 C1600 0.950 . S
H1592 C1602 0.950 . S
H1593 C1604 0.950 . S
H1594 C1606 0.950 . S
H1595 C1607 0.950 . S
C1596 H1588 0.950 1_554 S
C1596 C1597 1.386 . S
C1596 C1598 1.391 . S
C1597 C1596 1.386 . S
C1597 C1601 1.393 . S
C1598 H1590 0.950 . S
C1598 C1596 1.391 . S
C1598 C1599 1.400 . S
C1599 C1598 1.400 . S
C1599 C1600 1.398 . S
C1599 C1605 1.491 . S
C1600 H1591 0.950 . S
C1600 C1599 1.398 . S
C1600 C1601 1.391 . S
C1601 H1589 0.950 . S
C1601 C1597 1.393 . S
C1601 C1600 1.391 . S
C1602 H1592 0.950 . S
C1602 C1603 1.386 . S
C1602 C1604 1.391 . S
C1603 C1602 1.386 . S
C1603 C1607 1.393 . S
C1604 H1593 0.950 . S
C1604 C1602 1.391 . S
C1604 C1605 1.400 . S
C1605 C1599 1.491 . S
C1605 C1604 1.400 . S
C1605 C1606 1.398 . S
C1606 H1594 0.950 . S
C1606 C1605 1.398 . S
C1606 C1607 1.391 . S
C1607 H1595 0.950 . S
C1607 C1603 1.393 . S
C1607 C1606 1.391 . S
H1608 C1616 0.950 . S
H1609 C1621 0.950 . S
H1610 C1618 0.950 . S
H1611 C1620 0.950 . S
H1612 C1622 0.950 . S
H1613 C1624 0.950 . S
H1614 C1626 0.950 . S
H1615 C1627 0.950 . S
C1616 H1608 0.950 . S
C1616 C1617 1.386 . S
C1616 C1618 1.391 . S
C1617 C1616 1.386 . S
C1617 C1621 1.393 . S
C1618 H1610 0.950 . S
C1618 C1616 1.391 . S
C1618 C1619 1.400 . S
C1619 C1618 1.400 . S
C1619 C1620 1.398 . S
C1619 C1625 1.491 . S
C1620 H1611 0.950 . S
C1620 C1619 1.398 . S
C1620 C1621 1.391 . S
C1621 H1609 0.950 . S
C1621 C1617 1.393 . S
C1621 C1620 1.391 . S
C1622 H1612 0.950 . S
C1622 C1623 1.386 . S
C1622 C1624 1.391 . S
C1623 C1622 1.386 . S
C1623 C1627 1.393 . S
C1624 H1613 0.950 . S
C1624 C1622 1.391 . S
C1624 C1625 1.400 . S
C1625 C1619 1.491 . S
C1625 C1624 1.400 . S
C1625 C1626 1.398 . S
C1626 H1614 0.950 . S
C1626 C1625 1.398 . S
C1626 C1627 1.391 . S
C1627 H1615 0.950 . S
C1627 C1623 1.393 . S
C1627 C1626 1.391 . S
H1628 C1636 0.950 . S
H1629 C1641 0.950 . S
H1630 C1638 0.950 . S
H1631 C1640 0.950 . S
H1632 C1642 0.950 . S
H1633 C1644 0.950 . S
H1634 C1646 0.950 . S
H1635 C1647 0.950 . S
C1636 H1628 0.950 . S
C1636 C1637 1.386 . S
C1636 C1638 1.391 . S
C1637 C1636 1.386 . S
C1637 C1641 1.393 . S
C1638 H1630 0.950 . S
C1638 C1636 1.391 . S
C1638 C1639 1.400 . S
C1639 C1638 1.400 . S
C1639 C1640 1.398 . S
C1639 C1645 1.491 . S
C1640 H1631 0.950 . S
C1640 C1639 1.398 . S
C1640 C1641 1.391 . S
C1641 H1629 0.950 . S
C1641 C1637 1.393 . S
C1641 C1640 1.391 . S
C1642 H1632 0.950 . S
C1642 C1643 1.386 . S
C1642 C1644 1.391 . S
C1643 C1642 1.386 . S
C1643 C1647 1.393 . S
C1644 H1633 0.950 . S
C1644 C1642 1.391 . S
C1644 C1645 1.400 . S
C1645 C1639 1.491 . S
C1645 C1644 1.400 . S
C1645 C1646 1.398 . S
C1646 H1634 0.950 . S
C1646 C1645 1.398 . S
C1646 C1647 1.391 . S
C1647 H1635 0.950 . S
C1647 C1643 1.393 . S
C1647 C1646 1.391 . S
H1648 C1656 0.950 . S
H1649 C1661 0.950 . S
H1650 C1658 0.950 . S
H1651 C1660 0.950 . S
H1652 C1662 0.950 . S
H1653 C1664 0.950 . S
H1654 C1666 0.950 . S
H1655 C1667 0.950 . S
C1656 H1648 0.950 . S
C1656 C1657 1.386 . S
C1656 C1658 1.391 . S
C1657 C1656 1.386 . S
C1657 C1661 1.393 . S
C1658 H1650 0.950 . S
C1658 C1656 1.391 . S
C1658 C1659 1.400 . S
C1659 C1658 1.400 . S
C1659 C1660 1.398 . S
C1659 C1665 1.491 . S
C1660 H1651 0.950 . S
C1660 C1659 1.398 . S
C1660 C1661 1.391 . S
C1661 H1649 0.950 . S
C1661 C1657 1.393 . S
C1661 C1660 1.391 . S
C1662 H1652 0.950 . S
C1662 C1663 1.386 . S
C1662 C1664 1.391 . S
C1663 C1662 1.386 . S
C1663 C1667 1.393 . S
C1664 H1653 0.950 . S
C1664 C1662 1.391 . S
C1664 C1665 1.400 . S
C1665 C1659 1.491 . S
C1665 C1664 1.400 . S
C1665 C1666 1.398 . S
C1666 H1654 0.950 . S
C1666 C1665 1.398 . S
C1666 C1667 1.391 . S
C1667 H1655 0.950 . S
C1667 C1663 1.393 . S
C1667 C1666 1.391 . S
H1668 C1676 0.950 . S
H1669 C1681 0.950 . S
H1670 C1678 0.950 . S
H1671 C1680 0.950 . S
H1672 C1682 0.950 . S
H1673 C1684 0.950 . S
H1674 C1686 0.950 . S
H1675 C1687 0.950 1_554 S
C1676 H1668 0.950 . S
C1676 C1677 1.386 . S
C1676 C1678 1.391 . S
C1677 C1676 1.386 . S
C1677 C1681 1.393 . S
C1678 H1670 0.950 . S
C1678 C1676 1.391 . S
C1678 C1679 1.400 . S
C1679 C1678 1.400 . S
C1679 C1680 1.398 . S
C1679 C1685 1.491 . S
C1680 H1671 0.950 . S
C1680 C1679 1.398 . S
C1680 C1681 1.391 . S
C1681 H1669 0.950 . S
C1681 C1677 1.393 . S
C1681 C1680 1.391 . S
C1682 H1672 0.950 . S
C1682 C1683 1.386 . S
C1682 C1684 1.391 . S
C1683 C1682 1.386 . S
C1683 C1687 1.393 . S
C1684 H1673 0.950 . S
C1684 C1682 1.391 . S
C1684 C1685 1.400 . S
C1685 C1679 1.491 . S
C1685 C1684 1.400 . S
C1685 C1686 1.398 . S
C1686 H1674 0.950 . S
C1686 C1685 1.398 . S
C1686 C1687 1.391 . S
C1687 H1675 0.950 1_556 S
C1687 C1683 1.393 . S
C1687 C1686 1.391 . S
H1688 C1696 0.950 1_554 S
H1689 C1701 0.950 . S
H1690 C1698 0.950 . S
H1691 C1700 0.950 . S
H1692 C1702 0.950 . S
H1693 C1704 0.950 . S
H1694 C1706 0.950 . S
H1695 C1707 0.950 . S
C1696 H1688 0.950 1_556 S
C1696 C1697 1.386 . S
C1696 C1698 1.391 . S
C1697 C1696 1.386 . S
C1697 C1701 1.393 . S
C1698 H1690 0.950 . S
C1698 C1696 1.391 . S
C1698 C1699 1.400 . S
C1699 C1698 1.400 . S
C1699 C1700 1.398 . S
C1699 C1705 1.491 . S
C1700 H1691 0.950 . S
C1700 C1699 1.398 . S
C1700 C1701 1.391 . S
C1701 H1689 0.950 . S
C1701 C1697 1.393 . S
C1701 C1700 1.391 . S
C1702 H1692 0.950 . S
C1702 C1703 1.386 . S
C1702 C1704 1.391 . S
C1703 C1702 1.386 . S
C1703 C1707 1.393 . S
C1704 H1693 0.950 . S
C1704 C1702 1.391 . S
C1704 C1705 1.400 . S
C1705 C1699 1.491 . S
C1705 C1704 1.400 . S
C1705 C1706 1.398 . S
C1706 H1694 0.950 . S
C1706 C1705 1.398 . S
C1706 C1707 1.391 . S
C1707 H1695 0.950 . S
C1707 C1703 1.393 . S
C1707 C1706 1.391 . S
H1708 C1716 0.950 . S
H1709 C1721 0.950 . S
H1710 C1718 0.950 . S
H1711 C1720 0.950 . S
H1712 C1722 0.959 . S
H1713 C1724 0.950 . S
H1714 C1726 0.950 . S
H1715 C1727 0.950 . S
C1716 H1708 0.950 . S
C1716 C1717 1.386 . S
C1716 C1718 1.391 . S
C1717 C1716 1.386 . S
C1717 C1721 1.393 . S
C1718 H1710 0.950 . S
C1718 C1716 1.391 . S
C1718 C1719 1.400 . S
C1719 C1718 1.400 . S
C1719 C1720 1.398 . S
C1719 C1725 1.491 . S
C1720 H1711 0.950 . S
C1720 C1719 1.398 . S
C1720 C1721 1.391 . S
C1721 H1709 0.950 . S
C1721 C1717 1.393 . S
C1721 C1720 1.391 . S
C1722 H1712 0.959 . S
C1722 C1723 1.386 . S
C1722 C1724 1.391 . S
C1723 C1722 1.386 . S
C1723 C1727 1.393 . S
C1724 H1713 0.950 . S
C1724 C1722 1.391 . S
C1724 C1725 1.400 . S
C1725 C1719 1.491 . S
C1725 C1724 1.400 . S
C1725 C1726 1.398 . S
C1726 H1714 0.950 . S
C1726 C1725 1.398 . S
C1726 C1727 1.391 . S
C1727 H1715 0.950 . S
C1727 C1723 1.393 . S
C1727 C1726 1.391 . S
H1728 C1736 0.950 . S
H1729 C1741 0.950 . S
H1730 C1738 0.950 . S
H1731 C1740 0.950 . S
H1732 C1742 0.950 . S
H1733 C1744 0.950 . S
H1734 C1746 0.950 . S
H1735 C1747 0.950 . S
C1736 H1728 0.950 . S
C1736 C1737 1.386 . S
C1736 C1738 1.391 . S
C1737 C1736 1.386 . S
C1737 C1741 1.393 . S
C1738 H1730 0.950 . S
C1738 C1736 1.391 . S
C1738 C1739 1.400 . S
C1739 C1738 1.400 . S
C1739 C1740 1.398 . S
C1739 C1745 1.491 . S
C1740 H1731 0.950 . S
C1740 C1739 1.398 . S
C1740 C1741 1.391 . S
C1741 H1729 0.950 . S
C1741 C1737 1.393 . S
C1741 C1740 1.391 . S
C1742 H1732 0.950 . S
C1742 C1743 1.386 . S
C1742 C1744 1.391 . S
C1743 C1742 1.386 . S
C1743 C1747 1.393 . S
C1744 H1733 0.950 . S
C1744 C1742 1.391 . S
C1744 C1745 1.400 . S
C1745 C1739 1.491 . S
C1745 C1744 1.400 . S
C1745 C1746 1.398 . S
C1746 H1734 0.950 . S
C1746 C1745 1.398 . S
C1746 C1747 1.391 . S
C1747 H1735 0.950 . S
C1747 C1743 1.393 . S
C1747 C1746 1.391 . S
H1748 C1756 0.950 . S
H1749 C1761 0.950 . S
H1750 C1758 0.950 . S
H1751 C1760 0.950 . S
H1752 C1762 0.950 . S
H1753 C1764 0.950 . S
H1754 C1766 0.950 . S
H1755 C1767 0.950 . S
C1756 H1748 0.950 . S
C1756 C1757 1.386 . S
C1756 C1758 1.391 . S
C1757 C1756 1.386 . S
C1757 C1761 1.393 . S
C1758 H1750 0.950 . S
C1758 C1756 1.391 . S
C1758 C1759 1.400 . S
C1759 C1758 1.400 . S
C1759 C1760 1.398 . S
C1759 C1765 1.491 . S
C1760 H1751 0.950 . S
C1760 C1759 1.398 . S
C1760 C1761 1.391 . S
C1761 H1749 0.950 . S
C1761 C1757 1.393 . S
C1761 C1760 1.391 . S
C1762 H1752 0.950 . S
C1762 C1763 1.386 . S
C1762 C1764 1.391 . S
C1763 C1762 1.386 . S
C1763 C1767 1.393 . S
C1764 H1753 0.950 . S
C1764 C1762 1.391 . S
C1764 C1765 1.400 . S
C1765 C1759 1.491 . S
C1765 C1764 1.400 . S
C1765 C1766 1.398 . S
C1766 H1754 0.950 . S
C1766 C1765 1.398 . S
C1766 C1767 1.391 . S
C1767 H1755 0.950 . S
C1767 C1763 1.393 . S
C1767 C1766 1.391 . S
H1768 C1776 0.950 . S
H1769 C1781 0.950 . S
H1770 C1778 0.950 . S
H1771 C1780 0.950 . S
H1772 C1782 0.950 . S
H1773 C1784 0.950 . S
H1774 C1786 0.950 . S
H1775 C1787 0.950 . S
C1776 H1768 0.950 . S
C1776 C1777 1.386 . S
C1776 C1778 1.391 . S
C1777 C1776 1.386 . S
C1777 C1781 1.393 . S
C1778 H1770 0.950 . S
C1778 C1776 1.391 . S
C1778 C1779 1.400 . S
C1779 C1778 1.400 . S
C1779 C1780 1.398 . S
C1779 C1785 1.491 . S
C1780 H1771 0.950 . S
C1780 C1779 1.398 . S
C1780 C1781 1.391 . S
C1781 H1769 0.950 . S
C1781 C1777 1.393 . S
C1781 C1780 1.391 . S
C1782 H1772 0.950 . S
C1782 C1783 1.386 . S
C1782 C1784 1.391 . S
C1783 C1782 1.386 . S
C1783 C1787 1.393 . S
C1784 H1773 0.950 . S
C1784 C1782 1.391 . S
C1784 C1785 1.400 . S
C1785 C1779 1.491 . S
C1785 C1784 1.400 . S
C1785 C1786 1.398 . S
C1786 H1774 0.950 . S
C1786 C1785 1.398 . S
C1786 C1787 1.391 . S
C1787 H1775 0.950 . S
C1787 C1783 1.393 . S
C1787 C1786 1.391 . S
H1788 C1796 0.950 . S
H1789 C1801 0.950 . S
H1790 C1798 0.950 . S
H1791 C1800 0.950 . S
H1792 C1802 0.950 . S
H1793 C1804 0.950 . S
H1794 C1806 0.950 . S
H1795 C1807 0.950 . S
C1796 H1788 0.950 . S
C1796 C1797 1.386 . S
C1796 C1798 1.391 . S
C1797 C1796 1.386 . S
C1797 C1801 1.393 . S
C1798 H1790 0.950 . S
C1798 C1796 1.391 . S
C1798 C1799 1.400 . S
C1799 C1798 1.400 . S
C1799 C1800 1.398 . S
C1799 C1805 1.491 . S
C1800 H1791 0.950 . S
C1800 C1799 1.398 . S
C1800 C1801 1.391 . S
C1801 H1789 0.950 . S
C1801 C1797 1.393 . S
C1801 C1800 1.391 . S
C1802 H1792 0.950 . S
C1802 C1803 1.386 . S
C1802 C1804 1.391 . S
C1803 C1802 1.386 . S
C1803 C1807 1.393 . S
C1804 H1793 0.950 . S
C1804 C1802 1.391 . S
C1804 C1805 1.400 . S
C1805 C1799 1.491 . S
C1805 C1804 1.400 . S
C1805 C1806 1.398 . S
C1806 H1794 0.950 . S
C1806 C1805 1.398 . S
C1806 C1807 1.391 . S
C1807 H1795 0.950 . S
C1807 C1803 1.393 . S
C1807 C1806 1.391 . S
H1808 C1816 0.950 . S
H1809 C1821 0.950 . S
H1810 C1818 0.948 . S
H1811 C1820 0.950 . S
H1812 C1822 0.950 . S
H1813 C1824 0.948 . S
H1814 C1826 0.950 . S
H1815 C1827 0.950 . S
C1816 H1808 0.950 . S
C1816 C1817 1.386 . S
C1816 C1818 1.393 1_545 S
C1817 C1816 1.386 . S
C1817 C1821 1.393 . S
C1818 H1810 0.948 . S
C1818 C1816 1.393 1_565 S
C1818 C1819 1.401 1_565 S
C1819 C1818 1.401 1_545 S
C1819 C1820 1.398 . S
C1819 C1825 1.491 1_545 S
C1820 H1811 0.950 . S
C1820 C1819 1.398 . S
C1820 C1821 1.391 . S
C1821 H1809 0.950 . S
C1821 C1817 1.393 . S
C1821 C1820 1.391 . S
C1822 H1812 0.950 . S
C1822 C1823 1.386 . S
C1822 C1824 1.393 1_565 S
C1823 C1822 1.386 . S
C1823 C1827 1.393 . S
C1824 H1813 0.948 . S
C1824 C1822 1.393 1_545 S
C1824 C1825 1.401 1_545 S
C1825 C1819 1.491 1_565 S
C1825 C1824 1.401 1_565 S
C1825 C1826 1.398 . S
C1826 H1814 0.950 . S
C1826 C1825 1.398 . S
C1826 C1827 1.391 . S
C1827 H1815 0.950 . S
C1827 C1823 1.393 . S
C1827 C1826 1.391 . S
H1828 C1836 0.950 . S
H1829 C1841 0.950 . S
H1830 C1838 0.950 1_455 S
H1831 C1840 0.950 . S
H1832 C1842 0.950 . S
H1833 C1844 0.950 1_655 S
H1834 C1846 0.950 . S
H1835 C1847 0.950 . S
C1836 H1828 0.950 . S
C1836 C1837 1.386 . S
C1836 C1838 1.391 . S
C1837 C1836 1.386 . S
C1837 C1841 1.393 . S
C1838 H1830 0.950 1_655 S
C1838 C1836 1.391 . S
C1838 C1839 1.400 . S
C1839 C1838 1.400 . S
C1839 C1840 1.398 . S
C1839 C1845 1.491 1_655 S
C1840 H1831 0.950 . S
C1840 C1839 1.398 . S
C1840 C1841 1.391 . S
C1841 H1829 0.950 . S
C1841 C1837 1.393 . S
C1841 C1840 1.391 . S
C1842 H1832 0.950 . S
C1842 C1843 1.386 . S
C1842 C1844 1.391 . S
C1843 C1842 1.386 . S
C1843 C1847 1.393 . S
C1844 H1833 0.950 1_455 S
C1844 C1842 1.391 . S
C1844 C1845 1.400 . S
C1845 C1839 1.491 1_455 S
C1845 C1844 1.400 . S
C1845 C1846 1.398 . S
C1846 H1834 0.950 . S
C1846 C1845 1.398 . S
C1846 C1847 1.391 . S
C1847 H1835 0.950 . S
C1847 C1843 1.393 . S
C1847 C1846 1.391 . S
H1848 C1856 0.950 . S
H1849 C1861 0.950 . S
H1850 C1858 0.950 . S
H1851 C1860 0.950 . S
H1852 C1862 0.950 . S
H1853 C1864 0.950 . S
H1854 C1866 0.950 . S
H1855 C1867 0.950 . S
C1856 H1848 0.950 . S
C1856 C1857 1.386 . S
C1856 C1858 1.391 . S
C1857 C1856 1.386 . S
C1857 C1861 1.393 . S
C1858 H1850 0.950 . S
C1858 C1856 1.391 . S
C1858 C1859 1.400 . S
C1859 C1858 1.400 . S
C1859 C1860 1.398 . S
C1859 C1865 1.491 . S
C1860 H1851 0.950 . S
C1860 C1859 1.398 . S
C1860 C1861 1.391 . S
C1861 H1849 0.950 . S
C1861 C1857 1.393 . S
C1861 C1860 1.391 . S
C1862 H1852 0.950 . S
C1862 C1863 1.386 . S
C1862 C1864 1.391 . S
C1863 C1862 1.386 . S
C1863 C1867 1.393 . S
C1864 H1853 0.950 . S
C1864 C1862 1.391 . S
C1864 C1865 1.400 . S
C1865 C1859 1.491 . S
C1865 C1864 1.400 . S
C1865 C1866 1.398 . S
C1866 H1854 0.950 . S
C1866 C1865 1.398 . S
C1866 C1867 1.391 . S
C1867 H1855 0.950 . S
C1867 C1863 1.393 . S
C1867 C1866 1.391 . S
H1868 C1876 0.950 . S
H1869 C1881 0.950 . S
H1870 C1878 0.959 . S
H1871 C1880 0.950 . S
H1872 C1882 0.950 . S
H1873 C1884 0.960 . S
H1874 C1886 0.950 . S
H1875 C1887 0.950 . S
C1876 H1868 0.950 . S
C1876 C1877 1.386 . S
C1876 C1878 1.386 1_545 S
C1877 C1876 1.386 . S
C1877 C1881 1.393 . S
C1878 H1870 0.959 . S
C1878 C1876 1.386 1_565 S
C1878 C1879 1.397 1_565 S
C1879 C1878 1.397 1_545 S
C1879 C1880 1.398 . S
C1879 C1885 1.491 1_545 S
C1880 H1871 0.950 . S
C1880 C1879 1.398 . S
C1880 C1881 1.391 . S
C1881 H1869 0.950 . S
C1881 C1877 1.393 . S
C1881 C1880 1.391 . S
C1882 H1872 0.950 . S
C1882 C1883 1.386 . S
C1882 C1884 1.385 1_565 S
C1883 C1882 1.386 . S
C1883 C1887 1.393 . S
C1884 H1873 0.960 . S
C1884 C1882 1.385 1_545 S
C1884 C1885 1.397 1_545 S
C1885 C1879 1.491 1_565 S
C1885 C1884 1.397 1_565 S
C1885 C1886 1.398 . S
C1886 H1874 0.950 . S
C1886 C1885 1.398 . S
C1886 C1887 1.391 . S
C1887 H1875 0.950 . S
C1887 C1883 1.393 . S
C1887 C1886 1.391 . S
H1888 C1896 0.950 . S
H1889 C1901 0.950 . S
H1890 C1898 0.950 . S
H1891 C1900 0.950 . S
H1892 C1902 0.950 . S
H1893 C1904 0.950 . S
H1894 C1906 0.950 . S
H1895 C1907 0.950 . S
C1896 H1888 0.950 . S
C1896 C1897 1.386 . S
C1896 C1898 1.391 . S
C1897 C1896 1.386 . S
C1897 C1901 1.393 . S
C1898 H1890 0.950 . S
C1898 C1896 1.391 . S
C1898 C1899 1.400 . S
C1899 C1898 1.400 . S
C1899 C1900 1.398 . S
C1899 C1905 1.491 1_455 S
C1900 H1891 0.950 . S
C1900 C1899 1.398 . S
C1900 C1901 1.391 . S
C1901 H1889 0.950 . S
C1901 C1897 1.393 . S
C1901 C1900 1.391 . S
C1902 H1892 0.950 . S
C1902 C1903 1.386 . S
C1902 C1904 1.391 . S
C1903 C1902 1.386 . S
C1903 C1907 1.393 . S
C1904 H1893 0.950 . S
C1904 C1902 1.391 . S
C1904 C1905 1.400 . S
C1905 C1899 1.491 1_655 S
C1905 C1904 1.400 . S
C1905 C1906 1.398 . S
C1906 H1894 0.950 . S
C1906 C1905 1.398 . S
C1906 C1907 1.391 . S
C1907 H1895 0.950 . S
C1907 C1903 1.393 . S
C1907 C1906 1.391 . S
C477 C70 1.110 . S
C483 C5 1.109 . S
C497 C44 1.118 . S
C503 C18 1.116 . S
C517 C29 1.121 . S
C523 C57 1.121 . S
C537 C83 1.111 . S
C543 C146 1.110 . S
C557 C94 1.109 . S
C563 C120 1.109 . S
C577 C135 1.119 . S
C583 C109 1.121 . S
C597 C159 1.118 . S
C603 C224 1.120 . S
C617 C172 1.115 . S
C623 C200 1.113 . S
C637 C213 1.115 . S
C643 C187 1.117 . S
C657 C304 1.115 . S
C663 C237 1.113 . S
C677 C278 1.114 . S
C683 C252 1.112 . S
C697 C263 1.110 . S
C703 C289 1.112 . S
C717 C382 1.110 . S
C723 C315 1.109 . S
C737 C356 1.117 . S
C743 C328 1.114 . S
C757 C341 1.121 . S
C763 C367 1.121 . S
C777 C460 1.119 . S
C783 C393 1.121 . S
C797 C434 1.110 . S
C803 C406 1.111 . S
C817 C447 1.109 . S
C823 C419 1.110 . S
C837 C218 1.460 . S
C843 C10 1.448 . S
C857 C225 1.455 . S
C863 C23 1.445 . S
C877 C205 1.462 . S
C883 C30 1.473 . S
C897 C49 1.446 . S
C903 C342 1.456 1_554 S
C917 C62 1.449 . S
C923 C316 1.462 1_554 S
C937 C75 1.474 . S
C943 C329 1.464 1_554 S
C957 C88 1.445 . S
C963 C452 1.454 . S
C977 C465 1.476 . S
C983 C95 1.471 . S
C997 C439 1.444 . S
C1003 C114 1.445 . S
C1017 C264 1.471 1_556 S
C1023 C121 1.459 . S
C1037 C238 1.447 1_556 S
C1043 C140 1.458 . S
C1057 C147 1.475 . S
C1063 C257 1.473 1_556 S
C1077 C160 1.474 . S
C1083 C368 1.475 . S
C1097 C387 1.475 . S
C1103 C173 1.474 . S
C1117 C361 1.475 . S
C1123 C192 1.474 . S
C1137 C283 1.443 . S
C1143 C420 1.447 . S
C1157 C394 1.474 . S
C1163 C290 1.475 . S
C1177 C309 1.454 . S
C1183 C407 1.445 . S
C1197 C244 1.666 . S
C1203 C4 1.666 . S
C1217 C251 1.664 . S
C1223 C17 1.664 . S
C1237 C36 1.661 . S
C1243 C270 1.661 . S
C1257 C43 1.662 . S
C1263 C433 1.662 . S
C1277 C446 1.666 . S
C1283 C56 1.666 . S
C1297 C459 1.667 . S
C1303 C69 1.667 . S
C1317 C82 1.660 . S
C1323 C322 1.660 . S
C1337 C101 1.667 . S
C1343 C335 1.667 . S
C1357 C348 1.666 . S
C1363 C108 1.666 . S
C1377 C127 1.659 . S
C1383 C199 1.659 . S
C1397 C134 1.663 . S
C1403 C212 1.663 . S
C1417 C231 1.659 . S
C1423 C153 1.659 . S
C1437 C166 1.663 . S
C1443 C400 1.663 . S
C1457 C179 1.659 . S
C1463 C413 1.659 . S
C1477 C426 1.659 . S
C1483 C186 1.659 . S
C1497 C355 1.665 . S
C1503 C277 1.665 . S
C1517 C296 1.664 . S
C1523 C374 1.664 . S
C1537 C303 1.666 . S
C1543 C381 1.666 . S
C1557 C354 1.603 1_554 S
C1563 C3 1.621 . S
C1577 C16 1.605 . S
C1583 C369 1.622 1_554 S
C1597 C380 1.603 1_554 S
C1603 C31 1.621 . S
C1617 C42 1.615 . S
C1623 C161 1.606 . S
C1637 C174 1.604 . S
C1643 C55 1.622 . S
C1657 C185 1.605 . S
C1663 C68 1.622 . S
C1677 C81 1.611 . S
C1683 C276 1.618 1_556 S
C1697 C291 1.622 1_556 S
C1703 C96 1.605 . S
C1717 C107 1.620 . S
C1723 C302 1.611 1_556 S
C1737 C122 1.607 . S
C1743 C395 1.621 . S
C1757 C133 1.605 . S
C1763 C408 1.622 . S
C1777 C421 1.604 . S
C1783 C148 1.618 . S
C1797 C198 1.622 . S
C1803 C317 1.604 . S
C1817 C211 1.604 . S
C1823 C330 1.622 . S
C1837 C226 1.605 . S
C1843 C343 1.617 . S
C1857 C239 1.612 . S
C1863 C432 1.618 . S
C1877 C250 1.621 . S
C1883 C445 1.603 . S
C1897 C458 1.610 . S
C1903 C265 1.610 . S
