# Generated by pormake.
# Topology umf, (4)-cn, num edge types: 1
# Building blocks:
#     Node 0, Type 0, BuildingBlock: NAWXER_clean_sbu_0, # of connection points: 4
#     Node 1, Type 0, BuildingBlock: NAWXER_clean_sbu_0, # of connection points: 4
#     Node 2, Type 0, BuildingBlock: NAWXER_clean_sbu_0, # of connection points: 4
#     Node 3, Type 0, BuildingBlock: NAWXER_clean_sbu_0, # of connection points: 4
#     Node 4, Type 0, BuildingBlock: NAWXER_clean_sbu_0, # of connection points: 4
#     Node 5, Type 0, BuildingBlock: NAWXER_clean_sbu_0, # of connection points: 4
#     Node 6, Type 0, BuildingBlock: NAWXER_clean_sbu_0, # of connection points: 4
#     Node 7, Type 0, BuildingBlock: NAWXER_clean_sbu_0, # of connection points: 4
#     Edge 8, Type (0, 0), BuildingBlock: ZUJKAS_clean_linker_0, # of connection points: 2
#     Edge 9, Type (0, 0), BuildingBlock: ZUJKAS_clean_linker_0, # of connection points: 2
#     Edge 10, Type (0, 0), BuildingBlock: ZUJKAS_clean_linker_0, # of connection points: 2
#     Edge 11, Type (0, 0), BuildingBlock: ZUJKAS_clean_linker_0, # of connection points: 2
#     Edge 12, Type (0, 0), BuildingBlock: ZUJKAS_clean_linker_0, # of connection points: 2
#     Edge 13, Type (0, 0), BuildingBlock: ZUJKAS_clean_linker_0, # of connection points: 2
#     Edge 14, Type (0, 0), BuildingBlock: ZUJKAS_clean_linker_0, # of connection points: 2
#     Edge 15, Type (0, 0), BuildingBlock: ZUJKAS_clean_linker_0, # of connection points: 2
#     Edge 16, Type (0, 0), BuildingBlock: ZUJKAS_clean_linker_0, # of connection points: 2
#     Edge 17, Type (0, 0), BuildingBlock: ZUJKAS_clean_linker_0, # of connection points: 2
#     Edge 18, Type (0, 0), BuildingBlock: ZUJKAS_clean_linker_0, # of connection points: 2
#     Edge 19, Type (0, 0), BuildingBlock: ZUJKAS_clean_linker_0, # of connection points: 2
#     Edge 20, Type (0, 0), BuildingBlock: ZUJKAS_clean_linker_0, # of connection points: 2
#     Edge 21, Type (0, 0), BuildingBlock: ZUJKAS_clean_linker_0, # of connection points: 2
#     Edge 22, Type (0, 0), BuildingBlock: ZUJKAS_clean_linker_0, # of connection points: 2
#     Edge 23, Type (0, 0), BuildingBlock: ZUJKAS_clean_linker_0, # of connection points: 2
# Relax obj value: 0.064
# Max RMSD: 0.166
# Mean RMSD: 0.166
data_MOF--net-umf--node1-NAWXER_clean_sbu_0--edge1-ZUJKAS_clean_linker_0
_symmetry_space_group_name_H-M    P1
_symmetry_Int_Tables_number       1
_symmetry_cell_setting            triclinic
loop_
_symmetry_equiv_pos_as_xyz
'x, y, z'
_cell_length_a     37.803775
_cell_length_b     37.851967
_cell_length_c     69.995022
_cell_angle_alpha  89.981134
_cell_angle_beta   90.106801
_cell_angle_gamma 89.824
loop_
_atom_site_label
_atom_site_type_symbol
_atom_site_fract_x
_atom_site_fract_y
_atom_site_fract_z
_atom_type_partial_charge
C0 C 0.10051 0.23235 0.18081 0.0
C1 C 0.04742 0.24836 0.1175 0.0
O2 O 0.06662 0.2322 0.18112 0.0
Zn3 Zn 0.02367 0.23859 0.16149 0.0
O4 O 0.11635 0.23776 0.16509 0.0
Zn5 Zn 0.07439 0.2418 0.14902 0.0
O6 O 0.05143 0.29162 0.15729 0.0
O7 O -6e-05 0.27997 0.17068 0.0
O8 O 0.08012 0.24783 0.1218 0.0
O9 O 0.02425 0.24535 0.1308 0.0
O10 O -0.00043 0.19468 0.16444 0.0
O11 O 0.05167 0.18948 0.15041 0.0
C12 C 0.02298 0.30226 0.16548 0.0
C13 C 0.0231 0.17543 0.1567 0.0
C14 C 0.75044 0.09681 0.68148 0.0
C15 C 0.73859 0.04687 0.61721 0.0
O16 O 0.7509 0.06295 0.68135 0.0
Zn17 Zn 0.74769 0.02107 0.66086 0.0
O18 O 0.74675 0.11343 0.66582 0.0
Zn19 Zn 0.74382 0.07232 0.64922 0.0
O20 O 0.69423 0.04806 0.65703 0.0
O21 O 0.70711 -0.00451 0.66885 0.0
O22 O 0.73821 0.07928 0.62199 0.0
O23 O 0.74192 0.02312 0.63019 0.0
O24 O 0.79202 -0.00205 0.66427 0.0
O25 O 0.79666 0.05071 0.65099 0.0
C26 C 0.68423 0.01863 0.66436 0.0
C27 C 0.81106 0.02217 0.65719 0.0
C28 C 0.96154 0.67456 0.16563 0.0
C29 C 0.97139 0.80083 0.15636 0.0
O30 O 0.93378 0.68724 0.15753 0.0
Zn31 Zn 0.91476 0.7388 0.14919 0.0
O32 O 0.98648 0.69502 0.17051 0.0
Zn33 Zn 0.96585 0.73797 0.16139 0.0
O34 O 0.92401 0.74712 0.18131 0.0
O35 O 0.87371 0.74685 0.16542 0.0
O36 O -0.00662 0.78001 0.16426 0.0
O37 O 0.94173 0.78896 0.15019 0.0
O38 O 0.90781 0.73317 0.12204 0.0
O39 O 0.96398 0.73132 0.13066 0.0
C40 C 0.89024 0.75006 0.18114 0.0
C41 C 0.94025 0.73021 0.11751 0.0
C42 C 0.31247 0.95592 0.66523 0.0
C43 C 0.18618 0.96791 0.65694 0.0
O44 O 0.29918 0.92821 0.6575 0.0
Zn45 Zn 0.24732 0.91039 0.6491 0.0
O46 O 0.29243 0.98149 0.66977 0.0
Zn47 Zn 0.24908 0.96136 0.6613 0.0
O48 O 0.24027 0.91943 0.68129 0.0
O49 O 0.23921 0.86939 0.66525 0.0
O50 O 0.20754 0.98951 0.66461 0.0
O51 O 0.19747 0.93811 0.65065 0.0
O52 O 0.25229 0.90383 0.62183 0.0
O53 O 0.2547 0.95973 0.63062 0.0
C54 C 0.23688 0.88575 0.68105 0.0
C55 C 0.25532 0.93626 0.61739 0.0
C56 C 0.02055 0.80715 0.88062 0.0
C57 C 0.02159 0.68037 0.87304 0.0
O58 O 0.04963 0.79368 0.88674 0.0
Zn59 Zn 0.07322 0.74171 0.88829 0.0
O60 O -0.003 0.78741 0.87338 0.0
Zn61 Zn 0.02176 0.74388 0.87663 0.0
O62 O 0.02417 0.7381 0.90729 0.0
O63 O 0.0805 0.73626 0.91551 0.0
O64 O -0.00236 0.70242 0.86855 0.0
O65 O 0.05068 0.69137 0.88041 0.0
O66 O 0.11416 0.74621 0.87165 0.0
O67 O 0.06346 0.74879 0.85615 0.0
C68 C 0.04807 0.73557 0.92028 0.0
C69 C 0.09735 0.74949 0.85601 0.0
C70 C 0.17181 0.02601 0.38087 0.0
C71 C 0.29889 0.01492 0.374 0.0
O72 O 0.18788 0.05408 0.38636 0.0
Zn73 Zn 0.24193 0.07228 0.38835 0.0
O74 O 0.1896 -0.00011 0.37472 0.0
Zn75 Zn 0.23526 0.02074 0.37738 0.0
O76 O 0.24136 0.02372 0.40793 0.0
O77 O 0.24763 0.07986 0.41556 0.0
O78 O 0.27504 -0.00714 0.36957 0.0
O79 O 0.29006 0.04501 0.381 0.0
O80 O 0.24191 0.11276 0.37128 0.0
O81 O 0.23297 0.06221 0.35645 0.0
C82 C 0.24584 0.04767 0.42066 0.0
C83 C 0.23578 0.09595 0.35592 0.0
C84 C 0.96518 0.18203 0.88133 0.0
C85 C 0.95804 0.30858 0.87322 0.0
O86 O 0.93562 0.19429 0.88746 0.0
Zn87 Zn 0.90973 0.24514 0.88892 0.0
O88 O 0.98773 0.20269 0.87394 0.0
Zn89 Zn 0.96101 0.24512 0.87712 0.0
O90 O 0.95889 0.25093 0.9078 0.0
O91 O 0.90265 0.25043 0.91611 0.0
O92 O 0.983 0.28764 0.86884 0.0
O93 O 0.92964 0.29631 0.88071 0.0
O94 O 0.86872 0.23861 0.87253 0.0
O95 O 0.91914 0.23791 0.8568 0.0
C96 C 0.93508 0.25245 0.92082 0.0
C97 C 0.88531 0.23573 0.85683 0.0
C98 C 0.79795 0.97513 0.37944 0.0
C99 C 0.67162 0.95722 0.37296 0.0
O100 O 0.78844 0.94452 0.38539 0.0
Zn101 Zn 0.74008 0.91465 0.38772 0.0
O102 O 0.77494 -0.00378 0.37265 0.0
Zn103 Zn 0.73501 0.96582 0.37602 0.0
O104 O 0.73111 0.96308 0.40673 0.0
O105 O 0.73707 0.90719 0.41504 0.0
O106 O 0.68997 0.98388 0.36832 0.0
O107 O 0.68689 0.93005 0.38027 0.0
O108 O 0.74933 0.87448 0.37124 0.0
O109 O 0.74529 0.92479 0.35553 0.0
C110 C 0.73252 0.9393 0.41978 0.0
C111 C 0.75032 0.89127 0.35552 0.0
H112 H 0.05156 0.35654 0.14538 0.0
H113 H 0.03964 0.41953 0.14911 0.0
H114 H 0.9694 0.39715 0.19611 0.0
H115 H 0.97985 0.33378 0.19173 0.0
H116 H 0.9405 0.44374 0.17422 0.0
H117 H 0.07771 0.48674 0.18715 0.0
H118 H 0.07495 0.46366 0.16488 0.0
H119 H 0.06551 0.44073 0.18688 0.0
C120 C 0.0338 0.36508 0.15661 0.0
C121 C 0.01678 0.34035 0.16835 0.0
C122 C 0.02722 0.40112 0.15884 0.0
C123 C 0.00436 0.41321 0.17323 0.0
C124 C 0.98734 0.38848 0.18499 0.0
H125 H -0.00057 0.64099 0.19338 0.0
H126 H 0.00659 0.57727 0.19789 0.0
C127 C -0.00667 0.35232 0.1825 0.0
C128 C -0.00305 0.45152 0.17531 0.0
H129 H 0.03698 0.53204 0.17682 0.0
C130 C 0.9616 0.46304 0.17509 0.0
C131 C 0.02435 0.47674 0.17692 0.0
C132 C 0.06269 0.46626 0.1792 0.0
C133 C 0.95297 0.49909 0.17561 0.0
C134 C 0.98051 0.52437 0.17552 0.0
C135 C 0.0158 0.51278 0.17656 0.0
C136 C 0.97361 0.56287 0.17378 0.0
C137 C 0.91444 0.50951 0.17643 0.0
C138 C 0.95262 0.57607 0.15879 0.0
C139 C 0.9478 0.61241 0.15651 0.0
C140 C 0.96487 0.63624 0.16878 0.0
C141 C 0.98606 0.62313 0.18369 0.0
C142 C 0.99015 0.58676 0.18627 0.0
H143 H 0.89844 0.48873 0.18353 0.0
H144 H 0.91056 0.53474 0.18424 0.0
H145 H 0.9041 0.51262 0.16168 0.0
H146 H 0.94063 0.55835 0.14853 0.0
H147 H 0.93172 0.62189 0.14474 0.0
H148 H 0.36319 0.90767 0.65542 0.0
H149 H 0.42732 0.91408 0.65832 0.0
H150 H 0.41309 0.01655 0.68416 0.0
H151 H 0.349 0.01034 0.6815 0.0
H152 H 0.46583 0.96828 0.64096 0.0
H153 H 0.48535 0.96778 0.71957 0.0
H154 H 0.44556 0.95148 0.70832 0.0
H155 H 0.45197 -0.00184 0.71143 0.0
C156 C 0.37367 0.93138 0.66195 0.0
C157 C 0.35103 0.95855 0.66818 0.0
C158 C 0.41027 0.93495 0.6636 0.0
C159 C 0.42479 0.96558 0.67165 0.0
C160 C 0.40231 -0.00758 0.67824 0.0
H161 H 0.62825 0.05979 0.65349 0.0
H162 H 0.56537 0.04563 0.65596 0.0
C163 C 0.36571 0.98892 0.67658 0.0
C164 C 0.46343 0.97083 0.67168 0.0
H165 H 0.53402 0.98764 0.70069 0.0
C166 C 0.48082 0.9722 0.65402 0.0
C167 C 0.48281 0.97566 0.68876 0.0
C168 C 0.46558 0.97289 0.70812 0.0
C169 C 0.51708 0.97933 0.65294 0.0
C170 C 0.53616 0.98563 0.66997 0.0
C171 C 0.51905 0.98319 0.68768 0.0
C172 C 0.57394 -0.00502 0.66955 0.0
C173 C 0.53472 0.98007 0.63362 0.0
C174 C 0.59928 0.97152 0.67687 0.0
C175 C 0.63521 0.97948 0.67549 0.0
C176 C 0.64624 0.01117 0.66689 0.0
C177 C 0.62062 0.03511 0.66012 0.0
C178 C 0.58473 0.02704 0.66145 0.0
H179 H 0.51838 0.96692 0.62251 0.0
H180 H 0.53878 0.00793 0.62922 0.0
H181 H 0.56101 0.96694 0.6342 0.0
H182 H 0.59128 0.94671 0.68324 0.0
H183 H 0.6543 0.96058 0.68093 0.0
H184 H 0.91127 0.36092 0.88258 0.0
H185 H 0.9199 0.42468 0.87963 0.0
H186 H 0.02277 0.40688 0.85485 0.0
H187 H 0.01436 0.34312 0.85756 0.0
H188 H 0.97521 0.46199 0.89728 0.0
H189 H 0.97648 0.47939 0.81849 0.0
H190 H 0.95875 0.44049 0.82992 0.0
H191 H 0.00573 0.44553 0.82724 0.0
C192 C 0.93557 0.37053 0.87629 0.0
C193 C 0.96217 0.34698 0.87033 0.0
C194 C 0.94042 0.40693 0.87462 0.0
C195 C 0.97177 0.42034 0.86684 0.0
C196 C -0.00188 0.39696 0.86057 0.0
H197 H 0.06453 0.62585 0.88408 0.0
H198 H 0.05226 0.5626 0.88178 0.0
C199 C -0.00667 0.36055 0.86225 0.0
C200 C 0.97805 0.45879 0.8666 0.0
H201 H -0.00465 0.5285 0.83718 0.0
C202 C 0.97942 0.4766 0.88415 0.0
C203 C 0.98329 0.47765 0.84941 0.0
C204 C 0.9807 0.45992 0.83017 0.0
C205 C 0.98659 0.51283 0.885 0.0
C206 C -0.00706 0.53147 0.86786 0.0
C207 C 0.99083 0.51388 0.85027 0.0
C208 C 0.00141 0.56945 0.86803 0.0
C209 C 0.98709 0.53098 0.9042 0.0
C210 C 0.97724 0.59396 0.86056 0.0
C211 C 0.98411 0.63008 0.86184 0.0
C212 C 0.01541 0.64218 0.87051 0.0
C213 C 0.04012 0.6174 0.8774 0.0
C214 C 0.03314 0.58129 0.87616 0.0
H215 H 0.97434 0.51471 0.91545 0.0
H216 H 0.01492 0.53576 0.90853 0.0
H217 H 0.97339 0.55693 0.90343 0.0
H218 H 0.95267 0.58515 0.85417 0.0
H219 H 0.96464 0.64849 0.85631 0.0
H220 H 0.32736 0.95457 0.35871 0.0
H221 H 0.39011 0.93846 0.35684 0.0
H222 H 0.41834 0.03799 0.38252 0.0
H223 H 0.35596 0.05435 0.38451 0.0
H224 H 0.44806 0.97703 0.33862 0.0
H225 H 0.46498 0.9604 0.41694 0.0
H226 H 0.42213 0.96047 0.40546 0.0
H227 H 0.44464 0.00139 0.40993 0.0
C228 C 0.34693 0.97308 0.3639 0.0
C229 C 0.33667 0.00566 0.37187 0.0
C230 C 0.3827 0.96383 0.36281 0.0
C231 C 0.40863 0.98686 0.3698 0.0
C232 C 0.39857 0.01968 0.37733 0.0
H233 H 0.63136 0.00891 0.35636 0.0
H234 H 0.56692 0.01156 0.35414 0.0
C235 C 0.36292 0.02901 0.37837 0.0
C236 C 0.44635 0.97679 0.36937 0.0
H237 H 0.51763 0.96295 0.39836 0.0
C238 C 0.46328 0.97356 0.35165 0.0
C239 C 0.46585 0.97179 0.3864 0.0
C240 C 0.44848 0.97334 0.40578 0.0
C241 C 0.49977 0.96698 0.35054 0.0
C242 C 0.51961 0.96391 0.36761 0.0
C243 C 0.50234 0.96559 0.3853 0.0
C244 C 0.55856 0.96075 0.36754 0.0
C245 C 0.51684 0.96361 0.33117 0.0
C246 C 0.57511 0.93144 0.37599 0.0
C247 C 0.61194 0.92989 0.37737 0.0
C248 C 0.63279 0.95784 0.37048 0.0
C249 C 0.61608 0.98694 0.36178 0.0
C250 C 0.57927 0.98839 0.36036 0.0
H251 H 0.49717 0.95677 0.31996 0.0
H252 H 0.52902 0.98924 0.32724 0.0
H253 H 0.53797 0.94316 0.33131 0.0
H254 H 0.55948 0.91 0.38174 0.0
H255 H 0.62399 0.90713 0.38417 0.0
H256 H 0.89244 0.25321 0.95255 0.0
H257 H 0.91089 0.25597 0.98611 0.0
H258 H 0.02012 0.2604 0.96868 0.0
H259 H 0.00204 0.25807 0.93523 0.0
H260 H 0.95468 0.20806 1.00538 0.0
H261 H 0.01285 0.34241 1.00645 0.0
H262 H 0.98417 0.32741 0.98748 0.0
H263 H 0.02998 0.3145 0.98789 0.0
C264 C 0.92037 0.25512 0.95585 0.0
C265 C 0.94574 0.25552 0.94117 0.0
C266 C 0.93086 0.25665 0.97503 0.0
C267 C 0.96685 0.25891 0.97989 0.0
C268 C 0.99218 0.25944 0.96528 0.0
H269 H 0.08861 0.25319 0.08532 0.0
H270 H 0.06865 0.25596 0.05201 0.0
C271 C 0.98176 0.25787 0.94613 0.0
C272 C 0.9781 0.25892 1.00022 0.0
H273 H 0.02433 0.30605 0.03354 0.0
C274 C 0.96966 0.2296 1.01159 0.0
C275 C -0.00216 0.28697 1.00826 0.0
C276 C 0.00651 0.31977 0.99696 0.0
C277 C 0.98103 0.22721 0.03067 0.0
C278 C 0.00085 0.25521 0.03869 0.0
C279 C 0.00921 0.28459 0.02734 0.0
C280 C 0.0129 0.25452 0.05888 0.0
C281 C 0.97248 0.19432 0.04192 0.0
C282 C 0.98818 0.25348 0.07378 0.0
C283 C -0.00054 0.25187 0.09279 0.0
C284 C 0.03575 0.25147 0.09731 0.0
C285 C 0.06049 0.25334 0.08235 0.0
C286 C 0.04913 0.25495 0.06331 0.0
H287 H 0.96531 0.17191 0.03244 0.0
H288 H -0.00479 0.18623 0.05101 0.0
H289 H 0.9496 0.19976 0.0514 0.0
H290 H 0.96009 0.25386 0.07071 0.0
H291 H 0.97964 0.25071 0.10392 0.0
H292 H 0.73102 0.08946 0.58566 0.0
H293 H 0.727 0.07112 0.55214 0.0
H294 H 0.73637 0.96202 0.5692 0.0
H295 H 0.73989 0.97994 0.60263 0.0
H296 H 0.77637 0.03343 0.53089 0.0
H297 H 0.64974 0.96013 0.53451 0.0
H298 H 0.66398 0.98989 0.55313 0.0
H299 H 0.68187 0.94588 0.5518 0.0
C300 C 0.73197 0.06155 0.58229 0.0
C301 C 0.73562 0.03619 0.59687 0.0
C302 C 0.72969 0.05112 0.56313 0.0
C303 C 0.73079 0.01517 0.55819 0.0
C304 C 0.73462 0.98985 0.57269 0.0
H305 H 0.73704 0.89693 0.45161 0.0
H306 H 0.73632 0.91552 0.48517 0.0
C307 C 0.73687 0.00021 0.59182 0.0
C308 C 0.72941 0.00412 0.53784 0.0
H309 H 0.6835 0.95314 0.50607 0.0
C310 C 0.75592 0.01609 0.52543 0.0
C311 C 0.7028 0.98134 0.53075 0.0
C312 C 0.67278 0.96879 0.54318 0.0
C313 C 0.75695 0.00538 0.50622 0.0
C314 C 0.73042 0.98252 0.49916 0.0
C315 C 0.70386 0.97057 0.51154 0.0
C316 C 0.72962 0.97111 0.47887 0.0
C317 C 0.78691 0.01799 0.49377 0.0
C318 C 0.72531 -0.00391 0.46425 0.0
C319 C 0.7257 0.9856 0.44511 0.0
C320 C 0.73022 0.94982 0.44017 0.0
C321 C 0.73361 0.92469 0.45489 0.0
C322 C 0.73319 0.93526 0.47407 0.0
H323 H 0.80958 0.02772 0.50239 0.0
H324 H 0.7964 -0.00348 0.48424 0.0
H325 H 0.77742 0.0401 0.48467 0.0
H326 H 0.72179 0.02379 0.46764 0.0
H327 H 0.72278 0.00567 0.43419 0.0
H328 H 0.89778 0.73019 0.08566 0.0
H329 H 0.91631 0.72772 0.05217 0.0
H330 H 0.02543 0.72133 0.06988 0.0
H331 H 0.00725 0.72335 0.10331 0.0
H332 H 0.96018 0.77555 0.03345 0.0
H333 H 0.01801 0.6407 0.03132 0.0
H334 H 0.98947 0.65542 0.0504 0.0
H335 H 0.03527 0.66804 0.05008 0.0
C336 C 0.9257 0.72787 0.08244 0.0
C337 C 0.951 0.72688 0.0972 0.0
C338 C 0.93624 0.72651 0.06329 0.0
C339 C 0.97222 0.72386 0.05852 0.0
C340 C -0.00251 0.72261 0.07321 0.0
H341 H 0.09094 0.73067 0.95195 0.0
H342 H 0.07262 0.72777 0.98552 0.0
C343 C 0.98701 0.72399 0.09234 0.0
C344 C 0.98348 0.72432 0.0382 0.0
H345 H 0.02884 0.67747 1.00439 0.0
C346 C 0.97498 0.754 0.02705 0.0
C347 C 0.003 0.69628 0.02992 0.0
C348 C 0.01174 0.66315 0.04097 0.0
C349 C 0.98594 0.75667 1.00795 0.0
C350 C 0.00542 0.72863 0.99966 0.0
C351 C 0.01398 0.69896 1.0108 0.0
C352 C 0.01655 0.72944 0.97934 0.0
C353 C 0.97721 0.78984 0.99692 0.0
C354 C 0.9911 0.73066 0.96475 0.0
C355 C 0.00143 0.73232 0.94561 0.0
C356 C 0.03749 0.73262 0.94063 0.0
C357 C 0.06297 0.73062 0.95528 0.0
C358 C 0.05256 0.72893 0.97446 0.0
H359 H 0.97049 0.81218 1.00656 0.0
H360 H -0.00031 0.79782 0.9877 0.0
H361 H 0.95399 0.78483 0.98759 0.0
H362 H 0.96317 0.73036 0.96816 0.0
H363 H 0.98106 0.73358 0.93473 0.0
H364 H 0.24257 0.98122 0.43572 0.0
H365 H 0.24643 0.96387 0.46924 0.0
H366 H 0.26016 0.07285 0.48546 0.0
H367 H 0.25586 0.09064 0.45186 0.0
H368 H 0.3013 0.97396 0.49541 0.0
H369 H 0.17791 0.04064 0.51925 0.0
H370 H 0.18809 0.0336 0.49435 0.0
H371 H 0.20897 0.06883 0.50731 0.0
C372 C 0.24633 0.00161 0.44638 0.0
C373 C 0.24869 0.0374 0.44108 0.0
C374 C 0.2486 0.99158 0.46556 0.0
C375 C 0.25312 0.01707 0.47988 0.0
C376 C 0.256 0.05279 0.47467 0.0
H377 H 0.26395 0.0032 0.60362 0.0
H378 H 0.26565 0.02231 0.57032 0.0
C379 C 0.2537 0.0629 0.45544 0.0
C380 C 0.255 0.00599 0.50021 0.0
H381 H 0.21318 0.01402 0.54321 0.0
C382 C 0.28204 0.98268 0.50588 0.0
C383 C 0.22981 0.01738 0.51382 0.0
C384 C 0.19935 0.04125 0.50842 0.0
C385 C 0.28481 0.97077 0.52484 0.0
C386 C 0.25949 0.98199 0.53842 0.0
C387 C 0.23258 0.00546 0.53278 0.0
C388 C 0.26027 0.96975 0.55859 0.0
C389 C 0.31517 0.94678 0.53024 0.0
C390 C 0.25667 0.93376 0.56309 0.0
C391 C 0.25577 0.92267 0.58218 0.0
C392 C 0.25818 0.94741 0.59712 0.0
C393 C 0.26205 0.98339 0.59251 0.0
C394 C 0.26299 -0.00559 0.57346 0.0
H395 H 0.3371 0.94831 0.51972 0.0
H396 H 0.32569 0.95352 0.5446 0.0
H397 H 0.30572 0.91907 0.53062 0.0
H398 H 0.2538 0.91432 0.55186 0.0
H399 H 0.25255 0.8948 0.58521 0.0
H400 H 0.17207 0.23857 0.18765 0.0
H401 H 0.2039 0.22371 0.2172 0.0
H402 H 0.10558 0.1927 0.24342 0.0
H403 H 0.07372 0.20851 0.21444 0.0
H404 H 0.14462 0.23013 0.2677 0.0
H405 H 0.22784 0.12527 0.23479 0.0
H406 H 0.23277 0.16845 0.22455 0.0
H407 H 0.19135 0.1456 0.22229 0.0
C408 C 0.15729 0.2287 0.19976 0.0
C409 C 0.12036 0.2246 0.19864 0.0
C410 C 0.17554 0.22001 0.2166 0.0
C411 C 0.15723 0.20652 0.23247 0.0
C412 C 0.12034 0.20305 0.23141 0.0
H413 H 0.21045 0.06829 0.32274 0.0
H414 H 0.19623 0.09912 0.2932 0.0
C415 C 0.10213 0.21206 0.21476 0.0
C416 C 0.17588 0.19529 0.25021 0.0
H417 H 0.23451 0.13451 0.26777 0.0
C418 C 0.16454 0.20945 0.26772 0.0
C419 C 0.20175 0.16816 0.25023 0.0
C420 C 0.21402 0.15071 0.232 0.0
C421 C 0.17705 0.1962 0.28524 0.0
C422 C 0.20255 0.16872 0.28527 0.0
C423 C 0.21509 0.15567 0.26774 0.0
C424 C 0.21353 0.1504 0.30314 0.0
C425 C 0.16121 0.21037 0.30349 0.0
C426 C 0.22863 0.16876 0.31858 0.0
C427 C 0.23639 0.15117 0.33573 0.0
C428 C 0.22976 0.11477 0.3376 0.0
C429 C 0.21592 0.09631 0.32185 0.0
C430 C 0.20781 0.11393 0.30488 0.0
H431 H 0.13643 0.22547 0.30082 0.0
H432 H 0.15528 0.1886 0.31361 0.0
H433 H 0.18037 0.22845 0.31043 0.0
H434 H 0.23412 0.19674 0.31745 0.0
H435 H 0.24733 0.16608 0.34754 0.0
H436 H 0.81543 0.21787 0.85169 0.0
H437 H 0.78696 0.19876 0.82188 0.0
H438 H 0.88403 0.21721 0.7913 0.0
H439 H 0.91271 0.23584 0.82084 0.0
H440 H 0.77821 0.23151 0.78465 0.0
H441 H 0.86283 0.11145 0.78257 0.0
H442 H 0.85863 0.13856 0.80365 0.0
H443 H 0.88701 0.15207 0.78442 0.0
C444 C 0.83058 0.21822 0.83857 0.0
C445 C 0.86648 0.22794 0.8387 0.0
C446 C 0.81427 0.20735 0.82157 0.0
C447 C 0.8336 0.20602 0.80447 0.0
C448 C 0.86884 0.21744 0.8044 0.0
H449 H 0.76743 0.16667 0.68704 0.0
H450 H 0.78407 0.195 0.71725 0.0
C451 C 0.88516 0.22814 0.82133 0.0
C452 C 0.81786 0.19077 0.78689 0.0
H453 H 0.82812 0.12322 0.7551 0.0
C454 C 0.78894 0.20775 0.77819 0.0
C455 C 0.83166 0.15952 0.77866 0.0
C456 C 0.86152 0.13909 0.78787 0.0
C457 C 0.77392 0.19463 0.7612 0.0
C458 C 0.78852 0.16402 0.75265 0.0
C459 C 0.81706 0.14682 0.76158 0.0
C460 C 0.77458 0.14866 0.73462 0.0
C461 C 0.74227 0.2133 0.75273 0.0
C462 C 0.76372 0.11326 0.73431 0.0
C463 C 0.75467 0.09696 0.71711 0.0
C464 C 0.75622 0.1157 0.69977 0.0
C465 C 0.76577 0.15158 0.70015 0.0
C466 C 0.77511 0.16786 0.71743 0.0
H467 H 0.72872 0.23022 0.76345 0.0
H468 H 0.75115 0.23051 0.74085 0.0
H469 H 0.72294 0.19406 0.74691 0.0
H470 H 0.76312 0.0979 0.74737 0.0
H471 H 0.74723 0.06935 0.71737 0.0
H472 H 0.7712 0.82231 0.35019 0.0
H473 H 0.79059 0.79467 0.32027 0.0
H474 H 0.76792 0.8912 0.28986 0.0
H475 H 0.74897 0.9191 0.31956 0.0
H476 H 0.75664 0.7848 0.28381 0.0
H477 H 0.87358 0.87283 0.27936 0.0
H478 H 0.84768 0.86835 0.30085 0.0
H479 H 0.83208 0.89566 0.28156 0.0
C480 C 0.77005 0.83755 0.33711 0.0
C481 C 0.75892 0.87306 0.33733 0.0
C482 C 0.78109 0.8217 0.32002 0.0
C483 C 0.78123 0.84109 0.30292 0.0
C484 C 0.76863 0.87597 0.30296 0.0
H485 H 0.82052 0.76928 0.18601 0.0
H486 H 0.79209 0.78898 0.21566 0.0
C487 C 0.75773 0.89184 0.31998 0.0
C488 C 0.79611 0.8256 0.28518 0.0
H489 H 0.86229 0.83639 0.2526 0.0
C490 C 0.77978 0.79597 0.27697 0.0
C491 C 0.82653 0.84001 0.27642 0.0
C492 C 0.84625 0.87077 0.28505 0.0
C493 C 0.79284 0.78065 0.26006 0.0
C494 C 0.82275 0.79565 0.25107 0.0
C495 C 0.8392 0.82506 0.25942 0.0
C496 C 0.83844 0.78082 0.23335 0.0
C497 C 0.77499 0.7482 0.25216 0.0
C498 C 0.87389 0.7698 0.23341 0.0
C499 C 0.89021 0.75888 0.21654 0.0
C500 C 0.87148 0.75876 0.19915 0.0
C501 C 0.83563 0.76888 0.19917 0.0
C502 C 0.8193 0.77999 0.21612 0.0
H503 H 0.75806 0.73515 0.26302 0.0
H504 H 0.75793 0.75594 0.23993 0.0
H505 H 0.79483 0.72882 0.24692 0.0
H506 H 0.88919 0.77026 0.24652 0.0
H507 H 0.9178 0.75114 0.21711 0.0
H508 H 0.21753 0.81626 0.68586 0.0
H509 H 0.19791 0.7878 0.71553 0.0
H510 H 0.21796 0.88407 0.74654 0.0
H511 H 0.23714 0.91273 0.71714 0.0
H512 H 0.2311 0.77829 0.75271 0.0
H513 H 0.11181 0.86405 0.75539 0.0
H514 H 0.13865 0.85971 0.73422 0.0
H515 H 0.15275 0.88774 0.75349 0.0
C516 C 0.21809 0.83124 0.69903 0.0
C517 C 0.22848 0.86691 0.69907 0.0
C518 C 0.20693 0.81493 0.71596 0.0
C519 C 0.20595 0.83404 0.73315 0.0
C520 C 0.21793 0.86905 0.73337 0.0
H521 H 0.16717 0.76699 0.85043 0.0
H522 H 0.19525 0.78417 0.82027 0.0
C523 C 0.22894 0.88536 0.71652 0.0
C524 C 0.19067 0.8183 0.75069 0.0
H525 H 0.1235 0.82894 0.7827 0.0
C526 C 0.20749 0.78918 0.75926 0.0
C527 C 0.15963 0.83233 0.75906 0.0
C528 C 0.1394 0.86247 0.75001 0.0
C529 C 0.19441 0.77418 0.77624 0.0
C530 C 0.164 0.789 0.78492 0.0
C531 C 0.14695 0.81773 0.77612 0.0
C532 C 0.14868 0.77502 0.80293 0.0
C533 C 0.2129 0.74234 0.78457 0.0
C534 C 0.11322 0.76422 0.80324 0.0
C535 C 0.09708 0.75482 0.82041 0.0
C536 C 0.11601 0.75598 0.83772 0.0
C537 C 0.15192 0.76562 0.83734 0.0
C538 C 0.16806 0.77527 0.82009 0.0
H539 H 0.22971 0.7288 0.7738 0.0
H540 H 0.23022 0.75094 0.7965 0.0
H541 H 0.1935 0.72312 0.79031 0.0
H542 H 0.09774 0.76384 0.7902 0.0
H543 H 0.06944 0.74735 0.82014 0.0
H544 H 0.05424 0.13049 0.13138 0.0
H545 H 0.04549 0.0667 0.12862 0.0
H546 H 0.97328 0.06975 0.1763 0.0
H547 H 0.98058 0.13373 0.17848 0.0
H548 H 0.05993 0.01533 0.15183 0.0
H549 H 0.91561 0.015 0.13934 0.0
H550 H 0.94129 0.05504 0.13873 0.0
H551 H 0.92613 0.03733 0.16117 0.0
C552 C 0.03627 0.11754 0.14116 0.0
C553 C 0.01783 0.13702 0.15504 0.0
C554 C 0.03131 0.08112 0.13958 0.0
C555 C 0.00817 0.06351 0.15199 0.0
C556 C 0.99033 0.08289 0.16613 0.0
H557 H 0.01423 0.84075 0.17902 0.0
H558 H 0.02446 0.90436 0.17681 0.0
C559 C -0.00529 0.11941 0.16746 0.0
C560 C 0.00369 0.02471 0.15062 0.0
H561 H 0.94139 0.95986 0.14902 0.0
C562 C 0.03402 0.00319 0.15099 0.0
C563 C 0.96996 0.00886 0.1491 0.0
C564 C 0.93648 0.03032 0.14684 0.0
C565 C 0.03149 0.96625 0.15044 0.0
C566 C -0.00237 0.95039 0.15031 0.0
C567 C 0.96737 0.97195 0.1494 0.0
C568 C 0.99272 0.91158 0.15127 0.0
C569 C 0.06517 0.94479 0.14967 0.0
C570 C 0.97058 0.89459 0.13805 0.0
C571 C 0.96382 0.8585 0.13967 0.0
C572 C 0.97953 0.83864 0.15437 0.0
C573 C 0.00216 0.85543 0.16741 0.0
C574 C 0.00825 0.89172 0.16606 0.0
H575 H 0.08706 0.96013 0.14314 0.0
H576 H 0.07338 0.93776 0.16442 0.0
H577 H 0.06157 0.92008 0.14136 0.0
H578 H 0.95823 0.90934 0.12655 0.0
H579 H 0.94637 0.84612 0.12938 0.0
H580 H 0.14791 0.01089 0.68033 0.0
H581 H 0.084 0.0213 0.67941 0.0
H582 H 0.07589 0.95648 0.62886 0.0
H583 H 0.1394 0.94445 0.63036 0.0
H584 H 0.04077 0.05063 0.65489 0.0
H585 H 0.00483 0.9095 0.66197 0.0
H586 H 0.04962 0.9248 0.6648 0.0
H587 H 0.03152 0.91746 0.6413 0.0
C588 C 0.13241 -0.00109 0.66904 0.0
C589 C 0.14833 0.97649 0.65558 0.0
C590 C 0.09598 0.00487 0.66851 0.0
C591 C 0.07506 0.98893 0.65435 0.0
C592 C 0.09131 0.96801 0.64031 0.0
H593 H 0.85679 0.0528 0.63219 0.0
H594 H 0.92103 0.04517 0.63088 0.0
C595 C 0.12758 0.96136 0.6411 0.0
C596 C 0.03623 -0.00609 0.65444 0.0
H597 H 0.95811 0.94916 0.65431 0.0
C598 C 0.02265 0.02846 0.65487 0.0
C599 C 0.01267 0.96493 0.65474 0.0
C600 C 0.0254 0.92712 0.65589 0.0
C601 C 0.98613 0.03486 0.65554 0.0
C602 C 0.96257 0.00588 0.65498 0.0
C603 C 0.97618 0.97136 0.65455 0.0
C604 C 0.92368 0.01049 0.65548 0.0
C605 C 0.97337 0.07253 0.65746 0.0
C606 C 0.90369 -0.00764 0.66921 0.0
C607 C 0.86698 -0.00421 0.66959 0.0
C608 C 0.84968 0.01786 0.65642 0.0
C609 C 0.86961 0.03596 0.64265 0.0
C610 C 0.9063 0.03186 0.642 0.0
H611 H -0.00587 0.08981 0.66366 0.0
H612 H 0.96669 0.08304 0.64309 0.0
H613 H 0.94946 0.07424 0.6666 0.0
H614 H 0.91652 0.97563 0.67972 0.0
H615 H 0.85219 0.98166 0.68039 0.0
H616 H 0.00782 0.14299 0.85818 0.0
H617 H 0.01698 0.07902 0.85899 0.0
H618 H 0.94989 0.07171 0.90868 0.0
H619 H 0.93909 0.13538 0.90724 0.0
H620 H 0.04525 0.03636 0.8837 0.0
H621 H 0.90427 -0.0001 0.87558 0.0
H622 H 0.91947 0.04468 0.87285 0.0
H623 H 0.91165 0.02668 0.8963 0.0
C624 C -0.00499 0.12766 0.86924 0.0
C625 C 0.97244 0.14392 0.88251 0.0
C626 C 0.00025 0.09116 0.8697 0.0
C627 C 0.98344 0.07045 0.88362 0.0
C628 C 0.96211 0.08695 0.8974 0.0
H629 H 0.04919 0.85313 0.90617 0.0
H630 H 0.03997 0.91705 0.90775 0.0
C631 C 0.95618 0.12333 0.89666 0.0
C632 C 0.98847 0.03164 0.8837 0.0
H633 H 0.94399 0.95339 0.88361 0.0
C634 C 0.02311 0.01819 0.88357 0.0
C635 C 0.95955 0.00798 0.88323 0.0
C636 C 0.92169 0.02054 0.88179 0.0
C637 C 0.02969 0.98175 0.88298 0.0
C638 C 0.00078 0.95808 0.88337 0.0
C639 C 0.96614 0.97154 0.88352 0.0
C640 C 0.00567 0.91925 0.88294 0.0
C641 C 0.06751 0.9692 0.8813 0.0
C642 C 0.98812 0.89903 0.86905 0.0
C643 C 0.99246 0.86244 0.86852 0.0
C644 C 0.01487 0.84554 0.88168 0.0
C645 C 0.03216 0.86567 0.89569 0.0
C646 C 0.02714 0.90219 0.8965 0.0
H647 H 0.08481 0.98998 0.87517 0.0
H648 H 0.07783 0.96268 0.89573 0.0
H649 H 0.06953 0.94527 0.87219 0.0
H650 H 0.9713 0.9116 0.85848 0.0
H651 H 0.97889 0.84749 0.85754 0.0
H652 H 0.85233 0.93787 0.39534 0.0
H653 H 0.91471 0.95397 0.39648 0.0
H654 H 0.89139 0.0516 0.36723 0.0
H655 H 0.82866 0.03564 0.36588 0.0
H656 H 0.94805 0.01244 0.3515 0.0
H657 H 0.96333 0.02947 0.42974 0.0
H658 H 0.94283 0.98848 0.42317 0.0
H659 H 0.92071 0.02953 0.41802 0.0
C660 C 0.86034 0.96289 0.38923 0.0
C661 C 0.83553 0.98549 0.38052 0.0
C662 C 0.89598 0.97214 0.39003 0.0
C663 C 0.90746 0.00419 0.38221 0.0
C664 C 0.88287 0.02687 0.37348 0.0
H665 H 0.12604 0.07599 0.39455 0.0
H666 H 0.06135 0.07403 0.39444 0.0
C667 C 0.84711 0.0177 0.37273 0.0
C668 C 0.94551 0.01282 0.38223 0.0
H669 H 0.01675 0.02261 0.41173 0.0
C670 C 0.96305 0.01513 0.36464 0.0
C671 C 0.96482 0.01671 0.39942 0.0
C672 C 0.94693 0.01628 0.41866 0.0
C673 C -0.0002 0.01963 0.3638 0.0
C674 C 0.01936 0.02141 0.381 0.0
C675 C 0.00164 0.02077 0.39858 0.0
C676 C 0.05838 0.02265 0.38103 0.0
C677 C 0.01745 0.02212 0.34453 0.0
C678 C 0.07795 -0.00589 0.37382 0.0
C679 C 0.11484 -0.00495 0.37391 0.0
C680 C 0.13278 0.02455 0.38127 0.0
C681 C 0.11303 0.05292 0.38872 0.0
C682 C 0.0761 0.05189 0.38868 0.0
H683 H -0.00165 0.02972 0.33316 0.0
H684 H 0.0393 0.04167 0.34479 0.0
H685 H 0.02881 -0.00402 0.34075 0.0
H686 H 0.06465 0.97103 0.36819 0.0
H687 H 0.12926 0.97273 0.36812 0.0
loop_
_geom_bond_atom_site_label_1
_geom_bond_atom_site_label_2
_geom_bond_distance
_geom_bond_site_symmetry_2
_ccdc_geom_bond_type
C0 O2 1.247 . S
C0 O4 1.258 . S
C1 O8 1.247 . S
C1 O9 1.258 . S
O2 C0 1.247 . S
O2 Zn3 2.028 . S
Zn3 O2 2.028 . S
Zn3 O7 2.035 . S
Zn3 O9 2.035 . S
Zn3 O10 2.028 . S
O4 C0 1.258 . S
O4 Zn5 2.035 . S
Zn5 O4 2.035 . S
Zn5 O6 2.028 . S
Zn5 O8 2.028 . S
Zn5 O11 2.035 . S
O6 Zn5 2.028 . S
O6 C12 1.247 . S
O7 Zn3 2.035 . S
O7 C12 1.258 . S
O8 C1 1.247 . S
O8 Zn5 2.028 . S
O9 C1 1.258 . S
O9 Zn3 2.035 . S
O10 Zn3 2.028 . S
O10 C13 1.247 . S
O11 Zn5 2.035 . S
O11 C13 1.258 . S
C12 O6 1.247 . S
C12 O7 1.258 . S
C13 O10 1.247 . S
C13 O11 1.258 . S
C14 O16 1.247 . S
C14 O18 1.258 . S
C15 O22 1.247 . S
C15 O23 1.258 . S
O16 C14 1.247 . S
O16 Zn17 2.028 . S
Zn17 O16 2.028 . S
Zn17 O21 2.035 . S
Zn17 O23 2.035 . S
Zn17 O24 2.028 . S
O18 C14 1.258 . S
O18 Zn19 2.035 . S
Zn19 O18 2.035 . S
Zn19 O20 2.028 . S
Zn19 O22 2.028 . S
Zn19 O25 2.035 . S
O20 Zn19 2.028 . S
O20 C26 1.247 . S
O21 Zn17 2.035 . S
O21 C26 1.258 . S
O22 C15 1.247 . S
O22 Zn19 2.028 . S
O23 C15 1.258 . S
O23 Zn17 2.035 . S
O24 Zn17 2.028 . S
O24 C27 1.247 . S
O25 Zn19 2.035 . S
O25 C27 1.258 . S
C26 O20 1.247 . S
C26 O21 1.258 . S
C27 O24 1.247 . S
C27 O25 1.258 . S
C28 O30 1.247 . S
C28 O32 1.258 . S
C29 O36 1.247 . S
C29 O37 1.258 . S
O30 C28 1.247 . S
O30 Zn31 2.028 . S
Zn31 O30 2.028 . S
Zn31 O35 2.035 . S
Zn31 O37 2.035 . S
Zn31 O38 2.028 . S
O32 C28 1.258 . S
O32 Zn33 2.035 . S
Zn33 O32 2.035 . S
Zn33 O34 2.028 . S
Zn33 O36 2.028 . S
Zn33 O39 2.035 . S
O34 Zn33 2.028 . S
O34 C40 1.247 . S
O35 Zn31 2.035 . S
O35 C40 1.258 . S
O36 C29 1.247 . S
O36 Zn33 2.028 . S
O37 C29 1.258 . S
O37 Zn31 2.035 . S
O38 Zn31 2.028 . S
O38 C41 1.247 . S
O39 Zn33 2.035 . S
O39 C41 1.258 . S
C40 O34 1.247 . S
C40 O35 1.258 . S
C41 O38 1.247 . S
C41 O39 1.258 . S
C42 O44 1.247 . S
C42 O46 1.258 . S
C43 O50 1.247 . S
C43 O51 1.258 . S
O44 C42 1.247 . S
O44 Zn45 2.028 . S
Zn45 O44 2.028 . S
Zn45 O49 2.035 . S
Zn45 O51 2.035 . S
Zn45 O52 2.028 . S
O46 C42 1.258 . S
O46 Zn47 2.035 . S
Zn47 O46 2.035 . S
Zn47 O48 2.028 . S
Zn47 O50 2.028 . S
Zn47 O53 2.035 . S
O48 Zn47 2.028 . S
O48 C54 1.247 . S
O49 Zn45 2.035 . S
O49 C54 1.258 . S
O50 C43 1.247 . S
O50 Zn47 2.028 . S
O51 C43 1.258 . S
O51 Zn45 2.035 . S
O52 Zn45 2.028 . S
O52 C55 1.247 . S
O53 Zn47 2.035 . S
O53 C55 1.258 . S
C54 O48 1.247 . S
C54 O49 1.258 . S
C55 O52 1.247 . S
C55 O53 1.258 . S
C56 O58 1.247 . S
C56 O60 1.258 . S
C57 O64 1.247 . S
C57 O65 1.258 . S
O58 C56 1.247 . S
O58 Zn59 2.028 . S
Zn59 O58 2.028 . S
Zn59 O63 2.035 . S
Zn59 O65 2.035 . S
Zn59 O66 2.028 . S
O60 C56 1.258 . S
O60 Zn61 2.035 . S
Zn61 O60 2.035 . S
Zn61 O62 2.028 . S
Zn61 O64 2.028 . S
Zn61 O67 2.035 . S
O62 Zn61 2.028 . S
O62 C68 1.247 . S
O63 Zn59 2.035 . S
O63 C68 1.258 . S
O64 C57 1.247 . S
O64 Zn61 2.028 . S
O65 C57 1.258 . S
O65 Zn59 2.035 . S
O66 Zn59 2.028 . S
O66 C69 1.247 . S
O67 Zn61 2.035 . S
O67 C69 1.258 . S
C68 O62 1.247 . S
C68 O63 1.258 . S
C69 O66 1.247 . S
C69 O67 1.258 . S
C70 O72 1.247 . S
C70 O74 1.258 . S
C71 O78 1.247 . S
C71 O79 1.258 . S
O72 C70 1.247 . S
O72 Zn73 2.028 . S
Zn73 O72 2.028 . S
Zn73 O77 2.035 . S
Zn73 O79 2.035 . S
Zn73 O80 2.028 . S
O74 C70 1.258 . S
O74 Zn75 2.035 . S
Zn75 O74 2.035 . S
Zn75 O76 2.028 . S
Zn75 O78 2.028 . S
Zn75 O81 2.035 . S
O76 Zn75 2.028 . S
O76 C82 1.247 . S
O77 Zn73 2.035 . S
O77 C82 1.258 . S
O78 C71 1.247 . S
O78 Zn75 2.028 . S
O79 C71 1.258 . S
O79 Zn73 2.035 . S
O80 Zn73 2.028 . S
O80 C83 1.247 . S
O81 Zn75 2.035 . S
O81 C83 1.258 . S
C82 O76 1.247 . S
C82 O77 1.258 . S
C83 O80 1.247 . S
C83 O81 1.258 . S
C84 O86 1.247 . S
C84 O88 1.258 . S
C85 O92 1.247 . S
C85 O93 1.258 . S
O86 C84 1.247 . S
O86 Zn87 2.028 . S
Zn87 O86 2.028 . S
Zn87 O91 2.035 . S
Zn87 O93 2.035 . S
Zn87 O94 2.028 . S
O88 C84 1.258 . S
O88 Zn89 2.035 . S
Zn89 O88 2.035 . S
Zn89 O90 2.028 . S
Zn89 O92 2.028 . S
Zn89 O95 2.035 . S
O90 Zn89 2.028 . S
O90 C96 1.247 . S
O91 Zn87 2.035 . S
O91 C96 1.258 . S
O92 C85 1.247 . S
O92 Zn89 2.028 . S
O93 C85 1.258 . S
O93 Zn87 2.035 . S
O94 Zn87 2.028 . S
O94 C97 1.247 . S
O95 Zn89 2.035 . S
O95 C97 1.258 . S
C96 O90 1.247 . S
C96 O91 1.258 . S
C97 O94 1.247 . S
C97 O95 1.258 . S
C98 O100 1.247 . S
C98 O102 1.258 . S
C99 O106 1.247 . S
C99 O107 1.258 . S
O100 C98 1.247 . S
O100 Zn101 2.028 . S
Zn101 O100 2.028 . S
Zn101 O105 2.035 . S
Zn101 O107 2.035 . S
Zn101 O108 2.028 . S
O102 C98 1.258 . S
O102 Zn103 2.035 . S
Zn103 O102 2.035 . S
Zn103 O104 2.028 . S
Zn103 O106 2.028 . S
Zn103 O109 2.035 . S
O104 Zn103 2.028 . S
O104 C110 1.247 . S
O105 Zn101 2.035 . S
O105 C110 1.258 . S
O106 C99 1.247 . S
O106 Zn103 2.028 . S
O107 C99 1.258 . S
O107 Zn101 2.035 . S
O108 Zn101 2.028 . S
O108 C111 1.247 . S
O109 Zn103 2.035 . S
O109 C111 1.258 . S
C110 O104 1.247 . S
C110 O105 1.258 . S
C111 O108 1.247 . S
C111 O109 1.258 . S
H112 C120 0.929 . S
H113 C122 0.930 . S
H114 C124 0.930 . S
H115 C127 0.929 . S
H116 C130 0.930 . S
H117 C132 0.960 . S
H118 C132 0.960 . S
H119 C132 0.960 . S
C120 H112 0.929 . S
C120 C121 1.377 . S
C120 C122 1.384 . S
C121 C120 1.377 . S
C121 C127 1.390 . S
C122 H113 0.930 . S
C122 C120 1.384 . S
C122 C123 1.372 . S
C123 C122 1.372 . S
C123 C124 1.400 . S
C123 C128 1.490 . S
C124 H114 0.930 . S
C124 C123 1.400 . S
C124 C127 1.386 . S
H125 C141 0.930 . S
H126 C142 0.931 . S
C127 H115 0.929 . S
C127 C121 1.390 . S
C127 C124 1.386 . S
C128 C123 1.490 . S
C128 C130 1.395 1_455 S
C128 C131 1.403 . S
H129 C135 0.930 . S
C130 H116 0.930 . S
C130 C128 1.395 1_655 S
C130 C133 1.403 . S
C131 C128 1.403 . S
C131 C132 1.524 . S
C131 C135 1.400 . S
C132 H117 0.960 . S
C132 H118 0.960 . S
C132 H119 0.960 . S
C132 C131 1.524 . S
C133 C130 1.403 . S
C133 C134 1.392 . S
C133 C137 1.495 . S
C134 C133 1.392 . S
C134 C135 1.385 1_655 S
C134 C136 1.478 . S
C135 H129 0.930 . S
C135 C131 1.400 . S
C135 C134 1.385 1_455 S
C136 C134 1.478 . S
C136 C138 1.381 . S
C136 C142 1.383 . S
C137 C133 1.495 . S
C137 H143 0.959 . S
C137 H144 0.961 . S
C137 H145 0.960 . S
C138 C136 1.381 . S
C138 C139 1.394 . S
C138 H146 0.930 . S
C139 C138 1.394 . S
C139 C140 1.383 . S
C139 H147 0.929 . S
C140 C139 1.383 . S
C140 C141 1.377 . S
C141 H125 0.930 . S
C141 C140 1.377 . S
C141 C142 1.379 . S
C142 H126 0.931 . S
C142 C136 1.383 . S
C142 C141 1.379 . S
H143 C137 0.959 . S
H144 C137 0.961 . S
H145 C137 0.960 . S
H146 C138 0.930 . S
H147 C139 0.929 . S
H148 C156 0.929 . S
H149 C158 0.930 . S
H150 C160 0.930 1_545 S
H151 C163 0.929 . S
H152 C166 0.930 . S
H153 C168 0.960 . S
H154 C168 0.960 . S
H155 C168 0.960 . S
C156 H148 0.929 . S
C156 C157 1.377 . S
C156 C158 1.384 . S
C157 C156 1.377 . S
C157 C163 1.390 . S
C158 H149 0.930 . S
C158 C156 1.384 . S
C158 C159 1.372 . S
C159 C158 1.372 . S
C159 C160 1.400 . S
C159 C164 1.490 . S
C160 H150 0.930 1_565 S
C160 C159 1.400 . S
C160 C163 1.386 . S
H161 C177 0.930 . S
H162 C178 0.931 . S
C163 H151 0.929 . S
C163 C157 1.390 . S
C163 C160 1.386 . S
C164 C159 1.490 . S
C164 C166 1.395 . S
C164 C167 1.403 1_565 S
H165 C171 0.930 . S
C166 H152 0.930 . S
C166 C164 1.395 . S
C166 C169 1.403 . S
C167 C164 1.403 1_545 S
C167 C168 1.524 . S
C167 C171 1.400 . S
C168 H153 0.960 . S
C168 H154 0.960 . S
C168 H155 0.960 . S
C168 C167 1.524 . S
C169 C166 1.403 . S
C169 C170 1.392 1_565 S
C169 C173 1.495 . S
C170 C169 1.392 1_545 S
C170 C171 1.385 . S
C170 C172 1.478 . S
C171 H165 0.930 . S
C171 C167 1.400 . S
C171 C170 1.385 . S
C172 C170 1.478 . S
C172 C174 1.381 . S
C172 C178 1.383 . S
C173 C169 1.495 . S
C173 H179 0.959 . S
C173 H180 0.961 . S
C173 H181 0.960 . S
C174 C172 1.381 . S
C174 C175 1.394 . S
C174 H182 0.930 1_545 S
C175 C174 1.394 . S
C175 C176 1.383 . S
C175 H183 0.929 . S
C176 C175 1.383 . S
C176 C177 1.377 . S
C177 H161 0.930 . S
C177 C176 1.377 . S
C177 C178 1.379 . S
C178 H162 0.931 . S
C178 C172 1.383 . S
C178 C177 1.379 . S
H179 C173 0.959 . S
H180 C173 0.961 . S
H181 C173 0.960 . S
H182 C174 0.930 1_565 S
H183 C175 0.929 . S
H184 C192 0.929 . S
H185 C194 0.930 . S
H186 C196 0.924 1_455 S
H187 C199 0.929 . S
H188 C202 0.930 . S
H189 C204 0.960 . S
H190 C204 0.960 . S
H191 C204 0.960 . S
C192 H184 0.929 . S
C192 C193 1.377 . S
C192 C194 1.384 . S
C193 C192 1.377 . S
C193 C199 1.390 . S
C194 H185 0.930 . S
C194 C192 1.384 . S
C194 C195 1.372 . S
C195 C194 1.372 . S
C195 C196 1.400 . S
C195 C200 1.490 . S
C196 H186 0.924 1_655 S
C196 C195 1.400 . S
C196 C199 1.386 . S
H197 C213 0.930 . S
H198 C214 0.931 . S
C199 H187 0.929 . S
C199 C193 1.390 . S
C199 C196 1.386 . S
C200 C195 1.490 . S
C200 C202 1.395 . S
C200 C203 1.403 1_655 S
H201 C207 0.930 . S
C202 H188 0.930 . S
C202 C200 1.395 . S
C202 C205 1.403 . S
C203 C200 1.403 1_455 S
C203 C204 1.524 . S
C203 C207 1.400 . S
C204 H189 0.960 . S
C204 H190 0.960 . S
C204 H191 0.960 . S
C204 C203 1.524 . S
C205 C202 1.403 . S
C205 C206 1.392 1_655 S
C205 C209 1.495 . S
C206 C205 1.392 1_455 S
C206 C207 1.385 . S
C206 C208 1.478 . S
C207 H201 0.930 . S
C207 C203 1.400 . S
C207 C206 1.385 . S
C208 C206 1.478 . S
C208 C210 1.381 . S
C208 C214 1.383 . S
C209 C205 1.495 . S
C209 H215 0.959 . S
C209 H216 0.961 . S
C209 H217 0.960 . S
C210 C208 1.381 . S
C210 C211 1.394 . S
C210 H218 0.930 1_455 S
C211 C210 1.394 . S
C211 C212 1.383 . S
C211 H219 0.929 . S
C212 C211 1.383 . S
C212 C213 1.377 . S
C213 H197 0.930 . S
C213 C212 1.377 . S
C213 C214 1.379 . S
C214 H198 0.931 . S
C214 C208 1.383 . S
C214 C213 1.379 . S
H215 C209 0.959 . S
H216 C209 0.961 . S
H217 C209 0.960 . S
H218 C210 0.930 1_655 S
H219 C211 0.929 . S
H220 C228 0.929 . S
H221 C230 0.930 . S
H222 C232 0.930 . S
H223 C235 0.929 . S
H224 C238 0.930 . S
H225 C240 0.960 . S
H226 C240 0.960 . S
H227 C240 0.960 . S
C228 H220 0.929 . S
C228 C229 1.377 . S
C228 C230 1.384 . S
C229 C228 1.377 . S
C229 C235 1.390 . S
C230 H221 0.930 . S
C230 C228 1.384 . S
C230 C231 1.372 . S
C231 C230 1.372 . S
C231 C232 1.400 . S
C231 C236 1.490 . S
C232 H222 0.930 . S
C232 C231 1.400 . S
C232 C235 1.386 . S
H233 C249 0.930 . S
H234 C250 0.931 . S
C235 H223 0.929 . S
C235 C229 1.390 . S
C235 C232 1.386 . S
C236 C231 1.490 . S
C236 C238 1.395 1_545 S
C236 C239 1.403 . S
H237 C243 0.930 . S
C238 H224 0.930 . S
C238 C236 1.395 1_565 S
C238 C241 1.403 . S
C239 C236 1.403 . S
C239 C240 1.524 . S
C239 C243 1.400 . S
C240 H225 0.960 . S
C240 H226 0.960 . S
C240 H227 0.960 . S
C240 C239 1.524 . S
C241 C238 1.403 . S
C241 C242 1.392 . S
C241 C245 1.495 . S
C242 C241 1.392 . S
C242 C243 1.385 1_565 S
C242 C244 1.478 . S
C243 H237 0.930 . S
C243 C239 1.400 . S
C243 C242 1.385 1_545 S
C244 C242 1.478 . S
C244 C246 1.381 . S
C244 C250 1.383 . S
C245 C241 1.495 . S
C245 H251 0.959 . S
C245 H252 0.961 . S
C245 H253 0.960 . S
C246 C244 1.381 . S
C246 C247 1.394 . S
C246 H254 0.930 . S
C247 C246 1.394 . S
C247 C248 1.383 . S
C247 H255 0.929 . S
C248 C247 1.383 . S
C248 C249 1.377 . S
C249 H233 0.930 . S
C249 C248 1.377 . S
C249 C250 1.379 . S
C250 H234 0.931 . S
C250 C244 1.383 . S
C250 C249 1.379 . S
H251 C245 0.959 . S
H252 C245 0.961 . S
H253 C245 0.960 . S
H254 C246 0.930 . S
H255 C247 0.929 . S
H256 C264 0.929 . S
H257 C266 0.930 . S
H258 C268 0.930 . S
H259 C271 0.929 1_455 S
H260 C274 0.930 . S
H261 C276 0.960 . S
H262 C276 0.960 . S
H263 C276 0.960 . S
C264 H256 0.929 . S
C264 C265 1.377 . S
C264 C266 1.384 . S
C265 C264 1.377 . S
C265 C271 1.390 . S
C266 H257 0.930 . S
C266 C264 1.384 . S
C266 C267 1.372 . S
C267 C266 1.372 . S
C267 C268 1.400 1_655 S
C267 C272 1.490 . S
C268 H258 0.930 . S
C268 C267 1.400 1_455 S
C268 C271 1.386 1_455 S
H269 C285 0.930 . S
H270 C286 0.931 . S
C271 H259 0.929 1_655 S
C271 C265 1.390 . S
C271 C268 1.386 1_655 S
C272 C267 1.490 . S
C272 C274 1.395 . S
C272 C275 1.403 1_655 S
H273 C279 0.930 . S
C274 H260 0.930 . S
C274 C272 1.395 . S
C274 C277 1.403 1_556 S
C275 C272 1.403 1_455 S
C275 C276 1.524 . S
C275 C279 1.400 1_556 S
C276 H261 0.960 . S
C276 H262 0.960 . S
C276 H263 0.960 . S
C276 C275 1.524 . S
C277 C274 1.403 1_554 S
C277 C278 1.392 1_655 S
C277 C281 1.495 . S
C278 C277 1.392 1_455 S
C278 C279 1.385 . S
C278 C280 1.478 . S
C279 H273 0.930 . S
C279 C275 1.400 1_554 S
C279 C278 1.385 . S
C280 C278 1.478 . S
C280 C282 1.381 1_455 S
C280 C286 1.383 . S
C281 C277 1.495 . S
C281 H287 0.959 . S
C281 H288 0.961 . S
C281 H289 0.960 . S
C282 C280 1.381 1_655 S
C282 C283 1.394 1_655 S
C282 H290 0.930 . S
C283 C282 1.394 1_455 S
C283 C284 1.383 . S
C283 H291 0.929 1_455 S
C284 C283 1.383 . S
C284 C285 1.377 . S
C285 H269 0.930 . S
C285 C284 1.377 . S
C285 C286 1.379 . S
C286 H270 0.931 . S
C286 C280 1.383 . S
C286 C285 1.379 . S
H287 C281 0.959 . S
H288 C281 0.961 . S
H289 C281 0.960 . S
H290 C282 0.930 . S
H291 C283 0.929 1_655 S
H292 C300 0.929 . S
H293 C302 0.930 . S
H294 C304 0.930 . S
H295 C307 0.929 . S
H296 C310 0.930 . S
H297 C312 0.960 . S
H298 C312 0.960 . S
H299 C312 0.960 . S
C300 H292 0.929 . S
C300 C301 1.377 . S
C300 C302 1.384 . S
C301 C300 1.377 . S
C301 C307 1.390 . S
C302 H293 0.930 . S
C302 C300 1.384 . S
C302 C303 1.372 . S
C303 C302 1.372 . S
C303 C304 1.400 . S
C303 C308 1.490 . S
C304 H294 0.930 . S
C304 C303 1.400 . S
C304 C307 1.386 . S
H305 C321 0.930 . S
H306 C322 0.931 . S
C307 H295 0.929 . S
C307 C301 1.390 . S
C307 C304 1.386 . S
C308 C303 1.490 . S
C308 C310 1.395 . S
C308 C311 1.403 1_545 S
H309 C315 0.930 . S
C310 H296 0.930 . S
C310 C308 1.395 . S
C310 C313 1.403 . S
C311 C308 1.403 1_565 S
C311 C312 1.524 . S
C311 C315 1.400 . S
C312 H297 0.960 . S
C312 H298 0.960 . S
C312 H299 0.960 . S
C312 C311 1.524 . S
C313 C310 1.403 . S
C313 C314 1.392 1_545 S
C313 C317 1.495 . S
C314 C313 1.392 1_565 S
C314 C315 1.385 . S
C314 C316 1.478 . S
C315 H309 0.930 . S
C315 C311 1.400 . S
C315 C314 1.385 . S
C316 C314 1.478 . S
C316 C318 1.381 . S
C316 C322 1.383 . S
C317 C313 1.495 . S
C317 H323 0.959 . S
C317 H324 0.961 . S
C317 H325 0.960 . S
C318 C316 1.381 . S
C318 C319 1.394 . S
C318 H326 0.930 . S
C319 C318 1.394 . S
C319 C320 1.383 . S
C319 H327 0.929 . S
C320 C319 1.383 . S
C320 C321 1.377 . S
C321 H305 0.930 . S
C321 C320 1.377 . S
C321 C322 1.379 . S
C322 H306 0.931 . S
C322 C316 1.383 . S
C322 C321 1.379 . S
H323 C317 0.959 . S
H324 C317 0.961 . S
H325 C317 0.960 . S
H326 C318 0.930 . S
H327 C319 0.929 . S
H328 C336 0.929 . S
H329 C338 0.930 . S
H330 C340 0.930 1_455 S
H331 C343 0.929 . S
H332 C346 0.930 . S
H333 C348 0.960 . S
H334 C348 0.960 . S
H335 C348 0.960 . S
C336 H328 0.929 . S
C336 C337 1.377 . S
C336 C338 1.384 . S
C337 C336 1.377 . S
C337 C343 1.390 . S
C338 H329 0.930 . S
C338 C336 1.384 . S
C338 C339 1.372 . S
C339 C338 1.372 . S
C339 C340 1.400 . S
C339 C344 1.490 . S
C340 H330 0.930 1_655 S
C340 C339 1.400 . S
C340 C343 1.386 . S
H341 C357 0.930 . S
H342 C358 0.931 . S
C343 H331 0.929 . S
C343 C337 1.390 . S
C343 C340 1.386 . S
C344 C339 1.490 . S
C344 C346 1.395 1_655 S
C344 C347 1.403 . S
H345 C351 0.930 . S
C346 H332 0.930 . S
C346 C344 1.395 1_455 S
C346 C349 1.403 1_554 S
C347 C344 1.403 . S
C347 C348 1.524 . S
C347 C351 1.400 1_554 S
C348 H333 0.960 . S
C348 H334 0.960 . S
C348 H335 0.960 . S
C348 C347 1.524 . S
C349 C346 1.403 1_556 S
C349 C350 1.392 . S
C349 C353 1.495 . S
C350 C349 1.392 . S
C350 C351 1.385 1_455 S
C350 C352 1.478 . S
C351 H345 0.930 . S
C351 C347 1.400 1_556 S
C351 C350 1.385 1_655 S
C352 C350 1.478 . S
C352 C354 1.381 . S
C352 C358 1.383 . S
C353 C349 1.495 . S
C353 H359 0.959 . S
C353 H360 0.961 . S
C353 H361 0.960 . S
C354 C352 1.381 . S
C354 C355 1.394 . S
C354 H362 0.930 1_455 S
C355 C354 1.394 . S
C355 C356 1.383 . S
C355 H363 0.928 1_455 S
C356 C355 1.383 . S
C356 C357 1.377 . S
C357 H341 0.930 . S
C357 C356 1.377 . S
C357 C358 1.379 . S
C358 H342 0.931 . S
C358 C352 1.383 . S
C358 C357 1.379 . S
H359 C353 0.959 . S
H360 C353 0.961 . S
H361 C353 0.960 . S
H362 C354 0.930 1_655 S
H363 C355 0.928 1_655 S
H364 C372 0.929 . S
H365 C374 0.930 1_565 S
H366 C376 0.930 . S
H367 C379 0.929 . S
H368 C382 0.930 . S
H369 C384 0.960 . S
H370 C384 0.960 . S
H371 C384 0.960 . S
C372 H364 0.929 . S
C372 C373 1.377 . S
C372 C374 1.384 . S
C373 C372 1.377 . S
C373 C379 1.390 . S
C374 H365 0.930 1_545 S
C374 C372 1.384 . S
C374 C375 1.372 . S
C375 C374 1.372 . S
C375 C376 1.400 . S
C375 C380 1.490 . S
C376 H366 0.930 . S
C376 C375 1.400 . S
C376 C379 1.386 . S
H377 C393 0.930 . S
H378 C394 0.931 1_545 S
C379 H367 0.929 . S
C379 C373 1.390 . S
C379 C376 1.386 . S
C380 C375 1.490 . S
C380 C382 1.395 1_545 S
C380 C383 1.403 . S
H381 C387 0.930 . S
C382 H368 0.930 . S
C382 C380 1.395 1_565 S
C382 C385 1.403 . S
C383 C380 1.403 . S
C383 C384 1.524 . S
C383 C387 1.400 . S
C384 H369 0.960 . S
C384 H370 0.960 . S
C384 H371 0.960 . S
C384 C383 1.524 . S
C385 C382 1.403 . S
C385 C386 1.392 . S
C385 C389 1.495 . S
C386 C385 1.392 . S
C386 C387 1.385 1_565 S
C386 C388 1.478 . S
C387 H381 0.930 . S
C387 C383 1.400 . S
C387 C386 1.385 1_545 S
C388 C386 1.478 . S
C388 C390 1.381 . S
C388 C394 1.383 . S
C389 C385 1.495 . S
C389 H395 0.959 . S
C389 H396 0.961 . S
C389 H397 0.960 . S
C390 C388 1.381 . S
C390 C391 1.394 . S
C390 H398 0.930 . S
C391 C390 1.394 . S
C391 C392 1.383 . S
C391 H399 0.929 . S
C392 C391 1.383 . S
C392 C393 1.377 . S
C393 H377 0.930 . S
C393 C392 1.377 . S
C393 C394 1.379 . S
C394 H378 0.931 1_565 S
C394 C388 1.383 . S
C394 C393 1.379 . S
H395 C389 0.959 . S
H396 C389 0.961 . S
H397 C389 0.960 . S
H398 C390 0.930 . S
H399 C391 0.929 . S
H400 C408 0.929 . S
H401 C410 0.930 . S
H402 C412 0.930 . S
H403 C415 0.929 . S
H404 C418 0.930 . S
H405 C420 0.960 . S
H406 C420 0.960 . S
H407 C420 0.960 . S
C408 H400 0.929 . S
C408 C409 1.377 . S
C408 C410 1.384 . S
C409 C408 1.377 . S
C409 C415 1.390 . S
C410 H401 0.930 . S
C410 C408 1.384 . S
C410 C411 1.372 . S
C411 C410 1.372 . S
C411 C412 1.400 . S
C411 C416 1.490 . S
C412 H402 0.930 . S
C412 C411 1.400 . S
C412 C415 1.386 . S
H413 C429 0.930 . S
H414 C430 0.931 . S
C415 H403 0.929 . S
C415 C409 1.390 . S
C415 C412 1.386 . S
C416 C411 1.490 . S
C416 C418 1.395 . S
C416 C419 1.403 . S
H417 C423 0.930 . S
C418 H404 0.930 . S
C418 C416 1.395 . S
C418 C421 1.403 . S
C419 C416 1.403 . S
C419 C420 1.524 . S
C419 C423 1.400 . S
C420 H405 0.960 . S
C420 H406 0.960 . S
C420 H407 0.960 . S
C420 C419 1.524 . S
C421 C418 1.403 . S
C421 C422 1.392 . S
C421 C425 1.495 . S
C422 C421 1.392 . S
C422 C423 1.385 . S
C422 C424 1.478 . S
C423 H417 0.930 . S
C423 C419 1.400 . S
C423 C422 1.385 . S
C424 C422 1.478 . S
C424 C426 1.381 . S
C424 C430 1.383 . S
C425 C421 1.495 . S
C425 H431 0.959 . S
C425 H432 0.961 . S
C425 H433 0.960 . S
C426 C424 1.381 . S
C426 C427 1.394 . S
C426 H434 0.930 . S
C427 C426 1.394 . S
C427 C428 1.383 . S
C427 H435 0.929 . S
C428 C427 1.383 . S
C428 C429 1.377 . S
C429 H413 0.930 . S
C429 C428 1.377 . S
C429 C430 1.379 . S
C430 H414 0.931 . S
C430 C424 1.383 . S
C430 C429 1.379 . S
H431 C425 0.959 . S
H432 C425 0.961 . S
H433 C425 0.960 . S
H434 C426 0.930 . S
H435 C427 0.929 . S
H436 C444 0.929 . S
H437 C446 0.930 . S
H438 C448 0.930 . S
H439 C451 0.929 . S
H440 C454 0.930 . S
H441 C456 0.960 . S
H442 C456 0.960 . S
H443 C456 0.960 . S
C444 H436 0.929 . S
C444 C445 1.377 . S
C444 C446 1.384 . S
C445 C444 1.377 . S
C445 C451 1.390 . S
C446 H437 0.930 . S
C446 C444 1.384 . S
C446 C447 1.372 . S
C447 C446 1.372 . S
C447 C448 1.400 . S
C447 C452 1.490 . S
C448 H438 0.930 . S
C448 C447 1.400 . S
C448 C451 1.386 . S
H449 C465 0.930 . S
H450 C466 0.931 . S
C451 H439 0.929 . S
C451 C445 1.390 . S
C451 C448 1.386 . S
C452 C447 1.490 . S
C452 C454 1.395 . S
C452 C455 1.403 . S
H453 C459 0.930 . S
C454 H440 0.930 . S
C454 C452 1.395 . S
C454 C457 1.403 . S
C455 C452 1.403 . S
C455 C456 1.524 . S
C455 C459 1.400 . S
C456 H441 0.960 . S
C456 H442 0.960 . S
C456 H443 0.960 . S
C456 C455 1.524 . S
C457 C454 1.403 . S
C457 C458 1.392 . S
C457 C461 1.495 . S
C458 C457 1.392 . S
C458 C459 1.385 . S
C458 C460 1.478 . S
C459 H453 0.930 . S
C459 C455 1.400 . S
C459 C458 1.385 . S
C460 C458 1.478 . S
C460 C462 1.381 . S
C460 C466 1.383 . S
C461 C457 1.495 . S
C461 H467 0.959 . S
C461 H468 0.961 . S
C461 H469 0.960 . S
C462 C460 1.381 . S
C462 C463 1.394 . S
C462 H470 0.930 . S
C463 C462 1.394 . S
C463 C464 1.383 . S
C463 H471 0.929 . S
C464 C463 1.383 . S
C464 C465 1.377 . S
C465 H449 0.930 . S
C465 C464 1.377 . S
C465 C466 1.379 . S
C466 H450 0.931 . S
C466 C460 1.383 . S
C466 C465 1.379 . S
H467 C461 0.959 . S
H468 C461 0.961 . S
H469 C461 0.960 . S
H470 C462 0.930 . S
H471 C463 0.929 . S
H472 C480 0.929 . S
H473 C482 0.930 . S
H474 C484 0.930 . S
H475 C487 0.929 . S
H476 C490 0.930 . S
H477 C492 0.960 . S
H478 C492 0.960 . S
H479 C492 0.960 . S
C480 H472 0.929 . S
C480 C481 1.377 . S
C480 C482 1.384 . S
C481 C480 1.377 . S
C481 C487 1.390 . S
C482 H473 0.930 . S
C482 C480 1.384 . S
C482 C483 1.372 . S
C483 C482 1.372 . S
C483 C484 1.400 . S
C483 C488 1.490 . S
C484 H474 0.930 . S
C484 C483 1.400 . S
C484 C487 1.386 . S
H485 C501 0.930 . S
H486 C502 0.931 . S
C487 H475 0.929 . S
C487 C481 1.390 . S
C487 C484 1.386 . S
C488 C483 1.490 . S
C488 C490 1.395 . S
C488 C491 1.403 . S
H489 C495 0.930 . S
C490 H476 0.930 . S
C490 C488 1.395 . S
C490 C493 1.403 . S
C491 C488 1.403 . S
C491 C492 1.524 . S
C491 C495 1.400 . S
C492 H477 0.960 . S
C492 H478 0.960 . S
C492 H479 0.960 . S
C492 C491 1.524 . S
C493 C490 1.403 . S
C493 C494 1.392 . S
C493 C497 1.495 . S
C494 C493 1.392 . S
C494 C495 1.385 . S
C494 C496 1.478 . S
C495 H489 0.930 . S
C495 C491 1.400 . S
C495 C494 1.385 . S
C496 C494 1.478 . S
C496 C498 1.381 . S
C496 C502 1.383 . S
C497 C493 1.495 . S
C497 H503 0.959 . S
C497 H504 0.961 . S
C497 H505 0.960 . S
C498 C496 1.381 . S
C498 C499 1.394 . S
C498 H506 0.930 . S
C499 C498 1.394 . S
C499 C500 1.383 . S
C499 H507 0.929 . S
C500 C499 1.383 . S
C500 C501 1.377 . S
C501 H485 0.930 . S
C501 C500 1.377 . S
C501 C502 1.379 . S
C502 H486 0.931 . S
C502 C496 1.383 . S
C502 C501 1.379 . S
H503 C497 0.959 . S
H504 C497 0.961 . S
H505 C497 0.960 . S
H506 C498 0.930 . S
H507 C499 0.929 . S
H508 C516 0.929 . S
H509 C518 0.930 . S
H510 C520 0.930 . S
H511 C523 0.929 . S
H512 C526 0.930 . S
H513 C528 0.960 . S
H514 C528 0.960 . S
H515 C528 0.960 . S
C516 H508 0.929 . S
C516 C517 1.377 . S
C516 C518 1.384 . S
C517 C516 1.377 . S
C517 C523 1.390 . S
C518 H509 0.930 . S
C518 C516 1.384 . S
C518 C519 1.372 . S
C519 C518 1.372 . S
C519 C520 1.400 . S
C519 C524 1.490 . S
C520 H510 0.930 . S
C520 C519 1.400 . S
C520 C523 1.386 . S
H521 C537 0.930 . S
H522 C538 0.931 . S
C523 H511 0.929 . S
C523 C517 1.390 . S
C523 C520 1.386 . S
C524 C519 1.490 . S
C524 C526 1.395 . S
C524 C527 1.403 . S
H525 C531 0.930 . S
C526 H512 0.930 . S
C526 C524 1.395 . S
C526 C529 1.403 . S
C527 C524 1.403 . S
C527 C528 1.524 . S
C527 C531 1.400 . S
C528 H513 0.960 . S
C528 H514 0.960 . S
C528 H515 0.960 . S
C528 C527 1.524 . S
C529 C526 1.403 . S
C529 C530 1.392 . S
C529 C533 1.495 . S
C530 C529 1.392 . S
C530 C531 1.385 . S
C530 C532 1.478 . S
C531 H525 0.930 . S
C531 C527 1.400 . S
C531 C530 1.385 . S
C532 C530 1.478 . S
C532 C534 1.381 . S
C532 C538 1.383 . S
C533 C529 1.495 . S
C533 H539 0.959 . S
C533 H540 0.961 . S
C533 H541 0.960 . S
C534 C532 1.381 . S
C534 C535 1.394 . S
C534 H542 0.930 . S
C535 C534 1.394 . S
C535 C536 1.383 . S
C535 H543 0.929 . S
C536 C535 1.383 . S
C536 C537 1.377 . S
C537 H521 0.930 . S
C537 C536 1.377 . S
C537 C538 1.379 . S
C538 H522 0.931 . S
C538 C532 1.383 . S
C538 C537 1.379 . S
H539 C533 0.959 . S
H540 C533 0.961 . S
H541 C533 0.960 . S
H542 C534 0.930 . S
H543 C535 0.929 . S
H544 C552 0.929 . S
H545 C554 0.930 . S
H546 C556 0.930 . S
H547 C559 0.929 . S
H548 C562 0.930 . S
H549 C564 0.960 . S
H550 C564 0.960 . S
H551 C564 0.960 . S
C552 H544 0.929 . S
C552 C553 1.377 . S
C552 C554 1.384 . S
C553 C552 1.377 . S
C553 C559 1.390 . S
C554 H545 0.930 . S
C554 C552 1.384 . S
C554 C555 1.372 . S
C555 C554 1.372 . S
C555 C556 1.400 . S
C555 C560 1.490 . S
C556 H546 0.930 . S
C556 C555 1.400 . S
C556 C559 1.386 . S
H557 C573 0.930 . S
H558 C574 0.931 . S
C559 H547 0.929 . S
C559 C553 1.390 . S
C559 C556 1.386 . S
C560 C555 1.490 . S
C560 C562 1.395 . S
C560 C563 1.403 1_455 S
H561 C567 0.930 . S
C562 H548 0.930 . S
C562 C560 1.395 . S
C562 C565 1.403 1_545 S
C563 C560 1.403 1_655 S
C563 C564 1.524 . S
C563 C567 1.400 1_545 S
C564 H549 0.960 . S
C564 H550 0.960 . S
C564 H551 0.960 . S
C564 C563 1.524 . S
C565 C562 1.403 1_565 S
C565 C566 1.392 1_455 S
C565 C569 1.495 . S
C566 C565 1.392 1_655 S
C566 C567 1.385 . S
C566 C568 1.478 . S
C567 H561 0.930 . S
C567 C563 1.400 1_565 S
C567 C566 1.385 . S
C568 C566 1.478 . S
C568 C570 1.381 . S
C568 C574 1.383 . S
C569 C565 1.495 . S
C569 H575 0.959 . S
C569 H576 0.961 . S
C569 H577 0.960 . S
C570 C568 1.381 . S
C570 C571 1.394 . S
C570 H578 0.930 . S
C571 C570 1.394 . S
C571 C572 1.383 . S
C571 H579 0.929 . S
C572 C571 1.383 . S
C572 C573 1.377 . S
C573 H557 0.930 . S
C573 C572 1.377 . S
C573 C574 1.379 . S
C574 H558 0.931 . S
C574 C568 1.383 . S
C574 C573 1.379 . S
H575 C569 0.959 . S
H576 C569 0.961 . S
H577 C569 0.960 . S
H578 C570 0.930 . S
H579 C571 0.929 . S
H580 C588 0.929 . S
H581 C590 0.930 . S
H582 C592 0.930 . S
H583 C595 0.929 . S
H584 C598 0.930 . S
H585 C600 0.960 1_655 S
H586 C600 0.960 . S
H587 C600 0.960 . S
C588 H580 0.929 . S
C588 C589 1.377 . S
C588 C590 1.384 . S
C589 C588 1.377 . S
C589 C595 1.390 . S
C590 H581 0.930 . S
C590 C588 1.384 . S
C590 C591 1.372 . S
C591 C590 1.372 . S
C591 C592 1.400 . S
C591 C596 1.490 . S
C592 H582 0.930 . S
C592 C591 1.400 . S
C592 C595 1.386 . S
H593 C609 0.930 . S
H594 C610 0.931 . S
C595 H583 0.929 . S
C595 C589 1.390 . S
C595 C592 1.386 . S
C596 C591 1.490 . S
C596 C598 1.395 1_565 S
C596 C599 1.403 . S
H597 C603 0.930 . S
C598 H584 0.930 . S
C598 C596 1.395 1_545 S
C598 C601 1.388 1_455 S
C599 C596 1.403 . S
C599 C600 1.524 . S
C599 C603 1.400 1_455 S
C600 H585 0.960 1_455 S
C600 H586 0.960 . S
C600 H587 0.960 . S
C600 C599 1.524 . S
C601 C598 1.388 1_655 S
C601 C602 1.407 . S
C601 C605 1.496 . S
C602 C601 1.407 . S
C602 C603 1.385 1_545 S
C602 C604 1.478 . S
C603 H597 0.930 . S
C603 C599 1.400 1_655 S
C603 C602 1.385 1_565 S
C604 C602 1.478 . S
C604 C606 1.381 . S
C604 C610 1.383 . S
C605 C601 1.496 . S
C605 H611 0.959 1_655 S
C605 H612 0.961 . S
C605 H613 0.960 . S
C606 C604 1.381 . S
C606 C607 1.394 . S
C606 H614 0.930 . S
C607 C606 1.394 . S
C607 C608 1.383 . S
C607 H615 0.929 . S
C608 C607 1.383 . S
C608 C609 1.377 . S
C609 H593 0.930 . S
C609 C608 1.377 . S
C609 C610 1.379 . S
C610 H594 0.931 . S
C610 C604 1.383 . S
C610 C609 1.379 . S
H611 C605 0.959 1_455 S
H612 C605 0.961 . S
H613 C605 0.960 . S
H614 C606 0.930 . S
H615 C607 0.929 . S
H616 C624 0.929 . S
H617 C626 0.930 . S
H618 C628 0.930 . S
H619 C631 0.929 . S
H620 C634 0.930 . S
H621 C636 0.960 1_565 S
H622 C636 0.960 . S
H623 C636 0.960 . S
C624 H616 0.929 . S
C624 C625 1.377 . S
C624 C626 1.384 . S
C625 C624 1.377 . S
C625 C631 1.390 . S
C626 H617 0.930 . S
C626 C624 1.384 . S
C626 C627 1.372 . S
C627 C626 1.372 . S
C627 C628 1.400 . S
C627 C632 1.490 . S
C628 H618 0.930 . S
C628 C627 1.400 . S
C628 C631 1.386 . S
H629 C645 0.930 . S
H630 C646 0.931 . S
C631 H619 0.929 . S
C631 C625 1.390 . S
C631 C628 1.386 . S
C632 C627 1.490 . S
C632 C634 1.395 1_655 S
C632 C635 1.403 . S
H633 C639 0.930 . S
C634 H620 0.930 . S
C634 C632 1.395 1_455 S
C634 C637 1.403 1_545 S
C635 C632 1.403 . S
C635 C636 1.524 . S
C635 C639 1.400 1_545 S
C636 H621 0.960 1_545 S
C636 H622 0.960 . S
C636 H623 0.960 . S
C636 C635 1.524 . S
C637 C634 1.403 1_565 S
C637 C638 1.392 . S
C637 C641 1.495 . S
C638 C637 1.392 . S
C638 C639 1.385 1_455 S
C638 C640 1.478 . S
C639 H633 0.930 . S
C639 C635 1.400 1_565 S
C639 C638 1.385 1_655 S
C640 C638 1.478 . S
C640 C642 1.381 . S
C640 C646 1.383 . S
C641 C637 1.495 . S
C641 H647 0.959 1_565 S
C641 H648 0.961 . S
C641 H649 0.960 . S
C642 C640 1.381 . S
C642 C643 1.394 . S
C642 H650 0.930 . S
C643 C642 1.394 . S
C643 C644 1.383 . S
C643 H651 0.929 . S
C644 C643 1.383 . S
C644 C645 1.377 . S
C645 H629 0.930 . S
C645 C644 1.377 . S
C645 C646 1.379 . S
C646 H630 0.931 . S
C646 C640 1.383 . S
C646 C645 1.379 . S
H647 C641 0.959 1_545 S
H648 C641 0.961 . S
H649 C641 0.960 . S
H650 C642 0.930 . S
H651 C643 0.929 . S
H652 C660 0.929 . S
H653 C662 0.930 . S
H654 C664 0.930 . S
H655 C667 0.929 . S
H656 C670 0.930 . S
H657 C672 0.960 1_455 S
H658 C672 0.960 . S
H659 C672 0.960 . S
C660 H652 0.929 . S
C660 C661 1.377 . S
C660 C662 1.384 . S
C661 C660 1.377 . S
C661 C667 1.390 . S
C662 H653 0.930 . S
C662 C660 1.384 . S
C662 C663 1.372 . S
C663 C662 1.372 . S
C663 C664 1.400 . S
C663 C668 1.490 . S
C664 H654 0.930 . S
C664 C663 1.400 . S
C664 C667 1.386 . S
H665 C681 0.930 . S
H666 C682 0.931 . S
C667 H655 0.929 . S
C667 C661 1.390 . S
C667 C664 1.386 . S
C668 C663 1.490 . S
C668 C670 1.395 1_565 S
C668 C671 1.403 . S
H669 C675 0.930 . S
C670 H656 0.930 . S
C670 C668 1.395 1_545 S
C670 C673 1.403 1_655 S
C671 C668 1.403 . S
C671 C672 1.524 . S
C671 C675 1.400 1_655 S
C672 H657 0.960 1_655 S
C672 H658 0.960 . S
C672 H659 0.960 . S
C672 C671 1.524 . S
C673 C670 1.403 1_455 S
C673 C674 1.392 . S
C673 C677 1.495 . S
C674 C673 1.392 . S
C674 C675 1.385 1_545 S
C674 C676 1.478 . S
C675 H669 0.930 . S
C675 C671 1.400 1_455 S
C675 C674 1.385 1_565 S
C676 C674 1.478 . S
C676 C678 1.381 . S
C676 C682 1.383 . S
C677 C673 1.495 . S
C677 H683 0.959 1_455 S
C677 H684 0.961 . S
C677 H685 0.960 . S
C678 C676 1.381 . S
C678 C679 1.394 . S
C678 H686 0.930 . S
C679 C678 1.394 . S
C679 C680 1.383 . S
C679 H687 0.929 . S
C680 C679 1.383 . S
C680 C681 1.377 . S
C681 H665 0.930 . S
C681 C680 1.377 . S
C681 C682 1.379 . S
C682 H666 0.931 . S
C682 C676 1.383 . S
C682 C681 1.379 . S
H683 C677 0.959 1_655 S
H684 C677 0.961 . S
H685 C677 0.960 . S
H686 C678 0.930 . S
H687 C679 0.929 . S
C121 C12 1.806 . S
C140 C28 1.812 . S
C157 C42 1.802 . S
C176 C26 1.786 . S
C193 C85 1.799 . S
C212 C57 1.781 . S
C229 C71 1.801 . S
C248 C99 1.811 . S
C265 C96 1.620 . S
C284 C1 1.607 . S
C301 C15 1.620 . S
C320 C110 1.618 . S
C337 C41 1.617 . S
C356 C68 1.603 . S
C373 C82 1.616 . S
C392 C55 1.615 . S
C409 C0 1.679 . S
C428 C83 1.671 . S
C445 C97 1.678 . S
C464 C14 1.677 . S
C481 C111 1.679 . S
C500 C40 1.684 . S
C517 C54 1.680 . S
C536 C69 1.682 . S
C553 C13 1.397 . S
C572 C29 1.374 . S
C589 C43 1.403 . S
C608 C27 1.419 . S
C625 C84 1.405 . S
C644 C56 1.420 . S
C661 C98 1.406 . S
C680 C70 1.414 . S
