# Generated by pormake.
# Topology mok, (4)-cn, num edge types: 1
# Building blocks:
#     Node 0, Type 0, BuildingBlock: GALJAG_clean_sbu_0, # of connection points: 4
#     Node 1, Type 0, BuildingBlock: GALJAG_clean_sbu_0, # of connection points: 4
#     Node 2, Type 0, BuildingBlock: GALJAG_clean_sbu_0, # of connection points: 4
#     Node 3, Type 0, BuildingBlock: GALJAG_clean_sbu_0, # of connection points: 4
#     Node 4, Type 0, BuildingBlock: GALJAG_clean_sbu_0, # of connection points: 4
#     Node 5, Type 0, BuildingBlock: GALJAG_clean_sbu_0, # of connection points: 4
#     Node 6, Type 0, BuildingBlock: GALJAG_clean_sbu_0, # of connection points: 4
#     Node 7, Type 0, BuildingBlock: GALJAG_clean_sbu_0, # of connection points: 4
#     Edge 8, Type (0, 0), BuildingBlock: XUDNAN_clean_linker_2, # of connection points: 2
#     Edge 9, Type (0, 0), BuildingBlock: XUDNAN_clean_linker_2, # of connection points: 2
#     Edge 10, Type (0, 0), BuildingBlock: XUDNAN_clean_linker_2, # of connection points: 2
#     Edge 11, Type (0, 0), BuildingBlock: XUDNAN_clean_linker_2, # of connection points: 2
#     Edge 12, Type (0, 0), BuildingBlock: XUDNAN_clean_linker_2, # of connection points: 2
#     Edge 13, Type (0, 0), BuildingBlock: XUDNAN_clean_linker_2, # of connection points: 2
#     Edge 14, Type (0, 0), BuildingBlock: XUDNAN_clean_linker_2, # of connection points: 2
#     Edge 15, Type (0, 0), BuildingBlock: XUDNAN_clean_linker_2, # of connection points: 2
#     Edge 16, Type (0, 0), BuildingBlock: XUDNAN_clean_linker_2, # of connection points: 2
#     Edge 17, Type (0, 0), BuildingBlock: XUDNAN_clean_linker_2, # of connection points: 2
#     Edge 18, Type (0, 0), BuildingBlock: XUDNAN_clean_linker_2, # of connection points: 2
#     Edge 19, Type (0, 0), BuildingBlock: XUDNAN_clean_linker_2, # of connection points: 2
#     Edge 20, Type (0, 0), BuildingBlock: XUDNAN_clean_linker_2, # of connection points: 2
#     Edge 21, Type (0, 0), BuildingBlock: XUDNAN_clean_linker_2, # of connection points: 2
#     Edge 22, Type (0, 0), BuildingBlock: XUDNAN_clean_linker_2, # of connection points: 2
#     Edge 23, Type (0, 0), BuildingBlock: XUDNAN_clean_linker_2, # of connection points: 2
# Relax obj value: 0.070
# Max RMSD: 0.103
# Mean RMSD: 0.103
data_MOF--net-mok--node1-GALJAG_clean_sbu_0--edge1-XUDNAN_clean_linker_2
_symmetry_space_group_name_H-M    P1
_symmetry_Int_Tables_number       1
_symmetry_cell_setting            triclinic
loop_
_symmetry_equiv_pos_as_xyz
'x, y, z'
_cell_length_a     54.529079
_cell_length_b     13.882442
_cell_length_c     28.315699
_cell_angle_alpha  90.003945
_cell_angle_beta   89.899119
_cell_angle_gamma 90.004187
loop_
_atom_site_label
_atom_site_type_symbol
_atom_site_fract_x
_atom_site_fract_y
_atom_site_fract_z
_atom_type_partial_charge
In0 In 0.60621 0.29245 0.0112 0.0
O1 O 0.60426 0.41429 0.95625 0.0
O2 O 0.60274 0.26709 0.93381 0.0
C3 C 0.60343 0.34885 0.10123 0.0
C4 C 0.56132 0.21524 0.01168 0.0
C5 C 0.65306 0.23358 0.00928 0.0
O6 O 0.60484 0.41043 0.06814 0.0
O7 O 0.60405 0.26184 0.08837 0.0
O8 O 0.63532 0.17459 0.00928 0.0
O9 O 0.64701 0.32142 0.01024 0.0
C10 C 0.60211 0.3549 0.92236 0.0
O11 O 0.58049 0.16333 0.01083 0.0
O12 O 0.56503 0.30518 0.01239 0.0
In13 In 0.37703 0.68933 0.00876 0.0
O14 O 0.38802 0.84781 0.00795 0.0
O15 O 0.41611 0.74038 0.01234 0.0
C16 C 0.3279 0.67772 0.00389 0.0
C17 C 0.39001 0.63263 0.92196 0.0
C18 C 0.3839 0.64151 0.09936 0.0
O19 O 0.33905 0.75774 0.00401 0.0
O20 O 0.34159 0.60447 0.00578 0.0
O21 O 0.38823 0.58143 0.06659 0.0
O22 O 0.37578 0.72206 0.08599 0.0
C23 C 0.41076 0.82894 0.01046 0.0
O24 O 0.39191 0.57578 0.95688 0.0
O25 O 0.38091 0.71407 0.93112 0.0
In26 In 0.61825 0.66617 0.51174 0.0
O27 O 0.60271 0.54931 0.55867 0.0
O28 O 0.61828 0.67185 0.59247 0.0
C29 C 0.60947 0.58397 0.42728 0.0
C30 C 0.5858 0.81249 0.50916 0.0
C31 C 0.66775 0.66042 0.51404 0.0
O32 O 0.60455 0.54336 0.466 0.0
O33 O 0.61894 0.66652 0.43101 0.0
O34 O 0.65612 0.73919 0.5124 0.0
O35 O 0.65443 0.58629 0.51457 0.0
C36 C 0.60779 0.5912 0.59698 0.0
O37 O 0.60868 0.82671 0.50683 0.0
O38 O 0.57958 0.7255 0.51312 0.0
In39 In 0.39995 0.33817 0.51277 0.0
O40 O 0.42104 0.19397 0.51065 0.0
O41 O 0.44039 0.3259 0.50064 0.0
C42 C 0.35151 0.31374 0.5268 0.0
C43 C 0.40997 0.41262 0.59802 0.0
C44 C 0.39853 0.42346 0.42767 0.0
O45 O 0.36501 0.24285 0.51551 0.0
O46 O 0.3625 0.39326 0.52993 0.0
O47 O 0.4031 0.46874 0.46535 0.0
O48 O 0.39444 0.33445 0.43287 0.0
C49 C 0.44145 0.23545 0.50341 0.0
O50 O 0.41109 0.46163 0.56042 0.0
O51 O 0.40412 0.32522 0.59249 0.0
In52 In 0.1028 0.8258 0.01092 0.0
O53 O 0.07948 0.68814 0.01264 0.0
O54 O 0.06159 0.82335 0.02042 0.0
C55 C 0.14916 0.75932 0.0078 0.0
C56 C 0.0974 0.90198 0.92363 0.0
C57 C 0.10609 0.91823 0.09466 0.0
O58 O 0.13099 0.70323 0.01203 0.0
O59 O 0.14378 0.84748 0.00507 0.0
O60 O 0.1062 0.96179 0.05547 0.0
O61 O 0.10411 0.82783 0.09169 0.0
C62 C 0.05951 0.73305 0.01831 0.0
O63 O 0.09342 0.94929 0.96096 0.0
O64 O 0.1042 0.81622 0.93024 0.0
In65 In 0.88153 0.17309 0.99589 0.0
O66 O 0.89305 0.07656 0.93384 0.0
O67 O 0.88021 0.21841 0.91925 0.0
C68 C 0.89133 0.07732 0.07628 0.0
C69 C 0.91445 0.31514 0.00696 0.0
C70 C 0.83222 0.1636 0.99897 0.0
O71 O 0.89591 0.04139 0.03608 0.0
O72 O 0.88208 0.16061 0.07542 0.0
O73 O 0.84355 0.24276 0.003 0.0
O74 O 0.84577 0.0909 0.99329 0.0
C75 C 0.88821 0.13984 0.90301 0.0
O76 O 0.89159 0.32998 0.01016 0.0
O77 O 0.92048 0.22911 0.9982 0.0
In78 In 0.1246 0.20291 0.5134 0.0
O79 O 0.11548 0.07495 0.56355 0.0
O80 O 0.11317 0.21899 0.58894 0.0
C81 C 0.1232 0.15012 0.42175 0.0
C82 C 0.08883 0.33502 0.5058 0.0
C83 C 0.17274 0.23443 0.52923 0.0
O84 O 0.11676 0.09206 0.45408 0.0
O85 O 0.13058 0.23086 0.43624 0.0
O86 O 0.15667 0.29961 0.53183 0.0
O87 O 0.16461 0.15208 0.51858 0.0
C88 C 0.11059 0.1308 0.59776 0.0
O89 O 0.1112 0.35755 0.51005 0.0
O90 O 0.08454 0.2455 0.50469 0.0
In91 In 0.89334 0.80236 0.49591 0.0
O92 O 0.91841 0.67131 0.50504 0.0
O93 O 0.93461 0.81047 0.49771 0.0
C94 C 0.84673 0.73933 0.50207 0.0
C95 C 0.89481 0.90586 0.57621 0.0
C96 C 0.89584 0.84252 0.40297 0.0
O97 O 0.86484 0.68327 0.50734 0.0
O98 O 0.85228 0.8258 0.49349 0.0
O99 O 0.89467 0.90851 0.43379 0.0
O100 O 0.89542 0.75793 0.41922 0.0
C101 C 0.93787 0.72104 0.50284 0.0
O102 O 0.89469 0.94561 0.53592 0.0
O103 O 0.89419 0.81497 0.57554 0.0
H104 H 0.79821 0.30952 0.00429 0.0
H105 H 0.8053 0.99835 0.99779 0.0
H106 H 0.76028 0.98206 1.00051 0.0
H107 H 0.74666 0.31544 0.08434 0.0
H108 H 0.73217 0.41611 0.05546 0.0
H109 H 0.76502 0.40343 0.05357 0.0
H110 H 0.76393 0.40956 0.96211 0.0
H111 H 0.73107 0.42224 0.96373 0.0
H112 H 0.74484 0.32571 0.93036 0.0
H113 H 0.7145 0.99917 0.00358 0.0
H114 H 0.67099 0.04942 0.00605 0.0
H115 H 0.6937 0.34902 0.00987 0.0
C116 C 0.79027 0.23803 0.00356 0.0
C117 C 0.80523 0.15521 1.00087 0.0
C118 C 0.79417 0.06285 0.9998 0.0
C119 C 0.76862 0.05278 0.00137 0.0
C120 C 0.75437 0.13577 0.00391 0.0
C121 C 0.76475 0.22664 0.00493 0.0
C122 C 0.74523 0.30408 0.00711 0.0
C123 C 0.7474 0.36323 0.05285 0.0
C124 C 0.74634 0.36922 0.96321 0.0
C125 C 0.72229 0.2425 0.0072 0.0
C126 C 0.72796 0.14561 0.0054 0.0
C127 C 0.70981 0.07486 0.005 0.0
C128 C 0.68518 0.10401 0.00641 0.0
C129 C 0.67899 0.20296 0.00813 0.0
C130 C 0.69786 0.27278 0.00857 0.0
H131 H 0.19029 0.87055 0.00318 0.0
H132 H 0.16606 0.57304 0.00945 0.0
H133 H 0.20936 0.51912 0.0075 0.0
H134 H 0.24115 0.83355 0.92401 0.0
H135 H 0.26047 0.92042 0.95319 0.0
H136 H 0.22764 0.93479 0.95429 0.0
H137 H 0.22843 0.9405 0.04579 0.0
H138 H 0.26125 0.92624 0.04497 0.0
H139 H 0.24249 0.84317 0.07804 0.0
H140 H 0.2554 0.49874 0.00559 0.0
H141 H 0.30056 0.51283 0.00511 0.0
H142 H 0.29427 0.82436 1.00061 0.0
C143 C 0.19405 0.79396 0.00399 0.0
C144 C 0.17485 0.7258 0.00637 0.0
C145 C 0.18053 0.62635 0.00759 0.0
C146 C 0.20503 0.59517 0.00645 0.0
C147 C 0.22353 0.66445 0.00415 0.0
C148 C 0.21831 0.76178 0.003 0.0
C149 C 0.24147 0.8218 0.00128 0.0
C150 C 0.24275 0.88111 0.95546 0.0
C151 C 0.24352 0.88673 0.04513 0.0
C152 C 0.26063 0.74309 0.00176 0.0
C153 C 0.24993 0.65282 0.00329 0.0
C154 C 0.26396 0.56903 0.00433 0.0
C155 C 0.28959 0.57781 0.00403 0.0
C156 C 0.3009 0.6697 0.00279 0.0
C157 C 0.28615 0.75317 0.00147 0.0
H158 H 0.80564 0.85144 0.49678 0.0
H159 H 0.82956 0.55589 0.51614 0.0
H160 H 0.78624 0.50402 0.52227 0.0
H161 H 0.75493 0.84245 0.57844 0.0
H162 H 0.73552 0.91834 0.54286 0.0
H163 H 0.76834 0.93189 0.54013 0.0
H164 H 0.76719 0.90646 0.44949 0.0
H165 H 0.73436 0.89289 0.45192 0.0
H166 H 0.75297 0.79963 0.42582 0.0
H167 H 0.74041 0.48459 0.52497 0.0
H168 H 0.69531 0.49825 0.52486 0.0
H169 H 0.70131 0.80735 0.50481 0.0
C170 C 0.80179 0.77574 0.50232 0.0
C171 C 0.82094 0.70749 0.50591 0.0
C172 C 0.81515 0.60926 0.51327 0.0
C173 C 0.79063 0.57922 0.51681 0.0
C174 C 0.77219 0.64845 0.51307 0.0
C175 C 0.77748 0.74469 0.50609 0.0
C176 C 0.7543 0.80462 0.50322 0.0
C177 C 0.75322 0.87868 0.54357 0.0
C178 C 0.75208 0.85376 0.45473 0.0
C179 C 0.73507 0.72696 0.50945 0.0
C180 C 0.7458 0.63742 0.51506 0.0
C181 C 0.73182 0.55433 0.52076 0.0
C182 C 0.70621 0.56289 0.52061 0.0
C183 C 0.69481 0.6539 0.51491 0.0
C184 C 0.7095 0.73693 0.50944 0.0
H185 H 0.21284 0.1247 0.50362 0.0
H186 H 0.19174 0.39068 0.57335 0.0
H187 H 0.23525 0.4311 0.5852 0.0
H188 H 0.26761 0.07451 0.57597 0.0
H189 H 0.28528 0.03062 0.5266 0.0
H190 H 0.2524 0.01713 0.52698 0.0
H191 H 0.24979 0.10564 0.44665 0.0
H192 H 0.28262 0.11947 0.44602 0.0
H193 H 0.26315 0.22384 0.44073 0.0
H194 H 0.27994 0.44868 0.58575 0.0
H195 H 0.32445 0.44597 0.57324 0.0
H196 H 0.31837 0.16998 0.50193 0.0
C197 C 0.21746 0.19062 0.52202 0.0
C198 C 0.19895 0.25445 0.53786 0.0
C199 C 0.20562 0.34085 0.56099 0.0
C200 C 0.23028 0.36424 0.56806 0.0
C201 C 0.24809 0.30065 0.55162 0.0
C202 C 0.24214 0.21572 0.52898 0.0
C203 C 0.26512 0.16372 0.51226 0.0
C204 C 0.26775 0.06567 0.53693 0.0
C205 C 0.26516 0.15255 0.4582 0.0
C206 C 0.28481 0.2337 0.52844 0.0
C207 C 0.2744 0.31152 0.55143 0.0
C208 C 0.28836 0.3879 0.56812 0.0
C209 C 0.31366 0.3857 0.56066 0.0
C210 C 0.3249 0.30775 0.53662 0.0
C211 C 0.3103 0.22992 0.52085 0.0
H212 H 0.61458 0.51998 0.14638 0.0
H213 H 0.58571 0.23231 0.16957 0.0
H214 H 0.58202 0.26563 0.25452 0.0
H215 H 0.65126 0.52588 0.2498 0.0
H216 H 0.64593 0.65127 0.26275 0.0
H217 H 0.64444 0.60902 0.20271 0.0
H218 H 0.60045 0.67772 0.19496 0.0
H219 H 0.60183 0.72043 0.255 0.0
H220 H 0.57724 0.64203 0.23688 0.0
H221 H 0.58309 0.3246 0.3365 0.0
H222 H 0.58974 0.40654 0.41257 0.0
H223 H 0.61883 0.65572 0.33853 0.0
C224 C 0.60718 0.46483 0.16938 0.0
C225 C 0.60038 0.37372 0.15149 0.0
C226 C 0.5911 0.30255 0.18261 0.0
C227 C 0.58883 0.32081 0.2309 0.0
C228 C 0.59599 0.41054 0.24766 0.0
C229 C 0.60501 0.48154 0.2181 0.0
C230 C 0.61266 0.56966 0.24613 0.0
C231 C 0.64021 0.59011 0.23997 0.0
C232 C 0.59711 0.65767 0.23242 0.0
C233 C 0.60682 0.53612 0.29589 0.0
C234 C 0.597 0.44444 0.29573 0.0
C235 C 0.59063 0.39668 0.3372 0.0
C236 C 0.59452 0.44374 0.38021 0.0
C237 C 0.60479 0.53732 0.3814 0.0
C238 C 0.61087 0.58424 0.33863 0.0
H239 H 0.38551 0.46707 0.14644 0.0
H240 H 0.39279 0.77592 0.16593 0.0
H241 H 0.39894 0.752 0.25115 0.0
H242 H 0.35092 0.42671 0.25157 0.0
H243 H 0.36492 0.31258 0.26545 0.0
H244 H 0.36301 0.35193 0.20496 0.0
H245 H 0.41005 0.33316 0.19593 0.0
H246 H 0.4121 0.2933 0.25637 0.0
H247 H 0.43013 0.39442 0.23658 0.0
H248 H 0.40292 0.69782 0.3336 0.0
H249 H 0.40375 0.61507 0.41052 0.0
H250 H 0.39252 0.3407 0.34006 0.0
C251 C 0.38874 0.5292 0.16871 0.0
C252 C 0.38876 0.62328 0.14973 0.0
C253 C 0.39263 0.70323 0.17987 0.0
C254 C 0.39623 0.69046 0.22828 0.0
C255 C 0.39573 0.59726 0.24615 0.0
C256 C 0.39204 0.51782 0.21755 0.0
C257 C 0.39107 0.42615 0.24668 0.0
C258 C 0.36599 0.37644 0.24187 0.0
C259 C 0.4121 0.35773 0.23308 0.0
C260 C 0.39464 0.46699 0.29592 0.0
C261 C 0.39748 0.56579 0.29455 0.0
C262 C 0.40079 0.62039 0.33526 0.0
C263 C 0.4012 0.57275 0.37877 0.0
C264 C 0.39816 0.47163 0.38124 0.0
C265 C 0.39487 0.41814 0.3392 0.0
H266 H 0.39096 0.45696 0.87636 0.0
H267 H 0.40831 0.75996 0.85941 0.0
H268 H 0.42019 0.73111 0.77672 0.0
H269 H 0.43919 0.36124 0.79473 0.0
H270 H 0.41913 0.26967 0.77145 0.0
H271 H 0.41552 0.31021 0.83156 0.0
H272 H 0.37 0.35155 0.81491 0.0
H273 H 0.37349 0.31138 0.75488 0.0
H274 H 0.36258 0.43151 0.76683 0.0
H275 H 0.42623 0.67535 0.69501 0.0
H276 H 0.42463 0.59592 0.61724 0.0
H277 H 0.40239 0.32887 0.68465 0.0
C278 C 0.39787 0.51634 0.8554 0.0
C279 C 0.39892 0.61047 0.87411 0.0
C280 C 0.40739 0.68729 0.84555 0.0
C281 C 0.41433 0.67158 0.79867 0.0
C282 C 0.41259 0.57861 0.78075 0.0
C283 C 0.40454 0.50209 0.80801 0.0
C284 C 0.40204 0.41161 0.77838 0.0
C285 C 0.42005 0.33357 0.79503 0.0
C286 C 0.37545 0.37438 0.77878 0.0
C287 C 0.40921 0.45028 0.73017 0.0
C288 C 0.41563 0.54638 0.73265 0.0
C289 C 0.42157 0.59974 0.69258 0.0
C290 C 0.42055 0.55409 0.64857 0.0
C291 C 0.41349 0.4563 0.64499 0.0
C292 C 0.40815 0.40343 0.68644 0.0
H293 H 0.61502 0.52463 0.87752 0.0
H294 H 0.58056 0.24642 0.85528 0.0
H295 H 0.57567 0.28312 0.77093 0.0
H296 H 0.57825 0.65954 0.78963 0.0
H297 H 0.60399 0.73083 0.77019 0.0
H298 H 0.60264 0.68792 0.83022 0.0
H299 H 0.6451 0.60688 0.81974 0.0
H300 H 0.64654 0.64923 0.75971 0.0
H301 H 0.64969 0.52248 0.77213 0.0
H302 H 0.57672 0.34236 0.68929 0.0
H303 H 0.5844 0.42146 0.61289 0.0
H304 H 0.61904 0.66124 0.68534 0.0
C305 C 0.60607 0.47256 0.8549 0.0
C306 C 0.59809 0.3829 0.87281 0.0
C307 C 0.58686 0.31547 0.84217 0.0
C308 C 0.58388 0.33574 0.79425 0.0
C309 C 0.5923 0.42371 0.77737 0.0
C310 C 0.60318 0.49126 0.8065 0.0
C311 C 0.61207 0.57725 0.77816 0.0
C312 C 0.59842 0.66934 0.79294 0.0
C313 C 0.64001 0.58963 0.78271 0.0
C314 C 0.60491 0.54612 0.72868 0.0
C315 C 0.59327 0.45779 0.72934 0.0
C316 C 0.58562 0.41199 0.6882 0.0
C317 C 0.59013 0.4574 0.64499 0.0
C318 C 0.60228 0.54741 0.64323 0.0
C319 C 0.60958 0.59266 0.6857 0.0
H320 H 0.10276 0.84258 0.18444 0.0
H321 H 0.11554 0.10891 0.10783 0.0
H322 H 0.12121 0.19479 0.18323 0.0
H323 H 0.06869 0.95029 0.28129 0.0
H324 H 0.08158 0.87188 0.32549 0.0
H325 H 0.07844 0.83042 0.26551 0.0
H326 H 0.12482 0.79068 0.26282 0.0
H327 H 0.12813 0.83224 0.32274 0.0
H328 H 0.14682 0.88347 0.27657 0.0
H329 H 0.12664 0.25108 0.26534 0.0
H330 H 0.12987 0.27809 0.35077 0.0
H331 H 0.11254 0.97722 0.37666 0.0
C332 C 0.10669 0.91903 0.18362 0.0
C333 C 0.10875 0.96918 0.14024 0.0
C334 C 0.11385 0.06913 0.14058 0.0
C335 C 0.11714 0.1185 0.18323 0.0
C336 C 0.11512 0.06705 0.22528 0.0
C337 C 0.10987 0.96977 0.22602 0.0
C338 C 0.10857 0.93236 0.27642 0.0
C339 C 0.08278 0.89399 0.28784 0.0
C340 C 0.12826 0.85512 0.28514 0.0
C341 C 0.11406 0.02388 0.30379 0.0
C342 C 0.11785 0.10032 0.27333 0.0
C343 C 0.12361 0.19199 0.28958 0.0
C344 C 0.12546 0.20641 0.33829 0.0
C345 C 0.12145 0.12979 0.37051 0.0
C346 C 0.11564 0.03717 0.35293 0.0
H347 H 0.88939 0.01432 0.35626 0.0
H348 H 0.90651 0.71243 0.33394 0.0
H349 H 0.90932 0.74092 0.24809 0.0
H350 H 0.85104 0.03982 0.25532 0.0
H351 H 0.86096 0.16065 0.24194 0.0
H352 H 0.86174 0.11769 0.3019 0.0
H353 H 0.90798 0.15966 0.3069 0.0
H354 H 0.90735 0.20262 0.24688 0.0
H355 H 0.92889 0.11045 0.26381 0.0
H356 H 0.90949 0.80144 0.16428 0.0
H357 H 0.90503 0.88881 0.08854 0.0
H358 H 0.88677 0.14957 0.1655 0.0
C359 C 0.89392 0.9545 0.3333 0.0
C360 C 0.89782 0.86129 0.35173 0.0
C361 C 0.90345 0.78451 0.32055 0.0
C362 C 0.90517 0.79997 0.27174 0.0
C363 C 0.90111 0.89257 0.25461 0.0
C364 C 0.89551 0.96849 0.28438 0.0
C365 C 0.89094 0.06003 0.25671 0.0
C366 C 0.8646 0.09666 0.26443 0.0
C367 C 0.90992 0.13777 0.26933 0.0
C368 C 0.89463 0.02346 0.2068 0.0
C369 C 0.90073 0.92693 0.20631 0.0
C370 C 0.90476 0.87715 0.1642 0.0
C371 C 0.90223 0.92726 0.12139 0.0
C372 C 0.89553 0.02574 0.12118 0.0
C373 C 0.8919 0.07423 0.16453 0.0
H374 H 0.89823 0.83289 0.66557 0.0
H375 H 0.89234 0.10165 0.58813 0.0
H376 H 0.89175 0.19139 0.66366 0.0
H377 H 0.85814 0.89521 0.75944 0.0
H378 H 0.87576 0.83468 0.80432 0.0
H379 H 0.87674 0.79237 0.74425 0.0
H380 H 0.92408 0.8089 0.7439 0.0
H381 H 0.92325 0.85127 0.80403 0.0
H382 H 0.93785 0.9229 0.75893 0.0
H383 H 0.88961 0.25043 0.74754 0.0
H384 H 0.88697 0.27564 0.83368 0.0
H385 H 0.89531 0.96826 0.85643 0.0
C386 C 0.89698 0.91072 0.66444 0.0
C387 C 0.89531 0.96049 0.621 0.0
C388 C 0.89366 0.06222 0.62102 0.0
C389 C 0.89333 0.11369 0.66371 0.0
C390 C 0.89483 0.06226 0.70594 0.0
C391 C 0.89675 0.96308 0.70662 0.0
C392 C 0.89764 0.92485 0.75672 0.0
C393 C 0.87576 0.85784 0.76676 0.0
C394 C 0.92217 0.87399 0.76645 0.0
C395 C 0.89559 0.01799 0.78424 0.0
C396 C 0.89401 0.09639 0.75426 0.0
C397 C 0.89105 0.1897 0.77134 0.0
C398 C 0.88952 0.20321 0.82031 0.0
C399 C 0.89106 0.12393 0.85169 0.0
C400 C 0.89436 0.03028 0.83331 0.0
H401 H 0.11406 0.83042 0.83876 0.0
H402 H 0.07418 0.06926 0.90127 0.0
H403 H 0.06978 0.1433 0.8226 0.0
H404 H 0.14821 0.97116 0.75799 0.0
H405 H 0.14759 0.88418 0.71074 0.0
H406 H 0.14559 0.84449 0.77114 0.0
H407 H 0.10503 0.75543 0.75234 0.0
H408 H 0.10685 0.79523 0.69183 0.0
H409 H 0.07988 0.82108 0.72649 0.0
H410 H 0.07188 0.19695 0.73982 0.0
H411 H 0.08204 0.23279 0.65706 0.0
H412 H 0.12098 0.96113 0.64561 0.0
C413 C 0.10411 0.89761 0.83567 0.0
C414 C 0.09431 0.94399 0.87605 0.0
C415 C 0.08179 0.03256 0.87083 0.0
C416 C 0.07908 0.07487 0.82626 0.0
C417 C 0.08906 0.02783 0.78724 0.0
C418 C 0.10141 0.94142 0.79133 0.0
C419 C 0.11185 0.90993 0.74396 0.0
C420 C 0.13998 0.90202 0.7461 0.0
C421 C 0.1002 0.81476 0.7277 0.0
C422 C 0.10384 0.99326 0.71287 0.0
C423 C 0.09046 0.05961 0.73873 0.0
C424 C 0.08212 0.14523 0.71907 0.0
C425 C 0.08804 0.16494 0.67204 0.0
C426 C 0.10218 0.09951 0.64494 0.0
C427 C 0.10976 0.01147 0.66531 0.0
H428 H 0.46022 0.80121 0.01013 0.0
H429 H 0.40469 0.02519 0.01126 0.0
H430 H 0.43734 0.14922 0.01174 0.0
H431 H 0.50286 0.91796 0.08723 0.0
H432 H 0.52949 0.87618 0.05549 0.0
H433 H 0.50175 0.80583 0.05517 0.0
H434 H 0.50154 0.80846 0.96363 0.0
H435 H 0.52929 0.87879 0.96365 0.0
H436 H 0.50252 0.92238 0.93312 0.0
H437 H 0.47616 0.24788 0.01246 0.0
H438 H 0.51813 0.31455 0.0127 0.0
H439 H 0.54802 0.02476 0.01058 0.0
C440 C 0.45488 0.87635 0.01055 0.0
C441 C 0.42995 0.90384 0.01077 0.0
C442 C 0.42371 0.00278 0.01112 0.0
C443 C 0.44211 0.07355 0.0114 0.0
C444 C 0.46655 0.04383 0.0112 0.0
C445 C 0.47294 0.94758 0.01069 0.0
C446 C 0.50049 0.93438 0.0103 0.0
C447 C 0.50915 0.88042 0.0547 0.0
C448 C 0.50895 0.88298 0.96498 0.0
C449 C 0.50867 0.0384 0.0109 0.0
C450 C 0.48883 0.10043 0.01139 0.0
C451 C 0.49182 0.20001 0.01205 0.0
C452 C 0.51573 0.23711 0.0122 0.0
C453 C 0.5363 0.17473 0.01166 0.0
C454 C 0.53265 0.07416 0.011 0.0
H455 H 0.53618 0.79697 0.52082 0.0
H456 H 0.59396 0.00358 0.49122 0.0
H457 H 0.56292 0.13274 0.48462 0.0
H458 H 0.4912 0.89492 0.44161 0.0
H459 H 0.46569 0.87256 0.48069 0.0
H460 H 0.49237 0.79616 0.4829 0.0
H461 H 0.49714 0.83175 0.57223 0.0
H462 H 0.47042 0.90787 0.57036 0.0
H463 H 0.49907 0.95491 0.59209 0.0
H464 H 0.52597 0.23802 0.48086 0.0
H465 H 0.48553 0.31618 0.48316 0.0
H466 H 0.45131 0.0417 0.51608 0.0
C467 C 0.54231 0.86943 0.51296 0.0
C468 C 0.56747 0.8905 0.50643 0.0
C469 C 0.57479 0.98609 0.4964 0.0
C470 C 0.5573 0.0597 0.49247 0.0
C471 C 0.53264 0.03633 0.49886 0.0
C472 C 0.52512 0.94372 0.50913 0.0
C473 C 0.4975 0.93825 0.5151 0.0
C474 C 0.48602 0.87152 0.47784 0.0
C475 C 0.49064 0.90633 0.56544 0.0
C476 C 0.49063 0.04247 0.5065 0.0
C477 C 0.51122 0.09749 0.49705 0.0
C478 C 0.50972 0.19578 0.48825 0.0
C479 C 0.48662 0.2394 0.48963 0.0
C480 C 0.46524 0.18498 0.49982 0.0
C481 C 0.4673 0.08498 0.50802 0.0
H482 H 0.04906 0.54094 0.00617 0.0
H483 H 0.0154 0.81742 0.03672 0.0
H484 H 0.97469 0.74011 0.0392 0.0
H485 H 0.00198 0.45532 0.92967 0.0
H486 H 0.00379 0.33226 0.94967 0.0
H487 H 0.03047 0.40847 0.95231 0.0
H488 H 0.03459 0.37388 0.04189 0.0
H489 H 0.00794 0.29735 0.03949 0.0
H490 H 0.0089 0.39666 0.08046 0.0
H491 H 0.93747 0.63392 0.03606 0.0
H492 H 0.90638 0.50528 0.02765 0.0
H493 H 0.96424 0.29856 0.9989 0.0
C494 C 0.03314 0.58496 0.01375 0.0
C495 C 0.03538 0.68508 0.02135 0.0
C496 C 0.0141 0.7405 0.03081 0.0
C497 C 0.9909 0.6973 0.03234 0.0
C498 C 0.98926 0.59859 0.02432 0.0
C499 C 0.00979 0.54301 0.01527 0.0
C500 C 0.00288 0.43883 0.00672 0.0
C501 C 0.01022 0.40689 0.95661 0.0
C502 C 0.01425 0.37281 0.0444 0.0
C503 C 0.97528 0.44477 0.01209 0.0
C504 C 0.96779 0.53747 0.02236 0.0
C505 C 0.94311 0.56092 0.02818 0.0
C506 C 0.92559 0.48752 0.0233 0.0
C507 C 0.9329 0.39211 0.01268 0.0
C508 C 0.95809 0.37081 0.00716 0.0
H509 H 0.03912 0.30416 0.50449 0.0
H510 H 0.09409 0.53043 0.50408 0.0
H511 H 0.06132 0.65308 0.50408 0.0
H512 H 0.99579 0.42364 0.42799 0.0
H513 H 0.96928 0.38064 0.45973 0.0
H514 H 0.99706 0.31049 0.45914 0.0
H515 H 0.99747 0.31012 0.55065 0.0
H516 H 0.96974 0.38065 0.55152 0.0
H517 H 0.99664 0.42303 0.58207 0.0
H518 H 0.02296 0.75069 0.50449 0.0
H519 H 0.98118 0.81829 0.50421 0.0
H520 H 0.95075 0.52923 0.50519 0.0
C521 C 0.04425 0.37953 0.50415 0.0
C522 C 0.06914 0.40794 0.50417 0.0
C523 C 0.07513 0.50716 0.504 0.0
C524 C 0.05666 0.5773 0.50405 0.0
C525 C 0.03231 0.54695 0.50437 0.0
C526 C 0.02603 0.45055 0.50435 0.0
C527 C 0.99842 0.43753 0.50499 0.0
C528 C 0.98962 0.38498 0.4603 0.0
C529 C 0.99008 0.38472 0.54999 0.0
C530 C 0.99018 0.54177 0.50528 0.0
C531 C 0.01007 0.60353 0.50494 0.0
C532 C 0.00723 0.70313 0.50479 0.0
C533 C 0.98342 0.74077 0.50465 0.0
C534 C 0.96273 0.679 0.50474 0.0
C535 C 0.96622 0.57817 0.50531 0.0
loop_
_geom_bond_atom_site_label_1
_geom_bond_atom_site_label_2
_geom_bond_distance
_geom_bond_site_symmetry_2
_ccdc_geom_bond_type
In0 O1 2.294 1_554 S
In0 O2 2.326 1_554 S
In0 O6 2.266 . S
In0 O7 2.326 . S
In0 O8 2.266 . S
In0 O9 2.326 . S
In0 O11 2.292 1_554 S
In0 O12 2.326 . S
O1 In0 2.294 1_556 S
O1 C10 1.240 . S
O2 In0 2.326 1_556 S
O2 C10 1.252 . S
C3 O6 1.252 . S
C3 O7 1.260 . S
C4 O11 1.240 . S
C4 O12 1.252 1_556 S
C5 O8 1.252 . S
C5 O9 1.260 . S
O6 In0 2.266 . S
O6 C3 1.252 . S
O7 In0 2.326 . S
O7 C3 1.260 . S
O8 In0 2.266 . S
O8 C5 1.252 . S
O9 In0 2.326 . S
O9 C5 1.260 . S
C10 O1 1.240 . S
C10 O2 1.252 . S
O11 In0 2.292 1_556 S
O11 C4 1.240 . S
O12 In0 2.326 . S
O12 C4 1.252 1_554 S
In13 O14 2.292 1_554 S
In13 O15 2.326 . S
In13 O19 2.266 . S
In13 O20 2.326 . S
In13 O21 2.266 . S
In13 O22 2.326 . S
In13 O24 2.294 1_554 S
In13 O25 2.326 1_554 S
O14 In13 2.292 1_556 S
O14 C23 1.240 . S
O15 In13 2.326 . S
O15 C23 1.252 1_554 S
C16 O19 1.252 . S
C16 O20 1.260 . S
C17 O24 1.240 . S
C17 O25 1.252 . S
C18 O21 1.252 . S
C18 O22 1.260 . S
O19 In13 2.266 . S
O19 C16 1.252 . S
O20 In13 2.326 . S
O20 C16 1.260 . S
O21 In13 2.266 . S
O21 C18 1.252 . S
O22 In13 2.326 . S
O22 C18 1.260 . S
C23 O14 1.240 . S
C23 O15 1.252 1_556 S
O24 In13 2.294 1_556 S
O24 C17 1.240 . S
O25 In13 2.326 1_556 S
O25 C17 1.252 . S
In26 O27 2.294 . S
In26 O28 2.326 . S
In26 O32 2.266 . S
In26 O33 2.326 . S
In26 O34 2.266 . S
In26 O35 2.326 . S
In26 O37 2.294 . S
In26 O38 2.326 . S
O27 In26 2.294 . S
O27 C36 1.240 . S
O28 In26 2.326 . S
O28 C36 1.252 . S
C29 O32 1.252 . S
C29 O33 1.260 . S
C30 O37 1.240 . S
C30 O38 1.252 . S
C31 O34 1.252 . S
C31 O35 1.260 . S
O32 In26 2.266 . S
O32 C29 1.252 . S
O33 In26 2.326 . S
O33 C29 1.260 . S
O34 In26 2.266 . S
O34 C31 1.252 . S
O35 In26 2.326 . S
O35 C31 1.260 . S
C36 O27 1.240 . S
C36 O28 1.252 . S
O37 In26 2.294 . S
O37 C30 1.240 . S
O38 In26 2.326 . S
O38 C30 1.252 . S
In39 O40 2.294 . S
In39 O41 2.326 . S
In39 O45 2.266 . S
In39 O46 2.326 . S
In39 O47 2.266 . S
In39 O48 2.326 . S
In39 O50 2.294 . S
In39 O51 2.326 . S
O40 In39 2.294 . S
O40 C49 1.240 . S
O41 In39 2.326 . S
O41 C49 1.252 . S
C42 O45 1.252 . S
C42 O46 1.260 . S
C43 O50 1.240 . S
C43 O51 1.252 . S
C44 O47 1.252 . S
C44 O48 1.260 . S
O45 In39 2.266 . S
O45 C42 1.252 . S
O46 In39 2.326 . S
O46 C42 1.260 . S
O47 In39 2.266 . S
O47 C44 1.252 . S
O48 In39 2.326 . S
O48 C44 1.260 . S
C49 O40 1.240 . S
C49 O41 1.252 . S
O50 In39 2.294 . S
O50 C43 1.240 . S
O51 In39 2.326 . S
O51 C43 1.252 . S
In52 O53 2.292 1_554 S
In52 O54 2.326 . S
In52 O58 2.266 . S
In52 O59 2.326 . S
In52 O60 2.266 . S
In52 O61 2.326 . S
In52 O63 2.294 1_554 S
In52 O64 2.326 1_554 S
O53 In52 2.292 1_556 S
O53 C62 1.240 . S
O54 In52 2.326 . S
O54 C62 1.252 1_554 S
C55 O58 1.252 . S
C55 O59 1.260 . S
C56 O63 1.240 . S
C56 O64 1.252 . S
C57 O60 1.252 . S
C57 O61 1.260 . S
O58 In52 2.266 . S
O58 C55 1.252 . S
O59 In52 2.326 . S
O59 C55 1.260 . S
O60 In52 2.266 . S
O60 C57 1.252 . S
O61 In52 2.326 . S
O61 C57 1.260 . S
C62 O53 1.240 . S
C62 O54 1.252 1_556 S
O63 In52 2.294 1_556 S
O63 C56 1.240 . S
O64 In52 2.326 1_556 S
O64 C56 1.252 . S
In65 O66 2.294 1_554 S
In65 O67 2.326 1_554 S
In65 O71 2.266 . S
In65 O72 2.326 . S
In65 O73 2.266 . S
In65 O74 2.326 . S
In65 O76 2.292 1_554 S
In65 O77 2.326 . S
O66 In65 2.294 1_556 S
O66 C75 1.240 . S
O67 In65 2.326 1_556 S
O67 C75 1.252 . S
C68 O71 1.252 . S
C68 O72 1.260 . S
C69 O76 1.240 . S
C69 O77 1.252 1_556 S
C70 O73 1.252 . S
C70 O74 1.260 . S
O71 In65 2.266 . S
O71 C68 1.252 . S
O72 In65 2.326 . S
O72 C68 1.260 . S
O73 In65 2.266 . S
O73 C70 1.252 . S
O74 In65 2.326 . S
O74 C70 1.260 . S
C75 O66 1.240 . S
C75 O67 1.252 . S
O76 In65 2.292 1_556 S
O76 C69 1.240 . S
O77 In65 2.326 . S
O77 C69 1.252 1_554 S
In78 O79 2.294 . S
In78 O80 2.326 . S
In78 O84 2.266 . S
In78 O85 2.326 . S
In78 O86 2.266 . S
In78 O87 2.326 . S
In78 O89 2.294 . S
In78 O90 2.326 . S
O79 In78 2.294 . S
O79 C88 1.240 . S
O80 In78 2.326 . S
O80 C88 1.252 . S
C81 O84 1.252 . S
C81 O85 1.260 . S
C82 O89 1.240 . S
C82 O90 1.252 . S
C83 O86 1.252 . S
C83 O87 1.260 . S
O84 In78 2.266 . S
O84 C81 1.252 . S
O85 In78 2.326 . S
O85 C81 1.260 . S
O86 In78 2.266 . S
O86 C83 1.252 . S
O87 In78 2.326 . S
O87 C83 1.260 . S
C88 O79 1.240 . S
C88 O80 1.252 . S
O89 In78 2.294 . S
O89 C82 1.240 . S
O90 In78 2.326 . S
O90 C82 1.252 . S
In91 O92 2.294 . S
In91 O93 2.326 . S
In91 O97 2.266 . S
In91 O98 2.326 . S
In91 O99 2.266 . S
In91 O100 2.326 . S
In91 O102 2.294 . S
In91 O103 2.326 . S
O92 In91 2.294 . S
O92 C101 1.240 . S
O93 In91 2.326 . S
O93 C101 1.252 . S
C94 O97 1.252 . S
C94 O98 1.260 . S
C95 O102 1.240 . S
C95 O103 1.252 . S
C96 O99 1.252 . S
C96 O100 1.260 . S
O97 In91 2.266 . S
O97 C94 1.252 . S
O98 In91 2.326 . S
O98 C94 1.260 . S
O99 In91 2.266 . S
O99 C96 1.252 . S
O100 In91 2.326 . S
O100 C96 1.260 . S
C101 O92 1.240 . S
C101 O93 1.252 . S
O102 In91 2.294 . S
O102 C95 1.240 . S
O103 In91 2.326 . S
O103 C95 1.252 . S
H104 C116 0.930 . S
H105 C118 0.930 . S
H106 C119 0.930 . S
H107 C123 0.959 . S
H108 C123 0.959 . S
H109 C123 0.961 . S
H110 C124 0.960 . S
H111 C124 0.961 . S
H112 C124 0.959 . S
H113 C127 0.929 . S
H114 C128 0.931 . S
H115 C130 0.930 . S
C116 H104 0.930 . S
C116 C117 1.399 1_556 S
C116 C121 1.399 . S
C117 C116 1.399 1_554 S
C117 C118 1.376 . S
C118 H105 0.930 . S
C118 C117 1.376 . S
C118 C119 1.388 . S
C119 H106 0.930 . S
C119 C118 1.388 . S
C119 C120 1.390 . S
C120 C119 1.390 . S
C120 C121 1.394 1_554 S
C120 C126 1.465 . S
C121 C116 1.399 . S
C121 C120 1.394 1_556 S
C121 C122 1.516 . S
C122 C121 1.516 . S
C122 C123 1.502 . S
C122 C124 1.561 . S
C122 C125 1.526 . S
C123 H107 0.959 . S
C123 H108 0.959 . S
C123 H109 0.961 . S
C123 C122 1.502 . S
C124 H110 0.960 . S
C124 H111 0.961 . S
C124 H112 0.959 . S
C124 C122 1.561 . S
C125 C122 1.526 . S
C125 C126 1.396 1_556 S
C125 C130 1.390 . S
C126 C120 1.465 . S
C126 C125 1.396 1_554 S
C126 C127 1.399 . S
C127 H113 0.929 . S
C127 C126 1.399 . S
C127 C128 1.385 . S
C128 H114 0.931 . S
C128 C127 1.385 . S
C128 C129 1.389 . S
C129 C128 1.389 . S
C129 C130 1.387 1_554 S
C130 H115 0.930 . S
C130 C125 1.390 . S
C130 C129 1.387 1_556 S
H131 C143 0.930 . S
H132 C145 0.930 . S
H133 C146 0.930 . S
H134 C150 0.959 1_556 S
H135 C150 0.959 . S
H136 C150 0.961 . S
H137 C151 0.960 . S
H138 C151 0.961 . S
H139 C151 0.959 . S
H140 C154 0.929 . S
H141 C155 0.931 . S
H142 C157 0.930 . S
C143 H131 0.930 . S
C143 C144 1.399 . S
C143 C148 1.399 . S
C144 C143 1.399 . S
C144 C145 1.376 . S
C145 H132 0.930 . S
C145 C144 1.376 . S
C145 C146 1.388 . S
C146 H133 0.930 . S
C146 C145 1.388 . S
C146 C147 1.390 . S
C147 C146 1.390 . S
C147 C148 1.394 . S
C147 C153 1.465 . S
C148 C143 1.399 . S
C148 C147 1.394 . S
C148 C149 1.516 . S
C149 C148 1.516 . S
C149 C150 1.502 . S
C149 C151 1.561 . S
C149 C152 1.526 . S
C150 H134 0.959 1_554 S
C150 H135 0.959 . S
C150 H136 0.961 . S
C150 C149 1.502 . S
C151 H137 0.960 . S
C151 H138 0.961 . S
C151 H139 0.959 . S
C151 C149 1.561 . S
C152 C149 1.526 . S
C152 C153 1.396 . S
C152 C157 1.390 . S
C153 C147 1.465 . S
C153 C152 1.396 . S
C153 C154 1.399 . S
C154 H140 0.929 . S
C154 C153 1.399 . S
C154 C155 1.385 . S
C155 H141 0.931 . S
C155 C154 1.385 . S
C155 C156 1.389 . S
C156 C155 1.389 . S
C156 C157 1.387 . S
C157 H142 0.930 . S
C157 C152 1.390 . S
C157 C156 1.387 . S
H158 C170 0.930 . S
H159 C172 0.930 . S
H160 C173 0.930 . S
H161 C177 0.959 . S
H162 C177 0.959 . S
H163 C177 0.961 . S
H164 C178 0.960 . S
H165 C178 0.961 . S
H166 C178 0.959 . S
H167 C181 0.929 . S
H168 C182 0.931 . S
H169 C184 0.930 . S
C170 H158 0.930 . S
C170 C171 1.399 . S
C170 C175 1.399 . S
C171 C170 1.399 . S
C171 C172 1.376 . S
C172 H159 0.930 . S
C172 C171 1.376 . S
C172 C173 1.388 . S
C173 H160 0.930 . S
C173 C172 1.388 . S
C173 C174 1.390 . S
C174 C173 1.390 . S
C174 C175 1.394 . S
C174 C180 1.465 . S
C175 C170 1.399 . S
C175 C174 1.394 . S
C175 C176 1.516 . S
C176 C175 1.516 . S
C176 C177 1.502 . S
C176 C178 1.561 . S
C176 C179 1.526 . S
C177 H161 0.959 . S
C177 H162 0.959 . S
C177 H163 0.961 . S
C177 C176 1.502 . S
C178 H164 0.960 . S
C178 H165 0.961 . S
C178 H166 0.959 . S
C178 C176 1.561 . S
C179 C176 1.526 . S
C179 C180 1.396 . S
C179 C184 1.390 . S
C180 C174 1.465 . S
C180 C179 1.396 . S
C180 C181 1.399 . S
C181 H167 0.929 . S
C181 C180 1.399 . S
C181 C182 1.385 . S
C182 H168 0.931 . S
C182 C181 1.385 . S
C182 C183 1.389 . S
C183 C182 1.389 . S
C183 C184 1.387 . S
C184 H169 0.930 . S
C184 C179 1.390 . S
C184 C183 1.387 . S
H185 C197 0.930 . S
H186 C199 0.930 . S
H187 C200 0.930 . S
H188 C204 0.959 . S
H189 C204 0.959 . S
H190 C204 0.961 . S
H191 C205 0.960 . S
H192 C205 0.961 . S
H193 C205 0.959 . S
H194 C208 0.929 . S
H195 C209 0.931 . S
H196 C211 0.930 . S
C197 H185 0.930 . S
C197 C198 1.399 . S
C197 C202 1.399 . S
C198 C197 1.399 . S
C198 C199 1.376 . S
C199 H186 0.930 . S
C199 C198 1.376 . S
C199 C200 1.388 . S
C200 H187 0.930 . S
C200 C199 1.388 . S
C200 C201 1.390 . S
C201 C200 1.390 . S
C201 C202 1.394 . S
C201 C207 1.465 . S
C202 C197 1.399 . S
C202 C201 1.394 . S
C202 C203 1.516 . S
C203 C202 1.516 . S
C203 C204 1.502 . S
C203 C205 1.561 . S
C203 C206 1.526 . S
C204 H188 0.959 . S
C204 H189 0.959 . S
C204 H190 0.961 . S
C204 C203 1.502 . S
C205 H191 0.960 . S
C205 H192 0.961 . S
C205 H193 0.959 . S
C205 C203 1.561 . S
C206 C203 1.526 . S
C206 C207 1.396 . S
C206 C211 1.390 . S
C207 C201 1.465 . S
C207 C206 1.396 . S
C207 C208 1.399 . S
C208 H194 0.929 . S
C208 C207 1.399 . S
C208 C209 1.385 . S
C209 H195 0.931 . S
C209 C208 1.385 . S
C209 C210 1.389 . S
C210 C209 1.389 . S
C210 C211 1.387 . S
C211 H196 0.930 . S
C211 C206 1.390 . S
C211 C210 1.387 . S
H212 C224 0.930 . S
H213 C226 0.930 . S
H214 C227 0.930 . S
H215 C231 0.959 . S
H216 C231 0.959 . S
H217 C231 0.961 . S
H218 C232 0.960 . S
H219 C232 0.961 . S
H220 C232 0.959 . S
H221 C235 0.929 . S
H222 C236 0.931 . S
H223 C238 0.930 . S
C224 H212 0.930 . S
C224 C225 1.399 . S
C224 C229 1.399 . S
C225 C224 1.399 . S
C225 C226 1.376 . S
C226 H213 0.930 . S
C226 C225 1.376 . S
C226 C227 1.388 . S
C227 H214 0.930 . S
C227 C226 1.388 . S
C227 C228 1.390 . S
C228 C227 1.390 . S
C228 C229 1.394 . S
C228 C234 1.465 . S
C229 C224 1.399 . S
C229 C228 1.394 . S
C229 C230 1.516 . S
C230 C229 1.516 . S
C230 C231 1.502 . S
C230 C232 1.561 . S
C230 C233 1.526 . S
C231 H215 0.959 . S
C231 H216 0.959 . S
C231 H217 0.961 . S
C231 C230 1.502 . S
C232 H218 0.960 . S
C232 H219 0.961 . S
C232 H220 0.959 . S
C232 C230 1.561 . S
C233 C230 1.526 . S
C233 C234 1.396 . S
C233 C238 1.390 . S
C234 C228 1.465 . S
C234 C233 1.396 . S
C234 C235 1.399 . S
C235 H221 0.929 . S
C235 C234 1.399 . S
C235 C236 1.385 . S
C236 H222 0.931 . S
C236 C235 1.385 . S
C236 C237 1.389 . S
C237 C236 1.389 . S
C237 C238 1.387 . S
C238 H223 0.930 . S
C238 C233 1.390 . S
C238 C237 1.387 . S
H239 C251 0.930 . S
H240 C253 0.930 . S
H241 C254 0.930 . S
H242 C258 0.959 . S
H243 C258 0.959 . S
H244 C258 0.961 . S
H245 C259 0.960 . S
H246 C259 0.961 . S
H247 C259 0.959 . S
H248 C262 0.929 . S
H249 C263 0.931 . S
H250 C265 0.930 . S
C251 H239 0.930 . S
C251 C252 1.399 . S
C251 C256 1.399 . S
C252 C251 1.399 . S
C252 C253 1.376 . S
C253 H240 0.930 . S
C253 C252 1.376 . S
C253 C254 1.388 . S
C254 H241 0.930 . S
C254 C253 1.388 . S
C254 C255 1.390 . S
C255 C254 1.390 . S
C255 C256 1.394 . S
C255 C261 1.465 . S
C256 C251 1.399 . S
C256 C255 1.394 . S
C256 C257 1.516 . S
C257 C256 1.516 . S
C257 C258 1.502 . S
C257 C259 1.561 . S
C257 C260 1.526 . S
C258 H242 0.959 . S
C258 H243 0.959 . S
C258 H244 0.961 . S
C258 C257 1.502 . S
C259 H245 0.960 . S
C259 H246 0.961 . S
C259 H247 0.959 . S
C259 C257 1.561 . S
C260 C257 1.526 . S
C260 C261 1.396 . S
C260 C265 1.390 . S
C261 C255 1.465 . S
C261 C260 1.396 . S
C261 C262 1.399 . S
C262 H248 0.929 . S
C262 C261 1.399 . S
C262 C263 1.385 . S
C263 H249 0.931 . S
C263 C262 1.385 . S
C263 C264 1.389 . S
C264 C263 1.389 . S
C264 C265 1.387 . S
C265 H250 0.930 . S
C265 C260 1.390 . S
C265 C264 1.387 . S
H266 C278 0.930 . S
H267 C280 0.930 . S
H268 C281 0.930 . S
H269 C285 0.959 . S
H270 C285 0.959 . S
H271 C285 0.961 . S
H272 C286 0.960 . S
H273 C286 0.961 . S
H274 C286 0.959 . S
H275 C289 0.929 . S
H276 C290 0.931 . S
H277 C292 0.930 . S
C278 H266 0.930 . S
C278 C279 1.399 . S
C278 C283 1.399 . S
C279 C278 1.399 . S
C279 C280 1.376 . S
C280 H267 0.930 . S
C280 C279 1.376 . S
C280 C281 1.388 . S
C281 H268 0.930 . S
C281 C280 1.388 . S
C281 C282 1.390 . S
C282 C281 1.390 . S
C282 C283 1.394 . S
C282 C288 1.465 . S
C283 C278 1.399 . S
C283 C282 1.394 . S
C283 C284 1.516 . S
C284 C283 1.516 . S
C284 C285 1.502 . S
C284 C286 1.561 . S
C284 C287 1.526 . S
C285 H269 0.959 . S
C285 H270 0.959 . S
C285 H271 0.961 . S
C285 C284 1.502 . S
C286 H272 0.960 . S
C286 H273 0.961 . S
C286 H274 0.959 . S
C286 C284 1.561 . S
C287 C284 1.526 . S
C287 C288 1.396 . S
C287 C292 1.390 . S
C288 C282 1.465 . S
C288 C287 1.396 . S
C288 C289 1.399 . S
C289 H275 0.929 . S
C289 C288 1.399 . S
C289 C290 1.385 . S
C290 H276 0.931 . S
C290 C289 1.385 . S
C290 C291 1.389 . S
C291 C290 1.389 . S
C291 C292 1.387 . S
C292 H277 0.930 . S
C292 C287 1.390 . S
C292 C291 1.387 . S
H293 C305 0.930 . S
H294 C307 0.930 . S
H295 C308 0.930 . S
H296 C312 0.959 . S
H297 C312 0.959 . S
H298 C312 0.961 . S
H299 C313 0.960 . S
H300 C313 0.961 . S
H301 C313 0.959 . S
H302 C316 0.929 . S
H303 C317 0.931 . S
H304 C319 0.930 . S
C305 H293 0.930 . S
C305 C306 1.399 . S
C305 C310 1.399 . S
C306 C305 1.399 . S
C306 C307 1.376 . S
C307 H294 0.930 . S
C307 C306 1.376 . S
C307 C308 1.388 . S
C308 H295 0.930 . S
C308 C307 1.388 . S
C308 C309 1.390 . S
C309 C308 1.390 . S
C309 C310 1.394 . S
C309 C315 1.465 . S
C310 C305 1.399 . S
C310 C309 1.394 . S
C310 C311 1.516 . S
C311 C310 1.516 . S
C311 C312 1.502 . S
C311 C313 1.561 . S
C311 C314 1.526 . S
C312 H296 0.959 . S
C312 H297 0.959 . S
C312 H298 0.961 . S
C312 C311 1.502 . S
C313 H299 0.960 . S
C313 H300 0.961 . S
C313 H301 0.959 . S
C313 C311 1.561 . S
C314 C311 1.526 . S
C314 C315 1.396 . S
C314 C319 1.390 . S
C315 C309 1.465 . S
C315 C314 1.396 . S
C315 C316 1.399 . S
C316 H302 0.929 . S
C316 C315 1.399 . S
C316 C317 1.385 . S
C317 H303 0.931 . S
C317 C316 1.385 . S
C317 C318 1.389 . S
C318 C317 1.389 . S
C318 C319 1.387 . S
C319 H304 0.930 . S
C319 C314 1.390 . S
C319 C318 1.387 . S
H320 C332 0.930 . S
H321 C334 0.930 . S
H322 C335 0.930 . S
H323 C339 0.959 . S
H324 C339 0.959 . S
H325 C339 0.961 . S
H326 C340 0.960 . S
H327 C340 0.961 . S
H328 C340 0.959 . S
H329 C343 0.929 . S
H330 C344 0.931 . S
H331 C346 0.930 . S
C332 H320 0.930 . S
C332 C333 1.399 . S
C332 C337 1.399 . S
C333 C332 1.399 . S
C333 C334 1.376 1_565 S
C334 H321 0.930 . S
C334 C333 1.376 1_545 S
C334 C335 1.388 . S
C335 H322 0.930 . S
C335 C334 1.388 . S
C335 C336 1.390 . S
C336 C335 1.390 . S
C336 C337 1.394 1_545 S
C336 C342 1.465 . S
C337 C332 1.399 . S
C337 C336 1.394 1_565 S
C337 C338 1.516 . S
C338 C337 1.516 . S
C338 C339 1.502 . S
C338 C340 1.561 . S
C338 C341 1.526 . S
C339 H323 0.959 . S
C339 H324 0.959 . S
C339 H325 0.961 . S
C339 C338 1.502 . S
C340 H326 0.960 . S
C340 H327 0.961 . S
C340 H328 0.959 . S
C340 C338 1.561 . S
C341 C338 1.526 . S
C341 C342 1.396 1_565 S
C341 C346 1.390 . S
C342 C336 1.465 . S
C342 C341 1.396 1_545 S
C342 C343 1.399 . S
C343 H329 0.929 . S
C343 C342 1.399 . S
C343 C344 1.385 . S
C344 H330 0.931 . S
C344 C343 1.385 . S
C344 C345 1.389 . S
C345 C344 1.389 . S
C345 C346 1.387 1_545 S
C346 H331 0.930 . S
C346 C341 1.390 . S
C346 C345 1.387 1_565 S
H347 C359 0.930 . S
H348 C361 0.930 . S
H349 C362 0.930 . S
H350 C366 0.959 . S
H351 C366 0.959 . S
H352 C366 0.961 . S
H353 C367 0.960 . S
H354 C367 0.961 . S
H355 C367 0.959 . S
H356 C370 0.929 . S
H357 C371 0.931 . S
H358 C373 0.930 . S
C359 H347 0.930 . S
C359 C360 1.399 1_545 S
C359 C364 1.399 . S
C360 C359 1.399 1_565 S
C360 C361 1.376 . S
C361 H348 0.930 . S
C361 C360 1.376 . S
C361 C362 1.388 . S
C362 H349 0.930 . S
C362 C361 1.388 . S
C362 C363 1.390 . S
C363 C362 1.390 . S
C363 C364 1.394 1_565 S
C363 C369 1.465 . S
C364 C359 1.399 . S
C364 C363 1.394 1_545 S
C364 C365 1.516 . S
C365 C364 1.516 . S
C365 C366 1.502 . S
C365 C367 1.561 . S
C365 C368 1.526 . S
C366 H350 0.959 . S
C366 H351 0.959 . S
C366 H352 0.961 . S
C366 C365 1.502 . S
C367 H353 0.960 . S
C367 H354 0.961 . S
C367 H355 0.959 . S
C367 C365 1.561 . S
C368 C365 1.526 . S
C368 C369 1.396 1_545 S
C368 C373 1.390 . S
C369 C363 1.465 . S
C369 C368 1.396 1_565 S
C369 C370 1.399 . S
C370 H356 0.929 . S
C370 C369 1.399 . S
C370 C371 1.385 . S
C371 H357 0.931 . S
C371 C370 1.385 . S
C371 C372 1.389 1_565 S
C372 C371 1.389 1_545 S
C372 C373 1.387 . S
C373 H358 0.930 . S
C373 C368 1.390 . S
C373 C372 1.387 . S
H374 C386 0.930 . S
H375 C388 0.930 . S
H376 C389 0.930 . S
H377 C393 0.959 . S
H378 C393 0.959 . S
H379 C393 0.961 . S
H380 C394 0.960 . S
H381 C394 0.961 . S
H382 C394 0.959 . S
H383 C397 0.929 . S
H384 C398 0.931 . S
H385 C400 0.930 . S
C386 H374 0.930 . S
C386 C387 1.399 . S
C386 C391 1.399 . S
C387 C386 1.399 . S
C387 C388 1.376 1_565 S
C388 H375 0.930 . S
C388 C387 1.376 1_545 S
C388 C389 1.388 . S
C389 H376 0.930 . S
C389 C388 1.388 . S
C389 C390 1.390 . S
C390 C389 1.390 . S
C390 C391 1.394 1_545 S
C390 C396 1.465 . S
C391 C386 1.399 . S
C391 C390 1.394 1_565 S
C391 C392 1.516 . S
C392 C391 1.516 . S
C392 C393 1.502 . S
C392 C394 1.561 . S
C392 C395 1.526 . S
C393 H377 0.959 . S
C393 H378 0.959 . S
C393 H379 0.961 . S
C393 C392 1.502 . S
C394 H380 0.960 . S
C394 H381 0.961 . S
C394 H382 0.959 . S
C394 C392 1.561 . S
C395 C392 1.526 . S
C395 C396 1.396 1_565 S
C395 C400 1.390 . S
C396 C390 1.465 . S
C396 C395 1.396 1_545 S
C396 C397 1.399 . S
C397 H383 0.929 . S
C397 C396 1.399 . S
C397 C398 1.385 . S
C398 H384 0.931 . S
C398 C397 1.385 . S
C398 C399 1.389 . S
C399 C398 1.389 . S
C399 C400 1.387 1_545 S
C400 H385 0.930 . S
C400 C395 1.390 . S
C400 C399 1.387 1_565 S
H401 C413 0.930 . S
H402 C415 0.930 . S
H403 C416 0.930 . S
H404 C420 0.959 1_545 S
H405 C420 0.959 . S
H406 C420 0.961 . S
H407 C421 0.960 . S
H408 C421 0.961 . S
H409 C421 0.959 . S
H410 C424 0.929 . S
H411 C425 0.931 . S
H412 C427 0.930 1_565 S
C413 H401 0.930 . S
C413 C414 1.399 . S
C413 C418 1.399 . S
C414 C413 1.399 . S
C414 C415 1.376 . S
C415 H402 0.930 . S
C415 C414 1.376 . S
C415 C416 1.388 1_565 S
C416 H403 0.930 . S
C416 C415 1.388 1_545 S
C416 C417 1.389 1_545 S
C417 C416 1.389 1_565 S
C417 C418 1.396 . S
C417 C423 1.464 1_565 S
C418 C413 1.399 . S
C418 C417 1.396 . S
C418 C419 1.516 . S
C419 C418 1.516 . S
C419 C420 1.502 . S
C419 C421 1.561 . S
C419 C422 1.526 . S
C420 H404 0.959 1_565 S
C420 H405 0.959 . S
C420 H406 0.961 . S
C420 C419 1.502 . S
C421 H407 0.960 . S
C421 H408 0.961 . S
C421 H409 0.959 . S
C421 C419 1.561 . S
C422 C419 1.526 . S
C422 C423 1.396 1_565 S
C422 C427 1.390 1_565 S
C423 C417 1.464 1_545 S
C423 C422 1.396 1_545 S
C423 C424 1.399 . S
C424 H410 0.929 . S
C424 C423 1.399 . S
C424 C425 1.385 . S
C425 H411 0.931 . S
C425 C424 1.385 . S
C425 C426 1.389 . S
C426 C425 1.389 . S
C426 C427 1.387 . S
C427 H412 0.930 1_545 S
C427 C422 1.390 1_545 S
C427 C426 1.387 . S
H428 C440 0.930 . S
H429 C442 0.930 . S
H430 C443 0.930 1_545 S
H431 C447 0.959 . S
H432 C447 0.959 . S
H433 C447 0.961 . S
H434 C448 0.960 1_565 S
H435 C448 0.961 . S
H436 C448 0.959 . S
H437 C451 0.929 . S
H438 C452 0.931 . S
H439 C454 0.930 . S
C440 H428 0.930 . S
C440 C441 1.399 1_556 S
C440 C445 1.399 . S
C441 C440 1.399 1_554 S
C441 C442 1.376 . S
C442 H429 0.930 . S
C442 C441 1.376 . S
C442 C443 1.388 . S
C443 H430 0.930 1_565 S
C443 C442 1.388 . S
C443 C444 1.390 . S
C444 C443 1.390 . S
C444 C445 1.394 1_554 S
C444 C450 1.465 1_565 S
C445 C440 1.399 . S
C445 C444 1.394 1_556 S
C445 C446 1.516 . S
C446 C445 1.516 . S
C446 C447 1.502 . S
C446 C448 1.561 1_565 S
C446 C449 1.526 1_565 S
C447 H431 0.959 . S
C447 H432 0.959 . S
C447 H433 0.961 . S
C447 C446 1.502 . S
C448 H434 0.960 1_545 S
C448 H435 0.961 . S
C448 H436 0.959 . S
C448 C446 1.561 1_545 S
C449 C446 1.526 1_545 S
C449 C450 1.396 1_556 S
C449 C454 1.390 . S
C450 C444 1.465 1_545 S
C450 C449 1.396 1_554 S
C450 C451 1.399 . S
C451 H437 0.929 . S
C451 C450 1.399 . S
C451 C452 1.385 . S
C452 H438 0.931 . S
C452 C451 1.385 . S
C452 C453 1.389 . S
C453 C452 1.389 . S
C453 C454 1.387 1_554 S
C454 H439 0.930 . S
C454 C449 1.390 . S
C454 C453 1.387 1_556 S
H455 C467 0.930 . S
H456 C469 0.930 . S
H457 C470 0.930 1_545 S
H458 C474 0.959 . S
H459 C474 0.959 . S
H460 C474 0.961 . S
H461 C475 0.960 1_565 S
H462 C475 0.961 . S
H463 C475 0.959 . S
H464 C478 0.929 . S
H465 C479 0.931 . S
H466 C481 0.930 . S
C467 H455 0.930 . S
C467 C468 1.399 . S
C467 C472 1.399 . S
C468 C467 1.399 . S
C468 C469 1.376 . S
C469 H456 0.930 . S
C469 C468 1.376 . S
C469 C470 1.388 . S
C470 H457 0.930 1_565 S
C470 C469 1.388 . S
C470 C471 1.390 . S
C471 C470 1.390 . S
C471 C472 1.394 . S
C471 C477 1.465 1_565 S
C472 C467 1.399 . S
C472 C471 1.394 . S
C472 C473 1.516 . S
C473 C472 1.516 . S
C473 C474 1.502 . S
C473 C475 1.561 1_565 S
C473 C476 1.526 1_565 S
C474 H458 0.959 . S
C474 H459 0.959 . S
C474 H460 0.961 . S
C474 C473 1.502 . S
C475 H461 0.960 1_545 S
C475 H462 0.961 . S
C475 H463 0.959 . S
C475 C473 1.561 1_545 S
C476 C473 1.526 1_545 S
C476 C477 1.396 . S
C476 C481 1.390 . S
C477 C471 1.465 1_545 S
C477 C476 1.396 . S
C477 C478 1.399 . S
C478 H464 0.929 . S
C478 C477 1.399 . S
C478 C479 1.385 . S
C479 H465 0.931 . S
C479 C478 1.385 . S
C479 C480 1.389 . S
C480 C479 1.389 . S
C480 C481 1.387 . S
C481 H466 0.930 . S
C481 C476 1.390 . S
C481 C480 1.387 . S
H482 C494 0.930 . S
H483 C496 0.930 . S
H484 C497 0.930 . S
H485 C501 0.959 . S
H486 C501 0.959 . S
H487 C501 0.961 1_455 S
H488 C502 0.960 . S
H489 C502 0.961 . S
H490 C502 0.959 . S
H491 C505 0.929 . S
H492 C506 0.931 . S
H493 C508 0.930 . S
C494 H482 0.930 . S
C494 C495 1.399 1_556 S
C494 C499 1.399 . S
C495 C494 1.399 1_554 S
C495 C496 1.376 . S
C496 H483 0.930 . S
C496 C495 1.376 . S
C496 C497 1.388 . S
C497 H484 0.930 . S
C497 C496 1.388 . S
C497 C498 1.390 . S
C498 C497 1.390 . S
C498 C499 1.394 1_554 S
C498 C504 1.465 1_455 S
C499 C494 1.399 . S
C499 C498 1.394 1_556 S
C499 C500 1.516 . S
C500 C499 1.516 . S
C500 C501 1.502 1_455 S
C500 C502 1.561 . S
C500 C503 1.526 1_455 S
C501 H485 0.959 . S
C501 H486 0.959 . S
C501 H487 0.961 1_655 S
C501 C500 1.502 1_655 S
C502 H488 0.960 . S
C502 H489 0.961 . S
C502 H490 0.959 . S
C502 C500 1.561 . S
C503 C500 1.526 1_655 S
C503 C504 1.396 1_556 S
C503 C508 1.390 . S
C504 C498 1.465 1_655 S
C504 C503 1.396 1_554 S
C504 C505 1.399 . S
C505 H491 0.929 . S
C505 C504 1.399 . S
C505 C506 1.385 . S
C506 H492 0.931 . S
C506 C505 1.385 . S
C506 C507 1.389 . S
C507 C506 1.389 . S
C507 C508 1.387 1_554 S
C508 H493 0.930 . S
C508 C503 1.390 . S
C508 C507 1.387 1_556 S
H509 C521 0.930 . S
H510 C523 0.930 . S
H511 C524 0.930 . S
H512 C528 0.959 . S
H513 C528 0.959 . S
H514 C528 0.961 . S
H515 C529 0.960 . S
H516 C529 0.961 . S
H517 C529 0.959 . S
H518 C532 0.929 1_455 S
H519 C533 0.931 . S
H520 C535 0.930 . S
C521 H509 0.930 . S
C521 C522 1.399 . S
C521 C526 1.399 . S
C522 C521 1.399 . S
C522 C523 1.376 . S
C523 H510 0.930 . S
C523 C522 1.376 . S
C523 C524 1.388 . S
C524 H511 0.930 . S
C524 C523 1.388 . S
C524 C525 1.390 . S
C525 C524 1.390 . S
C525 C526 1.394 . S
C525 C531 1.465 1_455 S
C526 C521 1.399 . S
C526 C525 1.394 . S
C526 C527 1.516 1_455 S
C527 C526 1.516 1_655 S
C527 C528 1.502 . S
C527 C529 1.561 . S
C527 C530 1.526 . S
C528 H512 0.959 . S
C528 H513 0.959 . S
C528 H514 0.961 . S
C528 C527 1.502 . S
C529 H515 0.960 . S
C529 H516 0.961 . S
C529 H517 0.959 . S
C529 C527 1.561 . S
C530 C527 1.526 . S
C530 C531 1.396 . S
C530 C535 1.390 . S
C531 C525 1.465 1_655 S
C531 C530 1.396 . S
C531 C532 1.399 . S
C532 H518 0.929 1_655 S
C532 C531 1.399 . S
C532 C533 1.385 . S
C533 H519 0.931 . S
C533 C532 1.385 . S
C533 C534 1.389 . S
C534 C533 1.389 . S
C534 C535 1.387 . S
C535 H520 0.930 . S
C535 C530 1.390 . S
C535 C534 1.387 . S
C117 C70 1.510 . S
C129 C5 1.516 . S
C144 C55 1.515 . S
C156 C16 1.501 . S
C171 C94 1.512 . S
C183 C31 1.500 . S
C198 C83 1.510 . S
C210 C42 1.500 . S
C225 C3 1.401 . S
C237 C29 1.422 . S
C252 C18 1.407 . S
C264 C44 1.419 . S
C279 C17 1.443 . S
C291 C43 1.457 . S
C306 C10 1.442 . S
C318 C36 1.454 . S
C333 C57 1.417 . S
C345 C81 1.401 . S
C360 C96 1.403 . S
C372 C68 1.421 . S
C387 C95 1.462 . S
C399 C75 1.452 . S
C414 C56 1.462 . S
C426 C88 1.458 . S
C441 C23 1.504 1_554 S
C453 C4 1.506 1_554 S
C468 C30 1.504 . S
C480 C49 1.506 . S
C495 C62 1.504 1_554 S
C507 C69 1.505 1_554 S
C522 C82 1.506 . S
C534 C101 1.508 . S
