# Generated by pormake.
# Topology wgw, (6)-cn, num edge types: 1
# Building blocks:
#     Node 0, Type 0, BuildingBlock: IZENUY_clean_sbu_0, # of connection points: 6
#     Node 1, Type 0, BuildingBlock: IZENUY_clean_sbu_0, # of connection points: 6
#     Node 2, Type 0, BuildingBlock: IZENUY_clean_sbu_0, # of connection points: 6
#     Node 3, Type 0, BuildingBlock: IZENUY_clean_sbu_0, # of connection points: 6
#     Node 4, Type 0, BuildingBlock: IZENUY_clean_sbu_0, # of connection points: 6
#     Node 5, Type 0, BuildingBlock: IZENUY_clean_sbu_0, # of connection points: 6
#     Node 6, Type 0, BuildingBlock: IZENUY_clean_sbu_0, # of connection points: 6
#     Node 7, Type 0, BuildingBlock: IZENUY_clean_sbu_0, # of connection points: 6
#     Edge 8, Type (0, 0), BuildingBlock: AJUNOK_clean_linker_0, # of connection points: 2
#     Edge 9, Type (0, 0), BuildingBlock: AJUNOK_clean_linker_0, # of connection points: 2
#     Edge 10, Type (0, 0), BuildingBlock: AJUNOK_clean_linker_0, # of connection points: 2
#     Edge 11, Type (0, 0), BuildingBlock: AJUNOK_clean_linker_0, # of connection points: 2
#     Edge 12, Type (0, 0), BuildingBlock: AJUNOK_clean_linker_0, # of connection points: 2
#     Edge 13, Type (0, 0), BuildingBlock: AJUNOK_clean_linker_0, # of connection points: 2
#     Edge 14, Type (0, 0), BuildingBlock: AJUNOK_clean_linker_0, # of connection points: 2
#     Edge 15, Type (0, 0), BuildingBlock: AJUNOK_clean_linker_0, # of connection points: 2
#     Edge 16, Type (0, 0), BuildingBlock: AJUNOK_clean_linker_0, # of connection points: 2
#     Edge 17, Type (0, 0), BuildingBlock: AJUNOK_clean_linker_0, # of connection points: 2
#     Edge 18, Type (0, 0), BuildingBlock: AJUNOK_clean_linker_0, # of connection points: 2
#     Edge 19, Type (0, 0), BuildingBlock: AJUNOK_clean_linker_0, # of connection points: 2
#     Edge 20, Type (0, 0), BuildingBlock: AJUNOK_clean_linker_0, # of connection points: 2
#     Edge 21, Type (0, 0), BuildingBlock: AJUNOK_clean_linker_0, # of connection points: 2
#     Edge 22, Type (0, 0), BuildingBlock: AJUNOK_clean_linker_0, # of connection points: 2
#     Edge 23, Type (0, 0), BuildingBlock: AJUNOK_clean_linker_0, # of connection points: 2
#     Edge 24, Type (0, 0), BuildingBlock: AJUNOK_clean_linker_0, # of connection points: 2
#     Edge 25, Type (0, 0), BuildingBlock: AJUNOK_clean_linker_0, # of connection points: 2
#     Edge 26, Type (0, 0), BuildingBlock: AJUNOK_clean_linker_0, # of connection points: 2
#     Edge 27, Type (0, 0), BuildingBlock: AJUNOK_clean_linker_0, # of connection points: 2
#     Edge 28, Type (0, 0), BuildingBlock: AJUNOK_clean_linker_0, # of connection points: 2
#     Edge 29, Type (0, 0), BuildingBlock: AJUNOK_clean_linker_0, # of connection points: 2
#     Edge 30, Type (0, 0), BuildingBlock: AJUNOK_clean_linker_0, # of connection points: 2
#     Edge 31, Type (0, 0), BuildingBlock: AJUNOK_clean_linker_0, # of connection points: 2
# Relax obj value: 0.277
# Max RMSD: 0.289
# Mean RMSD: 0.289
data_MOF--net-wgw--node1-IZENUY_clean_sbu_0--edge1-AJUNOK_clean_linker_0
_symmetry_space_group_name_H-M    P1
_symmetry_Int_Tables_number       1
_symmetry_cell_setting            triclinic
loop_
_symmetry_equiv_pos_as_xyz
'x, y, z'
_cell_length_a     20.461274
_cell_length_b     20.495288
_cell_length_c     31.607399
_cell_angle_alpha  90.132893
_cell_angle_beta   90.082508
_cell_angle_gamma 89.899069
loop_
_atom_site_label
_atom_site_type_symbol
_atom_site_fract_x
_atom_site_fract_y
_atom_site_fract_z
_atom_type_partial_charge
Fe0 Fe 0.03473 0.38816 0.17172 0.0
Fe1 Fe 0.13803 0.49738 0.17781 0.0
O2 O 0.07806 0.44733 0.20194 0.0
Fe3 Fe 0.05904 0.45496 0.25658 0.0
O4 O 0.08131 0.3702 0.26729 0.0
O5 O 0.01937 0.33383 0.21602 0.0
O6 O 0.10971 0.34315 0.16289 0.0
C7 C 0.16487 0.3655 0.15194 0.0
C8 C 0.93652 0.44277 0.21793 0.0
O9 O 0.17472 0.42707 0.14871 0.0
C10 C 0.06162 0.58318 0.23027 0.0
O11 O 0.04168 0.42752 0.12037 0.0
O12 O 0.0854 0.52181 0.13415 0.0
O13 O 0.97393 0.43403 0.2492 0.0
O14 O 0.95686 0.43193 0.18058 0.0
C15 C 0.19375 0.48603 0.25695 0.0
O16 O 0.10929 0.57309 0.20497 0.0
O17 O 0.03415 0.53726 0.24952 0.0
C18 C 0.05461 0.4849 0.10953 0.0
O19 O 0.19892 0.48062 0.21762 0.0
O20 O 0.1394 0.48152 0.27503 0.0
C21 C 0.04801 0.32472 0.25089 0.0
Fe22 Fe 0.02949 0.13656 0.68833 0.0
Fe23 Fe 0.05804 0.0514 0.76686 0.0
O24 O 0.07437 0.07366 0.71344 0.0
Fe25 Fe 0.13653 0.03142 0.6856 0.0
O26 O 0.18345 0.10544 0.68027 0.0
O27 O 0.10252 0.171 0.66137 0.0
O28 O 0.04754 0.19393 0.73015 0.0
C29 C 0.03372 0.18767 0.7686 0.0
C30 C 0.04553 0.05497 0.61965 0.0
O31 O 0.02982 0.1319 0.785 0.0
C32 C 0.07683 0.93108 0.7259 0.0
O33 O 0.95012 0.11146 0.71233 0.0
O34 O 0.97625 0.02831 0.75343 0.0
O35 O 0.10211 0.04105 0.63255 0.0
O36 O 1.00677 0.08597 0.64316 0.0
C37 C 0.18874 0.04007 0.76906 0.0
O38 O 0.07964 0.96584 0.75895 0.0
O39 O 0.09172 0.95448 0.69018 0.0
C40 C 0.9343 0.06056 0.73316 0.0
O41 O 0.14084 0.0717 0.78385 0.0
O42 O 0.18483 0.01393 0.7328 0.0
C43 C 0.16346 0.15984 0.66654 0.0
Fe44 Fe 0.47936 0.06928 0.26916 0.0
Fe45 Fe 0.5058 0.14719 0.18862 0.0
O46 O 0.46074 0.08546 0.21527 0.0
Fe47 Fe 0.39993 0.04017 0.18844 0.0
O48 O 0.33862 0.05628 0.22847 0.0
O49 O 0.39851 0.04064 0.28485 0.0
O50 O 0.45636 0.15176 0.28483 0.0
C51 C 0.48821 0.20011 0.2712 0.0
C52 C 0.47364 0.94527 0.23508 0.0
O53 O 0.51963 0.196 0.23668 0.0
C54 C 0.48601 0.05594 0.12207 0.0
O55 O 0.5645 0.09246 0.26397 0.0
O56 O 0.58246 0.10052 0.19611 0.0
O57 O 0.42405 0.961 0.21277 0.0
O58 O 0.50433 0.98726 0.2565 0.0
C59 C 0.37778 0.17442 0.16568 0.0
O60 O 0.49987 0.11248 0.13506 0.0
O61 O 0.45398 0.01798 0.14525 0.0
C62 C 0.60121 0.0828 0.23262 0.0
O63 O 0.4318 0.19499 0.18029 0.0
O64 O 0.36747 0.11333 0.16072 0.0
C65 C 0.34349 0.04383 0.26728 0.0
Fe66 Fe 0.38317 0.49769 0.6793 0.0
Fe67 Fe 0.49175 0.39372 0.67847 0.0
O68 O 0.44892 0.4572 0.70465 0.0
Fe69 Fe 0.47302 0.47991 0.75649 0.0
O70 O 0.39161 0.50669 0.77442 0.0
O71 O 0.32791 0.47814 0.72181 0.0
O72 O 0.35179 0.42251 0.65332 0.0
C73 C 0.36349 0.36263 0.66134 0.0
C74 C 0.45628 0.59906 0.71962 0.0
O75 O 0.41834 0.345 0.67577 0.0
C76 C 0.59174 0.4607 0.71445 0.0
O77 O 0.43284 0.52063 0.634 0.0
O78 O 0.47891 0.42522 0.62481 0.0
O79 O 0.49355 0.56053 0.73894 0.0
O80 O 0.40366 0.57901 0.70232 0.0
C81 C 0.48495 0.34885 0.76329 0.0
O82 O 0.56804 0.43984 0.68012 0.0
O83 O 0.55854 0.45953 0.74811 0.0
C84 C 0.46569 0.48183 0.61151 0.0
O85 O 0.51217 0.34898 0.72728 0.0
O86 O 0.45548 0.39882 0.77704 0.0
C87 C 0.33567 0.49329 0.75998 0.0
Fe88 Fe 0.6429 0.53642 0.37978 0.0
Fe89 Fe 0.57186 0.55304 0.29551 0.0
O90 O 0.58327 0.5776 0.34903 0.0
Fe91 Fe 0.53588 0.64063 0.37245 0.0
O92 O 0.6082 0.67539 0.40099 0.0
O93 O 0.6905 0.61004 0.38357 0.0
O94 O 0.69338 0.51255 0.33498 0.0
C95 C 0.7016 0.53481 0.29818 0.0
C96 C 0.54791 0.56036 0.44168 0.0
O97 O 0.65696 0.56835 0.28136 0.0
C98 C 0.44452 0.56607 0.32303 0.0
O99 O 0.59599 0.46086 0.37656 0.0
O100 O 0.58736 0.46647 0.30702 0.0
O101 O 0.51015 0.5898 0.41681 0.0
O102 O 0.60658 0.55174 0.43151 0.0
C103 C 0.5506 0.69047 0.29197 0.0
O104 O 0.48857 0.53431 0.30473 0.0
O105 O 0.45792 0.61537 0.34623 0.0
C106 C 0.57909 0.43597 0.34152 0.0
O107 O 0.55027 0.63443 0.27521 0.0
O108 O 0.55524 0.69809 0.33127 0.0
C109 C 0.66961 0.66498 0.39605 0.0
Fe110 Fe 0.99049 0.63945 0.86883 0.0
Fe111 Fe 0.95584 0.55448 0.79097 0.0
O112 O 0.94319 0.57692 0.84484 0.0
Fe113 Fe 0.88247 0.5352 0.87419 0.0
O114 O 0.83679 0.61051 0.88163 0.0
O115 O 0.91974 0.67558 0.89712 0.0
O116 O 0.97179 0.69709 0.82747 0.0
C117 C 0.98197 0.68978 0.78865 0.0
C118 C 0.97782 0.55845 0.93778 0.0
O119 O 0.98392 0.63391 0.77236 0.0
C120 C 0.93773 0.43365 0.83069 0.0
O121 O 0.06775 0.61228 0.84339 0.0
O122 O 0.03803 0.53008 0.8023 0.0
O123 O 0.9209 0.54344 0.92616 0.0
O124 O 0.01495 0.58946 0.91349 0.0
C125 C 0.82523 0.54442 0.79204 0.0
O126 O 0.93355 0.46973 0.79857 0.0
O127 O 0.9258 0.4566 0.86727 0.0
C128 C 0.08139 0.56099 0.82223 0.0
O129 O 0.87232 0.57597 0.7763 0.0
O130 O 0.83057 0.51941 0.82843 0.0
C131 C 0.85849 0.66564 0.89326 0.0
Fe132 Fe 0.98336 0.96557 0.29865 0.0
Fe133 Fe 1.00566 0.88758 0.37988 0.0
O134 O 0.96228 0.94873 0.35211 0.0
Fe135 Fe 0.89882 0.99309 0.377 0.0
O136 O 0.84156 0.97101 0.33601 0.0
O137 O 0.90216 0.99454 0.28155 0.0
O138 O 0.96157 0.88371 0.28165 0.0
C139 C 0.98954 0.83428 0.29734 0.0
C140 C 0.97381 0.08742 0.33279 0.0
O141 O 0.01923 0.83731 0.33259 0.0
C142 C 0.98231 0.98196 0.44478 0.0
O143 O 0.06825 0.94189 0.30451 0.0
O144 O 0.08349 0.93135 0.37284 0.0
O145 O 0.92099 0.0707 0.35097 0.0
O146 O 1.00828 0.04655 0.31319 0.0
C147 C 0.87635 0.86156 0.40058 0.0
O148 O 0.99866 0.92545 0.43251 0.0
O149 O 0.94988 0.01893 0.42091 0.0
C150 C 0.10519 0.9447 0.33634 0.0
O151 O 0.93111 0.84083 0.38757 0.0
O152 O 0.86658 0.92222 0.4062 0.0
C153 C 0.84657 0.98474 0.29744 0.0
Fe154 Fe 0.62789 1.00418 0.87706 0.0
Fe155 Fe 0.52695 0.89332 0.88073 0.0
O156 O 0.56683 0.95637 0.85205 0.0
Fe157 Fe 0.54309 0.96999 0.79875 0.0
O158 O 0.62353 0.99497 0.77902 0.0
O159 O 0.68659 0.99135 0.8353 0.0
O160 O 0.66599 0.93078 0.90245 0.0
C161 C 0.65726 0.86953 0.89574 0.0
C162 C 0.54941 0.09609 0.83027 0.0
O163 O 0.60248 0.84778 0.88328 0.0
C164 C 0.42531 0.95578 0.84353 0.0
O165 O 0.57643 0.02396 0.92252 0.0
O166 O 0.54108 0.92593 0.93382 0.0
O167 O 0.52089 0.0525 0.80938 0.0
O168 O 0.5985 0.08281 0.85383 0.0
C169 C 0.52995 0.83938 0.79816 0.0
O170 O 0.44975 0.93829 0.87859 0.0
O171 O 0.45763 0.95064 0.80944 0.0
C172 C 0.5501 0.98322 0.9467 0.0
O173 O 0.50405 0.84451 0.83426 0.0
O174 O 0.56247 0.88628 0.78341 0.0
C175 C 0.67921 0.99681 0.79607 0.0
C176 C 0.36923 0.48532 0.29006 0.0
C177 C 0.3767 0.54428 0.31307 0.0
C178 C 0.30899 0.46511 0.2744 0.0
C179 C 0.25283 0.50224 0.2813 0.0
H180 H 0.41088 0.45518 0.28201 0.0
H181 H 0.30682 0.42116 0.25528 0.0
S182 S 0.24262 0.65891 0.33996 0.0
N183 N 0.32077 0.63863 0.34273 0.0
N184 N 0.20621 0.59975 0.31327 0.0
C185 C 0.25786 0.55971 0.30566 0.0
C186 C 0.32005 0.58093 0.32155 0.0
C187 C 0.99735 0.32774 0.84521 0.0
C188 C 0.95077 0.36367 0.82197 0.0
C189 C 0.02288 0.2684 0.82919 0.0
C190 C 1.00248 0.2441 0.78957 0.0
H191 H 0.01746 0.34773 0.87417 0.0
H192 H 0.06109 0.24353 0.8466 0.0
S193 S 0.87552 0.31457 0.71946 0.0
N194 N 0.88188 0.36656 0.75907 0.0
N195 N 0.92767 0.25567 0.73047 0.0
C196 C 0.95262 0.27702 0.76797 0.0
C197 C 0.9273 0.33665 0.7838 0.0
C198 C 0.26318 0.03844 0.32768 0.0
C199 C 0.28701 0.01433 0.28886 0.0
C200 C 0.20684 1.01131 0.34641 0.0
C201 C 0.17456 0.9582 0.32736 0.0
H202 H 0.28611 0.08036 0.34238 0.0
H203 H 0.18609 0.03463 0.3741 0.0
S204 S 0.22487 0.87105 0.22971 0.0
N205 N 0.27825 0.93082 0.23465 0.0
N206 N 0.17567 0.87774 0.2708 0.0
C207 C 0.20198 0.93043 0.29073 0.0
C208 C 0.25729 0.95913 0.27114 0.0
C209 C 0.55124 0.28038 0.81286 0.0
C210 C 0.49313 0.29043 0.78985 0.0
C211 C 0.56781 0.2183 0.82884 0.0
C212 C 0.52661 0.16431 0.82212 0.0
H213 H 0.5855 0.32006 0.81669 0.0
H214 H 0.61474 0.2119 0.84418 0.0
S215 S 0.36455 0.16872 0.76774 0.0
N216 N 0.39214 0.24406 0.76411 0.0
N217 N 0.42078 0.12818 0.79448 0.0
C218 C 0.4657 0.17576 0.80181 0.0
C219 C 0.44961 0.23859 0.78551 0.0
C220 C 0.77789 0.53493 0.23456 0.0
C221 C 0.75597 0.50654 0.27266 0.0
C222 C 0.83337 0.51006 0.21314 0.0
C223 C 0.86737 0.4554 0.22884 0.0
H224 H 0.75429 0.57842 0.22249 0.0
H225 H 0.85233 0.53638 0.18615 0.0
S226 S 0.82701 0.35975 0.32491 0.0
N227 N 0.77124 0.41762 0.32302 0.0
N228 N 0.87233 0.37155 0.28274 0.0
C229 C 0.84267 0.42423 0.26495 0.0
C230 C 0.78801 0.4497 0.28696 0.0
C231 C 1.00964 0.83108 0.71333 0.0
C232 C 0.06422 0.86124 0.73213 0.0
C233 C 0.98414 0.77278 0.73014 0.0
C234 C 1.0125 0.74435 0.76623 0.0
H235 H 0.98357 0.85523 0.68793 0.0
H236 H 0.93994 0.75238 0.71667 0.0
S237 S 0.16231 0.79846 0.82202 0.0
N238 N 0.15018 0.85359 0.78488 0.0
N239 N 0.10261 0.74519 0.81626 0.0
C240 C 0.07008 0.77117 0.78271 0.0
C241 C 0.09596 0.82943 0.76563 0.0
C242 C 0.66734 1.01166 0.27856 0.0
C243 C 0.66458 0.05046 0.24188 0.0
C244 C 0.72585 0.9867 0.29384 0.0
C245 C 0.78547 1.00032 0.27392 0.0
H246 H 0.62374 1.00175 0.29685 0.0
H247 H 0.72423 0.95897 0.32293 0.0
S248 S 0.80464 0.08924 0.1723 0.0
N249 N 0.72548 0.09375 0.18235 0.0
N250 N 0.83749 0.04755 0.21174 0.0
C251 C 0.7835 0.03464 0.23517 0.0
C252 C 0.72267 0.05968 0.21907 0.0
C253 C 0.42469 0.70346 0.75351 0.0
C254 C 0.46847 0.66884 0.72775 0.0
C255 C 0.4446 0.76015 0.77483 0.0
C256 C 0.50858 0.78491 0.77055 0.0
H257 H 0.3767 0.68369 0.7601 0.0
H258 H 0.41031 0.78325 0.79623 0.0
S259 S 0.63898 0.71612 0.70273 0.0
N260 N 0.57672 0.66574 0.69638 0.0
N261 N 0.61335 0.77373 0.73541 0.0
C262 C 0.55101 0.75368 0.74221 0.0
C263 C 0.53112 0.69522 0.72111 0.0
C264 C 0.74459 0.55545 0.73198 0.0
C265 C 0.77276 0.51822 0.76463 0.0
C266 C 0.68896 0.5326 0.71024 0.0
C267 C 0.66191 0.47131 0.71972 0.0
H268 H 0.7626 0.60403 0.72537 0.0
H269 H 0.66414 0.56483 0.68841 0.0
S270 S 0.72415 0.35018 0.7963 0.0
N271 N 0.77228 0.41401 0.80207 0.0
N272 N 0.67269 0.3701 0.75826 0.0
C273 C 0.69431 0.43094 0.74843 0.0
C274 C 0.74827 0.45482 0.77191 0.0
C275 C 0.99928 0.65544 0.27886 0.0
C276 C 0.03879 0.64955 0.24235 0.0
C277 C 0.97908 0.71583 0.29412 0.0
C278 C 0.99641 0.77332 0.27343 0.0
H279 H 0.98547 0.61313 0.29726 0.0
H280 H 0.95208 0.71771 0.32361 0.0
S281 S 0.09203 0.7865 0.17429 0.0
N282 N 0.08977 0.70728 0.18394 0.0
N283 N 0.05089 0.82211 0.21301 0.0
C284 C 0.03252 0.76904 0.23566 0.0
C285 C 0.05404 0.70685 0.22009 0.0
C286 C 0.81426 0.08764 0.73967 0.0
C287 C 0.86494 0.04104 0.73947 0.0
C288 C 0.75163 0.07165 0.755 0.0
C289 C 0.73799 1.00871 0.77043 0.0
H290 H 0.8241 0.13763 0.73068 0.0
H291 H 0.71505 0.10977 0.75741 0.0
S292 S 0.84975 0.86681 0.77097 0.0
N293 N 0.89378 0.9269 0.75124 0.0
N294 N 0.77713 0.89847 0.78086 0.0
C295 C 0.78649 0.96086 0.76767 0.0
C296 C 0.84965 0.97658 0.75183 0.0
C297 C 0.55939 0.86353 0.2538 0.0
C298 C 0.49488 0.87609 0.2401 0.0
C299 C 0.57891 0.80158 0.26748 0.0
C300 C 0.53534 0.74899 0.26681 0.0
H301 H 0.59454 0.90267 0.25592 0.0
H302 H 0.62751 0.79553 0.28062 0.0
S303 S 0.36323 0.7527 0.2303 0.0
N304 N 0.38893 0.82847 0.22392 0.0
N305 N 0.42632 0.71138 0.24899 0.0
C306 C 0.47228 0.7591 0.25032 0.0
C307 C 0.45194 0.82273 0.23688 0.0
C308 C 0.26485 0.5667 0.80358 0.0
C309 C 0.27658 0.50507 0.78534 0.0
C310 C 0.20227 0.58373 0.81844 0.0
C311 C 0.14994 0.53939 0.8156 0.0
H312 H 0.30287 0.60341 0.80359 0.0
H313 H 0.19402 0.63303 0.82964 0.0
S314 S 0.16017 0.36748 0.77783 0.0
N315 N 0.2341 0.39725 0.77013 0.0
N316 N 0.11754 0.4275 0.79924 0.0
C317 C 0.16331 0.47552 0.80103 0.0
C318 C 0.22637 0.45883 0.78548 0.0
C319 C 0.06644 0.24061 0.30754 0.0
C320 C 0.02599 0.26847 0.27647 0.0
C321 C 0.04709 0.18379 0.32893 0.0
C322 C 0.98545 0.15552 0.32148 0.0
H323 H 0.11456 0.26056 0.31358 0.0
H324 H 0.08153 0.16014 0.35001 0.0
S325 S 0.85936 0.21165 0.24605 0.0
N326 N 0.92076 0.26271 0.23982 0.0
N327 N 0.88283 0.16095 0.28354 0.0
C328 C 0.94296 0.18534 0.29287 0.0
C329 C 0.96369 0.24051 0.26939 0.0
C330 C 0.32279 0.93025 0.80855 0.0
C331 C 0.35526 0.96844 0.83864 0.0
C332 C 0.26797 0.95376 0.78764 0.0
C333 C 0.24134 0.01553 0.79701 0.0
H334 H 0.34383 0.88452 0.79789 0.0
H335 H 0.24865 0.92426 0.76211 0.0
S336 S 0.30242 0.1301 0.87873 0.0
N337 N 0.35435 0.0682 0.8803 0.0
N338 N 0.24706 0.11115 0.84256 0.0
C339 C 0.26915 0.05151 0.83037 0.0
C340 C 0.32701 0.02807 0.85101 0.0
C341 C 0.48765 0.35816 0.33273 0.0
C342 C 0.55501 0.36867 0.33868 0.0
C343 C 0.46451 0.30039 0.31388 0.0
C344 C 0.50849 0.25181 0.30078 0.0
H345 H 0.45323 0.39675 0.3399 0.0
H346 H 0.41292 0.29595 0.3067 0.0
S347 S 0.68804 0.2511 0.31661 0.0
N348 N 0.66389 0.32245 0.33541 0.0
N349 N 0.62104 0.21378 0.3005 0.0
C350 C 0.57513 0.25926 0.3105 0.0
C351 C 0.59836 0.31782 0.32947 0.0
C352 C 0.28497 0.33703 0.15675 0.0
C353 C 0.22044 0.31799 0.14724 0.0
C354 C 0.33576 0.29076 0.16092 0.0
C355 C 0.32472 0.22313 0.15552 0.0
H356 H 0.29581 0.38777 0.16332 0.0
H357 H 0.38371 0.30826 0.16997 0.0
S358 S 0.16575 0.14824 0.12565 0.0
N359 N 0.14956 0.22698 0.12914 0.0
N360 N 0.24426 0.14068 0.13668 0.0
C361 C 0.26104 0.20393 0.14369 0.0
C362 C 0.20931 0.25101 0.13966 0.0
C363 C 0.19657 0.27849 0.66003 0.0
C364 C 0.2132 0.21171 0.65803 0.0
C365 C 0.24496 0.32754 0.6587 0.0
C366 C 0.3119 0.31176 0.65536 0.0
H367 H 0.14617 0.29299 0.66475 0.0
H368 H 0.23 0.37793 0.6625 0.0
S369 S 0.38073 0.14485 0.64338 0.0
N370 N 0.30134 0.13324 0.64825 0.0
N371 N 0.39129 0.22453 0.64593 0.0
C372 C 0.32864 0.24538 0.65096 0.0
C373 C 0.27967 0.19572 0.65224 0.0
C374 C 0.83582 0.74658 0.40841 0.0
C375 C 0.82178 0.81378 0.40675 0.0
C376 C 0.78604 0.69956 0.40737 0.0
C377 C 0.71943 0.71708 0.40435 0.0
H378 H 0.88604 0.72977 0.40915 0.0
H379 H 0.80042 0.64867 0.4075 0.0
S380 S 0.65534 0.88655 0.40113 0.0
N381 N 0.73541 0.89561 0.40411 0.0
N382 N 0.64209 0.80709 0.4016 0.0
C383 C 0.70425 0.78414 0.40459 0.0
C384 C 0.75522 0.83237 0.4059 0.0
C385 C 0.69555 0.75418 0.90658 0.0
C386 C 0.71132 0.8208 0.90202 0.0
C387 C 0.74368 0.70521 0.90588 0.0
C388 C 0.81039 0.72 0.90064 0.0
H389 H 0.64501 0.73919 0.90944 0.0
H390 H 0.72793 0.65491 0.90822 0.0
S391 S 0.8789 0.88692 0.88899 0.0
N392 N 0.79939 0.89908 0.8936 0.0
N393 N 0.88993 0.80723 0.89236 0.0
C394 C 0.82744 0.78666 0.89787 0.0
C395 C 0.77807 0.83684 0.89856 0.0
C396 C 0.96835 0.48993 1.00291 0.0
C397 C 0.99935 0.54132 0.98141 0.0
C398 C 0.98633 0.47278 0.04422 0.0
C399 C 0.03554 0.5068 0.0663 0.0
H400 H 0.93008 0.46207 0.98755 0.0
H401 H 0.96108 0.43243 0.05902 0.0
S402 S 0.131 0.64664 1.02486 0.0
N403 N 0.08143 0.62688 0.98561 0.0
N404 N 0.11462 0.59518 0.06354 0.0
C405 C 0.06651 0.55894 0.04546 0.0
C406 C 0.04874 0.57591 1.00299 0.0
C407 C 0.06222 0.98818 0.55382 0.0
C408 C 0.027 0.03722 0.57535 0.0
C409 C 0.04756 0.97102 0.51182 0.0
C410 C 0.99762 1.00275 0.48905 0.0
H411 H 0.10142 0.96228 0.56963 0.0
H412 H 0.07606 0.9327 0.497 0.0
S413 S 0.8906 0.13491 0.5305 0.0
N414 N 0.93949 0.11728 0.5705 0.0
N415 N 0.91246 0.08578 0.49152 0.0
C416 C 0.9621 0.05218 0.51007 0.0
C417 C 0.97651 0.06908 0.55315 0.0
C418 C 0.54809 0.06316 1.00782 0.0
C419 C 0.5337 1.00071 0.99156 0.0
C420 C 0.53338 0.08023 0.04996 0.0
C421 C 0.50344 0.03572 0.07787 0.0
H422 H 0.57093 0.09943 0.98787 0.0
H423 H 0.54525 0.12908 0.06057 0.0
S424 S 0.45591 0.86538 0.05144 0.0
N425 N 0.48776 0.8939 1.0073 0.0
N426 N 0.46057 0.92576 0.08589 0.0
C427 C 0.48909 0.97295 0.06207 0.0
C428 C 0.50402 0.95557 1.01922 0.0
C429 C 0.47339 0.57028 0.50508 0.0
C430 C 0.52569 0.53897 0.48435 0.0
C431 C 0.45449 0.55208 0.54626 0.0
C432 C 0.48631 0.50102 0.568 0.0
H433 H 0.44764 0.60994 0.48974 0.0
H434 H 0.41433 0.57798 0.56103 0.0
S435 S 0.62488 0.40201 0.52707 0.0
N436 N 0.60806 0.45347 0.48848 0.0
N437 N 0.57246 0.41916 0.56513 0.0
C438 C 0.53803 0.46879 0.54726 0.0
C439 C 0.55769 0.48776 0.50571 0.0
loop_
_geom_bond_atom_site_label_1
_geom_bond_atom_site_label_2
_geom_bond_distance
_geom_bond_site_symmetry_2
_ccdc_geom_bond_type
Fe0 O2 1.918 . S
Fe0 O5 1.997 . S
Fe0 O6 2.002 . S
Fe0 O11 1.976 1_455 S
Fe0 O14 1.996 1_455 S
Fe1 O2 1.918 . S
Fe1 O9 1.997 . S
Fe1 O12 1.996 . S
Fe1 O16 1.976 . S
Fe1 O19 2.002 . S
O2 Fe0 1.918 . S
O2 Fe1 1.918 . S
O2 Fe3 1.918 . S
Fe3 O2 1.918 . S
Fe3 O4 2.002 . S
Fe3 O13 1.976 1_455 S
Fe3 O17 1.996 . S
Fe3 O20 1.997 . S
O4 Fe3 2.002 . S
O4 C21 1.295 . S
O5 Fe0 1.997 . S
O5 C21 1.235 . S
O6 Fe0 2.002 . S
O6 C7 1.295 . S
C7 O6 1.295 . S
C7 O9 1.235 . S
C8 O13 1.287 . S
C8 O14 1.255 . S
O9 Fe1 1.997 . S
O9 C7 1.235 . S
C10 O16 1.287 . S
C10 O17 1.255 . S
O11 Fe0 1.976 1_655 S
O11 C18 1.287 1_655 S
O12 Fe1 1.996 . S
O12 C18 1.255 . S
O13 Fe3 1.976 1_655 S
O13 C8 1.287 . S
O14 Fe0 1.996 1_655 S
O14 C8 1.255 . S
C15 O19 1.295 . S
C15 O20 1.235 . S
O16 Fe1 1.976 . S
O16 C10 1.287 . S
O17 Fe3 1.996 . S
O17 C10 1.255 . S
C18 O11 1.287 1_455 S
C18 O12 1.255 . S
O19 Fe1 2.002 . S
O19 C15 1.295 . S
O20 Fe3 1.997 . S
O20 C15 1.235 . S
C21 O4 1.295 . S
C21 O5 1.235 . S
Fe22 O24 1.918 . S
Fe22 O27 1.997 . S
Fe22 O28 2.002 . S
Fe22 O33 1.976 1_455 S
Fe22 O36 1.996 1_455 S
Fe23 O24 1.918 . S
Fe23 O31 1.997 . S
Fe23 O34 1.996 1_455 S
Fe23 O38 1.976 1_545 S
Fe23 O41 2.002 . S
O24 Fe22 1.918 . S
O24 Fe23 1.918 . S
O24 Fe25 1.918 . S
Fe25 O24 1.918 . S
Fe25 O26 2.002 . S
Fe25 O35 1.976 1_545 S
Fe25 O39 1.996 1_545 S
Fe25 O42 1.997 . S
O26 Fe25 2.002 . S
O26 C43 1.295 . S
O27 Fe22 1.997 . S
O27 C43 1.235 . S
O28 Fe22 2.002 . S
O28 C29 1.295 . S
C29 O28 1.295 . S
C29 O31 1.235 . S
C30 O35 1.287 1_545 S
C30 O36 1.255 1_455 S
O31 Fe23 1.997 . S
O31 C29 1.235 . S
C32 O38 1.287 . S
C32 O39 1.255 . S
O33 Fe22 1.976 1_655 S
O33 C40 1.287 . S
O34 Fe23 1.996 1_655 S
O34 C40 1.255 . S
O35 Fe25 1.976 1_565 S
O35 C30 1.287 1_565 S
O36 Fe22 1.996 1_655 S
O36 C30 1.255 1_655 S
C37 O41 1.295 . S
C37 O42 1.235 . S
O38 Fe23 1.976 1_565 S
O38 C32 1.287 . S
O39 Fe25 1.996 1_565 S
O39 C32 1.255 . S
C40 O33 1.287 . S
C40 O34 1.255 . S
O41 Fe23 2.002 . S
O41 C37 1.295 . S
O42 Fe25 1.997 . S
O42 C37 1.235 . S
C43 O26 1.295 . S
C43 O27 1.235 . S
Fe44 O46 1.918 . S
Fe44 O49 1.997 . S
Fe44 O50 2.002 . S
Fe44 O55 1.976 . S
Fe44 O58 1.996 1_545 S
Fe45 O46 1.918 . S
Fe45 O53 1.997 . S
Fe45 O56 1.996 . S
Fe45 O60 1.976 . S
Fe45 O63 2.002 . S
O46 Fe44 1.918 . S
O46 Fe45 1.918 . S
O46 Fe47 1.918 . S
Fe47 O46 1.918 . S
Fe47 O48 2.002 . S
Fe47 O57 1.976 1_545 S
Fe47 O61 1.996 1_545 S
Fe47 O64 1.997 . S
O48 Fe47 2.002 . S
O48 C65 1.295 . S
O49 Fe44 1.997 . S
O49 C65 1.235 . S
O50 Fe44 2.002 . S
O50 C51 1.295 . S
C51 O50 1.295 . S
C51 O53 1.235 . S
C52 O57 1.287 . S
C52 O58 1.255 . S
O53 Fe45 1.997 . S
O53 C51 1.235 . S
C54 O60 1.287 . S
C54 O61 1.255 1_545 S
O55 Fe44 1.976 . S
O55 C62 1.287 . S
O56 Fe45 1.996 . S
O56 C62 1.255 . S
O57 Fe47 1.976 1_565 S
O57 C52 1.287 . S
O58 Fe44 1.996 1_565 S
O58 C52 1.255 . S
C59 O63 1.295 . S
C59 O64 1.235 . S
O60 Fe45 1.976 . S
O60 C54 1.287 . S
O61 Fe47 1.996 1_565 S
O61 C54 1.255 1_565 S
C62 O55 1.287 . S
C62 O56 1.255 . S
O63 Fe45 2.002 . S
O63 C59 1.295 . S
O64 Fe47 1.997 . S
O64 C59 1.235 . S
C65 O48 1.295 . S
C65 O49 1.235 . S
Fe66 O68 1.918 . S
Fe66 O71 1.997 . S
Fe66 O72 2.002 . S
Fe66 O77 1.976 . S
Fe66 O80 1.996 . S
Fe67 O68 1.918 . S
Fe67 O75 1.997 . S
Fe67 O78 1.996 . S
Fe67 O82 1.976 . S
Fe67 O85 2.002 . S
O68 Fe66 1.918 . S
O68 Fe67 1.918 . S
O68 Fe69 1.918 . S
Fe69 O68 1.918 . S
Fe69 O70 2.002 . S
Fe69 O79 1.976 . S
Fe69 O83 1.996 . S
Fe69 O86 1.997 . S
O70 Fe69 2.002 . S
O70 C87 1.295 . S
O71 Fe66 1.997 . S
O71 C87 1.235 . S
O72 Fe66 2.002 . S
O72 C73 1.295 . S
C73 O72 1.295 . S
C73 O75 1.235 . S
C74 O79 1.287 . S
C74 O80 1.255 . S
O75 Fe67 1.997 . S
O75 C73 1.235 . S
C76 O82 1.287 . S
C76 O83 1.255 . S
O77 Fe66 1.976 . S
O77 C84 1.287 . S
O78 Fe67 1.996 . S
O78 C84 1.255 . S
O79 Fe69 1.976 . S
O79 C74 1.287 . S
O80 Fe66 1.996 . S
O80 C74 1.255 . S
C81 O85 1.295 . S
C81 O86 1.235 . S
O82 Fe67 1.976 . S
O82 C76 1.287 . S
O83 Fe69 1.996 . S
O83 C76 1.255 . S
C84 O77 1.287 . S
C84 O78 1.255 . S
O85 Fe67 2.002 . S
O85 C81 1.295 . S
O86 Fe69 1.997 . S
O86 C81 1.235 . S
C87 O70 1.295 . S
C87 O71 1.235 . S
Fe88 O90 1.918 . S
Fe88 O93 1.997 . S
Fe88 O94 2.002 . S
Fe88 O99 1.976 . S
Fe88 O102 1.996 . S
Fe89 O90 1.918 . S
Fe89 O97 1.997 . S
Fe89 O100 1.996 . S
Fe89 O104 1.976 . S
Fe89 O107 2.002 . S
O90 Fe88 1.918 . S
O90 Fe89 1.918 . S
O90 Fe91 1.918 . S
Fe91 O90 1.918 . S
Fe91 O92 2.002 . S
Fe91 O101 1.976 . S
Fe91 O105 1.996 . S
Fe91 O108 1.997 . S
O92 Fe91 2.002 . S
O92 C109 1.295 . S
O93 Fe88 1.997 . S
O93 C109 1.235 . S
O94 Fe88 2.002 . S
O94 C95 1.295 . S
C95 O94 1.295 . S
C95 O97 1.235 . S
C96 O101 1.287 . S
C96 O102 1.255 . S
O97 Fe89 1.997 . S
O97 C95 1.235 . S
C98 O104 1.287 . S
C98 O105 1.255 . S
O99 Fe88 1.976 . S
O99 C106 1.287 . S
O100 Fe89 1.996 . S
O100 C106 1.255 . S
O101 Fe91 1.976 . S
O101 C96 1.287 . S
O102 Fe88 1.996 . S
O102 C96 1.255 . S
C103 O107 1.295 . S
C103 O108 1.235 . S
O104 Fe89 1.976 . S
O104 C98 1.287 . S
O105 Fe91 1.996 . S
O105 C98 1.255 . S
C106 O99 1.287 . S
C106 O100 1.255 . S
O107 Fe89 2.002 . S
O107 C103 1.295 . S
O108 Fe91 1.997 . S
O108 C103 1.235 . S
C109 O92 1.295 . S
C109 O93 1.235 . S
Fe110 O112 1.918 . S
Fe110 O115 1.997 . S
Fe110 O116 2.002 . S
Fe110 O121 1.976 1_655 S
Fe110 O124 1.996 1_655 S
Fe111 O112 1.918 . S
Fe111 O119 1.997 . S
Fe111 O122 1.996 1_655 S
Fe111 O126 1.976 . S
Fe111 O129 2.002 . S
O112 Fe110 1.918 . S
O112 Fe111 1.918 . S
O112 Fe113 1.918 . S
Fe113 O112 1.918 . S
Fe113 O114 2.002 . S
Fe113 O123 1.976 . S
Fe113 O127 1.996 . S
Fe113 O130 1.997 . S
O114 Fe113 2.002 . S
O114 C131 1.295 . S
O115 Fe110 1.997 . S
O115 C131 1.235 . S
O116 Fe110 2.002 . S
O116 C117 1.295 . S
C117 O116 1.295 . S
C117 O119 1.235 . S
C118 O123 1.287 . S
C118 O124 1.255 1_655 S
O119 Fe111 1.997 . S
O119 C117 1.235 . S
C120 O126 1.287 . S
C120 O127 1.255 . S
O121 Fe110 1.976 1_455 S
O121 C128 1.287 . S
O122 Fe111 1.996 1_455 S
O122 C128 1.255 . S
O123 Fe113 1.976 . S
O123 C118 1.287 . S
O124 Fe110 1.996 1_455 S
O124 C118 1.255 1_455 S
C125 O129 1.295 . S
C125 O130 1.235 . S
O126 Fe111 1.976 . S
O126 C120 1.287 . S
O127 Fe113 1.996 . S
O127 C120 1.255 . S
C128 O121 1.287 . S
C128 O122 1.255 . S
O129 Fe111 2.002 . S
O129 C125 1.295 . S
O130 Fe113 1.997 . S
O130 C125 1.235 . S
C131 O114 1.295 . S
C131 O115 1.235 . S
Fe132 O134 1.918 . S
Fe132 O137 1.997 . S
Fe132 O138 2.002 . S
Fe132 O143 1.976 1_655 S
Fe132 O146 1.996 1_565 S
Fe133 O134 1.918 . S
Fe133 O141 1.997 . S
Fe133 O144 1.996 1_655 S
Fe133 O148 1.976 1_655 S
Fe133 O151 2.002 . S
O134 Fe132 1.918 . S
O134 Fe133 1.918 . S
O134 Fe135 1.918 . S
Fe135 O134 1.918 . S
Fe135 O136 2.002 . S
Fe135 O145 1.976 1_565 S
Fe135 O149 1.996 1_565 S
Fe135 O152 1.997 . S
O136 Fe135 2.002 . S
O136 C153 1.295 . S
O137 Fe132 1.997 . S
O137 C153 1.235 . S
O138 Fe132 2.002 . S
O138 C139 1.295 . S
C139 O138 1.295 . S
C139 O141 1.235 . S
C140 O145 1.287 . S
C140 O146 1.255 . S
O141 Fe133 1.997 . S
O141 C139 1.235 . S
C142 O148 1.287 1_655 S
C142 O149 1.255 1_565 S
O143 Fe132 1.976 1_455 S
O143 C150 1.287 . S
O144 Fe133 1.996 1_455 S
O144 C150 1.255 . S
O145 Fe135 1.976 1_545 S
O145 C140 1.287 . S
O146 Fe132 1.996 1_545 S
O146 C140 1.255 . S
C147 O151 1.295 . S
C147 O152 1.235 . S
O148 Fe133 1.976 1_455 S
O148 C142 1.287 1_455 S
O149 Fe135 1.996 1_545 S
O149 C142 1.255 1_545 S
C150 O143 1.287 . S
C150 O144 1.255 . S
O151 Fe133 2.002 . S
O151 C147 1.295 . S
O152 Fe135 1.997 . S
O152 C147 1.235 . S
C153 O136 1.295 . S
C153 O137 1.235 . S
Fe154 O156 1.918 . S
Fe154 O159 1.997 . S
Fe154 O160 2.002 . S
Fe154 O165 1.976 1_565 S
Fe154 O168 1.996 1_565 S
Fe155 O156 1.918 . S
Fe155 O163 1.997 . S
Fe155 O166 1.996 . S
Fe155 O170 1.976 . S
Fe155 O173 2.002 . S
O156 Fe154 1.918 . S
O156 Fe155 1.918 . S
O156 Fe157 1.918 . S
Fe157 O156 1.918 . S
Fe157 O158 2.002 . S
Fe157 O167 1.976 1_565 S
Fe157 O171 1.996 . S
Fe157 O174 1.997 . S
O158 Fe157 2.002 . S
O158 C175 1.295 . S
O159 Fe154 1.997 . S
O159 C175 1.235 . S
O160 Fe154 2.002 . S
O160 C161 1.295 . S
C161 O160 1.295 . S
C161 O163 1.235 . S
C162 O167 1.287 . S
C162 O168 1.255 . S
O163 Fe155 1.997 . S
O163 C161 1.235 . S
C164 O170 1.287 . S
C164 O171 1.255 . S
O165 Fe154 1.976 1_545 S
O165 C172 1.287 1_545 S
O166 Fe155 1.996 . S
O166 C172 1.255 . S
O167 Fe157 1.976 1_545 S
O167 C162 1.287 . S
O168 Fe154 1.996 1_545 S
O168 C162 1.255 . S
C169 O173 1.295 . S
C169 O174 1.235 . S
O170 Fe155 1.976 . S
O170 C164 1.287 . S
O171 Fe157 1.996 . S
O171 C164 1.255 . S
C172 O165 1.287 1_565 S
C172 O166 1.255 . S
O173 Fe155 2.002 . S
O173 C169 1.295 . S
O174 Fe157 1.997 . S
O174 C169 1.235 . S
C175 O158 1.295 . S
C175 O159 1.235 . S
C176 C177 1.369 . S
C176 C178 1.419 . S
C176 H180 0.930 . S
C177 C176 1.369 . S
C177 C186 1.429 . S
C178 C176 1.419 . S
C178 C179 1.363 . S
C178 H181 0.929 . S
C179 C178 1.363 . S
C179 C185 1.428 . S
H180 C176 0.930 . S
H181 C178 0.929 . S
S182 N183 1.613 . S
S182 N184 1.610 . S
N183 S182 1.613 . S
N183 C186 1.350 . S
N184 S182 1.610 . S
N184 C185 1.351 . S
C185 C179 1.428 . S
C185 N184 1.351 . S
C185 C186 1.434 . S
C186 C177 1.429 . S
C186 N183 1.350 . S
C186 C185 1.434 . S
C187 C188 1.369 . S
C187 C189 1.419 . S
C187 H191 0.930 . S
C188 C187 1.369 . S
C188 C197 1.429 . S
C189 C187 1.419 . S
C189 C190 1.363 1_655 S
C189 H192 0.929 . S
C190 C189 1.363 1_455 S
C190 C196 1.428 . S
H191 C187 0.930 . S
H192 C189 0.929 . S
S193 N194 1.613 . S
S193 N195 1.610 1_655 S
N194 S193 1.613 . S
N194 C197 1.350 . S
N195 S193 1.610 1_455 S
N195 C196 1.351 . S
C196 C190 1.428 . S
C196 N195 1.351 . S
C196 C197 1.434 1_455 S
C197 C188 1.429 . S
C197 N194 1.350 . S
C197 C196 1.434 1_655 S
C198 C199 1.369 . S
C198 C200 1.419 . S
C198 H202 0.930 . S
C199 C198 1.369 . S
C199 C208 1.429 1_545 S
C200 C198 1.419 . S
C200 C201 1.363 1_545 S
C200 H203 0.929 . S
C201 C200 1.363 1_565 S
C201 C207 1.428 . S
H202 C198 0.930 . S
H203 C200 0.929 . S
S204 N205 1.613 . S
S204 N206 1.610 . S
N205 S204 1.613 . S
N205 C208 1.350 . S
N206 S204 1.610 . S
N206 C207 1.351 . S
C207 C201 1.428 . S
C207 N206 1.351 . S
C207 C208 1.434 . S
C208 C199 1.429 1_565 S
C208 N205 1.350 . S
C208 C207 1.434 . S
C209 C210 1.369 . S
C209 C211 1.419 . S
C209 H213 0.930 . S
C210 C209 1.369 . S
C210 C219 1.429 . S
C211 C209 1.419 . S
C211 C212 1.363 . S
C211 H214 0.929 . S
C212 C211 1.363 . S
C212 C218 1.428 . S
H213 C209 0.930 . S
H214 C211 0.929 . S
S215 N216 1.613 . S
S215 N217 1.610 . S
N216 S215 1.613 . S
N216 C219 1.350 . S
N217 S215 1.610 . S
N217 C218 1.351 . S
C218 C212 1.428 . S
C218 N217 1.351 . S
C218 C219 1.434 . S
C219 C210 1.429 . S
C219 N216 1.350 . S
C219 C218 1.434 . S
C220 C221 1.369 . S
C220 C222 1.419 . S
C220 H224 0.930 . S
C221 C220 1.369 . S
C221 C230 1.429 . S
C222 C220 1.419 . S
C222 C223 1.363 . S
C222 H225 0.929 . S
C223 C222 1.363 . S
C223 C229 1.428 . S
H224 C220 0.930 . S
H225 C222 0.929 . S
S226 N227 1.613 . S
S226 N228 1.610 . S
N227 S226 1.613 . S
N227 C230 1.350 . S
N228 S226 1.610 . S
N228 C229 1.351 . S
C229 C223 1.428 . S
C229 N228 1.351 . S
C229 C230 1.434 . S
C230 C221 1.429 . S
C230 N227 1.350 . S
C230 C229 1.434 . S
C231 C232 1.369 . S
C231 C233 1.419 1_455 S
C231 H235 0.930 . S
C232 C231 1.369 . S
C232 C241 1.429 . S
C233 C231 1.419 1_655 S
C233 C234 1.363 . S
C233 H236 0.929 . S
C234 C233 1.363 . S
C234 C240 1.428 1_655 S
H235 C231 0.930 . S
H236 C233 0.929 . S
S237 N238 1.613 . S
S237 N239 1.610 . S
N238 S237 1.613 . S
N238 C241 1.350 . S
N239 S237 1.610 . S
N239 C240 1.351 . S
C240 C234 1.428 1_455 S
C240 N239 1.351 . S
C240 C241 1.434 . S
C241 C232 1.429 . S
C241 N238 1.350 . S
C241 C240 1.434 . S
C242 C243 1.369 . S
C242 C244 1.419 1_545 S
C242 H246 0.930 . S
C243 C242 1.369 . S
C243 C252 1.429 . S
C244 C242 1.419 1_565 S
C244 C245 1.363 . S
C244 H247 0.929 . S
C245 C244 1.363 . S
C245 C251 1.428 1_565 S
H246 C242 0.930 . S
H247 C244 0.929 . S
S248 N249 1.613 . S
S248 N250 1.610 . S
N249 S248 1.613 . S
N249 C252 1.350 . S
N250 S248 1.610 . S
N250 C251 1.351 . S
C251 C245 1.428 1_545 S
C251 N250 1.351 . S
C251 C252 1.434 . S
C252 C243 1.429 . S
C252 N249 1.350 . S
C252 C251 1.434 . S
C253 C254 1.369 . S
C253 C255 1.419 . S
C253 H257 0.930 . S
C254 C253 1.369 . S
C254 C263 1.429 . S
C255 C253 1.419 . S
C255 C256 1.363 . S
C255 H258 0.929 . S
C256 C255 1.363 . S
C256 C262 1.428 . S
H257 C253 0.930 . S
H258 C255 0.929 . S
S259 N260 1.613 . S
S259 N261 1.610 . S
N260 S259 1.613 . S
N260 C263 1.350 . S
N261 S259 1.610 . S
N261 C262 1.351 . S
C262 C256 1.428 . S
C262 N261 1.351 . S
C262 C263 1.434 . S
C263 C254 1.429 . S
C263 N260 1.350 . S
C263 C262 1.434 . S
C264 C265 1.369 . S
C264 C266 1.419 . S
C264 H268 0.930 . S
C265 C264 1.369 . S
C265 C274 1.429 . S
C266 C264 1.419 . S
C266 C267 1.363 . S
C266 H269 0.929 . S
C267 C266 1.363 . S
C267 C273 1.428 . S
H268 C264 0.930 . S
H269 C266 0.929 . S
S270 N271 1.613 . S
S270 N272 1.610 . S
N271 S270 1.613 . S
N271 C274 1.350 . S
N272 S270 1.610 . S
N272 C273 1.351 . S
C273 C267 1.428 . S
C273 N272 1.351 . S
C273 C274 1.434 . S
C274 C265 1.429 . S
C274 N271 1.350 . S
C274 C273 1.434 . S
C275 C276 1.369 . S
C275 C277 1.419 . S
C275 H279 0.930 . S
C276 C275 1.369 . S
C276 C285 1.429 . S
C277 C275 1.419 . S
C277 C278 1.363 1_455 S
C277 H280 0.929 1_455 S
C278 C277 1.363 1_655 S
C278 C284 1.428 1_655 S
H279 C275 0.930 . S
H280 C277 0.929 1_655 S
S281 N282 1.613 . S
S281 N283 1.610 1_455 S
N282 S281 1.613 . S
N282 C285 1.350 . S
N283 S281 1.610 1_655 S
N283 C284 1.351 1_655 S
C284 C278 1.428 1_455 S
C284 N283 1.351 1_455 S
C284 C285 1.434 . S
C285 C276 1.429 . S
C285 N282 1.350 . S
C285 C284 1.434 . S
C286 C287 1.369 . S
C286 C288 1.419 . S
C286 H290 0.930 . S
C287 C286 1.369 . S
C287 C296 1.429 1_545 S
C288 C286 1.419 . S
C288 C289 1.363 1_545 S
C288 H291 0.929 . S
C289 C288 1.363 1_565 S
C289 C295 1.428 . S
H290 C286 0.930 . S
H291 C288 0.929 . S
S292 N293 1.613 . S
S292 N294 1.610 . S
N293 S292 1.613 . S
N293 C296 1.350 . S
N294 S292 1.610 . S
N294 C295 1.351 . S
C295 C289 1.428 . S
C295 N294 1.351 . S
C295 C296 1.434 . S
C296 C287 1.429 1_565 S
C296 N293 1.350 . S
C296 C295 1.434 . S
C297 C298 1.369 . S
C297 C299 1.419 . S
C297 H301 0.930 . S
C298 C297 1.369 . S
C298 C307 1.429 . S
C299 C297 1.419 . S
C299 C300 1.363 . S
C299 H302 0.929 . S
C300 C299 1.363 . S
C300 C306 1.428 . S
H301 C297 0.930 . S
H302 C299 0.929 . S
S303 N304 1.613 . S
S303 N305 1.610 . S
N304 S303 1.613 . S
N304 C307 1.350 . S
N305 S303 1.610 . S
N305 C306 1.351 . S
C306 C300 1.428 . S
C306 N305 1.351 . S
C306 C307 1.434 . S
C307 C298 1.429 . S
C307 N304 1.350 . S
C307 C306 1.434 . S
C308 C309 1.369 . S
C308 C310 1.419 . S
C308 H312 0.930 . S
C309 C308 1.369 . S
C309 C318 1.429 . S
C310 C308 1.419 . S
C310 C311 1.363 . S
C310 H313 0.929 . S
C311 C310 1.363 . S
C311 C317 1.428 . S
H312 C308 0.930 . S
H313 C310 0.929 . S
S314 N315 1.613 . S
S314 N316 1.610 . S
N315 S314 1.613 . S
N315 C318 1.350 . S
N316 S314 1.610 . S
N316 C317 1.351 . S
C317 C311 1.428 . S
C317 N316 1.351 . S
C317 C318 1.434 . S
C318 C309 1.429 . S
C318 N315 1.350 . S
C318 C317 1.434 . S
C319 C320 1.369 . S
C319 C321 1.419 . S
C319 H323 0.930 . S
C320 C319 1.369 . S
C320 C329 1.429 1_455 S
C321 C319 1.419 . S
C321 C322 1.363 1_455 S
C321 H324 0.929 . S
C322 C321 1.363 1_655 S
C322 C328 1.428 . S
H323 C319 0.930 . S
H324 C321 0.929 . S
S325 N326 1.613 . S
S325 N327 1.610 . S
N326 S325 1.613 . S
N326 C329 1.350 . S
N327 S325 1.610 . S
N327 C328 1.351 . S
C328 C322 1.428 . S
C328 N327 1.351 . S
C328 C329 1.434 . S
C329 C320 1.429 1_655 S
C329 N326 1.350 . S
C329 C328 1.434 . S
C330 C331 1.369 . S
C330 C332 1.419 . S
C330 H334 0.930 . S
C331 C330 1.369 . S
C331 C340 1.429 1_565 S
C332 C330 1.419 . S
C332 C333 1.363 1_565 S
C332 H335 0.929 . S
C333 C332 1.363 1_545 S
C333 C339 1.428 . S
H334 C330 0.930 . S
H335 C332 0.929 . S
S336 N337 1.613 . S
S336 N338 1.610 . S
N337 S336 1.613 . S
N337 C340 1.350 . S
N338 S336 1.610 . S
N338 C339 1.351 . S
C339 C333 1.428 . S
C339 N338 1.351 . S
C339 C340 1.434 . S
C340 C331 1.429 1_545 S
C340 N337 1.350 . S
C340 C339 1.434 . S
C341 C342 1.369 . S
C341 C343 1.419 . S
C341 H345 0.930 . S
C342 C341 1.369 . S
C342 C351 1.429 . S
C343 C341 1.419 . S
C343 C344 1.363 . S
C343 H346 0.929 . S
C344 C343 1.363 . S
C344 C350 1.428 . S
H345 C341 0.930 . S
H346 C343 0.929 . S
S347 N348 1.613 . S
S347 N349 1.610 . S
N348 S347 1.613 . S
N348 C351 1.350 . S
N349 S347 1.610 . S
N349 C350 1.351 . S
C350 C344 1.428 . S
C350 N349 1.351 . S
C350 C351 1.434 . S
C351 C342 1.429 . S
C351 N348 1.350 . S
C351 C350 1.434 . S
C352 C353 1.369 . S
C352 C354 1.419 . S
C352 H356 0.930 . S
C353 C352 1.369 . S
C353 C362 1.429 . S
C354 C352 1.419 . S
C354 C355 1.363 . S
C354 H357 0.929 . S
C355 C354 1.363 . S
C355 C361 1.428 . S
H356 C352 0.930 . S
H357 C354 0.929 . S
S358 N359 1.613 . S
S358 N360 1.610 . S
N359 S358 1.613 . S
N359 C362 1.350 . S
N360 S358 1.610 . S
N360 C361 1.351 . S
C361 C355 1.428 . S
C361 N360 1.351 . S
C361 C362 1.434 . S
C362 C353 1.429 . S
C362 N359 1.350 . S
C362 C361 1.434 . S
C363 C364 1.369 . S
C363 C365 1.419 . S
C363 H367 0.930 . S
C364 C363 1.369 . S
C364 C373 1.429 . S
C365 C363 1.419 . S
C365 C366 1.363 . S
C365 H368 0.929 . S
C366 C365 1.363 . S
C366 C372 1.428 . S
H367 C363 0.930 . S
H368 C365 0.929 . S
S369 N370 1.613 . S
S369 N371 1.610 . S
N370 S369 1.613 . S
N370 C373 1.350 . S
N371 S369 1.610 . S
N371 C372 1.351 . S
C372 C366 1.428 . S
C372 N371 1.351 . S
C372 C373 1.434 . S
C373 C364 1.429 . S
C373 N370 1.350 . S
C373 C372 1.434 . S
C374 C375 1.369 . S
C374 C376 1.419 . S
C374 H378 0.930 . S
C375 C374 1.369 . S
C375 C384 1.429 . S
C376 C374 1.419 . S
C376 C377 1.363 . S
C376 H379 0.929 . S
C377 C376 1.363 . S
C377 C383 1.428 . S
H378 C374 0.930 . S
H379 C376 0.929 . S
S380 N381 1.613 . S
S380 N382 1.610 . S
N381 S380 1.613 . S
N381 C384 1.350 . S
N382 S380 1.610 . S
N382 C383 1.351 . S
C383 C377 1.428 . S
C383 N382 1.351 . S
C383 C384 1.434 . S
C384 C375 1.429 . S
C384 N381 1.350 . S
C384 C383 1.434 . S
C385 C386 1.369 . S
C385 C387 1.419 . S
C385 H389 0.930 . S
C386 C385 1.369 . S
C386 C395 1.429 . S
C387 C385 1.419 . S
C387 C388 1.363 . S
C387 H390 0.929 . S
C388 C387 1.363 . S
C388 C394 1.428 . S
H389 C385 0.930 . S
H390 C387 0.929 . S
S391 N392 1.613 . S
S391 N393 1.610 . S
N392 S391 1.613 . S
N392 C395 1.350 . S
N393 S391 1.610 . S
N393 C394 1.351 . S
C394 C388 1.428 . S
C394 N393 1.351 . S
C394 C395 1.434 . S
C395 C386 1.429 . S
C395 N392 1.350 . S
C395 C394 1.434 . S
C396 C397 1.369 . S
C396 C398 1.419 1_556 S
C396 H400 0.930 . S
C397 C396 1.369 . S
C397 C406 1.429 1_655 S
C398 C396 1.419 1_554 S
C398 C399 1.363 1_655 S
C398 H401 0.929 . S
C399 C398 1.363 1_455 S
C399 C405 1.428 . S
H400 C396 0.930 . S
H401 C398 0.929 . S
S402 N403 1.613 1_554 S
S402 N404 1.610 . S
N403 S402 1.613 1_556 S
N403 C406 1.350 . S
N404 S402 1.610 . S
N404 C405 1.351 . S
C405 C399 1.428 . S
C405 N404 1.351 . S
C405 C406 1.434 1_554 S
C406 C397 1.429 1_455 S
C406 N403 1.350 . S
C406 C405 1.434 1_556 S
C407 C408 1.369 1_665 S
C407 C409 1.419 . S
C407 H411 0.930 . S
C408 C407 1.369 1_445 S
C408 C417 1.429 . S
C409 C407 1.419 . S
C409 C410 1.363 . S
C409 H412 0.929 . S
C410 C409 1.363 . S
C410 C416 1.428 1_665 S
H411 C407 0.930 . S
H412 C409 0.929 . S
S413 N414 1.613 . S
S413 N415 1.610 . S
N414 S413 1.613 . S
N414 C417 1.350 . S
N415 S413 1.610 . S
N415 C416 1.351 . S
C416 C410 1.428 1_445 S
C416 N415 1.351 . S
C416 C417 1.434 . S
C417 C408 1.429 . S
C417 N414 1.350 . S
C417 C416 1.434 . S
C418 C419 1.369 1_545 S
C418 C420 1.419 1_556 S
C418 H422 0.930 . S
C419 C418 1.369 1_565 S
C419 C428 1.429 . S
C420 C418 1.419 1_554 S
C420 C421 1.363 . S
C420 H423 0.929 . S
C421 C420 1.363 . S
C421 C427 1.428 1_545 S
H422 C418 0.930 . S
H423 C420 0.929 . S
S424 N425 1.613 1_554 S
S424 N426 1.610 . S
N425 S424 1.613 1_556 S
N425 C428 1.350 . S
N426 S424 1.610 . S
N426 C427 1.351 . S
C427 C421 1.428 1_565 S
C427 N426 1.351 . S
C427 C428 1.434 1_554 S
C428 C419 1.429 . S
C428 N425 1.350 . S
C428 C427 1.434 1_556 S
C429 C430 1.369 . S
C429 C431 1.419 . S
C429 H433 0.930 . S
C430 C429 1.369 . S
C430 C439 1.429 . S
C431 C429 1.419 . S
C431 C432 1.363 . S
C431 H434 0.929 . S
C432 C431 1.363 . S
C432 C438 1.428 . S
H433 C429 0.930 . S
H434 C431 0.929 . S
S435 N436 1.613 . S
S435 N437 1.610 . S
N436 S435 1.613 . S
N436 C439 1.350 . S
N437 S435 1.610 . S
N437 C438 1.351 . S
C438 C432 1.428 . S
C438 N437 1.351 . S
C438 C439 1.434 . S
C439 C430 1.429 . S
C439 N436 1.350 . S
C439 C438 1.434 . S
C177 C98 1.368 . S
C179 C15 1.358 . S
C188 C120 1.362 . S
C190 C29 1.358 . S
C199 C65 1.356 . S
C201 C150 1.365 . S
C210 C81 1.361 . S
C212 C162 1.361 . S
C221 C95 1.356 . S
C223 C8 1.364 . S
C232 C32 1.364 . S
C234 C117 1.357 . S
C243 C62 1.368 . S
C245 C153 1.361 . S
C254 C74 1.363 . S
C256 C169 1.363 . S
C265 C125 1.361 . S
C267 C76 1.360 . S
C276 C10 1.361 . S
C278 C139 1.364 . S
C287 C40 1.354 . S
C289 C175 1.367 . S
C298 C52 1.357 . S
C300 C103 1.361 . S
C309 C87 1.366 . S
C311 C128 1.353 . S
C320 C21 1.360 . S
C322 C140 1.357 . S
C331 C164 1.360 . S
C333 C37 1.366 . S
C342 C106 1.355 . S
C344 C51 1.362 . S
C353 C7 1.791 . S
C355 C59 1.792 . S
C364 C43 1.795 . S
C366 C73 1.795 . S
C375 C147 1.796 . S
C377 C109 1.795 . S
C386 C161 1.792 . S
C388 C131 1.792 . S
C397 C118 1.452 . S
C399 C18 1.452 . S
C408 C30 1.450 . S
C410 C142 1.453 . S
C419 C172 1.450 . S
C421 C54 1.453 . S
C430 C96 1.454 . S
C432 C84 1.450 . S
