# Generated by pormake.
# Topology wgu, (5)-cn, num edge types: 1
# Building blocks:
#     Node 0, Type 0, BuildingBlock: BEQFEK_clean_sbu_0, # of connection points: 5
#     Node 1, Type 0, BuildingBlock: BEQFEK_clean_sbu_0, # of connection points: 5
#     Node 2, Type 0, BuildingBlock: BEQFEK_clean_sbu_0, # of connection points: 5
#     Node 3, Type 0, BuildingBlock: BEQFEK_clean_sbu_0, # of connection points: 5
#     Node 4, Type 0, BuildingBlock: BEQFEK_clean_sbu_0, # of connection points: 5
#     Node 5, Type 0, BuildingBlock: BEQFEK_clean_sbu_0, # of connection points: 5
#     Node 6, Type 0, BuildingBlock: BEQFEK_clean_sbu_0, # of connection points: 5
#     Node 7, Type 0, BuildingBlock: BEQFEK_clean_sbu_0, # of connection points: 5
#     Edge 8, Type (0, 0), BuildingBlock: CIFDUS_clean_linker_0, # of connection points: 2
#     Edge 9, Type (0, 0), BuildingBlock: CIFDUS_clean_linker_0, # of connection points: 2
#     Edge 10, Type (0, 0), BuildingBlock: CIFDUS_clean_linker_0, # of connection points: 2
#     Edge 11, Type (0, 0), BuildingBlock: CIFDUS_clean_linker_0, # of connection points: 2
#     Edge 12, Type (0, 0), BuildingBlock: CIFDUS_clean_linker_0, # of connection points: 2
#     Edge 13, Type (0, 0), BuildingBlock: CIFDUS_clean_linker_0, # of connection points: 2
#     Edge 14, Type (0, 0), BuildingBlock: CIFDUS_clean_linker_0, # of connection points: 2
#     Edge 15, Type (0, 0), BuildingBlock: CIFDUS_clean_linker_0, # of connection points: 2
#     Edge 16, Type (0, 0), BuildingBlock: CIFDUS_clean_linker_0, # of connection points: 2
#     Edge 17, Type (0, 0), BuildingBlock: CIFDUS_clean_linker_0, # of connection points: 2
#     Edge 18, Type (0, 0), BuildingBlock: CIFDUS_clean_linker_0, # of connection points: 2
#     Edge 19, Type (0, 0), BuildingBlock: CIFDUS_clean_linker_0, # of connection points: 2
#     Edge 20, Type (0, 0), BuildingBlock: CIFDUS_clean_linker_0, # of connection points: 2
#     Edge 21, Type (0, 0), BuildingBlock: CIFDUS_clean_linker_0, # of connection points: 2
#     Edge 22, Type (0, 0), BuildingBlock: CIFDUS_clean_linker_0, # of connection points: 2
#     Edge 23, Type (0, 0), BuildingBlock: CIFDUS_clean_linker_0, # of connection points: 2
#     Edge 24, Type (0, 0), BuildingBlock: CIFDUS_clean_linker_0, # of connection points: 2
#     Edge 25, Type (0, 0), BuildingBlock: CIFDUS_clean_linker_0, # of connection points: 2
#     Edge 26, Type (0, 0), BuildingBlock: CIFDUS_clean_linker_0, # of connection points: 2
#     Edge 27, Type (0, 0), BuildingBlock: CIFDUS_clean_linker_0, # of connection points: 2
# Relax obj value: 0.497
# Max RMSD: 0.230
# Mean RMSD: 0.230
data_MOF--net-wgu--node1-BEQFEK_clean_sbu_0--edge1-CIFDUS_clean_linker_0
_symmetry_space_group_name_H-M    P1
_symmetry_Int_Tables_number       1
_symmetry_cell_setting            triclinic
loop_
_symmetry_equiv_pos_as_xyz
'x, y, z'
_cell_length_a     29.27477
_cell_length_b     29.220419
_cell_length_c     24.417947
_cell_angle_alpha  89.867122
_cell_angle_beta   90.443811
_cell_angle_gamma 90.205071
loop_
_atom_site_label
_atom_site_type_symbol
_atom_site_fract_x
_atom_site_fract_y
_atom_site_fract_z
_atom_type_partial_charge
Co0 Co 0.29209 0.42027 1.02946 0.0
Co1 Co 0.35717 0.33629 1.02926 0.0
C2 C 0.28965 0.34931 0.93873 0.0
O3 O 0.27464 0.38503 0.9622 0.0
O4 O 0.32323 0.32724 0.959 0.0
C5 C 0.22678 0.48544 0.99535 0.0
O6 O 0.24178 0.47405 0.9467 0.0
C7 C 0.38379 0.23897 1.02959 0.0
C8 C 0.43051 0.2373 0.10078 0.0
C9 C 0.40666 0.20919 0.0648 0.0
N10 N 0.39273 0.28235 0.04516 0.0
N11 N 0.42217 0.28101 0.08641 0.0
C12 C 0.34836 0.22642 0.98754 0.0
H13 H 0.31644 0.24568 0.99462 0.0
H14 H 0.3405 0.18931 0.98748 0.0
H15 H 0.36127 0.23626 0.94657 0.0
C16 C 0.26983 0.38382 0.13971 0.0
N17 N 0.29242 0.38209 0.09189 0.0
N18 N 0.31361 0.34288 0.08788 0.0
C19 C 0.30103 0.31612 0.13039 0.0
C20 C 0.2738 0.34143 0.16652 0.0
C21 C 0.24829 0.42691 0.15998 0.0
H22 H 0.26385 0.45713 0.13975 0.0
H23 H 0.21124 0.42645 0.15003 0.0
H24 H 0.25317 0.43043 0.20487 0.0
O25 O 0.35178 0.45043 1.02235 0.0
O26 O 0.40037 0.3923 1.0255 0.0
H27 H 0.34109 0.25779 0.15183 0.0
H28 H 0.27991 0.24718 0.15107 0.0
C29 C 0.30836 0.26552 0.13075 0.0
H30 H 0.30966 0.25267 0.08846 0.0
H31 H 0.43301 0.3098 0.1082 0.0
O32 O 0.2445 0.46709 1.03762 0.0
C33 C 0.39256 0.43543 1.02257 0.0
Co34 Co 0.60875 0.30207 0.5644 0.0
Co35 Co 0.68873 0.3722 0.55707 0.0
C36 C 0.67406 0.29762 0.47135 0.0
O37 O 0.63918 0.28161 0.49576 0.0
O38 O 0.69495 0.33266 0.49011 0.0
C39 C 0.55408 0.21935 0.55874 0.0
O40 O 0.57881 0.20944 0.51575 0.0
C41 C 0.7857 0.38717 0.55498 0.0
C42 C 0.79502 0.45888 0.5812 0.0
C43 C 0.81879 0.41962 0.56735 0.0
N44 N 0.7444 0.4062 0.56088 0.0
N45 N 0.75003 0.44936 0.5757 0.0
C46 C 0.79283 0.33699 0.54559 0.0
H47 H 0.76185 0.31717 0.55646 0.0
H48 H 0.82213 0.32418 0.57025 0.0
H49 H 0.80033 0.33124 0.50169 0.0
C50 C 0.65744 0.27735 0.66807 0.0
N51 N 0.65197 0.30368 0.62296 0.0
N52 N 0.68445 0.33484 0.62167 0.0
C53 C 0.71091 0.33007 0.66697 0.0
C54 C 0.69515 0.2931 0.6976 0.0
C55 C 0.62937 0.23563 0.67983 0.0
H56 H 0.5946 0.2463 0.69215 0.0
H57 H 0.6261 0.21471 0.64216 0.0
H58 H 0.64469 0.21439 0.71281 0.0
O59 O 0.57804 0.36361 0.55494 0.0
O60 O 0.63471 0.41419 0.5506 0.0
H61 H 0.75506 0.3613 0.72748 0.0
H62 H 0.78127 0.34968 0.66278 0.0
C63 C 0.74942 0.36141 0.68247 0.0
H64 H 0.7419 0.3968 0.66893 0.0
H65 H 0.72329 0.47159 0.58458 0.0
O66 O 0.56086 0.25684 0.58393 0.0
C67 C 0.59201 0.40497 0.55042 0.0
Co68 Co 0.72175 0.61281 1.02612 0.0
Co69 Co 0.65154 0.69164 1.0393 0.0
C70 C 0.71529 0.68538 0.94151 0.0
O71 O 0.73521 0.64991 0.95995 0.0
O72 O 0.68198 0.70288 0.96719 0.0
C73 C 0.79271 0.55133 0.99168 0.0
O74 O 0.78563 0.56862 0.94266 0.0
C75 C 0.64329 0.78882 0.04717 0.0
C76 C 0.57697 0.80147 0.0865 0.0
C77 C 0.61581 0.82325 0.06702 0.0
N78 N 0.62186 0.74852 0.05379 0.0
N79 N 0.58182 0.75621 0.07669 0.0
C80 C 0.69195 0.79355 1.0292 0.0
H81 H 0.71119 0.76167 1.03757 0.0
H82 H 0.70919 0.82242 0.05049 0.0
H83 H 0.69256 0.80045 0.98451 0.0
C84 C 0.75477 0.6487 0.13331 0.0
N85 N 0.72611 0.64949 0.08977 0.0
N86 N 0.69571 0.68194 0.09657 0.0
C87 C 0.70379 0.70249 0.14528 0.0
C88 C 0.74167 0.68236 0.17005 0.0
C89 C 0.79481 0.61726 0.13846 0.0
H90 H 0.814 0.61704 0.09947 0.0
H91 H 0.81815 0.62772 0.17221 0.0
H92 H 0.78228 0.58198 0.14629 0.0
O93 O 0.66 0.58245 1.0222 0.0
O94 O 0.60861 0.63744 1.03396 0.0
H95 H 0.67842 0.74003 0.2149 0.0
H96 H 0.68319 0.77229 0.15234 0.0
C97 C 0.67399 0.73845 0.16977 0.0
H98 H 0.63768 0.73107 0.16017 0.0
H99 H 0.55882 0.73054 0.08788 0.0
O100 O 0.76857 0.56467 1.03158 0.0
C101 C 0.61845 0.59522 1.02659 0.0
Co102 Co 0.42799 0.73769 0.54303 0.0
Co103 Co 0.34427 0.67267 0.53801 0.0
C104 C 0.36034 0.74168 0.44885 0.0
O105 O 0.39527 0.75764 0.47391 0.0
O106 O 0.33887 0.70729 0.46798 0.0
C107 C 0.47013 0.82568 0.56083 0.0
O108 O 0.42824 0.84133 0.56368 0.0
C109 C 0.24774 0.64467 0.52778 0.0
C110 C 0.24445 0.58661 0.58562 0.0
C111 C 0.21775 0.61382 0.5517 0.0
N112 N 0.2902 0.63613 0.54666 0.0
N113 N 0.28809 0.6006 0.58017 0.0
C114 C 0.2349 0.68615 0.49488 0.0
H115 H 0.2608 0.71353 0.4994 0.0
H116 H 0.20153 0.70004 0.50801 0.0
H117 H 0.2319 0.67635 0.45115 0.0
C118 C 0.38799 0.75896 0.65311 0.0
N119 N 0.38765 0.73721 0.60438 0.0
N120 N 0.34889 0.71505 0.5985 0.0
C121 C 0.3213 0.72585 0.64071 0.0
C122 C 0.34526 0.75366 0.67813 0.0
C123 C 0.43046 0.77939 0.6775 0.0
H124 H 0.46121 0.76436 0.65842 0.0
H125 H 0.43081 0.8168 0.6701 0.0
H126 H 0.43188 0.7731 0.72232 0.0
O127 O 0.45737 0.67681 0.53553 0.0
O128 O 0.39851 0.62894 0.53688 0.0
H129 H 0.26581 0.68087 0.66053 0.0
H130 H 0.2514 0.74129 0.6622 0.0
C131 C 0.27136 0.71468 0.64083 0.0
H132 H 0.25831 0.71326 0.59848 0.0
H133 H 0.31606 0.58767 0.6019 0.0
O134 O 0.47722 0.78324 0.55373 0.0
C135 C 0.44161 0.63609 0.53517 0.0
Co136 Co 0.80682 0.11994 0.12761 0.0
Co137 Co 0.87191 0.20405 0.11748 0.0
C138 C 0.80825 0.19308 0.21392 0.0
O139 O 0.79101 0.15597 0.19547 0.0
O140 O 0.84024 0.21331 0.18834 0.0
C141 C 0.7384 0.05282 0.15942 0.0
O142 O 0.74298 0.07074 0.20844 0.0
C143 C 0.89061 0.30097 0.11394 0.0
C144 C 0.95443 0.30592 0.06658 0.0
C145 C 0.92098 0.33196 0.09135 0.0
N146 N 0.90544 0.25857 0.10347 0.0
N147 N 0.9442 0.26159 0.07623 0.0
C148 C 0.84458 0.31119 0.13744 0.0
H149 H 0.8206 0.28243 0.12968 0.0
H150 H 0.82995 0.34288 0.11952 0.0
H151 H 0.84817 0.316 0.18232 0.0
C152 C 0.77219 0.15772 1.02086 0.0
N153 N 0.80099 0.15846 0.06434 0.0
N154 N 0.82873 0.19376 0.05963 0.0
C155 C 0.81872 0.21637 1.0127 0.0
C156 C 0.78242 0.19439 0.98644 0.0
C157 C 0.73645 0.12171 1.01201 0.0
H158 H 0.71089 0.12369 0.04524 0.0
H159 H 0.71908 0.12552 0.97174 0.0
H160 H 0.75257 0.08745 1.01425 0.0
O161 O 0.87051 0.09215 0.13116 0.0
O162 O 0.91562 0.15284 0.1224 0.0
H163 H 0.87908 0.25502 0.99466 0.0
H164 H 0.82995 0.27173 0.95434 0.0
C165 C 0.84157 0.25992 0.9952 0.0
H166 H 0.8336 0.28722 1.02492 0.0
H167 H 0.96223 0.23347 0.0616 0.0
O168 O 0.76227 0.06851 0.12025 0.0
C169 C 0.91046 0.10978 0.12778 0.0
Co170 Co 0.91663 0.78851 0.59125 0.0
Co171 Co 0.8393 0.86146 0.59417 0.0
C172 C 0.84665 0.78849 0.68099 0.0
O173 O 0.88132 0.77157 0.65748 0.0
O174 O 0.82723 0.82408 0.66175 0.0
C175 C 0.98182 0.72327 0.62355 0.0
O176 O 0.96913 0.73795 0.67188 0.0
C177 C 0.74499 0.89132 0.59383 0.0
C178 C 0.74777 0.95694 0.549 0.0
C179 C 0.71786 0.92554 0.57184 0.0
N180 N 0.78889 0.90191 0.58464 0.0
N181 N 0.7905 0.94188 0.55922 0.0
C182 C 0.72933 0.84578 0.61513 0.0
H183 H 0.75333 0.81852 0.60258 0.0
H184 H 0.69443 0.83712 0.60033 0.0
H185 H 0.72883 0.84703 0.6605 0.0
C186 C 0.8755 0.76968 0.48161 0.0
N187 N 0.87695 0.79238 0.52964 0.0
N188 N 0.844 0.8229 0.53054 0.0
C189 C 0.8205 0.82051 0.48273 0.0
C190 C 0.83968 0.78677 0.45002 0.0
C191 C 0.90949 0.73412 0.46557 0.0
H192 H 0.94456 0.7471 0.47362 0.0
H193 H 0.90443 0.70317 0.49128 0.0
H194 H 0.90612 0.72475 0.42172 0.0
O195 O 0.95061 0.84739 0.60083 0.0
O196 O 0.8959 0.89968 0.60224 0.0
H197 H 0.7885 0.88546 0.47017 0.0
H198 H 0.76426 0.84014 0.42887 0.0
C199 C 0.77923 0.84867 0.46938 0.0
H200 H 0.75271 0.84228 0.50049 0.0
H201 H 0.82053 0.9572 0.54535 0.0
O202 O 0.96299 0.74008 0.58096 0.0
C203 C 0.93813 0.88907 0.60392 0.0
Co204 Co 0.21278 0.91217 0.09994 0.0
Co205 Co 0.14942 0.82678 0.10293 0.0
C206 C 0.2184 0.84186 0.19179 0.0
O207 O 0.23478 0.87743 0.16834 0.0
O208 O 0.1842 0.82102 0.17128 0.0
C209 C 0.29824 0.95992 0.07692 0.0
O210 O 0.31562 0.91916 0.06877 0.0
C211 C 0.12153 0.73051 0.11039 0.0
C212 C 0.06314 0.72849 0.05266 0.0
C213 C 0.0908 0.70096 0.08507 0.0
N214 N 0.11267 0.77334 0.09333 0.0
N215 N 0.07676 0.77208 0.06024 0.0
C216 C 0.16319 0.71734 0.14299 0.0
H217 H 0.15407 0.71544 0.18694 0.0
H218 H 0.19083 0.74287 0.1379 0.0
H219 H 0.17645 0.68351 0.13039 0.0
C220 C 0.23163 0.87328 0.98644 0.0
N221 N 0.21181 0.87259 1.03642 0.0
N222 N 0.18995 0.83358 1.0422 0.0
C223 C 0.19866 0.80653 0.99886 0.0
C224 C 0.22461 0.83091 0.96061 0.0
C225 C 0.25204 0.91547 0.96165 0.0
H226 H 0.23915 0.9465 0.98246 0.0
H227 H 0.28974 0.91446 0.96599 0.0
H228 H 0.24342 0.91751 0.91736 0.0
O229 O 0.15048 0.94023 0.1107 0.0
O230 O 0.10605 0.87879 0.10793 0.0
H231 H 0.15202 0.75128 0.98304 0.0
H232 H 0.21154 0.7369 0.97242 0.0
C233 C 0.1875 0.75645 0.99814 0.0
H234 H 0.19038 0.74242 1.03993 0.0
H235 H 0.06362 0.8006 1.03979 0.0
O236 O 0.25637 0.96395 0.08955 0.0
C237 C 0.11079 0.92199 0.11171 0.0
Co238 Co 0.11578 0.21527 0.58789 0.0
Co239 Co 0.19514 0.14471 0.59263 0.0
C240 C 0.18244 0.21478 0.68149 0.0
O241 O 0.14987 0.23517 0.65649 0.0
O242 O 0.19998 0.17877 0.66176 0.0
C243 C 0.05693 0.29617 0.59696 0.0
O244 O 0.07974 0.30674 0.64174 0.0
C245 C 0.29116 0.12013 0.60397 0.0
C246 C 0.29555 0.05616 0.55633 0.0
C247 C 0.32202 0.08815 0.5842 0.0
N248 N 0.24885 0.10783 0.58781 0.0
N249 N 0.25153 0.0689 0.56066 0.0
C250 C 0.30212 0.16576 0.62927 0.0
H251 H 0.27433 0.19055 0.62156 0.0
H252 H 0.33383 0.18061 0.61209 0.0
H253 H 0.30674 0.16144 0.67412 0.0
C254 C 0.1556 0.23262 0.47724 0.0
N255 N 0.15557 0.21159 0.52655 0.0
N256 N 0.19221 0.18608 0.53126 0.0
C257 C 0.21877 0.19304 0.48698 0.0
C258 C 0.1962 0.22222 0.45009 0.0
C259 C 0.11514 0.25797 0.45499 0.0
H260 H 0.08322 0.24325 0.47173 0.0
H261 H 0.11742 0.29442 0.46743 0.0
H262 H 0.11336 0.25573 0.40969 0.0
O263 O 0.08447 0.15522 0.59843 0.0
O264 O 0.13991 0.10373 0.59503 0.0
H265 H 0.26721 0.14003 0.47039 0.0
H266 H 0.28799 0.19741 0.4555 0.0
C267 C 0.26699 0.17636 0.48348 0.0
H268 H 0.2835 0.17904 0.52384 0.0
H269 H 0.22367 0.05256 0.54218 0.0
O270 O 0.06724 0.26024 0.57062 0.0
C271 C 0.09761 0.11365 0.59882 0.0
H272 H 0.30553 0.03178 0.14511 0.0
H273 H 0.35347 0.98019 0.99092 0.0
H274 H 0.39413 0.05243 0.97384 0.0
H275 H 0.41137 0.13273 1.00074 0.0
H276 H 0.368 0.18055 0.15885 0.0
H277 H 0.33087 0.10738 0.177 0.0
C278 C 0.32527 0.03636 0.10805 0.0
C279 C 0.32628 1.0013 0.069 0.0
C280 C 0.34935 0.07731 0.09933 0.0
C281 C 0.35237 1.007 1.02146 0.0
C282 C 0.37544 0.04826 1.01168 0.0
C283 C 0.39443 0.12661 1.03943 0.0
C284 C 0.39178 0.16206 0.07807 0.0
C285 C 0.37362 0.08397 0.05 0.0
C286 C 0.37015 0.15387 0.12832 0.0
C287 C 0.34874 0.11209 0.13867 0.0
H288 H 0.01306 0.36353 0.65325 0.0
H289 H 1.01101 0.29007 0.49994 0.0
H290 H 0.94004 0.32762 0.47376 0.0
H291 H 0.87446 0.3747 0.49833 0.0
H292 H 0.87326 0.44502 0.65315 0.0
H293 H 0.95021 0.41676 0.67404 0.0
C294 C 0.99741 0.35623 0.61381 0.0
C295 C 0.017 0.32347 0.57904 0.0
C296 C 0.95599 0.37745 0.59925 0.0
C297 C 0.99639 0.31462 0.5279 0.0
C298 C 0.95578 0.33614 0.51277 0.0
C299 C 0.89131 0.38411 0.53641 0.0
C300 C 0.86813 0.41098 0.57468 0.0
C301 C 0.93465 0.36654 0.54876 0.0
C302 C 0.89057 0.42417 0.62318 0.0
C303 C 0.93432 0.40765 0.63533 0.0
H304 H 0.71556 1.01303 0.06236 0.0
H305 H 0.69161 1.00342 0.23621 0.0
H306 H 0.64592 0.93428 0.22211 0.0
H307 H 0.61894 0.87225 0.16111 0.0
H308 H 0.64525 0.8811 0.98808 0.0
H309 H 0.68309 0.95512 1.00086 0.0
C310 C 0.70009 0.99605 0.09717 0.0
C311 C 0.70756 1.01312 0.15033 0.0
C312 C 0.67411 0.95614 0.08883 0.0
C313 C 0.68675 0.9909 0.19486 0.0
C314 C 0.66057 0.9513 0.18685 0.0
C315 C 0.63191 0.89113 0.1262 0.0
C316 C 0.62944 0.87158 0.07377 0.0
C317 C 0.65475 0.93308 0.13414 0.0
C318 C 0.64689 0.89576 1.02877 0.0
C319 C 0.66875 0.93785 1.03613 0.0
H320 H 0.0193 0.68887 0.53048 0.0
H321 H 0.03274 0.68706 0.70674 0.0
H322 H 0.10418 0.64511 0.69976 0.0
H323 H 0.168 0.61916 0.6436 0.0
H324 H 0.15658 0.62319 0.46765 0.0
H325 H 0.07877 0.65313 0.47438 0.0
C326 C 0.0375 0.67869 0.56738 0.0
C327 C 0.02114 0.6919 0.61898 0.0
C328 C 0.079 0.65505 0.5631 0.0
C329 C 0.04483 0.67791 0.66643 0.0
C330 C 0.08575 0.65388 0.66253 0.0
C331 C 0.14786 0.62521 0.60681 0.0
C332 C 0.16784 0.61961 0.55523 0.0
C333 C 0.10389 0.64365 0.61109 0.0
C334 C 0.14173 0.62774 0.50776 0.0
C335 C 0.09747 0.64512 0.51164 0.0
H336 H 0.82771 0.5222 0.08843 0.0
H337 H 0.83427 0.4988 0.91422 0.0
H338 H 0.88287 0.4321 0.92987 0.0
H339 H 0.91392 0.37457 0.99384 0.0
H340 H 0.90421 0.39666 0.16772 0.0
H341 H 0.8673 0.47054 0.1516 0.0
C342 C 0.84015 0.50281 0.05383 0.0
C343 C 0.82665 0.51477 1.00035 0.0
C344 C 0.86763 0.46442 0.06316 0.0
C345 C 0.84379 0.48994 0.95585 0.0
C346 C 0.87155 0.4518 0.96476 0.0
C347 C 0.90512 0.39645 1.02799 0.0
C348 C 0.91145 0.38065 0.0818 0.0
C349 C 0.88248 0.43794 1.01831 0.0
C350 C 0.89953 0.40859 0.12601 0.0
C351 C 0.87809 0.45046 0.11677 0.0
H352 H 0.53332 0.84672 0.48597 0.0
H353 H 0.49439 0.87187 0.65286 0.0
H354 H 0.56716 0.91132 0.67015 0.0
H355 H 0.64586 0.92904 0.64024 0.0
H356 H 0.68302 0.90643 0.47217 0.0
H357 H 0.60662 0.87639 0.45206 0.0
C358 C 0.54058 0.86183 0.52567 0.0
C359 C 0.50931 0.85633 0.56832 0.0
C360 C 0.58204 0.88476 0.5349 0.0
C361 C 0.51836 0.87591 0.61963 0.0
C362 C 0.55992 0.89824 0.62949 0.0
C363 C 0.63644 0.91898 0.59892 0.0
C364 C 0.66939 0.91997 0.55756 0.0
C365 C 0.59256 0.90163 0.58785 0.0
C366 C 0.65762 0.90641 0.50423 0.0
C367 C 0.61423 0.88881 0.49294 0.0
H368 H 0.18229 0.50999 0.08787 0.0
H369 H 0.19268 0.54125 0.91544 0.0
H370 H 0.14246 0.60686 0.9269 0.0
H371 H 0.10564 0.66141 0.98808 0.0
H372 H 0.09826 0.63286 0.16095 0.0
H373 H 0.13618 0.55918 0.14706 0.0
C374 C 0.17312 0.53084 0.05268 0.0
C375 C 0.19194 0.52139 1.00113 0.0
C376 C 0.14462 0.56879 0.05965 0.0
C377 C 0.17911 0.54816 0.95572 0.0
C378 C 0.15036 0.58567 0.96219 0.0
C379 C 0.11081 0.63819 1.02232 0.0
C380 C 0.09953 0.65216 0.07543 0.0
C381 C 0.13418 0.5971 1.01424 0.0
C382 C 0.10674 0.62237 0.11975 0.0
C383 C 0.12886 0.58066 0.11185 0.0
H384 H 0.38271 0.12169 0.65918 0.0
H385 H 0.37329 0.06984 0.49432 0.0
H386 H 0.44898 0.10061 0.47426 0.0
H387 H 0.51078 0.15434 0.49817 0.0
H388 H 0.51452 0.21491 0.65916 0.0
H389 H 0.44771 0.17005 0.68568 0.0
C390 C 0.39742 0.11693 0.61899 0.0
C391 C 0.37181 0.0951 0.57774 0.0
C392 C 0.43947 0.13744 0.60662 0.0
C393 C 0.39205 0.08715 0.52664 0.0
C394 C 0.43512 0.10525 0.5149 0.0
C395 C 0.49737 0.15716 0.5393 0.0
C396 C 0.51708 0.18834 0.57639 0.0
C397 C 0.45801 0.13246 0.55366 0.0
C398 C 0.49945 0.19164 0.6296 0.0
C399 C 0.46137 0.16588 0.64486 0.0
H400 H 0.52552 0.60779 1.02475 0.0
H401 H 0.62784 0.50189 1.02317 0.0
H402 H 0.56826 0.4433 1.02124 0.0
H403 H 0.48624 0.42137 1.02128 0.0
H404 H 0.38478 0.52835 1.02138 0.0
H405 H 0.44439 0.58622 1.02248 0.0
C406 C 0.53491 0.57193 1.02392 0.0
C407 C 0.58142 0.55969 1.02423 0.0
C408 C 0.50033 0.53809 1.02254 0.0
C409 C 0.59251 0.51276 1.02291 0.0
C410 C 0.55833 0.47899 1.02187 0.0
C411 C 0.47715 0.4573 1.02135 0.0
C412 C 0.43065 0.46993 1.02133 0.0
C413 C 0.51198 0.49113 1.02183 0.0
C414 C 0.41996 0.51701 1.02138 0.0
C415 C 0.45417 0.55048 1.02208 0.0
H416 H 0.60805 0.49706 0.53842 0.0
H417 H 0.49835 0.3988 0.55264 0.0
H418 H 0.44237 0.4605 0.54795 0.0
H419 H 0.42405 0.54316 0.54171 0.0
H420 H 0.53454 0.64068 0.52749 0.0
H421 H 0.5899 0.57884 0.53011 0.0
C422 C 0.57192 0.48897 0.54037 0.0
C423 C 0.55782 0.44297 0.54602 0.0
C424 C 0.53965 0.52476 0.53768 0.0
C425 C 0.51059 0.43363 0.54834 0.0
C426 C 0.47837 0.46904 0.54569 0.0
C427 C 0.4602 0.55093 0.53891 0.0
C428 C 0.47468 0.59697 0.5345 0.0
C429 C 0.49241 0.51486 0.54061 0.0
C430 C 0.52193 0.60592 0.53102 0.0
C431 C 0.55388 0.57043 0.53255 0.0
H432 H 0.10534 0.0156 0.11934 0.0
H433 H 0.0216 0.89372 0.11529 0.0
H434 H 0.95286 0.94015 0.12158 0.0
H435 H 0.91567 0.01572 0.1263 0.0
H436 H 0.99969 0.13745 0.12955 0.0
H437 H 0.06835 0.09088 0.12577 0.0
C438 C 0.07211 0.9991 0.11997 0.0
C439 C 0.06907 0.95103 0.11673 0.0
C440 C 0.03234 0.0261 0.12347 0.0
C441 C 0.0254 0.93055 0.11765 0.0
C442 C 0.98583 0.95713 0.12126 0.0
C443 C 0.94897 0.03209 0.12652 0.0
C444 C 0.95208 0.08024 0.12818 0.0
C445 C 0.98878 1.00499 0.12396 0.0
C446 C 0.99582 0.10059 0.12821 0.0
C447 C 0.03536 0.07393 0.126 0.0
H448 H 0.92537 0.9818 0.60668 0.0
H449 H 0.0312 0.87926 0.60712 0.0
H450 H 0.08957 0.93906 0.60658 0.0
H451 H 0.11099 0.02072 0.60324 0.0
H452 H 1.0048 0.12295 0.60278 0.0
H453 H 0.94671 0.06318 0.60612 0.0
C454 C 0.96117 0.97242 0.60698 0.0
C455 C 0.97358 0.92585 0.60682 0.0
C456 C 0.99479 1.00706 0.60643 0.0
C457 C 0.02035 0.91466 0.60719 0.0
C458 C 0.05391 0.94892 0.60679 0.0
C459 C 0.07517 0.03 0.60402 0.0
C460 C 0.06259 0.07653 0.60256 0.0
C461 C 0.04158 0.99528 0.60594 0.0
C462 C 0.01581 0.08761 0.60377 0.0
C463 C 0.98238 0.05336 0.60567 0.0
H464 H 0.30266 0.27143 0.23486 0.0
H465 H 0.19861 0.37578 0.22337 0.0
H466 H 0.17109 0.35374 0.31297 0.0
H467 H 0.17603 0.30295 0.3944 0.0
H468 H 0.25089 0.17664 0.37707 0.0
H469 H 0.28904 0.20734 0.29716 0.0
C470 C 0.2722 0.28817 0.24896 0.0
C471 C 0.25389 0.32612 0.22053 0.0
C472 C 0.25137 0.27089 0.29634 0.0
C473 C 0.21605 0.3483 0.24412 0.0
C474 C 0.19914 0.33484 0.29531 0.0
C475 C 0.19923 0.28097 0.3726 0.0
C476 C 0.21257 0.23837 0.39505 0.0
C477 C 0.21645 0.29587 0.32175 0.0
C478 C 0.24281 0.21119 0.36458 0.0
C479 C 0.26401 0.22829 0.31777 0.0
H480 H 0.81939 0.21027 0.88642 0.0
H481 H 0.69155 0.21143 0.97244 0.0
H482 H 0.6525 0.24061 0.89034 0.0
H483 H 0.65563 0.26951 0.79485 0.0
H484 H 0.78431 0.26988 0.7103 0.0
H485 H 0.82229 0.23754 0.79097 0.0
C486 C 0.78298 0.21699 0.88705 0.0
C487 C 0.75839 0.20898 0.9354 0.0
C488 C 0.76105 0.23459 0.84005 0.0
C489 C 0.71113 0.21716 0.93557 0.0
C490 C 0.68889 0.23411 0.88876 0.0
C491 C 0.6919 0.26212 0.79413 0.0
C492 C 0.7172 0.2723 0.74681 0.0
C493 C 0.71358 0.24348 0.84088 0.0
C494 C 0.76423 0.26292 0.74648 0.0
C495 C 0.78593 0.24418 0.79249 0.0
H496 H 0.81839 0.70161 0.41223 0.0
H497 H 0.82978 0.84248 0.36155 0.0
H498 H 0.80088 0.82273 0.27029 0.0
H499 H 0.76987 0.76567 0.20563 0.0
H500 H 0.7597 0.62447 0.25515 0.0
H501 H 0.79105 0.64365 0.34567 0.0
C502 C 0.81497 0.72776 0.38089 0.0
C503 C 0.82563 0.7735 0.39363 0.0
C504 C 0.79847 0.71604 0.32836 0.0
C505 C 0.82112 0.80715 0.3528 0.0
C506 C 0.80468 0.79587 0.30065 0.0
C507 C 0.77463 0.7392 0.23635 0.0
C508 C 0.76247 0.69379 0.22399 0.0
C509 C 0.79271 0.75053 0.28814 0.0
C510 C 0.76912 0.65962 0.26377 0.0
C511 C 0.78687 0.67062 0.31553 0.0
H512 H 0.30107 0.85746 0.90087 0.0
H513 H 0.1829 0.7688 0.89155 0.0
H514 H 0.21437 0.73141 0.81188 0.0
H515 H 0.27699 0.72211 0.74685 0.0
H516 H 0.37484 0.83244 0.73197 0.0
H517 H 0.35104 0.86221 0.81971 0.0
C518 C 0.28112 0.83102 0.88107 0.0
C519 C 0.24073 0.81432 0.90557 0.0
C520 C 0.29666 0.81286 0.83096 0.0
C521 C 0.21594 0.78012 0.87739 0.0
C522 C 0.23347 0.75914 0.83072 0.0
C523 C 0.29204 0.75396 0.76038 0.0
C524 C 0.32869 0.77388 0.73139 0.0
C525 C 0.27418 0.77488 0.80747 0.0
C526 C 0.34846 0.81406 0.75338 0.0
C527 C 0.33401 0.8321 0.8035 0.0
H528 H 0.79154 0.66435 0.88306 0.0
H529 H 0.67895 0.75926 0.88751 0.0
H530 H 0.70979 0.79994 0.8085 0.0
H531 H 0.7693 0.80931 0.73845 0.0
H532 H 0.88174 0.71414 0.73456 0.0
H533 H 0.85054 0.67339 0.81301 0.0
C534 C 0.7735 0.69375 0.86663 0.0
C535 C 0.73283 0.70849 0.89141 0.0
C536 C 0.79161 0.71731 0.82131 0.0
C537 C 0.71025 0.74694 0.86946 0.0
C538 C 0.72794 0.77038 0.82424 0.0
C539 C 0.78705 0.77972 0.75472 0.0
C540 C 0.82791 0.76502 0.73027 0.0
C541 C 0.76874 0.75605 0.79995 0.0
C542 C 0.8503 0.72646 0.75225 0.0
C543 C 0.83242 0.70295 0.7972 0.0
H544 H 0.28003 0.72477 0.39651 0.0
H545 H 0.39864 0.81229 0.38885 0.0
H546 H 0.36546 0.85232 0.3096 0.0
H547 H 0.30165 0.86234 0.24186 0.0
H548 H 0.18257 0.77535 0.25609 0.0
H549 H 0.21675 0.73617 0.33348 0.0
C550 C 0.29884 0.75257 0.37781 0.0
C551 C 0.34191 0.76518 0.39894 0.0
C552 C 0.27917 0.776 0.33326 0.0
C553 C 0.36547 0.80154 0.37359 0.0
C554 C 0.34639 0.82462 0.32828 0.0
C555 C 0.28308 0.83511 0.26222 0.0
C556 C 0.23954 0.82186 0.24234 0.0
C557 C 0.30303 0.81228 0.30775 0.0
C558 C 0.21619 0.7863 0.26956 0.0
C559 C 0.23572 0.76364 0.31411 0.0
H560 H 0.16966 0.29947 0.72887 0.0
H561 H 0.24286 0.17234 0.74934 0.0
H562 H 0.28306 0.20311 0.82834 0.0
H563 H 0.299 0.26588 0.89111 0.0
H564 H 0.22569 0.39294 0.87444 0.0
H565 H 0.18453 0.3626 0.79475 0.0
C566 C 0.19407 0.2784 0.75094 0.0
C567 C 0.20314 0.23363 0.73265 0.0
C568 C 0.21755 0.2964 0.79693 0.0
C569 C 0.23515 0.20697 0.76189 0.0
C570 C 0.25838 0.22454 0.80726 0.0
C571 C 0.27424 0.28714 0.87007 0.0
C572 C 0.26586 0.33175 0.88883 0.0
C573 C 0.25022 0.26928 0.82485 0.0
C574 C 0.2331 0.35848 0.86098 0.0
C575 C 0.20938 0.3411 0.81539 0.0
H576 H 0.72931 0.17248 0.26971 0.0
H577 H 0.84505 0.26453 0.27094 0.0
H578 H 0.81347 0.30523 0.34869 0.0
H579 H 0.75279 0.316 0.41592 0.0
H580 H 0.63689 0.22432 0.4163 0.0
H581 H 0.66849 0.18284 0.33856 0.0
C582 C 0.74781 0.2012 0.28725 0.0
C583 C 0.78963 0.21521 0.26409 0.0
C584 C 0.72922 0.225 0.33218 0.0
C585 C 0.81281 0.25283 0.28744 0.0
C586 C 0.79472 0.27632 0.33204 0.0
C587 C 0.73425 0.28704 0.39905 0.0
C588 C 0.69233 0.27359 0.42223 0.0
C589 C 0.75282 0.26299 0.35454 0.0
C590 C 0.66912 0.23573 0.39951 0.0
C591 C 0.68727 0.21181 0.355 0.0
loop_
_geom_bond_atom_site_label_1
_geom_bond_atom_site_label_2
_geom_bond_distance
_geom_bond_site_symmetry_2
_ccdc_geom_bond_type
Co0 O3 1.970 1_554 S
Co0 N17 1.989 . S
Co0 O25 1.967 1_554 S
Co0 O32 1.920 . S
Co1 O4 1.966 1_554 S
Co1 N10 2.022 . S
Co1 N18 1.993 . S
Co1 O26 1.942 . S
C2 O3 1.258 . S
C2 O4 1.263 . S
O3 Co0 1.970 1_556 S
O3 C2 1.258 . S
O4 Co1 1.966 1_556 S
O4 C2 1.263 . S
C5 O6 1.235 . S
C5 O32 1.289 . S
O6 C5 1.235 . S
C7 C9 1.400 1_556 S
C7 N10 1.351 1_556 S
C7 C12 1.501 . S
C8 C9 1.387 . S
C8 N11 1.341 . S
C9 C7 1.400 1_554 S
C9 C8 1.387 . S
N10 Co1 2.022 . S
N10 C7 1.351 1_554 S
N10 N11 1.365 . S
N11 C8 1.341 . S
N11 N10 1.365 . S
N11 H31 0.862 . S
C12 C7 1.501 . S
C12 H13 0.961 . S
C12 H14 0.961 . S
C12 H15 0.960 . S
H13 C12 0.961 . S
H14 C12 0.961 . S
H15 C12 0.960 . S
C16 N17 1.342 . S
C16 C20 1.401 . S
C16 C21 1.499 . S
N17 Co0 1.989 . S
N17 C16 1.342 . S
N17 N18 1.388 . S
N18 Co1 1.993 . S
N18 N17 1.388 . S
N18 C19 1.346 . S
C19 N18 1.346 . S
C19 C20 1.396 . S
C19 C29 1.510 . S
C20 C16 1.401 . S
C20 C19 1.396 . S
C21 C16 1.499 . S
C21 H22 0.959 . S
C21 H23 0.960 . S
C21 H24 0.961 . S
H22 C21 0.959 . S
H23 C21 0.960 . S
H24 C21 0.961 . S
O25 Co0 1.967 1_556 S
O25 C33 1.258 . S
O26 Co1 1.942 . S
O26 C33 1.265 1_554 S
H27 C29 0.959 . S
H28 C29 0.961 . S
C29 C19 1.510 . S
C29 H27 0.959 . S
C29 H28 0.961 . S
C29 H30 0.960 . S
H30 C29 0.960 . S
H31 N11 0.862 . S
O32 Co0 1.920 . S
O32 C5 1.289 . S
C33 O25 1.258 . S
C33 O26 1.265 1_556 S
Co34 O37 1.970 . S
Co34 N51 1.989 . S
Co34 O59 1.967 . S
Co34 O66 1.920 . S
Co35 O38 1.966 . S
Co35 N44 2.022 . S
Co35 N52 1.993 . S
Co35 O60 1.941 . S
C36 O37 1.258 . S
C36 O38 1.263 . S
O37 Co34 1.970 . S
O37 C36 1.258 . S
O38 Co35 1.966 . S
O38 C36 1.263 . S
C39 O40 1.235 . S
C39 O66 1.289 . S
O40 C39 1.235 . S
C41 C43 1.400 . S
C41 N44 1.351 . S
C41 C46 1.501 . S
C42 C43 1.387 . S
C42 N45 1.341 . S
C43 C41 1.400 . S
C43 C42 1.387 . S
N44 Co35 2.022 . S
N44 C41 1.351 . S
N44 N45 1.365 . S
N45 C42 1.341 . S
N45 N44 1.365 . S
N45 H65 0.862 . S
C46 C41 1.501 . S
C46 H47 0.961 . S
C46 H48 0.961 . S
C46 H49 0.960 . S
H47 C46 0.961 . S
H48 C46 0.961 . S
H49 C46 0.960 . S
C50 N51 1.342 . S
C50 C54 1.401 . S
C50 C55 1.499 . S
N51 Co34 1.989 . S
N51 C50 1.342 . S
N51 N52 1.388 . S
N52 Co35 1.993 . S
N52 N51 1.388 . S
N52 C53 1.346 . S
C53 N52 1.346 . S
C53 C54 1.396 . S
C53 C63 1.510 . S
C54 C50 1.401 . S
C54 C53 1.396 . S
C55 C50 1.499 . S
C55 H56 0.959 . S
C55 H57 0.960 . S
C55 H58 0.961 . S
H56 C55 0.959 . S
H57 C55 0.960 . S
H58 C55 0.961 . S
O59 Co34 1.967 . S
O59 C67 1.258 . S
O60 Co35 1.941 . S
O60 C67 1.266 . S
H61 C63 0.959 . S
H62 C63 0.961 . S
C63 C53 1.510 . S
C63 H61 0.959 . S
C63 H62 0.961 . S
C63 H64 0.960 . S
H64 C63 0.960 . S
H65 N45 0.862 . S
O66 Co34 1.920 . S
O66 C39 1.289 . S
C67 O59 1.258 . S
C67 O60 1.266 . S
Co68 O71 1.970 1_554 S
Co68 N85 1.989 . S
Co68 O93 1.967 1_554 S
Co68 O100 1.920 . S
Co69 O72 1.966 1_554 S
Co69 N78 2.022 . S
Co69 N86 1.993 . S
Co69 O94 1.942 . S
C70 O71 1.258 . S
C70 O72 1.263 . S
O71 Co68 1.970 1_556 S
O71 C70 1.258 . S
O72 Co69 1.966 1_556 S
O72 C70 1.263 . S
C73 O74 1.235 . S
C73 O100 1.289 . S
O74 C73 1.235 . S
C75 C77 1.400 1_556 S
C75 N78 1.351 1_556 S
C75 C80 1.501 . S
C76 C77 1.387 . S
C76 N79 1.341 . S
C77 C75 1.400 1_554 S
C77 C76 1.387 . S
N78 Co69 2.022 . S
N78 C75 1.351 1_554 S
N78 N79 1.365 . S
N79 C76 1.341 . S
N79 N78 1.365 . S
N79 H99 0.862 . S
C80 C75 1.501 . S
C80 H81 0.961 . S
C80 H82 0.961 . S
C80 H83 0.960 . S
H81 C80 0.961 . S
H82 C80 0.961 . S
H83 C80 0.960 . S
C84 N85 1.342 . S
C84 C88 1.401 . S
C84 C89 1.499 . S
N85 Co68 1.989 . S
N85 C84 1.342 . S
N85 N86 1.388 . S
N86 Co69 1.993 . S
N86 N85 1.388 . S
N86 C87 1.346 . S
C87 N86 1.346 . S
C87 C88 1.396 . S
C87 C97 1.510 . S
C88 C84 1.401 . S
C88 C87 1.396 . S
C89 C84 1.499 . S
C89 H90 0.959 . S
C89 H91 0.960 . S
C89 H92 0.961 . S
H90 C89 0.959 . S
H91 C89 0.960 . S
H92 C89 0.961 . S
O93 Co68 1.967 1_556 S
O93 C101 1.258 . S
O94 Co69 1.942 . S
O94 C101 1.265 1_554 S
H95 C97 0.959 . S
H96 C97 0.961 . S
C97 C87 1.510 . S
C97 H95 0.959 . S
C97 H96 0.961 . S
C97 H98 0.960 . S
H98 C97 0.960 . S
H99 N79 0.862 . S
O100 Co68 1.920 . S
O100 C73 1.289 . S
C101 O93 1.258 . S
C101 O94 1.265 1_556 S
Co102 O105 1.970 . S
Co102 N119 1.989 . S
Co102 O127 1.967 . S
Co102 O134 1.920 . S
Co103 O106 1.966 . S
Co103 N112 2.022 . S
Co103 N120 1.993 . S
Co103 O128 1.941 . S
C104 O105 1.258 . S
C104 O106 1.263 . S
O105 Co102 1.970 . S
O105 C104 1.258 . S
O106 Co103 1.966 . S
O106 C104 1.263 . S
C107 O108 1.235 . S
C107 O134 1.289 . S
O108 C107 1.235 . S
C109 C111 1.400 . S
C109 N112 1.351 . S
C109 C114 1.501 . S
C110 C111 1.387 . S
C110 N113 1.341 . S
C111 C109 1.400 . S
C111 C110 1.387 . S
N112 Co103 2.022 . S
N112 C109 1.351 . S
N112 N113 1.365 . S
N113 C110 1.341 . S
N113 N112 1.365 . S
N113 H133 0.862 . S
C114 C109 1.501 . S
C114 H115 0.961 . S
C114 H116 0.961 . S
C114 H117 0.960 . S
H115 C114 0.961 . S
H116 C114 0.961 . S
H117 C114 0.960 . S
C118 N119 1.342 . S
C118 C122 1.401 . S
C118 C123 1.499 . S
N119 Co102 1.989 . S
N119 C118 1.342 . S
N119 N120 1.388 . S
N120 Co103 1.993 . S
N120 N119 1.388 . S
N120 C121 1.346 . S
C121 N120 1.346 . S
C121 C122 1.396 . S
C121 C131 1.510 . S
C122 C118 1.401 . S
C122 C121 1.396 . S
C123 C118 1.499 . S
C123 H124 0.959 . S
C123 H125 0.960 . S
C123 H126 0.961 . S
H124 C123 0.959 . S
H125 C123 0.960 . S
H126 C123 0.961 . S
O127 Co102 1.967 . S
O127 C135 1.258 . S
O128 Co103 1.941 . S
O128 C135 1.266 . S
H129 C131 0.959 . S
H130 C131 0.961 . S
C131 C121 1.510 . S
C131 H129 0.959 . S
C131 H130 0.961 . S
C131 H132 0.960 . S
H132 C131 0.960 . S
H133 N113 0.862 . S
O134 Co102 1.920 . S
O134 C107 1.289 . S
C135 O127 1.258 . S
C135 O128 1.266 . S
Co136 O139 1.970 . S
Co136 N153 1.989 1_554 S
Co136 O161 1.967 . S
Co136 O168 1.920 1_545 S
Co137 O140 1.966 . S
Co137 N146 2.022 . S
Co137 N154 1.993 1_554 S
Co137 O162 1.941 . S
C138 O139 1.258 . S
C138 O140 1.263 . S
O139 Co136 1.970 . S
O139 C138 1.258 . S
O140 Co137 1.966 . S
O140 C138 1.263 . S
C141 O142 1.235 . S
C141 O168 1.289 . S
O142 C141 1.235 . S
C143 C145 1.400 . S
C143 N146 1.351 . S
C143 C148 1.501 . S
C144 C145 1.387 . S
C144 N147 1.341 . S
C145 C143 1.400 . S
C145 C144 1.387 . S
N146 Co137 2.022 . S
N146 C143 1.351 . S
N146 N147 1.365 . S
N147 C144 1.341 . S
N147 N146 1.365 . S
N147 H167 0.862 1_554 S
C148 C143 1.501 . S
C148 H149 0.961 . S
C148 H150 0.961 . S
C148 H151 0.960 . S
H149 C148 0.961 . S
H150 C148 0.961 . S
H151 C148 0.960 . S
C152 N153 1.342 . S
C152 C156 1.401 . S
C152 C157 1.499 . S
N153 Co136 1.989 1_556 S
N153 C152 1.342 . S
N153 N154 1.388 . S
N154 Co137 1.993 1_556 S
N154 N153 1.388 . S
N154 C155 1.346 . S
C155 N154 1.346 . S
C155 C156 1.396 . S
C155 C165 1.510 . S
C156 C152 1.401 . S
C156 C155 1.396 . S
C157 C152 1.499 . S
C157 H158 0.959 . S
C157 H159 0.960 . S
C157 H160 0.961 . S
H158 C157 0.959 . S
H159 C157 0.960 . S
H160 C157 0.961 . S
O161 Co136 1.967 . S
O161 C169 1.258 . S
O162 Co137 1.941 . S
O162 C169 1.266 . S
H163 C165 0.959 . S
H164 C165 0.961 . S
C165 C155 1.510 . S
C165 H163 0.959 . S
C165 H164 0.961 . S
C165 H166 0.960 . S
H166 C165 0.960 . S
H167 N147 0.862 1_556 S
O168 Co136 1.920 1_565 S
O168 C141 1.289 . S
C169 O161 1.258 . S
C169 O162 1.266 . S
Co170 O173 1.970 . S
Co170 N187 1.989 . S
Co170 O195 1.967 . S
Co170 O202 1.920 1_655 S
Co171 O174 1.966 . S
Co171 N180 2.022 . S
Co171 N188 1.993 . S
Co171 O196 1.941 . S
C172 O173 1.258 . S
C172 O174 1.263 . S
O173 Co170 1.970 . S
O173 C172 1.258 . S
O174 Co171 1.966 . S
O174 C172 1.263 . S
C175 O176 1.235 . S
C175 O202 1.289 . S
O176 C175 1.235 . S
C177 C179 1.400 . S
C177 N180 1.351 . S
C177 C182 1.501 . S
C178 C179 1.387 . S
C178 N181 1.341 . S
C179 C177 1.400 . S
C179 C178 1.387 . S
N180 Co171 2.022 . S
N180 C177 1.351 . S
N180 N181 1.365 . S
N181 C178 1.341 . S
N181 N180 1.365 . S
N181 H201 0.862 . S
C182 C177 1.501 . S
C182 H183 0.961 . S
C182 H184 0.961 . S
C182 H185 0.960 . S
H183 C182 0.961 . S
H184 C182 0.961 . S
H185 C182 0.960 . S
C186 N187 1.342 . S
C186 C190 1.401 . S
C186 C191 1.499 . S
N187 Co170 1.989 . S
N187 C186 1.342 . S
N187 N188 1.388 . S
N188 Co171 1.993 . S
N188 N187 1.388 . S
N188 C189 1.346 . S
C189 N188 1.346 . S
C189 C190 1.396 . S
C189 C199 1.510 . S
C190 C186 1.401 . S
C190 C189 1.396 . S
C191 C186 1.499 . S
C191 H192 0.959 . S
C191 H193 0.960 . S
C191 H194 0.961 . S
H192 C191 0.959 . S
H193 C191 0.960 . S
H194 C191 0.961 . S
O195 Co170 1.967 . S
O195 C203 1.258 . S
O196 Co171 1.941 . S
O196 C203 1.266 . S
H197 C199 0.959 . S
H198 C199 0.961 . S
C199 C189 1.510 . S
C199 H197 0.959 . S
C199 H198 0.961 . S
C199 H200 0.960 . S
H200 C199 0.960 . S
H201 N181 0.862 . S
O202 Co170 1.920 1_455 S
O202 C175 1.289 . S
C203 O195 1.258 . S
C203 O196 1.266 . S
Co204 O207 1.970 . S
Co204 N221 1.989 1_554 S
Co204 O229 1.967 . S
Co204 O236 1.920 1_565 S
Co205 O208 1.966 . S
Co205 N214 2.022 . S
Co205 N222 1.993 1_554 S
Co205 O230 1.941 . S
C206 O207 1.258 . S
C206 O208 1.263 . S
O207 Co204 1.970 . S
O207 C206 1.258 . S
O208 Co205 1.966 . S
O208 C206 1.263 . S
C209 O210 1.235 . S
C209 O236 1.289 . S
O210 C209 1.235 . S
C211 C213 1.400 . S
C211 N214 1.351 . S
C211 C216 1.501 . S
C212 C213 1.387 . S
C212 N215 1.341 . S
C213 C211 1.400 . S
C213 C212 1.387 . S
N214 Co205 2.022 . S
N214 C211 1.351 . S
N214 N215 1.365 . S
N215 C212 1.341 . S
N215 N214 1.365 . S
N215 H235 0.862 1_554 S
C216 C211 1.501 . S
C216 H217 0.961 . S
C216 H218 0.961 . S
C216 H219 0.960 . S
H217 C216 0.961 . S
H218 C216 0.961 . S
H219 C216 0.960 . S
C220 N221 1.342 . S
C220 C224 1.401 . S
C220 C225 1.499 . S
N221 Co204 1.989 1_556 S
N221 C220 1.342 . S
N221 N222 1.388 . S
N222 Co205 1.993 1_556 S
N222 N221 1.388 . S
N222 C223 1.346 . S
C223 N222 1.346 . S
C223 C224 1.396 . S
C223 C233 1.510 . S
C224 C220 1.401 . S
C224 C223 1.396 . S
C225 C220 1.499 . S
C225 H226 0.959 . S
C225 H227 0.960 . S
C225 H228 0.961 . S
H226 C225 0.959 . S
H227 C225 0.960 . S
H228 C225 0.961 . S
O229 Co204 1.967 . S
O229 C237 1.258 . S
O230 Co205 1.941 . S
O230 C237 1.266 . S
H231 C233 0.959 . S
H232 C233 0.961 . S
C233 C223 1.510 . S
C233 H231 0.959 . S
C233 H232 0.961 . S
C233 H234 0.960 . S
H234 C233 0.960 . S
H235 N215 0.862 1_556 S
O236 Co204 1.920 1_545 S
O236 C209 1.289 . S
C237 O229 1.258 . S
C237 O230 1.266 . S
Co238 O241 1.970 . S
Co238 N255 1.989 . S
Co238 O263 1.967 . S
Co238 O270 1.920 1_455 S
Co239 O242 1.966 . S
Co239 N248 2.022 . S
Co239 N256 1.993 . S
Co239 O264 1.941 . S
C240 O241 1.258 . S
C240 O242 1.263 . S
O241 Co238 1.970 . S
O241 C240 1.258 . S
O242 Co239 1.966 . S
O242 C240 1.263 . S
C243 O244 1.235 . S
C243 O270 1.289 . S
O244 C243 1.235 . S
C245 C247 1.400 . S
C245 N248 1.351 . S
C245 C250 1.501 . S
C246 C247 1.387 . S
C246 N249 1.341 . S
C247 C245 1.400 . S
C247 C246 1.387 . S
N248 Co239 2.022 . S
N248 C245 1.351 . S
N248 N249 1.365 . S
N249 C246 1.341 . S
N249 N248 1.365 . S
N249 H269 0.862 . S
C250 C245 1.501 . S
C250 H251 0.961 . S
C250 H252 0.961 . S
C250 H253 0.960 . S
H251 C250 0.961 . S
H252 C250 0.961 . S
H253 C250 0.960 . S
C254 N255 1.342 . S
C254 C258 1.401 . S
C254 C259 1.499 . S
N255 Co238 1.989 . S
N255 C254 1.342 . S
N255 N256 1.388 . S
N256 Co239 1.993 . S
N256 N255 1.388 . S
N256 C257 1.346 . S
C257 N256 1.346 . S
C257 C258 1.396 . S
C257 C267 1.510 . S
C258 C254 1.401 . S
C258 C257 1.396 . S
C259 C254 1.499 . S
C259 H260 0.959 . S
C259 H261 0.960 . S
C259 H262 0.961 . S
H260 C259 0.959 . S
H261 C259 0.960 . S
H262 C259 0.961 . S
O263 Co238 1.967 . S
O263 C271 1.258 . S
O264 Co239 1.941 . S
O264 C271 1.266 . S
H265 C267 0.959 . S
H266 C267 0.961 . S
C267 C257 1.510 . S
C267 H265 0.959 . S
C267 H266 0.961 . S
C267 H268 0.960 . S
H268 C267 0.960 . S
H269 N249 0.862 . S
O270 Co238 1.920 1_655 S
O270 C243 1.289 . S
C271 O263 1.258 . S
C271 O264 1.266 . S
H272 C278 0.930 . S
H273 C281 0.930 . S
H274 C282 0.934 . S
H275 C283 0.924 1_556 S
H276 C286 0.930 . S
H277 C287 0.930 . S
C278 H272 0.930 . S
C278 C279 1.355 . S
C278 C280 1.415 . S
C279 C278 1.355 . S
C279 C281 1.419 . S
C280 C278 1.415 . S
C280 C285 1.425 . S
C280 C287 1.409 . S
C281 H273 0.930 . S
C281 C279 1.419 . S
C281 C282 1.361 1_554 S
C282 H274 0.934 . S
C282 C281 1.361 1_556 S
C282 C285 1.407 1_556 S
C283 H275 0.924 1_554 S
C283 C284 1.357 . S
C283 C285 1.417 . S
C284 C283 1.357 . S
C284 C286 1.419 . S
C285 C280 1.425 . S
C285 C282 1.407 1_554 S
C285 C283 1.417 . S
C286 H276 0.930 . S
C286 C284 1.419 . S
C286 C287 1.362 . S
C287 H277 0.930 . S
C287 C280 1.409 . S
C287 C286 1.362 . S
H288 C294 0.930 . S
H289 C297 0.930 . S
H290 C298 0.930 . S
H291 C299 0.930 . S
H292 C302 0.930 . S
H293 C303 0.930 . S
C294 H288 0.930 . S
C294 C295 1.355 . S
C294 C296 1.415 . S
C295 C294 1.355 . S
C295 C297 1.419 . S
C296 C294 1.415 . S
C296 C301 1.425 . S
C296 C303 1.409 . S
C297 H289 0.930 . S
C297 C295 1.419 . S
C297 C298 1.362 . S
C298 H290 0.930 . S
C298 C297 1.362 . S
C298 C301 1.409 . S
C299 H291 0.930 . S
C299 C300 1.355 . S
C299 C301 1.415 . S
C300 C299 1.355 . S
C300 C302 1.419 . S
C301 C296 1.425 . S
C301 C298 1.409 . S
C301 C299 1.415 . S
C302 H292 0.930 . S
C302 C300 1.419 . S
C302 C303 1.362 . S
C303 H293 0.930 . S
C303 C296 1.409 . S
C303 C302 1.362 . S
H304 C310 0.930 1_556 S
H305 C313 0.930 . S
H306 C314 0.930 . S
H307 C315 0.930 . S
H308 C318 0.930 . S
H309 C319 0.930 . S
C310 H304 0.930 1_554 S
C310 C311 1.355 . S
C310 C312 1.415 . S
C311 C310 1.355 . S
C311 C313 1.419 . S
C312 C310 1.415 . S
C312 C317 1.425 . S
C312 C319 1.409 1_554 S
C313 H305 0.930 . S
C313 C311 1.419 . S
C313 C314 1.362 . S
C314 H306 0.930 . S
C314 C313 1.362 . S
C314 C317 1.409 . S
C315 H307 0.930 . S
C315 C316 1.355 . S
C315 C317 1.415 . S
C316 C315 1.355 . S
C316 C318 1.419 1_554 S
C317 C312 1.425 . S
C317 C314 1.409 . S
C317 C315 1.415 . S
C318 H308 0.930 . S
C318 C316 1.419 1_556 S
C318 C319 1.362 . S
C319 H309 0.930 . S
C319 C312 1.409 1_556 S
C319 C318 1.362 . S
H320 C326 0.930 . S
H321 C329 0.930 . S
H322 C330 0.930 . S
H323 C331 0.930 . S
H324 C334 0.930 . S
H325 C335 0.930 . S
C326 H320 0.930 . S
C326 C327 1.355 . S
C326 C328 1.415 . S
C327 C326 1.355 . S
C327 C329 1.419 . S
C328 C326 1.415 . S
C328 C333 1.425 . S
C328 C335 1.409 . S
C329 H321 0.930 . S
C329 C327 1.419 . S
C329 C330 1.362 . S
C330 H322 0.930 . S
C330 C329 1.362 . S
C330 C333 1.409 . S
C331 H323 0.930 . S
C331 C332 1.355 . S
C331 C333 1.415 . S
C332 C331 1.355 . S
C332 C334 1.419 . S
C333 C328 1.425 . S
C333 C330 1.409 . S
C333 C331 1.415 . S
C334 H324 0.930 . S
C334 C332 1.419 . S
C334 C335 1.362 . S
C335 H325 0.930 . S
C335 C328 1.409 . S
C335 C334 1.362 . S
H336 C342 0.930 . S
H337 C345 0.930 . S
H338 C346 0.931 . S
H339 C347 0.930 . S
H340 C350 0.930 . S
H341 C351 0.930 . S
C342 H336 0.930 . S
C342 C343 1.355 . S
C342 C344 1.415 . S
C343 C342 1.355 . S
C343 C345 1.419 1_554 S
C344 C342 1.415 . S
C344 C349 1.425 . S
C344 C351 1.409 . S
C345 H337 0.930 . S
C345 C343 1.419 1_556 S
C345 C346 1.362 . S
C346 H338 0.931 . S
C346 C345 1.362 . S
C346 C349 1.408 1_556 S
C347 H339 0.930 . S
C347 C348 1.355 . S
C347 C349 1.415 . S
C348 C347 1.355 . S
C348 C350 1.419 . S
C349 C344 1.425 . S
C349 C346 1.408 1_554 S
C349 C347 1.415 . S
C350 H340 0.930 . S
C350 C348 1.419 . S
C350 C351 1.362 . S
C351 H341 0.930 . S
C351 C344 1.409 . S
C351 C350 1.362 . S
H352 C358 0.930 . S
H353 C361 0.930 . S
H354 C362 0.930 . S
H355 C363 0.930 . S
H356 C366 0.930 . S
H357 C367 0.930 . S
C358 H352 0.930 . S
C358 C359 1.355 . S
C358 C360 1.415 . S
C359 C358 1.355 . S
C359 C361 1.419 . S
C360 C358 1.415 . S
C360 C365 1.425 . S
C360 C367 1.409 . S
C361 H353 0.930 . S
C361 C359 1.419 . S
C361 C362 1.362 . S
C362 H354 0.930 . S
C362 C361 1.362 . S
C362 C365 1.409 . S
C363 H355 0.930 . S
C363 C364 1.355 . S
C363 C365 1.415 . S
C364 C363 1.355 . S
C364 C366 1.419 . S
C365 C360 1.425 . S
C365 C362 1.409 . S
C365 C363 1.415 . S
C366 H356 0.930 . S
C366 C364 1.419 . S
C366 C367 1.362 . S
C367 H357 0.930 . S
C367 C360 1.409 . S
C367 C366 1.362 . S
H368 C374 0.930 . S
H369 C377 0.930 . S
H370 C378 0.930 . S
H371 C379 0.930 1_556 S
H372 C382 0.930 . S
H373 C383 0.930 . S
C374 H368 0.930 . S
C374 C375 1.355 . S
C374 C376 1.415 . S
C375 C374 1.355 . S
C375 C377 1.419 1_554 S
C376 C374 1.415 . S
C376 C381 1.425 . S
C376 C383 1.409 . S
C377 H369 0.930 . S
C377 C375 1.419 1_556 S
C377 C378 1.362 . S
C378 H370 0.930 . S
C378 C377 1.362 . S
C378 C381 1.409 1_556 S
C379 H371 0.930 1_554 S
C379 C380 1.355 . S
C379 C381 1.415 . S
C380 C379 1.355 . S
C380 C382 1.419 . S
C381 C376 1.425 . S
C381 C378 1.409 1_554 S
C381 C379 1.415 . S
C382 H372 0.930 . S
C382 C380 1.419 . S
C382 C383 1.362 . S
C383 H373 0.930 . S
C383 C376 1.409 . S
C383 C382 1.362 . S
H384 C390 0.930 . S
H385 C393 0.930 . S
H386 C394 0.930 . S
H387 C395 0.930 . S
H388 C398 0.930 . S
H389 C399 0.930 . S
C390 H384 0.930 . S
C390 C391 1.355 . S
C390 C392 1.415 . S
C391 C390 1.355 . S
C391 C393 1.419 . S
C392 C390 1.415 . S
C392 C397 1.425 . S
C392 C399 1.409 . S
C393 H385 0.930 . S
C393 C391 1.419 . S
C393 C394 1.362 . S
C394 H386 0.930 . S
C394 C393 1.362 . S
C394 C397 1.409 . S
C395 H387 0.930 . S
C395 C396 1.355 . S
C395 C397 1.415 . S
C396 C395 1.355 . S
C396 C398 1.419 . S
C397 C392 1.425 . S
C397 C394 1.409 . S
C397 C395 1.415 . S
C398 H388 0.930 . S
C398 C396 1.419 . S
C398 C399 1.362 . S
C399 H389 0.930 . S
C399 C392 1.409 . S
C399 C398 1.362 . S
H400 C406 0.930 . S
H401 C409 0.930 . S
H402 C410 0.930 . S
H403 C411 0.930 . S
H404 C414 0.930 . S
H405 C415 0.930 . S
C406 H400 0.930 . S
C406 C407 1.355 . S
C406 C408 1.415 . S
C407 C406 1.355 . S
C407 C409 1.419 1_556 S
C408 C406 1.415 . S
C408 C413 1.425 1_556 S
C408 C415 1.409 . S
C409 H401 0.930 . S
C409 C407 1.419 1_554 S
C409 C410 1.362 . S
C410 H402 0.930 . S
C410 C409 1.362 . S
C410 C413 1.410 . S
C411 H403 0.930 . S
C411 C412 1.355 1_554 S
C411 C413 1.415 . S
C412 C411 1.355 1_556 S
C412 C414 1.419 . S
C413 C408 1.425 1_554 S
C413 C410 1.410 . S
C413 C411 1.415 . S
C414 H404 0.930 . S
C414 C412 1.419 . S
C414 C415 1.362 . S
C415 H405 0.930 . S
C415 C408 1.409 . S
C415 C414 1.362 . S
H416 C422 0.930 . S
H417 C425 0.930 . S
H418 C426 0.930 . S
H419 C427 0.930 . S
H420 C430 0.930 . S
H421 C431 0.930 . S
C422 H416 0.930 . S
C422 C423 1.355 . S
C422 C424 1.415 . S
C423 C422 1.355 . S
C423 C425 1.419 . S
C424 C422 1.415 . S
C424 C429 1.425 . S
C424 C431 1.409 . S
C425 H417 0.930 . S
C425 C423 1.419 . S
C425 C426 1.362 . S
C426 H418 0.930 . S
C426 C425 1.362 . S
C426 C429 1.409 . S
C427 H419 0.930 . S
C427 C428 1.355 . S
C427 C429 1.415 . S
C428 C427 1.355 . S
C428 C430 1.419 . S
C429 C424 1.425 . S
C429 C426 1.409 . S
C429 C427 1.415 . S
C430 H420 0.930 . S
C430 C428 1.419 . S
C430 C431 1.362 . S
C431 H421 0.930 . S
C431 C424 1.409 . S
C431 C430 1.362 . S
H432 C438 0.930 1_545 S
H433 C441 0.930 . S
H434 C442 0.930 . S
H435 C443 0.930 1_565 S
H436 C446 0.930 . S
H437 C447 0.930 . S
C438 H432 0.930 1_565 S
C438 C439 1.355 . S
C438 C440 1.415 1_565 S
C439 C438 1.355 . S
C439 C441 1.419 . S
C440 C438 1.415 1_545 S
C440 C445 1.425 1_445 S
C440 C447 1.409 . S
C441 H433 0.930 . S
C441 C439 1.419 . S
C441 C442 1.362 1_455 S
C442 H434 0.930 . S
C442 C441 1.362 1_655 S
C442 C445 1.409 . S
C443 H435 0.930 1_545 S
C443 C444 1.355 . S
C443 C445 1.415 1_545 S
C444 C443 1.355 . S
C444 C446 1.419 . S
C445 C440 1.425 1_665 S
C445 C442 1.409 . S
C445 C443 1.415 1_565 S
C446 H436 0.930 . S
C446 C444 1.419 . S
C446 C447 1.362 1_655 S
C447 H437 0.930 . S
C447 C440 1.409 . S
C447 C446 1.362 1_455 S
H448 C454 0.930 . S
H449 C457 0.936 . S
H450 C458 0.930 . S
H451 C459 0.930 . S
H452 C462 0.936 . S
H453 C463 0.930 . S
C454 H448 0.930 . S
C454 C455 1.355 . S
C454 C456 1.415 1_565 S
C455 C454 1.355 . S
C455 C457 1.397 1_655 S
C456 C454 1.415 1_545 S
C456 C461 1.425 1_645 S
C456 C463 1.409 . S
C457 H449 0.936 . S
C457 C455 1.397 1_455 S
C457 C458 1.379 . S
C458 H450 0.930 . S
C458 C457 1.379 . S
C458 C461 1.409 . S
C459 H451 0.930 . S
C459 C460 1.355 . S
C459 C461 1.415 1_545 S
C460 C459 1.355 . S
C460 C462 1.397 1_455 S
C461 C456 1.425 1_465 S
C461 C458 1.409 . S
C461 C459 1.415 1_565 S
C462 H452 0.936 . S
C462 C460 1.397 1_655 S
C462 C463 1.379 . S
C463 H453 0.930 . S
C463 C456 1.409 . S
C463 C462 1.379 . S
H464 C470 0.930 . S
H465 C473 0.930 . S
H466 C474 0.930 . S
H467 C475 0.930 . S
H468 C478 0.930 . S
H469 C479 0.930 . S
C470 H464 0.930 . S
C470 C471 1.355 . S
C470 C472 1.415 . S
C471 C470 1.355 . S
C471 C473 1.419 . S
C472 C470 1.415 . S
C472 C477 1.425 . S
C472 C479 1.409 . S
C473 H465 0.930 . S
C473 C471 1.419 . S
C473 C474 1.362 . S
C474 H466 0.930 . S
C474 C473 1.362 . S
C474 C477 1.409 . S
C475 H467 0.930 . S
C475 C476 1.355 . S
C475 C477 1.415 . S
C476 C475 1.355 . S
C476 C478 1.419 . S
C477 C472 1.425 . S
C477 C474 1.409 . S
C477 C475 1.415 . S
C478 H468 0.930 . S
C478 C476 1.419 . S
C478 C479 1.362 . S
C479 H469 0.930 . S
C479 C472 1.409 . S
C479 C478 1.362 . S
H480 C486 0.930 . S
H481 C489 0.930 . S
H482 C490 0.930 . S
H483 C491 0.930 . S
H484 C494 0.930 . S
H485 C495 0.930 . S
C486 H480 0.930 . S
C486 C487 1.355 . S
C486 C488 1.415 . S
C487 C486 1.355 . S
C487 C489 1.419 . S
C488 C486 1.415 . S
C488 C493 1.425 . S
C488 C495 1.409 . S
C489 H481 0.930 . S
C489 C487 1.419 . S
C489 C490 1.362 . S
C490 H482 0.930 . S
C490 C489 1.362 . S
C490 C493 1.409 . S
C491 H483 0.930 . S
C491 C492 1.355 . S
C491 C493 1.415 . S
C492 C491 1.355 . S
C492 C494 1.419 . S
C493 C488 1.425 . S
C493 C490 1.409 . S
C493 C491 1.415 . S
C494 H484 0.930 . S
C494 C492 1.419 . S
C494 C495 1.362 . S
C495 H485 0.930 . S
C495 C488 1.409 . S
C495 C494 1.362 . S
H496 C502 0.930 . S
H497 C505 0.930 . S
H498 C506 0.930 . S
H499 C507 0.930 . S
H500 C510 0.930 . S
H501 C511 0.930 . S
C502 H496 0.930 . S
C502 C503 1.355 . S
C502 C504 1.415 . S
C503 C502 1.355 . S
C503 C505 1.419 . S
C504 C502 1.415 . S
C504 C509 1.425 . S
C504 C511 1.409 . S
C505 H497 0.930 . S
C505 C503 1.419 . S
C505 C506 1.362 . S
C506 H498 0.930 . S
C506 C505 1.362 . S
C506 C509 1.409 . S
C507 H499 0.930 . S
C507 C508 1.355 . S
C507 C509 1.415 . S
C508 C507 1.355 . S
C508 C510 1.419 . S
C509 C504 1.425 . S
C509 C506 1.409 . S
C509 C507 1.415 . S
C510 H500 0.930 . S
C510 C508 1.419 . S
C510 C511 1.362 . S
C511 H501 0.930 . S
C511 C504 1.409 . S
C511 C510 1.362 . S
H512 C518 0.930 . S
H513 C521 0.930 . S
H514 C522 0.930 . S
H515 C523 0.930 . S
H516 C526 0.930 . S
H517 C527 0.930 . S
C518 H512 0.930 . S
C518 C519 1.355 . S
C518 C520 1.415 . S
C519 C518 1.355 . S
C519 C521 1.419 . S
C520 C518 1.415 . S
C520 C525 1.425 . S
C520 C527 1.409 . S
C521 H513 0.930 . S
C521 C519 1.419 . S
C521 C522 1.362 . S
C522 H514 0.930 . S
C522 C521 1.362 . S
C522 C525 1.409 . S
C523 H515 0.930 . S
C523 C524 1.355 . S
C523 C525 1.415 . S
C524 C523 1.355 . S
C524 C526 1.419 . S
C525 C520 1.425 . S
C525 C522 1.409 . S
C525 C523 1.415 . S
C526 H516 0.930 . S
C526 C524 1.419 . S
C526 C527 1.362 . S
C527 H517 0.930 . S
C527 C520 1.409 . S
C527 C526 1.362 . S
H528 C534 0.930 . S
H529 C537 0.930 . S
H530 C538 0.930 . S
H531 C539 0.930 . S
H532 C542 0.930 . S
H533 C543 0.930 . S
C534 H528 0.930 . S
C534 C535 1.355 . S
C534 C536 1.415 . S
C535 C534 1.355 . S
C535 C537 1.419 . S
C536 C534 1.415 . S
C536 C541 1.425 . S
C536 C543 1.409 . S
C537 H529 0.930 . S
C537 C535 1.419 . S
C537 C538 1.362 . S
C538 H530 0.930 . S
C538 C537 1.362 . S
C538 C541 1.409 . S
C539 H531 0.930 . S
C539 C540 1.355 . S
C539 C541 1.415 . S
C540 C539 1.355 . S
C540 C542 1.419 . S
C541 C536 1.425 . S
C541 C538 1.409 . S
C541 C539 1.415 . S
C542 H532 0.930 . S
C542 C540 1.419 . S
C542 C543 1.362 . S
C543 H533 0.930 . S
C543 C536 1.409 . S
C543 C542 1.362 . S
H544 C550 0.930 . S
H545 C553 0.930 . S
H546 C554 0.930 . S
H547 C555 0.930 . S
H548 C558 0.930 . S
H549 C559 0.930 . S
C550 H544 0.930 . S
C550 C551 1.355 . S
C550 C552 1.415 . S
C551 C550 1.355 . S
C551 C553 1.419 . S
C552 C550 1.415 . S
C552 C557 1.425 . S
C552 C559 1.409 . S
C553 H545 0.930 . S
C553 C551 1.419 . S
C553 C554 1.362 . S
C554 H546 0.930 . S
C554 C553 1.362 . S
C554 C557 1.409 . S
C555 H547 0.930 . S
C555 C556 1.355 . S
C555 C557 1.415 . S
C556 C555 1.355 . S
C556 C558 1.419 . S
C557 C552 1.425 . S
C557 C554 1.409 . S
C557 C555 1.415 . S
C558 H548 0.930 . S
C558 C556 1.419 . S
C558 C559 1.362 . S
C559 H549 0.930 . S
C559 C552 1.409 . S
C559 C558 1.362 . S
H560 C566 0.930 . S
H561 C569 0.930 . S
H562 C570 0.930 . S
H563 C571 0.930 . S
H564 C574 0.930 . S
H565 C575 0.930 . S
C566 H560 0.930 . S
C566 C567 1.355 . S
C566 C568 1.415 . S
C567 C566 1.355 . S
C567 C569 1.419 . S
C568 C566 1.415 . S
C568 C573 1.425 . S
C568 C575 1.409 . S
C569 H561 0.930 . S
C569 C567 1.419 . S
C569 C570 1.362 . S
C570 H562 0.930 . S
C570 C569 1.362 . S
C570 C573 1.409 . S
C571 H563 0.930 . S
C571 C572 1.355 . S
C571 C573 1.415 . S
C572 C571 1.355 . S
C572 C574 1.419 . S
C573 C568 1.425 . S
C573 C570 1.409 . S
C573 C571 1.415 . S
C574 H564 0.930 . S
C574 C572 1.419 . S
C574 C575 1.362 . S
C575 H565 0.930 . S
C575 C568 1.409 . S
C575 C574 1.362 . S
H576 C582 0.930 . S
H577 C585 0.930 . S
H578 C586 0.930 . S
H579 C587 0.930 . S
H580 C590 0.930 . S
H581 C591 0.930 . S
C582 H576 0.930 . S
C582 C583 1.355 . S
C582 C584 1.415 . S
C583 C582 1.355 . S
C583 C585 1.419 . S
C584 C582 1.415 . S
C584 C589 1.425 . S
C584 C591 1.409 . S
C585 H577 0.930 . S
C585 C583 1.419 . S
C585 C586 1.362 . S
C586 H578 0.930 . S
C586 C585 1.362 . S
C586 C589 1.409 . S
C587 H579 0.930 . S
C587 C588 1.355 . S
C587 C589 1.415 . S
C588 C587 1.355 . S
C588 C590 1.419 . S
C589 C584 1.425 . S
C589 C586 1.409 . S
C589 C587 1.415 . S
C590 H580 0.930 . S
C590 C588 1.419 . S
C590 C591 1.362 . S
C591 H581 0.930 . S
C591 C584 1.409 . S
C591 C590 1.362 . S
C279 C209 0.402 . S
C284 C9 0.608 . S
C295 C243 0.288 . S
C300 C43 0.425 . S
C311 C141 0.454 . S
C316 C77 0.694 . S
C327 C175 0.311 . S
C332 C111 0.463 . S
C343 C73 0.450 . S
C348 C145 0.686 . S
C359 C107 0.445 . S
C364 C179 0.679 . S
C375 C5 0.388 . S
C380 C213 0.589 . S
C391 C247 0.557 . S
C396 C39 0.370 . S
C407 C101 2.769 . S
C412 C33 2.774 . S
C423 C67 2.769 . S
C428 C135 2.772 . S
C439 C237 2.786 . S
C444 C169 2.782 . S
C455 C203 2.770 . S
C460 C271 2.769 . S
C471 C20 1.721 . S
C476 C258 1.714 . S
C487 C156 1.713 . S
C492 C54 1.719 . S
C503 C190 1.731 . S
C508 C88 1.743 . S
C519 C224 1.719 . S
C524 C122 1.731 . S
C535 C70 2.138 . S
C540 C172 2.143 . S
C551 C104 2.117 . S
C556 C206 2.108 . S
C567 C240 2.137 . S
C572 C2 2.143 . S
C583 C138 2.132 . S
C588 C36 2.140 . S
