# Generated by pormake.
# Topology ukf, (4)-cn, num edge types: 1
# Building blocks:
#     Node 0, Type 0, BuildingBlock: GALJAG_clean_sbu_0, # of connection points: 4
#     Node 1, Type 0, BuildingBlock: GALJAG_clean_sbu_0, # of connection points: 4
#     Node 2, Type 0, BuildingBlock: GALJAG_clean_sbu_0, # of connection points: 4
#     Node 3, Type 0, BuildingBlock: GALJAG_clean_sbu_0, # of connection points: 4
#     Node 4, Type 0, BuildingBlock: GALJAG_clean_sbu_0, # of connection points: 4
#     Node 5, Type 0, BuildingBlock: GALJAG_clean_sbu_0, # of connection points: 4
#     Node 6, Type 0, BuildingBlock: GALJAG_clean_sbu_0, # of connection points: 4
#     Node 7, Type 0, BuildingBlock: GALJAG_clean_sbu_0, # of connection points: 4
#     Node 8, Type 0, BuildingBlock: GALJAG_clean_sbu_0, # of connection points: 4
#     Node 9, Type 0, BuildingBlock: GALJAG_clean_sbu_0, # of connection points: 4
#     Node 10, Type 0, BuildingBlock: GALJAG_clean_sbu_0, # of connection points: 4
#     Node 11, Type 0, BuildingBlock: GALJAG_clean_sbu_0, # of connection points: 4
#     Edge 12, Type (0, 0), BuildingBlock: MIFKUJ_clean_linker_0, # of connection points: 2
#     Edge 13, Type (0, 0), BuildingBlock: MIFKUJ_clean_linker_0, # of connection points: 2
#     Edge 14, Type (0, 0), BuildingBlock: MIFKUJ_clean_linker_0, # of connection points: 2
#     Edge 15, Type (0, 0), BuildingBlock: MIFKUJ_clean_linker_0, # of connection points: 2
#     Edge 16, Type (0, 0), BuildingBlock: MIFKUJ_clean_linker_0, # of connection points: 2
#     Edge 17, Type (0, 0), BuildingBlock: MIFKUJ_clean_linker_0, # of connection points: 2
#     Edge 18, Type (0, 0), BuildingBlock: MIFKUJ_clean_linker_0, # of connection points: 2
#     Edge 19, Type (0, 0), BuildingBlock: MIFKUJ_clean_linker_0, # of connection points: 2
#     Edge 20, Type (0, 0), BuildingBlock: MIFKUJ_clean_linker_0, # of connection points: 2
#     Edge 21, Type (0, 0), BuildingBlock: MIFKUJ_clean_linker_0, # of connection points: 2
#     Edge 22, Type (0, 0), BuildingBlock: MIFKUJ_clean_linker_0, # of connection points: 2
#     Edge 23, Type (0, 0), BuildingBlock: MIFKUJ_clean_linker_0, # of connection points: 2
#     Edge 24, Type (0, 0), BuildingBlock: MIFKUJ_clean_linker_0, # of connection points: 2
#     Edge 25, Type (0, 0), BuildingBlock: MIFKUJ_clean_linker_0, # of connection points: 2
#     Edge 26, Type (0, 0), BuildingBlock: MIFKUJ_clean_linker_0, # of connection points: 2
#     Edge 27, Type (0, 0), BuildingBlock: MIFKUJ_clean_linker_0, # of connection points: 2
#     Edge 28, Type (0, 0), BuildingBlock: MIFKUJ_clean_linker_0, # of connection points: 2
#     Edge 29, Type (0, 0), BuildingBlock: MIFKUJ_clean_linker_0, # of connection points: 2
#     Edge 30, Type (0, 0), BuildingBlock: MIFKUJ_clean_linker_0, # of connection points: 2
#     Edge 31, Type (0, 0), BuildingBlock: MIFKUJ_clean_linker_0, # of connection points: 2
#     Edge 32, Type (0, 0), BuildingBlock: MIFKUJ_clean_linker_0, # of connection points: 2
#     Edge 33, Type (0, 0), BuildingBlock: MIFKUJ_clean_linker_0, # of connection points: 2
#     Edge 34, Type (0, 0), BuildingBlock: MIFKUJ_clean_linker_0, # of connection points: 2
#     Edge 35, Type (0, 0), BuildingBlock: MIFKUJ_clean_linker_0, # of connection points: 2
# Relax obj value: 0.079
# Max RMSD: 0.071
# Mean RMSD: 0.071
data_MOF--net-ukf--node1-GALJAG_clean_sbu_0--edge1-MIFKUJ_clean_linker_0
_symmetry_space_group_name_H-M    P1
_symmetry_Int_Tables_number       1
_symmetry_cell_setting            triclinic
loop_
_symmetry_equiv_pos_as_xyz
'x, y, z'
_cell_length_a     41.08059
_cell_length_b     41.087435
_cell_length_c     89.309124
_cell_angle_alpha  90.010035
_cell_angle_beta   90.05608
_cell_angle_gamma 120.04162
loop_
_atom_site_label
_atom_site_type_symbol
_atom_site_fract_x
_atom_site_fract_y
_atom_site_fract_z
_atom_type_partial_charge
In0 In 0.4153 0.23078 0.05984 0.0
O1 O 0.43738 0.227 0.08277 0.0
O2 O 0.38274 0.22067 0.08173 0.0
C3 C 0.46564 0.22178 0.04366 0.0
C4 C 0.43776 0.30502 0.05811 0.0
C5 C 0.35464 0.17195 0.04702 0.0
O6 O 0.46017 0.21364 0.05741 0.0
O7 O 0.4461 0.23472 0.03823 0.0
O8 O 0.36768 0.20533 0.04248 0.0
O9 O 0.37098 0.16869 0.0584 0.0
C10 C 0.40848 0.22164 0.08981 0.0
O11 O 0.40368 0.27983 0.05654 0.0
O12 O 0.45979 0.29262 0.0605 0.0
In13 In 0.18599 0.41322 0.39436 0.0
O14 O 0.12694 0.40281 0.38829 0.0
O15 O 0.16666 0.45543 0.39783 0.0
C16 C 0.19043 0.35521 0.38209 0.0
C17 C 0.18551 0.4011 0.42404 0.0
C18 C 0.24135 0.46981 0.37871 0.0
O19 O 0.16541 0.36284 0.37815 0.0
O20 O 0.21145 0.37553 0.39252 0.0
O21 O 0.24254 0.4677 0.39278 0.0
O22 O 0.21244 0.44344 0.37263 0.0
C23 C 0.13404 0.43509 0.39261 0.0
O24 O 0.215 0.42329 0.41696 0.0
O25 O 0.1561 0.38453 0.41612 0.0
In26 In 0.77412 0.17996 0.72652 0.0
O27 O 0.72537 0.12056 0.72066 0.0
O28 O 0.71218 0.16159 0.7282 0.0
C29 C 0.83207 0.17674 0.71347 0.0
C30 C 0.78767 0.18163 0.75616 0.0
C31 C 0.77917 0.24114 0.71302 0.0
O32 O 0.79956 0.16124 0.70776 0.0
O33 O 0.83461 0.19186 0.72602 0.0
O34 O 0.77347 0.23534 0.72689 0.0
O35 O 0.7824 0.21628 0.70605 0.0
C36 C 0.70002 0.12836 0.72379 0.0
O37 O 0.80012 0.21095 0.74826 0.0
O38 O 0.76869 0.15115 0.74907 0.0
In39 In 0.60023 0.77848 0.05682 0.0
O40 O 0.61273 0.72982 0.05402 0.0
O41 O 0.55593 0.71659 0.05573 0.0
C42 C 0.6604 0.83894 0.04446 0.0
C43 C 0.60788 0.78882 0.08673 0.0
C44 C 0.54618 0.78393 0.04191 0.0
O45 O 0.64697 0.80621 0.03912 0.0
O46 O 0.64468 0.84066 0.0563 0.0
O47 O 0.54736 0.7834 0.05603 0.0
O48 O 0.57221 0.7817 0.03537 0.0
C49 C 0.57848 0.70447 0.05432 0.0
O50 O 0.5843 0.79307 0.07917 0.0
O51 O 0.62796 0.77952 0.07918 0.0
In52 In 0.82496 0.59779 0.39103 0.0
O53 O 0.8872 0.6122 0.39159 0.0
O54 O 0.84656 0.55965 0.38274 0.0
C55 C 0.82287 0.65714 0.37892 0.0
C56 C 0.82012 0.60087 0.42116 0.0
C57 C 0.7632 0.5443 0.37701 0.0
O58 O 0.84605 0.64738 0.37458 0.0
O59 O 0.80241 0.63818 0.38973 0.0
O60 O 0.77002 0.54142 0.3906 0.0
O61 O 0.7874 0.57396 0.3706 0.0
C62 C 0.88046 0.58114 0.38609 0.0
O63 O 0.79907 0.57188 0.4136 0.0
O64 O 0.8437 0.62853 0.41354 0.0
In65 In 0.22772 0.81963 0.72617 0.0
O66 O 0.27503 0.87479 0.71613 0.0
O67 O 0.28823 0.84988 0.73427 0.0
C68 C 0.16342 0.80842 0.71297 0.0
C69 C 0.21097 0.81726 0.75548 0.0
C70 C 0.23724 0.7677 0.71152 0.0
O71 O 0.19248 0.84074 0.71345 0.0
O72 O 0.16699 0.78313 0.71938 0.0
O73 O 0.22874 0.76467 0.72523 0.0
O74 O 0.24166 0.79722 0.70533 0.0
C75 C 0.30002 0.8762 0.72485 0.0
O76 O 0.21043 0.79012 0.74865 0.0
O77 O 0.2197 0.84589 0.7475 0.0
In78 In 0.77 0.58653 0.61126 0.0
O79 O 0.77368 0.56407 0.58844 0.0
O80 O 0.78151 0.61927 0.58928 0.0
C81 C 0.77149 0.53332 0.62834 0.0
C82 C 0.69659 0.56688 0.61275 0.0
C83 C 0.83249 0.64451 0.62348 0.0
O84 O 0.78159 0.53833 0.61478 0.0
O85 O 0.76055 0.55505 0.63322 0.0
O86 O 0.79995 0.63897 0.62637 0.0
O87 O 0.83318 0.62192 0.61412 0.0
C88 C 0.78003 0.59316 0.5813 0.0
O89 O 0.72254 0.6001 0.61552 0.0
O90 O 0.70793 0.54456 0.6092 0.0
In91 In 0.18473 0.77829 0.94572 0.0
O92 O 0.21453 0.79315 0.92326 0.0
O93 O 0.15773 0.78103 0.92364 0.0
C94 C 0.24346 0.78147 0.96049 0.0
C95 C 0.13193 0.70432 0.94728 0.0
C96 C 0.18671 0.83871 0.959 0.0
O97 O 0.24383 0.78629 0.94652 0.0
O98 O 0.21349 0.77492 0.96694 0.0
O99 O 0.16671 0.80571 0.96396 0.0
O100 O 0.20383 0.84076 0.94704 0.0
C101 C 0.1868 0.78996 0.91592 0.0
O102 O 0.12377 0.72988 0.94932 0.0
O103 O 0.16611 0.71623 0.94449 0.0
In104 In 0.41222 0.18274 0.27962 0.0
O105 O 0.43286 0.21289 0.25742 0.0
O106 O 0.37824 0.16403 0.2579 0.0
C107 C 0.47258 0.2426 0.29194 0.0
C108 C 0.42383 0.12323 0.27918 0.0
C109 C 0.35642 0.18307 0.29594 0.0
O110 O 0.45173 0.24611 0.28248 0.0
O111 O 0.46346 0.20912 0.29486 0.0
O112 O 0.38222 0.17912 0.3017 0.0
O113 O 0.35729 0.18451 0.28184 0.0
C114 C 0.4037 0.19029 0.25019 0.0
O115 O 0.39999 0.12419 0.28782 0.0
O116 O 0.44056 0.15134 0.27075 0.0
In117 In 0.22413 0.40571 0.61412 0.0
O118 O 0.19636 0.40975 0.59259 0.0
O119 O 0.23334 0.38773 0.59103 0.0
C120 C 0.21976 0.4622 0.62754 0.0
C121 C 0.29789 0.42756 0.61731 0.0
C122 C 0.16764 0.34426 0.62773 0.0
O123 O 0.22586 0.46227 0.61368 0.0
O124 O 0.21546 0.4336 0.63447 0.0
O125 O 0.20065 0.36162 0.63294 0.0
O126 O 0.16381 0.35655 0.61532 0.0
C127 C 0.21193 0.39667 0.58429 0.0
O128 O 0.27273 0.39323 0.6167 0.0
O129 O 0.28569 0.45016 0.61646 0.0
In130 In 0.82476 0.2299 0.94604 0.0
O131 O 0.88476 0.28013 0.94899 0.0
O132 O 0.83956 0.29111 0.94769 0.0
C133 C 0.83246 0.17463 0.95918 0.0
C134 C 0.82187 0.21779 0.9162 0.0
C135 C 0.76231 0.2202 0.96002 0.0
O136 O 0.84681 0.20732 0.96462 0.0
O137 O 0.81634 0.17064 0.94676 0.0
O138 O 0.76737 0.22635 0.94612 0.0
O139 O 0.78874 0.21922 0.96678 0.0
C140 C 0.87451 0.30446 0.949 0.0
O141 O 0.79294 0.20345 0.92437 0.0
O142 O 0.85237 0.23806 0.92308 0.0
In143 In 0.59176 0.81944 0.27654 0.0
O144 O 0.57434 0.79054 0.254 0.0
O145 O 0.62648 0.84218 0.2551 0.0
C146 C 0.53216 0.76689 0.29203 0.0
C147 C 0.57747 0.8771 0.27779 0.0
C148 C 0.64788 0.81095 0.28828 0.0
O149 O 0.5352 0.76486 0.27806 0.0
O150 O 0.55886 0.79549 0.29809 0.0
O151 O 0.64766 0.84152 0.28947 0.0
O152 O 0.62079 0.78582 0.28091 0.0
C153 C 0.60295 0.81513 0.24709 0.0
O154 O 0.59873 0.87381 0.28715 0.0
O155 O 0.56469 0.85228 0.26775 0.0
H156 H 0.17049 0.8437 0.98833 0.0
H157 H 0.19146 0.90104 0.00305 0.0
H158 H 0.24021 0.96803 0.96339 0.0
H159 H 0.22046 0.91082 0.94878 0.0
H160 H 0.28887 0.99504 0.98465 0.0
H161 H 0.15875 0.95855 0.98126 0.0
H162 H 0.09027 0.91608 0.98333 0.0
H163 H 0.10138 0.90556 0.03064 0.0
H164 H 0.17002 0.9476 0.02881 0.0
H165 H 0.33395 0.16909 0.01779 0.0
H166 H 0.29687 0.11251 0.00262 0.0
H167 H 0.27524 0.04334 0.04179 0.0
H168 H 0.31297 0.09975 0.05697 0.0
H169 H 0.21121 0.01914 0.02056 0.0
H170 H 0.34224 0.0539 0.02312 0.0
H171 H 0.4101 0.09907 0.02091 0.0
H172 H 0.39613 0.11397 0.97422 0.0
H173 H 0.32791 0.06964 0.97626 0.0
C174 C 0.18503 0.87064 0.9827 0.0
C175 C 0.19378 0.87275 0.9674 0.0
C176 C 0.19698 0.90347 0.99112 0.0
C177 C 0.2173 0.93906 0.98435 0.0
C178 C 0.22474 0.94103 0.96892 0.0
C179 C 0.21324 0.90827 0.96055 0.0
C180 C 0.23298 0.97419 0.99346 0.0
C181 C 0.2716 1.00046 0.99228 0.0
C182 C 0.21086 0.98119 0.00372 0.0
C183 C 0.16958 0.95597 0.00487 0.0
C184 C 0.14663 0.94696 0.99208 0.0
C185 C 0.10777 0.923 0.99322 0.0
C186 C 0.09149 0.90806 0.0071 0.0
C187 C 0.11403 0.91713 0.01989 0.0
C188 C 0.15291 0.94106 0.01881 0.0
C189 C 0.32053 0.1419 0.02324 0.0
C190 C 0.32647 0.13879 0.03854 0.0
C191 C 0.29945 0.10962 0.01455 0.0
C192 C 0.28353 0.07379 0.02108 0.0
C193 C 0.28723 0.07075 0.03656 0.0
C194 C 0.30885 0.10297 0.0452 0.0
C195 C 0.26664 0.0396 0.01156 0.0
C196 C 0.2281 0.0136 0.01277 0.0
C197 C 0.2887 0.03289 1.00124 0.0
C198 C 0.32987 0.05881 0.99989 0.0
C199 C 0.35356 0.06707 0.01241 0.0
C200 C 0.3921 0.09251 0.01119 0.0
C201 C 0.40742 0.10944 0.99744 0.0
C202 C 0.38421 0.10089 0.98488 0.0
C203 C 0.34559 0.07564 0.98606 0.0
H204 H 0.43726 0.12914 0.99652 0.0
H205 H 0.0614 0.88951 0.00796 0.0
H206 H 0.16134 0.3195 0.35527 0.0
H207 H 0.18253 0.28314 0.34051 0.0
H208 H 0.25858 0.29421 0.37607 0.0
H209 H 0.23803 0.3308 0.39067 0.0
H210 H 0.29451 0.31504 0.35018 0.0
H211 H 0.17907 0.2094 0.36768 0.0
H212 H 0.11052 0.17214 0.37156 0.0
H213 H 0.09265 0.16527 0.32401 0.0
H214 H 0.16112 0.20294 0.31985 0.0
H215 H 0.35891 0.19459 0.32608 0.0
H216 H 0.32387 0.21755 0.34047 0.0
H217 H 0.262 0.21354 0.30082 0.0
H218 H 0.29731 0.19081 0.28626 0.0
H219 H 0.21701 0.18908 0.32723 0.0
H220 H 0.33215 0.2927 0.30972 0.0
H221 H 0.40052 0.33102 0.30566 0.0
H222 H 0.41882 0.34361 0.35316 0.0
H223 H 0.3506 0.30444 0.35753 0.0
C224 C 0.18199 0.31347 0.36004 0.0
C225 C 0.1981 0.32812 0.37411 0.0
C226 C 0.1941 0.29268 0.3516 0.0
C227 C 0.22225 0.28595 0.35716 0.0
C228 C 0.23702 0.29919 0.37149 0.0
C229 C 0.22511 0.32 0.37986 0.0
C230 C 0.23854 0.26768 0.34776 0.0
C231 C 0.27756 0.28724 0.34537 0.0
C232 C 0.21634 0.23199 0.34099 0.0
C233 C 0.1752 0.20933 0.34347 0.0
C234 C 0.16051 0.20022 0.35806 0.0
C235 C 0.12167 0.17897 0.36031 0.0
C236 C 0.09724 0.16644 0.34804 0.0
C237 C 0.1116 0.17505 0.3335 0.0
C238 C 0.15043 0.19631 0.33119 0.0
C239 C 0.33737 0.19789 0.32046 0.0
C240 C 0.33098 0.19101 0.30501 0.0
C241 C 0.31747 0.21118 0.32869 0.0
C242 C 0.29063 0.21766 0.32167 0.0
C243 C 0.28262 0.20877 0.30644 0.0
C244 C 0.30283 0.19581 0.29814 0.0
C245 C 0.27299 0.2361 0.33006 0.0
C246 C 0.23385 0.21679 0.33212 0.0
C247 C 0.29504 0.27213 0.33655 0.0
C248 C 0.33621 0.29518 0.33396 0.0
C249 C 0.35075 0.30317 0.31931 0.0
C250 C 0.3895 0.32512 0.31695 0.0
C251 C 0.414 0.33967 0.32915 0.0
C252 C 0.3998 0.33228 0.34373 0.0
C253 C 0.3611 0.31011 0.34615 0.0
H254 H 0.44399 0.35671 0.3273 0.0
H255 H 0.06718 0.14999 0.34981 0.0
H256 H 0.90258 0.20257 0.72463 0.0
H257 H 0.96027 0.22167 0.7105 0.0
H258 H 0.89598 0.18404 0.66958 0.0
H259 H 0.83793 0.16391 0.68377 0.0
H260 H 0.95337 0.17076 0.66853 0.0
H261 H 0.93848 0.27608 0.68022 0.0
H262 H 0.92839 0.31888 0.69639 0.0
H263 H 0.02961 0.34761 0.72063 0.0
H264 H 0.04001 0.3045 0.70474 0.0
H265 H 0.0959 0.29867 0.61777 0.0
H266 H 0.03985 0.26054 0.63296 0.0
H267 H 0.10883 0.28946 0.67262 0.0
H268 H 0.1651 0.32741 0.65746 0.0
H269 H 0.05035 0.30507 0.6748 0.0
H270 H 0.06642 0.20143 0.66047 0.0
H271 H 0.07521 0.16049 0.64273 0.0
H272 H 0.9703 0.13128 0.62143 0.0
H273 H 0.96112 0.17248 0.63892 0.0
C274 C 0.90062 0.19764 0.71266 0.0
C275 C 0.86574 0.182 0.70529 0.0
C276 C 0.93367 0.20878 0.70458 0.0
C277 C 0.93263 0.20514 0.68891 0.0
C278 C 0.89756 0.18732 0.68164 0.0
C279 C 0.86438 0.1758 0.68976 0.0
C280 C 0.96816 0.22238 0.68009 0.0
C281 C 0.97444 0.20019 0.66982 0.0
C282 C 0.99592 0.26075 0.68183 0.0
C283 C 0.98979 0.28673 0.6914 0.0
C284 C 0.95842 0.29128 0.68908 0.0
C285 C 0.95267 0.31563 0.69818 0.0
C286 C 0.97828 0.33587 0.70956 0.0
C287 C 0.00976 0.33185 0.71183 0.0
C288 C 0.0156 0.30747 0.70278 0.0
C289 C 0.09923 0.29618 0.62968 0.0
C290 C 0.13492 0.31605 0.63642 0.0
C291 C 0.06716 0.27434 0.63834 0.0
C292 C 0.07013 0.27214 0.65393 0.0
C293 C 0.10591 0.29075 0.66061 0.0
C294 C 0.13805 0.31225 0.65192 0.0
C295 C 0.03574 0.25341 0.66335 0.0
C296 C 0.02952 0.2755 0.67365 0.0
C297 C 0.00787 0.21521 0.66143 0.0
C298 C 0.01325 0.19031 0.65093 0.0
C299 C 0.04537 0.18653 0.65193 0.0
C300 C 0.05039 0.16322 0.64193 0.0
C301 C 0.02337 0.14336 0.63094 0.0
C302 C 0.99122 0.1467 0.62995 0.0
C303 C 0.98607 0.16999 0.63991 0.0
H304 H 0.02731 0.12533 0.62322 0.0
H305 H 0.9738 0.35473 0.71659 0.0
H306 H 0.68356 0.84554 0.01535 0.0
H307 H 0.72246 0.90371 1.00147 0.0
H308 H 0.74006 0.96801 0.04192 0.0
H309 H 0.70008 0.91002 0.05568 0.0
H310 H 0.72063 0.99745 0.02087 0.0
H311 H 0.81184 0.95775 0.02417 0.0
H312 H 0.83633 0.91412 0.02169 0.0
H313 H 0.81727 0.90772 0.97422 0.0
H314 H 0.79219 0.95095 0.97645 0.0
H315 H 0.84774 0.17215 0.98881 0.0
H316 H 0.82876 0.11573 0.00392 0.0
H317 H 0.78859 0.04702 0.96422 0.0
H318 H 0.80727 0.10326 0.94904 0.0
H319 H 0.82348 0.02179 0.98551 0.0
H320 H 0.72858 0.05825 0.98288 0.0
H321 H 0.70585 0.10334 0.98534 0.0
H322 H 0.73333 0.11625 0.03216 0.0
H323 H 0.75693 0.07178 0.02991 0.0
C324 C 0.69636 0.87204 0.02133 0.0
C325 C 0.68878 0.87322 0.0366 0.0
C326 C 0.71871 0.90535 0.01339 0.0
C327 C 0.73452 0.94045 0.02063 0.0
C328 C 0.72815 0.94141 0.03604 0.0
C329 C 0.70543 0.9082 0.04392 0.0
C330 C 0.75523 0.97619 0.01199 0.0
C331 C 0.74361 0.00294 0.01338 0.0
C332 C 0.78466 0.98325 1.00189 0.0
C333 C 0.79984 0.95735 1.0005 0.0
C334 C 0.81262 0.94683 0.01322 0.0
C335 C 0.82665 0.92221 0.01185 0.0
C336 C 0.82827 0.9081 0.99781 0.0
C337 C 0.81596 0.91866 0.9851 0.0
C338 C 0.80188 0.94325 0.9864 0.0
C339 C 0.83581 0.14515 0.98324 0.0
C340 C 0.82873 0.14209 0.96775 0.0
C341 C 0.82485 0.11293 0.9919 0.0
C342 C 0.80686 0.07718 0.9852 0.0
C343 C 0.80241 0.07433 0.9696 0.0
C344 C 0.81304 0.1065 0.96095 0.0
C345 C 0.78897 0.04272 0.99457 0.0
C346 C 0.80085 0.01624 0.9932 0.0
C347 C 0.75985 0.03588 0.00475 0.0
C348 C 0.74492 0.06201 0.00619 0.0
C349 C 0.73004 0.07092 0.99368 0.0
C350 C 0.71698 0.09635 0.99503 0.0
C351 C 0.71824 0.11273 0.00889 0.0
C352 C 0.73244 0.1036 0.02143 0.0
C353 C 0.74567 0.07829 0.02012 0.0
H354 H 0.70814 0.13244 0.00991 0.0
H355 H 0.83914 0.88903 0.99678 0.0
H356 H 0.6974 0.85124 0.31083 0.0
H357 H 0.73559 0.83237 0.32564 0.0
H358 H 0.69825 0.7343 0.29768 0.0
H359 H 0.65956 0.75247 0.2832 0.0
H360 H 0.68917 0.71395 0.32537 0.0
H361 H 0.79017 0.80991 0.29687 0.0
H362 H 0.83006 0.8735 0.28654 0.0
H363 H 0.86118 0.91838 0.33101 0.0
H364 H 0.82105 0.8551 0.34162 0.0
H365 H 0.85439 0.6933 0.3525 0.0
H366 H 0.83294 0.72778 0.33669 0.0
H367 H 0.753 0.71552 0.37063 0.0
H368 H 0.77407 0.68108 0.3864 0.0
H369 H 0.82392 0.79169 0.33908 0.0
H370 H 0.66968 0.68438 0.35357 0.0
H371 H 0.63162 0.61826 0.36166 0.0
H372 H 0.70989 0.59229 0.34067 0.0
H373 H 0.74829 0.65813 0.33244 0.0
C374 C 0.69793 0.82604 0.30771 0.0
C375 C 0.67535 0.80324 0.29591 0.0
C376 C 0.71981 0.81528 0.31616 0.0
C377 C 0.71983 0.78182 0.31281 0.0
C378 C 0.69854 0.76005 0.30059 0.0
C379 C 0.67651 0.77056 0.29227 0.0
C380 C 0.73955 0.76775 0.32259 0.0
C381 C 0.71864 0.73111 0.32832 0.0
C382 C 0.77814 0.78976 0.32638 0.0
C383 C 0.80231 0.82782 0.32004 0.0
C384 C 0.80528 0.83339 0.30445 0.0
C385 C 0.82798 0.86936 0.29854 0.0
C386 C 0.84806 0.89998 0.30811 0.0
C387 C 0.84556 0.89465 0.32361 0.0
C388 C 0.82288 0.85873 0.32958 0.0
C389 C 0.8329 0.69877 0.35673 0.0
C390 C 0.81567 0.68415 0.37063 0.0
C391 C 0.82071 0.71852 0.34769 0.0
C392 C 0.79102 0.72374 0.3524 0.0
C393 C 0.77567 0.71144 0.36671 0.0
C394 C 0.78781 0.6918 0.37572 0.0
C395 C 0.77329 0.7383 0.34187 0.0
C396 C 0.79445 0.77483 0.33608 0.0
C397 C 0.73509 0.71596 0.33769 0.0
C398 C 0.71201 0.67624 0.34253 0.0
C399 C 0.67871 0.66452 0.35068 0.0
C400 C 0.65713 0.6271 0.35531 0.0
C401 C 0.66845 0.60112 0.35176 0.0
C402 C 0.70131 0.61247 0.34353 0.0
C403 C 0.72303 0.64985 0.3389 0.0
H404 H 0.6517 0.57217 0.35534 0.0
H405 H 0.86563 0.92781 0.30352 0.0
H406 H 0.90415 0.66002 0.61853 0.0
H407 H 0.95958 0.6982 0.63386 0.0
H408 H 0.89483 0.73024 0.66194 0.0
H409 H 0.83871 0.69118 0.64672 0.0
H410 H 1.00209 0.76867 0.64188 0.0
H411 H 0.92245 0.7328 0.69811 0.0
H412 H 0.86303 0.68326 0.70912 0.0
H413 H 0.86088 0.6029 0.67778 0.0
H414 H 0.92044 0.65184 0.66673 0.0
H415 H 0.14576 0.85634 0.69794 0.0
H416 H 0.0885 0.83876 0.68331 0.0
H417 H 0.04605 0.72219 0.69454 0.0
H418 H 0.10191 0.73956 0.7094 0.0
H419 H 0.9911 0.73418 0.6956 0.0
H420 H 0.09049 0.76286 0.66019 0.0
H421 H 0.15175 0.80274 0.64798 0.0
H422 H 0.11763 0.88237 0.63579 0.0
H423 H 0.05629 0.84311 0.6481 0.0
C424 C 0.90174 0.67561 0.62784 0.0
C425 C 0.86692 0.6723 0.6315 0.0
C426 C 0.93359 0.69761 0.63657 0.0
C427 C 0.93139 0.7168 0.64918 0.0
C428 C 0.89713 0.71529 0.65238 0.0
C429 C 0.86511 0.69311 0.64364 0.0
C430 C 0.96419 0.73558 0.65952 0.0
C431 C 0.99962 0.76151 0.65367 0.0
C432 C 0.96126 0.72574 0.67485 0.0
C433 C 0.92557 0.6961 0.68148 0.0
C434 C 0.90928 0.70454 0.6936 0.0
C435 C 0.87559 0.67658 0.69984 0.0
C436 C 0.85811 0.64 0.69411 0.0
C437 C 0.87435 0.63127 0.68217 0.0
C438 C 0.90803 0.65912 0.6759 0.0
C439 C 0.12394 0.82707 0.69739 0.0
C440 C 0.12842 0.79937 0.7048 0.0
C441 C 0.09132 0.817 0.68897 0.0
C442 C 0.06295 0.77902 0.68768 0.0
C443 C 0.06725 0.75166 0.69539 0.0
C444 C 0.09943 0.76168 0.70386 0.0
C445 C 0.02926 0.76691 0.67794 0.0
C446 C 0.99356 0.74219 0.6839 0.0
C447 C 0.03222 0.77669 0.66259 0.0
C448 C 0.06905 0.80034 0.65523 0.0
C449 C 0.09619 0.78903 0.65501 0.0
C450 C 0.13089 0.81148 0.64806 0.0
C451 C 0.13863 0.84514 0.64116 0.0
C452 C 0.11163 0.85635 0.64117 0.0
C453 C 0.0769 0.83401 0.64813 0.0
H454 H 0.1655 0.86248 0.63578 0.0
H455 H 0.83203 0.61841 0.69896 0.0
H456 H 0.70606 0.23011 0.94875 0.0
H457 H 0.65228 0.22577 0.96235 0.0
H458 H 0.68905 0.1956 0.00261 0.0
H459 H 0.74269 0.19963 0.98908 0.0
H460 H 0.61253 0.1532 0.9987 0.0
H461 H 0.70831 0.28394 0.99787 0.0
H462 H 0.75438 0.34359 0.98596 0.0
H463 H 0.66596 0.34467 0.96068 0.0
H464 H 0.61941 0.2847 0.97229 0.0
H465 H 0.51404 0.19839 0.05297 0.0
H466 H 0.56101 0.19322 0.03789 0.0
H467 H 0.5254 0.22876 0.99875 0.0
H468 H 0.47885 0.23448 0.01378 0.0
H469 H 0.60005 0.26708 1.0015 0.0
H470 H 0.50388 0.13726 0.00248 0.0
H471 H 0.45758 0.07701 0.01395 0.0
H472 H 0.54564 0.07405 0.03874 0.0
H473 H 0.59248 0.13436 0.02746 0.0
C474 C 0.70252 0.22232 0.96047 0.0
C475 C 0.72872 0.21558 0.9679 0.0
C476 C 0.67188 0.21994 0.96823 0.0
C477 C 0.66699 0.21083 0.98353 0.0
C478 C 0.69239 0.20278 0.99083 0.0
C479 C 0.7231 0.20529 0.9831 0.0
C480 C 0.63623 0.21108 0.99206 0.0
C481 C 0.60996 0.17817 0.99945 0.0
C482 C 0.63253 0.24347 0.99277 0.0
C483 C 0.66044 0.27963 0.98583 0.0
C484 C 0.69874 0.29674 0.98968 0.0
C485 C 0.72492 0.33064 0.983 0.0
C486 C 0.71312 0.34786 0.97253 0.0
C487 C 0.67507 0.33127 0.96876 0.0
C488 C 0.64877 0.29734 0.9754 0.0
C489 C 0.51612 0.20488 0.04113 0.0
C490 C 0.49295 0.21702 0.03456 0.0
C491 C 0.5428 0.20172 0.03251 0.0
C492 C 0.54652 0.21037 0.01717 0.0
C493 C 0.52303 0.222 0.01057 0.0
C494 C 0.49645 0.22523 0.01917 0.0
C495 C 0.57615 0.20914 0.00814 0.0
C496 C 0.60238 0.24198 1.00069 0.0
C497 C 0.57972 0.17666 0.00737 0.0
C498 C 0.55162 0.1405 0.01424 0.0
C499 C 0.51332 0.12392 0.01047 0.0
C500 C 0.48699 0.08973 0.01692 0.0
C501 C 0.49863 0.07183 0.02712 0.0
C502 C 0.53665 0.08799 0.03086 0.0
C503 C 0.56312 0.12212 0.02441 0.0
H504 H 0.47819 0.04537 0.0321 0.0
H505 H 0.73343 0.3741 0.96737 0.0
H506 H 0.24517 0.47783 0.34841 0.0
H507 H 0.29421 0.5291 0.33376 0.0
H508 H 0.35378 0.58297 0.3744 0.0
H509 H 0.30454 0.53174 0.38919 0.0
H510 H 0.34927 0.63241 0.35478 0.0
H511 H 0.38427 0.53697 0.35319 0.0
H512 H 0.37383 0.47317 0.34883 0.0
H513 H 0.34901 0.47974 0.30258 0.0
H514 H 0.35877 0.5434 0.30672 0.0
H515 H 0.52392 0.76275 0.32232 0.0
H516 H 0.47332 0.7128 0.33689 0.0
H517 H 0.41853 0.65501 0.29606 0.0
H518 H 0.46967 0.70459 0.28141 0.0
H519 H 0.41993 0.60746 0.31574 0.0
H520 H 0.38506 0.70251 0.31694 0.0
H521 H 0.3944 0.76597 0.32106 0.0
H522 H 0.41759 0.76004 0.36756 0.0
H523 H 0.40889 0.69671 0.36367 0.0
C524 C 0.26873 0.50056 0.35424 0.0
C525 C 0.27116 0.50077 0.36994 0.0
C526 C 0.29675 0.52976 0.34585 0.0
C527 C 0.32774 0.55959 0.353 0.0
C528 C 0.33006 0.56012 0.36869 0.0
C529 C 0.30204 0.53083 0.3771 0.0
C530 C 0.35768 0.59024 0.34406 0.0
C531 C 0.36512 0.62711 0.34638 0.0
C532 C 0.37752 0.583 0.33284 0.0
C533 C 0.37191 0.54482 0.3303 0.0
C534 C 0.3763 0.5247 0.34212 0.0
C535 C 0.37056 0.48858 0.33968 0.0
C536 C 0.36067 0.47237 0.32545 0.0
C537 C 0.35662 0.49231 0.31361 0.0
C538 C 0.36229 0.52843 0.31599 0.0
C539 C 0.50097 0.73952 0.31644 0.0
C540 C 0.50065 0.73754 0.30073 0.0
C541 C 0.472 0.71107 0.32478 0.0
C542 C 0.44192 0.6804 0.31756 0.0
C543 C 0.44146 0.67847 0.30185 0.0
C544 C 0.47059 0.70682 0.2935 0.0
C545 C 0.41161 0.64977 0.32642 0.0
C546 C 0.40408 0.61285 0.32411 0.0
C547 C 0.39157 0.65696 0.33759 0.0
C548 C 0.39666 0.69499 0.33998 0.0
C549 C 0.39243 0.71485 0.32802 0.0
C550 C 0.39756 0.75078 0.33032 0.0
C551 C 0.40667 0.76706 0.34455 0.0
C552 C 0.41057 0.7474 0.35653 0.0
C553 C 0.40551 0.71147 0.35429 0.0
H554 H 0.41064 0.79489 0.34631 0.0
H555 H 0.35623 0.4444 0.32358 0.0
H556 H 0.75857 0.29012 0.72413 0.0
H557 H 0.75841 0.34227 0.71085 0.0
H558 H 0.80348 0.31787 0.67158 0.0
H559 H 0.80338 0.26555 0.68471 0.0
H560 H 0.83898 0.39544 0.67895 0.0
H561 H 0.71445 0.2882 0.67215 0.0
H562 H 0.6542 0.2351 0.68084 0.0
H563 H 0.63157 0.31129 0.70551 0.0
H564 H 0.69198 0.3648 0.69716 0.0
H565 H 0.79931 0.48747 0.62104 0.0
H566 H 0.80175 0.44018 0.63689 0.0
H567 H 0.74871 0.46674 0.67279 0.0
H568 H 0.74611 0.51409 0.65699 0.0
H569 H 0.71778 0.39056 0.6688 0.0
H570 H 0.83935 0.49802 0.67494 0.0
H571 H 0.89964 0.55201 0.66691 0.0
H572 H 0.92847 0.47733 0.64456 0.0
H573 H 0.868 0.42287 0.65225 0.0
C574 C 0.76865 0.29606 0.7127 0.0
C575 C 0.78083 0.27376 0.70541 0.0
C576 C 0.76845 0.32573 0.70513 0.0
C577 C 0.78074 0.33367 0.69023 0.0
C578 C 0.79391 0.31211 0.68308 0.0
C579 C 0.79369 0.2822 0.69057 0.0
C580 C 0.77893 0.36379 0.68189 0.0
C581 C 0.8125 0.39427 0.6766 0.0
C582 C 0.74439 0.36259 0.67923 0.0
C583 C 0.70795 0.33046 0.68417 0.0
C584 C 0.69679 0.2936 0.67954 0.0
C585 C 0.66258 0.26343 0.68438 0.0
C586 C 0.63913 0.26981 0.69376 0.0
C587 C 0.64979 0.30639 0.69827 0.0
C588 C 0.684 0.33664 0.69348 0.0
C589 C 0.78815 0.48322 0.63231 0.0
C590 C 0.77261 0.50449 0.63781 0.0
C591 C 0.78968 0.45631 0.64136 0.0
C592 C 0.77571 0.45025 0.65605 0.0
C593 C 0.75968 0.47107 0.66149 0.0
C594 C 0.75833 0.49814 0.65247 0.0
C595 C 0.77783 0.42206 0.66567 0.0
C596 C 0.74432 0.39192 0.67122 0.0
C597 C 0.81246 0.42372 0.66867 0.0
C598 C 0.84895 0.45637 0.66406 0.0
C599 C 0.85838 0.49311 0.6682 0.0
C600 C 0.89262 0.52381 0.66373 0.0
C601 C 0.91784 0.51811 0.6552 0.0
C602 C 0.90888 0.4817 0.65115 0.0
C603 C 0.87464 0.4509 0.65558 0.0
H604 H 0.94434 0.54191 0.65175 0.0
H605 H 0.61267 0.24644 0.69751 0.0
H606 H 0.24876 0.77295 0.99048 0.0
H607 H 0.30159 0.77551 0.00412 0.0
H608 H 0.36328 0.79667 0.96279 0.0
H609 H 0.31028 0.79375 0.94903 0.0
H610 H 0.36663 0.74335 0.97968 0.0
H611 H 0.38541 0.86735 0.98725 0.0
H612 H 0.36701 0.9138 0.99453 0.0
H613 H 0.3455 0.87054 0.0394 0.0
H614 H 0.36328 0.82346 0.03234 0.0
H615 H 0.54264 0.79342 0.0119 0.0
H616 H 0.49228 0.79519 0.99801 0.0
H617 H 0.43144 0.78012 0.03919 0.0
H618 H 0.48231 0.77936 0.05321 0.0
H619 H 0.4282 0.83126 0.02211 0.0
H620 H 0.40754 0.70657 0.01474 0.0
H621 H 0.42473 0.65907 0.00772 0.0
H622 H 0.44822 0.70219 0.96283 0.0
H623 H 0.43165 0.75031 0.96964 0.0
C624 C 0.2736 0.77821 0.9843 0.0
C625 C 0.27548 0.78323 0.9687 0.0
C626 C 0.30381 0.77982 0.99212 0.0
C627 C 0.33649 0.7867 0.98448 0.0
C628 C 0.33832 0.79142 0.96888 0.0
C629 C 0.3081 0.78983 0.96105 0.0
C630 C 0.36848 0.78828 0.99276 0.0
C631 C 0.3805 0.76295 0.98881 0.0
C632 C 0.38582 0.8132 0.00492 0.0
C633 C 0.37536 0.84166 0.00922 0.0
C634 C 0.37649 0.86756 0.99864 0.0
C635 C 0.36622 0.89403 0.00274 0.0
C636 C 0.35501 0.89506 0.01741 0.0
C637 C 0.35415 0.86968 0.02804 0.0
C638 C 0.36436 0.84312 0.024 0.0
C639 C 0.51857 0.79059 0.01799 0.0
C640 C 0.51624 0.78604 0.03362 0.0
C641 C 0.48975 0.79145 0.01004 0.0
C642 C 0.45781 0.78716 0.01754 0.0
C643 C 0.4558 0.78338 0.03318 0.0
C644 C 0.4848 0.78286 0.04117 0.0
C645 C 0.42638 0.7863 0.00903 0.0
C646 C 0.41442 0.81173 0.01295 0.0
C647 C 0.40893 0.76132 0.99689 0.0
C648 C 0.4187 0.73227 0.99274 0.0
C649 C 0.41663 0.7061 0.0034 0.0
C650 C 0.42622 0.67904 0.99946 0.0
C651 C 0.43765 0.67767 0.98485 0.0
C652 C 0.43941 0.70331 0.97415 0.0
C653 C 0.42989 0.73046 0.97804 0.0
H654 H 0.44507 0.65671 0.98182 0.0
H655 H 0.34706 0.91558 0.02056 0.0
H656 H 0.51443 0.24035 0.31511 0.0
H657 H 0.56281 0.29343 0.32934 0.0
H658 H 0.54927 0.37054 0.30081 0.0
H659 H 0.50052 0.31743 0.28652 0.0
H660 H 0.62587 0.39068 0.30706 0.0
H661 H 0.50822 0.34959 0.33274 0.0
H662 H 0.44992 0.30165 0.34488 0.0
H663 H 0.51446 0.28398 0.37835 0.0
H664 H 0.57323 0.33056 0.36606 0.0
H665 H 0.73278 0.55155 0.35112 0.0
H666 H 0.68103 0.50198 0.33677 0.0
H667 H 0.66977 0.42033 0.36986 0.0
H668 H 0.72015 0.4704 0.38467 0.0
H669 H 0.60394 0.40318 0.36087 0.0
H670 H 0.71849 0.43412 0.33565 0.0
H671 H 0.77952 0.47536 0.32352 0.0
H672 H 0.72466 0.50641 0.29018 0.0
H673 H 0.66333 0.46569 0.30223 0.0
C674 C 0.52194 0.26861 0.31178 0.0
C675 C 0.50365 0.27481 0.29975 0.0
C676 C 0.54947 0.29884 0.31995 0.0
C677 C 0.55922 0.33576 0.31619 0.0
C678 C 0.54196 0.34217 0.30388 0.0
C679 C 0.51414 0.31187 0.29576 0.0
C680 C 0.58687 0.36758 0.32538 0.0
C681 C 0.62094 0.39385 0.31877 0.0
C682 C 0.58068 0.37073 0.34076 0.0
C683 C 0.54522 0.3434 0.34837 0.0
C684 C 0.51005 0.33528 0.34261 0.0
C685 C 0.47688 0.30836 0.34953 0.0
C686 C 0.47847 0.28993 0.36241 0.0
C687 C 0.51326 0.29829 0.36838 0.0
C688 C 0.54651 0.32487 0.36141 0.0
C689 C 0.71891 0.52307 0.35539 0.0
C690 C 0.73049 0.51468 0.36893 0.0
C691 C 0.68955 0.49471 0.34714 0.0
C692 C 0.67208 0.4572 0.35203 0.0
C693 C 0.68289 0.449 0.36582 0.0
C694 C 0.7117 0.47757 0.37426 0.0
C695 C 0.6433 0.42643 0.3426 0.0
C696 C 0.60894 0.40028 0.34914 0.0
C697 C 0.64958 0.42276 0.32724 0.0
C698 C 0.68638 0.44717 0.31993 0.0
C699 C 0.71948 0.44995 0.32579 0.0
C700 C 0.75412 0.4732 0.31892 0.0
C701 C 0.75597 0.49357 0.30611 0.0
C702 C 0.72318 0.49066 0.30012 0.0
C703 C 0.68847 0.46748 0.30695 0.0
H704 H 0.78282 0.51156 0.30081 0.0
H705 H 0.45275 0.26916 0.36775 0.0
H706 H 0.19983 0.46416 0.6564 0.0
H707 H 0.20299 0.51745 0.66983 0.0
H708 H 0.24319 0.58514 0.62988 0.0
H709 H 0.24007 0.53171 0.6163 0.0
H710 H 0.28541 0.62129 0.65519 0.0
H711 H 0.15616 0.55519 0.64048 0.0
H712 H 0.09259 0.50025 0.6376 0.0
H713 H 0.08216 0.48734 0.68536 0.0
H714 H 0.14593 0.54192 0.68852 0.0
H715 H 0.25985 0.77041 0.68265 0.0
H716 H 0.25826 0.71927 0.66804 0.0
H717 H 0.2169 0.64647 0.70658 0.0
H718 H 0.21843 0.69753 0.72128 0.0
H719 H 0.17512 0.61397 0.6811 0.0
H720 H 0.30479 0.67931 0.6958 0.0
H721 H 0.36828 0.73436 0.69871 0.0
H722 H 0.3779 0.74879 0.65099 0.0
H723 H 0.31417 0.69414 0.6478 0.0
C724 C 0.20908 0.4903 0.65043 0.0
C725 C 0.21964 0.49382 0.6353 0.0
C726 C 0.21079 0.52067 0.65811 0.0
C727 C 0.22312 0.55511 0.65081 0.0
C728 C 0.23357 0.55873 0.63568 0.0
C729 C 0.2316 0.5282 0.62794 0.0
C730 C 0.22585 0.58747 0.65917 0.0
C731 C 0.26121 0.61999 0.66066 0.0
C732 C 0.19439 0.58528 0.66657 0.0
C733 C 0.15599 0.55245 0.66473 0.0
C734 C 0.14045 0.54045 0.65036 0.0
C735 C 0.10435 0.50941 0.64868 0.0
C736 C 0.08338 0.49026 0.66129 0.0
C737 C 0.09845 0.50217 0.67561 0.0
C738 C 0.13456 0.53319 0.67735 0.0
C739 C 0.25079 0.74362 0.68805 0.0
C740 C 0.23925 0.7379 0.70309 0.0
C741 C 0.24996 0.71449 0.6797 0.0
C742 C 0.23755 0.67917 0.68626 0.0
C743 C 0.22653 0.67355 0.70134 0.0
C744 C 0.22759 0.70276 0.70972 0.0
C745 C 0.23472 0.64769 0.67721 0.0
C746 C 0.19931 0.61533 0.67559 0.0
C747 C 0.26613 0.65007 0.6697 0.0
C748 C 0.30452 0.68286 0.67157 0.0
C749 C 0.32029 0.69442 0.68593 0.0
C750 C 0.35635 0.72551 0.68763 0.0
C751 C 0.37706 0.74512 0.67505 0.0
C752 C 0.36179 0.73361 0.66073 0.0
C753 C 0.32571 0.70256 0.65897 0.0
H754 H 0.40498 0.76919 0.67639 0.0
H755 H 0.05543 0.46624 0.65997 0.0
H756 H 0.34493 0.19367 0.10692 0.0
H757 H 0.34011 0.18578 0.13415 0.0
H758 H 0.46042 0.23322 0.13702 0.0
H759 H 0.46501 0.23942 0.1098 0.0
H760 H 0.4299 0.17731 0.15466 0.0
H761 H 0.41252 0.28307 0.14641 0.0
H762 H 0.38343 0.31757 0.1355 0.0
H763 H 0.27716 0.23819 0.15484 0.0
H764 H 0.30554 0.20293 0.16571 0.0
H765 H 0.46003 0.23354 0.23081 0.0
H766 H 0.45636 0.23621 0.20355 0.0
H767 H 0.33729 0.15724 0.20519 0.0
H768 H 0.34083 0.15382 0.23257 0.0
H769 H 0.36256 0.22499 0.18571 0.0
H770 H 0.38475 0.12211 0.19521 0.0
H771 H 0.41798 0.09251 0.20682 0.0
H772 H 0.5207 0.17317 0.18548 0.0
H773 H 0.4882 0.20366 0.17393 0.0
C774 C 0.3703 0.20239 0.11339 0.0
C775 C 0.40535 0.21721 0.10626 0.0
C776 C 0.36757 0.19808 0.12897 0.0
C777 C 0.39997 0.20943 0.13773 0.0
C778 C 0.43497 0.22417 0.13055 0.0
C779 C 0.4376 0.22782 0.11499 0.0
C780 C 0.39763 0.20561 0.15435 0.0
C781 C 0.41547 0.18813 0.1614 0.0
C782 C 0.37818 0.21898 0.16325 0.0
C783 C 0.36106 0.24014 0.15673 0.0
C784 C 0.38288 0.27281 0.14824 0.0
C785 C 0.36653 0.29253 0.14208 0.0
C786 C 0.32844 0.28002 0.14444 0.0
C787 C 0.30665 0.24781 0.153 0.0
C788 C 0.32285 0.22796 0.15917 0.0
C789 C 0.43299 0.2169 0.2254 0.0
C790 C 0.40071 0.19338 0.23381 0.0
C791 C 0.43098 0.21841 0.20983 0.0
C792 C 0.3966 0.1968 0.2024 0.0
C793 C 0.36406 0.17411 0.21076 0.0
C794 C 0.36615 0.17212 0.22636 0.0
C795 C 0.3952 0.19727 0.18583 0.0
C796 C 0.3767 0.21404 0.17885 0.0
C797 C 0.41459 0.1839 0.17701 0.0
C798 C 0.4341 0.16537 0.18382 0.0
C799 C 0.4145 0.13374 0.19309 0.0
C800 C 0.43319 0.11676 0.19965 0.0
C801 C 0.47145 0.131 0.19692 0.0
C802 C 0.49107 0.1622 0.1876 0.0
C803 C 0.47252 0.17931 0.18104 0.0
H804 H 0.48588 0.11782 0.202 0.0
H805 H 0.31584 0.29532 0.13966 0.0
H806 H 0.24555 0.41771 0.44195 0.0
H807 H 0.24607 0.41185 0.46924 0.0
H808 H 0.12643 0.36865 0.47045 0.0
H809 H 0.1255 0.3735 0.44306 0.0
H810 H 0.17592 0.43343 0.49091 0.0
H811 H 0.14769 0.30853 0.47642 0.0
H812 H 0.1587 0.26333 0.46233 0.0
H813 H 0.268 0.30891 0.48238 0.0
H814 H 0.25786 0.35479 0.49643 0.0
H815 H 0.15374 0.39332 0.56832 0.0
H816 H 0.14552 0.38929 0.54113 0.0
H817 H 0.25063 0.39044 0.53612 0.0
H818 H 0.2577 0.3922 0.56334 0.0
H819 H 0.20546 0.34478 0.51707 0.0
H820 H 0.23938 0.47078 0.53013 0.0
H821 H 0.23497 0.521 0.54347 0.0
H822 H 0.12429 0.48076 0.52551 0.0
H823 H 0.12785 0.42998 0.51221 0.0
C824 C 0.21931 0.40669 0.44802 0.0
C825 C 0.18547 0.396 0.44041 0.0
C826 C 0.21966 0.40332 0.46358 0.0
C827 C 0.18629 0.3898 0.4718 0.0
C828 C 0.15243 0.3791 0.46425 0.0
C829 C 0.15193 0.38175 0.44864 0.0
C830 C 0.18713 0.38793 0.48833 0.0
C831 C 0.18173 0.41367 0.49671 0.0
C832 C 0.19612 0.36306 0.49573 0.0
C833 C 0.20214 0.33533 0.48737 0.0
C834 C 0.17421 0.30915 0.47772 0.0
C835 C 0.18026 0.28335 0.46977 0.0
C836 C 0.21406 0.28331 0.47143 0.0
C837 C 0.24184 0.309 0.48109 0.0
C838 C 0.23594 0.33488 0.48906 0.0
C839 C 0.17496 0.39252 0.56139 0.0
C840 C 0.20643 0.39324 0.5679 0.0
C841 C 0.1704 0.39048 0.54584 0.0
C842 C 0.19786 0.39041 0.53647 0.0
C843 C 0.22903 0.3905 0.54304 0.0
C844 C 0.23312 0.39161 0.55861 0.0
C845 C 0.19434 0.39049 0.51986 0.0
C846 C 0.19938 0.36449 0.5114 0.0
C847 C 0.18596 0.41584 0.51234 0.0
C848 C 0.18373 0.44634 0.52031 0.0
C849 C 0.21399 0.47248 0.52912 0.0
C850 C 0.21166 0.50107 0.53666 0.0
C851 C 0.17932 0.504 0.53537 0.0
C852 C 0.14929 0.47841 0.52651 0.0
C853 C 0.15146 0.44974 0.51897 0.0
H854 H 0.17757 0.52616 0.54121 0.0
H855 H 0.2187 0.26331 0.46526 0.0
H856 H 0.87578 0.25896 0.8955 0.0
H857 H 0.87135 0.25099 0.86822 0.0
H858 H 0.75981 0.15525 0.87271 0.0
H859 H 0.76367 0.16354 0.89998 0.0
H860 H 0.81248 0.14694 0.85206 0.0
H861 H 0.7611 0.22785 0.86309 0.0
H862 H 0.76295 0.28353 0.87438 0.0
H863 H 0.86222 0.35591 0.84912 0.0
H864 H 0.86127 0.30058 0.83785 0.0
H865 H 0.74905 0.12635 0.77676 0.0
H866 H 0.75663 0.13092 0.80399 0.0
H867 H 0.8487 0.24483 0.79957 0.0
H868 H 0.83994 0.24087 0.77243 0.0
H869 H 0.80704 0.24372 0.82067 0.0
H870 H 0.86026 0.16674 0.80905 0.0
H871 H 0.86312 0.11321 0.79802 0.0
H872 H 0.76774 0.03626 0.82421 0.0
H873 H 0.76399 0.08933 0.83526 0.0
C874 C 0.8504 0.2361 0.89068 0.0
C875 C 0.82 0.21193 0.89984 0.0
C876 C 0.84791 0.23161 0.87512 0.0
C877 C 0.81524 0.20257 0.86851 0.0
C878 C 0.78526 0.17776 0.87764 0.0
C879 C 0.78746 0.18264 0.89318 0.0
C880 C 0.81184 0.19896 0.85201 0.0
C881 C 0.81085 0.16779 0.84515 0.0
C882 C 0.8109 0.22682 0.84307 0.0
C883 C 0.81135 0.26008 0.84976 0.0
C884 C 0.78353 0.25563 0.86005 0.0
C885 C 0.78437 0.28713 0.86642 0.0
C886 C 0.81275 0.32324 0.8625 0.0
C887 C 0.84029 0.32792 0.85217 0.0
C888 C 0.83959 0.29651 0.84578 0.0
C889 C 0.77108 0.15222 0.78162 0.0
C890 C 0.79392 0.18324 0.7725 0.0
C891 C 0.77556 0.15478 0.79718 0.0
C892 C 0.8036 0.18809 0.8039 0.0
C893 C 0.82681 0.21885 0.79471 0.0
C894 C 0.82188 0.21653 0.77919 0.0
C895 C 0.80775 0.19155 0.82048 0.0
C896 C 0.80881 0.22275 0.82745 0.0
C897 C 0.80946 0.164 0.82948 0.0
C898 C 0.81162 0.132 0.82287 0.0
C899 C 0.83971 0.13839 0.81237 0.0
C900 C 0.84153 0.10813 0.80613 0.0
C901 C 0.81557 0.07135 0.81038 0.0
C902 C 0.7878 0.06476 0.82092 0.0
C903 C 0.78584 0.09492 0.82718 0.0
H904 H 0.81703 0.04797 0.80554 0.0
H905 H 0.81336 0.34759 0.86744 0.0
H906 H 0.65588 0.78072 0.10561 0.0
H907 H 0.65952 0.7872 0.13292 0.0
H908 H 0.57049 0.81396 0.13223 0.0
H909 H 0.5671 0.80809 0.10498 0.0
H910 H 0.62422 0.85893 0.15124 0.0
H911 H 0.55263 0.72642 0.14144 0.0
H912 H 0.54035 0.66634 0.13033 0.0
H913 H 0.63611 0.67497 0.15341 0.0
H914 H 0.64927 0.7354 0.1645 0.0
H915 H 0.55421 0.76102 0.22798 0.0
H916 H 0.55945 0.75826 0.20087 0.0
H917 H 0.66723 0.86039 0.2021 0.0
H918 H 0.66175 0.86373 0.22933 0.0
H919 H 0.6064 0.75184 0.18279 0.0
H920 H 0.67657 0.91085 0.17026 0.0
H921 H 0.68089 0.96806 0.18119 0.0
H922 H 0.57402 0.90123 0.20267 0.0
H923 H 0.56885 0.84373 0.1917 0.0
C924 C 0.63722 0.78815 0.11129 0.0
C925 C 0.6111 0.79375 0.10317 0.0
C926 C 0.63925 0.79175 0.12689 0.0
C927 C 0.61504 0.80075 0.13463 0.0
C928 C 0.58949 0.80707 0.1265 0.0
C929 C 0.58748 0.80355 0.11092 0.0
C930 C 0.61553 0.80269 0.15124 0.0
C931 C 0.62058 0.83561 0.15814 0.0
C932 C 0.61012 0.77203 0.16025 0.0
C933 C 0.60218 0.73563 0.15366 0.0
C934 C 0.57124 0.71564 0.14405 0.0
C935 C 0.56409 0.68151 0.13777 0.0
C936 C 0.5875 0.6669 0.14113 0.0
C937 C 0.61805 0.68635 0.1508 0.0
C938 C 0.62535 0.72054 0.15709 0.0
C939 C 0.57912 0.78286 0.22251 0.0
C940 C 0.60748 0.81274 0.23077 0.0
C941 C 0.58214 0.78114 0.207 0.0
C942 C 0.61356 0.80927 0.19941 0.0
C943 C 0.64247 0.83865 0.20769 0.0
C944 C 0.63938 0.84047 0.22324 0.0
C945 C 0.61523 0.80815 0.18281 0.0
C946 C 0.61058 0.77537 0.1759 0.0
C947 C 0.61998 0.83856 0.17378 0.0
C948 C 0.62258 0.87299 0.1803 0.0
C949 C 0.65397 0.9084 0.17728 0.0
C950 C 0.65656 0.94087 0.18349 0.0
C951 C 0.62782 0.93827 0.19267 0.0
C952 C 0.59634 0.9032 0.19561 0.0
C953 C 0.59359 0.87066 0.18942 0.0
H954 H 0.6299 0.96343 0.19747 0.0
H955 H 0.58192 0.64047 0.13626 0.0
H956 H 0.76259 0.53632 0.56157 0.0
H957 H 0.77129 0.54065 0.53448 0.0
H958 H 0.81919 0.66103 0.53685 0.0
H959 H 0.80894 0.65653 0.56399 0.0
H960 H 0.77556 0.63626 0.51379 0.0
H961 H 0.87436 0.61797 0.53189 0.0
H962 H 0.9035 0.58792 0.54625 0.0
H963 H 0.83853 0.48545 0.52158 0.0
H964 H 0.8086 0.51473 0.5072 0.0
H965 H 0.8527 0.66263 0.43942 0.0
H966 H 0.8476 0.66416 0.46676 0.0
H967 H 0.77681 0.54353 0.46737 0.0
H968 H 0.78133 0.54181 0.44008 0.0
H969 H 0.83647 0.57272 0.48877 0.0
H970 H 0.7367 0.59347 0.47135 0.0
H971 H 0.7108 0.62645 0.45687 0.0
H972 H 0.78342 0.729 0.48033 0.0
H973 H 0.81015 0.69672 0.4948 0.0
C974 C 0.775 0.56372 0.55632 0.0
C975 C 0.78531 0.59612 0.56489 0.0
C976 C 0.78019 0.56622 0.54082 0.0
C977 C 0.7967 0.60128 0.5336 0.0
C978 C 0.80656 0.63367 0.54214 0.0
C979 C 0.80078 0.6311 0.55765 0.0
C980 C 0.80316 0.6039 0.51714 0.0
C981 C 0.78947 0.62289 0.50838 0.0
C982 C 0.82097 0.58617 0.50997 0.0
C983 C 0.839 0.56847 0.51855 0.0
C984 C 0.86609 0.58895 0.5296 0.0
C985 C 0.88278 0.57206 0.53773 0.0
C986 C 0.87281 0.53478 0.53485 0.0
C987 C 0.8462 0.51432 0.52381 0.0
C988 C 0.82939 0.53106 0.51565 0.0
C989 C 0.83604 0.63646 0.44539 0.0
C990 C 0.81736 0.6021 0.43763 0.0
C991 C 0.83309 0.6374 0.46098 0.0
C992 C 0.81173 0.60396 0.46905 0.0
C993 C 0.79343 0.56962 0.46133 0.0
C994 C 0.79595 0.56871 0.44575 0.0
C995 C 0.80848 0.60459 0.48555 0.0
C996 C 0.82284 0.58627 0.49427 0.0
C997 C 0.79188 0.62342 0.49269 0.0
C998 C 0.77572 0.64279 0.48403 0.0
C999 C 0.7474 0.62314 0.47332 0.0
C1000 C 0.73251 0.64168 0.46514 0.0
C1001 C 0.74554 0.67983 0.46765 0.0
C1002 C 0.77341 0.69947 0.47838 0.0
C1003 C 0.78841 0.68106 0.48658 0.0
H1004 H 0.73398 0.69414 0.4613 0.0
H1005 H 0.88576 0.52175 0.54116 0.0
H1006 H 0.24753 0.81294 0.89772 0.0
H1007 H 0.25033 0.82084 0.87058 0.0
H1008 H 0.13249 0.78687 0.86978 0.0
H1009 H 0.12973 0.77965 0.89707 0.0
H1010 H 0.21704 0.77181 0.84939 0.0
H1011 H 0.11548 0.82989 0.84033 0.0
H1012 H 0.09516 0.86942 0.85357 0.0
H1013 H 0.19927 0.92341 0.87796 0.0
H1014 H 0.2204 0.88461 0.86473 0.0
H1015 H 0.17411 0.75509 0.77296 0.0
H1016 H 0.1669 0.75248 0.80015 0.0
H1017 H 0.22632 0.87374 0.80202 0.0
H1018 H 0.23199 0.87637 0.77466 0.0
H1019 H 0.17341 0.848 0.82198 0.0
H1020 H 0.27058 0.82086 0.80909 0.0
H1021 H 0.29849 0.78781 0.79601 0.0
H1022 H 0.21701 0.68357 0.81614 0.0
H1023 H 0.1883 0.71592 0.82919 0.0
C1024 C 0.22225 0.80737 0.89179 0.0
C1025 C 0.1884 0.79568 0.89953 0.0
C1026 C 0.22386 0.8118 0.87626 0.0
C1027 C 0.1917 0.80466 0.86812 0.0
C1028 C 0.15783 0.7931 0.87583 0.0
C1029 C 0.15623 0.78883 0.89141 0.0
C1030 C 0.19352 0.80813 0.85153 0.0
C1031 C 0.20745 0.78846 0.84342 0.0
C1032 C 0.18167 0.83037 0.84371 0.0
C1033 C 0.1693 0.85402 0.85165 0.0
C1034 C 0.13406 0.85027 0.84849 0.0
C1035 C 0.12241 0.87255 0.856 0.0
C1036 C 0.14585 0.89881 0.86664 0.0
C1037 C 0.18106 0.90295 0.86976 0.0
C1038 C 0.19287 0.88078 0.86228 0.0
C1039 C 0.18527 0.78118 0.77916 0.0
C1040 C 0.20391 0.81595 0.77174 0.0
C1041 C 0.18131 0.77968 0.79471 0.0
C1042 C 0.19689 0.81292 0.80321 0.0
C1043 C 0.2142 0.8477 0.79574 0.0
C1044 C 0.2175 0.8492 0.78012 0.0
C1045 C 0.19656 0.81135 0.81986 0.0
C1046 C 0.18288 0.83129 0.82797 0.0
C1047 C 0.2097 0.79023 0.82775 0.0
C1048 C 0.22711 0.77076 0.82001 0.0
C1049 C 0.25849 0.79085 0.81066 0.0
C1050 C 0.27446 0.77225 0.80326 0.0
C1051 C 0.25948 0.7336 0.80522 0.0
C1052 C 0.22856 0.71349 0.81462 0.0
C1053 C 0.21245 0.73195 0.82203 0.0
H1054 H 0.27188 0.71925 0.79947 0.0
H1055 H 0.13677 0.91601 0.87244 0.0
H1056 H 0.50639 0.64753 0.0512 0.0
H1057 H 0.48311 0.58007 0.05118 0.0
H1058 H 0.59654 0.60115 0.05613 0.0
H1059 H 0.62022 0.66916 0.05577 0.0
H1060 H 0.55854 0.54535 0.03677 0.0
H1061 H 0.53553 0.57402 0.08617 0.0
H1062 H 0.51185 0.60059 0.10517 0.0
H1063 H 0.39896 0.52944 0.08944 0.0
H1064 H 0.42203 0.5028 0.0702 0.0
H1065 H 0.50994 0.36224 0.06084 0.0
H1066 H 0.5334 0.42969 0.05953 0.0
H1067 H 0.42059 0.40825 0.05208 0.0
H1068 H 0.39672 0.34028 0.05355 0.0
H1069 H 0.45831 0.46406 0.07264 0.0
H1070 H 0.48293 0.43485 0.02329 0.0
H1071 H 0.50804 0.4083 0.0049 0.0
H1072 H 0.6199 0.48063 0.02142 0.0
H1073 H 0.59539 0.50726 0.04006 0.0
C1074 C 0.52646 0.63788 0.05223 0.0
C1075 C 0.56516 0.66368 0.05358 0.0
C1076 C 0.51306 0.59923 0.0523 0.0
C1077 C 0.53794 0.58541 0.05396 0.0
C1078 C 0.57676 0.61112 0.05491 0.0
C1079 C 0.59027 0.64996 0.05472 0.0
C1080 C 0.52323 0.54416 0.05482 0.0
C1081 C 0.537 0.52767 0.04476 0.0
C1082 C 0.49456 0.52086 0.06504 0.0
C1083 C 0.48056 0.53666 0.07666 0.0
C1084 C 0.50568 0.56423 0.08669 0.0
C1085 C 0.49237 0.57927 0.09752 0.0
C1086 C 0.45394 0.56677 0.09848 0.0
C1087 C 0.42873 0.53912 0.08866 0.0
C1088 C 0.4419 0.52401 0.07781 0.0
C1089 C 0.49005 0.37179 0.0589 0.0
C1090 C 0.45144 0.34589 0.05724 0.0
C1091 C 0.50357 0.41042 0.05808 0.0
C1092 C 0.47886 0.42409 0.0555 0.0
C1093 C 0.44019 0.39833 0.05402 0.0
C1094 C 0.4266 0.35954 0.05483 0.0
C1095 C 0.49353 0.46529 0.05456 0.0
C1096 C 0.47979 0.48175 0.06464 0.0
C1097 C 0.52244 0.48858 0.04444 0.0
C1098 C 0.53727 0.47282 0.03316 0.0
C1099 C 0.51285 0.44491 0.02308 0.0
C1100 C 0.52698 0.42988 0.01259 0.0
C1101 C 0.56552 0.44271 0.01202 0.0
C1102 C 0.59004 0.47069 0.02189 0.0
C1103 C 0.57605 0.48579 0.03241 0.0
H1104 H 0.57641 0.43103 0.0039 0.0
H1105 H 0.44369 0.57846 0.10687 0.0
H1106 H 0.95278 0.61632 0.39688 0.0
H1107 H 0.99645 0.59197 0.39682 0.0
H1108 H 0.91539 0.49409 0.37234 0.0
H1109 H 0.87157 0.51785 0.37262 0.0
H1110 H 0.94195 0.47356 0.39508 0.0
H1111 H 0.99624 0.56479 0.35566 0.0
H1112 H 0.02287 0.62758 0.34418 0.0
H1113 H 0.11158 0.6727 0.37683 0.0
H1114 H 0.08519 0.61026 0.38864 0.0
H1115 H 0.06417 0.4008 0.3794 0.0
H1116 H 0.02126 0.42586 0.37708 0.0
H1117 H 0.10022 0.52559 0.40118 0.0
H1118 H 0.14328 0.50118 0.40322 0.0
H1119 H 0.07433 0.54464 0.37785 0.0
H1120 H 0.01934 0.45452 0.41775 0.0
H1121 H 0.99278 0.39209 0.42956 0.0
H1122 H 0.90549 0.34533 0.39633 0.0
H1123 H 0.93183 0.40742 0.3842 0.0
C1124 C 0.94454 0.58987 0.39131 0.0
C1125 C 0.90876 0.56902 0.38475 0.0
C1126 C 0.96951 0.57598 0.39126 0.0
C1127 C 0.9593 0.5412 0.38451 0.0
C1128 C 0.9239 0.52087 0.37766 0.0
C1129 C 0.89893 0.53461 0.37778 0.0
C1130 C 0.98468 0.5251 0.38509 0.0
C1131 C 0.97074 0.48892 0.3911 0.0
C1132 C 0.02252 0.54538 0.38023 0.0
C1133 C 0.03853 0.58292 0.37311 0.0
C1134 C 0.02127 0.58816 0.36046 0.0
C1135 C 0.03635 0.62368 0.35388 0.0
C1136 C 0.06884 0.65413 0.3598 0.0
C1137 C 0.08639 0.6491 0.37228 0.0
C1138 C 0.0714 0.61364 0.37891 0.0
C1139 C 0.07224 0.42799 0.38423 0.0
C1140 C 0.10705 0.44896 0.39151 0.0
C1141 C 0.04769 0.44226 0.38294 0.0
C1142 C 0.05736 0.47756 0.38906 0.0
C1143 C 0.09213 0.4984 0.39633 0.0
C1144 C 0.11666 0.48429 0.39754 0.0
C1145 C 0.03161 0.49314 0.38787 0.0
C1146 C 0.04549 0.52924 0.38177 0.0
C1147 C 0.99373 0.47283 0.39268 0.0
C1148 C 0.97779 0.43552 0.39998 0.0
C1149 C 0.99465 0.43086 0.4129 0.0
C1150 C 0.9796 0.39555 0.41966 0.0
C1151 C 0.94753 0.36474 0.41367 0.0
C1152 C 0.93037 0.36921 0.40094 0.0
C1153 C 0.94532 0.40445 0.39412 0.0
H1154 H 0.93593 0.33743 0.41892 0.0
H1155 H 0.08047 0.68161 0.35469 0.0
H1156 H 0.66496 0.0586 0.7105 0.0
H1157 H 0.59701 0.01541 0.70794 0.0
H1158 H 0.57541 0.09351 0.73218 0.0
H1159 H 0.64275 0.13698 0.73428 0.0
H1160 H 0.54302 0.97804 0.72649 0.0
H1161 H 0.49703 0.09107 0.72107 0.0
H1162 H 0.52166 0.15438 0.71027 0.0
H1163 H 0.58981 0.13377 0.67963 0.0
H1164 H 0.5652 0.07017 0.69007 0.0
H1165 H 0.3538 0.89515 0.74615 0.0
H1166 H 0.42136 0.93786 0.74381 0.0
H1167 H 0.40572 0.9627 0.6983 0.0
H1168 H 0.33756 0.92107 0.70088 0.0
H1169 H 0.45718 0.02348 0.71017 0.0
H1170 H 0.43843 0.90011 0.70709 0.0
H1171 H 0.41446 0.83412 0.71446 0.0
H1172 H 0.47665 0.87054 0.75563 0.0
H1173 H 0.50062 0.93676 0.7486 0.0
C1174 C 0.64563 0.06651 0.71522 0.0
C1175 C 0.65919 0.10129 0.72249 0.0
C1176 C 0.60681 0.04182 0.71377 0.0
C1177 C 0.58091 0.05142 0.71962 0.0
C1178 C 0.59462 0.08578 0.7272 0.0
C1179 C 0.63324 0.11056 0.72848 0.0
C1180 C 0.53957 0.02542 0.71817 0.0
C1181 C 0.52431 0.98798 0.72286 0.0
C1182 C 0.51501 0.03788 0.71298 0.0
C1183 C 0.52945 0.07592 0.70645 0.0
C1184 C 0.5171 0.09995 0.71197 0.0
C1185 C 0.5311 0.13592 0.70592 0.0
C1186 C 0.55735 0.14812 0.6943 0.0
C1187 C 0.56957 0.12434 0.68866 0.0
C1188 C 0.55562 0.08834 0.69465 0.0
C1189 C 0.36472 0.90998 0.73569 0.0
C1190 C 0.34044 0.90465 0.72367 0.0
C1191 C 0.40344 0.93418 0.73431 0.0
C1192 C 0.41896 0.95283 0.72074 0.0
C1193 C 0.39457 0.9485 0.70886 0.0
C1194 C 0.35562 0.92474 0.71034 0.0
C1195 C 0.46058 0.9765 0.71902 0.0
C1196 C 0.4759 0.01347 0.7137 0.0
C1197 C 0.48526 0.9632 0.7231 0.0
C1198 C 0.47111 0.92341 0.72736 0.0
C1199 C 0.44682 0.89404 0.71776 0.0
C1200 C 0.43325 0.8566 0.72187 0.0
C1201 C 0.44397 0.84815 0.73551 0.0
C1202 C 0.46836 0.87713 0.74506 0.0
C1203 C 0.48199 0.91463 0.74101 0.0
H1204 H 0.43342 0.81914 0.73868 0.0
H1205 H 0.56817 0.17597 0.68964 0.0
H1206 H 0.63837 0.49608 0.60841 0.0
H1207 H 0.57129 0.47384 0.60986 0.0
H1208 H 0.59501 0.58607 0.62047 0.0
H1209 H 0.66283 0.60858 0.61929 0.0
H1210 H 0.5395 0.53461 0.63798 0.0
H1211 H 0.56517 0.54956 0.58555 0.0
H1212 H 0.59026 0.54201 0.56155 0.0
H1213 H 0.5189 0.42221 0.5643 0.0
H1214 H 0.49376 0.429 0.58844 0.0
H1215 H 0.35441 0.49913 0.62224 0.0
H1216 H 0.42202 0.52267 0.62245 0.0
H1217 H 0.40164 0.4104 0.6146 0.0
H1218 H 0.33357 0.38652 0.6144 0.0
H1219 H 0.45552 0.46318 0.59566 0.0
H1220 H 0.43001 0.44934 0.64841 0.0
H1221 H 0.40493 0.45819 0.67217 0.0
H1222 H 0.47591 0.57784 0.66835 0.0
H1223 H 0.50105 0.56974 0.64444 0.0
C1224 C 0.62944 0.51616 0.61103 0.0
C1225 C 0.65595 0.55419 0.61365 0.0
C1226 C 0.59098 0.50337 0.6118 0.0
C1227 C 0.57802 0.52835 0.61504 0.0
C1228 C 0.60438 0.56631 0.61789 0.0
C1229 C 0.64307 0.57917 0.61717 0.0
C1230 C 0.5369 0.51443 0.6155 0.0
C1231 C 0.52122 0.51952 0.62864 0.0
C1232 C 0.51287 0.494 0.60343 0.0
C1233 C 0.52783 0.48978 0.58888 0.0
C1234 C 0.55503 0.52158 0.5811 0.0
C1235 C 0.56923 0.51744 0.56746 0.0
C1236 C 0.55625 0.48165 0.56142 0.0
C1237 C 0.52896 0.44992 0.569 0.0
C1238 C 0.5147 0.4539 0.58266 0.0
C1239 C 0.36425 0.47934 0.62068 0.0
C1240 C 0.33865 0.44093 0.61831 0.0
C1241 C 0.40293 0.49286 0.62085 0.0
C1242 C 0.4169 0.46829 0.61864 0.0
C1243 C 0.39144 0.42984 0.61636 0.0
C1244 C 0.3526 0.41621 0.6163 0.0
C1245 C 0.45814 0.48313 0.61816 0.0
C1246 C 0.47383 0.47828 0.605 0.0
C1247 C 0.48215 0.50399 0.63015 0.0
C1248 C 0.46714 0.50894 0.64455 0.0
C1249 C 0.44004 0.47756 0.65256 0.0
C1250 C 0.42586 0.48244 0.66608 0.0
C1251 C 0.43875 0.51856 0.67175 0.0
C1252 C 0.46592 0.54988 0.66394 0.0
C1253 C 0.48017 0.54516 0.65041 0.0
H1254 H 0.42774 0.52228 0.68222 0.0
H1255 H 0.56727 0.4785 0.55086 0.0
H1256 H 0.14591 0.64655 0.94464 0.0
H1257 H 0.10115 0.57929 0.94546 0.0
H1258 H 0.01037 0.60192 0.9522 0.0
H1259 H 0.05548 0.66981 0.95166 0.0
H1260 H 1.00268 0.54598 0.97021 0.0
H1261 H 0.02456 0.57349 0.91806 0.0
H1262 H 0.06218 0.59939 0.89512 0.0
H1263 H 0.10987 0.52811 0.90101 0.0
H1264 H 0.07292 0.50215 0.92412 0.0
H1265 H 0.85733 0.36017 0.95194 0.0
H1266 H 0.90052 0.42804 0.95241 0.0
H1267 H 0.99477 0.40973 0.94848 0.0
H1268 H 0.95155 0.34153 0.94799 0.0
H1269 H 0.99915 0.46359 0.92886 0.0
H1270 H 0.9766 0.43657 0.98138 0.0
H1271 H 0.9376 0.41053 0.00399 0.0
H1272 H 0.88919 0.48076 0.99682 0.0
H1273 H 0.92754 0.50687 0.97403 0.0
C1274 C 0.11642 0.63732 0.9463 0.0
C1275 C 0.10421 0.66354 0.948 0.0
C1276 C 0.09081 0.59877 0.9467 0.0
C1277 C 0.05226 0.58544 0.94865 0.0
C1278 C 0.03996 0.61153 0.95062 0.0
C1279 C 0.06571 0.65029 0.95027 0.0
C1280 C 0.02509 0.54425 0.94863 0.0
C1281 C 1.0015 0.52806 0.96106 0.0
C1282 C 0.02401 0.52065 0.93682 0.0
C1283 C 0.04622 0.53612 0.9229 0.0
C1284 C 0.04329 0.56355 0.91453 0.0
C1285 C 0.06446 0.57821 0.90148 0.0
C1286 C 0.08847 0.56547 0.89663 0.0
C1287 C 0.09129 0.53798 0.9048 0.0
C1288 C 0.07021 0.52325 0.91786 0.0
C1289 C 0.88727 0.37054 0.95127 0.0
C1290 C 0.90105 0.34548 0.94995 0.0
C1291 C 0.91193 0.40937 0.95159 0.0
C1292 C 0.95091 0.424 0.95059 0.0
C1293 C 0.96479 0.39905 0.94929 0.0
C1294 C 0.9401 0.36011 0.94907 0.0
C1295 C 0.97702 0.46535 0.95048 0.0
C1296 C 1.00034 0.48155 0.938 0.0
C1297 C 0.97764 0.48893 0.96218 0.0
C1298 C 0.95468 0.4734 0.97592 0.0
C1299 C 0.95741 0.44624 0.98455 0.0
C1300 C 0.93547 0.43151 0.99741 0.0
C1301 C 0.91086 0.44391 1.00181 0.0
C1302 C 0.90823 0.47115 0.99338 0.0
C1303 C 0.93009 0.48595 0.9805 0.0
H1304 H 0.89389 0.43247 0.01178 0.0
H1305 H 0.10483 0.57685 0.88653 0.0
H1306 H 0.55201 0.90319 0.25537 0.0
H1307 H 0.52709 0.94612 0.25741 0.0
H1308 H 0.5493 0.95673 0.30487 0.0
H1309 H 0.57547 0.91453 0.30283 0.0
H1310 H 0.4689 0.9354 0.29261 0.0
H1311 H 0.60184 0.02714 0.29019 0.0
H1312 H 0.66528 0.05467 0.27924 0.0
H1313 H 0.62361 0.07073 0.23741 0.0
H1314 H 0.55977 0.04275 0.24806 0.0
H1315 H 0.41902 0.07827 0.30271 0.0
H1316 H 0.44546 0.03646 0.30401 0.0
H1317 H 0.47797 0.05942 0.25754 0.0
H1318 H 0.45351 0.10261 0.25652 0.0
H1319 H 0.53317 0.06437 0.27154 0.0
H1320 H 0.40205 0.97176 0.27163 0.0
H1321 H 0.33621 0.94044 0.28024 0.0
H1322 H 0.37003 0.9214 0.32334 0.0
H1323 H 0.43618 0.95306 0.31504 0.0
C1324 C 0.55204 0.91506 0.26621 0.0
C1325 C 0.56582 0.90571 0.27893 0.0
C1326 C 0.53773 0.93945 0.26736 0.0
C1327 C 0.53624 0.95438 0.28129 0.0
C1328 C 0.55019 0.94537 0.29403 0.0
C1329 C 0.56535 0.92157 0.29283 0.0
C1330 C 0.51945 0.97889 0.28241 0.0
C1331 C 0.48308 0.9639 0.28828 0.0
C1332 C 0.53756 0.01543 0.27626 0.0
C1333 C 0.57597 0.03251 0.26988 0.0
C1334 C 0.60614 0.03621 0.27861 0.0
C1335 C 0.64218 0.05197 0.27247 0.0
C1336 C 0.64846 0.06435 0.25763 0.0
C1337 C 0.6187 0.06109 0.24891 0.0
C1338 C 0.58259 0.04532 0.25499 0.0
C1339 C 0.43128 0.07381 0.29274 0.0
C1340 C 0.4342 0.09359 0.27951 0.0
C1341 C 0.44636 0.04986 0.29346 0.0
C1342 C 0.46368 0.04447 0.28084 0.0
C1343 C 0.46514 0.06321 0.26748 0.0
C1344 C 0.4509 0.08773 0.26687 0.0
C1345 C 0.48197 0.02094 0.28161 0.0
C1346 C 0.51877 0.03605 0.27604 0.0
C1347 C 0.46383 0.98416 0.28774 0.0
C1348 C 0.42411 0.96517 0.29277 0.0
C1349 C 0.39548 0.96117 0.28298 0.0
C1350 C 0.35811 0.9433 0.2878 0.0
C1351 C 0.34896 0.92905 0.30234 0.0
C1352 C 0.37717 0.93253 0.31209 0.0
C1353 C 0.4146 0.95041 0.30733 0.0
H1354 H 0.32001 0.91521 0.30605 0.0
H1355 H 0.67638 0.07655 0.2529 0.0
loop_
_geom_bond_atom_site_label_1
_geom_bond_atom_site_label_2
_geom_bond_distance
_geom_bond_site_symmetry_2
_ccdc_geom_bond_type
In0 O1 2.294 . S
In0 O2 2.326 . S
In0 O6 2.266 . S
In0 O7 2.326 . S
In0 O8 2.266 . S
In0 O9 2.326 . S
In0 O11 2.294 . S
In0 O12 2.326 . S
O1 In0 2.294 . S
O1 C10 1.240 . S
O2 In0 2.326 . S
O2 C10 1.252 . S
C3 O6 1.252 . S
C3 O7 1.260 . S
C4 O11 1.240 . S
C4 O12 1.252 . S
C5 O8 1.252 . S
C5 O9 1.260 . S
O6 In0 2.266 . S
O6 C3 1.252 . S
O7 In0 2.326 . S
O7 C3 1.260 . S
O8 In0 2.266 . S
O8 C5 1.252 . S
O9 In0 2.326 . S
O9 C5 1.260 . S
C10 O1 1.240 . S
C10 O2 1.252 . S
O11 In0 2.294 . S
O11 C4 1.240 . S
O12 In0 2.326 . S
O12 C4 1.252 . S
In13 O14 2.294 . S
In13 O15 2.326 . S
In13 O19 2.266 . S
In13 O20 2.326 . S
In13 O21 2.266 . S
In13 O22 2.326 . S
In13 O24 2.294 . S
In13 O25 2.326 . S
O14 In13 2.294 . S
O14 C23 1.240 . S
O15 In13 2.326 . S
O15 C23 1.252 . S
C16 O19 1.252 . S
C16 O20 1.260 . S
C17 O24 1.240 . S
C17 O25 1.252 . S
C18 O21 1.252 . S
C18 O22 1.260 . S
O19 In13 2.266 . S
O19 C16 1.252 . S
O20 In13 2.326 . S
O20 C16 1.260 . S
O21 In13 2.266 . S
O21 C18 1.252 . S
O22 In13 2.326 . S
O22 C18 1.260 . S
C23 O14 1.240 . S
C23 O15 1.252 . S
O24 In13 2.294 . S
O24 C17 1.240 . S
O25 In13 2.326 . S
O25 C17 1.252 . S
In26 O27 2.294 . S
In26 O28 2.326 . S
In26 O32 2.266 . S
In26 O33 2.326 . S
In26 O34 2.266 . S
In26 O35 2.326 . S
In26 O37 2.294 . S
In26 O38 2.326 . S
O27 In26 2.294 . S
O27 C36 1.240 . S
O28 In26 2.326 . S
O28 C36 1.252 . S
C29 O32 1.252 . S
C29 O33 1.260 . S
C30 O37 1.240 . S
C30 O38 1.252 . S
C31 O34 1.252 . S
C31 O35 1.260 . S
O32 In26 2.266 . S
O32 C29 1.252 . S
O33 In26 2.326 . S
O33 C29 1.260 . S
O34 In26 2.266 . S
O34 C31 1.252 . S
O35 In26 2.326 . S
O35 C31 1.260 . S
C36 O27 1.240 . S
C36 O28 1.252 . S
O37 In26 2.294 . S
O37 C30 1.240 . S
O38 In26 2.326 . S
O38 C30 1.252 . S
In39 O40 2.294 . S
In39 O41 2.326 . S
In39 O45 2.266 . S
In39 O46 2.326 . S
In39 O47 2.266 . S
In39 O48 2.326 . S
In39 O50 2.294 . S
In39 O51 2.326 . S
O40 In39 2.294 . S
O40 C49 1.240 . S
O41 In39 2.326 . S
O41 C49 1.252 . S
C42 O45 1.252 . S
C42 O46 1.260 . S
C43 O50 1.240 . S
C43 O51 1.252 . S
C44 O47 1.252 . S
C44 O48 1.260 . S
O45 In39 2.266 . S
O45 C42 1.252 . S
O46 In39 2.326 . S
O46 C42 1.260 . S
O47 In39 2.266 . S
O47 C44 1.252 . S
O48 In39 2.326 . S
O48 C44 1.260 . S
C49 O40 1.240 . S
C49 O41 1.252 . S
O50 In39 2.294 . S
O50 C43 1.240 . S
O51 In39 2.326 . S
O51 C43 1.252 . S
In52 O53 2.294 . S
In52 O54 2.326 . S
In52 O58 2.266 . S
In52 O59 2.326 . S
In52 O60 2.266 . S
In52 O61 2.326 . S
In52 O63 2.294 . S
In52 O64 2.326 . S
O53 In52 2.294 . S
O53 C62 1.240 . S
O54 In52 2.326 . S
O54 C62 1.252 . S
C55 O58 1.252 . S
C55 O59 1.260 . S
C56 O63 1.240 . S
C56 O64 1.252 . S
C57 O60 1.252 . S
C57 O61 1.260 . S
O58 In52 2.266 . S
O58 C55 1.252 . S
O59 In52 2.326 . S
O59 C55 1.260 . S
O60 In52 2.266 . S
O60 C57 1.252 . S
O61 In52 2.326 . S
O61 C57 1.260 . S
C62 O53 1.240 . S
C62 O54 1.252 . S
O63 In52 2.294 . S
O63 C56 1.240 . S
O64 In52 2.326 . S
O64 C56 1.252 . S
In65 O66 2.294 . S
In65 O67 2.326 . S
In65 O71 2.266 . S
In65 O72 2.326 . S
In65 O73 2.266 . S
In65 O74 2.326 . S
In65 O76 2.294 . S
In65 O77 2.326 . S
O66 In65 2.294 . S
O66 C75 1.240 . S
O67 In65 2.326 . S
O67 C75 1.252 . S
C68 O71 1.252 . S
C68 O72 1.260 . S
C69 O76 1.240 . S
C69 O77 1.252 . S
C70 O73 1.252 . S
C70 O74 1.260 . S
O71 In65 2.266 . S
O71 C68 1.252 . S
O72 In65 2.326 . S
O72 C68 1.260 . S
O73 In65 2.266 . S
O73 C70 1.252 . S
O74 In65 2.326 . S
O74 C70 1.260 . S
C75 O66 1.240 . S
C75 O67 1.252 . S
O76 In65 2.294 . S
O76 C69 1.240 . S
O77 In65 2.326 . S
O77 C69 1.252 . S
In78 O79 2.294 . S
In78 O80 2.326 . S
In78 O84 2.266 . S
In78 O85 2.326 . S
In78 O86 2.266 . S
In78 O87 2.326 . S
In78 O89 2.294 . S
In78 O90 2.326 . S
O79 In78 2.294 . S
O79 C88 1.240 . S
O80 In78 2.326 . S
O80 C88 1.252 . S
C81 O84 1.252 . S
C81 O85 1.260 . S
C82 O89 1.240 . S
C82 O90 1.252 . S
C83 O86 1.252 . S
C83 O87 1.260 . S
O84 In78 2.266 . S
O84 C81 1.252 . S
O85 In78 2.326 . S
O85 C81 1.260 . S
O86 In78 2.266 . S
O86 C83 1.252 . S
O87 In78 2.326 . S
O87 C83 1.260 . S
C88 O79 1.240 . S
C88 O80 1.252 . S
O89 In78 2.294 . S
O89 C82 1.240 . S
O90 In78 2.326 . S
O90 C82 1.252 . S
In91 O92 2.294 . S
In91 O93 2.326 . S
In91 O97 2.266 . S
In91 O98 2.326 . S
In91 O99 2.266 . S
In91 O100 2.326 . S
In91 O102 2.294 . S
In91 O103 2.326 . S
O92 In91 2.294 . S
O92 C101 1.240 . S
O93 In91 2.326 . S
O93 C101 1.252 . S
C94 O97 1.252 . S
C94 O98 1.260 . S
C95 O102 1.240 . S
C95 O103 1.252 . S
C96 O99 1.252 . S
C96 O100 1.260 . S
O97 In91 2.266 . S
O97 C94 1.252 . S
O98 In91 2.326 . S
O98 C94 1.260 . S
O99 In91 2.266 . S
O99 C96 1.252 . S
O100 In91 2.326 . S
O100 C96 1.260 . S
C101 O92 1.240 . S
C101 O93 1.252 . S
O102 In91 2.294 . S
O102 C95 1.240 . S
O103 In91 2.326 . S
O103 C95 1.252 . S
In104 O105 2.294 . S
In104 O106 2.326 . S
In104 O110 2.266 . S
In104 O111 2.326 . S
In104 O112 2.266 . S
In104 O113 2.326 . S
In104 O115 2.294 . S
In104 O116 2.326 . S
O105 In104 2.294 . S
O105 C114 1.240 . S
O106 In104 2.326 . S
O106 C114 1.252 . S
C107 O110 1.252 . S
C107 O111 1.260 . S
C108 O115 1.240 . S
C108 O116 1.252 . S
C109 O112 1.252 . S
C109 O113 1.260 . S
O110 In104 2.266 . S
O110 C107 1.252 . S
O111 In104 2.326 . S
O111 C107 1.260 . S
O112 In104 2.266 . S
O112 C109 1.252 . S
O113 In104 2.326 . S
O113 C109 1.260 . S
C114 O105 1.240 . S
C114 O106 1.252 . S
O115 In104 2.294 . S
O115 C108 1.240 . S
O116 In104 2.326 . S
O116 C108 1.252 . S
In117 O118 2.294 . S
In117 O119 2.326 . S
In117 O123 2.266 . S
In117 O124 2.326 . S
In117 O125 2.266 . S
In117 O126 2.326 . S
In117 O128 2.294 . S
In117 O129 2.326 . S
O118 In117 2.294 . S
O118 C127 1.240 . S
O119 In117 2.326 . S
O119 C127 1.252 . S
C120 O123 1.252 . S
C120 O124 1.260 . S
C121 O128 1.240 . S
C121 O129 1.252 . S
C122 O125 1.252 . S
C122 O126 1.260 . S
O123 In117 2.266 . S
O123 C120 1.252 . S
O124 In117 2.326 . S
O124 C120 1.260 . S
O125 In117 2.266 . S
O125 C122 1.252 . S
O126 In117 2.326 . S
O126 C122 1.260 . S
C127 O118 1.240 . S
C127 O119 1.252 . S
O128 In117 2.294 . S
O128 C121 1.240 . S
O129 In117 2.326 . S
O129 C121 1.252 . S
In130 O131 2.294 . S
In130 O132 2.326 . S
In130 O136 2.266 . S
In130 O137 2.326 . S
In130 O138 2.266 . S
In130 O139 2.326 . S
In130 O141 2.294 . S
In130 O142 2.326 . S
O131 In130 2.294 . S
O131 C140 1.240 . S
O132 In130 2.326 . S
O132 C140 1.252 . S
C133 O136 1.252 . S
C133 O137 1.260 . S
C134 O141 1.240 . S
C134 O142 1.252 . S
C135 O138 1.252 . S
C135 O139 1.260 . S
O136 In130 2.266 . S
O136 C133 1.252 . S
O137 In130 2.326 . S
O137 C133 1.260 . S
O138 In130 2.266 . S
O138 C135 1.252 . S
O139 In130 2.326 . S
O139 C135 1.260 . S
C140 O131 1.240 . S
C140 O132 1.252 . S
O141 In130 2.294 . S
O141 C134 1.240 . S
O142 In130 2.326 . S
O142 C134 1.252 . S
In143 O144 2.294 . S
In143 O145 2.326 . S
In143 O149 2.266 . S
In143 O150 2.326 . S
In143 O151 2.266 . S
In143 O152 2.326 . S
In143 O154 2.294 . S
In143 O155 2.326 . S
O144 In143 2.294 . S
O144 C153 1.240 . S
O145 In143 2.326 . S
O145 C153 1.252 . S
C146 O149 1.252 . S
C146 O150 1.260 . S
C147 O154 1.240 . S
C147 O155 1.252 . S
C148 O151 1.252 . S
C148 O152 1.260 . S
O149 In143 2.266 . S
O149 C146 1.252 . S
O150 In143 2.326 . S
O150 C146 1.260 . S
O151 In143 2.266 . S
O151 C148 1.252 . S
O152 In143 2.326 . S
O152 C148 1.260 . S
C153 O144 1.240 . S
C153 O145 1.252 . S
O154 In143 2.294 . S
O154 C147 1.240 . S
O155 In143 2.326 . S
O155 C147 1.252 . S
H156 C174 0.951 . S
H157 C176 0.951 . S
H158 C178 0.950 . S
H159 C179 0.950 . S
H160 C181 0.950 . S
H161 C184 0.950 . S
H162 C185 0.950 . S
H163 C187 0.950 . S
H164 C188 0.950 . S
H165 C189 0.951 . S
H166 C191 0.951 . S
H167 C193 0.950 . S
H168 C194 0.950 . S
H169 C196 0.950 . S
H170 C199 0.950 . S
H171 C200 0.950 . S
H172 C202 0.950 . S
H173 C203 0.950 . S
C174 H156 0.951 . S
C174 C175 1.366 . S
C174 C176 1.388 . S
C175 C174 1.366 . S
C175 C179 1.385 . S
C176 H157 0.951 . S
C176 C174 1.388 . S
C176 C177 1.366 . S
C177 C176 1.366 . S
C177 C178 1.414 . S
C177 C180 1.499 . S
C178 H158 0.950 . S
C178 C177 1.414 . S
C178 C179 1.374 . S
C179 H159 0.950 . S
C179 C175 1.385 . S
C179 C178 1.374 . S
C180 C177 1.499 . S
C180 C181 1.373 . S
C180 C182 1.382 1_556 S
C181 H160 0.950 . S
C181 C180 1.373 . S
C181 C197 1.384 1_565 S
C182 C180 1.382 1_554 S
C182 C183 1.524 . S
C182 C196 1.384 1_565 S
C183 C182 1.524 . S
C183 C184 1.372 1_554 S
C183 C188 1.387 . S
C184 H161 0.950 . S
C184 C183 1.372 1_556 S
C184 C185 1.334 . S
C185 H162 0.950 . S
C185 C184 1.334 . S
C185 C186 1.287 . S
C186 C185 1.287 . S
C186 C187 1.524 1_556 S
C186 H205 0.913 . S
C187 H163 0.950 . S
C187 C186 1.524 1_554 S
C187 C188 1.415 . S
C188 H164 0.950 . S
C188 C183 1.387 . S
C188 C187 1.415 . S
C189 H165 0.951 . S
C189 C190 1.366 . S
C189 C191 1.388 . S
C190 C189 1.366 . S
C190 C194 1.385 . S
C191 H166 0.951 . S
C191 C189 1.388 . S
C191 C192 1.366 . S
C192 C191 1.366 . S
C192 C193 1.414 . S
C192 C195 1.499 . S
C193 H167 0.950 . S
C193 C192 1.414 . S
C193 C194 1.374 . S
C194 H168 0.950 . S
C194 C190 1.385 . S
C194 C193 1.374 . S
C195 C192 1.499 . S
C195 C196 1.373 . S
C195 C197 1.382 1_554 S
C196 H169 0.950 . S
C196 C182 1.384 1_545 S
C196 C195 1.373 . S
C197 C181 1.384 1_545 S
C197 C195 1.382 1_556 S
C197 C198 1.524 . S
C198 C197 1.524 . S
C198 C199 1.372 1_556 S
C198 C203 1.387 . S
C199 H170 0.950 . S
C199 C198 1.372 1_554 S
C199 C200 1.334 . S
C200 H171 0.950 . S
C200 C199 1.334 . S
C200 C201 1.287 . S
C201 C200 1.287 . S
C201 C202 1.524 1_554 S
C201 H204 0.999 . S
C202 H172 0.950 . S
C202 C201 1.524 1_556 S
C202 C203 1.415 . S
C203 H173 0.950 . S
C203 C198 1.387 . S
C203 C202 1.415 . S
H204 C201 0.999 . S
H205 C186 0.913 . S
H206 C224 0.951 . S
H207 C226 0.951 . S
H208 C228 0.950 . S
H209 C229 0.950 . S
H210 C231 0.950 . S
H211 C234 0.950 . S
H212 C235 0.950 . S
H213 C237 0.950 . S
H214 C238 0.950 . S
H215 C239 0.951 . S
H216 C241 0.951 . S
H217 C243 0.950 . S
H218 C244 0.950 . S
H219 C246 0.950 . S
H220 C249 0.950 . S
H221 C250 0.950 . S
H222 C252 0.950 . S
H223 C253 0.950 . S
C224 H206 0.951 . S
C224 C225 1.366 . S
C224 C226 1.388 . S
C225 C224 1.366 . S
C225 C229 1.385 . S
C226 H207 0.951 . S
C226 C224 1.388 . S
C226 C227 1.366 . S
C227 C226 1.366 . S
C227 C228 1.414 . S
C227 C230 1.499 . S
C228 H208 0.950 . S
C228 C227 1.414 . S
C228 C229 1.374 . S
C229 H209 0.950 . S
C229 C225 1.385 . S
C229 C228 1.374 . S
C230 C227 1.499 . S
C230 C231 1.373 . S
C230 C232 1.389 . S
C231 H210 0.950 . S
C231 C230 1.373 . S
C231 C247 1.377 . S
C232 C230 1.389 . S
C232 C233 1.524 . S
C232 C246 1.377 . S
C233 C232 1.524 . S
C233 C234 1.397 . S
C233 C238 1.363 . S
C234 H211 0.950 . S
C234 C233 1.397 . S
C234 C235 1.334 . S
C235 H212 0.950 . S
C235 C234 1.334 . S
C235 C236 1.287 . S
C236 C235 1.287 . S
C236 C237 1.524 . S
C236 H255 0.913 . S
C237 H213 0.950 . S
C237 C236 1.524 . S
C237 C238 1.415 . S
C238 H214 0.950 . S
C238 C233 1.363 . S
C238 C237 1.415 . S
C239 H215 0.951 . S
C239 C240 1.366 . S
C239 C241 1.388 . S
C240 C239 1.366 . S
C240 C244 1.385 . S
C241 H216 0.951 . S
C241 C239 1.388 . S
C241 C242 1.366 . S
C242 C241 1.366 . S
C242 C243 1.414 . S
C242 C245 1.499 . S
C243 H217 0.950 . S
C243 C242 1.414 . S
C243 C244 1.374 . S
C244 H218 0.950 . S
C244 C240 1.385 . S
C244 C243 1.374 . S
C245 C242 1.499 . S
C245 C246 1.373 . S
C245 C247 1.389 . S
C246 H219 0.950 . S
C246 C232 1.377 . S
C246 C245 1.373 . S
C247 C231 1.377 . S
C247 C245 1.389 . S
C247 C248 1.524 . S
C248 C247 1.524 . S
C248 C249 1.397 . S
C248 C253 1.363 . S
C249 H220 0.950 . S
C249 C248 1.397 . S
C249 C250 1.334 . S
C250 H221 0.950 . S
C250 C249 1.334 . S
C250 C251 1.287 . S
C251 C250 1.287 . S
C251 C252 1.524 . S
C251 H254 0.999 . S
C252 H222 0.950 . S
C252 C251 1.524 . S
C252 C253 1.415 . S
C253 H223 0.950 . S
C253 C248 1.363 . S
C253 C252 1.415 . S
H254 C251 0.999 . S
H255 C236 0.913 . S
H256 C274 0.951 . S
H257 C276 0.951 . S
H258 C278 0.950 . S
H259 C279 0.950 . S
H260 C281 0.950 . S
H261 C284 0.950 . S
H262 C285 0.950 . S
H263 C287 0.950 . S
H264 C288 0.950 . S
H265 C289 0.951 . S
H266 C291 0.951 . S
H267 C293 0.950 . S
H268 C294 0.950 . S
H269 C296 0.950 . S
H270 C299 0.950 . S
H271 C300 0.950 . S
H272 C302 0.950 . S
H273 C303 0.950 . S
C274 H256 0.951 . S
C274 C275 1.366 . S
C274 C276 1.388 . S
C275 C274 1.366 . S
C275 C279 1.385 . S
C276 H257 0.951 . S
C276 C274 1.388 . S
C276 C277 1.366 . S
C277 C276 1.366 . S
C277 C278 1.414 . S
C277 C280 1.499 . S
C278 H258 0.950 . S
C278 C277 1.414 . S
C278 C279 1.374 . S
C279 H259 0.950 . S
C279 C275 1.385 . S
C279 C278 1.374 . S
C280 C277 1.499 . S
C280 C281 1.373 . S
C280 C282 1.389 . S
C281 H260 0.950 . S
C281 C280 1.373 . S
C281 C297 1.377 1_655 S
C282 C280 1.389 . S
C282 C283 1.524 . S
C282 C296 1.377 1_655 S
C283 C282 1.524 . S
C283 C284 1.397 . S
C283 C288 1.363 1_655 S
C284 H261 0.950 . S
C284 C283 1.397 . S
C284 C285 1.334 . S
C285 H262 0.950 . S
C285 C284 1.334 . S
C285 C286 1.287 . S
C286 C285 1.287 . S
C286 C287 1.524 1_655 S
C286 H305 0.913 . S
C287 H263 0.950 . S
C287 C286 1.524 1_455 S
C287 C288 1.415 . S
C288 H264 0.950 . S
C288 C283 1.363 1_455 S
C288 C287 1.415 . S
C289 H265 0.951 . S
C289 C290 1.366 . S
C289 C291 1.388 . S
C290 C289 1.366 . S
C290 C294 1.385 . S
C291 H266 0.951 . S
C291 C289 1.388 . S
C291 C292 1.366 . S
C292 C291 1.366 . S
C292 C293 1.414 . S
C292 C295 1.499 . S
C293 H267 0.950 . S
C293 C292 1.414 . S
C293 C294 1.374 . S
C294 H268 0.950 . S
C294 C290 1.385 . S
C294 C293 1.374 . S
C295 C292 1.499 . S
C295 C296 1.373 . S
C295 C297 1.389 . S
C296 H269 0.950 . S
C296 C282 1.377 1_455 S
C296 C295 1.373 . S
C297 C281 1.377 1_455 S
C297 C295 1.389 . S
C297 C298 1.524 . S
C298 C297 1.524 . S
C298 C299 1.397 . S
C298 C303 1.363 1_455 S
C299 H270 0.950 . S
C299 C298 1.397 . S
C299 C300 1.334 . S
C300 H271 0.950 . S
C300 C299 1.334 . S
C300 C301 1.287 . S
C301 C300 1.287 . S
C301 C302 1.524 1_455 S
C301 H304 0.999 . S
C302 H272 0.950 . S
C302 C301 1.524 1_655 S
C302 C303 1.415 . S
C303 H273 0.950 . S
C303 C298 1.363 1_655 S
C303 C302 1.415 . S
H304 C301 0.999 . S
H305 C286 0.913 . S
H306 C324 0.951 . S
H307 C326 0.951 . S
H308 C328 0.950 . S
H309 C329 0.950 . S
H310 C331 0.950 . S
H311 C334 0.980 . S
H312 C335 0.950 1_554 S
H313 C337 0.950 . S
H314 C338 0.950 . S
H315 C339 0.951 . S
H316 C341 0.951 . S
H317 C343 0.950 . S
H318 C344 0.950 . S
H319 C346 0.950 . S
H320 C349 0.980 . S
H321 C350 0.950 1_556 S
H322 C352 0.950 . S
H323 C353 0.950 . S
C324 H306 0.951 . S
C324 C325 1.366 . S
C324 C326 1.388 . S
C325 C324 1.366 . S
C325 C329 1.385 . S
C326 H307 0.951 . S
C326 C324 1.388 . S
C326 C327 1.366 . S
C327 C326 1.366 . S
C327 C328 1.414 . S
C327 C330 1.499 . S
C328 H308 0.950 . S
C328 C327 1.414 . S
C328 C329 1.374 . S
C329 H309 0.950 . S
C329 C325 1.385 . S
C329 C328 1.374 . S
C330 C327 1.499 . S
C330 C331 1.373 . S
C330 C332 1.389 1_554 S
C331 H310 0.950 . S
C331 C330 1.373 . S
C331 C347 1.377 1_565 S
C332 C330 1.389 1_556 S
C332 C333 1.524 . S
C332 C346 1.377 1_565 S
C333 C332 1.524 . S
C333 C334 1.375 1_556 S
C333 C338 1.363 . S
C334 H311 0.980 . S
C334 C333 1.375 1_554 S
C334 C335 1.326 1_554 S
C335 H312 0.950 1_556 S
C335 C334 1.326 1_556 S
C335 C336 1.287 . S
C336 C335 1.287 . S
C336 C337 1.524 . S
C336 H355 0.913 . S
C337 H313 0.950 . S
C337 C336 1.524 . S
C337 C338 1.415 . S
C338 H314 0.950 . S
C338 C333 1.363 . S
C338 C337 1.415 . S
C339 H315 0.951 . S
C339 C340 1.366 . S
C339 C341 1.388 . S
C340 C339 1.366 . S
C340 C344 1.385 . S
C341 H316 0.951 . S
C341 C339 1.388 . S
C341 C342 1.366 . S
C342 C341 1.366 . S
C342 C343 1.414 . S
C342 C345 1.499 . S
C343 H317 0.950 . S
C343 C342 1.414 . S
C343 C344 1.374 . S
C344 H318 0.950 . S
C344 C340 1.385 . S
C344 C343 1.374 . S
C345 C342 1.499 . S
C345 C346 1.373 . S
C345 C347 1.389 1_556 S
C346 H319 0.950 . S
C346 C332 1.377 1_545 S
C346 C345 1.373 . S
C347 C331 1.377 1_545 S
C347 C345 1.389 1_554 S
C347 C348 1.524 . S
C348 C347 1.524 . S
C348 C349 1.375 1_554 S
C348 C353 1.363 . S
C349 H320 0.980 . S
C349 C348 1.375 1_556 S
C349 C350 1.326 1_556 S
C350 H321 0.950 1_554 S
C350 C349 1.326 1_554 S
C350 C351 1.287 . S
C351 C350 1.287 . S
C351 C352 1.524 . S
C351 H354 0.999 . S
C352 H322 0.950 . S
C352 C351 1.524 . S
C352 C353 1.415 . S
C353 H323 0.950 . S
C353 C348 1.363 . S
C353 C352 1.415 . S
H354 C351 0.999 . S
H355 C336 0.913 . S
H356 C374 0.951 . S
H357 C376 0.951 . S
H358 C378 0.950 . S
H359 C379 0.950 . S
H360 C381 0.950 . S
H361 C384 0.950 . S
H362 C385 0.950 . S
H363 C387 0.950 . S
H364 C388 0.950 . S
H365 C389 0.951 . S
H366 C391 0.951 . S
H367 C393 0.950 . S
H368 C394 0.950 . S
H369 C396 0.950 . S
H370 C399 0.950 . S
H371 C400 0.950 . S
H372 C402 0.950 . S
H373 C403 0.950 . S
C374 H356 0.951 . S
C374 C375 1.366 . S
C374 C376 1.388 . S
C375 C374 1.366 . S
C375 C379 1.385 . S
C376 H357 0.951 . S
C376 C374 1.388 . S
C376 C377 1.366 . S
C377 C376 1.366 . S
C377 C378 1.414 . S
C377 C380 1.499 . S
C378 H358 0.950 . S
C378 C377 1.414 . S
C378 C379 1.374 . S
C379 H359 0.950 . S
C379 C375 1.385 . S
C379 C378 1.374 . S
C380 C377 1.499 . S
C380 C381 1.373 . S
C380 C382 1.389 . S
C381 H360 0.950 . S
C381 C380 1.373 . S
C381 C397 1.377 . S
C382 C380 1.389 . S
C382 C383 1.524 . S
C382 C396 1.377 . S
C383 C382 1.524 . S
C383 C384 1.397 . S
C383 C388 1.363 . S
C384 H361 0.950 . S
C384 C383 1.397 . S
C384 C385 1.334 . S
C385 H362 0.950 . S
C385 C384 1.334 . S
C385 C386 1.287 . S
C386 C385 1.287 . S
C386 C387 1.524 . S
C386 H405 0.913 . S
C387 H363 0.950 . S
C387 C386 1.524 . S
C387 C388 1.415 . S
C388 H364 0.950 . S
C388 C383 1.363 . S
C388 C387 1.415 . S
C389 H365 0.951 . S
C389 C390 1.366 . S
C389 C391 1.388 . S
C390 C389 1.366 . S
C390 C394 1.385 . S
C391 H366 0.951 . S
C391 C389 1.388 . S
C391 C392 1.366 . S
C392 C391 1.366 . S
C392 C393 1.414 . S
C392 C395 1.499 . S
C393 H367 0.950 . S
C393 C392 1.414 . S
C393 C394 1.374 . S
C394 H368 0.950 . S
C394 C390 1.385 . S
C394 C393 1.374 . S
C395 C392 1.499 . S
C395 C396 1.373 . S
C395 C397 1.389 . S
C396 H369 0.950 . S
C396 C382 1.377 . S
C396 C395 1.373 . S
C397 C381 1.377 . S
C397 C395 1.389 . S
C397 C398 1.524 . S
C398 C397 1.524 . S
C398 C399 1.397 . S
C398 C403 1.363 . S
C399 H370 0.950 . S
C399 C398 1.397 . S
C399 C400 1.334 . S
C400 H371 0.950 . S
C400 C399 1.334 . S
C400 C401 1.287 . S
C401 C400 1.287 . S
C401 C402 1.524 . S
C401 H404 0.999 . S
C402 H372 0.950 . S
C402 C401 1.524 . S
C402 C403 1.415 . S
C403 H373 0.950 . S
C403 C398 1.363 . S
C403 C402 1.415 . S
H404 C401 0.999 . S
H405 C386 0.913 . S
H406 C424 0.951 . S
H407 C426 0.951 . S
H408 C428 0.950 . S
H409 C429 0.950 . S
H410 C431 0.949 . S
H411 C434 0.950 . S
H412 C435 0.950 . S
H413 C437 0.950 . S
H414 C438 0.950 . S
H415 C439 0.951 . S
H416 C441 0.951 . S
H417 C443 0.950 . S
H418 C444 0.950 . S
H419 C446 0.949 . S
H420 C449 0.950 . S
H421 C450 0.950 . S
H422 C452 0.950 . S
H423 C453 0.950 . S
C424 H406 0.951 . S
C424 C425 1.366 . S
C424 C426 1.388 . S
C425 C424 1.366 . S
C425 C429 1.385 . S
C426 H407 0.951 . S
C426 C424 1.388 . S
C426 C427 1.366 . S
C427 C426 1.366 . S
C427 C428 1.414 . S
C427 C430 1.499 . S
C428 H408 0.950 . S
C428 C427 1.414 . S
C428 C429 1.374 . S
C429 H409 0.950 . S
C429 C425 1.385 . S
C429 C428 1.374 . S
C430 C427 1.499 . S
C430 C431 1.352 1_655 S
C430 C432 1.389 . S
C431 H410 0.949 . S
C431 C430 1.352 1_455 S
C431 C447 1.400 . S
C432 C430 1.389 . S
C432 C433 1.524 . S
C432 C446 1.401 . S
C433 C432 1.524 . S
C433 C434 1.397 . S
C433 C438 1.363 . S
C434 H411 0.950 . S
C434 C433 1.397 . S
C434 C435 1.334 . S
C435 H412 0.950 . S
C435 C434 1.334 . S
C435 C436 1.287 . S
C436 C435 1.287 . S
C436 C437 1.524 . S
C436 H455 0.913 . S
C437 H413 0.950 . S
C437 C436 1.524 . S
C437 C438 1.415 . S
C438 H414 0.950 . S
C438 C433 1.363 . S
C438 C437 1.415 . S
C439 H415 0.951 . S
C439 C440 1.366 . S
C439 C441 1.388 . S
C440 C439 1.366 . S
C440 C444 1.385 . S
C441 H416 0.951 . S
C441 C439 1.388 . S
C441 C442 1.366 . S
C442 C441 1.366 . S
C442 C443 1.414 . S
C442 C445 1.499 . S
C443 H417 0.950 . S
C443 C442 1.414 . S
C443 C444 1.374 . S
C444 H418 0.950 . S
C444 C440 1.385 . S
C444 C443 1.374 . S
C445 C442 1.499 . S
C445 C446 1.352 1_455 S
C445 C447 1.389 . S
C446 H419 0.949 . S
C446 C432 1.401 . S
C446 C445 1.352 1_655 S
C447 C431 1.400 . S
C447 C445 1.389 . S
C447 C448 1.524 . S
C448 C447 1.524 . S
C448 C449 1.397 . S
C448 C453 1.363 . S
C449 H420 0.950 . S
C449 C448 1.397 . S
C449 C450 1.334 . S
C450 H421 0.950 . S
C450 C449 1.334 . S
C450 C451 1.287 . S
C451 C450 1.287 . S
C451 C452 1.524 . S
C451 H454 0.999 . S
C452 H422 0.950 . S
C452 C451 1.524 . S
C452 C453 1.415 . S
C453 H423 0.950 . S
C453 C448 1.363 . S
C453 C452 1.415 . S
H454 C451 0.999 . S
H455 C436 0.913 . S
H456 C474 0.951 . S
H457 C476 0.951 . S
H458 C478 0.950 1_554 S
H459 C479 0.950 . S
H460 C481 0.950 . S
H461 C484 0.950 . S
H462 C485 0.950 . S
H463 C487 0.950 . S
H464 C488 0.950 . S
H465 C489 0.951 . S
H466 C491 0.951 . S
H467 C493 0.950 1_556 S
H468 C494 0.950 . S
H469 C496 0.950 . S
H470 C499 0.950 . S
H471 C500 0.950 . S
H472 C502 0.950 . S
H473 C503 0.950 . S
C474 H456 0.951 . S
C474 C475 1.366 . S
C474 C476 1.388 . S
C475 C474 1.366 . S
C475 C479 1.385 . S
C476 H457 0.951 . S
C476 C474 1.388 . S
C476 C477 1.366 . S
C477 C476 1.366 . S
C477 C478 1.414 . S
C477 C480 1.499 . S
C478 H458 0.950 1_556 S
C478 C477 1.414 . S
C478 C479 1.374 . S
C479 H459 0.950 . S
C479 C475 1.385 . S
C479 C478 1.374 . S
C480 C477 1.499 . S
C480 C481 1.373 1_556 S
C480 C482 1.389 . S
C481 H460 0.950 . S
C481 C480 1.373 1_554 S
C481 C497 1.377 . S
C482 C480 1.389 . S
C482 C483 1.524 . S
C482 C496 1.377 . S
C483 C482 1.524 . S
C483 C484 1.397 . S
C483 C488 1.363 . S
C484 H461 0.950 . S
C484 C483 1.397 . S
C484 C485 1.334 . S
C485 H462 0.950 . S
C485 C484 1.334 . S
C485 C486 1.287 . S
C486 C485 1.287 . S
C486 C487 1.524 . S
C486 H505 0.913 . S
C487 H463 0.950 . S
C487 C486 1.524 . S
C487 C488 1.415 . S
C488 H464 0.950 . S
C488 C483 1.363 . S
C488 C487 1.415 . S
C489 H465 0.951 . S
C489 C490 1.366 . S
C489 C491 1.388 . S
C490 C489 1.366 . S
C490 C494 1.385 . S
C491 H466 0.951 . S
C491 C489 1.388 . S
C491 C492 1.366 . S
C492 C491 1.366 . S
C492 C493 1.414 . S
C492 C495 1.499 . S
C493 H467 0.950 1_554 S
C493 C492 1.414 . S
C493 C494 1.374 . S
C494 H468 0.950 . S
C494 C490 1.385 . S
C494 C493 1.374 . S
C495 C492 1.499 . S
C495 C496 1.373 1_554 S
C495 C497 1.389 . S
C496 H469 0.950 . S
C496 C482 1.377 . S
C496 C495 1.373 1_556 S
C497 C481 1.377 . S
C497 C495 1.389 . S
C497 C498 1.524 . S
C498 C497 1.524 . S
C498 C499 1.397 . S
C498 C503 1.363 . S
C499 H470 0.950 . S
C499 C498 1.397 . S
C499 C500 1.334 . S
C500 H471 0.950 . S
C500 C499 1.334 . S
C500 C501 1.287 . S
C501 C500 1.287 . S
C501 C502 1.524 . S
C501 H504 0.999 . S
C502 H472 0.950 . S
C502 C501 1.524 . S
C502 C503 1.415 . S
C503 H473 0.950 . S
C503 C498 1.363 . S
C503 C502 1.415 . S
H504 C501 0.999 . S
H505 C486 0.913 . S
H506 C524 0.951 . S
H507 C526 0.951 . S
H508 C528 0.950 . S
H509 C529 0.950 . S
H510 C531 0.950 . S
H511 C534 0.950 . S
H512 C535 0.950 . S
H513 C537 0.950 . S
H514 C538 0.950 . S
H515 C539 0.951 . S
H516 C541 0.951 . S
H517 C543 0.950 . S
H518 C544 0.950 . S
H519 C546 0.950 . S
H520 C549 0.950 . S
H521 C550 0.950 . S
H522 C552 0.950 . S
H523 C553 0.950 . S
C524 H506 0.951 . S
C524 C525 1.366 . S
C524 C526 1.388 . S
C525 C524 1.366 . S
C525 C529 1.385 . S
C526 H507 0.951 . S
C526 C524 1.388 . S
C526 C527 1.366 . S
C527 C526 1.366 . S
C527 C528 1.414 . S
C527 C530 1.499 . S
C528 H508 0.950 . S
C528 C527 1.414 . S
C528 C529 1.374 . S
C529 H509 0.950 . S
C529 C525 1.385 . S
C529 C528 1.374 . S
C530 C527 1.499 . S
C530 C531 1.373 . S
C530 C532 1.389 . S
C531 H510 0.950 . S
C531 C530 1.373 . S
C531 C547 1.377 . S
C532 C530 1.389 . S
C532 C533 1.524 . S
C532 C546 1.377 . S
C533 C532 1.524 . S
C533 C534 1.397 . S
C533 C538 1.363 . S
C534 H511 0.950 . S
C534 C533 1.397 . S
C534 C535 1.334 . S
C535 H512 0.950 . S
C535 C534 1.334 . S
C535 C536 1.287 . S
C536 C535 1.287 . S
C536 C537 1.524 . S
C536 H555 0.913 . S
C537 H513 0.950 . S
C537 C536 1.524 . S
C537 C538 1.415 . S
C538 H514 0.950 . S
C538 C533 1.363 . S
C538 C537 1.415 . S
C539 H515 0.951 . S
C539 C540 1.366 . S
C539 C541 1.388 . S
C540 C539 1.366 . S
C540 C544 1.385 . S
C541 H516 0.951 . S
C541 C539 1.388 . S
C541 C542 1.366 . S
C542 C541 1.366 . S
C542 C543 1.414 . S
C542 C545 1.499 . S
C543 H517 0.950 . S
C543 C542 1.414 . S
C543 C544 1.374 . S
C544 H518 0.950 . S
C544 C540 1.385 . S
C544 C543 1.374 . S
C545 C542 1.499 . S
C545 C546 1.373 . S
C545 C547 1.389 . S
C546 H519 0.950 . S
C546 C532 1.377 . S
C546 C545 1.373 . S
C547 C531 1.377 . S
C547 C545 1.389 . S
C547 C548 1.524 . S
C548 C547 1.524 . S
C548 C549 1.397 . S
C548 C553 1.363 . S
C549 H520 0.950 . S
C549 C548 1.397 . S
C549 C550 1.334 . S
C550 H521 0.950 . S
C550 C549 1.334 . S
C550 C551 1.287 . S
C551 C550 1.287 . S
C551 C552 1.524 . S
C551 H554 0.999 . S
C552 H522 0.950 . S
C552 C551 1.524 . S
C552 C553 1.415 . S
C553 H523 0.950 . S
C553 C548 1.363 . S
C553 C552 1.415 . S
H554 C551 0.999 . S
H555 C536 0.913 . S
H556 C574 0.951 . S
H557 C576 0.951 . S
H558 C578 0.950 . S
H559 C579 0.950 . S
H560 C581 0.950 . S
H561 C584 0.950 . S
H562 C585 0.950 . S
H563 C587 0.950 . S
H564 C588 0.950 . S
H565 C589 0.951 . S
H566 C591 0.951 . S
H567 C593 0.950 . S
H568 C594 0.950 . S
H569 C596 0.950 . S
H570 C599 0.950 . S
H571 C600 0.950 . S
H572 C602 0.950 . S
H573 C603 0.950 . S
C574 H556 0.951 . S
C574 C575 1.366 . S
C574 C576 1.388 . S
C575 C574 1.366 . S
C575 C579 1.385 . S
C576 H557 0.951 . S
C576 C574 1.388 . S
C576 C577 1.366 . S
C577 C576 1.366 . S
C577 C578 1.414 . S
C577 C580 1.499 . S
C578 H558 0.950 . S
C578 C577 1.414 . S
C578 C579 1.374 . S
C579 H559 0.950 . S
C579 C575 1.385 . S
C579 C578 1.374 . S
C580 C577 1.499 . S
C580 C581 1.373 . S
C580 C582 1.389 . S
C581 H560 0.950 . S
C581 C580 1.373 . S
C581 C597 1.377 . S
C582 C580 1.389 . S
C582 C583 1.524 . S
C582 C596 1.377 . S
C583 C582 1.524 . S
C583 C584 1.397 . S
C583 C588 1.363 . S
C584 H561 0.950 . S
C584 C583 1.397 . S
C584 C585 1.334 . S
C585 H562 0.950 . S
C585 C584 1.334 . S
C585 C586 1.287 . S
C586 C585 1.287 . S
C586 C587 1.524 . S
C586 H605 0.913 . S
C587 H563 0.950 . S
C587 C586 1.524 . S
C587 C588 1.415 . S
C588 H564 0.950 . S
C588 C583 1.363 . S
C588 C587 1.415 . S
C589 H565 0.951 . S
C589 C590 1.366 . S
C589 C591 1.388 . S
C590 C589 1.366 . S
C590 C594 1.385 . S
C591 H566 0.951 . S
C591 C589 1.388 . S
C591 C592 1.366 . S
C592 C591 1.366 . S
C592 C593 1.414 . S
C592 C595 1.499 . S
C593 H567 0.950 . S
C593 C592 1.414 . S
C593 C594 1.374 . S
C594 H568 0.950 . S
C594 C590 1.385 . S
C594 C593 1.374 . S
C595 C592 1.499 . S
C595 C596 1.373 . S
C595 C597 1.389 . S
C596 H569 0.950 . S
C596 C582 1.377 . S
C596 C595 1.373 . S
C597 C581 1.377 . S
C597 C595 1.389 . S
C597 C598 1.524 . S
C598 C597 1.524 . S
C598 C599 1.397 . S
C598 C603 1.363 . S
C599 H570 0.950 . S
C599 C598 1.397 . S
C599 C600 1.334 . S
C600 H571 0.950 . S
C600 C599 1.334 . S
C600 C601 1.287 . S
C601 C600 1.287 . S
C601 C602 1.524 . S
C601 H604 0.999 . S
C602 H572 0.950 . S
C602 C601 1.524 . S
C602 C603 1.415 . S
C603 H573 0.950 . S
C603 C598 1.363 . S
C603 C602 1.415 . S
H604 C601 0.999 . S
H605 C586 0.913 . S
H606 C624 0.951 . S
H607 C626 0.951 . S
H608 C628 0.950 . S
H609 C629 0.950 . S
H610 C631 0.950 . S
H611 C634 0.950 . S
H612 C635 0.950 . S
H613 C637 0.950 . S
H614 C638 0.950 . S
H615 C639 0.951 . S
H616 C641 0.951 . S
H617 C643 0.950 . S
H618 C644 0.950 . S
H619 C646 0.950 . S
H620 C649 0.950 . S
H621 C650 0.950 . S
H622 C652 0.950 . S
H623 C653 0.950 . S
C624 H606 0.951 . S
C624 C625 1.366 . S
C624 C626 1.388 . S
C625 C624 1.366 . S
C625 C629 1.385 . S
C626 H607 0.951 . S
C626 C624 1.388 . S
C626 C627 1.366 . S
C627 C626 1.366 . S
C627 C628 1.414 . S
C627 C630 1.499 . S
C628 H608 0.950 . S
C628 C627 1.414 . S
C628 C629 1.374 . S
C629 H609 0.950 . S
C629 C625 1.385 . S
C629 C628 1.374 . S
C630 C627 1.499 . S
C630 C631 1.373 . S
C630 C632 1.389 1_556 S
C631 H610 0.950 . S
C631 C630 1.373 . S
C631 C647 1.377 . S
C632 C630 1.389 1_554 S
C632 C633 1.524 . S
C632 C646 1.377 . S
C633 C632 1.524 . S
C633 C634 1.397 . S
C633 C638 1.363 . S
C634 H611 0.950 . S
C634 C633 1.397 . S
C634 C635 1.334 . S
C635 H612 0.950 . S
C635 C634 1.334 . S
C635 C636 1.287 . S
C636 C635 1.287 . S
C636 C637 1.524 . S
C636 H655 0.913 . S
C637 H613 0.950 . S
C637 C636 1.524 . S
C637 C638 1.415 . S
C638 H614 0.950 . S
C638 C633 1.363 . S
C638 C637 1.415 . S
C639 H615 0.951 . S
C639 C640 1.366 . S
C639 C641 1.388 . S
C640 C639 1.366 . S
C640 C644 1.385 . S
C641 H616 0.951 . S
C641 C639 1.388 . S
C641 C642 1.366 . S
C642 C641 1.366 . S
C642 C643 1.414 . S
C642 C645 1.499 . S
C643 H617 0.950 . S
C643 C642 1.414 . S
C643 C644 1.374 . S
C644 H618 0.950 . S
C644 C640 1.385 . S
C644 C643 1.374 . S
C645 C642 1.499 . S
C645 C646 1.373 . S
C645 C647 1.389 1_554 S
C646 H619 0.950 . S
C646 C632 1.377 . S
C646 C645 1.373 . S
C647 C631 1.377 . S
C647 C645 1.389 1_556 S
C647 C648 1.524 . S
C648 C647 1.524 . S
C648 C649 1.397 . S
C648 C653 1.363 . S
C649 H620 0.950 . S
C649 C648 1.397 . S
C649 C650 1.334 . S
C650 H621 0.950 . S
C650 C649 1.334 . S
C650 C651 1.287 . S
C651 C650 1.287 . S
C651 C652 1.524 . S
C651 H654 0.999 . S
C652 H622 0.950 . S
C652 C651 1.524 . S
C652 C653 1.415 . S
C653 H623 0.950 . S
C653 C648 1.363 . S
C653 C652 1.415 . S
H654 C651 0.999 . S
H655 C636 0.913 . S
H656 C674 0.951 . S
H657 C676 0.951 . S
H658 C678 0.950 . S
H659 C679 0.950 . S
H660 C681 0.950 . S
H661 C684 0.950 . S
H662 C685 0.950 . S
H663 C687 0.950 . S
H664 C688 0.950 . S
H665 C689 0.951 . S
H666 C691 0.951 . S
H667 C693 0.950 . S
H668 C694 0.950 . S
H669 C696 0.950 . S
H670 C699 0.950 . S
H671 C700 0.950 . S
H672 C702 0.950 . S
H673 C703 0.950 . S
C674 H656 0.951 . S
C674 C675 1.366 . S
C674 C676 1.388 . S
C675 C674 1.366 . S
C675 C679 1.385 . S
C676 H657 0.951 . S
C676 C674 1.388 . S
C676 C677 1.366 . S
C677 C676 1.366 . S
C677 C678 1.414 . S
C677 C680 1.499 . S
C678 H658 0.950 . S
C678 C677 1.414 . S
C678 C679 1.374 . S
C679 H659 0.950 . S
C679 C675 1.385 . S
C679 C678 1.374 . S
C680 C677 1.499 . S
C680 C681 1.373 . S
C680 C682 1.389 . S
C681 H660 0.950 . S
C681 C680 1.373 . S
C681 C697 1.377 . S
C682 C680 1.389 . S
C682 C683 1.524 . S
C682 C696 1.377 . S
C683 C682 1.524 . S
C683 C684 1.397 . S
C683 C688 1.363 . S
C684 H661 0.950 . S
C684 C683 1.397 . S
C684 C685 1.334 . S
C685 H662 0.950 . S
C685 C684 1.334 . S
C685 C686 1.287 . S
C686 C685 1.287 . S
C686 C687 1.524 . S
C686 H705 0.913 . S
C687 H663 0.950 . S
C687 C686 1.524 . S
C687 C688 1.415 . S
C688 H664 0.950 . S
C688 C683 1.363 . S
C688 C687 1.415 . S
C689 H665 0.951 . S
C689 C690 1.366 . S
C689 C691 1.388 . S
C690 C689 1.366 . S
C690 C694 1.385 . S
C691 H666 0.951 . S
C691 C689 1.388 . S
C691 C692 1.366 . S
C692 C691 1.366 . S
C692 C693 1.414 . S
C692 C695 1.499 . S
C693 H667 0.950 . S
C693 C692 1.414 . S
C693 C694 1.374 . S
C694 H668 0.950 . S
C694 C690 1.385 . S
C694 C693 1.374 . S
C695 C692 1.499 . S
C695 C696 1.373 . S
C695 C697 1.389 . S
C696 H669 0.950 . S
C696 C682 1.377 . S
C696 C695 1.373 . S
C697 C681 1.377 . S
C697 C695 1.389 . S
C697 C698 1.524 . S
C698 C697 1.524 . S
C698 C699 1.397 . S
C698 C703 1.363 . S
C699 H670 0.950 . S
C699 C698 1.397 . S
C699 C700 1.334 . S
C700 H671 0.950 . S
C700 C699 1.334 . S
C700 C701 1.287 . S
C701 C700 1.287 . S
C701 C702 1.524 . S
C701 H704 0.999 . S
C702 H672 0.950 . S
C702 C701 1.524 . S
C702 C703 1.415 . S
C703 H673 0.950 . S
C703 C698 1.363 . S
C703 C702 1.415 . S
H704 C701 0.999 . S
H705 C686 0.913 . S
H706 C724 0.951 . S
H707 C726 0.951 . S
H708 C728 0.950 . S
H709 C729 0.950 . S
H710 C731 0.950 . S
H711 C734 0.950 . S
H712 C735 0.950 . S
H713 C737 0.950 . S
H714 C738 0.950 . S
H715 C739 0.951 . S
H716 C741 0.951 . S
H717 C743 0.950 . S
H718 C744 0.950 . S
H719 C746 0.950 . S
H720 C749 0.950 . S
H721 C750 0.950 . S
H722 C752 0.950 . S
H723 C753 0.950 . S
C724 H706 0.951 . S
C724 C725 1.366 . S
C724 C726 1.388 . S
C725 C724 1.366 . S
C725 C729 1.385 . S
C726 H707 0.951 . S
C726 C724 1.388 . S
C726 C727 1.366 . S
C727 C726 1.366 . S
C727 C728 1.414 . S
C727 C730 1.499 . S
C728 H708 0.950 . S
C728 C727 1.414 . S
C728 C729 1.374 . S
C729 H709 0.950 . S
C729 C725 1.385 . S
C729 C728 1.374 . S
C730 C727 1.499 . S
C730 C731 1.373 . S
C730 C732 1.389 . S
C731 H710 0.950 . S
C731 C730 1.373 . S
C731 C747 1.377 . S
C732 C730 1.389 . S
C732 C733 1.524 . S
C732 C746 1.377 . S
C733 C732 1.524 . S
C733 C734 1.397 . S
C733 C738 1.363 . S
C734 H711 0.950 . S
C734 C733 1.397 . S
C734 C735 1.334 . S
C735 H712 0.950 . S
C735 C734 1.334 . S
C735 C736 1.287 . S
C736 C735 1.287 . S
C736 C737 1.524 . S
C736 H755 0.913 . S
C737 H713 0.950 . S
C737 C736 1.524 . S
C737 C738 1.415 . S
C738 H714 0.950 . S
C738 C733 1.363 . S
C738 C737 1.415 . S
C739 H715 0.951 . S
C739 C740 1.366 . S
C739 C741 1.388 . S
C740 C739 1.366 . S
C740 C744 1.385 . S
C741 H716 0.951 . S
C741 C739 1.388 . S
C741 C742 1.366 . S
C742 C741 1.366 . S
C742 C743 1.414 . S
C742 C745 1.499 . S
C743 H717 0.950 . S
C743 C742 1.414 . S
C743 C744 1.374 . S
C744 H718 0.950 . S
C744 C740 1.385 . S
C744 C743 1.374 . S
C745 C742 1.499 . S
C745 C746 1.373 . S
C745 C747 1.389 . S
C746 H719 0.950 . S
C746 C732 1.377 . S
C746 C745 1.373 . S
C747 C731 1.377 . S
C747 C745 1.389 . S
C747 C748 1.524 . S
C748 C747 1.524 . S
C748 C749 1.397 . S
C748 C753 1.363 . S
C749 H720 0.950 . S
C749 C748 1.397 . S
C749 C750 1.334 . S
C750 H721 0.950 . S
C750 C749 1.334 . S
C750 C751 1.287 . S
C751 C750 1.287 . S
C751 C752 1.524 . S
C751 H754 0.999 . S
C752 H722 0.950 . S
C752 C751 1.524 . S
C752 C753 1.415 . S
C753 H723 0.950 . S
C753 C748 1.363 . S
C753 C752 1.415 . S
H754 C751 0.999 . S
H755 C736 0.913 . S
H756 C774 0.951 . S
H757 C776 0.951 . S
H758 C778 0.950 . S
H759 C779 0.950 . S
H760 C781 0.950 . S
H761 C784 0.950 . S
H762 C785 0.950 . S
H763 C787 0.950 . S
H764 C788 0.950 . S
H765 C789 0.951 . S
H766 C791 0.951 . S
H767 C793 0.950 . S
H768 C794 0.950 . S
H769 C796 0.950 . S
H770 C799 0.950 . S
H771 C800 0.950 . S
H772 C802 0.950 . S
H773 C803 0.950 . S
C774 H756 0.951 . S
C774 C775 1.366 . S
C774 C776 1.388 . S
C775 C774 1.366 . S
C775 C779 1.385 . S
C776 H757 0.951 . S
C776 C774 1.388 . S
C776 C777 1.366 . S
C777 C776 1.366 . S
C777 C778 1.414 . S
C777 C780 1.499 . S
C778 H758 0.950 . S
C778 C777 1.414 . S
C778 C779 1.374 . S
C779 H759 0.950 . S
C779 C775 1.385 . S
C779 C778 1.374 . S
C780 C777 1.499 . S
C780 C781 1.373 . S
C780 C782 1.389 . S
C781 H760 0.950 . S
C781 C780 1.373 . S
C781 C797 1.377 . S
C782 C780 1.389 . S
C782 C783 1.524 . S
C782 C796 1.377 . S
C783 C782 1.524 . S
C783 C784 1.397 . S
C783 C788 1.363 . S
C784 H761 0.950 . S
C784 C783 1.397 . S
C784 C785 1.334 . S
C785 H762 0.950 . S
C785 C784 1.334 . S
C785 C786 1.287 . S
C786 C785 1.287 . S
C786 C787 1.524 . S
C786 H805 0.913 . S
C787 H763 0.950 . S
C787 C786 1.524 . S
C787 C788 1.415 . S
C788 H764 0.950 . S
C788 C783 1.363 . S
C788 C787 1.415 . S
C789 H765 0.951 . S
C789 C790 1.366 . S
C789 C791 1.388 . S
C790 C789 1.366 . S
C790 C794 1.385 . S
C791 H766 0.951 . S
C791 C789 1.388 . S
C791 C792 1.366 . S
C792 C791 1.366 . S
C792 C793 1.414 . S
C792 C795 1.499 . S
C793 H767 0.950 . S
C793 C792 1.414 . S
C793 C794 1.374 . S
C794 H768 0.950 . S
C794 C790 1.385 . S
C794 C793 1.374 . S
C795 C792 1.499 . S
C795 C796 1.373 . S
C795 C797 1.389 . S
C796 H769 0.950 . S
C796 C782 1.377 . S
C796 C795 1.373 . S
C797 C781 1.377 . S
C797 C795 1.389 . S
C797 C798 1.524 . S
C798 C797 1.524 . S
C798 C799 1.397 . S
C798 C803 1.363 . S
C799 H770 0.950 . S
C799 C798 1.397 . S
C799 C800 1.334 . S
C800 H771 0.950 . S
C800 C799 1.334 . S
C800 C801 1.287 . S
C801 C800 1.287 . S
C801 C802 1.524 . S
C801 H804 0.999 . S
C802 H772 0.950 . S
C802 C801 1.524 . S
C802 C803 1.415 . S
C803 H773 0.950 . S
C803 C798 1.363 . S
C803 C802 1.415 . S
H804 C801 0.999 . S
H805 C786 0.913 . S
H806 C824 0.951 . S
H807 C826 0.951 . S
H808 C828 0.950 . S
H809 C829 0.950 . S
H810 C831 0.950 . S
H811 C834 0.950 . S
H812 C835 0.950 . S
H813 C837 0.950 . S
H814 C838 0.950 . S
H815 C839 0.951 . S
H816 C841 0.951 . S
H817 C843 0.950 . S
H818 C844 0.950 . S
H819 C846 0.950 . S
H820 C849 0.950 . S
H821 C850 0.950 . S
H822 C852 0.950 . S
H823 C853 0.950 . S
C824 H806 0.951 . S
C824 C825 1.366 . S
C824 C826 1.388 . S
C825 C824 1.366 . S
C825 C829 1.385 . S
C826 H807 0.951 . S
C826 C824 1.388 . S
C826 C827 1.366 . S
C827 C826 1.366 . S
C827 C828 1.414 . S
C827 C830 1.499 . S
C828 H808 0.950 . S
C828 C827 1.414 . S
C828 C829 1.374 . S
C829 H809 0.950 . S
C829 C825 1.385 . S
C829 C828 1.374 . S
C830 C827 1.499 . S
C830 C831 1.373 . S
C830 C832 1.389 . S
C831 H810 0.950 . S
C831 C830 1.373 . S
C831 C847 1.377 . S
C832 C830 1.389 . S
C832 C833 1.524 . S
C832 C846 1.377 . S
C833 C832 1.524 . S
C833 C834 1.397 . S
C833 C838 1.363 . S
C834 H811 0.950 . S
C834 C833 1.397 . S
C834 C835 1.334 . S
C835 H812 0.950 . S
C835 C834 1.334 . S
C835 C836 1.287 . S
C836 C835 1.287 . S
C836 C837 1.524 . S
C836 H855 0.913 . S
C837 H813 0.950 . S
C837 C836 1.524 . S
C837 C838 1.415 . S
C838 H814 0.950 . S
C838 C833 1.363 . S
C838 C837 1.415 . S
C839 H815 0.951 . S
C839 C840 1.366 . S
C839 C841 1.388 . S
C840 C839 1.366 . S
C840 C844 1.385 . S
C841 H816 0.951 . S
C841 C839 1.388 . S
C841 C842 1.366 . S
C842 C841 1.366 . S
C842 C843 1.414 . S
C842 C845 1.499 . S
C843 H817 0.950 . S
C843 C842 1.414 . S
C843 C844 1.374 . S
C844 H818 0.950 . S
C844 C840 1.385 . S
C844 C843 1.374 . S
C845 C842 1.499 . S
C845 C846 1.373 . S
C845 C847 1.389 . S
C846 H819 0.950 . S
C846 C832 1.377 . S
C846 C845 1.373 . S
C847 C831 1.377 . S
C847 C845 1.389 . S
C847 C848 1.524 . S
C848 C847 1.524 . S
C848 C849 1.397 . S
C848 C853 1.363 . S
C849 H820 0.950 . S
C849 C848 1.397 . S
C849 C850 1.334 . S
C850 H821 0.950 . S
C850 C849 1.334 . S
C850 C851 1.287 . S
C851 C850 1.287 . S
C851 C852 1.524 . S
C851 H854 0.999 . S
C852 H822 0.950 . S
C852 C851 1.524 . S
C852 C853 1.415 . S
C853 H823 0.950 . S
C853 C848 1.363 . S
C853 C852 1.415 . S
H854 C851 0.999 . S
H855 C836 0.913 . S
H856 C874 0.951 . S
H857 C876 0.951 . S
H858 C878 0.950 . S
H859 C879 0.950 . S
H860 C881 0.950 . S
H861 C884 0.950 . S
H862 C885 0.950 . S
H863 C887 0.950 . S
H864 C888 0.950 . S
H865 C889 0.951 . S
H866 C891 0.951 . S
H867 C893 0.950 . S
H868 C894 0.950 . S
H869 C896 0.950 . S
H870 C899 0.950 . S
H871 C900 0.950 . S
H872 C902 0.950 . S
H873 C903 0.950 . S
C874 H856 0.951 . S
C874 C875 1.366 . S
C874 C876 1.388 . S
C875 C874 1.366 . S
C875 C879 1.385 . S
C876 H857 0.951 . S
C876 C874 1.388 . S
C876 C877 1.366 . S
C877 C876 1.366 . S
C877 C878 1.414 . S
C877 C880 1.499 . S
C878 H858 0.950 . S
C878 C877 1.414 . S
C878 C879 1.374 . S
C879 H859 0.950 . S
C879 C875 1.385 . S
C879 C878 1.374 . S
C880 C877 1.499 . S
C880 C881 1.373 . S
C880 C882 1.389 . S
C881 H860 0.950 . S
C881 C880 1.373 . S
C881 C897 1.377 . S
C882 C880 1.389 . S
C882 C883 1.524 . S
C882 C896 1.377 . S
C883 C882 1.524 . S
C883 C884 1.397 . S
C883 C888 1.363 . S
C884 H861 0.950 . S
C884 C883 1.397 . S
C884 C885 1.334 . S
C885 H862 0.950 . S
C885 C884 1.334 . S
C885 C886 1.287 . S
C886 C885 1.287 . S
C886 C887 1.524 . S
C886 H905 0.913 . S
C887 H863 0.950 . S
C887 C886 1.524 . S
C887 C888 1.415 . S
C888 H864 0.950 . S
C888 C883 1.363 . S
C888 C887 1.415 . S
C889 H865 0.951 . S
C889 C890 1.366 . S
C889 C891 1.388 . S
C890 C889 1.366 . S
C890 C894 1.385 . S
C891 H866 0.951 . S
C891 C889 1.388 . S
C891 C892 1.366 . S
C892 C891 1.366 . S
C892 C893 1.414 . S
C892 C895 1.499 . S
C893 H867 0.950 . S
C893 C892 1.414 . S
C893 C894 1.374 . S
C894 H868 0.950 . S
C894 C890 1.385 . S
C894 C893 1.374 . S
C895 C892 1.499 . S
C895 C896 1.373 . S
C895 C897 1.389 . S
C896 H869 0.950 . S
C896 C882 1.377 . S
C896 C895 1.373 . S
C897 C881 1.377 . S
C897 C895 1.389 . S
C897 C898 1.524 . S
C898 C897 1.524 . S
C898 C899 1.397 . S
C898 C903 1.363 . S
C899 H870 0.950 . S
C899 C898 1.397 . S
C899 C900 1.334 . S
C900 H871 0.950 . S
C900 C899 1.334 . S
C900 C901 1.287 . S
C901 C900 1.287 . S
C901 C902 1.524 . S
C901 H904 0.999 . S
C902 H872 0.950 . S
C902 C901 1.524 . S
C902 C903 1.415 . S
C903 H873 0.950 . S
C903 C898 1.363 . S
C903 C902 1.415 . S
H904 C901 0.999 . S
H905 C886 0.913 . S
H906 C924 0.951 . S
H907 C926 0.951 . S
H908 C928 0.950 . S
H909 C929 0.950 . S
H910 C931 0.950 . S
H911 C934 0.950 . S
H912 C935 0.950 . S
H913 C937 0.950 . S
H914 C938 0.950 . S
H915 C939 0.951 . S
H916 C941 0.951 . S
H917 C943 0.950 . S
H918 C944 0.950 . S
H919 C946 0.950 . S
H920 C949 0.950 . S
H921 C950 0.950 . S
H922 C952 0.950 . S
H923 C953 0.950 . S
C924 H906 0.951 . S
C924 C925 1.366 . S
C924 C926 1.388 . S
C925 C924 1.366 . S
C925 C929 1.385 . S
C926 H907 0.951 . S
C926 C924 1.388 . S
C926 C927 1.366 . S
C927 C926 1.366 . S
C927 C928 1.414 . S
C927 C930 1.499 . S
C928 H908 0.950 . S
C928 C927 1.414 . S
C928 C929 1.374 . S
C929 H909 0.950 . S
C929 C925 1.385 . S
C929 C928 1.374 . S
C930 C927 1.499 . S
C930 C931 1.373 . S
C930 C932 1.389 . S
C931 H910 0.950 . S
C931 C930 1.373 . S
C931 C947 1.377 . S
C932 C930 1.389 . S
C932 C933 1.524 . S
C932 C946 1.377 . S
C933 C932 1.524 . S
C933 C934 1.397 . S
C933 C938 1.363 . S
C934 H911 0.950 . S
C934 C933 1.397 . S
C934 C935 1.334 . S
C935 H912 0.950 . S
C935 C934 1.334 . S
C935 C936 1.287 . S
C936 C935 1.287 . S
C936 C937 1.524 . S
C936 H955 0.913 . S
C937 H913 0.950 . S
C937 C936 1.524 . S
C937 C938 1.415 . S
C938 H914 0.950 . S
C938 C933 1.363 . S
C938 C937 1.415 . S
C939 H915 0.951 . S
C939 C940 1.366 . S
C939 C941 1.388 . S
C940 C939 1.366 . S
C940 C944 1.385 . S
C941 H916 0.951 . S
C941 C939 1.388 . S
C941 C942 1.366 . S
C942 C941 1.366 . S
C942 C943 1.414 . S
C942 C945 1.499 . S
C943 H917 0.950 . S
C943 C942 1.414 . S
C943 C944 1.374 . S
C944 H918 0.950 . S
C944 C940 1.385 . S
C944 C943 1.374 . S
C945 C942 1.499 . S
C945 C946 1.373 . S
C945 C947 1.389 . S
C946 H919 0.950 . S
C946 C932 1.377 . S
C946 C945 1.373 . S
C947 C931 1.377 . S
C947 C945 1.389 . S
C947 C948 1.524 . S
C948 C947 1.524 . S
C948 C949 1.397 . S
C948 C953 1.363 . S
C949 H920 0.950 . S
C949 C948 1.397 . S
C949 C950 1.334 . S
C950 H921 0.950 . S
C950 C949 1.334 . S
C950 C951 1.287 . S
C951 C950 1.287 . S
C951 C952 1.524 . S
C951 H954 0.999 . S
C952 H922 0.950 . S
C952 C951 1.524 . S
C952 C953 1.415 . S
C953 H923 0.950 . S
C953 C948 1.363 . S
C953 C952 1.415 . S
H954 C951 0.999 . S
H955 C936 0.913 . S
H956 C974 0.951 . S
H957 C976 0.951 . S
H958 C978 0.950 . S
H959 C979 0.950 . S
H960 C981 0.950 . S
H961 C984 0.950 . S
H962 C985 0.950 . S
H963 C987 0.950 . S
H964 C988 0.950 . S
H965 C989 0.951 . S
H966 C991 0.951 . S
H967 C993 0.950 . S
H968 C994 0.950 . S
H969 C996 0.950 . S
H970 C999 0.950 . S
H971 C1000 0.950 . S
H972 C1002 0.950 . S
H973 C1003 0.950 . S
C974 H956 0.951 . S
C974 C975 1.366 . S
C974 C976 1.388 . S
C975 C974 1.366 . S
C975 C979 1.385 . S
C976 H957 0.951 . S
C976 C974 1.388 . S
C976 C977 1.366 . S
C977 C976 1.366 . S
C977 C978 1.414 . S
C977 C980 1.499 . S
C978 H958 0.950 . S
C978 C977 1.414 . S
C978 C979 1.374 . S
C979 H959 0.950 . S
C979 C975 1.385 . S
C979 C978 1.374 . S
C980 C977 1.499 . S
C980 C981 1.373 . S
C980 C982 1.389 . S
C981 H960 0.950 . S
C981 C980 1.373 . S
C981 C997 1.377 . S
C982 C980 1.389 . S
C982 C983 1.524 . S
C982 C996 1.377 . S
C983 C982 1.524 . S
C983 C984 1.397 . S
C983 C988 1.363 . S
C984 H961 0.950 . S
C984 C983 1.397 . S
C984 C985 1.334 . S
C985 H962 0.950 . S
C985 C984 1.334 . S
C985 C986 1.287 . S
C986 C985 1.287 . S
C986 C987 1.524 . S
C986 H1005 0.913 . S
C987 H963 0.950 . S
C987 C986 1.524 . S
C987 C988 1.415 . S
C988 H964 0.950 . S
C988 C983 1.363 . S
C988 C987 1.415 . S
C989 H965 0.951 . S
C989 C990 1.366 . S
C989 C991 1.388 . S
C990 C989 1.366 . S
C990 C994 1.385 . S
C991 H966 0.951 . S
C991 C989 1.388 . S
C991 C992 1.366 . S
C992 C991 1.366 . S
C992 C993 1.414 . S
C992 C995 1.499 . S
C993 H967 0.950 . S
C993 C992 1.414 . S
C993 C994 1.374 . S
C994 H968 0.950 . S
C994 C990 1.385 . S
C994 C993 1.374 . S
C995 C992 1.499 . S
C995 C996 1.373 . S
C995 C997 1.389 . S
C996 H969 0.950 . S
C996 C982 1.377 . S
C996 C995 1.373 . S
C997 C981 1.377 . S
C997 C995 1.389 . S
C997 C998 1.524 . S
C998 C997 1.524 . S
C998 C999 1.397 . S
C998 C1003 1.363 . S
C999 H970 0.950 . S
C999 C998 1.397 . S
C999 C1000 1.334 . S
C1000 H971 0.950 . S
C1000 C999 1.334 . S
C1000 C1001 1.287 . S
C1001 C1000 1.287 . S
C1001 C1002 1.524 . S
C1001 H1004 0.999 . S
C1002 H972 0.950 . S
C1002 C1001 1.524 . S
C1002 C1003 1.415 . S
C1003 H973 0.950 . S
C1003 C998 1.363 . S
C1003 C1002 1.415 . S
H1004 C1001 0.999 . S
H1005 C986 0.913 . S
H1006 C1024 0.951 . S
H1007 C1026 0.951 . S
H1008 C1028 0.950 . S
H1009 C1029 0.950 . S
H1010 C1031 0.950 . S
H1011 C1034 0.950 . S
H1012 C1035 0.950 . S
H1013 C1037 0.950 . S
H1014 C1038 0.950 . S
H1015 C1039 0.951 . S
H1016 C1041 0.951 . S
H1017 C1043 0.950 . S
H1018 C1044 0.950 . S
H1019 C1046 0.950 . S
H1020 C1049 0.950 . S
H1021 C1050 0.950 . S
H1022 C1052 0.950 . S
H1023 C1053 0.950 . S
C1024 H1006 0.951 . S
C1024 C1025 1.366 . S
C1024 C1026 1.388 . S
C1025 C1024 1.366 . S
C1025 C1029 1.385 . S
C1026 H1007 0.951 . S
C1026 C1024 1.388 . S
C1026 C1027 1.366 . S
C1027 C1026 1.366 . S
C1027 C1028 1.414 . S
C1027 C1030 1.499 . S
C1028 H1008 0.950 . S
C1028 C1027 1.414 . S
C1028 C1029 1.374 . S
C1029 H1009 0.950 . S
C1029 C1025 1.385 . S
C1029 C1028 1.374 . S
C1030 C1027 1.499 . S
C1030 C1031 1.373 . S
C1030 C1032 1.389 . S
C1031 H1010 0.950 . S
C1031 C1030 1.373 . S
C1031 C1047 1.377 . S
C1032 C1030 1.389 . S
C1032 C1033 1.524 . S
C1032 C1046 1.377 . S
C1033 C1032 1.524 . S
C1033 C1034 1.397 . S
C1033 C1038 1.363 . S
C1034 H1011 0.950 . S
C1034 C1033 1.397 . S
C1034 C1035 1.334 . S
C1035 H1012 0.950 . S
C1035 C1034 1.334 . S
C1035 C1036 1.287 . S
C1036 C1035 1.287 . S
C1036 C1037 1.524 . S
C1036 H1055 0.913 . S
C1037 H1013 0.950 . S
C1037 C1036 1.524 . S
C1037 C1038 1.415 . S
C1038 H1014 0.950 . S
C1038 C1033 1.363 . S
C1038 C1037 1.415 . S
C1039 H1015 0.951 . S
C1039 C1040 1.366 . S
C1039 C1041 1.388 . S
C1040 C1039 1.366 . S
C1040 C1044 1.385 . S
C1041 H1016 0.951 . S
C1041 C1039 1.388 . S
C1041 C1042 1.366 . S
C1042 C1041 1.366 . S
C1042 C1043 1.414 . S
C1042 C1045 1.499 . S
C1043 H1017 0.950 . S
C1043 C1042 1.414 . S
C1043 C1044 1.374 . S
C1044 H1018 0.950 . S
C1044 C1040 1.385 . S
C1044 C1043 1.374 . S
C1045 C1042 1.499 . S
C1045 C1046 1.373 . S
C1045 C1047 1.389 . S
C1046 H1019 0.950 . S
C1046 C1032 1.377 . S
C1046 C1045 1.373 . S
C1047 C1031 1.377 . S
C1047 C1045 1.389 . S
C1047 C1048 1.524 . S
C1048 C1047 1.524 . S
C1048 C1049 1.397 . S
C1048 C1053 1.363 . S
C1049 H1020 0.950 . S
C1049 C1048 1.397 . S
C1049 C1050 1.334 . S
C1050 H1021 0.950 . S
C1050 C1049 1.334 . S
C1050 C1051 1.287 . S
C1051 C1050 1.287 . S
C1051 C1052 1.524 . S
C1051 H1054 0.999 . S
C1052 H1022 0.950 . S
C1052 C1051 1.524 . S
C1052 C1053 1.415 . S
C1053 H1023 0.950 . S
C1053 C1048 1.363 . S
C1053 C1052 1.415 . S
H1054 C1051 0.999 . S
H1055 C1036 0.913 . S
H1056 C1074 0.951 . S
H1057 C1076 0.951 . S
H1058 C1078 0.950 . S
H1059 C1079 0.950 . S
H1060 C1081 0.950 . S
H1061 C1084 0.950 . S
H1062 C1085 0.950 . S
H1063 C1087 0.950 . S
H1064 C1088 0.950 . S
H1065 C1089 0.951 . S
H1066 C1091 0.951 . S
H1067 C1093 0.950 . S
H1068 C1094 0.950 . S
H1069 C1096 0.950 . S
H1070 C1099 0.950 . S
H1071 C1100 0.950 . S
H1072 C1102 0.950 . S
H1073 C1103 0.950 . S
C1074 H1056 0.951 . S
C1074 C1075 1.366 . S
C1074 C1076 1.388 . S
C1075 C1074 1.366 . S
C1075 C1079 1.385 . S
C1076 H1057 0.951 . S
C1076 C1074 1.388 . S
C1076 C1077 1.366 . S
C1077 C1076 1.366 . S
C1077 C1078 1.414 . S
C1077 C1080 1.499 . S
C1078 H1058 0.950 . S
C1078 C1077 1.414 . S
C1078 C1079 1.374 . S
C1079 H1059 0.950 . S
C1079 C1075 1.385 . S
C1079 C1078 1.374 . S
C1080 C1077 1.499 . S
C1080 C1081 1.373 . S
C1080 C1082 1.389 . S
C1081 H1060 0.950 . S
C1081 C1080 1.373 . S
C1081 C1097 1.377 . S
C1082 C1080 1.389 . S
C1082 C1083 1.524 . S
C1082 C1096 1.377 . S
C1083 C1082 1.524 . S
C1083 C1084 1.397 . S
C1083 C1088 1.363 . S
C1084 H1061 0.950 . S
C1084 C1083 1.397 . S
C1084 C1085 1.334 . S
C1085 H1062 0.950 . S
C1085 C1084 1.334 . S
C1085 C1086 1.287 . S
C1086 C1085 1.287 . S
C1086 C1087 1.524 . S
C1086 H1105 0.913 . S
C1087 H1063 0.950 . S
C1087 C1086 1.524 . S
C1087 C1088 1.415 . S
C1088 H1064 0.950 . S
C1088 C1083 1.363 . S
C1088 C1087 1.415 . S
C1089 H1065 0.951 . S
C1089 C1090 1.366 . S
C1089 C1091 1.388 . S
C1090 C1089 1.366 . S
C1090 C1094 1.385 . S
C1091 H1066 0.951 . S
C1091 C1089 1.388 . S
C1091 C1092 1.366 . S
C1092 C1091 1.366 . S
C1092 C1093 1.414 . S
C1092 C1095 1.499 . S
C1093 H1067 0.950 . S
C1093 C1092 1.414 . S
C1093 C1094 1.374 . S
C1094 H1068 0.950 . S
C1094 C1090 1.385 . S
C1094 C1093 1.374 . S
C1095 C1092 1.499 . S
C1095 C1096 1.373 . S
C1095 C1097 1.389 . S
C1096 H1069 0.950 . S
C1096 C1082 1.377 . S
C1096 C1095 1.373 . S
C1097 C1081 1.377 . S
C1097 C1095 1.389 . S
C1097 C1098 1.524 . S
C1098 C1097 1.524 . S
C1098 C1099 1.397 . S
C1098 C1103 1.363 . S
C1099 H1070 0.950 . S
C1099 C1098 1.397 . S
C1099 C1100 1.334 . S
C1100 H1071 0.950 . S
C1100 C1099 1.334 . S
C1100 C1101 1.287 . S
C1101 C1100 1.287 . S
C1101 C1102 1.524 . S
C1101 H1104 0.999 . S
C1102 H1072 0.950 . S
C1102 C1101 1.524 . S
C1102 C1103 1.415 . S
C1103 H1073 0.950 . S
C1103 C1098 1.363 . S
C1103 C1102 1.415 . S
H1104 C1101 0.999 . S
H1105 C1086 0.913 . S
H1106 C1124 0.951 . S
H1107 C1126 0.951 . S
H1108 C1128 0.950 . S
H1109 C1129 0.950 . S
H1110 C1131 0.950 . S
H1111 C1134 0.950 . S
H1112 C1135 0.950 . S
H1113 C1137 0.950 . S
H1114 C1138 0.950 . S
H1115 C1139 0.951 . S
H1116 C1141 0.951 . S
H1117 C1143 0.950 . S
H1118 C1144 0.950 . S
H1119 C1146 0.950 . S
H1120 C1149 0.950 . S
H1121 C1150 0.950 . S
H1122 C1152 0.950 . S
H1123 C1153 0.950 . S
C1124 H1106 0.951 . S
C1124 C1125 1.366 . S
C1124 C1126 1.388 . S
C1125 C1124 1.366 . S
C1125 C1129 1.385 . S
C1126 H1107 0.951 . S
C1126 C1124 1.388 . S
C1126 C1127 1.366 . S
C1127 C1126 1.366 . S
C1127 C1128 1.414 . S
C1127 C1130 1.499 . S
C1128 H1108 0.950 . S
C1128 C1127 1.414 . S
C1128 C1129 1.374 . S
C1129 H1109 0.950 . S
C1129 C1125 1.385 . S
C1129 C1128 1.374 . S
C1130 C1127 1.499 . S
C1130 C1131 1.373 . S
C1130 C1132 1.389 1_655 S
C1131 H1110 0.950 . S
C1131 C1130 1.373 . S
C1131 C1147 1.377 . S
C1132 C1130 1.389 1_455 S
C1132 C1133 1.524 . S
C1132 C1146 1.377 . S
C1133 C1132 1.524 . S
C1133 C1134 1.397 . S
C1133 C1138 1.363 . S
C1134 H1111 0.950 . S
C1134 C1133 1.397 . S
C1134 C1135 1.334 . S
C1135 H1112 0.950 . S
C1135 C1134 1.334 . S
C1135 C1136 1.287 . S
C1136 C1135 1.287 . S
C1136 C1137 1.524 . S
C1136 H1155 0.913 . S
C1137 H1113 0.950 . S
C1137 C1136 1.524 . S
C1137 C1138 1.415 . S
C1138 H1114 0.950 . S
C1138 C1133 1.363 . S
C1138 C1137 1.415 . S
C1139 H1115 0.951 . S
C1139 C1140 1.366 . S
C1139 C1141 1.388 . S
C1140 C1139 1.366 . S
C1140 C1144 1.385 . S
C1141 H1116 0.951 . S
C1141 C1139 1.388 . S
C1141 C1142 1.366 . S
C1142 C1141 1.366 . S
C1142 C1143 1.414 . S
C1142 C1145 1.499 . S
C1143 H1117 0.950 . S
C1143 C1142 1.414 . S
C1143 C1144 1.374 . S
C1144 H1118 0.950 . S
C1144 C1140 1.385 . S
C1144 C1143 1.374 . S
C1145 C1142 1.499 . S
C1145 C1146 1.373 . S
C1145 C1147 1.389 1_455 S
C1146 H1119 0.950 . S
C1146 C1132 1.377 . S
C1146 C1145 1.373 . S
C1147 C1131 1.377 . S
C1147 C1145 1.389 1_655 S
C1147 C1148 1.524 . S
C1148 C1147 1.524 . S
C1148 C1149 1.397 . S
C1148 C1153 1.363 . S
C1149 H1120 0.950 . S
C1149 C1148 1.397 . S
C1149 C1150 1.334 . S
C1150 H1121 0.950 . S
C1150 C1149 1.334 . S
C1150 C1151 1.287 . S
C1151 C1150 1.287 . S
C1151 C1152 1.524 . S
C1151 H1154 0.999 . S
C1152 H1122 0.950 . S
C1152 C1151 1.524 . S
C1152 C1153 1.415 . S
C1153 H1123 0.950 . S
C1153 C1148 1.363 . S
C1153 C1152 1.415 . S
H1154 C1151 0.999 . S
H1155 C1136 0.913 . S
H1156 C1174 0.951 . S
H1157 C1176 0.951 . S
H1158 C1178 0.950 . S
H1159 C1179 0.950 . S
H1160 C1181 0.950 . S
H1161 C1184 0.950 . S
H1162 C1185 0.950 . S
H1163 C1187 0.950 . S
H1164 C1188 0.950 . S
H1165 C1189 0.951 . S
H1166 C1191 0.951 . S
H1167 C1193 0.950 . S
H1168 C1194 0.950 . S
H1169 C1196 0.950 . S
H1170 C1199 0.950 . S
H1171 C1200 0.950 . S
H1172 C1202 0.950 . S
H1173 C1203 0.950 . S
C1174 H1156 0.951 . S
C1174 C1175 1.366 . S
C1174 C1176 1.388 . S
C1175 C1174 1.366 . S
C1175 C1179 1.385 . S
C1176 H1157 0.951 . S
C1176 C1174 1.388 . S
C1176 C1177 1.366 . S
C1177 C1176 1.366 . S
C1177 C1178 1.414 . S
C1177 C1180 1.499 . S
C1178 H1158 0.950 . S
C1178 C1177 1.414 . S
C1178 C1179 1.374 . S
C1179 H1159 0.950 . S
C1179 C1175 1.385 . S
C1179 C1178 1.374 . S
C1180 C1177 1.499 . S
C1180 C1181 1.373 1_545 S
C1180 C1182 1.389 . S
C1181 H1160 0.950 . S
C1181 C1180 1.373 1_565 S
C1181 C1197 1.377 . S
C1182 C1180 1.389 . S
C1182 C1183 1.524 . S
C1182 C1196 1.377 . S
C1183 C1182 1.524 . S
C1183 C1184 1.397 . S
C1183 C1188 1.363 . S
C1184 H1161 0.950 . S
C1184 C1183 1.397 . S
C1184 C1185 1.334 . S
C1185 H1162 0.950 . S
C1185 C1184 1.334 . S
C1185 C1186 1.287 . S
C1186 C1185 1.287 . S
C1186 C1187 1.524 . S
C1186 H1205 0.913 . S
C1187 H1163 0.950 . S
C1187 C1186 1.524 . S
C1187 C1188 1.415 . S
C1188 H1164 0.950 . S
C1188 C1183 1.363 . S
C1188 C1187 1.415 . S
C1189 H1165 0.951 . S
C1189 C1190 1.366 . S
C1189 C1191 1.388 . S
C1190 C1189 1.366 . S
C1190 C1194 1.385 . S
C1191 H1166 0.951 . S
C1191 C1189 1.388 . S
C1191 C1192 1.366 . S
C1192 C1191 1.366 . S
C1192 C1193 1.414 . S
C1192 C1195 1.499 . S
C1193 H1167 0.950 . S
C1193 C1192 1.414 . S
C1193 C1194 1.374 . S
C1194 H1168 0.950 . S
C1194 C1190 1.385 . S
C1194 C1193 1.374 . S
C1195 C1192 1.499 . S
C1195 C1196 1.373 1_565 S
C1195 C1197 1.389 . S
C1196 H1169 0.950 . S
C1196 C1182 1.377 . S
C1196 C1195 1.373 1_545 S
C1197 C1181 1.377 . S
C1197 C1195 1.389 . S
C1197 C1198 1.524 . S
C1198 C1197 1.524 . S
C1198 C1199 1.397 . S
C1198 C1203 1.363 . S
C1199 H1170 0.950 . S
C1199 C1198 1.397 . S
C1199 C1200 1.334 . S
C1200 H1171 0.950 . S
C1200 C1199 1.334 . S
C1200 C1201 1.287 . S
C1201 C1200 1.287 . S
C1201 C1202 1.524 . S
C1201 H1204 0.999 . S
C1202 H1172 0.950 . S
C1202 C1201 1.524 . S
C1202 C1203 1.415 . S
C1203 H1173 0.950 . S
C1203 C1198 1.363 . S
C1203 C1202 1.415 . S
H1204 C1201 0.999 . S
H1205 C1186 0.913 . S
H1206 C1224 0.951 . S
H1207 C1226 0.951 . S
H1208 C1228 0.950 . S
H1209 C1229 0.950 . S
H1210 C1231 0.950 . S
H1211 C1234 0.950 . S
H1212 C1235 0.950 . S
H1213 C1237 0.950 . S
H1214 C1238 0.950 . S
H1215 C1239 0.951 . S
H1216 C1241 0.951 . S
H1217 C1243 0.950 . S
H1218 C1244 0.950 . S
H1219 C1246 0.950 . S
H1220 C1249 0.950 . S
H1221 C1250 0.950 . S
H1222 C1252 0.950 . S
H1223 C1253 0.950 . S
C1224 H1206 0.951 . S
C1224 C1225 1.366 . S
C1224 C1226 1.388 . S
C1225 C1224 1.366 . S
C1225 C1229 1.385 . S
C1226 H1207 0.951 . S
C1226 C1224 1.388 . S
C1226 C1227 1.366 . S
C1227 C1226 1.366 . S
C1227 C1228 1.414 . S
C1227 C1230 1.499 . S
C1228 H1208 0.950 . S
C1228 C1227 1.414 . S
C1228 C1229 1.374 . S
C1229 H1209 0.950 . S
C1229 C1225 1.385 . S
C1229 C1228 1.374 . S
C1230 C1227 1.499 . S
C1230 C1231 1.373 . S
C1230 C1232 1.389 . S
C1231 H1210 0.950 . S
C1231 C1230 1.373 . S
C1231 C1247 1.377 . S
C1232 C1230 1.389 . S
C1232 C1233 1.524 . S
C1232 C1246 1.377 . S
C1233 C1232 1.524 . S
C1233 C1234 1.397 . S
C1233 C1238 1.363 . S
C1234 H1211 0.950 . S
C1234 C1233 1.397 . S
C1234 C1235 1.334 . S
C1235 H1212 0.950 . S
C1235 C1234 1.334 . S
C1235 C1236 1.287 . S
C1236 C1235 1.287 . S
C1236 C1237 1.524 . S
C1236 H1255 0.913 . S
C1237 H1213 0.950 . S
C1237 C1236 1.524 . S
C1237 C1238 1.415 . S
C1238 H1214 0.950 . S
C1238 C1233 1.363 . S
C1238 C1237 1.415 . S
C1239 H1215 0.951 . S
C1239 C1240 1.366 . S
C1239 C1241 1.388 . S
C1240 C1239 1.366 . S
C1240 C1244 1.385 . S
C1241 H1216 0.951 . S
C1241 C1239 1.388 . S
C1241 C1242 1.366 . S
C1242 C1241 1.366 . S
C1242 C1243 1.414 . S
C1242 C1245 1.499 . S
C1243 H1217 0.950 . S
C1243 C1242 1.414 . S
C1243 C1244 1.374 . S
C1244 H1218 0.950 . S
C1244 C1240 1.385 . S
C1244 C1243 1.374 . S
C1245 C1242 1.499 . S
C1245 C1246 1.373 . S
C1245 C1247 1.389 . S
C1246 H1219 0.950 . S
C1246 C1232 1.377 . S
C1246 C1245 1.373 . S
C1247 C1231 1.377 . S
C1247 C1245 1.389 . S
C1247 C1248 1.524 . S
C1248 C1247 1.524 . S
C1248 C1249 1.397 . S
C1248 C1253 1.363 . S
C1249 H1220 0.950 . S
C1249 C1248 1.397 . S
C1249 C1250 1.334 . S
C1250 H1221 0.950 . S
C1250 C1249 1.334 . S
C1250 C1251 1.287 . S
C1251 C1250 1.287 . S
C1251 C1252 1.524 . S
C1251 H1254 0.999 . S
C1252 H1222 0.950 . S
C1252 C1251 1.524 . S
C1252 C1253 1.415 . S
C1253 H1223 0.950 . S
C1253 C1248 1.363 . S
C1253 C1252 1.415 . S
H1254 C1251 0.999 . S
H1255 C1236 0.913 . S
H1256 C1274 0.951 . S
H1257 C1276 0.951 . S
H1258 C1278 0.950 . S
H1259 C1279 0.950 . S
H1260 C1281 0.950 . S
H1261 C1284 0.950 . S
H1262 C1285 0.950 . S
H1263 C1287 0.950 . S
H1264 C1288 0.950 . S
H1265 C1289 0.951 . S
H1266 C1291 0.951 . S
H1267 C1293 0.950 . S
H1268 C1294 0.950 . S
H1269 C1296 0.950 . S
H1270 C1299 0.950 . S
H1271 C1300 0.950 . S
H1272 C1302 0.913 1_554 S
H1273 C1303 0.950 . S
C1274 H1256 0.951 . S
C1274 C1275 1.366 . S
C1274 C1276 1.388 . S
C1275 C1274 1.366 . S
C1275 C1279 1.385 . S
C1276 H1257 0.951 . S
C1276 C1274 1.388 . S
C1276 C1277 1.366 . S
C1277 C1276 1.366 . S
C1277 C1278 1.414 . S
C1277 C1280 1.499 . S
C1278 H1258 0.950 . S
C1278 C1277 1.414 . S
C1278 C1279 1.374 . S
C1279 H1259 0.950 . S
C1279 C1275 1.385 . S
C1279 C1278 1.374 . S
C1280 C1277 1.499 . S
C1280 C1281 1.373 . S
C1280 C1282 1.389 . S
C1281 H1260 0.950 . S
C1281 C1280 1.373 . S
C1281 C1297 1.377 1_455 S
C1282 C1280 1.389 . S
C1282 C1283 1.524 . S
C1282 C1296 1.377 1_455 S
C1283 C1282 1.524 . S
C1283 C1284 1.397 . S
C1283 C1288 1.363 . S
C1284 H1261 0.950 . S
C1284 C1283 1.397 . S
C1284 C1285 1.334 . S
C1285 H1262 0.950 . S
C1285 C1284 1.334 . S
C1285 C1286 1.287 . S
C1286 C1285 1.287 . S
C1286 C1287 1.524 . S
C1286 H1305 0.913 . S
C1287 H1263 0.950 . S
C1287 C1286 1.524 . S
C1287 C1288 1.415 . S
C1288 H1264 0.950 . S
C1288 C1283 1.363 . S
C1288 C1287 1.415 . S
C1289 H1265 0.951 . S
C1289 C1290 1.366 . S
C1289 C1291 1.388 . S
C1290 C1289 1.366 . S
C1290 C1294 1.385 . S
C1291 H1266 0.951 . S
C1291 C1289 1.388 . S
C1291 C1292 1.366 . S
C1292 C1291 1.366 . S
C1292 C1293 1.414 . S
C1292 C1295 1.499 . S
C1293 H1267 0.950 . S
C1293 C1292 1.414 . S
C1293 C1294 1.374 . S
C1294 H1268 0.950 . S
C1294 C1290 1.385 . S
C1294 C1293 1.374 . S
C1295 C1292 1.499 . S
C1295 C1296 1.373 . S
C1295 C1297 1.389 . S
C1296 H1269 0.950 . S
C1296 C1282 1.377 1_655 S
C1296 C1295 1.373 . S
C1297 C1281 1.377 1_655 S
C1297 C1295 1.389 . S
C1297 C1298 1.524 . S
C1298 C1297 1.524 . S
C1298 C1299 1.397 . S
C1298 C1303 1.363 . S
C1299 H1270 0.950 . S
C1299 C1298 1.397 . S
C1299 C1300 1.334 . S
C1300 H1271 0.950 . S
C1300 C1299 1.334 . S
C1300 C1301 1.287 . S
C1301 C1300 1.287 . S
C1301 C1302 1.524 . S
C1301 H1304 0.999 1_556 S
C1302 H1272 0.913 1_556 S
C1302 C1301 1.524 . S
C1302 C1303 1.415 . S
C1303 H1273 0.950 . S
C1303 C1298 1.363 . S
C1303 C1302 1.415 . S
H1304 C1301 0.999 1_554 S
H1305 C1286 0.913 . S
H1306 C1324 0.951 . S
H1307 C1326 0.951 . S
H1308 C1328 0.950 . S
H1309 C1329 0.950 . S
H1310 C1331 0.950 . S
H1311 C1334 0.950 . S
H1312 C1335 0.950 . S
H1313 C1337 0.950 . S
H1314 C1338 0.950 . S
H1315 C1339 0.951 . S
H1316 C1341 0.951 . S
H1317 C1343 0.950 . S
H1318 C1344 0.950 . S
H1319 C1346 0.950 . S
H1320 C1349 0.950 . S
H1321 C1350 0.950 . S
H1322 C1352 0.950 . S
H1323 C1353 0.950 . S
C1324 H1306 0.951 . S
C1324 C1325 1.366 . S
C1324 C1326 1.388 . S
C1325 C1324 1.366 . S
C1325 C1329 1.385 . S
C1326 H1307 0.951 . S
C1326 C1324 1.388 . S
C1326 C1327 1.366 . S
C1327 C1326 1.366 . S
C1327 C1328 1.414 . S
C1327 C1330 1.499 . S
C1328 H1308 0.950 . S
C1328 C1327 1.414 . S
C1328 C1329 1.374 . S
C1329 H1309 0.950 . S
C1329 C1325 1.385 . S
C1329 C1328 1.374 . S
C1330 C1327 1.499 . S
C1330 C1331 1.373 . S
C1330 C1332 1.389 1_565 S
C1331 H1310 0.950 . S
C1331 C1330 1.373 . S
C1331 C1347 1.377 . S
C1332 C1330 1.389 1_545 S
C1332 C1333 1.524 . S
C1332 C1346 1.377 . S
C1333 C1332 1.524 . S
C1333 C1334 1.397 . S
C1333 C1338 1.363 . S
C1334 H1311 0.950 . S
C1334 C1333 1.397 . S
C1334 C1335 1.334 . S
C1335 H1312 0.950 . S
C1335 C1334 1.334 . S
C1335 C1336 1.287 . S
C1336 C1335 1.287 . S
C1336 C1337 1.524 . S
C1336 H1355 0.913 . S
C1337 H1313 0.950 . S
C1337 C1336 1.524 . S
C1337 C1338 1.415 . S
C1338 H1314 0.950 . S
C1338 C1333 1.363 . S
C1338 C1337 1.415 . S
C1339 H1315 0.951 . S
C1339 C1340 1.366 . S
C1339 C1341 1.388 . S
C1340 C1339 1.366 . S
C1340 C1344 1.385 . S
C1341 H1316 0.951 . S
C1341 C1339 1.388 . S
C1341 C1342 1.366 . S
C1342 C1341 1.366 . S
C1342 C1343 1.414 . S
C1342 C1345 1.499 . S
C1343 H1317 0.950 . S
C1343 C1342 1.414 . S
C1343 C1344 1.374 . S
C1344 H1318 0.950 . S
C1344 C1340 1.385 . S
C1344 C1343 1.374 . S
C1345 C1342 1.499 . S
C1345 C1346 1.373 . S
C1345 C1347 1.389 1_545 S
C1346 H1319 0.950 . S
C1346 C1332 1.377 . S
C1346 C1345 1.373 . S
C1347 C1331 1.377 . S
C1347 C1345 1.389 1_565 S
C1347 C1348 1.524 . S
C1348 C1347 1.524 . S
C1348 C1349 1.397 . S
C1348 C1353 1.363 . S
C1349 H1320 0.950 . S
C1349 C1348 1.397 . S
C1349 C1350 1.334 . S
C1350 H1321 0.950 . S
C1350 C1349 1.334 . S
C1350 C1351 1.287 . S
C1351 C1350 1.287 . S
C1351 C1352 1.524 . S
C1351 H1354 0.999 . S
C1352 H1322 0.950 . S
C1352 C1351 1.524 . S
C1352 C1353 1.415 . S
C1353 H1323 0.950 . S
C1353 C1348 1.363 . S
C1353 C1352 1.415 . S
H1354 C1351 0.999 . S
H1355 C1336 0.913 . S
C175 C96 1.402 . S
C190 C5 1.402 . S
C225 C16 1.401 . S
C240 C109 1.402 . S
C275 C29 1.402 . S
C290 C122 1.402 . S
C325 C42 1.402 . S
C340 C133 1.402 . S
C375 C148 1.401 . S
C390 C55 1.402 . S
C425 C83 1.402 . S
C440 C68 1.402 . S
C475 C135 1.131 . S
C490 C3 1.131 . S
C525 C18 1.131 . S
C540 C146 1.131 . S
C575 C31 1.131 . S
C590 C81 1.131 . S
C625 C94 1.131 . S
C640 C44 1.131 . S
C675 C107 1.131 . S
C690 C57 1.131 . S
C725 C120 1.131 . S
C740 C70 1.131 . S
C775 C10 1.694 . S
C790 C114 1.694 . S
C825 C17 1.694 . S
C840 C127 1.694 . S
C875 C134 1.694 . S
C890 C30 1.694 . S
C925 C43 1.694 . S
C940 C153 1.694 . S
C975 C88 1.694 . S
C990 C56 1.694 . S
C1025 C101 1.694 . S
C1040 C69 1.694 . S
C1075 C49 1.631 . S
C1090 C4 1.631 . S
C1125 C62 1.631 . S
C1140 C23 1.631 . S
C1175 C36 1.632 . S
C1190 C75 1.632 . S
C1225 C82 1.631 . S
C1240 C121 1.631 . S
C1275 C95 1.631 . S
C1290 C140 1.631 . S
C1325 C147 1.631 . S
C1340 C108 1.631 . S
