# Generated by pormake.
# Topology ukc, (4)-cn, num edge types: 1
# Building blocks:
#     Node 0, Type 0, BuildingBlock: NAHDIM_clean_sbu_0, # of connection points: 4
#     Node 1, Type 0, BuildingBlock: NAHDIM_clean_sbu_0, # of connection points: 4
#     Node 2, Type 0, BuildingBlock: NAHDIM_clean_sbu_0, # of connection points: 4
#     Node 3, Type 0, BuildingBlock: NAHDIM_clean_sbu_0, # of connection points: 4
#     Node 4, Type 0, BuildingBlock: NAHDIM_clean_sbu_0, # of connection points: 4
#     Node 5, Type 0, BuildingBlock: NAHDIM_clean_sbu_0, # of connection points: 4
#     Node 6, Type 0, BuildingBlock: NAHDIM_clean_sbu_0, # of connection points: 4
#     Node 7, Type 0, BuildingBlock: NAHDIM_clean_sbu_0, # of connection points: 4
#     Node 8, Type 0, BuildingBlock: NAHDIM_clean_sbu_0, # of connection points: 4
#     Node 9, Type 0, BuildingBlock: NAHDIM_clean_sbu_0, # of connection points: 4
#     Node 10, Type 0, BuildingBlock: NAHDIM_clean_sbu_0, # of connection points: 4
#     Node 11, Type 0, BuildingBlock: NAHDIM_clean_sbu_0, # of connection points: 4
#     Node 12, Type 0, BuildingBlock: NAHDIM_clean_sbu_0, # of connection points: 4
#     Node 13, Type 0, BuildingBlock: NAHDIM_clean_sbu_0, # of connection points: 4
#     Node 14, Type 0, BuildingBlock: NAHDIM_clean_sbu_0, # of connection points: 4
#     Node 15, Type 0, BuildingBlock: NAHDIM_clean_sbu_0, # of connection points: 4
#     Node 16, Type 0, BuildingBlock: NAHDIM_clean_sbu_0, # of connection points: 4
#     Node 17, Type 0, BuildingBlock: NAHDIM_clean_sbu_0, # of connection points: 4
#     Node 18, Type 0, BuildingBlock: NAHDIM_clean_sbu_0, # of connection points: 4
#     Node 19, Type 0, BuildingBlock: NAHDIM_clean_sbu_0, # of connection points: 4
#     Node 20, Type 0, BuildingBlock: NAHDIM_clean_sbu_0, # of connection points: 4
#     Node 21, Type 0, BuildingBlock: NAHDIM_clean_sbu_0, # of connection points: 4
#     Node 22, Type 0, BuildingBlock: NAHDIM_clean_sbu_0, # of connection points: 4
#     Node 23, Type 0, BuildingBlock: NAHDIM_clean_sbu_0, # of connection points: 4
#     Node 24, Type 0, BuildingBlock: NAHDIM_clean_sbu_0, # of connection points: 4
#     Node 25, Type 0, BuildingBlock: NAHDIM_clean_sbu_0, # of connection points: 4
#     Node 26, Type 0, BuildingBlock: NAHDIM_clean_sbu_0, # of connection points: 4
#     Node 27, Type 0, BuildingBlock: NAHDIM_clean_sbu_0, # of connection points: 4
#     Node 28, Type 0, BuildingBlock: NAHDIM_clean_sbu_0, # of connection points: 4
#     Node 29, Type 0, BuildingBlock: NAHDIM_clean_sbu_0, # of connection points: 4
#     Node 30, Type 0, BuildingBlock: NAHDIM_clean_sbu_0, # of connection points: 4
#     Node 31, Type 0, BuildingBlock: NAHDIM_clean_sbu_0, # of connection points: 4
#     Edge 32, Type (0, 0), BuildingBlock: EZIPEK_clean_linker_0, # of connection points: 2
#     Edge 33, Type (0, 0), BuildingBlock: EZIPEK_clean_linker_0, # of connection points: 2
#     Edge 34, Type (0, 0), BuildingBlock: EZIPEK_clean_linker_0, # of connection points: 2
#     Edge 35, Type (0, 0), BuildingBlock: EZIPEK_clean_linker_0, # of connection points: 2
#     Edge 36, Type (0, 0), BuildingBlock: EZIPEK_clean_linker_0, # of connection points: 2
#     Edge 37, Type (0, 0), BuildingBlock: EZIPEK_clean_linker_0, # of connection points: 2
#     Edge 38, Type (0, 0), BuildingBlock: EZIPEK_clean_linker_0, # of connection points: 2
#     Edge 39, Type (0, 0), BuildingBlock: EZIPEK_clean_linker_0, # of connection points: 2
#     Edge 40, Type (0, 0), BuildingBlock: EZIPEK_clean_linker_0, # of connection points: 2
#     Edge 41, Type (0, 0), BuildingBlock: EZIPEK_clean_linker_0, # of connection points: 2
#     Edge 42, Type (0, 0), BuildingBlock: EZIPEK_clean_linker_0, # of connection points: 2
#     Edge 43, Type (0, 0), BuildingBlock: EZIPEK_clean_linker_0, # of connection points: 2
#     Edge 44, Type (0, 0), BuildingBlock: EZIPEK_clean_linker_0, # of connection points: 2
#     Edge 45, Type (0, 0), BuildingBlock: EZIPEK_clean_linker_0, # of connection points: 2
#     Edge 46, Type (0, 0), BuildingBlock: EZIPEK_clean_linker_0, # of connection points: 2
#     Edge 47, Type (0, 0), BuildingBlock: EZIPEK_clean_linker_0, # of connection points: 2
#     Edge 48, Type (0, 0), BuildingBlock: EZIPEK_clean_linker_0, # of connection points: 2
#     Edge 49, Type (0, 0), BuildingBlock: EZIPEK_clean_linker_0, # of connection points: 2
#     Edge 50, Type (0, 0), BuildingBlock: EZIPEK_clean_linker_0, # of connection points: 2
#     Edge 51, Type (0, 0), BuildingBlock: EZIPEK_clean_linker_0, # of connection points: 2
#     Edge 52, Type (0, 0), BuildingBlock: EZIPEK_clean_linker_0, # of connection points: 2
#     Edge 53, Type (0, 0), BuildingBlock: EZIPEK_clean_linker_0, # of connection points: 2
#     Edge 54, Type (0, 0), BuildingBlock: EZIPEK_clean_linker_0, # of connection points: 2
#     Edge 55, Type (0, 0), BuildingBlock: EZIPEK_clean_linker_0, # of connection points: 2
#     Edge 56, Type (0, 0), BuildingBlock: EZIPEK_clean_linker_0, # of connection points: 2
#     Edge 57, Type (0, 0), BuildingBlock: EZIPEK_clean_linker_0, # of connection points: 2
#     Edge 58, Type (0, 0), BuildingBlock: EZIPEK_clean_linker_0, # of connection points: 2
#     Edge 59, Type (0, 0), BuildingBlock: EZIPEK_clean_linker_0, # of connection points: 2
#     Edge 60, Type (0, 0), BuildingBlock: EZIPEK_clean_linker_0, # of connection points: 2
#     Edge 61, Type (0, 0), BuildingBlock: EZIPEK_clean_linker_0, # of connection points: 2
#     Edge 62, Type (0, 0), BuildingBlock: EZIPEK_clean_linker_0, # of connection points: 2
#     Edge 63, Type (0, 0), BuildingBlock: EZIPEK_clean_linker_0, # of connection points: 2
#     Edge 64, Type (0, 0), BuildingBlock: EZIPEK_clean_linker_0, # of connection points: 2
#     Edge 65, Type (0, 0), BuildingBlock: EZIPEK_clean_linker_0, # of connection points: 2
#     Edge 66, Type (0, 0), BuildingBlock: EZIPEK_clean_linker_0, # of connection points: 2
#     Edge 67, Type (0, 0), BuildingBlock: EZIPEK_clean_linker_0, # of connection points: 2
#     Edge 68, Type (0, 0), BuildingBlock: EZIPEK_clean_linker_0, # of connection points: 2
#     Edge 69, Type (0, 0), BuildingBlock: EZIPEK_clean_linker_0, # of connection points: 2
#     Edge 70, Type (0, 0), BuildingBlock: EZIPEK_clean_linker_0, # of connection points: 2
#     Edge 71, Type (0, 0), BuildingBlock: EZIPEK_clean_linker_0, # of connection points: 2
#     Edge 72, Type (0, 0), BuildingBlock: EZIPEK_clean_linker_0, # of connection points: 2
#     Edge 73, Type (0, 0), BuildingBlock: EZIPEK_clean_linker_0, # of connection points: 2
#     Edge 74, Type (0, 0), BuildingBlock: EZIPEK_clean_linker_0, # of connection points: 2
#     Edge 75, Type (0, 0), BuildingBlock: EZIPEK_clean_linker_0, # of connection points: 2
#     Edge 76, Type (0, 0), BuildingBlock: EZIPEK_clean_linker_0, # of connection points: 2
#     Edge 77, Type (0, 0), BuildingBlock: EZIPEK_clean_linker_0, # of connection points: 2
#     Edge 78, Type (0, 0), BuildingBlock: EZIPEK_clean_linker_0, # of connection points: 2
#     Edge 79, Type (0, 0), BuildingBlock: EZIPEK_clean_linker_0, # of connection points: 2
#     Edge 80, Type (0, 0), BuildingBlock: EZIPEK_clean_linker_0, # of connection points: 2
#     Edge 81, Type (0, 0), BuildingBlock: EZIPEK_clean_linker_0, # of connection points: 2
#     Edge 82, Type (0, 0), BuildingBlock: EZIPEK_clean_linker_0, # of connection points: 2
#     Edge 83, Type (0, 0), BuildingBlock: EZIPEK_clean_linker_0, # of connection points: 2
#     Edge 84, Type (0, 0), BuildingBlock: EZIPEK_clean_linker_0, # of connection points: 2
#     Edge 85, Type (0, 0), BuildingBlock: EZIPEK_clean_linker_0, # of connection points: 2
#     Edge 86, Type (0, 0), BuildingBlock: EZIPEK_clean_linker_0, # of connection points: 2
#     Edge 87, Type (0, 0), BuildingBlock: EZIPEK_clean_linker_0, # of connection points: 2
#     Edge 88, Type (0, 0), BuildingBlock: EZIPEK_clean_linker_0, # of connection points: 2
#     Edge 89, Type (0, 0), BuildingBlock: EZIPEK_clean_linker_0, # of connection points: 2
#     Edge 90, Type (0, 0), BuildingBlock: EZIPEK_clean_linker_0, # of connection points: 2
#     Edge 91, Type (0, 0), BuildingBlock: EZIPEK_clean_linker_0, # of connection points: 2
#     Edge 92, Type (0, 0), BuildingBlock: EZIPEK_clean_linker_0, # of connection points: 2
#     Edge 93, Type (0, 0), BuildingBlock: EZIPEK_clean_linker_0, # of connection points: 2
#     Edge 94, Type (0, 0), BuildingBlock: EZIPEK_clean_linker_0, # of connection points: 2
#     Edge 95, Type (0, 0), BuildingBlock: EZIPEK_clean_linker_0, # of connection points: 2
# Relax obj value: 0.068
# Max RMSD: 0.094
# Mean RMSD: 0.094
data_MOF--net-ukc--node1-NAHDIM_clean_sbu_0--edge1-EZIPEK_clean_linker_0
_symmetry_space_group_name_H-M    P1
_symmetry_Int_Tables_number       1
_symmetry_cell_setting            triclinic
loop_
_symmetry_equiv_pos_as_xyz
'x, y, z'
_cell_length_a     33.914656
_cell_length_b     33.890772
_cell_length_c     60.829665
_cell_angle_alpha  90.047414
_cell_angle_beta   89.980044
_cell_angle_gamma 89.899504
loop_
_atom_site_label
_atom_site_type_symbol
_atom_site_fract_x
_atom_site_fract_y
_atom_site_fract_z
_atom_type_partial_charge
C0 C 0.18836 0.39459 0.03719 0.0
O1 O 0.18662 0.38232 0.05763 0.0
O2 O 0.11569 0.40368 0.07608 0.0
Zn3 Zn 0.10557 0.40802 0.04349 0.0
O4 O 0.07498 0.45671 0.03477 0.0
C5 C 0.08389 0.32654 0.04042 0.0
O6 O 0.11714 0.32101 0.05105 0.0
O7 O 0.15743 0.4069 0.0276 0.0
C8 C 0.03766 0.45484 0.03301 0.0
O9 O 0.01919 0.42232 0.03855 0.0
C10 C 0.09208 0.41283 0.09145 0.0
O11 O 0.05767 0.42857 0.08685 0.0
O12 O 0.0739 0.36105 0.0346 0.0
C13 C 0.83964 0.91875 0.26153 0.0
O14 O 0.80654 0.90811 0.27103 0.0
O15 O 0.8643 0.86118 0.31235 0.0
Zn16 Zn 0.86516 0.8469 0.28026 0.0
O17 O 0.81653 0.81778 0.26999 0.0
C18 C 0.94371 0.81772 0.28643 0.0
O19 O 0.94537 0.84639 0.30092 0.0
O20 O 0.86989 0.89684 0.26305 0.0
C21 C 0.8178 0.78099 0.26593 0.0
O22 O 0.85022 0.76102 0.26992 0.0
C23 C 0.83542 0.86052 0.32562 0.0
O24 O 0.80047 0.84927 0.31879 0.0
O25 O 0.91279 0.81294 0.27499 0.0
C26 C 0.32579 0.64243 0.51939 0.0
O27 O 0.3333 0.66457 0.53659 0.0
O28 O 0.38891 0.6116 0.55964 0.0
Zn29 Zn 0.4038 0.61575 0.52759 0.0
O30 O 0.43242 0.56796 0.5156 0.0
C31 C 0.4728 0.6652 0.52541 0.0
O32 O 0.49114 0.6323 0.5304 0.0
O33 O 0.35234 0.61981 0.51174 0.0
C34 C 0.45661 0.54655 0.52619 0.0
O35 O 0.46419 0.55441 0.54689 0.0
C36 C 0.41182 0.61816 0.57571 0.0
O37 O 0.44937 0.62499 0.57227 0.0
O38 O 0.4356 0.66533 0.52297 0.0
C39 C 0.61729 0.06565 0.77207 0.0
O40 O 0.59473 0.06788 0.78957 0.0
O41 O 0.62552 0.13544 0.81479 0.0
Zn42 Zn 0.63305 0.14663 0.78254 0.0
O43 O 0.68173 0.17866 0.77658 0.0
C44 C 0.58287 0.21166 0.78259 0.0
O45 O 0.61072 0.2237 0.79598 0.0
O46 O 0.6363 0.09573 0.76566 0.0
C47 C 0.68865 0.18725 0.75661 0.0
O48 O 0.66446 0.17496 0.74121 0.0
C49 C 0.6479 0.11471 0.8269 0.0
O50 O 0.6807 0.09994 0.81887 0.0
O51 O 0.58575 0.17802 0.77353 0.0
C52 C 0.16992 0.61919 0.48459 0.0
O53 O 0.16509 0.58684 0.47301 0.0
O54 O 0.11288 0.6226 0.43758 0.0
Zn55 Zn 0.09412 0.63061 0.46853 0.0
O56 O 0.06808 0.58208 0.48061 0.0
C57 C 0.06785 0.71044 0.46502 0.0
O58 O 0.1054 0.71693 0.46124 0.0
O59 O 0.14181 0.64375 0.48623 0.0
C60 C 0.04689 0.58558 0.49774 0.0
O61 O 0.04291 0.62037 0.50703 0.0
C62 C 0.08944 0.61746 0.4216 0.0
O63 O 0.05133 0.61506 0.42517 0.0
O64 O 0.05592 0.67566 0.46887 0.0
C65 C 0.63778 0.91405 0.73034 0.0
O66 O 0.67349 0.90087 0.72624 0.0
O67 O 0.62131 0.84221 0.67997 0.0
Zn68 Zn 0.61708 0.83884 0.71307 0.0
O69 O 0.66395 0.81389 0.72803 0.0
C70 C 0.56824 0.77183 0.71012 0.0
O71 O 0.59785 0.75975 0.69794 0.0
O72 O 0.60819 0.89259 0.72591 0.0
C73 C 0.68631 0.78816 0.71936 0.0
O74 O 0.68096 0.77774 0.69877 0.0
C75 C 0.63601 0.87075 0.66921 0.0
O76 O 0.65283 0.90017 0.67962 0.0
O77 O 0.56972 0.8055 0.71925 0.0
C78 C 0.33623 0.39822 0.99061 0.0
O79 O 0.34686 0.43157 0.98138 0.0
O80 O 0.38833 0.38033 0.9391 0.0
Zn81 Zn 0.40669 0.37493 0.97067 0.0
O82 O 0.43519 0.42286 0.98239 0.0
C83 C 0.43645 0.29548 0.96396 0.0
O84 O 0.40533 0.29165 0.95134 0.0
O85 O 0.35805 0.36796 0.9887 0.0
C86 C 0.47193 0.42159 0.98653 0.0
O87 O 0.49242 0.39009 0.98124 0.0
C88 C 0.4104 0.37082 0.92309 0.0
O89 O 0.44752 0.36213 0.92677 0.0
O90 O 0.44202 0.32745 0.97435 0.0
C91 C 0.84984 0.06189 0.21067 0.0
O92 O 0.86084 0.05908 0.19003 0.0
O93 O 0.84244 0.12786 0.16792 0.0
Zn94 Zn 0.8423 0.14393 0.19978 0.0
O95 O 0.79613 0.17873 0.20731 0.0
C96 C 0.92564 0.1581 0.20531 0.0
O97 O 0.92879 0.12007 0.2016 0.0
O98 O 0.84073 0.09531 0.21869 0.0
C99 C 0.79737 0.1961 0.22582 0.0
O100 O 0.82769 0.19045 0.23887 0.0
C101 C 0.84655 0.15306 0.15268 0.0
O102 O 0.84738 0.19083 0.15749 0.0
O103 O 0.89192 0.1744 0.20553 0.0
C104 C 0.82945 0.60903 0.98421 0.0
O105 O 0.83459 0.57803 0.97154 0.0
O106 O 0.88388 0.62736 0.93398 0.0
Zn107 Zn 0.90254 0.62753 0.96539 0.0
O108 O 0.93115 0.57853 0.97514 0.0
C109 C 0.92823 0.70796 0.96717 0.0
O110 O 0.89031 0.71557 0.96606 0.0
O111 O 0.85564 0.63572 0.9848 0.0
C112 C 0.94723 0.58161 0.99397 0.0
O113 O 0.94376 0.61484 0.00495 0.0
C114 C 0.87781 0.59844 0.92115 0.0
O115 O 0.88426 0.56222 0.92794 0.0
O116 O 0.94018 0.67251 0.96786 0.0
C117 C 0.12088 0.0661 0.71544 0.0
O118 O 0.11076 0.06839 0.69466 0.0
O119 O 0.12635 0.14345 0.6785 0.0
Zn120 Zn 0.13153 0.15031 0.71125 0.0
O121 O 0.18107 0.17847 0.72062 0.0
C122 C 0.08903 0.22074 0.71616 0.0
O123 O 0.12242 0.23433 0.70829 0.0
O124 O 0.12986 0.09717 0.72601 0.0
C125 C 0.18353 0.18572 0.7411 0.0
O126 O 0.15529 0.1737 0.75427 0.0
C127 C 0.15233 0.1332 0.6646 0.0
O128 O 0.189 0.12768 0.67084 0.0
O129 O 0.08538 0.18403 0.71986 0.0
C130 C 0.66942 0.38921 0.48826 0.0
O131 O 0.66052 0.42315 0.4791 0.0
O132 O 0.62068 0.37641 0.43601 0.0
Zn133 Zn 0.5997 0.36935 0.46662 0.0
O134 O 0.57031 0.41717 0.47787 0.0
C135 C 0.57719 0.28697 0.46563 0.0
O136 O 0.61534 0.28037 0.46526 0.0
O137 O 0.6465 0.35997 0.48586 0.0
C138 C 0.53399 0.41528 0.48295 0.0
O139 O 0.51446 0.38236 0.47972 0.0
C140 C 0.5979 0.37318 0.41958 0.0
O141 O 0.55979 0.36938 0.42266 0.0
O142 O 0.56415 0.32204 0.46652 0.0
C143 C 0.36701 0.91675 0.21756 0.0
O144 O 0.3905 0.91188 0.20062 0.0
O145 O 0.35641 0.84055 0.17817 0.0
Zn146 Zn 0.35045 0.83425 0.21089 0.0
O147 O 0.30191 0.80316 0.21894 0.0
C148 C 0.43128 0.81135 0.21219 0.0
O149 O 0.43371 0.83756 0.19638 0.0
O150 O 0.34727 0.88783 0.22495 0.0
C151 C 0.30375 0.76608 0.22195 0.0
O152 O 0.33717 0.74737 0.21863 0.0
C153 C 0.33376 0.86039 0.16578 0.0
O154 O 0.30158 0.87652 0.17378 0.0
O155 O 0.39848 0.80527 0.22165 0.0
C156 C 0.81846 0.38071 0.53342 0.0
O157 O 0.82098 0.36932 0.55399 0.0
O158 O 0.89263 0.39007 0.57115 0.0
Zn159 Zn 0.9013 0.39618 0.53872 0.0
O160 O 0.92787 0.44715 0.53089 0.0
C161 C 0.9258 0.31653 0.53301 0.0
O162 O 0.8904 0.3095 0.5408 0.0
O163 O 0.84898 0.39273 0.52332 0.0
C164 C 0.96477 0.45082 0.53377 0.0
O165 O 0.98475 0.42223 0.54319 0.0
C166 C 0.88898 0.41708 0.58546 0.0
O167 O 0.89265 0.45426 0.57974 0.0
O168 O 0.93664 0.35181 0.52963 0.0
C169 C 0.34578 0.06737 0.26019 0.0
O170 O 0.31483 0.0713 0.273 0.0
O171 O 0.35367 0.12483 0.30811 0.0
Zn172 Zn 0.3595 0.14343 0.27684 0.0
O173 O 0.311 0.17128 0.26539 0.0
C174 C 0.43994 0.16716 0.28049 0.0
O175 O 0.44491 0.12977 0.28544 0.0
O176 O 0.37009 0.09563 0.25842 0.0
C177 C 0.3087 0.20873 0.26536 0.0
O178 O 0.33736 0.2297 0.27395 0.0
C179 C 0.34525 0.14786 0.32389 0.0
O180 O 0.33752 0.18516 0.31994 0.0
O181 O 0.40586 0.17992 0.27561 0.0
C182 C 0.68529 0.61986 0.03422 0.0
O183 O 0.6854 0.61978 0.0558 0.0
O184 O 0.60883 0.61517 0.07192 0.0
Zn185 Zn 0.60051 0.61434 0.03913 0.0
O186 O 0.57315 0.5659 0.02734 0.0
C187 C 0.53223 0.66093 0.04057 0.0
O188 O 0.52147 0.63131 0.05306 0.0
O189 O 0.65287 0.61874 0.02378 0.0
C190 C 0.5481 0.54427 0.03709 0.0
O191 O 0.53876 0.55121 0.05769 0.0
C192 C 0.61595 0.5867 0.0849 0.0
O193 O 0.61722 0.55043 0.07731 0.0
O194 O 0.56645 0.66111 0.03208 0.0
C195 C 0.13883 0.9144 0.75743 0.0
O196 O 0.17445 0.90363 0.76344 0.0
O197 O 0.11686 0.85857 0.81167 0.0
Zn198 Zn 0.11788 0.84328 0.77962 0.0
O199 O 0.16879 0.81648 0.77044 0.0
C200 C 0.06174 0.78376 0.79002 0.0
O201 O 0.08077 0.78471 0.80881 0.0
O202 O 0.10964 0.89241 0.76188 0.0
C203 C 0.17384 0.77958 0.77302 0.0
O204 O 0.14683 0.75875 0.78316 0.0
C205 C 0.13798 0.8841 0.82142 0.0
O206 O 0.16621 0.90233 0.81074 0.0
O207 O 0.07208 0.80658 0.77449 0.0
C208 C 0.66211 0.90773 0.52392 0.0
O209 O 0.65793 0.93058 0.54122 0.0
O210 O 0.58954 0.8982 0.56534 0.0
Zn211 Zn 0.58075 0.89029 0.53275 0.0
O212 O 0.54893 0.93407 0.51889 0.0
C213 C 0.567 0.80683 0.52387 0.0
O214 O 0.60503 0.80505 0.51995 0.0
O215 O 0.63306 0.88738 0.51722 0.0
C216 C 0.51188 0.93109 0.51615 0.0
O217 O 0.49314 0.90019 0.5239 0.0
C218 C 0.61064 0.87263 0.57518 0.0
O219 O 0.62622 0.84348 0.56388 0.0
O220 O 0.55112 0.83949 0.52905 0.0
C221 C 0.37913 0.42136 0.77591 0.0
O222 O 0.38675 0.4232 0.79703 0.0
O223 O 0.36414 0.35576 0.81772 0.0
Zn224 Zn 0.36506 0.33948 0.78553 0.0
O225 O 0.31575 0.31081 0.77627 0.0
C226 C 0.4456 0.31134 0.78613 0.0
O227 O 0.45187 0.34443 0.79676 0.0
O228 O 0.36986 0.38858 0.76717 0.0
C229 C 0.31272 0.27382 0.77924 0.0
O230 O 0.3406 0.25486 0.78987 0.0
C231 C 0.37458 0.33329 0.83337 0.0
O232 O 0.38324 0.29625 0.82933 0.0
O233 O 0.41123 0.30359 0.77913 0.0
C234 C 0.83525 0.1349 0.00304 0.0
O235 O 0.84415 0.10022 0.01128 0.0
O236 O 0.89583 0.14535 0.05241 0.0
Zn237 Zn 0.91014 0.15016 0.02035 0.0
O238 O 0.93491 0.10131 0.00746 0.0
C239 C 0.97554 0.19668 0.03218 0.0
O240 O 0.9774 0.17001 0.04777 0.0
O241 O 0.86035 0.16259 0.00396 0.0
C242 C 0.96029 0.08036 0.01743 0.0
O243 O 0.97032 0.08903 0.03771 0.0
C244 C 0.88325 0.1153 0.06267 0.0
O245 O 0.87883 0.08147 0.05246 0.0
O246 O 0.94852 0.1948 0.01777 0.0
C247 C 0.10254 0.55693 0.28207 0.0
O248 O 0.08866 0.56158 0.30204 0.0
O249 O 0.11661 0.63504 0.31867 0.0
Zn250 Zn 0.1193 0.64 0.28576 0.0
O251 O 0.16866 0.6678 0.27575 0.0
C252 C 0.07283 0.70722 0.28684 0.0
O253 O 0.10239 0.71733 0.29958 0.0
O254 O 0.11641 0.58629 0.27167 0.0
C255 C 0.16928 0.68083 0.25616 0.0
O256 O 0.13854 0.67533 0.24339 0.0
C257 C 0.14177 0.61946 0.33143 0.0
O258 O 0.17502 0.60542 0.32355 0.0
O259 O 0.07284 0.67351 0.2777 0.0
C260 C 0.67637 0.14039 0.97063 0.0
O261 O 0.66307 0.16365 0.95504 0.0
O262 O 0.61313 0.10476 0.93161 0.0
Zn263 Zn 0.60195 0.10502 0.96415 0.0
O264 O 0.57826 0.05441 0.97594 0.0
C265 C 0.53875 0.16086 0.95933 0.0
O266 O 0.53121 0.13989 0.94171 0.0
O267 O 0.65473 0.11284 0.978 0.0
C268 C 0.54133 0.04816 0.9759 0.0
O269 O 0.51741 0.0738 0.96683 0.0
C270 C 0.59533 0.08711 0.91613 0.0
O271 O 0.56496 0.06442 0.92047 0.0
O272 O 0.56756 0.15171 0.97165 0.0
C273 C 0.119 0.40213 0.24359 0.0
O274 O 0.15506 0.39172 0.23823 0.0
O275 O 0.10521 0.34536 0.18994 0.0
Zn276 Zn 0.10252 0.33005 0.22196 0.0
O277 O 0.15183 0.30441 0.23394 0.0
C278 C 0.06132 0.25924 0.21413 0.0
O279 O 0.09408 0.25138 0.20347 0.0
O280 O 0.0905 0.37922 0.23916 0.0
C281 C 0.17776 0.28693 0.22242 0.0
O282 O 0.17417 0.28575 0.20094 0.0
C283 C 0.12978 0.36834 0.18078 0.0
O284 O 0.15967 0.38241 0.19201 0.0
O285 O 0.05773 0.29178 0.22431 0.0
C286 C 0.80814 0.9011 0.47485 0.0
O287 O 0.8113 0.92369 0.45741 0.0
O288 O 0.87191 0.87672 0.42985 0.0
Zn289 Zn 0.88599 0.88196 0.46199 0.0
O290 O 0.91434 0.9324 0.46948 0.0
C291 C 0.95514 0.83747 0.45887 0.0
O292 O 0.96313 0.86646 0.4453 0.0
O293 O 0.83694 0.87928 0.48038 0.0
C294 C 0.92728 0.93424 0.48908 0.0
O295 O 0.92112 0.90447 0.50246 0.0
C296 C 0.8692 0.90419 0.41574 0.0
O297 O 0.87574 0.94092 0.42157 0.0
O298 O 0.92229 0.83691 0.46888 0.0
C299 C 0.38152 0.56676 0.72663 0.0
O300 O 0.40937 0.57365 0.71217 0.0
O301 O 0.35048 0.62546 0.67923 0.0
Zn302 Zn 0.35204 0.64129 0.71139 0.0
O303 O 0.3042 0.67266 0.72062 0.0
C304 C 0.43244 0.67091 0.70692 0.0
O305 O 0.43607 0.64346 0.69186 0.0
O306 O 0.35409 0.59182 0.72946 0.0
C307 C 0.30748 0.69376 0.73784 0.0
O308 O 0.34127 0.69461 0.74837 0.0
C309 C 0.36195 0.64944 0.66453 0.0
O310 O 0.36984 0.68603 0.6701 0.0
O311 O 0.40038 0.6744 0.71754 0.0
C312 C 0.31236 0.11132 0.47735 0.0
O313 O 0.32161 0.07444 0.4731 0.0
O314 O 0.3813 0.12151 0.42581 0.0
Zn315 Zn 0.38841 0.12438 0.45879 0.0
O316 O 0.41036 0.07531 0.47317 0.0
C317 C 0.46201 0.16298 0.45707 0.0
O318 O 0.47117 0.13041 0.44654 0.0
O319 O 0.33681 0.13851 0.47294 0.0
C320 C 0.43151 0.04924 0.46385 0.0
O321 O 0.43835 0.05143 0.44264 0.0
C322 C 0.35514 0.10248 0.41527 0.0
O323 O 0.33123 0.07857 0.42575 0.0
O324 O 0.42719 0.16786 0.46427 0.0
C325 C 0.64535 0.57226 0.23397 0.0
O326 O 0.67595 0.58249 0.22204 0.0
O327 O 0.62053 0.63466 0.18842 0.0
Zn328 Zn 0.6207 0.64792 0.22071 0.0
O329 O 0.66897 0.67697 0.23174 0.0
C330 C 0.57077 0.71599 0.22046 0.0
O331 O 0.60233 0.73239 0.21204 0.0
O332 O 0.61699 0.59636 0.23648 0.0
C333 C 0.68897 0.70266 0.22142 0.0
O334 O 0.67969 0.71195 0.20111 0.0
C335 C 0.64925 0.62985 0.17529 0.0
O336 O 0.68553 0.63472 0.1823 0.0
O337 O 0.57171 0.68002 0.2263 0.0
C338 C 0.1747 0.8692 0.96878 0.0
O339 O 0.16798 0.84666 0.95163 0.0
O340 O 0.11045 0.89536 0.92758 0.0
Zn341 Zn 0.09656 0.89591 0.95989 0.0
O342 O 0.06988 0.94626 0.96997 0.0
C343 C 0.0365 0.83672 0.95466 0.0
O344 O 0.0309 0.85538 0.93603 0.0
O345 O 0.14799 0.89231 0.97578 0.0
C346 C 0.03266 0.94975 0.97147 0.0
O347 O 0.00973 0.92095 0.96491 0.0
C348 C 0.09205 0.91157 0.91181 0.0
O349 O 0.06016 0.93244 0.9158 0.0
O350 O 0.06333 0.84833 0.96772 0.0
C351 C 0.84071 0.41416 0.7338 0.0
O352 O 0.81326 0.40324 0.71985 0.0
O353 O 0.87793 0.36085 0.68702 0.0
Zn354 Zn 0.87329 0.34335 0.71849 0.0
O355 O 0.82465 0.31051 0.72382 0.0
C356 C 0.95544 0.32612 0.71991 0.0
O357 O 0.95768 0.36178 0.71157 0.0
O358 O 0.87055 0.39217 0.73687 0.0
C359 C 0.82705 0.27722 0.73334 0.0
O360 O 0.86164 0.26324 0.73912 0.0
C361 C 0.85025 0.36315 0.67304 0.0
O362 O 0.81431 0.3526 0.6785 0.0
O363 O 0.92208 0.31207 0.72511 0.0
C364 C 0.3251 0.8855 0.01154 0.0
O365 O 0.32916 0.91735 0.02364 0.0
O366 O 0.37575 0.87872 0.0611 0.0
Zn367 Zn 0.39827 0.87083 0.03083 0.0
O368 O 0.42792 0.91794 0.01949 0.0
C369 C 0.42149 0.78915 0.03203 0.0
O370 O 0.38332 0.78268 0.032 0.0
O371 O 0.35253 0.86001 0.01105 0.0
C372 C 0.46508 0.92044 0.02176 0.0
O373 O 0.48425 0.89331 0.03287 0.0
C374 C 0.39682 0.87741 0.07831 0.0
O375 O 0.43528 0.87423 0.07662 0.0
O376 O 0.43452 0.82419 0.03142 0.0
C377 C 0.83199 0.56726 0.77513 0.0
O378 O 0.80455 0.57536 0.7897 0.0
O379 O 0.85556 0.63488 0.81796 0.0
Zn380 Zn 0.85414 0.6454 0.78541 0.0
O381 O 0.80598 0.67463 0.77454 0.0
C382 C 0.93329 0.67327 0.78939 0.0
O383 O 0.93523 0.64573 0.80451 0.0
O384 O 0.85727 0.59333 0.77011 0.0
C385 C 0.80789 0.7115 0.77079 0.0
O386 O 0.83987 0.73109 0.7761 0.0
C387 C 0.82849 0.63557 0.83237 0.0
O388 O 0.79227 0.64501 0.8268 0.0
O389 O 0.90193 0.67775 0.7783 0.0
C390 C 0.15964 0.14011 0.51597 0.0
O391 O 0.15477 0.16607 0.53177 0.0
O392 O 0.10251 0.12148 0.56083 0.0
Zn393 Zn 0.08287 0.11861 0.52943 0.0
O394 O 0.05095 0.06944 0.52287 0.0
C395 C 0.02847 0.18221 0.53583 0.0
O396 O 0.02462 0.16488 0.55498 0.0
O397 O 0.13193 0.11648 0.51118 0.0
C398 C 0.01346 0.06919 0.52225 0.0
O399 O 0.99372 0.10101 0.52774 0.0
C400 C 0.08602 0.10863 0.57813 0.0
O401 O 0.05201 0.0903 0.57682 0.0
O402 O 0.05216 0.16801 0.52171 0.0
C403 C 0.64256 0.41686 0.2726 0.0
O404 O 0.66815 0.40982 0.28831 0.0
O405 O 0.61829 0.35195 0.31637 0.0
Zn406 Zn 0.62033 0.33954 0.28402 0.0
O407 O 0.66855 0.30839 0.27548 0.0
C408 C 0.57123 0.27413 0.2885 0.0
O409 O 0.59881 0.26568 0.3029 0.0
O410 O 0.61802 0.39034 0.26719 0.0
C411 C 0.67216 0.29926 0.25531 0.0
O412 O 0.64578 0.31166 0.24109 0.0
C413 C 0.64635 0.34753 0.32995 0.0
O414 O 0.68083 0.33468 0.32316 0.0
O415 O 0.57334 0.3059 0.27751 0.0
C416 C 0.00316 0.53296 0.99234 0.0
C417 C 0.96996 0.54852 0.00362 0.0
C418 C 0.98438 0.506 0.03524 0.0
C419 C 0.01516 0.48781 0.02311 0.0
N420 N 0.04878 0.47841 0.98847 0.0
N421 N 0.92459 0.54507 0.03416 0.0
C422 C 0.02322 0.49975 0.0012 0.0
C423 C 0.95935 0.53374 0.02465 0.0
N424 N 0.01667 0.55087 0.97367 0.0
N425 N 0.97993 0.49782 0.05711 0.0
H426 H 0.90519 0.56502 0.02685 0.0
H427 H 0.91322 0.53201 0.04829 0.0
H428 H -0.00199 0.478 0.06552 0.0
H429 H 0.96079 0.51332 0.06737 0.0
H430 H 0.04328 0.54342 0.96617 0.0
H431 H 0.0033 0.57569 0.96679 0.0
H432 H 0.0524 0.4832 0.97168 0.0
H433 H 0.06366 0.45346 0.99414 0.0
C434 C 0.7604 0.72145 0.22376 0.0
C435 C 0.7218 0.72321 0.23268 0.0
C436 C 0.74672 0.7604 0.26439 0.0
C437 C 0.78454 0.76158 0.25447 0.0
N438 N 0.82533 0.75082 0.22246 0.0
N439 N 0.67657 0.75106 0.25919 0.0
C440 C 0.79085 0.74421 0.23351 0.0
C441 C 0.71446 0.74454 0.25239 0.0
N442 N 0.76844 0.69683 0.20651 0.0
N443 N 0.74187 0.77309 0.28556 0.0
H444 H 0.65207 0.74064 0.25066 0.0
H445 H 0.66928 0.76993 0.2721 0.0
H446 H 0.76488 0.78459 0.29495 0.0
H447 H 0.71597 0.76898 0.29446 0.0
H448 H 0.79692 0.69111 0.20092 0.0
H449 H 0.74712 0.67917 0.19908 0.0
H450 H 0.82981 0.74239 0.20617 0.0
H451 H 0.84805 0.76819 0.22872 0.0
C452 C 0.51326 0.48645 0.48358 0.0
C453 C 0.51447 0.44904 0.49398 0.0
C454 C 0.4742 0.47466 0.52427 0.0
C455 C 0.47651 0.51304 0.51507 0.0
N456 N 0.50501 0.55691 0.48808 0.0
N457 N 0.50353 0.4097 0.52651 0.0
C458 C 0.49789 0.51939 0.49527 0.0
C459 C 0.497 0.4437 0.51498 0.0
N460 N 0.52542 0.49032 0.46226 0.0
N461 N 0.44898 0.46728 0.54131 0.0
H462 H 0.52106 0.38668 0.52063 0.0
H463 H 0.49492 0.40601 0.54282 0.0
H464 H 0.43083 0.48883 0.54823 0.0
H465 H 0.44311 0.43896 0.54709 0.0
H466 H 0.52121 0.51594 0.4531 0.0
H467 H 0.53636 0.4668 0.45301 0.0
H468 H 0.524 0.56332 0.47511 0.0
H469 H 0.49508 0.58195 0.49634 0.0
C470 C 0.78516 0.21689 0.7295 0.0
C471 C 0.79098 0.25484 0.73877 0.0
C472 C 0.72775 0.24995 0.75809 0.0
C473 C 0.72392 0.21048 0.7506 0.0
N474 N 0.75176 0.15393 0.73207 0.0
N475 N 0.77139 0.30521 0.76469 0.0
C476 C 0.75335 0.19326 0.73704 0.0
C477 C 0.76321 0.27085 0.75381 0.0
N478 N 0.80925 0.20398 0.71295 0.0
N479 N 0.69695 0.26799 0.76858 0.0
H480 H 0.79712 0.32137 0.76214 0.0
H481 H 0.75434 0.31594 0.77763 0.0
H482 H 0.67037 0.25377 0.77185 0.0
H483 H 0.69636 0.29801 0.77225 0.0
H484 H 0.80391 0.17845 0.7039 0.0
H485 H 0.83267 0.22063 0.70686 0.0
H486 H 0.77457 0.1388 0.72427 0.0
H487 H 0.72918 0.13548 0.73748 0.0
C488 C 0.98374 0.49323 0.50174 0.0
C489 C 0.98575 0.48537 0.52464 0.0
C490 C 0.03174 0.5404 0.52933 0.0
C491 C 0.02611 0.55092 0.50696 0.0
N492 N 0.99035 0.54196 0.47297 0.0
N493 N 0.0062 0.5053 0.56095 0.0
C494 C 0.00036 0.5286 0.49343 0.0
C495 C 0.00826 0.51001 0.53867 0.0
N496 N 0.96747 0.46617 0.48776 0.0
N497 N 0.06068 0.55818 0.54143 0.0
H498 H 0.98898 0.48362 0.56842 0.0
H499 H 0.01861 0.5251 0.57207 0.0
H500 H 0.07932 0.57975 0.53503 0.0
H501 H 0.06876 0.54885 0.5571 0.0
H502 H 0.96911 0.46853 0.47071 0.0
H503 H 0.95584 0.43934 0.49305 0.0
H504 H 0.96849 0.52893 0.46338 0.0
H505 H 0.00091 0.56832 0.46641 0.0
C506 C 0.70719 0.74884 0.75246 0.0
C507 C 0.7174 0.76893 0.73274 0.0
C508 C 0.78605 0.74775 0.73702 0.0
C509 C 0.7766 0.73115 0.75779 0.0
N510 N 0.72968 0.72124 0.78703 0.0
N511 N 0.76778 0.79422 0.70857 0.0
C512 C 0.73755 0.73314 0.76601 0.0
C513 C 0.75719 0.77025 0.72564 0.0
N514 N 0.66844 0.74326 0.7578 0.0
N515 N 0.82202 0.74059 0.72764 0.0
H516 H 0.74766 0.81182 0.70007 0.0
H517 H 0.797 0.7996 0.70424 0.0
H518 H 0.84373 0.72339 0.7351 0.0
H519 H 0.8289 0.7484 0.71153 0.0
H520 H 0.65921 0.72503 0.77058 0.0
H521 H 0.64522 0.75397 0.74831 0.0
H522 H 0.70271 0.72603 0.79478 0.0
H523 H 0.75119 0.70963 0.79745 0.0
C524 C 0.50821 0.4439 0.02019 0.0
C525 C 0.49052 0.45328 -0.00033 0.0
C526 C 0.50552 0.52316 0.00554 0.0
C527 C 0.52752 0.51301 0.02459 0.0
N528 N 0.55516 0.46295 0.04821 0.0
N529 N 0.4773 0.50087 0.97113 0.0
C530 C 0.5303 0.47316 0.03146 0.0
C531 C 0.49044 0.49269 0.99188 0.0
N532 N 0.50248 0.40758 0.02942 0.0
N533 N 0.49768 0.56188 0.00096 0.0
H534 H 0.46633 0.4793 0.96054 0.0
H535 H 0.48052 0.52836 0.9637 0.0
H536 H 0.50725 0.58503 0.0109 0.0
H537 H 0.47845 0.57086 0.98858 0.0
H538 H 0.51124 0.40059 0.04536 0.0
H539 H 0.48543 0.38564 0.02209 0.0
H540 H 0.56167 0.4338 0.05227 0.0
H541 H 0.57211 0.48346 0.0568 0.0
C542 C 0.76109 0.26045 0.22378 0.0
C543 C 0.76475 0.22213 0.23294 0.0
C544 C 0.7061 0.23347 0.25567 0.0
C545 C 0.70445 0.27295 0.24794 0.0
N546 N 0.73334 0.3262 0.22724 0.0
N547 N 0.74405 0.17312 0.25925 0.0
C548 C 0.73265 0.28702 0.2326 0.0
C549 C 0.7383 0.20899 0.24945 0.0
N550 N 0.78475 0.2714 0.20664 0.0
N551 N 0.67582 0.21872 0.26803 0.0
H552 H 0.76584 0.15328 0.25427 0.0
H553 H 0.72885 0.16399 0.27322 0.0
H554 H 0.65142 0.23549 0.27268 0.0
H555 H 0.67302 0.18902 0.27208 0.0
H556 H 0.78055 0.29711 0.19758 0.0
H557 H 0.80713 0.25345 0.2004 0.0
H558 H 0.75561 0.33923 0.218 0.0
H559 H 0.71336 0.34662 0.23365 0.0
C560 C 0.2877 0.22008 0.75448 0.0
C561 C 0.27964 0.2517 0.76917 0.0
C562 C 0.20888 0.24368 0.76247 0.0
C563 C 0.21679 0.209 0.75009 0.0
N564 N 0.2636 0.16013 0.73757 0.0
N565 N 0.23227 0.28934 0.79016 0.0
C566 C 0.25618 0.19607 0.74694 0.0
C567 C 0.24012 0.26241 0.77399 0.0
N568 N 0.3252 0.21395 0.74693 0.0
N569 N 0.17185 0.25969 0.76254 0.0
H570 H 0.25429 0.30317 0.7993 0.0
H571 H 0.20392 0.29511 0.79594 0.0
H572 H 0.14841 0.24763 0.75374 0.0
H573 H 0.16536 0.28708 0.76944 0.0
H574 H 0.33195 0.19393 0.73447 0.0
H575 H 0.34901 0.23164 0.75141 0.0
H576 H 0.29158 0.14743 0.73708 0.0
H577 H 0.24138 0.14125 0.73214 0.0
C578 C 0.22373 0.68841 0.22853 0.0
C579 C 0.20413 0.70232 0.24767 0.0
C580 C 0.25237 0.75573 0.25108 0.0
C581 C 0.26922 0.74441 0.23065 0.0
N582 N 0.26666 0.70417 0.19795 0.0
N583 N 0.19507 0.75373 0.27473 0.0
C584 C 0.25374 0.71185 0.21881 0.0
C585 C 0.21715 0.73722 0.25831 0.0
N586 N 0.21478 0.65208 0.22013 0.0
N587 N 0.27086 0.78293 0.26408 0.0
H588 H 0.16871 0.74155 0.28029 0.0
H589 H 0.2009 0.78145 0.28137 0.0
H590 H 0.29726 0.79656 0.25971 0.0
H591 H 0.26212 0.78909 0.28014 0.0
H592 H 0.23095 0.63868 0.20762 0.0
H593 H 0.19361 0.63359 0.22706 0.0
H594 H 0.25347 0.68345 0.18766 0.0
H595 H 0.28816 0.72105 0.19011 0.0
C596 C 0.23596 0.2209 0.26134 0.0
C597 C 0.27512 0.2287 0.25441 0.0
C598 C 0.2505 0.2775 0.22798 0.0
C599 C 0.21126 0.2668 0.23335 0.0
N600 N 0.16656 0.22268 0.25204 0.0
N601 N 0.31924 0.25828 0.22796 0.0
C602 C 0.20391 0.23694 0.2492 0.0
C603 C 0.28233 0.25535 0.23686 0.0
N604 N 0.22933 0.19941 0.27999 0.0
N605 N 0.25751 0.30975 0.21508 0.0
H606 H 0.34322 0.24179 0.23352 0.0
H607 H 0.32523 0.27409 0.21367 0.0
H608 H 0.23504 0.3272 0.20854 0.0
H609 H 0.28556 0.32141 0.2126 0.0
H610 H 0.20158 0.19639 0.28712 0.0
H611 H 0.25202 0.18768 0.28955 0.0
H612 H 0.16018 0.1981 0.26167 0.0
H613 H 0.14236 0.2329 0.24313 0.0
C614 C 0.21845 0.76229 0.7413 0.0
C615 C 0.20921 0.75949 0.76404 0.0
C616 C 0.26134 0.71015 0.76876 0.0
C617 C 0.27328 0.71604 0.74663 0.0
N618 N 0.2682 0.75385 0.71311 0.0
N619 N 0.22742 0.73733 0.80034 0.0
C620 C 0.25326 0.74387 0.73323 0.0
C621 C 0.23229 0.73532 0.77805 0.0
N622 N 0.19314 0.78081 0.72718 0.0
N623 N 0.27636 0.67937 0.78064 0.0
H624 H 0.20723 0.75629 0.80784 0.0
H625 H 0.24619 0.7233 0.81142 0.0
H626 H 0.29659 0.65923 0.77422 0.0
H627 H 0.26565 0.67137 0.79606 0.0
H628 H 0.19643 0.77996 0.71015 0.0
H629 H 0.16674 0.7938 0.73219 0.0
H630 H 0.25709 0.777 0.7037 0.0
H631 H 0.29403 0.74162 0.70674 0.0
C632 C 0.46906 0.94967 0.48401 0.0
C633 C 0.49042 0.96114 0.50307 0.0
C634 C 0.47649 0.03055 0.49497 0.0
C635 C 0.45159 0.01883 0.47735 0.0
N636 N 0.41836 0.96685 0.45763 0.0
N637 N 0.5079 0.01186 0.52915 0.0
C638 C 0.44621 0.97825 0.47257 0.0
C639 C 0.49226 0.00143 0.50927 0.0
N640 N 0.47207 0.91197 0.47615 0.0
N641 N 0.48672 0.0693 0.49747 0.0
H642 H 0.5191 0.99133 0.54029 0.0
H643 H 0.50621 0.04037 0.53549 0.0
H644 H 0.47703 0.09148 0.48692 0.0
H645 H 0.50801 0.07886 0.50859 0.0
H646 H 0.4605 0.90319 0.46106 0.0
H647 H 0.48943 0.89035 0.48358 0.0
H648 H 0.41023 0.93753 0.45523 0.0
H649 H 0.4007 0.98688 0.4491 0.0
C650 C 0.01676 0.02193 0.97419 0.0
C651 C 0.01544 0.98361 0.98345 0.0
C652 C 0.97588 0.00831 0.01425 0.0
C653 C 0.97957 0.04713 0.00586 0.0
N654 N 0.00992 0.09229 0.98027 0.0
N655 N 0.0018 0.94174 0.01459 0.0
C656 C 0.00177 0.05438 0.98646 0.0
C657 C -0.00274 0.97716 0.00414 0.0
N658 N 0.03127 0.02713 0.95342 0.0
N659 N 0.95081 0.00087 0.03136 0.0
H660 H 0.01843 0.91866 0.00804 0.0
H661 H 0.9926 0.93663 0.03067 0.0
H662 H 0.93434 0.02283 0.03913 0.0
H663 H 0.94362 0.9725 0.03656 0.0
H664 H 0.02895 0.05358 0.94481 0.0
H665 H 0.04297 0.00409 0.94407 0.0
H666 H 0.02942 0.09939 0.96766 0.0
H667 H 4e-05 0.11688 0.98901 0.0
C668 C 0.52796 0.97586 0.98021 0.0
C669 C 0.52468 0.01484 0.98846 0.0
C670 C 0.48256 0.99193 0.01863 0.0
C671 C 0.48682 0.95271 0.01082 0.0
N672 N 0.51706 0.90589 0.98603 0.0
N673 N 0.50597 0.0595 0.01752 0.0
C674 C 0.51084 0.94421 0.99224 0.0
C675 C 0.50391 0.02277 0.00824 0.0
N676 N 0.54584 0.96944 0.96036 0.0
N677 N 0.45783 -0.00029 0.03587 0.0
H678 H 0.52193 0.08262 0.01055 0.0
H679 H 0.4949 0.06634 0.03302 0.0
H680 H 0.44362 0.97767 0.04482 0.0
H681 H 0.44954 0.02806 0.04061 0.0
H682 H 0.54533 0.94257 0.95208 0.0
H683 H 0.55925 0.99185 0.95131 0.0
H684 H 0.53783 0.89737 0.97435 0.0
H685 H 0.50305 0.88201 0.99345 0.0
C686 C 0.00154 0.01825 0.49288 0.0
C687 C 0.99195 0.03424 0.51382 0.0
C688 C 0.9362 0.98864 0.5166 0.0
C689 C 0.94888 0.96944 0.49708 0.0
N690 N -0.00123 0.96117 0.46908 0.0
N691 N 0.95475 0.02946 0.54755 0.0
C692 C 0.98299 0.98289 0.48586 0.0
C693 C 0.96053 0.018 0.52624 0.0
N694 N 0.0269 0.03769 0.4792 0.0
N695 N 0.90018 0.98005 0.52546 0.0
H696 H 0.97268 0.05001 0.55547 0.0
H697 H 0.93477 0.01565 0.55803 0.0
H698 H 0.88077 0.9598 0.51843 0.0
H699 H 0.88784 0.99598 0.53841 0.0
H700 H 0.03162 0.02931 0.46292 0.0
H701 H 0.04005 0.06451 0.48323 0.0
H702 H 0.02597 0.96757 0.46195 0.0
H703 H 0.98679 0.93456 0.46375 0.0
C704 C 0.04175 0.22636 0.02504 0.0
C705 C 0.00257 0.23058 0.03283 0.0
C706 C 0.0175 0.29652 0.04682 0.0
C707 C 0.05589 0.2936 0.03755 0.0
N708 N 0.1026 0.25892 0.01467 0.0
N709 N 0.95078 0.27124 0.04796 0.0
C710 C 0.06757 0.25933 0.02581 0.0
C711 C 0.98967 0.26626 0.04263 0.0
N712 N 0.05438 0.19069 0.01719 0.0
N713 N 0.00831 0.32696 0.06071 0.0
H714 H 0.92969 0.24915 0.04599 0.0
H715 H 0.93878 0.29823 0.05271 0.0
H716 H 0.02798 0.34938 0.06479 0.0
H717 H 0.98244 0.32815 0.06991 0.0
H718 H 0.08376 0.18439 0.01364 0.0
H719 H 0.03578 0.16637 0.01554 0.0
H720 H 0.11095 0.23643 0.00396 0.0
H721 H 0.12201 0.28275 0.01461 0.0
C722 C 0.04295 0.77039 0.27388 0.0
C723 C 0.03856 0.73382 0.28491 0.0
C724 C 0.97038 0.75052 0.29455 0.0
C725 C 0.97595 0.7885 0.28521 0.0
N726 N 0.01765 0.83646 0.26752 0.0
N727 N 0.0006 0.69037 0.30808 0.0
C728 C 0.01231 0.79899 0.2753 0.0
C729 C 0.0028 0.72399 0.29568 0.0
N730 N 0.07598 0.77716 0.26154 0.0
N731 N 0.93418 0.73994 0.30252 0.0
H732 H 0.02361 0.67004 0.3093 0.0
H733 H 0.97718 0.68384 0.31851 0.0
H734 H 0.9104 0.75939 0.30356 0.0
H735 H 0.92685 0.71121 0.30694 0.0
H736 H 0.07952 0.80151 0.25132 0.0
H737 H 0.09884 0.75667 0.26009 0.0
H738 H 0.04478 0.84748 0.26243 0.0
H739 H 0.99523 0.85757 0.2673 0.0
C740 C 0.49451 0.72853 0.54254 0.0
C741 C 0.49529 0.70238 0.52434 0.0
C742 C 0.54064 0.74649 0.50491 0.0
C743 C 0.54295 0.77047 0.52401 0.0
N744 N 0.52878 0.77966 0.5626 0.0
N745 N 0.52214 0.68338 0.48917 0.0
C746 C 0.52157 0.76035 0.54326 0.0
C747 C 0.5194 0.71037 0.50582 0.0
N748 N 0.46786 0.7231 0.55912 0.0
N749 N 0.55713 0.75907 0.48564 0.0
H750 H 0.50543 0.65758 0.48873 0.0
H751 H 0.54274 0.68532 0.47652 0.0
H752 H 0.5723 0.78568 0.48421 0.0
H753 H 0.55288 0.74493 0.47063 0.0
H754 H 0.46306 0.7437 0.57156 0.0
H755 H 0.44803 0.69969 0.55946 0.0
H756 H 0.5171 0.77086 0.57765 0.0
H757 H 0.54971 0.80198 0.56412 0.0
C758 C 0.54559 0.27028 0.76889 0.0
C759 C 0.546 0.23457 0.78095 0.0
C760 C 0.47753 0.24528 0.79235 0.0
C761 C 0.47863 0.28335 0.78255 0.0
N762 N 0.5129 0.33254 0.7612 0.0
N763 N 0.51465 0.18922 0.80596 0.0
C764 C 0.51247 0.29594 0.77067 0.0
C765 C 0.51242 0.22208 0.79293 0.0
N766 N 0.57655 0.27901 0.75532 0.0
N767 N 0.44333 0.23126 0.80129 0.0
H768 H 0.53944 0.17102 0.80667 0.0
H769 H 0.49313 0.18143 0.81735 0.0
H770 H 0.41761 0.2478 0.8025 0.0
H771 H 0.43942 0.20204 0.80607 0.0
H772 H 0.57687 0.30268 0.74445 0.0
H773 H 0.60108 0.26062 0.75366 0.0
H774 H 0.53807 0.34568 0.75475 0.0
H775 H 0.48807 0.3507 0.76043 0.0
C776 C 0.98538 0.7761 0.44367 0.0
C777 C 0.98297 0.80419 0.46092 0.0
C778 C 0.03758 0.772 0.48034 0.0
C779 C 0.03906 0.74305 0.46349 0.0
N780 N 0.01393 0.71524 0.42978 0.0
N781 N 0.0031 0.8279 0.49652 0.0
C782 C 0.01277 0.74443 0.44533 0.0
C783 C 0.00804 0.80184 0.47953 0.0
N784 N 0.96179 0.78019 0.42555 0.0
N785 N 0.06478 0.77111 0.49695 0.0
H786 H 0.98274 0.85097 0.49607 0.0
H787 H 0.0174 0.82566 0.51159 0.0
H788 H 0.08562 0.74865 0.49864 0.0
H789 H 0.06832 0.79347 0.50849 0.0
H790 H 0.96498 0.76391 0.41116 0.0
H791 H 0.93947 0.8013 0.42447 0.0
H792 H 0.99291 0.71159 0.41751 0.0
H793 H 0.03539 0.69321 0.42956 0.0
C794 C 0.53458 0.70915 0.72082 0.0
C795 C 0.53228 0.74754 0.71163 0.0
C796 C 0.46188 0.7384 0.70428 0.0
C797 C 0.46545 0.69834 0.71081 0.0
N798 N 0.50476 0.64455 0.72477 0.0
N799 N 0.4956 0.79706 0.69168 0.0
C800 C 0.50171 0.68343 0.71898 0.0
C801 C 0.49632 0.76199 0.70282 0.0
N802 N 0.56781 0.6978 0.73187 0.0
N803 N 0.42574 0.7539 0.69925 0.0
H804 H 0.52028 0.81502 0.68974 0.0
H805 H 0.47146 0.80682 0.6826 0.0
H806 H 0.39985 0.73746 0.6992 0.0
H807 H 0.42083 0.78394 0.6969 0.0
H808 H 0.57 0.67183 0.74092 0.0
H809 H 0.59237 0.71598 0.73356 0.0
H810 H 0.53143 0.63056 0.72813 0.0
H811 H 0.48061 0.62555 0.72525 0.0
C812 C 0.47937 0.1938 0.97519 0.0
C813 C 0.51552 0.19678 0.96367 0.0
C814 C 0.50366 0.26699 0.95692 0.0
C815 C 0.46506 0.26266 0.96573 0.0
N816 N 0.41556 0.2227 0.98344 0.0
N817 N 0.56259 0.2348 0.943 0.0
C818 C 0.45279 0.22626 0.97501 0.0
C819 C 0.52805 0.23312 0.9546 0.0
N820 N 0.47103 0.16021 0.9867 0.0
N821 N 0.51705 0.30337 0.95075 0.0
H822 H 0.58221 0.21114 0.94195 0.0
H823 H 0.57098 0.25879 0.93342 0.0
H824 H 0.4998 0.32873 0.95127 0.0
H825 H 0.54625 0.30917 0.94663 0.0
H826 H 0.44692 0.15717 0.99714 0.0
H827 H 0.49032 0.13626 0.98734 0.0
H828 H 0.40296 0.1959 0.98789 0.0
H829 H 0.39636 0.24657 0.98518 0.0
C830 C 0.01543 0.20877 0.22982 0.0
C831 C 0.02711 0.23271 0.21185 0.0
C832 C 0.97226 0.20767 0.18962 0.0
C833 C 0.96136 0.1827 0.20733 0.0
N834 N 0.97408 0.15542 0.24321 0.0
N835 N 0.02 0.25302 0.17404 0.0
C836 C 0.98348 0.182 0.22713 0.0
C837 C 0.00651 0.23154 0.19154 0.0
N838 N 0.0346 0.21217 0.24952 0.0
N839 N 0.94942 0.20895 0.17109 0.0
H840 H 0.04339 0.27286 0.17512 0.0
H841 H 0.00953 0.24996 0.15806 0.0
H842 H 0.92566 0.19009 0.16846 0.0
H843 H 0.95256 0.2298 0.15868 0.0
H844 H 0.02515 0.19892 0.26401 0.0
H845 H 0.05917 0.2302 0.25176 0.0
H846 H 0.99128 0.15027 0.25707 0.0
H847 H 0.94993 0.13651 0.24215 0.0
C848 C 0.96011 0.76958 0.98137 0.0
C849 C 0.95722 0.74012 0.9649 0.0
C850 C 0.01272 0.7694 0.94516 0.0
C851 C 0.01207 0.80181 0.95985 0.0
N852 N 0.98336 0.83475 0.99124 0.0
N853 N 0.97628 0.71532 0.92918 0.0
C854 C 0.98549 0.80237 0.97791 0.0
C855 C 0.9824 0.7408 0.94628 0.0
N856 N 0.93947 0.76564 0.00055 0.0
N857 N 0.04318 0.76522 0.93064 0.0
H858 H 0.95371 0.69448 0.92906 0.0
H859 H 0.9911 0.7174 0.91422 0.0
H860 H 0.067 0.78461 0.93029 0.0
H861 H 0.04715 0.74029 0.92084 0.0
H862 H 0.94356 0.78387 0.01415 0.0
H863 H 0.92053 0.74204 0.00359 0.0
H864 H 0.96129 0.83901 0.00291 0.0
H865 H 0.00233 0.85868 0.98973 0.0
C866 C 0.00759 0.28641 0.73896 0.0
C867 C 0.99001 0.29963 0.71913 0.0
C868 C 0.03785 0.26169 0.69748 0.0
C869 C 0.05435 0.24703 0.71732 0.0
N870 N 0.05298 0.24106 0.7568 0.0
N871 N 0.98358 0.29553 0.67969 0.0
C872 C 0.03853 0.258 0.73805 0.0
C873 C 0.00398 0.28629 0.69841 0.0
N874 N 0.99556 0.30216 0.75856 0.0
N875 N 0.05451 0.25195 0.6777 0.0
H876 H 0.95872 0.31363 0.67963 0.0
H877 H 0.98924 0.28303 0.66438 0.0
H878 H 0.07692 0.23108 0.67602 0.0
H879 H 0.04751 0.26586 0.66296 0.0
H880 H 0.00967 0.29705 0.77347 0.0
H881 H 0.97285 0.32287 0.75976 0.0
H882 H 0.04014 0.24443 0.77222 0.0
H883 H 0.07667 0.2214 0.75681 0.0
C884 C 0.53842 0.2317 0.48206 0.0
C885 C 0.54914 0.254 0.46329 0.0
C886 C 0.50416 0.21527 0.44028 0.0
C887 C 0.49157 0.19463 0.45932 0.0
N888 N 0.49331 0.18469 0.49858 0.0
N889 N 0.54127 0.26981 0.42492 0.0
C890 C 0.50772 0.2033 0.48031 0.0
C891 C 0.53181 0.24647 0.44248 0.0
N892 N 0.55813 0.23732 0.50143 0.0
N893 N 0.48972 0.20486 0.42008 0.0
H894 H 0.56306 0.29137 0.42561 0.0
H895 H 0.52646 0.26939 0.40995 0.0
H896 H 0.46721 0.18431 0.4179 0.0
H897 H 0.5011 0.21509 0.40526 0.0
H898 H 0.55488 0.21936 0.51517 0.0
H899 H 0.58002 0.25862 0.5034 0.0
H900 H 0.50054 0.19258 0.5146 0.0
H901 H 0.47204 0.16257 0.49787 0.0
C902 C 0.4959 0.79732 0.23042 0.0
C903 C 0.46499 0.78494 0.21637 0.0
C904 C 0.5029 0.72657 0.20549 0.0
C905 C 0.53318 0.738 0.22028 0.0
N906 N 0.55622 0.77982 0.2496 0.0
N907 N 0.43527 0.73497 0.1935 0.0
C908 C 0.529 0.77214 0.23359 0.0
C909 C 0.46723 0.74852 0.20494 0.0
N910 N 0.49394 0.83352 0.24032 0.0
N911 N 0.50916 0.6963 0.19098 0.0
H912 H 0.4091 0.75093 0.19196 0.0
H913 H 0.43351 0.70662 0.18697 0.0
H914 H 0.53499 0.6796 0.1906 0.0
H915 H 0.49017 0.68972 0.17805 0.0
H916 H 0.51739 0.84632 0.24873 0.0
H917 H 0.46937 0.85196 0.23904 0.0
H918 H 0.55305 0.80207 0.26128 0.0
H919 H 0.58059 0.7617 0.25242 0.0
C920 C 0.98708 0.28333 0.54643 0.0
C921 C 0.95486 0.28418 0.53155 0.0
C922 C 0.97435 0.21974 0.51674 0.0
C923 C 0.00663 0.21919 0.53159 0.0
N924 N 0.05048 0.25468 0.55552 0.0
N925 N 0.92183 0.25785 0.49973 0.0
C926 C 0.01509 0.2524 0.54485 0.0
C927 C 0.94971 0.25375 0.5158 0.0
N928 N 0.9898 0.3108 0.56285 0.0
N929 N 0.96644 0.18728 0.50417 0.0
H930 H 0.90327 0.28238 0.4987 0.0
H931 H 0.91905 0.23867 0.48645 0.0
H932 H 0.98523 0.16298 0.50339 0.0
H933 H 0.94059 0.18367 0.49518 0.0
H934 H 0.01006 0.30887 0.57567 0.0
H935 H 0.96969 0.33382 0.56484 0.0
H936 H 0.06 0.27972 0.5639 0.0
H937 H 0.0722 0.23303 0.55387 0.0
C938 C 0.5034 0.19456 0.26609 0.0
C939 C 0.47326 0.19496 0.28228 0.0
C940 C 0.50796 0.24666 0.30279 0.0
C941 C 0.53703 0.24768 0.28602 0.0
N942 N 0.56124 0.22646 0.25067 0.0
N943 N 0.44384 0.22345 0.31478 0.0
C944 C 0.53436 0.22277 0.26732 0.0
C945 C 0.47464 0.22168 0.30026 0.0
N946 N 0.5026 0.16683 0.24974 0.0
N947 N 0.51263 0.26916 0.3213 0.0
H948 H 0.41986 0.2043 0.31421 0.0
H949 H 0.44066 0.24529 0.32668 0.0
H950 H 0.53539 0.28954 0.32322 0.0
H951 H 0.49536 0.26629 0.33535 0.0
H952 H 0.52574 0.16185 0.23885 0.0
H953 H 0.47944 0.14694 0.24773 0.0
H954 H 0.55877 0.21235 0.23554 0.0
H955 H 0.58516 0.24572 0.25139 0.0
C956 C 0.45736 0.73156 0.01578 0.0
C957 C 0.44947 0.756 0.03421 0.0
C958 C 0.49672 0.7187 0.05659 0.0
C959 C 0.50548 0.69498 0.03796 0.0
N960 N 0.49802 0.68022 -0.00059 0.0
N961 N 0.46186 0.77516 0.07175 0.0
C962 C 0.48696 0.70188 0.01739 0.0
C963 C 0.46926 0.75021 0.05453 0.0
N964 N 0.43601 0.73644 0.99688 0.0
N965 N 0.51456 0.71073 0.07629 0.0
H966 H 0.43979 0.79656 0.07138 0.0
H967 H 0.47813 0.77587 0.08623 0.0
H968 H 0.53727 0.69019 0.07801 0.0
H969 H 0.50642 0.72339 0.0912 0.0
H970 H 0.43705 0.71725 0.98355 0.0
H971 H 0.4152 0.75884 0.99486 0.0
H972 H 0.48886 0.68613 0.98344 0.0
H973 H 0.51847 0.65725 0.00016 0.0
C974 C -0.00072 0.69468 0.7755 0.0
C975 C 0.96485 0.70297 0.78787 0.0
C976 C 0.99288 0.76569 0.80034 0.0
C977 C 0.02713 0.75773 0.78767 0.0
N978 N 0.06074 0.71886 0.76018 0.0
N979 N 0.92539 0.74824 0.80922 0.0
C980 C 0.02959 0.72356 0.77422 0.0
C981 C 0.96056 0.73914 0.7994 0.0
N982 N 0.00335 0.65875 0.76548 0.0
N983 N 0.9916 0.79838 0.81355 0.0
H984 H 0.90145 0.729 0.80954 0.0
H985 H 0.91872 0.7758 0.81581 0.0
H986 H 0.01334 0.82012 0.81343 0.0
H987 H 0.96997 0.80333 0.82538 0.0
H988 H 0.02945 0.64886 0.75833 0.0
H989 H 0.98109 0.63754 0.76542 0.0
H990 H 0.06239 0.69672 0.74835 0.0
H991 H 0.08388 0.73893 0.75912 0.0
C992 C 0.26752 0.37252 0.99481 0.0
C993 C 0.29887 0.39606 0.00293 0.0
C994 C 0.25682 0.42051 0.0327 0.0
C995 C 0.22645 0.39482 0.02553 0.0
N996 N 0.20463 0.34141 0.00232 0.0
N997 N 0.3263 0.43694 0.03154 0.0
C998 C 0.23226 0.36939 0.00728 0.0
C999 C 0.29437 0.41854 0.02244 0.0
N1000 N 0.27083 0.35447 0.97477 0.0
N1001 N 0.24931 0.44787 0.04871 0.0
H1002 H 0.35437 0.43598 0.02454 0.0
H1003 H 0.32585 0.4502 0.04699 0.0
H1004 H 0.2221 0.45034 0.0566 0.0
H1005 H 0.26886 0.4703 0.0529 0.0
H1006 H 0.2474 0.34062 0.96687 0.0
H1007 H 0.29619 0.35605 0.96511 0.0
H1008 H 0.20911 0.3192 0.99074 0.0
H1009 H 0.1784 0.33825 0.0111 0.0
C1010 C 0.81891 0.99637 0.21808 0.0
C1011 C 0.8464 0.02591 0.22419 0.0
C1012 C 0.86604 0.98697 0.25629 0.0
C1013 C 0.84154 0.9558 0.24887 0.0
N1014 N 0.79919 0.92793 0.22106 0.0
N1015 N 0.90012 0.0476 0.2472 0.0
C1016 C 0.81909 0.95971 0.22934 0.0
C1017 C 0.87101 0.02085 0.24283 0.0
N1018 N 0.79165 0.0039 0.20205 0.0
N1019 N 0.88349 0.98475 0.27652 0.0
H1020 H 0.90466 0.07284 0.23775 0.0
H1021 H 0.92181 0.04324 0.25906 0.0
H1022 H 0.88042 0.96043 0.28688 0.0
H1023 H 0.89817 0.00828 0.28386 0.0
H1024 H 0.76818 0.98516 0.19853 0.0
H1025 H 0.79024 0.03062 0.19358 0.0
H1026 H 0.78599 0.92774 0.2056 0.0
H1027 H 0.79868 0.90047 0.22879 0.0
C1028 C 0.23175 0.65926 0.48704 0.0
C1029 C 0.20845 0.6274 0.49481 0.0
C1030 C 0.26217 0.60564 0.51877 0.0
C1031 C 0.28492 0.63831 0.51158 0.0
N1032 N 0.28976 0.70008 0.49223 0.0
N1033 N 0.19765 0.57509 0.52091 0.0
C1034 C 0.2691 0.66646 0.49682 0.0
C1035 C 0.22259 0.6019 0.51149 0.0
N1036 N 0.21913 0.68129 0.46956 0.0
N1037 N 0.27862 0.57795 0.53233 0.0
H1038 H 0.16828 0.57191 0.51612 0.0
H1039 H 0.20481 0.55839 0.53469 0.0
H1040 H 0.30678 0.58073 0.53904 0.0
H1041 H 0.26536 0.55105 0.53596 0.0
H1042 H 0.23667 0.70196 0.46155 0.0
H1043 H 0.19205 0.67688 0.46183 0.0
H1044 H 0.27805 0.72376 0.48349 0.0
H1045 H 0.31776 0.70564 0.4986 0.0
C1046 C 0.60096 0.01829 0.74183 0.0
C1047 C 0.62301 0.02741 0.76094 0.0
C1048 C 0.65136 0.96104 0.76112 0.0
C1049 C 0.63223 0.95299 0.74088 0.0
N1050 N 0.59416 0.97612 0.70987 0.0
N1051 N 0.67537 0.011 0.78613 0.0
C1052 C 0.60833 0.98216 0.73065 0.0
C1053 C 0.65007 -0.00018 0.76981 0.0
N1054 N 0.57255 0.04383 0.73461 0.0
N1055 N 0.66918 0.93128 0.77261 0.0
H1056 H 0.67576 0.03948 0.79257 0.0
H1057 H 0.69846 0.99332 0.79169 0.0
H1058 H 0.66965 0.90206 0.76723 0.0
H1059 H 0.67994 0.93475 0.78853 0.0
H1060 H 0.55245 0.03686 0.72226 0.0
H1061 H 0.56714 0.07104 0.74208 0.0
H1062 H 0.58013 -0.00207 0.70069 0.0
H1063 H 0.59942 0.95037 0.70095 0.0
C1064 C 0.73346 0.6491 0.00769 0.0
C1065 C 0.72288 0.61792 0.02204 0.0
C1066 C 0.78462 0.58355 0.01357 0.0
C1067 C 0.79327 0.61271 0.99758 0.0
N1068 N 0.7732 0.66992 0.97673 0.0
N1069 N 0.7348 0.55236 0.03611 0.0
C1070 C 0.76705 0.64473 0.99394 0.0
C1071 C 0.74754 0.58432 0.02439 0.0
N1072 N 0.71207 0.68333 0.00768 0.0
N1073 N 0.81233 0.55582 0.01894 0.0
H1074 H 0.70762 0.55146 0.04412 0.0
H1075 H 0.74956 0.52539 0.03632 0.0
H1076 H 0.83984 0.55418 0.01134 0.0
H1077 H 0.80947 0.53665 0.03222 0.0
H1078 H 0.7208 0.70869 -0.00064 0.0
H1079 H 0.6873 0.68761 0.01759 0.0
H1080 H 0.75279 0.69112 0.9718 0.0
H1081 H 0.79717 0.66747 0.96606 0.0
C1082 C 0.15374 0.96091 0.72663 0.0
C1083 C 0.13273 0.95266 0.74625 0.0
C1084 C 0.10052 0.01741 0.74423 0.0
C1085 C 0.12475 0.02711 0.72604 0.0
N1086 N 0.17992 0.01122 0.70255 0.0
N1087 N 0.09092 0.97539 0.7759 0.0
C1088 C 0.15285 -0.0003 0.7179 0.0
C1089 C 0.10726 0.98147 0.75564 0.0
N1090 N 0.17341 0.93138 0.7159 0.0
N1091 N 0.07032 0.04195 0.7502 0.0
H1092 H 0.0952 0.94967 0.78496 0.0
H1093 H 0.07592 -0.00279 0.78462 0.0
H1094 H 0.06447 0.06856 0.74222 0.0
H1095 H 0.04898 0.03436 0.76176 0.0
H1096 H 0.18579 0.93483 0.70035 0.0
H1097 H 0.17399 0.9023 0.7215 0.0
H1098 H 0.20363 0.99368 0.69769 0.0
H1099 H 0.18111 0.03982 0.69628 0.0
C1100 C 0.75009 0.40772 0.53005 0.0
C1101 C 0.77976 0.38152 0.52239 0.0
C1102 C 0.73724 0.3607 0.49202 0.0
C1103 C 0.70669 0.38498 0.50053 0.0
N1104 N 0.68092 0.42583 0.52965 0.0
N1105 N 0.79969 0.32793 0.49874 0.0
C1106 C 0.71221 0.40684 0.52015 0.0
C1107 C 0.77281 0.35649 0.50412 0.0
N1108 N 0.75863 0.43464 0.54612 0.0
N1109 N 0.73296 0.34305 0.47193 0.0
H1110 H 0.82612 0.324 0.50725 0.0
H1111 H 0.79439 0.30601 0.48712 0.0
H1112 H 0.70736 0.34536 0.46252 0.0
H1113 H 0.75585 0.32874 0.46374 0.0
H1114 H 0.7396 0.45738 0.55066 0.0
H1115 H 0.78614 0.43648 0.5537 0.0
H1116 H 0.68206 0.43873 0.54518 0.0
H1117 H 0.65266 0.42568 0.52288 0.0
C1118 C 0.32417 0.01674 0.23286 0.0
C1119 C 0.35251 0.02988 0.24835 0.0
C1120 C 0.39287 0.97108 0.24136 0.0
C1121 C 0.36255 0.95613 0.22765 0.0
N1122 N 0.29777 0.96235 0.21163 0.0
N1123 N 0.41109 0.01765 0.26984 0.0
C1124 C 0.32768 0.97826 0.22379 0.0
C1125 C 0.38636 0.00673 0.25316 0.0
N1126 N 0.29484 0.04174 0.22614 0.0
N1127 N 0.42783 0.95115 0.24314 0.0
H1128 H 0.40712 0.04324 0.27911 0.0
H1129 H 0.43371 -0.00018 0.2758 0.0
H1130 H 0.43301 0.92397 0.2356 0.0
H1131 H 0.45269 0.96276 0.25079 0.0
H1132 H 0.27574 0.03554 0.2132 0.0
H1133 H 0.29172 0.0704 0.23217 0.0
H1134 H 0.26981 0.9749 0.21045 0.0
H1135 H 0.29999 0.93511 0.20375 0.0
C1136 C 0.75122 0.86711 0.49338 0.0
C1137 C 0.77179 0.90239 0.48832 0.0
C1138 C 0.71889 0.94129 0.50514 0.0
C1139 C 0.70031 0.90596 0.51213 0.0
N1140 N 0.70432 0.83545 0.51754 0.0
N1141 N 0.78014 0.9723 0.49452 0.0
C1142 C 0.71806 0.86886 0.5076 0.0
C1143 C 0.7571 0.93931 0.49571 0.0
N1144 N 0.76211 0.83218 0.48389 0.0
N1145 N 0.69946 0.97659 0.50645 0.0
H1146 H 0.80898 0.97184 0.48857 0.0
H1147 H 0.77219 -0.00089 0.50168 0.0
H1148 H 0.67072 0.97933 0.51235 0.0
H1149 H 0.71031 0.00249 0.4995 0.0
H1150 H 0.74549 0.80647 0.48529 0.0
H1151 H 0.7855 0.82967 0.47285 0.0
H1152 H 0.71862 0.80828 0.51643 0.0
H1153 H 0.68118 0.83569 0.52882 0.0
C1154 C 0.41405 0.51862 0.75209 0.0
C1155 C 0.38122 0.52918 0.73889 0.0
C1156 C 0.34597 0.47015 0.75104 0.0
C1157 C 0.38017 0.45774 0.76258 0.0
N1158 N 0.44945 0.46598 0.7704 0.0
N1159 N 0.31956 0.51081 0.72188 0.0
C1160 C 0.41504 0.48078 0.76206 0.0
C1161 C 0.34816 0.50376 0.73723 0.0
N1162 N 0.44351 0.54526 0.75586 0.0
N1163 N 0.3109 0.45104 0.75403 0.0
H1164 H 0.32049 0.5346 0.71103 0.0
H1165 H 0.29702 0.49091 0.71842 0.0
H1166 H 0.30763 0.42682 0.76442 0.0
H1167 H 0.28422 0.46154 0.74786 0.0
H1168 H 0.46604 0.5406 0.7672 0.0
H1169 H 0.44347 0.57364 0.74924 0.0
H1170 H 0.47662 0.47982 0.76844 0.0
H1171 H 0.45158 0.43796 0.7774 0.0
C1172 C 0.78526 0.11593 0.975 0.0
C1173 C 0.79632 0.14087 0.99266 0.0
C1174 C 0.73055 0.17112 0.99257 0.0
C1175 C 0.71813 0.14232 0.97719 0.0
N1176 N 0.73235 0.08639 0.95391 0.0
N1177 N 0.77937 0.19073 0.0195 0.0
C1178 C 0.74516 0.11452 0.96837 0.0
C1179 C 0.76914 0.16854 0.0016 0.0
N1180 N 0.81347 0.09467 0.96408 0.0
N1181 N 0.70544 0.20088 0.99852 0.0
H1182 H 0.80746 0.1904 0.02641 0.0
H1183 H 0.75937 0.20762 0.02847 0.0
H1184 H 0.67656 0.20288 0.99272 0.0
H1185 H 0.71404 0.22521 0.0078 0.0
H1186 H 0.8081 0.07887 0.94972 0.0
H1187 H 0.84332 0.09586 0.9682 0.0
H1188 H 0.74935 0.06233 0.94902 0.0
H1189 H 0.70373 0.08578 0.94763 0.0
C1190 C 0.13272 0.48965 0.28148 0.0
C1191 C 0.10547 0.51699 0.27251 0.0
C1192 C 0.08705 0.46922 0.2441 0.0
C1193 C 0.112 0.44078 0.25423 0.0
N1194 N 0.15165 0.42113 0.28528 0.0
N1195 N 0.05193 0.53131 0.24772 0.0
C1196 C 0.13281 0.45018 0.27375 0.0
C1197 C 0.08117 0.50633 0.25453 0.0
N1198 N 0.15979 0.50184 0.29667 0.0
N1199 N 0.07057 0.46169 0.22403 0.0
H1200 H 0.04714 0.55895 0.25482 0.0
H1201 H 0.03045 0.52338 0.23632 0.0
H1202 H 0.07408 0.43504 0.2157 0.0
H1203 H 0.05607 0.48302 0.21472 0.0
H1204 H 0.18296 0.48418 0.30213 0.0
H1205 H 0.16154 0.53093 0.30216 0.0
H1206 H 0.16393 0.42558 0.30078 0.0
H1207 H 0.15153 0.39161 0.28042 0.0
C1208 C 0.21052 0.15561 0.48753 0.0
C1209 C 0.1991 0.13407 0.5064 0.0
C1210 C 0.26411 0.10271 0.50806 0.0
C1211 C 0.27405 0.1208 0.48778 0.0
N1212 N 0.25543 0.16116 0.45672 0.0
N1213 N 0.21261 0.08414 0.53364 0.0
C1214 C 0.24704 0.14665 0.47716 0.0
C1215 C 0.22521 0.10672 0.51639 0.0
N1216 N 0.18664 0.18495 0.47969 0.0
N1217 N 0.29242 0.08329 0.51989 0.0
H1218 H 0.1848 0.08724 0.54078 0.0
H1219 H 0.22861 0.06042 0.5399 0.0
H1220 H 0.32162 0.08078 0.51467 0.0
H1221 H 0.28809 0.07303 0.53583 0.0
H1222 H 0.19518 0.20473 0.4675 0.0
H1223 H 0.15918 0.19149 0.48655 0.0
H1224 H 0.23505 0.1762 0.44704 0.0
H1225 H 0.28193 0.15571 0.44862 0.0
C1226 C 0.64895 0.46064 0.23954 0.0
C1227 C 0.64099 0.45627 0.26229 0.0
C1228 C 0.63836 0.52801 0.2667 0.0
C1229 C 0.64333 0.53238 0.24369 0.0
N1230 N 0.64468 0.50287 0.20753 0.0
N1231 N 0.61833 0.48491 0.29634 0.0
C1232 C 0.6462 0.49869 0.22987 0.0
C1233 C 0.63286 0.48972 0.27556 0.0
N1234 N 0.66045 0.42877 0.22732 0.0
N1235 N 0.64052 0.56016 0.28024 0.0
H1236 H 0.61214 0.45724 0.30295 0.0
H1237 H 0.60835 0.50824 0.30603 0.0
H1238 H 0.64534 0.58872 0.27447 0.0
H1239 H 0.64129 0.55804 0.29732 0.0
H1240 H 0.67099 0.43102 0.21128 0.0
H1241 H 0.6625 0.40034 0.23376 0.0
H1242 H 0.64261 0.4791 0.19673 0.0
H1243 H 0.64154 0.53015 0.19979 0.0
C1244 C 0.23901 0.90403 0.97322 0.0
C1245 C 0.21459 0.87133 0.97831 0.0
C1246 C 0.26313 0.84712 0.00485 0.0
C1247 C 0.2882 0.87908 -0.00079 0.0
N1248 N 0.30419 0.9332 0.97515 0.0
N1249 N 0.20554 0.80808 0.99563 0.0
C1250 C 0.27731 0.90625 0.98257 0.0
C1251 C 0.22746 0.84157 0.993 0.0
N1252 N 0.22538 0.9332 0.95966 0.0
N1253 N 0.27227 0.82347 0.02235 0.0
H1254 H 0.17855 0.80369 0.98779 0.0
H1255 H 0.2154 0.7834 0.00421 0.0
H1256 H 0.29789 0.82673 0.03164 0.0
H1257 H 0.25307 0.80257 0.02884 0.0
H1258 H 0.23963 0.96009 0.95749 0.0
H1259 H 0.19847 0.93153 0.95141 0.0
H1260 H 0.29959 0.95118 0.96153 0.0
H1261 H 0.33273 0.93526 0.98144 0.0
C1262 C 0.83692 0.45594 0.76774 0.0
C1263 C 0.83833 0.4532 0.74449 0.0
C1264 C 0.83087 0.52484 0.74146 0.0
C1265 C 0.83357 0.52795 0.76466 0.0
N1266 N 0.84608 0.49729 0.79981 0.0
N1267 N 0.84443 0.48525 0.7092 0.0
C1268 C 0.83841 0.49372 0.77783 0.0
C1269 C 0.8374 0.48771 0.73131 0.0
N1270 N 0.83281 0.42257 0.78014 0.0
N1271 N 0.82059 0.55701 0.72916 0.0
H1272 H 0.85036 0.4587 0.70117 0.0
H1273 H 0.84821 0.50988 0.69919 0.0
H1274 H 0.8148 0.58465 0.73601 0.0
H1275 H 0.81407 0.55544 0.71245 0.0
H1276 H 0.8273 0.42308 0.79699 0.0
H1277 H 0.83136 0.39436 0.77333 0.0
H1278 H 0.85405 0.47356 0.80974 0.0
H1279 H 0.84806 0.52445 0.80781 0.0
C1280 C 0.10948 0.43174 0.13016 0.0
C1281 C 0.10213 0.40194 0.11434 0.0
C1282 C 0.11967 0.35099 0.14121 0.0
C1283 C 0.12305 0.38044 0.15767 0.0
N1284 N 0.11541 0.44858 0.16871 0.0
N1285 N 0.09343 0.33303 0.10561 0.0
C1286 C 0.11662 0.42083 0.1524 0.0
C1287 C 0.10545 0.36148 0.12006 0.0
N1288 N 0.11072 0.47042 0.12383 0.0
N1289 N 0.13127 0.31314 0.14559 0.0
H1290 H 0.08222 0.33954 0.09009 0.0
H1291 H 0.09102 0.30331 0.10973 0.0
H1292 H 0.14254 0.30446 0.16078 0.0
H1293 H 0.13339 0.29128 0.1336 0.0
H1294 H 0.12036 0.49311 0.13405 0.0
H1295 H 0.10517 0.47953 0.10774 0.0
H1296 H 0.10614 0.47754 0.1662 0.0
H1297 H 0.12061 0.4421 0.18519 0.0
C1298 C 0.88501 0.86664 0.38136 0.0
C1299 C 0.86046 0.89405 0.39251 0.0
C1300 C 0.82031 0.90154 0.35922 0.0
C1301 C 0.84231 0.87089 0.349 0.0
N1302 N 0.88999 0.81818 0.35231 0.0
N1303 N 0.80045 0.93244 0.39343 0.0
C1304 C 0.87306 0.85166 0.36065 0.0
C1305 C 0.82687 0.91013 0.38183 0.0
N1306 N 0.92068 0.85623 0.39007 0.0
N1307 N 0.79447 0.92368 0.34715 0.0
H1308 H 0.80399 0.93914 0.41004 0.0
H1309 H 0.77332 0.94131 0.38708 0.0
H1310 H 0.78931 0.91889 0.33047 0.0
H1311 H 0.78088 0.94906 0.35319 0.0
H1312 H 0.94144 0.83937 0.3816 0.0
H1313 H 0.93132 0.86795 0.40475 0.0
H1314 H 0.90982 0.80087 0.36115 0.0
H1315 H 0.88113 0.80532 0.33753 0.0
C1316 C 0.35479 0.66029 0.62416 0.0
C1317 C 0.36923 0.6364 0.64152 0.0
C1318 C 0.4044 0.59523 0.61455 0.0
C1319 C 0.39525 0.62306 0.59801 0.0
N1320 N 0.36569 0.68504 0.58739 0.0
N1321 N 0.41103 0.58221 0.65336 0.0
C1322 C 0.37123 0.65626 0.60282 0.0
C1323 C 0.39448 0.60376 0.63677 0.0
N1324 N 0.32465 0.68623 0.62799 0.0
N1325 N 0.42206 0.56033 0.60896 0.0
H1326 H 0.40441 0.58626 0.66985 0.0
H1327 H 0.43364 0.56185 0.65087 0.0
H1328 H 0.43 0.55337 0.59284 0.0
H1329 H 0.42551 0.53692 0.61987 0.0
H1330 H 0.31039 0.70176 0.61553 0.0
H1331 H 0.31102 0.68893 0.6433 0.0
H1332 H 0.35211 0.71194 0.59082 0.0
H1333 H 0.37778 0.68363 0.57165 0.0
C1334 C 0.62959 0.06794 0.85736 0.0
C1335 C 0.63626 0.10712 0.84998 0.0
C1336 C 0.61143 0.13286 0.88497 0.0
C1337 C 0.60844 0.09371 0.89316 0.0
N1338 N 0.62225 0.02427 0.88858 0.0
N1339 N 0.6412 0.17655 0.85826 0.0
C1340 C 0.6196 0.06126 0.87976 0.0
C1341 C 0.62939 0.13951 0.86423 0.0
N1342 N 0.63104 0.03721 0.84283 0.0
N1343 N 0.59559 0.16364 0.89654 0.0
H1344 H 0.65516 0.18255 0.84335 0.0
H1345 H 0.64075 0.20058 0.86895 0.0
H1346 H 0.58117 0.16005 0.9115 0.0
H1347 H 0.59319 0.19214 0.89027 0.0
H1348 H 0.62214 0.00868 0.84679 0.0
H1349 H 0.63765 0.04083 0.82624 0.0
H1350 H 0.63435 0.00034 0.88018 0.0
H1351 H 0.61585 0.01816 0.905 0.0
C1352 C 0.13099 0.65401 0.36724 0.0
C1353 C 0.13308 0.61812 0.35526 0.0
C1354 C 0.10633 0.58175 0.38679 0.0
C1355 C 0.10495 0.6175 0.3989 0.0
N1356 N 0.11994 0.68685 0.40218 0.0
N1357 N 0.1286 0.54715 0.3541 0.0
C1358 C 0.11863 0.65339 0.38959 0.0
C1359 C 0.12267 0.58172 0.36523 0.0
N1360 N 0.14006 0.68881 0.35703 0.0
N1361 N 0.09127 0.548 0.39581 0.0
H1362 H 0.13935 0.54609 0.33809 0.0
H1363 H 0.12558 0.51932 0.36109 0.0
H1364 H 0.08078 0.54652 0.41191 0.0
H1365 H 0.08699 0.52192 0.38711 0.0
H1366 H 0.13433 0.71652 0.36368 0.0
H1367 H 0.15204 0.69018 0.34125 0.0
H1368 H 0.13384 0.71279 0.39739 0.0
H1369 H 0.10886 0.6883 0.41814 0.0
C1370 C 0.66247 0.8725 0.63066 0.0
C1371 C 0.62975 0.87302 0.64516 0.0
C1372 C 0.58433 0.87231 0.61379 0.0
C1373 C 0.617 0.87465 0.59926 0.0
N1374 N 0.68681 0.88418 0.59376 0.0
N1375 N 0.55983 0.88195 0.65081 0.0
C1376 C 0.65602 0.8768 0.60767 0.0
C1377 C 0.59073 0.87539 0.63681 0.0
N1378 N 0.69957 0.86635 0.63877 0.0
N1379 N 0.54737 0.86523 0.60573 0.0
H1380 H 0.56327 0.88498 0.66777 0.0
H1381 H 0.53132 0.88816 0.64545 0.0
H1382 H 0.54126 0.86249 0.589 0.0
H1383 H 0.5233 0.85859 0.61569 0.0
H1384 H 0.72408 0.86121 0.62885 0.0
H1385 H 0.70544 0.86314 0.6555 0.0
H1386 H 0.7153 0.89026 0.59914 0.0
H1387 H 0.68326 0.88776 0.57685 0.0
C1388 C 0.40768 0.37734 0.86119 0.0
C1389 C 0.37837 0.34884 0.85608 0.0
C1390 C 0.36445 0.33981 0.89532 0.0
C1391 C 0.39455 0.36757 0.90041 0.0
N1392 N 0.43613 0.4209 0.88859 0.0
N1393 N 0.32186 0.31123 0.86745 0.0
C1394 C 0.41339 0.38893 0.88341 0.0
C1395 C 0.35454 0.33268 0.87293 0.0
N1396 N 0.43154 0.39185 0.84502 0.0
N1397 N 0.34667 0.31872 0.91168 0.0
H1398 H 0.3137 0.30583 0.85118 0.0
H1399 H 0.30086 0.30201 0.87882 0.0
H1400 H 0.35105 0.32427 0.92831 0.0
H1401 H 0.32886 0.29427 0.90881 0.0
H1402 H 0.45667 0.40857 0.84809 0.0
H1403 H 0.42775 0.38516 0.82848 0.0
H1404 H 0.44757 0.4402 0.87692 0.0
H1405 H 0.44021 0.43047 0.90474 0.0
C1406 C 0.82651 0.14962 0.11311 0.0
C1407 C 0.85388 0.13978 0.12985 0.0
C1408 C 0.8958 0.10588 0.10282 0.0
C1409 C 0.87092 0.11989 0.08584 0.0
N1410 N 0.81285 0.15503 0.07406 0.0
N1411 N 0.91653 0.11198 0.14077 0.0
C1412 C 0.83623 0.14166 0.09079 0.0
C1413 C 0.88885 0.11836 0.12481 0.0
N1414 N 0.79069 0.16533 0.11869 0.0
N1415 N 0.92614 0.08076 0.09789 0.0
H1416 H 0.91278 0.12062 0.15708 0.0
H1417 H 0.9446 0.10085 0.13765 0.0
H1418 H 0.93282 0.07203 0.08187 0.0
H1419 H 0.94273 0.06602 0.10972 0.0
H1420 H 0.76776 0.16966 0.10758 0.0
H1421 H 0.78257 0.17123 0.1349 0.0
H1422 H 0.79004 0.17527 0.07616 0.0
H1423 H 0.81729 0.14692 0.0577 0.0
C1424 C 0.8198 0.59634 0.86731 0.0
C1425 C 0.83905 0.62695 0.85555 0.0
C1426 C 0.88705 0.63363 0.88537 0.0
C1427 C 0.86518 0.60646 0.89823 0.0
N1428 N 0.80618 0.56754 0.90295 0.0
N1429 N 0.88537 0.68099 0.85571 0.0
C1430 C 0.83025 0.58927 0.88964 0.0
C1431 C 0.87106 0.64744 0.86527 0.0
N1432 N 0.79284 0.57283 0.85698 0.0
N1433 N 0.92389 0.64504 0.89187 0.0
H1434 H 0.87325 0.69312 0.84148 0.0
H1435 H 0.90625 0.69909 0.86319 0.0
H1436 H 0.93755 0.63406 0.90595 0.0
H1437 H 0.94256 0.66191 0.88205 0.0
H1438 H 0.78115 0.54748 0.86413 0.0
H1439 H 0.78487 0.57644 0.84056 0.0
H1440 H 0.77834 0.55789 0.89812 0.0
H1441 H 0.81232 0.56226 0.91948 0.0
C1442 C 0.11954 0.08229 0.61191 0.0
C1443 C 0.10517 0.11511 0.59978 0.0
C1444 C 0.12569 0.16015 0.62933 0.0
C1445 C 0.1402 0.12739 0.6414 0.0
N1446 N 0.15618 0.05814 0.6435 0.0
N1447 N 0.09866 0.18559 0.59528 0.0
C1448 C 0.13885 0.0887 0.63242 0.0
C1449 C 0.10964 0.15416 0.60798 0.0
N1450 N 0.11428 0.04494 0.60386 0.0
N1451 N 0.12654 0.19698 0.63858 0.0
H1452 H 0.08426 0.18254 0.58029 0.0
H1453 H 0.10546 0.2148 0.59891 0.0
H1454 H 0.14102 0.20311 0.65332 0.0
H1455 H 0.11169 0.22134 0.63226 0.0
H1456 H 0.11951 0.01935 0.61283 0.0
H1457 H 0.10284 0.03918 0.58828 0.0
H1458 H 0.16001 0.02996 0.63705 0.0
H1459 H 0.16925 0.06136 0.65887 0.0
C1460 C 0.61152 0.39912 0.38178 0.0
C1461 C 0.6146 0.36814 0.39731 0.0
C1462 C 0.64049 0.32379 0.36889 0.0
C1463 C 0.639 0.35525 0.35355 0.0
N1464 N 0.63248 0.42484 0.34649 0.0
N1465 N 0.64001 0.30384 0.40708 0.0
C1466 C 0.62721 0.39356 0.36033 0.0
C1467 C 0.63185 0.33144 0.39134 0.0
N1468 N 0.59329 0.43365 0.38746 0.0
N1469 N 0.64777 0.28613 0.36184 0.0
H1470 H 0.63332 0.30778 0.42365 0.0
H1471 H 0.65645 0.27843 0.40403 0.0
H1472 H 0.6539 0.27906 0.34551 0.0
H1473 H 0.64447 0.26139 0.37181 0.0
H1474 H 0.58607 0.45558 0.37617 0.0
H1475 H 0.58315 0.43943 0.40335 0.0
H1476 H 0.62777 0.45408 0.35106 0.0
H1477 H 0.64555 0.42178 0.33107 0.0
C1478 C 0.37879 0.90669 0.11481 0.0
C1479 C 0.37769 0.87424 0.10009 0.0
C1480 C 0.34472 0.83361 0.12795 0.0
C1481 C 0.34512 0.86629 0.14253 0.0
N1482 N 0.35655 0.93551 0.14922 0.0
N1483 N 0.35494 0.80876 0.09098 0.0
C1484 C 0.36017 0.90341 0.13572 0.0
C1485 C 0.35907 0.83831 0.10614 0.0
N1486 N 0.39843 0.94029 0.10892 0.0
N1487 N 0.33142 0.7978 0.1352 0.0
H1488 H 0.36673 0.81012 0.07518 0.0
H1489 H 0.33775 0.78375 0.09344 0.0
H1490 H 0.31824 0.79385 0.15054 0.0
H1491 H 0.33499 0.77154 0.12655 0.0
H1492 H 0.40449 0.96336 0.11969 0.0
H1493 H 0.41081 0.94435 0.09339 0.0
H1494 H 0.36314 0.96423 0.14446 0.0
H1495 H 0.34424 0.93407 0.1649 0.0
C1496 C 0.88994 0.35868 0.63844 0.0
C1497 C 0.85923 0.37711 0.65052 0.0
C1498 C 0.84632 0.42115 0.61938 0.0
C1499 C 0.88004 0.40574 0.60846 0.0
N1500 N 0.9393 0.36625 0.6101 0.0
N1501 N 0.81335 0.43133 0.65423 0.0
C1502 C 0.90347 0.37638 0.61874 0.0
C1503 C 0.83882 0.40994 0.64151 0.0
N1504 N 0.90501 0.32329 0.6452 0.0
N1505 N 0.82031 0.44485 0.6084 0.0
H1506 H 0.80743 0.42454 0.67061 0.0
H1507 H 0.801 0.45798 0.64914 0.0
H1508 H 0.82392 0.45294 0.592 0.0
H1509 H 0.79319 0.45332 0.61494 0.0
H1510 H 0.9248 0.30681 0.63582 0.0
H1511 H 0.89457 0.30837 0.65901 0.0
H1512 H 0.95909 0.34757 0.61808 0.0
H1513 H 0.95108 0.37989 0.59621 0.0
C1514 C 0.31217 0.13368 0.35987 0.0
C1515 C 0.34677 0.13325 0.34681 0.0
C1516 C 0.38382 0.10406 0.37738 0.0
C1517 C 0.35071 0.10949 0.3913 0.0
N1518 N 0.28431 0.13398 0.39647 0.0
N1519 N 0.4171 0.12313 0.34385 0.0
C1520 C 0.31495 0.12518 0.38271 0.0
C1521 C 0.38302 0.11957 0.3557 0.0
N1522 N 0.27646 0.14126 0.35032 0.0
N1523 N 0.41566 0.08308 0.3847 0.0
H1524 H 0.41798 0.13465 0.32799 0.0
H1525 H 0.44497 0.11794 0.35044 0.0
H1526 H 0.41683 0.07051 0.40033 0.0
H1527 H 0.43905 0.07471 0.37461 0.0
H1528 H 0.24967 0.13775 0.35846 0.0
H1529 H 0.27331 0.14758 0.33363 0.0
H1530 H 0.25957 0.14996 0.39158 0.0
H1531 H 0.28474 0.12807 0.41325 0.0
C1532 C 0.66254 0.58711 0.14207 0.0
C1533 C 0.64121 0.61842 0.15213 0.0
C1534 C 0.59852 0.62214 0.11976 0.0
C1535 C 0.6236 0.59539 0.10845 0.0
N1536 N 0.68526 0.55928 0.10775 0.0
N1537 N 0.59453 0.67203 0.14801 0.0
C1538 C 0.65725 0.57965 0.11927 0.0
C1539 C 0.61073 0.63776 0.14027 0.0
N1540 N 0.68652 0.56329 0.15431 0.0
N1541 N 0.5624 0.63169 0.11133 0.0
H1542 H 0.60424 0.68603 0.16228 0.0
H1543 H 0.57468 0.68891 0.13891 0.0
H1544 H 0.55137 0.61916 0.09693 0.0
H1545 H 0.5417 0.64841 0.11995 0.0
H1546 H 0.69964 0.53786 0.14798 0.0
H1547 H 0.68979 0.56623 0.17126 0.0
H1548 H 0.71208 0.55071 0.11464 0.0
H1549 H 0.68381 0.55467 0.09084 0.0
C1550 C 0.12912 0.8604 0.85994 0.0
C1551 C 0.13048 0.8924 0.845 0.0
C1552 C 0.11285 0.93786 0.87488 0.0
C1553 C 0.10577 0.90513 0.88888 0.0
N1554 N 0.10067 0.83439 0.89323 0.0
N1555 N 0.11847 0.96144 0.83749 0.0
C1556 C 0.11234 0.86613 0.88105 0.0
C1557 C 0.12119 0.9312 0.85226 0.0
N1558 N 0.14484 0.82468 0.85417 0.0
N1559 N 0.11306 0.97526 0.88333 0.0
H1560 H 0.12439 0.9581 0.8208 0.0
H1561 H 0.10721 0.98915 0.8415 0.0
H1562 H 0.10804 0.98132 0.8999 0.0
H1563 H 0.12209 -0.00018 0.87437 0.0
H1564 H 0.14819 0.80143 0.86522 0.0
H1565 H 0.15846 0.81964 0.83904 0.0
H1566 H 0.10082 0.80557 0.88725 0.0
H1567 H 0.08701 0.83711 0.90845 0.0
loop_
_geom_bond_atom_site_label_1
_geom_bond_atom_site_label_2
_geom_bond_distance
_geom_bond_site_symmetry_2
_ccdc_geom_bond_type
C0 O1 1.160 . S
C0 O7 1.185 . S
O1 C0 1.160 . S
O2 Zn3 1.899 . S
O2 C10 1.284 . S
Zn3 O2 1.899 . S
Zn3 O4 2.032 . S
Zn3 O7 2.086 . S
Zn3 O12 1.977 . S
O4 Zn3 2.032 . S
O4 C8 1.278 . S
C5 O6 1.203 . S
C5 O12 1.267 . S
O6 C5 1.203 . S
O7 C0 1.185 . S
O7 Zn3 2.086 . S
C8 O4 1.278 . S
C8 O9 1.211 . S
O9 C8 1.211 . S
C10 O2 1.284 . S
C10 O11 1.273 . S
O11 C10 1.273 . S
O12 Zn3 1.977 . S
O12 C5 1.267 . S
C13 O14 1.160 . S
C13 O20 1.185 . S
O14 C13 1.160 . S
O15 Zn16 1.899 . S
O15 C23 1.284 . S
Zn16 O15 1.899 . S
Zn16 O17 2.032 . S
Zn16 O20 2.086 . S
Zn16 O25 1.977 . S
O17 Zn16 2.032 . S
O17 C21 1.278 . S
C18 O19 1.203 . S
C18 O25 1.267 . S
O19 C18 1.203 . S
O20 C13 1.185 . S
O20 Zn16 2.086 . S
C21 O17 1.278 . S
C21 O22 1.211 . S
O22 C21 1.211 . S
C23 O15 1.284 . S
C23 O24 1.273 . S
O24 C23 1.273 . S
O25 Zn16 1.977 . S
O25 C18 1.267 . S
C26 O27 1.160 . S
C26 O33 1.185 . S
O27 C26 1.160 . S
O28 Zn29 1.899 . S
O28 C36 1.284 . S
Zn29 O28 1.899 . S
Zn29 O30 2.032 . S
Zn29 O33 2.086 . S
Zn29 O38 1.977 . S
O30 Zn29 2.032 . S
O30 C34 1.278 . S
C31 O32 1.203 . S
C31 O38 1.267 . S
O32 C31 1.203 . S
O33 C26 1.185 . S
O33 Zn29 2.086 . S
C34 O30 1.278 . S
C34 O35 1.211 . S
O35 C34 1.211 . S
C36 O28 1.284 . S
C36 O37 1.273 . S
O37 C36 1.273 . S
O38 Zn29 1.977 . S
O38 C31 1.267 . S
C39 O40 1.160 . S
C39 O46 1.185 . S
O40 C39 1.160 . S
O41 Zn42 1.899 . S
O41 C49 1.284 . S
Zn42 O41 1.899 . S
Zn42 O43 2.032 . S
Zn42 O46 2.086 . S
Zn42 O51 1.977 . S
O43 Zn42 2.032 . S
O43 C47 1.278 . S
C44 O45 1.203 . S
C44 O51 1.267 . S
O45 C44 1.203 . S
O46 C39 1.185 . S
O46 Zn42 2.086 . S
C47 O43 1.278 . S
C47 O48 1.211 . S
O48 C47 1.211 . S
C49 O41 1.284 . S
C49 O50 1.273 . S
O50 C49 1.273 . S
O51 Zn42 1.977 . S
O51 C44 1.267 . S
C52 O53 1.160 . S
C52 O59 1.185 . S
O53 C52 1.160 . S
O54 Zn55 1.899 . S
O54 C62 1.284 . S
Zn55 O54 1.899 . S
Zn55 O56 2.032 . S
Zn55 O59 2.086 . S
Zn55 O64 1.977 . S
O56 Zn55 2.032 . S
O56 C60 1.278 . S
C57 O58 1.203 . S
C57 O64 1.267 . S
O58 C57 1.203 . S
O59 C52 1.185 . S
O59 Zn55 2.086 . S
C60 O56 1.278 . S
C60 O61 1.211 . S
O61 C60 1.211 . S
C62 O54 1.284 . S
C62 O63 1.273 . S
O63 C62 1.273 . S
O64 Zn55 1.977 . S
O64 C57 1.267 . S
C65 O66 1.160 . S
C65 O72 1.185 . S
O66 C65 1.160 . S
O67 Zn68 1.899 . S
O67 C75 1.284 . S
Zn68 O67 1.899 . S
Zn68 O69 2.032 . S
Zn68 O72 2.086 . S
Zn68 O77 1.977 . S
O69 Zn68 2.032 . S
O69 C73 1.278 . S
C70 O71 1.203 . S
C70 O77 1.267 . S
O71 C70 1.203 . S
O72 C65 1.185 . S
O72 Zn68 2.086 . S
C73 O69 1.278 . S
C73 O74 1.211 . S
O74 C73 1.211 . S
C75 O67 1.284 . S
C75 O76 1.273 . S
O76 C75 1.273 . S
O77 Zn68 1.977 . S
O77 C70 1.267 . S
C78 O79 1.160 . S
C78 O85 1.185 . S
O79 C78 1.160 . S
O80 Zn81 1.899 . S
O80 C88 1.284 . S
Zn81 O80 1.899 . S
Zn81 O82 2.032 . S
Zn81 O85 2.086 . S
Zn81 O90 1.977 . S
O82 Zn81 2.032 . S
O82 C86 1.278 . S
C83 O84 1.203 . S
C83 O90 1.267 . S
O84 C83 1.203 . S
O85 C78 1.185 . S
O85 Zn81 2.086 . S
C86 O82 1.278 . S
C86 O87 1.211 . S
O87 C86 1.211 . S
C88 O80 1.284 . S
C88 O89 1.273 . S
O89 C88 1.273 . S
O90 Zn81 1.977 . S
O90 C83 1.267 . S
C91 O92 1.160 . S
C91 O98 1.185 . S
O92 C91 1.160 . S
O93 Zn94 1.899 . S
O93 C101 1.284 . S
Zn94 O93 1.899 . S
Zn94 O95 2.032 . S
Zn94 O98 2.086 . S
Zn94 O103 1.977 . S
O95 Zn94 2.032 . S
O95 C99 1.278 . S
C96 O97 1.203 . S
C96 O103 1.267 . S
O97 C96 1.203 . S
O98 C91 1.185 . S
O98 Zn94 2.086 . S
C99 O95 1.278 . S
C99 O100 1.211 . S
O100 C99 1.211 . S
C101 O93 1.284 . S
C101 O102 1.273 . S
O102 C101 1.273 . S
O103 Zn94 1.977 . S
O103 C96 1.267 . S
C104 O105 1.160 . S
C104 O111 1.185 . S
O105 C104 1.160 . S
O106 Zn107 1.899 . S
O106 C114 1.284 . S
Zn107 O106 1.899 . S
Zn107 O108 2.032 . S
Zn107 O111 2.086 . S
Zn107 O116 1.977 . S
O108 Zn107 2.032 . S
O108 C112 1.278 . S
C109 O110 1.203 . S
C109 O116 1.267 . S
O110 C109 1.203 . S
O111 C104 1.185 . S
O111 Zn107 2.086 . S
C112 O108 1.278 . S
C112 O113 1.211 . S
O113 C112 1.211 . S
C114 O106 1.284 . S
C114 O115 1.273 . S
O115 C114 1.273 . S
O116 Zn107 1.977 . S
O116 C109 1.267 . S
C117 O118 1.160 . S
C117 O124 1.185 . S
O118 C117 1.160 . S
O119 Zn120 1.899 . S
O119 C127 1.284 . S
Zn120 O119 1.899 . S
Zn120 O121 2.032 . S
Zn120 O124 2.086 . S
Zn120 O129 1.977 . S
O121 Zn120 2.032 . S
O121 C125 1.278 . S
C122 O123 1.203 . S
C122 O129 1.267 . S
O123 C122 1.203 . S
O124 C117 1.185 . S
O124 Zn120 2.086 . S
C125 O121 1.278 . S
C125 O126 1.211 . S
O126 C125 1.211 . S
C127 O119 1.284 . S
C127 O128 1.273 . S
O128 C127 1.273 . S
O129 Zn120 1.977 . S
O129 C122 1.267 . S
C130 O131 1.160 . S
C130 O137 1.185 . S
O131 C130 1.160 . S
O132 Zn133 1.899 . S
O132 C140 1.284 . S
Zn133 O132 1.899 . S
Zn133 O134 2.032 . S
Zn133 O137 2.086 . S
Zn133 O142 1.977 . S
O134 Zn133 2.032 . S
O134 C138 1.278 . S
C135 O136 1.203 . S
C135 O142 1.267 . S
O136 C135 1.203 . S
O137 C130 1.185 . S
O137 Zn133 2.086 . S
C138 O134 1.278 . S
C138 O139 1.211 . S
O139 C138 1.211 . S
C140 O132 1.284 . S
C140 O141 1.273 . S
O141 C140 1.273 . S
O142 Zn133 1.977 . S
O142 C135 1.267 . S
C143 O144 1.160 . S
C143 O150 1.185 . S
O144 C143 1.160 . S
O145 Zn146 1.899 . S
O145 C153 1.284 . S
Zn146 O145 1.899 . S
Zn146 O147 2.032 . S
Zn146 O150 2.086 . S
Zn146 O155 1.977 . S
O147 Zn146 2.032 . S
O147 C151 1.278 . S
C148 O149 1.203 . S
C148 O155 1.267 . S
O149 C148 1.203 . S
O150 C143 1.185 . S
O150 Zn146 2.086 . S
C151 O147 1.278 . S
C151 O152 1.211 . S
O152 C151 1.211 . S
C153 O145 1.284 . S
C153 O154 1.273 . S
O154 C153 1.273 . S
O155 Zn146 1.977 . S
O155 C148 1.267 . S
C156 O157 1.160 . S
C156 O163 1.185 . S
O157 C156 1.160 . S
O158 Zn159 1.899 . S
O158 C166 1.284 . S
Zn159 O158 1.899 . S
Zn159 O160 2.032 . S
Zn159 O163 2.086 . S
Zn159 O168 1.977 . S
O160 Zn159 2.032 . S
O160 C164 1.278 . S
C161 O162 1.203 . S
C161 O168 1.267 . S
O162 C161 1.203 . S
O163 C156 1.185 . S
O163 Zn159 2.086 . S
C164 O160 1.278 . S
C164 O165 1.211 . S
O165 C164 1.211 . S
C166 O158 1.284 . S
C166 O167 1.273 . S
O167 C166 1.273 . S
O168 Zn159 1.977 . S
O168 C161 1.267 . S
C169 O170 1.160 . S
C169 O176 1.185 . S
O170 C169 1.160 . S
O171 Zn172 1.899 . S
O171 C179 1.284 . S
Zn172 O171 1.899 . S
Zn172 O173 2.032 . S
Zn172 O176 2.086 . S
Zn172 O181 1.977 . S
O173 Zn172 2.032 . S
O173 C177 1.278 . S
C174 O175 1.203 . S
C174 O181 1.267 . S
O175 C174 1.203 . S
O176 C169 1.185 . S
O176 Zn172 2.086 . S
C177 O173 1.278 . S
C177 O178 1.211 . S
O178 C177 1.211 . S
C179 O171 1.284 . S
C179 O180 1.273 . S
O180 C179 1.273 . S
O181 Zn172 1.977 . S
O181 C174 1.267 . S
C182 O183 1.160 . S
C182 O189 1.185 . S
O183 C182 1.160 . S
O184 Zn185 1.899 . S
O184 C192 1.284 . S
Zn185 O184 1.899 . S
Zn185 O186 2.032 . S
Zn185 O189 2.086 . S
Zn185 O194 1.977 . S
O186 Zn185 2.032 . S
O186 C190 1.278 . S
C187 O188 1.203 . S
C187 O194 1.267 . S
O188 C187 1.203 . S
O189 C182 1.185 . S
O189 Zn185 2.086 . S
C190 O186 1.278 . S
C190 O191 1.211 . S
O191 C190 1.211 . S
C192 O184 1.284 . S
C192 O193 1.273 . S
O193 C192 1.273 . S
O194 Zn185 1.977 . S
O194 C187 1.267 . S
C195 O196 1.160 . S
C195 O202 1.185 . S
O196 C195 1.160 . S
O197 Zn198 1.899 . S
O197 C205 1.284 . S
Zn198 O197 1.899 . S
Zn198 O199 2.032 . S
Zn198 O202 2.086 . S
Zn198 O207 1.977 . S
O199 Zn198 2.032 . S
O199 C203 1.278 . S
C200 O201 1.203 . S
C200 O207 1.267 . S
O201 C200 1.203 . S
O202 C195 1.185 . S
O202 Zn198 2.086 . S
C203 O199 1.278 . S
C203 O204 1.211 . S
O204 C203 1.211 . S
C205 O197 1.284 . S
C205 O206 1.273 . S
O206 C205 1.273 . S
O207 Zn198 1.977 . S
O207 C200 1.267 . S
C208 O209 1.160 . S
C208 O215 1.185 . S
O209 C208 1.160 . S
O210 Zn211 1.899 . S
O210 C218 1.284 . S
Zn211 O210 1.899 . S
Zn211 O212 2.032 . S
Zn211 O215 2.086 . S
Zn211 O220 1.977 . S
O212 Zn211 2.032 . S
O212 C216 1.278 . S
C213 O214 1.203 . S
C213 O220 1.267 . S
O214 C213 1.203 . S
O215 C208 1.185 . S
O215 Zn211 2.086 . S
C216 O212 1.278 . S
C216 O217 1.211 . S
O217 C216 1.211 . S
C218 O210 1.284 . S
C218 O219 1.273 . S
O219 C218 1.273 . S
O220 Zn211 1.977 . S
O220 C213 1.267 . S
C221 O222 1.160 . S
C221 O228 1.185 . S
O222 C221 1.160 . S
O223 Zn224 1.899 . S
O223 C231 1.284 . S
Zn224 O223 1.899 . S
Zn224 O225 2.032 . S
Zn224 O228 2.086 . S
Zn224 O233 1.977 . S
O225 Zn224 2.032 . S
O225 C229 1.278 . S
C226 O227 1.203 . S
C226 O233 1.267 . S
O227 C226 1.203 . S
O228 C221 1.185 . S
O228 Zn224 2.086 . S
C229 O225 1.278 . S
C229 O230 1.211 . S
O230 C229 1.211 . S
C231 O223 1.284 . S
C231 O232 1.273 . S
O232 C231 1.273 . S
O233 Zn224 1.977 . S
O233 C226 1.267 . S
C234 O235 1.160 . S
C234 O241 1.185 . S
O235 C234 1.160 . S
O236 Zn237 1.899 . S
O236 C244 1.284 . S
Zn237 O236 1.899 . S
Zn237 O238 2.032 . S
Zn237 O241 2.086 . S
Zn237 O246 1.977 . S
O238 Zn237 2.032 . S
O238 C242 1.278 . S
C239 O240 1.203 . S
C239 O246 1.267 . S
O240 C239 1.203 . S
O241 C234 1.185 . S
O241 Zn237 2.086 . S
C242 O238 1.278 . S
C242 O243 1.211 . S
O243 C242 1.211 . S
C244 O236 1.284 . S
C244 O245 1.273 . S
O245 C244 1.273 . S
O246 Zn237 1.977 . S
O246 C239 1.267 . S
C247 O248 1.160 . S
C247 O254 1.185 . S
O248 C247 1.160 . S
O249 Zn250 1.899 . S
O249 C257 1.284 . S
Zn250 O249 1.899 . S
Zn250 O251 2.032 . S
Zn250 O254 2.086 . S
Zn250 O259 1.977 . S
O251 Zn250 2.032 . S
O251 C255 1.278 . S
C252 O253 1.203 . S
C252 O259 1.267 . S
O253 C252 1.203 . S
O254 C247 1.185 . S
O254 Zn250 2.086 . S
C255 O251 1.278 . S
C255 O256 1.211 . S
O256 C255 1.211 . S
C257 O249 1.284 . S
C257 O258 1.273 . S
O258 C257 1.273 . S
O259 Zn250 1.977 . S
O259 C252 1.267 . S
C260 O261 1.160 . S
C260 O267 1.185 . S
O261 C260 1.160 . S
O262 Zn263 1.899 . S
O262 C270 1.284 . S
Zn263 O262 1.899 . S
Zn263 O264 2.032 . S
Zn263 O267 2.086 . S
Zn263 O272 1.977 . S
O264 Zn263 2.032 . S
O264 C268 1.278 . S
C265 O266 1.203 . S
C265 O272 1.267 . S
O266 C265 1.203 . S
O267 C260 1.185 . S
O267 Zn263 2.086 . S
C268 O264 1.278 . S
C268 O269 1.211 . S
O269 C268 1.211 . S
C270 O262 1.284 . S
C270 O271 1.273 . S
O271 C270 1.273 . S
O272 Zn263 1.977 . S
O272 C265 1.267 . S
C273 O274 1.160 . S
C273 O280 1.185 . S
O274 C273 1.160 . S
O275 Zn276 1.899 . S
O275 C283 1.284 . S
Zn276 O275 1.899 . S
Zn276 O277 2.032 . S
Zn276 O280 2.086 . S
Zn276 O285 1.977 . S
O277 Zn276 2.032 . S
O277 C281 1.278 . S
C278 O279 1.203 . S
C278 O285 1.267 . S
O279 C278 1.203 . S
O280 C273 1.185 . S
O280 Zn276 2.086 . S
C281 O277 1.278 . S
C281 O282 1.211 . S
O282 C281 1.211 . S
C283 O275 1.284 . S
C283 O284 1.273 . S
O284 C283 1.273 . S
O285 Zn276 1.977 . S
O285 C278 1.267 . S
C286 O287 1.160 . S
C286 O293 1.185 . S
O287 C286 1.160 . S
O288 Zn289 1.899 . S
O288 C296 1.284 . S
Zn289 O288 1.899 . S
Zn289 O290 2.032 . S
Zn289 O293 2.086 . S
Zn289 O298 1.977 . S
O290 Zn289 2.032 . S
O290 C294 1.278 . S
C291 O292 1.203 . S
C291 O298 1.267 . S
O292 C291 1.203 . S
O293 C286 1.185 . S
O293 Zn289 2.086 . S
C294 O290 1.278 . S
C294 O295 1.211 . S
O295 C294 1.211 . S
C296 O288 1.284 . S
C296 O297 1.273 . S
O297 C296 1.273 . S
O298 Zn289 1.977 . S
O298 C291 1.267 . S
C299 O300 1.160 . S
C299 O306 1.185 . S
O300 C299 1.160 . S
O301 Zn302 1.899 . S
O301 C309 1.284 . S
Zn302 O301 1.899 . S
Zn302 O303 2.032 . S
Zn302 O306 2.086 . S
Zn302 O311 1.977 . S
O303 Zn302 2.032 . S
O303 C307 1.278 . S
C304 O305 1.203 . S
C304 O311 1.267 . S
O305 C304 1.203 . S
O306 C299 1.185 . S
O306 Zn302 2.086 . S
C307 O303 1.278 . S
C307 O308 1.211 . S
O308 C307 1.211 . S
C309 O301 1.284 . S
C309 O310 1.273 . S
O310 C309 1.273 . S
O311 Zn302 1.977 . S
O311 C304 1.267 . S
C312 O313 1.160 . S
C312 O319 1.185 . S
O313 C312 1.160 . S
O314 Zn315 1.899 . S
O314 C322 1.284 . S
Zn315 O314 1.899 . S
Zn315 O316 2.032 . S
Zn315 O319 2.086 . S
Zn315 O324 1.977 . S
O316 Zn315 2.032 . S
O316 C320 1.278 . S
C317 O318 1.203 . S
C317 O324 1.267 . S
O318 C317 1.203 . S
O319 C312 1.185 . S
O319 Zn315 2.086 . S
C320 O316 1.278 . S
C320 O321 1.211 . S
O321 C320 1.211 . S
C322 O314 1.284 . S
C322 O323 1.273 . S
O323 C322 1.273 . S
O324 Zn315 1.977 . S
O324 C317 1.267 . S
C325 O326 1.160 . S
C325 O332 1.185 . S
O326 C325 1.160 . S
O327 Zn328 1.899 . S
O327 C335 1.284 . S
Zn328 O327 1.899 . S
Zn328 O329 2.032 . S
Zn328 O332 2.086 . S
Zn328 O337 1.977 . S
O329 Zn328 2.032 . S
O329 C333 1.278 . S
C330 O331 1.203 . S
C330 O337 1.267 . S
O331 C330 1.203 . S
O332 C325 1.185 . S
O332 Zn328 2.086 . S
C333 O329 1.278 . S
C333 O334 1.211 . S
O334 C333 1.211 . S
C335 O327 1.284 . S
C335 O336 1.273 . S
O336 C335 1.273 . S
O337 Zn328 1.977 . S
O337 C330 1.267 . S
C338 O339 1.160 . S
C338 O345 1.185 . S
O339 C338 1.160 . S
O340 Zn341 1.899 . S
O340 C348 1.284 . S
Zn341 O340 1.899 . S
Zn341 O342 2.032 . S
Zn341 O345 2.086 . S
Zn341 O350 1.977 . S
O342 Zn341 2.032 . S
O342 C346 1.278 . S
C343 O344 1.203 . S
C343 O350 1.267 . S
O344 C343 1.203 . S
O345 C338 1.185 . S
O345 Zn341 2.086 . S
C346 O342 1.278 . S
C346 O347 1.211 . S
O347 C346 1.211 . S
C348 O340 1.284 . S
C348 O349 1.273 . S
O349 C348 1.273 . S
O350 Zn341 1.977 . S
O350 C343 1.267 . S
C351 O352 1.160 . S
C351 O358 1.185 . S
O352 C351 1.160 . S
O353 Zn354 1.899 . S
O353 C361 1.284 . S
Zn354 O353 1.899 . S
Zn354 O355 2.032 . S
Zn354 O358 2.086 . S
Zn354 O363 1.977 . S
O355 Zn354 2.032 . S
O355 C359 1.278 . S
C356 O357 1.203 . S
C356 O363 1.267 . S
O357 C356 1.203 . S
O358 C351 1.185 . S
O358 Zn354 2.086 . S
C359 O355 1.278 . S
C359 O360 1.211 . S
O360 C359 1.211 . S
C361 O353 1.284 . S
C361 O362 1.273 . S
O362 C361 1.273 . S
O363 Zn354 1.977 . S
O363 C356 1.267 . S
C364 O365 1.160 . S
C364 O371 1.185 . S
O365 C364 1.160 . S
O366 Zn367 1.899 . S
O366 C374 1.284 . S
Zn367 O366 1.899 . S
Zn367 O368 2.032 . S
Zn367 O371 2.086 . S
Zn367 O376 1.977 . S
O368 Zn367 2.032 . S
O368 C372 1.278 . S
C369 O370 1.203 . S
C369 O376 1.267 . S
O370 C369 1.203 . S
O371 C364 1.185 . S
O371 Zn367 2.086 . S
C372 O368 1.278 . S
C372 O373 1.211 . S
O373 C372 1.211 . S
C374 O366 1.284 . S
C374 O375 1.273 . S
O375 C374 1.273 . S
O376 Zn367 1.977 . S
O376 C369 1.267 . S
C377 O378 1.160 . S
C377 O384 1.185 . S
O378 C377 1.160 . S
O379 Zn380 1.899 . S
O379 C387 1.284 . S
Zn380 O379 1.899 . S
Zn380 O381 2.032 . S
Zn380 O384 2.086 . S
Zn380 O389 1.977 . S
O381 Zn380 2.032 . S
O381 C385 1.278 . S
C382 O383 1.203 . S
C382 O389 1.267 . S
O383 C382 1.203 . S
O384 C377 1.185 . S
O384 Zn380 2.086 . S
C385 O381 1.278 . S
C385 O386 1.211 . S
O386 C385 1.211 . S
C387 O379 1.284 . S
C387 O388 1.273 . S
O388 C387 1.273 . S
O389 Zn380 1.977 . S
O389 C382 1.267 . S
C390 O391 1.160 . S
C390 O397 1.185 . S
O391 C390 1.160 . S
O392 Zn393 1.899 . S
O392 C400 1.284 . S
Zn393 O392 1.899 . S
Zn393 O394 2.032 . S
Zn393 O397 2.086 . S
Zn393 O402 1.977 . S
O394 Zn393 2.032 . S
O394 C398 1.278 . S
C395 O396 1.203 . S
C395 O402 1.267 . S
O396 C395 1.203 . S
O397 C390 1.185 . S
O397 Zn393 2.086 . S
C398 O394 1.278 . S
C398 O399 1.211 . S
O399 C398 1.211 . S
C400 O392 1.284 . S
C400 O401 1.273 . S
O401 C400 1.273 . S
O402 Zn393 1.977 . S
O402 C395 1.267 . S
C403 O404 1.160 . S
C403 O410 1.185 . S
O404 C403 1.160 . S
O405 Zn406 1.899 . S
O405 C413 1.284 . S
Zn406 O405 1.899 . S
Zn406 O407 2.032 . S
Zn406 O410 2.086 . S
Zn406 O415 1.977 . S
O407 Zn406 2.032 . S
O407 C411 1.278 . S
C408 O409 1.203 . S
C408 O415 1.267 . S
O409 C408 1.203 . S
O410 C403 1.185 . S
O410 Zn406 2.086 . S
C411 O407 1.278 . S
C411 O412 1.211 . S
O412 C411 1.211 . S
C413 O405 1.284 . S
C413 O414 1.273 . S
O414 C413 1.273 . S
O415 Zn406 1.977 . S
O415 C408 1.267 . S
C416 C417 1.363 . S
C416 C422 1.379 1_655 S
C416 N424 1.356 . S
C417 C416 1.363 . S
C417 C423 1.363 1_556 S
C418 C419 1.363 . S
C418 C423 1.379 1_455 S
C418 N425 1.356 . S
C419 C418 1.363 . S
C419 C422 1.363 1_554 S
N420 C422 1.356 . S
N420 H432 0.984 . S
N420 H433 0.985 . S
N421 C423 1.356 . S
N421 H426 0.984 . S
N421 H427 0.985 . S
C422 C416 1.379 1_455 S
C422 C419 1.363 1_556 S
C422 N420 1.356 . S
C423 C417 1.363 1_554 S
C423 C418 1.379 1_655 S
C423 N421 1.356 . S
N424 C416 1.356 . S
N424 H430 0.984 . S
N424 H431 0.984 . S
N425 C418 1.356 . S
N425 H428 0.984 . S
N425 H429 0.985 . S
H426 N421 0.984 . S
H427 N421 0.985 . S
H428 N425 0.984 . S
H429 N425 0.985 . S
H430 N424 0.984 . S
H431 N424 0.984 . S
H432 N420 0.984 . S
H433 N420 0.985 . S
C434 C435 1.363 . S
C434 C440 1.379 . S
C434 N442 1.356 . S
C435 C434 1.363 . S
C435 C441 1.363 . S
C436 C437 1.363 . S
C436 C441 1.379 . S
C436 N443 1.356 . S
C437 C436 1.363 . S
C437 C440 1.363 . S
N438 C440 1.356 . S
N438 H450 0.984 . S
N438 H451 0.985 . S
N439 C441 1.356 . S
N439 H444 0.984 . S
N439 H445 0.985 . S
C440 C434 1.379 . S
C440 C437 1.363 . S
C440 N438 1.356 . S
C441 C435 1.363 . S
C441 C436 1.379 . S
C441 N439 1.356 . S
N442 C434 1.356 . S
N442 H448 0.984 . S
N442 H449 0.984 . S
N443 C436 1.356 . S
N443 H446 0.984 . S
N443 H447 0.985 . S
H444 N439 0.984 . S
H445 N439 0.985 . S
H446 N443 0.984 . S
H447 N443 0.985 . S
H448 N442 0.984 . S
H449 N442 0.984 . S
H450 N438 0.984 . S
H451 N438 0.985 . S
C452 C453 1.363 . S
C452 C458 1.379 . S
C452 N460 1.356 . S
C453 C452 1.363 . S
C453 C459 1.363 . S
C454 C455 1.363 . S
C454 C459 1.379 . S
C454 N461 1.356 . S
C455 C454 1.363 . S
C455 C458 1.363 . S
N456 C458 1.356 . S
N456 H468 0.984 . S
N456 H469 0.985 . S
N457 C459 1.356 . S
N457 H462 0.984 . S
N457 H463 0.985 . S
C458 C452 1.379 . S
C458 C455 1.363 . S
C458 N456 1.356 . S
C459 C453 1.363 . S
C459 C454 1.379 . S
C459 N457 1.356 . S
N460 C452 1.356 . S
N460 H466 0.984 . S
N460 H467 0.984 . S
N461 C454 1.356 . S
N461 H464 0.984 . S
N461 H465 0.985 . S
H462 N457 0.984 . S
H463 N457 0.985 . S
H464 N461 0.984 . S
H465 N461 0.985 . S
H466 N460 0.984 . S
H467 N460 0.984 . S
H468 N456 0.984 . S
H469 N456 0.985 . S
C470 C471 1.363 . S
C470 C476 1.379 . S
C470 N478 1.356 . S
C471 C470 1.363 . S
C471 C477 1.363 . S
C472 C473 1.363 . S
C472 C477 1.379 . S
C472 N479 1.356 . S
C473 C472 1.363 . S
C473 C476 1.363 . S
N474 C476 1.356 . S
N474 H486 0.984 . S
N474 H487 0.985 . S
N475 C477 1.356 . S
N475 H480 0.984 . S
N475 H481 0.985 . S
C476 C470 1.379 . S
C476 C473 1.363 . S
C476 N474 1.356 . S
C477 C471 1.363 . S
C477 C472 1.379 . S
C477 N475 1.356 . S
N478 C470 1.356 . S
N478 H484 0.984 . S
N478 H485 0.984 . S
N479 C472 1.356 . S
N479 H482 0.984 . S
N479 H483 0.985 . S
H480 N475 0.984 . S
H481 N475 0.985 . S
H482 N479 0.984 . S
H483 N479 0.985 . S
H484 N478 0.984 . S
H485 N478 0.984 . S
H486 N474 0.984 . S
H487 N474 0.985 . S
C488 C489 1.380 . S
C488 C494 1.362 1_655 S
C488 N496 1.363 . S
C489 C488 1.380 . S
C489 C495 1.363 . S
C490 C491 1.380 . S
C490 C495 1.362 1_455 S
C490 N497 1.363 . S
C491 C490 1.380 . S
C491 C494 1.363 . S
N492 C494 1.356 . S
N492 H504 0.984 . S
N492 H505 0.985 . S
N493 C495 1.356 . S
N493 H498 0.984 . S
N493 H499 0.985 . S
C494 C488 1.362 1_455 S
C494 C491 1.363 . S
C494 N492 1.356 . S
C495 C489 1.363 . S
C495 C490 1.362 1_655 S
C495 N493 1.356 . S
N496 C488 1.363 . S
N496 H502 0.984 1_655 S
N496 H503 0.984 . S
N497 C490 1.363 . S
N497 H500 0.984 . S
N497 H501 0.985 1_455 S
H498 N493 0.984 . S
H499 N493 0.985 . S
H500 N497 0.984 . S
H501 N497 0.985 1_655 S
H502 N496 0.984 1_455 S
H503 N496 0.984 . S
H504 N492 0.984 . S
H505 N492 0.985 . S
C506 C507 1.363 . S
C506 C512 1.379 . S
C506 N514 1.356 . S
C507 C506 1.363 . S
C507 C513 1.363 . S
C508 C509 1.363 . S
C508 C513 1.379 . S
C508 N515 1.356 . S
C509 C508 1.363 . S
C509 C512 1.363 . S
N510 C512 1.356 . S
N510 H522 0.984 . S
N510 H523 0.985 . S
N511 C513 1.356 . S
N511 H516 0.984 . S
N511 H517 0.985 . S
C512 C506 1.379 . S
C512 C509 1.363 . S
C512 N510 1.356 . S
C513 C507 1.363 . S
C513 C508 1.379 . S
C513 N511 1.356 . S
N514 C506 1.356 . S
N514 H520 0.984 . S
N514 H521 0.984 . S
N515 C508 1.356 . S
N515 H518 0.984 . S
N515 H519 0.985 . S
H516 N511 0.984 . S
H517 N511 0.985 . S
H518 N515 0.984 . S
H519 N515 0.985 . S
H520 N514 0.984 . S
H521 N514 0.984 . S
H522 N510 0.984 . S
H523 N510 0.985 . S
C524 C525 1.366 1_554 S
C524 C530 1.376 . S
C524 N532 1.357 1_554 S
C525 C524 1.366 1_556 S
C525 C531 1.363 . S
C526 C527 1.366 1_556 S
C526 C531 1.376 . S
C526 N533 1.357 1_556 S
C527 C526 1.366 1_554 S
C527 C530 1.363 . S
N528 C530 1.356 . S
N528 H540 0.984 . S
N528 H541 0.985 . S
N529 C531 1.356 . S
N529 H534 0.984 . S
N529 H535 0.985 . S
C530 C524 1.376 . S
C530 C527 1.363 . S
C530 N528 1.356 . S
C531 C525 1.363 . S
C531 C526 1.376 . S
C531 N529 1.356 . S
N532 C524 1.357 1_556 S
N532 H538 0.984 1_556 S
N532 H539 0.984 . S
N533 C526 1.357 1_554 S
N533 H536 0.984 . S
N533 H537 0.985 1_554 S
H534 N529 0.984 . S
H535 N529 0.985 . S
H536 N533 0.984 . S
H537 N533 0.985 1_556 S
H538 N532 0.984 1_554 S
H539 N532 0.984 . S
H540 N528 0.984 . S
H541 N528 0.985 . S
C542 C543 1.363 . S
C542 C548 1.379 . S
C542 N550 1.356 . S
C543 C542 1.363 . S
C543 C549 1.363 . S
C544 C545 1.363 . S
C544 C549 1.379 . S
C544 N551 1.356 . S
C545 C544 1.363 . S
C545 C548 1.363 . S
N546 C548 1.356 . S
N546 H558 0.984 . S
N546 H559 0.985 . S
N547 C549 1.356 . S
N547 H552 0.984 . S
N547 H553 0.985 . S
C548 C542 1.379 . S
C548 C545 1.363 . S
C548 N546 1.356 . S
C549 C543 1.363 . S
C549 C544 1.379 . S
C549 N547 1.356 . S
N550 C542 1.356 . S
N550 H556 0.984 . S
N550 H557 0.984 . S
N551 C544 1.356 . S
N551 H554 0.984 . S
N551 H555 0.985 . S
H552 N547 0.984 . S
H553 N547 0.985 . S
H554 N551 0.984 . S
H555 N551 0.985 . S
H556 N550 0.984 . S
H557 N550 0.984 . S
H558 N546 0.984 . S
H559 N546 0.985 . S
C560 C561 1.363 . S
C560 C566 1.379 . S
C560 N568 1.356 . S
C561 C560 1.363 . S
C561 C567 1.363 . S
C562 C563 1.363 . S
C562 C567 1.379 . S
C562 N569 1.356 . S
C563 C562 1.363 . S
C563 C566 1.363 . S
N564 C566 1.356 . S
N564 H576 0.984 . S
N564 H577 0.985 . S
N565 C567 1.356 . S
N565 H570 0.984 . S
N565 H571 0.985 . S
C566 C560 1.379 . S
C566 C563 1.363 . S
C566 N564 1.356 . S
C567 C561 1.363 . S
C567 C562 1.379 . S
C567 N565 1.356 . S
N568 C560 1.356 . S
N568 H574 0.984 . S
N568 H575 0.984 . S
N569 C562 1.356 . S
N569 H572 0.984 . S
N569 H573 0.985 . S
H570 N565 0.984 . S
H571 N565 0.985 . S
H572 N569 0.984 . S
H573 N569 0.985 . S
H574 N568 0.984 . S
H575 N568 0.984 . S
H576 N564 0.984 . S
H577 N564 0.985 . S
C578 C579 1.363 . S
C578 C584 1.379 . S
C578 N586 1.356 . S
C579 C578 1.363 . S
C579 C585 1.363 . S
C580 C581 1.363 . S
C580 C585 1.379 . S
C580 N587 1.356 . S
C581 C580 1.363 . S
C581 C584 1.363 . S
N582 C584 1.356 . S
N582 H594 0.984 . S
N582 H595 0.985 . S
N583 C585 1.356 . S
N583 H588 0.984 . S
N583 H589 0.985 . S
C584 C578 1.379 . S
C584 C581 1.363 . S
C584 N582 1.356 . S
C585 C579 1.363 . S
C585 C580 1.379 . S
C585 N583 1.356 . S
N586 C578 1.356 . S
N586 H592 0.984 . S
N586 H593 0.984 . S
N587 C580 1.356 . S
N587 H590 0.984 . S
N587 H591 0.985 . S
H588 N583 0.984 . S
H589 N583 0.985 . S
H590 N587 0.984 . S
H591 N587 0.985 . S
H592 N586 0.984 . S
H593 N586 0.984 . S
H594 N582 0.984 . S
H595 N582 0.985 . S
C596 C597 1.363 . S
C596 C602 1.379 . S
C596 N604 1.356 . S
C597 C596 1.363 . S
C597 C603 1.363 . S
C598 C599 1.363 . S
C598 C603 1.379 . S
C598 N605 1.356 . S
C599 C598 1.363 . S
C599 C602 1.363 . S
N600 C602 1.356 . S
N600 H612 0.984 . S
N600 H613 0.985 . S
N601 C603 1.356 . S
N601 H606 0.984 . S
N601 H607 0.985 . S
C602 C596 1.379 . S
C602 C599 1.363 . S
C602 N600 1.356 . S
C603 C597 1.363 . S
C603 C598 1.379 . S
C603 N601 1.356 . S
N604 C596 1.356 . S
N604 H610 0.984 . S
N604 H611 0.984 . S
N605 C598 1.356 . S
N605 H608 0.984 . S
N605 H609 0.985 . S
H606 N601 0.984 . S
H607 N601 0.985 . S
H608 N605 0.984 . S
H609 N605 0.985 . S
H610 N604 0.984 . S
H611 N604 0.984 . S
H612 N600 0.984 . S
H613 N600 0.985 . S
C614 C615 1.363 . S
C614 C620 1.379 . S
C614 N622 1.356 . S
C615 C614 1.363 . S
C615 C621 1.363 . S
C616 C617 1.363 . S
C616 C621 1.379 . S
C616 N623 1.356 . S
C617 C616 1.363 . S
C617 C620 1.363 . S
N618 C620 1.356 . S
N618 H630 0.984 . S
N618 H631 0.985 . S
N619 C621 1.356 . S
N619 H624 0.984 . S
N619 H625 0.985 . S
C620 C614 1.379 . S
C620 C617 1.363 . S
C620 N618 1.356 . S
C621 C615 1.363 . S
C621 C616 1.379 . S
C621 N619 1.356 . S
N622 C614 1.356 . S
N622 H628 0.984 . S
N622 H629 0.984 . S
N623 C616 1.356 . S
N623 H626 0.984 . S
N623 H627 0.985 . S
H624 N619 0.984 . S
H625 N619 0.985 . S
H626 N623 0.984 . S
H627 N623 0.985 . S
H628 N622 0.984 . S
H629 N622 0.984 . S
H630 N618 0.984 . S
H631 N618 0.985 . S
C632 C633 1.363 . S
C632 C638 1.379 . S
C632 N640 1.356 . S
C633 C632 1.363 . S
C633 C639 1.363 1_565 S
C634 C635 1.363 . S
C634 C639 1.379 . S
C634 N641 1.356 . S
C635 C634 1.363 . S
C635 C638 1.363 1_545 S
N636 C638 1.356 . S
N636 H648 0.984 . S
N636 H649 0.985 1_565 S
N637 C639 1.356 . S
N637 H642 0.984 1_545 S
N637 H643 0.985 . S
C638 C632 1.379 . S
C638 C635 1.363 1_565 S
C638 N636 1.356 . S
C639 C633 1.363 1_545 S
C639 C634 1.379 . S
C639 N637 1.356 . S
N640 C632 1.356 . S
N640 H646 0.984 . S
N640 H647 0.984 . S
N641 C634 1.356 . S
N641 H644 0.984 . S
N641 H645 0.985 . S
H642 N637 0.984 1_565 S
H643 N637 0.985 . S
H644 N641 0.984 . S
H645 N641 0.985 . S
H646 N640 0.984 . S
H647 N640 0.984 . S
H648 N636 0.984 . S
H649 N636 0.985 1_545 S
C650 C651 1.363 1_545 S
C650 C656 1.379 1_455 S
C650 N658 1.356 . S
C651 C650 1.363 1_565 S
C651 C657 1.363 1_556 S
C652 C653 1.363 1_565 S
C652 C657 1.379 1_655 S
C652 N659 1.356 . S
C653 C652 1.363 1_545 S
C653 C656 1.363 1_554 S
N654 C656 1.356 . S
N654 H666 0.984 . S
N654 H667 0.953 1_556 S
N655 C657 1.356 . S
N655 H660 0.953 1_554 S
N655 H661 0.985 . S
C656 C650 1.379 1_655 S
C656 C653 1.363 1_556 S
C656 N654 1.356 . S
C657 C651 1.363 1_554 S
C657 C652 1.379 1_455 S
C657 N655 1.356 . S
N658 C650 1.356 . S
N658 H664 0.984 . S
N658 H665 0.984 1_545 S
N659 C652 1.356 . S
N659 H662 0.984 1_565 S
N659 H663 0.985 . S
H660 N655 0.953 1_556 S
H661 N655 0.985 . S
H662 N659 0.984 1_545 S
H663 N659 0.985 . S
H664 N658 0.984 . S
H665 N658 0.984 1_565 S
H666 N654 0.984 . S
H667 N654 0.953 1_554 S
C668 C669 1.363 1_565 S
C668 C674 1.379 . S
C668 N676 1.356 . S
C669 C668 1.363 1_545 S
C669 C675 1.363 1_556 S
C670 C671 1.363 1_545 S
C670 C675 1.379 . S
C670 N677 1.356 . S
C671 C670 1.363 1_565 S
C671 C674 1.363 1_554 S
N672 C674 1.356 . S
N672 H684 0.984 . S
N672 H685 0.964 1_556 S
N673 C675 1.356 . S
N673 H678 0.964 1_554 S
N673 H679 0.985 . S
C674 C668 1.379 . S
C674 C671 1.363 1_556 S
C674 N672 1.356 . S
C675 C669 1.363 1_554 S
C675 C670 1.379 . S
C675 N673 1.356 . S
N676 C668 1.356 . S
N676 H682 0.984 . S
N676 H683 0.984 1_565 S
N677 C670 1.356 . S
N677 H680 0.984 1_545 S
N677 H681 0.985 . S
H678 N673 0.964 1_556 S
H679 N673 0.985 . S
H680 N677 0.984 1_565 S
H681 N677 0.985 . S
H682 N676 0.984 . S
H683 N676 0.984 1_545 S
H684 N672 0.984 . S
H685 N672 0.964 1_554 S
C686 C687 1.363 . S
C686 C692 1.379 1_455 S
C686 N694 1.356 . S
C687 C686 1.363 . S
C687 C693 1.363 1_545 S
C688 C689 1.363 . S
C688 C693 1.379 1_655 S
C688 N695 1.356 . S
C689 C688 1.363 . S
C689 C692 1.363 1_565 S
N690 C692 1.356 . S
N690 H702 0.984 . S
N690 H703 0.985 1_545 S
N691 C693 1.356 . S
N691 H696 0.984 1_565 S
N691 H697 0.985 . S
C692 C686 1.379 1_655 S
C692 C689 1.363 1_545 S
C692 N690 1.356 . S
C693 C687 1.363 1_565 S
C693 C688 1.379 1_455 S
C693 N691 1.356 . S
N694 C686 1.356 . S
N694 H700 0.984 . S
N694 H701 0.984 . S
N695 C688 1.356 . S
N695 H698 0.984 . S
N695 H699 0.985 . S
H696 N691 0.984 1_545 S
H697 N691 0.985 . S
H698 N695 0.984 . S
H699 N695 0.985 . S
H700 N694 0.984 . S
H701 N694 0.984 . S
H702 N690 0.984 . S
H703 N690 0.985 1_565 S
C704 C705 1.363 1_455 S
C704 C710 1.379 . S
C704 N712 1.356 1_455 S
C705 C704 1.363 1_655 S
C705 C711 1.363 . S
C706 C707 1.363 1_655 S
C706 C711 1.379 . S
C706 N713 1.356 1_655 S
C707 C706 1.363 1_455 S
C707 C710 1.363 . S
N708 C710 1.356 . S
N708 H720 0.984 1_554 S
N708 H721 0.985 . S
N709 C711 1.356 . S
N709 H714 0.984 . S
N709 H715 0.985 . S
C710 C704 1.379 . S
C710 C707 1.363 . S
C710 N708 1.356 . S
C711 C705 1.363 . S
C711 C706 1.379 . S
C711 N709 1.356 . S
N712 C704 1.356 1_655 S
N712 H718 0.984 1_654 S
N712 H719 0.984 . S
N713 C706 1.356 1_455 S
N713 H716 0.984 . S
N713 H717 0.985 1_455 S
H714 N709 0.984 . S
H715 N709 0.985 . S
H716 N713 0.984 . S
H717 N713 0.985 1_655 S
H718 N712 0.984 1_456 S
H719 N712 0.984 . S
H720 N708 0.984 1_556 S
H721 N708 0.985 . S
C722 C723 1.363 . S
C722 C728 1.379 1_455 S
C722 N730 1.356 . S
C723 C722 1.363 . S
C723 C729 1.363 . S
C724 C725 1.363 . S
C724 C729 1.379 1_655 S
C724 N731 1.356 . S
C725 C724 1.363 . S
C725 C728 1.363 . S
N726 C728 1.356 . S
N726 H738 0.984 . S
N726 H739 0.985 . S
N727 C729 1.356 . S
N727 H732 0.984 . S
N727 H733 0.985 . S
C728 C722 1.379 1_655 S
C728 C725 1.363 . S
C728 N726 1.356 . S
C729 C723 1.363 . S
C729 C724 1.379 1_455 S
C729 N727 1.356 . S
N730 C722 1.356 . S
N730 H736 0.984 . S
N730 H737 0.984 . S
N731 C724 1.356 . S
N731 H734 0.984 . S
N731 H735 0.985 . S
H732 N727 0.984 . S
H733 N727 0.985 . S
H734 N731 0.984 . S
H735 N731 0.985 . S
H736 N730 0.984 . S
H737 N730 0.984 . S
H738 N726 0.984 . S
H739 N726 0.985 . S
C740 C741 1.363 . S
C740 C746 1.379 . S
C740 N748 1.356 . S
C741 C740 1.363 . S
C741 C747 1.363 . S
C742 C743 1.363 . S
C742 C747 1.379 . S
C742 N749 1.356 . S
C743 C742 1.363 . S
C743 C746 1.363 . S
N744 C746 1.356 . S
N744 H756 0.984 . S
N744 H757 0.985 . S
N745 C747 1.356 . S
N745 H750 0.984 . S
N745 H751 0.985 . S
C746 C740 1.379 . S
C746 C743 1.363 . S
C746 N744 1.356 . S
C747 C741 1.363 . S
C747 C742 1.379 . S
C747 N745 1.356 . S
N748 C740 1.356 . S
N748 H754 0.984 . S
N748 H755 0.984 . S
N749 C742 1.356 . S
N749 H752 0.984 . S
N749 H753 0.985 . S
H750 N745 0.984 . S
H751 N745 0.985 . S
H752 N749 0.984 . S
H753 N749 0.985 . S
H754 N748 0.984 . S
H755 N748 0.984 . S
H756 N744 0.984 . S
H757 N744 0.985 . S
C758 C759 1.363 . S
C758 C764 1.379 . S
C758 N766 1.356 . S
C759 C758 1.363 . S
C759 C765 1.363 . S
C760 C761 1.363 . S
C760 C765 1.379 . S
C760 N767 1.356 . S
C761 C760 1.363 . S
C761 C764 1.363 . S
N762 C764 1.356 . S
N762 H774 0.984 . S
N762 H775 0.985 . S
N763 C765 1.356 . S
N763 H768 0.984 . S
N763 H769 0.985 . S
C764 C758 1.379 . S
C764 C761 1.363 . S
C764 N762 1.356 . S
C765 C759 1.363 . S
C765 C760 1.379 . S
C765 N763 1.356 . S
N766 C758 1.356 . S
N766 H772 0.984 . S
N766 H773 0.984 . S
N767 C760 1.356 . S
N767 H770 0.984 . S
N767 H771 0.985 . S
H768 N763 0.984 . S
H769 N763 0.985 . S
H770 N767 0.984 . S
H771 N767 0.985 . S
H772 N766 0.984 . S
H773 N766 0.984 . S
H774 N762 0.984 . S
H775 N762 0.985 . S
C776 C777 1.363 . S
C776 C782 1.379 . S
C776 N784 1.356 . S
C777 C776 1.363 . S
C777 C783 1.363 1_655 S
C778 C779 1.363 . S
C778 C783 1.379 . S
C778 N785 1.356 . S
C779 C778 1.363 . S
C779 C782 1.363 1_455 S
N780 C782 1.356 1_455 S
N780 H792 0.984 1_455 S
N780 H793 0.985 . S
N781 C783 1.356 1_655 S
N781 H786 0.984 . S
N781 H787 0.985 1_655 S
C782 C776 1.379 . S
C782 C779 1.363 1_655 S
C782 N780 1.356 1_655 S
C783 C777 1.363 1_455 S
C783 C778 1.379 . S
C783 N781 1.356 1_455 S
N784 C776 1.356 . S
N784 H790 0.984 . S
N784 H791 0.984 . S
N785 C778 1.356 . S
N785 H788 0.984 . S
N785 H789 0.985 . S
H786 N781 0.984 . S
H787 N781 0.985 1_455 S
H788 N785 0.984 . S
H789 N785 0.985 . S
H790 N784 0.984 . S
H791 N784 0.984 . S
H792 N780 0.984 1_655 S
H793 N780 0.985 . S
C794 C795 1.363 . S
C794 C800 1.379 . S
C794 N802 1.356 . S
C795 C794 1.363 . S
C795 C801 1.363 . S
C796 C797 1.363 . S
C796 C801 1.379 . S
C796 N803 1.356 . S
C797 C796 1.363 . S
C797 C800 1.363 . S
N798 C800 1.356 . S
N798 H810 0.984 . S
N798 H811 0.985 . S
N799 C801 1.356 . S
N799 H804 0.984 . S
N799 H805 0.985 . S
C800 C794 1.379 . S
C800 C797 1.363 . S
C800 N798 1.356 . S
C801 C795 1.363 . S
C801 C796 1.379 . S
C801 N799 1.356 . S
N802 C794 1.356 . S
N802 H808 0.984 . S
N802 H809 0.984 . S
N803 C796 1.356 . S
N803 H806 0.984 . S
N803 H807 0.985 . S
H804 N799 0.984 . S
H805 N799 0.985 . S
H806 N803 0.984 . S
H807 N803 0.985 . S
H808 N802 0.984 . S
H809 N802 0.984 . S
H810 N798 0.984 . S
H811 N798 0.985 . S
C812 C813 1.363 . S
C812 C818 1.379 . S
C812 N820 1.356 . S
C813 C812 1.363 . S
C813 C819 1.363 . S
C814 C815 1.363 . S
C814 C819 1.379 . S
C814 N821 1.356 . S
C815 C814 1.363 . S
C815 C818 1.363 . S
N816 C818 1.356 . S
N816 H828 0.984 1_556 S
N816 H829 0.985 . S
N817 C819 1.356 . S
N817 H822 0.984 . S
N817 H823 0.985 . S
C818 C812 1.379 . S
C818 C815 1.363 . S
C818 N816 1.356 . S
C819 C813 1.363 . S
C819 C814 1.379 . S
C819 N817 1.356 . S
N820 C812 1.356 . S
N820 H826 0.984 1_556 S
N820 H827 0.984 . S
N821 C814 1.356 . S
N821 H824 0.984 . S
N821 H825 0.985 . S
H822 N817 0.984 . S
H823 N817 0.985 . S
H824 N821 0.984 . S
H825 N821 0.985 . S
H826 N820 0.984 1_554 S
H827 N820 0.984 . S
H828 N816 0.984 1_554 S
H829 N816 0.985 . S
C830 C831 1.363 . S
C830 C836 1.379 1_455 S
C830 N838 1.356 . S
C831 C830 1.363 . S
C831 C837 1.363 . S
C832 C833 1.363 . S
C832 C837 1.379 1_655 S
C832 N839 1.356 . S
C833 C832 1.363 . S
C833 C836 1.363 . S
N834 C836 1.356 . S
N834 H846 0.984 . S
N834 H847 0.985 . S
N835 C837 1.356 . S
N835 H840 0.984 . S
N835 H841 0.985 . S
C836 C830 1.379 1_655 S
C836 C833 1.363 . S
C836 N834 1.356 . S
C837 C831 1.363 . S
C837 C832 1.379 1_455 S
C837 N835 1.356 . S
N838 C830 1.356 . S
N838 H844 0.984 . S
N838 H845 0.984 . S
N839 C832 1.356 . S
N839 H842 0.984 . S
N839 H843 0.985 . S
H840 N835 0.984 . S
H841 N835 0.985 . S
H842 N839 0.984 . S
H843 N839 0.985 . S
H844 N838 0.984 . S
H845 N838 0.984 . S
H846 N834 0.984 . S
H847 N834 0.985 . S
C848 C849 1.363 . S
C848 C854 1.379 . S
C848 N856 1.356 . S
C849 C848 1.363 . S
C849 C855 1.363 1_655 S
C850 C851 1.363 . S
C850 C855 1.379 . S
C850 N857 1.356 . S
C851 C850 1.363 . S
C851 C854 1.363 1_455 S
N852 C854 1.356 1_455 S
N852 H864 0.984 1_456 S
N852 H865 0.985 . S
N853 C855 1.356 1_655 S
N853 H858 0.984 . S
N853 H859 0.985 1_655 S
C854 C848 1.379 . S
C854 C851 1.363 1_655 S
C854 N852 1.356 1_655 S
C855 C849 1.363 1_455 S
C855 C850 1.379 . S
C855 N853 1.356 1_455 S
N856 C848 1.356 . S
N856 H862 0.984 1_556 S
N856 H863 0.984 . S
N857 C850 1.356 . S
N857 H860 0.984 . S
N857 H861 0.985 . S
H858 N853 0.984 . S
H859 N853 0.985 1_455 S
H860 N857 0.984 . S
H861 N857 0.985 . S
H862 N856 0.984 1_554 S
H863 N856 0.984 . S
H864 N852 0.984 1_654 S
H865 N852 0.985 . S
C866 C867 1.363 . S
C866 C872 1.379 1_655 S
C866 N874 1.356 . S
C867 C866 1.363 . S
C867 C873 1.363 . S
C868 C869 1.363 . S
C868 C873 1.379 1_455 S
C868 N875 1.356 . S
C869 C868 1.363 . S
C869 C872 1.363 . S
N870 C872 1.356 . S
N870 H882 0.984 . S
N870 H883 0.985 . S
N871 C873 1.356 . S
N871 H876 0.984 . S
N871 H877 0.985 . S
C872 C866 1.379 1_455 S
C872 C869 1.363 . S
C872 N870 1.356 . S
C873 C867 1.363 . S
C873 C868 1.379 1_655 S
C873 N871 1.356 . S
N874 C866 1.356 . S
N874 H880 0.984 . S
N874 H881 0.984 . S
N875 C868 1.356 . S
N875 H878 0.984 . S
N875 H879 0.985 . S
H876 N871 0.984 . S
H877 N871 0.985 . S
H878 N875 0.984 . S
H879 N875 0.985 . S
H880 N874 0.984 . S
H881 N874 0.984 . S
H882 N870 0.984 . S
H883 N870 0.985 . S
C884 C885 1.363 . S
C884 C890 1.379 . S
C884 N892 1.356 . S
C885 C884 1.363 . S
C885 C891 1.363 . S
C886 C887 1.363 . S
C886 C891 1.379 . S
C886 N893 1.356 . S
C887 C886 1.363 . S
C887 C890 1.363 . S
N888 C890 1.356 . S
N888 H900 0.984 . S
N888 H901 0.985 . S
N889 C891 1.356 . S
N889 H894 0.984 . S
N889 H895 0.985 . S
C890 C884 1.379 . S
C890 C887 1.363 . S
C890 N888 1.356 . S
C891 C885 1.363 . S
C891 C886 1.379 . S
C891 N889 1.356 . S
N892 C884 1.356 . S
N892 H898 0.984 . S
N892 H899 0.984 . S
N893 C886 1.356 . S
N893 H896 0.984 . S
N893 H897 0.985 . S
H894 N889 0.984 . S
H895 N889 0.985 . S
H896 N893 0.984 . S
H897 N893 0.985 . S
H898 N892 0.984 . S
H899 N892 0.984 . S
H900 N888 0.984 . S
H901 N888 0.985 . S
C902 C903 1.363 . S
C902 C908 1.379 . S
C902 N910 1.356 . S
C903 C902 1.363 . S
C903 C909 1.363 . S
C904 C905 1.363 . S
C904 C909 1.379 . S
C904 N911 1.356 . S
C905 C904 1.363 . S
C905 C908 1.363 . S
N906 C908 1.356 . S
N906 H918 0.984 . S
N906 H919 0.985 . S
N907 C909 1.356 . S
N907 H912 0.984 . S
N907 H913 0.985 . S
C908 C902 1.379 . S
C908 C905 1.363 . S
C908 N906 1.356 . S
C909 C903 1.363 . S
C909 C904 1.379 . S
C909 N907 1.356 . S
N910 C902 1.356 . S
N910 H916 0.984 . S
N910 H917 0.984 . S
N911 C904 1.356 . S
N911 H914 0.984 . S
N911 H915 0.985 . S
H912 N907 0.984 . S
H913 N907 0.985 . S
H914 N911 0.984 . S
H915 N911 0.985 . S
H916 N910 0.984 . S
H917 N910 0.984 . S
H918 N906 0.984 . S
H919 N906 0.985 . S
C920 C921 1.363 1_455 S
C920 C926 1.379 . S
C920 N928 1.356 1_455 S
C921 C920 1.363 1_655 S
C921 C927 1.363 . S
C922 C923 1.363 1_655 S
C922 C927 1.379 . S
C922 N929 1.356 1_655 S
C923 C922 1.363 1_455 S
C923 C926 1.363 . S
N924 C926 1.356 . S
N924 H936 0.984 . S
N924 H937 0.985 . S
N925 C927 1.356 . S
N925 H930 0.984 . S
N925 H931 0.985 . S
C926 C920 1.379 . S
C926 C923 1.363 . S
C926 N924 1.356 . S
C927 C921 1.363 . S
C927 C922 1.379 . S
C927 N925 1.356 . S
N928 C920 1.356 1_655 S
N928 H934 0.984 1_655 S
N928 H935 0.984 . S
N929 C922 1.356 1_455 S
N929 H932 0.984 . S
N929 H933 0.985 1_455 S
H930 N925 0.984 . S
H931 N925 0.985 . S
H932 N929 0.984 . S
H933 N929 0.985 1_655 S
H934 N928 0.984 1_455 S
H935 N928 0.984 . S
H936 N924 0.984 . S
H937 N924 0.985 . S
C938 C939 1.363 . S
C938 C944 1.379 . S
C938 N946 1.356 . S
C939 C938 1.363 . S
C939 C945 1.363 . S
C940 C941 1.363 . S
C940 C945 1.379 . S
C940 N947 1.356 . S
C941 C940 1.363 . S
C941 C944 1.363 . S
N942 C944 1.356 . S
N942 H954 0.984 . S
N942 H955 0.985 . S
N943 C945 1.356 . S
N943 H948 0.984 . S
N943 H949 0.985 . S
C944 C938 1.379 . S
C944 C941 1.363 . S
C944 N942 1.356 . S
C945 C939 1.363 . S
C945 C940 1.379 . S
C945 N943 1.356 . S
N946 C938 1.356 . S
N946 H952 0.984 . S
N946 H953 0.984 . S
N947 C940 1.356 . S
N947 H950 0.984 . S
N947 H951 0.985 . S
H948 N943 0.984 . S
H949 N943 0.985 . S
H950 N947 0.984 . S
H951 N947 0.985 . S
H952 N946 0.984 . S
H953 N946 0.984 . S
H954 N942 0.984 . S
H955 N942 0.985 . S
C956 C957 1.363 . S
C956 C962 1.379 . S
C956 N964 1.356 . S
C957 C956 1.363 . S
C957 C963 1.363 . S
C958 C959 1.363 . S
C958 C963 1.379 . S
C958 N965 1.356 . S
C959 C958 1.363 . S
C959 C962 1.363 . S
N960 C962 1.356 . S
N960 H972 0.984 1_554 S
N960 H973 0.985 . S
N961 C963 1.356 . S
N961 H966 0.984 . S
N961 H967 0.985 . S
C962 C956 1.379 . S
C962 C959 1.363 . S
C962 N960 1.356 . S
C963 C957 1.363 . S
C963 C958 1.379 . S
C963 N961 1.356 . S
N964 C956 1.356 . S
N964 H970 0.984 1_554 S
N964 H971 0.984 . S
N965 C958 1.356 . S
N965 H968 0.984 . S
N965 H969 0.985 . S
H966 N961 0.984 . S
H967 N961 0.985 . S
H968 N965 0.984 . S
H969 N965 0.985 . S
H970 N964 0.984 1_556 S
H971 N964 0.984 . S
H972 N960 0.984 1_556 S
H973 N960 0.985 . S
C974 C975 1.363 . S
C974 C980 1.379 1_655 S
C974 N982 1.356 . S
C975 C974 1.363 . S
C975 C981 1.363 . S
C976 C977 1.363 . S
C976 C981 1.379 1_455 S
C976 N983 1.356 . S
C977 C976 1.363 . S
C977 C980 1.363 . S
N978 C980 1.356 . S
N978 H990 0.984 . S
N978 H991 0.985 . S
N979 C981 1.356 . S
N979 H984 0.984 . S
N979 H985 0.985 . S
C980 C974 1.379 1_455 S
C980 C977 1.363 . S
C980 N978 1.356 . S
C981 C975 1.363 . S
C981 C976 1.379 1_655 S
C981 N979 1.356 . S
N982 C974 1.356 . S
N982 H988 0.984 . S
N982 H989 0.984 . S
N983 C976 1.356 . S
N983 H986 0.984 . S
N983 H987 0.985 . S
H984 N979 0.984 . S
H985 N979 0.985 . S
H986 N983 0.984 . S
H987 N983 0.985 . S
H988 N982 0.984 . S
H989 N982 0.984 . S
H990 N978 0.984 . S
H991 N978 0.985 . S
C992 C993 1.363 . S
C992 C998 1.379 . S
C992 N1000 1.356 . S
C993 C992 1.363 . S
C993 C999 1.363 1_556 S
C994 C995 1.363 . S
C994 C999 1.379 . S
C994 N1001 1.356 . S
C995 C994 1.363 . S
C995 C998 1.363 1_554 S
N996 C998 1.356 . S
N996 H1008 0.984 . S
N996 H1009 0.985 . S
N997 C999 1.356 . S
N997 H1002 0.984 . S
N997 H1003 0.985 . S
C998 C992 1.379 . S
C998 C995 1.363 1_556 S
C998 N996 1.356 . S
C999 C993 1.363 1_554 S
C999 C994 1.379 . S
C999 N997 1.356 . S
N1000 C992 1.356 . S
N1000 H1006 0.984 . S
N1000 H1007 0.984 . S
N1001 C994 1.356 . S
N1001 H1004 0.984 . S
N1001 H1005 0.985 . S
H1002 N997 0.984 . S
H1003 N997 0.985 . S
H1004 N1001 0.984 . S
H1005 N1001 0.985 . S
H1006 N1000 0.984 . S
H1007 N1000 0.984 . S
H1008 N996 0.984 . S
H1009 N996 0.985 . S
C1010 C1011 1.363 . S
C1010 C1016 1.379 1_545 S
C1010 N1018 1.356 . S
C1011 C1010 1.363 . S
C1011 C1017 1.363 . S
C1012 C1013 1.363 . S
C1012 C1017 1.379 1_565 S
C1012 N1019 1.356 . S
C1013 C1012 1.363 . S
C1013 C1016 1.363 . S
N1014 C1016 1.356 . S
N1014 H1026 0.984 . S
N1014 H1027 0.985 . S
N1015 C1017 1.356 . S
N1015 H1020 0.984 . S
N1015 H1021 0.985 . S
C1016 C1010 1.379 1_565 S
C1016 C1013 1.363 . S
C1016 N1014 1.356 . S
C1017 C1011 1.363 . S
C1017 C1012 1.379 1_545 S
C1017 N1015 1.356 . S
N1018 C1010 1.356 . S
N1018 H1024 0.984 . S
N1018 H1025 0.984 . S
N1019 C1012 1.356 . S
N1019 H1022 0.984 . S
N1019 H1023 0.985 . S
H1020 N1015 0.984 . S
H1021 N1015 0.985 . S
H1022 N1019 0.984 . S
H1023 N1019 0.985 . S
H1024 N1018 0.984 . S
H1025 N1018 0.984 . S
H1026 N1014 0.984 . S
H1027 N1014 0.985 . S
C1028 C1029 1.363 . S
C1028 C1034 1.379 . S
C1028 N1036 1.356 . S
C1029 C1028 1.363 . S
C1029 C1035 1.363 . S
C1030 C1031 1.363 . S
C1030 C1035 1.379 . S
C1030 N1037 1.356 . S
C1031 C1030 1.363 . S
C1031 C1034 1.363 . S
N1032 C1034 1.356 . S
N1032 H1044 0.984 . S
N1032 H1045 0.985 . S
N1033 C1035 1.356 . S
N1033 H1038 0.984 . S
N1033 H1039 0.985 . S
C1034 C1028 1.379 . S
C1034 C1031 1.363 . S
C1034 N1032 1.356 . S
C1035 C1029 1.363 . S
C1035 C1030 1.379 . S
C1035 N1033 1.356 . S
N1036 C1028 1.356 . S
N1036 H1042 0.984 . S
N1036 H1043 0.984 . S
N1037 C1030 1.356 . S
N1037 H1040 0.984 . S
N1037 H1041 0.985 . S
H1038 N1033 0.984 . S
H1039 N1033 0.985 . S
H1040 N1037 0.984 . S
H1041 N1037 0.985 . S
H1042 N1036 0.984 . S
H1043 N1036 0.984 . S
H1044 N1032 0.984 . S
H1045 N1032 0.985 . S
C1046 C1047 1.363 . S
C1046 C1052 1.379 1_545 S
C1046 N1054 1.356 . S
C1047 C1046 1.363 . S
C1047 C1053 1.363 . S
C1048 C1049 1.363 . S
C1048 C1053 1.379 1_565 S
C1048 N1055 1.356 . S
C1049 C1048 1.363 . S
C1049 C1052 1.363 . S
N1050 C1052 1.356 . S
N1050 H1062 0.984 . S
N1050 H1063 0.985 . S
N1051 C1053 1.356 . S
N1051 H1056 0.984 . S
N1051 H1057 0.985 . S
C1052 C1046 1.379 1_565 S
C1052 C1049 1.363 . S
C1052 N1050 1.356 . S
C1053 C1047 1.363 . S
C1053 C1048 1.379 1_545 S
C1053 N1051 1.356 . S
N1054 C1046 1.356 . S
N1054 H1060 0.984 . S
N1054 H1061 0.984 . S
N1055 C1048 1.356 . S
N1055 H1058 0.984 . S
N1055 H1059 0.985 . S
H1056 N1051 0.984 . S
H1057 N1051 0.985 . S
H1058 N1055 0.984 . S
H1059 N1055 0.985 . S
H1060 N1054 0.984 . S
H1061 N1054 0.984 . S
H1062 N1050 0.984 . S
H1063 N1050 0.985 . S
C1064 C1065 1.363 1_556 S
C1064 C1070 1.379 . S
C1064 N1072 1.356 . S
C1065 C1064 1.363 1_554 S
C1065 C1071 1.363 . S
C1066 C1067 1.363 1_554 S
C1066 C1071 1.379 . S
C1066 N1073 1.356 . S
C1067 C1066 1.363 1_556 S
C1067 C1070 1.363 . S
N1068 C1070 1.356 . S
N1068 H1080 0.984 . S
N1068 H1081 0.985 . S
N1069 C1071 1.356 . S
N1069 H1074 0.984 . S
N1069 H1075 0.985 . S
C1070 C1064 1.379 . S
C1070 C1067 1.363 . S
C1070 N1068 1.356 . S
C1071 C1065 1.363 . S
C1071 C1066 1.379 . S
C1071 N1069 1.356 . S
N1072 C1064 1.356 . S
N1072 H1078 0.984 . S
N1072 H1079 0.984 . S
N1073 C1066 1.356 . S
N1073 H1076 0.984 . S
N1073 H1077 0.985 . S
H1074 N1069 0.984 . S
H1075 N1069 0.985 . S
H1076 N1073 0.984 . S
H1077 N1073 0.985 . S
H1078 N1072 0.984 . S
H1079 N1072 0.984 . S
H1080 N1068 0.984 . S
H1081 N1068 0.985 . S
C1082 C1083 1.363 . S
C1082 C1088 1.379 1_565 S
C1082 N1090 1.356 . S
C1083 C1082 1.363 . S
C1083 C1089 1.363 . S
C1084 C1085 1.363 . S
C1084 C1089 1.379 1_545 S
C1084 N1091 1.356 . S
C1085 C1084 1.363 . S
C1085 C1088 1.363 . S
N1086 C1088 1.356 . S
N1086 H1098 0.984 . S
N1086 H1099 0.985 . S
N1087 C1089 1.356 . S
N1087 H1092 0.984 . S
N1087 H1093 0.985 . S
C1088 C1082 1.379 1_545 S
C1088 C1085 1.363 . S
C1088 N1086 1.356 . S
C1089 C1083 1.363 . S
C1089 C1084 1.379 1_565 S
C1089 N1087 1.356 . S
N1090 C1082 1.356 . S
N1090 H1096 0.984 . S
N1090 H1097 0.984 . S
N1091 C1084 1.356 . S
N1091 H1094 0.984 . S
N1091 H1095 0.985 . S
H1092 N1087 0.984 . S
H1093 N1087 0.985 . S
H1094 N1091 0.984 . S
H1095 N1091 0.985 . S
H1096 N1090 0.984 . S
H1097 N1090 0.984 . S
H1098 N1086 0.984 . S
H1099 N1086 0.985 . S
C1100 C1101 1.363 . S
C1100 C1106 1.379 . S
C1100 N1108 1.356 . S
C1101 C1100 1.363 . S
C1101 C1107 1.363 . S
C1102 C1103 1.363 . S
C1102 C1107 1.379 . S
C1102 N1109 1.356 . S
C1103 C1102 1.363 . S
C1103 C1106 1.363 . S
N1104 C1106 1.356 . S
N1104 H1116 0.984 . S
N1104 H1117 0.985 . S
N1105 C1107 1.356 . S
N1105 H1110 0.984 . S
N1105 H1111 0.985 . S
C1106 C1100 1.379 . S
C1106 C1103 1.363 . S
C1106 N1104 1.356 . S
C1107 C1101 1.363 . S
C1107 C1102 1.379 . S
C1107 N1105 1.356 . S
N1108 C1100 1.356 . S
N1108 H1114 0.984 . S
N1108 H1115 0.984 . S
N1109 C1102 1.356 . S
N1109 H1112 0.984 . S
N1109 H1113 0.985 . S
H1110 N1105 0.984 . S
H1111 N1105 0.985 . S
H1112 N1109 0.984 . S
H1113 N1109 0.985 . S
H1114 N1108 0.984 . S
H1115 N1108 0.984 . S
H1116 N1104 0.984 . S
H1117 N1104 0.985 . S
C1118 C1119 1.363 . S
C1118 C1124 1.379 1_545 S
C1118 N1126 1.356 . S
C1119 C1118 1.363 . S
C1119 C1125 1.363 . S
C1120 C1121 1.363 . S
C1120 C1125 1.379 1_565 S
C1120 N1127 1.356 . S
C1121 C1120 1.363 . S
C1121 C1124 1.363 . S
N1122 C1124 1.356 . S
N1122 H1134 0.984 . S
N1122 H1135 0.985 . S
N1123 C1125 1.356 . S
N1123 H1128 0.984 . S
N1123 H1129 0.985 . S
C1124 C1118 1.379 1_565 S
C1124 C1121 1.363 . S
C1124 N1122 1.356 . S
C1125 C1119 1.363 . S
C1125 C1120 1.379 1_545 S
C1125 N1123 1.356 . S
N1126 C1118 1.356 . S
N1126 H1132 0.984 . S
N1126 H1133 0.984 . S
N1127 C1120 1.356 . S
N1127 H1130 0.984 . S
N1127 H1131 0.985 . S
H1128 N1123 0.984 . S
H1129 N1123 0.985 . S
H1130 N1127 0.984 . S
H1131 N1127 0.985 . S
H1132 N1126 0.984 . S
H1133 N1126 0.984 . S
H1134 N1122 0.984 . S
H1135 N1122 0.985 . S
C1136 C1137 1.363 . S
C1136 C1142 1.379 . S
C1136 N1144 1.356 . S
C1137 C1136 1.363 . S
C1137 C1143 1.363 . S
C1138 C1139 1.363 . S
C1138 C1143 1.379 . S
C1138 N1145 1.356 . S
C1139 C1138 1.363 . S
C1139 C1142 1.363 . S
N1140 C1142 1.356 . S
N1140 H1152 0.984 . S
N1140 H1153 0.985 . S
N1141 C1143 1.356 . S
N1141 H1146 0.984 . S
N1141 H1147 0.985 . S
C1142 C1136 1.379 . S
C1142 C1139 1.363 . S
C1142 N1140 1.356 . S
C1143 C1137 1.363 . S
C1143 C1138 1.379 . S
C1143 N1141 1.356 . S
N1144 C1136 1.356 . S
N1144 H1150 0.984 . S
N1144 H1151 0.984 . S
N1145 C1138 1.356 . S
N1145 H1148 0.984 . S
N1145 H1149 0.985 . S
H1146 N1141 0.984 . S
H1147 N1141 0.985 . S
H1148 N1145 0.984 . S
H1149 N1145 0.985 . S
H1150 N1144 0.984 . S
H1151 N1144 0.984 . S
H1152 N1140 0.984 . S
H1153 N1140 0.985 . S
C1154 C1155 1.363 . S
C1154 C1160 1.379 . S
C1154 N1162 1.356 . S
C1155 C1154 1.363 . S
C1155 C1161 1.363 . S
C1156 C1157 1.363 . S
C1156 C1161 1.379 . S
C1156 N1163 1.356 . S
C1157 C1156 1.363 . S
C1157 C1160 1.363 . S
N1158 C1160 1.356 . S
N1158 H1170 0.984 . S
N1158 H1171 0.985 . S
N1159 C1161 1.356 . S
N1159 H1164 0.984 . S
N1159 H1165 0.985 . S
C1160 C1154 1.379 . S
C1160 C1157 1.363 . S
C1160 N1158 1.356 . S
C1161 C1155 1.363 . S
C1161 C1156 1.379 . S
C1161 N1159 1.356 . S
N1162 C1154 1.356 . S
N1162 H1168 0.984 . S
N1162 H1169 0.984 . S
N1163 C1156 1.356 . S
N1163 H1166 0.984 . S
N1163 H1167 0.985 . S
H1164 N1159 0.984 . S
H1165 N1159 0.985 . S
H1166 N1163 0.984 . S
H1167 N1163 0.985 . S
H1168 N1162 0.984 . S
H1169 N1162 0.984 . S
H1170 N1158 0.984 . S
H1171 N1158 0.985 . S
C1172 C1173 1.363 1_556 S
C1172 C1178 1.379 . S
C1172 N1180 1.356 . S
C1173 C1172 1.363 1_554 S
C1173 C1179 1.363 . S
C1174 C1175 1.363 1_554 S
C1174 C1179 1.379 . S
C1174 N1181 1.356 . S
C1175 C1174 1.363 1_556 S
C1175 C1178 1.363 . S
N1176 C1178 1.356 . S
N1176 H1188 0.984 . S
N1176 H1189 0.985 . S
N1177 C1179 1.356 . S
N1177 H1182 0.984 . S
N1177 H1183 0.985 . S
C1178 C1172 1.379 . S
C1178 C1175 1.363 . S
C1178 N1176 1.356 . S
C1179 C1173 1.363 . S
C1179 C1174 1.379 . S
C1179 N1177 1.356 . S
N1180 C1172 1.356 . S
N1180 H1186 0.984 . S
N1180 H1187 0.984 . S
N1181 C1174 1.356 . S
N1181 H1184 0.984 . S
N1181 H1185 0.985 . S
H1182 N1177 0.984 . S
H1183 N1177 0.985 . S
H1184 N1181 0.984 . S
H1185 N1181 0.985 . S
H1186 N1180 0.984 . S
H1187 N1180 0.984 . S
H1188 N1176 0.984 . S
H1189 N1176 0.985 . S
C1190 C1191 1.363 . S
C1190 C1196 1.379 . S
C1190 N1198 1.356 . S
C1191 C1190 1.363 . S
C1191 C1197 1.363 . S
C1192 C1193 1.363 . S
C1192 C1197 1.379 . S
C1192 N1199 1.356 . S
C1193 C1192 1.363 . S
C1193 C1196 1.363 . S
N1194 C1196 1.356 . S
N1194 H1206 0.984 . S
N1194 H1207 0.985 . S
N1195 C1197 1.356 . S
N1195 H1200 0.984 . S
N1195 H1201 0.985 . S
C1196 C1190 1.379 . S
C1196 C1193 1.363 . S
C1196 N1194 1.356 . S
C1197 C1191 1.363 . S
C1197 C1192 1.379 . S
C1197 N1195 1.356 . S
N1198 C1190 1.356 . S
N1198 H1204 0.984 . S
N1198 H1205 0.984 . S
N1199 C1192 1.356 . S
N1199 H1202 0.984 . S
N1199 H1203 0.985 . S
H1200 N1195 0.984 . S
H1201 N1195 0.985 . S
H1202 N1199 0.984 . S
H1203 N1199 0.985 . S
H1204 N1198 0.984 . S
H1205 N1198 0.984 . S
H1206 N1194 0.984 . S
H1207 N1194 0.985 . S
C1208 C1209 1.363 . S
C1208 C1214 1.379 . S
C1208 N1216 1.356 . S
C1209 C1208 1.363 . S
C1209 C1215 1.363 . S
C1210 C1211 1.363 . S
C1210 C1215 1.379 . S
C1210 N1217 1.356 . S
C1211 C1210 1.363 . S
C1211 C1214 1.363 . S
N1212 C1214 1.356 . S
N1212 H1224 0.984 . S
N1212 H1225 0.985 . S
N1213 C1215 1.356 . S
N1213 H1218 0.984 . S
N1213 H1219 0.985 . S
C1214 C1208 1.379 . S
C1214 C1211 1.363 . S
C1214 N1212 1.356 . S
C1215 C1209 1.363 . S
C1215 C1210 1.379 . S
C1215 N1213 1.356 . S
N1216 C1208 1.356 . S
N1216 H1222 0.984 . S
N1216 H1223 0.984 . S
N1217 C1210 1.356 . S
N1217 H1220 0.984 . S
N1217 H1221 0.985 . S
H1218 N1213 0.984 . S
H1219 N1213 0.985 . S
H1220 N1217 0.984 . S
H1221 N1217 0.985 . S
H1222 N1216 0.984 . S
H1223 N1216 0.984 . S
H1224 N1212 0.984 . S
H1225 N1212 0.985 . S
C1226 C1227 1.363 . S
C1226 C1232 1.379 . S
C1226 N1234 1.356 . S
C1227 C1226 1.363 . S
C1227 C1233 1.363 . S
C1228 C1229 1.363 . S
C1228 C1233 1.379 . S
C1228 N1235 1.356 . S
C1229 C1228 1.363 . S
C1229 C1232 1.363 . S
N1230 C1232 1.356 . S
N1230 H1242 0.984 . S
N1230 H1243 0.985 . S
N1231 C1233 1.356 . S
N1231 H1236 0.984 . S
N1231 H1237 0.985 . S
C1232 C1226 1.379 . S
C1232 C1229 1.363 . S
C1232 N1230 1.356 . S
C1233 C1227 1.363 . S
C1233 C1228 1.379 . S
C1233 N1231 1.356 . S
N1234 C1226 1.356 . S
N1234 H1240 0.984 . S
N1234 H1241 0.984 . S
N1235 C1228 1.356 . S
N1235 H1238 0.984 . S
N1235 H1239 0.985 . S
H1236 N1231 0.984 . S
H1237 N1231 0.985 . S
H1238 N1235 0.984 . S
H1239 N1235 0.985 . S
H1240 N1234 0.984 . S
H1241 N1234 0.984 . S
H1242 N1230 0.984 . S
H1243 N1230 0.985 . S
C1244 C1245 1.363 . S
C1244 C1250 1.379 . S
C1244 N1252 1.356 . S
C1245 C1244 1.363 . S
C1245 C1251 1.363 1_556 S
C1246 C1247 1.363 . S
C1246 C1251 1.379 . S
C1246 N1253 1.356 . S
C1247 C1246 1.363 . S
C1247 C1250 1.363 1_554 S
N1248 C1250 1.356 . S
N1248 H1260 0.984 . S
N1248 H1261 0.985 . S
N1249 C1251 1.356 . S
N1249 H1254 0.984 . S
N1249 H1255 0.985 . S
C1250 C1244 1.379 . S
C1250 C1247 1.363 1_556 S
C1250 N1248 1.356 . S
C1251 C1245 1.363 1_554 S
C1251 C1246 1.379 . S
C1251 N1249 1.356 . S
N1252 C1244 1.356 . S
N1252 H1258 0.984 . S
N1252 H1259 0.984 . S
N1253 C1246 1.356 . S
N1253 H1256 0.984 . S
N1253 H1257 0.985 . S
H1254 N1249 0.984 . S
H1255 N1249 0.985 . S
H1256 N1253 0.984 . S
H1257 N1253 0.985 . S
H1258 N1252 0.984 . S
H1259 N1252 0.984 . S
H1260 N1248 0.984 . S
H1261 N1248 0.985 . S
C1262 C1263 1.363 . S
C1262 C1268 1.379 . S
C1262 N1270 1.356 . S
C1263 C1262 1.363 . S
C1263 C1269 1.363 . S
C1264 C1265 1.363 . S
C1264 C1269 1.379 . S
C1264 N1271 1.356 . S
C1265 C1264 1.363 . S
C1265 C1268 1.363 . S
N1266 C1268 1.356 . S
N1266 H1278 0.984 . S
N1266 H1279 0.985 . S
N1267 C1269 1.356 . S
N1267 H1272 0.984 . S
N1267 H1273 0.985 . S
C1268 C1262 1.379 . S
C1268 C1265 1.363 . S
C1268 N1266 1.356 . S
C1269 C1263 1.363 . S
C1269 C1264 1.379 . S
C1269 N1267 1.356 . S
N1270 C1262 1.356 . S
N1270 H1276 0.984 . S
N1270 H1277 0.984 . S
N1271 C1264 1.356 . S
N1271 H1274 0.984 . S
N1271 H1275 0.985 . S
H1272 N1267 0.984 . S
H1273 N1267 0.985 . S
H1274 N1271 0.984 . S
H1275 N1271 0.985 . S
H1276 N1270 0.984 . S
H1277 N1270 0.984 . S
H1278 N1266 0.984 . S
H1279 N1266 0.985 . S
C1280 C1281 1.363 . S
C1280 C1286 1.379 . S
C1280 N1288 1.356 . S
C1281 C1280 1.363 . S
C1281 C1287 1.363 . S
C1282 C1283 1.363 . S
C1282 C1287 1.379 . S
C1282 N1289 1.356 . S
C1283 C1282 1.363 . S
C1283 C1286 1.363 . S
N1284 C1286 1.356 . S
N1284 H1296 0.984 . S
N1284 H1297 0.985 . S
N1285 C1287 1.356 . S
N1285 H1290 0.984 . S
N1285 H1291 0.985 . S
C1286 C1280 1.379 . S
C1286 C1283 1.363 . S
C1286 N1284 1.356 . S
C1287 C1281 1.363 . S
C1287 C1282 1.379 . S
C1287 N1285 1.356 . S
N1288 C1280 1.356 . S
N1288 H1294 0.984 . S
N1288 H1295 0.984 . S
N1289 C1282 1.356 . S
N1289 H1292 0.984 . S
N1289 H1293 0.985 . S
H1290 N1285 0.984 . S
H1291 N1285 0.985 . S
H1292 N1289 0.984 . S
H1293 N1289 0.985 . S
H1294 N1288 0.984 . S
H1295 N1288 0.984 . S
H1296 N1284 0.984 . S
H1297 N1284 0.985 . S
C1298 C1299 1.363 . S
C1298 C1304 1.379 . S
C1298 N1306 1.356 . S
C1299 C1298 1.363 . S
C1299 C1305 1.363 . S
C1300 C1301 1.363 . S
C1300 C1305 1.379 . S
C1300 N1307 1.356 . S
C1301 C1300 1.363 . S
C1301 C1304 1.363 . S
N1302 C1304 1.356 . S
N1302 H1314 0.984 . S
N1302 H1315 0.985 . S
N1303 C1305 1.356 . S
N1303 H1308 0.984 . S
N1303 H1309 0.985 . S
C1304 C1298 1.379 . S
C1304 C1301 1.363 . S
C1304 N1302 1.356 . S
C1305 C1299 1.363 . S
C1305 C1300 1.379 . S
C1305 N1303 1.356 . S
N1306 C1298 1.356 . S
N1306 H1312 0.984 . S
N1306 H1313 0.984 . S
N1307 C1300 1.356 . S
N1307 H1310 0.984 . S
N1307 H1311 0.985 . S
H1308 N1303 0.984 . S
H1309 N1303 0.985 . S
H1310 N1307 0.984 . S
H1311 N1307 0.985 . S
H1312 N1306 0.984 . S
H1313 N1306 0.984 . S
H1314 N1302 0.984 . S
H1315 N1302 0.985 . S
C1316 C1317 1.363 . S
C1316 C1322 1.379 . S
C1316 N1324 1.356 . S
C1317 C1316 1.363 . S
C1317 C1323 1.363 . S
C1318 C1319 1.363 . S
C1318 C1323 1.379 . S
C1318 N1325 1.356 . S
C1319 C1318 1.363 . S
C1319 C1322 1.363 . S
N1320 C1322 1.356 . S
N1320 H1332 0.984 . S
N1320 H1333 0.985 . S
N1321 C1323 1.356 . S
N1321 H1326 0.984 . S
N1321 H1327 0.985 . S
C1322 C1316 1.379 . S
C1322 C1319 1.363 . S
C1322 N1320 1.356 . S
C1323 C1317 1.363 . S
C1323 C1318 1.379 . S
C1323 N1321 1.356 . S
N1324 C1316 1.356 . S
N1324 H1330 0.984 . S
N1324 H1331 0.984 . S
N1325 C1318 1.356 . S
N1325 H1328 0.984 . S
N1325 H1329 0.985 . S
H1326 N1321 0.984 . S
H1327 N1321 0.985 . S
H1328 N1325 0.984 . S
H1329 N1325 0.985 . S
H1330 N1324 0.984 . S
H1331 N1324 0.984 . S
H1332 N1320 0.984 . S
H1333 N1320 0.985 . S
C1334 C1335 1.363 . S
C1334 C1340 1.379 . S
C1334 N1342 1.356 . S
C1335 C1334 1.363 . S
C1335 C1341 1.363 . S
C1336 C1337 1.363 . S
C1336 C1341 1.379 . S
C1336 N1343 1.356 . S
C1337 C1336 1.363 . S
C1337 C1340 1.363 . S
N1338 C1340 1.356 . S
N1338 H1350 0.984 . S
N1338 H1351 0.985 . S
N1339 C1341 1.356 . S
N1339 H1344 0.984 . S
N1339 H1345 0.985 . S
C1340 C1334 1.379 . S
C1340 C1337 1.363 . S
C1340 N1338 1.356 . S
C1341 C1335 1.363 . S
C1341 C1336 1.379 . S
C1341 N1339 1.356 . S
N1342 C1334 1.356 . S
N1342 H1348 0.984 . S
N1342 H1349 0.984 . S
N1343 C1336 1.356 . S
N1343 H1346 0.984 . S
N1343 H1347 0.985 . S
H1344 N1339 0.984 . S
H1345 N1339 0.985 . S
H1346 N1343 0.984 . S
H1347 N1343 0.985 . S
H1348 N1342 0.984 . S
H1349 N1342 0.984 . S
H1350 N1338 0.984 . S
H1351 N1338 0.985 . S
C1352 C1353 1.363 . S
C1352 C1358 1.379 . S
C1352 N1360 1.356 . S
C1353 C1352 1.363 . S
C1353 C1359 1.363 . S
C1354 C1355 1.363 . S
C1354 C1359 1.379 . S
C1354 N1361 1.356 . S
C1355 C1354 1.363 . S
C1355 C1358 1.363 . S
N1356 C1358 1.356 . S
N1356 H1368 0.984 . S
N1356 H1369 0.985 . S
N1357 C1359 1.356 . S
N1357 H1362 0.984 . S
N1357 H1363 0.985 . S
C1358 C1352 1.379 . S
C1358 C1355 1.363 . S
C1358 N1356 1.356 . S
C1359 C1353 1.363 . S
C1359 C1354 1.379 . S
C1359 N1357 1.356 . S
N1360 C1352 1.356 . S
N1360 H1366 0.984 . S
N1360 H1367 0.984 . S
N1361 C1354 1.356 . S
N1361 H1364 0.984 . S
N1361 H1365 0.985 . S
H1362 N1357 0.984 . S
H1363 N1357 0.985 . S
H1364 N1361 0.984 . S
H1365 N1361 0.985 . S
H1366 N1360 0.984 . S
H1367 N1360 0.984 . S
H1368 N1356 0.984 . S
H1369 N1356 0.985 . S
C1370 C1371 1.363 . S
C1370 C1376 1.379 . S
C1370 N1378 1.356 . S
C1371 C1370 1.363 . S
C1371 C1377 1.363 . S
C1372 C1373 1.363 . S
C1372 C1377 1.379 . S
C1372 N1379 1.356 . S
C1373 C1372 1.363 . S
C1373 C1376 1.363 . S
N1374 C1376 1.356 . S
N1374 H1386 0.984 . S
N1374 H1387 0.985 . S
N1375 C1377 1.356 . S
N1375 H1380 0.984 . S
N1375 H1381 0.985 . S
C1376 C1370 1.379 . S
C1376 C1373 1.363 . S
C1376 N1374 1.356 . S
C1377 C1371 1.363 . S
C1377 C1372 1.379 . S
C1377 N1375 1.356 . S
N1378 C1370 1.356 . S
N1378 H1384 0.984 . S
N1378 H1385 0.984 . S
N1379 C1372 1.356 . S
N1379 H1382 0.984 . S
N1379 H1383 0.985 . S
H1380 N1375 0.984 . S
H1381 N1375 0.985 . S
H1382 N1379 0.984 . S
H1383 N1379 0.985 . S
H1384 N1378 0.984 . S
H1385 N1378 0.984 . S
H1386 N1374 0.984 . S
H1387 N1374 0.985 . S
C1388 C1389 1.363 . S
C1388 C1394 1.379 . S
C1388 N1396 1.356 . S
C1389 C1388 1.363 . S
C1389 C1395 1.363 . S
C1390 C1391 1.363 . S
C1390 C1395 1.379 . S
C1390 N1397 1.356 . S
C1391 C1390 1.363 . S
C1391 C1394 1.363 . S
N1392 C1394 1.356 . S
N1392 H1404 0.984 . S
N1392 H1405 0.985 . S
N1393 C1395 1.356 . S
N1393 H1398 0.984 . S
N1393 H1399 0.985 . S
C1394 C1388 1.379 . S
C1394 C1391 1.363 . S
C1394 N1392 1.356 . S
C1395 C1389 1.363 . S
C1395 C1390 1.379 . S
C1395 N1393 1.356 . S
N1396 C1388 1.356 . S
N1396 H1402 0.984 . S
N1396 H1403 0.984 . S
N1397 C1390 1.356 . S
N1397 H1400 0.984 . S
N1397 H1401 0.985 . S
H1398 N1393 0.984 . S
H1399 N1393 0.985 . S
H1400 N1397 0.984 . S
H1401 N1397 0.985 . S
H1402 N1396 0.984 . S
H1403 N1396 0.984 . S
H1404 N1392 0.984 . S
H1405 N1392 0.985 . S
C1406 C1407 1.363 . S
C1406 C1412 1.379 . S
C1406 N1414 1.356 . S
C1407 C1406 1.363 . S
C1407 C1413 1.363 . S
C1408 C1409 1.363 . S
C1408 C1413 1.379 . S
C1408 N1415 1.356 . S
C1409 C1408 1.363 . S
C1409 C1412 1.363 . S
N1410 C1412 1.356 . S
N1410 H1422 0.984 . S
N1410 H1423 0.985 . S
N1411 C1413 1.356 . S
N1411 H1416 0.984 . S
N1411 H1417 0.985 . S
C1412 C1406 1.379 . S
C1412 C1409 1.363 . S
C1412 N1410 1.356 . S
C1413 C1407 1.363 . S
C1413 C1408 1.379 . S
C1413 N1411 1.356 . S
N1414 C1406 1.356 . S
N1414 H1420 0.984 . S
N1414 H1421 0.984 . S
N1415 C1408 1.356 . S
N1415 H1418 0.984 . S
N1415 H1419 0.985 . S
H1416 N1411 0.984 . S
H1417 N1411 0.985 . S
H1418 N1415 0.984 . S
H1419 N1415 0.985 . S
H1420 N1414 0.984 . S
H1421 N1414 0.984 . S
H1422 N1410 0.984 . S
H1423 N1410 0.985 . S
C1424 C1425 1.363 . S
C1424 C1430 1.379 . S
C1424 N1432 1.356 . S
C1425 C1424 1.363 . S
C1425 C1431 1.363 . S
C1426 C1427 1.363 . S
C1426 C1431 1.379 . S
C1426 N1433 1.356 . S
C1427 C1426 1.363 . S
C1427 C1430 1.363 . S
N1428 C1430 1.356 . S
N1428 H1440 0.984 . S
N1428 H1441 0.985 . S
N1429 C1431 1.356 . S
N1429 H1434 0.984 . S
N1429 H1435 0.985 . S
C1430 C1424 1.379 . S
C1430 C1427 1.363 . S
C1430 N1428 1.356 . S
C1431 C1425 1.363 . S
C1431 C1426 1.379 . S
C1431 N1429 1.356 . S
N1432 C1424 1.356 . S
N1432 H1438 0.984 . S
N1432 H1439 0.984 . S
N1433 C1426 1.356 . S
N1433 H1436 0.984 . S
N1433 H1437 0.985 . S
H1434 N1429 0.984 . S
H1435 N1429 0.985 . S
H1436 N1433 0.984 . S
H1437 N1433 0.985 . S
H1438 N1432 0.984 . S
H1439 N1432 0.984 . S
H1440 N1428 0.984 . S
H1441 N1428 0.985 . S
C1442 C1443 1.363 . S
C1442 C1448 1.379 . S
C1442 N1450 1.356 . S
C1443 C1442 1.363 . S
C1443 C1449 1.363 . S
C1444 C1445 1.363 . S
C1444 C1449 1.379 . S
C1444 N1451 1.356 . S
C1445 C1444 1.363 . S
C1445 C1448 1.363 . S
N1446 C1448 1.356 . S
N1446 H1458 0.984 . S
N1446 H1459 0.985 . S
N1447 C1449 1.356 . S
N1447 H1452 0.984 . S
N1447 H1453 0.985 . S
C1448 C1442 1.379 . S
C1448 C1445 1.363 . S
C1448 N1446 1.356 . S
C1449 C1443 1.363 . S
C1449 C1444 1.379 . S
C1449 N1447 1.356 . S
N1450 C1442 1.356 . S
N1450 H1456 0.984 . S
N1450 H1457 0.984 . S
N1451 C1444 1.356 . S
N1451 H1454 0.984 . S
N1451 H1455 0.985 . S
H1452 N1447 0.984 . S
H1453 N1447 0.985 . S
H1454 N1451 0.984 . S
H1455 N1451 0.985 . S
H1456 N1450 0.984 . S
H1457 N1450 0.984 . S
H1458 N1446 0.984 . S
H1459 N1446 0.985 . S
C1460 C1461 1.363 . S
C1460 C1466 1.379 . S
C1460 N1468 1.356 . S
C1461 C1460 1.363 . S
C1461 C1467 1.363 . S
C1462 C1463 1.363 . S
C1462 C1467 1.379 . S
C1462 N1469 1.356 . S
C1463 C1462 1.363 . S
C1463 C1466 1.363 . S
N1464 C1466 1.356 . S
N1464 H1476 0.984 . S
N1464 H1477 0.985 . S
N1465 C1467 1.356 . S
N1465 H1470 0.984 . S
N1465 H1471 0.985 . S
C1466 C1460 1.379 . S
C1466 C1463 1.363 . S
C1466 N1464 1.356 . S
C1467 C1461 1.363 . S
C1467 C1462 1.379 . S
C1467 N1465 1.356 . S
N1468 C1460 1.356 . S
N1468 H1474 0.984 . S
N1468 H1475 0.984 . S
N1469 C1462 1.356 . S
N1469 H1472 0.984 . S
N1469 H1473 0.985 . S
H1470 N1465 0.984 . S
H1471 N1465 0.985 . S
H1472 N1469 0.984 . S
H1473 N1469 0.985 . S
H1474 N1468 0.984 . S
H1475 N1468 0.984 . S
H1476 N1464 0.984 . S
H1477 N1464 0.985 . S
C1478 C1479 1.363 . S
C1478 C1484 1.379 . S
C1478 N1486 1.356 . S
C1479 C1478 1.363 . S
C1479 C1485 1.363 . S
C1480 C1481 1.363 . S
C1480 C1485 1.379 . S
C1480 N1487 1.356 . S
C1481 C1480 1.363 . S
C1481 C1484 1.363 . S
N1482 C1484 1.356 . S
N1482 H1494 0.984 . S
N1482 H1495 0.985 . S
N1483 C1485 1.356 . S
N1483 H1488 0.984 . S
N1483 H1489 0.985 . S
C1484 C1478 1.379 . S
C1484 C1481 1.363 . S
C1484 N1482 1.356 . S
C1485 C1479 1.363 . S
C1485 C1480 1.379 . S
C1485 N1483 1.356 . S
N1486 C1478 1.356 . S
N1486 H1492 0.984 . S
N1486 H1493 0.984 . S
N1487 C1480 1.356 . S
N1487 H1490 0.984 . S
N1487 H1491 0.985 . S
H1488 N1483 0.984 . S
H1489 N1483 0.985 . S
H1490 N1487 0.984 . S
H1491 N1487 0.985 . S
H1492 N1486 0.984 . S
H1493 N1486 0.984 . S
H1494 N1482 0.984 . S
H1495 N1482 0.985 . S
C1496 C1497 1.363 . S
C1496 C1502 1.379 . S
C1496 N1504 1.356 . S
C1497 C1496 1.363 . S
C1497 C1503 1.363 . S
C1498 C1499 1.363 . S
C1498 C1503 1.379 . S
C1498 N1505 1.356 . S
C1499 C1498 1.363 . S
C1499 C1502 1.363 . S
N1500 C1502 1.356 . S
N1500 H1512 0.984 . S
N1500 H1513 0.985 . S
N1501 C1503 1.356 . S
N1501 H1506 0.984 . S
N1501 H1507 0.985 . S
C1502 C1496 1.379 . S
C1502 C1499 1.363 . S
C1502 N1500 1.356 . S
C1503 C1497 1.363 . S
C1503 C1498 1.379 . S
C1503 N1501 1.356 . S
N1504 C1496 1.356 . S
N1504 H1510 0.984 . S
N1504 H1511 0.984 . S
N1505 C1498 1.356 . S
N1505 H1508 0.984 . S
N1505 H1509 0.985 . S
H1506 N1501 0.984 . S
H1507 N1501 0.985 . S
H1508 N1505 0.984 . S
H1509 N1505 0.985 . S
H1510 N1504 0.984 . S
H1511 N1504 0.984 . S
H1512 N1500 0.984 . S
H1513 N1500 0.985 . S
C1514 C1515 1.363 . S
C1514 C1520 1.379 . S
C1514 N1522 1.356 . S
C1515 C1514 1.363 . S
C1515 C1521 1.363 . S
C1516 C1517 1.363 . S
C1516 C1521 1.379 . S
C1516 N1523 1.356 . S
C1517 C1516 1.363 . S
C1517 C1520 1.363 . S
N1518 C1520 1.356 . S
N1518 H1530 0.984 . S
N1518 H1531 0.985 . S
N1519 C1521 1.356 . S
N1519 H1524 0.984 . S
N1519 H1525 0.985 . S
C1520 C1514 1.379 . S
C1520 C1517 1.363 . S
C1520 N1518 1.356 . S
C1521 C1515 1.363 . S
C1521 C1516 1.379 . S
C1521 N1519 1.356 . S
N1522 C1514 1.356 . S
N1522 H1528 0.984 . S
N1522 H1529 0.984 . S
N1523 C1516 1.356 . S
N1523 H1526 0.984 . S
N1523 H1527 0.985 . S
H1524 N1519 0.984 . S
H1525 N1519 0.985 . S
H1526 N1523 0.984 . S
H1527 N1523 0.985 . S
H1528 N1522 0.984 . S
H1529 N1522 0.984 . S
H1530 N1518 0.984 . S
H1531 N1518 0.985 . S
C1532 C1533 1.363 . S
C1532 C1538 1.379 . S
C1532 N1540 1.356 . S
C1533 C1532 1.363 . S
C1533 C1539 1.363 . S
C1534 C1535 1.363 . S
C1534 C1539 1.379 . S
C1534 N1541 1.356 . S
C1535 C1534 1.363 . S
C1535 C1538 1.363 . S
N1536 C1538 1.356 . S
N1536 H1548 0.984 . S
N1536 H1549 0.985 . S
N1537 C1539 1.356 . S
N1537 H1542 0.984 . S
N1537 H1543 0.985 . S
C1538 C1532 1.379 . S
C1538 C1535 1.363 . S
C1538 N1536 1.356 . S
C1539 C1533 1.363 . S
C1539 C1534 1.379 . S
C1539 N1537 1.356 . S
N1540 C1532 1.356 . S
N1540 H1546 0.984 . S
N1540 H1547 0.984 . S
N1541 C1534 1.356 . S
N1541 H1544 0.984 . S
N1541 H1545 0.985 . S
H1542 N1537 0.984 . S
H1543 N1537 0.985 . S
H1544 N1541 0.984 . S
H1545 N1541 0.985 . S
H1546 N1540 0.984 . S
H1547 N1540 0.984 . S
H1548 N1536 0.984 . S
H1549 N1536 0.985 . S
C1550 C1551 1.363 . S
C1550 C1556 1.379 . S
C1550 N1558 1.356 . S
C1551 C1550 1.363 . S
C1551 C1557 1.363 . S
C1552 C1553 1.363 . S
C1552 C1557 1.379 . S
C1552 N1559 1.356 . S
C1553 C1552 1.363 . S
C1553 C1556 1.363 . S
N1554 C1556 1.356 . S
N1554 H1566 0.984 . S
N1554 H1567 0.985 . S
N1555 C1557 1.356 . S
N1555 H1560 0.984 . S
N1555 H1561 0.985 . S
C1556 C1550 1.379 . S
C1556 C1553 1.363 . S
C1556 N1554 1.356 . S
C1557 C1551 1.363 . S
C1557 C1552 1.379 . S
C1557 N1555 1.356 . S
N1558 C1550 1.356 . S
N1558 H1564 0.984 . S
N1558 H1565 0.984 . S
N1559 C1552 1.356 . S
N1559 H1562 0.984 . S
N1559 H1563 0.985 . S
H1560 N1555 0.984 . S
H1561 N1555 0.985 . S
H1562 N1559 0.984 . S
H1563 N1559 0.985 . S
H1564 N1558 0.984 . S
H1565 N1558 0.984 . S
H1566 N1554 0.984 . S
H1567 N1554 0.985 . S
C417 C112 1.617 . S
C419 C8 1.617 . S
C435 C333 1.617 . S
C437 C21 1.617 . S
C453 C138 1.617 . S
C455 C34 1.617 . S
C471 C359 1.617 . S
C473 C47 1.617 . S
C489 C164 1.617 . S
C491 C60 1.617 . S
C507 C73 1.617 . S
C509 C385 1.617 . S
C525 C86 1.617 . S
C527 C190 1.617 . S
C543 C99 1.617 . S
C545 C411 1.617 . S
C561 C229 1.617 . S
C563 C125 1.617 . S
C579 C255 1.617 . S
C581 C151 1.617 . S
C597 C177 1.617 . S
C599 C281 1.617 . S
C615 C203 1.617 . S
C617 C307 1.617 . S
C633 C216 1.617 . S
C635 C320 1.617 . S
C651 C346 1.617 . S
C653 C242 1.617 . S
C669 C268 1.617 . S
C671 C372 1.617 . S
C687 C398 1.617 . S
C689 C294 1.617 . S
C705 C239 1.262 . S
C707 C5 1.262 . S
C723 C252 1.262 . S
C725 C18 1.262 . S
C741 C31 1.262 . S
C743 C213 1.262 . S
C759 C44 1.262 . S
C761 C226 1.262 . S
C777 C291 1.262 . S
C779 C57 1.262 . S
C795 C70 1.262 . S
C797 C304 1.262 . S
C813 C265 1.262 . S
C815 C83 1.262 . S
C831 C278 1.262 . S
C833 C96 1.262 . S
C849 C109 1.262 . S
C851 C343 1.262 . S
C867 C356 1.262 . S
C869 C122 1.262 . S
C885 C135 1.262 . S
C887 C317 1.262 . S
C903 C148 1.262 . S
C905 C330 1.262 . S
C921 C161 1.262 . S
C923 C395 1.262 . S
C939 C174 1.262 . S
C941 C408 1.262 . S
C957 C369 1.262 . S
C959 C187 1.262 . S
C975 C382 1.262 . S
C977 C200 1.262 . S
C993 C78 1.290 . S
C995 C0 1.290 . S
C1011 C91 1.289 . S
C1013 C13 1.289 . S
C1029 C52 1.290 . S
C1031 C26 1.290 . S
C1047 C39 1.290 . S
C1049 C65 1.290 . S
C1065 C182 1.290 . S
C1067 C104 1.290 . S
C1083 C195 1.289 . S
C1085 C117 1.289 . S
C1101 C156 1.290 . S
C1103 C130 1.290 . S
C1119 C169 1.290 . S
C1121 C143 1.290 . S
C1137 C286 1.290 . S
C1139 C208 1.290 . S
C1155 C299 1.289 . S
C1157 C221 1.289 . S
C1173 C234 1.290 . S
C1175 C260 1.290 . S
C1191 C247 1.289 . S
C1193 C273 1.289 . S
C1209 C390 1.290 . S
C1211 C312 1.290 . S
C1227 C403 1.289 . S
C1229 C325 1.289 . S
C1245 C338 1.290 . S
C1247 C364 1.290 . S
C1263 C351 1.289 . S
C1265 C377 1.289 . S
C1281 C10 1.536 . S
C1283 C283 1.536 . S
C1299 C296 1.536 . S
C1301 C23 1.536 . S
C1317 C309 1.536 . S
C1319 C36 1.536 . S
C1335 C49 1.535 . S
C1337 C270 1.535 . S
C1353 C257 1.535 . S
C1355 C62 1.535 . S
C1371 C75 1.535 . S
C1373 C218 1.535 . S
C1389 C231 1.536 . S
C1391 C88 1.536 . S
C1407 C101 1.535 . S
C1409 C244 1.535 . S
C1425 C387 1.536 . S
C1427 C114 1.536 . S
C1443 C400 1.536 . S
C1445 C127 1.536 . S
C1461 C140 1.536 . S
C1463 C413 1.536 . S
C1479 C374 1.535 . S
C1481 C153 1.535 . S
C1497 C361 1.535 . S
C1499 C166 1.535 . S
C1515 C179 1.535 . S
C1517 C322 1.535 . S
C1533 C335 1.536 . S
C1535 C192 1.536 . S
C1551 C205 1.535 . S
C1553 C348 1.535 . S
