# Generated by pormake.
# Topology vcc, (6)-cn, num edge types: 1
# Building blocks:
#     Node 0, Type 0, BuildingBlock: KUMBOL_clean_sbu_1, # of connection points: 6
#     Node 1, Type 0, BuildingBlock: KUMBOL_clean_sbu_1, # of connection points: 6
#     Node 2, Type 0, BuildingBlock: KUMBOL_clean_sbu_1, # of connection points: 6
#     Node 3, Type 0, BuildingBlock: KUMBOL_clean_sbu_1, # of connection points: 6
#     Node 4, Type 0, BuildingBlock: KUMBOL_clean_sbu_1, # of connection points: 6
#     Node 5, Type 0, BuildingBlock: KUMBOL_clean_sbu_1, # of connection points: 6
#     Node 6, Type 0, BuildingBlock: KUMBOL_clean_sbu_1, # of connection points: 6
#     Node 7, Type 0, BuildingBlock: KUMBOL_clean_sbu_1, # of connection points: 6
#     Node 8, Type 0, BuildingBlock: KUMBOL_clean_sbu_1, # of connection points: 6
#     Node 9, Type 0, BuildingBlock: KUMBOL_clean_sbu_1, # of connection points: 6
#     Node 10, Type 0, BuildingBlock: KUMBOL_clean_sbu_1, # of connection points: 6
#     Node 11, Type 0, BuildingBlock: KUMBOL_clean_sbu_1, # of connection points: 6
#     Node 12, Type 0, BuildingBlock: KUMBOL_clean_sbu_1, # of connection points: 6
#     Node 13, Type 0, BuildingBlock: KUMBOL_clean_sbu_1, # of connection points: 6
#     Node 14, Type 0, BuildingBlock: KUMBOL_clean_sbu_1, # of connection points: 6
#     Node 15, Type 0, BuildingBlock: KUMBOL_clean_sbu_1, # of connection points: 6
#     Node 16, Type 0, BuildingBlock: KUMBOL_clean_sbu_1, # of connection points: 6
#     Node 17, Type 0, BuildingBlock: KUMBOL_clean_sbu_1, # of connection points: 6
#     Node 18, Type 0, BuildingBlock: KUMBOL_clean_sbu_1, # of connection points: 6
#     Node 19, Type 0, BuildingBlock: KUMBOL_clean_sbu_1, # of connection points: 6
#     Node 20, Type 0, BuildingBlock: KUMBOL_clean_sbu_1, # of connection points: 6
#     Node 21, Type 0, BuildingBlock: KUMBOL_clean_sbu_1, # of connection points: 6
#     Node 22, Type 0, BuildingBlock: KUMBOL_clean_sbu_1, # of connection points: 6
#     Node 23, Type 0, BuildingBlock: KUMBOL_clean_sbu_1, # of connection points: 6
#     Node 24, Type 0, BuildingBlock: KUMBOL_clean_sbu_1, # of connection points: 6
#     Node 25, Type 0, BuildingBlock: KUMBOL_clean_sbu_1, # of connection points: 6
#     Node 26, Type 0, BuildingBlock: KUMBOL_clean_sbu_1, # of connection points: 6
#     Node 27, Type 0, BuildingBlock: KUMBOL_clean_sbu_1, # of connection points: 6
#     Node 28, Type 0, BuildingBlock: KUMBOL_clean_sbu_1, # of connection points: 6
#     Node 29, Type 0, BuildingBlock: KUMBOL_clean_sbu_1, # of connection points: 6
#     Node 30, Type 0, BuildingBlock: KUMBOL_clean_sbu_1, # of connection points: 6
#     Node 31, Type 0, BuildingBlock: KUMBOL_clean_sbu_1, # of connection points: 6
#     Edge 32, Type (0, 0), BuildingBlock: XIVTED_clean_linker_0, # of connection points: 2
#     Edge 33, Type (0, 0), BuildingBlock: XIVTED_clean_linker_0, # of connection points: 2
#     Edge 34, Type (0, 0), BuildingBlock: XIVTED_clean_linker_0, # of connection points: 2
#     Edge 35, Type (0, 0), BuildingBlock: XIVTED_clean_linker_0, # of connection points: 2
#     Edge 36, Type (0, 0), BuildingBlock: XIVTED_clean_linker_0, # of connection points: 2
#     Edge 37, Type (0, 0), BuildingBlock: XIVTED_clean_linker_0, # of connection points: 2
#     Edge 38, Type (0, 0), BuildingBlock: XIVTED_clean_linker_0, # of connection points: 2
#     Edge 39, Type (0, 0), BuildingBlock: XIVTED_clean_linker_0, # of connection points: 2
#     Edge 40, Type (0, 0), BuildingBlock: XIVTED_clean_linker_0, # of connection points: 2
#     Edge 41, Type (0, 0), BuildingBlock: XIVTED_clean_linker_0, # of connection points: 2
#     Edge 42, Type (0, 0), BuildingBlock: XIVTED_clean_linker_0, # of connection points: 2
#     Edge 43, Type (0, 0), BuildingBlock: XIVTED_clean_linker_0, # of connection points: 2
#     Edge 44, Type (0, 0), BuildingBlock: XIVTED_clean_linker_0, # of connection points: 2
#     Edge 45, Type (0, 0), BuildingBlock: XIVTED_clean_linker_0, # of connection points: 2
#     Edge 46, Type (0, 0), BuildingBlock: XIVTED_clean_linker_0, # of connection points: 2
#     Edge 47, Type (0, 0), BuildingBlock: XIVTED_clean_linker_0, # of connection points: 2
#     Edge 48, Type (0, 0), BuildingBlock: XIVTED_clean_linker_0, # of connection points: 2
#     Edge 49, Type (0, 0), BuildingBlock: XIVTED_clean_linker_0, # of connection points: 2
#     Edge 50, Type (0, 0), BuildingBlock: XIVTED_clean_linker_0, # of connection points: 2
#     Edge 51, Type (0, 0), BuildingBlock: XIVTED_clean_linker_0, # of connection points: 2
#     Edge 52, Type (0, 0), BuildingBlock: XIVTED_clean_linker_0, # of connection points: 2
#     Edge 53, Type (0, 0), BuildingBlock: XIVTED_clean_linker_0, # of connection points: 2
#     Edge 54, Type (0, 0), BuildingBlock: XIVTED_clean_linker_0, # of connection points: 2
#     Edge 55, Type (0, 0), BuildingBlock: XIVTED_clean_linker_0, # of connection points: 2
#     Edge 56, Type (0, 0), BuildingBlock: XIVTED_clean_linker_0, # of connection points: 2
#     Edge 57, Type (0, 0), BuildingBlock: XIVTED_clean_linker_0, # of connection points: 2
#     Edge 58, Type (0, 0), BuildingBlock: XIVTED_clean_linker_0, # of connection points: 2
#     Edge 59, Type (0, 0), BuildingBlock: XIVTED_clean_linker_0, # of connection points: 2
#     Edge 60, Type (0, 0), BuildingBlock: XIVTED_clean_linker_0, # of connection points: 2
#     Edge 61, Type (0, 0), BuildingBlock: XIVTED_clean_linker_0, # of connection points: 2
#     Edge 62, Type (0, 0), BuildingBlock: XIVTED_clean_linker_0, # of connection points: 2
#     Edge 63, Type (0, 0), BuildingBlock: XIVTED_clean_linker_0, # of connection points: 2
#     Edge 64, Type (0, 0), BuildingBlock: XIVTED_clean_linker_0, # of connection points: 2
#     Edge 65, Type (0, 0), BuildingBlock: XIVTED_clean_linker_0, # of connection points: 2
#     Edge 66, Type (0, 0), BuildingBlock: XIVTED_clean_linker_0, # of connection points: 2
#     Edge 67, Type (0, 0), BuildingBlock: XIVTED_clean_linker_0, # of connection points: 2
#     Edge 68, Type (0, 0), BuildingBlock: XIVTED_clean_linker_0, # of connection points: 2
#     Edge 69, Type (0, 0), BuildingBlock: XIVTED_clean_linker_0, # of connection points: 2
#     Edge 70, Type (0, 0), BuildingBlock: XIVTED_clean_linker_0, # of connection points: 2
#     Edge 71, Type (0, 0), BuildingBlock: XIVTED_clean_linker_0, # of connection points: 2
#     Edge 72, Type (0, 0), BuildingBlock: XIVTED_clean_linker_0, # of connection points: 2
#     Edge 73, Type (0, 0), BuildingBlock: XIVTED_clean_linker_0, # of connection points: 2
#     Edge 74, Type (0, 0), BuildingBlock: XIVTED_clean_linker_0, # of connection points: 2
#     Edge 75, Type (0, 0), BuildingBlock: XIVTED_clean_linker_0, # of connection points: 2
#     Edge 76, Type (0, 0), BuildingBlock: XIVTED_clean_linker_0, # of connection points: 2
#     Edge 77, Type (0, 0), BuildingBlock: XIVTED_clean_linker_0, # of connection points: 2
#     Edge 78, Type (0, 0), BuildingBlock: XIVTED_clean_linker_0, # of connection points: 2
#     Edge 79, Type (0, 0), BuildingBlock: XIVTED_clean_linker_0, # of connection points: 2
#     Edge 80, Type (0, 0), BuildingBlock: XIVTED_clean_linker_0, # of connection points: 2
#     Edge 81, Type (0, 0), BuildingBlock: XIVTED_clean_linker_0, # of connection points: 2
#     Edge 82, Type (0, 0), BuildingBlock: XIVTED_clean_linker_0, # of connection points: 2
#     Edge 83, Type (0, 0), BuildingBlock: XIVTED_clean_linker_0, # of connection points: 2
#     Edge 84, Type (0, 0), BuildingBlock: XIVTED_clean_linker_0, # of connection points: 2
#     Edge 85, Type (0, 0), BuildingBlock: XIVTED_clean_linker_0, # of connection points: 2
#     Edge 86, Type (0, 0), BuildingBlock: XIVTED_clean_linker_0, # of connection points: 2
#     Edge 87, Type (0, 0), BuildingBlock: XIVTED_clean_linker_0, # of connection points: 2
#     Edge 88, Type (0, 0), BuildingBlock: XIVTED_clean_linker_0, # of connection points: 2
#     Edge 89, Type (0, 0), BuildingBlock: XIVTED_clean_linker_0, # of connection points: 2
#     Edge 90, Type (0, 0), BuildingBlock: XIVTED_clean_linker_0, # of connection points: 2
#     Edge 91, Type (0, 0), BuildingBlock: XIVTED_clean_linker_0, # of connection points: 2
#     Edge 92, Type (0, 0), BuildingBlock: XIVTED_clean_linker_0, # of connection points: 2
#     Edge 93, Type (0, 0), BuildingBlock: XIVTED_clean_linker_0, # of connection points: 2
#     Edge 94, Type (0, 0), BuildingBlock: XIVTED_clean_linker_0, # of connection points: 2
#     Edge 95, Type (0, 0), BuildingBlock: XIVTED_clean_linker_0, # of connection points: 2
#     Edge 96, Type (0, 0), BuildingBlock: XIVTED_clean_linker_0, # of connection points: 2
#     Edge 97, Type (0, 0), BuildingBlock: XIVTED_clean_linker_0, # of connection points: 2
#     Edge 98, Type (0, 0), BuildingBlock: XIVTED_clean_linker_0, # of connection points: 2
#     Edge 99, Type (0, 0), BuildingBlock: XIVTED_clean_linker_0, # of connection points: 2
#     Edge 100, Type (0, 0), BuildingBlock: XIVTED_clean_linker_0, # of connection points: 2
#     Edge 101, Type (0, 0), BuildingBlock: XIVTED_clean_linker_0, # of connection points: 2
#     Edge 102, Type (0, 0), BuildingBlock: XIVTED_clean_linker_0, # of connection points: 2
#     Edge 103, Type (0, 0), BuildingBlock: XIVTED_clean_linker_0, # of connection points: 2
#     Edge 104, Type (0, 0), BuildingBlock: XIVTED_clean_linker_0, # of connection points: 2
#     Edge 105, Type (0, 0), BuildingBlock: XIVTED_clean_linker_0, # of connection points: 2
#     Edge 106, Type (0, 0), BuildingBlock: XIVTED_clean_linker_0, # of connection points: 2
#     Edge 107, Type (0, 0), BuildingBlock: XIVTED_clean_linker_0, # of connection points: 2
#     Edge 108, Type (0, 0), BuildingBlock: XIVTED_clean_linker_0, # of connection points: 2
#     Edge 109, Type (0, 0), BuildingBlock: XIVTED_clean_linker_0, # of connection points: 2
#     Edge 110, Type (0, 0), BuildingBlock: XIVTED_clean_linker_0, # of connection points: 2
#     Edge 111, Type (0, 0), BuildingBlock: XIVTED_clean_linker_0, # of connection points: 2
#     Edge 112, Type (0, 0), BuildingBlock: XIVTED_clean_linker_0, # of connection points: 2
#     Edge 113, Type (0, 0), BuildingBlock: XIVTED_clean_linker_0, # of connection points: 2
#     Edge 114, Type (0, 0), BuildingBlock: XIVTED_clean_linker_0, # of connection points: 2
#     Edge 115, Type (0, 0), BuildingBlock: XIVTED_clean_linker_0, # of connection points: 2
#     Edge 116, Type (0, 0), BuildingBlock: XIVTED_clean_linker_0, # of connection points: 2
#     Edge 117, Type (0, 0), BuildingBlock: XIVTED_clean_linker_0, # of connection points: 2
#     Edge 118, Type (0, 0), BuildingBlock: XIVTED_clean_linker_0, # of connection points: 2
#     Edge 119, Type (0, 0), BuildingBlock: XIVTED_clean_linker_0, # of connection points: 2
#     Edge 120, Type (0, 0), BuildingBlock: XIVTED_clean_linker_0, # of connection points: 2
#     Edge 121, Type (0, 0), BuildingBlock: XIVTED_clean_linker_0, # of connection points: 2
#     Edge 122, Type (0, 0), BuildingBlock: XIVTED_clean_linker_0, # of connection points: 2
#     Edge 123, Type (0, 0), BuildingBlock: XIVTED_clean_linker_0, # of connection points: 2
#     Edge 124, Type (0, 0), BuildingBlock: XIVTED_clean_linker_0, # of connection points: 2
#     Edge 125, Type (0, 0), BuildingBlock: XIVTED_clean_linker_0, # of connection points: 2
#     Edge 126, Type (0, 0), BuildingBlock: XIVTED_clean_linker_0, # of connection points: 2
#     Edge 127, Type (0, 0), BuildingBlock: XIVTED_clean_linker_0, # of connection points: 2
# Relax obj value: 0.266
# Max RMSD: 0.174
# Mean RMSD: 0.167
data_MOF--net-vcc--node1-KUMBOL_clean_sbu_1--edge1-XIVTED_clean_linker_0
_symmetry_space_group_name_H-M    P1
_symmetry_Int_Tables_number       1
_symmetry_cell_setting            triclinic
loop_
_symmetry_equiv_pos_as_xyz
'x, y, z'
_cell_length_a     39.935346
_cell_length_b     56.766573
_cell_length_c     53.089322
_cell_angle_alpha  89.640935
_cell_angle_beta   90.534982
_cell_angle_gamma 89.597168
loop_
_atom_site_label
_atom_site_type_symbol
_atom_site_fract_x
_atom_site_fract_y
_atom_site_fract_z
_atom_type_partial_charge
C0 C 0.45803 0.04124 0.12124 0.0
C1 C 0.49833 0.00932 0.12672 0.0
C2 C 0.46581 0.01722 0.12017 0.0
C3 C 0.52221 0.02547 0.13526 0.0
C4 C 0.48288 0.05763 0.12808 0.0
C5 C 0.51468 0.04956 0.13569 0.0
N6 N 0.42697 0.04873 0.11396 0.0
C7 C 0.42054 0.07217 0.1102 0.0
C8 C 0.47549 0.08172 0.12611 0.0
C9 C 0.44441 0.089 0.11663 0.0
Gd10 Gd 0.31925 0.99305 0.13885 0.0
Gd11 Gd 0.38969 0.01915 0.10195 0.0
N12 N 0.44242 0.0019 0.11114 0.0
C13 C 0.50649 0.98555 0.12343 0.0
C14 C 0.45158 0.97931 0.10551 0.0
C15 C 0.48322 0.97061 0.11228 0.0
H16 H 0.43562 0.96819 0.09455 0.0
H17 H 0.48999 0.95255 0.10816 0.0
H18 H 0.28116 0.04501 0.12246 0.0
H19 H 0.39673 0.07809 0.10256 0.0
H20 H 0.22366 0.05756 0.11135 0.0
H21 H 0.53126 0.97887 0.12816 0.0
H22 H 0.54694 0.01948 0.1408 0.0
H23 H 0.32409 0.93433 0.12801 0.0
H24 H 0.49401 0.09482 0.131 0.0
H25 H 0.43882 0.10757 0.1142 0.0
H26 H 0.16406 0.98513 0.10058 0.0
H27 H 0.53394 0.06187 0.14131 0.0
H28 H 0.22609 0.91277 0.10527 0.0
H29 H 0.28514 0.90294 0.11544 0.0
N30 N 0.28849 0.96188 0.12237 0.0
C31 C 0.25601 0.96778 0.11693 0.0
C32 C 0.29906 0.93899 0.12206 0.0
C33 C 0.24336 0.92673 0.11001 0.0
C34 C 0.27676 0.92111 0.11555 0.0
C35 C 0.23258 0.95026 0.11071 0.0
H36 H 0.1808 0.94347 0.1008 0.0
N37 N 0.27024 0.00847 0.12074 0.0
C38 C 0.2465 0.99166 0.11651 0.0
C39 C 0.20511 0.02211 0.10861 0.0
C40 C 0.21334 0.99812 0.1102 0.0
C41 C 0.26253 0.03184 0.1188 0.0
C42 C 0.22986 0.03899 0.11265 0.0
O43 O 0.40482 0.01741 0.14533 0.0
O44 O 0.36745 0.99297 0.16544 0.0
O45 O 0.2826 0.00197 0.16523 0.0
O46 O 0.30382 0.9663 0.16706 0.0
O47 O 0.37793 0.98006 0.09488 0.0
O48 O 0.36369 0.96987 0.13463 0.0
O49 O 0.30777 0.99149 0.09503 0.0
O50 O 0.34201 0.01765 0.07536 0.0
O51 O 0.42642 0.01882 0.07257 0.0
O52 O 0.38657 0.04504 0.0718 0.0
O53 O 0.32797 0.0305 0.15199 0.0
O54 O 0.35973 0.04784 0.12107 0.0
C55 C 0.39649 0.00479 0.16573 0.0
C56 C 0.3755 0.96399 0.11281 0.0
C57 C 0.26375 0.97887 0.1988 0.0
C58 C 0.24027 0.99822 0.23516 0.0
C59 C 0.23713 0.95541 0.23078 0.0
C60 C 0.25424 0.95683 0.20809 0.0
C61 C 0.2306 0.97583 0.24445 0.0
C62 C 0.25539 0.99939 0.21175 0.0
C63 C 0.28128 0.98103 0.17516 0.0
C64 C 0.1897 0.98052 0.10515 0.0
C65 C 0.19929 0.95673 0.10526 0.0
H66 H 0.17984 0.02779 0.10396 0.0
C67 C 0.31461 0.00438 0.07469 0.0
C68 C 0.34242 0.04898 0.14197 0.0
C69 C 0.40934 0.03373 1.03318 0.0
C70 C 0.4151 0.01013 0.99589 0.0
C71 C 0.40145 0.05171 0.99202 0.0
C72 C 0.40225 0.05362 1.01819 0.0
C73 C 0.40814 0.03003 0.98082 0.0
C74 C 0.41514 0.01186 1.02194 0.0
C75 C 0.41248 0.03631 0.06033 0.0
H76 H 0.23003 0.9384 0.23826 0.0
H77 H 0.26 0.94087 0.19787 0.0
H78 H 0.21988 0.97368 0.26295 0.0
H79 H 0.2629 0.01647 0.20457 0.0
H80 H 0.39598 0.06704 0.98044 0.0
H81 H 0.39771 0.07063 1.02673 0.0
H82 H 0.4077 0.02871 0.96047 0.0
H83 H 0.42034 0.99627 1.03328 0.0
C84 C 0.87371 0.21207 0.12551 0.0
C85 C 0.82905 0.24135 0.12761 0.0
C86 C 0.86255 0.23525 0.12219 0.0
C87 C 0.80713 0.22404 0.13643 0.0
C88 C 0.8514 0.19464 0.13408 0.0
C89 C 0.81823 0.2008 0.13968 0.0
N90 N 0.90598 0.20643 0.1198 0.0
C91 C 0.91637 0.18347 0.12025 0.0
C92 C 0.86281 0.17135 0.13619 0.0
C93 C 0.89533 0.16571 0.12895 0.0
Gd94 Gd 1.00866 0.26459 0.13826 0.0
Gd95 Gd 0.93786 0.2373 0.10289 0.0
N96 N 0.88446 0.25183 0.11386 0.0
C97 C 0.81842 0.26464 0.12387 0.0
C98 C 0.87338 0.27419 0.10862 0.0
C99 C 0.84063 0.28107 0.1141 0.0
H100 H 0.88877 0.28653 0.09883 0.0
H101 H 0.83227 0.29889 0.11008 0.0
H102 H 0.04977 0.21106 0.13416 0.0
H103 H 0.94013 0.17856 0.11247 0.0
H104 H 0.10487 0.19728 0.12104 0.0
H105 H 0.7929 0.26997 0.12782 0.0
H106 H 0.78142 0.22842 0.14056 0.0
H107 H 1.00382 0.32142 0.12021 0.0
H108 H 0.84637 0.15749 0.14258 0.0
H109 H 0.90391 0.14758 0.12936 0.0
H110 H 0.16047 0.26682 0.09282 0.0
H111 H 0.80078 0.18763 0.14624 0.0
H112 H 0.09962 0.33972 0.09118 0.0
H113 H 0.04197 0.35113 0.10279 0.0
N114 N 0.03819 0.29302 0.11597 0.0
C115 C 0.07008 0.2863 0.11013 0.0
C116 C 1.02807 0.31594 0.11366 0.0
C117 C 0.08259 0.32642 0.09803 0.0
C118 C 0.04997 0.33292 0.10439 0.0
C119 C 0.09301 0.30292 0.10085 0.0
H120 H 0.14375 0.30833 0.08812 0.0
N121 N 0.05714 0.24657 0.12235 0.0
C122 C 0.07957 0.26251 0.11299 0.0
C123 C 0.12106 0.23158 0.10901 0.0
C124 C 0.11219 0.25533 0.10635 0.0
C125 C 0.06612 0.22348 0.12548 0.0
C126 C 0.09792 0.21561 0.11849 0.0
O127 O 0.92176 0.24344 0.14544 0.0
O128 O 0.96556 0.25909 0.16839 0.0
O129 O 0.05038 0.2635 0.16342 0.0
O130 O 1.01891 0.29477 0.16234 0.0
O131 O 0.94819 0.27634 0.09463 0.0
O132 O 0.9629 0.28654 0.13419 0.0
O133 O 1.01374 0.26669 0.09367 0.0
O134 O 0.98807 0.23403 0.07935 0.0
O135 O 0.90712 0.246 0.07088 0.0
O136 O 0.92495 0.21023 0.07571 0.0
O137 O 0.99754 0.22786 0.15297 0.0
O138 O 0.97779 0.21169 0.11672 0.0
C139 C 0.9338 0.25134 0.16746 0.0
C140 C 0.95041 0.29235 0.11236 0.0
C141 C 0.05475 0.28877 0.19785 0.0
C142 C 0.08171 0.27429 0.23587 0.0
C143 C 0.05502 0.31311 0.235 0.0
C144 C 0.04568 0.30969 0.20998 0.0
C145 C 0.07259 0.29548 0.24804 0.0
C146 C 0.07417 0.27179 0.2105 0.0
C147 C 0.04578 0.2848 0.17166 0.0
C148 C 0.13516 0.27204 0.09758 0.0
C149 C 0.12565 0.29572 0.09491 0.0
H150 H 0.14583 0.22542 0.10402 0.0
C151 C 1.01221 0.24993 0.07627 0.0
C152 C 0.98759 0.20937 0.14027 0.0
C153 C 0.91328 0.22357 1.0343 0.0
C154 C 0.90829 0.24235 0.99357 0.0
C155 C 0.92166 0.20071 0.99639 0.0
C156 C 0.92039 0.20197 1.02263 0.0
C157 C 0.91534 0.22084 0.9818 0.0
C158 C 0.90763 0.24373 1.01958 0.0
C159 C 0.90834 0.22493 0.06145 0.0
H160 H 0.04755 0.32905 0.2446 0.0
H161 H 1.03135 0.32326 0.20019 0.0
H162 H 0.07694 0.29792 0.26799 0.0
H163 H 0.0812 0.25548 0.20132 0.0
H164 H 0.92706 0.18408 0.98737 0.0
H165 H 0.92438 0.18609 1.03372 0.0
H166 H 0.91605 0.2197 0.96145 0.0
H167 H 0.90164 0.26052 1.02817 0.0
C168 C 0.28372 0.32069 0.21568 0.0
C169 C 0.32083 0.34662 0.19326 0.0
C170 C 0.31264 0.32384 0.20219 0.0
C171 C 0.29901 0.36567 0.19749 0.0
C172 C 0.26172 0.33979 0.22017 0.0
C173 C 0.26949 0.36226 0.21093 0.0
N174 N 0.27709 0.29893 0.22465 0.0
C175 C 0.24818 0.2948 0.2375 0.0
C176 C 0.23253 0.33575 0.23387 0.0
C177 C 0.22565 0.31307 0.24245 0.0
Gd178 Gd 0.38211 0.23503 0.25287 0.0
Gd179 Gd 0.31515 0.26811 0.21662 0.0
N180 N 0.33349 0.30501 0.19892 0.0
C181 C 0.35121 0.34983 0.18103 0.0
C182 C 0.36441 0.30889 0.18869 0.0
C183 C 0.37326 0.33093 0.17905 0.0
H184 H 0.3839 0.29593 0.18933 0.0
H185 H 0.39774 0.3335 0.17094 0.0
H186 H 0.32896 0.19966 0.28571 0.0
H187 H 0.24197 0.2772 0.24345 0.0
H188 H 0.32302 0.15797 0.29614 0.0
H189 H 0.35845 0.36701 0.17403 0.0
H190 H 0.30498 0.38319 0.19075 0.0
H191 H 0.45946 0.23977 0.23012 0.0
H192 H 0.21506 0.34994 0.23771 0.0
H193 H 0.20289 0.30959 0.2527 0.0
H194 H 0.41844 0.12098 0.2591 0.0
H195 H 0.25296 0.37712 0.21421 0.0
H196 H 0.50128 0.17061 0.22233 0.0
H197 H 0.50624 0.21379 0.21756 0.0
N198 N 0.42747 0.21146 0.24011 0.0
C199 C 0.42472 0.18787 0.24378 0.0
C200 C 0.45672 0.22087 0.23156 0.0
C201 C 0.4804 0.18188 0.22733 0.0
C202 C 0.48333 0.20625 0.22464 0.0
C203 C 0.45115 0.17242 0.23745 0.0
H204 H 0.46823 0.13609 0.23767 0.0
N205 N 0.37298 0.19497 0.26357 0.0
C206 C 0.39668 0.17937 0.25592 0.0
C207 C 0.36714 0.14739 0.27608 0.0
C208 C 0.39434 0.15516 0.26194 0.0
C209 C 0.34737 0.18751 0.27865 0.0
C210 C 0.34375 0.1637 0.28467 0.0
O211 O 0.34169 0.28538 0.24902 0.0
O212 O 0.3919 0.27191 0.23795 0.0
O213 O 0.38625 0.25668 0.28612 0.0
O214 O 0.42301 0.22899 0.2793 0.0
O215 O 0.35938 0.25987 0.18721 0.0
O216 O 0.40215 0.2423 0.21102 0.0
O217 O 0.33583 0.21651 0.23922 0.0
O218 O 0.33258 0.23278 0.20108 0.0
O219 O 0.27377 0.27248 0.1908 0.0
O220 O 0.2739 0.24344 0.21826 0.0
O221 O 0.33642 0.24036 0.28048 0.0
O222 O 0.29674 0.26147 0.25813 0.0
C223 C 0.37349 0.28945 0.24603 0.0
C224 C 0.39116 0.2511 0.1887 0.0
C225 C 0.44058 0.26263 0.30197 0.0
C226 C 0.45935 0.28884 0.3351 0.0
C227 C 0.49639 0.27914 0.30062 0.0
C228 C 0.47151 0.26501 0.28991 0.0
C229 C 0.49055 0.29081 0.32335 0.0
C230 C 0.43459 0.27479 0.32417 0.0
C231 C 0.41433 0.24675 0.29324 0.0
C232 C 0.41988 0.1396 0.25465 0.0
C233 C 0.44823 0.14821 0.24245 0.0
H234 H 0.36453 0.12897 0.28111 0.0
C235 C 0.33233 0.21375 0.21506 0.0
C236 C 0.30627 0.25079 0.27952 0.0
C237 C 0.24498 0.23795 0.17994 0.0
C238 C 0.243 0.22852 0.13574 0.0
C239 C 0.19855 0.21546 0.16314 0.0
C240 C 0.21427 0.22662 0.18347 0.0
C241 C 0.21252 0.2168 0.13911 0.0
C242 C 0.26029 0.2372 0.15659 0.0
C243 C 0.25857 0.25354 0.19913 0.0
H244 H 0.52047 0.28066 0.29159 0.0
H245 H 0.47664 0.2557 0.27263 0.0
H246 H 0.51038 0.30107 0.33187 0.0
H247 H 0.41094 0.27222 0.3337 0.0
H248 H 0.17464 0.20695 0.16572 0.0
H249 H 0.20203 0.22708 0.20158 0.0
H250 H 0.19885 0.20983 0.12315 0.0
H251 H 0.28432 0.24569 0.15407 0.0
C252 C 0.8732 0.04335 0.22883 0.0
C253 C 0.82807 0.01498 0.2251 0.0
C254 C 0.86164 0.02028 0.23123 0.0
C255 C 0.8064 0.03294 0.21656 0.0
C256 C 0.8512 0.06142 0.22047 0.0
C257 C 0.8179 0.05605 0.21425 0.0
N258 N 0.90556 0.04823 0.2352 0.0
C259 C 0.91632 0.07101 0.23555 0.0
C260 C 0.86303 0.08453 0.21918 0.0
C261 C 0.89564 0.08936 0.227 0.0
Gd262 Gd 1.00827 0.99002 0.21664 0.0
Gd263 Gd 0.93656 0.01636 0.25216 0.0
N264 N 0.88314 0.0031 0.23967 0.0
C265 C 0.81697 0.99184 0.22814 0.0
C266 C 0.87177 0.98078 0.24381 0.0
C267 C 0.83887 0.97472 0.23771 0.0
H268 H 0.88715 0.96782 0.25307 0.0
H269 H 0.83019 0.95696 0.24102 0.0
H270 H 0.04629 0.04312 0.22844 0.0
H271 H 0.94007 0.07534 0.2439 0.0
H272 H 0.10247 0.05598 0.24049 0.0
H273 H 0.79132 0.98714 0.22375 0.0
H274 H 0.78054 0.02915 0.21198 0.0
H275 H 1.00479 0.93187 0.2311 0.0
H276 H 0.84685 0.09886 0.21296 0.0
H277 H 0.90456 0.10733 0.22722 0.0
H278 H 0.16234 0.98448 0.25842 0.0
H279 H 0.80068 0.06974 0.20792 0.0
H280 H 0.10291 0.91167 0.25602 0.0
H281 H 0.04442 0.90117 0.24569 0.0
N282 N 0.03938 0.95978 0.23551 0.0
C283 C 0.07159 0.96606 0.24095 0.0
C284 C 1.02955 0.93687 0.23695 0.0
C285 C 0.08533 0.92535 0.25028 0.0
C286 C 0.05225 0.91936 0.24465 0.0
C287 C 0.09539 0.94888 0.24847 0.0
H288 H 0.14698 0.94271 0.25981 0.0
N289 N 0.05657 0.00665 0.23422 0.0
C290 C 0.08042 0.99003 0.24025 0.0
C291 C 0.1211 0.02076 0.24684 0.0
C292 C 0.11324 0.99678 0.2468 0.0
C293 C 0.06423 0.03003 0.23422 0.0
C294 C 0.09646 0.03742 0.24071 0.0
O295 O 0.92165 0.0126 0.20909 0.0
O296 O 0.96177 0.99079 0.18839 0.0
O297 O 0.0469 0.99815 0.19136 0.0
O298 O 1.02518 0.96305 0.18975 0.0
O299 O 0.94619 0.97653 0.25837 0.0
O300 O 0.965 0.96605 0.21968 0.0
O301 O 1.01791 0.98883 0.26085 0.0
O302 O 0.98336 0.01535 0.27992 0.0
O303 O 0.90304 0.00943 0.2827 0.0
O304 O 0.92567 0.04373 0.27922 0.0
O305 O 0.99399 0.02649 0.20278 0.0
O306 O 0.97719 0.04162 0.23993 0.0
C307 C 0.93157 0.0014 0.18834 0.0
C308 C 0.94972 0.96064 0.24043 0.0
C309 C 0.06277 0.97538 0.15695 0.0
C310 C 0.08599 0.9951 0.12057 0.0
C311 C 0.08688 0.95211 0.12375 0.0
C312 C 0.07074 0.95337 0.14684 0.0
C313 C 0.09428 0.97274 0.11055 0.0
C314 C 0.07158 0.99603 0.14425 0.0
C315 C 0.04857 0.97712 0.18189 0.0
C316 C 0.1371 0.97951 0.25342 0.0
C317 C 0.12827 0.9557 0.25426 0.0
H318 H 0.1461 0.02662 0.2516 0.0
C319 C 1.01098 0.00196 0.28093 0.0
C320 C 0.98561 0.04472 0.21631 0.0
C321 C 0.91307 0.03026 0.31995 0.0
C322 C 0.90943 0.01024 0.35992 0.0
C323 C 0.9332 0.04935 0.3579 0.0
C324 C 0.92769 0.04977 0.3319 0.0
C325 C 0.92418 0.02957 0.37196 0.0
C326 C 0.90364 0.01069 0.3342 0.0
C327 C 0.90705 0.03007 0.2928 0.0
H328 H 0.09286 0.93513 0.11574 0.0
H329 H 0.06484 0.93727 0.15689 0.0
H330 H 0.10469 0.9709 0.09193 0.0
H331 H 0.06537 0.01314 0.15199 0.0
H332 H 0.94463 0.06428 0.36712 0.0
H333 H 0.93489 0.06521 0.32121 0.0
H334 H 0.92895 0.02919 0.39208 0.0
H335 H 0.89212 0.99553 0.32538 0.0
C336 C 0.82055 0.03291 0.99492 0.0
C337 C 0.86265 0.00204 1.00058 0.0
C338 C 0.82999 0.00903 0.99334 0.0
C339 C 0.88566 0.01901 1.00877 0.0
C340 C 0.84361 0.04979 1.00358 0.0
C341 C 0.87625 0.04274 1.01021 0.0
N342 N 0.78883 0.03958 0.98799 0.0
C343 C 0.77901 0.06263 0.98867 0.0
C344 C 0.83342 0.0734 1.00488 0.0
C345 C 0.80097 0.07982 0.99749 0.0
Gd346 Gd 0.69019 0.98435 1.00252 0.0
Gd347 Gd 0.75947 0.01058 0.96649 0.0
N348 N 0.80764 0.99289 0.98415 0.0
C349 C 0.87156 0.97823 0.99886 0.0
C350 C 0.8166 0.96975 0.98201 0.0
C351 C 0.8484 0.96205 0.98972 0.0
H352 H 0.80025 0.9572 0.97346 0.0
H353 H 0.85538 0.94368 0.98788 0.0
H354 H 0.63861 0.03127 1.00432 0.0
H355 H 0.75494 0.06803 0.98127 0.0
H356 H 0.58032 0.04127 0.99384 0.0
H357 H 0.89644 0.97219 1.00419 0.0
H358 H 0.91097 0.01404 1.01394 0.0
H359 H 0.69509 0.92497 0.99997 0.0
H360 H 0.85056 0.08688 1.01125 0.0
H361 H 0.79317 0.09811 0.99788 0.0
H362 H 0.53316 0.96821 0.96677 0.0
H363 H 0.89449 0.05553 1.01647 0.0
H364 H 0.60259 0.89924 0.97066 0.0
H365 H 0.66058 0.8919 0.98554 0.0
N366 N 0.65945 0.95127 0.98941 0.0
C367 C 0.62701 0.95558 0.98252 0.0
C368 C 0.67104 0.92864 0.99147 0.0
C369 C 0.61827 0.91397 0.97585 0.0
C370 C 0.65103 0.90975 0.98412 0.0
C371 C 0.60558 0.937 0.97556 0.0
H372 H 0.55512 0.92776 0.96414 0.0
N373 N 0.63542 0.99595 0.99138 0.0
C374 C 0.61448 0.97845 0.98396 0.0
C375 C 0.56834 0.00624 0.9815 0.0
C376 C 0.58045 0.98324 0.97851 0.0
C377 C 0.62315 0.01804 0.99586 0.0
C378 C 0.58972 0.02364 0.9905 0.0
O379 O 0.76348 0.0134 1.01105 0.0
O380 O 0.74199 0.9789 1.02365 0.0
O381 O 0.67568 0.99962 1.037 0.0
O382 O 0.66827 0.96156 1.03169 0.0
O383 O 0.74726 0.97369 0.9528 0.0
O384 O 0.72967 0.95833 0.98989 0.0
O385 O 0.67061 0.99493 0.9618 0.0
O386 O 0.71621 0.00267 0.93682 0.0
O387 O 0.80265 0.00857 0.94381 0.0
O388 O 0.76987 0.03895 0.93933 0.0
O389 O 0.69957 0.02372 1.00805 0.0
O390 O 0.71554 0.03469 0.96892 0.0
C391 C 0.76379 0.99605 1.02801 0.0
C392 C 0.73811 0.95543 0.96631 0.0
C393 C 0.65015 0.97922 0.07104 0.0
C394 C 0.6419 1.0 0.10995 0.0
C395 C 0.6195 0.96061 0.10477 0.0
C396 C 0.63282 0.95972 0.08049 0.0
C397 C 0.62408 0.9807 0.11961 0.0
C398 C 0.65397 0.99924 0.08567 0.0
C399 C 0.66414 0.97987 1.04593 0.0
C400 C 0.55937 0.96486 0.97099 0.0
C401 C 0.57191 0.94183 0.96947 0.0
H402 H 0.54231 0.01057 0.97764 0.0
C403 C 0.68314 0.99912 0.93898 0.0
C404 C 0.70082 0.03961 0.99002 0.0
C405 C 0.80937 0.03029 0.90709 0.0
C406 C 0.83299 0.01072 0.87088 0.0
C407 C 0.82845 0.05367 0.872 0.0
C408 C 0.81386 0.0523 0.89568 0.0
C409 C 0.83797 0.0331 0.8596 0.0
C410 C 0.8196 0.00974 0.8949 0.0
C411 C 0.79782 0.0288 0.93284 0.0
H412 H 0.6061 0.94563 0.11222 0.0
H413 H 0.62945 0.94408 0.06918 0.0
H414 H 0.61474 0.98089 0.13869 0.0
H415 H 0.66718 0.01443 0.07839 0.0
H416 H 0.83176 0.07065 0.86302 0.0
H417 H 0.80661 0.06834 0.90523 0.0
H418 H 0.84738 0.03486 0.84064 0.0
H419 H 0.81563 0.99261 0.9035 0.0
C420 C 1.00371 0.71678 0.98973 0.0
C421 C 0.96034 0.74718 0.99102 0.0
C422 C 0.99347 0.74028 0.98566 0.0
C423 C 0.93716 0.73029 0.99901 0.0
C424 C 0.98048 0.69998 0.99827 0.0
C425 C 0.94715 0.70679 1.00252 0.0
N426 N 1.03645 0.71059 0.98604 0.0
C427 C 0.04681 0.68778 0.9891 0.0
C428 C 0.99138 0.67676 1.00233 0.0
C429 C 1.02463 0.67064 0.99764 0.0
Gd430 Gd 0.13982 0.76395 1.00414 0.0
Gd431 Gd 0.0672 0.73995 0.96583 0.0
N432 N 1.01662 0.75665 0.97857 0.0
C433 C 0.95192 0.77109 0.98944 0.0
C434 C 1.00817 0.77988 0.97625 0.0
C435 C 0.97582 0.78748 0.98201 0.0
H436 H 1.02593 0.79259 0.96967 0.0
H437 H 0.96924 0.80597 0.98055 0.0
H438 H 0.1867 0.7138 1.00525 0.0
H439 H 0.0714 0.68233 0.98347 0.0
H440 H 0.24302 0.70111 0.99315 0.0
H441 H 0.92723 0.77711 0.9945 0.0
H442 H 0.91154 0.73531 1.00302 0.0
H443 H 0.13823 0.82292 0.99542 0.0
H444 H 0.97422 0.66335 1.00875 0.0
H445 H 1.03298 0.65257 0.99994 0.0
H446 H 0.29485 0.77169 0.96353 0.0
H447 H 0.92898 0.69406 1.00893 0.0
H448 H 0.23138 0.84333 0.96391 0.0
H449 H 0.17457 0.85369 0.97841 0.0
N450 N 0.17119 0.7947 0.98658 0.0
C451 C 0.20326 0.78879 0.9804 0.0
C452 C 0.16148 0.8178 0.98697 0.0
C453 C 0.2148 0.82954 0.97029 0.0
C454 C 0.18267 0.83545 0.97824 0.0
C455 C 0.22572 0.8061 0.97179 0.0
H456 H 0.27614 0.81278 0.95898 0.0
N457 N 0.19223 0.74893 0.99193 0.0
C458 C 0.21421 0.76546 0.98344 0.0
C459 C 0.25752 0.73562 0.98046 0.0
C460 C 0.24738 0.75911 0.97737 0.0
C461 C 0.20262 0.72625 0.99608 0.0
C462 C 0.23508 0.71916 0.98996 0.0
O463 O 0.05269 0.74609 1.00856 0.0
O464 O 0.09573 0.75932 1.03334 0.0
O465 O 0.17643 0.75799 1.03345 0.0
O466 O 0.14967 0.79134 1.03181 0.0
O467 O 0.08132 0.77626 0.95279 0.0
O468 O 0.10008 0.79048 0.99036 0.0
O469 O 0.15586 0.75562 0.96176 0.0
O470 O 0.11021 0.74747 0.93646 0.0
O471 O 1.02942 0.74359 0.93776 0.0
O472 O 0.05616 0.7101 0.94116 0.0
O473 O 0.12662 0.72573 1.01262 0.0
O474 O 0.11132 0.71649 0.97277 0.0
C475 C 0.06376 0.75268 1.03123 0.0
C476 C 0.09079 0.794 0.96671 0.0
C477 C 0.17569 0.78038 0.07047 0.0
C478 C 0.17816 0.76153 0.11151 0.0
C479 C 0.19567 0.80219 0.1066 0.0
C480 C 0.18812 0.8012 0.08095 0.0
C481 C 0.19103 0.7824 0.12183 0.0
C482 C 0.17019 0.76068 0.08584 0.0
C483 C 0.17269 0.77879 1.04318 0.0
C484 C 0.26937 0.7763 0.96834 0.0
C485 C 0.25863 0.79969 0.96562 0.0
H486 H 0.28277 0.73009 0.97594 0.0
C487 C 0.14319 0.75141 0.93873 0.0
C488 C 0.12268 0.71002 0.99485 0.0
C489 C 1.01964 0.71642 0.90542 0.0
C490 C 0.99046 0.72982 0.86783 0.0
C491 C 1.01437 0.69011 0.87008 0.0
C492 C 1.02626 0.69459 0.89431 0.0
C493 C 0.997 0.70765 0.85672 0.0
C494 C 0.9999 0.7332 0.89277 0.0
C495 C 1.03135 0.72171 0.93071 0.0
H496 H 0.20541 0.81825 0.11464 0.0
H497 H 0.19273 0.81647 0.06916 0.0
H498 H 0.19683 0.78354 0.14175 0.0
H499 H 0.16062 0.74453 0.07778 0.0
H500 H 1.01984 0.67342 0.86123 0.0
H501 H 0.04061 0.68112 0.90424 0.0
H502 H 0.99085 0.70425 0.83719 0.0
H503 H 0.99435 0.75004 0.90141 0.0
C504 C 0.64892 0.81432 0.85807 0.0
C505 C 0.67858 0.84443 0.83483 0.0
C506 C 0.67577 0.82087 0.8433 0.0
C507 C 0.65479 0.8613 0.84214 0.0
C508 C 0.62401 0.83101 0.86436 0.0
C509 C 0.62754 0.8546 0.85685 0.0
N510 N 0.64562 0.79128 0.86451 0.0
C511 C 0.61662 0.78348 0.87512 0.0
C512 C 0.59548 0.82332 0.87702 0.0
C513 C 0.59149 0.79937 0.88199 0.0
Gd514 Gd 0.75953 0.73704 0.88969 0.0
Gd515 Gd 0.68929 0.76561 0.85271 0.0
N516 N 0.69813 0.80405 0.83615 0.0
C517 C 0.70476 0.85031 0.81873 0.0
C518 C 0.72304 0.80972 0.81958 0.0
C519 C 0.72689 0.83283 0.81093 0.0
H520 H 0.74087 0.79688 0.81327 0.0
H521 H 0.74705 0.83714 0.79825 0.0
H522 H 0.69218 0.70967 0.92067 0.0
H523 H 0.61267 0.76481 0.87778 0.0
H524 H 0.67816 0.67181 0.93755 0.0
H525 H 0.70776 0.86819 0.81189 0.0
H526 H 0.65673 0.87946 0.83594 0.0
H527 H 0.83091 0.72742 0.86042 0.0
H528 H 0.57578 0.83559 0.88207 0.0
H529 H 0.56885 0.79307 0.89075 0.0
H530 H 0.76846 0.62158 0.91387 0.0
H531 H 0.60879 0.86767 0.86166 0.0
H532 H 0.85689 0.65451 0.86527 0.0
H533 H 0.86905 0.69481 0.85017 0.0
N534 N 0.79633 0.70593 0.88011 0.0
C535 C 0.78978 0.68418 0.88923 0.0
C536 C 0.82466 0.70988 0.8665 0.0
C537 C 0.83983 0.66881 0.86961 0.0
C538 C 0.84669 0.69146 0.86096 0.0
C539 C 0.8112 0.66492 0.88398 0.0
H540 H 0.81952 0.62747 0.88929 0.0
N541 N 0.74128 0.70018 0.90791 0.0
C542 C 0.76152 0.68117 0.90361 0.0
C543 C 0.72347 0.65516 0.92531 0.0
C544 C 0.75329 0.65832 0.91236 0.0
C545 C 0.71108 0.69645 0.91942 0.0
C546 C 0.70212 0.67426 0.92855 0.0
O547 O 0.73227 0.7883 0.8661 0.0
O548 O 0.74128 0.77231 0.90436 0.0
O549 O 0.80044 0.73153 0.91577 0.0
O550 O 0.80195 0.76055 0.88846 0.0
O551 O 0.73328 0.75784 0.82402 0.0
O552 O 0.77816 0.74689 0.84891 0.0
O553 O 0.73502 0.71741 0.85817 0.0
O554 O 0.68468 0.72933 0.8703 0.0
O555 O 0.68132 0.74109 0.82214 0.0
O556 O 0.64329 0.76794 0.83064 0.0
O557 O 0.71558 0.74621 0.91927 0.0
O558 O 0.67054 0.75909 0.89453 0.0
C559 C 0.73822 0.79116 0.89017 0.0
C560 C 0.76599 0.75258 0.82616 0.0
C561 C 0.83163 0.76492 0.92631 0.0
C562 C 0.83164 0.77589 0.96998 0.0
C563 C 0.88015 0.78408 0.9443 0.0
C564 C 0.86443 0.77319 0.92386 0.0
C565 C 0.86394 0.78517 0.96751 0.0
C566 C 0.81452 0.76815 0.94865 0.0
C567 C 0.81695 0.74981 0.90729 0.0
C568 C 0.77448 0.63913 0.90725 0.0
C569 C 0.80344 0.64244 0.89317 0.0
H570 H 0.71617 0.63792 0.93212 0.0
C571 C 0.70361 0.71245 0.86141 0.0
C572 C 0.68279 0.7529 0.91733 0.0
C573 C 0.62923 0.73971 0.79856 0.0
C574 C 0.62361 0.71653 0.76053 0.0
C575 C 0.5753 0.73723 0.77766 0.0
C576 C 0.59527 0.74601 0.79709 0.0
C577 C 0.58945 0.723 0.75911 0.0
C578 C 0.64253 0.72388 0.78132 0.0
C579 C 0.65103 0.74909 0.81819 0.0
H580 H 0.90553 0.79042 0.94258 0.0
H581 H 0.87803 0.77066 0.90651 0.0
H582 H 0.87713 0.79202 0.98371 0.0
H583 H 0.789 0.76187 0.95021 0.0
H584 H 0.54912 0.74218 0.77642 0.0
H585 H 0.58425 0.75766 0.81087 0.0
H586 H 0.5739 0.71806 0.74325 0.0
H587 H 0.66831 0.71815 0.78353 0.0
C588 C 1.00303 0.03719 0.86417 0.0
C589 C 0.96103 0.00658 0.859 0.0
C590 C 0.994 0.01323 0.86522 0.0
C591 C 0.93729 0.02396 0.85233 0.0
C592 C 0.97935 0.05439 0.85653 0.0
C593 C 0.9464 0.04767 0.85097 0.0
N594 N 1.03519 0.04348 0.86976 0.0
C595 C 0.04502 0.06641 0.86849 0.0
C596 C 0.98947 0.07789 0.85462 0.0
C597 C 1.02246 0.08389 0.86049 0.0
Gd598 Gd 0.13549 0.98835 0.85301 0.0
Gd599 Gd 0.06553 0.01359 0.8897 0.0
N600 N 1.01736 0.99662 0.87237 0.0
C601 C 0.95275 0.98267 0.85986 0.0
C602 C 1.00926 0.97332 0.87338 0.0
C603 C 0.97701 0.96601 0.86685 0.0
H604 H 1.02678 0.96032 0.88011 0.0
H605 H 0.97062 0.94753 0.86788 0.0
H606 H 0.18649 0.03499 0.85039 0.0
H607 H 0.06966 0.07149 0.87465 0.0
H608 H 0.2448 0.04466 0.86055 0.0
H609 H 0.92765 0.97687 0.85533 0.0
H610 H 0.91171 0.01936 0.84813 0.0
H611 H 0.13134 0.92874 0.85636 0.0
H612 H 0.97195 0.09157 0.84877 0.0
H613 H 1.03029 0.10208 0.85951 0.0
H614 H 0.2922 0.97167 0.88965 0.0
H615 H 0.92772 0.0607 0.84547 0.0
H616 H 0.22396 0.90279 0.88639 0.0
H617 H 0.16611 0.89562 0.87154 0.0
N618 N 0.16651 0.95501 0.8666 0.0
C619 C 0.19899 0.95916 0.87319 0.0
C620 C 0.15524 0.93239 0.86493 0.0
C621 C 0.20814 0.91755 0.88085 0.0
C622 C 0.17545 0.91344 0.87264 0.0
C623 C 0.22058 0.94053 0.88061 0.0
H624 H 0.27099 0.93119 0.89267 0.0
N625 N 0.19023 0.99959 0.86354 0.0
C626 C 0.21135 0.98196 0.87112 0.0
C627 C 0.25714 0.00954 0.87326 0.0
C628 C 0.24527 0.9866 0.87658 0.0
C629 C 0.20219 0.02165 0.85886 0.0
C630 C 0.23559 0.02706 0.86404 0.0
O631 O 0.05853 0.01624 0.84505 0.0
O632 O 0.08557 0.98444 0.82948 0.0
O633 O 0.1523 0.00315 0.81829 0.0
O634 O 0.15666 0.9649 0.82464 0.0
O635 O 0.07911 0.97698 0.90345 0.0
O636 O 0.09671 0.96198 0.86635 0.0
O637 O 0.1552 0.99719 0.89392 0.0
O638 O 0.10999 0.00623 0.91888 0.0
O639 O 1.02344 0.00916 0.91285 0.0
O640 O 0.05286 0.04083 0.91757 0.0
O641 O 0.12579 0.02829 0.84917 0.0
O642 O 0.10853 0.03806 0.88828 0.0
C643 C 0.06124 1.00041 0.82663 0.0
C644 C 0.08852 0.95888 0.89006 0.0
C645 C 0.17851 0.98075 0.78564 0.0
C646 C 0.19131 0.9997 0.74609 0.0
C647 C 0.20447 0.95817 0.75248 0.0
C648 C 0.19114 0.95928 0.77671 0.0
C649 C 0.20419 0.97825 0.73701 0.0
C650 C 0.18005 1.0009 0.7707 0.0
C651 C 0.16304 0.98283 0.8102 0.0
C652 C 0.26634 0.96824 0.88488 0.0
C653 C 0.25412 0.94526 0.8868 0.0
H654 H 0.28302 0.01381 0.87722 0.0
C655 C 0.14296 0.00183 0.91668 0.0
C656 C 0.12459 0.04343 0.86788 0.0
C657 C 1.01468 0.0293 0.94991 0.0
C658 C 0.99296 0.00708 0.98523 0.0
C659 C 0.99009 0.05014 0.98469 0.0
C660 C 1.00588 0.05052 0.96141 0.0
C661 C 0.98357 0.02866 0.99658 0.0
C662 C 1.0077 0.00781 0.96166 0.0
C663 C 1.02623 0.02924 0.92413 0.0
H664 H 0.214 0.94161 0.74542 0.0
H665 H 0.1905 0.9435 0.78827 0.0
H666 H 0.21262 0.97674 0.71776 0.0
H667 H 0.1708 0.01759 0.77775 0.0
H668 H 0.98329 0.06651 0.99371 0.0
H669 H 1.01044 0.06724 0.95214 0.0
H670 H 0.9728 0.02924 1.01518 0.0
H671 H 1.01478 0.99134 0.95285 0.0
C672 C 0.45335 0.54393 0.62404 0.0
C673 C 0.49823 0.51488 0.62873 0.0
C674 C 0.46474 0.5206 0.62237 0.0
C675 C 0.52007 0.53266 0.63664 0.0
C676 C 0.47559 0.56179 0.63167 0.0
C677 C 0.50883 0.556 0.63807 0.0
N678 N 0.421 0.54925 0.6176 0.0
C679 C 0.41054 0.57217 0.61623 0.0
C680 C 0.46406 0.58512 0.63205 0.0
C681 C 0.43151 0.59035 0.62401 0.0
Gd682 Gd 0.31862 0.49196 0.63903 0.0
Gd683 Gd 0.39023 0.51762 0.6016 0.0
N684 N 0.44293 0.50349 0.61501 0.0
C685 C 0.50881 0.49139 0.62714 0.0
C686 C 0.45372 0.48076 0.61232 0.0
C687 C 0.48648 0.4743 0.61879 0.0
H688 H 0.43796 0.46776 0.60395 0.0
H689 H 0.49474 0.45622 0.61671 0.0
H690 H 0.2765 0.54448 0.63208 0.0
H691 H 0.38678 0.57668 0.60776 0.0
H692 H 0.21814 0.55644 0.62409 0.0
H693 H 0.53431 0.48633 0.63192 0.0
H694 H 0.5458 0.52853 0.64165 0.0
H695 H 0.32435 0.43439 0.62182 0.0
H696 H 0.48045 0.59931 0.63769 0.0
H697 H 0.42287 0.60845 0.62306 0.0
H698 H 0.16119 0.48353 0.61045 0.0
H699 H 0.5262 0.56952 0.64395 0.0
H700 H 0.22633 0.41363 0.59933 0.0
H701 H 0.28609 0.40396 0.60648 0.0
N702 N 0.28854 0.46214 0.61903 0.0
C703 C 0.25552 0.46786 0.61554 0.0
C704 C 0.2994 0.43946 0.61636 0.0
C705 C 0.24355 0.42743 0.60471 0.0
C706 C 0.27732 0.42193 0.60854 0.0
C707 C 0.23217 0.45048 0.6086 0.0
H708 H 0.17963 0.44311 0.60225 0.0
N709 N 0.26796 0.50821 0.62472 0.0
C710 C 0.24492 0.49135 0.61872 0.0
C711 C 0.20131 0.52106 0.61733 0.0
C712 C 0.21093 0.49738 0.61542 0.0
C713 C 0.25876 0.53132 0.62659 0.0
C714 C 0.22542 0.53811 0.6225 0.0
O715 O 0.40601 0.51147 0.64454 0.0
O716 O 0.36258 0.49709 0.66841 0.0
O717 O 0.28077 0.49609 0.66631 0.0
O718 O 0.30694 0.4624 0.6642 0.0
O719 O 0.378 0.47911 0.59345 0.0
O720 O 0.36325 0.46904 0.6331 0.0
O721 O 0.3048 0.49568 0.59587 0.0
O722 O 0.34498 0.51468 0.57307 0.0
O723 O 0.42714 0.51118 0.57337 0.0
O724 O 0.39912 0.544 0.5724 0.0
O725 O 0.33155 0.52884 0.65166 0.0
O726 O 0.35003 0.54359 0.61432 0.0
C727 C 0.39441 0.50421 0.66689 0.0
C728 C 0.37459 0.46305 0.61112 0.0
C729 C 0.27157 0.46985 0.69968 0.0
C730 C 0.24374 0.48445 0.73675 0.0
C731 C 0.26574 0.4442 0.73578 0.0
C732 C 0.2773 0.44802 0.71144 0.0
C733 C 0.24937 0.46231 0.74854 0.0
C734 C 0.25324 0.48739 0.71189 0.0
C735 C 0.28241 0.47433 0.6741 0.0
C736 C 0.18757 0.47961 0.61062 0.0
C737 C 0.19812 0.45642 0.60656 0.0
H738 H 0.17538 0.52636 0.61472 0.0
C739 C 0.31468 0.50501 0.57415 0.0
C740 C 0.34059 0.54684 0.63775 0.0
C741 C 0.42217 0.53003 0.53453 0.0
C742 C 0.41848 0.5066 0.49687 0.0
C743 C 0.44359 0.54542 0.49529 0.0
C744 C 0.43772 0.54808 0.52096 0.0
C745 C 0.43445 0.52459 0.4833 0.0
C746 C 0.41152 0.50959 0.52228 0.0
C747 C 0.42206 0.53115 0.56183 0.0
H748 H 0.2706 0.42751 0.74515 0.0
H749 H 0.29065 0.43405 0.7019 0.0
H750 H 0.2433 0.45936 0.76812 0.0
H751 H 0.24876 0.50438 0.70295 0.0
H752 H 0.45597 0.55923 0.48485 0.0
H753 H 0.44632 0.56382 0.5304 0.0
H754 H 0.4398 0.52248 0.46346 0.0
H755 H 0.3996 0.49552 0.53274 0.0
C756 C 0.87552 0.71111 0.62571 0.0
C757 C 0.82979 0.73957 0.62782 0.0
C758 C 0.86347 0.73403 0.62236 0.0
C759 C 0.80853 0.72194 0.63687 0.0
C760 C 0.85388 0.6933 0.63439 0.0
C761 C 0.82053 0.6989 0.64016 0.0
N762 N 0.90788 0.70603 0.61966 0.0
C763 C 0.9189 0.68319 0.61977 0.0
C764 C 0.86609 0.6702 0.63634 0.0
C765 C 0.89861 0.66509 0.62869 0.0
Gd766 Gd 1.00937 0.76423 0.63879 0.0
Gd767 Gd 0.9386 0.73765 0.6028 0.0
N768 N 0.88479 0.75097 0.614 0.0
C769 C 0.81841 0.7627 0.624 0.0
C770 C 0.87314 0.77319 0.60891 0.0
C771 C 0.84014 0.77952 0.61432 0.0
H772 H 0.88852 0.78588 0.59956 0.0
H773 H 0.83127 0.79725 0.61044 0.0
H774 H 0.05111 0.71114 0.63486 0.0
H775 H 0.9425 0.67863 0.61151 0.0
H776 H 0.10701 0.69787 0.62279 0.0
H777 H 0.79275 0.76762 0.62798 0.0
H778 H 0.78265 0.7259 0.64121 0.0
H779 H 1.00409 0.82129 0.62129 0.0
H780 H 0.85021 0.65605 0.64284 0.0
H781 H 0.90774 0.64709 0.62889 0.0
H782 H 0.16211 0.76801 0.59553 0.0
H783 H 0.80364 0.68543 0.64683 0.0
H784 H 0.10022 0.84041 0.59355 0.0
H785 H 0.04217 0.85134 0.60452 0.0
N786 N 0.03891 0.79312 0.61721 0.0
C787 C 0.07103 0.78666 0.61174 0.0
C788 C 1.02854 0.81599 0.61499 0.0
C789 C 0.08324 0.82695 0.60011 0.0
C790 C 0.0504 0.83318 0.60611 0.0
C791 C 0.09395 0.80352 0.60293 0.0
H792 H 0.14487 0.80937 0.59084 0.0
N793 N 0.05836 0.74672 0.62328 0.0
C794 C 0.08081 0.7629 0.61446 0.0
C795 C 0.12293 0.73233 0.61108 0.0
C796 C 0.11372 0.75603 0.60832 0.0
C797 C 0.0676 0.72369 0.62649 0.0
C798 C 0.09978 0.71613 0.62012 0.0
O799 O 0.92136 0.74588 0.64454 0.0
O800 O 0.96654 0.75731 0.66878 0.0
O801 O 0.05086 0.76241 0.66403 0.0
O802 O 1.01975 0.79389 0.66378 0.0
O803 O 0.9492 0.77679 0.59525 0.0
O804 O 0.96437 0.7872 0.63477 0.0
O805 O 1.01602 0.76572 0.59413 0.0
O806 O 0.9882 0.73426 0.5787 0.0
O807 O 0.91105 0.74815 0.56966 0.0
O808 O 0.92196 0.7112 0.5763 0.0
O809 O 0.99765 0.72744 0.65297 0.0
O810 O 0.97911 0.7121 0.61604 0.0
C811 C 0.93392 0.75174 0.66708 0.0
C812 C 0.95097 0.79272 0.61311 0.0
C813 C 0.057 0.78736 0.69862 0.0
C814 C 0.08392 0.77209 0.7364 0.0
C815 C 0.06217 0.81241 0.73503 0.0
C816 C 0.05112 0.80899 0.71039 0.0
C817 C 0.07814 0.79408 0.74812 0.0
C818 C 0.07496 0.76957 0.71124 0.0
C819 C 0.04667 0.7836 0.67265 0.0
C820 C 0.13662 0.77297 0.59997 0.0
C821 C 0.12681 0.79658 0.59733 0.0
H822 H 0.14797 0.7264 0.60655 0.0
C823 C 1.01314 0.7496 0.57604 0.0
C824 C 0.98831 0.7092 0.63968 0.0
C825 C 0.91601 0.72434 0.53431 0.0
C826 C 0.90955 0.74083 0.49275 0.0
C827 C 0.94084 0.70447 0.49867 0.0
C828 C 0.93486 0.70552 0.52454 0.0
C829 C 0.92833 0.72221 0.48272 0.0
C830 C 0.90309 0.74167 0.51825 0.0
C831 C 0.90908 0.72679 0.56101 0.0
H832 H 0.05728 0.82898 0.74432 0.0
H833 H 0.03808 0.82317 0.70057 0.0
H834 H 0.08387 0.7968 0.76785 0.0
H835 H 0.07979 0.7528 0.70223 0.0
H836 H 0.95543 0.6901 0.49105 0.0
H837 H 0.945 0.69183 0.53675 0.0
H838 H 0.93364 0.72161 0.46276 0.0
H839 H 0.88848 0.75624 0.52563 0.0
C840 C 0.28251 0.81772 0.71428 0.0
C841 C 0.31801 0.84393 0.69067 0.0
C842 C 0.31027 0.82098 0.69937 0.0
C843 C 0.29698 0.86302 0.69651 0.0
C844 C 0.26112 0.83684 0.72008 0.0
C845 C 0.26852 0.85946 0.71109 0.0
N846 N 0.27637 0.79586 0.72328 0.0
C847 C 0.24817 0.79158 0.7369 0.0
C848 C 0.23285 0.83268 0.73476 0.0
C849 C 0.22618 0.80986 0.74301 0.0
Gd850 Gd 0.38521 0.73849 0.75045 0.0
Gd851 Gd 0.31368 0.76525 0.71329 0.0
N852 N 0.33044 0.80208 0.69437 0.0
C853 C 0.34721 0.8473 0.67699 0.0
C854 C 0.35963 0.80588 0.68153 0.0
C855 C 0.36819 0.82822 0.67261 0.0
H856 H 0.37784 0.79251 0.67863 0.0
H857 H 0.39148 0.83075 0.6627 0.0
H858 H 0.33563 0.70769 0.79146 0.0
H859 H 0.24204 0.7739 0.74259 0.0
H860 H 0.32981 0.66752 0.80692 0.0
H861 H 0.35418 0.86464 0.67027 0.0
H862 H 0.30268 0.88066 0.68999 0.0
H863 H 0.46059 0.73878 0.72203 0.0
H864 H 0.21582 0.84687 0.73955 0.0
H865 H 0.204 0.80628 0.75392 0.0
H866 H 0.41832 0.62476 0.76749 0.0
H867 H 0.25248 0.87434 0.71545 0.0
H868 H 0.49711 0.66797 0.71868 0.0
H869 H 0.50341 0.71025 0.70861 0.0
N870 N 0.42844 0.71272 0.73763 0.0
C871 C 0.42544 0.68975 0.74454 0.0
C872 C 0.45668 0.72024 0.72561 0.0
C873 C 0.47773 0.68034 0.72409 0.0
C874 C 0.48136 0.70418 0.71833 0.0
C875 C 0.44992 0.67291 0.73776 0.0
H876 H 0.46511 0.63624 0.74046 0.0
N877 N 0.37711 0.70018 0.76747 0.0
C878 C 0.3992 0.68333 0.76001 0.0
C879 C 0.37112 0.65411 0.78551 0.0
C880 C 0.39666 0.65983 0.76877 0.0
C881 C 0.35297 0.69471 0.78474 0.0
C882 C 0.34939 0.67168 0.79368 0.0
O883 O 0.3385 0.78659 0.74369 0.0
O884 O 0.3894 0.7747 0.73254 0.0
O885 O 0.39216 0.76226 0.78116 0.0
O886 O 0.43209 0.73679 0.77218 0.0
O887 O 0.35739 0.7552 0.68402 0.0
O888 O 0.40384 0.74685 0.70923 0.0
O889 O 0.34311 0.71462 0.73761 0.0
O890 O 0.33309 0.73007 0.69926 0.0
O891 O 0.27391 0.77044 0.68608 0.0
O892 O 0.27089 0.74202 0.71399 0.0
O893 O 0.34126 0.74662 0.77913 0.0
O894 O 0.29538 0.75531 0.75432 0.0
C895 C 0.37 0.79168 0.74064 0.0
C896 C 0.39075 0.75057 0.68622 0.0
C897 C 0.4424 0.76444 0.80605 0.0
C898 C 0.44257 0.78418 0.84629 0.0
C899 C 0.49508 0.77193 0.82733 0.0
C900 C 0.47739 0.76251 0.80693 0.0
C901 C 0.47776 0.78246 0.84719 0.0
C902 C 0.4255 0.7761 0.8251 0.0
C903 C 0.4226 0.75474 0.78551 0.0
C904 C 0.42007 0.64287 0.76107 0.0
C905 C 0.44667 0.64939 0.74564 0.0
H906 H 0.36834 0.63628 0.79258 0.0
C907 C 0.3368 0.71143 0.71365 0.0
C908 C 0.30825 0.75086 0.7772 0.0
C909 C 0.24258 0.73677 0.6755 0.0
C910 C 0.24121 0.72306 0.63244 0.0
C911 C 0.19711 0.71196 0.66117 0.0
C912 C 0.21266 0.72483 0.68032 0.0
C913 C 0.21105 0.71135 0.63712 0.0
C914 C 0.2572 0.73522 0.65187 0.0
C915 C 0.25696 0.75234 0.69442 0.0
H916 H 0.52211 0.77049 0.82809 0.0
H917 H 0.49089 0.7539 0.79192 0.0
H918 H 0.49172 0.7884 0.86351 0.0
H919 H 0.39849 0.77804 0.82394 0.0
H920 H 0.17376 0.70303 0.66478 0.0
H921 H 0.20102 0.72592 0.69863 0.0
H922 H 0.19815 0.70213 0.62214 0.0
H923 H 0.28 0.74486 0.6481 0.0
C924 C 0.86899 0.53826 0.72987 0.0
C925 C 0.82682 0.50758 0.72884 0.0
C926 C 0.85987 0.51482 0.73412 0.0
C927 C 0.80346 0.52385 0.71893 0.0
C928 C 0.84521 0.55473 0.72064 0.0
C929 C 0.81257 0.54734 0.71497 0.0
N930 N 0.90087 0.54506 0.73533 0.0
C931 C 0.90956 0.5682 0.73423 0.0
C932 C 0.85468 0.57832 0.71803 0.0
C933 C 0.88689 0.58513 0.72516 0.0
Gd934 Gd 1.00576 0.48959 0.71563 0.0
Gd935 Gd 0.93548 0.51611 0.75334 0.0
N936 N 0.88274 0.4995 0.74453 0.0
C937 C 0.81779 0.4844 0.73451 0.0
C938 C 0.87295 0.47758 0.75213 0.0
C939 C 0.84083 0.46945 0.74651 0.0
H940 H 0.88895 0.46666 0.7637 0.0
H941 H 0.83351 0.4519 0.75219 0.0
H942 H 0.04839 0.54099 0.72292 0.0
H943 H 0.9334 0.57383 0.74143 0.0
H944 H 0.10642 0.55233 0.73236 0.0
H945 H 0.79266 0.47819 0.73069 0.0
H946 H 0.77796 0.51856 0.71486 0.0
H947 H 0.99985 0.43158 0.73179 0.0
H948 H 0.83701 0.59153 0.71125 0.0
H949 H 0.89403 0.60347 0.72423 0.0
H950 H 0.16276 0.47885 0.74913 0.0
H951 H 0.79399 0.55976 0.70788 0.0
H952 H 0.09697 0.40935 0.75647 0.0
H953 H 1.03749 0.40049 0.74785 0.0
N954 N 1.03592 0.4588 0.73496 0.0
C955 C 0.06886 0.46401 0.7391 0.0
C956 C 1.02476 0.43624 0.73756 0.0
C957 C 0.0801 0.42338 0.7505 0.0
C958 C 0.04647 0.41834 0.74586 0.0
C959 C 0.09176 0.44632 0.74686 0.0
H960 H 0.14372 0.43844 0.75571 0.0
N961 N 0.05683 0.50451 0.73003 0.0
C962 C 0.07976 0.48731 0.73598 0.0
C963 C 0.1231 0.51668 0.73924 0.0
C964 C 0.11353 0.49303 0.74059 0.0
C965 C 0.06607 0.52757 0.72853 0.0
C966 C 0.09919 0.53402 0.73349 0.0
O967 O 0.92172 0.51517 0.70957 0.0
O968 O 0.95709 0.48902 0.68995 0.0
O969 O 0.0378 0.49825 0.68494 0.0
O970 O 1.02305 0.46147 0.69085 0.0
O971 O 0.94705 0.47701 0.76071 0.0
O972 O 0.96212 0.46578 0.72136 0.0
O973 O 1.02139 0.49541 0.75834 0.0
O974 O 0.97833 0.50819 0.78298 0.0
O975 O 0.8979 0.51707 0.78204 0.0
O976 O 0.93562 0.54422 0.78103 0.0
O977 O 0.99175 0.52649 0.70272 0.0
O978 O 0.97573 0.54147 0.74032 0.0
C979 C 0.92889 0.50192 0.6895 0.0
C980 C 0.94918 0.4608 0.74315 0.0
C981 C 0.05858 0.47043 0.65538 0.0
C982 C 0.08929 0.48435 0.61918 0.0
C983 C 0.06884 0.44388 0.62093 0.0
C984 C 0.05461 0.44831 0.64426 0.0
C985 C 0.08573 0.46178 0.60826 0.0
C986 C 0.07786 0.48768 0.64365 0.0
C987 C 0.04179 0.47624 0.6787 0.0
C988 C 0.1365 0.47508 0.74686 0.0
C989 C 0.12564 0.45192 0.75035 0.0
H990 H 0.1488 0.52176 0.74286 0.0
C991 C 1.01026 0.50155 0.781 0.0
C992 C 0.98447 0.54468 0.71676 0.0
C993 C 0.9169 0.53149 0.82076 0.0
C994 C 0.91424 0.50681 0.85796 0.0
C995 C 0.9367 0.5463 0.86093 0.0
C996 C 0.93091 0.54964 0.83518 0.0
C997 C 0.9284 0.52493 0.87235 0.0
C998 C 0.90856 0.51005 0.83235 0.0
C999 C 0.91126 0.5348 0.79368 0.0
H1000 H 0.06527 0.42696 0.61204 0.0
H1001 H 0.04006 0.43468 0.65332 0.0
H1002 H 0.0936 0.45828 0.58919 0.0
H1003 H 0.08076 0.50482 0.6523 0.0
H1004 H 0.94758 0.56028 0.87204 0.0
H1005 H 0.93745 0.5663 0.82653 0.0
H1006 H 0.93287 0.52254 0.89237 0.0
H1007 H 0.89773 0.49575 0.82163 0.0
C1008 C 0.82331 0.53329 0.48654 0.0
C1009 C 0.8616 0.5003 0.49274 0.0
C1010 C 0.82922 0.50891 0.48691 0.0
C1011 C 0.88763 0.51611 0.49743 0.0
C1012 C 0.84946 0.54909 0.49224 0.0
C1013 C 0.88157 0.54034 0.49773 0.0
N1014 N 0.79252 0.5416 0.47963 0.0
C1015 C 0.78696 0.56519 0.47667 0.0
C1016 C 0.84306 0.57334 0.49097 0.0
C1017 C 0.8117 0.58142 0.48294 0.0
Gd1018 Gd 0.68606 0.48558 0.50269 0.0
Gd1019 Gd 0.75514 0.51311 0.46536 0.0
N1020 N 0.80395 0.49378 0.48059 0.0
C1021 C 0.86739 0.47601 0.49285 0.0
C1022 C 0.80997 0.47005 0.48018 0.0
C1023 C 0.8414 0.46085 0.48672 0.0
H1024 H 0.79157 0.45785 0.47411 0.0
H1025 H 0.84582 0.44202 0.4863 0.0
H1026 H 0.64206 0.53478 0.4859 0.0
H1027 H 0.76387 0.57153 0.46826 0.0
H1028 H 0.58333 0.54531 0.47714 0.0
H1029 H 0.89196 0.46881 0.49732 0.0
H1030 H 0.9128 0.50968 0.49994 0.0
H1031 H 0.69142 0.42606 0.49897 0.0
H1032 H 0.86252 0.58596 0.49522 0.0
H1033 H 0.80692 0.60012 0.48075 0.0
H1034 H 0.5287 0.47078 0.46906 0.0
H1035 H 0.90217 0.5522 0.50142 0.0
H1036 H 0.59513 0.40065 0.47752 0.0
H1037 H 0.65445 0.39302 0.48869 0.0
N1038 N 0.65512 0.4525 0.49017 0.0
C1039 C 0.62233 0.45708 0.48451 0.0
C1040 C 0.66652 0.42979 0.49205 0.0
C1041 C 0.61171 0.41533 0.48095 0.0
C1042 C 0.64523 0.41095 0.48706 0.0
C1043 C 0.59978 0.43856 0.47984 0.0
H1044 H 0.54829 0.42967 0.47112 0.0
N1045 N 0.63364 0.49804 0.48691 0.0
C1046 C 0.6111 0.4804 0.48341 0.0
C1047 C 0.56721 0.50921 0.47573 0.0
C1048 C 0.57733 0.48559 0.47751 0.0
C1049 C 0.62401 0.52105 0.4845 0.0
C1050 C 0.59072 0.527 0.47908 0.0
O1051 O 0.76576 0.5151 0.50936 0.0
O1052 O 0.73715 0.48403 0.52583 0.0
O1053 O 0.65421 0.49549 0.5334 0.0
O1054 O 0.67437 0.46014 0.53186 0.0
O1055 O 0.74017 0.47646 0.4518 0.0
O1056 O 0.72559 0.46036 0.48915 0.0
O1057 O 0.6685 0.49094 0.46021 0.0
O1058 O 0.70941 0.5095 0.43732 0.0
O1059 O 0.79374 0.50915 0.4374 0.0
O1060 O 0.76071 0.54029 0.43673 0.0
O1061 O 0.69461 0.52406 0.51341 0.0
O1062 O 0.71744 0.54041 0.47784 0.0
C1063 C 0.76206 0.49954 0.52807 0.0
C1064 C 0.73194 0.45788 0.46519 0.0
C1065 C 0.66583 0.47655 0.57187 0.0
C1066 C 0.66455 0.4985 0.61063 0.0
C1067 C 0.6906 0.45979 0.60993 0.0
C1068 C 0.68274 0.45797 0.58436 0.0
C1069 C 0.68169 0.48008 0.62307 0.0
C1070 C 0.65631 0.4966 0.58529 0.0
C1071 C 0.65768 0.47534 0.54501 0.0
C1072 C 0.5548 0.46713 0.47338 0.0
C1073 C 0.56599 0.44371 0.47449 0.0
H1074 H 0.54145 0.51388 0.47131 0.0
C1075 C 0.67866 0.50046 0.43853 0.0
C1076 C 0.7026 0.54258 0.49972 0.0
C1077 C 0.80649 0.53981 0.40734 0.0
C1078 C 0.84026 0.53157 0.37088 0.0
C1079 C 0.81727 0.571 0.37744 0.0
C1080 C 0.80117 0.56299 0.39898 0.0
C1081 C 0.83621 0.55535 0.36314 0.0
C1082 C 0.82927 0.52531 0.39493 0.0
C1083 C 0.78778 0.5302 0.42841 0.0
H1084 H 0.70354 0.44549 0.61956 0.0
H1085 H 0.68989 0.44212 0.57443 0.0
H1086 H 0.68771 0.4813 0.64296 0.0
H1087 H 0.64263 0.51088 0.57611 0.0
H1088 H 0.81309 0.58886 0.37082 0.0
H1089 H 0.78445 0.57476 0.40889 0.0
H1090 H 0.84469 0.56153 0.345 0.0
H1091 H 0.83427 0.50775 0.40217 0.0
C1092 C 1.00328 0.21944 0.49388 0.0
C1093 C 0.959 0.24925 0.49207 0.0
C1094 C 0.99242 0.24238 0.48776 0.0
C1095 C 0.9362 0.2328 0.50148 0.0
C1096 C 0.98012 0.20296 0.50329 0.0
C1097 C 0.94663 0.20973 0.5069 0.0
N1098 N 1.03599 0.21314 0.49013 0.0
C1099 C 0.04606 0.19032 0.49379 0.0
C1100 C 0.99101 0.17991 0.50826 0.0
C1101 C 1.02405 0.17356 0.50335 0.0
Gd1102 Gd 0.13803 0.26361 0.50453 0.0
Gd1103 Gd 0.06584 0.24126 0.46697 0.0
N1104 N 1.01496 0.25824 0.47862 0.0
C1105 C 0.9496 0.27266 0.48731 0.0
C1106 C 1.00573 0.28096 0.47341 0.0
C1107 C 0.97304 0.28859 0.47806 0.0
H1108 H 1.02319 0.29309 0.46521 0.0
H1109 H 0.96578 0.30666 0.47414 0.0
H1110 H 0.18545 0.2139 0.51231 0.0
H1111 H 0.07002 0.1843 0.48756 0.0
H1112 H 0.2415 0.19984 0.50124 0.0
H1113 H 0.92436 0.27863 0.49094 0.0
H1114 H 0.91042 0.2378 0.50476 0.0
H1115 H 0.13879 0.32193 0.49339 0.0
H1116 H 0.97386 0.16672 0.51522 0.0
H1117 H 1.03227 0.15549 0.50602 0.0
H1118 H 0.29444 0.26752 0.46591 0.0
H1119 H 0.92855 0.19722 0.51395 0.0
H1120 H 0.23265 0.33983 0.46131 0.0
H1121 H 0.176 0.35152 0.47509 0.0
N1122 N 0.17115 0.293 0.48619 0.0
C1123 C 0.2032 0.28651 0.48079 0.0
C1124 C 0.16203 0.3162 0.48541 0.0
C1125 C 0.21571 0.32656 0.46836 0.0
C1126 C 0.18369 0.3332 0.4759 0.0
C1127 C 0.22609 0.30309 0.47125 0.0
H1128 H 0.27676 0.30847 0.4583 0.0
N1129 N 0.19144 0.24785 0.49581 0.0
C1130 C 0.21365 0.2634 0.48576 0.0
C1131 C 0.25649 0.23308 0.48541 0.0
C1132 C 0.24672 0.25635 0.48032 0.0
C1133 C 0.20156 0.22553 0.50212 0.0
C1134 C 0.23386 0.21766 0.4965 0.0
O1135 O 0.05084 0.25525 0.50744 0.0
O1136 O 0.09642 0.25075 0.53289 0.0
O1137 O 0.1748 0.26412 0.53439 0.0
O1138 O 0.13807 0.29224 0.53134 0.0
O1139 O 0.08101 0.2767 0.45222 0.0
O1140 O 0.09851 0.29021 0.4902 0.0
O1141 O 0.15487 0.2545 0.46291 0.0
O1142 O 0.10854 0.24928 0.43744 0.0
O1143 O 1.02814 0.24402 0.4386 0.0
O1144 O 0.05353 0.21043 0.44429 0.0
O1145 O 0.12674 0.22516 0.51288 0.0
O1146 O 0.10912 0.2164 0.47338 0.0
C1147 C 0.06318 0.25274 0.5307 0.0
C1148 C 0.09005 0.29426 0.46648 0.0
C1149 C 0.15624 0.28111 0.57195 0.0
C1150 C 0.16273 0.25987 0.61124 0.0
C1151 C 0.13068 0.29627 0.60989 0.0
C1152 C 0.13717 0.29842 0.58421 0.0
C1153 C 0.1433 0.27696 0.62341 0.0
C1154 C 0.16933 0.26197 0.58572 0.0
C1155 C 0.16206 0.28276 0.54485 0.0
C1156 C 0.26906 0.27269 0.4701 0.0
C1157 C 0.25889 0.29599 0.46569 0.0
H1158 H 0.28163 0.22699 0.48135 0.0
C1159 C 0.14183 0.25166 0.43984 0.0
C1160 C 0.12258 0.20977 0.49482 0.0
C1161 C 1.02064 0.2161 0.40688 0.0
C1162 C 0.99329 0.22842 0.36821 0.0
C1163 C 1.02105 0.19004 0.3711 0.0
C1164 C 1.03037 0.19476 0.3959 0.0
C1165 C 1.00304 0.20685 0.35715 0.0
C1166 C 1.00048 0.23208 0.39345 0.0
C1167 C 1.02951 0.22184 0.43267 0.0
H1168 H 0.11575 0.30949 0.61927 0.0
H1169 H 0.12709 0.31345 0.57392 0.0
H1170 H 0.13793 0.27532 0.64331 0.0
H1171 H 0.1843 0.24847 0.57672 0.0
H1172 H 1.029 0.1738 0.36233 0.0
H1173 H 0.04521 0.1819 0.40634 0.0
H1174 H 0.9989 0.20352 0.33732 0.0
H1175 H 0.99283 0.24863 0.40185 0.0
C1176 C 0.6502 0.31286 0.35866 0.0
C1177 C 0.67911 0.34284 0.33452 0.0
C1178 C 0.6771 0.31954 0.3439 0.0
C1179 C 0.65461 0.35948 0.3411 0.0
C1180 C 0.6248 0.32936 0.36438 0.0
C1181 C 0.62757 0.35277 0.35602 0.0
N1182 N 0.64734 0.28984 0.36554 0.0
C1183 C 0.6187 0.282 0.37672 0.0
C1184 C 0.59653 0.32164 0.37734 0.0
C1185 C 0.59329 0.2978 0.38324 0.0
Gd1186 Gd 0.762 0.23932 0.39146 0.0
Gd1187 Gd 0.69115 0.26458 0.35291 0.0
N1188 N 0.70028 0.30302 0.3375 0.0
C1189 C 0.70512 0.34858 0.31816 0.0
C1190 C 0.72461 0.3083 0.32039 0.0
C1191 C 0.72778 0.33117 0.3109 0.0
H1192 H 0.74203 0.29506 0.31422 0.0
H1193 H 0.74755 0.3353 0.29781 0.0
H1194 H 0.70922 0.21433 0.43727 0.0
H1195 H 0.61486 0.26341 0.38001 0.0
H1196 H 0.69402 0.17566 0.45161 0.0
H1197 H 0.70746 0.36625 0.31057 0.0
H1198 H 0.65589 0.37745 0.33417 0.0
H1199 H 0.83076 0.23019 0.35786 0.0
H1200 H 0.57647 0.33376 0.38199 0.0
H1201 H 0.57087 0.29149 0.39231 0.0
H1202 H 0.77161 0.12372 0.41219 0.0
H1203 H 0.60835 0.36566 0.36032 0.0
H1204 H 0.85414 0.15679 0.3581 0.0
H1205 H 0.86642 0.19744 0.34421 0.0
N1206 N 0.79677 0.20845 0.37798 0.0
C1207 C 0.79085 0.18657 0.38711 0.0
C1208 C 0.82413 0.21255 0.36334 0.0
C1209 C 0.838 0.17116 0.36389 0.0
C1210 C 0.84491 0.19402 0.3559 0.0
C1211 C 0.8109 0.16719 0.37983 0.0
H1212 H 0.81862 0.1295 0.38338 0.0
N1213 N 0.74741 0.20289 0.41178 0.0
C1214 C 0.76515 0.1836 0.40414 0.0
C1215 C 0.73155 0.15789 0.43004 0.0
C1216 C 0.75787 0.16072 0.41326 0.0
C1217 C 0.72269 0.19997 0.4293 0.0
C1218 C 0.71406 0.17761 0.43817 0.0
O1219 O 0.73141 0.28947 0.36742 0.0
O1220 O 0.7415 0.27393 0.40582 0.0
O1221 O 0.80032 0.23291 0.41957 0.0
O1222 O 0.80641 0.26097 0.39178 0.0
O1223 O 0.73563 0.25383 0.32593 0.0
O1224 O 0.78125 0.25326 0.35209 0.0
O1225 O 0.73659 0.21681 0.36197 0.0
O1226 O 0.6843 0.22859 0.37025 0.0
O1227 O 0.68586 0.24403 0.3189 0.0
O1228 O 0.64701 0.26905 0.32942 0.0
O1229 O 0.71705 0.24986 0.41929 0.0
O1230 O 0.67055 0.25379 0.39319 0.0
C1231 C 0.73743 0.29257 0.39149 0.0
C1232 C 0.76892 0.25321 0.32866 0.0
C1233 C 0.8333 0.26577 0.4309 0.0
C1234 C 0.83837 0.27707 0.47455 0.0
C1235 C 0.87386 0.29528 0.44349 0.0
C1236 C 0.85909 0.28144 0.42474 0.0
C1237 C 0.8634 0.2932 0.46847 0.0
C1238 C 0.8228 0.26399 0.45575 0.0
C1239 C 0.81877 0.25043 0.41173 0.0
C1240 C 0.77699 0.14131 0.40538 0.0
C1241 C 0.80366 0.14458 0.38891 0.0
H1242 H 0.72491 0.14062 0.43714 0.0
C1243 C 0.70495 0.21155 0.36447 0.0
C1244 C 0.68334 0.25186 0.4166 0.0
C1245 C 0.63083 0.23648 0.30466 0.0
C1246 C 0.6129 0.21194 0.26988 0.0
C1247 C 0.57407 0.22154 0.30325 0.0
C1248 C 0.59895 0.23462 0.31542 0.0
C1249 C 0.58079 0.21053 0.28029 0.0
C1250 C 0.63775 0.22471 0.28238 0.0
C1251 C 0.65627 0.25279 0.31382 0.0
H1252 H 0.89378 0.30729 0.43873 0.0
H1253 H 0.8679 0.28282 0.40555 0.0
H1254 H 0.87534 0.30356 0.48301 0.0
H1255 H 0.80304 0.25186 0.46081 0.0
H1256 H 0.54927 0.22055 0.3112 0.0
H1257 H 0.59299 0.24379 0.33266 0.0
H1258 H 0.56093 0.20134 0.2705 0.0
H1259 H 0.66206 0.22702 0.27373 0.0
C1260 C 1.00437 0.53584 0.36167 0.0
C1261 C 0.96258 0.50495 0.35887 0.0
C1262 C 0.99561 0.51198 0.36427 0.0
C1263 C 0.93859 0.52183 0.35156 0.0
C1264 C 0.98038 0.5526 0.35343 0.0
C1265 C 0.94736 0.54551 0.34874 0.0
N1266 N 1.03634 0.54259 0.36716 0.0
C1267 C 0.0458 0.56555 0.36499 0.0
C1268 C 0.99011 0.57613 0.35066 0.0
C1269 C 1.023 0.58258 0.35629 0.0
Gd1270 Gd 0.1382 0.4881 0.35345 0.0
Gd1271 Gd 0.06686 0.51406 0.38927 0.0
N1272 N 1.01893 0.49592 0.37282 0.0
C1273 C 0.9542 0.4812 0.36161 0.0
C1274 C 1.01062 0.47279 0.37585 0.0
C1275 C 0.9784 0.46505 0.36988 0.0
H1276 H 1.02778 0.46027 0.38394 0.0
H1277 H 0.97192 0.44672 0.3725 0.0
H1278 H 0.18851 0.53546 0.35345 0.0
H1279 H 0.0703 0.57101 0.37111 0.0
H1280 H 0.24628 0.54532 0.36483 0.0
H1281 H 0.92899 0.47521 0.35771 0.0
H1282 H 0.91307 0.51661 0.34826 0.0
H1283 H 0.13392 0.42872 0.35852 0.0
H1284 H 0.97231 0.5895 0.34448 0.0
H1285 H 1.03051 0.60081 0.35473 0.0
H1286 H 0.29401 0.47209 0.39325 0.0
H1287 H 0.92834 0.55822 0.34302 0.0
H1288 H 0.22564 0.40334 0.3905 0.0
H1289 H 0.16821 0.3959 0.37491 0.0
N1290 N 0.16859 0.45521 0.36903 0.0
C1291 C 0.2009 0.4595 0.37603 0.0
C1292 C 0.15746 0.43255 0.36754 0.0
C1293 C 0.20993 0.41801 0.38451 0.0
C1294 C 0.17747 0.41375 0.3759 0.0
C1295 C 0.22234 0.44099 0.38405 0.0
H1296 H 0.27253 0.43177 0.39672 0.0
N1297 N 0.19213 0.49988 0.36609 0.0
C1298 C 0.21322 0.48232 0.374 0.0
C1299 C 0.25874 0.51009 0.3771 0.0
C1300 C 0.24699 0.48707 0.38003 0.0
C1301 C 0.204 0.5221 0.36208 0.0
C1302 C 0.23719 0.52762 0.36791 0.0
O1303 O 0.0615 0.51672 0.34471 0.0
O1304 O 0.08797 0.48438 0.33 0.0
O1305 O 0.16432 0.50045 0.321 0.0
O1306 O 0.15572 0.46309 0.3256 0.0
O1307 O 0.08019 0.47734 0.40331 0.0
O1308 O 0.09864 0.46226 0.36643 0.0
O1309 O 0.1558 0.49659 0.3948 0.0
O1310 O 0.11048 0.50711 0.41903 0.0
O1311 O 1.02538 0.5111 0.4138 0.0
O1312 O 0.05457 0.54313 0.41466 0.0
O1313 O 0.12769 0.52777 0.34767 0.0
O1314 O 0.11073 0.5378 0.38686 0.0
C1315 C 0.06357 0.50028 0.32698 0.0
C1316 C 0.08996 0.4592 0.39003 0.0
C1317 C 0.16147 0.47813 0.28431 0.0
C1318 C 0.16531 0.49723 0.24389 0.0
C1319 C 0.14486 0.4572 0.24656 0.0
C1320 C 0.14909 0.4577 0.27273 0.0
C1321 C 0.15292 0.47699 0.23208 0.0
C1322 C 0.1698 0.49765 0.26969 0.0
C1323 C 0.16768 0.47957 0.31131 0.0
C1324 C 0.26805 0.46874 0.3885 0.0
C1325 C 0.25576 0.44579 0.39054 0.0
H1326 H 0.28454 0.51439 0.38143 0.0
C1327 C 0.14325 0.50204 0.4172 0.0
C1328 C 0.12568 0.54333 0.36599 0.0
C1329 C 1.01754 0.5352 0.44884 0.0
C1330 C 0.99226 0.51859 0.48624 0.0
C1331 C 1.00896 0.55989 0.48513 0.0
C1332 C 1.02065 0.55704 0.46071 0.0
C1333 C 0.9951 0.54083 0.49796 0.0
C1334 C 1.0018 0.51651 0.46121 0.0
C1335 C 1.02828 0.53216 0.42294 0.0
H1336 H 0.13531 0.44154 0.23755 0.0
H1337 H 0.14288 0.44224 0.28375 0.0
H1338 H 0.14927 0.47662 0.21184 0.0
H1339 H 0.17982 0.51343 0.27834 0.0
H1340 H 1.01172 0.57667 0.49448 0.0
H1341 H 1.03197 0.57184 0.4511 0.0
H1342 H 0.98882 0.54328 0.51755 0.0
H1343 H 0.99922 0.49954 0.45216 0.0
C1344 C 0.94736 0.04811 0.61863 0.0
C1345 C 0.9942 0.02066 0.62206 0.0
C1346 C 0.95997 0.02524 0.61717 0.0
C1347 C 1.01532 0.03921 0.62901 0.0
C1348 C 0.96894 0.06687 0.62467 0.0
C1349 C 1.00276 0.06223 0.6303 0.0
N1350 N 0.91468 0.05225 0.6124 0.0
C1351 C 0.90296 0.0748 0.60983 0.0
C1352 C 0.95625 0.0899 0.62387 0.0
C1353 C 0.92324 0.0939 0.61605 0.0
Gd1354 Gd 0.81601 0.99256 0.6398 0.0
Gd1355 Gd 0.88305 0.01876 0.60224 0.0
N1356 N 0.93902 0.0076 0.61012 0.0
C1357 C 1.00643 0.99768 0.61915 0.0
C1358 C 0.95139 0.98553 0.60564 0.0
C1359 C 0.98499 0.98012 0.6106 0.0
H1360 H 0.93589 0.97203 0.59775 0.0
H1361 H 0.99444 0.96248 0.6074 0.0
H1362 H 0.7758 0.04658 0.63626 0.0
H1363 H 0.87848 0.07816 0.6019 0.0
H1364 H 0.72191 0.06163 0.6211 0.0
H1365 H 1.03257 0.99347 0.62271 0.0
H1366 H 0.04161 0.03607 0.63279 0.0
H1367 H 0.81788 0.93557 0.62403 0.0
H1368 H 0.97209 0.10476 0.62827 0.0
H1369 H 0.91364 0.11171 0.61422 0.0
H1370 H 0.66571 0.99381 0.58917 0.0
H1371 H 1.01965 0.07642 0.63503 0.0
H1372 H 0.72232 0.91941 0.59201 0.0
H1373 H 0.77872 0.90661 0.60625 0.0
N1374 N 0.78534 0.96478 0.61757 0.0
C1375 C 0.75404 0.97226 0.6105 0.0
C1376 C 0.79416 0.94156 0.61651 0.0
C1377 C 0.73981 0.93234 0.5991 0.0
C1378 C 0.77171 0.92505 0.60697 0.0
C1379 C 0.73061 0.95613 0.60081 0.0
H1380 H 0.68026 0.95192 0.58614 0.0
N1381 N 0.76807 0.0116 0.6232 0.0
C1382 C 0.74548 0.99624 0.61283 0.0
C1383 C 0.70526 0.02797 0.60768 0.0
C1384 C 0.71345 0.00413 0.60504 0.0
C1385 C 0.7596 0.03471 0.62651 0.0
C1386 C 0.72843 0.04329 0.61841 0.0
O1387 O 0.90503 0.00827 0.64251 0.0
O1388 O 0.86029 1.0008 0.66851 0.0
O1389 O 0.77233 0.99321 0.6619 0.0
O1390 O 0.80705 0.96418 0.66741 0.0
O1391 O 0.87701 0.97872 0.59823 0.0
O1392 O 0.85931 0.96787 0.6371 0.0
O1393 O 0.81256 0.98955 0.59526 0.0
O1394 O 0.82951 0.02549 0.58486 0.0
O1395 O 0.88276 0.0057 0.56456 0.0
O1396 O 0.90617 0.03931 0.57246 0.0
O1397 O 0.82874 0.02917 0.65432 0.0
O1398 O 0.84608 0.04533 0.61749 0.0
C1399 C 0.8933 0.00431 0.66571 0.0
C1400 C 0.8746 0.96281 0.61625 0.0
C1401 C 0.76703 0.97282 0.69938 0.0
C1402 C 0.74366 0.99378 0.73485 0.0
C1403 C 0.74641 0.95072 0.73489 0.0
C1404 C 0.76144 0.9512 0.71132 0.0
C1405 C 0.73753 0.97178 0.74665 0.0
C1406 C 0.75754 0.99385 0.71096 0.0
C1407 C 0.77838 0.97349 0.67352 0.0
C1408 C 0.6903 0.98799 0.59529 0.0
C1409 C 0.69868 0.96411 0.59343 0.0
H1410 H 0.68084 0.03465 0.60196 0.0
C1411 C 0.80969 0.00757 0.57929 0.0
C1412 C 0.83821 0.04767 0.64126 0.0
C1413 C 0.92809 0.01643 0.53916 0.0
C1414 C 0.94355 0.99212 0.50376 0.0
C1415 C 0.97601 0.02698 0.51391 0.0
C1416 C 0.95453 0.03182 0.5339 0.0
C1417 C 0.97006 0.00753 0.49844 0.0
C1418 C 0.92434 0.99595 0.52508 0.0
C1419 C 0.90076 0.023 0.55591 0.0
H1420 H 0.74215 0.93403 0.74426 0.0
H1421 H 0.76805 0.9348 0.70223 0.0
H1422 H 0.72759 0.97066 0.7655 0.0
H1423 H 0.76231 0.01067 0.7019 0.0
H1424 H 0.996 0.03906 0.50951 0.0
H1425 H 0.95783 0.04788 0.54454 0.0
H1426 H 0.98482 0.00536 0.48161 0.0
H1427 H 0.90411 0.98394 0.52922 0.0
C1428 C 0.377 0.21044 0.62295 0.0
C1429 C 0.33101 0.23845 0.62704 0.0
C1430 C 0.36465 0.2334 0.6211 0.0
C1431 C 0.31014 0.22028 0.63537 0.0
C1432 C 0.35575 0.19209 0.63079 0.0
C1433 C 0.32249 0.1972 0.63732 0.0
N1434 N 0.40912 0.20588 0.6159 0.0
C1435 C 0.42025 0.18314 0.6142 0.0
C1436 C 0.36819 0.16899 0.63106 0.0
C1437 C 0.40044 0.16447 0.62239 0.0
Gd1438 Gd 0.50974 0.26328 0.63923 0.0
Gd1439 Gd 0.43963 0.23873 0.60174 0.0
N1440 N 0.38564 0.25082 0.61352 0.0
C1441 C 0.31923 0.26161 0.62422 0.0
C1442 C 0.37371 0.27314 0.60943 0.0
C1443 C 0.34061 0.27897 0.61516 0.0
H1444 H 0.38918 0.28637 0.60103 0.0
H1445 H 0.33148 0.29677 0.61215 0.0
H1446 H 0.55145 0.20994 0.6375 0.0
H1447 H 0.44367 0.17921 0.60527 0.0
H1448 H 0.60701 0.19591 0.62574 0.0
H1449 H 0.29352 0.26616 0.62853 0.0
H1450 H 0.28428 0.22386 0.64005 0.0
H1451 H 0.50672 0.32034 0.62128 0.0
H1452 H 0.35265 0.15443 0.63696 0.0
H1453 H 0.40971 0.14655 0.6213 0.0
H1454 H 0.66398 0.265 0.59805 0.0
H1455 H 0.30587 0.18331 0.6434 0.0
H1456 H 0.60416 0.33823 0.59531 0.0
H1457 H 0.54593 0.34982 0.60498 0.0
N1458 N 0.54109 0.29178 0.61842 0.0
C1459 C 0.57334 0.28502 0.6139 0.0
C1460 C 0.53129 0.31474 0.61568 0.0
C1461 C 0.58674 0.32504 0.60187 0.0
C1462 C 0.5538 0.33162 0.60707 0.0
C1463 C 0.59691 0.30156 0.60528 0.0
H1464 H 0.64807 0.30664 0.59333 0.0
N1465 N 0.55939 0.2453 0.62536 0.0
C1466 C 0.58245 0.26117 0.6168 0.0
C1467 C 0.62382 0.23006 0.61375 0.0
C1468 C 0.61527 0.25385 0.61089 0.0
C1469 C 0.56818 0.22223 0.62898 0.0
C1470 C 0.60024 0.21423 0.62285 0.0
O1471 O 0.42114 0.24789 0.64313 0.0
O1472 O 0.46671 0.25504 0.66876 0.0
O1473 O 0.55031 0.26189 0.66523 0.0
O1474 O 0.51847 0.29303 0.66444 0.0
O1475 O 0.45072 0.27785 0.59576 0.0
O1476 O 0.46552 0.28704 0.63553 0.0
O1477 O 0.51791 0.26513 0.59475 0.0
O1478 O 0.48954 0.23431 0.57836 0.0
O1479 O 0.41999 0.25369 0.56733 0.0
O1480 O 0.41779 0.2154 0.57358 0.0
O1481 O 0.49709 0.22619 0.65209 0.0
O1482 O 0.47938 0.21212 0.61434 0.0
C1483 C 0.43357 0.25154 0.6663 0.0
C1484 C 0.45227 0.29324 0.61405 0.0
C1485 C 0.55458 0.28678 0.69993 0.0
C1486 C 0.58168 0.2719 0.73771 0.0
C1487 C 0.55784 0.31162 0.73662 0.0
C1488 C 0.54752 0.3082 0.7118 0.0
C1489 C 0.57452 0.29356 0.74966 0.0
C1490 C 0.57289 0.26923 0.7126 0.0
C1491 C 0.54531 0.28302 0.6738 0.0
C1492 C 0.6387 0.27042 0.60255 0.0
C1493 C 0.62964 0.29416 0.59989 0.0
H1494 H 0.64873 0.2238 0.60927 0.0
C1495 C 0.51473 0.24952 0.57616 0.0
C1496 C 0.48827 0.20834 0.63794 0.0
C1497 C 0.39315 0.23085 0.53498 0.0
C1498 C 0.38388 0.24675 0.49308 0.0
C1499 C 0.36142 0.20846 0.50445 0.0
C1500 C 0.37564 0.21042 0.52849 0.0
C1501 C 0.3658 0.22642 0.48663 0.0
C1502 C 0.39588 0.24921 0.51764 0.0
C1503 C 0.40979 0.23327 0.55932 0.0
H1504 H 0.55196 0.32798 0.74603 0.0
H1505 H 0.53413 0.32219 0.70193 0.0
H1506 H 0.57983 0.29618 0.76946 0.0
H1507 H 0.57837 0.25253 0.70364 0.0
H1508 H 0.34795 0.19268 0.49936 0.0
H1509 H 0.37307 0.19608 0.54188 0.0
H1510 H 0.35636 0.22394 0.46766 0.0
H1511 H 0.40904 0.26512 0.52289 0.0
C1512 C 0.78148 0.31769 0.71343 0.0
C1513 C 0.81635 0.34356 0.68884 0.0
C1514 C 0.80961 0.32093 0.69891 0.0
C1515 C 0.79366 0.36219 0.69255 0.0
C1516 C 0.75876 0.33646 0.7175 0.0
C1517 C 0.76487 0.35863 0.70678 0.0
N1518 N 0.77657 0.2963 0.7241 0.0
C1519 C 0.74875 0.29218 0.7382 0.0
C1520 C 0.7306 0.33245 0.73235 0.0
C1521 C 0.72551 0.31014 0.74266 0.0
Gd1522 Gd 0.88647 0.23961 0.75282 0.0
Gd1523 Gd 0.8147 0.26587 0.71525 0.0
N1524 N 0.83146 0.30256 0.69614 0.0
C1525 C 0.84635 0.34716 0.67622 0.0
C1526 C 0.86189 0.30686 0.68525 0.0
C1527 C 0.86942 0.32883 0.67481 0.0
H1528 H 0.88186 0.29433 0.68554 0.0
H1529 H 0.89355 0.33175 0.66625 0.0
H1530 H 0.83834 0.21114 0.7971 0.0
H1531 H 0.7438 0.27482 0.74549 0.0
H1532 H 0.83018 0.17126 0.81264 0.0
H1533 H 0.85254 0.36427 0.66846 0.0
H1534 H 0.79848 0.37956 0.68487 0.0
H1535 H 0.96201 0.23754 0.72561 0.0
H1536 H 0.71258 0.34638 0.73584 0.0
H1537 H 0.70354 0.30669 0.75386 0.0
H1538 H 0.91241 0.12511 0.77008 0.0
H1539 H 0.74772 0.37323 0.7097 0.0
H1540 H 0.99244 0.16543 0.71966 0.0
H1541 H 1.00235 0.20759 0.71077 0.0
N1542 N 0.92751 0.21243 0.73957 0.0
C1543 C 0.92303 0.18962 0.74655 0.0
C1544 C 0.95651 0.21906 0.7281 0.0
C1545 C 0.97413 0.17846 0.72541 0.0
C1546 C 0.97978 0.20221 0.72029 0.0
C1547 C 0.94605 0.17195 0.73933 0.0
H1548 H 0.95863 0.13481 0.74174 0.0
N1549 N 0.87709 0.202 0.77124 0.0
C1550 C 0.89729 0.18427 0.76298 0.0
C1551 C 0.86875 0.15624 0.78964 0.0
C1552 C 0.89356 0.16094 0.77196 0.0
C1553 C 0.85386 0.1975 0.78949 0.0
C1554 C 0.84906 0.17464 0.7986 0.0
O1555 O 0.83812 0.28769 0.74572 0.0
O1556 O 0.88909 0.27575 0.73472 0.0
O1557 O 0.90064 0.26526 0.78051 0.0
O1558 O 0.93349 0.23539 0.77367 0.0
O1559 O 0.85882 0.25719 0.6859 0.0
O1560 O 0.90442 0.24561 0.7107 0.0
O1561 O 0.84377 0.21586 0.74087 0.0
O1562 O 0.83469 0.23063 0.70212 0.0
O1563 O 0.77523 0.27056 0.68775 0.0
O1564 O 0.77214 0.24234 0.71579 0.0
O1565 O 0.84279 0.24896 0.78151 0.0
O1566 O 0.79658 0.25539 0.75615 0.0
C1567 C 0.86975 0.29256 0.74331 0.0
C1568 C 0.89178 0.25115 0.68786 0.0
C1569 C 0.94679 0.25993 0.80867 0.0
C1570 C 0.94864 0.28015 0.84873 0.0
C1571 C 0.99717 0.25797 0.83438 0.0
C1572 C 0.97976 0.25191 0.8125 0.0
C1573 C 0.98167 0.27186 0.85256 0.0
C1574 C 0.93176 0.27443 0.82647 0.0
C1575 C 0.92972 0.25545 0.78483 0.0
C1576 C 0.91515 0.1431 0.76353 0.0
C1577 C 0.94139 0.14861 0.74731 0.0
H1578 H 0.86506 0.13856 0.79689 0.0
C1579 C 0.83767 0.21225 0.71694 0.0
C1580 C 0.80946 0.25206 0.77925 0.0
C1581 C 0.74362 0.23687 0.67723 0.0
C1582 C 0.73708 0.2259 0.63358 0.0
C1583 C 0.70128 0.2085 0.66496 0.0
C1584 C 0.71724 0.22179 0.68363 0.0
C1585 C 0.71111 0.21059 0.63983 0.0
C1586 C 0.75383 0.23839 0.65229 0.0
C1587 C 0.75833 0.25246 0.69607 0.0
H1588 H 1.02258 0.25171 0.83735 0.0
H1589 H 0.99217 0.24129 0.79843 0.0
H1590 H 0.99523 0.27551 0.86983 0.0
H1591 H 0.90679 0.28137 0.82297 0.0
H1592 H 0.68082 0.19701 0.66989 0.0
H1593 H 0.7087 0.22062 0.7029 0.0
H1594 H 0.6981 0.2008 0.62534 0.0
H1595 H 0.77408 0.25006 0.64707 0.0
C1596 C 0.37531 0.04716 0.73761 0.0
C1597 C 0.32755 0.02125 0.74217 0.0
C1598 C 0.36237 0.02517 0.74352 0.0
C1599 C 0.30622 0.03923 0.73321 0.0
C1600 C 0.35368 0.06561 0.72982 0.0
C1601 C 0.31926 0.06133 0.72693 0.0
N1602 N 0.40859 0.05098 0.74133 0.0
C1603 C 0.42115 0.0732 0.73982 0.0
C1604 C 0.36708 0.08808 0.72619 0.0
C1605 C 0.40084 0.09198 0.7317 0.0
Gd1606 Gd 0.50819 0.98611 0.71908 0.0
Gd1607 Gd 0.44062 0.01741 0.75179 0.0
N1608 N 0.3835 0.00822 0.75247 0.0
C1609 C 0.31507 0.99972 0.75089 0.0
C1610 C 0.37124 0.98796 0.7628 0.0
C1611 C 0.33699 0.98319 0.76172 0.0
H1612 H 0.38787 0.97538 0.77192 0.0
H1613 H 0.3275 0.96688 0.76942 0.0
H1614 H 0.55066 0.04013 0.71136 0.0
H1615 H 0.44648 0.07665 0.74557 0.0
H1616 H 0.6044 0.05616 0.72269 0.0
H1617 H 0.28848 0.99606 0.75023 0.0
H1618 H 0.27946 0.0365 0.7319 0.0
H1619 H 0.51595 0.92915 0.73021 0.0
H1620 H 0.3513 0.10272 0.72022 0.0
H1621 H 0.41111 0.10951 0.73011 0.0
H1622 H 0.66786 0.98991 0.7521 0.0
H1623 H 0.30232 0.07524 0.72077 0.0
H1624 H 0.61571 0.9149 0.75614 0.0
H1625 H 0.55905 0.90079 0.7451 0.0
N1626 N 0.54696 0.95898 0.73502 0.0
C1627 C 0.57803 0.96721 0.74038 0.0
C1628 C 0.54005 0.93551 0.73636 0.0
C1629 C 0.59653 0.92747 0.75039 0.0
C1630 C 0.56459 0.91942 0.74426 0.0
C1631 C 0.60369 0.95151 0.74825 0.0
H1632 H 0.65605 0.94826 0.75862 0.0
N1633 N 0.56012 0.00564 0.72646 0.0
C1634 C 0.58465 0.99113 0.73637 0.0
C1635 C 0.62399 0.02334 0.73695 0.0
C1636 C 0.61727 0.99957 0.74122 0.0
C1637 C 0.56764 0.0286 0.72098 0.0
C1638 C 0.59908 0.03786 0.72679 0.0
O1639 O 0.42255 0.01582 0.70969 0.0
O1640 O 0.45977 0.98947 0.69197 0.0
O1641 O 0.54576 0.97188 0.69557 0.0
O1642 O 0.49523 0.95844 0.69211 0.0
O1643 O 0.4307 0.97956 0.7391 0.0
O1644 O 0.48097 0.96464 0.74781 0.0
O1645 O 0.51726 0.98522 0.76249 0.0
O1646 O 0.49364 0.02005 0.77287 0.0
O1647 O 0.44255 1.00121 0.78832 0.0
O1648 O 0.42284 0.03738 0.7834 0.0
O1649 O 0.49798 0.02325 0.70237 0.0
O1650 O 0.48011 0.04185 0.73765 0.0
C1651 C 0.43122 0.00232 0.69026 0.0
C1652 C 0.4491 0.96135 0.74544 0.0
C1653 C 0.53115 0.95899 0.65691 0.0
C1654 C 0.55616 0.98251 0.62427 0.0
C1655 C 0.5531 0.93972 0.62023 0.0
C1656 C 0.53766 0.93834 0.64358 0.0
C1657 C 0.56285 0.96157 0.61072 0.0
C1658 C 0.53896 0.98095 0.64671 0.0
C1659 C 0.52582 0.95781 0.68364 0.0
C1660 C 0.6426 0.98393 0.74934 0.0
C1661 C 0.6359 0.96006 0.75285 0.0
H1662 H 0.6486 0.03049 0.74074 0.0
C1663 C 0.51599 0.00301 0.77844 0.0
C1664 C 0.48935 0.04285 0.71413 0.0
C1665 C 0.40096 0.01409 0.81647 0.0
C1666 C 0.38478 0.99074 0.85264 0.0
C1667 C 0.35193 0.02528 0.84027 0.0
C1668 C 0.37385 0.0295 0.82043 0.0
C1669 C 0.35766 0.00623 0.85663 0.0
C1670 C 0.40524 0.99434 0.83189 0.0
C1671 C 0.42757 0.01942 0.79868 0.0
H1672 H 0.5583 0.92382 0.60977 0.0
H1673 H 0.53238 0.92125 0.65176 0.0
H1674 H 0.57471 0.96194 0.59249 0.0
H1675 H 0.53359 0.99692 0.65717 0.0
H1676 H 0.3314 0.03738 0.84365 0.0
H1677 H 0.37011 0.04502 0.80872 0.0
H1678 H 0.34199 0.00434 0.87302 0.0
H1679 H 0.42613 0.98246 0.8287 0.0
C1680 C 0.32031 0.03403 0.49452 0.0
C1681 C 0.36234 0.00337 0.50194 0.0
C1682 C 0.32988 0.0101 0.49396 0.0
C1683 C 0.385 0.02058 0.51009 0.0
C1684 C 0.34311 0.05119 0.50291 0.0
C1685 C 0.37552 0.04435 0.51045 0.0
N1686 N 0.28868 0.04044 0.48703 0.0
C1687 C 0.27879 0.06348 0.48675 0.0
C1688 C 0.33282 0.07483 0.50323 0.0
C1689 C 0.30052 0.08097 0.49518 0.0
Gd1690 Gd 0.19108 0.98474 0.50394 0.0
Gd1691 Gd 0.25954 0.01055 0.46685 0.0
N1692 N 0.3077 0.9936 0.48527 0.0
C1693 C 0.3714 0.97953 0.50114 0.0
C1694 C 0.31676 0.97041 0.48406 0.0
C1695 C 0.34849 0.96302 0.49228 0.0
H1696 H 0.30049 0.95757 0.47589 0.0
H1697 H 0.35558 0.94463 0.49114 0.0
H1698 H 0.14069 0.03216 0.50945 0.0
H1699 H 0.25482 0.06861 0.47894 0.0
H1700 H 0.08271 0.0435 0.49973 0.0
H1701 H 0.3962 0.97373 0.50699 0.0
H1702 H 0.41002 0.0157 0.51621 0.0
H1703 H 0.19391 0.92537 0.49866 0.0
H1704 H 0.34976 0.08851 0.50939 0.0
H1705 H 0.29266 0.09926 0.49484 0.0
H1706 H 1.03337 0.97277 0.46863 0.0
H1707 H 0.39348 0.05735 0.51667 0.0
H1708 H 0.10002 0.90236 0.46929 0.0
H1709 H 0.15806 0.8935 0.48311 0.0
N1710 N 0.159 0.95263 0.48984 0.0
C1711 C 0.12648 0.95769 0.48383 0.0
C1712 C 0.16988 0.92977 0.4906 0.0
C1713 C 0.11628 0.91659 0.47505 0.0
C1714 C 0.14907 0.91153 0.48267 0.0
C1715 C 0.10435 0.93979 0.4761 0.0
H1716 H 0.05354 0.93197 0.46428 0.0
N1717 N 0.13631 0.99753 0.49466 0.0
C1718 C 0.11468 0.98065 0.48671 0.0
C1719 C 0.06953 0.00925 0.48575 0.0
C1720 C 0.08082 0.98621 0.48165 0.0
C1721 C 0.1248 0.01956 0.50034 0.0
C1722 C 0.09152 0.0259 0.4955 0.0
O1723 O 0.26441 0.01376 0.51151 0.0
O1724 O 0.24281 0.9796 0.52498 0.0
O1725 O 0.17644 0.9985 0.53949 0.0
O1726 O 0.17051 0.96062 0.53214 0.0
O1727 O 0.24724 0.97354 0.45373 0.0
O1728 O 0.23014 0.95842 0.49108 0.0
O1729 O 0.17077 0.99412 0.46301 0.0
O1730 O 0.2153 0.00339 0.43757 0.0
O1731 O 0.30305 0.00722 0.44478 0.0
O1732 O 0.27086 0.03758 0.43827 0.0
O1733 O 0.20057 0.02429 0.50872 0.0
O1734 O 0.21579 0.03489 0.46927 0.0
C1735 C 0.26472 0.99673 0.52889 0.0
C1736 C 0.23856 0.95535 0.4675 0.0
C1737 C 0.15057 0.97579 0.572 0.0
C1738 C 0.13205 0.99524 0.60977 0.0
C1739 C 0.12941 0.95255 0.60664 0.0
C1740 C 0.14297 0.95377 0.58251 0.0
C1741 C 0.12432 0.97318 0.62043 0.0
C1742 C 0.14378 0.99631 0.58527 0.0
C1743 C 0.16537 0.97816 0.54724 0.0
C1744 C 0.0592 0.96862 0.47304 0.0
C1745 C 0.07083 0.94545 0.47038 0.0
H1746 H 0.04374 0.01422 0.48206 0.0
C1747 C 0.18244 0.99898 0.44005 0.0
C1748 C 0.20121 0.03997 0.49039 0.0
C1749 C 0.31039 0.02649 0.40689 0.0
C1750 C 0.33059 0.00358 0.3717 0.0
C1751 C 0.33689 0.04642 0.37223 0.0
C1752 C 0.32099 0.04733 0.39542 0.0
C1753 C 0.34169 0.0248 0.36037 0.0
C1754 C 0.3157 0.0048 0.39523 0.0
C1755 C 0.29874 0.02689 0.43262 0.0
H1756 H 0.12378 0.93558 0.61494 0.0
H1757 H 0.14767 0.93768 0.57223 0.0
H1758 H 0.11573 0.97178 0.63966 0.0
H1759 H 0.14889 0.01338 0.57689 0.0
H1760 H 0.34512 0.06251 0.36325 0.0
H1761 H 0.31774 0.06415 0.40468 0.0
H1762 H 0.35258 0.02511 0.3418 0.0
H1763 H 0.30729 0.98868 0.40417 0.0
C1764 C 0.50561 0.71407 0.49116 0.0
C1765 C 0.46299 0.7445 0.49682 0.0
C1766 C 0.4958 0.73794 0.49003 0.0
C1767 C 0.44017 0.72716 0.5043 0.0
C1768 C 0.48276 0.6968 0.49916 0.0
C1769 C 0.45 0.70345 0.50547 0.0
N1770 N 0.53775 0.70794 0.48527 0.0
C1771 C 0.54805 0.68499 0.48605 0.0
C1772 C 0.49355 0.6733 0.50074 0.0
C1773 C 0.52631 0.66739 0.49419 0.0
Gd1774 Gd 0.63753 0.7652 0.50331 0.0
Gd1775 Gd 0.56784 0.73823 0.46633 0.0
N1776 N 0.51845 0.75462 0.48263 0.0
C1777 C 0.45394 0.76834 0.49583 0.0
C1778 C 0.50946 0.77783 0.48136 0.0
C1779 C 0.47727 0.78503 0.48815 0.0
H1780 H 0.5263 0.79088 0.47437 0.0
H1781 H 0.47023 0.80345 0.48698 0.0
H1782 H 0.68468 0.71502 0.50685 0.0
H1783 H 0.57241 0.67999 0.47927 0.0
H1784 H 0.74086 0.7018 0.49561 0.0
H1785 H 0.42895 0.77404 0.50083 0.0
H1786 H 0.41481 0.73191 0.50936 0.0
H1787 H 0.63659 0.82392 0.49314 0.0
H1788 H 0.47669 0.65955 0.5068 0.0
H1789 H 0.53458 0.6492 0.4948 0.0
H1790 H 0.79453 0.77177 0.46655 0.0
H1791 H 0.43207 0.69037 0.51147 0.0
H1792 H 0.73165 0.8437 0.46442 0.0
H1793 H 0.67403 0.85436 0.47679 0.0
N1794 N 0.67024 0.79559 0.48647 0.0
C1795 C 0.70254 0.78952 0.48125 0.0
C1796 C 0.66042 0.81867 0.48578 0.0
C1797 C 0.71472 0.83006 0.47063 0.0
C1798 C 0.68215 0.83613 0.47738 0.0
C1799 C 0.72547 0.80662 0.4729 0.0
H1800 H 0.77646 0.81292 0.46114 0.0
N1801 N 0.69042 0.74979 0.49253 0.0
C1802 C 0.71298 0.76613 0.48455 0.0
C1803 C 0.75606 0.73602 0.48257 0.0
C1804 C 0.74631 0.75954 0.47919 0.0
C1805 C 0.70063 0.72718 0.49738 0.0
C1806 C 0.73318 0.71983 0.49192 0.0
O1807 O 0.55866 0.73699 0.51058 0.0
O1808 O 0.58863 0.76663 0.52827 0.0
O1809 O 0.67062 0.75792 0.53448 0.0
O1810 O 0.64844 0.79264 0.53056 0.0
O1811 O 0.57925 0.77555 0.45277 0.0
O1812 O 0.59813 0.79136 0.48949 0.0
O1813 O 0.65403 0.75946 0.46072 0.0
O1814 O 0.61184 0.74295 0.43696 0.0
O1815 O 0.52613 0.74138 0.44198 0.0
O1816 O 0.55757 0.71019 0.43879 0.0
O1817 O 0.62514 0.72672 0.51273 0.0
O1818 O 0.61199 0.71471 0.4733 0.0
C1819 C 0.56267 0.75199 0.52962 0.0
C1820 C 0.58818 0.79403 0.46599 0.0
C1821 C 0.66433 0.78001 0.5714 0.0
C1822 C 0.66861 0.76061 0.61189 0.0
C1823 C 0.66492 0.80322 0.60958 0.0
C1824 C 0.66343 0.80199 0.58335 0.0
C1825 C 0.66794 0.78258 0.62388 0.0
C1826 C 0.66613 0.75933 0.58585 0.0
C1827 C 0.66754 0.77882 0.54409 0.0
C1828 C 0.7689 0.77656 0.47066 0.0
C1829 C 0.75856 0.79999 0.46754 0.0
H1830 H 0.78141 0.73031 0.47859 0.0
C1831 C 0.64323 0.75119 0.4385 0.0
C1832 C 0.62242 0.70978 0.49604 0.0
C1833 C 0.51774 0.71926 0.40586 0.0
C1834 C 0.49107 0.73841 0.36997 0.0
C1835 C 0.49985 0.69574 0.37058 0.0
C1836 C 0.51502 0.69731 0.39423 0.0
C1837 C 0.48803 0.71607 0.35842 0.0
C1838 C 0.50479 0.73946 0.39404 0.0
C1839 C 0.53019 0.72097 0.43152 0.0
H1840 H 0.66441 0.82017 0.6188 0.0
H1841 H 0.6624 0.81816 0.57241 0.0
H1842 H 0.66964 0.7837 0.64421 0.0
H1843 H 0.66704 0.74217 0.57698 0.0
H1844 H 0.49788 0.67882 0.36141 0.0
H1845 H 0.52412 0.68145 0.40356 0.0
H1846 H 0.47831 0.71424 0.33945 0.0
H1847 H 0.50686 0.75654 0.40294 0.0
C1848 C 0.15019 0.81376 0.35993 0.0
C1849 C 0.18076 0.84541 0.33986 0.0
C1850 C 0.17811 0.82149 0.34702 0.0
C1851 C 0.15598 0.86158 0.34714 0.0
C1852 C 0.12435 0.82976 0.36606 0.0
C1853 C 0.12785 0.85377 0.36022 0.0
N1854 N 0.1469 0.79033 0.36451 0.0
C1855 C 0.11747 0.78157 0.37351 0.0
C1856 C 0.09504 0.82101 0.37681 0.0
C1857 C 0.0914 0.79677 0.3802 0.0
Gd1858 Gd 0.26249 0.73721 0.39162 0.0
Gd1859 Gd 0.19226 0.76612 0.353 0.0
N1860 N 0.2014 0.80538 0.33984 0.0
C1861 C 0.20751 0.85225 0.32469 0.0
C1862 C 0.22646 0.81181 0.32376 0.0
C1863 C 0.23014 0.83529 0.3163 0.0
H1864 H 0.24434 0.79912 0.31705 0.0
H1865 H 0.2505 0.84029 0.3041 0.0
H1866 H 0.23437 0.72057 0.45081 0.0
H1867 H 0.11407 0.76276 0.37544 0.0
H1868 H 0.21601 0.68416 0.47128 0.0
H1869 H 0.21035 0.87042 0.31878 0.0
H1870 H 0.15779 0.88002 0.342 0.0
H1871 H 0.32763 0.72131 0.35653 0.0
H1872 H 0.07461 0.83273 0.38168 0.0
H1873 H 0.06836 0.78976 0.38765 0.0
H1874 H 0.25661 0.62285 0.4179 0.0
H1875 H 0.10837 0.86633 0.36495 0.0
H1876 H 0.33244 0.64628 0.35331 0.0
H1877 H 0.3532 0.68526 0.3397 0.0
N1878 N 0.29031 0.70329 0.37726 0.0
C1879 C 0.2808 0.68228 0.38679 0.0
C1880 C 0.3171 0.70455 0.36152 0.0
C1881 C 0.32047 0.66215 0.36017 0.0
C1882 C 0.33221 0.68408 0.35239 0.0
C1883 C 0.29503 0.66103 0.37809 0.0
H1884 H 0.2952 0.62303 0.38204 0.0
N1885 N 0.25114 0.70354 0.4173 0.0
C1886 C 0.25998 0.68237 0.40733 0.0
C1887 C 0.23411 0.66168 0.44185 0.0
C1888 C 0.25172 0.66091 0.41927 0.0
C1889 C 0.23758 0.70418 0.4409 0.0
C1890 C 0.22781 0.68341 0.45303 0.0
O1891 O 0.23534 0.78778 0.36822 0.0
O1892 O 0.24233 0.77177 0.40667 0.0
O1893 O 0.30509 0.7315 0.41625 0.0
O1894 O 0.30423 0.76141 0.39036 0.0
O1895 O 0.23761 0.75851 0.32579 0.0
O1896 O 0.282 0.74779 0.35124 0.0
O1897 O 0.23605 0.71764 0.36045 0.0
O1898 O 0.18432 0.72985 0.3698 0.0
O1899 O 0.18894 0.74387 0.32011 0.0
O1900 O 0.15088 0.77075 0.32672 0.0
O1901 O 0.21497 0.74422 0.41836 0.0
O1902 O 0.17069 0.7583 0.3939 0.0
C1903 C 0.23951 0.79064 0.3925 0.0
C1904 C 0.27015 0.75324 0.32832 0.0
C1905 C 0.33453 0.76553 0.42809 0.0
C1906 C 0.33517 0.77831 0.47151 0.0
C1907 C 0.37939 0.7904 0.44335 0.0
C1908 C 0.36425 0.77786 0.42377 0.0
C1909 C 0.36521 0.79034 0.46733 0.0
C1910 C 0.31961 0.76642 0.45168 0.0
C1911 C 0.3203 0.75053 0.40854 0.0
C1912 C 0.26307 0.63949 0.40916 0.0
C1913 C 0.28498 0.63956 0.38872 0.0
H1914 H 0.22713 0.64562 0.45154 0.0
C1915 C 0.2045 0.71268 0.36356 0.0
C1916 C 0.18244 0.75096 0.41645 0.0
C1917 C 0.13523 0.73723 0.30307 0.0
C1918 C 0.11726 0.71255 0.26828 0.0
C1919 C 0.08026 0.71941 0.30363 0.0
C1920 C 0.10458 0.73349 0.31511 0.0
C1921 C 0.08637 0.70914 0.28017 0.0
C1922 C 0.14148 0.72657 0.28 0.0
C1923 C 0.16065 0.75334 0.31268 0.0
H1924 H 0.4026 0.79963 0.44012 0.0
H1925 H 0.37604 0.77736 0.40548 0.0
H1926 H 0.37781 0.79933 0.48261 0.0
H1927 H 0.29689 0.75655 0.45503 0.0
H1928 H 0.05639 0.71681 0.3127 0.0
H1929 H 0.09925 0.74171 0.333 0.0
H1930 H 0.06697 0.69879 0.27126 0.0
H1931 H 0.16485 0.73028 0.27052 0.0
C1932 C 0.49787 0.03341 0.36339 0.0
C1933 C 0.45989 1.00032 0.36339 0.0
C1934 C 0.49193 0.00964 0.36861 0.0
C1935 C 0.43454 0.0149 0.35323 0.0
C1936 C 0.47195 0.04827 0.35422 0.0
C1937 C 0.44039 0.03882 0.34894 0.0
N1938 N 0.52824 0.04249 0.36936 0.0
C1939 C 0.53417 0.06608 0.36746 0.0
C1940 C 0.47807 0.07245 0.35167 0.0
C1941 C 0.50928 0.0814 0.3585 0.0
Gd1942 Gd 0.63802 0.98647 0.35704 0.0
Gd1943 Gd 0.56755 0.01682 0.38719 0.0
N1944 N 0.51628 0.99628 0.38044 0.0
C1945 C 0.4536 0.97685 0.36953 0.0
C1946 C 0.50877 0.97392 0.38832 0.0
C1947 C 0.47804 0.96369 0.3822 0.0
H1948 H 0.52513 0.9638 0.40024 0.0
H1949 H 0.4728 0.94581 0.38808 0.0
H1950 H 0.69797 0.02669 0.34995 0.0
H1951 H 0.5577 0.07312 0.37401 0.0
H1952 H 0.75782 0.03128 0.36006 0.0
H1953 H 0.42945 0.96904 0.36557 0.0
H1954 H 0.40989 0.00799 0.34946 0.0
H1955 H 0.62593 0.92763 0.35246 0.0
H1956 H 0.45859 0.08444 0.3451 0.0
H1957 H 0.51398 0.10014 0.35734 0.0
H1958 H 0.79147 0.95519 0.39131 0.0
H1959 H 0.42012 0.04996 0.34202 0.0
H1960 H 0.71201 0.89277 0.38396 0.0
H1961 H 0.65466 0.89103 0.36608 0.0
N1962 N 0.66425 0.95005 0.36613 0.0
C1963 C 0.69667 0.95127 0.37423 0.0
C1964 C 0.64989 0.92871 0.36185 0.0
C1965 C 0.69893 0.90895 0.37898 0.0
C1966 C 0.66654 0.9079 0.36891 0.0
C1967 C 0.71486 0.93075 0.38092 0.0
H1968 H 0.76304 0.91693 0.39336 0.0
N1969 N 0.6952 0.99192 0.36505 0.0
C1970 C 0.71275 0.97285 0.37336 0.0
C1971 C 0.76337 0.99597 0.37475 0.0
C1972 C 0.7473 0.97444 0.3788 0.0
C1973 C 0.71124 0.01238 0.35918 0.0
C1974 C 0.74536 0.0149 0.3644 0.0
O1975 O 0.56118 0.01743 0.34341 0.0
O1976 O 0.58699 0.9832 0.33292 0.0
O1977 O 0.64363 0.00681 0.3229 0.0
O1978 O 0.66607 0.97131 0.32706 0.0
O1979 O 0.57865 0.97972 0.40345 0.0
O1980 O 0.59651 0.96203 0.36778 0.0
O1981 O 0.65397 0.98919 0.39918 0.0
O1982 O 0.61378 0.0134 0.4166 0.0
O1983 O 0.52932 0.03211 0.40949 0.0
O1984 O 0.58015 0.04492 0.41363 0.0
O1985 O 0.64492 0.02412 0.37119 0.0
O1986 O 0.59569 0.03812 0.3589 0.0
C1987 C 0.56366 0.99972 0.32737 0.0
C1988 C 0.58655 0.96033 0.39109 0.0
C1989 C 0.65471 0.98503 0.28631 0.0
C1990 C 0.66494 0.99846 0.24429 0.0
C1991 C 0.64375 0.95902 0.25127 0.0
C1992 C 0.64383 0.96315 0.27721 0.0
C1993 C 0.65471 0.97659 0.23473 0.0
C1994 C 0.66448 0.00261 0.26987 0.0
C1995 C 0.66082 0.98964 0.31259 0.0
C1996 C 0.76498 0.95428 0.38684 0.0
C1997 C 0.74876 0.93249 0.388 0.0
H1998 H 0.78991 0.99785 0.37849 0.0
C1999 C 0.64331 0.00169 0.41867 0.0
C2000 C 0.6271 0.04192 0.36298 0.0
C2001 C 0.54392 0.04437 0.44849 0.0
C2002 C 0.51929 0.02084 0.48128 0.0
C2003 C 0.52503 0.06338 0.48628 0.0
C2004 C 0.53927 0.06487 0.46248 0.0
C2005 C 0.51459 0.0416 0.49556 0.0
C2006 C 0.5354 0.0224 0.45839 0.0
C2007 C 0.54941 0.04584 0.42177 0.0
H2008 H 0.63572 0.94217 0.24406 0.0
H2009 H 0.63632 0.94927 0.29001 0.0
H2010 H 0.65484 0.97329 0.21466 0.0
H2011 H 0.67311 0.01941 0.27709 0.0
H2012 H 0.52138 0.07915 0.49731 0.0
H2013 H 0.5453 0.08196 0.45462 0.0
H2014 H 0.50376 0.04109 0.51415 0.0
H2015 H 0.53955 0.0065 0.44753 0.0
C2016 C 0.94746 0.54745 0.12136 0.0
C2017 C 0.99421 0.52008 0.12642 0.0
C2018 C 0.96015 0.52453 0.12081 0.0
C2019 C 1.01508 0.53879 0.13321 0.0
C2020 C 0.96863 0.5663 0.12777 0.0
C2021 C 1.00237 0.56182 0.1339 0.0
N2022 N 0.9148 0.55139 0.11487 0.0
C2023 C 0.90228 0.57381 0.11337 0.0
C2024 C 0.95546 0.58921 0.12738 0.0
C2025 C 0.92221 0.59298 0.12 0.0
Gd2026 Gd 0.81718 0.49055 0.14072 0.0
Gd2027 Gd 0.88431 0.5178 0.10352 0.0
N2028 N 0.93926 0.50663 0.1145 0.0
C2029 C 1.0065 0.49701 0.12451 0.0
C2030 C 0.95168 0.48443 0.11101 0.0
C2031 C 0.98519 0.47917 0.11643 0.0
H2032 H 0.93648 0.47083 0.10307 0.0
H2033 H 0.99473 0.46146 0.11384 0.0
H2034 H 0.77518 0.54374 0.13877 0.0
H2035 H 0.87722 0.5771 0.10638 0.0
H2036 H 0.71948 0.55758 0.12627 0.0
H2037 H 1.03258 0.49293 0.12846 0.0
H2038 H 0.0412 0.53568 0.13771 0.0
H2039 H 0.8222 0.43411 0.12092 0.0
H2040 H 0.97095 0.60414 0.13219 0.0
H2041 H 0.91206 0.61069 0.119 0.0
H2042 H 0.66382 0.48814 0.09957 0.0
H2043 H 1.01899 0.57609 0.13887 0.0
H2044 H 0.72508 0.41611 0.09344 0.0
H2045 H 0.78358 0.40478 0.10347 0.0
N2046 N 0.7874 0.4625 0.11799 0.0
C2047 C 0.75518 0.46918 0.11288 0.0
C2048 C 0.79766 0.43971 0.11486 0.0
C2049 C 0.74241 0.42932 0.10016 0.0
C2050 C 0.77546 0.42288 0.10562 0.0
C2051 C 0.73191 0.45262 0.1038 0.0
H2052 H 0.68027 0.44712 0.09273 0.0
N2053 N 0.76815 0.50872 0.12561 0.0
C2054 C 0.74555 0.49283 0.11641 0.0
C2055 C 0.70328 0.52348 0.11388 0.0
C2056 C 0.71249 0.49987 0.11074 0.0
C2057 C 0.75886 0.53158 0.12958 0.0
C2058 C 0.72664 0.53941 0.12317 0.0
O2059 O 0.90341 0.51329 0.1458 0.0
O2060 O 0.864 0.49266 0.16841 0.0
O2061 O 0.77989 0.49442 0.17 0.0
O2062 O 0.80295 0.46027 0.1627 0.0
O2063 O 0.87593 0.47806 0.09905 0.0
O2064 O 0.86199 0.46758 0.13859 0.0
O2065 O 0.81083 0.48915 0.09593 0.0
O2066 O 0.8324 0.52364 0.08314 0.0
O2067 O 0.89859 0.5015 0.06917 0.0
O2068 O 0.90425 0.53994 0.07323 0.0
O2069 O 0.83073 0.52738 0.15403 0.0
O2070 O 0.84357 0.54268 0.11589 0.0
C2071 C 0.89418 0.5029 0.16733 0.0
C2072 C 0.87585 0.46238 0.11733 0.0
C2073 C 0.76715 0.46244 0.19813 0.0
C2074 C 0.7368 0.4693 0.23668 0.0
C2075 C 0.76348 0.43122 0.22913 0.0
C2076 C 0.77564 0.43962 0.20634 0.0
C2077 C 0.74457 0.44597 0.24443 0.0
C2078 C 0.74541 0.47627 0.21229 0.0
C2079 C 0.77973 0.47179 0.17446 0.0
C2080 C 0.68932 0.48311 0.10267 0.0
C2081 C 0.6988 0.45967 0.09907 0.0
H2082 H 0.67803 0.52949 0.10958 0.0
C2083 C 0.81046 0.50658 0.07895 0.0
C2084 C 0.83764 0.54569 0.13984 0.0
C2085 C 0.92144 0.52196 1.03388 0.0
C2086 C 0.92986 0.50131 0.99482 0.0
C2087 C 0.95512 0.53965 1.00125 0.0
C2088 C 0.9409 0.54074 1.02518 0.0
C2089 C 0.94984 0.51991 0.98611 0.0
C2090 C 0.91573 0.50252 1.01855 0.0
C2091 C 0.9085 0.52136 0.05935 0.0
H2092 H 0.77025 0.41369 0.2356 0.0
H2093 H 0.79163 0.42831 0.19523 0.0
H2094 H 0.73868 0.43954 0.26307 0.0
H2095 H 0.73817 0.49363 0.20544 0.0
H2096 H 0.97024 0.55406 0.99447 0.0
H2097 H 0.94558 0.55591 1.03696 0.0
H2098 H 0.9606 0.5194 0.96747 0.0
H2099 H 0.90038 0.48805 1.02508 0.0
C2100 C 0.37131 0.71632 0.12535 0.0
C2101 C 0.32775 0.74646 0.12633 0.0
C2102 C 0.3609 0.73952 0.1209 0.0
C2103 C 0.30525 0.72991 0.13602 0.0
C2104 C 0.34832 0.69955 0.1344 0.0
C2105 C 0.31543 0.70652 0.1399 0.0
N2106 N 0.40342 0.70994 0.11999 0.0
C2107 C 0.41266 0.68675 0.12058 0.0
C2108 C 0.35872 0.67606 0.13693 0.0
C2109 C 0.39089 0.66958 0.1296 0.0
Gd2110 Gd 0.50921 0.76219 0.13938 0.0
Gd2111 Gd 0.43644 0.7396 0.10201 0.0
N2112 N 0.38325 0.75531 0.11141 0.0
C2113 C 0.31813 0.76987 0.1219 0.0
C2114 C 0.3733 0.77782 0.10584 0.0
C2115 C 0.34096 0.78556 0.1115 0.0
H2116 H 0.38956 0.78971 0.09616 0.0
H2117 H 0.33344 0.80353 0.10732 0.0
H2118 H 0.55057 0.70987 0.13644 0.0
H2119 H 0.43605 0.68117 0.11275 0.0
H2120 H 0.60679 0.69612 0.1243 0.0
H2121 H 0.29296 0.77589 0.12601 0.0
H2122 H 0.27977 0.73497 0.1403 0.0
H2123 H 0.5055 0.82021 0.12308 0.0
H2124 H 0.3417 0.66265 0.14359 0.0
H2125 H 0.39864 0.65127 0.1302 0.0
H2126 H 0.66309 0.76621 0.098 0.0
H2127 H 0.29751 0.69388 0.1469 0.0
H2128 H 0.60105 0.8385 0.09434 0.0
H2129 H 0.54333 0.84975 0.10573 0.0
N2130 N 0.53901 0.7914 0.11793 0.0
C2131 C 0.57139 0.78499 0.11295 0.0
C2132 C 0.52927 0.81445 0.11608 0.0
C2133 C 0.58394 0.82512 0.10092 0.0
C2134 C 0.55127 0.83151 0.10708 0.0
C2135 C 0.5945 0.80173 0.10406 0.0
H2136 H 0.64565 0.8075 0.09233 0.0
N2137 N 0.55926 0.74541 0.12553 0.0
C2138 C 0.58189 0.76159 0.11709 0.0
C2139 C 0.6234 0.73073 0.11346 0.0
C2140 C 0.61478 0.75458 0.11121 0.0
C2141 C 0.56802 0.72229 0.12875 0.0
C2142 C 0.60004 0.71454 0.1223 0.0
O2143 O 0.42004 0.74821 0.14389 0.0
O2144 O 0.46642 0.7547 0.16903 0.0
O2145 O 0.54899 0.75802 0.1653 0.0
O2146 O 0.52187 0.79127 0.16512 0.0
O2147 O 0.4483 0.77801 0.09351 0.0
O2148 O 0.46657 0.78745 0.13274 0.0
O2149 O 0.52359 0.74987 0.09813 0.0
O2150 O 0.47765 0.75121 0.07258 0.0
O2151 O 0.39929 0.73982 0.07242 0.0
O2152 O 0.43495 0.71099 0.07522 0.0
O2153 O 0.49398 0.72675 0.154 0.0
O2154 O 0.47615 0.71313 0.11616 0.0
C2155 C 0.43319 0.7517 0.16685 0.0
C2156 C 0.45311 0.79373 0.11119 0.0
C2157 C 0.55889 0.78199 0.19988 0.0
C2158 C 0.58422 0.76416 0.23703 0.0
C2159 C 0.57472 0.80669 0.2348 0.0
C2160 C 0.56069 0.80431 0.21084 0.0
C2161 C 0.58625 0.78681 0.24795 0.0
C2162 C 0.57178 0.76228 0.21267 0.0
C2163 C 0.54726 0.77925 0.1741 0.0
C2164 C 0.63761 0.77131 0.10239 0.0
C2165 C 0.62759 0.7948 0.09901 0.0
H2166 H 0.64776 0.72458 0.10779 0.0
C2167 C 0.51099 0.75062 0.07482 0.0
C2168 C 0.48458 0.70919 0.1399 0.0
C2169 C 0.41748 0.72299 1.03475 0.0
C2170 C 0.41183 0.74506 0.99597 0.0
C2171 C 0.44526 0.70927 0.99707 0.0
C2172 C 0.4378 0.70637 1.02251 0.0
C2173 C 0.43248 0.72867 0.9838 0.0
C2174 C 0.40405 0.74212 1.02117 0.0
C2175 C 0.41134 0.72103 0.06177 0.0
H2176 H 0.57592 0.82387 0.24348 0.0
H2177 H 0.55169 0.81982 0.2008 0.0
H2178 H 0.5949 0.78921 0.26713 0.0
H2179 H 0.57052 0.7449 0.20435 0.0
H2180 H 0.46115 0.6966 0.98771 0.0
H2181 H 0.44822 0.69137 1.03265 0.0
H2182 H 0.43863 0.73093 0.9641 0.0
H2183 H 0.38807 0.75505 1.03014 0.0
C2184 C 0.78941 0.81683 0.22327 0.0
C2185 C 0.82049 0.84213 0.19526 0.0
C2186 C 0.81277 0.81934 0.20434 0.0
C2187 C 0.80433 0.86197 0.20531 0.0
C2188 C 0.77175 0.8366 0.23242 0.0
C2189 C 0.77967 0.85919 0.22359 0.0
N2190 N 0.78295 0.79492 0.2321 0.0
C2191 C 0.75687 0.79122 0.24808 0.0
C2192 C 0.74605 0.83302 0.24974 0.0
C2193 C 0.7382 0.81015 0.25726 0.0
Gd2194 Gd 0.88839 0.74048 0.25263 0.0
Gd2195 Gd 0.81408 0.76343 0.21584 0.0
N2196 N 0.82712 0.7996 0.19437 0.0
C2197 C 0.84377 0.84438 0.17601 0.0
C2198 C 0.84783 0.80198 0.17403 0.0
C2199 C 0.85712 0.82421 0.16515 0.0
H2200 H 0.85721 0.78723 0.16371 0.0
H2201 H 0.87422 0.82575 0.14953 0.0
H2202 H 0.83861 0.71295 0.29675 0.0
H2203 H 0.74969 0.77362 0.25329 0.0
H2204 H 0.8324 0.67415 0.31522 0.0
H2205 H 0.85071 0.86155 0.16881 0.0
H2206 H 0.81007 0.87953 0.19856 0.0
H2207 H 0.96246 0.73767 0.22244 0.0
H2208 H 0.73156 0.8477 0.25688 0.0
H2209 H 0.71762 0.80706 0.26995 0.0
H2210 H 0.92192 0.62873 0.28087 0.0
H2211 H 0.76661 0.87458 0.23057 0.0
H2212 H 0.99854 0.66681 0.22568 0.0
H2213 H 1.00415 0.70779 0.21045 0.0
N2214 N 0.9311 0.71352 0.24164 0.0
C2215 C 0.92884 0.69151 0.25168 0.0
C2216 C 0.95845 0.71958 0.22772 0.0
C2217 C 0.97958 0.67977 0.23035 0.0
C2218 C 0.98272 0.70281 0.22157 0.0
C2219 C 0.9528 0.67395 0.24595 0.0
H2220 H 0.96785 0.63759 0.25199 0.0
N2221 N 0.88081 0.70405 0.27409 0.0
C2222 C 0.90331 0.68672 0.26854 0.0
C2223 C 0.87464 0.6594 0.29597 0.0
C2224 C 0.90065 0.66393 0.27927 0.0
C2225 C 0.8561 0.6997 0.29122 0.0
C2226 C 0.85244 0.6774 0.30207 0.0
O2227 O 0.83906 0.78585 0.24529 0.0
O2228 O 0.88906 0.77523 0.2318 0.0
O2229 O 0.9001 0.76693 0.28001 0.0
O2230 O 0.93723 0.74025 0.27123 0.0
O2231 O 0.85838 0.75403 0.18654 0.0
O2232 O 0.90584 0.74773 0.2111 0.0
O2233 O 0.85139 0.71289 0.23863 0.0
O2234 O 0.83398 0.72873 0.20126 0.0
O2235 O 0.77296 0.7707 0.19034 0.0
O2236 O 0.76975 0.74172 0.21718 0.0
O2237 O 0.84415 0.7509 0.28072 0.0
O2238 O 0.79811 0.74796 0.25513 0.0
C2239 C 0.86967 0.79182 0.24039 0.0
C2240 C 0.89214 0.75098 0.18825 0.0
C2241 C 0.947 0.76348 0.3075 0.0
C2242 C 0.94545 0.78143 0.34866 0.0
C2243 C 0.99712 0.76381 0.33359 0.0
C2244 C 0.98094 0.75771 0.31117 0.0
C2245 C 0.97945 0.77555 0.3524 0.0
C2246 C 0.92973 0.77566 0.32604 0.0
C2247 C 0.93084 0.75953 0.28323 0.0
C2248 C 0.92379 0.64629 0.2729 0.0
C2249 C 0.94984 0.6513 0.25637 0.0
H2250 H 0.87166 0.64211 0.30441 0.0
C2251 C 0.84162 0.71018 0.21508 0.0
C2252 C 0.81062 0.75002 0.27836 0.0
C2253 C 0.74036 0.73829 0.17931 0.0
C2254 C 0.74171 0.72651 0.13589 0.0
C2255 C 0.69198 0.71953 0.16067 0.0
C2256 C 0.70722 0.7306 0.18122 0.0
C2257 C 0.70908 0.71771 0.13787 0.0
C2258 C 0.75821 0.73439 0.15742 0.0
C2259 C 0.75528 0.75298 0.19858 0.0
H2260 H 1.02329 0.75934 0.33643 0.0
H2261 H 0.995 0.7489 0.29657 0.0
H2262 H 0.9921 0.77947 0.36999 0.0
H2263 H 0.90386 0.78088 0.32287 0.0
H2264 H 0.66637 0.71356 0.16199 0.0
H2265 H 0.69309 0.73358 0.19824 0.0
H2266 H 0.69641 0.71062 0.1216 0.0
H2267 H 0.78403 0.74013 0.15632 0.0
C2268 C 0.37271 0.5433 0.22954 0.0
C2269 C 0.32773 0.51515 0.22359 0.0
C2270 C 0.36123 0.52015 0.2302 0.0
C2271 C 0.3061 0.53353 0.21615 0.0
C2272 C 0.35081 0.56178 0.22221 0.0
C2273 C 0.31759 0.55674 0.21539 0.0
N2274 N 0.40489 0.54782 0.23669 0.0
C2275 C 0.41571 0.57053 0.23854 0.0
C2276 C 0.36266 0.58492 0.22251 0.0
C2277 C 0.39517 0.58932 0.23093 0.0
Gd2278 Gd 0.50702 0.48975 0.21446 0.0
Gd2279 Gd 0.43589 0.51492 0.25114 0.0
N2280 N 0.38279 0.50254 0.23732 0.0
C2281 C 0.31671 0.49185 0.22507 0.0
C2282 C 0.37161 0.47998 0.23984 0.0
C2283 C 0.3387 0.47423 0.23341 0.0
H2284 H 0.38726 0.4665 0.24793 0.0
H2285 H 0.33012 0.45629 0.23546 0.0
H2286 H 0.54525 0.54207 0.22785 0.0
H2287 H 0.43946 0.57436 0.24724 0.0
H2288 H 0.6019 0.55461 0.2393 0.0
H2289 H 0.29109 0.48736 0.22035 0.0
H2290 H 0.2803 0.52998 0.21114 0.0
H2291 H 0.50459 0.43077 0.22553 0.0
H2292 H 0.34657 0.59956 0.21704 0.0
H2293 H 0.40411 0.60723 0.23228 0.0
H2294 H 0.66252 0.48262 0.25227 0.0
H2295 H 0.30043 0.57074 0.20984 0.0
H2296 H 0.60309 0.40987 0.24841 0.0
H2297 H 0.54448 0.39965 0.23816 0.0
N2298 N 0.53879 0.45868 0.23136 0.0
C2299 C 0.57094 0.4648 0.23709 0.0
C2300 C 0.52921 0.43566 0.23164 0.0
C2301 C 0.58525 0.42375 0.24379 0.0
C2302 C 0.55214 0.4179 0.23817 0.0
C2303 C 0.59506 0.44737 0.2432 0.0
H2304 H 0.64721 0.44081 0.25267 0.0
N2305 N 0.5557 0.50549 0.23232 0.0
C2306 C 0.57969 0.48873 0.23728 0.0
C2307 C 0.6207 0.51922 0.24401 0.0
C2308 C 0.61278 0.49527 0.24326 0.0
C2309 C 0.56341 0.52886 0.2329 0.0
C2310 C 0.59587 0.53606 0.23902 0.0
O2311 O 0.4209 0.51218 0.208 0.0
O2312 O 0.45903 0.4882 0.18795 0.0
O2313 O 0.54024 0.50262 0.18597 0.0
O2314 O 0.52867 0.46483 0.18798 0.0
O2315 O 0.44714 0.47523 0.25632 0.0
O2316 O 0.46493 0.46446 0.21743 0.0
O2317 O 0.51761 0.48872 0.25854 0.0
O2318 O 0.48427 0.5165 0.27679 0.0
O2319 O 0.40669 0.50289 0.28252 0.0
O2320 O 0.42 0.53965 0.27964 0.0
O2321 O 0.49091 0.52645 0.20225 0.0
O2322 O 0.47604 0.54096 0.24011 0.0
C2323 C 0.42969 0.4999 0.18766 0.0
C2324 C 0.45009 0.45922 0.23847 0.0
C2325 C 0.57058 0.47714 0.15814 0.0
C2326 C 0.59557 0.49289 0.12051 0.0
C2327 C 0.59888 0.45073 0.12983 0.0
C2328 C 0.58029 0.45426 0.15157 0.0
C2329 C 0.60519 0.46973 0.11377 0.0
C2330 C 0.58211 0.49639 0.14435 0.0
C2331 C 0.54745 0.48132 0.17865 0.0
C2332 C 0.63696 0.4778 0.24827 0.0
C2333 C 0.62818 0.45398 0.24841 0.0
H2334 H 0.64593 0.52489 0.24842 0.0
C2335 C 0.51127 0.50258 0.27817 0.0
C2336 C 0.48409 0.54452 0.21651 0.0
C2337 C 0.41496 0.52323 0.32025 0.0
C2338 C 0.41434 0.50248 0.36002 0.0
C2339 C 0.44024 0.54091 0.35728 0.0
C2340 C 0.43202 0.54203 0.33168 0.0
C2341 C 0.43161 0.5211 0.37145 0.0
C2342 C 0.40567 0.50372 0.3347 0.0
C2343 C 0.40648 0.52338 0.29342 0.0
H2344 H 0.60592 0.43306 0.12436 0.0
H2345 H 0.57289 0.43921 0.16281 0.0
H2346 H 0.61497 0.46584 0.09531 0.0
H2347 H 0.57569 0.51412 0.15018 0.0
H2348 H 0.45333 0.55536 0.3661 0.0
H2349 H 0.43909 0.55746 0.32092 0.0
H2350 H 0.43803 0.52037 0.39131 0.0
H2351 H 0.39196 0.4893 0.32625 0.0
C2352 C 0.31682 0.53246 0.9966 0.0
C2353 C 0.35834 0.50124 1.00185 0.0
C2354 C 0.32642 0.50871 0.99356 0.0
C2355 C 0.37971 0.51742 1.01351 0.0
C2356 C 0.33918 0.54875 1.00733 0.0
C2357 C 0.37072 0.54109 1.01563 0.0
N2358 N 0.28536 0.53948 0.98953 0.0
C2359 C 0.27566 0.5625 0.9911 0.0
C2360 C 0.3291 0.5723 1.00962 0.0
C2361 C 0.29722 0.5792 1.00142 0.0
Gd2362 Gd 0.18847 0.4847 1.00356 0.0
Gd2363 Gd 0.25609 0.51143 0.96673 0.0
N2364 N 0.30486 0.49316 0.9824 0.0
C2365 C 0.36806 0.47782 0.99799 0.0
C2366 C 0.31476 0.47054 0.97774 0.0
C2367 C 0.34627 0.46248 0.98573 0.0
H2368 H 0.2995 0.45882 0.96689 0.0
H2369 H 0.35402 0.44455 0.98191 0.0
H2370 H 0.13636 0.53146 1.00596 0.0
H2371 H 0.25201 0.56827 0.98332 0.0
H2372 H 0.07803 0.54124 0.99554 0.0
H2373 H 0.39264 0.47155 1.00383 0.0
H2374 H 0.40323 0.51191 1.02131 0.0
H2375 H 0.19379 0.42536 1.00153 0.0
H2376 H 0.34585 0.58532 1.0175 0.0
H2377 H 0.28949 0.59747 1.00256 0.0
H2378 H 1.0316 0.46805 0.96803 0.0
H2379 H 0.3882 0.55327 1.02415 0.0
H2380 H 0.1014 0.39925 0.97221 0.0
H2381 H 0.15945 0.39212 0.98713 0.0
N2382 N 0.15764 0.45144 0.99137 0.0
C2383 C 0.12517 0.45562 0.98455 0.0
C2384 C 0.16952 0.42889 0.99329 0.0
C2385 C 0.1169 0.41402 0.97757 0.0
C2386 C 0.14969 0.40993 0.98587 0.0
C2387 C 0.10398 0.437 0.9774 0.0
H2388 H 0.05378 0.42767 0.96542 0.0
N2389 N 0.13334 0.49603 0.99325 0.0
C2390 C 0.11247 0.47844 0.98604 0.0
C2391 C 0.06619 0.50611 0.98342 0.0
C2392 C 0.07845 0.48312 0.98051 0.0
C2393 C 0.12097 0.51812 0.99765 0.0
C2394 C 0.0875 0.52361 0.99233 0.0
O2395 O 0.26004 0.51363 1.01143 0.0
O2396 O 0.24078 0.47842 1.02323 0.0
O2397 O 0.17692 0.50043 1.03858 0.0
O2398 O 0.16662 0.46268 1.03329 0.0
O2399 O 0.24422 0.47455 0.95297 0.0
O2400 O 0.22786 0.4588 0.99027 0.0
O2401 O 0.16817 0.49426 0.96276 0.0
O2402 O 0.21294 0.50295 0.9373 0.0
O2403 O 0.29877 0.51157 0.94343 0.0
O2404 O 0.26427 0.54109 0.94084 0.0
O2405 O 0.1967 0.52433 1.00866 0.0
O2406 O 0.21147 0.53463 0.9692 0.0
C2407 C 0.26191 0.49584 1.02782 0.0
C2408 C 0.23603 0.45611 0.96658 0.0
C2409 C 0.15174 0.48058 0.07326 0.0
C2410 C 0.14221 0.50215 0.11158 0.0
C2411 C 0.12029 0.46257 0.10694 0.0
C2412 C 0.13416 0.46128 0.08289 0.0
C2413 C 0.12417 0.483 0.1213 0.0
C2414 C 0.15563 0.5008 0.08768 0.0
C2415 C 0.16464 0.48101 1.04778 0.0
C2416 C 0.05766 0.46473 0.97263 0.0
C2417 C 0.07036 0.44175 0.97106 0.0
H2418 H 0.04017 0.51038 0.97946 0.0
C2419 C 0.18009 0.49872 0.9398 0.0
C2420 C 0.19765 0.54003 0.99045 0.0
C2421 C 0.30281 0.53482 0.90739 0.0
C2422 C 0.33032 0.51833 0.87103 0.0
C2423 C 0.30978 0.55898 0.87025 0.0
C2424 C 0.29805 0.5563 0.89471 0.0
C2425 C 0.32563 0.54015 0.85834 0.0
C2426 C 0.32 0.51633 0.8958 0.0
C2427 C 0.29252 0.53204 0.93338 0.0
H2428 H 0.10665 0.44774 0.11447 0.0
H2429 H 0.13076 0.44551 0.07179 0.0
H2430 H 0.11393 0.48361 0.14011 0.0
H2431 H 0.16917 0.51582 0.08033 0.0
H2432 H 0.30573 0.57543 0.86022 0.0
H2433 H 0.28546 0.57092 0.90372 0.0
H2434 H 0.33223 0.54237 0.83876 0.0
H2435 H 0.32352 0.49952 0.90532 0.0
C2436 C 0.50181 0.21931 0.99516 0.0
C2437 C 0.4624 0.2518 1.00005 0.0
C2438 C 0.49432 0.24346 0.99307 0.0
C2439 C 0.43799 0.23583 1.00818 0.0
C2440 C 0.47756 0.20341 1.00398 0.0
C2441 C 0.44553 0.21175 1.01011 0.0
N2442 N 0.53315 0.21152 0.9892 0.0
C2443 C 0.54149 0.18823 0.99101 0.0
C2444 C 0.48615 0.17951 1.00627 0.0
C2445 C 0.51827 0.17192 0.99984 0.0
Gd2446 Gd 0.63607 0.26329 1.00393 0.0
Gd2447 Gd 0.56498 0.23914 0.96751 0.0
N2448 N 0.51824 0.25869 0.98448 0.0
C2449 C 0.45581 0.27599 0.99863 0.0
C2450 C 0.5119 0.28233 0.98341 0.0
C2451 C 0.48074 0.2913 0.99056 0.0
H2452 H 0.53021 0.29452 0.97682 0.0
H2453 H 0.47579 0.31005 0.98949 0.0
H2454 H 0.68428 0.21455 0.99643 0.0
H2455 H 0.56538 0.18201 0.98448 0.0
H2456 H 0.74146 0.20447 0.98436 0.0
H2457 H 0.43164 0.28305 1.00391 0.0
H2458 H 0.41318 0.24196 1.01317 0.0
H2459 H 0.63455 0.32286 1.00961 0.0
H2460 H 0.4681 0.16675 1.01281 0.0
H2461 H 0.52489 0.15343 1.00108 0.0
H2462 H 0.79382 0.27909 0.97155 0.0
H2463 H 0.42642 0.19973 1.01655 0.0
H2464 H 0.73033 0.34884 0.988 0.0
H2465 H 0.67283 0.35609 1.00301 0.0
N2466 N 0.6693 0.29688 0.99689 0.0
C2467 C 0.70139 0.29244 0.98975 0.0
C2468 C 0.65936 0.31941 1.00243 0.0
C2469 C 0.71349 0.33414 0.99051 0.0
C2470 C 0.68108 0.33831 0.99898 0.0
C2471 C 0.72423 0.31102 0.9862 0.0
H2472 H 0.77508 0.32009 0.97629 0.0
N2473 N 0.68989 0.25145 0.99103 0.0
C2474 C 0.71211 0.26918 0.9871 0.0
C2475 C 0.75605 0.2406 0.97929 0.0
C2476 C 0.7457 0.26414 0.98081 0.0
C2477 C 0.70055 0.22851 0.99096 0.0
C2478 C 0.73343 0.22273 0.98464 0.0
O2479 O 0.56044 0.23548 1.01205 0.0
O2480 O 0.58474 0.26856 1.02576 0.0
O2481 O 0.6632 0.24761 1.03538 0.0
O2482 O 0.64792 0.28485 1.03644 0.0
O2483 O 0.57479 0.27589 0.95242 0.0
O2484 O 0.60633 0.29244 0.98428 0.0
O2485 O 0.65453 0.25691 0.96211 0.0
O2486 O 0.6088 0.24617 0.93789 0.0
O2487 O 0.52244 0.24001 0.94324 0.0
O2488 O 0.55507 0.20942 0.94255 0.0
O2489 O 0.62436 0.22413 1.00995 0.0
O2490 O 0.60953 0.21592 0.97008 0.0
C2491 C 0.5614 0.25223 1.02948 0.0
C2492 C 0.5908 0.29386 0.96229 0.0
C2493 C 0.68155 0.27038 0.07105 0.0
C2494 C 0.69273 0.25389 0.11233 0.0
C2495 C 0.71014 0.29383 0.10236 0.0
C2496 C 0.69615 0.29171 0.07828 0.0
C2497 C 0.70808 0.2751 0.11953 0.0
C2498 C 0.68143 0.25132 0.08758 0.0
C2499 C 0.6651 0.26783 1.04675 0.0
C2500 C 0.76804 0.28266 0.97655 0.0
C2501 C 0.75733 0.30601 0.9792 0.0
H2502 H 0.78163 0.23606 0.97456 0.0
C2503 C 0.64164 0.25159 0.93947 0.0
C2504 C 0.62156 0.20887 0.9916 0.0
C2505 C 0.51794 0.21599 0.90793 0.0
C2506 C 0.49268 0.23223 0.87006 0.0
C2507 C 0.51302 0.19157 0.87101 0.0
C2508 C 0.52335 0.1944 0.89592 0.0
C2509 C 0.49805 0.21036 0.85801 0.0
C2510 C 0.50134 0.23436 0.89527 0.0
C2511 C 0.52754 0.21913 0.9341 0.0
H2512 H 0.72137 0.31028 0.10806 0.0
H2513 H 0.69662 0.3066 0.06541 0.0
H2514 H 0.71684 0.27769 0.13866 0.0
H2515 H 0.67022 0.23487 0.08167 0.0
H2516 H 0.51763 0.17507 0.8615 0.0
H2517 H 0.5355 0.17985 0.90574 0.0
H2518 H 0.49275 0.20808 0.83816 0.0
H2519 H 0.49729 0.25122 0.90431 0.0
C2520 C 0.14858 0.31358 0.85839 0.0
C2521 C 0.17738 0.34314 0.83365 0.0
C2522 C 0.17529 0.31991 0.84327 0.0
C2523 C 0.15292 0.35989 0.83995 0.0
C2524 C 0.12333 0.33024 0.864 0.0
C2525 C 0.126 0.35347 0.85509 0.0
N2526 N 0.146 0.29081 0.86617 0.0
C2527 C 0.11765 0.28329 0.87805 0.0
C2528 C 0.0954 0.3229 0.87761 0.0
C2529 C 0.09236 0.29925 0.88437 0.0
Gd2530 Gd 0.2626 0.23775 0.89101 0.0
Gd2531 Gd 0.19002 0.26523 0.8546 0.0
N2532 N 0.19849 0.30327 0.83717 0.0
C2533 C 0.20364 0.34884 0.81756 0.0
C2534 C 0.22379 0.30882 0.82089 0.0
C2535 C 0.22683 0.33157 0.81108 0.0
H2536 H 0.24252 0.29622 0.81565 0.0
H2537 H 0.24718 0.33575 0.79853 0.0
H2538 H 0.24094 0.22177 0.95196 0.0
H2539 H 0.11429 0.26482 0.8824 0.0
H2540 H 0.22371 0.18546 0.97359 0.0
H2541 H 0.20603 0.36645 0.80981 0.0
H2542 H 0.15427 0.37778 0.83278 0.0
H2543 H 0.32682 0.22172 0.85524 0.0
H2544 H 0.07552 0.33518 0.88222 0.0
H2545 H 0.07029 0.29322 0.8941 0.0
H2546 H 0.25746 0.12366 0.91803 0.0
H2547 H 0.1069 0.36648 0.8593 0.0
H2548 H 0.33006 0.14663 0.85107 0.0
H2549 H 0.35112 0.18555 0.83738 0.0
N2550 N 0.29008 0.20381 0.87644 0.0
C2551 C 0.28077 0.18287 0.88615 0.0
C2552 C 0.31627 0.20499 0.86018 0.0
C2553 C 0.31872 0.16256 0.85835 0.0
C2554 C 0.33062 0.18446 0.85052 0.0
C2555 C 0.29411 0.16155 0.87695 0.0
H2556 H 0.29362 0.12353 0.88072 0.0
N2557 N 0.25399 0.2044 0.91779 0.0
C2558 C 0.26142 0.18313 0.90745 0.0
C2559 C 0.23817 0.16276 0.94318 0.0
C2560 C 0.25366 0.16178 0.91974 0.0
C2561 C 0.24295 0.20524 0.9421 0.0
C2562 C 0.23375 0.18457 0.95475 0.0
O2563 O 0.23244 0.28829 0.86818 0.0
O2564 O 0.24234 0.27219 0.90633 0.0
O2565 O 0.30797 0.23279 0.91267 0.0
O2566 O 0.30214 0.26368 0.88849 0.0
O2567 O 0.23383 0.25721 0.82539 0.0
O2568 O 0.27975 0.24773 0.84988 0.0
O2569 O 0.23587 0.21775 0.86061 0.0
O2570 O 0.18547 0.22927 0.8732 0.0
O2571 O 0.1818 0.24007 0.82531 0.0
O2572 O 0.14385 0.26761 0.832 0.0
O2573 O 0.21558 0.24309 0.91921 0.0
O2574 O 0.17172 0.25998 0.89654 0.0
C2575 C 0.23809 0.29107 0.8923 0.0
C2576 C 0.26685 0.25259 0.82713 0.0
C2577 C 0.33422 0.26744 0.92528 0.0
C2578 C 0.33418 0.27596 0.96969 0.0
C2579 C 0.37978 0.28964 0.94367 0.0
C2580 C 0.36497 0.27891 0.92271 0.0
C2581 C 0.36476 0.28779 0.96731 0.0
C2582 C 0.31793 0.26758 0.94825 0.0
C2583 C 0.32073 0.25281 0.90526 0.0
C2584 C 0.26367 0.14025 0.90908 0.0
C2585 C 0.2842 0.14015 0.88781 0.0
H2586 H 0.23158 0.14679 0.9532 0.0
C2587 C 0.20509 0.21226 0.86564 0.0
C2588 C 0.18356 0.25131 0.91842 0.0
C2589 C 0.13238 0.23885 0.79942 0.0
C2590 C 0.13223 0.21874 0.75938 0.0
C2591 C 0.07997 0.23303 0.77714 0.0
C2592 C 0.09756 0.24194 0.79785 0.0
C2593 C 0.09724 0.22175 0.75774 0.0
C2594 C 0.14917 0.22654 0.78075 0.0
C2595 C 0.15228 0.24873 0.81981 0.0
H2596 H 0.40369 0.29831 0.94186 0.0
H2597 H 0.37781 0.279 0.90483 0.0
H2598 H 0.37765 0.29456 0.98373 0.0
H2599 H 0.29376 0.25908 0.94991 0.0
H2600 H 0.0531 0.23545 0.77577 0.0
H2601 H 0.08414 0.2512 0.81246 0.0
H2602 H 0.08343 0.21624 0.74117 0.0
H2603 H 0.17604 0.22391 0.78233 0.0
C2604 C 0.50178 0.53937 0.87778 0.0
C2605 C 0.45944 0.50962 0.87002 0.0
C2606 C 0.49298 0.51575 0.87519 0.0
C2607 C 0.43506 0.52739 0.86728 0.0
C2608 C 0.47715 0.55719 0.87486 0.0
C2609 C 0.44393 0.55106 0.86935 0.0
N2610 N 0.53382 0.54489 0.8844 0.0
C2611 C 0.54212 0.56766 0.88971 0.0
C2612 C 0.48626 0.58066 0.8786 0.0
C2613 C 0.51881 0.58588 0.8863 0.0
Gd2614 Gd 0.63929 0.48765 0.85361 0.0
Gd2615 Gd 0.56945 0.51245 0.89218 0.0
N2616 N 0.51713 0.49878 0.87801 0.0
C2617 C 0.45122 0.48577 0.86812 0.0
C2618 C 0.50888 0.47547 0.87708 0.0
C2619 C 0.47605 0.46865 0.87169 0.0
H2620 H 0.52727 0.46203 0.88083 0.0
H2621 H 0.46981 0.45015 0.87073 0.0
H2622 H 0.68137 0.53594 0.87487 0.0
H2623 H 0.56645 0.57174 0.89752 0.0
H2624 H 0.73923 0.54534 0.8869 0.0
H2625 H 0.42572 0.4804 0.86418 0.0
H2626 H 0.40911 0.52304 0.86404 0.0
H2627 H 0.63281 0.42801 0.8565 0.0
H2628 H 0.46805 0.59479 0.87648 0.0
H2629 H 0.52575 0.60389 0.89026 0.0
H2630 H 0.79403 0.47012 0.8919 0.0
H2631 H 0.42468 0.56451 0.86732 0.0
H2632 H 0.72838 0.40101 0.87924 0.0
H2633 H 0.66955 0.39435 0.86651 0.0
N2634 N 0.66879 0.45385 0.86688 0.0
C2635 C 0.70131 0.45794 0.8735 0.0
C2636 C 0.65752 0.43134 0.86396 0.0
C2637 C 0.7119 0.41597 0.8759 0.0
C2638 C 0.67865 0.41213 0.86888 0.0
C2639 C 0.7237 0.43903 0.87809 0.0
H2640 H 0.77485 0.42932 0.88762 0.0
N2641 N 0.69025 0.49924 0.87181 0.0
C2642 C 0.71244 0.48117 0.87573 0.0
C2643 C 0.75561 0.50911 0.88649 0.0
C2644 C 0.74579 0.48573 0.88299 0.0
C2645 C 0.69936 0.52195 0.87626 0.0
C2646 C 0.73212 0.52725 0.88355 0.0
O2647 O 0.55036 0.50666 0.85031 0.0
O2648 O 0.59456 0.49579 0.82535 0.0
O2649 O 0.6781 0.49383 0.8265 0.0
O2650 O 0.64774 0.46245 0.82367 0.0
O2651 O 0.5882 0.47569 0.90168 0.0
O2652 O 0.597 0.46269 0.86246 0.0
O2653 O 0.65148 0.48754 0.89768 0.0
O2654 O 0.62092 0.51819 0.91336 0.0
O2655 O 0.54747 0.49468 0.92393 0.0
O2656 O 0.55321 0.53279 0.92424 0.0
O2657 O 0.63315 0.52701 0.84551 0.0
O2658 O 0.60295 0.54178 0.87894 0.0
C2659 C 0.56215 0.50146 0.82754 0.0
C2660 C 0.59009 0.45817 0.88599 0.0
C2661 C 0.67364 0.47607 0.78703 0.0
C2662 C 0.6678 0.4987 0.74866 0.0
C2663 C 0.69353 0.45982 0.74783 0.0
C2664 C 0.68887 0.45771 0.77372 0.0
C2665 C 0.68334 0.48037 0.73531 0.0
C2666 C 0.66238 0.49638 0.77441 0.0
C2667 C 0.67225 0.47447 0.81426 0.0
C2668 C 0.7682 0.46689 0.88681 0.0
C2669 C 0.75722 0.44364 0.88441 0.0
H2670 H 0.78106 0.5133 0.89202 0.0
C2671 C 0.6466 0.50316 0.91611 0.0
C2672 C 0.62123 0.54478 0.8587 0.0
C2673 C 0.50328 0.51715 0.94111 0.0
C2674 C 0.4721 0.50101 0.97489 0.0
C2675 C 0.46392 0.54217 0.9627 0.0
C2676 C 0.48908 0.53954 0.94486 0.0
C2677 C 0.45678 0.52326 0.97877 0.0
C2678 C 0.48786 0.49756 0.95183 0.0
C2679 C 0.53859 0.51461 0.93408 0.0
H2680 H 0.70547 0.44571 0.73755 0.0
H2681 H 0.69766 0.44196 0.78345 0.0
H2682 H 0.68743 0.48196 0.71522 0.0
H2683 H 0.6505 0.51059 0.78467 0.0
H2684 H 0.45373 0.5595 0.9665 0.0
H2685 H 0.49927 0.55508 0.93592 0.0
H2686 H 0.44387 0.52725 0.99598 0.0
H2687 H 0.49761 0.48015 0.94767 0.0
H2688 H 0.43499 0.81965 0.06802 0.0
H2689 H 0.39628 0.93494 0.1504 0.0
H2690 H 0.44289 0.82498 0.14888 0.0
H2691 H 0.38424 0.93646 0.06959 0.0
H2692 H 0.41437 0.89436 0.14833 0.0
H2693 H 0.41676 0.86146 0.06628 0.0
C2694 C 0.43281 0.82948 0.08534 0.0
C2695 C 0.44065 0.81864 0.10862 0.0
C2696 C 0.40786 0.90332 0.13088 0.0
C2697 C 0.42004 0.86638 0.10676 0.0
C2698 C 0.39741 0.92671 0.13207 0.0
C2699 C 0.38844 0.9393 0.11015 0.0
C2700 C 0.4095 0.89184 0.10756 0.0
C2701 C 0.39096 0.92748 0.08697 0.0
C2702 C 0.42252 0.85335 0.08433 0.0
C2703 C 0.4374 0.83235 0.13043 0.0
N2704 N 0.40111 0.90434 0.08627 0.0
N2705 N 0.42751 0.85523 0.12891 0.0
H2706 H 0.88912 0.4308 0.15441 0.0
H2707 H 0.94226 0.32054 0.0691 0.0
H2708 H 0.89115 0.43753 0.07343 0.0
H2709 H 0.92818 0.32022 0.14956 0.0
H2710 H 0.92458 0.36256 0.06804 0.0
H2711 H 0.90548 0.39005 0.15103 0.0
C2712 C 0.89313 0.42371 0.13577 0.0
C2713 C 0.88856 0.43778 0.11419 0.0
C2714 C 0.92526 0.35312 0.08582 0.0
C2715 C 0.90762 0.39013 0.11004 0.0
C2716 C 0.93515 0.32915 0.08641 0.0
C2717 C 0.93697 0.31684 0.10949 0.0
C2718 C 0.9171 0.3646 0.10846 0.0
C2719 C 0.92766 0.32891 0.13134 0.0
C2720 C 0.90249 0.4002 0.13381 0.0
C2721 C 0.89447 0.42736 0.09059 0.0
N2722 N 0.91835 0.35186 0.13024 0.0
N2723 N 0.90364 0.40408 0.0891 0.0
H2724 H 0.42206 0.43727 0.28051 0.0
H2725 H 0.43091 0.30753 0.22536 0.0
H2726 H 0.44959 0.42405 0.20342 0.0
H2727 H 0.34525 0.32797 0.26919 0.0
H2728 H 0.44889 0.34884 0.22459 0.0
H2729 H 0.40344 0.3959 0.28397 0.0
C2730 C 0.42433 0.4258 0.26438 0.0
C2731 C 0.43783 0.43435 0.24171 0.0
C2732 C 0.42636 0.34419 0.23462 0.0
C2733 C 0.41732 0.38689 0.2458 0.0
C2734 C 0.41616 0.32059 0.23518 0.0
C2735 C 0.3864 0.31416 0.24727 0.0
C2736 C 0.40747 0.36152 0.24703 0.0
C2737 C 0.36827 0.33206 0.25954 0.0
C2738 C 0.41367 0.40221 0.26638 0.0
C2739 C 0.43986 0.41845 0.22143 0.0
N2740 N 0.37916 0.35484 0.25926 0.0
N2741 N 0.43024 0.39562 0.22407 0.0
H2742 H 0.84351 0.82757 0.26931 0.0
H2743 H 0.94879 0.92764 0.20348 0.0
H2744 H 0.92151 0.81297 0.21593 0.0
H2745 H 0.92021 0.93669 0.28111 0.0
H2746 H 0.92985 0.88729 0.20516 0.0
H2747 H 0.86261 0.86878 0.27155 0.0
C2748 C 0.8647 0.833 0.25814 0.0
C2749 C 0.88105 0.81673 0.24247 0.0
C2750 C 0.92772 0.898 0.22189 0.0
C2751 C 0.90257 0.86386 0.2447 0.0
C2752 C 0.93852 0.92126 0.22104 0.0
C2753 C 0.93656 0.93592 0.24232 0.0
C2754 C 0.91388 0.88894 0.244 0.0
C2755 C 0.92243 0.92619 0.26425 0.0
C2756 C 0.87563 0.85646 0.25954 0.0
C2757 C 0.90829 0.82477 0.22839 0.0
N2758 N 0.91142 0.90334 0.26449 0.0
N2759 N 0.91789 0.84772 0.22963 0.0
H2760 H 0.68939 0.06511 1.03392 0.0
H2761 H 0.62783 0.17777 0.95353 0.0
H2762 H 0.6813 0.06966 0.95297 0.0
H2763 H 0.64157 0.18245 1.03409 0.0
H2764 H 0.64514 0.13714 0.95508 0.0
H2765 H 0.66987 0.10654 1.03651 0.0
C2766 C 0.68327 0.0747 1.01677 0.0
C2767 C 0.68714 0.0639 0.99316 0.0
C2768 C 0.64455 0.14682 0.97257 0.0
C2769 C 0.66491 0.11102 0.99598 0.0
C2770 C 0.63454 0.17028 0.97172 0.0
C2771 C 0.63315 0.18381 0.99373 0.0
C2772 C 0.65357 0.13624 0.99563 0.0
C2773 C 0.64235 0.17274 1.01662 0.0
C2774 C 0.67232 0.09834 1.01826 0.0
C2775 C 0.67906 0.07719 0.97158 0.0
N2776 N 0.65218 0.14954 1.01702 0.0
N2777 N 0.66844 0.09982 0.97355 0.0
H2778 H 0.13363 0.68243 1.03814 0.0
H2779 H 0.18674 0.57191 0.95329 0.0
H2780 H 0.14086 0.68111 0.95712 0.0
H2781 H 0.18086 0.56479 1.03411 0.0
H2782 H 0.17039 0.61262 0.95644 0.0
H2783 H 0.15164 0.6405 1.03935 0.0
C2784 C 0.1392 0.67346 1.02072 0.0
C2785 C 0.1355 0.68534 0.99748 0.0
C2786 C 0.17243 0.60238 0.97367 0.0
C2787 C 0.15586 0.63771 0.9987 0.0
C2788 C 0.18184 0.57889 0.97185 0.0
C2789 C 0.18527 0.56471 0.99345 0.0
C2790 C 0.16602 0.61231 0.99731 0.0
C2791 C 0.17838 0.57505 1.01693 0.0
C2792 C 0.14929 0.64956 1.0214 0.0
C2793 C 0.14292 0.67283 0.9755 0.0
N2794 N 0.16909 0.59831 1.01828 0.0
N2795 N 0.15257 0.64995 0.97671 0.0
H2796 H 0.7391 0.67322 0.84672 0.0
H2797 H 0.58345 0.58539 0.85871 0.0
H2798 H 0.64004 0.69526 0.86856 0.0
H2799 H 0.68288 0.56139 0.8418 0.0
H2800 H 0.60302 0.62586 0.85917 0.0
H2801 H 0.71896 0.63275 0.84258 0.0
C2802 C 0.71304 0.66962 0.85055 0.0
C2803 C 0.69127 0.68782 0.85807 0.0
C2804 C 0.62081 0.61179 0.8557 0.0
C2805 C 0.66786 0.64124 0.85304 0.0
C2806 C 0.60965 0.58849 0.85602 0.0
C2807 C 0.63189 0.56953 0.85265 0.0
C2808 C 0.6547 0.61655 0.85134 0.0
C2809 C 0.66498 0.57515 0.846 0.0
C2810 C 0.70155 0.64643 0.84813 0.0
C2811 C 0.65779 0.68191 0.86273 0.0
N2812 N 0.67549 0.59805 0.84599 0.0
N2813 N 0.64719 0.65923 0.86017 0.0
H2814 H 0.21528 0.17982 0.82835 0.0
H2815 H 0.13619 0.0734 0.90665 0.0
H2816 H 0.16973 0.18785 0.901 0.0
H2817 H 0.14541 0.06947 0.82588 0.0
H2818 H 0.15579 0.11378 0.90536 0.0
H2819 H 0.1964 0.13852 0.82737 0.0
C2820 C 0.20137 0.17284 0.84411 0.0
C2821 C 0.19377 0.18733 0.8647 0.0
C2822 C 0.1535 0.10422 0.88784 0.0
C2823 C 0.17287 0.13997 0.864 0.0
C2824 C 0.14231 0.08099 0.88851 0.0
C2825 C 0.13877 0.06782 0.86629 0.0
C2826 C 0.16168 0.11477 0.86478 0.0
C2827 C 0.14771 0.07883 0.8435 0.0
C2828 C 0.19054 0.14932 0.8435 0.0
C2829 C 0.17567 0.17743 0.8846 0.0
N2830 N 0.15873 0.10167 0.84332 0.0
N2831 N 0.16618 0.15441 0.88386 0.0
H2832 H 0.44287 0.32458 0.65156 0.0
H2833 H 0.38336 0.43588 0.56779 0.0
H2834 H 0.43296 0.31875 0.57082 0.0
H2835 H 0.39509 0.43386 0.64863 0.0
H2836 H 0.40161 0.39404 0.56638 0.0
H2837 H 0.42522 0.36516 0.64889 0.0
C2838 C 0.4369 0.33181 0.63311 0.0
C2839 C 0.43961 0.31801 0.61137 0.0
C2840 C 0.40023 0.40291 0.58434 0.0
C2841 C 0.41889 0.36549 0.60811 0.0
C2842 C 0.39003 0.42679 0.58513 0.0
C2843 C 0.38758 0.43845 0.60837 0.0
C2844 C 0.40821 0.39086 0.60693 0.0
C2845 C 0.39624 0.42573 0.63026 0.0
C2846 C 0.42672 0.35523 0.63159 0.0
C2847 C 0.43122 0.32869 0.5881 0.0
N2848 N 0.40603 0.40289 0.62895 0.0
N2849 N 0.42128 0.35186 0.58703 0.0
H2850 H 0.89645 0.9396 0.57295 0.0
H2851 H 0.92074 0.81776 0.64936 0.0
H2852 H 0.88039 0.92897 0.65247 0.0
H2853 H 0.94853 0.82307 0.5713 0.0
H2854 H 0.90224 0.85845 0.64834 0.0
H2855 H 0.91347 0.8977 0.56968 0.0
C2856 C 0.89662 0.9286 0.5897 0.0
C2857 C 0.88683 0.93799 0.61304 0.0
C2858 C 0.91228 0.85096 0.63128 0.0
C2859 C 0.90589 0.89008 0.60936 0.0
C2860 C 0.92284 0.82754 0.63186 0.0
C2861 C 0.93637 0.81691 0.61044 0.0
C2862 C 0.91541 0.86442 0.60913 0.0
C2863 C 0.93803 0.83053 0.58822 0.0
C2864 C 0.90621 0.90467 0.58778 0.0
C2865 C 0.88748 0.92277 0.63402 0.0
N2866 N 0.92795 0.8537 0.58817 0.0
N2867 N 0.89666 0.89984 0.63162 0.0
H2868 H 0.3863 0.94518 0.7311 0.0
H2869 H 0.43413 0.80877 0.73572 0.0
H2870 H 0.48027 0.92098 0.76279 0.0
H2871 H 0.33323 0.83184 0.75074 0.0
H2872 H 0.45251 0.84999 0.73789 0.0
H2873 H 0.3666 0.90411 0.73092 0.0
C2874 C 0.40288 0.93135 0.73795 0.0
C2875 C 0.43544 0.93673 0.74641 0.0
C2876 C 0.42632 0.84599 0.7406 0.0
C2877 C 0.41324 0.88948 0.74558 0.0
C2878 C 0.41577 0.82244 0.73936 0.0
C2879 C 0.38192 0.81666 0.74272 0.0
C2880 C 0.40281 0.86413 0.74468 0.0
C2881 C 0.35945 0.83532 0.74759 0.0
C2882 C 0.39162 0.90788 0.73776 0.0
C2883 C 0.45556 0.91782 0.75512 0.0
N2884 N 0.37015 0.85813 0.74807 0.0
N2885 N 0.44441 0.89517 0.75414 0.0
H2886 H 0.93486 0.30845 0.7461 0.0
H2887 H 0.90363 0.43911 0.71326 0.0
H2888 H 0.83265 0.33328 0.74828 0.0
H2889 H 0.96419 0.42724 0.77975 0.0
H2890 H 0.88413 0.39817 0.71578 0.0
H2891 H 0.95389 0.34964 0.74926 0.0
C2892 C 0.91641 0.32247 0.74714 0.0
C2893 C 0.88201 0.31728 0.74644 0.0
C2894 C 0.90151 0.4046 0.72989 0.0
C2895 C 0.9037 0.36436 0.74953 0.0
C2896 C 0.91256 0.42791 0.72854 0.0
C2897 C 0.93505 0.43672 0.7466 0.0
C2898 C 0.91409 0.38954 0.74881 0.0
C2899 C 0.94628 0.42129 0.76578 0.0
C2900 C 0.92732 0.34591 0.74907 0.0
C2901 C 0.85934 0.3363 0.7482 0.0
N2902 N 0.93613 0.3983 0.76616 0.0
N2903 N 0.87052 0.35893 0.74909 0.0
H2904 H 0.74001 0.58286 0.50232 0.0
H2905 H 0.60958 0.68104 0.5373 0.0
H2906 H 0.64156 0.55846 0.51978 0.0
H2907 H 0.66176 0.68257 0.46665 0.0
H2908 H 0.6279 0.63948 0.54333 0.0
H2909 H 0.71979 0.62333 0.50255 0.0
C2910 C 0.71386 0.58585 0.50499 0.0
C2911 C 0.69189 0.56689 0.50771 0.0
C2912 C 0.63534 0.64908 0.52663 0.0
C2913 C 0.66883 0.61376 0.51125 0.0
C2914 C 0.62523 0.67277 0.52329 0.0
C2915 C 0.63445 0.68532 0.50153 0.0
C2916 C 0.65571 0.63831 0.50849 0.0
C2917 C 0.65416 0.67361 0.48371 0.0
C2918 C 0.70247 0.6091 0.50604 0.0
C2919 C 0.65908 0.57233 0.51561 0.0
N2920 N 0.6645 0.65101 0.48775 0.0
N2921 N 0.64831 0.5953 0.5167 0.0
H2922 H 0.17814 0.06864 0.45319 0.0
H2923 H 0.1417 0.18329 0.53741 0.0
H2924 H 0.19278 0.06692 0.53373 0.0
H2925 H 0.13158 0.17891 0.45659 0.0
H2926 H 0.15958 0.14141 0.53832 0.0
H2927 H 0.15917 0.10918 0.45588 0.0
C2928 C 0.17734 0.07684 0.47156 0.0
C2929 C 0.1873 0.06429 0.49322 0.0
C2930 C 0.15343 0.14975 0.52046 0.0
C2931 C 0.16558 0.11152 0.49656 0.0
C2932 C 0.14336 0.17367 0.51992 0.0
C2933 C 0.1351 0.18483 0.49689 0.0
C2934 C 0.15516 0.13696 0.49781 0.0
C2935 C 0.13755 0.17133 0.47486 0.0
C2936 C 0.16646 0.10015 0.47312 0.0
C2937 C 0.18525 0.07592 0.51654 0.0
N2938 N 0.14721 0.14839 0.47593 0.0
N2939 N 0.17484 0.09896 0.5176 0.0
H2940 H 0.64118 0.19441 0.37069 0.0
H2941 H 0.68815 0.05892 0.37999 0.0
H2942 H 0.74151 0.17141 0.35363 0.0
H2943 H 0.59652 0.08156 0.34334 0.0
H2944 H 0.70767 0.09998 0.37912 0.0
H2945 H 0.62294 0.15317 0.36949 0.0
C2946 C 0.6595 0.18076 0.36688 0.0
C2947 C 0.69322 0.18654 0.36283 0.0
C2948 C 0.68323 0.09585 0.37139 0.0
C2949 C 0.67247 0.13911 0.36204 0.0
C2950 C 0.67209 0.07239 0.37176 0.0
C2951 C 0.64032 0.06659 0.36203 0.0
C2952 C 0.66215 0.11382 0.36185 0.0
C2953 C 0.62066 0.08509 0.35182 0.0
C2954 C 0.64901 0.15721 0.36621 0.0
C2955 C 0.71555 0.1679 0.35766 0.0
N2956 N 0.63162 0.10778 0.35232 0.0
N2957 N 0.70495 0.14508 0.35781 0.0
H2958 H 0.20718 0.68214 0.32372 0.0
H2959 H 0.14049 0.57271 0.40457 0.0
H2960 H 0.17525 0.68677 0.40075 0.0
H2961 H 0.14208 0.5703 0.32341 0.0
H2962 H 0.15913 0.61329 0.40309 0.0
H2963 H 0.18825 0.64082 0.32264 0.0
C2964 C 0.1963 0.67439 0.34043 0.0
C2965 C 0.19273 0.68787 0.36237 0.0
C2966 C 0.15536 0.60405 0.38552 0.0
C2967 C 0.17176 0.6405 0.36148 0.0
C2968 C 0.14471 0.5807 0.3863 0.0
C2969 C 0.13938 0.56785 0.36405 0.0
C2970 C 0.16105 0.61514 0.36228 0.0
C2971 C 0.14591 0.57937 0.34106 0.0
C2972 C 0.18544 0.65085 0.33977 0.0
C2973 C 0.17822 0.67709 0.3834 0.0
N2974 N 0.15633 0.60236 0.34076 0.0
N2975 N 0.16866 0.65408 0.38251 0.0
H2976 H 0.292 0.03136 0.23888 0.0
H2977 H 0.27865 0.97022 0.37186 0.0
H2978 H 0.19893 0.01641 0.27402 0.0
H2979 H 0.37079 0.98108 0.33412 0.0
H2980 H 0.24784 0.98184 0.33412 0.0
H2981 H 0.32192 0.01827 0.27649 0.0
C2982 C 0.27744 0.02582 0.25495 0.0
C2983 C 0.24388 0.01875 0.25216 0.0
C2984 C 0.27496 0.98184 0.33389 0.0
C2985 C 0.27642 0.00659 0.29512 0.0
C2986 C 0.29282 0.97463 0.3552 0.0
C2987 C 0.32652 0.98156 0.35694 0.0
C2988 C 0.29305 0.99171 0.31395 0.0
C2989 C 0.34374 0.98089 0.33417 0.0
C2990 C 0.2948 0.01772 0.27611 0.0
C2991 C 0.22594 0.01747 0.27457 0.0
N2992 N 0.32695 0.98872 0.31341 0.0
N2993 N 0.24242 0.00889 0.29511 0.0
H2994 H 0.94812 0.23553 0.32801 0.0
H2995 H 0.12733 0.26537 0.27548 0.0
H2996 H 1.02362 0.27197 0.36979 0.0
H2997 H 0.05133 0.23077 0.23246 0.0
H2998 H 0.09299 0.26155 0.31303 0.0
H2999 H 0.9824 0.23856 0.2903 0.0
C3000 C 0.97141 0.24515 0.329 0.0
C3001 C 0.98664 0.24936 0.35232 0.0
C3002 C 0.08373 0.25466 0.29534 0.0
C3003 C 1.02493 0.25334 0.31076 0.0
C3004 C 0.10391 0.25594 0.27414 0.0
C3005 C 0.0885 0.25268 0.25069 0.0
C3006 C 0.05023 0.24768 0.29208 0.0
C3007 C 0.0613 0.23714 0.25018 0.0
C3008 C 0.99156 0.24599 0.30777 0.0
C3009 C 1.01372 0.26501 0.35231 0.0
N3010 N 0.04084 0.237 0.27031 0.0
N3011 N 1.03415 0.2647 0.33217 0.0
H3012 H 0.31092 0.23292 0.98298 0.0
H3013 H 0.26373 0.27182 0.12154 0.0
H3014 H 0.32806 0.30272 1.01219 0.0
H3015 H 0.24799 0.20156 0.09317 0.0
H3016 H 0.28651 0.28347 0.08131 0.0
H3017 H 0.28666 0.22137 1.0228 0.0
C3018 C 0.3094 0.24589 0.99783 0.0
C3019 C 0.32102 0.26898 0.99429 0.0
C3020 C 0.27805 0.26552 0.08377 0.0
C3021 C 0.29406 0.25559 1.04006 0.0
C3022 C 0.26522 0.25878 0.10676 0.0
C3023 C 0.25463 0.23552 0.1107 0.0
C3024 C 0.27989 0.24899 0.06443 0.0
C3025 C 0.25608 0.2196 0.0908 0.0
C3026 C 0.29573 0.2392 1.02058 0.0
C3027 C 0.31936 0.2848 1.01426 0.0
N3028 N 0.26871 0.22664 0.06838 0.0
N3029 N 0.30597 0.27779 1.03642 0.0
H3030 H 0.12793 0.01365 0.08234 0.0
H3031 H 0.95111 0.98584 1.02224 0.0
H3032 H 1.03508 0.02931 0.11771 0.0
H3033 H 0.04334 0.97208 0.98554 0.0
H3034 H 0.98157 0.99513 0.061 0.0
H3035 H 0.09786 0.00328 1.0438 0.0
C3036 C 0.101 0.0156 0.08179 0.0
C3037 C 0.08282 0.01626 0.10416 0.0
C3038 C 0.99542 0.9902 1.04439 0.0
C3039 C 0.04884 0.00651 0.0614 0.0
C3040 C 0.97805 0.98421 1.0225 0.0
C3041 C 0.99593 0.98482 1.0 0.0
C3042 C 1.03038 0.99278 1.04288 0.0
C3043 C 1.02931 0.97701 1.00207 0.0
C3044 C 0.08383 0.00887 0.06008 0.0
C3045 C 0.04938 0.02381 0.10152 0.0
N3046 N 0.04674 0.9838 1.0227 0.0
N3047 N 1.03225 0.01626 0.08106 0.0
H3048 H 0.87743 0.99179 0.83403 0.0
H3049 H 0.69994 0.01485 0.77169 0.0
H3050 H 0.78527 0.97508 0.8694 0.0
H3051 H 0.79178 0.02941 0.73502 0.0
H3052 H 0.7305 0.00577 0.81063 0.0
H3053 H 0.84746 1.00025 0.79473 0.0
C3054 C 0.85069 0.98943 0.8334 0.0
C3055 C 0.83214 0.98897 0.85559 0.0
C3056 C 0.74425 0.01069 0.79395 0.0
C3057 C 0.79841 0.99609 0.81197 0.0
C3058 C 0.72684 0.01626 0.77187 0.0
C3059 C 0.74494 0.016 0.74944 0.0
C3060 C 0.77933 0.00884 0.79273 0.0
C3061 C 0.77783 0.02437 0.75158 0.0
C3062 C 0.83354 0.99482 0.81115 0.0
C3063 C 0.79945 0.98032 0.85303 0.0
N3064 N 0.79539 0.01802 0.77247 0.0
N3065 N 0.7822 0.98655 0.83197 0.0
H3066 H 1.02099 0.77366 0.8703 0.0
H3067 H 0.05195 0.7289 0.73242 0.0
H3068 H 0.9468 0.73816 0.82644 0.0
H3069 H 0.12688 0.76205 0.77774 0.0
H3070 H 1.01499 0.7273 0.76826 0.0
H3071 H 0.05771 0.77471 0.83427 0.0
C3072 C 1.01162 0.76674 0.85263 0.0
C3073 C 0.98453 0.75102 0.85196 0.0
C3074 C 0.03967 0.73484 0.77059 0.0
C3075 C 1.0241 0.75377 0.81097 0.0
C3076 C 0.06144 0.73513 0.75035 0.0
C3077 C 0.08899 0.75041 0.75166 0.0
C3078 C 0.04902 0.74708 0.79236 0.0
C3079 C 0.10281 0.7536 0.77564 0.0
C3080 C 1.03326 0.76672 0.83232 0.0
C3081 C 0.97064 0.74698 0.82815 0.0
N3082 N 0.08139 0.75411 0.79528 0.0
N3083 N 0.99192 0.74623 0.80843 0.0
H3084 H 0.83346 0.8013 1.01384 0.0
H3085 H 0.7402 0.7008 0.09215 0.0
H3086 H 0.80084 0.73505 0.98253 0.0
H3087 H 0.77466 0.76656 0.12355 0.0
H3088 H 0.76207 0.71314 1.05128 0.0
H3089 H 0.81255 0.78854 0.05483 0.0
C3090 C 0.8217 0.78424 1.01556 0.0
C3091 C 0.81821 0.7695 0.99473 0.0
C3092 C 0.76513 0.72466 0.0673 0.0
C3093 C 0.79432 0.75484 1.04107 0.0
C3094 C 0.7526 0.71763 0.0905 0.0
C3095 C 0.7562 0.73238 0.11132 0.0
C3096 C 0.78119 0.74655 0.06513 0.0
C3097 C 0.77227 0.75418 0.10823 0.0
C3098 C 0.80973 0.77695 1.03884 0.0
C3099 C 0.80305 0.7474 0.99791 0.0
N3100 N 0.78424 0.76055 0.08557 0.0
N3101 N 0.79153 0.74079 1.02064 0.0
H3102 H 0.37802 0.50569 0.83392 0.0
H3103 H 0.19719 0.49654 0.7751 0.0
H3104 H 0.29464 0.47656 0.87277 0.0
H3105 H 0.28069 0.52556 0.73634 0.0
H3106 H 0.23046 0.49415 0.8135 0.0
H3107 H 0.34543 0.50623 0.79505 0.0
C3108 C 0.35303 0.49857 0.8342 0.0
C3109 C 0.33572 0.4963 0.85686 0.0
C3110 C 0.24176 0.50098 0.79652 0.0
C3111 C 0.29948 0.49565 0.81382 0.0
C3112 C 0.22243 0.50309 0.77472 0.0
C3113 C 0.23927 0.50596 0.75194 0.0
C3114 C 0.2764 0.50468 0.79465 0.0
C3115 C 0.269 0.51898 0.75329 0.0
C3116 C 0.33407 0.49966 0.81212 0.0
C3117 C 0.30647 0.48276 0.85571 0.0
N3118 N 0.28861 0.51577 0.77394 0.0
N3119 N 0.28716 0.48504 0.83478 0.0
H3120 H 0.27084 0.78427 0.48684 0.0
H3121 H 0.30519 0.71646 0.61674 0.0
H3122 H 0.36906 0.76274 0.5129 0.0
H3123 H 0.20697 0.73843 0.59114 0.0
H3124 H 0.32896 0.73222 0.57801 0.0
H3125 H 0.24691 0.7685 0.52555 0.0
C3126 C 0.28739 0.77673 0.50109 0.0
C3127 C 0.3219 0.77481 0.49691 0.0
C3128 C 0.30214 0.7333 0.58066 0.0
C3129 C 0.29485 0.75625 0.54066 0.0
C3130 C 0.28858 0.72405 0.60255 0.0
C3131 C 0.25413 0.72614 0.6069 0.0
C3132 C 0.28103 0.7447 0.56311 0.0
C3133 C 0.23359 0.73628 0.58824 0.0
C3134 C 0.27375 0.76751 0.52298 0.0
C3135 C 0.34239 0.76479 0.51567 0.0
N3136 N 0.24743 0.74545 0.56717 0.0
N3137 N 0.32848 0.75563 0.53671 0.0
H3138 H 1.0296 0.47727 0.48286 0.0
H3139 H 0.0543 0.52702 0.61971 0.0
H3140 H 0.95123 0.50653 0.52779 0.0
H3141 H 0.13301 0.49504 0.57764 0.0
H3142 H 1.01734 0.52404 0.58347 0.0
H3143 H 0.06674 0.47783 0.51921 0.0
C3144 C 1.01936 0.48296 0.50067 0.0
C3145 C 0.98996 0.49676 0.5016 0.0
C3146 C 0.04281 0.51748 0.58212 0.0
C3147 C 1.03013 0.49554 0.54285 0.0
C3148 C 0.06451 0.51982 0.60253 0.0
C3149 C 0.09349 0.50556 0.60295 0.0
C3150 C 0.05379 0.50427 0.56148 0.0
C3151 C 0.10788 0.50178 0.57932 0.0
C3152 C 0.04111 0.48386 0.52121 0.0
C3153 C 0.97587 0.49915 0.52549 0.0
N3154 N 0.08687 0.49888 0.55948 0.0
N3155 N 0.99706 0.50068 0.54535 0.0
H3156 H 0.70387 0.46711 0.28299 0.0
H3157 H 0.87013 0.53218 0.32332 0.0
H3158 H 0.75694 0.5164 0.23647 0.0
H3159 H 0.81607 0.48512 0.37214 0.0
H3160 H 0.83321 0.52127 0.28896 0.0
H3161 H 0.74081 0.47689 0.31809 0.0
C3162 C 0.72263 0.48055 0.28025 0.0
C3163 C 0.73142 0.48782 0.25591 0.0
C3164 C 0.82935 0.51348 0.30736 0.0
C3165 C 0.77253 0.49943 0.29522 0.0
C3166 C 0.85107 0.51916 0.32692 0.0
C3167 C 0.84265 0.51269 0.35159 0.0
C3168 C 0.80077 0.50024 0.31284 0.0
C3169 C 0.82073 0.49342 0.35416 0.0
C3170 C 0.74434 0.48555 0.30009 0.0
C3171 C 0.75239 0.50759 0.25421 0.0
N3172 N 0.79875 0.48894 0.33534 0.0
N3173 N 0.77417 0.51167 0.27324 0.0
H3174 H 0.80227 0.30481 0.50581 0.0
H3175 H 0.77336 0.19828 0.60244 0.0
H3176 H 0.85017 0.23686 0.49996 0.0
H3177 H 0.72453 0.26593 0.60801 0.0
H3178 H 0.80104 0.21175 0.56399 0.0
H3179 H 0.77453 0.29139 0.54429 0.0
C3180 C 0.8078 0.28739 0.51328 0.0
C3181 C 0.82897 0.27203 0.50045 0.0
C3182 C 0.78373 0.2235 0.57333 0.0
C3183 C 0.79675 0.25625 0.54325 0.0
C3184 C 0.7676 0.21564 0.59489 0.0
C3185 C 0.74617 0.23089 0.60763 0.0
C3186 C 0.77841 0.24678 0.56487 0.0
C3187 C 0.74028 0.25357 0.59803 0.0
C3188 C 0.79165 0.27957 0.53487 0.0
C3189 C 0.83463 0.24929 0.50998 0.0
N3190 N 0.75652 0.26094 0.57722 0.0
N3191 N 0.8184 0.24199 0.53082 0.0
H3192 H 0.44774 0.24411 0.83079 0.0
H3193 H 0.62888 0.262 0.77614 0.0
H3194 H 0.52874 0.2737 0.8729 0.0
H3195 H 0.54873 0.22916 0.73602 0.0
H3196 H 0.59578 0.26075 0.81452 0.0
H3197 H 0.48221 0.24473 0.79306 0.0
C3198 C 0.47249 0.25174 0.83187 0.0
C3199 C 0.48855 0.25413 0.85519 0.0
C3200 C 0.58531 0.25368 0.7973 0.0
C3201 C 0.527 0.25568 0.81366 0.0
C3202 C 0.6047 0.25351 0.77564 0.0
C3203 C 0.58804 0.2503 0.75267 0.0
C3204 C 0.55115 0.24809 0.79492 0.0
C3205 C 0.55982 0.23571 0.75329 0.0
C3206 C 0.49259 0.25115 0.81061 0.0
C3207 C 0.51781 0.26772 0.85534 0.0
N3208 N 0.5401 0.23708 0.77378 0.0
N3209 N 0.53807 0.26602 0.83518 0.0
H3210 H 0.51219 0.02051 0.62108 0.0
H3211 H 0.56212 0.98241 0.4843 0.0
H3212 H 0.61163 0.00301 0.59971 0.0
H3213 H 0.46261 1.00103 0.50483 0.0
H3214 H 0.57922 0.98283 0.52834 0.0
H3215 H 0.49394 0.01851 0.57733 0.0
C3216 C 0.53081 0.01705 0.60682 0.0
C3217 C 0.56131 0.00609 0.61315 0.0
C3218 C 0.55336 0.98668 0.52341 0.0
C3219 C 0.5426 0.00585 0.56449 0.0
C3220 C 0.54318 0.98568 0.49837 0.0
C3221 C 0.51317 0.99724 0.49195 0.0
C3222 C 0.5307 0.99603 0.54085 0.0
C3223 C 0.48801 0.99627 0.50998 0.0
C3224 C 0.52001 0.01516 0.58199 0.0
C3225 C 0.58598 0.00718 0.59477 0.0
N3226 N 0.49771 0.99817 0.53437 0.0
N3227 N 0.5758 0.0045 0.57058 0.0
H3228 H 0.62859 0.74965 0.276 0.0
H3229 H 0.44599 0.75392 0.33167 0.0
H3230 H 0.5418 0.72516 0.2369 0.0
H3231 H 0.53263 0.77813 0.371 0.0
H3232 H 0.47917 0.74955 0.29356 0.0
H3233 H 0.59537 0.75434 0.31408 0.0
C3234 C 0.60259 0.74435 0.27567 0.0
C3235 C 0.58542 0.74249 0.25272 0.0
C3236 C 0.49117 0.75577 0.31061 0.0
C3237 C 0.54834 0.74641 0.29469 0.0
C3238 C 0.47199 0.75918 0.33209 0.0
C3239 C 0.48925 0.76058 0.35506 0.0
C3240 C 0.52623 0.75728 0.31303 0.0
C3241 C 0.52033 0.77201 0.35402 0.0
C3242 C 0.58339 0.74795 0.29709 0.0
C3243 C 0.55417 0.73131 0.25384 0.0
N3244 N 0.53964 0.76765 0.33378 0.0
N3245 N 0.53491 0.73589 0.27404 0.0
H3246 H 0.54176 0.52411 0.11805 0.0
H3247 H 0.53423 0.47794 0.97905 0.0
H3248 H 0.62852 0.50439 0.07513 0.0
H3249 H 0.44706 0.4923 1.02337 0.0
H3250 H 0.56906 0.48647 1.01458 0.0
H3251 H 0.50788 0.52122 0.08058 0.0
C3252 C 0.55438 0.51973 0.10074 0.0
C3253 C 0.58729 0.51049 0.10056 0.0
C3254 C 0.54218 0.48828 1.0165 0.0
C3255 C 0.54869 0.5078 0.05784 0.0
C3256 C 0.52174 0.48285 0.99623 0.0
C3257 C 0.48722 0.48843 0.99704 0.0
C3258 C 0.52769 0.49805 1.0379 0.0
C3259 C 0.47357 0.4917 1.02091 0.0
C3260 C 0.53448 0.51758 0.07937 0.0
C3261 C 0.60232 0.5083 0.07696 0.0
N3262 N 0.49384 0.49777 1.04036 0.0
N3263 N 0.58249 0.50538 0.05649 0.0
H3264 H 0.47261 0.99518 0.97426 0.0
H3265 H 0.34603 0.96159 0.88143 0.0
H3266 H 0.37201 0.97384 0.991 0.0
H3267 H 0.44888 0.98009 0.86798 0.0
H3268 H 0.3631 0.94378 0.92153 0.0
H3269 H 0.47463 0.96618 0.94066 0.0
C3270 C 0.45138 0.98369 0.9713 0.0
C3271 C 0.42145 0.98746 0.98407 0.0
C3272 C 0.38216 0.95096 0.90936 0.0
C3273 C 0.42245 0.95593 0.94491 0.0
C3274 C 0.37219 0.96149 0.88672 0.0
C3275 C 0.39554 0.97359 0.87218 0.0
C3276 C 0.41553 0.95334 0.91768 0.0
C3277 C 0.42958 0.97164 0.8789 0.0
C3278 C 0.45241 0.96708 0.95219 0.0
C3279 C 0.39495 0.97192 0.98046 0.0
N3280 N 0.43843 0.96226 0.90147 0.0
N3281 N 0.39557 0.9572 0.96048 0.0
H3282 H 0.94798 0.28058 0.98898 0.0
H3283 H 0.8822 0.27631 0.86076 0.0
H3284 H 0.85245 0.25272 0.9663 0.0
H3285 H 0.97259 0.31267 0.88251 0.0
H3286 H 0.857 0.28759 0.8998 0.0
H3287 H 0.94301 0.31063 0.95603 0.0
C3288 C 0.9256 0.28126 0.97728 0.0
C3289 C 0.90158 0.26355 0.97877 0.0
C3290 C 0.88205 0.29377 0.89591 0.0
C3291 C 0.89593 0.29709 0.94116 0.0
C3292 C 0.8966 0.28733 0.87336 0.0
C3293 C 0.9304 0.29249 0.86887 0.0
C3294 C 0.90216 0.30386 0.91475 0.0
C3295 C 0.94721 0.30702 0.88596 0.0
C3296 C 0.9225 0.2985 0.95867 0.0
C3297 C 0.87234 0.26546 0.96436 0.0
N3298 N 0.93332 0.31154 0.90863 0.0
N3299 N 0.87059 0.28168 0.94561 0.0
H3300 H 0.4043 0.31286 0.35134 0.0
H3301 H 0.44495 0.26763 0.48905 0.0
H3302 H 0.49932 0.28436 0.37666 0.0
H3303 H 0.34773 0.26454 0.45298 0.0
H3304 H 0.46492 0.29163 0.45442 0.0
H3305 H 0.38529 0.31344 0.395 0.0
C3306 C 0.42165 0.30771 0.36622 0.0
C3307 C 0.45316 0.29812 0.36049 0.0
C3308 C 0.43892 0.28629 0.45451 0.0
C3309 C 0.43168 0.29878 0.40999 0.0
C3310 C 0.42735 0.27261 0.47428 0.0
C3311 C 0.39442 0.26397 0.47386 0.0
C3312 C 0.41762 0.29114 0.43406 0.0
C3313 C 0.3732 0.27067 0.45394 0.0
C3314 C 0.41074 0.30797 0.39101 0.0
C3315 C 0.47483 0.29183 0.38032 0.0
N3316 N 0.38531 0.28364 0.43456 0.0
N3317 N 0.46337 0.29175 0.40427 0.0
H3318 H 0.85251 1.00047 0.38519 0.0
H3319 H 0.97955 0.96196 0.474 0.0
H3320 H 0.94848 0.9715 0.36543 0.0
H3321 H 0.87837 0.98333 0.49075 0.0
H3322 H 0.95922 0.94399 0.43523 0.0
H3323 H 0.84866 0.97176 0.41939 0.0
C3324 C 0.87234 0.98754 0.38782 0.0
C3325 C 0.9018 0.98899 0.37405 0.0
C3326 C 0.94123 0.95186 0.44785 0.0
C3327 C 0.89901 0.95769 0.41367 0.0
C3328 C 0.95308 0.96248 0.46973 0.0
C3329 C 0.93113 0.97527 0.48482 0.0
C3330 C 0.90744 0.95506 0.44068 0.0
C3331 C 0.89663 0.97422 0.47937 0.0
C3332 C 0.87023 0.97103 0.40718 0.0
C3333 C 0.92627 0.97151 0.37698 0.0
N3334 N 0.88597 0.96482 0.45744 0.0
N3335 N 0.92488 0.95685 0.39713 0.0
H3336 H 0.60186 0.02752 0.13895 0.0
H3337 H 0.72028 0.99997 0.21511 0.0
H3338 H 0.70358 0.01994 0.11402 0.0
H3339 H 0.63617 0.04156 0.23934 0.0
H3340 H 0.73019 0.02848 0.18165 0.0
H3341 H 0.62063 0.05493 0.17097 0.0
C3342 C 0.62808 0.0318 0.14025 0.0
C3343 C 0.65146 0.02014 0.12549 0.0
C3344 C 0.70985 0.03186 0.19452 0.0
C3345 C 0.67369 0.0502 0.16257 0.0
C3346 C 0.70394 0.01523 0.21319 0.0
C3347 C 0.67547 0.01754 0.22792 0.0
C3348 C 0.6848 0.04888 0.18912 0.0
C3349 C 0.65674 0.03843 0.22661 0.0
C3350 C 0.63899 0.04786 0.15811 0.0
C3351 C 0.68494 0.02754 0.12629 0.0
N3352 N 0.66121 0.05327 0.2069 0.0
N3353 N 0.69531 0.04184 0.14504 0.0
H3354 H 0.12061 0.73621 0.11411 0.0
H3355 H 0.17437 0.69237 0.2499 0.0
H3356 H 0.21998 0.74086 0.14608 0.0
H3357 H 0.07507 0.71515 0.22756 0.0
H3358 H 0.19048 0.69175 0.20561 0.0
H3359 H 0.10484 0.7099 0.14863 0.0
C3360 C 0.13939 0.73107 0.12799 0.0
C3361 C 0.17127 0.74123 0.12795 0.0
C3362 C 0.16484 0.69603 0.2104 0.0
C3363 C 0.15348 0.71142 0.16712 0.0
C3364 C 0.15563 0.69644 0.23561 0.0
C3365 C 0.12356 0.70438 0.24236 0.0
C3366 C 0.14175 0.70352 0.19194 0.0
C3367 C 0.10008 0.70906 0.22318 0.0
C3368 C 0.13038 0.7161 0.14762 0.0
C3369 C 0.19484 0.73387 0.14606 0.0
N3370 N 0.10989 0.70908 0.19878 0.0
N3371 N 0.18528 0.71972 0.1653 0.0
H3372 H 0.68919 0.72258 0.74606 0.0
H3373 H 0.6229 0.72589 0.61724 0.0
H3374 H 0.59866 0.68597 0.72456 0.0
H3375 H 0.72284 0.74598 0.63881 0.0
H3376 H 0.62334 0.69615 0.65069 0.0
H3377 H 0.71218 0.7145 0.70581 0.0
C3378 C 0.67422 0.71209 0.73336 0.0
C3379 C 0.64097 0.70582 0.73873 0.0
C3380 C 0.64572 0.70641 0.64764 0.0
C3381 C 0.66689 0.69832 0.69101 0.0
C3382 C 0.64528 0.72346 0.62869 0.0
C3383 C 0.67215 0.73897 0.62662 0.0
C3384 C 0.67286 0.70561 0.66472 0.0
C3385 C 0.70106 0.73491 0.64098 0.0
C3386 C 0.68758 0.7076 0.7099 0.0
C3387 C 0.62356 0.69242 0.72084 0.0
N3388 N 0.70043 0.71888 0.65991 0.0
N3389 N 0.63622 0.68989 0.69737 0.0
H3390 H 0.13461 0.02679 0.7443 0.0
H3391 H 0.18046 0.02909 0.60977 0.0
H3392 H 0.23149 0.01877 0.70981 0.0
H3393 H 0.08683 0.01067 0.6445 0.0
H3394 H 0.19159 0.05629 0.64363 0.0
H3395 H 0.11684 0.05197 0.70974 0.0
C3396 C 0.15275 0.03108 0.72996 0.0
C3397 C 0.18422 0.0198 0.72922 0.0
C3398 C 0.16774 0.04729 0.64319 0.0
C3399 C 0.16312 0.04774 0.68921 0.0
C3400 C 0.16139 0.03149 0.62391 0.0
C3401 C 0.13329 0.01672 0.62512 0.0
C3402 C 0.14696 0.04707 0.66428 0.0
C3403 C 0.10953 0.02092 0.64366 0.0
C3404 C 0.14255 0.04572 0.7103 0.0
C3405 C 0.20649 0.02621 0.71034 0.0
N3406 N 0.11723 0.03544 0.66296 0.0
N3407 N 0.19522 0.0394 0.69063 0.0
H3408 H 0.35613 0.49025 0.4863 0.0
H3409 H 0.45293 0.46504 0.37392 0.0
H3410 H 0.46079 0.47308 0.47932 0.0
H3411 H 0.35297 0.49331 0.37886 0.0
H3412 H 0.44185 0.43963 0.41017 0.0
H3413 H 0.34345 0.46348 0.45164 0.0
C3414 C 0.37624 0.48005 0.47805 0.0
C3415 C 0.40964 0.48466 0.48426 0.0
C3416 C 0.42176 0.45067 0.4028 0.0
C3417 C 0.39571 0.4551 0.4445 0.0
C3418 C 0.4283 0.46529 0.38232 0.0
C3419 C 0.40443 0.48206 0.37487 0.0
C3420 C 0.39246 0.45463 0.41676 0.0
C3421 C 0.3725 0.4813 0.38527 0.0
C3422 C 0.36906 0.46464 0.45841 0.0
C3423 C 0.43482 0.4707 0.47388 0.0
N3424 N 0.36762 0.46826 0.40636 0.0
N3425 N 0.42744 0.45683 0.45399 0.0
H3426 H 0.85224 0.74454 0.46526 0.0
H3427 H 0.96235 0.81613 0.3821 0.0
H3428 H 0.94072 0.78243 0.48712 0.0
H3429 H 0.88133 0.77007 0.36089 0.0
H3430 H 0.93355 0.82437 0.42151 0.0
H3431 H 0.84085 0.77421 0.43258 0.0
C3432 C 0.86894 0.75938 0.46321 0.0
C3433 C 0.89862 0.76054 0.47714 0.0
C3434 C 0.9215 0.81317 0.40776 0.0
C3435 C 0.88665 0.79369 0.44004 0.0
C3436 C 0.93824 0.80816 0.38552 0.0
C3437 C 0.92511 0.79146 0.36896 0.0
C3438 C 0.89245 0.8005 0.41368 0.0
C3439 C 0.89299 0.78257 0.37348 0.0
C3440 C 0.86227 0.7765 0.44498 0.0
C3441 C 0.91864 0.7805 0.47532 0.0
N3442 N 0.87811 0.78679 0.39573 0.0
N3443 N 0.91283 0.79612 0.45642 0.0
H3444 H 0.38432 0.76485 0.86285 0.0
H3445 H 0.44225 0.78699 0.98926 0.0
H3446 H 0.45518 0.81984 0.87989 0.0
H3447 H 0.3521 0.7491 0.9718 0.0
H3448 H 0.43087 0.81352 0.95391 0.0
H3449 H 0.35653 0.77221 0.90185 0.0
C3450 C 0.39359 0.77906 0.87446 0.0
C3451 C 0.4228 0.79142 0.8683 0.0
C3452 C 0.41272 0.80004 0.95825 0.0
C3453 C 0.39194 0.79888 0.91429 0.0
C3454 C 0.41938 0.7849 0.97837 0.0
C3455 C 0.39887 0.76542 0.98216 0.0
C3456 C 0.38664 0.79448 0.94136 0.0
C3457 C 0.36911 0.76354 0.96842 0.0
C3458 C 0.37752 0.78328 0.89697 0.0
C3459 C 0.43357 0.80928 0.88442 0.0
N3460 N 0.36425 0.77755 0.94797 0.0
N3461 N 0.41866 0.81206 0.90708 0.0
H3462 H 0.85407 0.49491 0.87744 0.0
H3463 H 0.97262 0.47147 0.97113 0.0
H3464 H 0.95375 0.46826 0.86549 0.0
H3465 H 0.86783 0.4848 0.98327 0.0
H3466 H 0.95812 0.44588 0.93606 0.0
H3467 H 0.84757 0.46695 0.91203 0.0
C3468 C 0.87411 0.48246 0.88161 0.0
C3469 C 0.90523 0.48461 0.87007 0.0
C3470 C 0.93804 0.45385 0.94669 0.0
C3471 C 0.89899 0.45413 0.91027 0.0
C3472 C 0.94654 0.46867 0.96647 0.0
C3473 C 0.92149 0.48138 0.97861 0.0
C3474 C 0.90463 0.45364 0.93789 0.0
C3475 C 0.88794 0.47622 0.97322 0.0
C3476 C 0.87044 0.46635 0.90124 0.0
C3477 C 0.93003 0.46778 0.87519 0.0
N3478 N 0.8804 0.46325 0.95263 0.0
N3479 N 0.92673 0.45345 0.8955 0.0
H3480 H 0.6046 0.51206 0.73569 0.0
H3481 H 0.70238 0.53594 0.62409 0.0
H3482 H 0.70752 0.53343 0.73097 0.0
H3483 H 0.60256 0.50823 0.62809 0.0
H3484 H 0.69005 0.56176 0.65949 0.0
H3485 H 0.59092 0.53729 0.69965 0.0
C3486 C 0.62397 0.52298 0.72772 0.0
C3487 C 0.65737 0.52008 0.73523 0.0
C3488 C 0.67027 0.55073 0.65211 0.0
C3489 C 0.6426 0.54753 0.69344 0.0
C3490 C 0.67751 0.53592 0.63207 0.0
C3491 C 0.65397 0.51925 0.62458 0.0
C3492 C 0.64053 0.54715 0.66562 0.0
C3493 C 0.62176 0.52024 0.63448 0.0
C3494 C 0.61625 0.53743 0.70714 0.0
C3495 C 0.68164 0.53465 0.72476 0.0
N3496 N 0.61617 0.53349 0.65518 0.0
N3497 N 0.67395 0.54741 0.70385 0.0
H3498 H 0.11776 0.18303 0.72645 0.0
H3499 H 0.22251 0.25549 0.63543 0.0
H3500 H 0.19245 0.23551 0.74326 0.0
H3501 H 0.13154 0.21833 0.61842 0.0
H3502 H 0.23373 0.22796 0.67019 0.0
H3503 H 0.14441 0.17661 0.68572 0.0
C3504 C 0.14011 0.19278 0.72183 0.0
C3505 C 0.15199 0.21046 0.73777 0.0
C3506 C 0.21204 0.22515 0.6582 0.0
C3507 C 0.18246 0.20321 0.69163 0.0
C3508 C 0.20559 0.24094 0.63859 0.0
C3509 C 0.17536 0.23951 0.62528 0.0
C3510 C 0.18723 0.20882 0.66485 0.0
C3511 C 0.1545 0.22026 0.62921 0.0
C3512 C 0.15563 0.18886 0.69883 0.0
C3513 C 0.18188 0.22193 0.73145 0.0
N3514 N 0.16034 0.20589 0.64923 0.0
N3515 N 0.19564 0.21846 0.70862 0.0
H3516 H 0.63348 0.2305 0.11472 0.0
H3517 H 0.66711 0.1867 0.25418 0.0
H3518 H 0.72852 0.23763 0.15339 0.0
H3519 H 0.57642 0.22062 0.22737 0.0
H3520 H 0.68817 0.1864 0.21096 0.0
H3521 H 0.61296 0.20737 0.14976 0.0
C3522 C 0.65062 0.22647 0.1301 0.0
C3523 C 0.68294 0.23613 0.13119 0.0
C3524 C 0.66315 0.193 0.21454 0.0
C3525 C 0.65903 0.20994 0.17138 0.0
C3526 C 0.65107 0.19312 0.23902 0.0
C3527 C 0.6201 0.20383 0.24422 0.0
C3528 C 0.64382 0.20334 0.1953 0.0
C3529 C 0.60024 0.21199 0.22409 0.0
C3530 C 0.63869 0.21331 0.15011 0.0
C3531 C 0.7035 0.23064 0.15192 0.0
N3532 N 0.61275 0.21197 0.20046 0.0
N3533 N 0.691 0.21815 0.17151 0.0
H3534 H 0.0988 0.52974 0.13762 0.0
H3535 H 0.22241 0.50806 0.21925 0.0
H3536 H 0.2028 0.5232 0.11811 0.0
H3537 H 0.12582 0.53594 0.23902 0.0
H3538 H 0.22731 0.53866 0.18708 0.0
H3539 H 0.11399 0.55763 0.17036 0.0
C3540 C 0.12478 0.53444 0.14019 0.0
C3541 C 0.14978 0.52294 0.12678 0.0
C3542 C 0.20524 0.53864 0.19879 0.0
C3543 C 0.16777 0.55309 0.16507 0.0
C3544 C 0.20239 0.52088 0.21678 0.0
C3545 C 0.17234 0.51852 0.22964 0.0
C3546 C 0.17644 0.55194 0.19222 0.0
C3547 C 0.14817 0.53632 0.22762 0.0
C3548 C 0.13365 0.55063 0.15858 0.0
C3549 C 0.18292 0.53067 0.12933 0.0
N3550 N 0.15034 0.55223 0.20861 0.0
N3551 N 0.19118 0.54492 0.14872 0.0
H3552 H 0.3676 0.19749 0.1745 0.0
H3553 H 0.28683 0.0697 0.16455 0.0
H3554 H 0.29773 0.17474 0.23079 0.0
H3555 H 0.39122 0.08139 0.15096 0.0
H3556 H 0.28302 0.10969 0.18277 0.0
H3557 H 0.36932 0.15707 0.15792 0.0
C3558 C 0.35225 0.18407 0.18314 0.0
C3559 C 0.33234 0.18957 0.20397 0.0
C3560 C 0.30663 0.10355 0.1753 0.0
C3561 C 0.33362 0.14326 0.18474 0.0
C3562 C 0.30884 0.08072 0.16492 0.0
C3563 C 0.33909 0.07257 0.15455 0.0
C3564 C 0.33476 0.11843 0.1751 0.0
C3565 C 0.36687 0.08754 0.15635 0.0
C3566 C 0.35337 0.16097 0.17377 0.0
C3567 C 0.31337 0.17128 0.21467 0.0
N3568 N 0.364 0.10969 0.16591 0.0
N3569 N 0.31415 0.14907 0.20479 0.0
H3570 H 0.98268 0.05764 0.16653 0.0
H3571 H 0.98738 0.19722 0.19051 0.0
H3572 H 0.99752 0.08725 0.24031 0.0
H3573 H 0.99691 0.16638 0.11694 0.0
H3574 H 0.98922 0.15755 0.20927 0.0
H3575 H 0.98567 0.0973 0.14821 0.0
C3576 C 0.98669 0.07246 0.17893 0.0
C3577 C 0.98928 0.06896 0.20513 0.0
C3578 C 0.99093 0.15943 0.18901 0.0
C3579 C 0.99256 0.11485 0.18411 0.0
C3580 C 0.99001 0.18215 0.17826 0.0
C3581 C 0.99134 0.1853 0.15198 0.0
C3582 C 0.99314 0.1395 0.17345 0.0
C3583 C 0.99492 0.16494 0.1372 0.0
C3584 C 0.98832 0.09518 0.16842 0.0
C3585 C 0.99462 0.08902 0.2201 0.0
N3586 N 0.99532 0.14305 0.14805 0.0
N3587 N 0.99575 0.111 0.20946 0.0
H3588 H 0.73909 0.83413 0.86573 0.0
H3589 H 0.75116 0.91313 0.99086 0.0
H3590 H 0.7432 0.80404 0.94035 0.0
H3591 H 0.73211 0.94198 0.91682 0.0
H3592 H 0.75147 0.87337 0.97287 0.0
H3593 H 0.73912 0.87352 0.88395 0.0
C3594 C 0.73962 0.83571 0.88596 0.0
C3595 C 0.74028 0.81545 0.90134 0.0
C3596 C 0.74722 0.88836 0.96052 0.0
C3597 C 0.74173 0.86113 0.92272 0.0
C3598 C 0.74693 0.91114 0.97082 0.0
C3599 C 0.74103 0.93109 0.95546 0.0
C3600 C 0.74207 0.88528 0.93448 0.0
C3601 C 0.73668 0.92726 0.92948 0.0
C3602 C 0.73998 0.85836 0.89643 0.0
C3603 C 0.74236 0.81898 0.92758 0.0
N3604 N 0.73718 0.90495 0.9199 0.0
N3605 N 0.74301 0.84124 0.93737 0.0
H3606 H 0.09089 0.80671 0.91686 0.0
H3607 H 0.09251 0.94645 0.93999 0.0
H3608 H 0.08263 0.8372 0.99071 0.0
H3609 H 0.07773 0.9158 0.86671 0.0
H3610 H 0.091 0.90693 0.95886 0.0
H3611 H 0.08817 0.84626 0.89827 0.0
C3612 C 0.08848 0.8217 0.92926 0.0
C3613 C 0.08768 0.81841 0.95556 0.0
C3614 C 0.08815 0.90879 0.93864 0.0
C3615 C 0.08475 0.86426 0.93413 0.0
C3616 C 0.08893 0.93143 0.9278 0.0
C3617 C 0.08599 0.93463 0.90154 0.0
C3618 C 0.08442 0.88889 0.92323 0.0
C3619 C 0.08118 0.91432 0.8869 0.0
C3620 C 0.087 0.84438 0.91855 0.0
C3621 C 0.08428 0.83873 0.97043 0.0
N3622 N 0.08085 0.89244 0.89786 0.0
N3623 N 0.08327 0.86067 0.95958 0.0
H3624 H 0.33481 0.66849 0.73836 0.0
H3625 H 0.33034 0.58943 0.61265 0.0
H3626 H 0.33428 0.69832 0.66357 0.0
H3627 H 0.34199 0.56033 0.68739 0.0
H3628 H 0.32891 0.62916 0.63076 0.0
H3629 H 0.33505 0.62897 0.72017 0.0
C3630 C 0.33508 0.66682 0.71812 0.0
C3631 C 0.33524 0.68703 0.70266 0.0
C3632 C 0.33178 0.6141 0.64324 0.0
C3633 C 0.33442 0.64128 0.68133 0.0
C3634 C 0.33275 0.59133 0.63286 0.0
C3635 C 0.33709 0.57131 0.64837 0.0
C3636 C 0.33459 0.61712 0.66949 0.0
C3637 C 0.33891 0.5751 0.67455 0.0
C3638 C 0.33492 0.64411 0.70766 0.0
C3639 C 0.33437 0.68342 0.6764 0.0
N3640 N 0.33781 0.59738 0.68419 0.0
N3641 N 0.33404 0.66115 0.66665 0.0
H3642 H 1.00089 0.66684 0.61587 0.0
H3643 H 0.9906 0.58719 0.74183 0.0
H3644 H 0.98376 0.69591 0.68943 0.0
H3645 H 0.98795 0.55828 0.66696 0.0
H3646 H 0.99302 0.62693 0.72346 0.0
H3647 H 1.00134 0.62714 0.63451 0.0
C3648 C 0.99726 0.66492 0.63596 0.0
C3649 C 0.99169 0.68489 0.65096 0.0
C3650 C 0.99196 0.61191 0.71102 0.0
C3651 C 0.99287 0.63916 0.67271 0.0
C3652 C 0.99048 0.58912 0.72152 0.0
C3653 C 0.98841 0.56914 0.70603 0.0
C3654 C 0.99207 0.61498 0.68468 0.0
C3655 C 0.98927 0.573 0.67979 0.0
C3656 C 0.99755 0.64218 0.64663 0.0
C3657 C 0.98798 0.68114 0.67703 0.0
N3658 N 0.99094 0.5953 0.67003 0.0
N3659 N 0.9885 0.65886 0.68699 0.0
H3660 H 0.74449 0.30526 0.44145 0.0
H3661 H 0.72398 0.44482 0.41574 0.0
H3662 H 0.73601 0.33586 0.36723 0.0
H3663 H 0.7482 0.41559 0.4888 0.0
H3664 H 0.72685 0.40506 0.39786 0.0
H3665 H 0.74501 0.34506 0.45931 0.0
C3666 C 0.74247 0.32027 0.42882 0.0
C3667 C 0.73923 0.31691 0.40263 0.0
C3668 C 0.73158 0.40728 0.41781 0.0
C3669 C 0.73956 0.36296 0.4232 0.0
C3670 C 0.73004 0.43007 0.42804 0.0
C3671 C 0.73534 0.4337 0.45394 0.0
C3672 C 0.73862 0.38771 0.43349 0.0
C3673 C 0.74315 0.41373 0.46885 0.0
C3674 C 0.74274 0.34309 0.4391 0.0
C3675 C 0.73724 0.3373 0.38744 0.0
N3676 N 0.74434 0.39173 0.4585 0.0
N3677 N 0.73715 0.35926 0.39787 0.0
H3678 H 0.08239 0.33674 0.49176 0.0
H3679 H 0.07827 0.41688 0.36576 0.0
H3680 H 0.08999 0.30828 0.41694 0.0
H3681 H 0.09301 0.44574 0.43988 0.0
H3682 H 0.07723 0.3772 0.38435 0.0
H3683 H 0.08108 0.37667 0.47352 0.0
C3684 C 0.08386 0.33882 0.47151 0.0
C3685 C 0.08701 0.31892 0.45599 0.0
C3686 C 0.08071 0.39218 0.39659 0.0
C3687 C 0.08454 0.3649 0.43477 0.0
C3688 C 0.08149 0.41492 0.38594 0.0
C3689 C 0.08663 0.43483 0.40111 0.0
C3690 C 0.08436 0.3891 0.42282 0.0
C3691 C 0.08931 0.43102 0.42731 0.0
C3692 C 0.08301 0.36169 0.46107 0.0
C3693 C 0.08781 0.32294 0.42978 0.0
N3694 N 0.08827 0.40874 0.43726 0.0
N3695 N 0.08667 0.34529 0.42009 0.0
H3696 H 0.82758 0.09035 0.61705 0.0
H3697 H 0.83311 0.16965 0.74225 0.0
H3698 H 0.84118 0.0606 0.69134 0.0
H3699 H 0.83739 0.19857 0.66717 0.0
H3700 H 0.83317 0.12984 0.72449 0.0
H3701 H 0.82789 0.12984 0.63527 0.0
C3702 C 0.83101 0.09206 0.6372 0.0
C3703 C 0.83535 0.07191 0.6525 0.0
C3704 C 0.83417 0.14487 0.71186 0.0
C3705 C 0.8344 0.1176 0.67386 0.0
C3706 C 0.83447 0.1677 0.72206 0.0
C3707 C 0.83605 0.18771 0.70636 0.0
C3708 C 0.83479 0.14178 0.68558 0.0
C3709 C 0.83637 0.18383 0.68017 0.0
C3710 C 0.83088 0.11473 0.64766 0.0
C3711 C 0.83803 0.0755 0.67868 0.0
N3712 N 0.83575 0.16149 0.6707 0.0
N3713 N 0.8376 0.09777 0.68846 0.0
H3714 H 0.4991 0.16633 0.61249 0.0
H3715 H 0.50297 0.08497 0.73727 0.0
H3716 H 0.48674 0.19356 0.68742 0.0
H3717 H 0.48657 0.05596 0.66343 0.0
H3718 H 0.50354 0.12452 0.71884 0.0
H3719 H 0.50074 0.12612 0.63006 0.0
C3720 C 0.49651 0.16393 0.63262 0.0
C3721 C 0.4919 0.18359 0.64833 0.0
C3722 C 0.49986 0.10959 0.70656 0.0
C3723 C 0.49495 0.13721 0.66882 0.0
C3724 C 0.4994 0.08684 0.71711 0.0
C3725 C 0.49385 0.06685 0.70208 0.0
C3726 C 0.49559 0.11277 0.68044 0.0
C3727 C 0.49068 0.07069 0.67591 0.0
C3728 C 0.49762 0.14087 0.64267 0.0
C3729 C 0.49004 0.17913 0.67441 0.0
N3730 N 0.49149 0.09308 0.66599 0.0
N3731 N 0.4915 0.15661 0.68373 0.0
H3732 H 0.24607 0.83329 0.36816 0.0
H3733 H 0.25037 0.91314 0.49262 0.0
H3734 H 0.23884 0.80378 0.44275 0.0
H3735 H 0.23476 0.94155 0.41794 0.0
H3736 H 0.25073 0.87324 0.47498 0.0
H3737 H 0.24584 0.87279 0.386 0.0
C3738 C 0.24392 0.83504 0.38826 0.0
C3739 C 0.24143 0.81492 0.4037 0.0
C3740 C 0.24722 0.88818 0.46243 0.0
C3741 C 0.24284 0.8607 0.42479 0.0
C3742 C 0.24692 0.91104 0.47251 0.0
C3743 C 0.24182 0.93091 0.45689 0.0
C3744 C 0.2431 0.88493 0.43633 0.0
C3745 C 0.23857 0.9269 0.43084 0.0
C3746 C 0.2442 0.85774 0.39855 0.0
C3747 C 0.24047 0.81861 0.42992 0.0
N3748 N 0.23917 0.90451 0.42146 0.0
N3749 N 0.2412 0.84093 0.43958 0.0
H3750 H 0.5865 0.80742 0.4159 0.0
H3751 H 0.59064 0.94743 0.44152 0.0
H3752 H 0.57983 0.83682 0.49031 0.0
H3753 H 0.57363 0.91774 0.36809 0.0
H3754 H 0.58895 0.90743 0.45982 0.0
H3755 H 0.58399 0.84747 0.39808 0.0
C3756 C 0.58437 0.82224 0.42856 0.0
C3757 C 0.584 0.81848 0.45479 0.0
C3758 C 0.58561 0.90965 0.43968 0.0
C3759 C 0.58142 0.86493 0.43432 0.0
C3760 C 0.58644 0.93258 0.4292 0.0
C3761 C 0.58296 0.93619 0.40304 0.0
C3762 C 0.58127 0.88991 0.42399 0.0
C3763 C 0.57752 0.91601 0.38821 0.0
C3764 C 0.58307 0.84522 0.41833 0.0
C3765 C 0.58103 0.83865 0.47004 0.0
N3766 N 0.57714 0.89395 0.39876 0.0
N3767 N 0.58022 0.86081 0.45968 0.0
H3768 H 0.87112 0.56098 0.18151 0.0
H3769 H 0.80433 0.69548 0.17385 0.0
H3770 H 0.80407 0.58561 0.12296 0.0
H3771 H 0.87374 0.66914 0.22976 0.0
H3772 H 0.80243 0.65591 0.15517 0.0
H3773 H 0.87202 0.60079 0.19922 0.0
C3774 C 0.85616 0.57475 0.1726 0.0
C3775 C 0.83719 0.56987 0.15091 0.0
C3776 C 0.81822 0.65884 0.17152 0.0
C3777 C 0.83776 0.6158 0.17126 0.0
C3778 C 0.81932 0.6815 0.18225 0.0
C3779 C 0.83932 0.68595 0.2037 0.0
C3780 C 0.8376 0.64034 0.18205 0.0
C3781 C 0.85786 0.66686 0.21363 0.0
C3782 C 0.85678 0.59756 0.18265 0.0
C3783 C 0.81898 0.58859 0.13975 0.0
N3784 N 0.8567 0.64515 0.20278 0.0
N3785 N 0.8195 0.61061 0.15012 0.0
H3786 H 0.496 0.58672 0.24107 0.0
H3787 H 0.4923 0.66661 0.11495 0.0
H3788 H 0.47996 0.55823 0.16691 0.0
H3789 H 0.48437 0.69554 0.18954 0.0
H3790 H 0.49327 0.62682 0.13344 0.0
H3791 H 0.4973 0.62649 0.22256 0.0
C3792 C 0.49261 0.58878 0.22091 0.0
C3793 C 0.48715 0.56896 0.20568 0.0
C3794 C 0.49133 0.64186 0.14579 0.0
C3795 C 0.48955 0.61469 0.1841 0.0
C3796 C 0.49066 0.66465 0.1352 0.0
C3797 C 0.48747 0.68462 0.15058 0.0
C3798 C 0.48962 0.63883 0.1721 0.0
C3799 C 0.48654 0.68079 0.17682 0.0
C3800 C 0.49348 0.61155 0.21031 0.0
C3801 C 0.48401 0.57287 0.17952 0.0
N3802 N 0.48752 0.6585 0.18667 0.0
N3803 N 0.48516 0.59513 0.16965 0.0
H3804 H 0.23018 0.44339 0.91693 0.0
H3805 H 0.24542 0.30341 0.94234 0.0
H3806 H 0.24888 0.41337 0.9905 0.0
H3807 H 0.23516 0.33442 0.86838 0.0
H3808 H 0.24638 0.34312 0.96042 0.0
H3809 H 0.23165 0.40368 0.89897 0.0
C3810 C 0.23473 0.42847 0.92935 0.0
C3811 C 0.2389 0.43189 0.9554 0.0
C3812 C 0.24374 0.34126 0.94022 0.0
C3813 C 0.24049 0.38592 0.93483 0.0
C3814 C 0.2432 0.3185 0.92983 0.0
C3815 C 0.23962 0.3153 0.90366 0.0
C3816 C 0.2406 0.36122 0.92445 0.0
C3817 C 0.23714 0.33575 0.88859 0.0
C3818 C 0.23542 0.4057 0.91906 0.0
C3819 C 0.24474 0.41169 0.97042 0.0
N3820 N 0.23752 0.35765 0.89913 0.0
N3821 N 0.24518 0.38971 0.96 0.0
H3822 H 0.64171 0.32505 0.95638 0.0
H3823 H 0.55688 0.4198 0.86601 0.0
H3824 H 0.53887 0.31535 0.93469 0.0
H3825 H 0.6198 0.44015 0.92839 0.0
H3826 H 0.55502 0.3793 0.88352 0.0
H3827 H 0.63981 0.36496 0.9391 0.0
C3828 C 0.61828 0.33165 0.94897 0.0
C3829 C 0.58976 0.31735 0.949 0.0
C3830 C 0.56913 0.3927 0.89334 0.0
C3831 C 0.58822 0.36261 0.9264 0.0
C3832 C 0.57034 0.41574 0.88332 0.0
C3833 C 0.58841 0.43344 0.89582 0.0
C3834 C 0.58706 0.38711 0.91556 0.0
C3835 C 0.60532 0.42717 0.91823 0.0
C3836 C 0.61745 0.35428 0.93839 0.0
C3837 C 0.56123 0.32595 0.93594 0.0
N3838 N 0.60462 0.40458 0.92713 0.0
N3839 N 0.56115 0.34801 0.92519 0.0
H3840 H 0.32195 0.02236 1.02417 0.0
H3841 H 0.13145 0.9968 0.96977 0.0
H3842 H 0.24952 0.98433 0.06725 0.0
H3843 H 0.21371 0.00824 0.91975 0.0
H3844 H 0.17141 0.99693 1.00583 0.0
H3845 H 0.28283 0.02158 0.98756 0.0
C3846 C 0.29786 0.01404 1.02653 0.0
C3847 C 0.29012 0.00386 1.05045 0.0
C3848 C 0.18105 0.99944 0.98703 0.0
C3849 C 0.2426 0.0034 1.00663 0.0
C3850 C 0.15775 0.99944 0.96596 0.0
C3851 C 0.16797 0.00237 0.94046 0.0
C3852 C 0.21605 0.00298 0.98376 0.0
C3853 C 0.2034 0.00562 0.93827 0.0
C3854 C 0.27506 0.0136 1.00511 0.0
C3855 C 0.25765 0.99322 1.05051 0.0
N3856 N 0.22527 0.00602 0.95898 0.0
N3857 N 0.2358 0.99359 1.02982 0.0
H3858 H 0.13402 0.28439 0.93419 0.0
H3859 H 0.04056 0.21187 1.04768 0.0
H3860 H 0.17431 0.21802 0.95965 0.0
H3861 H 0.04484 0.28738 1.04931 0.0
H3862 H 0.08103 0.21197 1.01244 0.0
H3863 H 0.0954 0.28434 0.97042 0.0
C3864 C 0.13523 0.26962 0.94717 0.0
C3865 C 0.15929 0.25135 0.94267 0.0
C3866 C 0.07317 0.22868 1.02021 0.0
C3867 C 0.11163 0.25079 0.98618 0.0
C3868 C 0.04936 0.22868 1.04076 0.0
C3869 C 0.0376 0.24966 1.05269 0.0
C3870 C 0.08595 0.24992 1.00962 0.0
C3871 C 0.05187 0.27044 1.04168 0.0
C3872 C 0.1126 0.26967 0.96839 0.0
C3873 C 0.15765 0.23299 0.96137 0.0
N3874 N 0.074 0.26998 1.02129 0.0
N3875 N 0.13475 0.23312 0.98132 0.0
H3876 H 0.23849 0.26659 0.28467 0.0
H3877 H 0.21163 0.24189 0.43632 0.0
H3878 H 0.31556 0.23517 0.33104 0.0
H3879 H 0.1298 0.26019 0.38681 0.0
H3880 H 0.24965 0.24168 0.39989 0.0
H3881 H 0.20069 0.26666 0.32105 0.0
C3882 C 0.24809 0.25967 0.30228 0.0
C3883 C 0.28171 0.25086 0.30339 0.0
C3884 C 0.22346 0.24583 0.39669 0.0
C3885 C 0.23599 0.25105 0.34766 0.0
C3886 C 0.2012 0.24612 0.41799 0.0
C3887 C 0.16619 0.25121 0.41595 0.0
C3888 C 0.21198 0.25096 0.3718 0.0
C3889 C 0.15587 0.25602 0.39049 0.0
C3890 C 0.22581 0.25969 0.32358 0.0
C3891 C 0.29062 0.24226 0.32802 0.0
N3892 N 0.17805 0.25591 0.3702 0.0
N3893 N 0.26861 0.24269 0.34844 0.0
H3894 H 0.07432 0.97925 0.28917 0.0
H3895 H 0.11224 0.0081 0.43778 0.0
H3896 H 1.00626 0.02229 0.33103 0.0
H3897 H 0.19169 0.99191 0.38665 0.0
H3898 H 0.0723 0.00919 0.40187 0.0
H3899 H 0.11413 0.97994 0.32452 0.0
C3900 C 0.06731 0.98926 0.30537 0.0
C3901 C 1.03577 0.00135 0.3052 0.0
C3902 C 0.09838 0.00536 0.3982 0.0
C3903 C 0.08329 1.00094 0.34923 0.0
C3904 C 0.12178 0.00459 0.41918 0.0
C3905 C 0.15679 0.99989 0.41651 0.0
C3906 C 0.10856 1.00086 0.37307 0.0
C3907 C 0.16577 0.9958 0.39082 0.0
C3908 C 0.09063 0.98938 0.3263 0.0
C3909 C 1.02961 0.01278 0.32879 0.0
N3910 N 0.14246 0.99614 0.37091 0.0
N3911 N 0.05231 0.01208 0.34916 0.0
H3912 H 0.87538 0.03022 0.17483 0.0
H3913 H 0.80256 0.9594 1.05175 0.0
H3914 H 0.92934 0.97113 0.14489 0.0
H3915 H 0.78459 0.03356 0.06029 0.0
H3916 H 0.84219 0.96064 0.08802 0.0
H3917 H 0.83715 0.0292 0.13796 0.0
C3918 C 0.87962 0.01685 0.16076 0.0
C3919 C 0.90707 1.00084 0.16419 0.0
C3920 C 0.82953 0.97674 0.08227 0.0
C3921 C 0.86053 0.99922 0.11988 0.0
C3922 C 0.80627 0.97604 0.06119 0.0
C3923 C 0.78869 0.99633 1.05191 0.0
C3924 C 0.83573 0.99782 0.09591 0.0
C3925 C 0.7965 0.01714 0.06588 0.0
C3926 C 0.85727 0.01635 0.13918 0.0
C3927 C 0.90949 0.98419 0.14409 0.0
N3928 N 0.81829 0.01719 0.08669 0.0
N3929 N 0.88702 0.98375 0.12367 0.0
H3930 H 0.99393 0.74293 1.03415 0.0
H3931 H 0.96252 0.75707 0.18603 0.0
H3932 H 0.07316 0.7614 0.08497 0.0
H3933 H 0.88107 0.74738 0.13386 0.0
H3934 H 1.00199 0.75678 0.15087 0.0
H3935 H 0.95423 0.74314 0.06894 0.0
C3936 C 1.00361 0.74723 1.05233 0.0
C3937 C 0.03843 0.75248 0.05488 0.0
C3938 C 0.9756 0.75462 0.14675 0.0
C3939 C 0.99029 0.75218 0.09794 0.0
C3940 C 0.95232 0.75444 0.1674 0.0
C3941 C 0.91692 0.75162 0.16442 0.0
C3942 C 0.96489 0.75211 0.12137 0.0
C3943 C 0.90734 0.74945 0.13843 0.0
C3944 C 0.98019 0.74723 0.07287 0.0
C3945 C 0.04733 0.75734 0.08059 0.0
N3946 N 0.93052 0.74964 0.11868 0.0
N3947 N 1.02416 0.75698 0.10035 0.0
H3948 H 0.9478 0.74989 0.72051 0.0
H3949 H 0.7531 0.75951 0.77312 0.0
H3950 H 0.86255 0.75475 0.67094 0.0
H3951 H 0.8373 0.74636 0.82225 0.0
H3952 H 0.79162 0.75926 0.73673 0.0
H3953 H 0.90933 0.74988 0.75696 0.0
C3954 C 0.92113 0.75099 0.71682 0.0
C3955 C 0.90973 0.7521 0.69123 0.0
C3956 C 0.802 0.75632 0.7554 0.0
C3957 C 0.86314 0.75235 0.73516 0.0
C3958 C 0.77951 0.75649 0.77672 0.0
C3959 C 0.7905 0.75276 0.80216 0.0
C3960 C 0.83721 0.75257 0.75828 0.0
C3961 C 0.82609 0.74911 0.80389 0.0
C3962 C 0.89866 0.75094 0.73816 0.0
C3963 C 0.87388 0.75342 0.68939 0.0
N3964 N 0.84725 0.74915 0.783 0.0
N3965 N 0.85278 0.7536 0.7103 0.0
H3966 H 0.96367 0.99523 0.66859 0.0
H3967 H 1.00077 0.02642 0.81621 0.0
H3968 H 0.8831 0.01149 0.71876 0.0
H3969 H 0.06408 0.97703 0.77829 0.0
H3970 H 0.96151 0.02589 0.78048 0.0
H3971 H 1.00267 0.99365 0.70515 0.0
C3972 C 0.95368 0.99859 0.68711 0.0
C3973 C 0.91866 0.00342 0.68937 0.0
C3974 C 0.98386 0.01502 0.77967 0.0
C3975 C 0.96573 0.00207 0.73344 0.0
C3976 C 1.00677 0.01502 0.80087 0.0
C3977 C 1.03666 1.00107 0.80228 0.0
C3978 C 0.99032 0.00181 0.75761 0.0
C3979 C 0.04188 0.98798 0.77957 0.0
C3980 C 0.97652 0.99757 0.70844 0.0
C3981 C 0.90909 0.00751 0.71493 0.0
N3982 N 1.01984 0.98892 0.75883 0.0
N3983 N 0.93187 0.00701 0.73515 0.0
H3984 H 0.32253 0.52148 0.52324 0.0
H3985 H 0.13169 0.49488 0.46993 0.0
H3986 H 0.24823 0.48726 0.56822 0.0
H3987 H 0.21297 0.51093 0.42048 0.0
H3988 H 0.17162 0.49514 0.50602 0.0
H3989 H 0.28296 0.52078 0.48697 0.0
C3990 C 0.29807 0.51383 0.52598 0.0
C3991 C 0.28995 0.5046 0.55021 0.0
C3992 C 0.18102 0.49865 0.48732 0.0
C3993 C 0.2422 0.50398 0.50684 0.0
C3994 C 0.15777 0.49858 0.46629 0.0
C3995 C 0.16787 0.50272 0.44099 0.0
C3996 C 0.21572 0.50343 0.48413 0.0
C3997 C 0.20294 0.50723 0.43887 0.0
C3998 C 0.27503 0.51344 0.50479 0.0
C3999 C 0.25686 0.49502 0.55097 0.0
N4000 N 0.22476 0.50761 0.45953 0.0
N4001 N 0.23497 0.49513 0.53036 0.0
H4002 H 0.15881 0.7883 0.44793 0.0
H4003 H 1.02487 0.71523 0.53719 0.0
H4004 H 0.14755 0.71343 0.44188 0.0
H4005 H 0.06045 0.78376 0.55756 0.0
H4006 H 0.06404 0.71518 0.50117 0.0
H4007 H 0.12054 0.78804 0.48453 0.0
C4008 C 0.14861 0.77161 0.454 0.0
C4009 C 0.15805 0.75084 0.44061 0.0
C4010 C 0.06362 0.73036 0.51339 0.0
C4011 C 0.11095 0.75046 0.48453 0.0
C4012 C 0.04061 0.73046 0.53449 0.0
C4013 C 0.03796 0.74947 0.55199 0.0
C4014 C 0.08525 0.74966 0.50806 0.0
C4015 C 0.06042 0.76831 0.54579 0.0
C4016 C 0.12618 0.77149 0.47542 0.0
C4017 C 0.14234 0.73018 0.4507 0.0
N4018 N 0.08202 0.76791 0.52505 0.0
N4019 N 0.12024 0.73063 0.47114 0.0
H4020 H 0.32184 0.74172 0.82992 0.0
H4021 H 0.12927 0.75732 0.88574 0.0
H4022 H 0.2374 0.7595 0.7827 0.0
H4023 H 0.21436 0.74475 0.93398 0.0
H4024 H 0.16707 0.75742 0.84893 0.0
H4025 H 0.2843 0.74182 0.86689 0.0
C4026 C 0.29559 0.74576 0.82682 0.0
C4027 C 0.28428 0.75073 0.80166 0.0
C4028 C 0.17788 0.75464 0.86749 0.0
C4029 C 0.23866 0.75088 0.8464 0.0
C4030 C 0.15579 0.75454 0.88907 0.0
C4031 C 0.16732 0.75126 0.91445 0.0
C4032 C 0.2132 0.75111 0.86994 0.0
C4033 C 0.20297 0.74786 0.91577 0.0
C4034 C 0.27365 0.74582 0.84853 0.0
C4035 C 0.24891 0.75563 0.80072 0.0
N4036 N 0.22371 0.7478 0.8946 0.0
N4037 N 0.22831 0.75556 0.82196 0.0
H4038 H 0.10941 0.50377 0.93766 0.0
H4039 H 0.07909 0.48824 0.7855 0.0
H4040 H 0.19097 0.49552 0.8863 0.0
H4041 H 1.00079 0.51303 0.83356 0.0
H4042 H 0.11819 0.48823 0.82135 0.0
H4043 H 0.06984 0.50444 0.90166 0.0
C4044 C 0.11947 0.50188 0.91898 0.0
C4045 C 0.15483 0.49941 0.91624 0.0
C4046 C 0.09256 0.49378 0.82437 0.0
C4047 C 0.10731 0.50021 0.87271 0.0
C4048 C 0.06955 0.4939 0.80329 0.0
C4049 C 1.03525 0.50093 0.80494 0.0
C4050 C 0.08239 0.5004 0.84887 0.0
C4051 C 1.02628 0.50744 0.83006 0.0
C4052 C 0.09631 0.50243 0.89796 0.0
C4053 C 0.16464 0.49751 0.89047 0.0
N4054 N 0.04903 0.50691 0.85033 0.0
N4055 N 0.14162 0.49778 0.87043 0.0
H4056 H 0.78238 0.46274 0.56229 0.0
H4057 H 0.88263 0.53662 0.67068 0.0
H4058 H 0.80066 0.53647 0.55078 0.0
H4059 H 0.91658 0.46713 0.65143 0.0
H4060 H 0.84496 0.53645 0.63328 0.0
H4061 H 0.82156 0.46311 0.59884 0.0
C4062 C 0.79413 0.47922 0.56723 0.0
C4063 C 0.78679 0.49961 0.55219 0.0
C4064 C 0.8605 0.5211 0.63702 0.0
C4065 C 0.83327 0.5003 0.59671 0.0
C4066 C 0.88248 0.52113 0.65888 0.0
C4067 C 0.9043 0.50193 0.66536 0.0
C4068 C 0.85811 0.50132 0.62074 0.0
C4069 C 0.90131 0.48269 0.64814 0.0
C4070 C 0.81709 0.47937 0.58855 0.0
C4071 C 0.80435 0.52003 0.56088 0.0
N4072 N 0.87906 0.48282 0.62757 0.0
N4073 N 0.82557 0.51985 0.58206 0.0
H4074 H 0.07487 0.24437 0.5839 0.0
H4075 H 0.8802 0.26179 0.63508 0.0
H4076 H 0.99291 0.26237 0.53449 0.0
H4077 H 0.96231 0.24196 0.68357 0.0
H4078 H 0.91948 0.26239 0.59908 0.0
H4079 H 1.03533 0.244 0.6197 0.0
C4080 C 0.04868 0.24808 0.58004 0.0
C4081 C 0.03848 0.25287 0.55462 0.0
C4082 C 0.92918 0.25773 0.61756 0.0
C4083 C 0.99059 0.25247 0.59779 0.0
C4084 C 0.90622 0.25734 0.63865 0.0
C4085 C 0.91636 0.25146 0.66384 0.0
C4086 C 0.96399 0.25229 0.62047 0.0
C4087 C 0.95158 0.24629 0.66551 0.0
C4088 C 1.02558 0.24783 0.60102 0.0
C4089 C 1.00321 0.25775 0.55266 0.0
N4090 N 0.97314 0.2468 0.64492 0.0
N4091 N 0.98146 0.25736 0.57317 0.0
H4092 H 0.75531 0.24723 0.27591 0.0
H4093 H 0.94701 0.26284 0.21949 0.0
H4094 H 0.84041 0.25889 0.32419 0.0
H4095 H 0.86419 0.24036 0.17377 0.0
H4096 H 0.90959 0.26315 0.25655 0.0
H4097 H 0.79316 0.24652 0.23921 0.0
C4098 C 0.78183 0.24971 0.27925 0.0
C4099 C 0.79329 0.25306 0.30456 0.0
C4100 C 0.89922 0.25817 0.23846 0.0
C4101 C 0.83922 0.25242 0.26018 0.0
C4102 C 0.92108 0.25797 0.21673 0.0
C4103 C 0.9101 0.2516 0.19198 0.0
C4104 C 0.86462 0.2522 0.23668 0.0
C4105 C 0.87523 0.24557 0.19143 0.0
C4106 C 0.80394 0.24925 0.25773 0.0
C4107 C 0.82896 0.25606 0.30593 0.0
N4108 N 0.85461 0.24614 0.21262 0.0
N4109 N 0.84973 0.25575 0.28479 0.0
H4110 H 0.93781 0.53822 0.18644 0.0
H4111 H 0.04503 0.46378 0.29257 0.0
H4112 H 0.91005 0.46712 0.20417 0.0
H4113 H 1.02283 0.53695 0.30472 0.0
H4114 H 1.00537 0.46412 0.25631 0.0
H4115 H 0.9761 0.53797 0.22352 0.0
C4116 C 0.93949 0.52237 0.19786 0.0
C4117 C 0.91914 0.50276 0.19116 0.0
C4118 C 1.00903 0.48024 0.26673 0.0
C4119 C 0.96618 0.50203 0.23519 0.0
C4120 C 1.03226 0.48012 0.28786 0.0
C4121 C 0.03865 0.50036 0.30298 0.0
C4122 C 0.99149 0.50101 0.25892 0.0
C4123 C 1.01988 0.52062 0.29457 0.0
C4124 C 0.96182 0.52228 0.21949 0.0
C4125 C 0.92405 0.48302 0.20778 0.0
N4126 N 0.9983 0.52043 0.27362 0.0
N4127 N 0.9467 0.48312 0.22808 0.0
H4128 H 0.771 0.04428 0.55568 0.0
H4129 H 0.69772 0.97241 0.43362 0.0
H4130 H 0.78849 0.97004 0.54736 0.0
H4131 H 0.64536 0.03315 0.46147 0.0
H4132 H 0.73537 0.97359 0.47074 0.0
H4133 H 0.73132 0.04308 0.51944 0.0
C4134 C 0.76712 0.02763 0.54631 0.0
C4135 C 0.78456 0.0073 0.55561 0.0
C4136 C 0.7157 0.98674 0.46903 0.0
C4137 C 0.7375 0.00584 0.51174 0.0
C4138 C 0.69363 0.98611 0.44737 0.0
C4139 C 0.66678 0.00252 0.4433 0.0
C4140 C 0.71283 0.00439 0.48777 0.0
C4141 C 0.66468 0.01973 0.46285 0.0
C4142 C 0.74384 0.02695 0.52526 0.0
C4143 C 0.77664 0.98647 0.54175 0.0
N4144 N 0.68695 0.02027 0.4834 0.0
N4145 N 0.75481 0.98644 0.52099 0.0
H4146 H 0.57224 0.27768 0.565 0.0
H4147 H 0.61579 0.23631 0.42084 0.0
H4148 H 0.51586 0.22307 0.52937 0.0
H4149 H 0.69152 0.26597 0.46875 0.0
H4150 H 0.57727 0.23509 0.45711 0.0
H4151 H 0.61192 0.27724 0.52991 0.0
C4152 C 0.56791 0.26516 0.5503 0.0
C4153 C 0.53967 0.24988 0.55217 0.0
C4154 C 0.60221 0.24196 0.46 0.0
C4155 C 0.58673 0.25031 0.50824 0.0
C4156 C 0.62481 0.24276 0.43879 0.0
C4157 C 0.65843 0.2512 0.44042 0.0
C4158 C 0.61154 0.25031 0.4843 0.0
C4159 C 0.66672 0.25905 0.46536 0.0
C4160 C 0.59107 0.26515 0.52947 0.0
C4161 C 0.53656 0.23523 0.5303 0.0
N4162 N 0.64404 0.25865 0.48543 0.0
N4163 N 0.55885 0.23601 0.50996 0.0
H4164 H 0.82297 0.24999 0.83281 0.0
H4165 H 0.62765 0.24926 0.88588 0.0
H4166 H 0.73752 0.25337 0.78319 0.0
H4167 H 0.71312 0.25388 0.93511 0.0
H4168 H 0.66591 0.24956 0.84928 0.0
H4169 H 0.78454 0.25001 0.86927 0.0
C4170 C 0.79629 0.25078 0.82909 0.0
C4171 C 0.78498 0.25184 0.80344 0.0
C4172 C 0.67669 0.25047 0.86802 0.0
C4173 C 0.73823 0.25175 0.84756 0.0
C4174 C 0.65432 0.25028 0.8895 0.0
C4175 C 0.66574 0.25158 0.91509 0.0
C4176 C 0.71226 0.2517 0.87084 0.0
C4177 C 0.70163 0.25293 0.9167 0.0
C4178 C 0.77381 0.25081 0.85048 0.0
C4179 C 0.74902 0.25276 0.80167 0.0
N4180 N 0.72265 0.25285 0.8957 0.0
N4181 N 0.7279 0.25264 0.82264 0.0
H4182 H 0.57246 0.97439 0.7905 0.0
H4183 H 0.61743 0.01829 0.93381 0.0
H4184 H 0.51755 0.03126 0.82391 0.0
H4185 H 0.68987 0.98271 0.88814 0.0
H4186 H 0.5788 0.02026 0.89703 0.0
H4187 H 0.6115 0.97431 0.82658 0.0
C4188 C 0.56829 0.98719 0.80507 0.0
C4189 C 0.54072 0.00322 0.80249 0.0
C4190 C 0.60305 0.01194 0.89479 0.0
C4191 C 0.58702 0.00242 0.84697 0.0
C4192 C 0.62562 0.01073 0.91622 0.0
C4193 C 0.65833 1.00047 0.91515 0.0
C4194 C 0.61158 0.00214 0.87107 0.0
C4195 C 0.66583 0.99117 0.89084 0.0
C4196 C 0.59109 0.98697 0.82629 0.0
C4197 C 0.53786 0.01856 0.82373 0.0
N4198 N 0.64315 0.992 0.87059 0.0
N4199 N 0.55988 0.01759 0.84446 0.0
H4200 H 0.29293 0.95949 0.55913 0.0
H4201 H 0.3826 0.03527 0.67183 0.0
H4202 H 0.29616 0.035 0.5549 0.0
H4203 H 0.42243 0.9677 0.6511 0.0
H4204 H 0.34513 0.0343 0.63442 0.0
H4205 H 0.33228 0.96058 0.59555 0.0
C4206 C 0.30137 0.97648 0.5657 0.0
C4207 C 0.28974 0.99716 0.55278 0.0
C4208 C 0.36195 0.01956 0.63781 0.0
C4209 C 0.3365 0.99861 0.59704 0.0
C4210 C 0.38388 0.02006 0.65965 0.0
C4211 C 0.40726 0.00167 0.66577 0.0
C4212 C 0.36125 1.00007 0.62108 0.0
C4213 C 0.40593 0.98267 0.64812 0.0
C4214 C 0.32445 0.97706 0.5869 0.0
C4215 C 0.30327 0.01829 0.56335 0.0
N4216 N 0.38374 0.98233 0.6275 0.0
N4217 N 0.32477 0.01839 0.58436 0.0
H4218 H 0.45227 0.77445 0.67948 0.0
H4219 H 0.50773 0.72181 0.54141 0.0
H4220 H 0.3885 0.72829 0.6373 0.0
H4221 H 0.55783 0.78082 0.57441 0.0
H4222 H 0.46719 0.72223 0.57604 0.0
H4223 H 0.4916 0.77539 0.64368 0.0
C4224 C 0.44612 0.76434 0.66286 0.0
C4225 C 0.41554 0.75142 0.66253 0.0
C4226 C 0.48684 0.73527 0.57598 0.0
C4227 C 0.46347 0.75189 0.61953 0.0
C4228 C 0.5105 0.73523 0.55549 0.0
C4229 C 0.53733 0.75165 0.5532 0.0
C4230 C 0.48902 0.75158 0.59615 0.0
C4231 C 0.53839 0.76765 0.57403 0.0
C4232 C 0.46916 0.76492 0.64197 0.0
C4233 C 0.41071 0.73893 0.63941 0.0
N4234 N 0.51546 0.76708 0.59391 0.0
N4235 N 0.43387 0.73933 0.61969 0.0
H4236 H 0.36237 0.75681 0.17051 0.0
H4237 H 0.34124 0.74662 0.32479 0.0
H4238 H 0.44671 0.74775 0.22038 0.0
H4239 H 0.25766 0.76018 0.27515 0.0
H4240 H 0.37858 0.74565 0.28807 0.0
H4241 H 0.32483 0.75691 0.20715 0.0
C4242 C 0.37351 0.75459 0.18895 0.0
C4243 C 0.40906 0.75207 0.19096 0.0
C4244 C 0.35212 0.74885 0.2849 0.0
C4245 C 0.3638 0.75241 0.23553 0.0
C4246 C 0.33008 0.74924 0.30638 0.0
C4247 C 0.29474 0.75321 0.30444 0.0
C4248 C 0.34008 0.75259 0.25988 0.0
C4249 C 0.28398 0.75693 0.27885 0.0
C4250 C 0.35148 0.75482 0.21041 0.0
C4251 C 0.42017 0.74983 0.21664 0.0
N4252 N 0.30588 0.7565 0.25837 0.0
N4253 N 0.39826 0.74998 0.23712 0.0
H4254 H 0.54542 0.96269 0.29252 0.0
H4255 H 0.44022 0.03945 0.18636 0.0
H4256 H 0.52413 0.03604 0.30434 0.0
H4257 H 0.41175 0.96805 0.20189 0.0
H4258 H 0.47812 0.03813 0.22361 0.0
H4259 H 0.50628 0.9634 0.25579 0.0
C4260 C 0.53302 0.97913 0.28766 0.0
C4261 C 0.53955 0.99934 0.30283 0.0
C4262 C 0.46379 0.02258 0.21907 0.0
C4263 C 0.49293 1.00043 0.25824 0.0
C4264 C 0.44162 0.02331 0.19731 0.0
C4265 C 0.42114 0.00397 0.18988 0.0
C4266 C 0.46791 0.00195 0.23425 0.0
C4267 C 0.42582 0.98381 0.20602 0.0
C4268 C 0.51006 0.97949 0.26624 0.0
C4269 C 0.5212 0.01973 0.29415 0.0
N4270 N 0.44829 0.98332 0.22649 0.0
N4271 N 0.49993 0.01973 0.27304 0.0
H4272 H 0.69157 0.46839 0.93612 0.0
H4273 H 0.78618 0.54392 1.04705 0.0
H4274 H 0.65973 0.5389 0.9531 0.0
H4275 H 0.77675 0.46881 0.05357 0.0
H4276 H 0.74793 0.54333 1.00999 0.0
H4277 H 0.72864 0.46883 0.97381 0.0
C4278 C 0.69204 0.48415 0.9475 0.0
C4279 C 0.67101 0.50356 0.9403 0.0
C4280 C 0.75412 0.52683 1.0193 0.0
C4281 C 0.71636 0.50442 0.98534 0.0
C4282 C 0.77653 0.52711 1.04091 0.0
C4283 C 0.78605 0.5064 0.0547 0.0
C4284 C 0.74061 0.50552 1.00966 0.0
C4285 C 0.77121 0.48554 1.04451 0.0
C4286 C 0.71368 0.48434 0.96952 0.0
C4287 C 0.67441 0.52318 0.95696 0.0
N4288 N 0.75034 0.48568 1.02315 0.0
N4289 N 0.6962 0.52312 0.9778 0.0
H4290 H 0.61338 0.7648 0.92104 0.0
H4291 H 0.58004 0.73858 0.07156 0.0
H4292 H 0.69186 0.74 0.97033 0.0
H4293 H 0.50142 0.76066 1.02115 0.0
H4294 H 0.62015 0.74006 1.03666 0.0
H4295 H 0.57419 0.76419 0.95627 0.0
C4296 C 0.62312 0.75926 0.93905 0.0
C4297 C 0.65769 0.75266 0.94115 0.0
C4298 C 0.59426 0.74474 1.03287 0.0
C4299 C 0.60974 0.75166 0.98442 0.0
C4300 C 0.57079 0.7443 0.05346 0.0
C4301 C 0.53606 0.75028 1.05102 0.0
C4302 C 0.5843 0.75097 1.00793 0.0
C4303 C 0.5272 0.75607 1.02542 0.0
C4304 C 0.5999 0.75885 0.95977 0.0
C4305 C 0.66634 0.74553 0.96642 0.0
N4306 N 0.55045 0.75629 1.00569 0.0
N4307 N 0.64327 0.74529 0.98627 0.0
H4308 H 0.71137 0.76576 0.43333 0.0
H4309 H 0.74058 0.74041 0.28192 0.0
H4310 H 0.63405 0.73699 0.38639 0.0
H4311 H 0.82145 0.75926 0.33157 0.0
H4312 H 0.70208 0.74078 0.31809 0.0
H4313 H 0.74989 0.76502 0.39743 0.0
C4314 C 0.70192 0.75908 0.41576 0.0
C4315 C 0.668 0.75118 0.41452 0.0
C4316 C 0.72818 0.74486 0.32141 0.0
C4317 C 0.71457 0.75075 0.37038 0.0
C4318 C 0.75083 0.74474 0.30024 0.0
C4319 C 0.78582 0.74984 0.30229 0.0
C4320 C 0.7391 0.7503 0.3463 0.0
C4321 C 0.79551 0.75506 0.32776 0.0
C4322 C 0.72459 0.75877 0.39463 0.0
C4323 C 0.65921 0.7433 0.38967 0.0
N4324 N 0.77298 0.75521 0.34792 0.0
N4325 N 0.68158 0.74339 0.3694 0.0
H4326 H 0.50738 0.52658 0.32551 0.0
H4327 H 0.68671 0.48137 0.38923 0.0
H4328 H 0.57273 0.47762 0.28856 0.0
H4329 H 0.61327 0.52007 0.43084 0.0
H4330 H 0.64796 0.48138 0.35241 0.0
H4331 H 0.54578 0.52598 0.36245 0.0
C4332 C 0.52969 0.51569 0.32467 0.0
C4333 C 0.53563 0.50231 0.30244 0.0
C4334 C 0.64002 0.48999 0.3695 0.0
C4335 C 0.58219 0.50174 0.34676 0.0
C4336 C 0.66263 0.49006 0.39097 0.0
C4337 C 0.65434 0.50063 0.41442 0.0
C4338 C 0.60788 0.50105 0.37018 0.0
C4339 C 0.62174 0.51125 0.41413 0.0
C4340 C 0.5521 0.51538 0.34628 0.0
C4341 C 0.56599 0.4887 0.30415 0.0
N4342 N 0.60061 0.51131 0.393 0.0
N4343 N 0.58739 0.48893 0.32513 0.0
H4344 H 0.37605 0.53054 0.17318 0.0
H4345 H 0.29727 0.45859 0.05322 0.0
H4346 H 0.42477 0.4682 0.14572 0.0
H4347 H 0.28639 0.53372 0.0581 0.0
H4348 H 0.33687 0.45949 0.08948 0.0
H4349 H 0.33791 0.52994 0.1362 0.0
C4350 C 0.37911 0.51655 0.15962 0.0
C4351 C 0.40508 0.49949 0.16369 0.0
C4352 C 0.32581 0.47589 0.08291 0.0
C4353 C 0.35868 0.49837 0.11944 0.0
C4354 C 0.30259 0.4754 0.06183 0.0
C4355 C 0.287 0.49606 1.05155 0.0
C4356 C 0.33393 0.49719 0.09552 0.0
C4357 C 0.29672 0.51704 0.06451 0.0
C4358 C 0.35685 0.51629 0.13801 0.0
C4359 C 0.4061 0.48206 0.14433 0.0
N4360 N 0.31843 0.51694 0.08535 0.0
N4361 N 0.38369 0.48188 0.1239 0.0
H4362 H 0.39966 0.28472 0.14813 0.0
H4363 H 0.52505 0.21465 1.05274 0.0
H4364 H 0.44117 0.21801 0.17148 0.0
H4365 H 0.53697 0.28916 0.06237 0.0
H4366 H 0.48662 0.21407 0.08915 0.0
H4367 H 0.4393 0.28557 0.11262 0.0
C4368 C 0.41672 0.27 0.14621 0.0
C4369 C 0.41574 0.25135 0.1645 0.0
C4370 C 0.49749 0.23069 0.08357 0.0
C4371 C 0.46296 0.25182 0.12054 0.0
C4372 C 0.52001 0.23111 0.06222 0.0
C4373 C 0.5362 0.25196 0.05329 0.0
C4374 C 0.4886 0.25147 0.09699 0.0
C4375 C 0.5266 0.2723 0.06761 0.0
C4376 C 0.43996 0.27056 0.12529 0.0
C4377 C 0.43979 0.23314 0.15902 0.0
N4378 N 0.50397 0.27151 0.08774 0.0
N4379 N 0.46112 0.23373 0.1381 0.0
H4380 H 0.36289 0.25924 0.66921 0.0
H4381 H 0.33764 0.24511 0.82301 0.0
H4382 H 0.44483 0.2453 0.72007 0.0
H4383 H 0.25484 0.26105 0.77348 0.0
H4384 H 0.37509 0.24402 0.78659 0.0
H4385 H 0.32415 0.25938 0.70526 0.0
C4386 C 0.37326 0.25592 0.68774 0.0
C4387 C 0.4086 0.25202 0.69014 0.0
C4388 C 0.3488 0.24778 0.78331 0.0
C4389 C 0.36175 0.25234 0.73413 0.0
C4390 C 0.32655 0.24815 0.80469 0.0
C4391 C 0.29127 0.25268 0.80286 0.0
C4392 C 0.33732 0.25236 0.75832 0.0
C4393 C 0.28099 0.2572 0.77723 0.0
C4394 C 0.35051 0.25616 0.70888 0.0
C4395 C 0.41861 0.24849 0.71595 0.0
N4396 N 0.3032 0.25693 0.75681 0.0
N4397 N 0.39602 0.24865 0.73607 0.0
H4398 H 0.5753 0.50506 0.77472 0.0
H4399 H 0.38225 0.4924 0.71873 0.0
H4400 H 0.49058 0.49884 0.8233 0.0
H4401 H 0.46381 0.51559 0.67303 0.0
H4402 H 0.4205 0.49194 0.7558 0.0
H4403 H 0.53659 0.50617 0.73788 0.0
C4404 C 0.54869 0.50383 0.77805 0.0
C4405 C 0.5375 0.50196 0.80343 0.0
C4406 C 0.43039 0.4971 0.73769 0.0
C4407 C 0.49073 0.50279 0.75918 0.0
C4408 C 0.40809 0.49738 0.71599 0.0
C4409 C 0.41858 0.50394 0.69127 0.0
C4410 C 0.46488 0.50312 0.73581 0.0
C4411 C 0.4533 0.51009 0.69064 0.0
C4412 C 0.52612 0.50451 0.75653 0.0
C4413 C 0.50173 0.50053 0.80497 0.0
N4414 N 0.47439 0.5094 0.71179 0.0
N4415 N 0.48049 0.50079 0.78387 0.0
loop_
_geom_bond_atom_site_label_1
_geom_bond_atom_site_label_2
_geom_bond_distance
_geom_bond_site_symmetry_2
_ccdc_geom_bond_type
C0 C2 1.422 . S
C0 C4 1.415 . S
C0 N6 1.369 . S
C1 C2 1.421 . S
C1 C3 1.417 . S
C1 C13 1.422 1_545 S
C2 C0 1.422 . S
C2 C1 1.421 . S
C2 N12 1.359 . S
C3 C1 1.417 . S
C3 C5 1.329 . S
C3 H22 0.930 . S
C4 C0 1.415 . S
C4 C5 1.437 . S
C4 C8 1.413 . S
C5 C3 1.329 . S
C5 C4 1.437 . S
C5 H27 0.929 . S
N6 C0 1.369 . S
N6 C7 1.338 . S
N6 Gd11 2.622 . S
C7 N6 1.338 . S
C7 C9 1.378 . S
C7 H19 0.929 . S
C8 C4 1.413 . S
C8 C9 1.348 . S
C8 H24 0.931 . S
C9 C7 1.378 . S
C9 C8 1.348 . S
C9 H25 0.930 . S
Gd10 N30 2.622 . S
Gd10 N37 2.570 . S
Gd10 O44 2.353 . S
Gd10 O45 2.468 1_565 S
Gd10 O46 2.427 . S
Gd10 O48 2.388 . S
Gd10 O49 2.386 . S
Gd10 O53 2.307 1_565 S
Gd10 C63 2.805 . S
Gd11 N6 2.622 . S
Gd11 N12 2.570 . S
Gd11 O43 2.386 . S
Gd11 O47 2.307 1_545 S
Gd11 O50 2.353 . S
Gd11 O51 2.468 1_545 S
Gd11 O52 2.427 . S
Gd11 O54 2.388 . S
Gd11 C75 2.805 1_554 S
N12 C2 1.359 . S
N12 Gd11 2.570 . S
N12 C14 1.343 1_545 S
C13 C1 1.422 1_565 S
C13 C15 1.321 . S
C13 H21 0.931 . S
C14 N12 1.343 1_565 S
C14 C15 1.390 . S
C14 H16 0.931 . S
C15 C13 1.321 . S
C15 C14 1.390 . S
C15 H17 0.930 . S
H16 C14 0.931 . S
H17 C15 0.930 . S
H18 C41 0.931 . S
H19 C7 0.929 . S
H20 C42 0.930 . S
H21 C13 0.931 . S
H22 C3 0.930 . S
H23 C32 0.929 . S
H24 C8 0.931 . S
H25 C9 0.930 . S
H26 C64 0.930 . S
H27 C5 0.929 . S
H28 C33 0.931 . S
H29 C34 0.930 . S
N30 Gd10 2.622 . S
N30 C31 1.369 . S
N30 C32 1.338 . S
C31 N30 1.369 . S
C31 C35 1.415 . S
C31 C38 1.422 . S
C32 H23 0.929 . S
C32 N30 1.338 . S
C32 C34 1.378 . S
C33 H28 0.931 . S
C33 C34 1.348 . S
C33 C35 1.413 . S
C34 H29 0.930 . S
C34 C32 1.378 . S
C34 C33 1.348 . S
C35 C31 1.415 . S
C35 C33 1.413 . S
C35 C65 1.437 . S
H36 C65 0.929 . S
N37 Gd10 2.570 . S
N37 C38 1.359 . S
N37 C41 1.343 1_565 S
C38 C31 1.422 . S
C38 N37 1.359 . S
C38 C40 1.421 . S
C39 C40 1.422 1_545 S
C39 C42 1.321 . S
C39 H66 0.931 . S
C40 C38 1.421 . S
C40 C39 1.422 1_565 S
C40 C64 1.417 . S
C41 H18 0.931 . S
C41 N37 1.343 1_545 S
C41 C42 1.390 . S
C42 H20 0.930 . S
C42 C39 1.321 . S
C42 C41 1.390 . S
O43 Gd11 2.386 . S
O43 C55 1.271 . S
O44 Gd10 2.353 . S
O44 C55 1.238 1_565 S
O45 Gd10 2.468 1_545 S
O45 C63 1.263 1_545 S
O46 Gd10 2.427 . S
O46 C63 1.252 . S
O47 Gd11 2.307 1_565 S
O47 C56 1.261 . S
O48 Gd10 2.388 . S
O48 C56 1.252 . S
O49 Gd10 2.386 . S
O49 C67 1.265 . S
O50 Gd11 2.353 . S
O50 C67 1.242 1_545 S
O51 Gd11 2.468 1_565 S
O51 C75 1.263 1_564 S
O52 Gd11 2.427 . S
O52 C75 1.252 1_554 S
O53 Gd10 2.307 1_545 S
O53 C68 1.261 . S
O54 Gd11 2.388 . S
O54 C68 1.252 . S
C55 O43 1.271 . S
C55 O44 1.238 1_545 S
C56 O47 1.261 . S
C56 O48 1.252 . S
C57 C60 1.394 . S
C57 C62 1.370 1_565 S
C57 C63 1.500 . S
C58 C61 1.383 1_545 S
C58 C62 1.395 . S
C59 C60 1.396 . S
C59 C61 1.365 . S
C59 H76 0.929 . S
C60 C57 1.394 . S
C60 C59 1.396 . S
C60 H77 0.930 . S
C61 C58 1.383 1_565 S
C61 C59 1.365 . S
C61 H78 0.931 . S
C62 C57 1.370 1_545 S
C62 C58 1.395 . S
C62 H79 0.930 . S
C63 Gd10 2.805 . S
C63 O45 1.263 1_565 S
C63 O46 1.252 . S
C63 C57 1.500 . S
C64 H26 0.930 . S
C64 C40 1.417 . S
C64 C65 1.329 . S
C65 C35 1.437 . S
C65 H36 0.929 . S
C65 C64 1.329 . S
H66 C39 0.931 . S
C67 O49 1.265 . S
C67 O50 1.242 1_565 S
C68 O53 1.261 . S
C68 O54 1.252 . S
C69 C72 1.394 . S
C69 C74 1.370 1_545 S
C69 C75 1.500 . S
C70 C73 1.383 1_565 S
C70 C74 1.395 . S
C71 C72 1.396 . S
C71 C73 1.365 . S
C71 H80 0.929 . S
C72 C69 1.394 . S
C72 C71 1.396 . S
C72 H81 0.930 . S
C73 C70 1.383 1_545 S
C73 C71 1.365 . S
C73 H82 0.931 . S
C74 C69 1.370 1_565 S
C74 C70 1.395 . S
C74 H83 0.930 . S
C75 Gd11 2.805 1_556 S
C75 O51 1.263 1_546 S
C75 O52 1.252 1_556 S
C75 C69 1.500 . S
H76 C59 0.929 . S
H77 C60 0.930 . S
H78 C61 0.931 . S
H79 C62 0.930 . S
H80 C71 0.929 . S
H81 C72 0.930 . S
H82 C73 0.931 . S
H83 C74 0.930 . S
C84 C86 1.422 . S
C84 C88 1.415 . S
C84 N90 1.369 . S
C85 C86 1.421 . S
C85 C87 1.417 . S
C85 C97 1.422 . S
C86 C84 1.422 . S
C86 C85 1.421 . S
C86 N96 1.359 . S
C87 C85 1.417 . S
C87 C89 1.329 . S
C87 H106 0.930 . S
C88 C84 1.415 . S
C88 C89 1.437 . S
C88 C92 1.413 . S
C89 C87 1.329 . S
C89 C88 1.437 . S
C89 H111 0.929 . S
N90 C84 1.369 . S
N90 C91 1.338 . S
N90 Gd95 2.622 . S
C91 N90 1.338 . S
C91 C93 1.378 . S
C91 H103 0.929 . S
C92 C88 1.413 . S
C92 C93 1.348 . S
C92 H108 0.931 . S
C93 C91 1.378 . S
C93 C92 1.348 . S
C93 H109 0.930 . S
Gd94 N114 2.622 1_655 S
Gd94 N121 2.570 1_655 S
Gd94 O128 2.353 . S
Gd94 O129 2.468 . S
Gd94 O130 2.427 . S
Gd94 O132 2.388 . S
Gd94 O133 2.386 . S
Gd94 O137 2.307 . S
Gd94 C147 2.805 . S
Gd95 N90 2.622 . S
Gd95 N96 2.570 . S
Gd95 O127 2.386 . S
Gd95 O131 2.307 . S
Gd95 O134 2.353 . S
Gd95 O135 2.468 . S
Gd95 O136 2.427 . S
Gd95 O138 2.388 . S
Gd95 C159 2.805 1_554 S
N96 C86 1.359 . S
N96 Gd95 2.570 . S
N96 C98 1.343 . S
C97 C85 1.422 . S
C97 C99 1.321 . S
C97 H105 0.931 . S
C98 N96 1.343 . S
C98 C99 1.390 . S
C98 H100 0.931 . S
C99 C97 1.321 . S
C99 C98 1.390 . S
C99 H101 0.930 . S
H100 C98 0.931 . S
H101 C99 0.930 . S
H102 C125 0.931 . S
H103 C91 0.929 . S
H104 C126 0.930 . S
H105 C97 0.931 . S
H106 C87 0.930 . S
H107 C116 0.929 1_655 S
H108 C92 0.931 . S
H109 C93 0.930 . S
H110 C148 0.930 . S
H111 C89 0.929 . S
H112 C117 0.931 . S
H113 C118 0.930 . S
N114 Gd94 2.622 1_455 S
N114 C115 1.369 . S
N114 C116 1.338 . S
C115 N114 1.369 . S
C115 C119 1.415 . S
C115 C122 1.422 . S
C116 H107 0.929 1_455 S
C116 N114 1.338 . S
C116 C118 1.378 . S
C117 H112 0.931 . S
C117 C118 1.348 . S
C117 C119 1.413 . S
C118 H113 0.930 . S
C118 C116 1.378 . S
C118 C117 1.348 . S
C119 C115 1.415 . S
C119 C117 1.413 . S
C119 C149 1.437 . S
H120 C149 0.929 . S
N121 Gd94 2.570 1_455 S
N121 C122 1.359 . S
N121 C125 1.343 . S
C122 C115 1.422 . S
C122 N121 1.359 . S
C122 C124 1.421 . S
C123 C124 1.422 . S
C123 C126 1.321 . S
C123 H150 0.931 . S
C124 C122 1.421 . S
C124 C123 1.422 . S
C124 C148 1.417 . S
C125 H102 0.931 . S
C125 N121 1.343 . S
C125 C126 1.390 . S
C126 H104 0.930 . S
C126 C123 1.321 . S
C126 C125 1.390 . S
O127 Gd95 2.386 . S
O127 C139 1.265 . S
O128 Gd94 2.353 . S
O128 C139 1.242 . S
O129 Gd94 2.468 . S
O129 C147 1.263 . S
O130 Gd94 2.427 . S
O130 C147 1.252 . S
O131 Gd95 2.307 . S
O131 C140 1.261 . S
O132 Gd94 2.388 . S
O132 C140 1.252 . S
O133 Gd94 2.386 . S
O133 C151 1.265 . S
O134 Gd95 2.353 . S
O134 C151 1.242 . S
O135 Gd95 2.468 . S
O135 C159 1.263 1_554 S
O136 Gd95 2.427 . S
O136 C159 1.252 1_554 S
O137 Gd94 2.307 . S
O137 C152 1.261 . S
O138 Gd95 2.388 . S
O138 C152 1.252 . S
C139 O127 1.265 . S
C139 O128 1.242 . S
C140 O131 1.261 . S
C140 O132 1.252 . S
C141 C144 1.394 . S
C141 C146 1.370 . S
C141 C147 1.500 . S
C142 C145 1.383 . S
C142 C146 1.395 1_455 S
C143 C144 1.396 1_455 S
C143 C145 1.365 . S
C143 H160 0.929 . S
C144 C141 1.394 . S
C144 C143 1.396 1_655 S
C144 H161 0.930 . S
C145 C142 1.383 . S
C145 C143 1.365 . S
C145 H162 0.931 . S
C146 C141 1.370 . S
C146 C142 1.395 1_655 S
C146 H163 0.930 . S
C147 Gd94 2.805 . S
C147 O129 1.263 . S
C147 O130 1.252 . S
C147 C141 1.500 . S
C148 H110 0.930 . S
C148 C124 1.417 . S
C148 C149 1.329 . S
C149 C119 1.437 . S
C149 H120 0.929 . S
C149 C148 1.329 . S
H150 C123 0.931 . S
C151 O133 1.265 . S
C151 O134 1.242 . S
C152 O137 1.261 . S
C152 O138 1.252 . S
C153 C156 1.394 . S
C153 C158 1.370 . S
C153 C159 1.500 . S
C154 C157 1.383 . S
C154 C158 1.395 . S
C155 C156 1.396 . S
C155 C157 1.365 . S
C155 H164 0.929 . S
C156 C153 1.394 . S
C156 C155 1.396 . S
C156 H165 0.930 . S
C157 C154 1.383 . S
C157 C155 1.365 . S
C157 H166 0.931 . S
C158 C153 1.370 . S
C158 C154 1.395 . S
C158 H167 0.930 . S
C159 Gd95 2.805 1_556 S
C159 O135 1.263 1_556 S
C159 O136 1.252 1_556 S
C159 C153 1.500 . S
H160 C143 0.929 . S
H161 C144 0.930 . S
H162 C145 0.931 . S
H163 C146 0.930 . S
H164 C155 0.929 . S
H165 C156 0.930 . S
H166 C157 0.931 . S
H167 C158 0.930 . S
C168 C170 1.422 . S
C168 C172 1.415 . S
C168 N174 1.369 . S
C169 C170 1.421 . S
C169 C171 1.417 . S
C169 C181 1.422 . S
C170 C168 1.422 . S
C170 C169 1.421 . S
C170 N180 1.359 . S
C171 C169 1.417 . S
C171 C173 1.329 . S
C171 H190 0.930 . S
C172 C168 1.415 . S
C172 C173 1.437 . S
C172 C176 1.413 . S
C173 C171 1.329 . S
C173 C172 1.437 . S
C173 H195 0.929 . S
N174 C168 1.369 . S
N174 C175 1.338 . S
N174 Gd179 2.622 . S
C175 N174 1.338 . S
C175 C177 1.378 . S
C175 H187 0.929 . S
C176 C172 1.413 . S
C176 C177 1.348 . S
C176 H192 0.931 . S
C177 C175 1.378 . S
C177 C176 1.348 . S
C177 H193 0.930 . S
Gd178 N198 2.622 . S
Gd178 N205 2.570 . S
Gd178 O212 2.353 . S
Gd178 O213 2.468 . S
Gd178 O214 2.427 . S
Gd178 O216 2.388 . S
Gd178 O217 2.386 . S
Gd178 O221 2.307 . S
Gd178 C231 2.805 . S
Gd179 N174 2.622 . S
Gd179 N180 2.570 . S
Gd179 O211 2.386 . S
Gd179 O215 2.307 . S
Gd179 O218 2.353 . S
Gd179 O219 2.468 . S
Gd179 O220 2.427 . S
Gd179 O222 2.388 . S
Gd179 C243 2.805 . S
N180 C170 1.359 . S
N180 Gd179 2.570 . S
N180 C182 1.343 . S
C181 C169 1.422 . S
C181 C183 1.321 . S
C181 H189 0.931 . S
C182 N180 1.343 . S
C182 C183 1.390 . S
C182 H184 0.931 . S
C183 C181 1.321 . S
C183 C182 1.390 . S
C183 H185 0.930 . S
H184 C182 0.931 . S
H185 C183 0.930 . S
H186 C209 0.931 . S
H187 C175 0.929 . S
H188 C210 0.930 . S
H189 C181 0.931 . S
H190 C171 0.930 . S
H191 C200 0.929 . S
H192 C176 0.931 . S
H193 C177 0.930 . S
H194 C232 0.930 . S
H195 C173 0.929 . S
H196 C201 0.931 . S
H197 C202 0.930 . S
N198 Gd178 2.622 . S
N198 C199 1.369 . S
N198 C200 1.338 . S
C199 N198 1.369 . S
C199 C203 1.415 . S
C199 C206 1.422 . S
C200 H191 0.929 . S
C200 N198 1.338 . S
C200 C202 1.378 . S
C201 H196 0.931 . S
C201 C202 1.348 . S
C201 C203 1.413 . S
C202 H197 0.930 . S
C202 C200 1.378 . S
C202 C201 1.348 . S
C203 C199 1.415 . S
C203 C201 1.413 . S
C203 C233 1.437 . S
H204 C233 0.929 . S
N205 Gd178 2.570 . S
N205 C206 1.359 . S
N205 C209 1.343 . S
C206 C199 1.422 . S
C206 N205 1.359 . S
C206 C208 1.421 . S
C207 C208 1.422 . S
C207 C210 1.321 . S
C207 H234 0.931 . S
C208 C206 1.421 . S
C208 C207 1.422 . S
C208 C232 1.417 . S
C209 H186 0.931 . S
C209 N205 1.343 . S
C209 C210 1.390 . S
C210 H188 0.930 . S
C210 C207 1.321 . S
C210 C209 1.390 . S
O211 Gd179 2.386 . S
O211 C223 1.265 . S
O212 Gd178 2.353 . S
O212 C223 1.242 . S
O213 Gd178 2.468 . S
O213 C231 1.263 . S
O214 Gd178 2.427 . S
O214 C231 1.252 . S
O215 Gd179 2.307 . S
O215 C224 1.261 . S
O216 Gd178 2.388 . S
O216 C224 1.252 . S
O217 Gd178 2.386 . S
O217 C235 1.265 . S
O218 Gd179 2.353 . S
O218 C235 1.242 . S
O219 Gd179 2.468 . S
O219 C243 1.263 . S
O220 Gd179 2.427 . S
O220 C243 1.252 . S
O221 Gd178 2.307 . S
O221 C236 1.261 . S
O222 Gd179 2.388 . S
O222 C236 1.252 . S
C223 O211 1.265 . S
C223 O212 1.242 . S
C224 O215 1.261 . S
C224 O216 1.252 . S
C225 C228 1.394 . S
C225 C230 1.370 . S
C225 C231 1.500 . S
C226 C229 1.383 . S
C226 C230 1.395 . S
C227 C228 1.396 . S
C227 C229 1.365 . S
C227 H244 0.929 . S
C228 C225 1.394 . S
C228 C227 1.396 . S
C228 H245 0.930 . S
C229 C226 1.383 . S
C229 C227 1.365 . S
C229 H246 0.931 . S
C230 C225 1.370 . S
C230 C226 1.395 . S
C230 H247 0.930 . S
C231 Gd178 2.805 . S
C231 O213 1.263 . S
C231 O214 1.252 . S
C231 C225 1.500 . S
C232 H194 0.930 . S
C232 C208 1.417 . S
C232 C233 1.329 . S
C233 C203 1.437 . S
C233 H204 0.929 . S
C233 C232 1.329 . S
H234 C207 0.931 . S
C235 O217 1.265 . S
C235 O218 1.242 . S
C236 O221 1.261 . S
C236 O222 1.252 . S
C237 C240 1.394 . S
C237 C242 1.370 . S
C237 C243 1.500 . S
C238 C241 1.383 . S
C238 C242 1.395 . S
C239 C240 1.396 . S
C239 C241 1.365 . S
C239 H248 0.929 . S
C240 C237 1.394 . S
C240 C239 1.396 . S
C240 H249 0.930 . S
C241 C238 1.383 . S
C241 C239 1.365 . S
C241 H250 0.931 . S
C242 C237 1.370 . S
C242 C238 1.395 . S
C242 H251 0.930 . S
C243 Gd179 2.805 . S
C243 O219 1.263 . S
C243 O220 1.252 . S
C243 C237 1.500 . S
H244 C227 0.929 . S
H245 C228 0.930 . S
H246 C229 0.931 . S
H247 C230 0.930 . S
H248 C239 0.929 . S
H249 C240 0.930 . S
H250 C241 0.931 . S
H251 C242 0.930 . S
C252 C254 1.422 . S
C252 C256 1.415 . S
C252 N258 1.369 . S
C253 C254 1.421 . S
C253 C255 1.417 . S
C253 C265 1.422 1_545 S
C254 C252 1.422 . S
C254 C253 1.421 . S
C254 N264 1.359 . S
C255 C253 1.417 . S
C255 C257 1.329 . S
C255 H274 0.930 . S
C256 C252 1.415 . S
C256 C257 1.437 . S
C256 C260 1.413 . S
C257 C255 1.329 . S
C257 C256 1.437 . S
C257 H279 0.929 . S
N258 C252 1.369 . S
N258 C259 1.338 . S
N258 Gd263 2.622 . S
C259 N258 1.338 . S
C259 C261 1.378 . S
C259 H271 0.929 . S
C260 C256 1.413 . S
C260 C261 1.348 . S
C260 H276 0.931 . S
C261 C259 1.378 . S
C261 C260 1.348 . S
C261 H277 0.930 . S
Gd262 N282 2.622 1_655 S
Gd262 N289 2.570 1_655 S
Gd262 O296 2.353 . S
Gd262 O297 2.468 1_565 S
Gd262 O298 2.427 . S
Gd262 O300 2.388 . S
Gd262 O301 2.386 . S
Gd262 O305 2.307 1_565 S
Gd262 C315 2.805 . S
Gd263 N258 2.622 . S
Gd263 N264 2.570 . S
Gd263 O295 2.386 . S
Gd263 O299 2.307 1_545 S
Gd263 O302 2.353 . S
Gd263 O303 2.468 1_545 S
Gd263 O304 2.427 . S
Gd263 O306 2.388 . S
Gd263 C327 2.805 . S
N264 C254 1.359 . S
N264 Gd263 2.570 . S
N264 C266 1.343 1_545 S
C265 C253 1.422 1_565 S
C265 C267 1.321 . S
C265 H273 0.931 . S
C266 N264 1.343 1_565 S
C266 C267 1.390 . S
C266 H268 0.931 . S
C267 C265 1.321 . S
C267 C266 1.390 . S
C267 H269 0.930 . S
H268 C266 0.931 . S
H269 C267 0.930 . S
H270 C293 0.931 . S
H271 C259 0.929 . S
H272 C294 0.930 . S
H273 C265 0.931 . S
H274 C255 0.930 . S
H275 C284 0.929 1_655 S
H276 C260 0.931 . S
H277 C261 0.930 . S
H278 C316 0.930 . S
H279 C257 0.929 . S
H280 C285 0.931 . S
H281 C286 0.930 . S
N282 Gd262 2.622 1_455 S
N282 C283 1.369 . S
N282 C284 1.338 . S
C283 N282 1.369 . S
C283 C287 1.415 . S
C283 C290 1.422 . S
C284 H275 0.929 1_455 S
C284 N282 1.338 . S
C284 C286 1.378 . S
C285 H280 0.931 . S
C285 C286 1.348 . S
C285 C287 1.413 . S
C286 H281 0.930 . S
C286 C284 1.378 . S
C286 C285 1.348 . S
C287 C283 1.415 . S
C287 C285 1.413 . S
C287 C317 1.437 . S
H288 C317 0.929 . S
N289 Gd262 2.570 1_455 S
N289 C290 1.359 . S
N289 C293 1.343 1_565 S
C290 C283 1.422 . S
C290 N289 1.359 . S
C290 C292 1.421 . S
C291 C292 1.422 1_545 S
C291 C294 1.321 . S
C291 H318 0.931 . S
C292 C290 1.421 . S
C292 C291 1.422 1_565 S
C292 C316 1.417 . S
C293 H270 0.931 . S
C293 N289 1.343 1_545 S
C293 C294 1.390 . S
C294 H272 0.930 . S
C294 C291 1.321 . S
C294 C293 1.390 . S
O295 Gd263 2.386 . S
O295 C307 1.285 . S
O296 Gd262 2.353 . S
O296 C307 1.229 1_565 S
O297 Gd262 2.468 1_545 S
O297 C315 1.263 1_545 S
O298 Gd262 2.427 . S
O298 C315 1.252 . S
O299 Gd263 2.307 1_565 S
O299 C308 1.261 . S
O300 Gd262 2.388 . S
O300 C308 1.252 . S
O301 Gd262 2.386 . S
O301 C319 1.278 . S
O302 Gd263 2.353 . S
O302 C319 1.233 1_545 S
O303 Gd263 2.468 1_565 S
O303 C327 1.263 1_565 S
O304 Gd263 2.427 . S
O304 C327 1.252 . S
O305 Gd262 2.307 1_545 S
O305 C320 1.261 . S
O306 Gd263 2.388 . S
O306 C320 1.252 . S
C307 O295 1.285 . S
C307 O296 1.229 1_545 S
C308 O299 1.261 . S
C308 O300 1.252 . S
C309 C312 1.394 . S
C309 C314 1.370 1_565 S
C309 C315 1.500 . S
C310 C313 1.383 1_545 S
C310 C314 1.395 1_455 S
C311 C312 1.396 1_455 S
C311 C313 1.365 . S
C311 H328 0.929 . S
C312 C309 1.394 . S
C312 C311 1.396 1_655 S
C312 H329 0.930 . S
C313 C310 1.383 1_565 S
C313 C311 1.365 . S
C313 H330 0.931 . S
C314 C309 1.370 1_545 S
C314 C310 1.395 1_655 S
C314 H331 0.930 . S
C315 Gd262 2.805 . S
C315 O297 1.263 1_565 S
C315 O298 1.252 . S
C315 C309 1.500 . S
C316 H278 0.930 . S
C316 C292 1.417 . S
C316 C317 1.329 . S
C317 C287 1.437 . S
C317 H288 0.929 . S
C317 C316 1.329 . S
H318 C291 0.931 . S
C319 O301 1.278 . S
C319 O302 1.233 1_565 S
C320 O305 1.261 . S
C320 O306 1.252 . S
C321 C324 1.394 . S
C321 C326 1.370 1_545 S
C321 C327 1.500 . S
C322 C325 1.383 1_565 S
C322 C326 1.395 . S
C323 C324 1.396 . S
C323 C325 1.365 . S
C323 H332 0.929 . S
C324 C321 1.394 . S
C324 C323 1.396 . S
C324 H333 0.930 . S
C325 C322 1.383 1_545 S
C325 C323 1.365 . S
C325 H334 0.931 . S
C326 C321 1.370 1_565 S
C326 C322 1.395 . S
C326 H335 0.930 . S
C327 Gd263 2.805 . S
C327 O303 1.263 1_545 S
C327 O304 1.252 . S
C327 C321 1.500 . S
H328 C311 0.929 . S
H329 C312 0.930 . S
H330 C313 0.931 . S
H331 C314 0.930 . S
H332 C323 0.929 . S
H333 C324 0.930 . S
H334 C325 0.931 . S
H335 C326 0.930 . S
C336 C338 1.422 . S
C336 C340 1.415 . S
C336 N342 1.369 . S
C337 C338 1.421 . S
C337 C339 1.417 . S
C337 C349 1.422 1_545 S
C338 C336 1.422 . S
C338 C337 1.421 . S
C338 N348 1.359 . S
C339 C337 1.417 . S
C339 C341 1.329 . S
C339 H358 0.930 . S
C340 C336 1.415 . S
C340 C341 1.437 . S
C340 C344 1.413 . S
C341 C339 1.329 . S
C341 C340 1.437 . S
C341 H363 0.929 . S
N342 C336 1.369 . S
N342 C343 1.338 . S
N342 Gd347 2.622 . S
C343 N342 1.338 . S
C343 C345 1.378 . S
C343 H355 0.929 . S
C344 C340 1.413 . S
C344 C345 1.348 . S
C344 H360 0.931 . S
C345 C343 1.378 . S
C345 C344 1.348 . S
C345 H361 0.930 . S
Gd346 N366 2.622 . S
Gd346 N373 2.570 . S
Gd346 O380 2.353 . S
Gd346 O381 2.468 1_565 S
Gd346 O382 2.427 . S
Gd346 O384 2.388 . S
Gd346 O385 2.386 . S
Gd346 O389 2.307 1_565 S
Gd346 C399 2.805 1_556 S
Gd347 N342 2.622 . S
Gd347 N348 2.570 . S
Gd347 O379 2.386 . S
Gd347 O383 2.307 1_545 S
Gd347 O386 2.353 . S
Gd347 O387 2.468 1_545 S
Gd347 O388 2.427 . S
Gd347 O390 2.388 . S
Gd347 C411 2.805 . S
N348 C338 1.359 . S
N348 Gd347 2.570 . S
N348 C350 1.343 1_545 S
C349 C337 1.422 1_565 S
C349 C351 1.321 . S
C349 H357 0.931 . S
C350 N348 1.343 1_565 S
C350 C351 1.390 . S
C350 H352 0.931 . S
C351 C349 1.321 . S
C351 C350 1.390 . S
C351 H353 0.930 . S
H352 C350 0.931 . S
H353 C351 0.930 . S
H354 C377 0.931 . S
H355 C343 0.929 . S
H356 C378 0.930 . S
H357 C349 0.931 . S
H358 C339 0.930 . S
H359 C368 0.929 . S
H360 C344 0.931 . S
H361 C345 0.930 . S
H362 C400 0.930 . S
H363 C341 0.929 . S
H364 C369 0.931 . S
H365 C370 0.930 . S
N366 Gd346 2.622 . S
N366 C367 1.369 . S
N366 C368 1.338 . S
C367 N366 1.369 . S
C367 C371 1.415 . S
C367 C374 1.422 . S
C368 H359 0.929 . S
C368 N366 1.338 . S
C368 C370 1.378 . S
C369 H364 0.931 . S
C369 C370 1.348 . S
C369 C371 1.413 . S
C370 H365 0.930 . S
C370 C368 1.378 . S
C370 C369 1.348 . S
C371 C367 1.415 . S
C371 C369 1.413 . S
C371 C401 1.437 . S
H372 C401 0.929 . S
N373 Gd346 2.570 . S
N373 C374 1.359 . S
N373 C377 1.343 1_565 S
C374 C367 1.422 . S
C374 N373 1.359 . S
C374 C376 1.421 . S
C375 C376 1.422 1_545 S
C375 C378 1.321 . S
C375 H402 0.931 . S
C376 C374 1.421 . S
C376 C375 1.422 1_565 S
C376 C400 1.417 . S
C377 H354 0.931 . S
C377 N373 1.343 1_545 S
C377 C378 1.390 . S
C378 H356 0.930 . S
C378 C375 1.321 . S
C378 C377 1.390 . S
O379 Gd347 2.386 . S
O379 C391 1.265 . S
O380 Gd346 2.353 . S
O380 C391 1.242 1_565 S
O381 Gd346 2.468 1_545 S
O381 C399 1.263 1_546 S
O382 Gd346 2.427 . S
O382 C399 1.252 1_556 S
O383 Gd347 2.307 1_565 S
O383 C392 1.261 . S
O384 Gd346 2.388 . S
O384 C392 1.252 . S
O385 Gd346 2.386 . S
O385 C403 1.271 . S
O386 Gd347 2.353 . S
O386 C403 1.238 1_545 S
O387 Gd347 2.468 1_565 S
O387 C411 1.263 1_565 S
O388 Gd347 2.427 . S
O388 C411 1.252 . S
O389 Gd346 2.307 1_545 S
O389 C404 1.261 . S
O390 Gd347 2.388 . S
O390 C404 1.252 . S
C391 O379 1.265 . S
C391 O380 1.242 1_545 S
C392 O383 1.261 . S
C392 O384 1.252 . S
C393 C396 1.394 . S
C393 C398 1.370 1_565 S
C393 C399 1.500 . S
C394 C397 1.383 1_545 S
C394 C398 1.395 . S
C395 C396 1.396 . S
C395 C397 1.365 . S
C395 H412 0.929 . S
C396 C393 1.394 . S
C396 C395 1.396 . S
C396 H413 0.930 . S
C397 C394 1.383 1_565 S
C397 C395 1.365 . S
C397 H414 0.931 . S
C398 C393 1.370 1_545 S
C398 C394 1.395 . S
C398 H415 0.930 . S
C399 Gd346 2.805 1_554 S
C399 O381 1.263 1_564 S
C399 O382 1.252 1_554 S
C399 C393 1.500 . S
C400 H362 0.930 . S
C400 C376 1.417 . S
C400 C401 1.329 . S
C401 C371 1.437 . S
C401 H372 0.929 . S
C401 C400 1.329 . S
H402 C375 0.931 . S
C403 O385 1.271 . S
C403 O386 1.238 1_565 S
C404 O389 1.261 . S
C404 O390 1.252 . S
C405 C408 1.394 . S
C405 C410 1.370 1_545 S
C405 C411 1.500 . S
C406 C409 1.383 1_565 S
C406 C410 1.395 . S
C407 C408 1.396 . S
C407 C409 1.365 . S
C407 H416 0.929 . S
C408 C405 1.394 . S
C408 C407 1.396 . S
C408 H417 0.930 . S
C409 C406 1.383 1_545 S
C409 C407 1.365 . S
C409 H418 0.931 . S
C410 C405 1.370 1_565 S
C410 C406 1.395 . S
C410 H419 0.930 . S
C411 Gd347 2.805 . S
C411 O387 1.263 1_545 S
C411 O388 1.252 . S
C411 C405 1.500 . S
H412 C395 0.929 . S
H413 C396 0.930 . S
H414 C397 0.931 . S
H415 C398 0.930 . S
H416 C407 0.929 . S
H417 C408 0.930 . S
H418 C409 0.931 . S
H419 C410 0.930 . S
C420 C422 1.422 . S
C420 C424 1.415 . S
C420 N426 1.369 . S
C421 C422 1.421 . S
C421 C423 1.417 . S
C421 C433 1.422 . S
C422 C420 1.422 . S
C422 C421 1.421 . S
C422 N432 1.359 . S
C423 C421 1.417 . S
C423 C425 1.329 . S
C423 H442 0.930 . S
C424 C420 1.415 . S
C424 C425 1.437 . S
C424 C428 1.413 . S
C425 C423 1.329 . S
C425 C424 1.437 . S
C425 H447 0.929 . S
N426 C420 1.369 . S
N426 C427 1.338 . S
N426 Gd431 2.622 1_655 S
C427 N426 1.338 . S
C427 C429 1.378 . S
C427 H439 0.929 1_655 S
C428 C424 1.413 . S
C428 C429 1.348 . S
C428 H444 0.931 . S
C429 C427 1.378 . S
C429 C428 1.348 . S
C429 H445 0.930 . S
Gd430 N450 2.622 . S
Gd430 N457 2.570 . S
Gd430 O464 2.353 . S
Gd430 O465 2.468 . S
Gd430 O466 2.427 . S
Gd430 O468 2.388 . S
Gd430 O469 2.386 . S
Gd430 O473 2.307 . S
Gd430 C483 2.805 1_556 S
Gd431 N426 2.622 1_455 S
Gd431 N432 2.570 1_455 S
Gd431 O463 2.386 . S
Gd431 O467 2.307 . S
Gd431 O470 2.353 . S
Gd431 O471 2.468 . S
Gd431 O472 2.427 . S
Gd431 O474 2.388 . S
Gd431 C495 2.805 . S
N432 C422 1.359 . S
N432 Gd431 2.570 1_655 S
N432 C434 1.343 . S
C433 C421 1.422 . S
C433 C435 1.321 . S
C433 H441 0.931 . S
C434 N432 1.343 . S
C434 C435 1.390 . S
C434 H436 0.931 . S
C435 C433 1.321 . S
C435 C434 1.390 . S
C435 H437 0.930 . S
H436 C434 0.931 . S
H437 C435 0.930 . S
H438 C461 0.931 . S
H439 C427 0.929 1_455 S
H440 C462 0.930 . S
H441 C433 0.931 . S
H442 C423 0.930 . S
H443 C452 0.929 . S
H444 C428 0.931 . S
H445 C429 0.930 . S
H446 C484 0.930 . S
H447 C425 0.929 . S
H448 C453 0.931 . S
H449 C454 0.930 . S
N450 Gd430 2.622 . S
N450 C451 1.369 . S
N450 C452 1.338 . S
C451 N450 1.369 . S
C451 C455 1.415 . S
C451 C458 1.422 . S
C452 H443 0.929 . S
C452 N450 1.338 . S
C452 C454 1.378 . S
C453 H448 0.931 . S
C453 C454 1.348 . S
C453 C455 1.413 . S
C454 H449 0.930 . S
C454 C452 1.378 . S
C454 C453 1.348 . S
C455 C451 1.415 . S
C455 C453 1.413 . S
C455 C485 1.437 . S
H456 C485 0.929 . S
N457 Gd430 2.570 . S
N457 C458 1.359 . S
N457 C461 1.343 . S
C458 C451 1.422 . S
C458 N457 1.359 . S
C458 C460 1.421 . S
C459 C460 1.422 . S
C459 C462 1.321 . S
C459 H486 0.931 . S
C460 C458 1.421 . S
C460 C459 1.422 . S
C460 C484 1.417 . S
C461 H438 0.931 . S
C461 N457 1.343 . S
C461 C462 1.390 . S
C462 H440 0.930 . S
C462 C459 1.321 . S
C462 C461 1.390 . S
O463 Gd431 2.386 . S
O463 C475 1.265 . S
O464 Gd430 2.353 . S
O464 C475 1.242 . S
O465 Gd430 2.468 . S
O465 C483 1.263 1_556 S
O466 Gd430 2.427 . S
O466 C483 1.252 1_556 S
O467 Gd431 2.307 . S
O467 C476 1.261 . S
O468 Gd430 2.388 . S
O468 C476 1.252 . S
O469 Gd430 2.386 . S
O469 C487 1.265 . S
O470 Gd431 2.353 . S
O470 C487 1.242 . S
O471 Gd431 2.468 . S
O471 C495 1.263 . S
O472 Gd431 2.427 . S
O472 C495 1.252 . S
O473 Gd430 2.307 . S
O473 C488 1.261 . S
O474 Gd431 2.388 . S
O474 C488 1.252 . S
C475 O463 1.265 . S
C475 O464 1.242 . S
C476 O467 1.261 . S
C476 O468 1.252 . S
C477 C480 1.394 . S
C477 C482 1.370 . S
C477 C483 1.500 . S
C478 C481 1.383 . S
C478 C482 1.395 . S
C479 C480 1.396 . S
C479 C481 1.365 . S
C479 H496 0.929 . S
C480 C477 1.394 . S
C480 C479 1.396 . S
C480 H497 0.930 . S
C481 C478 1.383 . S
C481 C479 1.365 . S
C481 H498 0.931 . S
C482 C477 1.370 . S
C482 C478 1.395 . S
C482 H499 0.930 . S
C483 Gd430 2.805 1_554 S
C483 O465 1.263 1_554 S
C483 O466 1.252 1_554 S
C483 C477 1.500 . S
C484 H446 0.930 . S
C484 C460 1.417 . S
C484 C485 1.329 . S
C485 C455 1.437 . S
C485 H456 0.929 . S
C485 C484 1.329 . S
H486 C459 0.931 . S
C487 O469 1.265 . S
C487 O470 1.242 . S
C488 O473 1.261 . S
C488 O474 1.252 . S
C489 C492 1.394 . S
C489 C494 1.370 . S
C489 C495 1.500 . S
C490 C493 1.383 . S
C490 C494 1.395 1_655 S
C491 C492 1.396 1_655 S
C491 C493 1.365 . S
C491 H500 0.929 . S
C492 C489 1.394 . S
C492 C491 1.396 1_455 S
C492 H501 0.930 . S
C493 C490 1.383 . S
C493 C491 1.365 . S
C493 H502 0.931 . S
C494 C489 1.370 . S
C494 C490 1.395 1_455 S
C494 H503 0.930 . S
C495 Gd431 2.805 . S
C495 O471 1.263 . S
C495 O472 1.252 . S
C495 C489 1.500 . S
H496 C479 0.929 . S
H497 C480 0.930 . S
H498 C481 0.931 . S
H499 C482 0.930 . S
H500 C491 0.929 . S
H501 C492 0.930 . S
H502 C493 0.931 . S
H503 C494 0.930 . S
C504 C506 1.422 . S
C504 C508 1.415 . S
C504 N510 1.369 . S
C505 C506 1.421 . S
C505 C507 1.417 . S
C505 C517 1.422 . S
C506 C504 1.422 . S
C506 C505 1.421 . S
C506 N516 1.359 . S
C507 C505 1.417 . S
C507 C509 1.329 . S
C507 H526 0.930 . S
C508 C504 1.415 . S
C508 C509 1.437 . S
C508 C512 1.413 . S
C509 C507 1.329 . S
C509 C508 1.437 . S
C509 H531 0.929 . S
N510 C504 1.369 . S
N510 C511 1.338 . S
N510 Gd515 2.622 . S
C511 N510 1.338 . S
C511 C513 1.378 . S
C511 H523 0.929 . S
C512 C508 1.413 . S
C512 C513 1.348 . S
C512 H528 0.931 . S
C513 C511 1.378 . S
C513 C512 1.348 . S
C513 H529 0.930 . S
Gd514 N534 2.622 . S
Gd514 N541 2.570 . S
Gd514 O548 2.353 . S
Gd514 O549 2.468 . S
Gd514 O550 2.427 . S
Gd514 O552 2.388 . S
Gd514 O553 2.386 . S
Gd514 O557 2.307 . S
Gd514 C567 2.805 . S
Gd515 N510 2.622 . S
Gd515 N516 2.570 . S
Gd515 O547 2.386 . S
Gd515 O551 2.307 . S
Gd515 O554 2.353 . S
Gd515 O555 2.468 . S
Gd515 O556 2.427 . S
Gd515 O558 2.388 . S
Gd515 C579 2.805 . S
N516 C506 1.359 . S
N516 Gd515 2.570 . S
N516 C518 1.343 . S
C517 C505 1.422 . S
C517 C519 1.321 . S
C517 H525 0.931 . S
C518 N516 1.343 . S
C518 C519 1.390 . S
C518 H520 0.931 . S
C519 C517 1.321 . S
C519 C518 1.390 . S
C519 H521 0.930 . S
H520 C518 0.931 . S
H521 C519 0.930 . S
H522 C545 0.931 . S
H523 C511 0.929 . S
H524 C546 0.930 . S
H525 C517 0.931 . S
H526 C507 0.930 . S
H527 C536 0.929 . S
H528 C512 0.931 . S
H529 C513 0.930 . S
H530 C568 0.930 . S
H531 C509 0.929 . S
H532 C537 0.931 . S
H533 C538 0.930 . S
N534 Gd514 2.622 . S
N534 C535 1.369 . S
N534 C536 1.338 . S
C535 N534 1.369 . S
C535 C539 1.415 . S
C535 C542 1.422 . S
C536 H527 0.929 . S
C536 N534 1.338 . S
C536 C538 1.378 . S
C537 H532 0.931 . S
C537 C538 1.348 . S
C537 C539 1.413 . S
C538 H533 0.930 . S
C538 C536 1.378 . S
C538 C537 1.348 . S
C539 C535 1.415 . S
C539 C537 1.413 . S
C539 C569 1.437 . S
H540 C569 0.929 . S
N541 Gd514 2.570 . S
N541 C542 1.359 . S
N541 C545 1.343 . S
C542 C535 1.422 . S
C542 N541 1.359 . S
C542 C544 1.421 . S
C543 C544 1.422 . S
C543 C546 1.321 . S
C543 H570 0.931 . S
C544 C542 1.421 . S
C544 C543 1.422 . S
C544 C568 1.417 . S
C545 H522 0.931 . S
C545 N541 1.343 . S
C545 C546 1.390 . S
C546 H524 0.930 . S
C546 C543 1.321 . S
C546 C545 1.390 . S
O547 Gd515 2.386 . S
O547 C559 1.265 . S
O548 Gd514 2.353 . S
O548 C559 1.242 . S
O549 Gd514 2.468 . S
O549 C567 1.263 . S
O550 Gd514 2.427 . S
O550 C567 1.252 . S
O551 Gd515 2.307 . S
O551 C560 1.261 . S
O552 Gd514 2.388 . S
O552 C560 1.252 . S
O553 Gd514 2.386 . S
O553 C571 1.265 . S
O554 Gd515 2.353 . S
O554 C571 1.242 . S
O555 Gd515 2.468 . S
O555 C579 1.263 . S
O556 Gd515 2.427 . S
O556 C579 1.252 . S
O557 Gd514 2.307 . S
O557 C572 1.261 . S
O558 Gd515 2.388 . S
O558 C572 1.252 . S
C559 O547 1.265 . S
C559 O548 1.242 . S
C560 O551 1.261 . S
C560 O552 1.252 . S
C561 C564 1.394 . S
C561 C566 1.370 . S
C561 C567 1.500 . S
C562 C565 1.383 . S
C562 C566 1.395 . S
C563 C564 1.396 . S
C563 C565 1.365 . S
C563 H580 0.929 . S
C564 C561 1.394 . S
C564 C563 1.396 . S
C564 H581 0.930 . S
C565 C562 1.383 . S
C565 C563 1.365 . S
C565 H582 0.931 . S
C566 C561 1.370 . S
C566 C562 1.395 . S
C566 H583 0.930 . S
C567 Gd514 2.805 . S
C567 O549 1.263 . S
C567 O550 1.252 . S
C567 C561 1.500 . S
C568 H530 0.930 . S
C568 C544 1.417 . S
C568 C569 1.329 . S
C569 C539 1.437 . S
C569 H540 0.929 . S
C569 C568 1.329 . S
H570 C543 0.931 . S
C571 O553 1.265 . S
C571 O554 1.242 . S
C572 O557 1.261 . S
C572 O558 1.252 . S
C573 C576 1.394 . S
C573 C578 1.370 . S
C573 C579 1.500 . S
C574 C577 1.383 . S
C574 C578 1.395 . S
C575 C576 1.396 . S
C575 C577 1.365 . S
C575 H584 0.929 . S
C576 C573 1.394 . S
C576 C575 1.396 . S
C576 H585 0.930 . S
C577 C574 1.383 . S
C577 C575 1.365 . S
C577 H586 0.931 . S
C578 C573 1.370 . S
C578 C574 1.395 . S
C578 H587 0.930 . S
C579 Gd515 2.805 . S
C579 O555 1.263 . S
C579 O556 1.252 . S
C579 C573 1.500 . S
H580 C563 0.929 . S
H581 C564 0.930 . S
H582 C565 0.931 . S
H583 C566 0.930 . S
H584 C575 0.929 . S
H585 C576 0.930 . S
H586 C577 0.931 . S
H587 C578 0.930 . S
C588 C590 1.422 . S
C588 C592 1.415 . S
C588 N594 1.369 . S
C589 C590 1.421 . S
C589 C591 1.417 . S
C589 C601 1.422 1_545 S
C590 C588 1.422 . S
C590 C589 1.421 . S
C590 N600 1.359 . S
C591 C589 1.417 . S
C591 C593 1.329 . S
C591 H610 0.930 . S
C592 C588 1.415 . S
C592 C593 1.437 . S
C592 C596 1.413 . S
C593 C591 1.329 . S
C593 C592 1.437 . S
C593 H615 0.929 . S
N594 C588 1.369 . S
N594 C595 1.338 . S
N594 Gd599 2.622 1_655 S
C595 N594 1.338 . S
C595 C597 1.378 . S
C595 H607 0.929 1_655 S
C596 C592 1.413 . S
C596 C597 1.348 . S
C596 H612 0.931 . S
C597 C595 1.378 . S
C597 C596 1.348 . S
C597 H613 0.930 . S
Gd598 N618 2.622 . S
Gd598 N625 2.570 . S
Gd598 O632 2.353 . S
Gd598 O633 2.468 1_565 S
Gd598 O634 2.427 . S
Gd598 O636 2.388 . S
Gd598 O637 2.386 . S
Gd598 O641 2.307 1_565 S
Gd598 C651 2.805 . S
Gd599 N594 2.622 1_455 S
Gd599 N600 2.570 1_455 S
Gd599 O631 2.386 . S
Gd599 O635 2.307 1_545 S
Gd599 O638 2.353 . S
Gd599 O639 2.468 1_545 S
Gd599 O640 2.427 . S
Gd599 O642 2.388 . S
Gd599 C663 2.805 . S
N600 C590 1.359 . S
N600 Gd599 2.570 1_655 S
N600 C602 1.343 1_545 S
C601 C589 1.422 1_565 S
C601 C603 1.321 . S
C601 H609 0.931 . S
C602 N600 1.343 1_565 S
C602 C603 1.390 . S
C602 H604 0.931 . S
C603 C601 1.321 . S
C603 C602 1.390 . S
C603 H605 0.930 . S
H604 C602 0.931 . S
H605 C603 0.930 . S
H606 C629 0.931 . S
H607 C595 0.929 1_455 S
H608 C630 0.930 . S
H609 C601 0.931 . S
H610 C591 0.930 . S
H611 C620 0.929 . S
H612 C596 0.931 . S
H613 C597 0.930 . S
H614 C652 0.930 . S
H615 C593 0.929 . S
H616 C621 0.931 . S
H617 C622 0.930 . S
N618 Gd598 2.622 . S
N618 C619 1.369 . S
N618 C620 1.338 . S
C619 N618 1.369 . S
C619 C623 1.415 . S
C619 C626 1.422 . S
C620 H611 0.929 . S
C620 N618 1.338 . S
C620 C622 1.378 . S
C621 H616 0.931 . S
C621 C622 1.348 . S
C621 C623 1.413 . S
C622 H617 0.930 . S
C622 C620 1.378 . S
C622 C621 1.348 . S
C623 C619 1.415 . S
C623 C621 1.413 . S
C623 C653 1.437 . S
H624 C653 0.929 . S
N625 Gd598 2.570 . S
N625 C626 1.359 . S
N625 C629 1.343 1_565 S
C626 C619 1.422 . S
C626 N625 1.359 . S
C626 C628 1.421 . S
C627 C628 1.422 1_545 S
C627 C630 1.321 . S
C627 H654 0.931 . S
C628 C626 1.421 . S
C628 C627 1.422 1_565 S
C628 C652 1.417 . S
C629 H606 0.931 . S
C629 N625 1.343 1_545 S
C629 C630 1.390 . S
C630 H608 0.930 . S
C630 C627 1.321 . S
C630 C629 1.390 . S
O631 Gd599 2.386 . S
O631 C643 1.278 . S
O632 Gd598 2.353 . S
O632 C643 1.233 1_565 S
O633 Gd598 2.468 1_545 S
O633 C651 1.263 1_545 S
O634 Gd598 2.427 . S
O634 C651 1.252 . S
O635 Gd599 2.307 1_565 S
O635 C644 1.261 . S
O636 Gd598 2.388 . S
O636 C644 1.252 . S
O637 Gd598 2.386 . S
O637 C655 1.285 . S
O638 Gd599 2.353 . S
O638 C655 1.229 1_545 S
O639 Gd599 2.468 1_565 S
O639 C663 1.263 1_565 S
O640 Gd599 2.427 . S
O640 C663 1.252 . S
O641 Gd598 2.307 1_545 S
O641 C656 1.261 . S
O642 Gd599 2.388 . S
O642 C656 1.252 . S
C643 O631 1.278 . S
C643 O632 1.233 1_545 S
C644 O635 1.261 . S
C644 O636 1.252 . S
C645 C648 1.394 . S
C645 C650 1.370 1_565 S
C645 C651 1.500 . S
C646 C649 1.383 1_545 S
C646 C650 1.395 . S
C647 C648 1.396 . S
C647 C649 1.365 . S
C647 H664 0.929 . S
C648 C645 1.394 . S
C648 C647 1.396 . S
C648 H665 0.930 . S
C649 C646 1.383 1_565 S
C649 C647 1.365 . S
C649 H666 0.931 . S
C650 C645 1.370 1_545 S
C650 C646 1.395 . S
C650 H667 0.930 . S
C651 Gd598 2.805 . S
C651 O633 1.263 1_565 S
C651 O634 1.252 . S
C651 C645 1.500 . S
C652 H614 0.930 . S
C652 C628 1.417 . S
C652 C653 1.329 . S
C653 C623 1.437 . S
C653 H624 0.929 . S
C653 C652 1.329 . S
H654 C627 0.931 . S
C655 O637 1.285 . S
C655 O638 1.229 1_565 S
C656 O641 1.261 . S
C656 O642 1.252 . S
C657 C660 1.394 . S
C657 C662 1.370 1_545 S
C657 C663 1.500 . S
C658 C661 1.383 1_565 S
C658 C662 1.395 1_655 S
C659 C660 1.396 1_655 S
C659 C661 1.365 . S
C659 H668 0.929 . S
C660 C657 1.394 . S
C660 C659 1.396 1_455 S
C660 H669 0.930 . S
C661 C658 1.383 1_545 S
C661 C659 1.365 . S
C661 H670 0.931 . S
C662 C657 1.370 1_565 S
C662 C658 1.395 1_455 S
C662 H671 0.930 . S
C663 Gd599 2.805 . S
C663 O639 1.263 1_545 S
C663 O640 1.252 . S
C663 C657 1.500 . S
H664 C647 0.929 . S
H665 C648 0.930 . S
H666 C649 0.931 . S
H667 C650 0.930 . S
H668 C659 0.929 . S
H669 C660 0.930 . S
H670 C661 0.931 . S
H671 C662 0.930 . S
C672 C674 1.422 . S
C672 C676 1.415 . S
C672 N678 1.369 . S
C673 C674 1.421 . S
C673 C675 1.417 . S
C673 C685 1.422 . S
C674 C672 1.422 . S
C674 C673 1.421 . S
C674 N684 1.359 . S
C675 C673 1.417 . S
C675 C677 1.329 . S
C675 H694 0.930 . S
C676 C672 1.415 . S
C676 C677 1.437 . S
C676 C680 1.413 . S
C677 C675 1.329 . S
C677 C676 1.437 . S
C677 H699 0.929 . S
N678 C672 1.369 . S
N678 C679 1.338 . S
N678 Gd683 2.622 . S
C679 N678 1.338 . S
C679 C681 1.378 . S
C679 H691 0.929 . S
C680 C676 1.413 . S
C680 C681 1.348 . S
C680 H696 0.931 . S
C681 C679 1.378 . S
C681 C680 1.348 . S
C681 H697 0.930 . S
Gd682 N702 2.622 . S
Gd682 N709 2.570 . S
Gd682 O716 2.353 . S
Gd682 O717 2.468 . S
Gd682 O718 2.427 . S
Gd682 O720 2.388 . S
Gd682 O721 2.386 . S
Gd682 O725 2.307 . S
Gd682 C735 2.805 . S
Gd683 N678 2.622 . S
Gd683 N684 2.570 . S
Gd683 O715 2.386 . S
Gd683 O719 2.307 . S
Gd683 O722 2.353 . S
Gd683 O723 2.468 . S
Gd683 O724 2.427 . S
Gd683 O726 2.388 . S
Gd683 C747 2.805 . S
N684 C674 1.359 . S
N684 Gd683 2.570 . S
N684 C686 1.343 . S
C685 C673 1.422 . S
C685 C687 1.321 . S
C685 H693 0.931 . S
C686 N684 1.343 . S
C686 C687 1.390 . S
C686 H688 0.931 . S
C687 C685 1.321 . S
C687 C686 1.390 . S
C687 H689 0.930 . S
H688 C686 0.931 . S
H689 C687 0.930 . S
H690 C713 0.931 . S
H691 C679 0.929 . S
H692 C714 0.930 . S
H693 C685 0.931 . S
H694 C675 0.930 . S
H695 C704 0.929 . S
H696 C680 0.931 . S
H697 C681 0.930 . S
H698 C736 0.930 . S
H699 C677 0.929 . S
H700 C705 0.931 . S
H701 C706 0.930 . S
N702 Gd682 2.622 . S
N702 C703 1.369 . S
N702 C704 1.338 . S
C703 N702 1.369 . S
C703 C707 1.415 . S
C703 C710 1.422 . S
C704 H695 0.929 . S
C704 N702 1.338 . S
C704 C706 1.378 . S
C705 H700 0.931 . S
C705 C706 1.348 . S
C705 C707 1.413 . S
C706 H701 0.930 . S
C706 C704 1.378 . S
C706 C705 1.348 . S
C707 C703 1.415 . S
C707 C705 1.413 . S
C707 C737 1.437 . S
H708 C737 0.929 . S
N709 Gd682 2.570 . S
N709 C710 1.359 . S
N709 C713 1.343 . S
C710 C703 1.422 . S
C710 N709 1.359 . S
C710 C712 1.421 . S
C711 C712 1.422 . S
C711 C714 1.321 . S
C711 H738 0.931 . S
C712 C710 1.421 . S
C712 C711 1.422 . S
C712 C736 1.417 . S
C713 H690 0.931 . S
C713 N709 1.343 . S
C713 C714 1.390 . S
C714 H692 0.930 . S
C714 C711 1.321 . S
C714 C713 1.390 . S
O715 Gd683 2.386 . S
O715 C727 1.265 . S
O716 Gd682 2.353 . S
O716 C727 1.242 . S
O717 Gd682 2.468 . S
O717 C735 1.263 . S
O718 Gd682 2.427 . S
O718 C735 1.252 . S
O719 Gd683 2.307 . S
O719 C728 1.261 . S
O720 Gd682 2.388 . S
O720 C728 1.252 . S
O721 Gd682 2.386 . S
O721 C739 1.265 . S
O722 Gd683 2.353 . S
O722 C739 1.242 . S
O723 Gd683 2.468 . S
O723 C747 1.263 . S
O724 Gd683 2.427 . S
O724 C747 1.252 . S
O725 Gd682 2.307 . S
O725 C740 1.261 . S
O726 Gd683 2.388 . S
O726 C740 1.252 . S
C727 O715 1.265 . S
C727 O716 1.242 . S
C728 O719 1.261 . S
C728 O720 1.252 . S
C729 C732 1.394 . S
C729 C734 1.370 . S
C729 C735 1.500 . S
C730 C733 1.383 . S
C730 C734 1.395 . S
C731 C732 1.396 . S
C731 C733 1.365 . S
C731 H748 0.929 . S
C732 C729 1.394 . S
C732 C731 1.396 . S
C732 H749 0.930 . S
C733 C730 1.383 . S
C733 C731 1.365 . S
C733 H750 0.931 . S
C734 C729 1.370 . S
C734 C730 1.395 . S
C734 H751 0.930 . S
C735 Gd682 2.805 . S
C735 O717 1.263 . S
C735 O718 1.252 . S
C735 C729 1.500 . S
C736 H698 0.930 . S
C736 C712 1.417 . S
C736 C737 1.329 . S
C737 C707 1.437 . S
C737 H708 0.929 . S
C737 C736 1.329 . S
H738 C711 0.931 . S
C739 O721 1.265 . S
C739 O722 1.242 . S
C740 O725 1.261 . S
C740 O726 1.252 . S
C741 C744 1.394 . S
C741 C746 1.370 . S
C741 C747 1.500 . S
C742 C745 1.383 . S
C742 C746 1.395 . S
C743 C744 1.396 . S
C743 C745 1.365 . S
C743 H752 0.929 . S
C744 C741 1.394 . S
C744 C743 1.396 . S
C744 H753 0.930 . S
C745 C742 1.383 . S
C745 C743 1.365 . S
C745 H754 0.931 . S
C746 C741 1.370 . S
C746 C742 1.395 . S
C746 H755 0.930 . S
C747 Gd683 2.805 . S
C747 O723 1.263 . S
C747 O724 1.252 . S
C747 C741 1.500 . S
H748 C731 0.929 . S
H749 C732 0.930 . S
H750 C733 0.931 . S
H751 C734 0.930 . S
H752 C743 0.929 . S
H753 C744 0.930 . S
H754 C745 0.931 . S
H755 C746 0.930 . S
C756 C758 1.422 . S
C756 C760 1.415 . S
C756 N762 1.369 . S
C757 C758 1.421 . S
C757 C759 1.417 . S
C757 C769 1.422 . S
C758 C756 1.422 . S
C758 C757 1.421 . S
C758 N768 1.359 . S
C759 C757 1.417 . S
C759 C761 1.329 . S
C759 H778 0.930 . S
C760 C756 1.415 . S
C760 C761 1.437 . S
C760 C764 1.413 . S
C761 C759 1.329 . S
C761 C760 1.437 . S
C761 H783 0.929 . S
N762 C756 1.369 . S
N762 C763 1.338 . S
N762 Gd767 2.622 . S
C763 N762 1.338 . S
C763 C765 1.378 . S
C763 H775 0.929 . S
C764 C760 1.413 . S
C764 C765 1.348 . S
C764 H780 0.931 . S
C765 C763 1.378 . S
C765 C764 1.348 . S
C765 H781 0.930 . S
Gd766 N786 2.622 1_655 S
Gd766 N793 2.570 1_655 S
Gd766 O800 2.353 . S
Gd766 O801 2.468 . S
Gd766 O802 2.427 . S
Gd766 O804 2.388 . S
Gd766 O805 2.386 . S
Gd766 O809 2.307 . S
Gd766 C819 2.805 . S
Gd767 N762 2.622 . S
Gd767 N768 2.570 . S
Gd767 O799 2.386 . S
Gd767 O803 2.307 . S
Gd767 O806 2.353 . S
Gd767 O807 2.468 . S
Gd767 O808 2.427 . S
Gd767 O810 2.388 . S
Gd767 C831 2.805 . S
N768 C758 1.359 . S
N768 Gd767 2.570 . S
N768 C770 1.343 . S
C769 C757 1.422 . S
C769 C771 1.321 . S
C769 H777 0.931 . S
C770 N768 1.343 . S
C770 C771 1.390 . S
C770 H772 0.931 . S
C771 C769 1.321 . S
C771 C770 1.390 . S
C771 H773 0.930 . S
H772 C770 0.931 . S
H773 C771 0.930 . S
H774 C797 0.931 . S
H775 C763 0.929 . S
H776 C798 0.930 . S
H777 C769 0.931 . S
H778 C759 0.930 . S
H779 C788 0.929 1_655 S
H780 C764 0.931 . S
H781 C765 0.930 . S
H782 C820 0.930 . S
H783 C761 0.929 . S
H784 C789 0.931 . S
H785 C790 0.930 . S
N786 Gd766 2.622 1_455 S
N786 C787 1.369 . S
N786 C788 1.338 . S
C787 N786 1.369 . S
C787 C791 1.415 . S
C787 C794 1.422 . S
C788 H779 0.929 1_455 S
C788 N786 1.338 . S
C788 C790 1.378 . S
C789 H784 0.931 . S
C789 C790 1.348 . S
C789 C791 1.413 . S
C790 H785 0.930 . S
C790 C788 1.378 . S
C790 C789 1.348 . S
C791 C787 1.415 . S
C791 C789 1.413 . S
C791 C821 1.437 . S
H792 C821 0.929 . S
N793 Gd766 2.570 1_455 S
N793 C794 1.359 . S
N793 C797 1.343 . S
C794 C787 1.422 . S
C794 N793 1.359 . S
C794 C796 1.421 . S
C795 C796 1.422 . S
C795 C798 1.321 . S
C795 H822 0.931 . S
C796 C794 1.421 . S
C796 C795 1.422 . S
C796 C820 1.417 . S
C797 H774 0.931 . S
C797 N793 1.343 . S
C797 C798 1.390 . S
C798 H776 0.930 . S
C798 C795 1.321 . S
C798 C797 1.390 . S
O799 Gd767 2.386 . S
O799 C811 1.265 . S
O800 Gd766 2.353 . S
O800 C811 1.242 . S
O801 Gd766 2.468 . S
O801 C819 1.263 . S
O802 Gd766 2.427 . S
O802 C819 1.252 . S
O803 Gd767 2.307 . S
O803 C812 1.261 . S
O804 Gd766 2.388 . S
O804 C812 1.252 . S
O805 Gd766 2.386 . S
O805 C823 1.265 . S
O806 Gd767 2.353 . S
O806 C823 1.242 . S
O807 Gd767 2.468 . S
O807 C831 1.263 . S
O808 Gd767 2.427 . S
O808 C831 1.252 . S
O809 Gd766 2.307 . S
O809 C824 1.261 . S
O810 Gd767 2.388 . S
O810 C824 1.252 . S
C811 O799 1.265 . S
C811 O800 1.242 . S
C812 O803 1.261 . S
C812 O804 1.252 . S
C813 C816 1.394 . S
C813 C818 1.370 . S
C813 C819 1.500 . S
C814 C817 1.383 . S
C814 C818 1.395 1_455 S
C815 C816 1.396 1_455 S
C815 C817 1.365 . S
C815 H832 0.929 . S
C816 C813 1.394 . S
C816 C815 1.396 1_655 S
C816 H833 0.930 . S
C817 C814 1.383 . S
C817 C815 1.365 . S
C817 H834 0.931 . S
C818 C813 1.370 . S
C818 C814 1.395 1_655 S
C818 H835 0.930 . S
C819 Gd766 2.805 . S
C819 O801 1.263 . S
C819 O802 1.252 . S
C819 C813 1.500 . S
C820 H782 0.930 . S
C820 C796 1.417 . S
C820 C821 1.329 . S
C821 C791 1.437 . S
C821 H792 0.929 . S
C821 C820 1.329 . S
H822 C795 0.931 . S
C823 O805 1.265 . S
C823 O806 1.242 . S
C824 O809 1.261 . S
C824 O810 1.252 . S
C825 C828 1.394 . S
C825 C830 1.370 . S
C825 C831 1.500 . S
C826 C829 1.383 . S
C826 C830 1.395 . S
C827 C828 1.396 . S
C827 C829 1.365 . S
C827 H836 0.929 . S
C828 C825 1.394 . S
C828 C827 1.396 . S
C828 H837 0.930 . S
C829 C826 1.383 . S
C829 C827 1.365 . S
C829 H838 0.931 . S
C830 C825 1.370 . S
C830 C826 1.395 . S
C830 H839 0.930 . S
C831 Gd767 2.805 . S
C831 O807 1.263 . S
C831 O808 1.252 . S
C831 C825 1.500 . S
H832 C815 0.929 . S
H833 C816 0.930 . S
H834 C817 0.931 . S
H835 C818 0.930 . S
H836 C827 0.929 . S
H837 C828 0.930 . S
H838 C829 0.931 . S
H839 C830 0.930 . S
C840 C842 1.422 . S
C840 C844 1.415 . S
C840 N846 1.369 . S
C841 C842 1.421 . S
C841 C843 1.417 . S
C841 C853 1.422 . S
C842 C840 1.422 . S
C842 C841 1.421 . S
C842 N852 1.359 . S
C843 C841 1.417 . S
C843 C845 1.329 . S
C843 H862 0.930 . S
C844 C840 1.415 . S
C844 C845 1.437 . S
C844 C848 1.413 . S
C845 C843 1.329 . S
C845 C844 1.437 . S
C845 H867 0.929 . S
N846 C840 1.369 . S
N846 C847 1.338 . S
N846 Gd851 2.622 . S
C847 N846 1.338 . S
C847 C849 1.378 . S
C847 H859 0.929 . S
C848 C844 1.413 . S
C848 C849 1.348 . S
C848 H864 0.931 . S
C849 C847 1.378 . S
C849 C848 1.348 . S
C849 H865 0.930 . S
Gd850 N870 2.622 . S
Gd850 N877 2.570 . S
Gd850 O884 2.353 . S
Gd850 O885 2.468 . S
Gd850 O886 2.427 . S
Gd850 O888 2.388 . S
Gd850 O889 2.386 . S
Gd850 O893 2.307 . S
Gd850 C903 2.805 . S
Gd851 N846 2.622 . S
Gd851 N852 2.570 . S
Gd851 O883 2.386 . S
Gd851 O887 2.307 . S
Gd851 O890 2.353 . S
Gd851 O891 2.468 . S
Gd851 O892 2.427 . S
Gd851 O894 2.388 . S
Gd851 C915 2.805 . S
N852 C842 1.359 . S
N852 Gd851 2.570 . S
N852 C854 1.343 . S
C853 C841 1.422 . S
C853 C855 1.321 . S
C853 H861 0.931 . S
C854 N852 1.343 . S
C854 C855 1.390 . S
C854 H856 0.931 . S
C855 C853 1.321 . S
C855 C854 1.390 . S
C855 H857 0.930 . S
H856 C854 0.931 . S
H857 C855 0.930 . S
H858 C881 0.931 . S
H859 C847 0.929 . S
H860 C882 0.930 . S
H861 C853 0.931 . S
H862 C843 0.930 . S
H863 C872 0.929 . S
H864 C848 0.931 . S
H865 C849 0.930 . S
H866 C904 0.930 . S
H867 C845 0.929 . S
H868 C873 0.931 . S
H869 C874 0.930 . S
N870 Gd850 2.622 . S
N870 C871 1.369 . S
N870 C872 1.338 . S
C871 N870 1.369 . S
C871 C875 1.415 . S
C871 C878 1.422 . S
C872 H863 0.929 . S
C872 N870 1.338 . S
C872 C874 1.378 . S
C873 H868 0.931 . S
C873 C874 1.348 . S
C873 C875 1.413 . S
C874 H869 0.930 . S
C874 C872 1.378 . S
C874 C873 1.348 . S
C875 C871 1.415 . S
C875 C873 1.413 . S
C875 C905 1.437 . S
H876 C905 0.929 . S
N877 Gd850 2.570 . S
N877 C878 1.359 . S
N877 C881 1.343 . S
C878 C871 1.422 . S
C878 N877 1.359 . S
C878 C880 1.421 . S
C879 C880 1.422 . S
C879 C882 1.321 . S
C879 H906 0.931 . S
C880 C878 1.421 . S
C880 C879 1.422 . S
C880 C904 1.417 . S
C881 H858 0.931 . S
C881 N877 1.343 . S
C881 C882 1.390 . S
C882 H860 0.930 . S
C882 C879 1.321 . S
C882 C881 1.390 . S
O883 Gd851 2.386 . S
O883 C895 1.265 . S
O884 Gd850 2.353 . S
O884 C895 1.242 . S
O885 Gd850 2.468 . S
O885 C903 1.263 . S
O886 Gd850 2.427 . S
O886 C903 1.252 . S
O887 Gd851 2.307 . S
O887 C896 1.261 . S
O888 Gd850 2.388 . S
O888 C896 1.252 . S
O889 Gd850 2.386 . S
O889 C907 1.265 . S
O890 Gd851 2.353 . S
O890 C907 1.242 . S
O891 Gd851 2.468 . S
O891 C915 1.263 . S
O892 Gd851 2.427 . S
O892 C915 1.252 . S
O893 Gd850 2.307 . S
O893 C908 1.261 . S
O894 Gd851 2.388 . S
O894 C908 1.252 . S
C895 O883 1.265 . S
C895 O884 1.242 . S
C896 O887 1.261 . S
C896 O888 1.252 . S
C897 C900 1.394 . S
C897 C902 1.370 . S
C897 C903 1.500 . S
C898 C901 1.383 . S
C898 C902 1.395 . S
C899 C900 1.396 . S
C899 C901 1.365 . S
C899 H916 0.929 . S
C900 C897 1.394 . S
C900 C899 1.396 . S
C900 H917 0.930 . S
C901 C898 1.383 . S
C901 C899 1.365 . S
C901 H918 0.931 . S
C902 C897 1.370 . S
C902 C898 1.395 . S
C902 H919 0.930 . S
C903 Gd850 2.805 . S
C903 O885 1.263 . S
C903 O886 1.252 . S
C903 C897 1.500 . S
C904 H866 0.930 . S
C904 C880 1.417 . S
C904 C905 1.329 . S
C905 C875 1.437 . S
C905 H876 0.929 . S
C905 C904 1.329 . S
H906 C879 0.931 . S
C907 O889 1.265 . S
C907 O890 1.242 . S
C908 O893 1.261 . S
C908 O894 1.252 . S
C909 C912 1.394 . S
C909 C914 1.370 . S
C909 C915 1.500 . S
C910 C913 1.383 . S
C910 C914 1.395 . S
C911 C912 1.396 . S
C911 C913 1.365 . S
C911 H920 0.929 . S
C912 C909 1.394 . S
C912 C911 1.396 . S
C912 H921 0.930 . S
C913 C910 1.383 . S
C913 C911 1.365 . S
C913 H922 0.931 . S
C914 C909 1.370 . S
C914 C910 1.395 . S
C914 H923 0.930 . S
C915 Gd851 2.805 . S
C915 O891 1.263 . S
C915 O892 1.252 . S
C915 C909 1.500 . S
H916 C899 0.929 . S
H917 C900 0.930 . S
H918 C901 0.931 . S
H919 C902 0.930 . S
H920 C911 0.929 . S
H921 C912 0.930 . S
H922 C913 0.931 . S
H923 C914 0.930 . S
C924 C926 1.422 . S
C924 C928 1.415 . S
C924 N930 1.369 . S
C925 C926 1.421 . S
C925 C927 1.417 . S
C925 C937 1.422 . S
C926 C924 1.422 . S
C926 C925 1.421 . S
C926 N936 1.359 . S
C927 C925 1.417 . S
C927 C929 1.329 . S
C927 H946 0.930 . S
C928 C924 1.415 . S
C928 C929 1.437 . S
C928 C932 1.413 . S
C929 C927 1.329 . S
C929 C928 1.437 . S
C929 H951 0.929 . S
N930 C924 1.369 . S
N930 C931 1.338 . S
N930 Gd935 2.622 . S
C931 N930 1.338 . S
C931 C933 1.378 . S
C931 H943 0.929 . S
C932 C928 1.413 . S
C932 C933 1.348 . S
C932 H948 0.931 . S
C933 C931 1.378 . S
C933 C932 1.348 . S
C933 H949 0.930 . S
Gd934 N954 2.622 1_655 S
Gd934 N961 2.570 1_655 S
Gd934 O968 2.353 . S
Gd934 O969 2.468 . S
Gd934 O970 2.427 . S
Gd934 O972 2.388 . S
Gd934 O973 2.386 . S
Gd934 O977 2.307 . S
Gd934 C987 2.805 . S
Gd935 N930 2.622 . S
Gd935 N936 2.570 . S
Gd935 O967 2.386 . S
Gd935 O971 2.307 . S
Gd935 O974 2.353 . S
Gd935 O975 2.468 . S
Gd935 O976 2.427 . S
Gd935 O978 2.388 . S
Gd935 C999 2.805 . S
N936 C926 1.359 . S
N936 Gd935 2.570 . S
N936 C938 1.343 . S
C937 C925 1.422 . S
C937 C939 1.321 . S
C937 H945 0.931 . S
C938 N936 1.343 . S
C938 C939 1.390 . S
C938 H940 0.931 . S
C939 C937 1.321 . S
C939 C938 1.390 . S
C939 H941 0.930 . S
H940 C938 0.931 . S
H941 C939 0.930 . S
H942 C965 0.931 . S
H943 C931 0.929 . S
H944 C966 0.930 . S
H945 C937 0.931 . S
H946 C927 0.930 . S
H947 C956 0.929 1_655 S
H948 C932 0.931 . S
H949 C933 0.930 . S
H950 C988 0.930 . S
H951 C929 0.929 . S
H952 C957 0.931 . S
H953 C958 0.930 . S
N954 Gd934 2.622 1_455 S
N954 C955 1.369 . S
N954 C956 1.338 . S
C955 N954 1.369 . S
C955 C959 1.415 . S
C955 C962 1.422 . S
C956 H947 0.929 1_455 S
C956 N954 1.338 . S
C956 C958 1.378 . S
C957 H952 0.931 . S
C957 C958 1.348 . S
C957 C959 1.413 . S
C958 H953 0.930 . S
C958 C956 1.378 . S
C958 C957 1.348 . S
C959 C955 1.415 . S
C959 C957 1.413 . S
C959 C989 1.437 . S
H960 C989 0.929 . S
N961 Gd934 2.570 1_455 S
N961 C962 1.359 . S
N961 C965 1.343 . S
C962 C955 1.422 . S
C962 N961 1.359 . S
C962 C964 1.421 . S
C963 C964 1.422 . S
C963 C966 1.321 . S
C963 H990 0.931 . S
C964 C962 1.421 . S
C964 C963 1.422 . S
C964 C988 1.417 . S
C965 H942 0.931 . S
C965 N961 1.343 . S
C965 C966 1.390 . S
C966 H944 0.930 . S
C966 C963 1.321 . S
C966 C965 1.390 . S
O967 Gd935 2.386 . S
O967 C979 1.265 . S
O968 Gd934 2.353 . S
O968 C979 1.242 . S
O969 Gd934 2.468 . S
O969 C987 1.263 . S
O970 Gd934 2.427 . S
O970 C987 1.252 . S
O971 Gd935 2.307 . S
O971 C980 1.261 . S
O972 Gd934 2.388 . S
O972 C980 1.252 . S
O973 Gd934 2.386 . S
O973 C991 1.265 . S
O974 Gd935 2.353 . S
O974 C991 1.242 . S
O975 Gd935 2.468 . S
O975 C999 1.263 . S
O976 Gd935 2.427 . S
O976 C999 1.252 . S
O977 Gd934 2.307 . S
O977 C992 1.261 . S
O978 Gd935 2.388 . S
O978 C992 1.252 . S
C979 O967 1.265 . S
C979 O968 1.242 . S
C980 O971 1.261 . S
C980 O972 1.252 . S
C981 C984 1.394 . S
C981 C986 1.370 . S
C981 C987 1.500 . S
C982 C985 1.383 . S
C982 C986 1.395 1_455 S
C983 C984 1.396 1_455 S
C983 C985 1.365 . S
C983 H1000 0.929 . S
C984 C981 1.394 . S
C984 C983 1.396 1_655 S
C984 H1001 0.930 . S
C985 C982 1.383 . S
C985 C983 1.365 . S
C985 H1002 0.931 . S
C986 C981 1.370 . S
C986 C982 1.395 1_655 S
C986 H1003 0.930 . S
C987 Gd934 2.805 . S
C987 O969 1.263 . S
C987 O970 1.252 . S
C987 C981 1.500 . S
C988 H950 0.930 . S
C988 C964 1.417 . S
C988 C989 1.329 . S
C989 C959 1.437 . S
C989 H960 0.929 . S
C989 C988 1.329 . S
H990 C963 0.931 . S
C991 O973 1.265 . S
C991 O974 1.242 . S
C992 O977 1.261 . S
C992 O978 1.252 . S
C993 C996 1.394 . S
C993 C998 1.370 . S
C993 C999 1.500 . S
C994 C997 1.383 . S
C994 C998 1.395 . S
C995 C996 1.396 . S
C995 C997 1.365 . S
C995 H1004 0.929 . S
C996 C993 1.394 . S
C996 C995 1.396 . S
C996 H1005 0.930 . S
C997 C994 1.383 . S
C997 C995 1.365 . S
C997 H1006 0.931 . S
C998 C993 1.370 . S
C998 C994 1.395 . S
C998 H1007 0.930 . S
C999 Gd935 2.805 . S
C999 O975 1.263 . S
C999 O976 1.252 . S
C999 C993 1.500 . S
H1000 C983 0.929 . S
H1001 C984 0.930 . S
H1002 C985 0.931 . S
H1003 C986 0.930 . S
H1004 C995 0.929 . S
H1005 C996 0.930 . S
H1006 C997 0.931 . S
H1007 C998 0.930 . S
C1008 C1010 1.422 . S
C1008 C1012 1.415 . S
C1008 N1014 1.369 . S
C1009 C1010 1.421 . S
C1009 C1011 1.417 . S
C1009 C1021 1.422 . S
C1010 C1008 1.422 . S
C1010 C1009 1.421 . S
C1010 N1020 1.359 . S
C1011 C1009 1.417 . S
C1011 C1013 1.329 . S
C1011 H1030 0.930 . S
C1012 C1008 1.415 . S
C1012 C1013 1.437 . S
C1012 C1016 1.413 . S
C1013 C1011 1.329 . S
C1013 C1012 1.437 . S
C1013 H1035 0.929 . S
N1014 C1008 1.369 . S
N1014 C1015 1.338 . S
N1014 Gd1019 2.622 . S
C1015 N1014 1.338 . S
C1015 C1017 1.378 . S
C1015 H1027 0.929 . S
C1016 C1012 1.413 . S
C1016 C1017 1.348 . S
C1016 H1032 0.931 . S
C1017 C1015 1.378 . S
C1017 C1016 1.348 . S
C1017 H1033 0.930 . S
Gd1018 N1038 2.622 . S
Gd1018 N1045 2.570 . S
Gd1018 O1052 2.353 . S
Gd1018 O1053 2.468 . S
Gd1018 O1054 2.427 . S
Gd1018 O1056 2.388 . S
Gd1018 O1057 2.386 . S
Gd1018 O1061 2.307 . S
Gd1018 C1071 2.805 . S
Gd1019 N1014 2.622 . S
Gd1019 N1020 2.570 . S
Gd1019 O1051 2.386 . S
Gd1019 O1055 2.307 . S
Gd1019 O1058 2.353 . S
Gd1019 O1059 2.468 . S
Gd1019 O1060 2.427 . S
Gd1019 O1062 2.388 . S
Gd1019 C1083 2.805 . S
N1020 C1010 1.359 . S
N1020 Gd1019 2.570 . S
N1020 C1022 1.343 . S
C1021 C1009 1.422 . S
C1021 C1023 1.321 . S
C1021 H1029 0.931 . S
C1022 N1020 1.343 . S
C1022 C1023 1.390 . S
C1022 H1024 0.931 . S
C1023 C1021 1.321 . S
C1023 C1022 1.390 . S
C1023 H1025 0.930 . S
H1024 C1022 0.931 . S
H1025 C1023 0.930 . S
H1026 C1049 0.931 . S
H1027 C1015 0.929 . S
H1028 C1050 0.930 . S
H1029 C1021 0.931 . S
H1030 C1011 0.930 . S
H1031 C1040 0.929 . S
H1032 C1016 0.931 . S
H1033 C1017 0.930 . S
H1034 C1072 0.930 . S
H1035 C1013 0.929 . S
H1036 C1041 0.931 . S
H1037 C1042 0.930 . S
N1038 Gd1018 2.622 . S
N1038 C1039 1.369 . S
N1038 C1040 1.338 . S
C1039 N1038 1.369 . S
C1039 C1043 1.415 . S
C1039 C1046 1.422 . S
C1040 H1031 0.929 . S
C1040 N1038 1.338 . S
C1040 C1042 1.378 . S
C1041 H1036 0.931 . S
C1041 C1042 1.348 . S
C1041 C1043 1.413 . S
C1042 H1037 0.930 . S
C1042 C1040 1.378 . S
C1042 C1041 1.348 . S
C1043 C1039 1.415 . S
C1043 C1041 1.413 . S
C1043 C1073 1.437 . S
H1044 C1073 0.929 . S
N1045 Gd1018 2.570 . S
N1045 C1046 1.359 . S
N1045 C1049 1.343 . S
C1046 C1039 1.422 . S
C1046 N1045 1.359 . S
C1046 C1048 1.421 . S
C1047 C1048 1.422 . S
C1047 C1050 1.321 . S
C1047 H1074 0.931 . S
C1048 C1046 1.421 . S
C1048 C1047 1.422 . S
C1048 C1072 1.417 . S
C1049 H1026 0.931 . S
C1049 N1045 1.343 . S
C1049 C1050 1.390 . S
C1050 H1028 0.930 . S
C1050 C1047 1.321 . S
C1050 C1049 1.390 . S
O1051 Gd1019 2.386 . S
O1051 C1063 1.265 . S
O1052 Gd1018 2.353 . S
O1052 C1063 1.242 . S
O1053 Gd1018 2.468 . S
O1053 C1071 1.263 . S
O1054 Gd1018 2.427 . S
O1054 C1071 1.252 . S
O1055 Gd1019 2.307 . S
O1055 C1064 1.261 . S
O1056 Gd1018 2.388 . S
O1056 C1064 1.252 . S
O1057 Gd1018 2.386 . S
O1057 C1075 1.265 . S
O1058 Gd1019 2.353 . S
O1058 C1075 1.242 . S
O1059 Gd1019 2.468 . S
O1059 C1083 1.263 . S
O1060 Gd1019 2.427 . S
O1060 C1083 1.252 . S
O1061 Gd1018 2.307 . S
O1061 C1076 1.261 . S
O1062 Gd1019 2.388 . S
O1062 C1076 1.252 . S
C1063 O1051 1.265 . S
C1063 O1052 1.242 . S
C1064 O1055 1.261 . S
C1064 O1056 1.252 . S
C1065 C1068 1.394 . S
C1065 C1070 1.370 . S
C1065 C1071 1.500 . S
C1066 C1069 1.383 . S
C1066 C1070 1.395 . S
C1067 C1068 1.396 . S
C1067 C1069 1.365 . S
C1067 H1084 0.929 . S
C1068 C1065 1.394 . S
C1068 C1067 1.396 . S
C1068 H1085 0.930 . S
C1069 C1066 1.383 . S
C1069 C1067 1.365 . S
C1069 H1086 0.931 . S
C1070 C1065 1.370 . S
C1070 C1066 1.395 . S
C1070 H1087 0.930 . S
C1071 Gd1018 2.805 . S
C1071 O1053 1.263 . S
C1071 O1054 1.252 . S
C1071 C1065 1.500 . S
C1072 H1034 0.930 . S
C1072 C1048 1.417 . S
C1072 C1073 1.329 . S
C1073 C1043 1.437 . S
C1073 H1044 0.929 . S
C1073 C1072 1.329 . S
H1074 C1047 0.931 . S
C1075 O1057 1.265 . S
C1075 O1058 1.242 . S
C1076 O1061 1.261 . S
C1076 O1062 1.252 . S
C1077 C1080 1.394 . S
C1077 C1082 1.370 . S
C1077 C1083 1.500 . S
C1078 C1081 1.383 . S
C1078 C1082 1.395 . S
C1079 C1080 1.396 . S
C1079 C1081 1.365 . S
C1079 H1088 0.929 . S
C1080 C1077 1.394 . S
C1080 C1079 1.396 . S
C1080 H1089 0.930 . S
C1081 C1078 1.383 . S
C1081 C1079 1.365 . S
C1081 H1090 0.931 . S
C1082 C1077 1.370 . S
C1082 C1078 1.395 . S
C1082 H1091 0.930 . S
C1083 Gd1019 2.805 . S
C1083 O1059 1.263 . S
C1083 O1060 1.252 . S
C1083 C1077 1.500 . S
H1084 C1067 0.929 . S
H1085 C1068 0.930 . S
H1086 C1069 0.931 . S
H1087 C1070 0.930 . S
H1088 C1079 0.929 . S
H1089 C1080 0.930 . S
H1090 C1081 0.931 . S
H1091 C1082 0.930 . S
C1092 C1094 1.422 . S
C1092 C1096 1.415 . S
C1092 N1098 1.369 . S
C1093 C1094 1.421 . S
C1093 C1095 1.417 . S
C1093 C1105 1.422 . S
C1094 C1092 1.422 . S
C1094 C1093 1.421 . S
C1094 N1104 1.359 . S
C1095 C1093 1.417 . S
C1095 C1097 1.329 . S
C1095 H1114 0.930 . S
C1096 C1092 1.415 . S
C1096 C1097 1.437 . S
C1096 C1100 1.413 . S
C1097 C1095 1.329 . S
C1097 C1096 1.437 . S
C1097 H1119 0.929 . S
N1098 C1092 1.369 . S
N1098 C1099 1.338 . S
N1098 Gd1103 2.622 1_655 S
C1099 N1098 1.338 . S
C1099 C1101 1.378 . S
C1099 H1111 0.929 1_655 S
C1100 C1096 1.413 . S
C1100 C1101 1.348 . S
C1100 H1116 0.931 . S
C1101 C1099 1.378 . S
C1101 C1100 1.348 . S
C1101 H1117 0.930 . S
Gd1102 N1122 2.622 . S
Gd1102 N1129 2.570 . S
Gd1102 O1136 2.353 . S
Gd1102 O1137 2.468 . S
Gd1102 O1138 2.427 . S
Gd1102 O1140 2.388 . S
Gd1102 O1141 2.386 . S
Gd1102 O1145 2.307 . S
Gd1102 C1155 2.805 . S
Gd1103 N1098 2.622 1_455 S
Gd1103 N1104 2.570 1_455 S
Gd1103 O1135 2.386 . S
Gd1103 O1139 2.307 . S
Gd1103 O1142 2.353 . S
Gd1103 O1143 2.468 . S
Gd1103 O1144 2.427 . S
Gd1103 O1146 2.388 . S
Gd1103 C1167 2.805 . S
N1104 C1094 1.359 . S
N1104 Gd1103 2.570 1_655 S
N1104 C1106 1.343 . S
C1105 C1093 1.422 . S
C1105 C1107 1.321 . S
C1105 H1113 0.931 . S
C1106 N1104 1.343 . S
C1106 C1107 1.390 . S
C1106 H1108 0.931 . S
C1107 C1105 1.321 . S
C1107 C1106 1.390 . S
C1107 H1109 0.930 . S
H1108 C1106 0.931 . S
H1109 C1107 0.930 . S
H1110 C1133 0.931 . S
H1111 C1099 0.929 1_455 S
H1112 C1134 0.930 . S
H1113 C1105 0.931 . S
H1114 C1095 0.930 . S
H1115 C1124 0.929 . S
H1116 C1100 0.931 . S
H1117 C1101 0.930 . S
H1118 C1156 0.930 . S
H1119 C1097 0.929 . S
H1120 C1125 0.931 . S
H1121 C1126 0.930 . S
N1122 Gd1102 2.622 . S
N1122 C1123 1.369 . S
N1122 C1124 1.338 . S
C1123 N1122 1.369 . S
C1123 C1127 1.415 . S
C1123 C1130 1.422 . S
C1124 H1115 0.929 . S
C1124 N1122 1.338 . S
C1124 C1126 1.378 . S
C1125 H1120 0.931 . S
C1125 C1126 1.348 . S
C1125 C1127 1.413 . S
C1126 H1121 0.930 . S
C1126 C1124 1.378 . S
C1126 C1125 1.348 . S
C1127 C1123 1.415 . S
C1127 C1125 1.413 . S
C1127 C1157 1.437 . S
H1128 C1157 0.929 . S
N1129 Gd1102 2.570 . S
N1129 C1130 1.359 . S
N1129 C1133 1.343 . S
C1130 C1123 1.422 . S
C1130 N1129 1.359 . S
C1130 C1132 1.421 . S
C1131 C1132 1.422 . S
C1131 C1134 1.321 . S
C1131 H1158 0.931 . S
C1132 C1130 1.421 . S
C1132 C1131 1.422 . S
C1132 C1156 1.417 . S
C1133 H1110 0.931 . S
C1133 N1129 1.343 . S
C1133 C1134 1.390 . S
C1134 H1112 0.930 . S
C1134 C1131 1.321 . S
C1134 C1133 1.390 . S
O1135 Gd1103 2.386 . S
O1135 C1147 1.265 . S
O1136 Gd1102 2.353 . S
O1136 C1147 1.242 . S
O1137 Gd1102 2.468 . S
O1137 C1155 1.263 . S
O1138 Gd1102 2.427 . S
O1138 C1155 1.252 . S
O1139 Gd1103 2.307 . S
O1139 C1148 1.261 . S
O1140 Gd1102 2.388 . S
O1140 C1148 1.252 . S
O1141 Gd1102 2.386 . S
O1141 C1159 1.265 . S
O1142 Gd1103 2.353 . S
O1142 C1159 1.242 . S
O1143 Gd1103 2.468 . S
O1143 C1167 1.263 . S
O1144 Gd1103 2.427 . S
O1144 C1167 1.252 . S
O1145 Gd1102 2.307 . S
O1145 C1160 1.261 . S
O1146 Gd1103 2.388 . S
O1146 C1160 1.252 . S
C1147 O1135 1.265 . S
C1147 O1136 1.242 . S
C1148 O1139 1.261 . S
C1148 O1140 1.252 . S
C1149 C1152 1.394 . S
C1149 C1154 1.370 . S
C1149 C1155 1.500 . S
C1150 C1153 1.383 . S
C1150 C1154 1.395 . S
C1151 C1152 1.396 . S
C1151 C1153 1.365 . S
C1151 H1168 0.929 . S
C1152 C1149 1.394 . S
C1152 C1151 1.396 . S
C1152 H1169 0.930 . S
C1153 C1150 1.383 . S
C1153 C1151 1.365 . S
C1153 H1170 0.931 . S
C1154 C1149 1.370 . S
C1154 C1150 1.395 . S
C1154 H1171 0.930 . S
C1155 Gd1102 2.805 . S
C1155 O1137 1.263 . S
C1155 O1138 1.252 . S
C1155 C1149 1.500 . S
C1156 H1118 0.930 . S
C1156 C1132 1.417 . S
C1156 C1157 1.329 . S
C1157 C1127 1.437 . S
C1157 H1128 0.929 . S
C1157 C1156 1.329 . S
H1158 C1131 0.931 . S
C1159 O1141 1.265 . S
C1159 O1142 1.242 . S
C1160 O1145 1.261 . S
C1160 O1146 1.252 . S
C1161 C1164 1.394 . S
C1161 C1166 1.370 . S
C1161 C1167 1.500 . S
C1162 C1165 1.383 . S
C1162 C1166 1.395 1_655 S
C1163 C1164 1.396 1_655 S
C1163 C1165 1.365 . S
C1163 H1172 0.929 . S
C1164 C1161 1.394 . S
C1164 C1163 1.396 1_455 S
C1164 H1173 0.930 . S
C1165 C1162 1.383 . S
C1165 C1163 1.365 . S
C1165 H1174 0.931 . S
C1166 C1161 1.370 . S
C1166 C1162 1.395 1_455 S
C1166 H1175 0.930 . S
C1167 Gd1103 2.805 . S
C1167 O1143 1.263 . S
C1167 O1144 1.252 . S
C1167 C1161 1.500 . S
H1168 C1151 0.929 . S
H1169 C1152 0.930 . S
H1170 C1153 0.931 . S
H1171 C1154 0.930 . S
H1172 C1163 0.929 . S
H1173 C1164 0.930 . S
H1174 C1165 0.931 . S
H1175 C1166 0.930 . S
C1176 C1178 1.422 . S
C1176 C1180 1.415 . S
C1176 N1182 1.369 . S
C1177 C1178 1.421 . S
C1177 C1179 1.417 . S
C1177 C1189 1.422 . S
C1178 C1176 1.422 . S
C1178 C1177 1.421 . S
C1178 N1188 1.359 . S
C1179 C1177 1.417 . S
C1179 C1181 1.329 . S
C1179 H1198 0.930 . S
C1180 C1176 1.415 . S
C1180 C1181 1.437 . S
C1180 C1184 1.413 . S
C1181 C1179 1.329 . S
C1181 C1180 1.437 . S
C1181 H1203 0.929 . S
N1182 C1176 1.369 . S
N1182 C1183 1.338 . S
N1182 Gd1187 2.622 . S
C1183 N1182 1.338 . S
C1183 C1185 1.378 . S
C1183 H1195 0.929 . S
C1184 C1180 1.413 . S
C1184 C1185 1.348 . S
C1184 H1200 0.931 . S
C1185 C1183 1.378 . S
C1185 C1184 1.348 . S
C1185 H1201 0.930 . S
Gd1186 N1206 2.622 . S
Gd1186 N1213 2.570 . S
Gd1186 O1220 2.353 . S
Gd1186 O1221 2.468 . S
Gd1186 O1222 2.427 . S
Gd1186 O1224 2.388 . S
Gd1186 O1225 2.386 . S
Gd1186 O1229 2.307 . S
Gd1186 C1239 2.805 . S
Gd1187 N1182 2.622 . S
Gd1187 N1188 2.570 . S
Gd1187 O1219 2.386 . S
Gd1187 O1223 2.307 . S
Gd1187 O1226 2.353 . S
Gd1187 O1227 2.468 . S
Gd1187 O1228 2.427 . S
Gd1187 O1230 2.388 . S
Gd1187 C1251 2.805 . S
N1188 C1178 1.359 . S
N1188 Gd1187 2.570 . S
N1188 C1190 1.343 . S
C1189 C1177 1.422 . S
C1189 C1191 1.321 . S
C1189 H1197 0.931 . S
C1190 N1188 1.343 . S
C1190 C1191 1.390 . S
C1190 H1192 0.931 . S
C1191 C1189 1.321 . S
C1191 C1190 1.390 . S
C1191 H1193 0.930 . S
H1192 C1190 0.931 . S
H1193 C1191 0.930 . S
H1194 C1217 0.931 . S
H1195 C1183 0.929 . S
H1196 C1218 0.930 . S
H1197 C1189 0.931 . S
H1198 C1179 0.930 . S
H1199 C1208 0.929 . S
H1200 C1184 0.931 . S
H1201 C1185 0.930 . S
H1202 C1240 0.930 . S
H1203 C1181 0.929 . S
H1204 C1209 0.931 . S
H1205 C1210 0.930 . S
N1206 Gd1186 2.622 . S
N1206 C1207 1.369 . S
N1206 C1208 1.338 . S
C1207 N1206 1.369 . S
C1207 C1211 1.415 . S
C1207 C1214 1.422 . S
C1208 H1199 0.929 . S
C1208 N1206 1.338 . S
C1208 C1210 1.378 . S
C1209 H1204 0.931 . S
C1209 C1210 1.348 . S
C1209 C1211 1.413 . S
C1210 H1205 0.930 . S
C1210 C1208 1.378 . S
C1210 C1209 1.348 . S
C1211 C1207 1.415 . S
C1211 C1209 1.413 . S
C1211 C1241 1.437 . S
H1212 C1241 0.929 . S
N1213 Gd1186 2.570 . S
N1213 C1214 1.359 . S
N1213 C1217 1.343 . S
C1214 C1207 1.422 . S
C1214 N1213 1.359 . S
C1214 C1216 1.421 . S
C1215 C1216 1.422 . S
C1215 C1218 1.321 . S
C1215 H1242 0.931 . S
C1216 C1214 1.421 . S
C1216 C1215 1.422 . S
C1216 C1240 1.417 . S
C1217 H1194 0.931 . S
C1217 N1213 1.343 . S
C1217 C1218 1.390 . S
C1218 H1196 0.930 . S
C1218 C1215 1.321 . S
C1218 C1217 1.390 . S
O1219 Gd1187 2.386 . S
O1219 C1231 1.265 . S
O1220 Gd1186 2.353 . S
O1220 C1231 1.242 . S
O1221 Gd1186 2.468 . S
O1221 C1239 1.263 . S
O1222 Gd1186 2.427 . S
O1222 C1239 1.252 . S
O1223 Gd1187 2.307 . S
O1223 C1232 1.261 . S
O1224 Gd1186 2.388 . S
O1224 C1232 1.252 . S
O1225 Gd1186 2.386 . S
O1225 C1243 1.265 . S
O1226 Gd1187 2.353 . S
O1226 C1243 1.242 . S
O1227 Gd1187 2.468 . S
O1227 C1251 1.263 . S
O1228 Gd1187 2.427 . S
O1228 C1251 1.252 . S
O1229 Gd1186 2.307 . S
O1229 C1244 1.261 . S
O1230 Gd1187 2.388 . S
O1230 C1244 1.252 . S
C1231 O1219 1.265 . S
C1231 O1220 1.242 . S
C1232 O1223 1.261 . S
C1232 O1224 1.252 . S
C1233 C1236 1.394 . S
C1233 C1238 1.370 . S
C1233 C1239 1.500 . S
C1234 C1237 1.383 . S
C1234 C1238 1.395 . S
C1235 C1236 1.396 . S
C1235 C1237 1.365 . S
C1235 H1252 0.929 . S
C1236 C1233 1.394 . S
C1236 C1235 1.396 . S
C1236 H1253 0.930 . S
C1237 C1234 1.383 . S
C1237 C1235 1.365 . S
C1237 H1254 0.931 . S
C1238 C1233 1.370 . S
C1238 C1234 1.395 . S
C1238 H1255 0.930 . S
C1239 Gd1186 2.805 . S
C1239 O1221 1.263 . S
C1239 O1222 1.252 . S
C1239 C1233 1.500 . S
C1240 H1202 0.930 . S
C1240 C1216 1.417 . S
C1240 C1241 1.329 . S
C1241 C1211 1.437 . S
C1241 H1212 0.929 . S
C1241 C1240 1.329 . S
H1242 C1215 0.931 . S
C1243 O1225 1.265 . S
C1243 O1226 1.242 . S
C1244 O1229 1.261 . S
C1244 O1230 1.252 . S
C1245 C1248 1.394 . S
C1245 C1250 1.370 . S
C1245 C1251 1.500 . S
C1246 C1249 1.383 . S
C1246 C1250 1.395 . S
C1247 C1248 1.396 . S
C1247 C1249 1.365 . S
C1247 H1256 0.929 . S
C1248 C1245 1.394 . S
C1248 C1247 1.396 . S
C1248 H1257 0.930 . S
C1249 C1246 1.383 . S
C1249 C1247 1.365 . S
C1249 H1258 0.931 . S
C1250 C1245 1.370 . S
C1250 C1246 1.395 . S
C1250 H1259 0.930 . S
C1251 Gd1187 2.805 . S
C1251 O1227 1.263 . S
C1251 O1228 1.252 . S
C1251 C1245 1.500 . S
H1252 C1235 0.929 . S
H1253 C1236 0.930 . S
H1254 C1237 0.931 . S
H1255 C1238 0.930 . S
H1256 C1247 0.929 . S
H1257 C1248 0.930 . S
H1258 C1249 0.931 . S
H1259 C1250 0.930 . S
C1260 C1262 1.422 . S
C1260 C1264 1.415 . S
C1260 N1266 1.369 . S
C1261 C1262 1.421 . S
C1261 C1263 1.417 . S
C1261 C1273 1.422 . S
C1262 C1260 1.422 . S
C1262 C1261 1.421 . S
C1262 N1272 1.359 . S
C1263 C1261 1.417 . S
C1263 C1265 1.329 . S
C1263 H1282 0.930 . S
C1264 C1260 1.415 . S
C1264 C1265 1.437 . S
C1264 C1268 1.413 . S
C1265 C1263 1.329 . S
C1265 C1264 1.437 . S
C1265 H1287 0.929 . S
N1266 C1260 1.369 . S
N1266 C1267 1.338 . S
N1266 Gd1271 2.622 1_655 S
C1267 N1266 1.338 . S
C1267 C1269 1.378 . S
C1267 H1279 0.929 1_655 S
C1268 C1264 1.413 . S
C1268 C1269 1.348 . S
C1268 H1284 0.931 . S
C1269 C1267 1.378 . S
C1269 C1268 1.348 . S
C1269 H1285 0.930 . S
Gd1270 N1290 2.622 . S
Gd1270 N1297 2.570 . S
Gd1270 O1304 2.353 . S
Gd1270 O1305 2.468 . S
Gd1270 O1306 2.427 . S
Gd1270 O1308 2.388 . S
Gd1270 O1309 2.386 . S
Gd1270 O1313 2.307 . S
Gd1270 C1323 2.805 . S
Gd1271 N1266 2.622 1_455 S
Gd1271 N1272 2.570 1_455 S
Gd1271 O1303 2.386 . S
Gd1271 O1307 2.307 . S
Gd1271 O1310 2.353 . S
Gd1271 O1311 2.468 . S
Gd1271 O1312 2.427 . S
Gd1271 O1314 2.388 . S
Gd1271 C1335 2.805 . S
N1272 C1262 1.359 . S
N1272 Gd1271 2.570 1_655 S
N1272 C1274 1.343 . S
C1273 C1261 1.422 . S
C1273 C1275 1.321 . S
C1273 H1281 0.931 . S
C1274 N1272 1.343 . S
C1274 C1275 1.390 . S
C1274 H1276 0.931 . S
C1275 C1273 1.321 . S
C1275 C1274 1.390 . S
C1275 H1277 0.930 . S
H1276 C1274 0.931 . S
H1277 C1275 0.930 . S
H1278 C1301 0.931 . S
H1279 C1267 0.929 1_455 S
H1280 C1302 0.930 . S
H1281 C1273 0.931 . S
H1282 C1263 0.930 . S
H1283 C1292 0.929 . S
H1284 C1268 0.931 . S
H1285 C1269 0.930 . S
H1286 C1324 0.930 . S
H1287 C1265 0.929 . S
H1288 C1293 0.931 . S
H1289 C1294 0.930 . S
N1290 Gd1270 2.622 . S
N1290 C1291 1.369 . S
N1290 C1292 1.338 . S
C1291 N1290 1.369 . S
C1291 C1295 1.415 . S
C1291 C1298 1.422 . S
C1292 H1283 0.929 . S
C1292 N1290 1.338 . S
C1292 C1294 1.378 . S
C1293 H1288 0.931 . S
C1293 C1294 1.348 . S
C1293 C1295 1.413 . S
C1294 H1289 0.930 . S
C1294 C1292 1.378 . S
C1294 C1293 1.348 . S
C1295 C1291 1.415 . S
C1295 C1293 1.413 . S
C1295 C1325 1.437 . S
H1296 C1325 0.929 . S
N1297 Gd1270 2.570 . S
N1297 C1298 1.359 . S
N1297 C1301 1.343 . S
C1298 C1291 1.422 . S
C1298 N1297 1.359 . S
C1298 C1300 1.421 . S
C1299 C1300 1.422 . S
C1299 C1302 1.321 . S
C1299 H1326 0.931 . S
C1300 C1298 1.421 . S
C1300 C1299 1.422 . S
C1300 C1324 1.417 . S
C1301 H1278 0.931 . S
C1301 N1297 1.343 . S
C1301 C1302 1.390 . S
C1302 H1280 0.930 . S
C1302 C1299 1.321 . S
C1302 C1301 1.390 . S
O1303 Gd1271 2.386 . S
O1303 C1315 1.265 . S
O1304 Gd1270 2.353 . S
O1304 C1315 1.242 . S
O1305 Gd1270 2.468 . S
O1305 C1323 1.263 . S
O1306 Gd1270 2.427 . S
O1306 C1323 1.252 . S
O1307 Gd1271 2.307 . S
O1307 C1316 1.261 . S
O1308 Gd1270 2.388 . S
O1308 C1316 1.252 . S
O1309 Gd1270 2.386 . S
O1309 C1327 1.265 . S
O1310 Gd1271 2.353 . S
O1310 C1327 1.242 . S
O1311 Gd1271 2.468 . S
O1311 C1335 1.263 . S
O1312 Gd1271 2.427 . S
O1312 C1335 1.252 . S
O1313 Gd1270 2.307 . S
O1313 C1328 1.261 . S
O1314 Gd1271 2.388 . S
O1314 C1328 1.252 . S
C1315 O1303 1.265 . S
C1315 O1304 1.242 . S
C1316 O1307 1.261 . S
C1316 O1308 1.252 . S
C1317 C1320 1.394 . S
C1317 C1322 1.370 . S
C1317 C1323 1.500 . S
C1318 C1321 1.383 . S
C1318 C1322 1.395 . S
C1319 C1320 1.396 . S
C1319 C1321 1.365 . S
C1319 H1336 0.929 . S
C1320 C1317 1.394 . S
C1320 C1319 1.396 . S
C1320 H1337 0.930 . S
C1321 C1318 1.383 . S
C1321 C1319 1.365 . S
C1321 H1338 0.931 . S
C1322 C1317 1.370 . S
C1322 C1318 1.395 . S
C1322 H1339 0.930 . S
C1323 Gd1270 2.805 . S
C1323 O1305 1.263 . S
C1323 O1306 1.252 . S
C1323 C1317 1.500 . S
C1324 H1286 0.930 . S
C1324 C1300 1.417 . S
C1324 C1325 1.329 . S
C1325 C1295 1.437 . S
C1325 H1296 0.929 . S
C1325 C1324 1.329 . S
H1326 C1299 0.931 . S
C1327 O1309 1.265 . S
C1327 O1310 1.242 . S
C1328 O1313 1.261 . S
C1328 O1314 1.252 . S
C1329 C1332 1.394 . S
C1329 C1334 1.370 . S
C1329 C1335 1.500 . S
C1330 C1333 1.383 . S
C1330 C1334 1.395 1_655 S
C1331 C1332 1.396 1_655 S
C1331 C1333 1.365 . S
C1331 H1340 0.929 . S
C1332 C1329 1.394 . S
C1332 C1331 1.396 1_455 S
C1332 H1341 0.930 . S
C1333 C1330 1.383 . S
C1333 C1331 1.365 . S
C1333 H1342 0.931 . S
C1334 C1329 1.370 . S
C1334 C1330 1.395 1_455 S
C1334 H1343 0.930 . S
C1335 Gd1271 2.805 . S
C1335 O1311 1.263 . S
C1335 O1312 1.252 . S
C1335 C1329 1.500 . S
H1336 C1319 0.929 . S
H1337 C1320 0.930 . S
H1338 C1321 0.931 . S
H1339 C1322 0.930 . S
H1340 C1331 0.929 . S
H1341 C1332 0.930 . S
H1342 C1333 0.931 . S
H1343 C1334 0.930 . S
C1344 C1346 1.422 . S
C1344 C1348 1.415 . S
C1344 N1350 1.369 . S
C1345 C1346 1.421 . S
C1345 C1347 1.417 . S
C1345 C1357 1.422 1_545 S
C1346 C1344 1.422 . S
C1346 C1345 1.421 . S
C1346 N1356 1.359 . S
C1347 C1345 1.417 . S
C1347 C1349 1.329 . S
C1347 H1366 0.916 1_655 S
C1348 C1344 1.415 . S
C1348 C1349 1.437 . S
C1348 C1352 1.413 . S
C1349 C1347 1.329 . S
C1349 C1348 1.437 . S
C1349 H1371 0.929 . S
N1350 C1344 1.369 . S
N1350 C1351 1.338 . S
N1350 Gd1355 2.622 . S
C1351 N1350 1.338 . S
C1351 C1353 1.378 . S
C1351 H1363 0.929 . S
C1352 C1348 1.413 . S
C1352 C1353 1.348 . S
C1352 H1368 0.931 . S
C1353 C1351 1.378 . S
C1353 C1352 1.348 . S
C1353 H1369 0.930 . S
Gd1354 N1374 2.622 . S
Gd1354 N1381 2.570 . S
Gd1354 O1388 2.353 . S
Gd1354 O1389 2.468 1_565 S
Gd1354 O1390 2.427 . S
Gd1354 O1392 2.388 . S
Gd1354 O1393 2.386 . S
Gd1354 O1397 2.307 1_565 S
Gd1354 C1407 2.805 . S
Gd1355 N1350 2.622 . S
Gd1355 N1356 2.570 . S
Gd1355 O1387 2.386 . S
Gd1355 O1391 2.307 1_545 S
Gd1355 O1394 2.353 . S
Gd1355 O1395 2.468 1_545 S
Gd1355 O1396 2.427 . S
Gd1355 O1398 2.388 . S
Gd1355 C1419 2.805 . S
N1356 C1346 1.359 . S
N1356 Gd1355 2.570 . S
N1356 C1358 1.343 1_545 S
C1357 C1345 1.422 1_565 S
C1357 C1359 1.321 . S
C1357 H1365 0.931 . S
C1358 N1356 1.343 1_565 S
C1358 C1359 1.390 . S
C1358 H1360 0.931 . S
C1359 C1357 1.321 . S
C1359 C1358 1.390 . S
C1359 H1361 0.930 . S
H1360 C1358 0.931 . S
H1361 C1359 0.930 . S
H1362 C1385 0.931 . S
H1363 C1351 0.929 . S
H1364 C1386 0.930 . S
H1365 C1357 0.931 . S
H1366 C1347 0.916 1_455 S
H1367 C1376 0.929 . S
H1368 C1352 0.931 . S
H1369 C1353 0.930 . S
H1370 C1408 0.930 . S
H1371 C1349 0.929 . S
H1372 C1377 0.931 . S
H1373 C1378 0.930 . S
N1374 Gd1354 2.622 . S
N1374 C1375 1.369 . S
N1374 C1376 1.338 . S
C1375 N1374 1.369 . S
C1375 C1379 1.415 . S
C1375 C1382 1.422 . S
C1376 H1367 0.929 . S
C1376 N1374 1.338 . S
C1376 C1378 1.378 . S
C1377 H1372 0.931 . S
C1377 C1378 1.348 . S
C1377 C1379 1.413 . S
C1378 H1373 0.930 . S
C1378 C1376 1.378 . S
C1378 C1377 1.348 . S
C1379 C1375 1.415 . S
C1379 C1377 1.413 . S
C1379 C1409 1.437 . S
H1380 C1409 0.929 . S
N1381 Gd1354 2.570 . S
N1381 C1382 1.359 . S
N1381 C1385 1.343 1_565 S
C1382 C1375 1.422 . S
C1382 N1381 1.359 . S
C1382 C1384 1.421 . S
C1383 C1384 1.422 1_545 S
C1383 C1386 1.321 . S
C1383 H1410 0.931 . S
C1384 C1382 1.421 . S
C1384 C1383 1.422 1_565 S
C1384 C1408 1.417 . S
C1385 H1362 0.931 . S
C1385 N1381 1.343 1_545 S
C1385 C1386 1.390 . S
C1386 H1364 0.930 . S
C1386 C1383 1.321 . S
C1386 C1385 1.390 . S
O1387 Gd1355 2.386 . S
O1387 C1399 1.271 . S
O1388 Gd1354 2.353 . S
O1388 C1399 1.238 1_565 S
O1389 Gd1354 2.468 1_545 S
O1389 C1407 1.263 1_545 S
O1390 Gd1354 2.427 . S
O1390 C1407 1.252 . S
O1391 Gd1355 2.307 1_565 S
O1391 C1400 1.261 . S
O1392 Gd1354 2.388 . S
O1392 C1400 1.252 . S
O1393 Gd1354 2.386 . S
O1393 C1411 1.265 . S
O1394 Gd1355 2.353 . S
O1394 C1411 1.242 1_545 S
O1395 Gd1355 2.468 1_565 S
O1395 C1419 1.263 1_565 S
O1396 Gd1355 2.427 . S
O1396 C1419 1.252 . S
O1397 Gd1354 2.307 1_545 S
O1397 C1412 1.261 . S
O1398 Gd1355 2.388 . S
O1398 C1412 1.252 . S
C1399 O1387 1.271 . S
C1399 O1388 1.238 1_545 S
C1400 O1391 1.261 . S
C1400 O1392 1.252 . S
C1401 C1404 1.394 . S
C1401 C1406 1.370 1_565 S
C1401 C1407 1.500 . S
C1402 C1405 1.383 1_545 S
C1402 C1406 1.395 . S
C1403 C1404 1.396 . S
C1403 C1405 1.365 . S
C1403 H1420 0.929 . S
C1404 C1401 1.394 . S
C1404 C1403 1.396 . S
C1404 H1421 0.930 . S
C1405 C1402 1.383 1_565 S
C1405 C1403 1.365 . S
C1405 H1422 0.931 . S
C1406 C1401 1.370 1_545 S
C1406 C1402 1.395 . S
C1406 H1423 0.930 . S
C1407 Gd1354 2.805 . S
C1407 O1389 1.263 1_565 S
C1407 O1390 1.252 . S
C1407 C1401 1.500 . S
C1408 H1370 0.930 . S
C1408 C1384 1.417 . S
C1408 C1409 1.329 . S
C1409 C1379 1.437 . S
C1409 H1380 0.929 . S
C1409 C1408 1.329 . S
H1410 C1383 0.931 . S
C1411 O1393 1.265 . S
C1411 O1394 1.242 1_565 S
C1412 O1397 1.261 . S
C1412 O1398 1.252 . S
C1413 C1416 1.394 . S
C1413 C1418 1.370 1_545 S
C1413 C1419 1.500 . S
C1414 C1417 1.383 1_565 S
C1414 C1418 1.395 . S
C1415 C1416 1.396 . S
C1415 C1417 1.365 . S
C1415 H1424 0.929 . S
C1416 C1413 1.394 . S
C1416 C1415 1.396 . S
C1416 H1425 0.930 . S
C1417 C1414 1.383 1_545 S
C1417 C1415 1.365 . S
C1417 H1426 0.931 . S
C1418 C1413 1.370 1_565 S
C1418 C1414 1.395 . S
C1418 H1427 0.930 . S
C1419 Gd1355 2.805 . S
C1419 O1395 1.263 1_545 S
C1419 O1396 1.252 . S
C1419 C1413 1.500 . S
H1420 C1403 0.929 . S
H1421 C1404 0.930 . S
H1422 C1405 0.931 . S
H1423 C1406 0.930 . S
H1424 C1415 0.929 . S
H1425 C1416 0.930 . S
H1426 C1417 0.931 . S
H1427 C1418 0.930 . S
C1428 C1430 1.422 . S
C1428 C1432 1.415 . S
C1428 N1434 1.369 . S
C1429 C1430 1.421 . S
C1429 C1431 1.417 . S
C1429 C1441 1.422 . S
C1430 C1428 1.422 . S
C1430 C1429 1.421 . S
C1430 N1440 1.359 . S
C1431 C1429 1.417 . S
C1431 C1433 1.329 . S
C1431 H1450 0.930 . S
C1432 C1428 1.415 . S
C1432 C1433 1.437 . S
C1432 C1436 1.413 . S
C1433 C1431 1.329 . S
C1433 C1432 1.437 . S
C1433 H1455 0.929 . S
N1434 C1428 1.369 . S
N1434 C1435 1.338 . S
N1434 Gd1439 2.622 . S
C1435 N1434 1.338 . S
C1435 C1437 1.378 . S
C1435 H1447 0.929 . S
C1436 C1432 1.413 . S
C1436 C1437 1.348 . S
C1436 H1452 0.931 . S
C1437 C1435 1.378 . S
C1437 C1436 1.348 . S
C1437 H1453 0.930 . S
Gd1438 N1458 2.622 . S
Gd1438 N1465 2.570 . S
Gd1438 O1472 2.353 . S
Gd1438 O1473 2.468 . S
Gd1438 O1474 2.427 . S
Gd1438 O1476 2.388 . S
Gd1438 O1477 2.386 . S
Gd1438 O1481 2.307 . S
Gd1438 C1491 2.805 . S
Gd1439 N1434 2.622 . S
Gd1439 N1440 2.570 . S
Gd1439 O1471 2.386 . S
Gd1439 O1475 2.307 . S
Gd1439 O1478 2.353 . S
Gd1439 O1479 2.468 . S
Gd1439 O1480 2.427 . S
Gd1439 O1482 2.388 . S
Gd1439 C1503 2.805 . S
N1440 C1430 1.359 . S
N1440 Gd1439 2.570 . S
N1440 C1442 1.343 . S
C1441 C1429 1.422 . S
C1441 C1443 1.321 . S
C1441 H1449 0.931 . S
C1442 N1440 1.343 . S
C1442 C1443 1.390 . S
C1442 H1444 0.931 . S
C1443 C1441 1.321 . S
C1443 C1442 1.390 . S
C1443 H1445 0.930 . S
H1444 C1442 0.931 . S
H1445 C1443 0.930 . S
H1446 C1469 0.931 . S
H1447 C1435 0.929 . S
H1448 C1470 0.930 . S
H1449 C1441 0.931 . S
H1450 C1431 0.930 . S
H1451 C1460 0.929 . S
H1452 C1436 0.931 . S
H1453 C1437 0.930 . S
H1454 C1492 0.930 . S
H1455 C1433 0.929 . S
H1456 C1461 0.931 . S
H1457 C1462 0.930 . S
N1458 Gd1438 2.622 . S
N1458 C1459 1.369 . S
N1458 C1460 1.338 . S
C1459 N1458 1.369 . S
C1459 C1463 1.415 . S
C1459 C1466 1.422 . S
C1460 H1451 0.929 . S
C1460 N1458 1.338 . S
C1460 C1462 1.378 . S
C1461 H1456 0.931 . S
C1461 C1462 1.348 . S
C1461 C1463 1.413 . S
C1462 H1457 0.930 . S
C1462 C1460 1.378 . S
C1462 C1461 1.348 . S
C1463 C1459 1.415 . S
C1463 C1461 1.413 . S
C1463 C1493 1.437 . S
H1464 C1493 0.929 . S
N1465 Gd1438 2.570 . S
N1465 C1466 1.359 . S
N1465 C1469 1.343 . S
C1466 C1459 1.422 . S
C1466 N1465 1.359 . S
C1466 C1468 1.421 . S
C1467 C1468 1.422 . S
C1467 C1470 1.321 . S
C1467 H1494 0.931 . S
C1468 C1466 1.421 . S
C1468 C1467 1.422 . S
C1468 C1492 1.417 . S
C1469 H1446 0.931 . S
C1469 N1465 1.343 . S
C1469 C1470 1.390 . S
C1470 H1448 0.930 . S
C1470 C1467 1.321 . S
C1470 C1469 1.390 . S
O1471 Gd1439 2.386 . S
O1471 C1483 1.265 . S
O1472 Gd1438 2.353 . S
O1472 C1483 1.242 . S
O1473 Gd1438 2.468 . S
O1473 C1491 1.263 . S
O1474 Gd1438 2.427 . S
O1474 C1491 1.252 . S
O1475 Gd1439 2.307 . S
O1475 C1484 1.261 . S
O1476 Gd1438 2.388 . S
O1476 C1484 1.252 . S
O1477 Gd1438 2.386 . S
O1477 C1495 1.265 . S
O1478 Gd1439 2.353 . S
O1478 C1495 1.242 . S
O1479 Gd1439 2.468 . S
O1479 C1503 1.263 . S
O1480 Gd1439 2.427 . S
O1480 C1503 1.252 . S
O1481 Gd1438 2.307 . S
O1481 C1496 1.261 . S
O1482 Gd1439 2.388 . S
O1482 C1496 1.252 . S
C1483 O1471 1.265 . S
C1483 O1472 1.242 . S
C1484 O1475 1.261 . S
C1484 O1476 1.252 . S
C1485 C1488 1.394 . S
C1485 C1490 1.370 . S
C1485 C1491 1.500 . S
C1486 C1489 1.383 . S
C1486 C1490 1.395 . S
C1487 C1488 1.396 . S
C1487 C1489 1.365 . S
C1487 H1504 0.929 . S
C1488 C1485 1.394 . S
C1488 C1487 1.396 . S
C1488 H1505 0.930 . S
C1489 C1486 1.383 . S
C1489 C1487 1.365 . S
C1489 H1506 0.931 . S
C1490 C1485 1.370 . S
C1490 C1486 1.395 . S
C1490 H1507 0.930 . S
C1491 Gd1438 2.805 . S
C1491 O1473 1.263 . S
C1491 O1474 1.252 . S
C1491 C1485 1.500 . S
C1492 H1454 0.930 . S
C1492 C1468 1.417 . S
C1492 C1493 1.329 . S
C1493 C1463 1.437 . S
C1493 H1464 0.929 . S
C1493 C1492 1.329 . S
H1494 C1467 0.931 . S
C1495 O1477 1.265 . S
C1495 O1478 1.242 . S
C1496 O1481 1.261 . S
C1496 O1482 1.252 . S
C1497 C1500 1.394 . S
C1497 C1502 1.370 . S
C1497 C1503 1.500 . S
C1498 C1501 1.383 . S
C1498 C1502 1.395 . S
C1499 C1500 1.396 . S
C1499 C1501 1.365 . S
C1499 H1508 0.929 . S
C1500 C1497 1.394 . S
C1500 C1499 1.396 . S
C1500 H1509 0.930 . S
C1501 C1498 1.383 . S
C1501 C1499 1.365 . S
C1501 H1510 0.931 . S
C1502 C1497 1.370 . S
C1502 C1498 1.395 . S
C1502 H1511 0.930 . S
C1503 Gd1439 2.805 . S
C1503 O1479 1.263 . S
C1503 O1480 1.252 . S
C1503 C1497 1.500 . S
H1504 C1487 0.929 . S
H1505 C1488 0.930 . S
H1506 C1489 0.931 . S
H1507 C1490 0.930 . S
H1508 C1499 0.929 . S
H1509 C1500 0.930 . S
H1510 C1501 0.931 . S
H1511 C1502 0.930 . S
C1512 C1514 1.422 . S
C1512 C1516 1.415 . S
C1512 N1518 1.369 . S
C1513 C1514 1.421 . S
C1513 C1515 1.417 . S
C1513 C1525 1.422 . S
C1514 C1512 1.422 . S
C1514 C1513 1.421 . S
C1514 N1524 1.359 . S
C1515 C1513 1.417 . S
C1515 C1517 1.329 . S
C1515 H1534 0.930 . S
C1516 C1512 1.415 . S
C1516 C1517 1.437 . S
C1516 C1520 1.413 . S
C1517 C1515 1.329 . S
C1517 C1516 1.437 . S
C1517 H1539 0.929 . S
N1518 C1512 1.369 . S
N1518 C1519 1.338 . S
N1518 Gd1523 2.622 . S
C1519 N1518 1.338 . S
C1519 C1521 1.378 . S
C1519 H1531 0.929 . S
C1520 C1516 1.413 . S
C1520 C1521 1.348 . S
C1520 H1536 0.931 . S
C1521 C1519 1.378 . S
C1521 C1520 1.348 . S
C1521 H1537 0.930 . S
Gd1522 N1542 2.622 . S
Gd1522 N1549 2.570 . S
Gd1522 O1556 2.353 . S
Gd1522 O1557 2.468 . S
Gd1522 O1558 2.427 . S
Gd1522 O1560 2.388 . S
Gd1522 O1561 2.386 . S
Gd1522 O1565 2.307 . S
Gd1522 C1575 2.805 . S
Gd1523 N1518 2.622 . S
Gd1523 N1524 2.570 . S
Gd1523 O1555 2.386 . S
Gd1523 O1559 2.307 . S
Gd1523 O1562 2.353 . S
Gd1523 O1563 2.468 . S
Gd1523 O1564 2.427 . S
Gd1523 O1566 2.388 . S
Gd1523 C1587 2.805 . S
N1524 C1514 1.359 . S
N1524 Gd1523 2.570 . S
N1524 C1526 1.343 . S
C1525 C1513 1.422 . S
C1525 C1527 1.321 . S
C1525 H1533 0.931 . S
C1526 N1524 1.343 . S
C1526 C1527 1.390 . S
C1526 H1528 0.931 . S
C1527 C1525 1.321 . S
C1527 C1526 1.390 . S
C1527 H1529 0.930 . S
H1528 C1526 0.931 . S
H1529 C1527 0.930 . S
H1530 C1553 0.931 . S
H1531 C1519 0.929 . S
H1532 C1554 0.930 . S
H1533 C1525 0.931 . S
H1534 C1515 0.930 . S
H1535 C1544 0.929 . S
H1536 C1520 0.931 . S
H1537 C1521 0.930 . S
H1538 C1576 0.930 . S
H1539 C1517 0.929 . S
H1540 C1545 0.931 . S
H1541 C1546 0.930 . S
N1542 Gd1522 2.622 . S
N1542 C1543 1.369 . S
N1542 C1544 1.338 . S
C1543 N1542 1.369 . S
C1543 C1547 1.415 . S
C1543 C1550 1.422 . S
C1544 H1535 0.929 . S
C1544 N1542 1.338 . S
C1544 C1546 1.378 . S
C1545 H1540 0.931 . S
C1545 C1546 1.348 . S
C1545 C1547 1.413 . S
C1546 H1541 0.930 . S
C1546 C1544 1.378 . S
C1546 C1545 1.348 . S
C1547 C1543 1.415 . S
C1547 C1545 1.413 . S
C1547 C1577 1.437 . S
H1548 C1577 0.929 . S
N1549 Gd1522 2.570 . S
N1549 C1550 1.359 . S
N1549 C1553 1.343 . S
C1550 C1543 1.422 . S
C1550 N1549 1.359 . S
C1550 C1552 1.421 . S
C1551 C1552 1.422 . S
C1551 C1554 1.321 . S
C1551 H1578 0.931 . S
C1552 C1550 1.421 . S
C1552 C1551 1.422 . S
C1552 C1576 1.417 . S
C1553 H1530 0.931 . S
C1553 N1549 1.343 . S
C1553 C1554 1.390 . S
C1554 H1532 0.930 . S
C1554 C1551 1.321 . S
C1554 C1553 1.390 . S
O1555 Gd1523 2.386 . S
O1555 C1567 1.265 . S
O1556 Gd1522 2.353 . S
O1556 C1567 1.242 . S
O1557 Gd1522 2.468 . S
O1557 C1575 1.263 . S
O1558 Gd1522 2.427 . S
O1558 C1575 1.252 . S
O1559 Gd1523 2.307 . S
O1559 C1568 1.261 . S
O1560 Gd1522 2.388 . S
O1560 C1568 1.252 . S
O1561 Gd1522 2.386 . S
O1561 C1579 1.265 . S
O1562 Gd1523 2.353 . S
O1562 C1579 1.242 . S
O1563 Gd1523 2.468 . S
O1563 C1587 1.263 . S
O1564 Gd1523 2.427 . S
O1564 C1587 1.252 . S
O1565 Gd1522 2.307 . S
O1565 C1580 1.261 . S
O1566 Gd1523 2.388 . S
O1566 C1580 1.252 . S
C1567 O1555 1.265 . S
C1567 O1556 1.242 . S
C1568 O1559 1.261 . S
C1568 O1560 1.252 . S
C1569 C1572 1.394 . S
C1569 C1574 1.370 . S
C1569 C1575 1.500 . S
C1570 C1573 1.383 . S
C1570 C1574 1.395 . S
C1571 C1572 1.396 . S
C1571 C1573 1.365 . S
C1571 H1588 0.929 . S
C1572 C1569 1.394 . S
C1572 C1571 1.396 . S
C1572 H1589 0.930 . S
C1573 C1570 1.383 . S
C1573 C1571 1.365 . S
C1573 H1590 0.931 . S
C1574 C1569 1.370 . S
C1574 C1570 1.395 . S
C1574 H1591 0.930 . S
C1575 Gd1522 2.805 . S
C1575 O1557 1.263 . S
C1575 O1558 1.252 . S
C1575 C1569 1.500 . S
C1576 H1538 0.930 . S
C1576 C1552 1.417 . S
C1576 C1577 1.329 . S
C1577 C1547 1.437 . S
C1577 H1548 0.929 . S
C1577 C1576 1.329 . S
H1578 C1551 0.931 . S
C1579 O1561 1.265 . S
C1579 O1562 1.242 . S
C1580 O1565 1.261 . S
C1580 O1566 1.252 . S
C1581 C1584 1.394 . S
C1581 C1586 1.370 . S
C1581 C1587 1.500 . S
C1582 C1585 1.383 . S
C1582 C1586 1.395 . S
C1583 C1584 1.396 . S
C1583 C1585 1.365 . S
C1583 H1592 0.929 . S
C1584 C1581 1.394 . S
C1584 C1583 1.396 . S
C1584 H1593 0.930 . S
C1585 C1582 1.383 . S
C1585 C1583 1.365 . S
C1585 H1594 0.931 . S
C1586 C1581 1.370 . S
C1586 C1582 1.395 . S
C1586 H1595 0.930 . S
C1587 Gd1523 2.805 . S
C1587 O1563 1.263 . S
C1587 O1564 1.252 . S
C1587 C1581 1.500 . S
H1588 C1571 0.929 . S
H1589 C1572 0.930 . S
H1590 C1573 0.931 . S
H1591 C1574 0.930 . S
H1592 C1583 0.929 . S
H1593 C1584 0.930 . S
H1594 C1585 0.931 . S
H1595 C1586 0.930 . S
C1596 C1598 1.422 . S
C1596 C1600 1.415 . S
C1596 N1602 1.369 . S
C1597 C1598 1.421 . S
C1597 C1599 1.417 . S
C1597 C1609 1.422 1_545 S
C1598 C1596 1.422 . S
C1598 C1597 1.421 . S
C1598 N1608 1.359 . S
C1599 C1597 1.417 . S
C1599 C1601 1.329 . S
C1599 H1618 0.930 . S
C1600 C1596 1.415 . S
C1600 C1601 1.437 . S
C1600 C1604 1.413 . S
C1601 C1599 1.329 . S
C1601 C1600 1.437 . S
C1601 H1623 0.929 . S
N1602 C1596 1.369 . S
N1602 C1603 1.338 . S
N1602 Gd1607 2.622 . S
C1603 N1602 1.338 . S
C1603 C1605 1.378 . S
C1603 H1615 0.929 . S
C1604 C1600 1.413 . S
C1604 C1605 1.348 . S
C1604 H1620 0.931 . S
C1605 C1603 1.378 . S
C1605 C1604 1.348 . S
C1605 H1621 0.930 . S
Gd1606 N1626 2.622 . S
Gd1606 N1633 2.570 . S
Gd1606 O1640 2.353 . S
Gd1606 O1641 2.468 1_565 S
Gd1606 O1642 2.427 . S
Gd1606 O1644 2.388 . S
Gd1606 O1645 2.386 . S
Gd1606 O1649 2.307 1_565 S
Gd1606 C1659 2.805 . S
Gd1607 N1602 2.622 . S
Gd1607 N1608 2.570 . S
Gd1607 O1639 2.386 . S
Gd1607 O1643 2.307 1_545 S
Gd1607 O1646 2.353 . S
Gd1607 O1647 2.468 1_545 S
Gd1607 O1648 2.427 . S
Gd1607 O1650 2.388 . S
Gd1607 C1671 2.805 . S
N1608 C1598 1.359 . S
N1608 Gd1607 2.570 . S
N1608 C1610 1.343 1_545 S
C1609 C1597 1.422 1_565 S
C1609 C1611 1.321 . S
C1609 H1617 0.931 . S
C1610 N1608 1.343 1_565 S
C1610 C1611 1.390 . S
C1610 H1612 0.931 . S
C1611 C1609 1.321 . S
C1611 C1610 1.390 . S
C1611 H1613 0.930 . S
H1612 C1610 0.931 . S
H1613 C1611 0.930 . S
H1614 C1637 0.931 . S
H1615 C1603 0.929 . S
H1616 C1638 0.930 . S
H1617 C1609 0.931 . S
H1618 C1599 0.930 . S
H1619 C1628 0.929 . S
H1620 C1604 0.931 . S
H1621 C1605 0.930 . S
H1622 C1660 0.930 . S
H1623 C1601 0.929 . S
H1624 C1629 0.931 . S
H1625 C1630 0.930 . S
N1626 Gd1606 2.622 . S
N1626 C1627 1.369 . S
N1626 C1628 1.338 . S
C1627 N1626 1.369 . S
C1627 C1631 1.415 . S
C1627 C1634 1.422 . S
C1628 H1619 0.929 . S
C1628 N1626 1.338 . S
C1628 C1630 1.378 . S
C1629 H1624 0.931 . S
C1629 C1630 1.348 . S
C1629 C1631 1.413 . S
C1630 H1625 0.930 . S
C1630 C1628 1.378 . S
C1630 C1629 1.348 . S
C1631 C1627 1.415 . S
C1631 C1629 1.413 . S
C1631 C1661 1.437 . S
H1632 C1661 0.929 . S
N1633 Gd1606 2.570 . S
N1633 C1634 1.359 . S
N1633 C1637 1.343 1_565 S
C1634 C1627 1.422 . S
C1634 N1633 1.359 . S
C1634 C1636 1.421 . S
C1635 C1636 1.422 1_545 S
C1635 C1638 1.321 . S
C1635 H1662 0.931 . S
C1636 C1634 1.421 . S
C1636 C1635 1.422 1_565 S
C1636 C1660 1.417 . S
C1637 H1614 0.931 . S
C1637 N1633 1.343 1_545 S
C1637 C1638 1.390 . S
C1638 H1616 0.930 . S
C1638 C1635 1.321 . S
C1638 C1637 1.390 . S
O1639 Gd1607 2.386 . S
O1639 C1651 1.285 . S
O1640 Gd1606 2.353 . S
O1640 C1651 1.229 1_565 S
O1641 Gd1606 2.468 1_545 S
O1641 C1659 1.263 1_545 S
O1642 Gd1606 2.427 . S
O1642 C1659 1.252 . S
O1643 Gd1607 2.307 1_565 S
O1643 C1652 1.261 . S
O1644 Gd1606 2.388 . S
O1644 C1652 1.252 . S
O1645 Gd1606 2.386 . S
O1645 C1663 1.278 . S
O1646 Gd1607 2.353 . S
O1646 C1663 1.233 1_545 S
O1647 Gd1607 2.468 1_565 S
O1647 C1671 1.263 1_565 S
O1648 Gd1607 2.427 . S
O1648 C1671 1.252 . S
O1649 Gd1606 2.307 1_545 S
O1649 C1664 1.261 . S
O1650 Gd1607 2.388 . S
O1650 C1664 1.252 . S
C1651 O1639 1.285 . S
C1651 O1640 1.229 1_545 S
C1652 O1643 1.261 . S
C1652 O1644 1.252 . S
C1653 C1656 1.394 . S
C1653 C1658 1.370 1_565 S
C1653 C1659 1.500 . S
C1654 C1657 1.383 1_545 S
C1654 C1658 1.395 . S
C1655 C1656 1.396 . S
C1655 C1657 1.365 . S
C1655 H1672 0.929 . S
C1656 C1653 1.394 . S
C1656 C1655 1.396 . S
C1656 H1673 0.930 . S
C1657 C1654 1.383 1_565 S
C1657 C1655 1.365 . S
C1657 H1674 0.931 . S
C1658 C1653 1.370 1_545 S
C1658 C1654 1.395 . S
C1658 H1675 0.930 . S
C1659 Gd1606 2.805 . S
C1659 O1641 1.263 1_565 S
C1659 O1642 1.252 . S
C1659 C1653 1.500 . S
C1660 H1622 0.930 . S
C1660 C1636 1.417 . S
C1660 C1661 1.329 . S
C1661 C1631 1.437 . S
C1661 H1632 0.929 . S
C1661 C1660 1.329 . S
H1662 C1635 0.931 . S
C1663 O1645 1.278 . S
C1663 O1646 1.233 1_565 S
C1664 O1649 1.261 . S
C1664 O1650 1.252 . S
C1665 C1668 1.394 . S
C1665 C1670 1.370 1_545 S
C1665 C1671 1.500 . S
C1666 C1669 1.383 1_565 S
C1666 C1670 1.395 . S
C1667 C1668 1.396 . S
C1667 C1669 1.365 . S
C1667 H1676 0.929 . S
C1668 C1665 1.394 . S
C1668 C1667 1.396 . S
C1668 H1677 0.930 . S
C1669 C1666 1.383 1_545 S
C1669 C1667 1.365 . S
C1669 H1678 0.931 . S
C1670 C1665 1.370 1_565 S
C1670 C1666 1.395 . S
C1670 H1679 0.930 . S
C1671 Gd1607 2.805 . S
C1671 O1647 1.263 1_545 S
C1671 O1648 1.252 . S
C1671 C1665 1.500 . S
H1672 C1655 0.929 . S
H1673 C1656 0.930 . S
H1674 C1657 0.931 . S
H1675 C1658 0.930 . S
H1676 C1667 0.929 . S
H1677 C1668 0.930 . S
H1678 C1669 0.931 . S
H1679 C1670 0.930 . S
C1680 C1682 1.422 . S
C1680 C1684 1.415 . S
C1680 N1686 1.369 . S
C1681 C1682 1.421 . S
C1681 C1683 1.417 . S
C1681 C1693 1.422 1_545 S
C1682 C1680 1.422 . S
C1682 C1681 1.421 . S
C1682 N1692 1.359 . S
C1683 C1681 1.417 . S
C1683 C1685 1.329 . S
C1683 H1702 0.930 . S
C1684 C1680 1.415 . S
C1684 C1685 1.437 . S
C1684 C1688 1.413 . S
C1685 C1683 1.329 . S
C1685 C1684 1.437 . S
C1685 H1707 0.929 . S
N1686 C1680 1.369 . S
N1686 C1687 1.338 . S
N1686 Gd1691 2.622 . S
C1687 N1686 1.338 . S
C1687 C1689 1.378 . S
C1687 H1699 0.929 . S
C1688 C1684 1.413 . S
C1688 C1689 1.348 . S
C1688 H1704 0.931 . S
C1689 C1687 1.378 . S
C1689 C1688 1.348 . S
C1689 H1705 0.930 . S
Gd1690 N1710 2.622 . S
Gd1690 N1717 2.570 . S
Gd1690 O1724 2.353 . S
Gd1690 O1725 2.468 1_565 S
Gd1690 O1726 2.427 . S
Gd1690 O1728 2.388 . S
Gd1690 O1729 2.386 . S
Gd1690 O1733 2.307 1_565 S
Gd1690 C1743 2.805 . S
Gd1691 N1686 2.622 . S
Gd1691 N1692 2.570 . S
Gd1691 O1723 2.386 . S
Gd1691 O1727 2.307 1_545 S
Gd1691 O1730 2.353 . S
Gd1691 O1731 2.468 1_545 S
Gd1691 O1732 2.427 . S
Gd1691 O1734 2.388 . S
Gd1691 C1755 2.805 . S
N1692 C1682 1.359 . S
N1692 Gd1691 2.570 . S
N1692 C1694 1.343 1_545 S
C1693 C1681 1.422 1_565 S
C1693 C1695 1.321 . S
C1693 H1701 0.931 . S
C1694 N1692 1.343 1_565 S
C1694 C1695 1.390 . S
C1694 H1696 0.931 . S
C1695 C1693 1.321 . S
C1695 C1694 1.390 . S
C1695 H1697 0.930 . S
H1696 C1694 0.931 . S
H1697 C1695 0.930 . S
H1698 C1721 0.931 . S
H1699 C1687 0.929 . S
H1700 C1722 0.930 . S
H1701 C1693 0.931 . S
H1702 C1683 0.930 . S
H1703 C1712 0.929 . S
H1704 C1688 0.931 . S
H1705 C1689 0.930 . S
H1706 C1744 0.916 1_655 S
H1707 C1685 0.929 . S
H1708 C1713 0.931 . S
H1709 C1714 0.930 . S
N1710 Gd1690 2.622 . S
N1710 C1711 1.369 . S
N1710 C1712 1.338 . S
C1711 N1710 1.369 . S
C1711 C1715 1.415 . S
C1711 C1718 1.422 . S
C1712 H1703 0.929 . S
C1712 N1710 1.338 . S
C1712 C1714 1.378 . S
C1713 H1708 0.931 . S
C1713 C1714 1.348 . S
C1713 C1715 1.413 . S
C1714 H1709 0.930 . S
C1714 C1712 1.378 . S
C1714 C1713 1.348 . S
C1715 C1711 1.415 . S
C1715 C1713 1.413 . S
C1715 C1745 1.437 . S
H1716 C1745 0.929 . S
N1717 Gd1690 2.570 . S
N1717 C1718 1.359 . S
N1717 C1721 1.343 1_565 S
C1718 C1711 1.422 . S
C1718 N1717 1.359 . S
C1718 C1720 1.421 . S
C1719 C1720 1.422 1_545 S
C1719 C1722 1.321 . S
C1719 H1746 0.931 . S
C1720 C1718 1.421 . S
C1720 C1719 1.422 1_565 S
C1720 C1744 1.417 . S
C1721 H1698 0.931 . S
C1721 N1717 1.343 1_545 S
C1721 C1722 1.390 . S
C1722 H1700 0.930 . S
C1722 C1719 1.321 . S
C1722 C1721 1.390 . S
O1723 Gd1691 2.386 . S
O1723 C1735 1.265 . S
O1724 Gd1690 2.353 . S
O1724 C1735 1.242 1_565 S
O1725 Gd1690 2.468 1_545 S
O1725 C1743 1.263 1_545 S
O1726 Gd1690 2.427 . S
O1726 C1743 1.252 . S
O1727 Gd1691 2.307 1_565 S
O1727 C1736 1.261 . S
O1728 Gd1690 2.388 . S
O1728 C1736 1.252 . S
O1729 Gd1690 2.386 . S
O1729 C1747 1.271 . S
O1730 Gd1691 2.353 . S
O1730 C1747 1.238 1_545 S
O1731 Gd1691 2.468 1_565 S
O1731 C1755 1.263 1_565 S
O1732 Gd1691 2.427 . S
O1732 C1755 1.252 . S
O1733 Gd1690 2.307 1_545 S
O1733 C1748 1.261 . S
O1734 Gd1691 2.388 . S
O1734 C1748 1.252 . S
C1735 O1723 1.265 . S
C1735 O1724 1.242 1_545 S
C1736 O1727 1.261 . S
C1736 O1728 1.252 . S
C1737 C1740 1.394 . S
C1737 C1742 1.370 1_565 S
C1737 C1743 1.500 . S
C1738 C1741 1.383 1_545 S
C1738 C1742 1.395 . S
C1739 C1740 1.396 . S
C1739 C1741 1.365 . S
C1739 H1756 0.929 . S
C1740 C1737 1.394 . S
C1740 C1739 1.396 . S
C1740 H1757 0.930 . S
C1741 C1738 1.383 1_565 S
C1741 C1739 1.365 . S
C1741 H1758 0.931 . S
C1742 C1737 1.370 1_545 S
C1742 C1738 1.395 . S
C1742 H1759 0.930 . S
C1743 Gd1690 2.805 . S
C1743 O1725 1.263 1_565 S
C1743 O1726 1.252 . S
C1743 C1737 1.500 . S
C1744 H1706 0.916 1_455 S
C1744 C1720 1.417 . S
C1744 C1745 1.329 . S
C1745 C1715 1.437 . S
C1745 H1716 0.929 . S
C1745 C1744 1.329 . S
H1746 C1719 0.931 . S
C1747 O1729 1.271 . S
C1747 O1730 1.238 1_565 S
C1748 O1733 1.261 . S
C1748 O1734 1.252 . S
C1749 C1752 1.394 . S
C1749 C1754 1.370 1_545 S
C1749 C1755 1.500 . S
C1750 C1753 1.383 1_565 S
C1750 C1754 1.395 . S
C1751 C1752 1.396 . S
C1751 C1753 1.365 . S
C1751 H1760 0.929 . S
C1752 C1749 1.394 . S
C1752 C1751 1.396 . S
C1752 H1761 0.930 . S
C1753 C1750 1.383 1_545 S
C1753 C1751 1.365 . S
C1753 H1762 0.931 . S
C1754 C1749 1.370 1_565 S
C1754 C1750 1.395 . S
C1754 H1763 0.930 . S
C1755 Gd1691 2.805 . S
C1755 O1731 1.263 1_545 S
C1755 O1732 1.252 . S
C1755 C1749 1.500 . S
H1756 C1739 0.929 . S
H1757 C1740 0.930 . S
H1758 C1741 0.931 . S
H1759 C1742 0.930 . S
H1760 C1751 0.929 . S
H1761 C1752 0.930 . S
H1762 C1753 0.931 . S
H1763 C1754 0.930 . S
C1764 C1766 1.422 . S
C1764 C1768 1.415 . S
C1764 N1770 1.369 . S
C1765 C1766 1.421 . S
C1765 C1767 1.417 . S
C1765 C1777 1.422 . S
C1766 C1764 1.422 . S
C1766 C1765 1.421 . S
C1766 N1776 1.359 . S
C1767 C1765 1.417 . S
C1767 C1769 1.329 . S
C1767 H1786 0.930 . S
C1768 C1764 1.415 . S
C1768 C1769 1.437 . S
C1768 C1772 1.413 . S
C1769 C1767 1.329 . S
C1769 C1768 1.437 . S
C1769 H1791 0.929 . S
N1770 C1764 1.369 . S
N1770 C1771 1.338 . S
N1770 Gd1775 2.622 . S
C1771 N1770 1.338 . S
C1771 C1773 1.378 . S
C1771 H1783 0.929 . S
C1772 C1768 1.413 . S
C1772 C1773 1.348 . S
C1772 H1788 0.931 . S
C1773 C1771 1.378 . S
C1773 C1772 1.348 . S
C1773 H1789 0.930 . S
Gd1774 N1794 2.622 . S
Gd1774 N1801 2.570 . S
Gd1774 O1808 2.353 . S
Gd1774 O1809 2.468 . S
Gd1774 O1810 2.427 . S
Gd1774 O1812 2.388 . S
Gd1774 O1813 2.386 . S
Gd1774 O1817 2.307 . S
Gd1774 C1827 2.805 . S
Gd1775 N1770 2.622 . S
Gd1775 N1776 2.570 . S
Gd1775 O1807 2.386 . S
Gd1775 O1811 2.307 . S
Gd1775 O1814 2.353 . S
Gd1775 O1815 2.468 . S
Gd1775 O1816 2.427 . S
Gd1775 O1818 2.388 . S
Gd1775 C1839 2.805 . S
N1776 C1766 1.359 . S
N1776 Gd1775 2.570 . S
N1776 C1778 1.343 . S
C1777 C1765 1.422 . S
C1777 C1779 1.321 . S
C1777 H1785 0.931 . S
C1778 N1776 1.343 . S
C1778 C1779 1.390 . S
C1778 H1780 0.931 . S
C1779 C1777 1.321 . S
C1779 C1778 1.390 . S
C1779 H1781 0.930 . S
H1780 C1778 0.931 . S
H1781 C1779 0.930 . S
H1782 C1805 0.931 . S
H1783 C1771 0.929 . S
H1784 C1806 0.930 . S
H1785 C1777 0.931 . S
H1786 C1767 0.930 . S
H1787 C1796 0.929 . S
H1788 C1772 0.931 . S
H1789 C1773 0.930 . S
H1790 C1828 0.930 . S
H1791 C1769 0.929 . S
H1792 C1797 0.931 . S
H1793 C1798 0.930 . S
N1794 Gd1774 2.622 . S
N1794 C1795 1.369 . S
N1794 C1796 1.338 . S
C1795 N1794 1.369 . S
C1795 C1799 1.415 . S
C1795 C1802 1.422 . S
C1796 H1787 0.929 . S
C1796 N1794 1.338 . S
C1796 C1798 1.378 . S
C1797 H1792 0.931 . S
C1797 C1798 1.348 . S
C1797 C1799 1.413 . S
C1798 H1793 0.930 . S
C1798 C1796 1.378 . S
C1798 C1797 1.348 . S
C1799 C1795 1.415 . S
C1799 C1797 1.413 . S
C1799 C1829 1.437 . S
H1800 C1829 0.929 . S
N1801 Gd1774 2.570 . S
N1801 C1802 1.359 . S
N1801 C1805 1.343 . S
C1802 C1795 1.422 . S
C1802 N1801 1.359 . S
C1802 C1804 1.421 . S
C1803 C1804 1.422 . S
C1803 C1806 1.321 . S
C1803 H1830 0.931 . S
C1804 C1802 1.421 . S
C1804 C1803 1.422 . S
C1804 C1828 1.417 . S
C1805 H1782 0.931 . S
C1805 N1801 1.343 . S
C1805 C1806 1.390 . S
C1806 H1784 0.930 . S
C1806 C1803 1.321 . S
C1806 C1805 1.390 . S
O1807 Gd1775 2.386 . S
O1807 C1819 1.265 . S
O1808 Gd1774 2.353 . S
O1808 C1819 1.242 . S
O1809 Gd1774 2.468 . S
O1809 C1827 1.263 . S
O1810 Gd1774 2.427 . S
O1810 C1827 1.252 . S
O1811 Gd1775 2.307 . S
O1811 C1820 1.261 . S
O1812 Gd1774 2.388 . S
O1812 C1820 1.252 . S
O1813 Gd1774 2.386 . S
O1813 C1831 1.265 . S
O1814 Gd1775 2.353 . S
O1814 C1831 1.242 . S
O1815 Gd1775 2.468 . S
O1815 C1839 1.263 . S
O1816 Gd1775 2.427 . S
O1816 C1839 1.252 . S
O1817 Gd1774 2.307 . S
O1817 C1832 1.261 . S
O1818 Gd1775 2.388 . S
O1818 C1832 1.252 . S
C1819 O1807 1.265 . S
C1819 O1808 1.242 . S
C1820 O1811 1.261 . S
C1820 O1812 1.252 . S
C1821 C1824 1.394 . S
C1821 C1826 1.370 . S
C1821 C1827 1.500 . S
C1822 C1825 1.383 . S
C1822 C1826 1.395 . S
C1823 C1824 1.396 . S
C1823 C1825 1.365 . S
C1823 H1840 0.929 . S
C1824 C1821 1.394 . S
C1824 C1823 1.396 . S
C1824 H1841 0.930 . S
C1825 C1822 1.383 . S
C1825 C1823 1.365 . S
C1825 H1842 0.931 . S
C1826 C1821 1.370 . S
C1826 C1822 1.395 . S
C1826 H1843 0.930 . S
C1827 Gd1774 2.805 . S
C1827 O1809 1.263 . S
C1827 O1810 1.252 . S
C1827 C1821 1.500 . S
C1828 H1790 0.930 . S
C1828 C1804 1.417 . S
C1828 C1829 1.329 . S
C1829 C1799 1.437 . S
C1829 H1800 0.929 . S
C1829 C1828 1.329 . S
H1830 C1803 0.931 . S
C1831 O1813 1.265 . S
C1831 O1814 1.242 . S
C1832 O1817 1.261 . S
C1832 O1818 1.252 . S
C1833 C1836 1.394 . S
C1833 C1838 1.370 . S
C1833 C1839 1.500 . S
C1834 C1837 1.383 . S
C1834 C1838 1.395 . S
C1835 C1836 1.396 . S
C1835 C1837 1.365 . S
C1835 H1844 0.929 . S
C1836 C1833 1.394 . S
C1836 C1835 1.396 . S
C1836 H1845 0.930 . S
C1837 C1834 1.383 . S
C1837 C1835 1.365 . S
C1837 H1846 0.931 . S
C1838 C1833 1.370 . S
C1838 C1834 1.395 . S
C1838 H1847 0.930 . S
C1839 Gd1775 2.805 . S
C1839 O1815 1.263 . S
C1839 O1816 1.252 . S
C1839 C1833 1.500 . S
H1840 C1823 0.929 . S
H1841 C1824 0.930 . S
H1842 C1825 0.931 . S
H1843 C1826 0.930 . S
H1844 C1835 0.929 . S
H1845 C1836 0.930 . S
H1846 C1837 0.931 . S
H1847 C1838 0.930 . S
C1848 C1850 1.422 . S
C1848 C1852 1.415 . S
C1848 N1854 1.369 . S
C1849 C1850 1.421 . S
C1849 C1851 1.417 . S
C1849 C1861 1.422 . S
C1850 C1848 1.422 . S
C1850 C1849 1.421 . S
C1850 N1860 1.359 . S
C1851 C1849 1.417 . S
C1851 C1853 1.329 . S
C1851 H1870 0.930 . S
C1852 C1848 1.415 . S
C1852 C1853 1.437 . S
C1852 C1856 1.413 . S
C1853 C1851 1.329 . S
C1853 C1852 1.437 . S
C1853 H1875 0.929 . S
N1854 C1848 1.369 . S
N1854 C1855 1.338 . S
N1854 Gd1859 2.622 . S
C1855 N1854 1.338 . S
C1855 C1857 1.378 . S
C1855 H1867 0.929 . S
C1856 C1852 1.413 . S
C1856 C1857 1.348 . S
C1856 H1872 0.931 . S
C1857 C1855 1.378 . S
C1857 C1856 1.348 . S
C1857 H1873 0.930 . S
Gd1858 N1878 2.622 . S
Gd1858 N1885 2.570 . S
Gd1858 O1892 2.353 . S
Gd1858 O1893 2.468 . S
Gd1858 O1894 2.427 . S
Gd1858 O1896 2.388 . S
Gd1858 O1897 2.386 . S
Gd1858 O1901 2.307 . S
Gd1858 C1911 2.805 . S
Gd1859 N1854 2.622 . S
Gd1859 N1860 2.570 . S
Gd1859 O1891 2.386 . S
Gd1859 O1895 2.307 . S
Gd1859 O1898 2.353 . S
Gd1859 O1899 2.468 . S
Gd1859 O1900 2.427 . S
Gd1859 O1902 2.388 . S
Gd1859 C1923 2.805 . S
N1860 C1850 1.359 . S
N1860 Gd1859 2.570 . S
N1860 C1862 1.343 . S
C1861 C1849 1.422 . S
C1861 C1863 1.321 . S
C1861 H1869 0.931 . S
C1862 N1860 1.343 . S
C1862 C1863 1.390 . S
C1862 H1864 0.931 . S
C1863 C1861 1.321 . S
C1863 C1862 1.390 . S
C1863 H1865 0.930 . S
H1864 C1862 0.931 . S
H1865 C1863 0.930 . S
H1866 C1889 0.931 . S
H1867 C1855 0.929 . S
H1868 C1890 0.930 . S
H1869 C1861 0.931 . S
H1870 C1851 0.930 . S
H1871 C1880 0.929 . S
H1872 C1856 0.931 . S
H1873 C1857 0.930 . S
H1874 C1912 0.930 . S
H1875 C1853 0.929 . S
H1876 C1881 0.931 . S
H1877 C1882 0.930 . S
N1878 Gd1858 2.622 . S
N1878 C1879 1.369 . S
N1878 C1880 1.338 . S
C1879 N1878 1.369 . S
C1879 C1883 1.415 . S
C1879 C1886 1.422 . S
C1880 H1871 0.929 . S
C1880 N1878 1.338 . S
C1880 C1882 1.378 . S
C1881 H1876 0.931 . S
C1881 C1882 1.348 . S
C1881 C1883 1.413 . S
C1882 H1877 0.930 . S
C1882 C1880 1.378 . S
C1882 C1881 1.348 . S
C1883 C1879 1.415 . S
C1883 C1881 1.413 . S
C1883 C1913 1.437 . S
H1884 C1913 0.929 . S
N1885 Gd1858 2.570 . S
N1885 C1886 1.359 . S
N1885 C1889 1.343 . S
C1886 C1879 1.422 . S
C1886 N1885 1.359 . S
C1886 C1888 1.421 . S
C1887 C1888 1.422 . S
C1887 C1890 1.321 . S
C1887 H1914 0.931 . S
C1888 C1886 1.421 . S
C1888 C1887 1.422 . S
C1888 C1912 1.417 . S
C1889 H1866 0.931 . S
C1889 N1885 1.343 . S
C1889 C1890 1.390 . S
C1890 H1868 0.930 . S
C1890 C1887 1.321 . S
C1890 C1889 1.390 . S
O1891 Gd1859 2.386 . S
O1891 C1903 1.265 . S
O1892 Gd1858 2.353 . S
O1892 C1903 1.242 . S
O1893 Gd1858 2.468 . S
O1893 C1911 1.263 . S
O1894 Gd1858 2.427 . S
O1894 C1911 1.252 . S
O1895 Gd1859 2.307 . S
O1895 C1904 1.261 . S
O1896 Gd1858 2.388 . S
O1896 C1904 1.252 . S
O1897 Gd1858 2.386 . S
O1897 C1915 1.265 . S
O1898 Gd1859 2.353 . S
O1898 C1915 1.242 . S
O1899 Gd1859 2.468 . S
O1899 C1923 1.263 . S
O1900 Gd1859 2.427 . S
O1900 C1923 1.252 . S
O1901 Gd1858 2.307 . S
O1901 C1916 1.261 . S
O1902 Gd1859 2.388 . S
O1902 C1916 1.252 . S
C1903 O1891 1.265 . S
C1903 O1892 1.242 . S
C1904 O1895 1.261 . S
C1904 O1896 1.252 . S
C1905 C1908 1.394 . S
C1905 C1910 1.370 . S
C1905 C1911 1.500 . S
C1906 C1909 1.383 . S
C1906 C1910 1.395 . S
C1907 C1908 1.396 . S
C1907 C1909 1.365 . S
C1907 H1924 0.929 . S
C1908 C1905 1.394 . S
C1908 C1907 1.396 . S
C1908 H1925 0.930 . S
C1909 C1906 1.383 . S
C1909 C1907 1.365 . S
C1909 H1926 0.931 . S
C1910 C1905 1.370 . S
C1910 C1906 1.395 . S
C1910 H1927 0.930 . S
C1911 Gd1858 2.805 . S
C1911 O1893 1.263 . S
C1911 O1894 1.252 . S
C1911 C1905 1.500 . S
C1912 H1874 0.930 . S
C1912 C1888 1.417 . S
C1912 C1913 1.329 . S
C1913 C1883 1.437 . S
C1913 H1884 0.929 . S
C1913 C1912 1.329 . S
H1914 C1887 0.931 . S
C1915 O1897 1.265 . S
C1915 O1898 1.242 . S
C1916 O1901 1.261 . S
C1916 O1902 1.252 . S
C1917 C1920 1.394 . S
C1917 C1922 1.370 . S
C1917 C1923 1.500 . S
C1918 C1921 1.383 . S
C1918 C1922 1.395 . S
C1919 C1920 1.396 . S
C1919 C1921 1.365 . S
C1919 H1928 0.929 . S
C1920 C1917 1.394 . S
C1920 C1919 1.396 . S
C1920 H1929 0.930 . S
C1921 C1918 1.383 . S
C1921 C1919 1.365 . S
C1921 H1930 0.931 . S
C1922 C1917 1.370 . S
C1922 C1918 1.395 . S
C1922 H1931 0.930 . S
C1923 Gd1859 2.805 . S
C1923 O1899 1.263 . S
C1923 O1900 1.252 . S
C1923 C1917 1.500 . S
H1924 C1907 0.929 . S
H1925 C1908 0.930 . S
H1926 C1909 0.931 . S
H1927 C1910 0.930 . S
H1928 C1919 0.929 . S
H1929 C1920 0.930 . S
H1930 C1921 0.931 . S
H1931 C1922 0.930 . S
C1932 C1934 1.422 . S
C1932 C1936 1.415 . S
C1932 N1938 1.369 . S
C1933 C1934 1.421 . S
C1933 C1935 1.417 . S
C1933 C1945 1.422 1_545 S
C1934 C1932 1.422 . S
C1934 C1933 1.421 . S
C1934 N1944 1.359 . S
C1935 C1933 1.417 . S
C1935 C1937 1.329 . S
C1935 H1954 0.930 . S
C1936 C1932 1.415 . S
C1936 C1937 1.437 . S
C1936 C1940 1.413 . S
C1937 C1935 1.329 . S
C1937 C1936 1.437 . S
C1937 H1959 0.929 . S
N1938 C1932 1.369 . S
N1938 C1939 1.338 . S
N1938 Gd1943 2.622 . S
C1939 N1938 1.338 . S
C1939 C1941 1.378 . S
C1939 H1951 0.929 . S
C1940 C1936 1.413 . S
C1940 C1941 1.348 . S
C1940 H1956 0.931 . S
C1941 C1939 1.378 . S
C1941 C1940 1.348 . S
C1941 H1957 0.930 . S
Gd1942 N1962 2.622 . S
Gd1942 N1969 2.570 . S
Gd1942 O1976 2.353 . S
Gd1942 O1977 2.468 1_565 S
Gd1942 O1978 2.427 . S
Gd1942 O1980 2.388 . S
Gd1942 O1981 2.386 . S
Gd1942 O1985 2.307 1_565 S
Gd1942 C1995 2.805 . S
Gd1943 N1938 2.622 . S
Gd1943 N1944 2.570 . S
Gd1943 O1975 2.386 . S
Gd1943 O1979 2.307 1_545 S
Gd1943 O1982 2.353 . S
Gd1943 O1983 2.468 1_545 S
Gd1943 O1984 2.427 . S
Gd1943 O1986 2.388 . S
Gd1943 C2007 2.805 . S
N1944 C1934 1.359 . S
N1944 Gd1943 2.570 . S
N1944 C1946 1.343 1_545 S
C1945 C1933 1.422 1_565 S
C1945 C1947 1.321 . S
C1945 H1953 0.931 . S
C1946 N1944 1.343 1_565 S
C1946 C1947 1.390 . S
C1946 H1948 0.931 . S
C1947 C1945 1.321 . S
C1947 C1946 1.390 . S
C1947 H1949 0.930 . S
H1948 C1946 0.931 . S
H1949 C1947 0.930 . S
H1950 C1973 0.931 . S
H1951 C1939 0.929 . S
H1952 C1974 0.930 . S
H1953 C1945 0.931 . S
H1954 C1935 0.930 . S
H1955 C1964 0.929 . S
H1956 C1940 0.931 . S
H1957 C1941 0.930 . S
H1958 C1996 0.930 . S
H1959 C1937 0.929 . S
H1960 C1965 0.931 . S
H1961 C1966 0.930 . S
N1962 Gd1942 2.622 . S
N1962 C1963 1.369 . S
N1962 C1964 1.338 . S
C1963 N1962 1.369 . S
C1963 C1967 1.415 . S
C1963 C1970 1.422 . S
C1964 H1955 0.929 . S
C1964 N1962 1.338 . S
C1964 C1966 1.378 . S
C1965 H1960 0.931 . S
C1965 C1966 1.348 . S
C1965 C1967 1.413 . S
C1966 H1961 0.930 . S
C1966 C1964 1.378 . S
C1966 C1965 1.348 . S
C1967 C1963 1.415 . S
C1967 C1965 1.413 . S
C1967 C1997 1.437 . S
H1968 C1997 0.929 . S
N1969 Gd1942 2.570 . S
N1969 C1970 1.359 . S
N1969 C1973 1.343 1_565 S
C1970 C1963 1.422 . S
C1970 N1969 1.359 . S
C1970 C1972 1.421 . S
C1971 C1972 1.422 1_545 S
C1971 C1974 1.321 . S
C1971 H1998 0.931 . S
C1972 C1970 1.421 . S
C1972 C1971 1.422 1_565 S
C1972 C1996 1.417 . S
C1973 H1950 0.931 . S
C1973 N1969 1.343 1_545 S
C1973 C1974 1.390 . S
C1974 H1952 0.930 . S
C1974 C1971 1.321 . S
C1974 C1973 1.390 . S
O1975 Gd1943 2.386 . S
O1975 C1987 1.278 . S
O1976 Gd1942 2.353 . S
O1976 C1987 1.233 1_565 S
O1977 Gd1942 2.468 1_545 S
O1977 C1995 1.263 1_545 S
O1978 Gd1942 2.427 . S
O1978 C1995 1.252 . S
O1979 Gd1943 2.307 1_565 S
O1979 C1988 1.261 . S
O1980 Gd1942 2.388 . S
O1980 C1988 1.252 . S
O1981 Gd1942 2.386 . S
O1981 C1999 1.285 . S
O1982 Gd1943 2.353 . S
O1982 C1999 1.229 1_545 S
O1983 Gd1943 2.468 1_565 S
O1983 C2007 1.263 1_565 S
O1984 Gd1943 2.427 . S
O1984 C2007 1.252 . S
O1985 Gd1942 2.307 1_545 S
O1985 C2000 1.261 . S
O1986 Gd1943 2.388 . S
O1986 C2000 1.252 . S
C1987 O1975 1.278 . S
C1987 O1976 1.233 1_545 S
C1988 O1979 1.261 . S
C1988 O1980 1.252 . S
C1989 C1992 1.394 . S
C1989 C1994 1.370 1_565 S
C1989 C1995 1.500 . S
C1990 C1993 1.383 1_545 S
C1990 C1994 1.395 . S
C1991 C1992 1.396 . S
C1991 C1993 1.365 . S
C1991 H2008 0.929 . S
C1992 C1989 1.394 . S
C1992 C1991 1.396 . S
C1992 H2009 0.930 . S
C1993 C1990 1.383 1_565 S
C1993 C1991 1.365 . S
C1993 H2010 0.931 . S
C1994 C1989 1.370 1_545 S
C1994 C1990 1.395 . S
C1994 H2011 0.930 . S
C1995 Gd1942 2.805 . S
C1995 O1977 1.263 1_565 S
C1995 O1978 1.252 . S
C1995 C1989 1.500 . S
C1996 H1958 0.930 . S
C1996 C1972 1.417 . S
C1996 C1997 1.329 . S
C1997 C1967 1.437 . S
C1997 H1968 0.929 . S
C1997 C1996 1.329 . S
H1998 C1971 0.931 . S
C1999 O1981 1.285 . S
C1999 O1982 1.229 1_565 S
C2000 O1985 1.261 . S
C2000 O1986 1.252 . S
C2001 C2004 1.394 . S
C2001 C2006 1.370 1_545 S
C2001 C2007 1.500 . S
C2002 C2005 1.383 1_565 S
C2002 C2006 1.395 . S
C2003 C2004 1.396 . S
C2003 C2005 1.365 . S
C2003 H2012 0.929 . S
C2004 C2001 1.394 . S
C2004 C2003 1.396 . S
C2004 H2013 0.930 . S
C2005 C2002 1.383 1_545 S
C2005 C2003 1.365 . S
C2005 H2014 0.931 . S
C2006 C2001 1.370 1_565 S
C2006 C2002 1.395 . S
C2006 H2015 0.930 . S
C2007 Gd1943 2.805 . S
C2007 O1983 1.263 1_545 S
C2007 O1984 1.252 . S
C2007 C2001 1.500 . S
H2008 C1991 0.929 . S
H2009 C1992 0.930 . S
H2010 C1993 0.931 . S
H2011 C1994 0.930 . S
H2012 C2003 0.929 . S
H2013 C2004 0.930 . S
H2014 C2005 0.931 . S
H2015 C2006 0.930 . S
C2016 C2018 1.422 . S
C2016 C2020 1.415 . S
C2016 N2022 1.369 . S
C2017 C2018 1.421 . S
C2017 C2019 1.417 . S
C2017 C2029 1.422 . S
C2018 C2016 1.422 . S
C2018 C2017 1.421 . S
C2018 N2028 1.359 . S
C2019 C2017 1.417 . S
C2019 C2021 1.329 . S
C2019 H2038 0.943 . S
C2020 C2016 1.415 . S
C2020 C2021 1.437 . S
C2020 C2024 1.413 . S
C2021 C2019 1.329 . S
C2021 C2020 1.437 . S
C2021 H2043 0.929 . S
N2022 C2016 1.369 . S
N2022 C2023 1.338 . S
N2022 Gd2027 2.622 . S
C2023 N2022 1.338 . S
C2023 C2025 1.378 . S
C2023 H2035 0.929 . S
C2024 C2020 1.413 . S
C2024 C2025 1.348 . S
C2024 H2040 0.931 . S
C2025 C2023 1.378 . S
C2025 C2024 1.348 . S
C2025 H2041 0.930 . S
Gd2026 N2046 2.622 . S
Gd2026 N2053 2.570 . S
Gd2026 O2060 2.353 . S
Gd2026 O2061 2.468 . S
Gd2026 O2062 2.427 . S
Gd2026 O2064 2.388 . S
Gd2026 O2065 2.386 . S
Gd2026 O2069 2.307 . S
Gd2026 C2079 2.805 . S
Gd2027 N2022 2.622 . S
Gd2027 N2028 2.570 . S
Gd2027 O2059 2.386 . S
Gd2027 O2063 2.307 . S
Gd2027 O2066 2.353 . S
Gd2027 O2067 2.468 . S
Gd2027 O2068 2.427 . S
Gd2027 O2070 2.388 . S
Gd2027 C2091 2.805 1_554 S
N2028 C2018 1.359 . S
N2028 Gd2027 2.570 . S
N2028 C2030 1.343 . S
C2029 C2017 1.422 . S
C2029 C2031 1.321 . S
C2029 H2037 0.931 . S
C2030 N2028 1.343 . S
C2030 C2031 1.390 . S
C2030 H2032 0.931 . S
C2031 C2029 1.321 . S
C2031 C2030 1.390 . S
C2031 H2033 0.930 . S
H2032 C2030 0.931 . S
H2033 C2031 0.930 . S
H2034 C2057 0.931 . S
H2035 C2023 0.929 . S
H2036 C2058 0.930 . S
H2037 C2029 0.931 . S
H2038 C2019 0.943 . S
H2039 C2048 0.929 . S
H2040 C2024 0.931 . S
H2041 C2025 0.930 . S
H2042 C2080 0.930 . S
H2043 C2021 0.929 . S
H2044 C2049 0.931 . S
H2045 C2050 0.930 . S
N2046 Gd2026 2.622 . S
N2046 C2047 1.369 . S
N2046 C2048 1.338 . S
C2047 N2046 1.369 . S
C2047 C2051 1.415 . S
C2047 C2054 1.422 . S
C2048 H2039 0.929 . S
C2048 N2046 1.338 . S
C2048 C2050 1.378 . S
C2049 H2044 0.931 . S
C2049 C2050 1.348 . S
C2049 C2051 1.413 . S
C2050 H2045 0.930 . S
C2050 C2048 1.378 . S
C2050 C2049 1.348 . S
C2051 C2047 1.415 . S
C2051 C2049 1.413 . S
C2051 C2081 1.437 . S
H2052 C2081 0.929 . S
N2053 Gd2026 2.570 . S
N2053 C2054 1.359 . S
N2053 C2057 1.343 . S
C2054 C2047 1.422 . S
C2054 N2053 1.359 . S
C2054 C2056 1.421 . S
C2055 C2056 1.422 . S
C2055 C2058 1.321 . S
C2055 H2082 0.931 . S
C2056 C2054 1.421 . S
C2056 C2055 1.422 . S
C2056 C2080 1.417 . S
C2057 H2034 0.931 . S
C2057 N2053 1.343 . S
C2057 C2058 1.390 . S
C2058 H2036 0.930 . S
C2058 C2055 1.321 . S
C2058 C2057 1.390 . S
O2059 Gd2027 2.386 . S
O2059 C2071 1.265 . S
O2060 Gd2026 2.353 . S
O2060 C2071 1.242 . S
O2061 Gd2026 2.468 . S
O2061 C2079 1.263 . S
O2062 Gd2026 2.427 . S
O2062 C2079 1.252 . S
O2063 Gd2027 2.307 . S
O2063 C2072 1.261 . S
O2064 Gd2026 2.388 . S
O2064 C2072 1.252 . S
O2065 Gd2026 2.386 . S
O2065 C2083 1.265 . S
O2066 Gd2027 2.353 . S
O2066 C2083 1.242 . S
O2067 Gd2027 2.468 . S
O2067 C2091 1.263 1_554 S
O2068 Gd2027 2.427 . S
O2068 C2091 1.252 1_554 S
O2069 Gd2026 2.307 . S
O2069 C2084 1.261 . S
O2070 Gd2027 2.388 . S
O2070 C2084 1.252 . S
C2071 O2059 1.265 . S
C2071 O2060 1.242 . S
C2072 O2063 1.261 . S
C2072 O2064 1.252 . S
C2073 C2076 1.394 . S
C2073 C2078 1.370 . S
C2073 C2079 1.500 . S
C2074 C2077 1.383 . S
C2074 C2078 1.395 . S
C2075 C2076 1.396 . S
C2075 C2077 1.365 . S
C2075 H2092 0.929 . S
C2076 C2073 1.394 . S
C2076 C2075 1.396 . S
C2076 H2093 0.930 . S
C2077 C2074 1.383 . S
C2077 C2075 1.365 . S
C2077 H2094 0.931 . S
C2078 C2073 1.370 . S
C2078 C2074 1.395 . S
C2078 H2095 0.930 . S
C2079 Gd2026 2.805 . S
C2079 O2061 1.263 . S
C2079 O2062 1.252 . S
C2079 C2073 1.500 . S
C2080 H2042 0.930 . S
C2080 C2056 1.417 . S
C2080 C2081 1.329 . S
C2081 C2051 1.437 . S
C2081 H2052 0.929 . S
C2081 C2080 1.329 . S
H2082 C2055 0.931 . S
C2083 O2065 1.265 . S
C2083 O2066 1.242 . S
C2084 O2069 1.261 . S
C2084 O2070 1.252 . S
C2085 C2088 1.394 . S
C2085 C2090 1.370 . S
C2085 C2091 1.500 . S
C2086 C2089 1.383 . S
C2086 C2090 1.395 . S
C2087 C2088 1.396 . S
C2087 C2089 1.365 . S
C2087 H2096 0.929 . S
C2088 C2085 1.394 . S
C2088 C2087 1.396 . S
C2088 H2097 0.930 . S
C2089 C2086 1.383 . S
C2089 C2087 1.365 . S
C2089 H2098 0.931 . S
C2090 C2085 1.370 . S
C2090 C2086 1.395 . S
C2090 H2099 0.930 . S
C2091 Gd2027 2.805 1_556 S
C2091 O2067 1.263 1_556 S
C2091 O2068 1.252 1_556 S
C2091 C2085 1.500 . S
H2092 C2075 0.929 . S
H2093 C2076 0.930 . S
H2094 C2077 0.931 . S
H2095 C2078 0.930 . S
H2096 C2087 0.929 . S
H2097 C2088 0.930 . S
H2098 C2089 0.931 . S
H2099 C2090 0.930 . S
C2100 C2102 1.422 . S
C2100 C2104 1.415 . S
C2100 N2106 1.369 . S
C2101 C2102 1.421 . S
C2101 C2103 1.417 . S
C2101 C2113 1.422 . S
C2102 C2100 1.422 . S
C2102 C2101 1.421 . S
C2102 N2112 1.359 . S
C2103 C2101 1.417 . S
C2103 C2105 1.329 . S
C2103 H2122 0.930 . S
C2104 C2100 1.415 . S
C2104 C2105 1.437 . S
C2104 C2108 1.413 . S
C2105 C2103 1.329 . S
C2105 C2104 1.437 . S
C2105 H2127 0.929 . S
N2106 C2100 1.369 . S
N2106 C2107 1.338 . S
N2106 Gd2111 2.622 . S
C2107 N2106 1.338 . S
C2107 C2109 1.378 . S
C2107 H2119 0.929 . S
C2108 C2104 1.413 . S
C2108 C2109 1.348 . S
C2108 H2124 0.931 . S
C2109 C2107 1.378 . S
C2109 C2108 1.348 . S
C2109 H2125 0.930 . S
Gd2110 N2130 2.622 . S
Gd2110 N2137 2.570 . S
Gd2110 O2144 2.353 . S
Gd2110 O2145 2.468 . S
Gd2110 O2146 2.427 . S
Gd2110 O2148 2.388 . S
Gd2110 O2149 2.386 . S
Gd2110 O2153 2.307 . S
Gd2110 C2163 2.805 . S
Gd2111 N2106 2.622 . S
Gd2111 N2112 2.570 . S
Gd2111 O2143 2.386 . S
Gd2111 O2147 2.307 . S
Gd2111 O2150 2.353 . S
Gd2111 O2151 2.468 . S
Gd2111 O2152 2.427 . S
Gd2111 O2154 2.388 . S
Gd2111 C2175 2.805 1_554 S
N2112 C2102 1.359 . S
N2112 Gd2111 2.570 . S
N2112 C2114 1.343 . S
C2113 C2101 1.422 . S
C2113 C2115 1.321 . S
C2113 H2121 0.931 . S
C2114 N2112 1.343 . S
C2114 C2115 1.390 . S
C2114 H2116 0.931 . S
C2115 C2113 1.321 . S
C2115 C2114 1.390 . S
C2115 H2117 0.930 . S
H2116 C2114 0.931 . S
H2117 C2115 0.930 . S
H2118 C2141 0.931 . S
H2119 C2107 0.929 . S
H2120 C2142 0.930 . S
H2121 C2113 0.931 . S
H2122 C2103 0.930 . S
H2123 C2132 0.929 . S
H2124 C2108 0.931 . S
H2125 C2109 0.930 . S
H2126 C2164 0.930 . S
H2127 C2105 0.929 . S
H2128 C2133 0.931 . S
H2129 C2134 0.930 . S
N2130 Gd2110 2.622 . S
N2130 C2131 1.369 . S
N2130 C2132 1.338 . S
C2131 N2130 1.369 . S
C2131 C2135 1.415 . S
C2131 C2138 1.422 . S
C2132 H2123 0.929 . S
C2132 N2130 1.338 . S
C2132 C2134 1.378 . S
C2133 H2128 0.931 . S
C2133 C2134 1.348 . S
C2133 C2135 1.413 . S
C2134 H2129 0.930 . S
C2134 C2132 1.378 . S
C2134 C2133 1.348 . S
C2135 C2131 1.415 . S
C2135 C2133 1.413 . S
C2135 C2165 1.437 . S
H2136 C2165 0.929 . S
N2137 Gd2110 2.570 . S
N2137 C2138 1.359 . S
N2137 C2141 1.343 . S
C2138 C2131 1.422 . S
C2138 N2137 1.359 . S
C2138 C2140 1.421 . S
C2139 C2140 1.422 . S
C2139 C2142 1.321 . S
C2139 H2166 0.931 . S
C2140 C2138 1.421 . S
C2140 C2139 1.422 . S
C2140 C2164 1.417 . S
C2141 H2118 0.931 . S
C2141 N2137 1.343 . S
C2141 C2142 1.390 . S
C2142 H2120 0.930 . S
C2142 C2139 1.321 . S
C2142 C2141 1.390 . S
O2143 Gd2111 2.386 . S
O2143 C2155 1.265 . S
O2144 Gd2110 2.353 . S
O2144 C2155 1.242 . S
O2145 Gd2110 2.468 . S
O2145 C2163 1.263 . S
O2146 Gd2110 2.427 . S
O2146 C2163 1.252 . S
O2147 Gd2111 2.307 . S
O2147 C2156 1.261 . S
O2148 Gd2110 2.388 . S
O2148 C2156 1.252 . S
O2149 Gd2110 2.386 . S
O2149 C2167 1.265 . S
O2150 Gd2111 2.353 . S
O2150 C2167 1.242 . S
O2151 Gd2111 2.468 . S
O2151 C2175 1.263 1_554 S
O2152 Gd2111 2.427 . S
O2152 C2175 1.252 1_554 S
O2153 Gd2110 2.307 . S
O2153 C2168 1.261 . S
O2154 Gd2111 2.388 . S
O2154 C2168 1.252 . S
C2155 O2143 1.265 . S
C2155 O2144 1.242 . S
C2156 O2147 1.261 . S
C2156 O2148 1.252 . S
C2157 C2160 1.394 . S
C2157 C2162 1.370 . S
C2157 C2163 1.500 . S
C2158 C2161 1.383 . S
C2158 C2162 1.395 . S
C2159 C2160 1.396 . S
C2159 C2161 1.365 . S
C2159 H2176 0.929 . S
C2160 C2157 1.394 . S
C2160 C2159 1.396 . S
C2160 H2177 0.930 . S
C2161 C2158 1.383 . S
C2161 C2159 1.365 . S
C2161 H2178 0.931 . S
C2162 C2157 1.370 . S
C2162 C2158 1.395 . S
C2162 H2179 0.930 . S
C2163 Gd2110 2.805 . S
C2163 O2145 1.263 . S
C2163 O2146 1.252 . S
C2163 C2157 1.500 . S
C2164 H2126 0.930 . S
C2164 C2140 1.417 . S
C2164 C2165 1.329 . S
C2165 C2135 1.437 . S
C2165 H2136 0.929 . S
C2165 C2164 1.329 . S
H2166 C2139 0.931 . S
C2167 O2149 1.265 . S
C2167 O2150 1.242 . S
C2168 O2153 1.261 . S
C2168 O2154 1.252 . S
C2169 C2172 1.394 . S
C2169 C2174 1.370 . S
C2169 C2175 1.500 . S
C2170 C2173 1.383 . S
C2170 C2174 1.395 . S
C2171 C2172 1.396 . S
C2171 C2173 1.365 . S
C2171 H2180 0.929 . S
C2172 C2169 1.394 . S
C2172 C2171 1.396 . S
C2172 H2181 0.930 . S
C2173 C2170 1.383 . S
C2173 C2171 1.365 . S
C2173 H2182 0.931 . S
C2174 C2169 1.370 . S
C2174 C2170 1.395 . S
C2174 H2183 0.930 . S
C2175 Gd2111 2.805 1_556 S
C2175 O2151 1.263 1_556 S
C2175 O2152 1.252 1_556 S
C2175 C2169 1.500 . S
H2176 C2159 0.929 . S
H2177 C2160 0.930 . S
H2178 C2161 0.931 . S
H2179 C2162 0.930 . S
H2180 C2171 0.929 . S
H2181 C2172 0.930 . S
H2182 C2173 0.931 . S
H2183 C2174 0.930 . S
C2184 C2186 1.422 . S
C2184 C2188 1.415 . S
C2184 N2190 1.369 . S
C2185 C2186 1.421 . S
C2185 C2187 1.417 . S
C2185 C2197 1.422 . S
C2186 C2184 1.422 . S
C2186 C2185 1.421 . S
C2186 N2196 1.359 . S
C2187 C2185 1.417 . S
C2187 C2189 1.329 . S
C2187 H2206 0.930 . S
C2188 C2184 1.415 . S
C2188 C2189 1.437 . S
C2188 C2192 1.413 . S
C2189 C2187 1.329 . S
C2189 C2188 1.437 . S
C2189 H2211 0.929 . S
N2190 C2184 1.369 . S
N2190 C2191 1.338 . S
N2190 Gd2195 2.622 . S
C2191 N2190 1.338 . S
C2191 C2193 1.378 . S
C2191 H2203 0.929 . S
C2192 C2188 1.413 . S
C2192 C2193 1.348 . S
C2192 H2208 0.931 . S
C2193 C2191 1.378 . S
C2193 C2192 1.348 . S
C2193 H2209 0.930 . S
Gd2194 N2214 2.622 . S
Gd2194 N2221 2.570 . S
Gd2194 O2228 2.353 . S
Gd2194 O2229 2.468 . S
Gd2194 O2230 2.427 . S
Gd2194 O2232 2.388 . S
Gd2194 O2233 2.386 . S
Gd2194 O2237 2.307 . S
Gd2194 C2247 2.805 . S
Gd2195 N2190 2.622 . S
Gd2195 N2196 2.570 . S
Gd2195 O2227 2.386 . S
Gd2195 O2231 2.307 . S
Gd2195 O2234 2.353 . S
Gd2195 O2235 2.468 . S
Gd2195 O2236 2.427 . S
Gd2195 O2238 2.388 . S
Gd2195 C2259 2.805 . S
N2196 C2186 1.359 . S
N2196 Gd2195 2.570 . S
N2196 C2198 1.343 . S
C2197 C2185 1.422 . S
C2197 C2199 1.321 . S
C2197 H2205 0.931 . S
C2198 N2196 1.343 . S
C2198 C2199 1.390 . S
C2198 H2200 0.931 . S
C2199 C2197 1.321 . S
C2199 C2198 1.390 . S
C2199 H2201 0.930 . S
H2200 C2198 0.931 . S
H2201 C2199 0.930 . S
H2202 C2225 0.931 . S
H2203 C2191 0.929 . S
H2204 C2226 0.930 . S
H2205 C2197 0.931 . S
H2206 C2187 0.930 . S
H2207 C2216 0.929 . S
H2208 C2192 0.931 . S
H2209 C2193 0.930 . S
H2210 C2248 0.930 . S
H2211 C2189 0.929 . S
H2212 C2217 0.931 . S
H2213 C2218 0.930 . S
N2214 Gd2194 2.622 . S
N2214 C2215 1.369 . S
N2214 C2216 1.338 . S
C2215 N2214 1.369 . S
C2215 C2219 1.415 . S
C2215 C2222 1.422 . S
C2216 H2207 0.929 . S
C2216 N2214 1.338 . S
C2216 C2218 1.378 . S
C2217 H2212 0.931 . S
C2217 C2218 1.348 . S
C2217 C2219 1.413 . S
C2218 H2213 0.930 . S
C2218 C2216 1.378 . S
C2218 C2217 1.348 . S
C2219 C2215 1.415 . S
C2219 C2217 1.413 . S
C2219 C2249 1.437 . S
H2220 C2249 0.929 . S
N2221 Gd2194 2.570 . S
N2221 C2222 1.359 . S
N2221 C2225 1.343 . S
C2222 C2215 1.422 . S
C2222 N2221 1.359 . S
C2222 C2224 1.421 . S
C2223 C2224 1.422 . S
C2223 C2226 1.321 . S
C2223 H2250 0.931 . S
C2224 C2222 1.421 . S
C2224 C2223 1.422 . S
C2224 C2248 1.417 . S
C2225 H2202 0.931 . S
C2225 N2221 1.343 . S
C2225 C2226 1.390 . S
C2226 H2204 0.930 . S
C2226 C2223 1.321 . S
C2226 C2225 1.390 . S
O2227 Gd2195 2.386 . S
O2227 C2239 1.265 . S
O2228 Gd2194 2.353 . S
O2228 C2239 1.242 . S
O2229 Gd2194 2.468 . S
O2229 C2247 1.263 . S
O2230 Gd2194 2.427 . S
O2230 C2247 1.252 . S
O2231 Gd2195 2.307 . S
O2231 C2240 1.261 . S
O2232 Gd2194 2.388 . S
O2232 C2240 1.252 . S
O2233 Gd2194 2.386 . S
O2233 C2251 1.265 . S
O2234 Gd2195 2.353 . S
O2234 C2251 1.242 . S
O2235 Gd2195 2.468 . S
O2235 C2259 1.263 . S
O2236 Gd2195 2.427 . S
O2236 C2259 1.252 . S
O2237 Gd2194 2.307 . S
O2237 C2252 1.261 . S
O2238 Gd2195 2.388 . S
O2238 C2252 1.252 . S
C2239 O2227 1.265 . S
C2239 O2228 1.242 . S
C2240 O2231 1.261 . S
C2240 O2232 1.252 . S
C2241 C2244 1.394 . S
C2241 C2246 1.370 . S
C2241 C2247 1.500 . S
C2242 C2245 1.383 . S
C2242 C2246 1.395 . S
C2243 C2244 1.396 . S
C2243 C2245 1.365 . S
C2243 H2260 0.929 . S
C2244 C2241 1.394 . S
C2244 C2243 1.396 . S
C2244 H2261 0.930 . S
C2245 C2242 1.383 . S
C2245 C2243 1.365 . S
C2245 H2262 0.931 . S
C2246 C2241 1.370 . S
C2246 C2242 1.395 . S
C2246 H2263 0.930 . S
C2247 Gd2194 2.805 . S
C2247 O2229 1.263 . S
C2247 O2230 1.252 . S
C2247 C2241 1.500 . S
C2248 H2210 0.930 . S
C2248 C2224 1.417 . S
C2248 C2249 1.329 . S
C2249 C2219 1.437 . S
C2249 H2220 0.929 . S
C2249 C2248 1.329 . S
H2250 C2223 0.931 . S
C2251 O2233 1.265 . S
C2251 O2234 1.242 . S
C2252 O2237 1.261 . S
C2252 O2238 1.252 . S
C2253 C2256 1.394 . S
C2253 C2258 1.370 . S
C2253 C2259 1.500 . S
C2254 C2257 1.383 . S
C2254 C2258 1.395 . S
C2255 C2256 1.396 . S
C2255 C2257 1.365 . S
C2255 H2264 0.929 . S
C2256 C2253 1.394 . S
C2256 C2255 1.396 . S
C2256 H2265 0.930 . S
C2257 C2254 1.383 . S
C2257 C2255 1.365 . S
C2257 H2266 0.931 . S
C2258 C2253 1.370 . S
C2258 C2254 1.395 . S
C2258 H2267 0.930 . S
C2259 Gd2195 2.805 . S
C2259 O2235 1.263 . S
C2259 O2236 1.252 . S
C2259 C2253 1.500 . S
H2260 C2243 0.929 . S
H2261 C2244 0.930 . S
H2262 C2245 0.931 . S
H2263 C2246 0.930 . S
H2264 C2255 0.929 . S
H2265 C2256 0.930 . S
H2266 C2257 0.931 . S
H2267 C2258 0.930 . S
C2268 C2270 1.422 . S
C2268 C2272 1.415 . S
C2268 N2274 1.369 . S
C2269 C2270 1.421 . S
C2269 C2271 1.417 . S
C2269 C2281 1.422 . S
C2270 C2268 1.422 . S
C2270 C2269 1.421 . S
C2270 N2280 1.359 . S
C2271 C2269 1.417 . S
C2271 C2273 1.329 . S
C2271 H2290 0.930 . S
C2272 C2268 1.415 . S
C2272 C2273 1.437 . S
C2272 C2276 1.413 . S
C2273 C2271 1.329 . S
C2273 C2272 1.437 . S
C2273 H2295 0.929 . S
N2274 C2268 1.369 . S
N2274 C2275 1.338 . S
N2274 Gd2279 2.622 . S
C2275 N2274 1.338 . S
C2275 C2277 1.378 . S
C2275 H2287 0.929 . S
C2276 C2272 1.413 . S
C2276 C2277 1.348 . S
C2276 H2292 0.931 . S
C2277 C2275 1.378 . S
C2277 C2276 1.348 . S
C2277 H2293 0.930 . S
Gd2278 N2298 2.622 . S
Gd2278 N2305 2.570 . S
Gd2278 O2312 2.353 . S
Gd2278 O2313 2.468 . S
Gd2278 O2314 2.427 . S
Gd2278 O2316 2.388 . S
Gd2278 O2317 2.386 . S
Gd2278 O2321 2.307 . S
Gd2278 C2331 2.805 . S
Gd2279 N2274 2.622 . S
Gd2279 N2280 2.570 . S
Gd2279 O2311 2.386 . S
Gd2279 O2315 2.307 . S
Gd2279 O2318 2.353 . S
Gd2279 O2319 2.468 . S
Gd2279 O2320 2.427 . S
Gd2279 O2322 2.388 . S
Gd2279 C2343 2.805 . S
N2280 C2270 1.359 . S
N2280 Gd2279 2.570 . S
N2280 C2282 1.343 . S
C2281 C2269 1.422 . S
C2281 C2283 1.321 . S
C2281 H2289 0.931 . S
C2282 N2280 1.343 . S
C2282 C2283 1.390 . S
C2282 H2284 0.931 . S
C2283 C2281 1.321 . S
C2283 C2282 1.390 . S
C2283 H2285 0.930 . S
H2284 C2282 0.931 . S
H2285 C2283 0.930 . S
H2286 C2309 0.931 . S
H2287 C2275 0.929 . S
H2288 C2310 0.930 . S
H2289 C2281 0.931 . S
H2290 C2271 0.930 . S
H2291 C2300 0.929 . S
H2292 C2276 0.931 . S
H2293 C2277 0.930 . S
H2294 C2332 0.930 . S
H2295 C2273 0.929 . S
H2296 C2301 0.931 . S
H2297 C2302 0.930 . S
N2298 Gd2278 2.622 . S
N2298 C2299 1.369 . S
N2298 C2300 1.338 . S
C2299 N2298 1.369 . S
C2299 C2303 1.415 . S
C2299 C2306 1.422 . S
C2300 H2291 0.929 . S
C2300 N2298 1.338 . S
C2300 C2302 1.378 . S
C2301 H2296 0.931 . S
C2301 C2302 1.348 . S
C2301 C2303 1.413 . S
C2302 H2297 0.930 . S
C2302 C2300 1.378 . S
C2302 C2301 1.348 . S
C2303 C2299 1.415 . S
C2303 C2301 1.413 . S
C2303 C2333 1.437 . S
H2304 C2333 0.929 . S
N2305 Gd2278 2.570 . S
N2305 C2306 1.359 . S
N2305 C2309 1.343 . S
C2306 C2299 1.422 . S
C2306 N2305 1.359 . S
C2306 C2308 1.421 . S
C2307 C2308 1.422 . S
C2307 C2310 1.321 . S
C2307 H2334 0.931 . S
C2308 C2306 1.421 . S
C2308 C2307 1.422 . S
C2308 C2332 1.417 . S
C2309 H2286 0.931 . S
C2309 N2305 1.343 . S
C2309 C2310 1.390 . S
C2310 H2288 0.930 . S
C2310 C2307 1.321 . S
C2310 C2309 1.390 . S
O2311 Gd2279 2.386 . S
O2311 C2323 1.265 . S
O2312 Gd2278 2.353 . S
O2312 C2323 1.242 . S
O2313 Gd2278 2.468 . S
O2313 C2331 1.263 . S
O2314 Gd2278 2.427 . S
O2314 C2331 1.252 . S
O2315 Gd2279 2.307 . S
O2315 C2324 1.261 . S
O2316 Gd2278 2.388 . S
O2316 C2324 1.252 . S
O2317 Gd2278 2.386 . S
O2317 C2335 1.265 . S
O2318 Gd2279 2.353 . S
O2318 C2335 1.242 . S
O2319 Gd2279 2.468 . S
O2319 C2343 1.263 . S
O2320 Gd2279 2.427 . S
O2320 C2343 1.252 . S
O2321 Gd2278 2.307 . S
O2321 C2336 1.261 . S
O2322 Gd2279 2.388 . S
O2322 C2336 1.252 . S
C2323 O2311 1.265 . S
C2323 O2312 1.242 . S
C2324 O2315 1.261 . S
C2324 O2316 1.252 . S
C2325 C2328 1.394 . S
C2325 C2330 1.370 . S
C2325 C2331 1.500 . S
C2326 C2329 1.383 . S
C2326 C2330 1.395 . S
C2327 C2328 1.396 . S
C2327 C2329 1.365 . S
C2327 H2344 0.929 . S
C2328 C2325 1.394 . S
C2328 C2327 1.396 . S
C2328 H2345 0.930 . S
C2329 C2326 1.383 . S
C2329 C2327 1.365 . S
C2329 H2346 0.931 . S
C2330 C2325 1.370 . S
C2330 C2326 1.395 . S
C2330 H2347 0.930 . S
C2331 Gd2278 2.805 . S
C2331 O2313 1.263 . S
C2331 O2314 1.252 . S
C2331 C2325 1.500 . S
C2332 H2294 0.930 . S
C2332 C2308 1.417 . S
C2332 C2333 1.329 . S
C2333 C2303 1.437 . S
C2333 H2304 0.929 . S
C2333 C2332 1.329 . S
H2334 C2307 0.931 . S
C2335 O2317 1.265 . S
C2335 O2318 1.242 . S
C2336 O2321 1.261 . S
C2336 O2322 1.252 . S
C2337 C2340 1.394 . S
C2337 C2342 1.370 . S
C2337 C2343 1.500 . S
C2338 C2341 1.383 . S
C2338 C2342 1.395 . S
C2339 C2340 1.396 . S
C2339 C2341 1.365 . S
C2339 H2348 0.929 . S
C2340 C2337 1.394 . S
C2340 C2339 1.396 . S
C2340 H2349 0.930 . S
C2341 C2338 1.383 . S
C2341 C2339 1.365 . S
C2341 H2350 0.931 . S
C2342 C2337 1.370 . S
C2342 C2338 1.395 . S
C2342 H2351 0.930 . S
C2343 Gd2279 2.805 . S
C2343 O2319 1.263 . S
C2343 O2320 1.252 . S
C2343 C2337 1.500 . S
H2344 C2327 0.929 . S
H2345 C2328 0.930 . S
H2346 C2329 0.931 . S
H2347 C2330 0.930 . S
H2348 C2339 0.929 . S
H2349 C2340 0.930 . S
H2350 C2341 0.931 . S
H2351 C2342 0.930 . S
C2352 C2354 1.422 . S
C2352 C2356 1.415 . S
C2352 N2358 1.369 . S
C2353 C2354 1.421 . S
C2353 C2355 1.417 . S
C2353 C2365 1.422 . S
C2354 C2352 1.422 . S
C2354 C2353 1.421 . S
C2354 N2364 1.359 . S
C2355 C2353 1.417 . S
C2355 C2357 1.329 . S
C2355 H2374 0.930 . S
C2356 C2352 1.415 . S
C2356 C2357 1.437 . S
C2356 C2360 1.413 . S
C2357 C2355 1.329 . S
C2357 C2356 1.437 . S
C2357 H2379 0.929 . S
N2358 C2352 1.369 . S
N2358 C2359 1.338 . S
N2358 Gd2363 2.622 . S
C2359 N2358 1.338 . S
C2359 C2361 1.378 . S
C2359 H2371 0.929 . S
C2360 C2356 1.413 . S
C2360 C2361 1.348 . S
C2360 H2376 0.931 . S
C2361 C2359 1.378 . S
C2361 C2360 1.348 . S
C2361 H2377 0.930 . S
Gd2362 N2382 2.622 . S
Gd2362 N2389 2.570 . S
Gd2362 O2396 2.353 . S
Gd2362 O2397 2.468 . S
Gd2362 O2398 2.427 . S
Gd2362 O2400 2.388 . S
Gd2362 O2401 2.386 . S
Gd2362 O2405 2.307 . S
Gd2362 C2415 2.805 1_556 S
Gd2363 N2358 2.622 . S
Gd2363 N2364 2.570 . S
Gd2363 O2395 2.386 . S
Gd2363 O2399 2.307 . S
Gd2363 O2402 2.353 . S
Gd2363 O2403 2.468 . S
Gd2363 O2404 2.427 . S
Gd2363 O2406 2.388 . S
Gd2363 C2427 2.805 . S
N2364 C2354 1.359 . S
N2364 Gd2363 2.570 . S
N2364 C2366 1.343 . S
C2365 C2353 1.422 . S
C2365 C2367 1.321 . S
C2365 H2373 0.931 . S
C2366 N2364 1.343 . S
C2366 C2367 1.390 . S
C2366 H2368 0.931 . S
C2367 C2365 1.321 . S
C2367 C2366 1.390 . S
C2367 H2369 0.930 . S
H2368 C2366 0.931 . S
H2369 C2367 0.930 . S
H2370 C2393 0.931 . S
H2371 C2359 0.929 . S
H2372 C2394 0.930 . S
H2373 C2365 0.931 . S
H2374 C2355 0.930 . S
H2375 C2384 0.929 . S
H2376 C2360 0.931 . S
H2377 C2361 0.930 . S
H2378 C2416 0.943 . S
H2379 C2357 0.929 . S
H2380 C2385 0.931 . S
H2381 C2386 0.930 . S
N2382 Gd2362 2.622 . S
N2382 C2383 1.369 . S
N2382 C2384 1.338 . S
C2383 N2382 1.369 . S
C2383 C2387 1.415 . S
C2383 C2390 1.422 . S
C2384 H2375 0.929 . S
C2384 N2382 1.338 . S
C2384 C2386 1.378 . S
C2385 H2380 0.931 . S
C2385 C2386 1.348 . S
C2385 C2387 1.413 . S
C2386 H2381 0.930 . S
C2386 C2384 1.378 . S
C2386 C2385 1.348 . S
C2387 C2383 1.415 . S
C2387 C2385 1.413 . S
C2387 C2417 1.437 . S
H2388 C2417 0.929 . S
N2389 Gd2362 2.570 . S
N2389 C2390 1.359 . S
N2389 C2393 1.343 . S
C2390 C2383 1.422 . S
C2390 N2389 1.359 . S
C2390 C2392 1.421 . S
C2391 C2392 1.422 . S
C2391 C2394 1.321 . S
C2391 H2418 0.931 . S
C2392 C2390 1.421 . S
C2392 C2391 1.422 . S
C2392 C2416 1.417 . S
C2393 H2370 0.931 . S
C2393 N2389 1.343 . S
C2393 C2394 1.390 . S
C2394 H2372 0.930 . S
C2394 C2391 1.321 . S
C2394 C2393 1.390 . S
O2395 Gd2363 2.386 . S
O2395 C2407 1.265 . S
O2396 Gd2362 2.353 . S
O2396 C2407 1.242 . S
O2397 Gd2362 2.468 . S
O2397 C2415 1.263 1_556 S
O2398 Gd2362 2.427 . S
O2398 C2415 1.252 1_556 S
O2399 Gd2363 2.307 . S
O2399 C2408 1.261 . S
O2400 Gd2362 2.388 . S
O2400 C2408 1.252 . S
O2401 Gd2362 2.386 . S
O2401 C2419 1.265 . S
O2402 Gd2363 2.353 . S
O2402 C2419 1.242 . S
O2403 Gd2363 2.468 . S
O2403 C2427 1.263 . S
O2404 Gd2363 2.427 . S
O2404 C2427 1.252 . S
O2405 Gd2362 2.307 . S
O2405 C2420 1.261 . S
O2406 Gd2363 2.388 . S
O2406 C2420 1.252 . S
C2407 O2395 1.265 . S
C2407 O2396 1.242 . S
C2408 O2399 1.261 . S
C2408 O2400 1.252 . S
C2409 C2412 1.394 . S
C2409 C2414 1.370 . S
C2409 C2415 1.500 . S
C2410 C2413 1.383 . S
C2410 C2414 1.395 . S
C2411 C2412 1.396 . S
C2411 C2413 1.365 . S
C2411 H2428 0.929 . S
C2412 C2409 1.394 . S
C2412 C2411 1.396 . S
C2412 H2429 0.930 . S
C2413 C2410 1.383 . S
C2413 C2411 1.365 . S
C2413 H2430 0.931 . S
C2414 C2409 1.370 . S
C2414 C2410 1.395 . S
C2414 H2431 0.930 . S
C2415 Gd2362 2.805 1_554 S
C2415 O2397 1.263 1_554 S
C2415 O2398 1.252 1_554 S
C2415 C2409 1.500 . S
C2416 H2378 0.943 . S
C2416 C2392 1.417 . S
C2416 C2417 1.329 . S
C2417 C2387 1.437 . S
C2417 H2388 0.929 . S
C2417 C2416 1.329 . S
H2418 C2391 0.931 . S
C2419 O2401 1.265 . S
C2419 O2402 1.242 . S
C2420 O2405 1.261 . S
C2420 O2406 1.252 . S
C2421 C2424 1.394 . S
C2421 C2426 1.370 . S
C2421 C2427 1.500 . S
C2422 C2425 1.383 . S
C2422 C2426 1.395 . S
C2423 C2424 1.396 . S
C2423 C2425 1.365 . S
C2423 H2432 0.929 . S
C2424 C2421 1.394 . S
C2424 C2423 1.396 . S
C2424 H2433 0.930 . S
C2425 C2422 1.383 . S
C2425 C2423 1.365 . S
C2425 H2434 0.931 . S
C2426 C2421 1.370 . S
C2426 C2422 1.395 . S
C2426 H2435 0.930 . S
C2427 Gd2363 2.805 . S
C2427 O2403 1.263 . S
C2427 O2404 1.252 . S
C2427 C2421 1.500 . S
H2428 C2411 0.929 . S
H2429 C2412 0.930 . S
H2430 C2413 0.931 . S
H2431 C2414 0.930 . S
H2432 C2423 0.929 . S
H2433 C2424 0.930 . S
H2434 C2425 0.931 . S
H2435 C2426 0.930 . S
C2436 C2438 1.422 . S
C2436 C2440 1.415 . S
C2436 N2442 1.369 . S
C2437 C2438 1.421 . S
C2437 C2439 1.417 . S
C2437 C2449 1.422 . S
C2438 C2436 1.422 . S
C2438 C2437 1.421 . S
C2438 N2448 1.359 . S
C2439 C2437 1.417 . S
C2439 C2441 1.329 . S
C2439 H2458 0.930 . S
C2440 C2436 1.415 . S
C2440 C2441 1.437 . S
C2440 C2444 1.413 . S
C2441 C2439 1.329 . S
C2441 C2440 1.437 . S
C2441 H2463 0.929 . S
N2442 C2436 1.369 . S
N2442 C2443 1.338 . S
N2442 Gd2447 2.622 . S
C2443 N2442 1.338 . S
C2443 C2445 1.378 . S
C2443 H2455 0.929 . S
C2444 C2440 1.413 . S
C2444 C2445 1.348 . S
C2444 H2460 0.931 . S
C2445 C2443 1.378 . S
C2445 C2444 1.348 . S
C2445 H2461 0.930 . S
Gd2446 N2466 2.622 . S
Gd2446 N2473 2.570 . S
Gd2446 O2480 2.353 . S
Gd2446 O2481 2.468 . S
Gd2446 O2482 2.427 . S
Gd2446 O2484 2.388 . S
Gd2446 O2485 2.386 . S
Gd2446 O2489 2.307 . S
Gd2446 C2499 2.805 1_556 S
Gd2447 N2442 2.622 . S
Gd2447 N2448 2.570 . S
Gd2447 O2479 2.386 . S
Gd2447 O2483 2.307 . S
Gd2447 O2486 2.353 . S
Gd2447 O2487 2.468 . S
Gd2447 O2488 2.427 . S
Gd2447 O2490 2.388 . S
Gd2447 C2511 2.805 . S
N2448 C2438 1.359 . S
N2448 Gd2447 2.570 . S
N2448 C2450 1.343 . S
C2449 C2437 1.422 . S
C2449 C2451 1.321 . S
C2449 H2457 0.931 . S
C2450 N2448 1.343 . S
C2450 C2451 1.390 . S
C2450 H2452 0.931 . S
C2451 C2449 1.321 . S
C2451 C2450 1.390 . S
C2451 H2453 0.930 . S
H2452 C2450 0.931 . S
H2453 C2451 0.930 . S
H2454 C2477 0.931 . S
H2455 C2443 0.929 . S
H2456 C2478 0.930 . S
H2457 C2449 0.931 . S
H2458 C2439 0.930 . S
H2459 C2468 0.929 . S
H2460 C2444 0.931 . S
H2461 C2445 0.930 . S
H2462 C2500 0.930 . S
H2463 C2441 0.929 . S
H2464 C2469 0.931 . S
H2465 C2470 0.930 . S
N2466 Gd2446 2.622 . S
N2466 C2467 1.369 . S
N2466 C2468 1.338 . S
C2467 N2466 1.369 . S
C2467 C2471 1.415 . S
C2467 C2474 1.422 . S
C2468 H2459 0.929 . S
C2468 N2466 1.338 . S
C2468 C2470 1.378 . S
C2469 H2464 0.931 . S
C2469 C2470 1.348 . S
C2469 C2471 1.413 . S
C2470 H2465 0.930 . S
C2470 C2468 1.378 . S
C2470 C2469 1.348 . S
C2471 C2467 1.415 . S
C2471 C2469 1.413 . S
C2471 C2501 1.437 . S
H2472 C2501 0.929 . S
N2473 Gd2446 2.570 . S
N2473 C2474 1.359 . S
N2473 C2477 1.343 . S
C2474 C2467 1.422 . S
C2474 N2473 1.359 . S
C2474 C2476 1.421 . S
C2475 C2476 1.422 . S
C2475 C2478 1.321 . S
C2475 H2502 0.931 . S
C2476 C2474 1.421 . S
C2476 C2475 1.422 . S
C2476 C2500 1.417 . S
C2477 H2454 0.931 . S
C2477 N2473 1.343 . S
C2477 C2478 1.390 . S
C2478 H2456 0.930 . S
C2478 C2475 1.321 . S
C2478 C2477 1.390 . S
O2479 Gd2447 2.386 . S
O2479 C2491 1.265 . S
O2480 Gd2446 2.353 . S
O2480 C2491 1.242 . S
O2481 Gd2446 2.468 . S
O2481 C2499 1.263 1_556 S
O2482 Gd2446 2.427 . S
O2482 C2499 1.252 1_556 S
O2483 Gd2447 2.307 . S
O2483 C2492 1.261 . S
O2484 Gd2446 2.388 . S
O2484 C2492 1.252 . S
O2485 Gd2446 2.386 . S
O2485 C2503 1.265 . S
O2486 Gd2447 2.353 . S
O2486 C2503 1.242 . S
O2487 Gd2447 2.468 . S
O2487 C2511 1.263 . S
O2488 Gd2447 2.427 . S
O2488 C2511 1.252 . S
O2489 Gd2446 2.307 . S
O2489 C2504 1.261 . S
O2490 Gd2447 2.388 . S
O2490 C2504 1.252 . S
C2491 O2479 1.265 . S
C2491 O2480 1.242 . S
C2492 O2483 1.261 . S
C2492 O2484 1.252 . S
C2493 C2496 1.394 . S
C2493 C2498 1.370 . S
C2493 C2499 1.500 . S
C2494 C2497 1.383 . S
C2494 C2498 1.395 . S
C2495 C2496 1.396 . S
C2495 C2497 1.365 . S
C2495 H2512 0.929 . S
C2496 C2493 1.394 . S
C2496 C2495 1.396 . S
C2496 H2513 0.930 . S
C2497 C2494 1.383 . S
C2497 C2495 1.365 . S
C2497 H2514 0.931 . S
C2498 C2493 1.370 . S
C2498 C2494 1.395 . S
C2498 H2515 0.930 . S
C2499 Gd2446 2.805 1_554 S
C2499 O2481 1.263 1_554 S
C2499 O2482 1.252 1_554 S
C2499 C2493 1.500 . S
C2500 H2462 0.930 . S
C2500 C2476 1.417 . S
C2500 C2501 1.329 . S
C2501 C2471 1.437 . S
C2501 H2472 0.929 . S
C2501 C2500 1.329 . S
H2502 C2475 0.931 . S
C2503 O2485 1.265 . S
C2503 O2486 1.242 . S
C2504 O2489 1.261 . S
C2504 O2490 1.252 . S
C2505 C2508 1.394 . S
C2505 C2510 1.370 . S
C2505 C2511 1.500 . S
C2506 C2509 1.383 . S
C2506 C2510 1.395 . S
C2507 C2508 1.396 . S
C2507 C2509 1.365 . S
C2507 H2516 0.929 . S
C2508 C2505 1.394 . S
C2508 C2507 1.396 . S
C2508 H2517 0.930 . S
C2509 C2506 1.383 . S
C2509 C2507 1.365 . S
C2509 H2518 0.931 . S
C2510 C2505 1.370 . S
C2510 C2506 1.395 . S
C2510 H2519 0.930 . S
C2511 Gd2447 2.805 . S
C2511 O2487 1.263 . S
C2511 O2488 1.252 . S
C2511 C2505 1.500 . S
H2512 C2495 0.929 . S
H2513 C2496 0.930 . S
H2514 C2497 0.931 . S
H2515 C2498 0.930 . S
H2516 C2507 0.929 . S
H2517 C2508 0.930 . S
H2518 C2509 0.931 . S
H2519 C2510 0.930 . S
C2520 C2522 1.422 . S
C2520 C2524 1.415 . S
C2520 N2526 1.369 . S
C2521 C2522 1.421 . S
C2521 C2523 1.417 . S
C2521 C2533 1.422 . S
C2522 C2520 1.422 . S
C2522 C2521 1.421 . S
C2522 N2532 1.359 . S
C2523 C2521 1.417 . S
C2523 C2525 1.329 . S
C2523 H2542 0.930 . S
C2524 C2520 1.415 . S
C2524 C2525 1.437 . S
C2524 C2528 1.413 . S
C2525 C2523 1.329 . S
C2525 C2524 1.437 . S
C2525 H2547 0.929 . S
N2526 C2520 1.369 . S
N2526 C2527 1.338 . S
N2526 Gd2531 2.622 . S
C2527 N2526 1.338 . S
C2527 C2529 1.378 . S
C2527 H2539 0.929 . S
C2528 C2524 1.413 . S
C2528 C2529 1.348 . S
C2528 H2544 0.931 . S
C2529 C2527 1.378 . S
C2529 C2528 1.348 . S
C2529 H2545 0.930 . S
Gd2530 N2550 2.622 . S
Gd2530 N2557 2.570 . S
Gd2530 O2564 2.353 . S
Gd2530 O2565 2.468 . S
Gd2530 O2566 2.427 . S
Gd2530 O2568 2.388 . S
Gd2530 O2569 2.386 . S
Gd2530 O2573 2.307 . S
Gd2530 C2583 2.805 . S
Gd2531 N2526 2.622 . S
Gd2531 N2532 2.570 . S
Gd2531 O2563 2.386 . S
Gd2531 O2567 2.307 . S
Gd2531 O2570 2.353 . S
Gd2531 O2571 2.468 . S
Gd2531 O2572 2.427 . S
Gd2531 O2574 2.388 . S
Gd2531 C2595 2.805 . S
N2532 C2522 1.359 . S
N2532 Gd2531 2.570 . S
N2532 C2534 1.343 . S
C2533 C2521 1.422 . S
C2533 C2535 1.321 . S
C2533 H2541 0.931 . S
C2534 N2532 1.343 . S
C2534 C2535 1.390 . S
C2534 H2536 0.931 . S
C2535 C2533 1.321 . S
C2535 C2534 1.390 . S
C2535 H2537 0.930 . S
H2536 C2534 0.931 . S
H2537 C2535 0.930 . S
H2538 C2561 0.931 . S
H2539 C2527 0.929 . S
H2540 C2562 0.930 . S
H2541 C2533 0.931 . S
H2542 C2523 0.930 . S
H2543 C2552 0.929 . S
H2544 C2528 0.931 . S
H2545 C2529 0.930 . S
H2546 C2584 0.930 . S
H2547 C2525 0.929 . S
H2548 C2553 0.931 . S
H2549 C2554 0.930 . S
N2550 Gd2530 2.622 . S
N2550 C2551 1.369 . S
N2550 C2552 1.338 . S
C2551 N2550 1.369 . S
C2551 C2555 1.415 . S
C2551 C2558 1.422 . S
C2552 H2543 0.929 . S
C2552 N2550 1.338 . S
C2552 C2554 1.378 . S
C2553 H2548 0.931 . S
C2553 C2554 1.348 . S
C2553 C2555 1.413 . S
C2554 H2549 0.930 . S
C2554 C2552 1.378 . S
C2554 C2553 1.348 . S
C2555 C2551 1.415 . S
C2555 C2553 1.413 . S
C2555 C2585 1.437 . S
H2556 C2585 0.929 . S
N2557 Gd2530 2.570 . S
N2557 C2558 1.359 . S
N2557 C2561 1.343 . S
C2558 C2551 1.422 . S
C2558 N2557 1.359 . S
C2558 C2560 1.421 . S
C2559 C2560 1.422 . S
C2559 C2562 1.321 . S
C2559 H2586 0.931 . S
C2560 C2558 1.421 . S
C2560 C2559 1.422 . S
C2560 C2584 1.417 . S
C2561 H2538 0.931 . S
C2561 N2557 1.343 . S
C2561 C2562 1.390 . S
C2562 H2540 0.930 . S
C2562 C2559 1.321 . S
C2562 C2561 1.390 . S
O2563 Gd2531 2.386 . S
O2563 C2575 1.265 . S
O2564 Gd2530 2.353 . S
O2564 C2575 1.242 . S
O2565 Gd2530 2.468 . S
O2565 C2583 1.263 . S
O2566 Gd2530 2.427 . S
O2566 C2583 1.252 . S
O2567 Gd2531 2.307 . S
O2567 C2576 1.261 . S
O2568 Gd2530 2.388 . S
O2568 C2576 1.252 . S
O2569 Gd2530 2.386 . S
O2569 C2587 1.265 . S
O2570 Gd2531 2.353 . S
O2570 C2587 1.242 . S
O2571 Gd2531 2.468 . S
O2571 C2595 1.263 . S
O2572 Gd2531 2.427 . S
O2572 C2595 1.252 . S
O2573 Gd2530 2.307 . S
O2573 C2588 1.261 . S
O2574 Gd2531 2.388 . S
O2574 C2588 1.252 . S
C2575 O2563 1.265 . S
C2575 O2564 1.242 . S
C2576 O2567 1.261 . S
C2576 O2568 1.252 . S
C2577 C2580 1.394 . S
C2577 C2582 1.370 . S
C2577 C2583 1.500 . S
C2578 C2581 1.383 . S
C2578 C2582 1.395 . S
C2579 C2580 1.396 . S
C2579 C2581 1.365 . S
C2579 H2596 0.929 . S
C2580 C2577 1.394 . S
C2580 C2579 1.396 . S
C2580 H2597 0.930 . S
C2581 C2578 1.383 . S
C2581 C2579 1.365 . S
C2581 H2598 0.931 . S
C2582 C2577 1.370 . S
C2582 C2578 1.395 . S
C2582 H2599 0.930 . S
C2583 Gd2530 2.805 . S
C2583 O2565 1.263 . S
C2583 O2566 1.252 . S
C2583 C2577 1.500 . S
C2584 H2546 0.930 . S
C2584 C2560 1.417 . S
C2584 C2585 1.329 . S
C2585 C2555 1.437 . S
C2585 H2556 0.929 . S
C2585 C2584 1.329 . S
H2586 C2559 0.931 . S
C2587 O2569 1.265 . S
C2587 O2570 1.242 . S
C2588 O2573 1.261 . S
C2588 O2574 1.252 . S
C2589 C2592 1.394 . S
C2589 C2594 1.370 . S
C2589 C2595 1.500 . S
C2590 C2593 1.383 . S
C2590 C2594 1.395 . S
C2591 C2592 1.396 . S
C2591 C2593 1.365 . S
C2591 H2600 0.929 . S
C2592 C2589 1.394 . S
C2592 C2591 1.396 . S
C2592 H2601 0.930 . S
C2593 C2590 1.383 . S
C2593 C2591 1.365 . S
C2593 H2602 0.931 . S
C2594 C2589 1.370 . S
C2594 C2590 1.395 . S
C2594 H2603 0.930 . S
C2595 Gd2531 2.805 . S
C2595 O2571 1.263 . S
C2595 O2572 1.252 . S
C2595 C2589 1.500 . S
H2596 C2579 0.929 . S
H2597 C2580 0.930 . S
H2598 C2581 0.931 . S
H2599 C2582 0.930 . S
H2600 C2591 0.929 . S
H2601 C2592 0.930 . S
H2602 C2593 0.931 . S
H2603 C2594 0.930 . S
C2604 C2606 1.422 . S
C2604 C2608 1.415 . S
C2604 N2610 1.369 . S
C2605 C2606 1.421 . S
C2605 C2607 1.417 . S
C2605 C2617 1.422 . S
C2606 C2604 1.422 . S
C2606 C2605 1.421 . S
C2606 N2616 1.359 . S
C2607 C2605 1.417 . S
C2607 C2609 1.329 . S
C2607 H2626 0.930 . S
C2608 C2604 1.415 . S
C2608 C2609 1.437 . S
C2608 C2612 1.413 . S
C2609 C2607 1.329 . S
C2609 C2608 1.437 . S
C2609 H2631 0.929 . S
N2610 C2604 1.369 . S
N2610 C2611 1.338 . S
N2610 Gd2615 2.622 . S
C2611 N2610 1.338 . S
C2611 C2613 1.378 . S
C2611 H2623 0.929 . S
C2612 C2608 1.413 . S
C2612 C2613 1.348 . S
C2612 H2628 0.931 . S
C2613 C2611 1.378 . S
C2613 C2612 1.348 . S
C2613 H2629 0.930 . S
Gd2614 N2634 2.622 . S
Gd2614 N2641 2.570 . S
Gd2614 O2648 2.353 . S
Gd2614 O2649 2.468 . S
Gd2614 O2650 2.427 . S
Gd2614 O2652 2.388 . S
Gd2614 O2653 2.386 . S
Gd2614 O2657 2.307 . S
Gd2614 C2667 2.805 . S
Gd2615 N2610 2.622 . S
Gd2615 N2616 2.570 . S
Gd2615 O2647 2.386 . S
Gd2615 O2651 2.307 . S
Gd2615 O2654 2.353 . S
Gd2615 O2655 2.468 . S
Gd2615 O2656 2.427 . S
Gd2615 O2658 2.388 . S
Gd2615 C2679 2.805 . S
N2616 C2606 1.359 . S
N2616 Gd2615 2.570 . S
N2616 C2618 1.343 . S
C2617 C2605 1.422 . S
C2617 C2619 1.321 . S
C2617 H2625 0.931 . S
C2618 N2616 1.343 . S
C2618 C2619 1.390 . S
C2618 H2620 0.931 . S
C2619 C2617 1.321 . S
C2619 C2618 1.390 . S
C2619 H2621 0.930 . S
H2620 C2618 0.931 . S
H2621 C2619 0.930 . S
H2622 C2645 0.931 . S
H2623 C2611 0.929 . S
H2624 C2646 0.930 . S
H2625 C2617 0.931 . S
H2626 C2607 0.930 . S
H2627 C2636 0.929 . S
H2628 C2612 0.931 . S
H2629 C2613 0.930 . S
H2630 C2668 0.930 . S
H2631 C2609 0.929 . S
H2632 C2637 0.931 . S
H2633 C2638 0.930 . S
N2634 Gd2614 2.622 . S
N2634 C2635 1.369 . S
N2634 C2636 1.338 . S
C2635 N2634 1.369 . S
C2635 C2639 1.415 . S
C2635 C2642 1.422 . S
C2636 H2627 0.929 . S
C2636 N2634 1.338 . S
C2636 C2638 1.378 . S
C2637 H2632 0.931 . S
C2637 C2638 1.348 . S
C2637 C2639 1.413 . S
C2638 H2633 0.930 . S
C2638 C2636 1.378 . S
C2638 C2637 1.348 . S
C2639 C2635 1.415 . S
C2639 C2637 1.413 . S
C2639 C2669 1.437 . S
H2640 C2669 0.929 . S
N2641 Gd2614 2.570 . S
N2641 C2642 1.359 . S
N2641 C2645 1.343 . S
C2642 C2635 1.422 . S
C2642 N2641 1.359 . S
C2642 C2644 1.421 . S
C2643 C2644 1.422 . S
C2643 C2646 1.321 . S
C2643 H2670 0.931 . S
C2644 C2642 1.421 . S
C2644 C2643 1.422 . S
C2644 C2668 1.417 . S
C2645 H2622 0.931 . S
C2645 N2641 1.343 . S
C2645 C2646 1.390 . S
C2646 H2624 0.930 . S
C2646 C2643 1.321 . S
C2646 C2645 1.390 . S
O2647 Gd2615 2.386 . S
O2647 C2659 1.265 . S
O2648 Gd2614 2.353 . S
O2648 C2659 1.242 . S
O2649 Gd2614 2.468 . S
O2649 C2667 1.263 . S
O2650 Gd2614 2.427 . S
O2650 C2667 1.252 . S
O2651 Gd2615 2.307 . S
O2651 C2660 1.261 . S
O2652 Gd2614 2.388 . S
O2652 C2660 1.252 . S
O2653 Gd2614 2.386 . S
O2653 C2671 1.265 . S
O2654 Gd2615 2.353 . S
O2654 C2671 1.242 . S
O2655 Gd2615 2.468 . S
O2655 C2679 1.263 . S
O2656 Gd2615 2.427 . S
O2656 C2679 1.252 . S
O2657 Gd2614 2.307 . S
O2657 C2672 1.261 . S
O2658 Gd2615 2.388 . S
O2658 C2672 1.252 . S
C2659 O2647 1.265 . S
C2659 O2648 1.242 . S
C2660 O2651 1.261 . S
C2660 O2652 1.252 . S
C2661 C2664 1.394 . S
C2661 C2666 1.370 . S
C2661 C2667 1.500 . S
C2662 C2665 1.383 . S
C2662 C2666 1.395 . S
C2663 C2664 1.396 . S
C2663 C2665 1.365 . S
C2663 H2680 0.929 . S
C2664 C2661 1.394 . S
C2664 C2663 1.396 . S
C2664 H2681 0.930 . S
C2665 C2662 1.383 . S
C2665 C2663 1.365 . S
C2665 H2682 0.931 . S
C2666 C2661 1.370 . S
C2666 C2662 1.395 . S
C2666 H2683 0.930 . S
C2667 Gd2614 2.805 . S
C2667 O2649 1.263 . S
C2667 O2650 1.252 . S
C2667 C2661 1.500 . S
C2668 H2630 0.930 . S
C2668 C2644 1.417 . S
C2668 C2669 1.329 . S
C2669 C2639 1.437 . S
C2669 H2640 0.929 . S
C2669 C2668 1.329 . S
H2670 C2643 0.931 . S
C2671 O2653 1.265 . S
C2671 O2654 1.242 . S
C2672 O2657 1.261 . S
C2672 O2658 1.252 . S
C2673 C2676 1.394 . S
C2673 C2678 1.370 . S
C2673 C2679 1.500 . S
C2674 C2677 1.383 . S
C2674 C2678 1.395 . S
C2675 C2676 1.396 . S
C2675 C2677 1.365 . S
C2675 H2684 0.929 . S
C2676 C2673 1.394 . S
C2676 C2675 1.396 . S
C2676 H2685 0.930 . S
C2677 C2674 1.383 . S
C2677 C2675 1.365 . S
C2677 H2686 0.931 . S
C2678 C2673 1.370 . S
C2678 C2674 1.395 . S
C2678 H2687 0.930 . S
C2679 Gd2615 2.805 . S
C2679 O2655 1.263 . S
C2679 O2656 1.252 . S
C2679 C2673 1.500 . S
H2680 C2663 0.929 . S
H2681 C2664 0.930 . S
H2682 C2665 0.931 . S
H2683 C2666 0.930 . S
H2684 C2675 0.929 . S
H2685 C2676 0.930 . S
H2686 C2677 0.931 . S
H2687 C2678 0.930 . S
H2688 C2694 0.930 . S
H2689 C2698 0.930 . S
H2690 C2703 0.929 . S
H2691 C2701 0.929 . S
H2692 C2696 0.929 . S
H2693 C2702 0.929 . S
C2694 H2688 0.930 . S
C2694 C2695 1.367 . S
C2694 C2702 1.378 . S
C2695 C2694 1.367 . S
C2695 C2703 1.433 . S
C2696 H2692 0.929 . S
C2696 C2698 1.378 . S
C2696 C2700 1.350 . S
C2697 C2700 1.463 . S
C2697 C2702 1.350 . S
C2697 N2705 1.427 . S
C2698 H2689 0.930 . S
C2698 C2696 1.378 . S
C2698 C2699 1.367 . S
C2699 C2698 1.367 . S
C2699 C2701 1.433 . S
C2700 C2696 1.350 . S
C2700 C2697 1.463 . S
C2700 N2704 1.427 . S
C2701 H2691 0.929 . S
C2701 C2699 1.433 . S
C2701 N2704 1.384 . S
C2702 H2693 0.929 . S
C2702 C2694 1.378 . S
C2702 C2697 1.350 . S
C2703 H2690 0.929 . S
C2703 C2695 1.433 . S
C2703 N2705 1.384 . S
N2704 C2700 1.427 . S
N2704 C2701 1.384 . S
N2705 C2697 1.427 . S
N2705 C2703 1.384 . S
H2706 C2712 0.930 . S
H2707 C2716 0.930 . S
H2708 C2721 0.929 . S
H2709 C2719 0.929 . S
H2710 C2714 0.929 . S
H2711 C2720 0.929 . S
C2712 H2706 0.930 . S
C2712 C2713 1.367 . S
C2712 C2720 1.378 . S
C2713 C2712 1.367 . S
C2713 C2721 1.433 . S
C2714 H2710 0.929 . S
C2714 C2716 1.378 . S
C2714 C2718 1.350 . S
C2715 C2718 1.463 . S
C2715 C2720 1.350 . S
C2715 N2723 1.427 . S
C2716 H2707 0.930 . S
C2716 C2714 1.378 . S
C2716 C2717 1.367 . S
C2717 C2716 1.367 . S
C2717 C2719 1.433 . S
C2718 C2714 1.350 . S
C2718 C2715 1.463 . S
C2718 N2722 1.427 . S
C2719 H2709 0.929 . S
C2719 C2717 1.433 . S
C2719 N2722 1.384 . S
C2720 H2711 0.929 . S
C2720 C2712 1.378 . S
C2720 C2715 1.350 . S
C2721 H2708 0.929 . S
C2721 C2713 1.433 . S
C2721 N2723 1.384 . S
N2722 C2718 1.427 . S
N2722 C2719 1.384 . S
N2723 C2715 1.427 . S
N2723 C2721 1.384 . S
H2724 C2730 0.930 . S
H2725 C2734 0.930 . S
H2726 C2739 0.929 . S
H2727 C2737 0.929 . S
H2728 C2732 0.929 . S
H2729 C2738 0.929 . S
C2730 H2724 0.930 . S
C2730 C2731 1.367 . S
C2730 C2738 1.378 . S
C2731 C2730 1.367 . S
C2731 C2739 1.433 . S
C2732 H2728 0.929 . S
C2732 C2734 1.378 . S
C2732 C2736 1.350 . S
C2733 C2736 1.463 . S
C2733 C2738 1.350 . S
C2733 N2741 1.427 . S
C2734 H2725 0.930 . S
C2734 C2732 1.378 . S
C2734 C2735 1.367 . S
C2735 C2734 1.367 . S
C2735 C2737 1.433 . S
C2736 C2732 1.350 . S
C2736 C2733 1.463 . S
C2736 N2740 1.427 . S
C2737 H2727 0.929 . S
C2737 C2735 1.433 . S
C2737 N2740 1.384 . S
C2738 H2729 0.929 . S
C2738 C2730 1.378 . S
C2738 C2733 1.350 . S
C2739 H2726 0.929 . S
C2739 C2731 1.433 . S
C2739 N2741 1.384 . S
N2740 C2736 1.427 . S
N2740 C2737 1.384 . S
N2741 C2733 1.427 . S
N2741 C2739 1.384 . S
H2742 C2748 0.930 . S
H2743 C2752 0.930 . S
H2744 C2757 0.929 . S
H2745 C2755 0.929 . S
H2746 C2750 0.929 . S
H2747 C2756 0.929 . S
C2748 H2742 0.930 . S
C2748 C2749 1.367 . S
C2748 C2756 1.378 . S
C2749 C2748 1.367 . S
C2749 C2757 1.433 . S
C2750 H2746 0.929 . S
C2750 C2752 1.378 . S
C2750 C2754 1.350 . S
C2751 C2754 1.463 . S
C2751 C2756 1.350 . S
C2751 N2759 1.427 . S
C2752 H2743 0.930 . S
C2752 C2750 1.378 . S
C2752 C2753 1.367 . S
C2753 C2752 1.367 . S
C2753 C2755 1.433 . S
C2754 C2750 1.350 . S
C2754 C2751 1.463 . S
C2754 N2758 1.427 . S
C2755 H2745 0.929 . S
C2755 C2753 1.433 . S
C2755 N2758 1.384 . S
C2756 H2747 0.929 . S
C2756 C2748 1.378 . S
C2756 C2751 1.350 . S
C2757 H2744 0.929 . S
C2757 C2749 1.433 . S
C2757 N2759 1.384 . S
N2758 C2754 1.427 . S
N2758 C2755 1.384 . S
N2759 C2751 1.427 . S
N2759 C2757 1.384 . S
H2760 C2766 0.930 . S
H2761 C2770 0.930 . S
H2762 C2775 0.929 . S
H2763 C2773 0.929 . S
H2764 C2768 0.929 . S
H2765 C2774 0.929 . S
C2766 H2760 0.930 . S
C2766 C2767 1.367 . S
C2766 C2774 1.378 . S
C2767 C2766 1.367 . S
C2767 C2775 1.433 . S
C2768 H2764 0.929 . S
C2768 C2770 1.378 . S
C2768 C2772 1.350 . S
C2769 C2772 1.463 . S
C2769 C2774 1.350 . S
C2769 N2777 1.427 . S
C2770 H2761 0.930 . S
C2770 C2768 1.378 . S
C2770 C2771 1.367 . S
C2771 C2770 1.367 . S
C2771 C2773 1.433 . S
C2772 C2768 1.350 . S
C2772 C2769 1.463 . S
C2772 N2776 1.427 . S
C2773 H2763 0.929 . S
C2773 C2771 1.433 . S
C2773 N2776 1.384 . S
C2774 H2765 0.929 . S
C2774 C2766 1.378 . S
C2774 C2769 1.350 . S
C2775 H2762 0.929 . S
C2775 C2767 1.433 . S
C2775 N2777 1.384 . S
N2776 C2772 1.427 . S
N2776 C2773 1.384 . S
N2777 C2769 1.427 . S
N2777 C2775 1.384 . S
H2778 C2784 0.930 . S
H2779 C2788 0.930 . S
H2780 C2793 0.929 . S
H2781 C2791 0.929 . S
H2782 C2786 0.929 . S
H2783 C2792 0.929 . S
C2784 H2778 0.930 . S
C2784 C2785 1.367 . S
C2784 C2792 1.378 . S
C2785 C2784 1.367 . S
C2785 C2793 1.433 . S
C2786 H2782 0.929 . S
C2786 C2788 1.378 . S
C2786 C2790 1.350 . S
C2787 C2790 1.463 . S
C2787 C2792 1.350 . S
C2787 N2795 1.427 . S
C2788 H2779 0.930 . S
C2788 C2786 1.378 . S
C2788 C2789 1.367 . S
C2789 C2788 1.367 . S
C2789 C2791 1.433 . S
C2790 C2786 1.350 . S
C2790 C2787 1.463 . S
C2790 N2794 1.427 . S
C2791 H2781 0.929 . S
C2791 C2789 1.433 . S
C2791 N2794 1.384 . S
C2792 H2783 0.929 . S
C2792 C2784 1.378 . S
C2792 C2787 1.350 . S
C2793 H2780 0.929 . S
C2793 C2785 1.433 . S
C2793 N2795 1.384 . S
N2794 C2790 1.427 . S
N2794 C2791 1.384 . S
N2795 C2787 1.427 . S
N2795 C2793 1.384 . S
H2796 C2802 0.930 . S
H2797 C2806 0.930 . S
H2798 C2811 0.929 . S
H2799 C2809 0.929 . S
H2800 C2804 0.929 . S
H2801 C2810 0.929 . S
C2802 H2796 0.930 . S
C2802 C2803 1.367 . S
C2802 C2810 1.378 . S
C2803 C2802 1.367 . S
C2803 C2811 1.433 . S
C2804 H2800 0.929 . S
C2804 C2806 1.378 . S
C2804 C2808 1.350 . S
C2805 C2808 1.463 . S
C2805 C2810 1.350 . S
C2805 N2813 1.427 . S
C2806 H2797 0.930 . S
C2806 C2804 1.378 . S
C2806 C2807 1.367 . S
C2807 C2806 1.367 . S
C2807 C2809 1.433 . S
C2808 C2804 1.350 . S
C2808 C2805 1.463 . S
C2808 N2812 1.427 . S
C2809 H2799 0.929 . S
C2809 C2807 1.433 . S
C2809 N2812 1.384 . S
C2810 H2801 0.929 . S
C2810 C2802 1.378 . S
C2810 C2805 1.350 . S
C2811 H2798 0.929 . S
C2811 C2803 1.433 . S
C2811 N2813 1.384 . S
N2812 C2808 1.427 . S
N2812 C2809 1.384 . S
N2813 C2805 1.427 . S
N2813 C2811 1.384 . S
H2814 C2820 0.930 . S
H2815 C2824 0.930 . S
H2816 C2829 0.929 . S
H2817 C2827 0.929 . S
H2818 C2822 0.929 . S
H2819 C2828 0.929 . S
C2820 H2814 0.930 . S
C2820 C2821 1.367 . S
C2820 C2828 1.378 . S
C2821 C2820 1.367 . S
C2821 C2829 1.433 . S
C2822 H2818 0.929 . S
C2822 C2824 1.378 . S
C2822 C2826 1.350 . S
C2823 C2826 1.463 . S
C2823 C2828 1.350 . S
C2823 N2831 1.427 . S
C2824 H2815 0.930 . S
C2824 C2822 1.378 . S
C2824 C2825 1.367 . S
C2825 C2824 1.367 . S
C2825 C2827 1.433 . S
C2826 C2822 1.350 . S
C2826 C2823 1.463 . S
C2826 N2830 1.427 . S
C2827 H2817 0.929 . S
C2827 C2825 1.433 . S
C2827 N2830 1.384 . S
C2828 H2819 0.929 . S
C2828 C2820 1.378 . S
C2828 C2823 1.350 . S
C2829 H2816 0.929 . S
C2829 C2821 1.433 . S
C2829 N2831 1.384 . S
N2830 C2826 1.427 . S
N2830 C2827 1.384 . S
N2831 C2823 1.427 . S
N2831 C2829 1.384 . S
H2832 C2838 0.930 . S
H2833 C2842 0.930 . S
H2834 C2847 0.929 . S
H2835 C2845 0.929 . S
H2836 C2840 0.929 . S
H2837 C2846 0.929 . S
C2838 H2832 0.930 . S
C2838 C2839 1.367 . S
C2838 C2846 1.378 . S
C2839 C2838 1.367 . S
C2839 C2847 1.433 . S
C2840 H2836 0.929 . S
C2840 C2842 1.378 . S
C2840 C2844 1.350 . S
C2841 C2844 1.463 . S
C2841 C2846 1.350 . S
C2841 N2849 1.427 . S
C2842 H2833 0.930 . S
C2842 C2840 1.378 . S
C2842 C2843 1.367 . S
C2843 C2842 1.367 . S
C2843 C2845 1.433 . S
C2844 C2840 1.350 . S
C2844 C2841 1.463 . S
C2844 N2848 1.427 . S
C2845 H2835 0.929 . S
C2845 C2843 1.433 . S
C2845 N2848 1.384 . S
C2846 H2837 0.929 . S
C2846 C2838 1.378 . S
C2846 C2841 1.350 . S
C2847 H2834 0.929 . S
C2847 C2839 1.433 . S
C2847 N2849 1.384 . S
N2848 C2844 1.427 . S
N2848 C2845 1.384 . S
N2849 C2841 1.427 . S
N2849 C2847 1.384 . S
H2850 C2856 0.930 . S
H2851 C2860 0.930 . S
H2852 C2865 0.929 . S
H2853 C2863 0.929 . S
H2854 C2858 0.929 . S
H2855 C2864 0.929 . S
C2856 H2850 0.930 . S
C2856 C2857 1.367 . S
C2856 C2864 1.378 . S
C2857 C2856 1.367 . S
C2857 C2865 1.433 . S
C2858 H2854 0.929 . S
C2858 C2860 1.378 . S
C2858 C2862 1.350 . S
C2859 C2862 1.463 . S
C2859 C2864 1.350 . S
C2859 N2867 1.427 . S
C2860 H2851 0.930 . S
C2860 C2858 1.378 . S
C2860 C2861 1.367 . S
C2861 C2860 1.367 . S
C2861 C2863 1.433 . S
C2862 C2858 1.350 . S
C2862 C2859 1.463 . S
C2862 N2866 1.427 . S
C2863 H2853 0.929 . S
C2863 C2861 1.433 . S
C2863 N2866 1.384 . S
C2864 H2855 0.929 . S
C2864 C2856 1.378 . S
C2864 C2859 1.350 . S
C2865 H2852 0.929 . S
C2865 C2857 1.433 . S
C2865 N2867 1.384 . S
N2866 C2862 1.427 . S
N2866 C2863 1.384 . S
N2867 C2859 1.427 . S
N2867 C2865 1.384 . S
H2868 C2874 0.930 . S
H2869 C2878 0.930 . S
H2870 C2883 0.929 . S
H2871 C2881 0.929 . S
H2872 C2876 0.929 . S
H2873 C2882 0.929 . S
C2874 H2868 0.930 . S
C2874 C2875 1.367 . S
C2874 C2882 1.378 . S
C2875 C2874 1.367 . S
C2875 C2883 1.433 . S
C2876 H2872 0.929 . S
C2876 C2878 1.378 . S
C2876 C2880 1.350 . S
C2877 C2880 1.463 . S
C2877 C2882 1.350 . S
C2877 N2885 1.427 . S
C2878 H2869 0.930 . S
C2878 C2876 1.378 . S
C2878 C2879 1.367 . S
C2879 C2878 1.367 . S
C2879 C2881 1.433 . S
C2880 C2876 1.350 . S
C2880 C2877 1.463 . S
C2880 N2884 1.427 . S
C2881 H2871 0.929 . S
C2881 C2879 1.433 . S
C2881 N2884 1.384 . S
C2882 H2873 0.929 . S
C2882 C2874 1.378 . S
C2882 C2877 1.350 . S
C2883 H2870 0.929 . S
C2883 C2875 1.433 . S
C2883 N2885 1.384 . S
N2884 C2880 1.427 . S
N2884 C2881 1.384 . S
N2885 C2877 1.427 . S
N2885 C2883 1.384 . S
H2886 C2892 0.930 . S
H2887 C2896 0.930 . S
H2888 C2901 0.929 . S
H2889 C2899 0.929 . S
H2890 C2894 0.929 . S
H2891 C2900 0.929 . S
C2892 H2886 0.930 . S
C2892 C2893 1.367 . S
C2892 C2900 1.378 . S
C2893 C2892 1.367 . S
C2893 C2901 1.433 . S
C2894 H2890 0.929 . S
C2894 C2896 1.378 . S
C2894 C2898 1.350 . S
C2895 C2898 1.463 . S
C2895 C2900 1.350 . S
C2895 N2903 1.427 . S
C2896 H2887 0.930 . S
C2896 C2894 1.378 . S
C2896 C2897 1.367 . S
C2897 C2896 1.367 . S
C2897 C2899 1.433 . S
C2898 C2894 1.350 . S
C2898 C2895 1.463 . S
C2898 N2902 1.427 . S
C2899 H2889 0.929 . S
C2899 C2897 1.433 . S
C2899 N2902 1.384 . S
C2900 H2891 0.929 . S
C2900 C2892 1.378 . S
C2900 C2895 1.350 . S
C2901 H2888 0.929 . S
C2901 C2893 1.433 . S
C2901 N2903 1.384 . S
N2902 C2898 1.427 . S
N2902 C2899 1.384 . S
N2903 C2895 1.427 . S
N2903 C2901 1.384 . S
H2904 C2910 0.930 . S
H2905 C2914 0.930 . S
H2906 C2919 0.929 . S
H2907 C2917 0.929 . S
H2908 C2912 0.929 . S
H2909 C2918 0.929 . S
C2910 H2904 0.930 . S
C2910 C2911 1.367 . S
C2910 C2918 1.378 . S
C2911 C2910 1.367 . S
C2911 C2919 1.433 . S
C2912 H2908 0.929 . S
C2912 C2914 1.378 . S
C2912 C2916 1.350 . S
C2913 C2916 1.463 . S
C2913 C2918 1.350 . S
C2913 N2921 1.427 . S
C2914 H2905 0.930 . S
C2914 C2912 1.378 . S
C2914 C2915 1.367 . S
C2915 C2914 1.367 . S
C2915 C2917 1.433 . S
C2916 C2912 1.350 . S
C2916 C2913 1.463 . S
C2916 N2920 1.427 . S
C2917 H2907 0.929 . S
C2917 C2915 1.433 . S
C2917 N2920 1.384 . S
C2918 H2909 0.929 . S
C2918 C2910 1.378 . S
C2918 C2913 1.350 . S
C2919 H2906 0.929 . S
C2919 C2911 1.433 . S
C2919 N2921 1.384 . S
N2920 C2916 1.427 . S
N2920 C2917 1.384 . S
N2921 C2913 1.427 . S
N2921 C2919 1.384 . S
H2922 C2928 0.930 . S
H2923 C2932 0.930 . S
H2924 C2937 0.929 . S
H2925 C2935 0.929 . S
H2926 C2930 0.929 . S
H2927 C2936 0.929 . S
C2928 H2922 0.930 . S
C2928 C2929 1.367 . S
C2928 C2936 1.378 . S
C2929 C2928 1.367 . S
C2929 C2937 1.433 . S
C2930 H2926 0.929 . S
C2930 C2932 1.378 . S
C2930 C2934 1.350 . S
C2931 C2934 1.463 . S
C2931 C2936 1.350 . S
C2931 N2939 1.427 . S
C2932 H2923 0.930 . S
C2932 C2930 1.378 . S
C2932 C2933 1.367 . S
C2933 C2932 1.367 . S
C2933 C2935 1.433 . S
C2934 C2930 1.350 . S
C2934 C2931 1.463 . S
C2934 N2938 1.427 . S
C2935 H2925 0.929 . S
C2935 C2933 1.433 . S
C2935 N2938 1.384 . S
C2936 H2927 0.929 . S
C2936 C2928 1.378 . S
C2936 C2931 1.350 . S
C2937 H2924 0.929 . S
C2937 C2929 1.433 . S
C2937 N2939 1.384 . S
N2938 C2934 1.427 . S
N2938 C2935 1.384 . S
N2939 C2931 1.427 . S
N2939 C2937 1.384 . S
H2940 C2946 0.930 . S
H2941 C2950 0.930 . S
H2942 C2955 0.929 . S
H2943 C2953 0.929 . S
H2944 C2948 0.929 . S
H2945 C2954 0.929 . S
C2946 H2940 0.930 . S
C2946 C2947 1.367 . S
C2946 C2954 1.378 . S
C2947 C2946 1.367 . S
C2947 C2955 1.433 . S
C2948 H2944 0.929 . S
C2948 C2950 1.378 . S
C2948 C2952 1.350 . S
C2949 C2952 1.463 . S
C2949 C2954 1.350 . S
C2949 N2957 1.427 . S
C2950 H2941 0.930 . S
C2950 C2948 1.378 . S
C2950 C2951 1.367 . S
C2951 C2950 1.367 . S
C2951 C2953 1.433 . S
C2952 C2948 1.350 . S
C2952 C2949 1.463 . S
C2952 N2956 1.427 . S
C2953 H2943 0.929 . S
C2953 C2951 1.433 . S
C2953 N2956 1.384 . S
C2954 H2945 0.929 . S
C2954 C2946 1.378 . S
C2954 C2949 1.350 . S
C2955 H2942 0.929 . S
C2955 C2947 1.433 . S
C2955 N2957 1.384 . S
N2956 C2952 1.427 . S
N2956 C2953 1.384 . S
N2957 C2949 1.427 . S
N2957 C2955 1.384 . S
H2958 C2964 0.930 . S
H2959 C2968 0.930 . S
H2960 C2973 0.929 . S
H2961 C2971 0.929 . S
H2962 C2966 0.929 . S
H2963 C2972 0.929 . S
C2964 H2958 0.930 . S
C2964 C2965 1.367 . S
C2964 C2972 1.378 . S
C2965 C2964 1.367 . S
C2965 C2973 1.433 . S
C2966 H2962 0.929 . S
C2966 C2968 1.378 . S
C2966 C2970 1.350 . S
C2967 C2970 1.463 . S
C2967 C2972 1.350 . S
C2967 N2975 1.427 . S
C2968 H2959 0.930 . S
C2968 C2966 1.378 . S
C2968 C2969 1.367 . S
C2969 C2968 1.367 . S
C2969 C2971 1.433 . S
C2970 C2966 1.350 . S
C2970 C2967 1.463 . S
C2970 N2974 1.427 . S
C2971 H2961 0.929 . S
C2971 C2969 1.433 . S
C2971 N2974 1.384 . S
C2972 H2963 0.929 . S
C2972 C2964 1.378 . S
C2972 C2967 1.350 . S
C2973 H2960 0.929 . S
C2973 C2965 1.433 . S
C2973 N2975 1.384 . S
N2974 C2970 1.427 . S
N2974 C2971 1.384 . S
N2975 C2967 1.427 . S
N2975 C2973 1.384 . S
H2976 C2982 0.930 . S
H2977 C2986 0.930 . S
H2978 C2991 0.929 . S
H2979 C2989 0.929 . S
H2980 C2984 0.929 . S
H2981 C2990 0.948 . S
C2982 H2976 0.930 . S
C2982 C2983 1.367 . S
C2982 C2990 1.367 1_545 S
C2983 C2982 1.367 . S
C2983 C2991 1.433 . S
C2984 H2980 0.929 . S
C2984 C2986 1.378 1_545 S
C2984 C2988 1.350 1_545 S
C2985 C2988 1.463 1_545 S
C2985 C2990 1.343 1_545 S
C2985 N2993 1.427 . S
C2986 H2977 0.930 . S
C2986 C2984 1.378 1_565 S
C2986 C2987 1.367 . S
C2987 C2986 1.367 . S
C2987 C2989 1.433 . S
C2988 C2984 1.350 1_565 S
C2988 C2985 1.463 1_565 S
C2988 N2992 1.427 . S
C2989 H2979 0.929 . S
C2989 C2987 1.433 . S
C2989 N2992 1.384 . S
C2990 H2981 0.948 . S
C2990 C2982 1.367 1_565 S
C2990 C2985 1.343 1_565 S
C2991 H2978 0.929 . S
C2991 C2983 1.433 . S
C2991 N2993 1.384 . S
N2992 C2988 1.427 . S
N2992 C2989 1.384 . S
N2993 C2985 1.427 . S
N2993 C2991 1.384 . S
H2994 C3000 0.930 . S
H2995 C3004 0.930 . S
H2996 C3009 0.929 . S
H2997 C3007 0.929 . S
H2998 C3002 0.929 . S
H2999 C3008 0.929 . S
C3000 H2994 0.930 . S
C3000 C3001 1.367 . S
C3000 C3008 1.378 . S
C3001 C3000 1.367 . S
C3001 C3009 1.433 1_655 S
C3002 H2998 0.929 . S
C3002 C3004 1.378 . S
C3002 C3006 1.350 . S
C3003 C3006 1.463 1_655 S
C3003 C3008 1.350 . S
C3003 N3011 1.427 1_655 S
C3004 H2995 0.930 . S
C3004 C3002 1.378 . S
C3004 C3005 1.367 . S
C3005 C3004 1.367 . S
C3005 C3007 1.433 1_455 S
C3006 C3002 1.350 . S
C3006 C3003 1.463 1_455 S
C3006 N3010 1.427 1_455 S
C3007 H2997 0.929 . S
C3007 C3005 1.433 1_655 S
C3007 N3010 1.384 . S
C3008 H2999 0.929 . S
C3008 C3000 1.378 . S
C3008 C3003 1.350 . S
C3009 H2996 0.929 . S
C3009 C3001 1.433 1_455 S
C3009 N3011 1.384 . S
N3010 C3006 1.427 1_655 S
N3010 C3007 1.384 . S
N3011 C3003 1.427 1_455 S
N3011 C3009 1.384 . S
H3012 C3018 0.930 . S
H3013 C3022 0.930 . S
H3014 C3027 0.929 . S
H3015 C3025 0.929 . S
H3016 C3020 0.929 . S
H3017 C3026 0.929 . S
C3018 H3012 0.930 . S
C3018 C3019 1.367 . S
C3018 C3026 1.378 . S
C3019 C3018 1.367 . S
C3019 C3027 1.433 . S
C3020 H3016 0.929 . S
C3020 C3022 1.378 . S
C3020 C3024 1.350 . S
C3021 C3024 1.463 1_556 S
C3021 C3026 1.350 . S
C3021 N3029 1.427 . S
C3022 H3013 0.930 . S
C3022 C3020 1.378 . S
C3022 C3023 1.367 . S
C3023 C3022 1.367 . S
C3023 C3025 1.433 . S
C3024 C3020 1.350 . S
C3024 C3021 1.463 1_554 S
C3024 N3028 1.427 . S
C3025 H3015 0.929 . S
C3025 C3023 1.433 . S
C3025 N3028 1.384 . S
C3026 H3017 0.929 . S
C3026 C3018 1.378 . S
C3026 C3021 1.350 . S
C3027 H3014 0.929 . S
C3027 C3019 1.433 . S
C3027 N3029 1.384 . S
N3028 C3024 1.427 . S
N3028 C3025 1.384 . S
N3029 C3021 1.427 . S
N3029 C3027 1.384 . S
H3030 C3036 0.930 . S
H3031 C3040 0.930 . S
H3032 C3045 0.929 . S
H3033 C3043 0.929 . S
H3034 C3038 0.929 . S
H3035 C3044 0.929 . S
C3036 H3030 0.930 . S
C3036 C3037 1.367 . S
C3036 C3044 1.378 . S
C3037 C3036 1.367 . S
C3037 C3045 1.433 1_455 S
C3038 H3034 0.929 . S
C3038 C3040 1.378 . S
C3038 C3042 1.350 . S
C3039 C3042 1.463 1_444 S
C3039 C3044 1.350 . S
C3039 N3047 1.427 1_455 S
C3040 H3031 0.930 . S
C3040 C3038 1.378 . S
C3040 C3041 1.367 . S
C3041 C3040 1.367 . S
C3041 C3043 1.433 1_655 S
C3042 C3038 1.350 . S
C3042 C3039 1.463 1_666 S
C3042 N3046 1.427 1_655 S
C3043 H3033 0.929 . S
C3043 C3041 1.433 1_455 S
C3043 N3046 1.384 . S
C3044 H3035 0.929 . S
C3044 C3036 1.378 . S
C3044 C3039 1.350 . S
C3045 H3032 0.929 . S
C3045 C3037 1.433 1_655 S
C3045 N3047 1.384 . S
N3046 C3042 1.427 1_455 S
N3046 C3043 1.384 . S
N3047 C3039 1.427 1_655 S
N3047 C3045 1.384 . S
H3048 C3054 0.930 . S
H3049 C3058 0.930 . S
H3050 C3063 0.929 . S
H3051 C3061 0.929 . S
H3052 C3056 0.929 1_565 S
H3053 C3062 0.929 1_545 S
C3054 H3048 0.930 . S
C3054 C3055 1.367 . S
C3054 C3062 1.378 . S
C3055 C3054 1.367 . S
C3055 C3063 1.433 . S
C3056 H3052 0.929 1_545 S
C3056 C3058 1.378 . S
C3056 C3060 1.350 . S
C3057 C3060 1.463 1_565 S
C3057 C3062 1.350 . S
C3057 N3065 1.427 . S
C3058 H3049 0.930 . S
C3058 C3056 1.378 . S
C3058 C3059 1.367 . S
C3059 C3058 1.367 . S
C3059 C3061 1.433 . S
C3060 C3056 1.350 . S
C3060 C3057 1.463 1_545 S
C3060 N3064 1.427 . S
C3061 H3051 0.929 . S
C3061 C3059 1.433 . S
C3061 N3064 1.384 . S
C3062 H3053 0.929 1_565 S
C3062 C3054 1.378 . S
C3062 C3057 1.350 . S
C3063 H3050 0.929 . S
C3063 C3055 1.433 . S
C3063 N3065 1.384 . S
N3064 C3060 1.427 . S
N3064 C3061 1.384 . S
N3065 C3057 1.427 . S
N3065 C3063 1.384 . S
H3066 C3072 0.930 . S
H3067 C3076 0.930 . S
H3068 C3081 0.929 . S
H3069 C3079 0.929 . S
H3070 C3074 0.929 . S
H3071 C3080 0.929 . S
C3072 H3066 0.930 . S
C3072 C3073 1.367 1_455 S
C3072 C3080 1.378 . S
C3073 C3072 1.367 1_655 S
C3073 C3081 1.433 . S
C3074 H3070 0.929 . S
C3074 C3076 1.378 . S
C3074 C3078 1.350 1_655 S
C3075 C3078 1.463 1_655 S
C3075 C3080 1.350 1_655 S
C3075 N3083 1.427 . S
C3076 H3067 0.930 . S
C3076 C3074 1.378 . S
C3076 C3077 1.367 1_655 S
C3077 C3076 1.367 1_455 S
C3077 C3079 1.433 . S
C3078 C3074 1.350 1_455 S
C3078 C3075 1.463 1_455 S
C3078 N3082 1.427 . S
C3079 H3069 0.929 . S
C3079 C3077 1.433 . S
C3079 N3082 1.384 . S
C3080 H3071 0.929 . S
C3080 C3072 1.378 . S
C3080 C3075 1.350 1_455 S
C3081 H3068 0.929 . S
C3081 C3073 1.433 . S
C3081 N3083 1.384 . S
N3082 C3078 1.427 . S
N3082 C3079 1.384 . S
N3083 C3075 1.427 . S
N3083 C3081 1.384 . S
H3084 C3090 0.930 . S
H3085 C3094 0.930 . S
H3086 C3099 0.929 . S
H3087 C3097 0.929 . S
H3088 C3092 0.929 . S
H3089 C3098 0.929 . S
C3090 H3084 0.930 . S
C3090 C3091 1.367 . S
C3090 C3098 1.378 . S
C3091 C3090 1.367 . S
C3091 C3099 1.433 . S
C3092 H3088 0.929 . S
C3092 C3094 1.378 . S
C3092 C3096 1.350 . S
C3093 C3096 1.463 1_556 S
C3093 C3098 1.350 . S
C3093 N3101 1.427 . S
C3094 H3085 0.930 . S
C3094 C3092 1.378 . S
C3094 C3095 1.367 . S
C3095 C3094 1.367 . S
C3095 C3097 1.433 . S
C3096 C3092 1.350 . S
C3096 C3093 1.463 1_554 S
C3096 N3100 1.427 . S
C3097 H3087 0.929 . S
C3097 C3095 1.433 . S
C3097 N3100 1.384 . S
C3098 H3089 0.929 . S
C3098 C3090 1.378 . S
C3098 C3093 1.350 . S
C3099 H3086 0.929 . S
C3099 C3091 1.433 . S
C3099 N3101 1.384 . S
N3100 C3096 1.427 . S
N3100 C3097 1.384 . S
N3101 C3093 1.427 . S
N3101 C3099 1.384 . S
H3102 C3108 0.930 . S
H3103 C3112 0.930 . S
H3104 C3117 0.929 . S
H3105 C3115 0.929 . S
H3106 C3110 0.929 . S
H3107 C3116 0.929 . S
C3108 H3102 0.930 . S
C3108 C3109 1.367 . S
C3108 C3116 1.378 . S
C3109 C3108 1.367 . S
C3109 C3117 1.433 . S
C3110 H3106 0.929 . S
C3110 C3112 1.378 . S
C3110 C3114 1.350 . S
C3111 C3114 1.463 . S
C3111 C3116 1.350 . S
C3111 N3119 1.427 . S
C3112 H3103 0.930 . S
C3112 C3110 1.378 . S
C3112 C3113 1.367 . S
C3113 C3112 1.367 . S
C3113 C3115 1.433 . S
C3114 C3110 1.350 . S
C3114 C3111 1.463 . S
C3114 N3118 1.427 . S
C3115 H3105 0.929 . S
C3115 C3113 1.433 . S
C3115 N3118 1.384 . S
C3116 H3107 0.929 . S
C3116 C3108 1.378 . S
C3116 C3111 1.350 . S
C3117 H3104 0.929 . S
C3117 C3109 1.433 . S
C3117 N3119 1.384 . S
N3118 C3114 1.427 . S
N3118 C3115 1.384 . S
N3119 C3111 1.427 . S
N3119 C3117 1.384 . S
H3120 C3126 0.930 . S
H3121 C3130 0.930 . S
H3122 C3135 0.929 . S
H3123 C3133 0.929 . S
H3124 C3128 0.929 . S
H3125 C3134 0.929 . S
C3126 H3120 0.930 . S
C3126 C3127 1.367 . S
C3126 C3134 1.378 . S
C3127 C3126 1.367 . S
C3127 C3135 1.433 . S
C3128 H3124 0.929 . S
C3128 C3130 1.378 . S
C3128 C3132 1.350 . S
C3129 C3132 1.463 . S
C3129 C3134 1.350 . S
C3129 N3137 1.427 . S
C3130 H3121 0.930 . S
C3130 C3128 1.378 . S
C3130 C3131 1.367 . S
C3131 C3130 1.367 . S
C3131 C3133 1.433 . S
C3132 C3128 1.350 . S
C3132 C3129 1.463 . S
C3132 N3136 1.427 . S
C3133 H3123 0.929 . S
C3133 C3131 1.433 . S
C3133 N3136 1.384 . S
C3134 H3125 0.929 . S
C3134 C3126 1.378 . S
C3134 C3129 1.350 . S
C3135 H3122 0.929 . S
C3135 C3127 1.433 . S
C3135 N3137 1.384 . S
N3136 C3132 1.427 . S
N3136 C3133 1.384 . S
N3137 C3129 1.427 . S
N3137 C3135 1.384 . S
H3138 C3144 0.930 . S
H3139 C3148 0.930 . S
H3140 C3153 0.929 . S
H3141 C3151 0.929 . S
H3142 C3146 0.929 . S
H3143 C3152 0.929 . S
C3144 H3138 0.930 . S
C3144 C3145 1.367 1_455 S
C3144 C3152 1.378 . S
C3145 C3144 1.367 1_655 S
C3145 C3153 1.433 . S
C3146 H3142 0.929 . S
C3146 C3148 1.378 . S
C3146 C3150 1.350 1_655 S
C3147 C3150 1.463 1_655 S
C3147 C3152 1.350 1_655 S
C3147 N3155 1.427 . S
C3148 H3139 0.930 . S
C3148 C3146 1.378 . S
C3148 C3149 1.367 1_655 S
C3149 C3148 1.367 1_455 S
C3149 C3151 1.433 . S
C3150 C3146 1.350 1_455 S
C3150 C3147 1.463 1_455 S
C3150 N3154 1.427 . S
C3151 H3141 0.929 . S
C3151 C3149 1.433 . S
C3151 N3154 1.384 . S
C3152 H3143 0.929 . S
C3152 C3144 1.378 . S
C3152 C3147 1.350 1_455 S
C3153 H3140 0.929 . S
C3153 C3145 1.433 . S
C3153 N3155 1.384 . S
N3154 C3150 1.427 . S
N3154 C3151 1.384 . S
N3155 C3147 1.427 . S
N3155 C3153 1.384 . S
H3156 C3162 0.930 . S
H3157 C3166 0.930 . S
H3158 C3171 0.929 . S
H3159 C3169 0.929 . S
H3160 C3164 0.929 . S
H3161 C3170 0.929 . S
C3162 H3156 0.930 . S
C3162 C3163 1.367 . S
C3162 C3170 1.378 . S
C3163 C3162 1.367 . S
C3163 C3171 1.433 . S
C3164 H3160 0.929 . S
C3164 C3166 1.378 . S
C3164 C3168 1.350 . S
C3165 C3168 1.463 . S
C3165 C3170 1.350 . S
C3165 N3173 1.427 . S
C3166 H3157 0.930 . S
C3166 C3164 1.378 . S
C3166 C3167 1.367 . S
C3167 C3166 1.367 . S
C3167 C3169 1.433 . S
C3168 C3164 1.350 . S
C3168 C3165 1.463 . S
C3168 N3172 1.427 . S
C3169 H3159 0.929 . S
C3169 C3167 1.433 . S
C3169 N3172 1.384 . S
C3170 H3161 0.929 . S
C3170 C3162 1.378 . S
C3170 C3165 1.350 . S
C3171 H3158 0.929 . S
C3171 C3163 1.433 . S
C3171 N3173 1.384 . S
N3172 C3168 1.427 . S
N3172 C3169 1.384 . S
N3173 C3165 1.427 . S
N3173 C3171 1.384 . S
H3174 C3180 0.930 . S
H3175 C3184 0.930 . S
H3176 C3189 0.929 . S
H3177 C3187 0.929 . S
H3178 C3182 0.929 . S
H3179 C3188 0.929 . S
C3180 H3174 0.930 . S
C3180 C3181 1.367 . S
C3180 C3188 1.378 . S
C3181 C3180 1.367 . S
C3181 C3189 1.433 . S
C3182 H3178 0.929 . S
C3182 C3184 1.378 . S
C3182 C3186 1.350 . S
C3183 C3186 1.463 . S
C3183 C3188 1.350 . S
C3183 N3191 1.427 . S
C3184 H3175 0.930 . S
C3184 C3182 1.378 . S
C3184 C3185 1.367 . S
C3185 C3184 1.367 . S
C3185 C3187 1.433 . S
C3186 C3182 1.350 . S
C3186 C3183 1.463 . S
C3186 N3190 1.427 . S
C3187 H3177 0.929 . S
C3187 C3185 1.433 . S
C3187 N3190 1.384 . S
C3188 H3179 0.929 . S
C3188 C3180 1.378 . S
C3188 C3183 1.350 . S
C3189 H3176 0.929 . S
C3189 C3181 1.433 . S
C3189 N3191 1.384 . S
N3190 C3186 1.427 . S
N3190 C3187 1.384 . S
N3191 C3183 1.427 . S
N3191 C3189 1.384 . S
H3192 C3198 0.930 . S
H3193 C3202 0.930 . S
H3194 C3207 0.929 . S
H3195 C3205 0.929 . S
H3196 C3200 0.929 . S
H3197 C3206 0.929 . S
C3198 H3192 0.930 . S
C3198 C3199 1.367 . S
C3198 C3206 1.378 . S
C3199 C3198 1.367 . S
C3199 C3207 1.433 . S
C3200 H3196 0.929 . S
C3200 C3202 1.378 . S
C3200 C3204 1.350 . S
C3201 C3204 1.463 . S
C3201 C3206 1.350 . S
C3201 N3209 1.427 . S
C3202 H3193 0.930 . S
C3202 C3200 1.378 . S
C3202 C3203 1.367 . S
C3203 C3202 1.367 . S
C3203 C3205 1.433 . S
C3204 C3200 1.350 . S
C3204 C3201 1.463 . S
C3204 N3208 1.427 . S
C3205 H3195 0.929 . S
C3205 C3203 1.433 . S
C3205 N3208 1.384 . S
C3206 H3197 0.929 . S
C3206 C3198 1.378 . S
C3206 C3201 1.350 . S
C3207 H3194 0.929 . S
C3207 C3199 1.433 . S
C3207 N3209 1.384 . S
N3208 C3204 1.427 . S
N3208 C3205 1.384 . S
N3209 C3201 1.427 . S
N3209 C3207 1.384 . S
H3210 C3216 0.930 . S
H3211 C3220 0.930 . S
H3212 C3225 0.918 1_565 S
H3213 C3223 0.922 1_545 S
H3214 C3218 0.929 . S
H3215 C3224 0.929 . S
C3216 H3210 0.930 . S
C3216 C3217 1.367 . S
C3216 C3224 1.378 . S
C3217 C3216 1.367 . S
C3217 C3225 1.454 . S
C3218 H3214 0.929 . S
C3218 C3220 1.378 . S
C3218 C3222 1.350 . S
C3219 C3222 1.463 1_545 S
C3219 C3224 1.350 . S
C3219 N3227 1.427 1_545 S
C3220 H3211 0.930 . S
C3220 C3218 1.378 . S
C3220 C3221 1.367 . S
C3221 C3220 1.367 . S
C3221 C3223 1.446 . S
C3222 C3218 1.350 . S
C3222 C3219 1.463 1_565 S
C3222 N3226 1.427 1_565 S
C3223 H3213 0.922 1_565 S
C3223 C3221 1.446 . S
C3223 N3226 1.378 1_565 S
C3224 H3215 0.929 . S
C3224 C3216 1.378 . S
C3224 C3219 1.350 . S
C3225 H3212 0.918 1_545 S
C3225 C3217 1.454 . S
C3225 N3227 1.375 1_545 S
N3226 C3222 1.427 1_545 S
N3226 C3223 1.378 1_545 S
N3227 C3219 1.427 1_565 S
N3227 C3225 1.375 1_565 S
H3228 C3234 0.930 . S
H3229 C3238 0.930 . S
H3230 C3243 0.929 . S
H3231 C3241 0.929 . S
H3232 C3236 0.929 . S
H3233 C3242 0.929 . S
C3234 H3228 0.930 . S
C3234 C3235 1.367 . S
C3234 C3242 1.378 . S
C3235 C3234 1.367 . S
C3235 C3243 1.433 . S
C3236 H3232 0.929 . S
C3236 C3238 1.378 . S
C3236 C3240 1.350 . S
C3237 C3240 1.463 . S
C3237 C3242 1.350 . S
C3237 N3245 1.427 . S
C3238 H3229 0.930 . S
C3238 C3236 1.378 . S
C3238 C3239 1.367 . S
C3239 C3238 1.367 . S
C3239 C3241 1.433 . S
C3240 C3236 1.350 . S
C3240 C3237 1.463 . S
C3240 N3244 1.427 . S
C3241 H3231 0.929 . S
C3241 C3239 1.433 . S
C3241 N3244 1.384 . S
C3242 H3233 0.929 . S
C3242 C3234 1.378 . S
C3242 C3237 1.350 . S
C3243 H3230 0.929 . S
C3243 C3235 1.433 . S
C3243 N3245 1.384 . S
N3244 C3240 1.427 . S
N3244 C3241 1.384 . S
N3245 C3237 1.427 . S
N3245 C3243 1.384 . S
H3246 C3252 0.930 . S
H3247 C3256 0.930 . S
H3248 C3261 0.929 . S
H3249 C3259 0.929 . S
H3250 C3254 0.929 . S
H3251 C3260 0.929 . S
C3252 H3246 0.930 . S
C3252 C3253 1.367 . S
C3252 C3260 1.378 . S
C3253 C3252 1.367 . S
C3253 C3261 1.433 . S
C3254 H3250 0.929 . S
C3254 C3256 1.378 . S
C3254 C3258 1.350 . S
C3255 C3258 1.463 1_554 S
C3255 C3260 1.350 . S
C3255 N3263 1.427 . S
C3256 H3247 0.930 . S
C3256 C3254 1.378 . S
C3256 C3257 1.367 . S
C3257 C3256 1.367 . S
C3257 C3259 1.433 . S
C3258 C3254 1.350 . S
C3258 C3255 1.463 1_556 S
C3258 N3262 1.427 . S
C3259 H3249 0.929 . S
C3259 C3257 1.433 . S
C3259 N3262 1.384 . S
C3260 H3251 0.929 . S
C3260 C3252 1.378 . S
C3260 C3255 1.350 . S
C3261 H3248 0.929 . S
C3261 C3253 1.433 . S
C3261 N3263 1.384 . S
N3262 C3258 1.427 . S
N3262 C3259 1.384 . S
N3263 C3255 1.427 . S
N3263 C3261 1.384 . S
H3264 C3270 0.930 . S
H3265 C3274 0.930 . S
H3266 C3279 0.929 . S
H3267 C3277 0.929 . S
H3268 C3272 0.929 . S
H3269 C3278 0.929 . S
C3270 H3264 0.930 . S
C3270 C3271 1.367 1_545 S
C3270 C3278 1.378 . S
C3271 C3270 1.367 1_565 S
C3271 C3279 1.433 . S
C3272 H3268 0.929 . S
C3272 C3274 1.378 . S
C3272 C3276 1.350 . S
C3273 C3276 1.463 . S
C3273 C3278 1.350 1_565 S
C3273 N3281 1.427 . S
C3274 H3265 0.930 . S
C3274 C3272 1.378 . S
C3274 C3275 1.367 . S
C3275 C3274 1.367 . S
C3275 C3277 1.433 1_565 S
C3276 C3272 1.350 . S
C3276 C3273 1.463 . S
C3276 N3280 1.427 1_565 S
C3277 H3267 0.929 . S
C3277 C3275 1.433 1_545 S
C3277 N3280 1.384 . S
C3278 H3269 0.929 . S
C3278 C3270 1.378 . S
C3278 C3273 1.350 1_545 S
C3279 H3266 0.929 . S
C3279 C3271 1.433 . S
C3279 N3281 1.384 . S
N3280 C3276 1.427 1_545 S
N3280 C3277 1.384 . S
N3281 C3273 1.427 . S
N3281 C3279 1.384 . S
H3282 C3288 0.930 . S
H3283 C3292 0.930 . S
H3284 C3297 0.929 . S
H3285 C3295 0.929 . S
H3286 C3290 0.929 . S
H3287 C3296 0.929 . S
C3288 H3282 0.930 . S
C3288 C3289 1.367 . S
C3288 C3296 1.378 . S
C3289 C3288 1.367 . S
C3289 C3297 1.433 . S
C3290 H3286 0.929 . S
C3290 C3292 1.378 . S
C3290 C3294 1.350 . S
C3291 C3294 1.463 . S
C3291 C3296 1.350 . S
C3291 N3299 1.427 . S
C3292 H3283 0.930 . S
C3292 C3290 1.378 . S
C3292 C3293 1.367 . S
C3293 C3292 1.367 . S
C3293 C3295 1.433 . S
C3294 C3290 1.350 . S
C3294 C3291 1.463 . S
C3294 N3298 1.427 . S
C3295 H3285 0.929 . S
C3295 C3293 1.433 . S
C3295 N3298 1.384 . S
C3296 H3287 0.929 . S
C3296 C3288 1.378 . S
C3296 C3291 1.350 . S
C3297 H3284 0.929 . S
C3297 C3289 1.433 . S
C3297 N3299 1.384 . S
N3298 C3294 1.427 . S
N3298 C3295 1.384 . S
N3299 C3291 1.427 . S
N3299 C3297 1.384 . S
H3300 C3306 0.930 . S
H3301 C3310 0.930 . S
H3302 C3315 0.929 . S
H3303 C3313 0.929 . S
H3304 C3308 0.929 . S
H3305 C3314 0.929 . S
C3306 H3300 0.930 . S
C3306 C3307 1.367 . S
C3306 C3314 1.378 . S
C3307 C3306 1.367 . S
C3307 C3315 1.433 . S
C3308 H3304 0.929 . S
C3308 C3310 1.378 . S
C3308 C3312 1.350 . S
C3309 C3312 1.463 . S
C3309 C3314 1.350 . S
C3309 N3317 1.427 . S
C3310 H3301 0.930 . S
C3310 C3308 1.378 . S
C3310 C3311 1.367 . S
C3311 C3310 1.367 . S
C3311 C3313 1.433 . S
C3312 C3308 1.350 . S
C3312 C3309 1.463 . S
C3312 N3316 1.427 . S
C3313 H3303 0.929 . S
C3313 C3311 1.433 . S
C3313 N3316 1.384 . S
C3314 H3305 0.929 . S
C3314 C3306 1.378 . S
C3314 C3309 1.350 . S
C3315 H3302 0.929 . S
C3315 C3307 1.433 . S
C3315 N3317 1.384 . S
N3316 C3312 1.427 . S
N3316 C3313 1.384 . S
N3317 C3309 1.427 . S
N3317 C3315 1.384 . S
H3318 C3324 0.930 . S
H3319 C3328 0.930 . S
H3320 C3333 0.929 . S
H3321 C3331 0.929 . S
H3322 C3326 0.929 . S
H3323 C3332 0.929 . S
C3324 H3318 0.930 . S
C3324 C3325 1.367 1_545 S
C3324 C3332 1.378 . S
C3325 C3324 1.367 1_565 S
C3325 C3333 1.433 . S
C3326 H3322 0.929 . S
C3326 C3328 1.378 . S
C3326 C3330 1.350 . S
C3327 C3330 1.463 . S
C3327 C3332 1.350 1_565 S
C3327 N3335 1.427 . S
C3328 H3319 0.930 . S
C3328 C3326 1.378 . S
C3328 C3329 1.367 . S
C3329 C3328 1.367 . S
C3329 C3331 1.433 1_565 S
C3330 C3326 1.350 . S
C3330 C3327 1.463 . S
C3330 N3334 1.427 1_565 S
C3331 H3321 0.929 . S
C3331 C3329 1.433 1_545 S
C3331 N3334 1.384 . S
C3332 H3323 0.929 . S
C3332 C3324 1.378 . S
C3332 C3327 1.350 1_545 S
C3333 H3320 0.929 . S
C3333 C3325 1.433 . S
C3333 N3335 1.384 . S
N3334 C3330 1.427 1_545 S
N3334 C3331 1.384 . S
N3335 C3327 1.427 . S
N3335 C3333 1.384 . S
H3336 C3342 0.930 . S
H3337 C3346 0.930 . S
H3338 C3351 0.929 . S
H3339 C3349 0.929 . S
H3340 C3344 0.929 . S
H3341 C3350 0.929 . S
C3342 H3336 0.930 . S
C3342 C3343 1.367 . S
C3342 C3350 1.378 . S
C3343 C3342 1.367 . S
C3343 C3351 1.433 1_545 S
C3344 H3340 0.929 . S
C3344 C3346 1.378 . S
C3344 C3348 1.350 1_565 S
C3345 C3348 1.463 . S
C3345 C3350 1.350 . S
C3345 N3353 1.427 1_545 S
C3346 H3337 0.930 . S
C3346 C3344 1.378 . S
C3346 C3347 1.367 1_565 S
C3347 C3346 1.367 1_545 S
C3347 C3349 1.433 . S
C3348 C3344 1.350 1_545 S
C3348 C3345 1.463 . S
C3348 N3352 1.427 . S
C3349 H3339 0.929 . S
C3349 C3347 1.433 . S
C3349 N3352 1.384 . S
C3350 H3341 0.929 . S
C3350 C3342 1.378 . S
C3350 C3345 1.350 . S
C3351 H3338 0.929 . S
C3351 C3343 1.433 1_565 S
C3351 N3353 1.384 . S
N3352 C3348 1.427 . S
N3352 C3349 1.384 . S
N3353 C3345 1.427 1_565 S
N3353 C3351 1.384 . S
H3354 C3360 0.930 . S
H3355 C3364 0.930 . S
H3356 C3369 0.929 . S
H3357 C3367 0.929 . S
H3358 C3362 0.929 . S
H3359 C3368 0.929 . S
C3360 H3354 0.930 . S
C3360 C3361 1.367 . S
C3360 C3368 1.378 . S
C3361 C3360 1.367 . S
C3361 C3369 1.433 . S
C3362 H3358 0.929 . S
C3362 C3364 1.378 . S
C3362 C3366 1.350 . S
C3363 C3366 1.463 . S
C3363 C3368 1.350 . S
C3363 N3371 1.427 . S
C3364 H3355 0.930 . S
C3364 C3362 1.378 . S
C3364 C3365 1.367 . S
C3365 C3364 1.367 . S
C3365 C3367 1.433 . S
C3366 C3362 1.350 . S
C3366 C3363 1.463 . S
C3366 N3370 1.427 . S
C3367 H3357 0.929 . S
C3367 C3365 1.433 . S
C3367 N3370 1.384 . S
C3368 H3359 0.929 . S
C3368 C3360 1.378 . S
C3368 C3363 1.350 . S
C3369 H3356 0.929 . S
C3369 C3361 1.433 . S
C3369 N3371 1.384 . S
N3370 C3366 1.427 . S
N3370 C3367 1.384 . S
N3371 C3363 1.427 . S
N3371 C3369 1.384 . S
H3372 C3378 0.930 . S
H3373 C3382 0.930 . S
H3374 C3387 0.929 . S
H3375 C3385 0.929 . S
H3376 C3380 0.929 . S
H3377 C3386 0.929 . S
C3378 H3372 0.930 . S
C3378 C3379 1.367 . S
C3378 C3386 1.378 . S
C3379 C3378 1.367 . S
C3379 C3387 1.433 . S
C3380 H3376 0.929 . S
C3380 C3382 1.378 . S
C3380 C3384 1.350 . S
C3381 C3384 1.463 . S
C3381 C3386 1.350 . S
C3381 N3389 1.427 . S
C3382 H3373 0.930 . S
C3382 C3380 1.378 . S
C3382 C3383 1.367 . S
C3383 C3382 1.367 . S
C3383 C3385 1.433 . S
C3384 C3380 1.350 . S
C3384 C3381 1.463 . S
C3384 N3388 1.427 . S
C3385 H3375 0.929 . S
C3385 C3383 1.433 . S
C3385 N3388 1.384 . S
C3386 H3377 0.929 . S
C3386 C3378 1.378 . S
C3386 C3381 1.350 . S
C3387 H3374 0.929 . S
C3387 C3379 1.433 . S
C3387 N3389 1.384 . S
N3388 C3384 1.427 . S
N3388 C3385 1.384 . S
N3389 C3381 1.427 . S
N3389 C3387 1.384 . S
H3390 C3396 0.918 1_565 S
H3391 C3400 0.930 . S
H3392 C3405 0.929 . S
H3393 C3403 0.913 1_565 S
H3394 C3398 0.929 . S
H3395 C3404 0.915 1_565 S
C3396 H3390 0.918 1_545 S
C3396 C3397 1.367 . S
C3396 C3404 1.378 . S
C3397 C3396 1.367 . S
C3397 C3405 1.433 . S
C3398 H3394 0.929 . S
C3398 C3400 1.378 . S
C3398 C3402 1.350 . S
C3399 C3402 1.463 . S
C3399 C3404 1.350 . S
C3399 N3407 1.427 . S
C3400 H3391 0.930 . S
C3400 C3398 1.378 . S
C3400 C3401 1.367 . S
C3401 C3400 1.367 . S
C3401 C3403 1.433 . S
C3402 C3398 1.350 . S
C3402 C3399 1.463 . S
C3402 N3406 1.427 . S
C3403 H3393 0.913 1_545 S
C3403 C3401 1.433 . S
C3403 N3406 1.384 . S
C3404 H3395 0.915 1_545 S
C3404 C3396 1.378 . S
C3404 C3399 1.350 . S
C3405 H3392 0.929 . S
C3405 C3397 1.433 . S
C3405 N3407 1.384 . S
N3406 C3402 1.427 . S
N3406 C3403 1.384 . S
N3407 C3399 1.427 . S
N3407 C3405 1.384 . S
H3408 C3414 0.930 . S
H3409 C3418 0.930 . S
H3410 C3423 0.929 . S
H3411 C3421 0.929 . S
H3412 C3416 0.929 . S
H3413 C3422 0.929 . S
C3414 H3408 0.930 . S
C3414 C3415 1.367 . S
C3414 C3422 1.378 . S
C3415 C3414 1.367 . S
C3415 C3423 1.433 . S
C3416 H3412 0.929 . S
C3416 C3418 1.378 . S
C3416 C3420 1.350 . S
C3417 C3420 1.463 . S
C3417 C3422 1.350 . S
C3417 N3425 1.427 . S
C3418 H3409 0.930 . S
C3418 C3416 1.378 . S
C3418 C3419 1.367 . S
C3419 C3418 1.367 . S
C3419 C3421 1.433 . S
C3420 C3416 1.350 . S
C3420 C3417 1.463 . S
C3420 N3424 1.427 . S
C3421 H3411 0.929 . S
C3421 C3419 1.433 . S
C3421 N3424 1.384 . S
C3422 H3413 0.929 . S
C3422 C3414 1.378 . S
C3422 C3417 1.350 . S
C3423 H3410 0.929 . S
C3423 C3415 1.433 . S
C3423 N3425 1.384 . S
N3424 C3420 1.427 . S
N3424 C3421 1.384 . S
N3425 C3417 1.427 . S
N3425 C3423 1.384 . S
H3426 C3432 0.930 . S
H3427 C3436 0.930 . S
H3428 C3441 0.929 . S
H3429 C3439 0.929 . S
H3430 C3434 0.929 . S
H3431 C3440 0.929 . S
C3432 H3426 0.930 . S
C3432 C3433 1.367 . S
C3432 C3440 1.378 . S
C3433 C3432 1.367 . S
C3433 C3441 1.433 . S
C3434 H3430 0.929 . S
C3434 C3436 1.378 . S
C3434 C3438 1.350 . S
C3435 C3438 1.463 . S
C3435 C3440 1.350 . S
C3435 N3443 1.427 . S
C3436 H3427 0.930 . S
C3436 C3434 1.378 . S
C3436 C3437 1.367 . S
C3437 C3436 1.367 . S
C3437 C3439 1.433 . S
C3438 C3434 1.350 . S
C3438 C3435 1.463 . S
C3438 N3442 1.427 . S
C3439 H3429 0.929 . S
C3439 C3437 1.433 . S
C3439 N3442 1.384 . S
C3440 H3431 0.929 . S
C3440 C3432 1.378 . S
C3440 C3435 1.350 . S
C3441 H3428 0.929 . S
C3441 C3433 1.433 . S
C3441 N3443 1.384 . S
N3442 C3438 1.427 . S
N3442 C3439 1.384 . S
N3443 C3435 1.427 . S
N3443 C3441 1.384 . S
H3444 C3450 0.930 . S
H3445 C3454 0.930 . S
H3446 C3459 0.929 . S
H3447 C3457 0.929 . S
H3448 C3452 0.929 . S
H3449 C3458 0.929 . S
C3450 H3444 0.930 . S
C3450 C3451 1.367 . S
C3450 C3458 1.378 . S
C3451 C3450 1.367 . S
C3451 C3459 1.433 . S
C3452 H3448 0.929 . S
C3452 C3454 1.378 . S
C3452 C3456 1.350 . S
C3453 C3456 1.463 . S
C3453 C3458 1.350 . S
C3453 N3461 1.427 . S
C3454 H3445 0.930 . S
C3454 C3452 1.378 . S
C3454 C3455 1.367 . S
C3455 C3454 1.367 . S
C3455 C3457 1.433 . S
C3456 C3452 1.350 . S
C3456 C3453 1.463 . S
C3456 N3460 1.427 . S
C3457 H3447 0.929 . S
C3457 C3455 1.433 . S
C3457 N3460 1.384 . S
C3458 H3449 0.929 . S
C3458 C3450 1.378 . S
C3458 C3453 1.350 . S
C3459 H3446 0.929 . S
C3459 C3451 1.433 . S
C3459 N3461 1.384 . S
N3460 C3456 1.427 . S
N3460 C3457 1.384 . S
N3461 C3453 1.427 . S
N3461 C3459 1.384 . S
H3462 C3468 0.930 . S
H3463 C3472 0.930 . S
H3464 C3477 0.929 . S
H3465 C3475 0.929 . S
H3466 C3470 0.929 . S
H3467 C3476 0.929 . S
C3468 H3462 0.930 . S
C3468 C3469 1.367 . S
C3468 C3476 1.378 . S
C3469 C3468 1.367 . S
C3469 C3477 1.433 . S
C3470 H3466 0.929 . S
C3470 C3472 1.378 . S
C3470 C3474 1.350 . S
C3471 C3474 1.463 . S
C3471 C3476 1.350 . S
C3471 N3479 1.427 . S
C3472 H3463 0.930 . S
C3472 C3470 1.378 . S
C3472 C3473 1.367 . S
C3473 C3472 1.367 . S
C3473 C3475 1.433 . S
C3474 C3470 1.350 . S
C3474 C3471 1.463 . S
C3474 N3478 1.427 . S
C3475 H3465 0.929 . S
C3475 C3473 1.433 . S
C3475 N3478 1.384 . S
C3476 H3467 0.929 . S
C3476 C3468 1.378 . S
C3476 C3471 1.350 . S
C3477 H3464 0.929 . S
C3477 C3469 1.433 . S
C3477 N3479 1.384 . S
N3478 C3474 1.427 . S
N3478 C3475 1.384 . S
N3479 C3471 1.427 . S
N3479 C3477 1.384 . S
H3480 C3486 0.930 . S
H3481 C3490 0.930 . S
H3482 C3495 0.929 . S
H3483 C3493 0.929 . S
H3484 C3488 0.929 . S
H3485 C3494 0.929 . S
C3486 H3480 0.930 . S
C3486 C3487 1.367 . S
C3486 C3494 1.378 . S
C3487 C3486 1.367 . S
C3487 C3495 1.433 . S
C3488 H3484 0.929 . S
C3488 C3490 1.378 . S
C3488 C3492 1.350 . S
C3489 C3492 1.463 . S
C3489 C3494 1.350 . S
C3489 N3497 1.427 . S
C3490 H3481 0.930 . S
C3490 C3488 1.378 . S
C3490 C3491 1.367 . S
C3491 C3490 1.367 . S
C3491 C3493 1.433 . S
C3492 C3488 1.350 . S
C3492 C3489 1.463 . S
C3492 N3496 1.427 . S
C3493 H3483 0.929 . S
C3493 C3491 1.433 . S
C3493 N3496 1.384 . S
C3494 H3485 0.929 . S
C3494 C3486 1.378 . S
C3494 C3489 1.350 . S
C3495 H3482 0.929 . S
C3495 C3487 1.433 . S
C3495 N3497 1.384 . S
N3496 C3492 1.427 . S
N3496 C3493 1.384 . S
N3497 C3489 1.427 . S
N3497 C3495 1.384 . S
H3498 C3504 0.930 . S
H3499 C3508 0.930 . S
H3500 C3513 0.929 . S
H3501 C3511 0.929 . S
H3502 C3506 0.929 . S
H3503 C3512 0.929 . S
C3504 H3498 0.930 . S
C3504 C3505 1.367 . S
C3504 C3512 1.378 . S
C3505 C3504 1.367 . S
C3505 C3513 1.433 . S
C3506 H3502 0.929 . S
C3506 C3508 1.378 . S
C3506 C3510 1.350 . S
C3507 C3510 1.463 . S
C3507 C3512 1.350 . S
C3507 N3515 1.427 . S
C3508 H3499 0.930 . S
C3508 C3506 1.378 . S
C3508 C3509 1.367 . S
C3509 C3508 1.367 . S
C3509 C3511 1.433 . S
C3510 C3506 1.350 . S
C3510 C3507 1.463 . S
C3510 N3514 1.427 . S
C3511 H3501 0.929 . S
C3511 C3509 1.433 . S
C3511 N3514 1.384 . S
C3512 H3503 0.929 . S
C3512 C3504 1.378 . S
C3512 C3507 1.350 . S
C3513 H3500 0.929 . S
C3513 C3505 1.433 . S
C3513 N3515 1.384 . S
N3514 C3510 1.427 . S
N3514 C3511 1.384 . S
N3515 C3507 1.427 . S
N3515 C3513 1.384 . S
H3516 C3522 0.930 . S
H3517 C3526 0.930 . S
H3518 C3531 0.929 . S
H3519 C3529 0.929 . S
H3520 C3524 0.929 . S
H3521 C3530 0.929 . S
C3522 H3516 0.930 . S
C3522 C3523 1.367 . S
C3522 C3530 1.378 . S
C3523 C3522 1.367 . S
C3523 C3531 1.433 . S
C3524 H3520 0.929 . S
C3524 C3526 1.378 . S
C3524 C3528 1.350 . S
C3525 C3528 1.463 . S
C3525 C3530 1.350 . S
C3525 N3533 1.427 . S
C3526 H3517 0.930 . S
C3526 C3524 1.378 . S
C3526 C3527 1.367 . S
C3527 C3526 1.367 . S
C3527 C3529 1.433 . S
C3528 C3524 1.350 . S
C3528 C3525 1.463 . S
C3528 N3532 1.427 . S
C3529 H3519 0.929 . S
C3529 C3527 1.433 . S
C3529 N3532 1.384 . S
C3530 H3521 0.929 . S
C3530 C3522 1.378 . S
C3530 C3525 1.350 . S
C3531 H3518 0.929 . S
C3531 C3523 1.433 . S
C3531 N3533 1.384 . S
N3532 C3528 1.427 . S
N3532 C3529 1.384 . S
N3533 C3525 1.427 . S
N3533 C3531 1.384 . S
H3534 C3540 0.930 . S
H3535 C3544 0.930 . S
H3536 C3549 0.929 . S
H3537 C3547 0.929 . S
H3538 C3542 0.929 . S
H3539 C3548 0.929 . S
C3540 H3534 0.930 . S
C3540 C3541 1.367 . S
C3540 C3548 1.378 . S
C3541 C3540 1.367 . S
C3541 C3549 1.433 . S
C3542 H3538 0.929 . S
C3542 C3544 1.378 . S
C3542 C3546 1.350 . S
C3543 C3546 1.463 . S
C3543 C3548 1.350 . S
C3543 N3551 1.427 . S
C3544 H3535 0.930 . S
C3544 C3542 1.378 . S
C3544 C3545 1.367 . S
C3545 C3544 1.367 . S
C3545 C3547 1.433 . S
C3546 C3542 1.350 . S
C3546 C3543 1.463 . S
C3546 N3550 1.427 . S
C3547 H3537 0.929 . S
C3547 C3545 1.433 . S
C3547 N3550 1.384 . S
C3548 H3539 0.929 . S
C3548 C3540 1.378 . S
C3548 C3543 1.350 . S
C3549 H3536 0.929 . S
C3549 C3541 1.433 . S
C3549 N3551 1.384 . S
N3550 C3546 1.427 . S
N3550 C3547 1.384 . S
N3551 C3543 1.427 . S
N3551 C3549 1.384 . S
H3552 C3558 0.930 . S
H3553 C3562 0.930 . S
H3554 C3567 0.929 . S
H3555 C3565 0.929 . S
H3556 C3560 0.929 . S
H3557 C3566 0.929 . S
C3558 H3552 0.930 . S
C3558 C3559 1.367 . S
C3558 C3566 1.378 . S
C3559 C3558 1.367 . S
C3559 C3567 1.433 . S
C3560 H3556 0.929 . S
C3560 C3562 1.378 . S
C3560 C3564 1.350 . S
C3561 C3564 1.463 . S
C3561 C3566 1.350 . S
C3561 N3569 1.427 . S
C3562 H3553 0.930 . S
C3562 C3560 1.378 . S
C3562 C3563 1.367 . S
C3563 C3562 1.367 . S
C3563 C3565 1.433 . S
C3564 C3560 1.350 . S
C3564 C3561 1.463 . S
C3564 N3568 1.427 . S
C3565 H3555 0.929 . S
C3565 C3563 1.433 . S
C3565 N3568 1.384 . S
C3566 H3557 0.929 . S
C3566 C3558 1.378 . S
C3566 C3561 1.350 . S
C3567 H3554 0.929 . S
C3567 C3559 1.433 . S
C3567 N3569 1.384 . S
N3568 C3564 1.427 . S
N3568 C3565 1.384 . S
N3569 C3561 1.427 . S
N3569 C3567 1.384 . S
H3570 C3576 0.930 . S
H3571 C3580 0.930 . S
H3572 C3585 0.929 . S
H3573 C3583 0.929 . S
H3574 C3578 0.929 . S
H3575 C3584 0.929 . S
C3576 H3570 0.930 . S
C3576 C3577 1.367 . S
C3576 C3584 1.378 . S
C3577 C3576 1.367 . S
C3577 C3585 1.433 . S
C3578 H3574 0.929 . S
C3578 C3580 1.378 . S
C3578 C3582 1.350 . S
C3579 C3582 1.463 . S
C3579 C3584 1.350 . S
C3579 N3587 1.427 . S
C3580 H3571 0.930 . S
C3580 C3578 1.378 . S
C3580 C3581 1.367 . S
C3581 C3580 1.367 . S
C3581 C3583 1.433 . S
C3582 C3578 1.350 . S
C3582 C3579 1.463 . S
C3582 N3586 1.427 . S
C3583 H3573 0.929 . S
C3583 C3581 1.433 . S
C3583 N3586 1.384 . S
C3584 H3575 0.929 . S
C3584 C3576 1.378 . S
C3584 C3579 1.350 . S
C3585 H3572 0.929 . S
C3585 C3577 1.433 . S
C3585 N3587 1.384 . S
N3586 C3582 1.427 . S
N3586 C3583 1.384 . S
N3587 C3579 1.427 . S
N3587 C3585 1.384 . S
H3588 C3594 0.930 . S
H3589 C3598 0.930 . S
H3590 C3603 0.929 . S
H3591 C3601 0.929 . S
H3592 C3596 0.929 . S
H3593 C3602 0.929 . S
C3594 H3588 0.930 . S
C3594 C3595 1.367 . S
C3594 C3602 1.378 . S
C3595 C3594 1.367 . S
C3595 C3603 1.433 . S
C3596 H3592 0.929 . S
C3596 C3598 1.378 . S
C3596 C3600 1.350 . S
C3597 C3600 1.463 . S
C3597 C3602 1.350 . S
C3597 N3605 1.427 . S
C3598 H3589 0.930 . S
C3598 C3596 1.378 . S
C3598 C3599 1.367 . S
C3599 C3598 1.367 . S
C3599 C3601 1.433 . S
C3600 C3596 1.350 . S
C3600 C3597 1.463 . S
C3600 N3604 1.427 . S
C3601 H3591 0.929 . S
C3601 C3599 1.433 . S
C3601 N3604 1.384 . S
C3602 H3593 0.929 . S
C3602 C3594 1.378 . S
C3602 C3597 1.350 . S
C3603 H3590 0.929 . S
C3603 C3595 1.433 . S
C3603 N3605 1.384 . S
N3604 C3600 1.427 . S
N3604 C3601 1.384 . S
N3605 C3597 1.427 . S
N3605 C3603 1.384 . S
H3606 C3612 0.930 . S
H3607 C3616 0.930 . S
H3608 C3621 0.929 . S
H3609 C3619 0.929 . S
H3610 C3614 0.929 . S
H3611 C3620 0.929 . S
C3612 H3606 0.930 . S
C3612 C3613 1.367 . S
C3612 C3620 1.378 . S
C3613 C3612 1.367 . S
C3613 C3621 1.433 . S
C3614 H3610 0.929 . S
C3614 C3616 1.378 . S
C3614 C3618 1.350 . S
C3615 C3618 1.463 . S
C3615 C3620 1.350 . S
C3615 N3623 1.427 . S
C3616 H3607 0.930 . S
C3616 C3614 1.378 . S
C3616 C3617 1.367 . S
C3617 C3616 1.367 . S
C3617 C3619 1.433 . S
C3618 C3614 1.350 . S
C3618 C3615 1.463 . S
C3618 N3622 1.427 . S
C3619 H3609 0.929 . S
C3619 C3617 1.433 . S
C3619 N3622 1.384 . S
C3620 H3611 0.929 . S
C3620 C3612 1.378 . S
C3620 C3615 1.350 . S
C3621 H3608 0.929 . S
C3621 C3613 1.433 . S
C3621 N3623 1.384 . S
N3622 C3618 1.427 . S
N3622 C3619 1.384 . S
N3623 C3615 1.427 . S
N3623 C3621 1.384 . S
H3624 C3630 0.930 . S
H3625 C3634 0.930 . S
H3626 C3639 0.929 . S
H3627 C3637 0.929 . S
H3628 C3632 0.929 . S
H3629 C3638 0.929 . S
C3630 H3624 0.930 . S
C3630 C3631 1.367 . S
C3630 C3638 1.378 . S
C3631 C3630 1.367 . S
C3631 C3639 1.433 . S
C3632 H3628 0.929 . S
C3632 C3634 1.378 . S
C3632 C3636 1.350 . S
C3633 C3636 1.463 . S
C3633 C3638 1.350 . S
C3633 N3641 1.427 . S
C3634 H3625 0.930 . S
C3634 C3632 1.378 . S
C3634 C3635 1.367 . S
C3635 C3634 1.367 . S
C3635 C3637 1.433 . S
C3636 C3632 1.350 . S
C3636 C3633 1.463 . S
C3636 N3640 1.427 . S
C3637 H3627 0.929 . S
C3637 C3635 1.433 . S
C3637 N3640 1.384 . S
C3638 H3629 0.929 . S
C3638 C3630 1.378 . S
C3638 C3633 1.350 . S
C3639 H3626 0.929 . S
C3639 C3631 1.433 . S
C3639 N3641 1.384 . S
N3640 C3636 1.427 . S
N3640 C3637 1.384 . S
N3641 C3633 1.427 . S
N3641 C3639 1.384 . S
H3642 C3648 0.930 . S
H3643 C3652 0.930 . S
H3644 C3657 0.929 . S
H3645 C3655 0.929 . S
H3646 C3650 0.929 . S
H3647 C3656 0.929 . S
C3648 H3642 0.930 . S
C3648 C3649 1.367 . S
C3648 C3656 1.378 . S
C3649 C3648 1.367 . S
C3649 C3657 1.433 . S
C3650 H3646 0.929 . S
C3650 C3652 1.378 . S
C3650 C3654 1.350 . S
C3651 C3654 1.463 . S
C3651 C3656 1.350 . S
C3651 N3659 1.427 . S
C3652 H3643 0.930 . S
C3652 C3650 1.378 . S
C3652 C3653 1.367 . S
C3653 C3652 1.367 . S
C3653 C3655 1.433 . S
C3654 C3650 1.350 . S
C3654 C3651 1.463 . S
C3654 N3658 1.427 . S
C3655 H3645 0.929 . S
C3655 C3653 1.433 . S
C3655 N3658 1.384 . S
C3656 H3647 0.929 . S
C3656 C3648 1.378 . S
C3656 C3651 1.350 . S
C3657 H3644 0.929 . S
C3657 C3649 1.433 . S
C3657 N3659 1.384 . S
N3658 C3654 1.427 . S
N3658 C3655 1.384 . S
N3659 C3651 1.427 . S
N3659 C3657 1.384 . S
H3660 C3666 0.930 . S
H3661 C3670 0.930 . S
H3662 C3675 0.929 . S
H3663 C3673 0.929 . S
H3664 C3668 0.929 . S
H3665 C3674 0.929 . S
C3666 H3660 0.930 . S
C3666 C3667 1.367 . S
C3666 C3674 1.378 . S
C3667 C3666 1.367 . S
C3667 C3675 1.433 . S
C3668 H3664 0.929 . S
C3668 C3670 1.378 . S
C3668 C3672 1.350 . S
C3669 C3672 1.463 . S
C3669 C3674 1.350 . S
C3669 N3677 1.427 . S
C3670 H3661 0.930 . S
C3670 C3668 1.378 . S
C3670 C3671 1.367 . S
C3671 C3670 1.367 . S
C3671 C3673 1.433 . S
C3672 C3668 1.350 . S
C3672 C3669 1.463 . S
C3672 N3676 1.427 . S
C3673 H3663 0.929 . S
C3673 C3671 1.433 . S
C3673 N3676 1.384 . S
C3674 H3665 0.929 . S
C3674 C3666 1.378 . S
C3674 C3669 1.350 . S
C3675 H3662 0.929 . S
C3675 C3667 1.433 . S
C3675 N3677 1.384 . S
N3676 C3672 1.427 . S
N3676 C3673 1.384 . S
N3677 C3669 1.427 . S
N3677 C3675 1.384 . S
H3678 C3684 0.930 . S
H3679 C3688 0.930 . S
H3680 C3693 0.929 . S
H3681 C3691 0.929 . S
H3682 C3686 0.929 . S
H3683 C3692 0.929 . S
C3684 H3678 0.930 . S
C3684 C3685 1.367 . S
C3684 C3692 1.378 . S
C3685 C3684 1.367 . S
C3685 C3693 1.433 . S
C3686 H3682 0.929 . S
C3686 C3688 1.378 . S
C3686 C3690 1.350 . S
C3687 C3690 1.463 . S
C3687 C3692 1.350 . S
C3687 N3695 1.427 . S
C3688 H3679 0.930 . S
C3688 C3686 1.378 . S
C3688 C3689 1.367 . S
C3689 C3688 1.367 . S
C3689 C3691 1.433 . S
C3690 C3686 1.350 . S
C3690 C3687 1.463 . S
C3690 N3694 1.427 . S
C3691 H3681 0.929 . S
C3691 C3689 1.433 . S
C3691 N3694 1.384 . S
C3692 H3683 0.929 . S
C3692 C3684 1.378 . S
C3692 C3687 1.350 . S
C3693 H3680 0.929 . S
C3693 C3685 1.433 . S
C3693 N3695 1.384 . S
N3694 C3690 1.427 . S
N3694 C3691 1.384 . S
N3695 C3687 1.427 . S
N3695 C3693 1.384 . S
H3696 C3702 0.930 . S
H3697 C3706 0.930 . S
H3698 C3711 0.929 . S
H3699 C3709 0.929 . S
H3700 C3704 0.929 . S
H3701 C3710 0.929 . S
C3702 H3696 0.930 . S
C3702 C3703 1.367 . S
C3702 C3710 1.378 . S
C3703 C3702 1.367 . S
C3703 C3711 1.433 . S
C3704 H3700 0.929 . S
C3704 C3706 1.378 . S
C3704 C3708 1.350 . S
C3705 C3708 1.463 . S
C3705 C3710 1.350 . S
C3705 N3713 1.427 . S
C3706 H3697 0.930 . S
C3706 C3704 1.378 . S
C3706 C3707 1.367 . S
C3707 C3706 1.367 . S
C3707 C3709 1.433 . S
C3708 C3704 1.350 . S
C3708 C3705 1.463 . S
C3708 N3712 1.427 . S
C3709 H3699 0.929 . S
C3709 C3707 1.433 . S
C3709 N3712 1.384 . S
C3710 H3701 0.929 . S
C3710 C3702 1.378 . S
C3710 C3705 1.350 . S
C3711 H3698 0.929 . S
C3711 C3703 1.433 . S
C3711 N3713 1.384 . S
N3712 C3708 1.427 . S
N3712 C3709 1.384 . S
N3713 C3705 1.427 . S
N3713 C3711 1.384 . S
H3714 C3720 0.930 . S
H3715 C3724 0.930 . S
H3716 C3729 0.929 . S
H3717 C3727 0.929 . S
H3718 C3722 0.929 . S
H3719 C3728 0.929 . S
C3720 H3714 0.930 . S
C3720 C3721 1.367 . S
C3720 C3728 1.378 . S
C3721 C3720 1.367 . S
C3721 C3729 1.433 . S
C3722 H3718 0.929 . S
C3722 C3724 1.378 . S
C3722 C3726 1.350 . S
C3723 C3726 1.463 . S
C3723 C3728 1.350 . S
C3723 N3731 1.427 . S
C3724 H3715 0.930 . S
C3724 C3722 1.378 . S
C3724 C3725 1.367 . S
C3725 C3724 1.367 . S
C3725 C3727 1.433 . S
C3726 C3722 1.350 . S
C3726 C3723 1.463 . S
C3726 N3730 1.427 . S
C3727 H3717 0.929 . S
C3727 C3725 1.433 . S
C3727 N3730 1.384 . S
C3728 H3719 0.929 . S
C3728 C3720 1.378 . S
C3728 C3723 1.350 . S
C3729 H3716 0.929 . S
C3729 C3721 1.433 . S
C3729 N3731 1.384 . S
N3730 C3726 1.427 . S
N3730 C3727 1.384 . S
N3731 C3723 1.427 . S
N3731 C3729 1.384 . S
H3732 C3738 0.930 . S
H3733 C3742 0.930 . S
H3734 C3747 0.929 . S
H3735 C3745 0.929 . S
H3736 C3740 0.929 . S
H3737 C3746 0.929 . S
C3738 H3732 0.930 . S
C3738 C3739 1.367 . S
C3738 C3746 1.378 . S
C3739 C3738 1.367 . S
C3739 C3747 1.433 . S
C3740 H3736 0.929 . S
C3740 C3742 1.378 . S
C3740 C3744 1.350 . S
C3741 C3744 1.463 . S
C3741 C3746 1.350 . S
C3741 N3749 1.427 . S
C3742 H3733 0.930 . S
C3742 C3740 1.378 . S
C3742 C3743 1.367 . S
C3743 C3742 1.367 . S
C3743 C3745 1.433 . S
C3744 C3740 1.350 . S
C3744 C3741 1.463 . S
C3744 N3748 1.427 . S
C3745 H3735 0.929 . S
C3745 C3743 1.433 . S
C3745 N3748 1.384 . S
C3746 H3737 0.929 . S
C3746 C3738 1.378 . S
C3746 C3741 1.350 . S
C3747 H3734 0.929 . S
C3747 C3739 1.433 . S
C3747 N3749 1.384 . S
N3748 C3744 1.427 . S
N3748 C3745 1.384 . S
N3749 C3741 1.427 . S
N3749 C3747 1.384 . S
H3750 C3756 0.930 . S
H3751 C3760 0.930 . S
H3752 C3765 0.929 . S
H3753 C3763 0.929 . S
H3754 C3758 0.929 . S
H3755 C3764 0.929 . S
C3756 H3750 0.930 . S
C3756 C3757 1.367 . S
C3756 C3764 1.378 . S
C3757 C3756 1.367 . S
C3757 C3765 1.433 . S
C3758 H3754 0.929 . S
C3758 C3760 1.378 . S
C3758 C3762 1.350 . S
C3759 C3762 1.463 . S
C3759 C3764 1.350 . S
C3759 N3767 1.427 . S
C3760 H3751 0.930 . S
C3760 C3758 1.378 . S
C3760 C3761 1.367 . S
C3761 C3760 1.367 . S
C3761 C3763 1.433 . S
C3762 C3758 1.350 . S
C3762 C3759 1.463 . S
C3762 N3766 1.427 . S
C3763 H3753 0.929 . S
C3763 C3761 1.433 . S
C3763 N3766 1.384 . S
C3764 H3755 0.929 . S
C3764 C3756 1.378 . S
C3764 C3759 1.350 . S
C3765 H3752 0.929 . S
C3765 C3757 1.433 . S
C3765 N3767 1.384 . S
N3766 C3762 1.427 . S
N3766 C3763 1.384 . S
N3767 C3759 1.427 . S
N3767 C3765 1.384 . S
H3768 C3774 0.930 . S
H3769 C3778 0.930 . S
H3770 C3783 0.929 . S
H3771 C3781 0.929 . S
H3772 C3776 0.929 . S
H3773 C3782 0.929 . S
C3774 H3768 0.930 . S
C3774 C3775 1.367 . S
C3774 C3782 1.378 . S
C3775 C3774 1.367 . S
C3775 C3783 1.433 . S
C3776 H3772 0.929 . S
C3776 C3778 1.378 . S
C3776 C3780 1.350 . S
C3777 C3780 1.463 . S
C3777 C3782 1.350 . S
C3777 N3785 1.427 . S
C3778 H3769 0.930 . S
C3778 C3776 1.378 . S
C3778 C3779 1.367 . S
C3779 C3778 1.367 . S
C3779 C3781 1.433 . S
C3780 C3776 1.350 . S
C3780 C3777 1.463 . S
C3780 N3784 1.427 . S
C3781 H3771 0.929 . S
C3781 C3779 1.433 . S
C3781 N3784 1.384 . S
C3782 H3773 0.929 . S
C3782 C3774 1.378 . S
C3782 C3777 1.350 . S
C3783 H3770 0.929 . S
C3783 C3775 1.433 . S
C3783 N3785 1.384 . S
N3784 C3780 1.427 . S
N3784 C3781 1.384 . S
N3785 C3777 1.427 . S
N3785 C3783 1.384 . S
H3786 C3792 0.930 . S
H3787 C3796 0.930 . S
H3788 C3801 0.929 . S
H3789 C3799 0.929 . S
H3790 C3794 0.929 . S
H3791 C3800 0.929 . S
C3792 H3786 0.930 . S
C3792 C3793 1.367 . S
C3792 C3800 1.378 . S
C3793 C3792 1.367 . S
C3793 C3801 1.433 . S
C3794 H3790 0.929 . S
C3794 C3796 1.378 . S
C3794 C3798 1.350 . S
C3795 C3798 1.463 . S
C3795 C3800 1.350 . S
C3795 N3803 1.427 . S
C3796 H3787 0.930 . S
C3796 C3794 1.378 . S
C3796 C3797 1.367 . S
C3797 C3796 1.367 . S
C3797 C3799 1.433 . S
C3798 C3794 1.350 . S
C3798 C3795 1.463 . S
C3798 N3802 1.427 . S
C3799 H3789 0.929 . S
C3799 C3797 1.433 . S
C3799 N3802 1.384 . S
C3800 H3791 0.929 . S
C3800 C3792 1.378 . S
C3800 C3795 1.350 . S
C3801 H3788 0.929 . S
C3801 C3793 1.433 . S
C3801 N3803 1.384 . S
N3802 C3798 1.427 . S
N3802 C3799 1.384 . S
N3803 C3795 1.427 . S
N3803 C3801 1.384 . S
H3804 C3810 0.930 . S
H3805 C3814 0.930 . S
H3806 C3819 0.929 . S
H3807 C3817 0.929 . S
H3808 C3812 0.929 . S
H3809 C3818 0.929 . S
C3810 H3804 0.930 . S
C3810 C3811 1.367 . S
C3810 C3818 1.378 . S
C3811 C3810 1.367 . S
C3811 C3819 1.433 . S
C3812 H3808 0.929 . S
C3812 C3814 1.378 . S
C3812 C3816 1.350 . S
C3813 C3816 1.463 . S
C3813 C3818 1.350 . S
C3813 N3821 1.427 . S
C3814 H3805 0.930 . S
C3814 C3812 1.378 . S
C3814 C3815 1.367 . S
C3815 C3814 1.367 . S
C3815 C3817 1.433 . S
C3816 C3812 1.350 . S
C3816 C3813 1.463 . S
C3816 N3820 1.427 . S
C3817 H3807 0.929 . S
C3817 C3815 1.433 . S
C3817 N3820 1.384 . S
C3818 H3809 0.929 . S
C3818 C3810 1.378 . S
C3818 C3813 1.350 . S
C3819 H3806 0.929 . S
C3819 C3811 1.433 . S
C3819 N3821 1.384 . S
N3820 C3816 1.427 . S
N3820 C3817 1.384 . S
N3821 C3813 1.427 . S
N3821 C3819 1.384 . S
H3822 C3828 0.930 . S
H3823 C3832 0.930 . S
H3824 C3837 0.929 . S
H3825 C3835 0.929 . S
H3826 C3830 0.929 . S
H3827 C3836 0.929 . S
C3828 H3822 0.930 . S
C3828 C3829 1.367 . S
C3828 C3836 1.378 . S
C3829 C3828 1.367 . S
C3829 C3837 1.433 . S
C3830 H3826 0.929 . S
C3830 C3832 1.378 . S
C3830 C3834 1.350 . S
C3831 C3834 1.463 . S
C3831 C3836 1.350 . S
C3831 N3839 1.427 . S
C3832 H3823 0.930 . S
C3832 C3830 1.378 . S
C3832 C3833 1.367 . S
C3833 C3832 1.367 . S
C3833 C3835 1.433 . S
C3834 C3830 1.350 . S
C3834 C3831 1.463 . S
C3834 N3838 1.427 . S
C3835 H3825 0.929 . S
C3835 C3833 1.433 . S
C3835 N3838 1.384 . S
C3836 H3827 0.929 . S
C3836 C3828 1.378 . S
C3836 C3831 1.350 . S
C3837 H3824 0.929 . S
C3837 C3829 1.433 . S
C3837 N3839 1.384 . S
N3838 C3834 1.427 . S
N3838 C3835 1.384 . S
N3839 C3831 1.427 . S
N3839 C3837 1.384 . S
H3840 C3846 0.930 . S
H3841 C3850 0.930 . S
H3842 C3855 0.929 1_554 S
H3843 C3853 0.929 . S
H3844 C3848 0.929 . S
H3845 C3854 0.929 . S
C3846 H3840 0.930 . S
C3846 C3847 1.367 . S
C3846 C3854 1.378 . S
C3847 C3846 1.367 . S
C3847 C3855 1.433 1_545 S
C3848 H3844 0.929 . S
C3848 C3850 1.378 . S
C3848 C3852 1.350 1_565 S
C3849 C3852 1.463 . S
C3849 C3854 1.350 . S
C3849 N3857 1.427 1_545 S
C3850 H3841 0.930 . S
C3850 C3848 1.378 . S
C3850 C3851 1.367 1_565 S
C3851 C3850 1.367 1_545 S
C3851 C3853 1.433 . S
C3852 C3848 1.350 1_545 S
C3852 C3849 1.463 . S
C3852 N3856 1.427 . S
C3853 H3843 0.929 . S
C3853 C3851 1.433 . S
C3853 N3856 1.384 . S
C3854 H3845 0.929 . S
C3854 C3846 1.378 . S
C3854 C3849 1.350 . S
C3855 H3842 0.929 1_556 S
C3855 C3847 1.433 1_565 S
C3855 N3857 1.384 . S
N3856 C3852 1.427 . S
N3856 C3853 1.384 . S
N3857 C3849 1.427 1_565 S
N3857 C3855 1.384 . S
H3858 C3864 0.930 . S
H3859 C3868 0.930 . S
H3860 C3873 0.929 . S
H3861 C3871 0.929 . S
H3862 C3866 0.929 . S
H3863 C3872 0.929 . S
C3864 H3858 0.930 . S
C3864 C3865 1.367 . S
C3864 C3872 1.378 . S
C3865 C3864 1.367 . S
C3865 C3873 1.433 . S
C3866 H3862 0.929 . S
C3866 C3868 1.378 . S
C3866 C3870 1.350 . S
C3867 C3870 1.463 . S
C3867 C3872 1.350 . S
C3867 N3875 1.427 . S
C3868 H3859 0.930 . S
C3868 C3866 1.378 . S
C3868 C3869 1.367 . S
C3869 C3868 1.367 . S
C3869 C3871 1.433 . S
C3870 C3866 1.350 . S
C3870 C3867 1.463 . S
C3870 N3874 1.427 . S
C3871 H3861 0.929 . S
C3871 C3869 1.433 . S
C3871 N3874 1.384 . S
C3872 H3863 0.929 . S
C3872 C3864 1.378 . S
C3872 C3867 1.350 . S
C3873 H3860 0.929 . S
C3873 C3865 1.433 . S
C3873 N3875 1.384 . S
N3874 C3870 1.427 . S
N3874 C3871 1.384 . S
N3875 C3867 1.427 . S
N3875 C3873 1.384 . S
H3876 C3882 0.930 . S
H3877 C3886 0.930 . S
H3878 C3891 0.929 . S
H3879 C3889 0.929 . S
H3880 C3884 0.929 . S
H3881 C3890 0.929 . S
C3882 H3876 0.930 . S
C3882 C3883 1.367 . S
C3882 C3890 1.378 . S
C3883 C3882 1.367 . S
C3883 C3891 1.433 . S
C3884 H3880 0.929 . S
C3884 C3886 1.378 . S
C3884 C3888 1.350 . S
C3885 C3888 1.463 . S
C3885 C3890 1.350 . S
C3885 N3893 1.427 . S
C3886 H3877 0.930 . S
C3886 C3884 1.378 . S
C3886 C3887 1.367 . S
C3887 C3886 1.367 . S
C3887 C3889 1.433 . S
C3888 C3884 1.350 . S
C3888 C3885 1.463 . S
C3888 N3892 1.427 . S
C3889 H3879 0.929 . S
C3889 C3887 1.433 . S
C3889 N3892 1.384 . S
C3890 H3881 0.929 . S
C3890 C3882 1.378 . S
C3890 C3885 1.350 . S
C3891 H3878 0.929 . S
C3891 C3883 1.433 . S
C3891 N3893 1.384 . S
N3892 C3888 1.427 . S
N3892 C3889 1.384 . S
N3893 C3885 1.427 . S
N3893 C3891 1.384 . S
H3894 C3900 0.930 . S
H3895 C3904 0.930 . S
H3896 C3909 0.929 1_655 S
H3897 C3907 0.929 . S
H3898 C3902 0.929 . S
H3899 C3908 0.929 . S
C3900 H3894 0.930 . S
C3900 C3901 1.367 1_565 S
C3900 C3908 1.378 . S
C3901 C3900 1.367 1_545 S
C3901 C3909 1.433 . S
C3902 H3898 0.929 . S
C3902 C3904 1.378 . S
C3902 C3906 1.350 . S
C3903 C3906 1.463 . S
C3903 C3908 1.350 1_545 S
C3903 N3911 1.427 . S
C3904 H3895 0.930 . S
C3904 C3902 1.378 . S
C3904 C3905 1.367 . S
C3905 C3904 1.367 . S
C3905 C3907 1.433 1_545 S
C3906 C3902 1.350 . S
C3906 C3903 1.463 . S
C3906 N3910 1.427 1_545 S
C3907 H3897 0.929 . S
C3907 C3905 1.433 1_565 S
C3907 N3910 1.384 . S
C3908 H3899 0.929 . S
C3908 C3900 1.378 . S
C3908 C3903 1.350 1_565 S
C3909 H3896 0.929 1_455 S
C3909 C3901 1.433 . S
C3909 N3911 1.384 . S
N3910 C3906 1.427 1_565 S
N3910 C3907 1.384 . S
N3911 C3903 1.427 . S
N3911 C3909 1.384 . S
H3912 C3918 0.930 . S
H3913 C3922 0.930 . S
H3914 C3927 0.929 . S
H3915 C3925 0.929 . S
H3916 C3920 0.929 . S
H3917 C3926 0.929 . S
C3918 H3912 0.930 . S
C3918 C3919 1.367 1_545 S
C3918 C3926 1.378 . S
C3919 C3918 1.367 1_565 S
C3919 C3927 1.433 . S
C3920 H3916 0.929 . S
C3920 C3922 1.378 . S
C3920 C3924 1.350 . S
C3921 C3924 1.463 . S
C3921 C3926 1.350 1_565 S
C3921 N3929 1.427 . S
C3922 H3913 0.930 . S
C3922 C3920 1.378 . S
C3922 C3923 1.367 . S
C3923 C3922 1.367 . S
C3923 C3925 1.433 1_565 S
C3924 C3920 1.350 . S
C3924 C3921 1.463 . S
C3924 N3928 1.427 1_565 S
C3925 H3915 0.929 . S
C3925 C3923 1.433 1_545 S
C3925 N3928 1.384 . S
C3926 H3917 0.929 . S
C3926 C3918 1.378 . S
C3926 C3921 1.350 1_545 S
C3927 H3914 0.929 . S
C3927 C3919 1.433 . S
C3927 N3929 1.384 . S
N3928 C3924 1.427 1_545 S
N3928 C3925 1.384 . S
N3929 C3921 1.427 . S
N3929 C3927 1.384 . S
H3930 C3936 0.930 1_556 S
H3931 C3940 0.930 . S
H3932 C3945 0.929 1_455 S
H3933 C3943 0.929 . S
H3934 C3938 0.929 . S
H3935 C3944 0.929 . S
C3936 H3930 0.930 1_554 S
C3936 C3937 1.367 . S
C3936 C3944 1.378 . S
C3937 C3936 1.367 . S
C3937 C3945 1.433 . S
C3938 H3934 0.929 . S
C3938 C3940 1.378 . S
C3938 C3942 1.350 . S
C3939 C3942 1.463 . S
C3939 C3944 1.350 . S
C3939 N3947 1.427 . S
C3940 H3931 0.930 . S
C3940 C3938 1.378 . S
C3940 C3941 1.367 . S
C3941 C3940 1.367 . S
C3941 C3943 1.433 . S
C3942 C3938 1.350 . S
C3942 C3939 1.463 . S
C3942 N3946 1.427 . S
C3943 H3933 0.929 . S
C3943 C3941 1.433 . S
C3943 N3946 1.384 . S
C3944 H3935 0.929 . S
C3944 C3936 1.378 . S
C3944 C3939 1.350 . S
C3945 H3932 0.929 1_655 S
C3945 C3937 1.433 . S
C3945 N3947 1.384 . S
N3946 C3942 1.427 . S
N3946 C3943 1.384 . S
N3947 C3939 1.427 . S
N3947 C3945 1.384 . S
H3948 C3954 0.930 . S
H3949 C3958 0.930 . S
H3950 C3963 0.929 . S
H3951 C3961 0.929 . S
H3952 C3956 0.929 . S
H3953 C3962 0.929 . S
C3954 H3948 0.930 . S
C3954 C3955 1.367 . S
C3954 C3962 1.378 . S
C3955 C3954 1.367 . S
C3955 C3963 1.433 . S
C3956 H3952 0.929 . S
C3956 C3958 1.378 . S
C3956 C3960 1.350 . S
C3957 C3960 1.463 . S
C3957 C3962 1.350 . S
C3957 N3965 1.427 . S
C3958 H3949 0.930 . S
C3958 C3956 1.378 . S
C3958 C3959 1.367 . S
C3959 C3958 1.367 . S
C3959 C3961 1.433 . S
C3960 C3956 1.350 . S
C3960 C3957 1.463 . S
C3960 N3964 1.427 . S
C3961 H3951 0.929 . S
C3961 C3959 1.433 . S
C3961 N3964 1.384 . S
C3962 H3953 0.929 . S
C3962 C3954 1.378 . S
C3962 C3957 1.350 . S
C3963 H3950 0.929 . S
C3963 C3955 1.433 . S
C3963 N3965 1.384 . S
N3964 C3960 1.427 . S
N3964 C3961 1.384 . S
N3965 C3957 1.427 . S
N3965 C3963 1.384 . S
H3966 C3972 0.930 . S
H3967 C3976 0.930 . S
H3968 C3981 0.929 . S
H3969 C3979 0.929 1_455 S
H3970 C3974 0.929 . S
H3971 C3980 0.929 . S
C3972 H3966 0.930 . S
C3972 C3973 1.367 . S
C3972 C3980 1.378 . S
C3973 C3972 1.367 . S
C3973 C3981 1.433 1_565 S
C3974 H3970 0.929 . S
C3974 C3976 1.378 . S
C3974 C3978 1.350 1_545 S
C3975 C3978 1.463 . S
C3975 C3980 1.350 . S
C3975 N3983 1.427 1_565 S
C3976 H3967 0.930 . S
C3976 C3974 1.378 . S
C3976 C3977 1.367 1_545 S
C3977 C3976 1.367 1_565 S
C3977 C3979 1.433 . S
C3978 C3974 1.350 1_565 S
C3978 C3975 1.463 . S
C3978 N3982 1.427 . S
C3979 H3969 0.929 1_655 S
C3979 C3977 1.433 . S
C3979 N3982 1.384 . S
C3980 H3971 0.929 . S
C3980 C3972 1.378 . S
C3980 C3975 1.350 . S
C3981 H3968 0.929 . S
C3981 C3973 1.433 1_545 S
C3981 N3983 1.384 . S
N3982 C3978 1.427 . S
N3982 C3979 1.384 . S
N3983 C3975 1.427 1_545 S
N3983 C3981 1.384 . S
H3984 C3990 0.930 . S
H3985 C3994 0.930 . S
H3986 C3999 0.929 . S
H3987 C3997 0.929 . S
H3988 C3992 0.929 . S
H3989 C3998 0.929 . S
C3990 H3984 0.930 . S
C3990 C3991 1.367 . S
C3990 C3998 1.378 . S
C3991 C3990 1.367 . S
C3991 C3999 1.433 . S
C3992 H3988 0.929 . S
C3992 C3994 1.378 . S
C3992 C3996 1.350 . S
C3993 C3996 1.463 . S
C3993 C3998 1.350 . S
C3993 N4001 1.427 . S
C3994 H3985 0.930 . S
C3994 C3992 1.378 . S
C3994 C3995 1.367 . S
C3995 C3994 1.367 . S
C3995 C3997 1.433 . S
C3996 C3992 1.350 . S
C3996 C3993 1.463 . S
C3996 N4000 1.427 . S
C3997 H3987 0.929 . S
C3997 C3995 1.433 . S
C3997 N4000 1.384 . S
C3998 H3989 0.929 . S
C3998 C3990 1.378 . S
C3998 C3993 1.350 . S
C3999 H3986 0.929 . S
C3999 C3991 1.433 . S
C3999 N4001 1.384 . S
N4000 C3996 1.427 . S
N4000 C3997 1.384 . S
N4001 C3993 1.427 . S
N4001 C3999 1.384 . S
H4002 C4008 0.930 . S
H4003 C4012 0.930 . S
H4004 C4017 0.929 . S
H4005 C4015 0.929 . S
H4006 C4010 0.929 . S
H4007 C4016 0.929 . S
C4008 H4002 0.930 . S
C4008 C4009 1.367 . S
C4008 C4016 1.378 . S
C4009 C4008 1.367 . S
C4009 C4017 1.433 . S
C4010 H4006 0.929 . S
C4010 C4012 1.378 . S
C4010 C4014 1.350 . S
C4011 C4014 1.463 . S
C4011 C4016 1.350 . S
C4011 N4019 1.427 . S
C4012 H4003 0.930 . S
C4012 C4010 1.378 . S
C4012 C4013 1.367 . S
C4013 C4012 1.367 . S
C4013 C4015 1.433 . S
C4014 C4010 1.350 . S
C4014 C4011 1.463 . S
C4014 N4018 1.427 . S
C4015 H4005 0.929 . S
C4015 C4013 1.433 . S
C4015 N4018 1.384 . S
C4016 H4007 0.929 . S
C4016 C4008 1.378 . S
C4016 C4011 1.350 . S
C4017 H4004 0.929 . S
C4017 C4009 1.433 . S
C4017 N4019 1.384 . S
N4018 C4014 1.427 . S
N4018 C4015 1.384 . S
N4019 C4011 1.427 . S
N4019 C4017 1.384 . S
H4020 C4026 0.930 . S
H4021 C4030 0.930 . S
H4022 C4035 0.929 . S
H4023 C4033 0.929 . S
H4024 C4028 0.929 . S
H4025 C4034 0.929 . S
C4026 H4020 0.930 . S
C4026 C4027 1.367 . S
C4026 C4034 1.378 . S
C4027 C4026 1.367 . S
C4027 C4035 1.433 . S
C4028 H4024 0.929 . S
C4028 C4030 1.378 . S
C4028 C4032 1.350 . S
C4029 C4032 1.463 . S
C4029 C4034 1.350 . S
C4029 N4037 1.427 . S
C4030 H4021 0.930 . S
C4030 C4028 1.378 . S
C4030 C4031 1.367 . S
C4031 C4030 1.367 . S
C4031 C4033 1.433 . S
C4032 C4028 1.350 . S
C4032 C4029 1.463 . S
C4032 N4036 1.427 . S
C4033 H4023 0.929 . S
C4033 C4031 1.433 . S
C4033 N4036 1.384 . S
C4034 H4025 0.929 . S
C4034 C4026 1.378 . S
C4034 C4029 1.350 . S
C4035 H4022 0.929 . S
C4035 C4027 1.433 . S
C4035 N4037 1.384 . S
N4036 C4032 1.427 . S
N4036 C4033 1.384 . S
N4037 C4029 1.427 . S
N4037 C4035 1.384 . S
H4038 C4044 0.930 . S
H4039 C4048 0.930 . S
H4040 C4053 0.929 . S
H4041 C4051 0.929 1_655 S
H4042 C4046 0.929 . S
H4043 C4052 0.929 . S
C4044 H4038 0.930 . S
C4044 C4045 1.367 . S
C4044 C4052 1.378 . S
C4045 C4044 1.367 . S
C4045 C4053 1.433 . S
C4046 H4042 0.929 . S
C4046 C4048 1.378 . S
C4046 C4050 1.350 . S
C4047 C4050 1.463 . S
C4047 C4052 1.350 . S
C4047 N4055 1.427 . S
C4048 H4039 0.930 . S
C4048 C4046 1.378 . S
C4048 C4049 1.367 . S
C4049 C4048 1.367 . S
C4049 C4051 1.433 . S
C4050 C4046 1.350 . S
C4050 C4047 1.463 . S
C4050 N4054 1.427 . S
C4051 H4041 0.929 1_455 S
C4051 C4049 1.433 . S
C4051 N4054 1.384 . S
C4052 H4043 0.929 . S
C4052 C4044 1.378 . S
C4052 C4047 1.350 . S
C4053 H4040 0.929 . S
C4053 C4045 1.433 . S
C4053 N4055 1.384 . S
N4054 C4050 1.427 . S
N4054 C4051 1.384 . S
N4055 C4047 1.427 . S
N4055 C4053 1.384 . S
H4056 C4062 0.930 . S
H4057 C4066 0.930 . S
H4058 C4071 0.929 . S
H4059 C4069 0.929 . S
H4060 C4064 0.929 . S
H4061 C4070 0.929 . S
C4062 H4056 0.930 . S
C4062 C4063 1.367 . S
C4062 C4070 1.378 . S
C4063 C4062 1.367 . S
C4063 C4071 1.433 . S
C4064 H4060 0.929 . S
C4064 C4066 1.378 . S
C4064 C4068 1.350 . S
C4065 C4068 1.463 . S
C4065 C4070 1.350 . S
C4065 N4073 1.427 . S
C4066 H4057 0.930 . S
C4066 C4064 1.378 . S
C4066 C4067 1.367 . S
C4067 C4066 1.367 . S
C4067 C4069 1.433 . S
C4068 C4064 1.350 . S
C4068 C4065 1.463 . S
C4068 N4072 1.427 . S
C4069 H4059 0.929 . S
C4069 C4067 1.433 . S
C4069 N4072 1.384 . S
C4070 H4061 0.929 . S
C4070 C4062 1.378 . S
C4070 C4065 1.350 . S
C4071 H4058 0.929 . S
C4071 C4063 1.433 . S
C4071 N4073 1.384 . S
N4072 C4068 1.427 . S
N4072 C4069 1.384 . S
N4073 C4065 1.427 . S
N4073 C4071 1.384 . S
H4074 C4080 0.930 1_455 S
H4075 C4084 0.930 . S
H4076 C4089 0.929 . S
H4077 C4087 0.929 . S
H4078 C4082 0.929 . S
H4079 C4088 0.929 . S
C4080 H4074 0.930 1_655 S
C4080 C4081 1.367 . S
C4080 C4088 1.378 . S
C4081 C4080 1.367 . S
C4081 C4089 1.433 . S
C4082 H4078 0.929 . S
C4082 C4084 1.378 . S
C4082 C4086 1.350 . S
C4083 C4086 1.463 . S
C4083 C4088 1.350 . S
C4083 N4091 1.427 . S
C4084 H4075 0.930 . S
C4084 C4082 1.378 . S
C4084 C4085 1.367 . S
C4085 C4084 1.367 . S
C4085 C4087 1.433 . S
C4086 C4082 1.350 . S
C4086 C4083 1.463 . S
C4086 N4090 1.427 . S
C4087 H4077 0.929 . S
C4087 C4085 1.433 . S
C4087 N4090 1.384 . S
C4088 H4079 0.929 . S
C4088 C4080 1.378 . S
C4088 C4083 1.350 . S
C4089 H4076 0.929 . S
C4089 C4081 1.433 . S
C4089 N4091 1.384 . S
N4090 C4086 1.427 . S
N4090 C4087 1.384 . S
N4091 C4083 1.427 . S
N4091 C4089 1.384 . S
H4092 C4098 0.930 . S
H4093 C4102 0.930 . S
H4094 C4107 0.929 . S
H4095 C4105 0.929 . S
H4096 C4100 0.929 . S
H4097 C4106 0.929 . S
C4098 H4092 0.930 . S
C4098 C4099 1.367 . S
C4098 C4106 1.378 . S
C4099 C4098 1.367 . S
C4099 C4107 1.433 . S
C4100 H4096 0.929 . S
C4100 C4102 1.378 . S
C4100 C4104 1.350 . S
C4101 C4104 1.463 . S
C4101 C4106 1.350 . S
C4101 N4109 1.427 . S
C4102 H4093 0.930 . S
C4102 C4100 1.378 . S
C4102 C4103 1.367 . S
C4103 C4102 1.367 . S
C4103 C4105 1.433 . S
C4104 C4100 1.350 . S
C4104 C4101 1.463 . S
C4104 N4108 1.427 . S
C4105 H4095 0.929 . S
C4105 C4103 1.433 . S
C4105 N4108 1.384 . S
C4106 H4097 0.929 . S
C4106 C4098 1.378 . S
C4106 C4101 1.350 . S
C4107 H4094 0.929 . S
C4107 C4099 1.433 . S
C4107 N4109 1.384 . S
N4108 C4104 1.427 . S
N4108 C4105 1.384 . S
N4109 C4101 1.427 . S
N4109 C4107 1.384 . S
H4110 C4116 0.930 . S
H4111 C4120 0.930 . S
H4112 C4125 0.929 . S
H4113 C4123 0.929 . S
H4114 C4118 0.929 . S
H4115 C4124 0.929 . S
C4116 H4110 0.930 . S
C4116 C4117 1.367 . S
C4116 C4124 1.378 . S
C4117 C4116 1.367 . S
C4117 C4125 1.433 . S
C4118 H4114 0.929 . S
C4118 C4120 1.378 . S
C4118 C4122 1.350 . S
C4119 C4122 1.463 . S
C4119 C4124 1.350 . S
C4119 N4127 1.427 . S
C4120 H4111 0.930 . S
C4120 C4118 1.378 . S
C4120 C4121 1.367 . S
C4121 C4120 1.367 . S
C4121 C4123 1.433 . S
C4122 C4118 1.350 . S
C4122 C4119 1.463 . S
C4122 N4126 1.427 . S
C4123 H4113 0.929 . S
C4123 C4121 1.433 . S
C4123 N4126 1.384 . S
C4124 H4115 0.929 . S
C4124 C4116 1.378 . S
C4124 C4119 1.350 . S
C4125 H4112 0.929 . S
C4125 C4117 1.433 . S
C4125 N4127 1.384 . S
N4126 C4122 1.427 . S
N4126 C4123 1.384 . S
N4127 C4119 1.427 . S
N4127 C4125 1.384 . S
H4128 C4134 0.930 . S
H4129 C4138 0.930 . S
H4130 C4143 0.929 . S
H4131 C4141 0.929 . S
H4132 C4136 0.929 . S
H4133 C4142 0.929 . S
C4134 H4128 0.930 . S
C4134 C4135 1.367 . S
C4134 C4142 1.378 . S
C4135 C4134 1.367 . S
C4135 C4143 1.433 1_545 S
C4136 H4132 0.929 . S
C4136 C4138 1.378 . S
C4136 C4140 1.350 1_565 S
C4137 C4140 1.463 . S
C4137 C4142 1.350 . S
C4137 N4145 1.427 1_545 S
C4138 H4129 0.930 . S
C4138 C4136 1.378 . S
C4138 C4139 1.367 1_565 S
C4139 C4138 1.367 1_545 S
C4139 C4141 1.433 . S
C4140 C4136 1.350 1_545 S
C4140 C4137 1.463 . S
C4140 N4144 1.427 . S
C4141 H4131 0.929 . S
C4141 C4139 1.433 . S
C4141 N4144 1.384 . S
C4142 H4133 0.929 . S
C4142 C4134 1.378 . S
C4142 C4137 1.350 . S
C4143 H4130 0.929 . S
C4143 C4135 1.433 1_565 S
C4143 N4145 1.384 . S
N4144 C4140 1.427 . S
N4144 C4141 1.384 . S
N4145 C4137 1.427 1_565 S
N4145 C4143 1.384 . S
H4146 C4152 0.930 . S
H4147 C4156 0.930 . S
H4148 C4161 0.929 . S
H4149 C4159 0.929 . S
H4150 C4154 0.929 . S
H4151 C4160 0.929 . S
C4152 H4146 0.930 . S
C4152 C4153 1.367 . S
C4152 C4160 1.378 . S
C4153 C4152 1.367 . S
C4153 C4161 1.433 . S
C4154 H4150 0.929 . S
C4154 C4156 1.378 . S
C4154 C4158 1.350 . S
C4155 C4158 1.463 . S
C4155 C4160 1.350 . S
C4155 N4163 1.427 . S
C4156 H4147 0.930 . S
C4156 C4154 1.378 . S
C4156 C4157 1.367 . S
C4157 C4156 1.367 . S
C4157 C4159 1.433 . S
C4158 C4154 1.350 . S
C4158 C4155 1.463 . S
C4158 N4162 1.427 . S
C4159 H4149 0.929 . S
C4159 C4157 1.433 . S
C4159 N4162 1.384 . S
C4160 H4151 0.929 . S
C4160 C4152 1.378 . S
C4160 C4155 1.350 . S
C4161 H4148 0.929 . S
C4161 C4153 1.433 . S
C4161 N4163 1.384 . S
N4162 C4158 1.427 . S
N4162 C4159 1.384 . S
N4163 C4155 1.427 . S
N4163 C4161 1.384 . S
H4164 C4170 0.930 . S
H4165 C4174 0.930 . S
H4166 C4179 0.929 . S
H4167 C4177 0.929 . S
H4168 C4172 0.929 . S
H4169 C4178 0.929 . S
C4170 H4164 0.930 . S
C4170 C4171 1.367 . S
C4170 C4178 1.378 . S
C4171 C4170 1.367 . S
C4171 C4179 1.433 . S
C4172 H4168 0.929 . S
C4172 C4174 1.378 . S
C4172 C4176 1.350 . S
C4173 C4176 1.463 . S
C4173 C4178 1.350 . S
C4173 N4181 1.427 . S
C4174 H4165 0.930 . S
C4174 C4172 1.378 . S
C4174 C4175 1.367 . S
C4175 C4174 1.367 . S
C4175 C4177 1.433 . S
C4176 C4172 1.350 . S
C4176 C4173 1.463 . S
C4176 N4180 1.427 . S
C4177 H4167 0.929 . S
C4177 C4175 1.433 . S
C4177 N4180 1.384 . S
C4178 H4169 0.929 . S
C4178 C4170 1.378 . S
C4178 C4173 1.350 . S
C4179 H4166 0.929 . S
C4179 C4171 1.433 . S
C4179 N4181 1.384 . S
N4180 C4176 1.427 . S
N4180 C4177 1.384 . S
N4181 C4173 1.427 . S
N4181 C4179 1.384 . S
H4182 C4188 0.930 . S
H4183 C4192 0.930 . S
H4184 C4197 0.929 . S
H4185 C4195 0.929 . S
H4186 C4190 0.929 . S
H4187 C4196 0.929 . S
C4188 H4182 0.930 . S
C4188 C4189 1.367 1_565 S
C4188 C4196 1.378 . S
C4189 C4188 1.367 1_545 S
C4189 C4197 1.433 . S
C4190 H4186 0.929 . S
C4190 C4192 1.378 . S
C4190 C4194 1.350 . S
C4191 C4194 1.463 . S
C4191 C4196 1.350 1_545 S
C4191 N4199 1.427 . S
C4192 H4183 0.930 . S
C4192 C4190 1.378 . S
C4192 C4193 1.367 . S
C4193 C4192 1.367 . S
C4193 C4195 1.433 1_545 S
C4194 C4190 1.350 . S
C4194 C4191 1.463 . S
C4194 N4198 1.427 1_545 S
C4195 H4185 0.929 . S
C4195 C4193 1.433 1_565 S
C4195 N4198 1.384 . S
C4196 H4187 0.929 . S
C4196 C4188 1.378 . S
C4196 C4191 1.350 1_565 S
C4197 H4184 0.929 . S
C4197 C4189 1.433 . S
C4197 N4199 1.384 . S
N4198 C4194 1.427 1_565 S
N4198 C4195 1.384 . S
N4199 C4191 1.427 . S
N4199 C4197 1.384 . S
H4200 C4206 0.930 . S
H4201 C4210 0.930 . S
H4202 C4215 0.929 . S
H4203 C4213 0.929 . S
H4204 C4208 0.929 . S
H4205 C4214 0.929 . S
C4206 H4200 0.930 . S
C4206 C4207 1.367 . S
C4206 C4214 1.378 . S
C4207 C4206 1.367 . S
C4207 C4215 1.433 1_565 S
C4208 H4204 0.929 . S
C4208 C4210 1.378 . S
C4208 C4212 1.350 1_545 S
C4209 C4212 1.463 . S
C4209 C4214 1.350 . S
C4209 N4217 1.427 1_565 S
C4210 H4201 0.930 . S
C4210 C4208 1.378 . S
C4210 C4211 1.367 1_545 S
C4211 C4210 1.367 1_565 S
C4211 C4213 1.433 . S
C4212 C4208 1.350 1_565 S
C4212 C4209 1.463 . S
C4212 N4216 1.427 . S
C4213 H4203 0.929 . S
C4213 C4211 1.433 . S
C4213 N4216 1.384 . S
C4214 H4205 0.929 . S
C4214 C4206 1.378 . S
C4214 C4209 1.350 . S
C4215 H4202 0.929 . S
C4215 C4207 1.433 1_545 S
C4215 N4217 1.384 . S
N4216 C4212 1.427 . S
N4216 C4213 1.384 . S
N4217 C4209 1.427 1_545 S
N4217 C4215 1.384 . S
H4218 C4224 0.930 . S
H4219 C4228 0.930 . S
H4220 C4233 0.929 . S
H4221 C4231 0.929 . S
H4222 C4226 0.929 . S
H4223 C4232 0.929 . S
C4224 H4218 0.930 . S
C4224 C4225 1.367 . S
C4224 C4232 1.378 . S
C4225 C4224 1.367 . S
C4225 C4233 1.433 . S
C4226 H4222 0.929 . S
C4226 C4228 1.378 . S
C4226 C4230 1.350 . S
C4227 C4230 1.463 . S
C4227 C4232 1.350 . S
C4227 N4235 1.427 . S
C4228 H4219 0.930 . S
C4228 C4226 1.378 . S
C4228 C4229 1.367 . S
C4229 C4228 1.367 . S
C4229 C4231 1.433 . S
C4230 C4226 1.350 . S
C4230 C4227 1.463 . S
C4230 N4234 1.427 . S
C4231 H4221 0.929 . S
C4231 C4229 1.433 . S
C4231 N4234 1.384 . S
C4232 H4223 0.929 . S
C4232 C4224 1.378 . S
C4232 C4227 1.350 . S
C4233 H4220 0.929 . S
C4233 C4225 1.433 . S
C4233 N4235 1.384 . S
N4234 C4230 1.427 . S
N4234 C4231 1.384 . S
N4235 C4227 1.427 . S
N4235 C4233 1.384 . S
H4236 C4242 0.930 . S
H4237 C4246 0.930 . S
H4238 C4251 0.929 . S
H4239 C4249 0.929 . S
H4240 C4244 0.929 . S
H4241 C4250 0.929 . S
C4242 H4236 0.930 . S
C4242 C4243 1.367 . S
C4242 C4250 1.378 . S
C4243 C4242 1.367 . S
C4243 C4251 1.433 . S
C4244 H4240 0.929 . S
C4244 C4246 1.378 . S
C4244 C4248 1.350 . S
C4245 C4248 1.463 . S
C4245 C4250 1.350 . S
C4245 N4253 1.427 . S
C4246 H4237 0.930 . S
C4246 C4244 1.378 . S
C4246 C4247 1.367 . S
C4247 C4246 1.367 . S
C4247 C4249 1.433 . S
C4248 C4244 1.350 . S
C4248 C4245 1.463 . S
C4248 N4252 1.427 . S
C4249 H4239 0.929 . S
C4249 C4247 1.433 . S
C4249 N4252 1.384 . S
C4250 H4241 0.929 . S
C4250 C4242 1.378 . S
C4250 C4245 1.350 . S
C4251 H4238 0.929 . S
C4251 C4243 1.433 . S
C4251 N4253 1.384 . S
N4252 C4248 1.427 . S
N4252 C4249 1.384 . S
N4253 C4245 1.427 . S
N4253 C4251 1.384 . S
H4254 C4260 0.930 . S
H4255 C4264 0.930 . S
H4256 C4269 0.929 . S
H4257 C4267 0.929 . S
H4258 C4262 0.929 . S
H4259 C4268 0.929 . S
C4260 H4254 0.930 . S
C4260 C4261 1.367 . S
C4260 C4268 1.378 . S
C4261 C4260 1.367 . S
C4261 C4269 1.433 1_565 S
C4262 H4258 0.929 . S
C4262 C4264 1.378 . S
C4262 C4266 1.350 1_545 S
C4263 C4266 1.463 . S
C4263 C4268 1.350 . S
C4263 N4271 1.427 1_565 S
C4264 H4255 0.930 . S
C4264 C4262 1.378 . S
C4264 C4265 1.367 1_545 S
C4265 C4264 1.367 1_565 S
C4265 C4267 1.433 . S
C4266 C4262 1.350 1_565 S
C4266 C4263 1.463 . S
C4266 N4270 1.427 . S
C4267 H4257 0.929 . S
C4267 C4265 1.433 . S
C4267 N4270 1.384 . S
C4268 H4259 0.929 . S
C4268 C4260 1.378 . S
C4268 C4263 1.350 . S
C4269 H4256 0.929 . S
C4269 C4261 1.433 1_545 S
C4269 N4271 1.384 . S
N4270 C4266 1.427 . S
N4270 C4267 1.384 . S
N4271 C4263 1.427 1_545 S
N4271 C4269 1.384 . S
H4272 C4278 0.930 . S
H4273 C4282 0.930 . S
H4274 C4287 0.929 . S
H4275 C4285 0.929 . S
H4276 C4280 0.929 . S
H4277 C4286 0.929 . S
C4278 H4272 0.930 . S
C4278 C4279 1.367 . S
C4278 C4286 1.378 . S
C4279 C4278 1.367 . S
C4279 C4287 1.433 . S
C4280 H4276 0.929 . S
C4280 C4282 1.378 . S
C4280 C4284 1.350 . S
C4281 C4284 1.463 . S
C4281 C4286 1.350 . S
C4281 N4289 1.427 . S
C4282 H4273 0.930 . S
C4282 C4280 1.378 . S
C4282 C4283 1.367 . S
C4283 C4282 1.367 . S
C4283 C4285 1.433 . S
C4284 C4280 1.350 . S
C4284 C4281 1.463 . S
C4284 N4288 1.427 . S
C4285 H4275 0.929 . S
C4285 C4283 1.433 . S
C4285 N4288 1.384 . S
C4286 H4277 0.929 . S
C4286 C4278 1.378 . S
C4286 C4281 1.350 . S
C4287 H4274 0.929 . S
C4287 C4279 1.433 . S
C4287 N4289 1.384 . S
N4288 C4284 1.427 . S
N4288 C4285 1.384 . S
N4289 C4281 1.427 . S
N4289 C4287 1.384 . S
H4290 C4296 0.930 . S
H4291 C4300 0.930 1_554 S
H4292 C4305 0.929 . S
H4293 C4303 0.929 . S
H4294 C4298 0.929 . S
H4295 C4304 0.929 . S
C4296 H4290 0.930 . S
C4296 C4297 1.367 . S
C4296 C4304 1.378 . S
C4297 C4296 1.367 . S
C4297 C4305 1.433 . S
C4298 H4294 0.929 . S
C4298 C4300 1.378 . S
C4298 C4302 1.350 . S
C4299 C4302 1.463 . S
C4299 C4304 1.350 . S
C4299 N4307 1.427 . S
C4300 H4291 0.930 1_556 S
C4300 C4298 1.378 . S
C4300 C4301 1.367 . S
C4301 C4300 1.367 . S
C4301 C4303 1.433 . S
C4302 C4298 1.350 . S
C4302 C4299 1.463 . S
C4302 N4306 1.427 . S
C4303 H4293 0.929 . S
C4303 C4301 1.433 . S
C4303 N4306 1.384 . S
C4304 H4295 0.929 . S
C4304 C4296 1.378 . S
C4304 C4299 1.350 . S
C4305 H4292 0.929 . S
C4305 C4297 1.433 . S
C4305 N4307 1.384 . S
N4306 C4302 1.427 . S
N4306 C4303 1.384 . S
N4307 C4299 1.427 . S
N4307 C4305 1.384 . S
H4308 C4314 0.930 . S
H4309 C4318 0.930 . S
H4310 C4323 0.929 . S
H4311 C4321 0.929 . S
H4312 C4316 0.929 . S
H4313 C4322 0.929 . S
C4314 H4308 0.930 . S
C4314 C4315 1.367 . S
C4314 C4322 1.378 . S
C4315 C4314 1.367 . S
C4315 C4323 1.433 . S
C4316 H4312 0.929 . S
C4316 C4318 1.378 . S
C4316 C4320 1.350 . S
C4317 C4320 1.463 . S
C4317 C4322 1.350 . S
C4317 N4325 1.427 . S
C4318 H4309 0.930 . S
C4318 C4316 1.378 . S
C4318 C4319 1.367 . S
C4319 C4318 1.367 . S
C4319 C4321 1.433 . S
C4320 C4316 1.350 . S
C4320 C4317 1.463 . S
C4320 N4324 1.427 . S
C4321 H4311 0.929 . S
C4321 C4319 1.433 . S
C4321 N4324 1.384 . S
C4322 H4313 0.929 . S
C4322 C4314 1.378 . S
C4322 C4317 1.350 . S
C4323 H4310 0.929 . S
C4323 C4315 1.433 . S
C4323 N4325 1.384 . S
N4324 C4320 1.427 . S
N4324 C4321 1.384 . S
N4325 C4317 1.427 . S
N4325 C4323 1.384 . S
H4326 C4332 0.930 . S
H4327 C4336 0.930 . S
H4328 C4341 0.929 . S
H4329 C4339 0.929 . S
H4330 C4334 0.929 . S
H4331 C4340 0.929 . S
C4332 H4326 0.930 . S
C4332 C4333 1.367 . S
C4332 C4340 1.378 . S
C4333 C4332 1.367 . S
C4333 C4341 1.433 . S
C4334 H4330 0.929 . S
C4334 C4336 1.378 . S
C4334 C4338 1.350 . S
C4335 C4338 1.463 . S
C4335 C4340 1.350 . S
C4335 N4343 1.427 . S
C4336 H4327 0.930 . S
C4336 C4334 1.378 . S
C4336 C4337 1.367 . S
C4337 C4336 1.367 . S
C4337 C4339 1.433 . S
C4338 C4334 1.350 . S
C4338 C4335 1.463 . S
C4338 N4342 1.427 . S
C4339 H4329 0.929 . S
C4339 C4337 1.433 . S
C4339 N4342 1.384 . S
C4340 H4331 0.929 . S
C4340 C4332 1.378 . S
C4340 C4335 1.350 . S
C4341 H4328 0.929 . S
C4341 C4333 1.433 . S
C4341 N4343 1.384 . S
N4342 C4338 1.427 . S
N4342 C4339 1.384 . S
N4343 C4335 1.427 . S
N4343 C4341 1.384 . S
H4344 C4350 0.930 . S
H4345 C4354 0.930 . S
H4346 C4359 0.929 . S
H4347 C4357 0.929 . S
H4348 C4352 0.929 . S
H4349 C4358 0.929 . S
C4350 H4344 0.930 . S
C4350 C4351 1.367 . S
C4350 C4358 1.378 . S
C4351 C4350 1.367 . S
C4351 C4359 1.433 . S
C4352 H4348 0.929 . S
C4352 C4354 1.378 . S
C4352 C4356 1.350 . S
C4353 C4356 1.463 . S
C4353 C4358 1.350 . S
C4353 N4361 1.427 . S
C4354 H4345 0.930 . S
C4354 C4352 1.378 . S
C4354 C4355 1.367 . S
C4355 C4354 1.367 . S
C4355 C4357 1.433 . S
C4356 C4352 1.350 . S
C4356 C4353 1.463 . S
C4356 N4360 1.427 . S
C4357 H4347 0.929 . S
C4357 C4355 1.433 . S
C4357 N4360 1.384 . S
C4358 H4349 0.929 . S
C4358 C4350 1.378 . S
C4358 C4353 1.350 . S
C4359 H4346 0.929 . S
C4359 C4351 1.433 . S
C4359 N4361 1.384 . S
N4360 C4356 1.427 . S
N4360 C4357 1.384 . S
N4361 C4353 1.427 . S
N4361 C4359 1.384 . S
H4362 C4368 0.930 . S
H4363 C4372 0.930 . S
H4364 C4377 0.929 . S
H4365 C4375 0.929 . S
H4366 C4370 0.929 . S
H4367 C4376 0.929 . S
C4368 H4362 0.930 . S
C4368 C4369 1.367 . S
C4368 C4376 1.378 . S
C4369 C4368 1.367 . S
C4369 C4377 1.433 . S
C4370 H4366 0.929 . S
C4370 C4372 1.378 . S
C4370 C4374 1.350 . S
C4371 C4374 1.463 . S
C4371 C4376 1.350 . S
C4371 N4379 1.427 . S
C4372 H4363 0.930 . S
C4372 C4370 1.378 . S
C4372 C4373 1.367 . S
C4373 C4372 1.367 . S
C4373 C4375 1.433 . S
C4374 C4370 1.350 . S
C4374 C4371 1.463 . S
C4374 N4378 1.427 . S
C4375 H4365 0.929 . S
C4375 C4373 1.433 . S
C4375 N4378 1.384 . S
C4376 H4367 0.929 . S
C4376 C4368 1.378 . S
C4376 C4371 1.350 . S
C4377 H4364 0.929 . S
C4377 C4369 1.433 . S
C4377 N4379 1.384 . S
N4378 C4374 1.427 . S
N4378 C4375 1.384 . S
N4379 C4371 1.427 . S
N4379 C4377 1.384 . S
H4380 C4386 0.930 . S
H4381 C4390 0.930 . S
H4382 C4395 0.929 . S
H4383 C4393 0.929 . S
H4384 C4388 0.929 . S
H4385 C4394 0.929 . S
C4386 H4380 0.930 . S
C4386 C4387 1.367 . S
C4386 C4394 1.378 . S
C4387 C4386 1.367 . S
C4387 C4395 1.433 . S
C4388 H4384 0.929 . S
C4388 C4390 1.378 . S
C4388 C4392 1.350 . S
C4389 C4392 1.463 . S
C4389 C4394 1.350 . S
C4389 N4397 1.427 . S
C4390 H4381 0.930 . S
C4390 C4388 1.378 . S
C4390 C4391 1.367 . S
C4391 C4390 1.367 . S
C4391 C4393 1.433 . S
C4392 C4388 1.350 . S
C4392 C4389 1.463 . S
C4392 N4396 1.427 . S
C4393 H4383 0.929 . S
C4393 C4391 1.433 . S
C4393 N4396 1.384 . S
C4394 H4385 0.929 . S
C4394 C4386 1.378 . S
C4394 C4389 1.350 . S
C4395 H4382 0.929 . S
C4395 C4387 1.433 . S
C4395 N4397 1.384 . S
N4396 C4392 1.427 . S
N4396 C4393 1.384 . S
N4397 C4389 1.427 . S
N4397 C4395 1.384 . S
H4398 C4404 0.930 . S
H4399 C4408 0.930 . S
H4400 C4413 0.929 . S
H4401 C4411 0.929 . S
H4402 C4406 0.929 . S
H4403 C4412 0.929 . S
C4404 H4398 0.930 . S
C4404 C4405 1.367 . S
C4404 C4412 1.378 . S
C4405 C4404 1.367 . S
C4405 C4413 1.433 . S
C4406 H4402 0.929 . S
C4406 C4408 1.378 . S
C4406 C4410 1.350 . S
C4407 C4410 1.463 . S
C4407 C4412 1.350 . S
C4407 N4415 1.427 . S
C4408 H4399 0.930 . S
C4408 C4406 1.378 . S
C4408 C4409 1.367 . S
C4409 C4408 1.367 . S
C4409 C4411 1.433 . S
C4410 C4406 1.350 . S
C4410 C4407 1.463 . S
C4410 N4414 1.427 . S
C4411 H4401 0.929 . S
C4411 C4409 1.433 . S
C4411 N4414 1.384 . S
C4412 H4403 0.929 . S
C4412 C4404 1.378 . S
C4412 C4407 1.350 . S
C4413 H4400 0.929 . S
C4413 C4405 1.433 . S
C4413 N4415 1.384 . S
N4414 C4410 1.427 . S
N4414 C4411 1.384 . S
N4415 C4407 1.427 . S
N4415 C4413 1.384 . S
C2695 C2156 1.500 . S
C2699 C56 1.490 . S
C2713 C2072 1.400 . S
C2717 C140 1.414 . S
C2731 C2324 1.412 . S
C2735 C223 1.470 . S
C2749 C2239 1.562 . S
C2753 C308 1.485 . S
C2767 C404 1.502 . S
C2771 C2504 1.492 . S
C2785 C488 1.414 . S
C2789 C2420 1.399 . S
C2803 C571 1.476 . S
C2807 C2672 1.405 . S
C2821 C2587 1.562 . S
C2825 C656 1.485 . S
C2839 C1484 1.398 . S
C2843 C728 1.416 . S
C2857 C1400 1.496 . S
C2861 C812 1.492 . S
C2875 C1652 1.488 . S
C2879 C895 1.563 . S
C2893 C1567 1.473 . S
C2897 C980 1.398 . S
C2911 C1076 1.406 . S
C2915 C1832 1.411 . S
C2929 C1748 1.485 . S
C2933 C1160 1.504 . S
C2947 C1243 1.558 . S
C2951 C2000 1.493 . S
C2965 C1915 1.475 . S
C2969 C1328 1.397 . S
C2983 C58 0.830 . S
C2987 C1750 0.819 . S
C3001 C1162 0.790 . S
C3005 C142 0.789 . S
C3019 C2578 0.332 . S
C3023 C238 0.331 . S
C3037 C310 0.856 . S
C3041 C658 0.846 . S
C3055 C406 0.844 . S
C3059 C1402 0.833 . S
C3073 C490 0.825 . S
C3077 C814 0.826 . S
C3091 C562 0.336 . S
C3095 C2254 0.336 . S
C3109 C2422 0.819 . S
C3113 C730 0.819 . S
C3127 C1906 0.370 . S
C3131 C910 0.371 . S
C3145 C1330 0.852 . S
C3149 C982 0.852 . S
C3163 C2074 0.811 . S
C3167 C1078 0.811 . S
C3181 C1234 0.377 . S
C3185 C1582 0.376 . S
C3199 C2506 0.793 . S
C3203 C1486 0.792 . S
C3217 C1654 0.855 . S
C3221 C2002 0.844 . S
C3235 C2158 0.811 . S
C3239 C1834 0.810 . S
C3253 C2326 0.816 . S
C3257 C2674 0.816 . S
C3271 C70 0.669 . S
C3275 C1666 0.704 . S
C3289 C154 0.709 . S
C3293 C1570 0.675 . S
C3307 C226 0.676 . S
C3311 C1498 0.681 . S
C3325 C322 0.659 . S
C3329 C1414 0.707 . S
C3343 C394 0.706 . S
C3347 C1990 0.663 . S
C3361 C478 0.686 . S
C3365 C1918 0.678 . S
C3379 C574 0.677 . S
C3383 C1822 0.704 . S
C3397 C646 0.665 . S
C3401 C1738 0.685 . S
C3415 C742 0.656 . S
C3419 C2338 0.703 . S
C3433 C826 0.686 . S
C3437 C2242 0.668 . S
C3451 C898 0.665 . S
C3455 C2170 0.731 . S
C3469 C994 0.664 . S
C3473 C2086 0.708 . S
C3487 C2662 0.657 . S
C3491 C1066 0.703 . S
C3505 C2590 0.670 . S
C3509 C1150 0.684 . S
C3523 C2494 0.682 . S
C3527 C1246 0.678 . S
C3541 C2410 0.707 . S
C3545 C1318 0.667 . S
C3559 C235 2.087 . S
C3563 C68 2.131 . S
C3577 C320 2.142 . S
C3581 C152 2.136 . S
C3595 C559 2.093 . S
C3599 C392 2.129 . S
C3613 C476 2.141 . S
C3617 C644 2.137 . S
C3631 C907 2.185 . S
C3635 C740 2.219 . S
C3649 C824 2.225 . S
C3653 C992 2.223 . S
C3667 C1231 2.180 . S
C3671 C1064 2.221 . S
C3685 C1148 2.223 . S
C3689 C1316 2.225 . S
C3703 C1412 2.132 . S
C3707 C1579 2.091 . S
C3721 C1496 2.140 . S
C3725 C1664 2.134 . S
C3739 C1903 2.095 . S
C3743 C1736 2.128 . S
C3757 C1820 2.142 . S
C3761 C1988 2.136 . S
C3775 C2084 2.219 . S
C3779 C2251 2.183 . S
C3793 C2336 2.225 . S
C3797 C2168 2.223 . S
C3811 C2408 2.221 . S
C3815 C2575 2.179 . S
C3829 C2492 2.222 . S
C3833 C2660 2.226 . S
C3847 C67 3.012 1_546 S
C3851 C655 3.011 1_545 S
C3865 C2588 3.017 . S
C3869 C151 3.001 1_456 S
C3883 C236 3.059 . S
C3887 C1159 3.040 . S
C3901 C319 3.011 1_445 S
C3905 C1747 3.012 1_545 S
C3919 C307 3.012 1_565 S
C3923 C391 3.014 1_564 S
C3937 C475 3.001 1_654 S
C3941 C2240 3.016 . S
C3955 C811 3.035 . S
C3959 C560 3.058 . S
C3973 C1399 3.012 1_565 S
C3977 C643 3.011 1_665 S
C3991 C739 3.021 . S
C3995 C1327 3.013 . S
C4009 C1916 3.022 . S
C4013 C823 3.005 1_455 S
C4027 C908 3.062 . S
C4031 C487 3.040 . S
C4045 C2419 3.011 . S
C4049 C991 3.019 1_455 S
C4063 C1063 3.022 . S
C4067 C979 3.014 . S
C4081 C1147 3.003 1_655 S
C4085 C1568 3.022 . S
C4099 C1232 3.064 . S
C4103 C139 3.042 . S
C4117 C2071 3.007 . S
C4121 C1315 3.019 1_655 S
C4135 C1411 3.014 1_545 S
C4139 C1999 3.013 1_545 S
C4153 C1495 2.999 . S
C4157 C1244 3.017 . S
C4171 C1580 3.059 . S
C4175 C2503 3.035 . S
C4189 C1663 3.010 1_545 S
C4193 C403 3.012 1_545 S
C4207 C1735 3.014 1_565 S
C4211 C1651 3.012 1_565 S
C4225 C896 3.017 . S
C4229 C1819 2.999 . S
C4243 C2155 3.040 . S
C4247 C1904 3.059 . S
C4261 C1987 3.012 1_565 S
C4265 C55 3.009 1_565 S
C4279 C2671 3.014 . S
C4283 C2083 3.022 1_556 S
C4297 C572 3.022 . S
C4301 C2167 3.006 1_556 S
C4315 C1831 3.042 . S
C4319 C2252 3.062 . S
C4333 C2335 3.018 . S
C4337 C1075 3.007 . S
C4351 C2323 3.014 . S
C4355 C2407 3.022 1_554 S
C4369 C224 3.022 . S
C4373 C2491 3.003 1_554 S
C4387 C1483 3.044 . S
C4391 C2576 3.064 . S
C4405 C2659 3.016 . S
C4409 C727 3.009 . S
