# Generated by pormake.
# Topology smc, (6)-cn, num edge types: 1
# Building blocks:
#     Node 0, Type 0, BuildingBlock: JUFBIX_clean_sbu_0, # of connection points: 6
#     Node 1, Type 0, BuildingBlock: JUFBIX_clean_sbu_0, # of connection points: 6
#     Node 2, Type 0, BuildingBlock: JUFBIX_clean_sbu_0, # of connection points: 6
#     Node 3, Type 0, BuildingBlock: JUFBIX_clean_sbu_0, # of connection points: 6
#     Node 4, Type 0, BuildingBlock: JUFBIX_clean_sbu_0, # of connection points: 6
#     Node 5, Type 0, BuildingBlock: JUFBIX_clean_sbu_0, # of connection points: 6
#     Node 6, Type 0, BuildingBlock: JUFBIX_clean_sbu_0, # of connection points: 6
#     Node 7, Type 0, BuildingBlock: JUFBIX_clean_sbu_0, # of connection points: 6
#     Node 8, Type 0, BuildingBlock: JUFBIX_clean_sbu_0, # of connection points: 6
#     Edge 9, Type (0, 0), BuildingBlock: AJUNOK_clean_linker_0, # of connection points: 2
#     Edge 10, Type (0, 0), BuildingBlock: AJUNOK_clean_linker_0, # of connection points: 2
#     Edge 11, Type (0, 0), BuildingBlock: AJUNOK_clean_linker_0, # of connection points: 2
#     Edge 12, Type (0, 0), BuildingBlock: AJUNOK_clean_linker_0, # of connection points: 2
#     Edge 13, Type (0, 0), BuildingBlock: AJUNOK_clean_linker_0, # of connection points: 2
#     Edge 14, Type (0, 0), BuildingBlock: AJUNOK_clean_linker_0, # of connection points: 2
#     Edge 15, Type (0, 0), BuildingBlock: AJUNOK_clean_linker_0, # of connection points: 2
#     Edge 16, Type (0, 0), BuildingBlock: AJUNOK_clean_linker_0, # of connection points: 2
#     Edge 17, Type (0, 0), BuildingBlock: AJUNOK_clean_linker_0, # of connection points: 2
#     Edge 18, Type (0, 0), BuildingBlock: AJUNOK_clean_linker_0, # of connection points: 2
#     Edge 19, Type (0, 0), BuildingBlock: AJUNOK_clean_linker_0, # of connection points: 2
#     Edge 20, Type (0, 0), BuildingBlock: AJUNOK_clean_linker_0, # of connection points: 2
#     Edge 21, Type (0, 0), BuildingBlock: AJUNOK_clean_linker_0, # of connection points: 2
#     Edge 22, Type (0, 0), BuildingBlock: AJUNOK_clean_linker_0, # of connection points: 2
#     Edge 23, Type (0, 0), BuildingBlock: AJUNOK_clean_linker_0, # of connection points: 2
#     Edge 24, Type (0, 0), BuildingBlock: AJUNOK_clean_linker_0, # of connection points: 2
#     Edge 25, Type (0, 0), BuildingBlock: AJUNOK_clean_linker_0, # of connection points: 2
#     Edge 26, Type (0, 0), BuildingBlock: AJUNOK_clean_linker_0, # of connection points: 2
#     Edge 27, Type (0, 0), BuildingBlock: AJUNOK_clean_linker_0, # of connection points: 2
#     Edge 28, Type (0, 0), BuildingBlock: AJUNOK_clean_linker_0, # of connection points: 2
#     Edge 29, Type (0, 0), BuildingBlock: AJUNOK_clean_linker_0, # of connection points: 2
#     Edge 30, Type (0, 0), BuildingBlock: AJUNOK_clean_linker_0, # of connection points: 2
#     Edge 31, Type (0, 0), BuildingBlock: AJUNOK_clean_linker_0, # of connection points: 2
#     Edge 32, Type (0, 0), BuildingBlock: AJUNOK_clean_linker_0, # of connection points: 2
#     Edge 33, Type (0, 0), BuildingBlock: AJUNOK_clean_linker_0, # of connection points: 2
#     Edge 34, Type (0, 0), BuildingBlock: AJUNOK_clean_linker_0, # of connection points: 2
#     Edge 35, Type (0, 0), BuildingBlock: AJUNOK_clean_linker_0, # of connection points: 2
# Relax obj value: 0.557
# Max RMSD: 0.327
# Mean RMSD: 0.317
data_MOF--net-smc--node1-JUFBIX_clean_sbu_0--edge1-AJUNOK_clean_linker_0
_symmetry_space_group_name_H-M    P1
_symmetry_Int_Tables_number       1
_symmetry_cell_setting            triclinic
loop_
_symmetry_equiv_pos_as_xyz
'x, y, z'
_cell_length_a     21.568173
_cell_length_b     26.041575
_cell_length_c     28.664388
_cell_angle_alpha  89.386682
_cell_angle_beta   89.638537
_cell_angle_gamma 120.27862
loop_
_atom_site_label
_atom_site_type_symbol
_atom_site_fract_x
_atom_site_fract_y
_atom_site_fract_z
_atom_type_partial_charge
Co0 Co 0.13381 0.5392 1.03947 0.0
C1 C 0.05615 0.45516 0.97108 0.0
Co2 Co 0.06448 0.45021 0.06823 0.0
C3 C 0.19256 0.66669 1.02364 0.0
C4 C 0.24082 0.63009 0.97999 0.0
N5 N 0.19383 0.61604 1.01579 0.0
N6 N 0.23614 0.71127 0.99379 0.0
C7 C 0.26775 0.68841 0.96709 0.0
H8 H 0.15825 0.67023 1.04954 0.0
H9 H 0.25287 0.59933 0.96285 0.0
C10 C 0.144 0.51926 0.13818 0.0
N11 N 0.99761 0.37338 0.08927 0.0
C12 C 0.92777 0.34608 0.07668 0.0
C13 C 0.99858 0.34103 0.12599 0.0
N14 N 0.88454 0.29948 0.1048 0.0
C15 C 0.92926 0.29532 0.13535 0.0
C16 C 0.2089 0.47916 1.04423 0.0
O17 O 0.17386 0.5595 0.1056 0.0
O18 O 0.08711 0.47207 0.12883 0.0
O19 O 0.15149 0.43692 0.06452 0.0
O20 O 0.20512 0.5222 1.02727 0.0
O21 O 1.03942 0.42333 1.00757 0.0
H22 H 1.04547 0.3523 0.14661 0.0
H23 H 0.90864 0.36172 1.04819 0.0
O24 O 0.0953 0.51168 0.97553 0.0
O25 O 0.0627 0.56104 1.05116 0.0
O26 O 0.9861 0.47036 0.07233 0.0
C27 C 0.99966 0.52348 0.0642 0.0
H28 H 0.30808 0.71193 0.94023 0.0
H29 H 0.91268 0.26333 0.16388 0.0
Co30 Co 0.6324 0.54049 0.09061 0.0
C31 C 0.65615 0.63529 0.15071 0.0
Co32 Co 0.67351 0.62509 0.05518 0.0
C33 C 0.54177 0.41744 0.11201 0.0
C34 C 0.60988 0.46483 0.16866 0.0
N35 N 0.59786 0.47032 0.12325 0.0
N36 N 0.51629 0.37952 0.14897 0.0
C37 C 0.55944 0.40924 0.1847 0.0
H38 H 0.51807 0.40824 0.07776 0.0
H39 H 0.64926 0.50044 0.18972 0.0
C40 C 0.65864 0.54022 0.99308 0.0
N41 N 0.70677 0.69765 1.0249 0.0
C42 C 0.67852 0.73327 1.02951 0.0
C43 C 0.75781 0.72399 0.99136 0.0
N44 N 0.70951 0.78077 1.00023 0.0
C45 C 0.75953 0.77513 0.97603 0.0
C46 C 0.7797 0.59606 0.08402 0.0
O47 O 0.64141 0.50599 1.02948 0.0
O48 O 0.66669 0.59127 0.99761 0.0
O49 O 0.77425 0.63585 0.06007 0.0
O50 O 0.72379 0.55661 0.10447 0.0
O51 O 0.68349 0.66436 0.11322 0.0
H52 H 0.78985 0.70608 0.97783 0.0
H53 H 0.63522 0.72412 0.05366 0.0
O54 O 0.62744 0.57881 0.14913 0.0
O55 O 0.53663 0.5188 0.07781 0.0
O56 O 0.57005 0.60683 1.04968 0.0
C57 C 0.51882 0.55443 0.0613 0.0
H58 H 0.55293 0.39384 0.22053 0.0
H59 H 0.79297 0.80445 0.94803 0.0
Co60 Co 0.50777 0.03293 1.02027 0.0
C61 C 0.48641 0.11041 0.95876 0.0
Co62 Co 0.44078 0.06641 1.04931 0.0
C63 C 0.57279 0.9592 1.0066 0.0
C64 C 0.61949 0.03684 0.96254 0.0
N65 N 0.56789 1.00762 0.99539 0.0
N66 N 0.62581 0.95754 0.98238 0.0
C67 C 0.6546 1.00606 0.95426 0.0
H68 H 0.53924 0.92644 1.03276 0.0
H69 H 0.63179 0.07843 0.94591 0.0
C70 C 0.45656 0.9925 0.11267 0.0
N71 N 0.3797 0.08888 0.07405 0.0
C72 C 0.39168 0.14435 0.07752 0.0
C73 C 0.31921 0.05475 0.09947 0.0
N74 N 0.34261 0.14678 0.10518 0.0
C75 C 0.29702 0.09067 0.11951 0.0
C76 C 0.36662 0.95782 1.00295 0.0
O77 O 0.49277 0.98604 0.07988 0.0
O78 O 0.43231 1.02682 0.10547 0.0
O79 O 0.35802 0.99493 1.02659 0.0
O80 O 0.42941 0.96799 0.99453 0.0
O81 O 0.4475 0.10802 0.99299 0.0
H82 H 0.29656 1.00768 0.10643 0.0
H83 H 0.44012 0.18317 0.06451 0.0
O84 O 0.51921 0.08096 0.96238 0.0
O85 O 0.58726 0.09653 1.04577 0.0
O86 O 0.52736 0.13742 0.07309 0.0
C87 C 0.58679 0.13802 0.06784 0.0
H88 H 0.69767 1.01835 0.9292 0.0
H89 H 0.25545 0.07764 0.14593 0.0
Co90 Co 0.79095 0.85019 0.3901 0.0
C91 C 0.69012 0.76741 0.32504 0.0
Co92 Co 0.70359 0.76568 0.42102 0.0
C93 C 0.86196 0.98071 0.37748 0.0
C94 C 0.89191 0.94186 0.32311 0.0
N95 N 0.85555 0.92803 0.36389 0.0
N96 N 0.89881 1.02663 0.3463 0.0
C97 C 0.91848 1.0014 0.31252 0.0
H98 H 0.83642 0.98374 0.40889 0.0
H99 H 0.8958 0.91004 0.30114 0.0
C100 C 0.80469 0.83754 0.4861 0.0
N101 N 0.64049 0.69513 0.44954 0.0
C102 C 0.56934 0.66194 0.44395 0.0
C103 C 0.65654 0.66578 0.48204 0.0
N104 N 0.54038 0.61296 0.47151 0.0
C105 C 0.5948 0.61508 0.49572 0.0
C106 C 0.82198 0.7635 0.38538 0.0
O107 O 0.83728 0.87412 0.45218 0.0
O108 O 0.74639 0.79066 0.47842 0.0
O109 O 0.76262 0.7343 0.40697 0.0
O110 O 0.8486 0.81861 0.37548 0.0
O111 O 0.66008 0.73832 0.36237 0.0
H112 H 0.70989 0.68025 0.49481 0.0
H113 H 0.53967 0.67259 0.41914 0.0
O114 O 0.74407 0.82047 0.32872 0.0
O115 O 0.73162 0.87922 0.40453 0.0
O116 O 0.64383 0.79739 0.43508 0.0
C117 C 0.67109 0.85202 0.42442 0.0
H118 H 0.94882 1.02352 0.28121 0.0
H119 H 0.59036 0.58222 0.52106 0.0
Co120 Co 0.23939 0.9105 0.36599 0.0
C121 C 0.34649 0.92252 0.30137 0.0
Co122 Co 0.34082 0.93809 0.39679 0.0
C123 C 0.09448 0.83033 0.3548 0.0
C124 C 0.1414 0.8798 0.29192 0.0
N125 N 0.15247 0.87917 0.33811 0.0
N126 N 1.04968 0.79734 0.32075 0.0
C127 C 0.07836 0.82937 0.28107 0.0
H128 H 0.0885 0.81731 0.39124 0.0
H129 H 0.18007 0.91141 0.26701 0.0
C130 C 0.24792 0.9411 0.46124 0.0
N131 N 0.42719 0.96858 0.42537 0.0
C132 C 0.46017 0.93798 0.43489 0.0
C133 C 0.4681 1.02213 0.44526 0.0
N134 N 0.51943 0.96955 0.45992 0.0
C135 C 0.52638 1.02329 0.46577 0.0
C136 C 0.31171 0.0302 0.36456 0.0
O137 O 0.20456 0.92581 0.42678 0.0
O138 O 0.30359 0.93754 0.45594 0.0
O139 O 0.35699 1.02124 0.38676 0.0
O140 O 0.25854 0.98581 0.34711 0.0
O141 O 0.38553 0.94243 0.3371 0.0
H142 H 0.45694 0.0582 0.4447 0.0
H143 H 0.44384 0.89433 0.42153 0.0
O144 O 0.27933 0.9017 0.30703 0.0
O145 O 0.2129 0.82961 0.38426 0.0
O146 O 0.31808 0.85147 0.40711 0.0
C147 C 0.25329 0.81092 0.39873 0.0
H148 H 0.05754 0.81691 0.24632 0.0
H149 H 0.57142 0.06087 0.48189 0.0
Co150 Co 0.16774 0.33461 0.37858 0.0
C151 C 0.17946 0.42192 0.3116 0.0
Co152 Co 0.11508 0.387 0.40135 0.0
C153 C 0.22442 0.24919 0.38211 0.0
C154 C 0.23362 0.28894 0.31505 0.0
N155 N 0.20933 0.28763 0.35891 0.0
N156 N 0.25757 0.22758 0.35439 0.0
C157 C 0.26318 0.25299 0.31233 0.0
H158 H 0.21197 0.2377 0.41871 0.0
H159 H 0.22982 0.31396 0.28604 0.0
C160 C 0.0938 0.30143 0.46883 0.0
N161 N 0.09142 0.44902 0.41693 0.0
C162 C 0.14167 0.50901 0.41326 0.0
C163 C 1.03056 0.44922 0.42758 0.0
N164 N 0.11537 0.54605 0.42091 0.0
C165 C 1.04485 0.50781 0.42975 0.0
C166 C 1.02299 0.27813 0.35688 0.0
O167 O 0.12953 0.2886 0.43936 0.0
O168 O 0.08623 0.34637 0.46022 0.0
O169 O 1.01985 0.32177 0.37641 0.0
O170 O 0.08331 0.28169 0.35152 0.0
O171 O 0.14117 0.42626 0.34291 0.0
H172 H 0.97848 0.40954 0.43191 0.0
H173 H 0.19667 0.52581 0.4022 0.0
O174 O 0.20016 0.38404 0.31862 0.0
O175 O 0.25314 0.38628 0.40635 0.0
O176 O 0.20682 0.44076 0.42589 0.0
C177 C 0.25915 0.43155 0.42611 0.0
H178 H 0.28523 0.2447 0.28117 0.0
H179 H 1.00549 0.52108 0.43638 0.0
Co180 Co 0.42457 0.19469 0.68298 0.0
C181 C 0.33989 0.09892 0.62169 0.0
Co182 Co 0.36475 0.10852 0.71736 0.0
C183 C 0.48395 0.32143 0.67381 0.0
C184 C 0.48585 0.28197 0.60913 0.0
N185 N 0.47003 0.26945 0.65488 0.0
N186 N 0.50698 0.36585 0.64158 0.0
C187 C 0.50861 0.341 0.60088 0.0
H188 H 0.47753 0.32638 0.71064 0.0
H189 H 0.47986 0.25002 0.58316 0.0
C190 C 0.44401 0.19087 0.78138 0.0
N191 N 0.31151 0.03281 0.74569 0.0
C192 C 0.23891 0.99808 0.74487 0.0
C193 C 0.33298 1.00244 0.77311 0.0
N194 N 0.21409 0.94789 0.77096 0.0
C195 C 0.27331 0.95002 0.78828 0.0
C196 C 0.51479 0.15058 0.69009 0.0
O197 O 0.47094 0.22608 0.74565 0.0
O198 O 0.39066 0.13993 0.77559 0.0
O199 O 0.46106 0.10826 0.71349 0.0
O200 O 0.50298 0.18667 0.66763 0.0
O201 O 0.33479 0.07144 0.65935 0.0
H202 H 0.38821 1.01772 0.78202 0.0
H203 H 0.20449 1.00877 0.72481 0.0
O204 O 0.37629 0.1561 0.62234 0.0
O205 O 0.34973 0.20904 0.6977 0.0
O206 O 0.27825 0.11825 0.7212 0.0
C207 C 0.28848 0.1703 0.71236 0.0
H208 H 0.52503 0.36379 0.56738 0.0
H209 H 0.27335 0.91639 0.81071 0.0
Co210 Co 0.93492 0.21136 0.74126 0.0
C211 C 0.98156 0.31406 0.79887 0.0
Co212 Co 0.98254 0.29535 0.70479 0.0
C213 C 0.85968 0.0844 0.76536 0.0
C214 C 0.84838 0.13859 0.81621 0.0
N215 N 0.88282 0.14154 0.77563 0.0
N216 N 0.81247 0.04687 0.79796 0.0
C217 C 0.80599 0.08089 0.83003 0.0
H218 H 0.87558 0.07066 0.73419 0.0
H219 H 0.84891 0.17526 0.83371 0.0
C220 C 0.95104 0.20719 0.64316 0.0
N221 N 1.03212 0.3661 0.67295 0.0
C222 C 1.02748 0.41469 0.68061 0.0
C223 C 0.08064 0.38152 0.6378 0.0
N224 N 0.07059 0.45986 0.6517 0.0
C225 C 0.10343 0.43923 0.62396 0.0
C226 C 0.07428 0.24762 0.73149 0.0
O227 O 0.93226 0.17154 0.67895 0.0
O228 O 0.9655 0.25943 0.6496 0.0
O229 O 0.07398 0.29056 0.70893 0.0
O230 O 1.01851 0.21195 0.75423 0.0
O231 O 1.00452 0.3391 0.75989 0.0
H232 H 0.0961 0.35197 0.62208 0.0
H233 H 0.98957 0.41579 0.70498 0.0
O234 O 0.94616 0.25732 0.79959 0.0
O235 O 0.84566 0.20391 0.72931 0.0
O236 O 0.88482 0.29188 0.69962 0.0
C237 C 0.83082 0.24106 0.71246 0.0
H238 H 0.77003 0.06495 0.85997 0.0
H239 H 0.13759 0.46283 0.5942 0.0
Co240 Co 0.82516 0.65793 0.72091 0.0
C241 C 0.8207 0.74838 0.66513 0.0
Co242 Co 0.76609 0.69632 0.75139 0.0
C243 C 0.91498 0.60744 0.6913 0.0
C244 C 0.85733 0.62201 0.63749 0.0
N245 N 0.8665 0.62481 0.6842 0.0
N246 N 0.93664 0.59482 0.65059 0.0
C247 C 0.90124 0.6054 0.6169 0.0
H248 H 0.9342 0.60461 0.72546 0.0
H249 H 0.82258 0.63367 0.61888 0.0
C250 C 0.76638 0.6074 0.80875 0.0
N251 N 0.72246 0.73062 0.78201 0.0
C252 C 0.74031 0.78739 0.77578 0.0
C253 C 0.66669 0.70753 0.81272 0.0
N254 N 0.69743 0.80065 0.8003 0.0
C255 C 0.65169 0.75138 0.82469 0.0
C256 C 0.67824 0.60031 0.70035 0.0
O257 O 0.79931 0.59961 0.77435 0.0
O258 O 0.75264 0.64919 0.80548 0.0
O259 O 0.67296 0.63485 0.72899 0.0
O260 O 0.73915 0.60628 0.69295 0.0
O261 O 0.77729 0.74423 0.69683 0.0
H262 H 0.63872 0.66194 0.82535 0.0
H263 H 0.78469 0.81903 0.75393 0.0
O264 O 0.84962 0.71664 0.66994 0.0
O265 O 0.91249 0.709 0.74777 0.0
O266 O 0.86235 0.75878 0.77302 0.0
C267 C 0.91876 0.75459 0.76754 0.0
H268 H 0.90779 0.6035 0.57969 0.0
H269 H 0.61067 0.74752 0.84881 0.0
C270 C 0.41442 0.56045 1.02558 0.0
C271 C 0.43894 0.53236 0.05616 0.0
C272 C 0.3403 0.53923 1.01988 0.0
C273 C 0.28516 0.48907 1.04495 0.0
H274 H 0.45281 0.59935 1.00566 0.0
H275 H 0.32653 0.56428 0.99607 0.0
S276 S 0.31976 0.39648 0.12794 0.0
N277 N 0.40083 0.44887 0.1108 0.0
N278 N 0.26281 0.4098 0.09959 0.0
C279 C 0.30885 0.45909 0.0744 0.0
C280 C 0.38483 0.48057 0.0802 0.0
C281 C 0.59678 0.85363 0.995 0.0
C282 C 0.64794 0.91378 0.98635 0.0
C283 C 0.61721 0.81046 0.99908 0.0
C284 C 0.68962 0.82572 0.99464 0.0
H285 H 0.5404 0.83974 0.99813 0.0
H286 H 0.57588 0.76462 1.00532 0.0
S287 S 0.84516 0.97754 0.97548 0.0
N288 N 0.77483 0.98675 0.97602 0.0
N289 N 0.81283 0.90549 0.98317 0.0
C290 C 0.74136 0.88567 0.98623 0.0
C291 C 0.72066 0.92971 0.98225 0.0
C292 C 0.27299 0.86061 1.03443 0.0
C293 C 0.30781 0.8969 0.99521 0.0
C294 C 0.24488 0.7989 1.0331 0.0
C295 C 0.24939 0.77153 0.9921 0.0
H296 H 0.27449 0.88058 0.06757 0.0
H297 H 0.22501 0.7735 0.06533 0.0
S298 S 0.31509 0.84599 0.87639 0.0
N299 N 0.33278 0.9007 0.91236 0.0
N300 N 0.27484 0.78437 0.90844 0.0
C301 C 0.27441 0.80668 0.95098 0.0
C302 C 0.30467 0.86951 0.95282 0.0
C303 C 0.35618 0.24463 0.10387 0.0
C304 C 0.35878 0.19954 0.12901 0.0
C305 C 0.40319 0.30413 0.11401 0.0
C306 C 0.45538 0.32012 0.14886 0.0
H307 H 0.32344 0.23391 0.07301 0.0
H308 H 0.40255 0.33752 0.09164 0.0
S309 S 0.47178 0.21594 0.23045 0.0
N310 N 0.40626 0.17276 0.1952 0.0
N311 N 0.49758 0.28474 0.21364 0.0
C312 C 0.4516 0.27485 0.17817 0.0
C313 C 0.40218 0.2143 0.1684 0.0
C314 C 0.70116 0.16256 0.10572 0.0
C315 C 0.65658 0.18302 0.08769 0.0
C316 C 0.7745 0.20119 0.11317 0.0
C317 C 0.80704 0.26218 0.10261 0.0
H318 H 0.67982 0.11539 0.11179 0.0
H319 H 0.80673 0.18251 0.12482 0.0
S320 S 0.71193 0.34021 0.06234 0.0
N321 N 0.64853 0.26932 0.06462 0.0
N322 N 0.78646 0.34272 0.07943 0.0
C323 C 0.76204 0.28416 0.08796 0.0
C324 C 0.68679 0.24445 0.08047 0.0
C325 C 0.94844 0.59062 1.04326 0.0
C326 C 0.94495 0.54328 0.07048 0.0
C327 C 0.89805 0.61033 1.04883 0.0
C328 C 0.84278 0.58492 0.08297 0.0
H329 H 0.98957 0.61176 1.01639 0.0
H330 H 0.90123 0.64439 1.02528 0.0
S331 S 0.81532 0.46426 0.16724 0.0
N332 N 0.88389 0.47437 0.13453 0.0
N333 N 0.7929 0.51228 0.14728 0.0
C334 C 0.84152 0.53948 0.11193 0.0
C335 C 0.89121 0.51846 0.10514 0.0
C336 C 0.90009 0.72137 0.39467 0.0
C337 C 0.85547 0.73228 0.36635 0.0
C338 C 0.96081 0.72402 0.3748 0.0
C339 C 0.9804 0.74517 0.32834 0.0
H340 H 0.89389 0.71919 0.43231 0.0
H341 H 0.99944 0.72309 0.39818 0.0
S342 S 0.85437 0.73536 0.23753 0.0
N343 N 0.81372 0.73102 0.28769 0.0
N344 N 0.93073 0.73898 0.25114 0.0
C345 C 0.92463 0.73542 0.29837 0.0
C346 C 0.86175 0.73079 0.3179 0.0
C347 C 0.3398 0.18674 0.34335 0.0
C348 C 0.27752 0.18267 0.3641 0.0
C349 C 0.35437 0.13938 0.34613 0.0
C350 C 0.30655 0.08547 0.36909 0.0
H351 H 0.3766 0.22638 0.32359 0.0
H352 H 0.40123 0.14388 0.32818 0.0
S353 S 0.13623 0.05156 0.42919 0.0
N354 N 0.16924 0.12031 0.40932 0.0
N355 N 0.19452 0.03149 0.41323 0.0
C356 C 0.24511 0.08157 0.39074 0.0
C357 C 0.23122 0.12998 0.38875 0.0
C358 C 0.96765 0.188 0.30786 0.0
C359 C 0.9616 0.21612 0.34812 0.0
C360 C 0.94434 0.1266 0.30704 0.0
C361 C 0.91293 0.08857 0.3465 0.0
H362 H 0.99794 0.21508 0.27794 0.0
H363 H 0.95457 0.11002 0.2753 0.0
S364 S 0.86475 0.1361 0.45658 0.0
N365 N 0.90763 0.19815 0.42516 0.0
N366 N 0.86394 0.08363 0.42445 0.0
C367 C 0.89856 0.11479 0.38524 0.0
C368 C 0.92233 0.1778 0.38571 0.0
C369 C 0.25206 0.71512 0.43069 0.0
C370 C 0.22179 0.74263 0.40332 0.0
C371 C 0.21846 0.65149 0.43589 0.0
C372 C 0.15199 0.61164 0.4147 0.0
H373 H 0.30165 0.74286 0.44883 0.0
H374 H 0.24407 0.63342 0.45753 0.0
S375 S 1.05574 0.65773 0.33317 0.0
N376 N 0.12468 0.72134 0.3498 0.0
N377 N 0.06204 0.60531 0.3617 0.0
C378 C 0.12267 0.63839 0.38645 0.0
C379 C 0.1572 0.70238 0.38023 0.0
C380 C 0.34332 0.53353 0.45322 0.0
C381 C 0.32803 0.47501 0.44617 0.0
C382 C 0.41244 0.57805 0.4645 0.0
C383 C 0.46791 0.56523 0.46964 0.0
H384 H 0.30291 0.54587 0.44756 0.0
H385 H 0.42352 0.62334 0.46729 0.0
S386 S 0.45296 0.41744 0.46188 0.0
N387 N 0.37159 0.40503 0.45072 0.0
N388 N 0.50208 0.48942 0.47144 0.0
C389 C 0.45212 0.50617 0.46637 0.0
C390 C 0.38186 0.46079 0.45468 0.0
C391 C 0.55507 0.90011 0.48676 0.0
C392 C 0.57264 0.95316 0.46287 0.0
C393 C 0.58734 0.86721 0.4744 0.0
C394 C 0.63747 0.88655 0.43749 0.0
H395 H 0.51183 0.88172 0.51241 0.0
H396 H 0.57141 0.82575 0.49282 0.0
S397 S 0.70158 1.02389 0.365 0.0
N398 N 0.6445 1.02515 0.40289 0.0
N399 N 0.70424 0.96313 0.37789 0.0
C400 C 0.65791 0.94133 0.41494 0.0
C401 C 0.62615 0.97505 0.42841 0.0
C402 C 0.72327 0.2449 0.67607 0.0
C403 C 0.75022 0.21955 0.70778 0.0
C404 C 0.64807 0.22027 0.66949 0.0
C405 C 0.59435 0.16861 0.69407 0.0
H406 H 0.76045 0.28371 0.65562 0.0
H407 H 0.63201 0.24309 0.64487 0.0
S408 S 0.63471 0.08433 0.78186 0.0
N409 N 0.7146 0.1386 0.76479 0.0
N410 N 0.57605 0.09348 0.75159 0.0
C411 C 0.62054 0.14258 0.72557 0.0
C412 C 0.69704 0.16765 0.73258 0.0
C413 C 0.07058 0.54815 0.67817 0.0
C414 C 0.05899 0.50806 0.64246 0.0
C415 C 1.03417 0.57986 0.67885 0.0
C416 C 0.98359 0.57104 0.64446 0.0
H417 H 0.10354 0.55121 0.70755 0.0
H418 H 1.04266 0.60875 0.70792 0.0
S419 S 0.93888 0.47233 0.54182 0.0
N420 N 1.00015 0.46467 0.57006 0.0
N421 N 0.92773 0.52078 0.57189 0.0
C422 C 0.97572 0.53382 0.60667 0.0
C423 C 1.01467 0.50326 0.60551 0.0
C424 C 0.63241 0.53003 0.63563 0.0
C425 C 0.61724 0.54913 0.67777 0.0
C426 C 0.59275 0.47082 0.62214 0.0
C427 C 0.53529 0.42839 0.6498 0.0
H428 H 0.68008 0.55971 0.6153 0.0
H429 H 0.61145 0.45759 0.592 0.0
S430 S 0.45589 0.46102 0.7524 0.0
N431 N 0.52937 0.52507 0.73993 0.0
N432 N 0.45233 0.41332 0.71348 0.0
C433 C 0.51236 0.44894 0.68778 0.0
C434 C 0.55364 0.50963 0.70186 0.0
C435 C 0.72837 0.89053 0.84277 0.0
C436 C 0.70648 0.85848 0.80141 0.0
C437 C 0.76142 0.95241 0.84143 0.0
C438 C 0.77335 0.98342 0.79871 0.0
H439 H 0.72532 0.86811 0.87549 0.0
H440 H 0.78136 0.97638 0.87359 0.0
S441 S 0.71316 0.91738 0.68229 0.0
N442 N 0.6899 0.86006 0.71792 0.0
N443 N 0.75113 0.97687 0.71533 0.0
C444 C 0.7461 0.9512 0.75776 0.0
C445 C 0.71245 0.8884 0.75922 0.0
C446 C 1.05137 0.79402 0.77273 0.0
C447 C 0.99322 0.80439 0.77701 0.0
C448 C 0.12307 0.84075 0.77257 0.0
C449 C 0.14021 0.90019 0.77621 0.0
H450 H 1.04161 0.74938 0.76773 0.0
H451 H 0.1654 0.83046 0.76749 0.0
S452 S 1.00994 0.95143 0.79616 0.0
N453 N 0.95896 0.87875 0.79059 0.0
N454 N 0.0938 0.96659 0.79005 0.0
C455 C 0.08321 0.91123 0.78326 0.0
C456 C 1.00987 0.8634 0.78389 0.0
C457 C 0.2541 0.24993 0.71992 0.0
C458 C 0.23266 0.1886 0.71802 0.0
C459 C 0.20394 0.26978 0.72319 0.0
C460 C 0.12979 0.22916 0.72505 0.0
H461 H 0.31063 0.28333 0.71903 0.0
H462 H 0.22344 0.317 0.72515 0.0
S463 S 1.04445 0.06481 0.71403 0.0
N464 N 0.1313 0.08846 0.71367 0.0
N465 N 1.03746 0.12464 0.71993 0.0
C466 C 0.10771 0.16788 0.72181 0.0
C467 C 0.15871 0.14789 0.71836 0.0
C468 C 0.1998 0.43817 0.22347 0.0
C469 C 0.19261 0.45865 0.26715 0.0
C470 C 0.19372 0.46443 0.1815 0.0
C471 C 0.18116 0.51297 0.18043 0.0
H472 H 0.20409 0.39856 0.22151 0.0
H473 H 0.19161 0.44248 0.14945 0.0
S474 S 0.17054 0.59034 0.28482 0.0
N475 N 0.18213 0.53672 0.30632 0.0
N476 N 0.16932 0.58387 0.22756 0.0
C477 C 0.1799 0.53694 0.22364 0.0
C478 C 0.18615 0.51049 0.26666 0.0
C479 C 0.70542 0.7632 0.23686 0.0
C480 C 0.67177 0.73422 0.27926 0.0
C481 C 0.69863 0.73105 0.19575 0.0
C482 C 0.65876 0.66804 0.1948 0.0
H483 H 0.73949 0.81113 0.23571 0.0
H484 H 0.72701 0.75609 0.16465 0.0
S485 S 0.55516 0.5699 0.29503 0.0
N486 N 0.59239 0.63761 0.31619 0.0
N487 N 0.58145 0.57843 0.23989 0.0
C488 C 0.62277 0.6386 0.2364 0.0
C489 C 0.62871 0.67122 0.27811 0.0
C490 C 0.36115 0.92284 0.16814 0.0
C491 C 0.4352 0.95917 0.1583 0.0
C492 C 0.33368 0.90803 0.21413 0.0
C493 C 0.37882 0.92944 0.25311 0.0
H494 H 0.3232 0.90941 0.14002 0.0
H495 H 0.27595 0.88239 0.21904 0.0
S496 S 0.57806 1.02306 0.24693 0.0
N497 N 0.55373 1.01362 0.19169 0.0
N498 N 0.5032 0.98568 0.27811 0.0
C499 C 0.4537 0.96285 0.24382 0.0
C500 C 0.48154 0.97784 0.19663 0.0
C501 C 0.52956 0.1477 0.87513 0.0
C502 C 0.48971 0.14542 0.91514 0.0
C503 C 0.52466 0.17352 0.83249 0.0
C504 C 0.4794 0.19786 0.82742 0.0
H505 H 0.56183 0.12658 0.87591 0.0
H506 H 0.55121 0.16916 0.80195 0.0
S507 S 0.37133 0.21117 0.92241 0.0
N508 N 0.41026 0.17763 0.94767 0.0
N509 N 0.39954 0.22289 0.86757 0.0
C510 C 0.44401 0.2001 0.86795 0.0
C511 C 0.4494 0.17468 0.91153 0.0
C512 C 0.98668 0.36015 0.92623 0.0
C513 C 1.03314 0.42282 0.92539 0.0
C514 C 0.96973 0.32563 0.8857 0.0
C515 C 0.99781 0.35175 0.84179 0.0
H516 H 0.96389 0.33673 0.95896 0.0
H517 H 0.93489 0.2779 0.88903 0.0
S518 S 0.11863 0.51432 0.81893 0.0
N519 N 0.10454 0.50943 0.87592 0.0
N520 N 0.07254 0.44563 0.79968 0.0
C521 C 1.04254 0.41473 0.83999 0.0
C522 C 0.06007 0.44986 0.88157 0.0
C523 C 0.78032 0.57026 0.88859 0.0
C524 C 0.7361 0.56725 0.85139 0.0
C525 C 0.75218 0.55132 0.93465 0.0
C526 C 0.67857 0.52838 0.94571 0.0
H527 H 0.83793 0.59269 0.88317 0.0
H528 H 0.78973 0.56078 0.96268 0.0
S529 S 0.53973 0.50833 0.86101 0.0
N530 N 0.61399 0.53599 0.82904 0.0
N531 N 0.56251 0.50131 0.9145 0.0
C532 C 0.63356 0.52112 0.90814 0.0
C533 C 0.66188 0.54035 0.86154 0.0
C534 C 0.79209 0.84038 0.57181 0.0
C535 C 0.83384 0.84098 0.53355 0.0
C536 C 0.79197 0.81401 0.61506 0.0
C537 C 0.83278 0.786 0.62196 0.0
H538 H 0.75398 0.85545 0.56697 0.0
H539 H 0.75566 0.81207 0.64221 0.0
S540 S 0.95864 0.7822 0.5347 0.0
N541 N 0.92263 0.81657 0.50698 0.0
N542 N 0.92313 0.76736 0.58783 0.0
C543 C 0.8795 0.79085 0.5852 0.0
C544 C 0.8799 0.81825 0.54125 0.0
C545 C 0.30696 0.04379 0.49505 0.0
C546 C 0.25285 0.98289 0.49914 0.0
C547 C 0.33147 0.08243 0.53361 0.0
C548 C 0.30437 0.06193 0.57891 0.0
H549 H 0.33447 0.06128 0.4621 0.0
H550 H 0.37533 0.12756 0.52826 0.0
S551 S 0.15738 0.90805 0.60907 0.0
N552 N 0.16999 0.90567 0.5524 0.0
N553 N 0.21453 0.9769 0.62469 0.0
C554 C 0.24729 1.00188 0.58319 0.0
C555 C 0.22222 0.96281 0.54367 0.0
C556 C 0.94146 0.2197 0.55908 0.0
C557 C 0.96927 0.1987 0.59415 0.0
C558 C 0.9823 0.25196 0.51949 0.0
C559 C 1.05131 0.26097 0.50978 0.0
H560 H 0.89123 0.21863 0.56551 0.0
H561 H 0.95997 0.27194 0.49686 0.0
S562 S 0.14684 0.20805 0.58599 0.0
N563 N 0.07041 0.18665 0.61432 0.0
N564 N 0.14315 0.24051 0.53701 0.0
C565 C 0.07722 0.23466 0.54164 0.0
C566 C 1.03695 0.2046 0.58387 0.0
loop_
_geom_bond_atom_site_label_1
_geom_bond_atom_site_label_2
_geom_bond_distance
_geom_bond_site_symmetry_2
_ccdc_geom_bond_type
Co0 N5 2.057 1_554 S
Co0 O17 2.021 . S
Co0 O20 2.062 . S
Co0 O24 2.117 1_554 S
Co0 O25 2.020 1_455 S
C1 O21 1.259 . S
C1 O24 1.258 1_655 S
Co2 N11 2.057 . S
Co2 O18 2.117 . S
Co2 O19 2.020 1_655 S
Co2 O21 2.021 1_554 S
Co2 O26 2.062 . S
C3 N5 1.316 1_554 S
C3 N6 1.347 1_554 S
C3 H8 0.931 . S
C4 N5 1.375 . S
C4 C7 1.350 . S
C4 H9 0.930 . S
N5 Co0 2.057 1_556 S
N5 C3 1.316 1_556 S
N5 C4 1.375 . S
N6 C3 1.347 1_556 S
N6 C7 1.373 . S
C7 C4 1.350 . S
C7 N6 1.373 . S
C7 H28 0.931 . S
H8 C3 0.931 . S
H9 C4 0.930 . S
C10 O17 1.259 . S
C10 O18 1.258 1_455 S
N11 Co2 2.057 . S
N11 C12 1.316 1_554 S
N11 C13 1.375 . S
C12 N11 1.316 1_556 S
C12 N14 1.347 1_556 S
C12 H23 0.931 . S
C13 N11 1.375 . S
C13 C15 1.350 . S
C13 H22 0.930 . S
N14 C12 1.347 1_554 S
N14 C15 1.373 . S
C15 C13 1.350 . S
C15 N14 1.373 . S
C15 H29 0.931 . S
C16 O19 1.255 . S
C16 O20 1.256 . S
O17 Co0 2.021 . S
O17 C10 1.259 . S
O18 Co2 2.117 . S
O18 C10 1.258 1_655 S
O19 Co2 2.020 1_455 S
O19 C16 1.255 . S
O20 Co0 2.062 . S
O20 C16 1.256 . S
O21 C1 1.259 . S
O21 Co2 2.021 1_556 S
H22 C13 0.930 . S
H23 C12 0.931 . S
O24 Co0 2.117 1_556 S
O24 C1 1.258 1_455 S
O25 Co0 2.020 1_655 S
O25 C27 1.256 . S
O26 Co2 2.062 . S
O26 C27 1.255 . S
C27 O25 1.256 . S
C27 O26 1.255 . S
H28 C7 0.931 . S
H29 C15 0.931 . S
Co30 N35 2.057 . S
Co30 O47 2.021 1_554 S
Co30 O50 2.062 . S
Co30 O54 2.117 . S
Co30 O55 2.020 . S
C31 O51 1.259 . S
C31 O54 1.258 . S
Co32 N41 2.057 1_554 S
Co32 O48 2.117 1_554 S
Co32 O49 2.020 . S
Co32 O51 2.021 . S
Co32 O56 2.062 . S
C33 N35 1.316 . S
C33 N36 1.347 . S
C33 H38 0.931 1_554 S
C34 N35 1.375 . S
C34 C37 1.350 . S
C34 H39 0.930 . S
N35 Co30 2.057 . S
N35 C33 1.316 . S
N35 C34 1.375 . S
N36 C33 1.347 . S
N36 C37 1.373 . S
C37 C34 1.350 . S
C37 N36 1.373 . S
C37 H58 0.931 . S
H38 C33 0.931 1_556 S
H39 C34 0.930 . S
C40 O47 1.259 . S
C40 O48 1.258 . S
N41 Co32 2.057 1_556 S
N41 C42 1.316 1_556 S
N41 C43 1.375 . S
C42 N41 1.316 1_554 S
C42 N44 1.347 1_554 S
C42 H53 0.931 . S
C43 N41 1.375 . S
C43 C45 1.350 . S
C43 H52 0.930 . S
N44 C42 1.347 1_556 S
N44 C45 1.373 . S
C45 C43 1.350 . S
C45 N44 1.373 . S
C45 H59 0.931 . S
C46 O49 1.256 . S
C46 O50 1.255 . S
O47 Co30 2.021 1_556 S
O47 C40 1.259 . S
O48 Co32 2.117 1_556 S
O48 C40 1.258 . S
O49 Co32 2.020 . S
O49 C46 1.256 . S
O50 Co30 2.062 . S
O50 C46 1.255 . S
O51 C31 1.259 . S
O51 Co32 2.021 . S
H52 C43 0.930 . S
H53 C42 0.931 . S
O54 Co30 2.117 . S
O54 C31 1.258 . S
O55 Co30 2.020 . S
O55 C57 1.256 . S
O56 Co32 2.062 . S
O56 C57 1.255 . S
C57 O55 1.256 . S
C57 O56 1.255 . S
H58 C37 0.931 . S
H59 C45 0.931 . S
Co60 N65 2.057 1_554 S
Co60 O77 2.021 . S
Co60 O80 2.062 . S
Co60 O84 2.117 1_554 S
Co60 O85 2.020 1_565 S
C61 O81 1.259 . S
C61 O84 1.258 1_545 S
Co62 N71 2.057 . S
Co62 O78 2.117 . S
Co62 O79 2.019 1_544 S
Co62 O81 2.021 1_554 S
Co62 O86 2.062 . S
C63 N65 1.316 1_554 S
C63 N66 1.347 1_554 S
C63 H68 0.931 . S
C64 N65 1.375 . S
C64 C67 1.350 . S
C64 H69 0.930 . S
N65 Co60 2.057 1_556 S
N65 C63 1.316 1_556 S
N65 C64 1.375 . S
N66 C63 1.347 1_556 S
N66 C67 1.373 . S
C67 C64 1.350 . S
C67 N66 1.373 . S
C67 H88 0.931 . S
H68 C63 0.931 . S
H69 C64 0.930 . S
C70 O77 1.259 . S
C70 O78 1.258 1_565 S
N71 Co62 2.057 . S
N71 C72 1.316 1_554 S
N71 C73 1.375 . S
C72 N71 1.316 1_556 S
C72 N74 1.347 1_556 S
C72 H83 0.931 . S
C73 N71 1.375 . S
C73 C75 1.350 . S
C73 H82 0.930 . S
N74 C72 1.347 1_554 S
N74 C75 1.373 . S
C75 C73 1.350 . S
C75 N74 1.373 . S
C75 H89 0.931 . S
C76 O79 1.256 . S
C76 O80 1.254 1_556 S
O77 Co60 2.021 . S
O77 C70 1.259 . S
O78 Co62 2.117 . S
O78 C70 1.258 1_545 S
O79 Co62 2.019 1_566 S
O79 C76 1.256 . S
O80 Co60 2.062 . S
O80 C76 1.254 1_554 S
O81 C61 1.259 . S
O81 Co62 2.021 1_556 S
H82 C73 0.930 . S
H83 C72 0.931 . S
O84 Co60 2.117 1_556 S
O84 C61 1.258 1_565 S
O85 Co60 2.020 1_545 S
O85 C87 1.256 . S
O86 Co62 2.062 . S
O86 C87 1.255 . S
C87 O85 1.256 . S
C87 O86 1.255 . S
H88 C67 0.931 . S
H89 C75 0.931 . S
Co90 N95 2.057 . S
Co90 O107 2.021 . S
Co90 O110 2.062 . S
Co90 O114 2.117 . S
Co90 O115 2.020 . S
C91 O111 1.259 . S
C91 O114 1.258 . S
Co92 N101 2.057 . S
Co92 O108 2.117 . S
Co92 O109 2.020 . S
Co92 O111 2.021 . S
Co92 O116 2.062 . S
C93 N95 1.316 . S
C93 N96 1.347 1_565 S
C93 H98 0.931 . S
C94 N95 1.375 . S
C94 C97 1.350 1_565 S
C94 H99 0.930 . S
N95 Co90 2.057 . S
N95 C93 1.316 . S
N95 C94 1.375 . S
N96 C93 1.347 1_545 S
N96 C97 1.373 . S
C97 C94 1.350 1_545 S
C97 N96 1.373 . S
C97 H118 0.931 . S
H98 C93 0.931 . S
H99 C94 0.930 . S
C100 O107 1.259 . S
C100 O108 1.258 . S
N101 Co92 2.057 . S
N101 C102 1.316 . S
N101 C103 1.375 . S
C102 N101 1.316 . S
C102 N104 1.347 . S
C102 H113 0.931 . S
C103 N101 1.375 . S
C103 C105 1.350 . S
C103 H112 0.930 . S
N104 C102 1.347 . S
N104 C105 1.373 . S
C105 C103 1.350 . S
C105 N104 1.373 . S
C105 H119 0.931 . S
C106 O109 1.256 . S
C106 O110 1.255 . S
O107 Co90 2.021 . S
O107 C100 1.259 . S
O108 Co92 2.117 . S
O108 C100 1.258 . S
O109 Co92 2.020 . S
O109 C106 1.256 . S
O110 Co90 2.062 . S
O110 C106 1.255 . S
O111 C91 1.259 . S
O111 Co92 2.021 . S
H112 C103 0.930 . S
H113 C102 0.931 . S
O114 Co90 2.117 . S
O114 C91 1.258 . S
O115 Co90 2.020 . S
O115 C117 1.256 . S
O116 Co92 2.062 . S
O116 C117 1.255 . S
C117 O115 1.256 . S
C117 O116 1.255 . S
H118 C97 0.931 . S
H119 C105 0.931 . S
Co120 N125 2.057 . S
Co120 O137 2.021 . S
Co120 O140 2.062 . S
Co120 O144 2.117 . S
Co120 O145 2.020 . S
C121 O141 1.259 . S
C121 O144 1.258 . S
Co122 N131 2.057 . S
Co122 O138 2.117 . S
Co122 O139 2.020 . S
Co122 O141 2.021 . S
Co122 O146 2.062 . S
C123 N125 1.316 . S
C123 N126 1.347 1_455 S
C123 H128 0.931 . S
C124 N125 1.375 . S
C124 C127 1.350 1_455 S
C124 H129 0.930 . S
N125 Co120 2.057 . S
N125 C123 1.316 . S
N125 C124 1.375 . S
N126 C123 1.347 1_655 S
N126 C127 1.373 . S
C127 C124 1.350 1_655 S
C127 N126 1.373 . S
C127 H148 0.931 . S
H128 C123 0.931 . S
H129 C124 0.930 . S
C130 O137 1.259 . S
C130 O138 1.258 . S
N131 Co122 2.057 . S
N131 C132 1.316 . S
N131 C133 1.375 . S
C132 N131 1.316 . S
C132 N134 1.347 . S
C132 H143 0.931 . S
C133 N131 1.375 . S
C133 C135 1.350 . S
C133 H142 0.930 . S
N134 C132 1.347 . S
N134 C135 1.373 . S
C135 C133 1.350 . S
C135 N134 1.373 . S
C135 H149 0.931 . S
C136 O139 1.256 . S
C136 O140 1.255 . S
O137 Co120 2.021 . S
O137 C130 1.259 . S
O138 Co122 2.117 . S
O138 C130 1.258 . S
O139 Co122 2.020 . S
O139 C136 1.256 . S
O140 Co120 2.062 . S
O140 C136 1.255 . S
O141 C121 1.259 . S
O141 Co122 2.021 . S
H142 C133 0.930 . S
H143 C132 0.931 . S
O144 Co120 2.117 . S
O144 C121 1.258 . S
O145 Co120 2.020 . S
O145 C147 1.256 . S
O146 Co122 2.062 . S
O146 C147 1.255 . S
C147 O145 1.256 . S
C147 O146 1.255 . S
H148 C127 0.931 . S
H149 C135 0.931 . S
Co150 N155 2.057 . S
Co150 O167 2.021 . S
Co150 O170 2.062 . S
Co150 O174 2.117 . S
Co150 O175 2.020 . S
C151 O171 1.259 . S
C151 O174 1.258 . S
Co152 N161 2.057 . S
Co152 O168 2.117 . S
Co152 O169 2.020 1_455 S
Co152 O171 2.021 . S
Co152 O176 2.062 . S
C153 N155 1.316 . S
C153 N156 1.347 . S
C153 H158 0.931 . S
C154 N155 1.375 . S
C154 C157 1.350 . S
C154 H159 0.930 . S
N155 Co150 2.057 . S
N155 C153 1.316 . S
N155 C154 1.375 . S
N156 C153 1.347 . S
N156 C157 1.373 . S
C157 C154 1.350 . S
C157 N156 1.373 . S
C157 H178 0.931 . S
H158 C153 0.931 . S
H159 C154 0.930 . S
C160 O167 1.259 . S
C160 O168 1.258 . S
N161 Co152 2.057 . S
N161 C162 1.316 . S
N161 C163 1.375 . S
C162 N161 1.316 . S
C162 N164 1.347 . S
C162 H173 0.931 . S
C163 N161 1.375 . S
C163 C165 1.350 . S
C163 H172 0.930 . S
N164 C162 1.347 . S
N164 C165 1.373 . S
C165 C163 1.350 . S
C165 N164 1.373 . S
C165 H179 0.931 . S
C166 O169 1.256 . S
C166 O170 1.255 1_655 S
O167 Co150 2.021 . S
O167 C160 1.259 . S
O168 Co152 2.117 . S
O168 C160 1.258 . S
O169 Co152 2.020 1_655 S
O169 C166 1.256 . S
O170 Co150 2.062 . S
O170 C166 1.255 1_455 S
O171 C151 1.259 . S
O171 Co152 2.021 . S
H172 C163 0.930 . S
H173 C162 0.931 . S
O174 Co150 2.117 . S
O174 C151 1.258 . S
O175 Co150 2.020 . S
O175 C177 1.256 . S
O176 Co152 2.062 . S
O176 C177 1.255 . S
C177 O175 1.256 . S
C177 O176 1.255 . S
H178 C157 0.931 . S
H179 C165 0.931 . S
Co180 N185 2.057 . S
Co180 O197 2.021 . S
Co180 O200 2.062 . S
Co180 O204 2.117 . S
Co180 O205 2.020 . S
C181 O201 1.259 . S
C181 O204 1.258 . S
Co182 N191 2.057 1_545 S
Co182 O198 2.117 . S
Co182 O199 2.020 . S
Co182 O201 2.021 . S
Co182 O206 2.062 . S
C183 N185 1.316 . S
C183 N186 1.347 . S
C183 H188 0.931 . S
C184 N185 1.375 . S
C184 C187 1.350 . S
C184 H189 0.930 . S
N185 Co180 2.057 . S
N185 C183 1.316 . S
N185 C184 1.375 . S
N186 C183 1.347 . S
N186 C187 1.373 . S
C187 C184 1.350 . S
C187 N186 1.373 . S
C187 H208 0.931 . S
H188 C183 0.931 . S
H189 C184 0.930 . S
C190 O197 1.259 . S
C190 O198 1.258 . S
N191 Co182 2.057 1_565 S
N191 C192 1.316 . S
N191 C193 1.375 . S
C192 N191 1.316 . S
C192 N194 1.347 . S
C192 H203 0.931 . S
C193 N191 1.375 . S
C193 C195 1.350 . S
C193 H202 0.930 . S
N194 C192 1.347 . S
N194 C195 1.373 . S
C195 C193 1.350 . S
C195 N194 1.373 . S
C195 H209 0.931 . S
C196 O199 1.256 . S
C196 O200 1.255 . S
O197 Co180 2.021 . S
O197 C190 1.259 . S
O198 Co182 2.117 . S
O198 C190 1.258 . S
O199 Co182 2.020 . S
O199 C196 1.256 . S
O200 Co180 2.062 . S
O200 C196 1.255 . S
O201 C181 1.259 . S
O201 Co182 2.021 . S
H202 C193 0.930 . S
H203 C192 0.931 . S
O204 Co180 2.117 . S
O204 C181 1.258 . S
O205 Co180 2.020 . S
O205 C207 1.256 . S
O206 Co182 2.062 . S
O206 C207 1.255 . S
C207 O205 1.256 . S
C207 O206 1.255 . S
H208 C187 0.931 . S
H209 C195 0.931 . S
Co210 N215 2.057 . S
Co210 O227 2.021 . S
Co210 O230 2.062 . S
Co210 O234 2.117 . S
Co210 O235 2.020 . S
C211 O231 1.259 . S
C211 O234 1.258 . S
Co212 N221 2.057 . S
Co212 O228 2.117 . S
Co212 O229 2.020 1_655 S
Co212 O231 2.021 . S
Co212 O236 2.062 . S
C213 N215 1.316 . S
C213 N216 1.347 . S
C213 H218 0.931 . S
C214 N215 1.375 . S
C214 C217 1.350 . S
C214 H219 0.930 . S
N215 Co210 2.057 . S
N215 C213 1.316 . S
N215 C214 1.375 . S
N216 C213 1.347 . S
N216 C217 1.373 . S
C217 C214 1.350 . S
C217 N216 1.373 . S
C217 H238 0.931 1_545 S
H218 C213 0.931 . S
H219 C214 0.930 . S
C220 O227 1.259 . S
C220 O228 1.258 . S
N221 Co212 2.057 . S
N221 C222 1.316 . S
N221 C223 1.375 . S
C222 N221 1.316 . S
C222 N224 1.347 . S
C222 H233 0.931 . S
C223 N221 1.375 . S
C223 C225 1.350 . S
C223 H232 0.930 . S
N224 C222 1.347 . S
N224 C225 1.373 . S
C225 C223 1.350 . S
C225 N224 1.373 . S
C225 H239 0.931 . S
C226 O229 1.256 . S
C226 O230 1.255 1_455 S
O227 Co210 2.021 . S
O227 C220 1.259 . S
O228 Co212 2.117 . S
O228 C220 1.258 . S
O229 Co212 2.020 1_455 S
O229 C226 1.256 . S
O230 Co210 2.062 . S
O230 C226 1.255 1_655 S
O231 C211 1.259 . S
O231 Co212 2.021 . S
H232 C223 0.930 . S
H233 C222 0.931 . S
O234 Co210 2.117 . S
O234 C211 1.258 . S
O235 Co210 2.020 . S
O235 C237 1.256 . S
O236 Co212 2.062 . S
O236 C237 1.255 . S
C237 O235 1.256 . S
C237 O236 1.255 . S
H238 C217 0.931 1_565 S
H239 C225 0.931 . S
Co240 N245 2.057 . S
Co240 O257 2.021 . S
Co240 O260 2.062 . S
Co240 O264 2.117 . S
Co240 O265 2.020 . S
C241 O261 1.259 . S
C241 O264 1.258 . S
Co242 N251 2.057 . S
Co242 O258 2.117 . S
Co242 O259 2.020 . S
Co242 O261 2.021 . S
Co242 O266 2.062 . S
C243 N245 1.316 . S
C243 N246 1.347 . S
C243 H248 0.931 . S
C244 N245 1.375 . S
C244 C247 1.350 . S
C244 H249 0.930 . S
N245 Co240 2.057 . S
N245 C243 1.316 . S
N245 C244 1.375 . S
N246 C243 1.347 . S
N246 C247 1.373 . S
C247 C244 1.350 . S
C247 N246 1.373 . S
C247 H268 0.931 . S
H248 C243 0.931 . S
H249 C244 0.930 . S
C250 O257 1.259 . S
C250 O258 1.258 . S
N251 Co242 2.057 . S
N251 C252 1.316 . S
N251 C253 1.375 . S
C252 N251 1.316 . S
C252 N254 1.347 . S
C252 H263 0.931 . S
C253 N251 1.375 . S
C253 C255 1.350 . S
C253 H262 0.930 . S
N254 C252 1.347 . S
N254 C255 1.373 . S
C255 C253 1.350 . S
C255 N254 1.373 . S
C255 H269 0.931 . S
C256 O259 1.256 . S
C256 O260 1.255 . S
O257 Co240 2.021 . S
O257 C250 1.259 . S
O258 Co242 2.117 . S
O258 C250 1.258 . S
O259 Co242 2.020 . S
O259 C256 1.256 . S
O260 Co240 2.062 . S
O260 C256 1.255 . S
O261 C241 1.259 . S
O261 Co242 2.021 . S
H262 C253 0.930 . S
H263 C252 0.931 . S
O264 Co240 2.117 . S
O264 C241 1.258 . S
O265 Co240 2.020 . S
O265 C267 1.256 . S
O266 Co242 2.062 . S
O266 C267 1.255 . S
C267 O265 1.256 . S
C267 O266 1.255 . S
H268 C247 0.931 . S
H269 C255 0.931 . S
C270 C271 1.369 . S
C270 C272 1.419 . S
C270 H274 0.930 . S
C271 C270 1.369 . S
C271 C280 1.429 1_554 S
C272 C270 1.419 . S
C272 C273 1.350 1_554 S
C272 H275 0.929 . S
C273 C272 1.350 1_556 S
C273 C279 1.441 . S
H274 C270 0.930 . S
H275 C272 0.929 . S
S276 N277 1.613 . S
S276 N278 1.610 . S
N277 S276 1.613 . S
N277 C280 1.350 . S
N278 S276 1.610 . S
N278 C279 1.351 . S
C279 C273 1.441 . S
C279 N278 1.351 . S
C279 C280 1.434 . S
C280 C271 1.429 1_556 S
C280 N277 1.350 . S
C280 C279 1.434 . S
C281 C282 1.369 1_554 S
C281 C283 1.419 . S
C281 H285 0.930 . S
C282 C281 1.369 1_556 S
C282 C291 1.429 . S
C283 C281 1.419 . S
C283 C284 1.363 1_554 S
C283 H286 0.929 . S
C284 C283 1.363 1_556 S
C284 C290 1.428 . S
H285 C281 0.930 . S
H286 C283 0.929 . S
S287 N288 1.613 . S
S287 N289 1.610 . S
N288 S287 1.613 . S
N288 C291 1.350 . S
N289 S287 1.610 . S
N289 C290 1.351 . S
C290 C284 1.428 . S
C290 N289 1.351 . S
C290 C291 1.434 . S
C291 C282 1.429 . S
C291 N288 1.350 . S
C291 C290 1.434 . S
C292 C293 1.369 1_554 S
C292 C294 1.419 . S
C292 H296 0.930 . S
C293 C292 1.369 1_556 S
C293 C302 1.429 . S
C294 C292 1.419 . S
C294 C295 1.363 1_554 S
C294 H297 0.929 . S
C295 C294 1.363 1_556 S
C295 C301 1.428 . S
H296 C292 0.930 . S
H297 C294 0.929 . S
S298 N299 1.613 . S
S298 N300 1.610 . S
N299 S298 1.613 . S
N299 C302 1.350 . S
N300 S298 1.610 . S
N300 C301 1.351 . S
C301 C295 1.428 . S
C301 N300 1.351 . S
C301 C302 1.434 . S
C302 C293 1.429 . S
C302 N299 1.350 . S
C302 C301 1.434 . S
C303 C304 1.369 1_556 S
C303 C305 1.419 . S
C303 H307 0.930 . S
C304 C303 1.369 1_554 S
C304 C313 1.429 . S
C305 C303 1.419 . S
C305 C306 1.363 1_556 S
C305 H308 0.929 . S
C306 C305 1.363 1_554 S
C306 C312 1.428 . S
H307 C303 0.930 . S
H308 C305 0.929 . S
S309 N310 1.613 . S
S309 N311 1.610 . S
N310 S309 1.613 . S
N310 C313 1.350 . S
N311 S309 1.610 . S
N311 C312 1.351 . S
C312 C306 1.428 . S
C312 N311 1.351 . S
C312 C313 1.434 . S
C313 C304 1.429 . S
C313 N310 1.350 . S
C313 C312 1.434 . S
C314 C315 1.369 . S
C314 C316 1.419 . S
C314 H318 0.930 . S
C315 C314 1.369 . S
C315 C324 1.429 1_554 S
C316 C314 1.419 . S
C316 C317 1.363 . S
C316 H319 0.929 . S
C317 C316 1.363 . S
C317 C323 1.428 1_554 S
H318 C314 0.930 . S
H319 C316 0.929 . S
S320 N321 1.613 . S
S320 N322 1.610 . S
N321 S320 1.613 . S
N321 C324 1.350 . S
N322 S320 1.610 . S
N322 C323 1.351 . S
C323 C317 1.428 1_556 S
C323 N322 1.351 . S
C323 C324 1.434 . S
C324 C315 1.429 1_556 S
C324 N321 1.350 . S
C324 C323 1.434 . S
C325 C326 1.369 1_556 S
C325 C327 1.419 . S
C325 H329 0.930 . S
C326 C325 1.369 1_554 S
C326 C335 1.429 . S
C327 C325 1.419 . S
C327 C328 1.363 1_556 S
C327 H330 0.929 . S
C328 C327 1.363 1_554 S
C328 C334 1.428 . S
H329 C325 0.930 . S
H330 C327 0.929 . S
S331 N332 1.613 . S
S331 N333 1.610 . S
N332 S331 1.613 . S
N332 C335 1.350 . S
N333 S331 1.610 . S
N333 C334 1.351 . S
C334 C328 1.428 . S
C334 N333 1.351 . S
C334 C335 1.434 . S
C335 C326 1.429 . S
C335 N332 1.350 . S
C335 C334 1.434 . S
C336 C337 1.369 . S
C336 C338 1.419 . S
C336 H340 0.930 . S
C337 C336 1.369 . S
C337 C346 1.429 . S
C338 C336 1.419 . S
C338 C339 1.363 . S
C338 H341 0.929 . S
C339 C338 1.363 . S
C339 C345 1.428 . S
H340 C336 0.930 . S
H341 C338 0.929 . S
S342 N343 1.613 . S
S342 N344 1.610 . S
N343 S342 1.613 . S
N343 C346 1.350 . S
N344 S342 1.610 . S
N344 C345 1.351 . S
C345 C339 1.428 . S
C345 N344 1.351 . S
C345 C346 1.434 . S
C346 C337 1.429 . S
C346 N343 1.350 . S
C346 C345 1.434 . S
C347 C348 1.369 . S
C347 C349 1.419 . S
C347 H351 0.930 . S
C348 C347 1.369 . S
C348 C357 1.429 . S
C349 C347 1.419 . S
C349 C350 1.363 . S
C349 H352 0.929 . S
C350 C349 1.363 . S
C350 C356 1.428 . S
H351 C347 0.930 . S
H352 C349 0.929 . S
S353 N354 1.613 . S
S353 N355 1.610 . S
N354 S353 1.613 . S
N354 C357 1.350 . S
N355 S353 1.610 . S
N355 C356 1.351 . S
C356 C350 1.428 . S
C356 N355 1.351 . S
C356 C357 1.434 . S
C357 C348 1.429 . S
C357 N354 1.350 . S
C357 C356 1.434 . S
C358 C359 1.369 . S
C358 C360 1.419 . S
C358 H362 0.930 . S
C359 C358 1.369 . S
C359 C368 1.429 . S
C360 C358 1.419 . S
C360 C361 1.363 . S
C360 H363 0.929 . S
C361 C360 1.363 . S
C361 C367 1.428 . S
H362 C358 0.930 . S
H363 C360 0.929 . S
S364 N365 1.613 . S
S364 N366 1.610 . S
N365 S364 1.613 . S
N365 C368 1.350 . S
N366 S364 1.610 . S
N366 C367 1.351 . S
C367 C361 1.428 . S
C367 N366 1.351 . S
C367 C368 1.434 . S
C368 C359 1.429 . S
C368 N365 1.350 . S
C368 C367 1.434 . S
C369 C370 1.369 . S
C369 C371 1.419 . S
C369 H373 0.930 . S
C370 C369 1.369 . S
C370 C379 1.429 . S
C371 C369 1.419 . S
C371 C372 1.363 . S
C371 H374 0.929 . S
C372 C371 1.363 . S
C372 C378 1.428 . S
H373 C369 0.930 . S
H374 C371 0.929 . S
S375 N376 1.613 1_655 S
S375 N377 1.610 . S
N376 S375 1.613 1_455 S
N376 C379 1.350 . S
N377 S375 1.610 . S
N377 C378 1.351 1_655 S
C378 C372 1.428 . S
C378 N377 1.351 1_455 S
C378 C379 1.434 . S
C379 C370 1.429 . S
C379 N376 1.350 . S
C379 C378 1.434 . S
C380 C381 1.369 . S
C380 C382 1.419 . S
C380 H384 0.930 . S
C381 C380 1.369 . S
C381 C390 1.429 . S
C382 C380 1.419 . S
C382 C383 1.363 . S
C382 H385 0.929 . S
C383 C382 1.363 . S
C383 C389 1.428 . S
H384 C380 0.930 . S
H385 C382 0.929 . S
S386 N387 1.613 . S
S386 N388 1.610 . S
N387 S386 1.613 . S
N387 C390 1.350 . S
N388 S386 1.610 . S
N388 C389 1.351 . S
C389 C383 1.428 . S
C389 N388 1.351 . S
C389 C390 1.434 . S
C390 C381 1.429 . S
C390 N387 1.350 . S
C390 C389 1.434 . S
C391 C392 1.369 . S
C391 C393 1.419 . S
C391 H395 0.930 . S
C392 C391 1.369 . S
C392 C401 1.429 . S
C393 C391 1.419 . S
C393 C394 1.363 . S
C393 H396 0.929 . S
C394 C393 1.363 . S
C394 C400 1.428 . S
H395 C391 0.930 . S
H396 C393 0.929 . S
S397 N398 1.613 . S
S397 N399 1.610 . S
N398 S397 1.613 . S
N398 C401 1.350 . S
N399 S397 1.610 . S
N399 C400 1.351 . S
C400 C394 1.428 . S
C400 N399 1.351 . S
C400 C401 1.434 . S
C401 C392 1.429 . S
C401 N398 1.350 . S
C401 C400 1.434 . S
C402 C403 1.369 . S
C402 C404 1.419 . S
C402 H406 0.930 . S
C403 C402 1.369 . S
C403 C412 1.429 . S
C404 C402 1.419 . S
C404 C405 1.363 . S
C404 H407 0.929 . S
C405 C404 1.363 . S
C405 C411 1.428 . S
H406 C402 0.930 . S
H407 C404 0.929 . S
S408 N409 1.613 . S
S408 N410 1.610 . S
N409 S408 1.613 . S
N409 C412 1.350 . S
N410 S408 1.610 . S
N410 C411 1.351 . S
C411 C405 1.428 . S
C411 N410 1.351 . S
C411 C412 1.434 . S
C412 C403 1.429 . S
C412 N409 1.350 . S
C412 C411 1.434 . S
C413 C414 1.369 . S
C413 C415 1.419 . S
C413 H417 0.930 . S
C414 C413 1.369 . S
C414 C423 1.429 . S
C415 C413 1.419 . S
C415 C416 1.363 . S
C415 H418 0.929 . S
C416 C415 1.363 . S
C416 C422 1.428 . S
H417 C413 0.930 . S
H418 C415 0.929 . S
S419 N420 1.613 . S
S419 N421 1.610 . S
N420 S419 1.613 . S
N420 C423 1.350 . S
N421 S419 1.610 . S
N421 C422 1.351 . S
C422 C416 1.428 . S
C422 N421 1.351 . S
C422 C423 1.434 . S
C423 C414 1.429 . S
C423 N420 1.350 . S
C423 C422 1.434 . S
C424 C425 1.369 . S
C424 C426 1.419 . S
C424 H428 0.930 . S
C425 C424 1.369 . S
C425 C434 1.429 . S
C426 C424 1.419 . S
C426 C427 1.363 . S
C426 H429 0.929 . S
C427 C426 1.363 . S
C427 C433 1.428 . S
H428 C424 0.930 . S
H429 C426 0.929 . S
S430 N431 1.613 . S
S430 N432 1.610 . S
N431 S430 1.613 . S
N431 C434 1.350 . S
N432 S430 1.610 . S
N432 C433 1.351 . S
C433 C427 1.428 . S
C433 N432 1.351 . S
C433 C434 1.434 . S
C434 C425 1.429 . S
C434 N431 1.350 . S
C434 C433 1.434 . S
C435 C436 1.369 . S
C435 C437 1.419 . S
C435 H439 0.930 . S
C436 C435 1.369 . S
C436 C445 1.429 . S
C437 C435 1.419 . S
C437 C438 1.363 . S
C437 H440 0.929 . S
C438 C437 1.363 . S
C438 C444 1.428 . S
H439 C435 0.930 . S
H440 C437 0.929 . S
S441 N442 1.613 . S
S441 N443 1.610 . S
N442 S441 1.613 . S
N442 C445 1.350 . S
N443 S441 1.610 . S
N443 C444 1.351 . S
C444 C438 1.428 . S
C444 N443 1.351 . S
C444 C445 1.434 . S
C445 C436 1.429 . S
C445 N442 1.350 . S
C445 C444 1.434 . S
C446 C447 1.369 . S
C446 C448 1.419 1_655 S
C446 H450 0.930 . S
C447 C446 1.369 . S
C447 C456 1.429 . S
C448 C446 1.419 1_455 S
C448 C449 1.363 . S
C448 H451 0.929 . S
C449 C448 1.363 . S
C449 C455 1.428 . S
H450 C446 0.930 . S
H451 C448 0.929 . S
S452 N453 1.613 1_455 S
S452 N454 1.610 . S
N453 S452 1.613 1_655 S
N453 C456 1.350 . S
N454 S452 1.610 . S
N454 C455 1.351 . S
C455 C449 1.428 . S
C455 N454 1.351 . S
C455 C456 1.434 1_455 S
C456 C447 1.429 . S
C456 N453 1.350 . S
C456 C455 1.434 1_655 S
C457 C458 1.369 . S
C457 C459 1.419 . S
C457 H461 0.930 . S
C458 C457 1.369 . S
C458 C467 1.429 . S
C459 C457 1.419 . S
C459 C460 1.363 . S
C459 H462 0.929 . S
C460 C459 1.363 . S
C460 C466 1.428 . S
H461 C457 0.930 . S
H462 C459 0.929 . S
S463 N464 1.613 . S
S463 N465 1.610 . S
N464 S463 1.613 . S
N464 C467 1.350 . S
N465 S463 1.610 . S
N465 C466 1.351 . S
C466 C460 1.428 . S
C466 N465 1.351 . S
C466 C467 1.434 . S
C467 C458 1.429 . S
C467 N464 1.350 . S
C467 C466 1.434 . S
C468 C469 1.369 . S
C468 C470 1.419 . S
C468 H472 0.930 . S
C469 C468 1.369 . S
C469 C478 1.429 . S
C470 C468 1.419 . S
C470 C471 1.363 . S
C470 H473 0.929 . S
C471 C470 1.363 . S
C471 C477 1.428 . S
H472 C468 0.930 . S
H473 C470 0.929 . S
S474 N475 1.613 . S
S474 N476 1.610 . S
N475 S474 1.613 . S
N475 C478 1.350 1_655 S
N476 S474 1.610 . S
N476 C477 1.351 1_655 S
C477 C471 1.428 . S
C477 N476 1.351 1_455 S
C477 C478 1.434 . S
C478 C469 1.429 . S
C478 N475 1.350 1_455 S
C478 C477 1.434 . S
C479 C480 1.369 . S
C479 C481 1.419 . S
C479 H483 0.930 . S
C480 C479 1.369 . S
C480 C489 1.429 . S
C481 C479 1.419 . S
C481 C482 1.363 . S
C481 H484 0.929 . S
C482 C481 1.363 . S
C482 C488 1.428 . S
H483 C479 0.930 . S
H484 C481 0.929 . S
S485 N486 1.613 . S
S485 N487 1.610 . S
N486 S485 1.613 . S
N486 C489 1.350 . S
N487 S485 1.610 . S
N487 C488 1.351 . S
C488 C482 1.428 . S
C488 N487 1.351 . S
C488 C489 1.434 . S
C489 C480 1.429 . S
C489 N486 1.350 . S
C489 C488 1.434 . S
C490 C491 1.369 . S
C490 C492 1.419 . S
C490 H494 0.930 . S
C491 C490 1.369 . S
C491 C500 1.429 . S
C492 C490 1.419 . S
C492 C493 1.363 . S
C492 H495 0.929 . S
C493 C492 1.363 . S
C493 C499 1.428 . S
H494 C490 0.930 . S
H495 C492 0.929 . S
S496 N497 1.613 . S
S496 N498 1.610 . S
N497 S496 1.613 . S
N497 C500 1.350 . S
N498 S496 1.610 . S
N498 C499 1.351 . S
C499 C493 1.428 . S
C499 N498 1.351 . S
C499 C500 1.434 . S
C500 C491 1.429 . S
C500 N497 1.350 . S
C500 C499 1.434 . S
C501 C502 1.369 . S
C501 C503 1.419 . S
C501 H505 0.930 1_545 S
C502 C501 1.369 . S
C502 C511 1.429 . S
C503 C501 1.419 . S
C503 C504 1.363 . S
C503 H506 0.929 . S
C504 C503 1.363 . S
C504 C510 1.428 . S
H505 C501 0.930 1_565 S
H506 C503 0.929 . S
S507 N508 1.613 . S
S507 N509 1.610 . S
N508 S507 1.613 . S
N508 C511 1.350 . S
N509 S507 1.610 . S
N509 C510 1.351 . S
C510 C504 1.428 . S
C510 N509 1.351 . S
C510 C511 1.434 . S
C511 C502 1.429 . S
C511 N508 1.350 . S
C511 C510 1.434 . S
C512 C513 1.369 . S
C512 C514 1.419 . S
C512 H516 0.930 . S
C513 C512 1.369 . S
C513 C522 1.429 . S
C514 C512 1.419 . S
C514 C515 1.363 . S
C514 H517 0.929 . S
C515 C514 1.363 . S
C515 C521 1.428 . S
H516 C512 0.930 . S
H517 C514 0.929 . S
S518 N519 1.613 . S
S518 N520 1.610 1_455 S
N519 S518 1.613 . S
N519 C522 1.350 1_455 S
N520 S518 1.610 1_655 S
N520 C521 1.351 . S
C521 C515 1.428 . S
C521 N520 1.351 . S
C521 C522 1.434 . S
C522 C513 1.429 . S
C522 N519 1.350 1_655 S
C522 C521 1.434 . S
C523 C524 1.369 . S
C523 C525 1.419 . S
C523 H527 0.930 . S
C524 C523 1.369 . S
C524 C533 1.429 . S
C525 C523 1.419 . S
C525 C526 1.363 . S
C525 H528 0.929 . S
C526 C525 1.363 . S
C526 C532 1.428 . S
H527 C523 0.930 . S
H528 C525 0.929 . S
S529 N530 1.613 . S
S529 N531 1.610 . S
N530 S529 1.613 . S
N530 C533 1.350 . S
N531 S529 1.610 . S
N531 C532 1.351 . S
C532 C526 1.428 . S
C532 N531 1.351 . S
C532 C533 1.434 . S
C533 C524 1.429 . S
C533 N530 1.350 . S
C533 C532 1.434 . S
C534 C535 1.369 . S
C534 C536 1.419 . S
C534 H538 0.930 . S
C535 C534 1.369 . S
C535 C544 1.429 . S
C536 C534 1.419 . S
C536 C537 1.363 . S
C536 H539 0.929 . S
C537 C536 1.363 . S
C537 C543 1.428 . S
H538 C534 0.930 . S
H539 C536 0.929 . S
S540 N541 1.613 . S
S540 N542 1.610 . S
N541 S540 1.613 . S
N541 C544 1.350 . S
N542 S540 1.610 . S
N542 C543 1.351 . S
C543 C537 1.428 . S
C543 N542 1.351 . S
C543 C544 1.434 . S
C544 C535 1.429 . S
C544 N541 1.350 . S
C544 C543 1.434 . S
C545 C546 1.369 1_545 S
C545 C547 1.419 . S
C545 H549 0.930 . S
C546 C545 1.369 1_565 S
C546 C555 1.429 . S
C547 C545 1.419 . S
C547 C548 1.363 . S
C547 H550 0.929 . S
C548 C547 1.363 . S
C548 C554 1.428 . S
H549 C545 0.930 . S
H550 C547 0.929 . S
S551 N552 1.613 . S
S551 N553 1.610 . S
N552 S551 1.613 . S
N552 C555 1.350 . S
N553 S551 1.610 . S
N553 C554 1.351 1_565 S
C554 C548 1.428 . S
C554 N553 1.351 1_545 S
C554 C555 1.434 1_545 S
C555 C546 1.429 . S
C555 N552 1.350 . S
C555 C554 1.434 1_565 S
C556 C557 1.369 . S
C556 C558 1.419 1_655 S
C556 H560 0.930 . S
C557 C556 1.369 . S
C557 C566 1.429 . S
C558 C556 1.419 1_455 S
C558 C559 1.363 . S
C558 H561 0.929 . S
C559 C558 1.363 . S
C559 C565 1.428 . S
H560 C556 0.930 . S
H561 C558 0.929 . S
S562 N563 1.613 1_455 S
S562 N564 1.610 . S
N563 S562 1.613 1_655 S
N563 C566 1.350 . S
N564 S562 1.610 . S
N564 C565 1.351 . S
C565 C559 1.428 . S
C565 N564 1.351 . S
C565 C566 1.434 1_455 S
C566 C557 1.429 . S
C566 N563 1.350 . S
C566 C565 1.434 1_655 S
C271 C57 1.959 . S
C273 C16 1.908 1_556 S
C282 N66 0.671 . S
C284 N44 0.680 . S
C293 C76 1.370 . S
C295 N6 1.384 . S
C304 N74 0.897 . S
C306 N36 0.897 . S
C315 C87 1.177 . S
C317 N14 1.153 . S
C326 C27 2.222 . S
C328 C46 2.140 . S
C337 C106 0.653 . S
C339 N126 0.630 . S
C348 N156 1.559 . S
C350 C136 1.538 1_545 S
C359 C166 1.419 . S
C361 N96 1.447 . S
C370 C147 2.119 . S
C372 N164 2.062 . S
C381 C177 1.057 . S
C383 N104 1.050 . S
C392 N134 1.284 . S
C394 C117 1.289 . S
C403 C237 1.984 . S
C405 C196 1.935 . S
C414 N224 0.670 . S
C416 N246 0.683 . S
C425 C256 1.358 . S
C427 N186 1.384 . S
C436 N254 0.915 . S
C438 N216 0.913 1_565 S
C447 C267 1.161 . S
C449 N194 1.135 . S
C458 C207 2.206 . S
C460 C226 2.124 . S
C469 C151 2.081 . S
C471 C10 2.166 . S
C480 C91 2.187 . S
C482 C31 2.209 . S
C491 C70 1.952 . S
C493 C121 1.855 . S
C502 C61 2.056 . S
C504 C190 2.146 . S
C513 C1 2.219 . S
C515 C211 2.224 . S
C524 C250 1.933 . S
C526 C40 1.927 . S
C535 C100 2.127 . S
C537 C241 2.053 . S
C546 C130 2.326 . S
C548 C181 2.208 . S
C557 C220 1.960 . S
C559 C160 1.963 . S
