# Generated by pormake.
# Topology wiv, (6)-cn, num edge types: 1
# Building blocks:
#     Node 0, Type 0, BuildingBlock: BETDIP_clean_sbu_0, # of connection points: 6
#     Node 1, Type 0, BuildingBlock: BETDIP_clean_sbu_0, # of connection points: 6
#     Node 2, Type 0, BuildingBlock: BETDIP_clean_sbu_0, # of connection points: 6
#     Node 3, Type 0, BuildingBlock: BETDIP_clean_sbu_0, # of connection points: 6
#     Node 4, Type 0, BuildingBlock: BETDIP_clean_sbu_0, # of connection points: 6
#     Node 5, Type 0, BuildingBlock: BETDIP_clean_sbu_0, # of connection points: 6
#     Node 6, Type 0, BuildingBlock: BETDIP_clean_sbu_0, # of connection points: 6
#     Node 7, Type 0, BuildingBlock: BETDIP_clean_sbu_0, # of connection points: 6
#     Node 8, Type 0, BuildingBlock: BETDIP_clean_sbu_0, # of connection points: 6
#     Node 9, Type 0, BuildingBlock: BETDIP_clean_sbu_0, # of connection points: 6
#     Node 10, Type 0, BuildingBlock: BETDIP_clean_sbu_0, # of connection points: 6
#     Node 11, Type 0, BuildingBlock: BETDIP_clean_sbu_0, # of connection points: 6
#     Node 12, Type 0, BuildingBlock: BETDIP_clean_sbu_0, # of connection points: 6
#     Node 13, Type 0, BuildingBlock: BETDIP_clean_sbu_0, # of connection points: 6
#     Node 14, Type 0, BuildingBlock: BETDIP_clean_sbu_0, # of connection points: 6
#     Node 15, Type 0, BuildingBlock: BETDIP_clean_sbu_0, # of connection points: 6
#     Edge 16, Type (0, 0), BuildingBlock: OJICUG_clean_linker_0, # of connection points: 2
#     Edge 17, Type (0, 0), BuildingBlock: OJICUG_clean_linker_0, # of connection points: 2
#     Edge 18, Type (0, 0), BuildingBlock: OJICUG_clean_linker_0, # of connection points: 2
#     Edge 19, Type (0, 0), BuildingBlock: OJICUG_clean_linker_0, # of connection points: 2
#     Edge 20, Type (0, 0), BuildingBlock: OJICUG_clean_linker_0, # of connection points: 2
#     Edge 21, Type (0, 0), BuildingBlock: OJICUG_clean_linker_0, # of connection points: 2
#     Edge 22, Type (0, 0), BuildingBlock: OJICUG_clean_linker_0, # of connection points: 2
#     Edge 23, Type (0, 0), BuildingBlock: OJICUG_clean_linker_0, # of connection points: 2
#     Edge 24, Type (0, 0), BuildingBlock: OJICUG_clean_linker_0, # of connection points: 2
#     Edge 25, Type (0, 0), BuildingBlock: OJICUG_clean_linker_0, # of connection points: 2
#     Edge 26, Type (0, 0), BuildingBlock: OJICUG_clean_linker_0, # of connection points: 2
#     Edge 27, Type (0, 0), BuildingBlock: OJICUG_clean_linker_0, # of connection points: 2
#     Edge 28, Type (0, 0), BuildingBlock: OJICUG_clean_linker_0, # of connection points: 2
#     Edge 29, Type (0, 0), BuildingBlock: OJICUG_clean_linker_0, # of connection points: 2
#     Edge 30, Type (0, 0), BuildingBlock: OJICUG_clean_linker_0, # of connection points: 2
#     Edge 31, Type (0, 0), BuildingBlock: OJICUG_clean_linker_0, # of connection points: 2
#     Edge 32, Type (0, 0), BuildingBlock: OJICUG_clean_linker_0, # of connection points: 2
#     Edge 33, Type (0, 0), BuildingBlock: OJICUG_clean_linker_0, # of connection points: 2
#     Edge 34, Type (0, 0), BuildingBlock: OJICUG_clean_linker_0, # of connection points: 2
#     Edge 35, Type (0, 0), BuildingBlock: OJICUG_clean_linker_0, # of connection points: 2
#     Edge 36, Type (0, 0), BuildingBlock: OJICUG_clean_linker_0, # of connection points: 2
#     Edge 37, Type (0, 0), BuildingBlock: OJICUG_clean_linker_0, # of connection points: 2
#     Edge 38, Type (0, 0), BuildingBlock: OJICUG_clean_linker_0, # of connection points: 2
#     Edge 39, Type (0, 0), BuildingBlock: OJICUG_clean_linker_0, # of connection points: 2
#     Edge 40, Type (0, 0), BuildingBlock: OJICUG_clean_linker_0, # of connection points: 2
#     Edge 41, Type (0, 0), BuildingBlock: OJICUG_clean_linker_0, # of connection points: 2
#     Edge 42, Type (0, 0), BuildingBlock: OJICUG_clean_linker_0, # of connection points: 2
#     Edge 43, Type (0, 0), BuildingBlock: OJICUG_clean_linker_0, # of connection points: 2
#     Edge 44, Type (0, 0), BuildingBlock: OJICUG_clean_linker_0, # of connection points: 2
#     Edge 45, Type (0, 0), BuildingBlock: OJICUG_clean_linker_0, # of connection points: 2
#     Edge 46, Type (0, 0), BuildingBlock: OJICUG_clean_linker_0, # of connection points: 2
#     Edge 47, Type (0, 0), BuildingBlock: OJICUG_clean_linker_0, # of connection points: 2
#     Edge 48, Type (0, 0), BuildingBlock: OJICUG_clean_linker_0, # of connection points: 2
#     Edge 49, Type (0, 0), BuildingBlock: OJICUG_clean_linker_0, # of connection points: 2
#     Edge 50, Type (0, 0), BuildingBlock: OJICUG_clean_linker_0, # of connection points: 2
#     Edge 51, Type (0, 0), BuildingBlock: OJICUG_clean_linker_0, # of connection points: 2
#     Edge 52, Type (0, 0), BuildingBlock: OJICUG_clean_linker_0, # of connection points: 2
#     Edge 53, Type (0, 0), BuildingBlock: OJICUG_clean_linker_0, # of connection points: 2
#     Edge 54, Type (0, 0), BuildingBlock: OJICUG_clean_linker_0, # of connection points: 2
#     Edge 55, Type (0, 0), BuildingBlock: OJICUG_clean_linker_0, # of connection points: 2
#     Edge 56, Type (0, 0), BuildingBlock: OJICUG_clean_linker_0, # of connection points: 2
#     Edge 57, Type (0, 0), BuildingBlock: OJICUG_clean_linker_0, # of connection points: 2
#     Edge 58, Type (0, 0), BuildingBlock: OJICUG_clean_linker_0, # of connection points: 2
#     Edge 59, Type (0, 0), BuildingBlock: OJICUG_clean_linker_0, # of connection points: 2
#     Edge 60, Type (0, 0), BuildingBlock: OJICUG_clean_linker_0, # of connection points: 2
#     Edge 61, Type (0, 0), BuildingBlock: OJICUG_clean_linker_0, # of connection points: 2
#     Edge 62, Type (0, 0), BuildingBlock: OJICUG_clean_linker_0, # of connection points: 2
#     Edge 63, Type (0, 0), BuildingBlock: OJICUG_clean_linker_0, # of connection points: 2
# Relax obj value: 0.180
# Max RMSD: 0.224
# Mean RMSD: 0.224
data_MOF--net-wiv--node1-BETDIP_clean_sbu_0--edge1-OJICUG_clean_linker_0
_symmetry_space_group_name_H-M    P1
_symmetry_Int_Tables_number       1
_symmetry_cell_setting            triclinic
loop_
_symmetry_equiv_pos_as_xyz
'x, y, z'
_cell_length_a     34.114714
_cell_length_b     34.077644
_cell_length_c     19.750194
_cell_angle_alpha  90.042203
_cell_angle_beta   90.050971
_cell_angle_gamma 90.025609
loop_
_atom_site_label
_atom_site_type_symbol
_atom_site_fract_x
_atom_site_fract_y
_atom_site_fract_z
_atom_type_partial_charge
Tb0 Tb 0.33083 0.09631 0.20369 0.0
Tb1 Tb 0.39751 0.10774 0.09505 0.0
C2 C 0.29603 0.06556 0.30192 0.0
C3 C 0.30074 0.0728 0.37544 0.0
C4 C 0.30601 0.04096 0.41959 0.0
C5 C 0.31729 0.04716 0.48704 0.0
C6 C 0.32375 0.08541 0.51181 0.0
C7 C 0.31683 0.11729 0.46805 0.0
C8 C 0.30568 0.11107 0.40063 0.0
C9 C 0.34577 0.17194 0.18463 0.0
C10 C 0.42001 0.12002 0.24549 0.0
C11 C 0.43129 0.12594 0.98696 0.0
C12 C 0.41894 0.11991 0.91535 0.0
C13 C 0.41134 0.15229 0.87336 0.0
C14 C 0.39645 0.14694 0.80774 0.0
C15 C 0.3888 0.10903 0.78239 0.0
C16 C 0.39731 0.07663 0.824 0.0
C17 C 0.41213 0.08197 0.88951 0.0
C18 C 0.39168 0.03796 0.15275 0.0
C19 C 0.30801 0.09207 1.04717 0.0
O20 O 0.32688 0.05007 0.27308 0.0
O21 O 0.28058 0.09381 0.26522 0.0
O22 O 0.36015 0.14263 0.15487 0.0
O23 O 0.32009 0.15862 0.22706 0.0
O24 O 0.38575 0.10386 0.26229 0.0
O25 O 0.42963 0.12915 0.18231 0.0
O26 O 0.41042 0.151 1.02236 0.0
O27 O 0.43977 0.09427 1.0217 0.0
O28 O 0.36386 0.06055 0.13619 0.0
O29 O 0.42443 0.0539 0.13353 0.0
O30 O 0.34542 0.0982 1.03293 0.0
O31 O 0.29494 0.08903 0.11081 0.0
H32 H 0.30294 0.01116 0.40114 0.0
H33 H 0.32263 0.02184 0.51882 0.0
H34 H 0.32077 0.14716 0.4855 0.0
H35 H 0.30224 0.13622 0.36769 0.0
H36 H 0.41614 0.18184 0.89186 0.0
H37 H 0.39 0.17264 0.77751 0.0
H38 H 0.39246 0.04699 0.80602 0.0
H39 H 0.41749 0.05623 0.92028 0.0
Tb40 Tb 0.1064 0.61394 1.01545 0.0
Tb41 Tb 0.09563 0.6805 0.90676 0.0
C42 C 0.12426 0.57982 0.12347 0.0
C43 C 0.11812 0.59191 0.19509 0.0
C44 C 0.15039 0.59793 0.23806 0.0
C45 C 0.14511 0.61261 0.30381 0.0
C46 C 0.10736 0.6216 0.32825 0.0
C47 C 0.07503 0.61466 0.28563 0.0
C48 C 0.08031 0.60007 0.21998 0.0
C49 C 0.03675 0.61996 0.95736 0.0
C50 C 0.09147 0.70355 0.06303 0.0
C51 C 0.06523 0.71538 0.80825 0.0
C52 C 0.07255 0.71036 0.73491 0.0
C53 C 0.04077 0.70666 0.69018 0.0
C54 C 0.04677 0.69505 0.62286 0.0
C55 C 0.08475 0.68671 0.59886 0.0
C56 C 0.11665 0.692 0.64327 0.0
C57 C 0.11061 0.70342 0.71054 0.0
C58 C 0.17112 0.66539 0.92605 0.0
C59 C 0.11892 0.59112 0.86561 0.0
O60 O 0.14936 0.60089 0.08859 0.0
O61 O 0.09269 0.57148 0.08837 0.0
O62 O 0.05937 0.64782 0.97394 0.0
O63 O 0.05258 0.58717 0.97668 0.0
O64 O 0.09728 0.66609 0.07745 0.0
O65 O 0.08855 0.71657 0.99936 0.0
O66 O 0.04951 0.68466 0.83719 0.0
O67 O 0.09356 0.73073 0.84495 0.0
O68 O 0.14182 0.65077 0.95547 0.0
O69 O 0.15786 0.69123 0.88381 0.0
O70 O 0.10283 0.62538 0.84849 0.0
O71 O 0.128 0.58166 0.92883 0.0
H72 H 0.17984 0.59208 0.22024 0.0
H73 H 0.17076 0.61786 0.33485 0.0
H74 H 0.04549 0.62058 0.30289 0.0
H75 H 0.05468 0.59598 0.18835 0.0
H76 H 0.0111 0.71122 0.70806 0.0
H77 H 0.02142 0.69099 0.59057 0.0
H78 H 0.14635 0.68659 0.62643 0.0
H79 H 0.13568 0.70556 0.74402 0.0
Tb80 Tb 0.67956 0.91417 0.20463 0.0
Tb81 Tb 0.61306 0.90231 0.09548 0.0
C82 C 0.71442 0.94512 0.30271 0.0
C83 C 0.71016 0.93798 0.37636 0.0
C84 C 0.70205 0.96959 0.41978 0.0
C85 C 0.69148 0.96301 0.48737 0.0
C86 C 0.68869 0.92458 0.51318 0.0
C87 C 0.69847 0.89307 0.47019 0.0
C88 C 0.70884 0.89966 0.40254 0.0
C89 C 0.66476 0.8385 0.18553 0.0
C90 C 0.59028 0.89036 0.24583 0.0
C91 C 0.57994 0.88359 0.98696 0.0
C92 C 0.59304 0.88892 0.91556 0.0
C93 C 0.60514 0.85649 0.87685 0.0
C94 C 0.62068 0.86167 0.81169 0.0
C95 C 0.62449 0.89945 0.78356 0.0
C96 C 0.61156 0.93178 0.82178 0.0
C97 C 0.59602 0.92662 0.88677 0.0
C98 C 0.61848 0.97213 0.15325 0.0
C99 C 0.7025 0.91839 1.04813 0.0
O100 O 0.68335 0.96041 0.27414 0.0
O101 O 0.72999 0.91701 0.26581 0.0
O102 O 0.65063 0.86778 0.15542 0.0
O103 O 0.6902 0.85189 0.22846 0.0
O104 O 0.62453 0.90655 0.26288 0.0
O105 O 0.58076 0.88116 0.18257 0.0
O106 O 0.60008 0.85854 1.02364 0.0
O107 O 0.57153 0.91565 1.02077 0.0
O108 O 0.64644 0.94968 0.13686 0.0
O109 O 0.58581 0.95604 0.13381 0.0
O110 O 0.66514 0.91209 1.03365 0.0
O111 O 0.71549 0.92146 0.11187 0.0
H112 H 0.70236 0.99938 0.40062 0.0
H113 H 0.68382 0.98804 0.51844 0.0
H114 H 0.69746 0.86314 0.48846 0.0
H115 H 0.71465 0.87461 0.37029 0.0
H116 H 0.60333 0.82711 0.89753 0.0
H117 H 0.63056 0.83609 0.784 0.0
H118 H 0.61337 0.96123 0.80145 0.0
H119 H 0.58701 0.9524 0.91478 0.0
Tb120 Tb 0.90127 0.39752 1.01325 0.0
Tb121 Tb 0.91215 0.33073 0.90462 0.0
C122 C 0.88347 0.43168 0.12129 0.0
C123 C 0.88954 0.41955 0.19291 0.0
C124 C 0.85726 0.41356 0.23576 0.0
C125 C 0.86252 0.39896 0.30155 0.0
C126 C 0.90026 0.39 0.32616 0.0
C127 C 0.9326 0.3969 0.28366 0.0
C128 C 0.92734 0.41143 0.21799 0.0
C129 C 0.97049 0.39216 0.954 0.0
C130 C 0.91683 0.30794 0.06107 0.0
C131 C 0.94246 0.29588 0.80601 0.0
C132 C 0.93509 0.30108 0.73272 0.0
C133 C 0.96682 0.30455 0.68796 0.0
C134 C 0.96082 0.3163 0.62074 0.0
C135 C 0.92287 0.32501 0.59682 0.0
C136 C 0.89101 0.32 0.64129 0.0
C137 C 0.89706 0.30845 0.70849 0.0
C138 C 0.83671 0.34556 0.92456 0.0
C139 C 0.88844 0.42001 0.863 0.0
O140 O 0.85827 0.41077 0.08617 0.0
O141 O 0.91511 0.43989 0.08638 0.0
O142 O 0.94835 0.36404 0.97115 0.0
O143 O 0.95455 0.42481 0.97381 0.0
O144 O 0.91095 0.34544 0.07538 0.0
O145 O 0.91961 0.29483 0.99739 0.0
O146 O 0.95826 0.32651 0.83519 0.0
O147 O 0.91413 0.28053 0.84258 0.0
O148 O 0.86606 0.36026 0.9537 0.0
O149 O 0.84986 0.31975 0.88213 0.0
O150 O 0.90439 0.38564 0.84596 0.0
O151 O 0.87954 0.42961 0.9263 0.0
H152 H 0.82781 0.4194 0.21782 0.0
H153 H 0.83687 0.39374 0.33251 0.0
H154 H 0.96213 0.391 0.30105 0.0
H155 H 0.95299 0.41551 0.1865 0.0
H156 H 0.99648 0.29967 0.70577 0.0
H157 H 0.98615 0.32015 0.58843 0.0
H158 H 0.86132 0.32569 0.62456 0.0
H159 H 0.87203 0.30653 0.74202 0.0
Tb160 Tb 0.33087 0.41344 0.15531 0.0
Tb161 Tb 0.39766 0.40246 0.26384 0.0
C162 C 0.29619 0.44383 0.05663 0.0
C163 C 0.30157 0.43624 0.98345 0.0
C164 C 0.30382 0.4678 0.93801 0.0
C165 C 0.31544 0.4617 0.87072 0.0
C166 C 0.32528 0.42384 0.84751 0.0
C167 C 0.32168 0.39214 0.89278 0.0
C168 C 0.31022 0.39829 0.95998 0.0
C169 C 0.34613 0.33788 0.17423 0.0
C170 C 0.42011 0.39037 0.11348 0.0
C171 C 0.43184 0.38482 0.37191 0.0
C172 C 0.41943 0.39089 0.44335 0.0
C173 C 0.41498 0.35869 0.48699 0.0
C174 C 0.40016 0.36381 0.55267 0.0
C175 C 0.38941 0.40133 0.57632 0.0
C176 C 0.39465 0.43362 0.53292 0.0
C177 C 0.40938 0.4285 0.46738 0.0
C178 C 0.39128 0.47229 0.20634 0.0
C179 C 0.30794 0.41682 0.31158 0.0
O180 O 0.32675 0.45967 0.08594 0.0
O181 O 0.28077 0.41552 0.09322 0.0
O182 O 0.36065 0.36721 0.20381 0.0
O183 O 0.32019 0.35111 0.13214 0.0
O184 O 0.38575 0.40631 0.09676 0.0
O185 O 0.42986 0.38126 0.17663 0.0
O186 O 0.4112 0.35945 0.33669 0.0
O187 O 0.4399 0.41654 0.33701 0.0
O188 O 0.36363 0.44948 0.22291 0.0
O189 O 0.42413 0.45654 0.22547 0.0
O190 O 0.34536 0.4107 0.32589 0.0
O191 O 0.29496 0.42049 0.24798 0.0
H192 H 0.298 0.49742 0.95525 0.0
H193 H 0.31823 0.4869 0.83774 0.0
H194 H 0.32832 0.36252 0.87661 0.0
H195 H 0.30929 0.37343 0.99406 0.0
H196 H 0.42222 0.32938 0.46978 0.0
H197 H 0.39623 0.33819 0.58432 0.0
H198 H 0.38732 0.46301 0.54955 0.0
H199 H 0.41217 0.45405 0.43517 0.0
Tb200 Tb 0.40145 0.61361 0.84605 0.0
Tb201 Tb 0.41247 0.68016 0.95494 0.0
C202 C 0.38286 0.58034 0.7376 0.0
C203 C 0.38938 0.59289 0.66624 0.0
C204 C 0.35742 0.60276 0.62469 0.0
C205 C 0.36344 0.61796 0.55949 0.0
C206 C 0.40162 0.62359 0.53408 0.0
C207 C 0.43354 0.61292 0.57532 0.0
C208 C 0.42753 0.5978 0.64039 0.0
C209 C 0.47119 0.61961 0.90353 0.0
C210 C 0.41703 0.70308 0.79835 0.0
C211 C 0.44337 0.71527 1.05296 0.0
C212 C 0.43711 0.71057 0.12674 0.0
C213 C 0.46952 0.70488 0.16947 0.0
C214 C 0.46424 0.69393 0.23722 0.0
C215 C 0.42636 0.68831 0.26385 0.0
C216 C 0.39391 0.69557 0.22156 0.0
C217 C 0.39921 0.70635 0.15372 0.0
C218 C 0.33697 0.66499 0.93605 0.0
C219 C 0.38958 0.59063 0.99633 0.0
O220 O 0.35814 0.60162 0.77296 0.0
O221 O 0.41418 0.57105 0.77266 0.0
O222 O 0.44851 0.64748 0.88739 0.0
O223 O 0.45541 0.5868 0.8839 0.0
O224 O 0.41168 0.66554 0.7839 0.0
O225 O 0.4192 0.71622 0.86211 0.0
O226 O 0.45902 0.68463 1.02362 0.0
O227 O 0.41458 0.73034 1.01707 0.0
O228 O 0.36621 0.65041 0.90642 0.0
O229 O 0.35029 0.69081 0.97838 0.0
O230 O 0.40538 0.62508 1.01338 0.0
O231 O 0.38051 0.58105 0.93305 0.0
H232 H 0.32771 0.59931 0.64307 0.0
H233 H 0.33809 0.62518 0.52893 0.0
H234 H 0.46336 0.61727 0.55815 0.0
H235 H 0.45297 0.5909 0.67096 0.0
H236 H 0.49903 0.70761 0.14975 0.0
H237 H 0.48991 0.6892 0.26847 0.0
H238 H 0.36434 0.6912 0.23996 0.0
H239 H 0.37363 0.70992 0.12182 0.0
Tb240 Tb 0.67913 0.59711 0.15453 0.0
Tb241 Tb 0.61264 0.60866 0.2637 0.0
C242 C 0.71432 0.56626 0.05681 0.0
C243 C 0.71018 0.57298 0.98294 0.0
C244 C 0.69962 0.54157 0.94062 0.0
C245 C 0.68937 0.54811 0.87286 0.0
C246 C 0.68954 0.58631 0.84556 0.0
C247 C 0.70187 0.61748 0.8874 0.0
C248 C 0.7118 0.61096 0.95532 0.0
C249 C 0.66425 0.67269 0.17415 0.0
C250 C 0.58977 0.62067 0.1133 0.0
C251 C 0.57967 0.62725 0.37226 0.0
C252 C 0.59331 0.6226 0.4436 0.0
C253 C 0.61001 0.65438 0.47882 0.0
C254 C 0.62598 0.64922 0.5437 0.0
C255 C 0.62571 0.61212 0.57502 0.0
C256 C 0.60823 0.58056 0.54041 0.0
C257 C 0.59213 0.58573 0.47578 0.0
C258 C 0.61802 0.53902 0.20534 0.0
C259 C 0.70206 0.59284 0.31117 0.0
O260 O 0.68337 0.55076 0.08538 0.0
O261 O 0.72963 0.59463 0.09354 0.0
O262 O 0.65032 0.64329 0.20421 0.0
O263 O 0.68951 0.65945 0.13084 0.0
O264 O 0.62408 0.60469 0.09618 0.0
O265 O 0.58021 0.62968 0.1766 0.0
O266 O 0.59892 0.65259 0.33472 0.0
O267 O 0.57182 0.59478 0.33918 0.0
O268 O 0.64601 0.56143 0.22198 0.0
O269 O 0.58535 0.55504 0.22482 0.0
O270 O 0.6647 0.59889 0.32568 0.0
O271 O 0.71505 0.59003 0.24743 0.0
H272 H 0.6977 0.51206 0.96079 0.0
H273 H 0.67967 0.52334 0.84283 0.0
H274 H 0.70329 0.64715 0.86801 0.0
H275 H 0.7197 0.63587 0.98657 0.0
H276 H 0.61144 0.68315 0.45566 0.0
H277 H 0.63938 0.67415 0.5687 0.0
H278 H 0.60684 0.55174 0.5634 0.0
H279 H 0.57935 0.56052 0.45067 0.0
Tb280 Tb 0.60703 0.3975 0.84515 0.0
Tb281 Tb 0.59541 0.33106 0.95408 0.0
C282 C 0.62572 0.43067 0.7368 0.0
C283 C 0.6189 0.41817 0.66549 0.0
C284 C 0.65073 0.40928 0.62311 0.0
C285 C 0.64454 0.39404 0.55793 0.0
C286 C 0.60629 0.38739 0.5334 0.0
C287 C 0.57447 0.39711 0.57548 0.0
C288 C 0.58066 0.41225 0.64054 0.0
C289 C 0.53714 0.3918 0.90191 0.0
C290 C 0.59123 0.30795 0.79756 0.0
C291 C 0.56417 0.29623 1.05192 0.0
C292 C 0.57053 0.3008 0.1257 0.0
C293 C 0.53816 0.30568 0.1687 0.0
C294 C 0.54345 0.31644 0.23659 0.0
C295 C 0.5813 0.32273 0.26302 0.0
C296 C 0.61374 0.31632 0.22038 0.0
C297 C 0.60842 0.30569 0.15245 0.0
C298 C 0.67097 0.34584 0.93556 0.0
C299 C 0.61893 0.42048 0.99546 0.0
O300 O 0.65031 0.40914 0.77197 0.0
O301 O 0.59456 0.44023 0.77199 0.0
O302 O 0.55977 0.36385 0.88603 0.0
O303 O 0.55307 0.42452 0.8824 0.0
O304 O 0.59699 0.34543 0.78315 0.0
O305 O 0.58857 0.29493 0.86129 0.0
O306 O 0.54887 0.32709 1.02273 0.0
O307 O 0.5928 0.28092 1.01603 0.0
O308 O 0.64182 0.36049 0.9058 0.0
O309 O 0.65753 0.32012 0.97788 0.0
O310 O 0.60281 0.38619 1.01244 0.0
O311 O 0.6282 0.42991 0.93226 0.0
H312 H 0.6805 0.4135 0.64084 0.0
H313 H 0.66979 0.38758 0.5267 0.0
H314 H 0.54463 0.39194 0.55899 0.0
H315 H 0.55532 0.41832 0.67183 0.0
H316 H 0.50865 0.30243 0.14914 0.0
H317 H 0.5178 0.3205 0.26809 0.0
H318 H 0.64328 0.32125 0.2386 0.0
H319 H 0.63396 0.30278 0.1203 0.0
Tb320 Tb 0.82965 0.59726 0.70423 0.0
Tb321 Tb 0.89642 0.60829 0.59582 0.0
C322 C 0.7949 0.5667 0.80261 0.0
C323 C 0.80026 0.57402 0.8759 0.0
C324 C 0.80319 0.54226 0.92081 0.0
C325 C 0.81502 0.54818 0.98807 0.0
C326 C 0.82435 0.58607 1.01184 0.0
C327 C 0.8199 0.61797 0.96719 0.0
C328 C 0.80829 0.612 0.89998 0.0
C329 C 0.84482 0.67282 0.68505 0.0
C330 C 0.91886 0.62076 0.74634 0.0
C331 C 0.93053 0.62613 0.48785 0.0
C332 C 0.91847 0.61983 0.41622 0.0
C333 C 0.91297 0.652 0.37285 0.0
C334 C 0.89845 0.64657 0.30701 0.0
C335 C 0.88908 0.60878 0.28286 0.0
C336 C 0.89546 0.57653 0.32592 0.0
C337 C 0.9099 0.58196 0.39166 0.0
C338 C 0.8902 0.53852 0.65344 0.0
C339 C 0.80678 0.59313 0.54781 0.0
O340 O 0.82542 0.55089 0.77328 0.0
O341 O 0.77954 0.59513 0.76619 0.0
O342 O 0.85928 0.64347 0.65553 0.0
O343 O 0.81895 0.6596 0.72724 0.0
O344 O 0.88449 0.60482 0.7631 0.0
O345 O 0.92856 0.62969 0.6831 0.0
O346 O 0.90945 0.65127 0.52269 0.0
O347 O 0.93889 0.59459 0.523 0.0
O348 O 0.86251 0.56126 0.63684 0.0
O349 O 0.92304 0.55433 0.63442 0.0
O350 O 0.84425 0.59904 0.53359 0.0
O351 O 0.79371 0.59014 0.61143 0.0
H352 H 0.79782 0.51263 0.90312 0.0
H353 H 0.81844 0.52282 1.02051 0.0
H354 H 0.82607 0.64762 0.98379 0.0
H355 H 0.8068 0.63703 0.86634 0.0
H356 H 0.91914 0.68149 0.39041 0.0
H357 H 0.89364 0.67216 0.27562 0.0
H358 H 0.88921 0.54696 0.30892 0.0
H359 H 0.91356 0.5564 0.4236 0.0
Tb360 Tb 0.60776 0.11382 0.51318 0.0
Tb361 Tb 0.59612 0.18018 0.40419 0.0
C362 C 0.62652 0.08075 0.62162 0.0
C363 C 0.61966 0.09325 0.69289 0.0
C364 C 0.65146 0.10224 0.73539 0.0
C365 C 0.64522 0.11749 0.80051 0.0
C366 C 0.60696 0.12406 0.82487 0.0
C367 C 0.57516 0.11424 0.78269 0.0
C368 C 0.5814 0.09908 0.71768 0.0
C369 C 0.53785 0.11938 0.45625 0.0
C370 C 0.59174 0.20332 0.56067 0.0
C371 C 0.56482 0.21495 0.30628 0.0
C372 C 0.57116 0.21046 0.23251 0.0
C373 C 0.53878 0.20559 0.18942 0.0
C374 C 0.54405 0.19489 0.12152 0.0
C375 C 0.5819 0.18867 0.09516 0.0
C376 C 0.61435 0.19507 0.13789 0.0
C377 C 0.60905 0.20563 0.20584 0.0
C378 C 0.67174 0.16548 0.42282 0.0
C379 C 0.61955 0.09077 0.36293 0.0
O380 O 0.65106 0.10236 0.58652 0.0
O381 O 0.5954 0.07106 0.58631 0.0
O382 O 0.56046 0.14738 0.47213 0.0
O383 O 0.55381 0.08669 0.47584 0.0
O384 O 0.59755 0.16586 0.57513 0.0
O385 O 0.58915 0.21632 0.49692 0.0
O386 O 0.54959 0.18403 0.33537 0.0
O387 O 0.59343 0.23032 0.34226 0.0
O388 O 0.6426 0.15081 0.45257 0.0
O389 O 0.65825 0.19116 0.38048 0.0
O390 O 0.60342 0.12504 0.3459 0.0
O391 O 0.62887 0.08138 0.42615 0.0
H392 H 0.68124 0.09808 0.71777 0.0
H393 H 0.67046 0.12403 0.83184 0.0
H394 H 0.54531 0.11934 0.79905 0.0
H395 H 0.55608 0.09293 0.68629 0.0
H396 H 0.50927 0.2088 0.20892 0.0
H397 H 0.51839 0.19083 0.08994 0.0
H398 H 0.64388 0.19018 0.11973 0.0
H399 H 0.63459 0.20854 0.23806 0.0
Tb400 Tb 0.17592 0.41171 0.70084 0.0
Tb401 Tb 0.11424 0.40374 0.59376 0.0
C402 C 0.21884 0.43565 0.79492 0.0
C403 C 0.21395 0.4306 0.86936 0.0
C404 C 0.20341 0.46293 0.90969 0.0
C405 C 0.19288 0.4579 0.97773 0.0
C406 C 0.19274 0.42034 1.00755 0.0
C407 C 0.20506 0.38826 0.96785 0.0
C408 C 0.21534 0.39327 0.89967 0.0
C409 C 0.1519 0.3391 0.68334 0.0
C410 C 0.0871 0.39302 0.74159 0.0
C411 C 0.08113 0.38981 0.48259 0.0
C412 C 0.0961 0.39276 0.41167 0.0
C413 C 0.11306 0.36026 0.37889 0.0
C414 C 0.12936 0.36402 0.31393 0.0
C415 C 0.12923 0.4004 0.2801 0.0
C416 C 0.11168 0.43269 0.31245 0.0
C417 C 0.09519 0.42889 0.37704 0.0
C418 C 0.11698 0.4722 0.6571 0.0
C419 C 0.20221 0.4179 0.54651 0.0
O420 O 0.19204 0.45754 0.76593 0.0
O421 O 0.22711 0.40423 0.75893 0.0
O422 O 0.15702 0.36417 0.63657 0.0
O423 O 0.16282 0.35401 0.74046 0.0
O424 O 0.12061 0.41033 0.75866 0.0
O425 O 0.07938 0.3824 0.67839 0.0
O426 O 0.09591 0.36215 0.52116 0.0
O427 O 0.07761 0.42298 0.51536 0.0
O428 O 0.14559 0.45156 0.63808 0.0
O429 O 0.08486 0.45452 0.63953 0.0
O430 O 0.1646 0.41836 0.53162 0.0
O431 O 0.21452 0.41411 0.61032 0.0
H432 H 0.20189 0.49205 0.88784 0.0
H433 H 0.18331 0.48335 1.00606 0.0
H434 H 0.20634 0.35903 0.98918 0.0
H435 H 0.22342 0.36765 0.8704 0.0
H436 H 0.11426 0.33198 0.40381 0.0
H437 H 0.14277 0.33855 0.29071 0.0
H438 H 0.1104 0.46098 0.28759 0.0
H439 H 0.08213 0.45457 0.40016 0.0
Tb440 Tb 0.40242 0.89722 0.51344 0.0
Tb441 Tb 0.41332 0.83051 0.40488 0.0
C442 C 0.38439 0.93117 0.62157 0.0
C443 C 0.39033 0.9188 0.69314 0.0
C444 C 0.35794 0.91178 0.73529 0.0
C445 C 0.36314 0.89689 0.80091 0.0
C446 C 0.40093 0.88868 0.82608 0.0
C447 C 0.43336 0.89661 0.78429 0.0
C448 C 0.42816 0.91141 0.71878 0.0
C449 C 0.4721 0.89115 0.45592 0.0
C450 C 0.41726 0.80754 0.56129 0.0
C451 C 0.44385 0.79573 0.30635 0.0
C452 C 0.4366 0.80062 0.23291 0.0
C453 C 0.4684 0.80559 0.18867 0.0
C454 C 0.46225 0.81693 0.12128 0.0
C455 C 0.42408 0.82378 0.09667 0.0
C456 C 0.39222 0.81724 0.14054 0.0
C457 C 0.3984 0.80601 0.20789 0.0
C458 C 0.33784 0.84563 0.42385 0.0
C459 C 0.39027 0.91994 0.36316 0.0
O460 O 0.35926 0.91038 0.58612 0.0
O461 O 0.41609 0.93948 0.58688 0.0
O462 O 0.44947 0.86328 0.47231 0.0
O463 O 0.45629 0.92396 0.47523 0.0
O464 O 0.41141 0.84504 0.57555 0.0
O465 O 0.42031 0.79446 0.49763 0.0
O466 O 0.45948 0.82649 0.33543 0.0
O467 O 0.41558 0.78031 0.34295 0.0
O468 O 0.36713 0.86032 0.45326 0.0
O469 O 0.35108 0.81969 0.38174 0.0
O470 O 0.40605 0.88549 0.34627 0.0
O471 O 0.3813 0.92962 0.42639 0.0
H472 H 0.32847 0.91703 0.71692 0.0
H473 H 0.33743 0.89088 0.83128 0.0
H474 H 0.46291 0.89132 0.80213 0.0
H475 H 0.45389 0.91631 0.68786 0.0
H476 H 0.49816 0.80219 0.20701 0.0
H477 H 0.48756 0.82198 0.08939 0.0
H478 H 0.36241 0.82152 0.1232 0.0
H479 H 0.37328 0.80284 0.24092 0.0
Tb480 Tb 0.8301 0.91434 0.65505 0.0
Tb481 Tb 0.89654 0.90303 0.76429 0.0
C482 C 0.79511 0.94527 0.55708 0.0
C483 C 0.7998 0.93869 0.48343 0.0
C484 C 0.80333 0.971 0.43983 0.0
C485 C 0.81424 0.96572 0.37203 0.0
C486 C 0.82195 0.92794 0.34632 0.0
C487 C 0.81697 0.89551 0.38959 0.0
C488 C 0.80628 0.90083 0.45745 0.0
C489 C 0.8451 0.83874 0.67414 0.0
C490 C 0.91941 0.89089 0.61403 0.0
C491 C 0.92984 0.88458 0.87271 0.0
C492 C 0.91737 0.89128 0.94402 0.0
C493 C 0.90915 0.85932 0.9866 0.0
C494 C 0.89398 0.86535 1.0518 0.0
C495 C 0.88669 0.90355 0.07615 0.0
C496 C 0.89575 0.93551 1.03386 0.0
C497 C 0.91084 0.92948 0.96879 0.0
C498 C 0.89089 0.97278 0.70646 0.0
C499 C 0.8071 0.91885 0.81158 0.0
O500 O 0.82585 0.96083 0.58627 0.0
O501 O 0.77993 0.91658 0.59309 0.0
O502 O 0.85936 0.86807 0.7041 0.0
O503 O 0.81957 0.85203 0.63134 0.0
O504 O 0.88517 0.90701 0.59688 0.0
O505 O 0.92882 0.88166 0.6773 0.0
O506 O 0.90848 0.8598 0.83751 0.0
O507 O 0.93913 0.91587 0.83756 0.0
O508 O 0.86301 0.95018 0.72275 0.0
O509 O 0.92357 0.95692 0.72624 0.0
O510 O 0.84456 0.91327 0.82615 0.0
O511 O 0.79406 0.92127 0.74779 0.0
H512 H 0.79891 1.00051 0.45884 0.0
H513 H 0.81727 0.99133 0.34 0.0
H514 H 0.82306 0.86605 0.3719 0.0
H515 H 0.8045 0.87539 0.49013 0.0
H516 H 0.91387 0.82958 0.969 0.0
H517 H 0.88804 0.84 0.08319 0.0
H518 H 0.89008 0.96531 1.05017 0.0
H519 H 0.91639 0.9549 0.93734 0.0
Tb520 Tb 0.90236 0.11365 0.34555 0.0
Tb521 Tb 0.91306 0.18032 0.45432 0.0
C522 C 0.88408 0.08019 0.23709 0.0
C523 C 0.88879 0.09355 0.16565 0.0
C524 C 0.85654 0.10814 0.12911 0.0
C525 C 0.86149 0.12393 0.06407 0.0
C526 C 0.89884 0.12555 1.03388 0.0
C527 C 0.93091 0.11012 0.06985 0.0
C528 C 0.92597 0.09426 0.13467 0.0
C529 C 0.97184 0.11961 0.40393 0.0
C530 C 0.9174 0.20321 0.29779 0.0
C531 C 0.9435 0.21553 0.55258 0.0
C532 C 0.93666 0.21112 0.62633 0.0
C533 C 0.96823 0.20171 0.66899 0.0
C534 C 0.9618 0.19119 0.73664 0.0
C535 C 0.92354 0.18986 0.76342 0.0
C536 C 0.89213 0.20098 0.72122 0.0
C537 C 0.89857 0.21123 0.65344 0.0
C538 C 0.83763 0.16521 0.4345 0.0
C539 C 0.89017 0.09076 0.49582 0.0
O540 O 0.85869 0.09961 0.27423 0.0
O541 O 0.91644 0.07253 0.27047 0.0
O542 O 0.94934 0.14753 0.38727 0.0
O543 O 0.95602 0.08677 0.38452 0.0
O544 O 0.91169 0.16573 0.28336 0.0
O545 O 0.92003 0.2163 0.36152 0.0
O546 O 0.95922 0.18473 0.52377 0.0
O547 O 0.91513 0.23073 0.51586 0.0
O548 O 0.867 0.15063 0.40528 0.0
O549 O 0.85078 0.19098 0.47709 0.0
O550 O 0.90567 0.12534 0.51294 0.0
O551 O 0.88153 0.08097 0.43246 0.0
H552 H 0.82753 0.10809 0.15138 0.0
H553 H 0.83614 0.13573 1.03808 0.0
H554 H 0.95997 0.1102 1.0478 0.0
H555 H 0.95157 0.08317 0.16086 0.0
H556 H 0.99783 0.20093 0.64918 0.0
H557 H 0.98675 0.18245 0.76699 0.0
H558 H 0.86238 0.20119 0.74022 0.0
H559 H 0.87354 0.21815 0.62187 0.0
Tb560 Tb 0.18048 0.09586 0.65371 0.0
Tb561 Tb 0.1145 0.10927 0.76254 0.0
C562 C 0.21462 0.06382 0.55588 0.0
C563 C 0.21026 0.07045 0.48212 0.0
C564 C 0.20478 0.03826 0.43876 0.0
C565 C 0.19404 0.04393 0.37095 0.0
C566 C 0.18842 0.082 0.34494 0.0
C567 C 0.19548 0.11424 0.38792 0.0
C568 C 0.20605 0.10854 0.45578 0.0
C569 C 0.16728 0.17193 0.67035 0.0
C570 C 0.09135 0.1205 0.61233 0.0
C571 C 0.08166 0.12857 0.87097 0.0
C572 C 0.09396 0.12156 0.94233 0.0
C573 C 0.10355 0.15329 0.9847 0.0
C574 C 0.11856 0.14685 1.04994 0.0
C575 C 0.12428 0.10847 0.07458 0.0
C576 C 0.11387 0.07677 1.03251 0.0
C577 C 0.09895 0.0832 0.96739 0.0
C578 C 0.11915 0.03884 0.70693 0.0
C579 C 0.20361 0.09201 0.81023 0.0
O580 O 0.18341 0.04921 0.58489 0.0
O581 O 0.23062 0.09204 0.59203 0.0
O582 O 0.15197 0.14338 0.70108 0.0
O583 O 0.19293 0.15747 0.629 0.0
O584 O 0.12532 0.10369 0.59553 0.0
O585 O 0.08227 0.13047 0.67538 0.0
O586 O 0.10366 0.15275 0.8359 0.0
O587 O 0.07155 0.09756 0.83565 0.0
O588 O 0.14731 0.06122 0.72257 0.0
O589 O 0.08669 0.0554 0.72595 0.0
O590 O 0.16634 0.09869 0.82467 0.0
O591 O 0.21648 0.08871 0.74651 0.0
H592 H 0.20748 0.00861 0.45799 0.0
H593 H 0.18946 0.01842 0.33918 0.0
H594 H 0.19109 0.14394 0.37003 0.0
H595 H 0.20946 0.13396 0.48819 0.0
H596 H 0.10005 0.18314 0.96689 0.0
H597 H 0.12557 0.17203 0.08114 0.0
H598 H 0.1183 0.04681 1.04906 0.0
H599 H 0.0923 0.05793 0.93613 0.0
Tb600 Tb 0.10756 0.89774 0.34685 0.0
Tb601 Tb 0.09653 0.83109 0.45567 0.0
C602 C 0.126 0.93107 0.23852 0.0
C603 C 0.12084 0.91793 0.16703 0.0
C604 C 0.15318 0.90485 0.12914 0.0
C605 C 0.14805 0.88923 0.06398 0.0
C606 C 0.11042 0.8863 1.03497 0.0
C607 C 0.07821 0.90023 0.07233 0.0
C608 C 0.08333 0.91588 0.13733 0.0
C609 C 0.03802 0.89195 0.40482 0.0
C610 C 0.09185 0.80828 0.29923 0.0
C611 C 0.06593 0.7959 0.55362 0.0
C612 C 0.07278 0.8002 0.62738 0.0
C613 C 0.04111 0.80891 0.67019 0.0
C614 C 0.04748 0.81952 0.73787 0.0
C615 C 0.08576 0.8217 0.76445 0.0
C616 C 0.1173 0.81123 0.72211 0.0
C617 C 0.11093 0.80086 0.65434 0.0
C618 C 0.17201 0.846 0.43597 0.0
C619 C 0.11975 0.9205 0.49716 0.0
O620 O 0.15118 0.91112 0.27524 0.0
O621 O 0.0939 0.93923 0.27222 0.0
O622 O 0.0605 0.864 0.38836 0.0
O623 O 0.05389 0.92474 0.38544 0.0
O624 O 0.09777 0.84571 0.28476 0.0
O625 O 0.08924 0.79521 0.3629 0.0
O626 O 0.05037 0.82682 0.52498 0.0
O627 O 0.09426 0.78063 0.51693 0.0
O628 O 0.14264 0.86055 0.40666 0.0
O629 O 0.15882 0.82034 0.47862 0.0
O630 O 0.10396 0.88608 0.51419 0.0
O631 O 0.12862 0.93019 0.43391 0.0
H632 H 0.18242 0.90595 0.15048 0.0
H633 H 0.17352 0.87857 1.03697 0.0
H634 H 0.04891 0.89912 1.05128 0.0
H635 H 0.05764 0.92571 0.16465 0.0
H636 H 0.01145 0.80908 0.65047 0.0
H637 H 0.02243 0.8277 0.76839 0.0
H638 H 0.1471 0.81171 0.74098 0.0
H639 H 0.13602 0.79453 0.62262 0.0
C640 C 0.41046 0.98477 0.31772 0.0
C641 C 0.38787 0.95065 0.31048 0.0
H642 H 0.43104 0.0376 0.27177 0.0
C643 C 0.36587 0.9453 0.25092 0.0
H644 H 0.42803 0.98935 0.36279 0.0
C645 C 0.36606 0.97416 0.19992 0.0
C646 C 0.38974 0.00772 0.20656 0.0
H647 H 0.34848 0.91899 0.24405 0.0
H648 H 0.34859 0.9698 0.15471 0.0
C649 C 0.41226 0.01237 0.26555 0.0
C650 C 0.94413 0.64549 0.85863 0.0
C651 C 0.9495 0.62335 0.7992 0.0
H652 H 0.96855 0.663 0.95486 0.0
C653 C 0.98361 0.6008 0.79224 0.0
H654 H 0.9178 0.66282 0.86532 0.0
C655 C 0.01122 0.59926 0.84445 0.0
C656 C 0.00656 0.62187 0.90334 0.0
H657 H 0.9882 0.58309 0.74734 0.0
H658 H 0.03647 0.58058 0.83835 0.0
C659 C 0.97296 0.64547 0.90974 0.0
C660 C 0.59761 0.99808 0.26567 0.0
C661 C 0.62029 1.00251 0.20691 0.0
H662 H 0.58166 0.0214 0.36263 0.0
C663 C 0.64412 0.03597 0.2004 0.0
H664 H 0.57876 0.97289 0.27183 0.0
C665 C 0.64423 0.06498 0.25121 0.0
C666 C 0.622 0.05989 0.31049 0.0
H667 H 0.66177 0.04013 0.15541 0.0
H668 H 0.66173 0.09122 0.24441 0.0
C669 C 0.59933 0.02583 0.3177 0.0
C670 C 0.99523 0.41407 0.84125 0.0
C671 C 1.00006 0.39056 0.89906 0.0
H672 H 0.01776 0.43124 0.74431 0.0
C673 C 0.03318 0.36618 0.90346 0.0
H674 H 0.97031 0.43336 0.83672 0.0
C675 C 0.06153 0.36645 0.85174 0.0
C676 C 0.05616 0.38967 0.79362 0.0
H677 H 0.03765 0.34788 0.94761 0.0
H678 H 0.08763 0.34862 0.85712 0.0
C679 C 0.02236 0.41279 0.78827 0.0
C680 C 0.36515 0.53585 0.15892 0.0
C681 C 0.38915 0.50252 0.15252 0.0
H682 H 0.34727 0.59093 0.11479 0.0
C683 C 0.41191 0.49818 0.0938 0.0
H684 H 0.34746 0.53997 0.20389 0.0
C685 C 0.41011 0.52587 1.04175 0.0
C686 C 0.38724 0.55979 1.04884 0.0
H687 H 0.43092 0.47312 0.08773 0.0
H688 H 0.42788 0.52152 0.99691 0.0
C689 C 0.36492 0.5648 0.10807 0.0
C690 C 0.5248 0.60063 0.06815 0.0
C691 C 0.55892 0.62316 0.06079 0.0
H692 H 0.47183 0.58017 1.02244 0.0
C693 C 0.56408 0.64527 1.00134 0.0
H694 H 0.52032 0.58303 0.11316 0.0
C695 C 0.53507 0.64519 0.95055 0.0
C696 C 0.50153 0.62151 0.95723 0.0
H697 H 0.59036 0.66266 0.99441 0.0
H698 H 0.5393 0.66273 0.90542 0.0
C699 C 0.49704 0.59894 1.01616 0.0
C700 C 0.64359 0.4752 0.15816 0.0
C701 C 0.61983 0.50868 0.15161 0.0
H702 H 0.66111 0.41995 0.11415 0.0
C703 C 0.59717 0.51316 0.09276 0.0
H704 H 0.66121 0.471 0.20322 0.0
C705 C 0.59885 0.48543 1.0407 0.0
C706 C 0.62145 0.45134 1.04796 0.0
H707 H 0.57836 0.53835 0.08656 0.0
H708 H 0.58119 0.4899 0.99572 0.0
C709 C 0.64366 0.44621 0.10732 0.0
C710 C 0.48454 0.41086 0.0672 0.0
C711 C 0.45062 0.38796 0.06059 0.0
H712 H 0.53689 0.43178 1.02032 0.0
C713 C 0.4451 0.36581 1.00122 0.0
H714 H 0.48921 0.42856 0.11211 0.0
C715 C 0.47365 0.36611 0.94981 0.0
C716 C 0.50704 0.39007 0.95584 0.0
H717 H 0.41888 0.34824 0.99483 0.0
H718 H 0.46922 0.34847 0.9048 0.0
C719 C 0.51181 0.41278 1.0146 0.0
C720 C 0.90758 0.4855 0.81901 0.0
C721 C 0.88596 0.45084 0.8105 0.0
H722 H 0.92779 0.53881 0.77421 0.0
C723 C 0.86503 0.44511 0.74991 0.0
H724 H 0.92436 0.49039 0.86487 0.0
C725 C 0.86528 0.47411 0.69915 0.0
C726 C 0.88806 0.50821 0.70707 0.0
H727 H 0.84844 0.41837 0.74203 0.0
H728 H 0.84865 0.46943 0.65311 0.0
C729 C 0.90959 0.51323 0.76706 0.0
C730 C 0.51219 0.09822 0.34378 0.0
C731 C 0.50759 0.12103 0.40244 0.0
H732 H 0.48922 0.08209 0.24662 0.0
C733 C 0.47415 0.14486 0.4086 0.0
H734 H 0.53732 0.07933 0.33793 0.0
C735 C 0.44536 0.14491 0.35747 0.0
C736 C 0.45067 0.1226 0.29824 0.0
H737 H 0.46985 0.16258 0.45353 0.0
H738 H 0.41913 0.16241 0.36397 0.0
C739 C 0.48467 0.09987 0.29145 0.0
C740 C 0.09718 0.52696 0.82006 0.0
C741 C 0.12112 0.56016 0.81353 0.0
H742 H 0.07529 0.47482 0.77371 0.0
C743 C 0.14445 0.56431 0.75535 0.0
H744 H 0.07876 0.52325 0.86428 0.0
C745 C 0.1441 0.53515 0.70488 0.0
C746 C 0.11892 0.50264 0.71053 0.0
H747 H 0.16296 0.58989 0.74919 0.0
H748 H 0.16259 0.53852 0.6607 0.0
C749 C 0.0952 0.4992 0.7682 0.0
C750 C 0.5254 0.9103 0.2912 0.0
C751 C 0.55951 0.88776 0.29837 0.0
H752 H 0.47254 0.9307 0.33713 0.0
C753 C 0.56475 0.86554 0.35769 0.0
H754 H 0.52086 0.92798 0.24629 0.0
C755 C 0.53584 0.86555 0.40856 0.0
C756 C 0.50231 0.88924 0.40207 0.0
H757 H 0.59104 0.84815 0.36449 0.0
H758 H 0.54015 0.84796 0.45361 0.0
C759 C 0.49774 0.9119 0.34326 0.0
C760 C 0.91225 0.99858 0.59425 0.0
C761 C 0.88913 1.00298 0.65254 0.0
H762 H 0.92873 0.02179 0.49752 0.0
C763 C 0.86502 0.03627 0.65836 0.0
H764 H 0.93133 0.97355 0.58863 0.0
C765 C 0.86501 0.06511 0.60734 0.0
C766 C 0.88767 0.06005 0.54852 0.0
H767 H 0.84706 0.04042 0.70299 0.0
H768 H 0.84725 0.09121 0.6136 0.0
C769 C 0.91069 0.02618 0.54203 0.0
C770 C 0.06544 0.14474 0.50023 0.0
C771 C 0.06032 0.123 0.56008 0.0
H772 H 0.04042 0.162 0.40439 0.0
C773 C 0.02592 0.10099 0.56831 0.0
H774 H 0.09191 0.16175 0.49262 0.0
C775 C 0.99785 0.09943 0.51679 0.0
C776 C 1.00234 0.1216 0.45742 0.0
H777 H 0.02142 0.08372 0.6137 0.0
H778 H 0.97241 0.08104 0.52377 0.0
C779 C 0.03616 0.14479 0.44988 0.0
C780 C 0.09915 0.98505 0.54301 0.0
C781 C 0.1222 0.95124 0.54974 0.0
H782 H 0.07841 0.03771 0.58939 0.0
C783 C 0.14476 0.94619 0.60871 0.0
H784 H 0.08122 0.9894 0.49832 0.0
C785 C 0.14467 0.97509 0.65966 0.0
C786 C 0.12055 0.00834 0.65357 0.0
H787 H 0.16253 0.92012 0.6151 0.0
H788 H 0.16264 0.97105 0.70435 0.0
C789 C 0.09747 0.01267 0.59519 0.0
C790 C 0.01224 0.91247 0.51754 0.0
C791 C 0.00769 0.89003 0.45841 0.0
H792 H 0.98897 0.92829 0.61455 0.0
C793 C 0.97409 0.86645 0.45141 0.0
H794 H 0.03751 0.93112 0.52409 0.0
C795 C 0.94507 0.86636 0.50207 0.0
C796 C 0.95027 0.88837 0.56169 0.0
H797 H 0.96983 0.849 0.40614 0.0
H798 H 0.91874 0.84907 0.4949 0.0
C799 C 0.98446 0.91077 0.56938 0.0
C800 C 0.35978 0.23308 0.11914 0.0
C801 C 0.3576 0.21354 0.18131 0.0
H802 H 0.3577 0.28878 0.06872 0.0
C803 C 0.35901 0.23561 0.24165 0.0
H804 H 0.35825 0.21676 0.0721 0.0
C805 C 0.35972 0.27673 0.23991 0.0
C806 C 0.35784 0.29627 0.17771 0.0
H807 H 0.35719 0.22104 0.29031 0.0
H808 H 0.35812 0.29305 0.28693 0.0
C809 C 0.35931 0.2742 0.11739 0.0
C810 C 0.27341 0.65177 0.99301 0.0
C811 C 0.29535 0.65331 0.93263 0.0
H812 H 0.21613 0.65278 1.03848 0.0
C813 C 0.2757 0.65153 0.87049 0.0
H814 H 0.28807 0.6533 1.04164 0.0
C815 C 0.23462 0.65224 0.86888 0.0
C816 C 0.21269 0.65356 0.92929 0.0
H817 H 0.29191 0.65319 0.82343 0.0
H818 H 0.21998 0.65412 0.82027 0.0
C819 C 0.23232 0.65131 0.99139 0.0
C820 C 0.65173 0.7748 0.24236 0.0
C821 C 0.65283 0.79693 0.18214 0.0
H822 H 0.65284 0.71732 0.28726 0.0
C823 C 0.65016 0.77749 0.11988 0.0
H824 H 0.6539 0.7893 0.29108 0.0
C825 C 0.65052 0.73638 0.11786 0.0
C826 C 0.65237 0.71423 0.17802 0.0
H827 H 0.65143 0.79385 0.07292 0.0
H828 H 0.65179 0.72186 0.06907 0.0
C829 C 0.65093 0.73369 0.24037 0.0
C830 C 0.77577 0.35915 0.99052 0.0
C831 C 0.79518 0.35732 0.92823 0.0
H832 H 0.7202 0.35676 1.04111 0.0
C833 C 0.77307 0.35895 0.86799 0.0
H834 H 0.79213 0.35744 1.03746 0.0
C835 C 0.73201 0.35957 0.8699 0.0
C836 C 0.71259 0.35737 0.93214 0.0
H837 H 0.78757 0.35739 0.81926 0.0
H838 H 0.71565 0.35818 0.82291 0.0
C839 C 0.7347 0.35859 0.99241 0.0
C840 C 0.85795 0.73654 0.7419 0.0
C841 C 0.85666 0.71442 0.68163 0.0
H842 H 0.85694 0.79401 0.787 0.0
C843 C 0.85893 0.73388 0.6194 0.0
H844 H 0.85606 0.72202 0.79059 0.0
C845 C 0.85843 0.775 0.61753 0.0
C846 C 0.85684 0.79713 0.67777 0.0
H847 H 0.85748 0.71752 0.57241 0.0
H848 H 0.8569 0.78953 0.5688 0.0
C849 C 0.85863 0.77766 0.74004 0.0
C850 C 0.77661 0.1523 0.36805 0.0
C851 C 0.79604 0.15356 0.43044 0.0
H852 H 0.72107 0.15529 0.31729 0.0
C853 C 0.77389 0.15163 0.49054 0.0
H854 H 0.79299 0.15428 0.3212 0.0
C855 C 0.73281 0.15122 0.48847 0.0
C856 C 0.7134 0.15395 0.42621 0.0
H857 H 0.78838 0.15279 0.53936 0.0
H858 H 0.71644 0.15232 0.53542 0.0
C859 C 0.73554 0.15307 0.36601 0.0
C860 C 0.13811 0.27299 0.73167 0.0
C861 C 0.14803 0.29618 0.67509 0.0
H862 H 0.13589 0.21508 0.77466 0.0
C863 C 0.15932 0.27762 0.61497 0.0
H864 H 0.1292 0.28671 0.77872 0.0
C865 C 0.16365 0.2368 0.61322 0.0
C866 C 0.15605 0.21379 0.67104 0.0
H867 H 0.16717 0.29472 0.57079 0.0
H868 H 0.17438 0.2233 0.56713 0.0
C869 C 0.14179 0.23204 0.72951 0.0
C870 C 0.27398 0.85824 0.36732 0.0
C871 C 0.29623 0.85727 0.42745 0.0
H872 H 0.21645 0.85709 0.32265 0.0
C873 C 0.27694 0.85988 0.48978 0.0
H874 H 0.28836 0.85609 0.31855 0.0
C875 C 0.23587 0.85945 0.49196 0.0
C876 C 0.21361 0.8576 0.4319 0.0
H877 H 0.2934 0.8587 0.53668 0.0
H878 H 0.22147 0.8582 0.54081 0.0
C879 C 0.23291 0.859 0.36947 0.0
C880 C 0.21545 0.08654 0.93675 0.0
C881 C 0.2308 0.08871 0.87015 0.0
H882 H 0.22685 0.08567 1.04403 0.0
C883 C 0.27166 0.09015 0.86303 0.0
H884 H 0.18414 0.08534 0.9449 0.0
C885 C 0.29622 0.09036 0.92036 0.0
C886 C 0.28088 0.08903 0.98705 0.0
H887 H 0.28471 0.09227 0.81324 0.0
H888 H 0.32748 0.09232 0.91205 0.0
C889 C 0.24001 0.08665 0.99416 0.0
C890 C 0.08649 0.77167 0.11557 0.0
C891 C 0.08867 0.73077 0.12294 0.0
H892 H 0.08537 0.82772 0.1644 0.0
C893 C 0.09003 0.71551 0.18965 0.0
H894 H 0.08561 0.78469 0.06563 0.0
C895 C 0.08998 0.74017 0.2468 0.0
C896 C 0.08863 0.78107 0.23942 0.0
H897 H 0.0919 0.68423 0.19814 0.0
H898 H 0.0921 0.72719 0.29665 0.0
C899 C 0.08648 0.79636 0.17277 0.0
C900 C 0.71434 0.92121 0.92138 0.0
C901 C 0.72967 0.92156 0.98816 0.0
H902 H 0.72588 0.92018 0.81423 0.0
C903 C 0.77058 0.92297 0.99551 0.0
H904 H 0.68303 0.92014 0.91289 0.0
C905 C 0.79516 0.92306 0.93823 0.0
C906 C 0.77985 0.92187 0.87148 0.0
H907 H 0.78372 0.92315 1.04546 0.0
H908 H 0.82647 0.92344 0.94662 0.0
C909 C 0.73895 0.9214 0.86414 0.0
C910 C 0.9181 0.296 0.18789 0.0
C911 C 0.91977 0.28073 0.12115 0.0
H912 H 0.91602 0.28437 0.29493 0.0
C913 C 0.92244 0.23983 0.1139 0.0
H914 H 0.91581 0.32726 0.19635 0.0
C915 C 0.92268 0.21516 0.17118 0.0
C916 C 0.9203 0.23046 0.23786 0.0
H917 H 0.92357 0.22676 0.06398 0.0
H918 H 0.92419 0.18381 0.16283 0.0
C919 C 0.91839 0.27136 0.24511 0.0
C920 C 0.2403 0.42587 0.36412 0.0
C921 C 0.28069 0.41926 0.37151 0.0
H922 H 0.18448 0.43117 0.41252 0.0
C923 C 0.29531 0.41374 0.43807 0.0
H924 H 0.22773 0.43013 0.31432 0.0
C925 C 0.27048 0.41428 0.49496 0.0
C926 C 0.23005 0.42034 0.48748 0.0
H927 H 0.32614 0.40822 0.44654 0.0
H928 H 0.28289 0.40899 0.54459 0.0
C929 C 0.21546 0.42644 0.42104 0.0
C930 C 0.42282 0.71492 0.67179 0.0
C931 C 0.42013 0.73029 0.73838 0.0
H932 H 0.42423 0.72629 0.56452 0.0
C933 C 0.41813 0.77119 0.74546 0.0
H934 H 0.42443 0.68358 0.66363 0.0
C935 C 0.418 0.79574 0.68813 0.0
C936 C 0.41996 0.78038 0.62145 0.0
H937 H 0.41558 0.78427 0.79521 0.0
H938 H 0.41563 0.827 0.69645 0.0
C939 C 0.42278 0.73948 0.61438 0.0
C940 C 0.71406 0.58729 0.4377 0.0
C941 C 0.72932 0.58978 0.37105 0.0
H942 H 0.72571 0.58626 0.54488 0.0
C943 C 0.77016 0.5917 0.3638 0.0
H944 H 0.68275 0.58573 0.44602 0.0
C945 C 0.7948 0.59198 0.42102 0.0
C946 C 0.77958 0.59024 0.48773 0.0
H947 H 0.78312 0.59413 0.31398 0.0
H948 H 0.82602 0.59431 0.4126 0.0
C949 C 0.73874 0.58749 0.49497 0.0
C950 C 0.58812 0.21517 0.68738 0.0
C951 C 0.58853 0.23054 0.62066 0.0
H952 H 0.58836 0.22658 0.79464 0.0
C953 C 0.58787 0.2715 0.61345 0.0
H954 H 0.58861 0.18383 0.69569 0.0
C955 C 0.58781 0.29608 0.67082 0.0
C956 C 0.58825 0.28071 0.73755 0.0
H957 H 0.58829 0.28468 0.56356 0.0
H958 H 0.58807 0.32743 0.66252 0.0
C959 C 0.5879 0.23975 0.74475 0.0
C960 C 0.36792 0.12123 0.59377 0.0
C961 C 0.33957 0.09198 0.58163 0.0
H962 H 0.40592 0.14916 0.66551 0.0
C963 C 0.32749 0.06847 0.63633 0.0
H964 H 0.37869 0.13934 0.55277 0.0
C965 C 0.3434 0.07395 0.70113 0.0
C966 C 0.37173 0.10324 0.71323 0.0
H967 H 0.30543 0.04597 0.62929 0.0
H968 H 0.33311 0.05545 0.74196 0.0
C969 C 0.38368 0.12683 0.65859 0.0
C970 C 0.06838 0.68398 0.47402 0.0
C971 C 0.09095 0.67071 0.5291 0.0
H972 H 0.05588 0.67927 0.36807 0.0
C973 C 0.11895 0.6411 0.51737 0.0
H974 H 0.04687 0.707 0.48077 0.0
C975 C 0.12431 0.62534 0.45253 0.0
C976 C 0.10171 0.63854 0.39748 0.0
H977 H 0.13626 0.6294 0.55866 0.0
H978 H 0.14569 0.60217 0.44587 0.0
C979 C 0.07361 0.66805 0.40921 0.0
C980 C 0.68309 0.94279 0.637 0.0
C981 C 0.67365 0.91731 0.58327 0.0
H982 H 0.67541 0.95709 0.74181 0.0
C983 C 0.64844 0.88548 0.59653 0.0
H984 H 0.70284 0.96726 0.6292 0.0
C985 C 0.63291 0.87948 0.66135 0.0
C986 C 0.64192 0.90525 0.7148 0.0
H987 H 0.63977 0.86565 0.55634 0.0
H988 H 0.61299 0.85514 0.66912 0.0
C989 C 0.66735 0.93692 0.70175 0.0
C990 C 0.93395 0.34356 0.40719 0.0
C991 C 0.90591 0.37312 0.39542 0.0
H992 H 0.96062 0.30457 0.47873 0.0
C993 C 0.88338 0.38642 0.45044 0.0
H994 H 0.95165 0.33228 0.36609 0.0
C995 C 0.88877 0.37071 0.51531 0.0
C996 C 0.91668 0.34103 0.52708 0.0
H997 H 0.86206 0.40963 0.44375 0.0
H998 H 0.87153 0.38251 0.55658 0.0
C999 C 0.93917 0.32765 0.472 0.0
C1000 C 0.38728 0.38551 0.7011 0.0
C1001 C 0.37259 0.40681 0.64564 0.0
H1002 H 0.38463 0.37464 0.80768 0.0
C1003 C 0.34182 0.43357 0.65711 0.0
H1004 H 0.41138 0.36519 0.69462 0.0
C1005 C 0.32622 0.43885 0.72213 0.0
C1006 C 0.34102 0.41762 0.77762 0.0
H1007 H 0.3294 0.4502 0.61563 0.0
H1008 H 0.30226 0.45933 0.72872 0.0
C1009 C 0.3718 0.3909 0.76611 0.0
C1010 C 0.44504 0.64284 0.35919 0.0
C1011 C 0.42072 0.67284 0.33403 0.0
H1012 H 0.45768 0.6033 0.44045 0.0
C1013 C 0.39024 0.68677 0.37558 0.0
H1014 H 0.46835 0.63082 0.32831 0.0
C1015 C 0.38419 0.67104 0.44033 0.0
C1016 C 0.40825 0.64072 0.4652 0.0
H1017 H 0.37118 0.7101 0.35827 0.0
H1018 H 0.36084 0.683 0.47118 0.0
C1019 C 0.43886 0.62698 0.42371 0.0
C1020 C 0.68152 0.56653 0.72274 0.0
C1021 C 0.67497 0.5938 0.77515 0.0
H1022 H 0.67146 0.55095 0.61898 0.0
C1023 C 0.65292 0.62768 0.76031 0.0
H1024 H 0.69889 0.54045 0.73161 0.0
C1025 C 0.63753 0.63388 0.69539 0.0
C1026 C 0.64341 0.60624 0.64352 0.0
H1027 H 0.64651 0.64904 0.79936 0.0
H1028 H 0.62004 0.65988 0.68639 0.0
C1029 C 0.66581 0.57258 0.65797 0.0
C1030 C 0.62413 0.3405 0.43904 0.0
C1031 C 0.59952 0.37018 0.4646 0.0
H1032 H 0.63749 0.30191 0.35644 0.0
C1033 C 0.56824 0.3832 0.42385 0.0
H1034 H 0.648 0.32909 0.46935 0.0
C1035 C 0.562 0.36733 0.35929 0.0
C1036 C 0.58691 0.33804 0.33338 0.0
H1037 H 0.54895 0.40634 0.44118 0.0
H1038 H 0.53818 0.37885 0.32894 0.0
C1039 C 0.61798 0.32474 0.37428 0.0
C1040 C 0.87043 0.61975 0.09339 0.0
C1041 C 0.84041 0.59216 0.08164 0.0
H1042 H 0.9095 0.64626 0.16501 0.0
C1043 C 0.82667 0.56997 0.13682 0.0
H1044 H 0.88252 0.63674 1.05206 0.0
C1045 C 0.84249 0.57523 0.20173 0.0
C1046 C 0.87234 0.603 0.21349 0.0
H1047 H 0.80334 0.54876 0.13011 0.0
H1048 H 0.8309 0.55781 0.24293 0.0
C1049 C 0.88606 0.62517 0.15833 0.0
C1050 C 0.56888 0.1282 0.93428 0.0
C1051 C 0.60014 0.14128 0.89363 0.0
H1052 H 0.53882 0.13248 1.0291 0.0
C1053 C 0.6247 0.17104 0.91925 0.0
H1054 H 0.54962 0.10501 0.9169 0.0
C1055 C 0.61853 0.18678 0.98398 0.0
C1056 C 0.58749 0.1734 1.0248 0.0
H1057 H 0.64855 0.1825 0.889 0.0
H1058 H 0.638 0.20966 1.00188 0.0
C1059 C 0.56261 0.14406 0.99882 0.0
C1060 C 0.14095 0.37602 0.16108 0.0
C1061 C 0.14692 0.40476 0.21117 0.0
H1062 H 0.14971 0.35864 0.05808 0.0
C1063 C 0.16922 0.43814 0.19437 0.0
H1064 H 0.12351 0.35021 0.17182 0.0
C1065 C 0.18474 0.44284 0.12912 0.0
C1066 C 0.17814 0.41444 0.07849 0.0
H1067 H 0.17492 0.46063 0.23189 0.0
H1068 H 0.20205 0.46875 0.11853 0.0
C1069 C 0.15617 0.38085 0.09569 0.0
C1070 C 0.44076 0.82698 0.97205 0.0
C1071 C 0.41761 0.83956 1.02685 0.0
H1072 H 0.45358 0.83215 0.86632 0.0
C1073 C 0.38882 0.86834 1.01482 0.0
H1074 H 0.46289 0.80456 0.97904 0.0
C1075 C 0.38332 0.88407 0.94998 0.0
C1076 C 0.40657 0.87162 0.89523 0.0
H1077 H 0.37099 0.87947 0.05591 0.0
H1078 H 0.36136 0.90665 0.94313 0.0
C1079 C 0.43538 0.84284 0.90724 0.0
C1080 C 0.86588 0.94802 0.24984 0.0
C1081 C 0.83725 0.92247 0.27604 0.0
H1082 H 0.90446 0.96169 0.16781 0.0
C1083 C 0.82463 0.89091 0.23552 0.0
H1084 H 0.87683 0.97225 0.27993 0.0
C1085 C 0.84041 0.8849 0.17081 0.0
C1086 C 0.86946 0.91014 0.14495 0.0
H1087 H 0.80229 0.87092 0.25365 0.0
H1088 H 0.8295 0.86064 0.14077 0.0
C1089 C 0.88181 0.9419 0.18535 0.0
C1090 C 0.93715 0.16707 0.9513 0.0
C1091 C 0.90445 0.1432 0.96526 0.0
H1092 H 0.96823 0.20142 0.87809 0.0
C1093 C 0.8775 0.13589 0.91284 0.0
H1094 H 0.95824 0.17383 0.99064 0.0
C1095 C 0.88341 0.15143 0.84798 0.0
C1096 C 0.91632 0.17501 0.8337 0.0
H1097 H 0.85228 0.11723 0.92141 0.0
H1098 H 0.86264 0.14398 0.80853 0.0
C1099 C 0.94292 0.18289 0.88656 0.0
C1100 C 0.12761 0.07034 0.18413 0.0
C1101 C 0.14126 0.1014 0.14349 0.0
H1102 H 0.13138 0.04009 0.27888 0.0
C1103 C 0.17137 0.12547 0.16922 0.0
H1104 H 0.10411 0.05149 0.16673 0.0
C1105 C 0.18697 0.11899 0.23397 0.0
C1106 C 0.17312 0.08807 0.27469 0.0
H1107 H 0.18325 0.14916 0.13903 0.0
H1108 H 0.21013 0.13809 0.25193 0.0
C1109 C 0.14335 0.06373 0.24866 0.0
C1110 C 0.06682 0.82815 0.88781 0.0
C1111 C 0.09287 0.8368 0.83462 0.0
H1112 H 0.05193 0.8366 0.99218 0.0
C1113 C 0.12514 0.86136 0.84848 0.0
H1114 H 0.04199 0.80892 0.87957 0.0
C1115 C 0.13102 0.87699 0.91332 0.0
C1116 C 0.10469 0.86878 0.96619 0.0
H1117 H 0.14543 0.86943 0.80873 0.0
H1118 H 0.15574 0.89638 0.92154 0.0
C1119 C 0.07256 0.84403 0.95256 0.0
loop_
_geom_bond_atom_site_label_1
_geom_bond_atom_site_label_2
_geom_bond_distance
_geom_bond_site_symmetry_2
_ccdc_geom_bond_type
Tb0 C2 2.809 . S
Tb0 O20 2.484 . S
Tb0 O21 2.440 . S
Tb0 O22 2.658 . S
Tb0 O23 2.409 . S
Tb0 O24 2.378 . S
Tb0 O28 2.325 . S
Tb0 O31 2.341 . S
Tb1 C11 2.809 1_554 S
Tb1 O22 2.325 . S
Tb1 O25 2.341 . S
Tb1 O26 2.484 1_554 S
Tb1 O27 2.440 1_554 S
Tb1 O28 2.658 . S
Tb1 O29 2.409 . S
Tb1 O30 2.378 . S
C2 Tb0 2.809 . S
C2 C3 1.514 . S
C2 O20 1.248 . S
C2 O21 1.266 . S
C3 C2 1.514 . S
C3 C4 1.359 . S
C3 C8 1.348 . S
C4 C3 1.359 . S
C4 C5 1.380 . S
C4 H32 0.929 . S
C5 C4 1.380 . S
C5 C6 1.347 . S
C5 H33 0.931 . S
C6 C5 1.347 . S
C6 C7 1.369 . S
C7 C6 1.369 . S
C7 C8 1.408 . S
C7 H34 0.930 . S
C8 C3 1.348 . S
C8 C7 1.408 . S
C8 H35 0.930 . S
C9 O22 1.281 . S
C9 O23 1.254 . S
C10 O24 1.236 . S
C10 O25 1.266 . S
C11 Tb1 2.809 1_556 S
C11 C12 1.514 . S
C11 O26 1.248 . S
C11 O27 1.266 . S
C12 C11 1.514 . S
C12 C13 1.359 . S
C12 C17 1.348 . S
C13 C12 1.359 . S
C13 C14 1.380 . S
C13 H36 0.929 . S
C14 C13 1.380 . S
C14 C15 1.347 . S
C14 H37 0.931 . S
C15 C14 1.347 . S
C15 C16 1.369 . S
C16 C15 1.369 . S
C16 C17 1.408 . S
C16 H38 0.930 . S
C17 C12 1.348 . S
C17 C16 1.408 . S
C17 H39 0.930 . S
C18 O28 1.281 . S
C18 O29 1.254 . S
C19 O30 1.236 . S
C19 O31 1.266 . S
O20 Tb0 2.484 . S
O20 C2 1.248 . S
O21 Tb0 2.440 . S
O21 C2 1.266 . S
O22 Tb0 2.658 . S
O22 Tb1 2.325 . S
O22 C9 1.281 . S
O23 Tb0 2.409 . S
O23 C9 1.254 . S
O24 Tb0 2.378 . S
O24 C10 1.236 . S
O25 Tb1 2.341 . S
O25 C10 1.266 . S
O26 Tb1 2.484 1_556 S
O26 C11 1.248 . S
O27 Tb1 2.440 1_556 S
O27 C11 1.266 . S
O28 Tb0 2.325 . S
O28 Tb1 2.658 . S
O28 C18 1.281 . S
O29 Tb1 2.409 . S
O29 C18 1.254 . S
O30 Tb1 2.378 . S
O30 C19 1.236 . S
O31 Tb0 2.341 . S
O31 C19 1.266 . S
H32 C4 0.929 . S
H33 C5 0.931 . S
H34 C7 0.930 . S
H35 C8 0.930 . S
H36 C13 0.929 . S
H37 C14 0.931 . S
H38 C16 0.930 . S
H39 C17 0.930 . S
Tb40 C42 2.809 1_556 S
Tb40 O60 2.484 1_556 S
Tb40 O61 2.440 1_556 S
Tb40 O62 2.658 . S
Tb40 O63 2.409 . S
Tb40 O64 2.378 . S
Tb40 O68 2.325 . S
Tb40 O71 2.341 . S
Tb41 C51 2.809 . S
Tb41 O62 2.325 . S
Tb41 O65 2.341 . S
Tb41 O66 2.484 . S
Tb41 O67 2.440 . S
Tb41 O68 2.658 . S
Tb41 O69 2.409 . S
Tb41 O70 2.378 . S
C42 Tb40 2.809 1_554 S
C42 C43 1.514 . S
C42 O60 1.248 . S
C42 O61 1.266 . S
C43 C42 1.514 . S
C43 C44 1.359 . S
C43 C48 1.348 . S
C44 C43 1.359 . S
C44 C45 1.380 . S
C44 H72 0.929 . S
C45 C44 1.380 . S
C45 C46 1.347 . S
C45 H73 0.931 . S
C46 C45 1.347 . S
C46 C47 1.369 . S
C47 C46 1.369 . S
C47 C48 1.408 . S
C47 H74 0.930 . S
C48 C43 1.348 . S
C48 C47 1.408 . S
C48 H75 0.930 . S
C49 O62 1.281 . S
C49 O63 1.254 . S
C50 O64 1.236 . S
C50 O65 1.266 . S
C51 Tb41 2.809 . S
C51 C52 1.514 . S
C51 O66 1.248 . S
C51 O67 1.266 . S
C52 C51 1.514 . S
C52 C53 1.359 . S
C52 C57 1.348 . S
C53 C52 1.359 . S
C53 C54 1.380 . S
C53 H76 0.929 . S
C54 C53 1.380 . S
C54 C55 1.347 . S
C54 H77 0.931 . S
C55 C54 1.347 . S
C55 C56 1.369 . S
C56 C55 1.369 . S
C56 C57 1.408 . S
C56 H78 0.930 . S
C57 C52 1.348 . S
C57 C56 1.408 . S
C57 H79 0.930 . S
C58 O68 1.281 . S
C58 O69 1.254 . S
C59 O70 1.236 . S
C59 O71 1.266 . S
O60 Tb40 2.484 1_554 S
O60 C42 1.248 . S
O61 Tb40 2.440 1_554 S
O61 C42 1.266 . S
O62 Tb40 2.658 . S
O62 Tb41 2.325 . S
O62 C49 1.281 . S
O63 Tb40 2.409 . S
O63 C49 1.254 . S
O64 Tb40 2.378 . S
O64 C50 1.236 . S
O65 Tb41 2.341 . S
O65 C50 1.266 . S
O66 Tb41 2.484 . S
O66 C51 1.248 . S
O67 Tb41 2.440 . S
O67 C51 1.266 . S
O68 Tb40 2.325 . S
O68 Tb41 2.658 . S
O68 C58 1.281 . S
O69 Tb41 2.409 . S
O69 C58 1.254 . S
O70 Tb41 2.378 . S
O70 C59 1.236 . S
O71 Tb40 2.341 . S
O71 C59 1.266 . S
H72 C44 0.929 . S
H73 C45 0.931 . S
H74 C47 0.930 . S
H75 C48 0.930 . S
H76 C53 0.929 . S
H77 C54 0.931 . S
H78 C56 0.930 . S
H79 C57 0.930 . S
Tb80 C82 2.809 . S
Tb80 O100 2.484 . S
Tb80 O101 2.440 . S
Tb80 O102 2.658 . S
Tb80 O103 2.409 . S
Tb80 O104 2.378 . S
Tb80 O108 2.325 . S
Tb80 O111 2.341 . S
Tb81 C91 2.809 1_554 S
Tb81 O102 2.325 . S
Tb81 O105 2.341 . S
Tb81 O106 2.484 1_554 S
Tb81 O107 2.440 1_554 S
Tb81 O108 2.658 . S
Tb81 O109 2.409 . S
Tb81 O110 2.378 . S
C82 Tb80 2.809 . S
C82 C83 1.514 . S
C82 O100 1.248 . S
C82 O101 1.266 . S
C83 C82 1.514 . S
C83 C84 1.359 . S
C83 C88 1.348 . S
C84 C83 1.359 . S
C84 C85 1.380 . S
C84 H112 0.929 . S
C85 C84 1.380 . S
C85 C86 1.347 . S
C85 H113 0.931 . S
C86 C85 1.347 . S
C86 C87 1.369 . S
C87 C86 1.369 . S
C87 C88 1.408 . S
C87 H114 0.930 . S
C88 C83 1.348 . S
C88 C87 1.408 . S
C88 H115 0.930 . S
C89 O102 1.281 . S
C89 O103 1.254 . S
C90 O104 1.236 . S
C90 O105 1.266 . S
C91 Tb81 2.809 1_556 S
C91 C92 1.514 . S
C91 O106 1.248 . S
C91 O107 1.266 . S
C92 C91 1.514 . S
C92 C93 1.359 . S
C92 C97 1.348 . S
C93 C92 1.359 . S
C93 C94 1.380 . S
C93 H116 0.929 . S
C94 C93 1.380 . S
C94 C95 1.347 . S
C94 H117 0.931 . S
C95 C94 1.347 . S
C95 C96 1.369 . S
C96 C95 1.369 . S
C96 C97 1.408 . S
C96 H118 0.930 . S
C97 C92 1.348 . S
C97 C96 1.408 . S
C97 H119 0.930 . S
C98 O108 1.281 . S
C98 O109 1.254 . S
C99 O110 1.236 . S
C99 O111 1.266 . S
O100 Tb80 2.484 . S
O100 C82 1.248 . S
O101 Tb80 2.440 . S
O101 C82 1.266 . S
O102 Tb80 2.658 . S
O102 Tb81 2.325 . S
O102 C89 1.281 . S
O103 Tb80 2.409 . S
O103 C89 1.254 . S
O104 Tb80 2.378 . S
O104 C90 1.236 . S
O105 Tb81 2.341 . S
O105 C90 1.266 . S
O106 Tb81 2.484 1_556 S
O106 C91 1.248 . S
O107 Tb81 2.440 1_556 S
O107 C91 1.266 . S
O108 Tb80 2.325 . S
O108 Tb81 2.658 . S
O108 C98 1.281 . S
O109 Tb81 2.409 . S
O109 C98 1.254 . S
O110 Tb81 2.378 . S
O110 C99 1.236 . S
O111 Tb80 2.341 . S
O111 C99 1.266 . S
H112 C84 0.929 . S
H113 C85 0.931 . S
H114 C87 0.930 . S
H115 C88 0.930 . S
H116 C93 0.929 . S
H117 C94 0.931 . S
H118 C96 0.930 . S
H119 C97 0.930 . S
Tb120 C122 2.809 1_556 S
Tb120 O140 2.484 1_556 S
Tb120 O141 2.440 1_556 S
Tb120 O142 2.658 . S
Tb120 O143 2.409 . S
Tb120 O144 2.378 . S
Tb120 O148 2.325 . S
Tb120 O151 2.341 . S
Tb121 C131 2.809 . S
Tb121 O142 2.325 . S
Tb121 O145 2.341 . S
Tb121 O146 2.484 . S
Tb121 O147 2.440 . S
Tb121 O148 2.658 . S
Tb121 O149 2.409 . S
Tb121 O150 2.378 . S
C122 Tb120 2.809 1_554 S
C122 C123 1.514 . S
C122 O140 1.248 . S
C122 O141 1.266 . S
C123 C122 1.514 . S
C123 C124 1.359 . S
C123 C128 1.348 . S
C124 C123 1.359 . S
C124 C125 1.380 . S
C124 H152 0.929 . S
C125 C124 1.380 . S
C125 C126 1.347 . S
C125 H153 0.931 . S
C126 C125 1.347 . S
C126 C127 1.369 . S
C127 C126 1.369 . S
C127 C128 1.408 . S
C127 H154 0.930 . S
C128 C123 1.348 . S
C128 C127 1.408 . S
C128 H155 0.930 . S
C129 O142 1.281 . S
C129 O143 1.254 . S
C130 O144 1.236 . S
C130 O145 1.266 . S
C131 Tb121 2.809 . S
C131 C132 1.514 . S
C131 O146 1.248 . S
C131 O147 1.266 . S
C132 C131 1.514 . S
C132 C133 1.359 . S
C132 C137 1.348 . S
C133 C132 1.359 . S
C133 C134 1.380 . S
C133 H156 0.929 . S
C134 C133 1.380 . S
C134 C135 1.347 . S
C134 H157 0.931 . S
C135 C134 1.347 . S
C135 C136 1.369 . S
C136 C135 1.369 . S
C136 C137 1.408 . S
C136 H158 0.930 . S
C137 C132 1.348 . S
C137 C136 1.408 . S
C137 H159 0.930 . S
C138 O148 1.281 . S
C138 O149 1.254 . S
C139 O150 1.236 . S
C139 O151 1.266 . S
O140 Tb120 2.484 1_554 S
O140 C122 1.248 . S
O141 Tb120 2.440 1_554 S
O141 C122 1.266 . S
O142 Tb120 2.658 . S
O142 Tb121 2.325 . S
O142 C129 1.281 . S
O143 Tb120 2.409 . S
O143 C129 1.254 . S
O144 Tb120 2.378 . S
O144 C130 1.236 . S
O145 Tb121 2.341 . S
O145 C130 1.266 . S
O146 Tb121 2.484 . S
O146 C131 1.248 . S
O147 Tb121 2.440 . S
O147 C131 1.266 . S
O148 Tb120 2.325 . S
O148 Tb121 2.658 . S
O148 C138 1.281 . S
O149 Tb121 2.409 . S
O149 C138 1.254 . S
O150 Tb121 2.378 . S
O150 C139 1.236 . S
O151 Tb120 2.341 . S
O151 C139 1.266 . S
H152 C124 0.929 . S
H153 C125 0.931 . S
H154 C127 0.930 . S
H155 C128 0.930 . S
H156 C133 0.929 . S
H157 C134 0.931 . S
H158 C136 0.930 . S
H159 C137 0.930 . S
Tb160 C162 2.809 1_554 S
Tb160 O180 2.484 1_554 S
Tb160 O181 2.440 1_554 S
Tb160 O182 2.658 . S
Tb160 O183 2.409 . S
Tb160 O184 2.378 . S
Tb160 O188 2.325 . S
Tb160 O191 2.341 . S
Tb161 C171 2.809 . S
Tb161 O182 2.325 . S
Tb161 O185 2.341 . S
Tb161 O186 2.484 . S
Tb161 O187 2.440 . S
Tb161 O188 2.658 . S
Tb161 O189 2.409 . S
Tb161 O190 2.378 . S
C162 Tb160 2.809 1_556 S
C162 C163 1.514 . S
C162 O180 1.248 . S
C162 O181 1.266 . S
C163 C162 1.514 . S
C163 C164 1.359 . S
C163 C168 1.348 . S
C164 C163 1.359 . S
C164 C165 1.380 . S
C164 H192 0.929 . S
C165 C164 1.380 . S
C165 C166 1.347 . S
C165 H193 0.931 . S
C166 C165 1.347 . S
C166 C167 1.369 . S
C167 C166 1.369 . S
C167 C168 1.408 . S
C167 H194 0.930 . S
C168 C163 1.348 . S
C168 C167 1.408 . S
C168 H195 0.930 . S
C169 O182 1.281 . S
C169 O183 1.254 . S
C170 O184 1.236 . S
C170 O185 1.266 . S
C171 Tb161 2.809 . S
C171 C172 1.514 . S
C171 O186 1.248 . S
C171 O187 1.266 . S
C172 C171 1.514 . S
C172 C173 1.359 . S
C172 C177 1.348 . S
C173 C172 1.359 . S
C173 C174 1.380 . S
C173 H196 0.929 . S
C174 C173 1.380 . S
C174 C175 1.347 . S
C174 H197 0.931 . S
C175 C174 1.347 . S
C175 C176 1.369 . S
C176 C175 1.369 . S
C176 C177 1.408 . S
C176 H198 0.930 . S
C177 C172 1.348 . S
C177 C176 1.408 . S
C177 H199 0.930 . S
C178 O188 1.281 . S
C178 O189 1.254 . S
C179 O190 1.236 . S
C179 O191 1.266 . S
O180 Tb160 2.484 1_556 S
O180 C162 1.248 . S
O181 Tb160 2.440 1_556 S
O181 C162 1.266 . S
O182 Tb160 2.658 . S
O182 Tb161 2.325 . S
O182 C169 1.281 . S
O183 Tb160 2.409 . S
O183 C169 1.254 . S
O184 Tb160 2.378 . S
O184 C170 1.236 . S
O185 Tb161 2.341 . S
O185 C170 1.266 . S
O186 Tb161 2.484 . S
O186 C171 1.248 . S
O187 Tb161 2.440 . S
O187 C171 1.266 . S
O188 Tb160 2.325 . S
O188 Tb161 2.658 . S
O188 C178 1.281 . S
O189 Tb161 2.409 . S
O189 C178 1.254 . S
O190 Tb161 2.378 . S
O190 C179 1.236 . S
O191 Tb160 2.341 . S
O191 C179 1.266 . S
H192 C164 0.929 . S
H193 C165 0.931 . S
H194 C167 0.930 . S
H195 C168 0.930 . S
H196 C173 0.929 . S
H197 C174 0.931 . S
H198 C176 0.930 . S
H199 C177 0.930 . S
Tb200 C202 2.809 . S
Tb200 O220 2.484 . S
Tb200 O221 2.440 . S
Tb200 O222 2.658 . S
Tb200 O223 2.409 . S
Tb200 O224 2.378 . S
Tb200 O228 2.325 . S
Tb200 O231 2.341 . S
Tb201 C211 2.809 1_556 S
Tb201 O222 2.325 . S
Tb201 O225 2.341 . S
Tb201 O226 2.484 1_556 S
Tb201 O227 2.440 1_556 S
Tb201 O228 2.658 . S
Tb201 O229 2.409 . S
Tb201 O230 2.378 . S
C202 Tb200 2.809 . S
C202 C203 1.514 . S
C202 O220 1.248 . S
C202 O221 1.266 . S
C203 C202 1.514 . S
C203 C204 1.359 . S
C203 C208 1.348 . S
C204 C203 1.359 . S
C204 C205 1.380 . S
C204 H232 0.929 . S
C205 C204 1.380 . S
C205 C206 1.347 . S
C205 H233 0.931 . S
C206 C205 1.347 . S
C206 C207 1.369 . S
C207 C206 1.369 . S
C207 C208 1.408 . S
C207 H234 0.930 . S
C208 C203 1.348 . S
C208 C207 1.408 . S
C208 H235 0.930 . S
C209 O222 1.281 . S
C209 O223 1.254 . S
C210 O224 1.236 . S
C210 O225 1.266 . S
C211 Tb201 2.809 1_554 S
C211 C212 1.514 . S
C211 O226 1.248 . S
C211 O227 1.266 . S
C212 C211 1.514 . S
C212 C213 1.359 . S
C212 C217 1.348 . S
C213 C212 1.359 . S
C213 C214 1.380 . S
C213 H236 0.929 . S
C214 C213 1.380 . S
C214 C215 1.347 . S
C214 H237 0.931 . S
C215 C214 1.347 . S
C215 C216 1.369 . S
C216 C215 1.369 . S
C216 C217 1.408 . S
C216 H238 0.930 . S
C217 C212 1.348 . S
C217 C216 1.408 . S
C217 H239 0.930 . S
C218 O228 1.281 . S
C218 O229 1.254 . S
C219 O230 1.236 . S
C219 O231 1.266 . S
O220 Tb200 2.484 . S
O220 C202 1.248 . S
O221 Tb200 2.440 . S
O221 C202 1.266 . S
O222 Tb200 2.658 . S
O222 Tb201 2.325 . S
O222 C209 1.281 . S
O223 Tb200 2.409 . S
O223 C209 1.254 . S
O224 Tb200 2.378 . S
O224 C210 1.236 . S
O225 Tb201 2.341 . S
O225 C210 1.266 . S
O226 Tb201 2.484 1_554 S
O226 C211 1.248 . S
O227 Tb201 2.440 1_554 S
O227 C211 1.266 . S
O228 Tb200 2.325 . S
O228 Tb201 2.658 . S
O228 C218 1.281 . S
O229 Tb201 2.409 . S
O229 C218 1.254 . S
O230 Tb201 2.378 . S
O230 C219 1.236 . S
O231 Tb200 2.341 . S
O231 C219 1.266 . S
H232 C204 0.929 . S
H233 C205 0.931 . S
H234 C207 0.930 . S
H235 C208 0.930 . S
H236 C213 0.929 . S
H237 C214 0.931 . S
H238 C216 0.930 . S
H239 C217 0.930 . S
Tb240 C242 2.809 1_554 S
Tb240 O260 2.484 1_554 S
Tb240 O261 2.440 1_554 S
Tb240 O262 2.658 . S
Tb240 O263 2.409 . S
Tb240 O264 2.378 . S
Tb240 O268 2.325 . S
Tb240 O271 2.341 . S
Tb241 C251 2.809 . S
Tb241 O262 2.325 . S
Tb241 O265 2.341 . S
Tb241 O266 2.484 . S
Tb241 O267 2.440 . S
Tb241 O268 2.658 . S
Tb241 O269 2.409 . S
Tb241 O270 2.378 . S
C242 Tb240 2.809 1_556 S
C242 C243 1.514 . S
C242 O260 1.248 . S
C242 O261 1.266 . S
C243 C242 1.514 . S
C243 C244 1.359 . S
C243 C248 1.348 . S
C244 C243 1.359 . S
C244 C245 1.380 . S
C244 H272 0.929 . S
C245 C244 1.380 . S
C245 C246 1.347 . S
C245 H273 0.931 . S
C246 C245 1.347 . S
C246 C247 1.369 . S
C247 C246 1.369 . S
C247 C248 1.408 . S
C247 H274 0.930 . S
C248 C243 1.348 . S
C248 C247 1.408 . S
C248 H275 0.930 . S
C249 O262 1.281 . S
C249 O263 1.254 . S
C250 O264 1.236 . S
C250 O265 1.266 . S
C251 Tb241 2.809 . S
C251 C252 1.514 . S
C251 O266 1.248 . S
C251 O267 1.266 . S
C252 C251 1.514 . S
C252 C253 1.359 . S
C252 C257 1.348 . S
C253 C252 1.359 . S
C253 C254 1.380 . S
C253 H276 0.929 . S
C254 C253 1.380 . S
C254 C255 1.347 . S
C254 H277 0.931 . S
C255 C254 1.347 . S
C255 C256 1.369 . S
C256 C255 1.369 . S
C256 C257 1.408 . S
C256 H278 0.930 . S
C257 C252 1.348 . S
C257 C256 1.408 . S
C257 H279 0.930 . S
C258 O268 1.281 . S
C258 O269 1.254 . S
C259 O270 1.236 . S
C259 O271 1.266 . S
O260 Tb240 2.484 1_556 S
O260 C242 1.248 . S
O261 Tb240 2.440 1_556 S
O261 C242 1.266 . S
O262 Tb240 2.658 . S
O262 Tb241 2.325 . S
O262 C249 1.281 . S
O263 Tb240 2.409 . S
O263 C249 1.254 . S
O264 Tb240 2.378 . S
O264 C250 1.236 . S
O265 Tb241 2.341 . S
O265 C250 1.266 . S
O266 Tb241 2.484 . S
O266 C251 1.248 . S
O267 Tb241 2.440 . S
O267 C251 1.266 . S
O268 Tb240 2.325 . S
O268 Tb241 2.658 . S
O268 C258 1.281 . S
O269 Tb241 2.409 . S
O269 C258 1.254 . S
O270 Tb241 2.378 . S
O270 C259 1.236 . S
O271 Tb240 2.341 . S
O271 C259 1.266 . S
H272 C244 0.929 . S
H273 C245 0.931 . S
H274 C247 0.930 . S
H275 C248 0.930 . S
H276 C253 0.929 . S
H277 C254 0.931 . S
H278 C256 0.930 . S
H279 C257 0.930 . S
Tb280 C282 2.809 . S
Tb280 O300 2.484 . S
Tb280 O301 2.440 . S
Tb280 O302 2.658 . S
Tb280 O303 2.409 . S
Tb280 O304 2.378 . S
Tb280 O308 2.325 . S
Tb280 O311 2.341 . S
Tb281 C291 2.809 1_556 S
Tb281 O302 2.325 . S
Tb281 O305 2.341 . S
Tb281 O306 2.484 1_556 S
Tb281 O307 2.440 1_556 S
Tb281 O308 2.658 . S
Tb281 O309 2.409 . S
Tb281 O310 2.378 . S
C282 Tb280 2.809 . S
C282 C283 1.514 . S
C282 O300 1.248 . S
C282 O301 1.266 . S
C283 C282 1.514 . S
C283 C284 1.359 . S
C283 C288 1.348 . S
C284 C283 1.359 . S
C284 C285 1.380 . S
C284 H312 0.929 . S
C285 C284 1.380 . S
C285 C286 1.347 . S
C285 H313 0.931 . S
C286 C285 1.347 . S
C286 C287 1.369 . S
C287 C286 1.369 . S
C287 C288 1.408 . S
C287 H314 0.930 . S
C288 C283 1.348 . S
C288 C287 1.408 . S
C288 H315 0.930 . S
C289 O302 1.281 . S
C289 O303 1.254 . S
C290 O304 1.236 . S
C290 O305 1.266 . S
C291 Tb281 2.809 1_554 S
C291 C292 1.514 . S
C291 O306 1.248 . S
C291 O307 1.266 . S
C292 C291 1.514 . S
C292 C293 1.359 . S
C292 C297 1.348 . S
C293 C292 1.359 . S
C293 C294 1.380 . S
C293 H316 0.929 . S
C294 C293 1.380 . S
C294 C295 1.347 . S
C294 H317 0.931 . S
C295 C294 1.347 . S
C295 C296 1.369 . S
C296 C295 1.369 . S
C296 C297 1.408 . S
C296 H318 0.930 . S
C297 C292 1.348 . S
C297 C296 1.408 . S
C297 H319 0.930 . S
C298 O308 1.281 . S
C298 O309 1.254 . S
C299 O310 1.236 . S
C299 O311 1.266 . S
O300 Tb280 2.484 . S
O300 C282 1.248 . S
O301 Tb280 2.440 . S
O301 C282 1.266 . S
O302 Tb280 2.658 . S
O302 Tb281 2.325 . S
O302 C289 1.281 . S
O303 Tb280 2.409 . S
O303 C289 1.254 . S
O304 Tb280 2.378 . S
O304 C290 1.236 . S
O305 Tb281 2.341 . S
O305 C290 1.266 . S
O306 Tb281 2.484 1_554 S
O306 C291 1.248 . S
O307 Tb281 2.440 1_554 S
O307 C291 1.266 . S
O308 Tb280 2.325 . S
O308 Tb281 2.658 . S
O308 C298 1.281 . S
O309 Tb281 2.409 . S
O309 C298 1.254 . S
O310 Tb281 2.378 . S
O310 C299 1.236 . S
O311 Tb280 2.341 . S
O311 C299 1.266 . S
H312 C284 0.929 . S
H313 C285 0.931 . S
H314 C287 0.930 . S
H315 C288 0.930 . S
H316 C293 0.929 . S
H317 C294 0.931 . S
H318 C296 0.930 . S
H319 C297 0.930 . S
Tb320 C322 2.809 . S
Tb320 O340 2.484 . S
Tb320 O341 2.440 . S
Tb320 O342 2.658 . S
Tb320 O343 2.409 . S
Tb320 O344 2.378 . S
Tb320 O348 2.325 . S
Tb320 O351 2.341 . S
Tb321 C331 2.809 . S
Tb321 O342 2.325 . S
Tb321 O345 2.341 . S
Tb321 O346 2.484 . S
Tb321 O347 2.440 . S
Tb321 O348 2.658 . S
Tb321 O349 2.409 . S
Tb321 O350 2.378 . S
C322 Tb320 2.809 . S
C322 C323 1.514 . S
C322 O340 1.248 . S
C322 O341 1.266 . S
C323 C322 1.514 . S
C323 C324 1.359 . S
C323 C328 1.348 . S
C324 C323 1.359 . S
C324 C325 1.380 . S
C324 H352 0.929 . S
C325 C324 1.380 . S
C325 C326 1.347 1_556 S
C325 H353 0.931 1_556 S
C326 C325 1.347 1_554 S
C326 C327 1.369 1_554 S
C327 C326 1.369 1_556 S
C327 C328 1.408 . S
C327 H354 0.930 1_556 S
C328 C323 1.348 . S
C328 C327 1.408 . S
C328 H355 0.930 . S
C329 O342 1.281 . S
C329 O343 1.254 . S
C330 O344 1.236 . S
C330 O345 1.266 . S
C331 Tb321 2.809 . S
C331 C332 1.514 . S
C331 O346 1.248 . S
C331 O347 1.266 . S
C332 C331 1.514 . S
C332 C333 1.359 . S
C332 C337 1.348 . S
C333 C332 1.359 . S
C333 C334 1.380 . S
C333 H356 0.929 . S
C334 C333 1.380 . S
C334 C335 1.347 . S
C334 H357 0.931 . S
C335 C334 1.347 . S
C335 C336 1.369 . S
C336 C335 1.369 . S
C336 C337 1.408 . S
C336 H358 0.930 . S
C337 C332 1.348 . S
C337 C336 1.408 . S
C337 H359 0.930 . S
C338 O348 1.281 . S
C338 O349 1.254 . S
C339 O350 1.236 . S
C339 O351 1.266 . S
O340 Tb320 2.484 . S
O340 C322 1.248 . S
O341 Tb320 2.440 . S
O341 C322 1.266 . S
O342 Tb320 2.658 . S
O342 Tb321 2.325 . S
O342 C329 1.281 . S
O343 Tb320 2.409 . S
O343 C329 1.254 . S
O344 Tb320 2.378 . S
O344 C330 1.236 . S
O345 Tb321 2.341 . S
O345 C330 1.266 . S
O346 Tb321 2.484 . S
O346 C331 1.248 . S
O347 Tb321 2.440 . S
O347 C331 1.266 . S
O348 Tb320 2.325 . S
O348 Tb321 2.658 . S
O348 C338 1.281 . S
O349 Tb321 2.409 . S
O349 C338 1.254 . S
O350 Tb321 2.378 . S
O350 C339 1.236 . S
O351 Tb320 2.341 . S
O351 C339 1.266 . S
H352 C324 0.929 . S
H353 C325 0.931 1_554 S
H354 C327 0.930 1_554 S
H355 C328 0.930 . S
H356 C333 0.929 . S
H357 C334 0.931 . S
H358 C336 0.930 . S
H359 C337 0.930 . S
Tb360 C362 2.809 . S
Tb360 O380 2.484 . S
Tb360 O381 2.440 . S
Tb360 O382 2.658 . S
Tb360 O383 2.409 . S
Tb360 O384 2.378 . S
Tb360 O388 2.325 . S
Tb360 O391 2.341 . S
Tb361 C371 2.809 . S
Tb361 O382 2.325 . S
Tb361 O385 2.341 . S
Tb361 O386 2.484 . S
Tb361 O387 2.440 . S
Tb361 O388 2.658 . S
Tb361 O389 2.409 . S
Tb361 O390 2.378 . S
C362 Tb360 2.809 . S
C362 C363 1.514 . S
C362 O380 1.248 . S
C362 O381 1.266 . S
C363 C362 1.514 . S
C363 C364 1.359 . S
C363 C368 1.348 . S
C364 C363 1.359 . S
C364 C365 1.380 . S
C364 H392 0.929 . S
C365 C364 1.380 . S
C365 C366 1.347 . S
C365 H393 0.931 . S
C366 C365 1.347 . S
C366 C367 1.369 . S
C367 C366 1.369 . S
C367 C368 1.408 . S
C367 H394 0.930 . S
C368 C363 1.348 . S
C368 C367 1.408 . S
C368 H395 0.930 . S
C369 O382 1.281 . S
C369 O383 1.254 . S
C370 O384 1.236 . S
C370 O385 1.266 . S
C371 Tb361 2.809 . S
C371 C372 1.514 . S
C371 O386 1.248 . S
C371 O387 1.266 . S
C372 C371 1.514 . S
C372 C373 1.359 . S
C372 C377 1.348 . S
C373 C372 1.359 . S
C373 C374 1.380 . S
C373 H396 0.929 . S
C374 C373 1.380 . S
C374 C375 1.347 1_554 S
C374 H397 0.931 1_554 S
C375 C374 1.347 1_556 S
C375 C376 1.369 1_556 S
C376 C375 1.369 1_554 S
C376 C377 1.408 . S
C376 H398 0.930 1_554 S
C377 C372 1.348 . S
C377 C376 1.408 . S
C377 H399 0.930 . S
C378 O388 1.281 . S
C378 O389 1.254 . S
C379 O390 1.236 . S
C379 O391 1.266 . S
O380 Tb360 2.484 . S
O380 C362 1.248 . S
O381 Tb360 2.440 . S
O381 C362 1.266 . S
O382 Tb360 2.658 . S
O382 Tb361 2.325 . S
O382 C369 1.281 . S
O383 Tb360 2.409 . S
O383 C369 1.254 . S
O384 Tb360 2.378 . S
O384 C370 1.236 . S
O385 Tb361 2.341 . S
O385 C370 1.266 . S
O386 Tb361 2.484 . S
O386 C371 1.248 . S
O387 Tb361 2.440 . S
O387 C371 1.266 . S
O388 Tb360 2.325 . S
O388 Tb361 2.658 . S
O388 C378 1.281 . S
O389 Tb361 2.409 . S
O389 C378 1.254 . S
O390 Tb361 2.378 . S
O390 C379 1.236 . S
O391 Tb360 2.341 . S
O391 C379 1.266 . S
H392 C364 0.929 . S
H393 C365 0.931 . S
H394 C367 0.930 . S
H395 C368 0.930 . S
H396 C373 0.929 . S
H397 C374 0.931 1_556 S
H398 C376 0.930 1_556 S
H399 C377 0.930 . S
Tb400 C402 2.809 . S
Tb400 O420 2.484 . S
Tb400 O421 2.440 . S
Tb400 O422 2.658 . S
Tb400 O423 2.409 . S
Tb400 O424 2.378 . S
Tb400 O428 2.325 . S
Tb400 O431 2.341 . S
Tb401 C411 2.809 . S
Tb401 O422 2.325 . S
Tb401 O425 2.341 . S
Tb401 O426 2.484 . S
Tb401 O427 2.440 . S
Tb401 O428 2.658 . S
Tb401 O429 2.409 . S
Tb401 O430 2.378 . S
C402 Tb400 2.809 . S
C402 C403 1.514 . S
C402 O420 1.248 . S
C402 O421 1.266 . S
C403 C402 1.514 . S
C403 C404 1.359 . S
C403 C408 1.348 . S
C404 C403 1.359 . S
C404 C405 1.380 . S
C404 H432 0.929 . S
C405 C404 1.380 . S
C405 C406 1.347 1_556 S
C405 H433 0.931 1_556 S
C406 C405 1.347 1_554 S
C406 C407 1.369 1_554 S
C407 C406 1.369 1_556 S
C407 C408 1.408 . S
C407 H434 0.930 1_556 S
C408 C403 1.348 . S
C408 C407 1.408 . S
C408 H435 0.930 . S
C409 O422 1.281 . S
C409 O423 1.254 . S
C410 O424 1.236 . S
C410 O425 1.266 . S
C411 Tb401 2.809 . S
C411 C412 1.514 . S
C411 O426 1.248 . S
C411 O427 1.266 . S
C412 C411 1.514 . S
C412 C413 1.359 . S
C412 C417 1.348 . S
C413 C412 1.359 . S
C413 C414 1.380 . S
C413 H436 0.929 . S
C414 C413 1.380 . S
C414 C415 1.347 . S
C414 H437 0.931 . S
C415 C414 1.347 . S
C415 C416 1.369 . S
C416 C415 1.369 . S
C416 C417 1.408 . S
C416 H438 0.930 . S
C417 C412 1.348 . S
C417 C416 1.408 . S
C417 H439 0.930 . S
C418 O428 1.281 . S
C418 O429 1.254 . S
C419 O430 1.236 . S
C419 O431 1.266 . S
O420 Tb400 2.484 . S
O420 C402 1.248 . S
O421 Tb400 2.440 . S
O421 C402 1.266 . S
O422 Tb400 2.658 . S
O422 Tb401 2.325 . S
O422 C409 1.281 . S
O423 Tb400 2.409 . S
O423 C409 1.254 . S
O424 Tb400 2.378 . S
O424 C410 1.236 . S
O425 Tb401 2.341 . S
O425 C410 1.266 . S
O426 Tb401 2.484 . S
O426 C411 1.248 . S
O427 Tb401 2.440 . S
O427 C411 1.266 . S
O428 Tb400 2.325 . S
O428 Tb401 2.658 . S
O428 C418 1.281 . S
O429 Tb401 2.409 . S
O429 C418 1.254 . S
O430 Tb401 2.378 . S
O430 C419 1.236 . S
O431 Tb400 2.341 . S
O431 C419 1.266 . S
H432 C404 0.929 . S
H433 C405 0.931 1_554 S
H434 C407 0.930 1_554 S
H435 C408 0.930 . S
H436 C413 0.929 . S
H437 C414 0.931 . S
H438 C416 0.930 . S
H439 C417 0.930 . S
Tb440 C442 2.809 . S
Tb440 O460 2.484 . S
Tb440 O461 2.440 . S
Tb440 O462 2.658 . S
Tb440 O463 2.409 . S
Tb440 O464 2.378 . S
Tb440 O468 2.325 . S
Tb440 O471 2.341 . S
Tb441 C451 2.809 . S
Tb441 O462 2.325 . S
Tb441 O465 2.341 . S
Tb441 O466 2.484 . S
Tb441 O467 2.440 . S
Tb441 O468 2.658 . S
Tb441 O469 2.409 . S
Tb441 O470 2.378 . S
C442 Tb440 2.809 . S
C442 C443 1.514 . S
C442 O460 1.248 . S
C442 O461 1.266 . S
C443 C442 1.514 . S
C443 C444 1.359 . S
C443 C448 1.348 . S
C444 C443 1.359 . S
C444 C445 1.380 . S
C444 H472 0.929 . S
C445 C444 1.380 . S
C445 C446 1.347 . S
C445 H473 0.931 . S
C446 C445 1.347 . S
C446 C447 1.369 . S
C447 C446 1.369 . S
C447 C448 1.408 . S
C447 H474 0.930 . S
C448 C443 1.348 . S
C448 C447 1.408 . S
C448 H475 0.930 . S
C449 O462 1.281 . S
C449 O463 1.254 . S
C450 O464 1.236 . S
C450 O465 1.266 . S
C451 Tb441 2.809 . S
C451 C452 1.514 . S
C451 O466 1.248 . S
C451 O467 1.266 . S
C452 C451 1.514 . S
C452 C453 1.359 . S
C452 C457 1.348 . S
C453 C452 1.359 . S
C453 C454 1.380 . S
C453 H476 0.929 . S
C454 C453 1.380 . S
C454 C455 1.347 1_554 S
C454 H477 0.931 1_554 S
C455 C454 1.347 1_556 S
C455 C456 1.369 1_556 S
C456 C455 1.369 1_554 S
C456 C457 1.408 . S
C456 H478 0.930 1_554 S
C457 C452 1.348 . S
C457 C456 1.408 . S
C457 H479 0.930 . S
C458 O468 1.281 . S
C458 O469 1.254 . S
C459 O470 1.236 . S
C459 O471 1.266 . S
O460 Tb440 2.484 . S
O460 C442 1.248 . S
O461 Tb440 2.440 . S
O461 C442 1.266 . S
O462 Tb440 2.658 . S
O462 Tb441 2.325 . S
O462 C449 1.281 . S
O463 Tb440 2.409 . S
O463 C449 1.254 . S
O464 Tb440 2.378 . S
O464 C450 1.236 . S
O465 Tb441 2.341 . S
O465 C450 1.266 . S
O466 Tb441 2.484 . S
O466 C451 1.248 . S
O467 Tb441 2.440 . S
O467 C451 1.266 . S
O468 Tb440 2.325 . S
O468 Tb441 2.658 . S
O468 C458 1.281 . S
O469 Tb441 2.409 . S
O469 C458 1.254 . S
O470 Tb441 2.378 . S
O470 C459 1.236 . S
O471 Tb440 2.341 . S
O471 C459 1.266 . S
H472 C444 0.929 . S
H473 C445 0.931 . S
H474 C447 0.930 . S
H475 C448 0.930 . S
H476 C453 0.929 . S
H477 C454 0.931 1_556 S
H478 C456 0.930 1_556 S
H479 C457 0.930 . S
Tb480 C482 2.809 . S
Tb480 O500 2.484 . S
Tb480 O501 2.440 . S
Tb480 O502 2.658 . S
Tb480 O503 2.409 . S
Tb480 O504 2.378 . S
Tb480 O508 2.325 . S
Tb480 O511 2.341 . S
Tb481 C491 2.809 . S
Tb481 O502 2.325 . S
Tb481 O505 2.341 . S
Tb481 O506 2.484 . S
Tb481 O507 2.440 . S
Tb481 O508 2.658 . S
Tb481 O509 2.409 . S
Tb481 O510 2.378 . S
C482 Tb480 2.809 . S
C482 C483 1.514 . S
C482 O500 1.248 . S
C482 O501 1.266 . S
C483 C482 1.514 . S
C483 C484 1.359 . S
C483 C488 1.348 . S
C484 C483 1.359 . S
C484 C485 1.380 . S
C484 H512 0.929 . S
C485 C484 1.380 . S
C485 C486 1.347 . S
C485 H513 0.931 . S
C486 C485 1.347 . S
C486 C487 1.369 . S
C487 C486 1.369 . S
C487 C488 1.408 . S
C487 H514 0.930 . S
C488 C483 1.348 . S
C488 C487 1.408 . S
C488 H515 0.930 . S
C489 O502 1.281 . S
C489 O503 1.254 . S
C490 O504 1.236 . S
C490 O505 1.266 . S
C491 Tb481 2.809 . S
C491 C492 1.514 . S
C491 O506 1.248 . S
C491 O507 1.266 . S
C492 C491 1.514 . S
C492 C493 1.359 . S
C492 C497 1.348 . S
C493 C492 1.359 . S
C493 C494 1.380 . S
C493 H516 0.929 . S
C494 C493 1.380 . S
C494 C495 1.347 1_556 S
C494 H517 0.925 1_556 S
C495 C494 1.347 1_554 S
C495 C496 1.369 1_554 S
C496 C495 1.369 1_556 S
C496 C497 1.408 . S
C496 H518 0.930 1_556 S
C497 C492 1.348 . S
C497 C496 1.408 . S
C497 H519 0.930 . S
C498 O508 1.281 . S
C498 O509 1.254 . S
C499 O510 1.236 . S
C499 O511 1.266 . S
O500 Tb480 2.484 . S
O500 C482 1.248 . S
O501 Tb480 2.440 . S
O501 C482 1.266 . S
O502 Tb480 2.658 . S
O502 Tb481 2.325 . S
O502 C489 1.281 . S
O503 Tb480 2.409 . S
O503 C489 1.254 . S
O504 Tb480 2.378 . S
O504 C490 1.236 . S
O505 Tb481 2.341 . S
O505 C490 1.266 . S
O506 Tb481 2.484 . S
O506 C491 1.248 . S
O507 Tb481 2.440 . S
O507 C491 1.266 . S
O508 Tb480 2.325 . S
O508 Tb481 2.658 . S
O508 C498 1.281 . S
O509 Tb481 2.409 . S
O509 C498 1.254 . S
O510 Tb481 2.378 . S
O510 C499 1.236 . S
O511 Tb480 2.341 . S
O511 C499 1.266 . S
H512 C484 0.929 . S
H513 C485 0.931 . S
H514 C487 0.930 . S
H515 C488 0.930 . S
H516 C493 0.929 . S
H517 C494 0.925 1_554 S
H518 C496 0.930 1_554 S
H519 C497 0.930 . S
Tb520 C522 2.809 . S
Tb520 O540 2.484 . S
Tb520 O541 2.440 . S
Tb520 O542 2.658 . S
Tb520 O543 2.409 . S
Tb520 O544 2.378 . S
Tb520 O548 2.325 . S
Tb520 O551 2.341 . S
Tb521 C531 2.809 . S
Tb521 O542 2.325 . S
Tb521 O545 2.341 . S
Tb521 O546 2.484 . S
Tb521 O547 2.440 . S
Tb521 O548 2.658 . S
Tb521 O549 2.409 . S
Tb521 O550 2.378 . S
C522 Tb520 2.809 . S
C522 C523 1.514 . S
C522 O540 1.248 . S
C522 O541 1.266 . S
C523 C522 1.514 . S
C523 C524 1.359 . S
C523 C528 1.348 . S
C524 C523 1.359 . S
C524 C525 1.380 . S
C524 H552 0.929 . S
C525 C524 1.380 . S
C525 C526 1.347 1_554 S
C525 H553 0.925 1_554 S
C526 C525 1.347 1_556 S
C526 C527 1.369 1_556 S
C527 C526 1.369 1_554 S
C527 C528 1.408 . S
C527 H554 0.930 1_554 S
C528 C523 1.348 . S
C528 C527 1.408 . S
C528 H555 0.930 . S
C529 O542 1.281 . S
C529 O543 1.254 . S
C530 O544 1.236 . S
C530 O545 1.266 . S
C531 Tb521 2.809 . S
C531 C532 1.514 . S
C531 O546 1.248 . S
C531 O547 1.266 . S
C532 C531 1.514 . S
C532 C533 1.359 . S
C532 C537 1.348 . S
C533 C532 1.359 . S
C533 C534 1.380 . S
C533 H556 0.929 . S
C534 C533 1.380 . S
C534 C535 1.347 . S
C534 H557 0.931 . S
C535 C534 1.347 . S
C535 C536 1.369 . S
C536 C535 1.369 . S
C536 C537 1.408 . S
C536 H558 0.930 . S
C537 C532 1.348 . S
C537 C536 1.408 . S
C537 H559 0.930 . S
C538 O548 1.281 . S
C538 O549 1.254 . S
C539 O550 1.236 . S
C539 O551 1.266 . S
O540 Tb520 2.484 . S
O540 C522 1.248 . S
O541 Tb520 2.440 . S
O541 C522 1.266 . S
O542 Tb520 2.658 . S
O542 Tb521 2.325 . S
O542 C529 1.281 . S
O543 Tb520 2.409 . S
O543 C529 1.254 . S
O544 Tb520 2.378 . S
O544 C530 1.236 . S
O545 Tb521 2.341 . S
O545 C530 1.266 . S
O546 Tb521 2.484 . S
O546 C531 1.248 . S
O547 Tb521 2.440 . S
O547 C531 1.266 . S
O548 Tb520 2.325 . S
O548 Tb521 2.658 . S
O548 C538 1.281 . S
O549 Tb521 2.409 . S
O549 C538 1.254 . S
O550 Tb521 2.378 . S
O550 C539 1.236 . S
O551 Tb520 2.341 . S
O551 C539 1.266 . S
H552 C524 0.929 . S
H553 C525 0.925 1_556 S
H554 C527 0.930 1_556 S
H555 C528 0.930 . S
H556 C533 0.929 . S
H557 C534 0.931 . S
H558 C536 0.930 . S
H559 C537 0.930 . S
Tb560 C562 2.809 . S
Tb560 O580 2.484 . S
Tb560 O581 2.440 . S
Tb560 O582 2.658 . S
Tb560 O583 2.409 . S
Tb560 O584 2.378 . S
Tb560 O588 2.325 . S
Tb560 O591 2.341 . S
Tb561 C571 2.809 . S
Tb561 O582 2.325 . S
Tb561 O585 2.341 . S
Tb561 O586 2.484 . S
Tb561 O587 2.440 . S
Tb561 O588 2.658 . S
Tb561 O589 2.409 . S
Tb561 O590 2.378 . S
C562 Tb560 2.809 . S
C562 C563 1.514 . S
C562 O580 1.248 . S
C562 O581 1.266 . S
C563 C562 1.514 . S
C563 C564 1.359 . S
C563 C568 1.348 . S
C564 C563 1.359 . S
C564 C565 1.380 . S
C564 H592 0.929 . S
C565 C564 1.380 . S
C565 C566 1.347 . S
C565 H593 0.931 . S
C566 C565 1.347 . S
C566 C567 1.369 . S
C567 C566 1.369 . S
C567 C568 1.408 . S
C567 H594 0.930 . S
C568 C563 1.348 . S
C568 C567 1.408 . S
C568 H595 0.930 . S
C569 O582 1.281 . S
C569 O583 1.254 . S
C570 O584 1.236 . S
C570 O585 1.266 . S
C571 Tb561 2.809 . S
C571 C572 1.514 . S
C571 O586 1.248 . S
C571 O587 1.266 . S
C572 C571 1.514 . S
C572 C573 1.359 . S
C572 C577 1.348 . S
C573 C572 1.359 . S
C573 C574 1.380 . S
C573 H596 0.929 . S
C574 C573 1.380 . S
C574 C575 1.347 1_556 S
C574 H597 0.925 1_556 S
C575 C574 1.347 1_554 S
C575 C576 1.369 1_554 S
C576 C575 1.369 1_556 S
C576 C577 1.408 . S
C576 H598 0.930 1_556 S
C577 C572 1.348 . S
C577 C576 1.408 . S
C577 H599 0.930 . S
C578 O588 1.281 . S
C578 O589 1.254 . S
C579 O590 1.236 . S
C579 O591 1.266 . S
O580 Tb560 2.484 . S
O580 C562 1.248 . S
O581 Tb560 2.440 . S
O581 C562 1.266 . S
O582 Tb560 2.658 . S
O582 Tb561 2.325 . S
O582 C569 1.281 . S
O583 Tb560 2.409 . S
O583 C569 1.254 . S
O584 Tb560 2.378 . S
O584 C570 1.236 . S
O585 Tb561 2.341 . S
O585 C570 1.266 . S
O586 Tb561 2.484 . S
O586 C571 1.248 . S
O587 Tb561 2.440 . S
O587 C571 1.266 . S
O588 Tb560 2.325 . S
O588 Tb561 2.658 . S
O588 C578 1.281 . S
O589 Tb561 2.409 . S
O589 C578 1.254 . S
O590 Tb561 2.378 . S
O590 C579 1.236 . S
O591 Tb560 2.341 . S
O591 C579 1.266 . S
H592 C564 0.929 . S
H593 C565 0.931 . S
H594 C567 0.930 . S
H595 C568 0.930 . S
H596 C573 0.929 . S
H597 C574 0.925 1_554 S
H598 C576 0.930 1_554 S
H599 C577 0.930 . S
Tb600 C602 2.809 . S
Tb600 O620 2.484 . S
Tb600 O621 2.440 . S
Tb600 O622 2.658 . S
Tb600 O623 2.409 . S
Tb600 O624 2.378 . S
Tb600 O628 2.325 . S
Tb600 O631 2.341 . S
Tb601 C611 2.809 . S
Tb601 O622 2.325 . S
Tb601 O625 2.341 . S
Tb601 O626 2.484 . S
Tb601 O627 2.440 . S
Tb601 O628 2.658 . S
Tb601 O629 2.409 . S
Tb601 O630 2.378 . S
C602 Tb600 2.809 . S
C602 C603 1.514 . S
C602 O620 1.248 . S
C602 O621 1.266 . S
C603 C602 1.514 . S
C603 C604 1.359 . S
C603 C608 1.348 . S
C604 C603 1.359 . S
C604 C605 1.380 . S
C604 H632 0.929 . S
C605 C604 1.380 . S
C605 C606 1.347 1_554 S
C605 H633 0.925 1_554 S
C606 C605 1.347 1_556 S
C606 C607 1.369 1_556 S
C607 C606 1.369 1_554 S
C607 C608 1.408 . S
C607 H634 0.930 1_554 S
C608 C603 1.348 . S
C608 C607 1.408 . S
C608 H635 0.930 . S
C609 O622 1.281 . S
C609 O623 1.254 . S
C610 O624 1.236 . S
C610 O625 1.266 . S
C611 Tb601 2.809 . S
C611 C612 1.514 . S
C611 O626 1.248 . S
C611 O627 1.266 . S
C612 C611 1.514 . S
C612 C613 1.359 . S
C612 C617 1.348 . S
C613 C612 1.359 . S
C613 C614 1.380 . S
C613 H636 0.929 . S
C614 C613 1.380 . S
C614 C615 1.347 . S
C614 H637 0.931 . S
C615 C614 1.347 . S
C615 C616 1.369 . S
C616 C615 1.369 . S
C616 C617 1.408 . S
C616 H638 0.930 . S
C617 C612 1.348 . S
C617 C616 1.408 . S
C617 H639 0.930 . S
C618 O628 1.281 . S
C618 O629 1.254 . S
C619 O630 1.236 . S
C619 O631 1.266 . S
O620 Tb600 2.484 . S
O620 C602 1.248 . S
O621 Tb600 2.440 . S
O621 C602 1.266 . S
O622 Tb600 2.658 . S
O622 Tb601 2.325 . S
O622 C609 1.281 . S
O623 Tb600 2.409 . S
O623 C609 1.254 . S
O624 Tb600 2.378 . S
O624 C610 1.236 . S
O625 Tb601 2.341 . S
O625 C610 1.266 . S
O626 Tb601 2.484 . S
O626 C611 1.248 . S
O627 Tb601 2.440 . S
O627 C611 1.266 . S
O628 Tb600 2.325 . S
O628 Tb601 2.658 . S
O628 C618 1.281 . S
O629 Tb601 2.409 . S
O629 C618 1.254 . S
O630 Tb601 2.378 . S
O630 C619 1.236 . S
O631 Tb600 2.341 . S
O631 C619 1.266 . S
H632 C604 0.929 . S
H633 C605 0.925 1_556 S
H634 C607 0.930 1_556 S
H635 C608 0.930 . S
H636 C613 0.929 . S
H637 C614 0.931 . S
H638 C616 0.930 . S
H639 C617 0.930 . S
C640 C641 1.387 . S
C640 H644 0.950 . S
C640 C649 1.390 . S
C641 C640 1.387 . S
C641 C643 1.387 . S
H642 C649 0.950 1_545 S
C643 C641 1.387 . S
C643 C645 1.390 . S
C643 H647 0.950 . S
H644 C640 0.950 . S
C645 C643 1.390 . S
C645 C646 1.387 . S
C645 H648 0.950 . S
C646 C645 1.387 . S
C646 C649 1.387 . S
H647 C643 0.950 . S
H648 C645 0.950 . S
C649 C640 1.390 . S
C649 H642 0.950 1_565 S
C649 C646 1.387 . S
C650 C651 1.387 . S
C650 H654 0.950 . S
C650 C659 1.390 . S
C651 C650 1.387 . S
C651 C653 1.387 . S
H652 C659 0.950 . S
C653 C651 1.387 . S
C653 C655 1.390 . S
C653 H657 0.950 . S
H654 C650 0.950 . S
C655 C653 1.390 . S
C655 C656 1.387 . S
C655 H658 0.950 . S
C656 C655 1.387 . S
C656 C659 1.387 . S
H657 C653 0.950 . S
H658 C655 0.950 . S
C659 C650 1.390 . S
C659 H652 0.950 . S
C659 C656 1.387 . S
C660 C661 1.387 . S
C660 H664 0.950 1_545 S
C660 C669 1.390 . S
C661 C660 1.387 . S
C661 C663 1.387 . S
H662 C669 0.950 . S
C663 C661 1.387 . S
C663 C665 1.390 . S
C663 H667 0.950 . S
H664 C660 0.950 1_565 S
C665 C663 1.390 . S
C665 C666 1.387 . S
C665 H668 0.950 . S
C666 C665 1.387 . S
C666 C669 1.387 . S
H667 C663 0.950 . S
H668 C665 0.950 . S
C669 C660 1.390 . S
C669 H662 0.950 . S
C669 C666 1.387 . S
C670 C671 1.387 . S
C670 H674 0.950 . S
C670 C679 1.390 . S
C671 C670 1.387 . S
C671 C673 1.387 . S
H672 C679 0.950 . S
C673 C671 1.387 . S
C673 C675 1.390 . S
C673 H677 0.950 . S
H674 C670 0.950 . S
C675 C673 1.390 . S
C675 C676 1.387 . S
C675 H678 0.950 . S
C676 C675 1.387 . S
C676 C679 1.387 . S
H677 C673 0.950 . S
H678 C675 0.950 . S
C679 C670 1.390 . S
C679 H672 0.950 . S
C679 C676 1.387 . S
C680 C681 1.387 . S
C680 H684 0.950 . S
C680 C689 1.390 . S
C681 C680 1.387 . S
C681 C683 1.387 . S
H682 C689 0.950 . S
C683 C681 1.387 . S
C683 C685 1.390 1_554 S
C683 H687 0.950 1_554 S
H684 C680 0.950 . S
C685 C683 1.390 1_556 S
C685 C686 1.387 1_556 S
C685 H688 0.950 . S
C686 C685 1.387 1_554 S
C686 C689 1.387 . S
H687 C683 0.950 1_556 S
H688 C685 0.950 . S
C689 C680 1.390 . S
C689 H682 0.950 . S
C689 C686 1.387 . S
C690 C691 1.387 . S
C690 H694 0.950 . S
C690 C699 1.390 . S
C691 C690 1.387 . S
C691 C693 1.387 1_556 S
H692 C699 0.950 . S
C693 C691 1.387 1_554 S
C693 C695 1.390 1_554 S
C693 H697 0.950 . S
H694 C690 0.950 . S
C695 C693 1.390 1_556 S
C695 C696 1.387 . S
C695 H698 0.950 . S
C696 C695 1.387 . S
C696 C699 1.387 . S
H697 C693 0.950 . S
H698 C695 0.950 . S
C699 C690 1.390 . S
C699 H692 0.950 . S
C699 C696 1.387 . S
C700 C701 1.387 . S
C700 H704 0.950 . S
C700 C709 1.390 . S
C701 C700 1.387 . S
C701 C703 1.387 . S
H702 C709 0.950 . S
C703 C701 1.387 . S
C703 C705 1.390 1_554 S
C703 H707 0.950 1_554 S
H704 C700 0.950 . S
C705 C703 1.390 1_556 S
C705 C706 1.387 1_556 S
C705 H708 0.950 . S
C706 C705 1.387 1_554 S
C706 C709 1.387 . S
H707 C703 0.950 1_556 S
H708 C705 0.950 . S
C709 C700 1.390 . S
C709 H702 0.950 . S
C709 C706 1.387 . S
C710 C711 1.387 1_554 S
C710 H714 0.950 . S
C710 C719 1.390 1_554 S
C711 C710 1.387 1_556 S
C711 C713 1.387 . S
H712 C719 0.950 1_554 S
C713 C711 1.387 . S
C713 C715 1.390 . S
C713 H717 0.950 . S
H714 C710 0.950 . S
C715 C713 1.390 . S
C715 C716 1.387 . S
C715 H718 0.950 . S
C716 C715 1.387 . S
C716 C719 1.387 . S
H717 C713 0.950 . S
H718 C715 0.950 . S
C719 C710 1.390 1_556 S
C719 H712 0.950 1_556 S
C719 C716 1.387 . S
C720 C721 1.387 . S
C720 H724 0.950 . S
C720 C729 1.390 . S
C721 C720 1.387 . S
C721 C723 1.387 . S
H722 C729 0.950 . S
C723 C721 1.387 . S
C723 C725 1.390 . S
C723 H727 0.950 . S
H724 C720 0.950 . S
C725 C723 1.390 . S
C725 C726 1.387 . S
C725 H728 0.950 . S
C726 C725 1.387 . S
C726 C729 1.387 . S
H727 C723 0.950 . S
H728 C725 0.950 . S
C729 C720 1.390 . S
C729 H722 0.950 . S
C729 C726 1.387 . S
C730 C731 1.387 . S
C730 H734 0.950 . S
C730 C739 1.390 . S
C731 C730 1.387 . S
C731 C733 1.387 . S
H732 C739 0.950 . S
C733 C731 1.387 . S
C733 C735 1.390 . S
C733 H737 0.950 . S
H734 C730 0.950 . S
C735 C733 1.390 . S
C735 C736 1.387 . S
C735 H738 0.950 . S
C736 C735 1.387 . S
C736 C739 1.387 . S
H737 C733 0.950 . S
H738 C735 0.950 . S
C739 C730 1.390 . S
C739 H732 0.950 . S
C739 C736 1.387 . S
C740 C741 1.387 . S
C740 H744 0.950 . S
C740 C749 1.390 . S
C741 C740 1.387 . S
C741 C743 1.387 . S
H742 C749 0.950 . S
C743 C741 1.387 . S
C743 C745 1.390 . S
C743 H747 0.950 . S
H744 C740 0.950 . S
C745 C743 1.390 . S
C745 C746 1.387 . S
C745 H748 0.950 . S
C746 C745 1.387 . S
C746 C749 1.387 . S
H747 C743 0.950 . S
H748 C745 0.950 . S
C749 C740 1.390 . S
C749 H742 0.950 . S
C749 C746 1.387 . S
C750 C751 1.387 . S
C750 H754 0.950 . S
C750 C759 1.390 . S
C751 C750 1.387 . S
C751 C753 1.387 . S
H752 C759 0.950 . S
C753 C751 1.387 . S
C753 C755 1.390 . S
C753 H757 0.950 . S
H754 C750 0.950 . S
C755 C753 1.390 . S
C755 C756 1.387 . S
C755 H758 0.950 . S
C756 C755 1.387 . S
C756 C759 1.387 . S
H757 C753 0.950 . S
H758 C755 0.950 . S
C759 C750 1.390 . S
C759 H752 0.950 . S
C759 C756 1.387 . S
C760 C761 1.387 . S
C760 H764 0.950 1_545 S
C760 C769 1.390 . S
C761 C760 1.387 . S
C761 C763 1.387 . S
H762 C769 0.950 . S
C763 C761 1.387 . S
C763 C765 1.390 . S
C763 H767 0.950 . S
H764 C760 0.950 1_565 S
C765 C763 1.390 . S
C765 C766 1.387 . S
C765 H768 0.950 . S
C766 C765 1.387 . S
C766 C769 1.387 . S
H767 C763 0.950 . S
H768 C765 0.950 . S
C769 C760 1.390 . S
C769 H762 0.950 . S
C769 C766 1.387 . S
C770 C771 1.387 . S
C770 H774 0.950 . S
C770 C779 1.390 . S
C771 C770 1.387 . S
C771 C773 1.387 . S
H772 C779 0.950 . S
C773 C771 1.387 . S
C773 C775 1.390 . S
C773 H777 0.950 . S
H774 C770 0.950 . S
C775 C773 1.390 . S
C775 C776 1.387 . S
C775 H778 0.950 . S
C776 C775 1.387 . S
C776 C779 1.387 . S
H777 C773 0.950 . S
H778 C775 0.950 . S
C779 C770 1.390 . S
C779 H772 0.950 . S
C779 C776 1.387 . S
C780 C781 1.387 . S
C780 H784 0.950 . S
C780 C789 1.390 . S
C781 C780 1.387 . S
C781 C783 1.387 . S
H782 C789 0.950 . S
C783 C781 1.387 . S
C783 C785 1.390 . S
C783 H787 0.950 . S
H784 C780 0.950 . S
C785 C783 1.390 . S
C785 C786 1.387 . S
C785 H788 0.950 . S
C786 C785 1.387 . S
C786 C789 1.387 . S
H787 C783 0.950 . S
H788 C785 0.950 . S
C789 C780 1.390 . S
C789 H782 0.950 . S
C789 C786 1.387 . S
C790 C791 1.387 . S
C790 H794 0.950 . S
C790 C799 1.390 . S
C791 C790 1.387 . S
C791 C793 1.387 . S
H792 C799 0.950 . S
C793 C791 1.387 . S
C793 C795 1.390 . S
C793 H797 0.950 . S
H794 C790 0.950 . S
C795 C793 1.390 . S
C795 C796 1.387 . S
C795 H798 0.950 . S
C796 C795 1.387 . S
C796 C799 1.387 . S
H797 C793 0.950 . S
H798 C795 0.950 . S
C799 C790 1.390 . S
C799 H792 0.950 . S
C799 C796 1.387 . S
C800 C801 1.387 . S
C800 H804 0.950 . S
C800 C809 1.390 . S
C801 C800 1.387 . S
C801 C803 1.387 . S
H802 C809 0.950 . S
C803 C801 1.387 . S
C803 C805 1.390 . S
C803 H807 0.950 . S
H804 C800 0.950 . S
C805 C803 1.390 . S
C805 C806 1.387 . S
C805 H808 0.950 . S
C806 C805 1.387 . S
C806 C809 1.387 . S
H807 C803 0.950 . S
H808 C805 0.950 . S
C809 C800 1.390 . S
C809 H802 0.950 . S
C809 C806 1.387 . S
C810 C811 1.387 . S
C810 H814 0.950 . S
C810 C819 1.390 . S
C811 C810 1.387 . S
C811 C813 1.387 . S
H812 C819 0.950 . S
C813 C811 1.387 . S
C813 C815 1.390 . S
C813 H817 0.950 . S
H814 C810 0.950 . S
C815 C813 1.390 . S
C815 C816 1.387 . S
C815 H818 0.950 . S
C816 C815 1.387 . S
C816 C819 1.387 . S
H817 C813 0.950 . S
H818 C815 0.950 . S
C819 C810 1.390 . S
C819 H812 0.950 . S
C819 C816 1.387 . S
C820 C821 1.387 . S
C820 H824 0.950 . S
C820 C829 1.390 . S
C821 C820 1.387 . S
C821 C823 1.387 . S
H822 C829 0.950 . S
C823 C821 1.387 . S
C823 C825 1.390 . S
C823 H827 0.950 . S
H824 C820 0.950 . S
C825 C823 1.390 . S
C825 C826 1.387 . S
C825 H828 0.950 . S
C826 C825 1.387 . S
C826 C829 1.387 . S
H827 C823 0.950 . S
H828 C825 0.950 . S
C829 C820 1.390 . S
C829 H822 0.950 . S
C829 C826 1.387 . S
C830 C831 1.387 . S
C830 H834 0.950 . S
C830 C839 1.390 . S
C831 C830 1.387 . S
C831 C833 1.387 . S
H832 C839 0.950 . S
C833 C831 1.387 . S
C833 C835 1.390 . S
C833 H837 0.950 . S
H834 C830 0.950 . S
C835 C833 1.390 . S
C835 C836 1.387 . S
C835 H838 0.950 . S
C836 C835 1.387 . S
C836 C839 1.387 . S
H837 C833 0.950 . S
H838 C835 0.950 . S
C839 C830 1.390 . S
C839 H832 0.950 . S
C839 C836 1.387 . S
C840 C841 1.387 . S
C840 H844 0.950 . S
C840 C849 1.390 . S
C841 C840 1.387 . S
C841 C843 1.387 . S
H842 C849 0.950 . S
C843 C841 1.387 . S
C843 C845 1.390 . S
C843 H847 0.950 . S
H844 C840 0.950 . S
C845 C843 1.390 . S
C845 C846 1.387 . S
C845 H848 0.950 . S
C846 C845 1.387 . S
C846 C849 1.387 . S
H847 C843 0.950 . S
H848 C845 0.950 . S
C849 C840 1.390 . S
C849 H842 0.950 . S
C849 C846 1.387 . S
C850 C851 1.387 . S
C850 H854 0.950 . S
C850 C859 1.390 . S
C851 C850 1.387 . S
C851 C853 1.387 . S
H852 C859 0.950 . S
C853 C851 1.387 . S
C853 C855 1.390 . S
C853 H857 0.950 . S
H854 C850 0.950 . S
C855 C853 1.390 . S
C855 C856 1.387 . S
C855 H858 0.950 . S
C856 C855 1.387 . S
C856 C859 1.387 . S
H857 C853 0.950 . S
H858 C855 0.950 . S
C859 C850 1.390 . S
C859 H852 0.950 . S
C859 C856 1.387 . S
C860 C861 1.387 . S
C860 H864 0.950 . S
C860 C869 1.390 . S
C861 C860 1.387 . S
C861 C863 1.387 . S
H862 C869 0.950 . S
C863 C861 1.387 . S
C863 C865 1.390 . S
C863 H867 0.950 . S
H864 C860 0.950 . S
C865 C863 1.390 . S
C865 C866 1.387 . S
C865 H868 0.950 . S
C866 C865 1.387 . S
C866 C869 1.387 . S
H867 C863 0.950 . S
H868 C865 0.950 . S
C869 C860 1.390 . S
C869 H862 0.950 . S
C869 C866 1.387 . S
C870 C871 1.387 . S
C870 H874 0.950 . S
C870 C879 1.390 . S
C871 C870 1.387 . S
C871 C873 1.387 . S
H872 C879 0.950 . S
C873 C871 1.387 . S
C873 C875 1.390 . S
C873 H877 0.950 . S
H874 C870 0.950 . S
C875 C873 1.390 . S
C875 C876 1.387 . S
C875 H878 0.950 . S
C876 C875 1.387 . S
C876 C879 1.387 . S
H877 C873 0.950 . S
H878 C875 0.950 . S
C879 C870 1.390 . S
C879 H872 0.950 . S
C879 C876 1.387 . S
C880 C881 1.387 . S
C880 H884 0.950 . S
C880 C889 1.390 . S
C881 C880 1.387 . S
C881 C883 1.387 . S
H882 C889 0.950 . S
C883 C881 1.387 . S
C883 C885 1.390 . S
C883 H887 0.950 . S
H884 C880 0.950 . S
C885 C883 1.390 . S
C885 C886 1.387 . S
C885 H888 0.950 . S
C886 C885 1.387 . S
C886 C889 1.387 . S
H887 C883 0.950 . S
H888 C885 0.950 . S
C889 C880 1.390 . S
C889 H882 0.950 . S
C889 C886 1.387 . S
C890 C891 1.387 . S
C890 H894 0.950 . S
C890 C899 1.390 . S
C891 C890 1.387 . S
C891 C893 1.387 . S
H892 C899 0.950 . S
C893 C891 1.387 . S
C893 C895 1.390 . S
C893 H897 0.950 . S
H894 C890 0.950 . S
C895 C893 1.390 . S
C895 C896 1.387 . S
C895 H898 0.950 . S
C896 C895 1.387 . S
C896 C899 1.387 . S
H897 C893 0.950 . S
H898 C895 0.950 . S
C899 C890 1.390 . S
C899 H892 0.950 . S
C899 C896 1.387 . S
C900 C901 1.387 . S
C900 H904 0.950 . S
C900 C909 1.390 . S
C901 C900 1.387 . S
C901 C903 1.387 . S
H902 C909 0.950 . S
C903 C901 1.387 . S
C903 C905 1.390 . S
C903 H907 0.950 . S
H904 C900 0.950 . S
C905 C903 1.390 . S
C905 C906 1.387 . S
C905 H908 0.950 . S
C906 C905 1.387 . S
C906 C909 1.387 . S
H907 C903 0.950 . S
H908 C905 0.950 . S
C909 C900 1.390 . S
C909 H902 0.950 . S
C909 C906 1.387 . S
C910 C911 1.387 . S
C910 H914 0.950 . S
C910 C919 1.390 . S
C911 C910 1.387 . S
C911 C913 1.387 . S
H912 C919 0.950 . S
C913 C911 1.387 . S
C913 C915 1.390 . S
C913 H917 0.950 . S
H914 C910 0.950 . S
C915 C913 1.390 . S
C915 C916 1.387 . S
C915 H918 0.950 . S
C916 C915 1.387 . S
C916 C919 1.387 . S
H917 C913 0.950 . S
H918 C915 0.950 . S
C919 C910 1.390 . S
C919 H912 0.950 . S
C919 C916 1.387 . S
C920 C921 1.387 . S
C920 H924 0.950 . S
C920 C929 1.390 . S
C921 C920 1.387 . S
C921 C923 1.387 . S
H922 C929 0.950 . S
C923 C921 1.387 . S
C923 C925 1.390 . S
C923 H927 0.950 . S
H924 C920 0.950 . S
C925 C923 1.390 . S
C925 C926 1.387 . S
C925 H928 0.950 . S
C926 C925 1.387 . S
C926 C929 1.387 . S
H927 C923 0.950 . S
H928 C925 0.950 . S
C929 C920 1.390 . S
C929 H922 0.950 . S
C929 C926 1.387 . S
C930 C931 1.387 . S
C930 H934 0.950 . S
C930 C939 1.390 . S
C931 C930 1.387 . S
C931 C933 1.387 . S
H932 C939 0.950 . S
C933 C931 1.387 . S
C933 C935 1.390 . S
C933 H937 0.950 . S
H934 C930 0.950 . S
C935 C933 1.390 . S
C935 C936 1.387 . S
C935 H938 0.950 . S
C936 C935 1.387 . S
C936 C939 1.387 . S
H937 C933 0.950 . S
H938 C935 0.950 . S
C939 C930 1.390 . S
C939 H932 0.950 . S
C939 C936 1.387 . S
C940 C941 1.387 . S
C940 H944 0.950 . S
C940 C949 1.390 . S
C941 C940 1.387 . S
C941 C943 1.387 . S
H942 C949 0.950 . S
C943 C941 1.387 . S
C943 C945 1.390 . S
C943 H947 0.950 . S
H944 C940 0.950 . S
C945 C943 1.390 . S
C945 C946 1.387 . S
C945 H948 0.950 . S
C946 C945 1.387 . S
C946 C949 1.387 . S
H947 C943 0.950 . S
H948 C945 0.950 . S
C949 C940 1.390 . S
C949 H942 0.950 . S
C949 C946 1.387 . S
C950 C951 1.387 . S
C950 H954 0.950 . S
C950 C959 1.390 . S
C951 C950 1.387 . S
C951 C953 1.387 . S
H952 C959 0.950 . S
C953 C951 1.387 . S
C953 C955 1.390 . S
C953 H957 0.950 . S
H954 C950 0.950 . S
C955 C953 1.390 . S
C955 C956 1.387 . S
C955 H958 0.950 . S
C956 C955 1.387 . S
C956 C959 1.387 . S
H957 C953 0.950 . S
H958 C955 0.950 . S
C959 C950 1.390 . S
C959 H952 0.950 . S
C959 C956 1.387 . S
C960 C961 1.387 . S
C960 H964 0.950 . S
C960 C969 1.390 . S
C961 C960 1.387 . S
C961 C963 1.387 . S
H962 C969 0.950 . S
C963 C961 1.387 . S
C963 C965 1.390 . S
C963 H967 0.950 . S
H964 C960 0.950 . S
C965 C963 1.390 . S
C965 C966 1.387 . S
C965 H968 0.950 . S
C966 C965 1.387 . S
C966 C969 1.387 . S
H967 C963 0.950 . S
H968 C965 0.950 . S
C969 C960 1.390 . S
C969 H962 0.950 . S
C969 C966 1.387 . S
C970 C971 1.387 . S
C970 H974 0.950 . S
C970 C979 1.390 . S
C971 C970 1.387 . S
C971 C973 1.387 . S
H972 C979 0.950 . S
C973 C971 1.387 . S
C973 C975 1.390 . S
C973 H977 0.950 . S
H974 C970 0.950 . S
C975 C973 1.390 . S
C975 C976 1.387 . S
C975 H978 0.950 . S
C976 C975 1.387 . S
C976 C979 1.387 . S
H977 C973 0.950 . S
H978 C975 0.950 . S
C979 C970 1.390 . S
C979 H972 0.950 . S
C979 C976 1.387 . S
C980 C981 1.387 . S
C980 H984 0.950 . S
C980 C989 1.390 . S
C981 C980 1.387 . S
C981 C983 1.387 . S
H982 C989 0.950 . S
C983 C981 1.387 . S
C983 C985 1.390 . S
C983 H987 0.950 . S
H984 C980 0.950 . S
C985 C983 1.390 . S
C985 C986 1.387 . S
C985 H988 0.950 . S
C986 C985 1.387 . S
C986 C989 1.387 . S
H987 C983 0.950 . S
H988 C985 0.950 . S
C989 C980 1.390 . S
C989 H982 0.950 . S
C989 C986 1.387 . S
C990 C991 1.387 . S
C990 H994 0.950 . S
C990 C999 1.390 . S
C991 C990 1.387 . S
C991 C993 1.387 . S
H992 C999 0.950 . S
C993 C991 1.387 . S
C993 C995 1.390 . S
C993 H997 0.950 . S
H994 C990 0.950 . S
C995 C993 1.390 . S
C995 C996 1.387 . S
C995 H998 0.950 . S
C996 C995 1.387 . S
C996 C999 1.387 . S
H997 C993 0.950 . S
H998 C995 0.950 . S
C999 C990 1.390 . S
C999 H992 0.950 . S
C999 C996 1.387 . S
C1000 C1001 1.387 . S
C1000 H1004 0.950 . S
C1000 C1009 1.390 . S
C1001 C1000 1.387 . S
C1001 C1003 1.387 . S
H1002 C1009 0.950 . S
C1003 C1001 1.387 . S
C1003 C1005 1.390 . S
C1003 H1007 0.950 . S
H1004 C1000 0.950 . S
C1005 C1003 1.390 . S
C1005 C1006 1.387 . S
C1005 H1008 0.950 . S
C1006 C1005 1.387 . S
C1006 C1009 1.387 . S
H1007 C1003 0.950 . S
H1008 C1005 0.950 . S
C1009 C1000 1.390 . S
C1009 H1002 0.950 . S
C1009 C1006 1.387 . S
C1010 C1011 1.387 . S
C1010 H1014 0.950 . S
C1010 C1019 1.390 . S
C1011 C1010 1.387 . S
C1011 C1013 1.387 . S
H1012 C1019 0.950 . S
C1013 C1011 1.387 . S
C1013 C1015 1.390 . S
C1013 H1017 0.950 . S
H1014 C1010 0.950 . S
C1015 C1013 1.390 . S
C1015 C1016 1.387 . S
C1015 H1018 0.950 . S
C1016 C1015 1.387 . S
C1016 C1019 1.387 . S
H1017 C1013 0.950 . S
H1018 C1015 0.950 . S
C1019 C1010 1.390 . S
C1019 H1012 0.950 . S
C1019 C1016 1.387 . S
C1020 C1021 1.387 . S
C1020 H1024 0.950 . S
C1020 C1029 1.390 . S
C1021 C1020 1.387 . S
C1021 C1023 1.387 . S
H1022 C1029 0.950 . S
C1023 C1021 1.387 . S
C1023 C1025 1.390 . S
C1023 H1027 0.950 . S
H1024 C1020 0.950 . S
C1025 C1023 1.390 . S
C1025 C1026 1.387 . S
C1025 H1028 0.950 . S
C1026 C1025 1.387 . S
C1026 C1029 1.387 . S
H1027 C1023 0.950 . S
H1028 C1025 0.950 . S
C1029 C1020 1.390 . S
C1029 H1022 0.950 . S
C1029 C1026 1.387 . S
C1030 C1031 1.387 . S
C1030 H1034 0.950 . S
C1030 C1039 1.390 . S
C1031 C1030 1.387 . S
C1031 C1033 1.387 . S
H1032 C1039 0.950 . S
C1033 C1031 1.387 . S
C1033 C1035 1.390 . S
C1033 H1037 0.950 . S
H1034 C1030 0.950 . S
C1035 C1033 1.390 . S
C1035 C1036 1.387 . S
C1035 H1038 0.950 . S
C1036 C1035 1.387 . S
C1036 C1039 1.387 . S
H1037 C1033 0.950 . S
H1038 C1035 0.950 . S
C1039 C1030 1.390 . S
C1039 H1032 0.950 . S
C1039 C1036 1.387 . S
C1040 C1041 1.387 . S
C1040 H1044 0.950 . S
C1040 C1049 1.390 . S
C1041 C1040 1.387 . S
C1041 C1043 1.387 . S
H1042 C1049 0.950 . S
C1043 C1041 1.387 . S
C1043 C1045 1.390 . S
C1043 H1047 0.950 . S
H1044 C1040 0.950 . S
C1045 C1043 1.390 . S
C1045 C1046 1.387 . S
C1045 H1048 0.950 . S
C1046 C1045 1.387 . S
C1046 C1049 1.387 . S
H1047 C1043 0.950 . S
H1048 C1045 0.950 . S
C1049 C1040 1.390 . S
C1049 H1042 0.950 . S
C1049 C1046 1.387 . S
C1050 C1051 1.387 . S
C1050 H1054 0.950 . S
C1050 C1059 1.390 . S
C1051 C1050 1.387 . S
C1051 C1053 1.387 . S
H1052 C1059 0.950 . S
C1053 C1051 1.387 . S
C1053 C1055 1.390 . S
C1053 H1057 0.950 . S
H1054 C1050 0.950 . S
C1055 C1053 1.390 . S
C1055 C1056 1.387 . S
C1055 H1058 0.950 . S
C1056 C1055 1.387 . S
C1056 C1059 1.387 . S
H1057 C1053 0.950 . S
H1058 C1055 0.950 . S
C1059 C1050 1.390 . S
C1059 H1052 0.950 . S
C1059 C1056 1.387 . S
C1060 C1061 1.387 . S
C1060 H1064 0.950 . S
C1060 C1069 1.390 . S
C1061 C1060 1.387 . S
C1061 C1063 1.387 . S
H1062 C1069 0.950 . S
C1063 C1061 1.387 . S
C1063 C1065 1.390 . S
C1063 H1067 0.950 . S
H1064 C1060 0.950 . S
C1065 C1063 1.390 . S
C1065 C1066 1.387 . S
C1065 H1068 0.950 . S
C1066 C1065 1.387 . S
C1066 C1069 1.387 . S
H1067 C1063 0.950 . S
H1068 C1065 0.950 . S
C1069 C1060 1.390 . S
C1069 H1062 0.950 . S
C1069 C1066 1.387 . S
C1070 C1071 1.387 . S
C1070 H1074 0.950 . S
C1070 C1079 1.390 . S
C1071 C1070 1.387 . S
C1071 C1073 1.387 . S
H1072 C1079 0.950 . S
C1073 C1071 1.387 . S
C1073 C1075 1.390 . S
C1073 H1077 0.950 . S
H1074 C1070 0.950 . S
C1075 C1073 1.390 . S
C1075 C1076 1.387 . S
C1075 H1078 0.950 . S
C1076 C1075 1.387 . S
C1076 C1079 1.387 . S
H1077 C1073 0.950 . S
H1078 C1075 0.950 . S
C1079 C1070 1.390 . S
C1079 H1072 0.950 . S
C1079 C1076 1.387 . S
C1080 C1081 1.387 . S
C1080 H1084 0.950 . S
C1080 C1089 1.390 . S
C1081 C1080 1.387 . S
C1081 C1083 1.387 . S
H1082 C1089 0.950 . S
C1083 C1081 1.387 . S
C1083 C1085 1.390 . S
C1083 H1087 0.950 . S
H1084 C1080 0.950 . S
C1085 C1083 1.390 . S
C1085 C1086 1.387 . S
C1085 H1088 0.950 . S
C1086 C1085 1.387 . S
C1086 C1089 1.387 . S
H1087 C1083 0.950 . S
H1088 C1085 0.950 . S
C1089 C1080 1.390 . S
C1089 H1082 0.950 . S
C1089 C1086 1.387 . S
C1090 C1091 1.387 . S
C1090 H1094 0.950 . S
C1090 C1099 1.390 . S
C1091 C1090 1.387 . S
C1091 C1093 1.387 . S
H1092 C1099 0.950 . S
C1093 C1091 1.387 . S
C1093 C1095 1.390 . S
C1093 H1097 0.950 . S
H1094 C1090 0.950 . S
C1095 C1093 1.390 . S
C1095 C1096 1.387 . S
C1095 H1098 0.950 . S
C1096 C1095 1.387 . S
C1096 C1099 1.387 . S
H1097 C1093 0.950 . S
H1098 C1095 0.950 . S
C1099 C1090 1.390 . S
C1099 H1092 0.950 . S
C1099 C1096 1.387 . S
C1100 C1101 1.387 . S
C1100 H1104 0.950 . S
C1100 C1109 1.390 . S
C1101 C1100 1.387 . S
C1101 C1103 1.387 . S
H1102 C1109 0.950 . S
C1103 C1101 1.387 . S
C1103 C1105 1.390 . S
C1103 H1107 0.950 . S
H1104 C1100 0.950 . S
C1105 C1103 1.390 . S
C1105 C1106 1.387 . S
C1105 H1108 0.950 . S
C1106 C1105 1.387 . S
C1106 C1109 1.387 . S
H1107 C1103 0.950 . S
H1108 C1105 0.950 . S
C1109 C1100 1.390 . S
C1109 H1102 0.950 . S
C1109 C1106 1.387 . S
C1110 C1111 1.387 . S
C1110 H1114 0.950 . S
C1110 C1119 1.390 . S
C1111 C1110 1.387 . S
C1111 C1113 1.387 . S
H1112 C1119 0.950 . S
C1113 C1111 1.387 . S
C1113 C1115 1.390 . S
C1113 H1117 0.950 . S
H1114 C1110 0.950 . S
C1115 C1113 1.390 . S
C1115 C1116 1.387 . S
C1115 H1118 0.950 . S
C1116 C1115 1.387 . S
C1116 C1119 1.387 . S
H1117 C1113 0.950 . S
H1118 C1115 0.950 . S
C1119 C1110 1.390 . S
C1119 H1112 0.950 . S
C1119 C1116 1.387 . S
C641 C459 1.777 . S
C646 C18 1.734 1_565 S
C651 C330 1.778 . S
C656 C49 1.736 1_655 S
C661 C98 1.733 1_545 S
C666 C379 1.777 . S
C671 C129 1.736 1_455 S
C676 C410 1.779 . S
C681 C178 1.736 . S
C686 C219 1.779 1_554 S
C691 C250 1.778 1_556 S
C696 C209 1.734 . S
C701 C258 1.736 . S
C706 C299 1.779 1_554 S
C711 C170 1.779 1_556 S
C716 C289 1.736 . S
C721 C139 1.778 . S
C726 C338 1.735 . S
C731 C369 1.734 . S
C736 C10 1.778 . S
C741 C59 1.777 . S
C746 C418 1.733 . S
C751 C90 1.779 . S
C756 C449 1.735 . S
C761 C498 1.733 1_545 S
C766 C539 1.778 . S
C771 C570 1.778 . S
C776 C529 1.736 1_455 S
C781 C619 1.778 . S
C786 C578 1.735 1_565 S
C791 C609 1.734 1_655 S
C796 C490 1.778 . S
C801 C9 1.238 . S
C806 C169 1.238 . S
C811 C218 1.243 . S
C816 C58 1.243 . S
C821 C89 1.238 . S
C826 C249 1.238 . S
C831 C138 1.238 . S
C836 C298 1.238 . S
C841 C329 1.243 . S
C846 C489 1.243 . S
C851 C538 1.243 . S
C856 C378 1.243 . S
C861 C409 1.238 . S
C866 C569 1.238 . S
C871 C458 1.238 . S
C876 C618 1.238 . S
C881 C579 2.518 . S
C886 C19 2.518 1_556 S
C891 C50 2.520 1_554 S
C896 C610 2.520 . S
C901 C99 2.518 1_556 S
C906 C499 2.518 . S
C911 C130 2.518 1_554 S
C916 C530 2.518 . S
C921 C179 2.518 . S
C926 C419 2.518 . S
C931 C210 2.520 . S
C936 C450 2.520 . S
C941 C259 2.518 . S
C946 C339 2.518 . S
C951 C370 2.520 . S
C956 C290 2.520 . S
C961 C6 1.208 . S
C966 C15 1.208 . S
C971 C55 1.208 . S
C976 C46 1.208 . S
C981 C86 1.211 . S
C986 C95 1.211 . S
C991 C126 1.208 . S
C996 C135 1.208 . S
C1001 C175 1.208 . S
C1006 C166 1.208 . S
C1011 C215 1.211 . S
C1016 C206 1.211 . S
C1021 C246 1.211 . S
C1026 C255 1.211 . S
C1031 C286 1.209 . S
C1036 C295 1.209 . S
C1041 C326 1.208 . S
C1046 C335 1.208 . S
C1051 C366 1.210 . S
C1056 C375 1.210 . S
C1061 C415 1.209 . S
C1066 C406 1.209 . S
C1071 C455 1.209 . S
C1076 C446 1.209 . S
C1081 C486 1.210 . S
C1086 C495 1.210 . S
C1091 C526 1.208 . S
C1096 C535 1.208 . S
C1101 C575 1.211 . S
C1106 C566 1.211 . S
C1111 C615 1.208 . S
C1116 C606 1.208 . S
