# Generated by pormake.
# Topology lcy, (6)-cn, num edge types: 1
# Building blocks:
#     Node 0, Type 0, BuildingBlock: IZENUY_clean_sbu_0, # of connection points: 6
#     Node 1, Type 0, BuildingBlock: IZENUY_clean_sbu_0, # of connection points: 6
#     Node 2, Type 0, BuildingBlock: IZENUY_clean_sbu_0, # of connection points: 6
#     Node 3, Type 0, BuildingBlock: IZENUY_clean_sbu_0, # of connection points: 6
#     Edge 4, Type (0, 0), BuildingBlock: KIFKEQ_clean_linker_1, # of connection points: 2
#     Edge 5, Type (0, 0), BuildingBlock: KIFKEQ_clean_linker_1, # of connection points: 2
#     Edge 6, Type (0, 0), BuildingBlock: KIFKEQ_clean_linker_1, # of connection points: 2
#     Edge 7, Type (0, 0), BuildingBlock: KIFKEQ_clean_linker_1, # of connection points: 2
#     Edge 8, Type (0, 0), BuildingBlock: KIFKEQ_clean_linker_1, # of connection points: 2
#     Edge 9, Type (0, 0), BuildingBlock: KIFKEQ_clean_linker_1, # of connection points: 2
#     Edge 10, Type (0, 0), BuildingBlock: KIFKEQ_clean_linker_1, # of connection points: 2
#     Edge 11, Type (0, 0), BuildingBlock: KIFKEQ_clean_linker_1, # of connection points: 2
#     Edge 12, Type (0, 0), BuildingBlock: KIFKEQ_clean_linker_1, # of connection points: 2
#     Edge 13, Type (0, 0), BuildingBlock: KIFKEQ_clean_linker_1, # of connection points: 2
#     Edge 14, Type (0, 0), BuildingBlock: KIFKEQ_clean_linker_1, # of connection points: 2
#     Edge 15, Type (0, 0), BuildingBlock: KIFKEQ_clean_linker_1, # of connection points: 2
# Relax obj value: 0.232
# Max RMSD: 0.227
# Mean RMSD: 0.227
data_MOF--net-lcy--node1-IZENUY_clean_sbu_0--edge1-KIFKEQ_clean_linker_1
_symmetry_space_group_name_H-M    P1
_symmetry_Int_Tables_number       1
_symmetry_cell_setting            triclinic
loop_
_symmetry_equiv_pos_as_xyz
'x, y, z'
_cell_length_a     26.037112
_cell_length_b     25.938106
_cell_length_c     25.96123
_cell_angle_alpha  90.085515
_cell_angle_beta   89.996146
_cell_angle_gamma 89.943444
loop_
_atom_site_label
_atom_site_type_symbol
_atom_site_fract_x
_atom_site_fract_y
_atom_site_fract_z
_atom_type_partial_charge
Fe0 Fe 0.42432 0.38081 0.33289 0.0
Fe1 Fe 0.37736 0.33195 0.42834 0.0
O2 O 0.37563 0.37894 0.37977 0.0
Fe3 Fe 0.32532 0.42415 0.37814 0.0
O4 O 0.30534 0.40153 0.31586 0.0
O5 O 0.38187 0.40677 0.28108 0.0
O6 O 0.40769 0.31732 0.31048 0.0
C7 C 0.41157 0.27796 0.33848 0.0
C8 C 0.41372 0.4827 0.3491 0.0
O9 O 0.40909 0.28212 0.38734 0.0
C10 C 0.34179 0.42224 0.48058 0.0
O11 O 0.47545 0.35513 0.37634 0.0
O12 O 0.43754 0.35617 0.45162 0.0
O13 O 0.36518 0.47657 0.3497 0.0
O14 O 0.44311 0.4444 0.35322 0.0
C15 C 0.27605 0.33063 0.40982 0.0
O16 O 0.34585 0.37337 0.47793 0.0
O17 O 0.3431 0.44902 0.44029 0.0
C18 C 0.47794 0.35347 0.42535 0.0
O19 O 0.31731 0.30567 0.40727 0.0
O20 O 0.27657 0.37966 0.40642 0.0
C21 C 0.3331 0.4069 0.2766 0.0
Fe22 Fe 0.82517 0.08254 0.62853 0.0
Fe23 Fe 0.87632 0.17613 0.58017 0.0
O24 O 0.87555 0.1276 0.62724 0.0
Fe25 Fe 0.92518 0.12372 0.67289 0.0
O26 O 0.94285 0.06068 0.65009 0.0
O27 O 0.86501 0.02921 0.65547 0.0
O28 O 0.84236 0.05921 0.56572 0.0
C29 C 0.84073 0.08699 0.52611 0.0
C30 C 0.83459 0.09767 0.73017 0.0
O31 O 0.84426 0.13587 0.5299 0.0
C32 C 0.91427 0.22668 0.67093 0.0
O33 O 0.77613 0.12764 0.60165 0.0
O34 O 0.8165 0.20161 0.60317 0.0
O35 O 0.8833 0.09702 0.72479 0.0
O36 O 0.80614 0.10393 0.69151 0.0
C37 C 0.97707 0.15386 0.58038 0.0
O38 O 0.90876 0.22468 0.62216 0.0
O39 O 0.90996 0.1865 0.69758 0.0
C40 C 0.77535 0.1767 0.59951 0.0
O41 O 0.93613 0.15296 0.55485 0.0
O42 O 0.97564 0.15005 0.62927 0.0
C43 C 0.91347 0.02257 0.65473 0.0
Fe44 Fe 0.07624 0.63058 0.83216 0.0
Fe45 Fe 0.17679 0.58609 0.87194 0.0
O46 O 0.1266 0.63117 0.87723 0.0
Fe47 Fe 0.12666 0.67699 0.92711 0.0
O48 O 0.06696 0.65283 0.95176 0.0
O49 O 0.02689 0.65596 0.87776 0.0
O50 O 0.05788 0.567 0.85193 0.0
C51 C 0.08654 0.52867 0.84443 0.0
C52 C 0.09098 0.733 0.83938 0.0
O53 O 0.13526 0.53431 0.84391 0.0
C54 C 0.22754 0.67858 0.90474 0.0
O55 O 0.11621 0.60517 0.77819 0.0
O56 O 0.19411 0.61056 0.80946 0.0
O57 O 0.09422 0.72806 0.88814 0.0
O58 O 0.09293 0.69404 0.81058 0.0
C59 C 0.16547 0.58516 0.97497 0.0
O60 O 0.22687 0.62972 0.89942 0.0
O61 O 0.18622 0.70353 0.90497 0.0
C62 C 0.1646 0.60645 0.77137 0.0
O63 O 0.16208 0.55961 0.93395 0.0
O64 O 0.15938 0.63395 0.97451 0.0
C65 C 0.02582 0.65649 0.92681 0.0
Fe66 Fe 0.57492 0.88058 0.17462 0.0
Fe67 Fe 0.67751 0.92128 0.13631 0.0
O68 O 0.62608 0.87783 0.13038 0.0
Fe69 Fe 0.62572 0.83167 0.08081 0.0
O70 O 0.56684 0.85711 0.05533 0.0
O71 O 0.52563 0.85592 0.12868 0.0
O72 O 0.55877 0.94477 0.15381 0.0
C73 C 0.5889 0.9821 0.16066 0.0
C74 C 0.58744 0.77752 0.16868 0.0
O75 O 0.6372 0.97435 0.16344 0.0
C76 C 0.7264 0.82762 0.10393 0.0
O77 O 0.61475 0.90535 0.22893 0.0
O78 O 0.69286 0.89628 0.19907 0.0
O79 O 0.59187 0.78176 0.11993 0.0
O80 O 0.58926 0.81676 0.19717 0.0
C81 C 0.66734 0.92224 0.03308 0.0
O82 O 0.72673 0.87637 0.10963 0.0
O83 O 0.68455 0.80363 0.10349 0.0
C84 C 0.66294 0.90223 0.23661 0.0
O85 O 0.66466 0.94803 0.07403 0.0
O86 O 0.65976 0.87367 0.03354 0.0
C87 C 0.52532 0.85422 0.07968 0.0
H88 H 0.1673 0.61655 0.07662 0.0
H89 H 0.21627 0.49356 0.97516 0.0
H90 H 0.20878 0.57196 0.14918 0.0
H91 H 0.25809 0.45053 0.04675 0.0
H92 H 0.3768 0.42884 0.18243 0.0
H93 H 0.336 0.47329 0.10967 0.0
H94 H 0.1931 0.47966 0.19346 0.0
H95 H 0.23261 0.43443 0.2651 0.0
C96 C 0.18669 0.58021 0.0698 0.0
C97 C 0.188 0.55855 0.0202 0.0
C98 C 0.21044 0.5548 0.11114 0.0
C99 C 0.23688 0.50805 0.10322 0.0
C100 C 0.23843 0.48671 0.05374 0.0
C101 C 0.21393 0.51133 0.01288 0.0
C102 C 0.33652 0.439 0.18498 0.0
C103 C 0.30813 0.42783 0.22963 0.0
C104 C 0.31331 0.46469 0.14356 0.0
C105 C 0.26167 0.48051 0.14652 0.0
C106 C 0.23315 0.46862 0.19061 0.0
C107 C 0.25588 0.44216 0.2314 0.0
H108 H 0.62122 0.9695 0.30671 0.0
H109 H 0.75848 0.88215 0.2729 0.0
H110 H 0.66729 0.01583 0.37468 0.0
H111 H 0.80461 0.92894 0.33954 0.0
H112 H 0.85532 0.98778 0.49758 0.0
H113 H 0.81015 0.94031 0.43088 0.0
H114 H 0.73639 0.08099 0.38111 0.0
H115 H 0.7811 0.12862 0.44935 0.0
C116 C 0.66079 0.95929 0.31466 0.0
C117 C 0.68616 0.92191 0.28473 0.0
C118 C 0.68747 0.98652 0.35286 0.0
C119 C 0.73985 0.97661 0.36205 0.0
C120 C 0.7643 0.93745 0.33371 0.0
C121 C 0.7378 0.91048 0.29558 0.0
C122 C 0.83018 0.00882 0.4718 0.0
C123 C 0.82187 0.06195 0.47859 0.0
C124 C 0.80421 0.98156 0.43356 0.0
C125 C 0.76919 0.00669 0.40099 0.0
C126 C 0.76247 0.06036 0.40622 0.0
C127 C 0.78875 0.08782 0.44461 0.0
H128 H 0.26041 0.62626 0.73549 0.0
H129 H 0.12264 0.54062 0.70028 0.0
H130 H 0.30618 0.58042 0.66762 0.0
H131 H 0.16846 0.49495 0.63157 0.0
H132 H 0.28331 0.38126 0.55835 0.0
H133 H 0.2387 0.42916 0.62649 0.0
H134 H 0.30999 0.57009 0.57447 0.0
H135 H 0.35477 0.5224 0.50731 0.0
C136 C 0.23957 0.5985 0.71231 0.0
C137 C 0.18786 0.5873 0.72301 0.0
C138 C 0.26585 0.57208 0.67353 0.0
C139 C 0.24116 0.53354 0.64465 0.0
C140 C 0.18876 0.52384 0.65379 0.0
C141 C 0.16226 0.55066 0.69245 0.0
C142 C 0.29038 0.42222 0.56243 0.0
C143 C 0.32272 0.44805 0.52769 0.0
C144 C 0.26419 0.4498 0.60081 0.0
C145 C 0.2703 0.50356 0.60543 0.0
C146 C 0.30451 0.52876 0.57211 0.0
C147 C 0.33026 0.50139 0.53367 0.0
H148 H 0.66635 0.89154 0.93129 0.0
H149 H 0.72224 0.01122 0.03296 0.0
H150 H 0.70815 0.93512 0.85835 0.0
H151 H 0.76428 0.05327 0.96097 0.0
H152 H 0.87997 0.07284 0.82278 0.0
H153 H 0.83964 0.02865 0.8959 0.0
H154 H 0.69455 0.02834 0.81574 0.0
H155 H 0.73364 0.0733 0.74378 0.0
C156 C 0.68737 0.92692 0.93807 0.0
C157 C 0.69047 0.94805 0.9878 0.0
C158 C 0.71128 0.95175 0.89652 0.0
C159 C 0.73964 0.9973 0.90438 0.0
C160 C 0.7431 0.01799 0.95403 0.0
C161 C 0.71848 0.99398 0.99512 0.0
C162 C 0.83934 0.06404 0.82112 0.0
C163 C 0.81019 0.07682 0.77739 0.0
C164 C 0.8164 0.03851 0.86272 0.0
C165 C 0.76423 0.02447 0.86084 0.0
C166 C 0.73499 0.03796 0.81769 0.0
C167 C 0.7575 0.06425 0.77673 0.0
H168 H 0.98443 0.18472 0.48035 0.0
H169 H 0.07433 0.16892 0.61967 0.0
H170 H 0.05553 0.22863 0.43886 0.0
H171 H 0.14653 0.21193 0.57661 0.0
H172 H 0.27362 0.23323 0.4486 0.0
H173 H 0.2028 0.18958 0.49069 0.0
H174 H 0.10426 0.31976 0.46029 0.0
H175 H 0.17615 0.36511 0.41889 0.0
C176 C 0.01957 0.18988 0.50208 0.0
C177 C 0.02353 0.17328 0.55366 0.0
C178 C 0.06006 0.21553 0.47821 0.0
C179 C 0.10593 0.2242 0.50482 0.0
C180 C 0.11115 0.20582 0.55551 0.0
C181 C 0.07007 0.18097 0.57997 0.0
C182 C 0.23691 0.25283 0.45037 0.0
C183 C 0.23059 0.3029 0.43013 0.0
C184 C 0.19654 0.22777 0.475 0.0
C185 C 0.14852 0.25154 0.47907 0.0
C186 C 0.14127 0.30082 0.45762 0.0
C187 C 0.1822 0.32661 0.43382 0.0
H188 H 0.10884 0.76466 0.74204 0.0
H189 H 0.02843 0.80758 0.88111 0.0
H190 H 0.0638 0.83147 0.69478 0.0
H191 H 0.98384 0.87613 0.83377 0.0
H192 H 0.871 0.95083 0.71963 0.0
H193 H 0.91701 0.88309 0.76648 0.0
H194 H 0.05639 0.92248 0.68522 0.0
H195 H 0.01037 0.9886 0.6378 0.0
C196 C 0.08239 0.78939 0.76281 0.0
C197 C 0.0723 0.78104 0.81531 0.0
C198 C 0.05647 0.8277 0.73566 0.0
C199 C 0.01976 0.85885 0.7603 0.0
C200 C 0.01127 0.85214 0.81348 0.0
C201 C 0.03748 0.81362 0.84084 0.0
C202 C 0.91107 0.94384 0.71076 0.0
C203 C 0.937 0.97474 0.67475 0.0
C204 C 0.93768 0.9058 0.73831 0.0
C205 C 0.99057 0.89782 0.73011 0.0
C206 C 0.01568 0.92728 0.69238 0.0
C207 C 0.98924 0.96515 0.66505 0.0
H208 H 0.23393 0.77891 0.93517 0.0
H209 H 0.32591 0.64081 0.91856 0.0
H210 H 0.30494 0.82192 0.97769 0.0
H211 H 0.39814 0.68552 0.96016 0.0
H212 H 0.52325 0.81675 0.98153 0.0
H213 H 0.45308 0.77323 0.93774 0.0
H214 H 0.35448 0.80111 0.06831 0.0
H215 H 0.42559 0.84376 0.11369 0.0
C216 C 0.2695 0.75774 0.93987 0.0
C217 C 0.274 0.70602 0.92349 0.0
C218 C 0.31 0.78253 0.96466 0.0
C219 C 0.35651 0.7568 0.97273 0.0
C220 C 0.3623 0.70599 0.95448 0.0
C221 C 0.32117 0.68056 0.93048 0.0
C222 C 0.48661 0.81418 1.00111 0.0
C223 C 0.48007 0.83403 0.05133 0.0
C224 C 0.44665 0.78871 0.976 0.0
C225 C 0.39881 0.78344 0.99989 0.0
C226 C 0.39132 0.80466 0.04925 0.0
C227 C 0.43181 0.82925 0.07505 0.0
H228 H 0.47004 0.2011 0.38168 0.0
H229 H 0.40066 0.24941 0.23852 0.0
H230 H 0.5148 0.13154 0.33603 0.0
H231 H 0.44576 0.181 0.19308 0.0
H232 H 0.49365 0.01919 0.14003 0.0
H233 H 0.44843 0.08822 0.18452 0.0
H234 H 0.58543 0.12252 0.2719 0.0
H235 H 0.63068 0.05244 0.22768 0.0
C236 C 0.46355 0.19625 0.34074 0.0
C237 C 0.43163 0.23058 0.31374 0.0
C238 C 0.48984 0.157 0.31445 0.0
C239 C 0.4843 0.15109 0.26079 0.0
C240 C 0.45075 0.18424 0.23437 0.0
C241 C 0.42484 0.22347 0.26047 0.0
C242 C 0.51446 0.04208 0.16805 0.0
C243 C 0.56582 0.03053 0.18011 0.0
C244 C 0.48849 0.08162 0.19364 0.0
C245 C 0.51312 0.11058 0.23216 0.0
C246 C 0.56514 0.10036 0.24297 0.0
C247 C 0.59134 0.06085 0.21701 0.0
H248 H 0.77408 0.27314 0.5583 0.0
H249 H 0.67526 0.14311 0.59058 0.0
H250 H 0.70383 0.31653 0.51468 0.0
H251 H 0.60398 0.18826 0.54775 0.0
H252 H 0.48666 0.3267 0.52642 0.0
H253 H 0.55742 0.28257 0.56836 0.0
H254 H 0.64609 0.29092 0.42837 0.0
H255 H 0.57406 0.33401 0.38481 0.0
C256 C 0.73718 0.25395 0.55681 0.0
C257 C 0.73028 0.20449 0.57829 0.0
C258 C 0.69718 0.27881 0.53128 0.0
C259 C 0.64895 0.25548 0.52754 0.0
C260 C 0.64116 0.20681 0.55011 0.0
C261 C 0.68173 0.18118 0.57477 0.0
C262 C 0.5212 0.31963 0.50424 0.0
C263 C 0.52451 0.33392 0.45192 0.0
C264 C 0.56149 0.29388 0.5284 0.0
C265 C 0.6066 0.28281 0.50134 0.0
C266 C 0.61128 0.29888 0.44981 0.0
C267 C 0.57031 0.32379 0.42507 0.0
H268 H 0.98707 0.5183 0.81377 0.0
H269 H 0.13032 0.43407 0.82279 0.0
H270 H 0.94762 0.44656 0.76882 0.0
H271 H 0.08934 0.36094 0.77856 0.0
H272 H 0.9639 0.22876 0.76308 0.0
H273 H 0.00843 0.30041 0.80341 0.0
H274 H 0.96457 0.39938 0.67747 0.0
H275 H 0.92047 0.32671 0.63557 0.0
C276 C 0.01018 0.48427 0.80677 0.0
C277 C 0.0621 0.48199 0.82221 0.0
C278 C 0.98748 0.44341 0.78044 0.0
C279 C 0.01561 0.39871 0.76975 0.0
C280 C 0.06701 0.39536 0.78624 0.0
C281 C 0.0903 0.43695 0.81176 0.0
C282 C 0.96336 0.26573 0.74373 0.0
C283 C 0.93811 0.27209 0.69609 0.0
C284 C 0.98948 0.30655 0.76676 0.0
C285 C 0.99023 0.35506 0.74334 0.0
C286 C 0.96455 0.36205 0.69613 0.0
C287 C 0.9392 0.32068 0.67233 0.0
H288 H 0.02116 0.68748 0.0271 0.0
H289 H 0.92715 0.67024 0.89076 0.0
H290 H 0.95015 0.72894 0.07157 0.0
H291 H 0.85517 0.71086 0.93669 0.0
H292 H 0.73022 0.72968 0.06589 0.0
H293 H 0.80145 0.68706 0.02295 0.0
H294 H 0.89841 0.81814 0.05408 0.0
H295 H 0.82623 0.86235 0.09626 0.0
C296 C 0.98514 0.69178 0.00668 0.0
C297 C 0.97994 0.67538 0.95509 0.0
C298 C 0.94467 0.71602 0.03224 0.0
C299 C 0.89759 0.72348 0.00737 0.0
C300 C 0.89136 0.70554 0.95657 0.0
C301 C 0.93238 0.68215 0.93041 0.0
C302 C 0.76671 0.74963 0.06418 0.0
C303 C 0.77238 0.79974 0.08462 0.0
C304 C 0.80733 0.72515 0.0391 0.0
C305 C 0.85501 0.74956 0.03477 0.0
C306 C 0.86174 0.79866 0.0569 0.0
C307 C 0.8206 0.82381 0.08119 0.0
H308 H 0.52681 0.70206 0.12599 0.0
H309 H 0.60305 0.74666 0.26685 0.0
H310 H 0.48313 0.63224 0.17223 0.0
H311 H 0.5592 0.67808 0.31289 0.0
H312 H 0.51074 0.51682 0.36535 0.0
H313 H 0.55544 0.58506 0.31949 0.0
H314 H 0.41507 0.62436 0.23993 0.0
H315 H 0.37028 0.55502 0.28552 0.0
C316 C 0.53509 0.69621 0.16646 0.0
C317 C 0.56852 0.72958 0.19278 0.0
C318 C 0.50946 0.65689 0.19313 0.0
C319 C 0.51727 0.65001 0.24638 0.0
C320 C 0.55246 0.68209 0.27192 0.0
C321 C 0.57765 0.72138 0.2455 0.0
C322 C 0.48913 0.54065 0.33879 0.0
C323 C 0.43692 0.53076 0.32931 0.0
C324 C 0.5148 0.57969 0.31239 0.0
C325 C 0.48897 0.60979 0.27563 0.0
C326 C 0.43621 0.60124 0.26743 0.0
C327 C 0.41033 0.56221 0.29422 0.0
loop_
_geom_bond_atom_site_label_1
_geom_bond_atom_site_label_2
_geom_bond_distance
_geom_bond_site_symmetry_2
_ccdc_geom_bond_type
Fe0 O2 1.918 . S
Fe0 O5 1.997 . S
Fe0 O6 2.002 . S
Fe0 O11 1.976 . S
Fe0 O14 1.996 . S
Fe1 O2 1.918 . S
Fe1 O9 1.997 . S
Fe1 O12 1.996 . S
Fe1 O16 1.976 . S
Fe1 O19 2.002 . S
O2 Fe0 1.918 . S
O2 Fe1 1.918 . S
O2 Fe3 1.918 . S
Fe3 O2 1.918 . S
Fe3 O4 2.002 . S
Fe3 O13 1.976 . S
Fe3 O17 1.996 . S
Fe3 O20 1.997 . S
O4 Fe3 2.002 . S
O4 C21 1.295 . S
O5 Fe0 1.997 . S
O5 C21 1.235 . S
O6 Fe0 2.002 . S
O6 C7 1.295 . S
C7 O6 1.295 . S
C7 O9 1.235 . S
C8 O13 1.287 . S
C8 O14 1.255 . S
O9 Fe1 1.997 . S
O9 C7 1.235 . S
C10 O16 1.287 . S
C10 O17 1.255 . S
O11 Fe0 1.976 . S
O11 C18 1.287 . S
O12 Fe1 1.996 . S
O12 C18 1.255 . S
O13 Fe3 1.976 . S
O13 C8 1.287 . S
O14 Fe0 1.996 . S
O14 C8 1.255 . S
C15 O19 1.295 . S
C15 O20 1.235 . S
O16 Fe1 1.976 . S
O16 C10 1.287 . S
O17 Fe3 1.996 . S
O17 C10 1.255 . S
C18 O11 1.287 . S
C18 O12 1.255 . S
O19 Fe1 2.002 . S
O19 C15 1.295 . S
O20 Fe3 1.997 . S
O20 C15 1.235 . S
C21 O4 1.295 . S
C21 O5 1.235 . S
Fe22 O24 1.918 . S
Fe22 O27 1.997 . S
Fe22 O28 2.002 . S
Fe22 O33 1.976 . S
Fe22 O36 1.996 . S
Fe23 O24 1.918 . S
Fe23 O31 1.997 . S
Fe23 O34 1.996 . S
Fe23 O38 1.976 . S
Fe23 O41 2.002 . S
O24 Fe22 1.918 . S
O24 Fe23 1.918 . S
O24 Fe25 1.918 . S
Fe25 O24 1.918 . S
Fe25 O26 2.002 . S
Fe25 O35 1.976 . S
Fe25 O39 1.996 . S
Fe25 O42 1.997 . S
O26 Fe25 2.002 . S
O26 C43 1.295 . S
O27 Fe22 1.997 . S
O27 C43 1.235 . S
O28 Fe22 2.002 . S
O28 C29 1.295 . S
C29 O28 1.295 . S
C29 O31 1.235 . S
C30 O35 1.287 . S
C30 O36 1.255 . S
O31 Fe23 1.997 . S
O31 C29 1.235 . S
C32 O38 1.287 . S
C32 O39 1.255 . S
O33 Fe22 1.976 . S
O33 C40 1.287 . S
O34 Fe23 1.996 . S
O34 C40 1.255 . S
O35 Fe25 1.976 . S
O35 C30 1.287 . S
O36 Fe22 1.996 . S
O36 C30 1.255 . S
C37 O41 1.295 . S
C37 O42 1.235 . S
O38 Fe23 1.976 . S
O38 C32 1.287 . S
O39 Fe25 1.996 . S
O39 C32 1.255 . S
C40 O33 1.287 . S
C40 O34 1.255 . S
O41 Fe23 2.002 . S
O41 C37 1.295 . S
O42 Fe25 1.997 . S
O42 C37 1.235 . S
C43 O26 1.295 . S
C43 O27 1.235 . S
Fe44 O46 1.918 . S
Fe44 O49 1.997 . S
Fe44 O50 2.002 . S
Fe44 O55 1.976 . S
Fe44 O58 1.996 . S
Fe45 O46 1.918 . S
Fe45 O53 1.997 . S
Fe45 O56 1.996 . S
Fe45 O60 1.976 . S
Fe45 O63 2.002 . S
O46 Fe44 1.918 . S
O46 Fe45 1.918 . S
O46 Fe47 1.918 . S
Fe47 O46 1.918 . S
Fe47 O48 2.002 . S
Fe47 O57 1.976 . S
Fe47 O61 1.996 . S
Fe47 O64 1.997 . S
O48 Fe47 2.002 . S
O48 C65 1.295 . S
O49 Fe44 1.997 . S
O49 C65 1.235 . S
O50 Fe44 2.002 . S
O50 C51 1.295 . S
C51 O50 1.295 . S
C51 O53 1.235 . S
C52 O57 1.287 . S
C52 O58 1.255 . S
O53 Fe45 1.997 . S
O53 C51 1.235 . S
C54 O60 1.287 . S
C54 O61 1.255 . S
O55 Fe44 1.976 . S
O55 C62 1.287 . S
O56 Fe45 1.996 . S
O56 C62 1.255 . S
O57 Fe47 1.976 . S
O57 C52 1.287 . S
O58 Fe44 1.996 . S
O58 C52 1.255 . S
C59 O63 1.295 . S
C59 O64 1.235 . S
O60 Fe45 1.976 . S
O60 C54 1.287 . S
O61 Fe47 1.996 . S
O61 C54 1.255 . S
C62 O55 1.287 . S
C62 O56 1.255 . S
O63 Fe45 2.002 . S
O63 C59 1.295 . S
O64 Fe47 1.997 . S
O64 C59 1.235 . S
C65 O48 1.295 . S
C65 O49 1.235 . S
Fe66 O68 1.918 . S
Fe66 O71 1.997 . S
Fe66 O72 2.002 . S
Fe66 O77 1.976 . S
Fe66 O80 1.996 . S
Fe67 O68 1.918 . S
Fe67 O75 1.997 . S
Fe67 O78 1.996 . S
Fe67 O82 1.976 . S
Fe67 O85 2.002 . S
O68 Fe66 1.918 . S
O68 Fe67 1.918 . S
O68 Fe69 1.918 . S
Fe69 O68 1.918 . S
Fe69 O70 2.002 . S
Fe69 O79 1.976 . S
Fe69 O83 1.996 . S
Fe69 O86 1.997 . S
O70 Fe69 2.002 . S
O70 C87 1.295 . S
O71 Fe66 1.997 . S
O71 C87 1.235 . S
O72 Fe66 2.002 . S
O72 C73 1.295 . S
C73 O72 1.295 . S
C73 O75 1.235 . S
C74 O79 1.287 . S
C74 O80 1.255 . S
O75 Fe67 1.997 . S
O75 C73 1.235 . S
C76 O82 1.287 . S
C76 O83 1.255 . S
O77 Fe66 1.976 . S
O77 C84 1.287 . S
O78 Fe67 1.996 . S
O78 C84 1.255 . S
O79 Fe69 1.976 . S
O79 C74 1.287 . S
O80 Fe66 1.996 . S
O80 C74 1.255 . S
C81 O85 1.295 . S
C81 O86 1.235 . S
O82 Fe67 1.976 . S
O82 C76 1.287 . S
O83 Fe69 1.996 . S
O83 C76 1.255 . S
C84 O77 1.287 . S
C84 O78 1.255 . S
O85 Fe67 2.002 . S
O85 C81 1.295 . S
O86 Fe69 1.997 . S
O86 C81 1.235 . S
C87 O70 1.295 . S
C87 O71 1.235 . S
H88 C96 0.950 . S
H89 C101 0.950 1_556 S
H90 C98 0.950 . S
H91 C100 0.950 . S
H92 C102 0.950 . S
H93 C104 0.950 . S
H94 C106 0.950 . S
H95 C107 0.950 . S
C96 H88 0.950 . S
C96 C97 1.386 . S
C96 C98 1.391 . S
C97 C96 1.386 . S
C97 C101 1.393 . S
C98 H90 0.950 . S
C98 C96 1.391 . S
C98 C99 1.400 . S
C99 C98 1.400 . S
C99 C100 1.398 . S
C99 C105 1.491 . S
C100 H91 0.950 . S
C100 C99 1.398 . S
C100 C101 1.391 . S
C101 H89 0.950 1_554 S
C101 C97 1.393 . S
C101 C100 1.391 . S
C102 H92 0.950 . S
C102 C103 1.386 . S
C102 C104 1.391 . S
C103 C102 1.386 . S
C103 C107 1.393 . S
C104 H93 0.950 . S
C104 C102 1.391 . S
C104 C105 1.400 . S
C105 C99 1.491 . S
C105 C104 1.400 . S
C105 C106 1.398 . S
C106 H94 0.950 . S
C106 C105 1.398 . S
C106 C107 1.391 . S
C107 H95 0.950 . S
C107 C103 1.393 . S
C107 C106 1.391 . S
H108 C116 0.950 . S
H109 C121 0.950 . S
H110 C118 0.950 1_545 S
H111 C120 0.950 . S
H112 C122 0.950 1_565 S
H113 C124 0.950 . S
H114 C126 0.950 . S
H115 C127 0.950 . S
C116 H108 0.950 . S
C116 C117 1.386 . S
C116 C118 1.391 . S
C117 C116 1.386 . S
C117 C121 1.393 . S
C118 H110 0.950 1_565 S
C118 C116 1.391 . S
C118 C119 1.400 . S
C119 C118 1.400 . S
C119 C120 1.398 . S
C119 C125 1.491 1_565 S
C120 H111 0.950 . S
C120 C119 1.398 . S
C120 C121 1.391 . S
C121 H109 0.950 . S
C121 C117 1.393 . S
C121 C120 1.391 . S
C122 H112 0.950 1_545 S
C122 C123 1.386 . S
C122 C124 1.391 1_545 S
C123 C122 1.386 . S
C123 C127 1.393 . S
C124 H113 0.950 . S
C124 C122 1.391 1_565 S
C124 C125 1.400 1_565 S
C125 C119 1.491 1_545 S
C125 C124 1.400 1_545 S
C125 C126 1.398 . S
C126 H114 0.950 . S
C126 C125 1.398 . S
C126 C127 1.391 . S
C127 H115 0.950 . S
C127 C123 1.393 . S
C127 C126 1.391 . S
H128 C136 0.950 . S
H129 C141 0.950 . S
H130 C138 0.950 . S
H131 C140 0.950 . S
H132 C142 0.950 . S
H133 C144 0.950 . S
H134 C146 0.950 . S
H135 C147 0.950 . S
C136 H128 0.950 . S
C136 C137 1.386 . S
C136 C138 1.391 . S
C137 C136 1.386 . S
C137 C141 1.393 . S
C138 H130 0.950 . S
C138 C136 1.391 . S
C138 C139 1.400 . S
C139 C138 1.400 . S
C139 C140 1.398 . S
C139 C145 1.491 . S
C140 H131 0.950 . S
C140 C139 1.398 . S
C140 C141 1.391 . S
C141 H129 0.950 . S
C141 C137 1.393 . S
C141 C140 1.391 . S
C142 H132 0.950 . S
C142 C143 1.386 . S
C142 C144 1.391 . S
C143 C142 1.386 . S
C143 C147 1.393 . S
C144 H133 0.950 . S
C144 C142 1.391 . S
C144 C145 1.400 . S
C145 C139 1.491 . S
C145 C144 1.400 . S
C145 C146 1.398 . S
C146 H134 0.950 . S
C146 C145 1.398 . S
C146 C147 1.391 . S
C147 H135 0.950 . S
C147 C143 1.393 . S
C147 C146 1.391 . S
H148 C156 0.950 . S
H149 C161 0.950 1_554 S
H150 C158 0.955 . S
H151 C160 0.950 . S
H152 C162 0.950 . S
H153 C164 0.950 . S
H154 C166 0.950 . S
H155 C167 0.950 . S
C156 H148 0.950 . S
C156 C157 1.386 . S
C156 C158 1.391 . S
C157 C156 1.386 . S
C157 C161 1.393 . S
C158 H150 0.955 . S
C158 C156 1.391 . S
C158 C159 1.400 . S
C159 C158 1.400 . S
C159 C160 1.398 . S
C159 C165 1.491 1_565 S
C160 H151 0.950 . S
C160 C159 1.398 . S
C160 C161 1.391 . S
C161 H149 0.950 1_556 S
C161 C157 1.393 . S
C161 C160 1.391 . S
C162 H152 0.950 . S
C162 C163 1.386 . S
C162 C164 1.391 . S
C163 C162 1.386 . S
C163 C167 1.393 . S
C164 H153 0.950 . S
C164 C162 1.391 . S
C164 C165 1.400 . S
C165 C159 1.491 1_545 S
C165 C164 1.400 . S
C165 C166 1.398 . S
C166 H154 0.950 . S
C166 C165 1.398 . S
C166 C167 1.391 . S
C167 H155 0.950 . S
C167 C163 1.393 . S
C167 C166 1.391 . S
H168 C176 0.954 . S
H169 C181 0.950 . S
H170 C178 0.950 . S
H171 C180 0.950 . S
H172 C182 0.950 . S
H173 C184 0.950 . S
H174 C186 0.950 . S
H175 C187 0.950 . S
C176 H168 0.954 . S
C176 C177 1.386 . S
C176 C178 1.391 . S
C177 C176 1.386 . S
C177 C181 1.393 . S
C178 H170 0.950 . S
C178 C176 1.391 . S
C178 C179 1.400 . S
C179 C178 1.400 . S
C179 C180 1.398 . S
C179 C185 1.491 . S
C180 H171 0.950 . S
C180 C179 1.398 . S
C180 C181 1.391 . S
C181 H169 0.950 . S
C181 C177 1.393 . S
C181 C180 1.391 . S
C182 H172 0.950 . S
C182 C183 1.386 . S
C182 C184 1.391 . S
C183 C182 1.386 . S
C183 C187 1.393 . S
C184 H173 0.950 . S
C184 C182 1.391 . S
C184 C185 1.400 . S
C185 C179 1.491 . S
C185 C184 1.400 . S
C185 C186 1.398 . S
C186 H174 0.950 . S
C186 C185 1.398 . S
C186 C187 1.391 . S
C187 H175 0.950 . S
C187 C183 1.393 . S
C187 C186 1.391 . S
H188 C196 0.950 . S
H189 C201 0.950 . S
H190 C198 0.950 . S
H191 C200 0.950 1_655 S
H192 C202 0.950 . S
H193 C204 0.950 . S
H194 C206 0.950 . S
H195 C207 0.950 . S
C196 H188 0.950 . S
C196 C197 1.386 . S
C196 C198 1.391 . S
C197 C196 1.386 . S
C197 C201 1.393 . S
C198 H190 0.950 . S
C198 C196 1.391 . S
C198 C199 1.400 . S
C199 C198 1.400 . S
C199 C200 1.398 . S
C199 C205 1.491 1_455 S
C200 H191 0.950 1_455 S
C200 C199 1.398 . S
C200 C201 1.391 . S
C201 H189 0.950 . S
C201 C197 1.393 . S
C201 C200 1.391 . S
C202 H192 0.950 . S
C202 C203 1.386 . S
C202 C204 1.391 . S
C203 C202 1.386 . S
C203 C207 1.393 . S
C204 H193 0.950 . S
C204 C202 1.391 . S
C204 C205 1.400 . S
C205 C199 1.491 1_655 S
C205 C204 1.400 . S
C205 C206 1.398 1_655 S
C206 H194 0.950 . S
C206 C205 1.398 1_455 S
C206 C207 1.391 1_455 S
C207 H195 0.950 . S
C207 C203 1.393 . S
C207 C206 1.391 1_655 S
H208 C216 0.950 . S
H209 C221 0.950 . S
H210 C218 0.950 . S
H211 C220 0.950 . S
H212 C222 0.950 . S
H213 C224 0.950 . S
H214 C226 0.950 1_556 S
H215 C227 0.950 . S
C216 H208 0.950 . S
C216 C217 1.386 . S
C216 C218 1.391 . S
C217 C216 1.386 . S
C217 C221 1.393 . S
C218 H210 0.950 . S
C218 C216 1.391 . S
C218 C219 1.400 . S
C219 C218 1.400 . S
C219 C220 1.398 . S
C219 C225 1.491 1_556 S
C220 H211 0.950 . S
C220 C219 1.398 . S
C220 C221 1.391 . S
C221 H209 0.950 . S
C221 C217 1.393 . S
C221 C220 1.391 . S
C222 H212 0.950 . S
C222 C223 1.386 . S
C222 C224 1.391 . S
C223 C222 1.386 . S
C223 C227 1.393 . S
C224 H213 0.950 . S
C224 C222 1.391 . S
C224 C225 1.400 . S
C225 C219 1.491 1_554 S
C225 C224 1.400 . S
C225 C226 1.398 . S
C226 H214 0.950 1_554 S
C226 C225 1.398 . S
C226 C227 1.391 . S
C227 H215 0.950 . S
C227 C223 1.393 . S
C227 C226 1.391 . S
H228 C236 0.950 . S
H229 C241 0.950 . S
H230 C238 0.950 . S
H231 C240 0.950 . S
H232 C242 0.950 . S
H233 C244 0.950 . S
H234 C246 0.950 . S
H235 C247 0.950 . S
C236 H228 0.950 . S
C236 C237 1.386 . S
C236 C238 1.391 . S
C237 C236 1.386 . S
C237 C241 1.393 . S
C238 H230 0.950 . S
C238 C236 1.391 . S
C238 C239 1.400 . S
C239 C238 1.400 . S
C239 C240 1.398 . S
C239 C245 1.491 . S
C240 H231 0.950 . S
C240 C239 1.398 . S
C240 C241 1.391 . S
C241 H229 0.950 . S
C241 C237 1.393 . S
C241 C240 1.391 . S
C242 H232 0.950 . S
C242 C243 1.386 . S
C242 C244 1.391 . S
C243 C242 1.386 . S
C243 C247 1.393 . S
C244 H233 0.950 . S
C244 C242 1.391 . S
C244 C245 1.400 . S
C245 C239 1.491 . S
C245 C244 1.400 . S
C245 C246 1.398 . S
C246 H234 0.950 . S
C246 C245 1.398 . S
C246 C247 1.391 . S
C247 H235 0.950 . S
C247 C243 1.393 . S
C247 C246 1.391 . S
H248 C256 0.950 . S
H249 C261 0.950 . S
H250 C258 0.950 . S
H251 C260 0.950 . S
H252 C262 0.950 . S
H253 C264 0.950 . S
H254 C266 0.950 . S
H255 C267 0.950 . S
C256 H248 0.950 . S
C256 C257 1.386 . S
C256 C258 1.391 . S
C257 C256 1.386 . S
C257 C261 1.393 . S
C258 H250 0.950 . S
C258 C256 1.391 . S
C258 C259 1.400 . S
C259 C258 1.400 . S
C259 C260 1.398 . S
C259 C265 1.491 . S
C260 H251 0.950 . S
C260 C259 1.398 . S
C260 C261 1.391 . S
C261 H249 0.950 . S
C261 C257 1.393 . S
C261 C260 1.391 . S
C262 H252 0.950 . S
C262 C263 1.386 . S
C262 C264 1.391 . S
C263 C262 1.386 . S
C263 C267 1.393 . S
C264 H253 0.950 . S
C264 C262 1.391 . S
C264 C265 1.400 . S
C265 C259 1.491 . S
C265 C264 1.400 . S
C265 C266 1.398 . S
C266 H254 0.950 . S
C266 C265 1.398 . S
C266 C267 1.391 . S
C267 H255 0.950 . S
C267 C263 1.393 . S
C267 C266 1.391 . S
H268 C276 0.950 . S
H269 C281 0.950 . S
H270 C278 0.950 . S
H271 C280 0.950 . S
H272 C282 0.950 . S
H273 C284 0.950 . S
H274 C286 0.950 . S
H275 C287 0.950 . S
C276 H268 0.950 . S
C276 C277 1.386 . S
C276 C278 1.391 . S
C277 C276 1.386 . S
C277 C281 1.393 . S
C278 H270 0.950 . S
C278 C276 1.391 . S
C278 C279 1.400 . S
C279 C278 1.400 . S
C279 C280 1.398 . S
C279 C285 1.491 1_455 S
C280 H271 0.950 . S
C280 C279 1.398 . S
C280 C281 1.391 . S
C281 H269 0.950 . S
C281 C277 1.393 . S
C281 C280 1.391 . S
C282 H272 0.950 . S
C282 C283 1.386 . S
C282 C284 1.391 . S
C283 C282 1.386 . S
C283 C287 1.393 . S
C284 H273 0.950 . S
C284 C282 1.391 . S
C284 C285 1.400 . S
C285 C279 1.491 1_655 S
C285 C284 1.400 . S
C285 C286 1.398 . S
C286 H274 0.950 . S
C286 C285 1.398 . S
C286 C287 1.391 . S
C287 H275 0.950 . S
C287 C283 1.393 . S
C287 C286 1.391 . S
H288 C296 0.950 1_455 S
H289 C301 0.950 . S
H290 C298 0.950 1_554 S
H291 C300 0.950 . S
H292 C302 0.950 . S
H293 C304 0.950 . S
H294 C306 0.950 . S
H295 C307 0.950 . S
C296 H288 0.950 1_655 S
C296 C297 1.386 . S
C296 C298 1.391 . S
C297 C296 1.386 . S
C297 C301 1.393 . S
C298 H290 0.950 1_556 S
C298 C296 1.391 . S
C298 C299 1.400 . S
C299 C298 1.400 . S
C299 C300 1.398 . S
C299 C305 1.491 1_556 S
C300 H291 0.950 . S
C300 C299 1.398 . S
C300 C301 1.391 . S
C301 H289 0.950 . S
C301 C297 1.393 . S
C301 C300 1.391 . S
C302 H292 0.950 . S
C302 C303 1.386 . S
C302 C304 1.391 . S
C303 C302 1.386 . S
C303 C307 1.393 . S
C304 H293 0.950 . S
C304 C302 1.391 . S
C304 C305 1.400 . S
C305 C299 1.491 1_554 S
C305 C304 1.400 . S
C305 C306 1.398 . S
C306 H294 0.950 . S
C306 C305 1.398 . S
C306 C307 1.391 . S
C307 H295 0.950 . S
C307 C303 1.393 . S
C307 C306 1.391 . S
H308 C316 0.950 . S
H309 C321 0.950 . S
H310 C318 0.950 . S
H311 C320 0.950 . S
H312 C322 0.950 . S
H313 C324 0.950 . S
H314 C326 0.950 . S
H315 C327 0.950 . S
C316 H308 0.950 . S
C316 C317 1.386 . S
C316 C318 1.391 . S
C317 C316 1.386 . S
C317 C321 1.393 . S
C318 H310 0.950 . S
C318 C316 1.391 . S
C318 C319 1.400 . S
C319 C318 1.400 . S
C319 C320 1.398 . S
C319 C325 1.491 . S
C320 H311 0.950 . S
C320 C319 1.398 . S
C320 C321 1.391 . S
C321 H309 0.950 . S
C321 C317 1.393 . S
C321 C320 1.391 . S
C322 H312 0.950 . S
C322 C323 1.386 . S
C322 C324 1.391 . S
C323 C322 1.386 . S
C323 C327 1.393 . S
C324 H313 0.950 . S
C324 C322 1.391 . S
C324 C325 1.400 . S
C325 C319 1.491 . S
C325 C324 1.400 . S
C325 C326 1.398 . S
C326 H314 0.950 . S
C326 C325 1.398 . S
C326 C327 1.391 . S
C327 H315 0.950 . S
C327 C323 1.393 . S
C327 C326 1.391 . S
C97 C59 1.391 1_554 S
C103 C21 1.375 . S
C117 C84 1.375 . S
C123 C29 1.357 . S
C137 C62 1.301 . S
C143 C10 1.309 . S
C157 C81 1.341 1_556 S
C163 C30 1.351 . S
C177 C37 1.380 1_455 S
C183 C15 1.388 . S
C197 C52 1.350 . S
C203 C43 1.336 1_565 S
C217 C54 1.352 . S
C223 C87 1.344 . S
C237 C7 1.400 . S
C243 C73 1.408 1_545 S
C257 C40 1.320 . S
C263 C18 1.328 . S
C277 C51 1.346 . S
C283 C32 1.375 . S
C297 C65 1.342 1_655 S
C303 C76 1.373 . S
C317 C74 1.327 . S
C323 C8 1.327 . S
