# Generated by pormake.
# Topology sxa, (6)-cn, num edge types: 1
# Building blocks:
#     Node 0, Type 0, BuildingBlock: LEVNOQ01_clean_sbu_1, # of connection points: 6
#     Node 1, Type 0, BuildingBlock: LEVNOQ01_clean_sbu_1, # of connection points: 6
#     Node 2, Type 0, BuildingBlock: LEVNOQ01_clean_sbu_1, # of connection points: 6
#     Node 3, Type 0, BuildingBlock: LEVNOQ01_clean_sbu_1, # of connection points: 6
#     Edge 4, Type (0, 0), BuildingBlock: EZIPEK_clean_linker_0, # of connection points: 2
#     Edge 5, Type (0, 0), BuildingBlock: EZIPEK_clean_linker_0, # of connection points: 2
#     Edge 6, Type (0, 0), BuildingBlock: EZIPEK_clean_linker_0, # of connection points: 2
#     Edge 7, Type (0, 0), BuildingBlock: EZIPEK_clean_linker_0, # of connection points: 2
#     Edge 8, Type (0, 0), BuildingBlock: EZIPEK_clean_linker_0, # of connection points: 2
#     Edge 9, Type (0, 0), BuildingBlock: EZIPEK_clean_linker_0, # of connection points: 2
#     Edge 10, Type (0, 0), BuildingBlock: EZIPEK_clean_linker_0, # of connection points: 2
#     Edge 11, Type (0, 0), BuildingBlock: EZIPEK_clean_linker_0, # of connection points: 2
#     Edge 12, Type (0, 0), BuildingBlock: EZIPEK_clean_linker_0, # of connection points: 2
#     Edge 13, Type (0, 0), BuildingBlock: EZIPEK_clean_linker_0, # of connection points: 2
#     Edge 14, Type (0, 0), BuildingBlock: EZIPEK_clean_linker_0, # of connection points: 2
#     Edge 15, Type (0, 0), BuildingBlock: EZIPEK_clean_linker_0, # of connection points: 2
# Relax obj value: 0.187
# Max RMSD: 0.232
# Mean RMSD: 0.232
data_MOF--net-sxa--node1-LEVNOQ01_clean_sbu_1--edge1-EZIPEK_clean_linker_0
_symmetry_space_group_name_H-M    P1
_symmetry_Int_Tables_number       1
_symmetry_cell_setting            triclinic
loop_
_symmetry_equiv_pos_as_xyz
'x, y, z'
_cell_length_a     19.549481
_cell_length_b     22.226413
_cell_length_c     11.86143
_cell_angle_alpha  89.970098
_cell_angle_beta   90.035892
_cell_angle_gamma 89.750568
loop_
_atom_site_label
_atom_site_type_symbol
_atom_site_fract_x
_atom_site_fract_y
_atom_site_fract_z
_atom_type_partial_charge
O0 O 0.05988 0.72862 0.95077 0.0
Mg1 Mg 0.0609 0.69278 0.11711 0.0
O2 O 0.06964 0.79471 0.0795 0.0
Mg3 Mg -0.01719 0.76438 0.20205 0.0
O4 O 0.97092 0.65636 0.16669 0.0
O5 O 0.06179 0.60419 0.09977 0.0
O6 O 0.89919 0.74744 0.34282 0.0
O7 O 0.8954 0.75625 0.06917 0.0
Mg8 Mg 0.89437 0.85249 0.17311 0.0
O9 O -0.00615 0.87355 0.20378 0.0
O10 O 0.82671 0.81908 0.2962 0.0
O11 O 0.87141 0.84292 0.99936 0.0
O12 O 0.90549 0.93979 0.1966 0.0
C13 C 0.12934 0.73987 0.32239 0.0
C14 C 0.08872 0.77574 0.98439 0.0
C15 C -0.00229 0.60712 0.12455 0.0
C16 C 0.84176 0.77404 0.35614 0.0
C17 C 0.85926 0.78777 0.00272 0.0
C18 C 0.97009 0.92848 0.19031 0.0
O19 O 0.14212 0.71649 0.22753 0.0
O20 O 0.06863 0.75854 0.34264 0.0
O21 O 0.55446 0.20229 0.96749 0.0
Mg22 Mg 0.5478 0.17398 0.14104 0.0
O23 O 0.56303 0.27198 0.08931 0.0
Mg24 Mg 0.47129 0.24359 0.20449 0.0
O25 O 0.46183 0.13219 0.1882 0.0
O26 O 0.5579 0.08554 0.12767 0.0
O27 O 0.3764 0.23861 0.33427 0.0
O28 O 0.39866 0.22564 0.06147 0.0
Mg29 Mg 0.36578 0.35166 0.14728 0.0
O30 O 0.46668 0.34583 0.17094 0.0
O31 O 0.31072 0.31397 0.27733 0.0
O32 O 0.34762 0.30652 0.99559 0.0
O33 O 0.41454 0.43384 0.15413 0.0
C34 C 0.61007 0.23117 0.34622 0.0
C35 C 0.58328 0.24964 0.99759 0.0
C36 C 0.49302 0.08512 0.14485 0.0
C37 C 0.32145 0.27032 0.34348 0.0
C38 C 0.35893 0.25016 0.99115 0.0
C39 C 0.47019 0.40268 0.14599 0.0
O40 O 0.62335 0.20147 0.25813 0.0
O41 O 0.54942 0.252 0.3587 0.0
O42 O 0.08494 0.31195 0.02453 0.0
Mg43 Mg 0.05827 0.3332 0.85531 0.0
O44 O 0.06719 0.23277 0.92564 0.0
Mg45 Mg 0.97084 0.25413 0.8222 0.0
O46 O 0.96222 0.36316 0.83429 0.0
O47 O 0.05559 0.42234 0.85205 0.0
O48 O 0.87246 0.2655 0.7028 0.0
O49 O 0.9059 0.26548 0.97243 0.0
Mg50 Mg 0.87789 0.14821 0.78868 0.0
O51 O 0.97033 0.15338 0.85721 0.0
O52 O 0.88203 0.17842 0.62293 0.0
O53 O 0.82448 0.20768 0.89856 0.0
O54 O 0.91926 0.0658 0.83915 0.0
C55 C 0.09762 0.25988 0.65216 0.0
C56 C 0.10217 0.25934 0.99958 0.0
C57 C -0.00976 0.41527 0.85619 0.0
C58 C 0.85699 0.23094 0.62072 0.0
C59 C 0.84456 0.24819 0.96734 0.0
C60 C 0.97012 0.09642 0.87711 0.0
O61 O 0.11761 0.29944 0.72044 0.0
O62 O 0.03757 0.23869 0.66106 0.0
O63 O 0.36857 0.64971 0.00976 0.0
Mg64 Mg 0.39623 0.64 0.83856 0.0
O65 O 0.39563 0.73719 0.94695 0.0
Mg66 Mg 0.4836 0.72985 0.81485 0.0
O67 O 0.49692 0.62074 0.8189 0.0
O68 O 0.41087 0.55277 0.81849 0.0
O69 O 0.56839 0.73517 0.6737 0.0
O70 O 0.57065 0.69745 0.93538 0.0
Mg71 Mg 0.56053 0.79873 0.89989 0.0
O72 O 0.47276 0.83884 0.84759 0.0
O73 O 0.64237 0.77625 0.78847 0.0
O74 O 0.55746 0.76183 0.06572 0.0
O75 O 0.56374 0.88625 0.92534 0.0
C76 C 0.34484 0.71912 0.65431 0.0
C77 C 0.35743 0.70513 0.00879 0.0
C78 C 0.47473 0.5654 0.83111 0.0
C79 C 0.62907 0.75356 0.69317 0.0
C80 C 0.5892 0.71624 0.0307 0.0
C81 C 0.50066 0.88634 0.89409 0.0
O82 O 0.33173 0.67191 0.70906 0.0
O83 O 0.39991 0.74789 0.67398 0.0
C84 C 0.94977 0.45394 0.04274 0.0
C85 C 0.95293 0.46125 0.92314 0.0
C86 C 0.94804 0.57018 0.94583 0.0
C87 C 0.95464 0.56274 0.06448 0.0
N88 N 0.93704 0.50161 0.22687 0.0
N89 N 0.93422 0.52338 0.7615 0.0
C90 C 0.94591 0.50571 0.11308 0.0
C91 C 0.94382 0.51866 0.87516 0.0
N92 N 0.9573 0.3981 0.08912 0.0
N93 N 0.95258 0.62651 0.90095 0.0
H94 H 0.93183 0.48534 0.70994 0.0
H95 H 0.92317 0.5636 0.72025 0.0
H96 H 0.95138 0.66478 0.95161 0.0
H97 H 0.95833 0.63534 0.81533 0.0
H98 H 0.96372 0.39026 0.17499 0.0
H99 H 0.95984 0.35931 0.04051 0.0
H100 H 0.92527 0.46176 0.26861 0.0
H101 H 0.9353 0.54005 0.27752 0.0
C102 C 0.50374 0.41332 0.9443 0.0
C103 C 0.5185 0.42615 0.05952 0.0
C104 C 0.53169 0.53143 0.01308 0.0
C105 C 0.51405 0.51997 0.89794 0.0
N106 N 0.50723 0.44713 0.7493 0.0
N107 N 0.57892 0.49009 0.18606 0.0
C108 C 0.51026 0.45952 0.86181 0.0
C109 C 0.54704 0.48225 0.08515 0.0
N110 N 0.47655 0.35924 0.91528 0.0
N111 N 0.52231 0.58678 0.05995 0.0
H112 H 0.58612 0.454 0.24145 0.0
H113 H 0.60308 0.53025 0.2077 0.0
H114 H 0.49817 0.62178 0.01783 0.0
H115 H 0.52991 0.59526 0.1455 0.0
H116 H 0.45559 0.35025 0.83629 0.0
H117 H 0.47387 0.32387 0.97211 0.0
H118 H 0.50827 0.40349 0.71719 0.0
H119 H 0.5103 0.48117 0.68876 0.0
C120 C 0.44019 0.93135 0.05691 0.0
C121 C 0.4588 0.93599 0.94104 0.0
C122 C 0.45936 0.04524 0.95712 0.0
C123 C 0.45574 0.0396 0.07666 0.0
N124 N 0.42043 0.98261 0.23642 0.0
N125 N 0.47723 0.9957 0.77631 0.0
C126 C 0.43788 0.98418 0.12512 0.0
C127 C 0.4633 0.99277 0.88903 0.0
N128 N 0.43215 0.87565 0.10324 0.0
N129 N 0.46038 0.1012 0.91015 0.0
H130 H 0.47787 0.95718 0.72586 0.0
H131 H 0.48947 0.03505 0.73346 0.0
H132 H 0.45496 0.13949 0.95953 0.0
H133 H 0.45959 0.10974 0.82394 0.0
H134 H 0.42715 0.8676 0.18918 0.0
H135 H 0.43191 0.8368 0.05404 0.0
H136 H 0.40276 0.94447 0.27787 0.0
H137 H 0.41892 0.02175 0.28513 0.0
C138 C 0.00561 0.03456 0.16278 0.0
C139 C 0.00937 0.97416 0.12531 0.0
C140 C 0.04089 0.01195 0.93815 0.0
C141 C 0.01333 0.06828 0.96599 0.0
N142 N 0.9766 0.13709 0.11134 0.0
N143 N 0.01867 0.90736 0.96323 0.0
C144 C 0.00017 0.08156 0.08127 0.0
C145 C 0.02681 0.96283 0.01009 0.0
N146 N 0.0026 0.0461 0.27559 0.0
N147 N 0.07188 0.00428 0.83629 0.0
H148 H -0.00314 0.87171 0.00604 0.0
H149 H 0.02533 0.89898 0.87744 0.0
H150 H 0.0789 0.0405 0.78129 0.0
H151 H 0.0959 0.96411 0.81333 0.0
H152 H 0.00376 0.08939 0.30918 0.0
H153 H 0.00536 0.0115 0.3351 0.0
H154 H 0.95703 0.14694 0.19092 0.0
H155 H 0.97564 0.17306 0.05526 0.0
C156 C 0.25219 0.78357 0.56377 0.0
C157 C 0.29851 0.73419 0.55891 0.0
C158 C 0.22804 0.68695 0.4147 0.0
C159 C 0.18479 0.73859 0.40971 0.0
N160 N 0.16488 0.84178 0.46614 0.0
N161 N 0.34126 0.64893 0.45579 0.0
C162 C 0.19935 0.78877 0.4805 0.0
C163 C 0.29007 0.68959 0.47562 0.0
N164 N 0.25696 0.82408 0.64986 0.0
N165 N 0.2078 0.63356 0.36847 0.0
H166 H 0.38794 0.65027 0.49856 0.0
H167 H 0.33999 0.61858 0.38883 0.0
H168 H 0.15932 0.62699 0.334 0.0
H169 H 0.23549 0.59371 0.37823 0.0
H170 H 0.21985 0.85679 0.66564 0.0
H171 H 0.29593 0.82217 0.70995 0.0
H172 H 0.17761 0.88111 0.50885 0.0
H173 H 0.12772 0.84804 0.40418 0.0
C174 C 0.15343 0.29844 0.48587 0.0
C175 C 0.14249 0.24824 0.55453 0.0
C176 C 0.24979 0.20408 0.48197 0.0
C177 C 0.26594 0.26042 0.43002 0.0
N178 N 0.24168 0.36786 0.43946 0.0
N179 N 0.18552 0.15549 0.63249 0.0
C180 C 0.22008 0.30967 0.4481 0.0
C181 C 0.19206 0.20125 0.55661 0.0
N182 N 0.10166 0.33834 0.4655 0.0
N183 N 0.28741 0.15355 0.46046 0.0
H184 H 0.14279 0.15166 0.68475 0.0
H185 H 0.22412 0.12398 0.6475 0.0
H186 H 0.32944 0.15256 0.40702 0.0
H187 H 0.27329 0.11117 0.48976 0.0
H188 H 0.10744 0.37481 0.41092 0.0
H189 H 0.05191 0.33086 0.49432 0.0
H190 H 0.20994 0.4044 0.45812 0.0
H191 H 0.2932 0.379 0.43048 0.0
C192 C 0.74855 0.29051 0.5526 0.0
C193 C 0.79687 0.24197 0.54208 0.0
C194 C 0.71158 0.18507 0.43758 0.0
C195 C 0.66649 0.23503 0.43239 0.0
N196 N 0.64764 0.34015 0.4744 0.0
N197 N 0.83027 0.15844 0.42285 0.0
C198 C 0.68606 0.28922 0.48783 0.0
C199 C 0.78026 0.19422 0.46788 0.0
N200 N 0.7619 0.33832 0.62112 0.0
N201 N 0.68921 0.12856 0.41222 0.0
H202 H 0.8819 0.17016 0.42651 0.0
H203 H 0.81998 0.12235 0.36945 0.0
H204 H 0.6378 0.11931 0.39619 0.0
H205 H 0.72037 0.09059 0.42073 0.0
H206 H 0.72429 0.36895 0.64592 0.0
H207 H 0.81026 0.34797 0.65256 0.0
H208 H 0.66326 0.38236 0.50224 0.0
H209 H 0.60219 0.34112 0.42867 0.0
C210 C 0.74886 0.71106 0.44674 0.0
C211 C 0.79517 0.76007 0.45134 0.0
C212 C 0.72589 0.80708 0.59809 0.0
C213 C 0.68349 0.75527 0.60427 0.0
N214 N 0.66303 0.65263 0.5457 0.0
N215 N 0.83757 0.84611 0.55193 0.0
C216 C 0.69717 0.70557 0.53159 0.0
C217 C 0.787 0.80488 0.53452 0.0
N218 N 0.75275 0.67104 0.35965 0.0
N219 N 0.70551 0.86021 0.64577 0.0
H220 H 0.8835 0.84539 0.50705 0.0
H221 H 0.83676 0.87654 0.61878 0.0
H222 H 0.6576 0.86635 0.6827 0.0
H223 H 0.73223 0.9003 0.63509 0.0
H224 H 0.71546 0.63872 0.34407 0.0
H225 H 0.79105 0.67306 0.29851 0.0
H226 H 0.6752 0.61358 0.50138 0.0
H227 H 0.62683 0.64601 0.60886 0.0
C228 C 0.24138 0.70282 0.92405 0.0
C229 C 0.28527 0.72539 0.01011 0.0
C230 C 0.20589 0.8099 0.03701 0.0
C231 C 0.1621 0.78381 0.95521 0.0
N232 N 0.15833 0.72977 0.78151 0.0
N233 N 0.30666 0.79765 0.15616 0.0
C234 C 0.18878 0.73997 0.883 0.0
C235 C 0.26744 0.77918 0.0676 0.0
N236 N 0.24484 0.64445 0.88848 0.0
N237 N 0.18791 0.86375 0.08356 0.0
H238 H 0.34939 0.77313 0.1829 0.0
H239 H 0.29466 0.83408 0.2076 0.0
H240 H 0.14427 0.88676 0.05648 0.0
H241 H 0.21793 0.88745 0.14057 0.0
H242 H 0.27483 0.61157 0.92672 0.0
H243 H 0.21009 0.62652 0.83096 0.0
H244 H 0.17764 0.699 0.72312 0.0
H245 H 0.11792 0.75687 0.75347 0.0
C246 C 0.20111 0.1905 0.03538 0.0
C247 C 0.17511 0.24541 0.99135 0.0
C248 C 0.26922 0.24637 0.85872 0.0
C249 C 0.3072 0.21233 0.93459 0.0
N250 N 0.30263 0.12863 0.06227 0.0
N251 N 0.20239 0.33554 0.88296 0.0
C252 C 0.26994 0.17469 0.00921 0.0
C253 C 0.21285 0.27611 0.90629 0.0
N254 N 0.16132 0.15528 0.10282 0.0
N255 N 0.29758 0.26387 0.75953 0.0
H256 H 0.23295 0.35898 0.8259 0.0
H257 H 0.16985 0.36291 0.92976 0.0
H258 H 0.34446 0.24606 0.73303 0.0
H259 H 0.27174 0.29202 0.70318 0.0
H260 H 0.17541 0.11234 0.12942 0.0
H261 H 0.11284 0.16892 0.1294 0.0
H262 H 0.28151 0.10305 0.12688 0.0
H263 H 0.35245 0.11748 0.04068 0.0
C264 C 0.6967 0.21256 0.04388 0.0
C265 C 0.65707 0.25446 0.98148 0.0
C266 C 0.75556 0.32139 0.97576 0.0
C267 C 0.79241 0.27693 0.03553 0.0
N268 N 0.78984 0.20099 0.17566 0.0
N269 N 0.64774 0.35015 0.88825 0.0
C270 C 0.75726 0.23269 0.09372 0.0
C271 C 0.68581 0.31036 0.94927 0.0
N272 N 0.6805 0.15297 0.04625 0.0
N273 N 0.79004 0.36977 0.93467 0.0
H274 H 0.60094 0.3375 0.85374 0.0
H275 H 0.66308 0.3938 0.86946 0.0
H276 H 0.84149 0.37599 0.95442 0.0
H277 H 0.76877 0.40229 0.88196 0.0
H278 H 0.64345 0.13473 0.99347 0.0
H279 H 0.71072 0.12081 0.08681 0.0
H280 H 0.76618 0.16564 0.21766 0.0
H281 H 0.83839 0.21362 0.20381 0.0
C282 C 0.77073 0.71231 0.94701 0.0
C283 C 0.78698 0.76844 0.99735 0.0
C284 C 0.68956 0.75809 0.123 0.0
C285 C 0.66375 0.71161 0.05611 0.0
N286 N 0.68833 0.63062 0.92823 0.0
N287 N 0.74418 0.85354 0.10653 0.0
C288 C 0.70789 0.6836 0.97623 0.0
C289 C 0.74154 0.79408 0.07796 0.0
N290 N 0.8142 0.68848 0.86876 0.0
N291 N 0.65976 0.77106 0.22395 0.0
H292 H 0.70879 0.87328 0.16106 0.0
H293 H 0.77394 0.88498 0.06437 0.0
H294 H 0.62062 0.74422 0.25628 0.0
H295 H 0.67881 0.80386 0.27834 0.0
H296 H 0.80825 0.64652 0.83138 0.0
H297 H 0.85651 0.71236 0.83951 0.0
H298 H 0.71455 0.60882 0.86379 0.0
H299 H 0.64526 0.60771 0.95688 0.0
loop_
_geom_bond_atom_site_label_1
_geom_bond_atom_site_label_2
_geom_bond_distance
_geom_bond_site_symmetry_2
_ccdc_geom_bond_type
O0 Mg1 1.990 . S
O0 C14 1.253 . S
Mg1 O0 1.990 . S
Mg1 O4 2.180 . S
Mg1 O5 2.117 . S
Mg1 O19 2.030 . S
O2 Mg3 2.072 . S
O2 C14 1.260 . S
Mg3 O2 2.072 . S
Mg3 O4 2.099 . S
Mg3 O6 2.079 1_455 S
Mg3 O7 2.072 1_455 S
Mg3 O9 2.099 1_455 S
Mg3 O20 2.079 . S
O4 Mg1 2.180 . S
O4 Mg3 2.099 . S
O4 C15 1.279 . S
O5 Mg1 2.117 . S
O5 C15 1.250 . S
O6 Mg3 2.079 1_655 S
O6 C16 1.264 . S
O7 Mg3 2.072 1_655 S
O7 C17 1.260 . S
Mg8 O9 2.180 . S
Mg8 O10 2.030 . S
Mg8 O11 1.990 . S
Mg8 O12 2.117 . S
O9 Mg3 2.099 1_655 S
O9 Mg8 2.180 . S
O9 C18 1.279 . S
O10 Mg8 2.030 . S
O10 C16 1.248 . S
O11 Mg8 1.990 . S
O11 C17 1.253 . S
O12 Mg8 2.117 . S
O12 C18 1.250 . S
C13 O19 1.248 . S
C13 O20 1.264 . S
C14 O0 1.253 . S
C14 O2 1.260 . S
C15 O4 1.279 . S
C15 O5 1.250 . S
C16 O6 1.264 . S
C16 O10 1.248 . S
C17 O7 1.260 . S
C17 O11 1.253 . S
C18 O9 1.279 . S
C18 O12 1.250 . S
O19 Mg1 2.030 . S
O19 C13 1.248 . S
O20 Mg3 2.079 . S
O20 C13 1.264 . S
O21 Mg22 1.990 . S
O21 C35 1.253 . S
Mg22 O21 1.990 . S
Mg22 O25 2.180 . S
Mg22 O26 2.117 . S
Mg22 O40 2.030 . S
O23 Mg24 2.072 . S
O23 C35 1.260 . S
Mg24 O23 2.072 . S
Mg24 O25 2.099 . S
Mg24 O27 2.079 . S
Mg24 O28 2.072 . S
Mg24 O30 2.099 . S
Mg24 O41 2.079 . S
O25 Mg22 2.180 . S
O25 Mg24 2.099 . S
O25 C36 1.279 . S
O26 Mg22 2.117 . S
O26 C36 1.250 . S
O27 Mg24 2.079 . S
O27 C37 1.264 . S
O28 Mg24 2.072 . S
O28 C38 1.260 . S
Mg29 O30 2.180 . S
Mg29 O31 2.030 . S
Mg29 O32 1.990 . S
Mg29 O33 2.117 . S
O30 Mg24 2.099 . S
O30 Mg29 2.180 . S
O30 C39 1.279 . S
O31 Mg29 2.030 . S
O31 C37 1.248 . S
O32 Mg29 1.990 . S
O32 C38 1.253 . S
O33 Mg29 2.117 . S
O33 C39 1.250 . S
C34 O40 1.248 . S
C34 O41 1.264 . S
C35 O21 1.253 . S
C35 O23 1.260 . S
C36 O25 1.279 . S
C36 O26 1.250 . S
C37 O27 1.264 . S
C37 O31 1.248 . S
C38 O28 1.260 . S
C38 O32 1.253 . S
C39 O30 1.279 . S
C39 O33 1.250 . S
O40 Mg22 2.030 . S
O40 C34 1.248 . S
O41 Mg24 2.079 . S
O41 C34 1.264 . S
O42 Mg43 1.990 . S
O42 C56 1.253 . S
Mg43 O42 1.990 . S
Mg43 O46 2.180 . S
Mg43 O47 2.117 . S
Mg43 O61 2.030 . S
O44 Mg45 2.072 . S
O44 C56 1.260 . S
Mg45 O44 2.072 . S
Mg45 O46 2.099 . S
Mg45 O48 2.079 1_455 S
Mg45 O49 2.072 1_455 S
Mg45 O51 2.099 1_455 S
Mg45 O62 2.079 . S
O46 Mg43 2.180 . S
O46 Mg45 2.099 . S
O46 C57 1.279 . S
O47 Mg43 2.117 . S
O47 C57 1.250 . S
O48 Mg45 2.079 1_655 S
O48 C58 1.264 . S
O49 Mg45 2.072 1_655 S
O49 C59 1.260 . S
Mg50 O51 2.180 . S
Mg50 O52 2.030 . S
Mg50 O53 1.990 . S
Mg50 O54 2.117 . S
O51 Mg45 2.099 1_655 S
O51 Mg50 2.180 . S
O51 C60 1.279 . S
O52 Mg50 2.030 . S
O52 C58 1.248 . S
O53 Mg50 1.990 . S
O53 C59 1.253 . S
O54 Mg50 2.117 . S
O54 C60 1.250 . S
C55 O61 1.248 . S
C55 O62 1.264 . S
C56 O42 1.253 . S
C56 O44 1.260 . S
C57 O46 1.279 . S
C57 O47 1.250 . S
C58 O48 1.264 . S
C58 O52 1.248 . S
C59 O49 1.260 . S
C59 O53 1.253 . S
C60 O51 1.279 . S
C60 O54 1.250 . S
O61 Mg43 2.030 . S
O61 C55 1.248 . S
O62 Mg45 2.079 . S
O62 C55 1.264 . S
O63 Mg64 1.990 . S
O63 C77 1.253 . S
Mg64 O63 1.990 . S
Mg64 O67 2.180 . S
Mg64 O68 2.117 . S
Mg64 O82 2.030 . S
O65 Mg66 2.072 . S
O65 C77 1.260 . S
Mg66 O65 2.072 . S
Mg66 O67 2.099 . S
Mg66 O69 2.079 . S
Mg66 O70 2.072 . S
Mg66 O72 2.099 . S
Mg66 O83 2.079 . S
O67 Mg64 2.180 . S
O67 Mg66 2.099 . S
O67 C78 1.279 . S
O68 Mg64 2.117 . S
O68 C78 1.250 . S
O69 Mg66 2.079 . S
O69 C79 1.264 . S
O70 Mg66 2.072 . S
O70 C80 1.260 . S
Mg71 O72 2.180 . S
Mg71 O73 2.030 . S
Mg71 O74 1.990 . S
Mg71 O75 2.117 . S
O72 Mg66 2.099 . S
O72 Mg71 2.180 . S
O72 C81 1.279 . S
O73 Mg71 2.030 . S
O73 C79 1.248 . S
O74 Mg71 1.990 . S
O74 C80 1.253 . S
O75 Mg71 2.117 . S
O75 C81 1.250 . S
C76 O82 1.248 . S
C76 O83 1.264 . S
C77 O63 1.253 . S
C77 O65 1.260 . S
C78 O67 1.279 . S
C78 O68 1.250 . S
C79 O69 1.264 . S
C79 O73 1.248 . S
C80 O70 1.260 . S
C80 O74 1.253 . S
C81 O72 1.279 . S
C81 O75 1.250 . S
O82 Mg64 2.030 . S
O82 C76 1.248 . S
O83 Mg66 2.079 . S
O83 C76 1.264 . S
C84 C85 1.363 1_554 S
C84 C90 1.379 . S
C84 N92 1.356 . S
C85 C84 1.363 1_556 S
C85 C91 1.363 . S
C86 C87 1.363 1_556 S
C86 C91 1.379 . S
C86 N93 1.356 1_655 S
C87 C86 1.363 1_554 S
C87 C90 1.363 . S
N88 C90 1.356 . S
N88 H100 0.984 . S
N88 H101 0.985 . S
N89 C91 1.356 1_455 S
N89 H94 0.984 . S
N89 H95 0.985 . S
C90 C84 1.379 . S
C90 C87 1.363 . S
C90 N88 1.356 . S
C91 C85 1.363 . S
C91 C86 1.379 . S
C91 N89 1.356 1_655 S
N92 C84 1.356 . S
N92 H98 0.984 . S
N92 H99 0.984 1_554 S
N93 C86 1.356 1_455 S
N93 H96 0.984 1_556 S
N93 H97 0.985 . S
H94 N89 0.984 . S
H95 N89 0.985 . S
H96 N93 0.984 1_554 S
H97 N93 0.985 . S
H98 N92 0.984 . S
H99 N92 0.984 1_556 S
H100 N88 0.984 . S
H101 N88 0.985 . S
C102 C103 1.363 1_556 S
C102 C108 1.379 . S
C102 N110 1.356 1_556 S
C103 C102 1.363 1_554 S
C103 C109 1.363 . S
C104 C105 1.363 1_554 S
C104 C109 1.379 . S
C104 N111 1.356 1_554 S
C105 C104 1.363 1_556 S
C105 C108 1.363 . S
N106 C108 1.356 . S
N106 H118 0.984 . S
N106 H119 0.985 . S
N107 C109 1.356 . S
N107 H112 0.984 . S
N107 H113 0.985 . S
C108 C102 1.379 . S
C108 C105 1.363 . S
C108 N106 1.356 . S
C109 C103 1.363 . S
C109 C104 1.379 . S
C109 N107 1.356 . S
N110 C102 1.356 1_554 S
N110 H116 0.984 1_554 S
N110 H117 0.984 . S
N111 C104 1.356 1_556 S
N111 H114 0.984 . S
N111 H115 0.985 1_556 S
H112 N107 0.984 . S
H113 N107 0.985 . S
H114 N111 0.984 . S
H115 N111 0.985 1_554 S
H116 N110 0.984 1_556 S
H117 N110 0.984 . S
H118 N106 0.984 . S
H119 N106 0.985 . S
C120 C121 1.363 1_554 S
C120 C126 1.379 . S
C120 N128 1.356 . S
C121 C120 1.363 1_556 S
C121 C127 1.363 1_565 S
C122 C123 1.363 1_556 S
C122 C127 1.379 . S
C122 N129 1.356 . S
C123 C122 1.363 1_554 S
C123 C126 1.363 1_545 S
N124 C126 1.356 1_545 S
N124 H136 0.984 1_545 S
N124 H137 0.985 . S
N125 C127 1.356 1_565 S
N125 H130 0.984 . S
N125 H131 0.985 1_565 S
C126 C120 1.379 . S
C126 C123 1.363 1_565 S
C126 N124 1.356 1_565 S
C127 C121 1.363 1_545 S
C127 C122 1.379 . S
C127 N125 1.356 1_545 S
N128 C120 1.356 . S
N128 H134 0.984 . S
N128 H135 0.984 1_554 S
N129 C122 1.356 . S
N129 H132 0.984 1_556 S
N129 H133 0.985 . S
H130 N125 0.984 . S
H131 N125 0.985 1_545 S
H132 N129 0.984 1_554 S
H133 N129 0.985 . S
H134 N128 0.984 . S
H135 N128 0.984 1_556 S
H136 N124 0.984 1_565 S
H137 N124 0.985 . S
C138 C139 1.363 1_645 S
C138 C144 1.379 . S
C138 N146 1.356 1_545 S
C139 C138 1.363 1_465 S
C139 C145 1.363 1_554 S
C140 C141 1.363 1_565 S
C140 C145 1.379 . S
C140 N147 1.356 1_565 S
C141 C140 1.363 1_545 S
C141 C144 1.363 1_456 S
N142 C144 1.356 . S
N142 H154 0.984 . S
N142 H155 0.985 1_554 S
N143 C145 1.356 . S
N143 H148 0.984 1_556 S
N143 H149 0.985 . S
C144 C138 1.379 . S
C144 C141 1.363 1_654 S
C144 N142 1.356 . S
C145 C139 1.363 1_556 S
C145 C140 1.379 . S
C145 N143 1.356 . S
N146 C138 1.356 1_565 S
N146 H152 0.984 1_565 S
N146 H153 0.984 . S
N147 C140 1.356 1_545 S
N147 H150 0.984 . S
N147 H151 0.985 1_545 S
H148 N143 0.984 1_554 S
H149 N143 0.985 . S
H150 N147 0.984 . S
H151 N147 0.985 1_565 S
H152 N146 0.984 1_545 S
H153 N146 0.984 . S
H154 N142 0.984 . S
H155 N142 0.985 1_556 S
C156 C157 1.363 . S
C156 C162 1.379 . S
C156 N164 1.356 . S
C157 C156 1.363 . S
C157 C163 1.363 . S
C158 C159 1.363 . S
C158 C163 1.379 . S
C158 N165 1.356 . S
C159 C158 1.363 . S
C159 C162 1.363 . S
N160 C162 1.356 . S
N160 H172 0.984 . S
N160 H173 0.985 . S
N161 C163 1.356 . S
N161 H166 0.984 . S
N161 H167 0.985 . S
C162 C156 1.379 . S
C162 C159 1.363 . S
C162 N160 1.356 . S
C163 C157 1.363 . S
C163 C158 1.379 . S
C163 N161 1.356 . S
N164 C156 1.356 . S
N164 H170 0.984 . S
N164 H171 0.984 . S
N165 C158 1.356 . S
N165 H168 0.984 . S
N165 H169 0.985 . S
H166 N161 0.984 . S
H167 N161 0.985 . S
H168 N165 0.984 . S
H169 N165 0.985 . S
H170 N164 0.984 . S
H171 N164 0.984 . S
H172 N160 0.984 . S
H173 N160 0.985 . S
C174 C175 1.363 . S
C174 C180 1.379 . S
C174 N182 1.356 . S
C175 C174 1.363 . S
C175 C181 1.363 . S
C176 C177 1.363 . S
C176 C181 1.379 . S
C176 N183 1.356 . S
C177 C176 1.363 . S
C177 C180 1.363 . S
N178 C180 1.356 . S
N178 H190 0.984 . S
N178 H191 0.985 . S
N179 C181 1.356 . S
N179 H184 0.984 . S
N179 H185 0.985 . S
C180 C174 1.379 . S
C180 C177 1.363 . S
C180 N178 1.356 . S
C181 C175 1.363 . S
C181 C176 1.379 . S
C181 N179 1.356 . S
N182 C174 1.356 . S
N182 H188 0.984 . S
N182 H189 0.984 . S
N183 C176 1.356 . S
N183 H186 0.984 . S
N183 H187 0.985 . S
H184 N179 0.984 . S
H185 N179 0.985 . S
H186 N183 0.984 . S
H187 N183 0.985 . S
H188 N182 0.984 . S
H189 N182 0.984 . S
H190 N178 0.984 . S
H191 N178 0.985 . S
C192 C193 1.363 . S
C192 C198 1.379 . S
C192 N200 1.356 . S
C193 C192 1.363 . S
C193 C199 1.363 . S
C194 C195 1.363 . S
C194 C199 1.379 . S
C194 N201 1.356 . S
C195 C194 1.363 . S
C195 C198 1.363 . S
N196 C198 1.356 . S
N196 H208 0.984 . S
N196 H209 0.985 . S
N197 C199 1.356 . S
N197 H202 0.984 . S
N197 H203 0.985 . S
C198 C192 1.379 . S
C198 C195 1.363 . S
C198 N196 1.356 . S
C199 C193 1.363 . S
C199 C194 1.379 . S
C199 N197 1.356 . S
N200 C192 1.356 . S
N200 H206 0.984 . S
N200 H207 0.984 . S
N201 C194 1.356 . S
N201 H204 0.984 . S
N201 H205 0.985 . S
H202 N197 0.984 . S
H203 N197 0.985 . S
H204 N201 0.984 . S
H205 N201 0.985 . S
H206 N200 0.984 . S
H207 N200 0.984 . S
H208 N196 0.984 . S
H209 N196 0.985 . S
C210 C211 1.363 . S
C210 C216 1.379 . S
C210 N218 1.356 . S
C211 C210 1.363 . S
C211 C217 1.363 . S
C212 C213 1.363 . S
C212 C217 1.379 . S
C212 N219 1.356 . S
C213 C212 1.363 . S
C213 C216 1.363 . S
N214 C216 1.356 . S
N214 H226 0.984 . S
N214 H227 0.985 . S
N215 C217 1.356 . S
N215 H220 0.984 . S
N215 H221 0.985 . S
C216 C210 1.379 . S
C216 C213 1.363 . S
C216 N214 1.356 . S
C217 C211 1.363 . S
C217 C212 1.379 . S
C217 N215 1.356 . S
N218 C210 1.356 . S
N218 H224 0.984 . S
N218 H225 0.984 . S
N219 C212 1.356 . S
N219 H222 0.984 . S
N219 H223 0.985 . S
H220 N215 0.984 . S
H221 N215 0.985 . S
H222 N219 0.984 . S
H223 N219 0.985 . S
H224 N218 0.984 . S
H225 N218 0.984 . S
H226 N214 0.984 . S
H227 N214 0.985 . S
C228 C229 1.363 1_556 S
C228 C234 1.379 . S
C228 N236 1.356 . S
C229 C228 1.363 1_554 S
C229 C235 1.363 . S
C230 C231 1.363 1_554 S
C230 C235 1.379 . S
C230 N237 1.356 . S
C231 C230 1.363 1_556 S
C231 C234 1.363 . S
N232 C234 1.356 . S
N232 H244 0.984 . S
N232 H245 0.985 . S
N233 C235 1.356 . S
N233 H238 0.984 . S
N233 H239 0.985 . S
C234 C228 1.379 . S
C234 C231 1.363 . S
C234 N232 1.356 . S
C235 C229 1.363 . S
C235 C230 1.379 . S
C235 N233 1.356 . S
N236 C228 1.356 . S
N236 H242 0.984 . S
N236 H243 0.984 . S
N237 C230 1.356 . S
N237 H240 0.984 . S
N237 H241 0.985 . S
H238 N233 0.984 . S
H239 N233 0.985 . S
H240 N237 0.984 . S
H241 N237 0.985 . S
H242 N236 0.984 . S
H243 N236 0.984 . S
H244 N232 0.984 . S
H245 N232 0.985 . S
C246 C247 1.363 . S
C246 C252 1.379 . S
C246 N254 1.356 . S
C247 C246 1.363 . S
C247 C253 1.363 1_554 S
C248 C249 1.363 . S
C248 C253 1.379 . S
C248 N255 1.356 . S
C249 C248 1.363 . S
C249 C252 1.363 1_556 S
N250 C252 1.356 . S
N250 H262 0.984 . S
N250 H263 0.985 . S
N251 C253 1.356 . S
N251 H256 0.984 . S
N251 H257 0.985 . S
C252 C246 1.379 . S
C252 C249 1.363 1_554 S
C252 N250 1.356 . S
C253 C247 1.363 1_556 S
C253 C248 1.379 . S
C253 N251 1.356 . S
N254 C246 1.356 . S
N254 H260 0.984 . S
N254 H261 0.984 . S
N255 C248 1.356 . S
N255 H258 0.984 . S
N255 H259 0.985 . S
H256 N251 0.984 . S
H257 N251 0.985 . S
H258 N255 0.984 . S
H259 N255 0.985 . S
H260 N254 0.984 . S
H261 N254 0.984 . S
H262 N250 0.984 . S
H263 N250 0.985 . S
C264 C265 1.363 1_554 S
C264 C270 1.379 . S
C264 N272 1.356 . S
C265 C264 1.363 1_556 S
C265 C271 1.363 . S
C266 C267 1.363 1_556 S
C266 C271 1.379 . S
C266 N273 1.356 . S
C267 C266 1.363 1_554 S
C267 C270 1.363 . S
N268 C270 1.356 . S
N268 H280 0.984 . S
N268 H281 0.985 . S
N269 C271 1.356 . S
N269 H274 0.984 . S
N269 H275 0.985 . S
C270 C264 1.379 . S
C270 C267 1.363 . S
C270 N268 1.356 . S
C271 C265 1.363 . S
C271 C266 1.379 . S
C271 N269 1.356 . S
N272 C264 1.356 . S
N272 H278 0.984 . S
N272 H279 0.984 . S
N273 C266 1.356 . S
N273 H276 0.984 . S
N273 H277 0.985 . S
H274 N269 0.984 . S
H275 N269 0.985 . S
H276 N273 0.984 . S
H277 N273 0.985 . S
H278 N272 0.984 . S
H279 N272 0.984 . S
H280 N268 0.984 . S
H281 N268 0.985 . S
C282 C283 1.363 . S
C282 C288 1.379 . S
C282 N290 1.356 . S
C283 C282 1.363 . S
C283 C289 1.363 1_556 S
C284 C285 1.363 . S
C284 C289 1.379 . S
C284 N291 1.356 . S
C285 C284 1.363 . S
C285 C288 1.363 1_554 S
N286 C288 1.356 . S
N286 H298 0.984 . S
N286 H299 0.985 . S
N287 C289 1.356 . S
N287 H292 0.984 . S
N287 H293 0.985 . S
C288 C282 1.379 . S
C288 C285 1.363 1_556 S
C288 N286 1.356 . S
C289 C283 1.363 1_554 S
C289 C284 1.379 . S
C289 N287 1.356 . S
N290 C282 1.356 . S
N290 H296 0.984 . S
N290 H297 0.984 . S
N291 C284 1.356 . S
N291 H294 0.984 . S
N291 H295 0.985 . S
H292 N287 0.984 . S
H293 N287 0.985 . S
H294 N291 0.984 . S
H295 N291 0.985 . S
H296 N290 0.984 . S
H297 N290 0.984 . S
H298 N286 0.984 . S
H299 N286 0.985 . S
C85 C57 1.708 1_655 S
C87 C15 1.708 1_655 S
C103 C39 1.708 . S
C105 C78 1.708 . S
C121 C81 1.708 . S
C123 C36 1.708 . S
C139 C18 1.708 1_455 S
C141 C60 1.708 1_455 S
C157 C76 1.454 . S
C159 C13 1.454 . S
C175 C55 1.454 . S
C177 C37 1.454 . S
C193 C58 1.454 . S
C195 C34 1.454 . S
C211 C16 1.454 . S
C213 C79 1.454 . S
C229 C77 1.056 1_554 S
C231 C14 1.056 1_556 S
C247 C56 1.056 1_554 S
C249 C38 1.056 1_556 S
C265 C35 1.056 1_556 S
C267 C59 1.056 1_554 S
C283 C17 1.056 1_556 S
C285 C80 1.056 1_554 S
