# Generated by pormake.
# Topology wio, (6)-cn, num edge types: 1
# Building blocks:
#     Node 0, Type 0, BuildingBlock: BETDAH_clean_sbu_0, # of connection points: 6
#     Node 1, Type 0, BuildingBlock: BETDAH_clean_sbu_0, # of connection points: 6
#     Node 2, Type 0, BuildingBlock: BETDAH_clean_sbu_0, # of connection points: 6
#     Node 3, Type 0, BuildingBlock: BETDAH_clean_sbu_0, # of connection points: 6
#     Node 4, Type 0, BuildingBlock: BETDAH_clean_sbu_0, # of connection points: 6
#     Node 5, Type 0, BuildingBlock: BETDAH_clean_sbu_0, # of connection points: 6
#     Node 6, Type 0, BuildingBlock: BETDAH_clean_sbu_0, # of connection points: 6
#     Node 7, Type 0, BuildingBlock: BETDAH_clean_sbu_0, # of connection points: 6
#     Node 8, Type 0, BuildingBlock: BETDAH_clean_sbu_0, # of connection points: 6
#     Node 9, Type 0, BuildingBlock: BETDAH_clean_sbu_0, # of connection points: 6
#     Node 10, Type 0, BuildingBlock: BETDAH_clean_sbu_0, # of connection points: 6
#     Node 11, Type 0, BuildingBlock: BETDAH_clean_sbu_0, # of connection points: 6
#     Node 12, Type 0, BuildingBlock: BETDAH_clean_sbu_0, # of connection points: 6
#     Node 13, Type 0, BuildingBlock: BETDAH_clean_sbu_0, # of connection points: 6
#     Node 14, Type 0, BuildingBlock: BETDAH_clean_sbu_0, # of connection points: 6
#     Node 15, Type 0, BuildingBlock: BETDAH_clean_sbu_0, # of connection points: 6
#     Node 16, Type 0, BuildingBlock: BETDAH_clean_sbu_0, # of connection points: 6
#     Node 17, Type 0, BuildingBlock: BETDAH_clean_sbu_0, # of connection points: 6
#     Node 18, Type 0, BuildingBlock: BETDAH_clean_sbu_0, # of connection points: 6
#     Node 19, Type 0, BuildingBlock: BETDAH_clean_sbu_0, # of connection points: 6
#     Node 20, Type 0, BuildingBlock: BETDAH_clean_sbu_0, # of connection points: 6
#     Node 21, Type 0, BuildingBlock: BETDAH_clean_sbu_0, # of connection points: 6
#     Node 22, Type 0, BuildingBlock: BETDAH_clean_sbu_0, # of connection points: 6
#     Node 23, Type 0, BuildingBlock: BETDAH_clean_sbu_0, # of connection points: 6
#     Node 24, Type 0, BuildingBlock: BETDAH_clean_sbu_0, # of connection points: 6
#     Node 25, Type 0, BuildingBlock: BETDAH_clean_sbu_0, # of connection points: 6
#     Node 26, Type 0, BuildingBlock: BETDAH_clean_sbu_0, # of connection points: 6
#     Node 27, Type 0, BuildingBlock: BETDAH_clean_sbu_0, # of connection points: 6
#     Node 28, Type 0, BuildingBlock: BETDAH_clean_sbu_0, # of connection points: 6
#     Node 29, Type 0, BuildingBlock: BETDAH_clean_sbu_0, # of connection points: 6
#     Node 30, Type 0, BuildingBlock: BETDAH_clean_sbu_0, # of connection points: 6
#     Node 31, Type 0, BuildingBlock: BETDAH_clean_sbu_0, # of connection points: 6
#     Edge 32, Type (0, 0), BuildingBlock: OJICUG_clean_linker_0, # of connection points: 2
#     Edge 33, Type (0, 0), BuildingBlock: OJICUG_clean_linker_0, # of connection points: 2
#     Edge 34, Type (0, 0), BuildingBlock: OJICUG_clean_linker_0, # of connection points: 2
#     Edge 35, Type (0, 0), BuildingBlock: OJICUG_clean_linker_0, # of connection points: 2
#     Edge 36, Type (0, 0), BuildingBlock: OJICUG_clean_linker_0, # of connection points: 2
#     Edge 37, Type (0, 0), BuildingBlock: OJICUG_clean_linker_0, # of connection points: 2
#     Edge 38, Type (0, 0), BuildingBlock: OJICUG_clean_linker_0, # of connection points: 2
#     Edge 39, Type (0, 0), BuildingBlock: OJICUG_clean_linker_0, # of connection points: 2
#     Edge 40, Type (0, 0), BuildingBlock: OJICUG_clean_linker_0, # of connection points: 2
#     Edge 41, Type (0, 0), BuildingBlock: OJICUG_clean_linker_0, # of connection points: 2
#     Edge 42, Type (0, 0), BuildingBlock: OJICUG_clean_linker_0, # of connection points: 2
#     Edge 43, Type (0, 0), BuildingBlock: OJICUG_clean_linker_0, # of connection points: 2
#     Edge 44, Type (0, 0), BuildingBlock: OJICUG_clean_linker_0, # of connection points: 2
#     Edge 45, Type (0, 0), BuildingBlock: OJICUG_clean_linker_0, # of connection points: 2
#     Edge 46, Type (0, 0), BuildingBlock: OJICUG_clean_linker_0, # of connection points: 2
#     Edge 47, Type (0, 0), BuildingBlock: OJICUG_clean_linker_0, # of connection points: 2
#     Edge 48, Type (0, 0), BuildingBlock: OJICUG_clean_linker_0, # of connection points: 2
#     Edge 49, Type (0, 0), BuildingBlock: OJICUG_clean_linker_0, # of connection points: 2
#     Edge 50, Type (0, 0), BuildingBlock: OJICUG_clean_linker_0, # of connection points: 2
#     Edge 51, Type (0, 0), BuildingBlock: OJICUG_clean_linker_0, # of connection points: 2
#     Edge 52, Type (0, 0), BuildingBlock: OJICUG_clean_linker_0, # of connection points: 2
#     Edge 53, Type (0, 0), BuildingBlock: OJICUG_clean_linker_0, # of connection points: 2
#     Edge 54, Type (0, 0), BuildingBlock: OJICUG_clean_linker_0, # of connection points: 2
#     Edge 55, Type (0, 0), BuildingBlock: OJICUG_clean_linker_0, # of connection points: 2
#     Edge 56, Type (0, 0), BuildingBlock: OJICUG_clean_linker_0, # of connection points: 2
#     Edge 57, Type (0, 0), BuildingBlock: OJICUG_clean_linker_0, # of connection points: 2
#     Edge 58, Type (0, 0), BuildingBlock: OJICUG_clean_linker_0, # of connection points: 2
#     Edge 59, Type (0, 0), BuildingBlock: OJICUG_clean_linker_0, # of connection points: 2
#     Edge 60, Type (0, 0), BuildingBlock: OJICUG_clean_linker_0, # of connection points: 2
#     Edge 61, Type (0, 0), BuildingBlock: OJICUG_clean_linker_0, # of connection points: 2
#     Edge 62, Type (0, 0), BuildingBlock: OJICUG_clean_linker_0, # of connection points: 2
#     Edge 63, Type (0, 0), BuildingBlock: OJICUG_clean_linker_0, # of connection points: 2
#     Edge 64, Type (0, 0), BuildingBlock: OJICUG_clean_linker_0, # of connection points: 2
#     Edge 65, Type (0, 0), BuildingBlock: OJICUG_clean_linker_0, # of connection points: 2
#     Edge 66, Type (0, 0), BuildingBlock: OJICUG_clean_linker_0, # of connection points: 2
#     Edge 67, Type (0, 0), BuildingBlock: OJICUG_clean_linker_0, # of connection points: 2
#     Edge 68, Type (0, 0), BuildingBlock: OJICUG_clean_linker_0, # of connection points: 2
#     Edge 69, Type (0, 0), BuildingBlock: OJICUG_clean_linker_0, # of connection points: 2
#     Edge 70, Type (0, 0), BuildingBlock: OJICUG_clean_linker_0, # of connection points: 2
#     Edge 71, Type (0, 0), BuildingBlock: OJICUG_clean_linker_0, # of connection points: 2
#     Edge 72, Type (0, 0), BuildingBlock: OJICUG_clean_linker_0, # of connection points: 2
#     Edge 73, Type (0, 0), BuildingBlock: OJICUG_clean_linker_0, # of connection points: 2
#     Edge 74, Type (0, 0), BuildingBlock: OJICUG_clean_linker_0, # of connection points: 2
#     Edge 75, Type (0, 0), BuildingBlock: OJICUG_clean_linker_0, # of connection points: 2
#     Edge 76, Type (0, 0), BuildingBlock: OJICUG_clean_linker_0, # of connection points: 2
#     Edge 77, Type (0, 0), BuildingBlock: OJICUG_clean_linker_0, # of connection points: 2
#     Edge 78, Type (0, 0), BuildingBlock: OJICUG_clean_linker_0, # of connection points: 2
#     Edge 79, Type (0, 0), BuildingBlock: OJICUG_clean_linker_0, # of connection points: 2
#     Edge 80, Type (0, 0), BuildingBlock: OJICUG_clean_linker_0, # of connection points: 2
#     Edge 81, Type (0, 0), BuildingBlock: OJICUG_clean_linker_0, # of connection points: 2
#     Edge 82, Type (0, 0), BuildingBlock: OJICUG_clean_linker_0, # of connection points: 2
#     Edge 83, Type (0, 0), BuildingBlock: OJICUG_clean_linker_0, # of connection points: 2
#     Edge 84, Type (0, 0), BuildingBlock: OJICUG_clean_linker_0, # of connection points: 2
#     Edge 85, Type (0, 0), BuildingBlock: OJICUG_clean_linker_0, # of connection points: 2
#     Edge 86, Type (0, 0), BuildingBlock: OJICUG_clean_linker_0, # of connection points: 2
#     Edge 87, Type (0, 0), BuildingBlock: OJICUG_clean_linker_0, # of connection points: 2
#     Edge 88, Type (0, 0), BuildingBlock: OJICUG_clean_linker_0, # of connection points: 2
#     Edge 89, Type (0, 0), BuildingBlock: OJICUG_clean_linker_0, # of connection points: 2
#     Edge 90, Type (0, 0), BuildingBlock: OJICUG_clean_linker_0, # of connection points: 2
#     Edge 91, Type (0, 0), BuildingBlock: OJICUG_clean_linker_0, # of connection points: 2
#     Edge 92, Type (0, 0), BuildingBlock: OJICUG_clean_linker_0, # of connection points: 2
#     Edge 93, Type (0, 0), BuildingBlock: OJICUG_clean_linker_0, # of connection points: 2
#     Edge 94, Type (0, 0), BuildingBlock: OJICUG_clean_linker_0, # of connection points: 2
#     Edge 95, Type (0, 0), BuildingBlock: OJICUG_clean_linker_0, # of connection points: 2
#     Edge 96, Type (0, 0), BuildingBlock: OJICUG_clean_linker_0, # of connection points: 2
#     Edge 97, Type (0, 0), BuildingBlock: OJICUG_clean_linker_0, # of connection points: 2
#     Edge 98, Type (0, 0), BuildingBlock: OJICUG_clean_linker_0, # of connection points: 2
#     Edge 99, Type (0, 0), BuildingBlock: OJICUG_clean_linker_0, # of connection points: 2
#     Edge 100, Type (0, 0), BuildingBlock: OJICUG_clean_linker_0, # of connection points: 2
#     Edge 101, Type (0, 0), BuildingBlock: OJICUG_clean_linker_0, # of connection points: 2
#     Edge 102, Type (0, 0), BuildingBlock: OJICUG_clean_linker_0, # of connection points: 2
#     Edge 103, Type (0, 0), BuildingBlock: OJICUG_clean_linker_0, # of connection points: 2
#     Edge 104, Type (0, 0), BuildingBlock: OJICUG_clean_linker_0, # of connection points: 2
#     Edge 105, Type (0, 0), BuildingBlock: OJICUG_clean_linker_0, # of connection points: 2
#     Edge 106, Type (0, 0), BuildingBlock: OJICUG_clean_linker_0, # of connection points: 2
#     Edge 107, Type (0, 0), BuildingBlock: OJICUG_clean_linker_0, # of connection points: 2
#     Edge 108, Type (0, 0), BuildingBlock: OJICUG_clean_linker_0, # of connection points: 2
#     Edge 109, Type (0, 0), BuildingBlock: OJICUG_clean_linker_0, # of connection points: 2
#     Edge 110, Type (0, 0), BuildingBlock: OJICUG_clean_linker_0, # of connection points: 2
#     Edge 111, Type (0, 0), BuildingBlock: OJICUG_clean_linker_0, # of connection points: 2
#     Edge 112, Type (0, 0), BuildingBlock: OJICUG_clean_linker_0, # of connection points: 2
#     Edge 113, Type (0, 0), BuildingBlock: OJICUG_clean_linker_0, # of connection points: 2
#     Edge 114, Type (0, 0), BuildingBlock: OJICUG_clean_linker_0, # of connection points: 2
#     Edge 115, Type (0, 0), BuildingBlock: OJICUG_clean_linker_0, # of connection points: 2
#     Edge 116, Type (0, 0), BuildingBlock: OJICUG_clean_linker_0, # of connection points: 2
#     Edge 117, Type (0, 0), BuildingBlock: OJICUG_clean_linker_0, # of connection points: 2
#     Edge 118, Type (0, 0), BuildingBlock: OJICUG_clean_linker_0, # of connection points: 2
#     Edge 119, Type (0, 0), BuildingBlock: OJICUG_clean_linker_0, # of connection points: 2
#     Edge 120, Type (0, 0), BuildingBlock: OJICUG_clean_linker_0, # of connection points: 2
#     Edge 121, Type (0, 0), BuildingBlock: OJICUG_clean_linker_0, # of connection points: 2
#     Edge 122, Type (0, 0), BuildingBlock: OJICUG_clean_linker_0, # of connection points: 2
#     Edge 123, Type (0, 0), BuildingBlock: OJICUG_clean_linker_0, # of connection points: 2
#     Edge 124, Type (0, 0), BuildingBlock: OJICUG_clean_linker_0, # of connection points: 2
#     Edge 125, Type (0, 0), BuildingBlock: OJICUG_clean_linker_0, # of connection points: 2
#     Edge 126, Type (0, 0), BuildingBlock: OJICUG_clean_linker_0, # of connection points: 2
#     Edge 127, Type (0, 0), BuildingBlock: OJICUG_clean_linker_0, # of connection points: 2
# Relax obj value: 0.218
# Max RMSD: 0.246
# Mean RMSD: 0.246
data_MOF--net-wio--node1-BETDAH_clean_sbu_0--edge1-OJICUG_clean_linker_0
_symmetry_space_group_name_H-M    P1
_symmetry_Int_Tables_number       1
_symmetry_cell_setting            triclinic
loop_
_symmetry_equiv_pos_as_xyz
'x, y, z'
_cell_length_a     47.657723
_cell_length_b     47.634018
_cell_length_c     41.76684
_cell_angle_alpha  90.025689
_cell_angle_beta   90.046473
_cell_angle_gamma 89.990893
loop_
_atom_site_label
_atom_site_type_symbol
_atom_site_fract_x
_atom_site_fract_y
_atom_site_fract_z
_atom_type_partial_charge
Ho0 Ho 0.16633 0.11571 0.29455 0.0
Ho1 Ho 0.10485 0.12937 0.30573 0.0
C2 C 0.13073 0.1436 0.23571 0.0
C3 C 0.21426 0.09736 0.27487 0.0
C4 C 0.23714 0.10833 0.25499 0.0
C5 C 0.25333 0.08964 0.23697 0.0
C6 C 0.27535 0.09956 0.21814 0.0
C7 C 0.28177 0.12842 0.21716 0.0
C8 C 0.26541 0.14714 0.23533 0.0
C9 C 0.2432 0.13718 0.254 0.0
C10 C 0.15833 0.16472 0.32557 0.0
C11 C 0.14184 0.09902 0.36155 0.0
C12 C 0.05814 0.14859 0.32974 0.0
C13 C 0.0416 0.14811 0.35997 0.0
C14 C 0.02986 0.1732 0.37152 0.0
C15 C 1.01236 0.17324 0.39853 0.0
C16 C 1.00601 0.14812 0.41479 0.0
C17 C 0.01848 0.12307 0.40363 0.0
C18 C 0.03606 0.12306 0.37661 0.0
C19 C 0.11447 0.07616 0.28298 0.0
O20 O 0.15394 0.13149 0.24605 0.0
O21 O 0.10851 0.14686 0.25472 0.0
O22 O 0.2106 0.10994 0.30236 0.0
O23 O 0.19063 0.09186 0.26013 0.0
O24 O 0.18009 0.14877 0.32875 0.0
O25 O 0.14301 0.15559 0.30287 0.0
O26 O 0.12024 0.11571 0.35526 0.0
O27 O 0.15925 0.09118 0.33875 0.0
O28 O 0.05999 0.12536 0.31325 0.0
O29 O 0.08177 0.16244 0.3301 0.0
O30 O 0.09258 0.0913 0.2761 0.0
O31 O 0.12904 0.08981 0.30266 0.0
H32 H 0.24881 0.06734 0.23731 0.0
H33 H 0.28694 0.08459 0.20379 0.0
H34 H 0.2698 0.16944 0.2352 0.0
H35 H 0.23081 0.15199 0.2677 0.0
H36 H 0.03385 0.19283 0.35924 0.0
H37 H 1.00365 0.19303 0.40653 0.0
H38 H 1.01395 0.10321 0.41511 0.0
H39 H 0.04482 0.10335 0.36839 0.0
Ho40 Ho 0.16094 0.91222 0.55109 0.0
Ho41 Ho 0.15155 0.84912 0.55391 0.0
C42 C 0.14022 0.87937 0.48592 0.0
C43 C 0.17538 0.96325 0.53849 0.0
C44 C 0.16859 0.98454 0.51411 0.0
C45 C 0.17606 0.98068 0.4819 0.0
C46 C 0.17029 1.00151 0.45944 0.0
C47 C 0.15682 0.02647 0.46869 0.0
C48 C 0.14861 0.03008 0.50063 0.0
C49 C 0.15467 1.00932 0.52325 0.0
C50 C 0.11175 0.89711 0.57723 0.0
C51 C 0.1763 0.88288 0.61635 0.0
C52 C 0.13358 0.80053 0.57314 0.0
C53 C 0.13305 0.7849 0.60396 0.0
C54 C 0.10759 0.77401 0.61545 0.0
C55 C 0.10671 0.75832 0.64386 0.0
C56 C 0.13136 0.753 0.66151 0.0
C57 C 0.15676 0.7645 0.65022 0.0
C58 C 0.15759 0.78032 0.62192 0.0
C59 C 0.20457 0.86414 0.53605 0.0
O60 O 0.15008 0.90236 0.49979 0.0
O61 O 0.13697 0.85563 0.50233 0.0
O62 O 0.155 0.95672 0.558 0.0
O63 O 0.18997 0.94133 0.52932 0.0
O64 O 0.12581 0.91907 0.58563 0.0
O65 O 0.12318 0.88534 0.55332 0.0
O66 O 0.16365 0.85999 0.60543 0.0
O67 O 0.18164 0.90454 0.59776 0.0
O68 O 0.15796 0.80433 0.55943 0.0
O69 O 0.11769 0.82282 0.57143 0.0
O70 O 0.19114 0.84225 0.52532 0.0
O71 O 0.18926 0.87608 0.55657 0.0
H72 H 0.18658 0.96174 0.47402 0.0
H73 H 0.17655 0.99822 0.43478 0.0
H74 H 0.13832 0.04923 0.50822 0.0
H75 H 0.14873 1.01274 0.54798 0.0
H76 H 0.08832 0.77743 0.60223 0.0
H77 H 0.08668 0.75025 0.65188 0.0
H78 H 0.1763 0.76061 0.66268 0.0
H79 H 0.17756 0.78857 0.6139 0.0
Ho80 Ho 0.36662 0.91845 0.79544 0.0
Ho81 Ho 0.42714 0.90236 0.81066 0.0
C82 C 0.40502 0.89284 0.73829 0.0
C83 C 0.31965 0.93776 0.77373 0.0
C84 C 0.29638 0.92672 0.75442 0.0
C85 C 0.28041 0.94526 0.73596 0.0
C86 C 0.25797 0.93532 0.71774 0.0
C87 C 0.25092 0.90659 0.71781 0.0
C88 C 0.2671 0.88801 0.73636 0.0
C89 C 0.28971 0.89799 0.75447 0.0
C90 C 0.37216 0.86735 0.82324 0.0
C91 C 0.38852 0.93368 0.86461 0.0
C92 C 0.47135 0.88044 0.83755 0.0
C93 C 0.49089 0.88482 0.86508 0.0
C94 C 0.48274 0.87956 0.897 0.0
C95 C 0.5021 0.8822 0.92229 0.0
C96 C 0.53005 0.89022 0.91633 0.0
C97 C 0.53812 0.8951 0.88436 0.0
C98 C 0.51888 0.89238 0.85917 0.0
C99 C 0.42066 0.95646 0.78931 0.0
O100 O 0.38323 0.90827 0.74657 0.0
O101 O 0.42389 0.88443 0.75981 0.0
O102 O 0.32257 0.9267 0.80212 0.0
O103 O 0.34359 0.94122 0.75895 0.0
O104 O 0.35034 0.88325 0.8255 0.0
O105 O 0.38877 0.87774 0.8027 0.0
O106 O 0.41034 0.91704 0.85912 0.0
O107 O 0.37176 0.94169 0.84118 0.0
O108 O 0.47253 0.89825 0.81374 0.0
O109 O 0.44562 0.87285 0.84396 0.0
O110 O 0.4429 0.9412 0.78478 0.0
O111 O 0.40434 0.94281 0.80707 0.0
H112 H 0.28539 0.96746 0.73551 0.0
H113 H 0.24652 0.95016 0.70307 0.0
H114 H 0.26224 0.86581 0.737 0.0
H115 H 0.30193 0.88331 0.76856 0.0
H116 H 0.46144 0.87331 0.9025 0.0
H117 H 0.49506 0.87844 0.94656 0.0
H118 H 0.55954 0.90082 0.87867 0.0
H119 H 0.52604 0.89598 0.8349 0.0
Ho120 Ho 0.36787 0.12234 0.04852 0.0
Ho121 Ho 0.3803 0.18521 0.05235 0.0
C122 C 0.39166 0.1545 0.98444 0.0
C123 C 0.3491 0.07278 1.03524 0.0
C124 C 0.35715 0.04937 1.01448 0.0
C125 C 0.34103 0.02483 1.01465 0.0
C126 C 0.34789 1.00258 0.99437 0.0
C127 C 0.37098 1.00459 0.97354 0.0
C128 C 0.38766 0.02895 0.97424 0.0
C129 C 0.38078 0.05121 0.99461 0.0
C130 C 0.41762 0.1344 0.07568 0.0
C131 C 0.35408 0.152 0.11374 0.0
C132 C 0.39928 0.23403 0.07021 0.0
C133 C 0.40254 0.24995 0.10046 0.0
C134 C 0.39685 0.23771 0.13034 0.0
C135 C 0.39869 0.25365 0.15853 0.0
C136 C 0.40619 0.28225 0.15748 0.0
C137 C 0.41247 0.2942 0.12746 0.0
C138 C 0.41065 0.27823 0.09933 0.0
C139 C 0.327 0.17239 1.03308 0.0
O140 O 0.38117 0.13167 0.99795 0.0
O141 O 0.39495 0.17824 1.00088 0.0
O142 O 0.36628 0.07802 0.05886 0.0
O143 O 0.34039 0.09558 1.0208 0.0
O144 O 0.40314 0.11215 0.08192 0.0
O145 O 0.40685 0.14749 0.05223 0.0
O146 O 0.36936 0.17354 0.10382 0.0
O147 O 0.34618 0.13185 0.09415 0.0
O148 O 0.3736 0.22966 0.06052 0.0
O149 O 0.41509 0.21184 0.06658 0.0
O150 O 0.34145 0.1937 1.02271 0.0
O151 O 0.34147 0.15985 0.05387 0.0
H152 H 0.3229 0.02303 1.03015 0.0
H153 H 0.33481 0.98399 0.99454 0.0
H154 H 0.40535 0.03126 0.95818 0.0
H155 H 0.39357 0.07001 0.99447 0.0
H156 H 0.39061 0.21596 0.13197 0.0
H157 H 0.39397 0.24359 0.18113 0.0
H158 H 0.41783 0.31622 0.12547 0.0
H159 H 0.41506 0.28816 0.07655 0.0
Ho160 Ho 0.16587 0.91468 0.28755 0.0
Ho161 Ho 0.10455 0.89908 0.27505 0.0
C162 C 0.12823 0.89189 0.3471 0.0
C163 C 0.21324 0.93467 0.30718 0.0
C164 C 0.23638 0.92493 0.3277 0.0
C165 C 0.24908 0.9439 0.34876 0.0
C166 C 0.27125 0.93529 0.36826 0.0
C167 C 0.28138 0.90752 0.36689 0.0
C168 C 0.2685 0.88848 0.34575 0.0
C169 C 0.24613 0.89709 0.32638 0.0
C170 C 0.15905 0.86259 0.26292 0.0
C171 C 0.14264 0.92607 0.21788 0.0
C172 C 0.05925 0.87734 0.25049 0.0
C173 C 0.03951 0.88142 0.22313 0.0
C174 C 0.04795 0.87783 0.19101 0.0
C175 C 0.02851 0.88048 0.16581 0.0
C176 C 1.0002 0.88689 0.17209 0.0
C177 C 0.99185 0.89007 0.20425 0.0
C178 C 1.01118 0.88732 0.22934 0.0
C179 C 0.1128 0.95412 0.29229 0.0
O180 O 0.15019 0.90639 0.33729 0.0
O181 O 0.10862 0.88311 0.32666 0.0
O182 O 0.21005 0.92147 0.28001 0.0
O183 O 0.18938 0.93996 0.32145 0.0
O184 O 0.18132 0.87777 0.25981 0.0
O185 O 0.14281 0.8742 0.28306 0.0
O186 O 0.12027 0.91089 0.22531 0.0
O187 O 0.16052 0.93468 0.2399 0.0
O188 O 0.05898 0.89602 0.27348 0.0
O189 O 0.08463 0.86879 0.24387 0.0
O190 O 0.09037 0.93966 0.29865 0.0
O191 O 0.12837 0.93907 0.27513 0.0
H192 H 0.24174 0.9654 0.35027 0.0
H193 H 0.28009 0.95036 0.38486 0.0
H194 H 0.27578 0.867 0.34403 0.0
H195 H 0.23652 0.88199 0.31036 0.0
H196 H 0.06957 0.87296 0.18527 0.0
H197 H 0.03576 0.87809 0.1414 0.0
H198 H 0.97017 0.89456 0.21013 0.0
H199 H 1.00388 0.88966 0.25376 0.0
Ho200 Ho 0.3682 0.91321 0.53724 0.0
Ho201 Ho 0.3788 0.85006 0.53204 0.0
C202 C 0.39184 0.87957 0.60045 0.0
C203 C 0.35023 0.96262 0.55213 0.0
C204 C 0.35829 0.98616 0.57313 0.0
C205 C 0.34026 0.99399 0.59805 0.0
C206 C 0.34691 1.01664 0.61776 0.0
C207 C 0.3716 0.03224 0.61275 0.0
C208 C 0.38971 0.02438 0.58778 0.0
C209 C 0.38312 1.00154 0.56812 0.0
C210 C 0.41749 0.90036 0.50974 0.0
C211 C 0.35389 0.88506 0.4712 0.0
C212 C 0.39592 0.80068 0.51364 0.0
C213 C 0.3991 0.78485 0.48329 0.0
C214 C 0.39098 0.79633 0.45374 0.0
C215 C 0.39229 0.78018 0.42565 0.0
C216 C 0.40177 0.75214 0.42647 0.0
C217 C 0.41067 0.74108 0.45607 0.0
C218 C 0.40932 0.75724 0.4841 0.0
C219 C 0.32589 0.8643 0.55154 0.0
O220 O 0.38224 0.90302 0.58741 0.0
O221 O 0.39376 0.85586 0.58366 0.0
O222 O 0.36644 0.95757 0.52755 0.0
O223 O 0.34145 0.93967 0.56625 0.0
O224 O 0.40384 0.92334 0.50442 0.0
O225 O 0.4064 0.88701 0.53279 0.0
O226 O 0.36853 0.86292 0.48071 0.0
O227 O 0.34655 0.90509 0.49123 0.0
O228 O 0.37027 0.80615 0.52262 0.0
O229 O 0.41265 0.82204 0.51812 0.0
O230 O 0.33977 0.84249 0.56162 0.0
O231 O 0.34077 0.87661 0.531 0.0
H232 H 0.32098 0.98254 0.60233 0.0
H233 H 0.33281 0.02165 0.63727 0.0
H234 H 0.40882 0.03601 0.58325 0.0
H235 H 0.39741 0.99608 0.54896 0.0
H236 H 0.38312 0.81758 0.45237 0.0
H237 H 0.38555 0.78958 0.40333 0.0
H238 H 0.41768 0.71951 0.45789 0.0
H239 H 0.41564 0.7479 0.50663 0.0
Ho240 Ho 0.36799 0.11671 0.78651 0.0
Ho241 Ho 0.42902 0.1335 0.7746 0.0
C242 C 0.40468 0.14112 0.84614 0.0
C243 C 0.32108 0.09533 0.80556 0.0
C244 C 0.29761 0.10353 0.82652 0.0
C245 C 0.2903 0.08605 0.85211 0.0
C246 C 0.2679 0.09302 0.87204 0.0
C247 C 0.25207 0.11752 0.86658 0.0
C248 C 0.25944 0.13508 0.8409 0.0
C249 C 0.28203 0.12818 0.82106 0.0
C250 C 0.37395 0.16874 0.76153 0.0
C251 C 0.39193 0.10543 0.71718 0.0
C252 C 0.47414 0.15577 0.75046 0.0
C253 C 0.4937 0.15182 0.72301 0.0
C254 C 0.48502 0.15541 0.69097 0.0
C255 C 0.50427 0.15268 0.66565 0.0
C256 C 0.53258 0.14618 0.67174 0.0
C257 C 0.54119 0.143 0.70382 0.0
C258 C 0.52205 0.14585 0.72904 0.0
C259 C 0.42165 0.07869 0.79283 0.0
O260 O 0.383 0.12616 0.83633 0.0
O261 O 0.42429 0.14998 0.82582 0.0
O262 O 0.32389 0.10939 0.77891 0.0
O263 O 0.34512 0.09013 0.81956 0.0
O264 O 0.35209 0.15302 0.75802 0.0
O265 O 0.39021 0.15762 0.78202 0.0
O266 O 0.41392 0.12112 0.72473 0.0
O267 O 0.37408 0.0966 0.73906 0.0
O268 O 0.47454 0.13691 0.77322 0.0
O269 O 0.44872 0.1643 0.74398 0.0
O270 O 0.4437 0.09366 0.7994 0.0
O271 O 0.40606 0.09305 0.77492 0.0
H272 H 0.30202 0.06698 0.85679 0.0
H273 H 0.2633 0.07935 0.89207 0.0
H274 H 0.24763 0.15402 0.83597 0.0
H275 H 0.2872 0.14211 0.80145 0.0
H276 H 0.46337 0.1603 0.68539 0.0
H277 H 0.49685 0.15507 0.64129 0.0
H278 H 0.56288 0.13841 0.70951 0.0
H279 H 0.52951 0.14347 0.7534 0.0
Ho280 Ho 0.16777 0.11916 1.04108 0.0
Ho281 Ho 0.15026 0.17992 1.02571 0.0
C282 C 0.14238 0.15786 0.09842 0.0
C283 C 0.1901 0.07321 0.06164 0.0
C284 C 0.18123 0.04891 0.08074 0.0
C285 C 0.19974 0.03779 0.10342 0.0
C286 C 0.19205 1.01443 0.12147 0.0
C287 C 0.16575 1.00152 0.11696 0.0
C288 C 0.14719 1.01278 0.09416 0.0
C289 C 0.15482 0.03636 0.07627 0.0
C290 C 0.11568 0.12391 1.01583 0.0
C291 C 0.17891 0.14085 0.97052 0.0
C292 C 0.12698 0.22349 0.99919 0.0
C293 C 0.13155 0.24165 0.97087 0.0
C294 C 0.10867 0.25559 0.9568 0.0
C295 C 0.11263 0.27367 0.93065 0.0
C296 C 0.13962 0.27829 0.91812 0.0
C297 C 0.16237 0.26351 0.93168 0.0
C298 C 0.15837 0.24533 0.95769 0.0
C299 C 0.20526 0.1736 0.044 0.0
O300 O 0.15801 0.13614 0.0901 0.0
O301 O 0.13355 0.17661 0.07698 0.0
O302 O 0.17836 0.07576 1.03353 0.0
O303 O 0.19243 0.09716 0.07681 0.0
O304 O 0.13112 0.10166 1.01414 0.0
O305 O 0.12702 0.14102 1.03514 0.0
O306 O 0.16286 0.16291 0.97675 0.0
O307 O 0.18798 0.12411 0.99345 0.0
O308 O 0.14539 0.2251 1.02241 0.0
O309 O 0.11952 0.19765 0.99324 0.0
O310 O 0.19042 0.19611 0.04875 0.0
O311 O 0.19066 0.15712 1.0275 0.0
H312 H 0.22013 0.04728 0.10728 0.0
H313 H 0.20659 1.00684 0.13943 0.0
H314 H 0.12683 1.00334 0.09004 0.0
H315 H 0.14011 0.04468 0.05891 0.0
H316 H 0.08774 0.25287 0.96642 0.0
H317 H 0.0947 0.28482 0.92102 0.0
H318 H 0.1834 0.26623 0.92237 0.0
H319 H 0.17629 0.23446 0.96777 0.0
Ho320 Ho 0.93164 0.90339 0.7817 0.0
Ho321 Ho 0.86937 0.91912 0.78876 0.0
C322 C 0.89802 0.93373 0.72262 0.0
C323 C 0.97729 0.88072 0.75968 0.0
C324 C 0.99374 0.88105 0.72954 0.0
C325 C 1.00549 0.85598 0.71806 0.0
C326 C 0.02196 0.85581 0.69025 0.0
C327 C 0.02718 0.8808 0.67324 0.0
C328 C 1.01479 0.90583 0.68452 0.0
C329 C 0.9982 0.90594 0.71225 0.0
C330 C 0.92242 0.9572 0.80193 0.0
C331 C 0.90222 0.89141 0.85036 0.0
C332 C 0.82113 0.93891 0.8054 0.0
C333 C 0.79835 0.93094 0.82761 0.0
C334 C 0.79662 0.9436 0.85787 0.0
C335 C 0.77481 0.93678 0.87867 0.0
C336 C 0.75408 0.91732 0.86959 0.0
C337 C 0.75584 0.90445 0.83945 0.0
C338 C 0.77769 0.91131 0.81856 0.0
C339 C 0.87854 0.86952 0.75938 0.0
O340 O 0.91975 0.91806 0.73139 0.0
O341 O 0.8782 0.94112 0.74298 0.0
O342 O 0.97689 0.90375 0.77678 0.0
O343 O 0.95274 0.86859 0.75836 0.0
O344 O 0.94405 0.94207 0.80999 0.0
O345 O 0.90804 0.94334 0.78221 0.0
O346 O 0.8797 0.90381 0.83833 0.0
O347 O 0.92516 0.88721 0.83276 0.0
O348 O 0.82488 0.92261 0.78058 0.0
O349 O 0.84484 0.94729 0.8182 0.0
O350 O 0.85701 0.88547 0.75436 0.0
O351 O 0.89246 0.87929 0.78279 0.0
H352 H 1.00214 0.83646 0.73082 0.0
H353 H 0.03068 0.83605 0.68218 0.0
H354 H 0.01856 0.9256 0.67251 0.0
H355 H 0.98922 0.92557 0.7204 0.0
H356 H 0.81209 0.95888 0.8655 0.0
H357 H 0.77426 0.9467 0.90201 0.0
H358 H 0.74006 0.88951 0.83182 0.0
H359 H 0.77824 0.90137 0.79524 0.0
Ho360 Ho 0.88056 0.18551 0.53174 0.0
Ho361 Ho 0.86942 0.12285 0.53785 0.0
C362 C 0.85273 0.15032 0.47204 0.0
C363 C 0.89868 0.23322 0.50952 0.0
C364 C 0.89628 0.24891 0.47885 0.0
C365 C 0.91876 0.26552 0.46809 0.0
C366 C 0.91629 0.28176 0.44013 0.0
C367 C 0.89116 0.2819 0.42239 0.0
C368 C 0.86906 0.26439 0.43264 0.0
C369 C 0.87161 0.24804 0.46043 0.0
C370 C 0.82753 0.17295 0.55196 0.0
C371 C 0.89406 0.15673 0.6004 0.0
C372 C 0.85274 0.07344 0.5546 0.0
C373 C 0.86199 0.05104 0.5765 0.0
C374 C 0.84242 0.03902 0.59735 0.0
C375 C 0.85036 0.01736 0.6179 0.0
C376 C 0.87804 1.007 0.61782 0.0
C377 C 0.89772 0.01923 0.597 0.0
C378 C 0.88979 0.04112 0.57657 0.0
C379 C 0.91874 0.13526 0.50979 0.0
O380 O 0.86674 0.17302 0.4812 0.0
O381 O 0.84691 0.12985 0.49214 0.0
O382 O 0.87586 0.23056 0.52661 0.0
O383 O 0.91335 0.21008 0.50887 0.0
O384 O 0.84184 0.19483 0.56101 0.0
O385 O 0.84193 0.15961 0.5317 0.0
O386 O 0.88341 0.13357 0.58782 0.0
O387 O 0.89685 0.18007 0.58307 0.0
O388 O 0.86859 0.07821 0.52966 0.0
O389 O 0.84335 0.09651 0.5679 0.0
O390 O 0.90435 0.11288 0.50378 0.0
O391 O 0.90795 0.14843 0.53316 0.0
H392 H 0.93808 0.26641 0.48174 0.0
H393 H 0.93365 0.29508 0.43314 0.0
H394 H 0.84953 0.26364 0.41937 0.0
H395 H 0.85407 0.23512 0.46783 0.0
H396 H 0.82093 0.04645 0.59779 0.0
H397 H 0.8348 1.00903 0.63421 0.0
H398 H 0.91917 1.01174 0.59626 0.0
H399 H 0.90538 0.05013 0.56077 0.0
Ho400 Ho 0.59826 0.12993 0.28333 0.0
Ho401 Ho 0.66135 0.11991 0.28974 0.0
C402 C 0.63417 0.10392 0.22362 0.0
C403 C 0.5495 0.14608 0.26221 0.0
C404 C 0.53426 0.14606 0.23097 0.0
C405 C 0.52725 0.17155 0.21594 0.0
C406 C 0.51134 0.17186 0.18759 0.0
C407 C 0.50191 0.14667 0.17352 0.0
C408 C 0.5094 0.12118 0.18842 0.0
C409 C 0.52535 0.12087 0.21662 0.0
C410 C 0.61215 0.07716 0.30352 0.0
C411 C 0.62696 0.14457 0.35169 0.0
C412 C 0.71079 0.10349 0.30667 0.0
C413 C 0.73334 0.11302 0.32828 0.0
C414 C 0.74452 0.09406 0.35047 0.0
C415 C 0.76643 0.10215 0.37062 0.0
C416 C 0.77789 0.12936 0.36881 0.0
C417 C 0.76644 0.14848 0.34675 0.0
C418 C 0.74433 0.14041 0.32667 0.0
C419 C 0.64834 0.16862 0.26084 0.0
O420 O 0.61155 0.11815 0.23251 0.0
O421 O 0.65417 0.0974 0.24411 0.0
O422 O 0.55403 0.12183 0.27587 0.0
O423 O 0.57101 0.16291 0.26502 0.0
O424 O 0.59023 0.09114 0.31302 0.0
O425 O 0.62504 0.09194 0.2833 0.0
O426 O 0.65044 0.13463 0.33925 0.0
O427 O 0.60342 0.14624 0.33455 0.0
O428 O 0.70593 0.11891 0.28138 0.0
O429 O 0.68777 0.0943 0.32025 0.0
O430 O 0.67138 0.15496 0.25599 0.0
O431 O 0.63498 0.1578 0.28406 0.0
H432 H 0.53377 0.19132 0.22637 0.0
H433 H 0.50634 0.19191 0.17679 0.0
H434 H 0.5022 0.1013 0.17889 0.0
H435 H 0.5302 0.1008 0.22747 0.0
H436 H 0.7363 0.07291 0.35222 0.0
H437 H 0.77415 0.08708 0.38792 0.0
H438 H 0.77478 0.16955 0.3447 0.0
H439 H 0.73602 0.15554 0.3098 0.0
Ho440 Ho 0.65033 0.85404 1.02684 0.0
Ho441 Ho 0.66582 0.9145 1.04297 0.0
C442 C 0.68041 0.89384 0.9733 0.0
C443 C 0.62845 0.80998 0.99952 0.0
C444 C 0.63265 0.79235 0.97062 0.0
C445 C 0.61028 0.77615 0.95884 0.0
C446 C 0.61392 0.75845 0.93227 0.0
C447 C 0.64012 0.75647 0.9169 0.0
C448 C 0.66228 0.77346 0.92826 0.0
C449 C 0.65858 0.79123 0.95476 0.0
C450 C 0.70455 0.86066 0.04754 0.0
C451 C 0.64142 0.87518 0.09985 0.0
C452 C 0.68473 0.96193 0.0638 0.0
C453 C 0.67356 0.98544 0.08253 0.0
C454 C 0.65315 0.98124 0.10625 0.0
C455 C 0.64313 1.004 0.12402 0.0
C456 C 0.65324 0.03128 0.11816 0.0
C457 C 0.67279 0.03542 0.0934 0.0
C458 C 0.68289 1.01267 0.07581 0.0
C459 C 0.61464 0.9087 1.01528 0.0
O460 O 0.66405 0.87176 0.97841 0.0
O461 O 0.68877 0.90997 0.99712 0.0
O462 O 0.64767 0.80876 1.02185 0.0
O463 O 0.61975 0.83559 0.99462 0.0
O464 O 0.68946 0.83829 0.05203 0.0
O465 O 0.69062 0.87726 1.03033 0.0
O466 O 0.65631 0.89739 0.09175 0.0
O467 O 0.63323 0.85632 0.07815 0.0
O468 O 0.67339 0.95868 1.03562 0.0
O469 O 0.68855 0.93811 0.07885 0.0
O470 O 0.63026 0.93073 1.01337 0.0
O471 O 0.62538 0.89203 1.03554 0.0
H472 H 0.59002 0.7768 0.97058 0.0
H473 H 0.59647 0.74558 0.9245 0.0
H474 H 0.68265 0.77284 0.91679 0.0
H475 H 0.67606 0.80381 0.9631 0.0
H476 H 0.64536 0.96036 0.11142 0.0
H477 H 0.62837 1.00005 0.1432 0.0
H478 H 0.68073 0.05621 0.08809 0.0
H479 H 0.69826 1.01629 0.05716 0.0
Ho480 Ho 0.93049 0.13403 0.81095 0.0
Ho481 Ho 0.86971 0.11676 0.79633 0.0
C482 C 0.89202 0.10522 0.86655 0.0
C483 C 0.97482 0.15635 0.83698 0.0
C484 C 0.99427 0.15159 0.86443 0.0
C485 C 0.98573 0.15562 0.89643 0.0
C486 C 1.00483 0.15227 0.92181 0.0
C487 C 0.03289 0.14473 0.91585 0.0
C488 C 0.04139 0.14106 0.88381 0.0
C489 C 0.02239 0.14451 0.85851 0.0
C490 C 0.92402 0.07909 0.79259 0.0
C491 C 0.90747 0.14256 0.73849 0.0
C492 C 0.82371 0.09431 0.77614 0.0
C493 C 0.79957 0.10275 0.75645 0.0
C494 C 0.79075 0.08508 0.73166 0.0
C495 C 0.7677 0.09235 0.71287 0.0
C496 C 0.75277 0.11734 0.71874 0.0
C497 C 0.76166 0.13505 0.74367 0.0
C498 C 0.78492 0.12786 0.76233 0.0
C499 C 0.87443 0.16858 0.82243 0.0
O500 O 0.91408 0.12119 0.86012 0.0
O501 O 0.87501 0.09634 0.84379 0.0
O502 O 0.97589 0.13868 0.81299 0.0
O503 O 0.94913 0.16382 0.84369 0.0
O504 O 0.94638 0.09399 0.78743 0.0
O505 O 0.90767 0.09359 0.80934 0.0
O506 O 0.88582 0.127 0.74713 0.0
O507 O 0.92652 0.15117 0.75975 0.0
O508 O 0.82622 0.10672 0.80388 0.0
O509 O 0.84772 0.09137 0.76128 0.0
O510 O 0.85227 0.153 0.82386 0.0
O511 O 0.89149 0.15762 0.80272 0.0
H512 H 0.9643 0.1614 0.90196 0.0
H513 H 0.99748 0.15508 0.94613 0.0
H514 H 0.06292 0.13572 0.87819 0.0
H515 H 0.02979 0.14179 0.83418 0.0
H516 H 0.80182 0.06568 0.72669 0.0
H517 H 0.76193 0.07856 0.69331 0.0
H518 H 0.75059 0.15438 0.74887 0.0
H519 H 0.79137 0.14194 0.78134 0.0
Ho520 Ho 0.6507 0.18092 0.56123 0.0
Ho521 Ho 0.66717 0.11999 0.54602 0.0
C522 C 0.67873 0.14159 0.61643 0.0
C523 C 0.6285 0.22514 0.58767 0.0
C524 C 0.63322 0.24305 0.61619 0.0
C525 C 0.61102 0.25917 0.62847 0.0
C526 C 0.61511 0.27686 0.65495 0.0
C527 C 0.6416 0.27891 0.6697 0.0
C528 C 0.66363 0.26209 0.65778 0.0
C529 C 0.65947 0.24431 0.63139 0.0
C530 C 0.70551 0.17389 0.54258 0.0
C531 C 0.64153 0.15867 0.48886 0.0
C532 C 0.68833 0.07363 0.52505 0.0
C533 C 0.67864 0.05008 0.50525 0.0
C534 C 0.69749 0.03718 0.48426 0.0
C535 C 0.68889 1.0145 0.46555 0.0
C536 C 0.66128 1.00411 0.4677 0.0
C537 C 0.64239 0.01719 0.48881 0.0
C538 C 0.65097 0.04006 0.50735 0.0
C539 C 0.61545 0.12555 0.57192 0.0
O540 O 0.66295 0.16381 0.61016 0.0
O541 O 0.68763 0.12471 0.59354 0.0
O542 O 0.6473 0.22623 0.56488 0.0
O543 O 0.62014 0.19951 0.59328 0.0
O544 O 0.69072 0.19637 0.5375 0.0
O545 O 0.69096 0.15757 0.55935 0.0
O546 O 0.65694 0.13678 0.49709 0.0
O547 O 0.63329 0.17768 0.51027 0.0
O548 O 0.6763 0.07619 0.55298 0.0
O549 O 0.69173 0.09771 0.51046 0.0
O550 O 0.6307 0.10318 0.57367 0.0
O551 O 0.62675 0.14235 0.55227 0.0
H552 H 0.59052 0.25839 0.61725 0.0
H553 H 0.59775 0.28963 0.6632 0.0
H554 H 0.68421 0.26278 0.66877 0.0
H555 H 0.67682 0.23176 0.62266 0.0
H556 H 0.71886 0.04474 0.48221 0.0
H557 H 0.70381 1.00548 0.44892 0.0
H558 H 0.62103 1.00969 0.4911 0.0
H559 H 0.636 0.04984 0.52337 0.0
Ho560 Ho 0.60225 0.90119 0.30722 0.0
Ho561 Ho 0.6645 0.91728 0.29749 0.0
C562 C 0.63782 0.9299 0.3655 0.0
C563 C 0.55676 0.87903 0.33046 0.0
C564 C 0.53915 0.88136 0.35971 0.0
C565 C 0.53112 0.8569 0.3761 0.0
C566 C 0.51367 0.85834 0.40309 0.0
C567 C 0.50371 0.88436 0.41442 0.0
C568 C 0.51215 0.90889 0.39811 0.0
C569 C 0.52969 0.90743 0.3712 0.0
C570 C 0.61119 0.95568 0.28854 0.0
C571 C 0.63004 0.88915 0.23743 0.0
C572 C 0.71139 0.93903 0.27943 0.0
C573 C 0.73519 0.93042 0.25929 0.0
C574 C 0.74467 0.94857 0.23531 0.0
C575 C 0.76727 0.94097 0.21598 0.0
C576 C 0.78108 0.91511 0.22048 0.0
C577 C 0.77156 0.89695 0.24464 0.0
C578 C 0.74876 0.90448 0.26382 0.0
C579 C 0.65709 0.86721 0.32609 0.0
O580 O 0.61573 0.91457 0.35732 0.0
O581 O 0.65673 0.93799 0.34438 0.0
O582 O 0.55685 0.90022 0.31053 0.0
O583 O 0.58171 0.86816 0.33421 0.0
O584 O 0.58893 0.94112 0.28153 0.0
O585 O 0.6261 0.94098 0.30677 0.0
O586 O 0.6528 0.9019 0.24834 0.0
O587 O 0.60772 0.88476 0.25602 0.0
O588 O 0.70822 0.92534 0.30631 0.0
O589 O 0.68758 0.94386 0.26466 0.0
O590 O 0.67949 0.88242 0.32861 0.0
O591 O 0.64164 0.87733 0.30412 0.0
H592 H 0.53822 0.83653 0.36784 0.0
H593 H 0.50804 0.83901 0.41511 0.0
H594 H 0.50465 0.92931 0.40561 0.0
H595 H 0.53554 0.9267 0.35919 0.0
H596 H 0.73444 0.96859 0.23136 0.0
H597 H 0.77352 0.95518 0.19706 0.0
H598 H 0.78177 0.87697 0.24882 0.0
H599 H 0.7418 0.88999 0.28215 0.0
Ho600 Ho 0.88147 0.85268 0.06013 0.0
Ho601 Ho 0.86481 0.91381 0.04691 0.0
C602 C 0.85341 0.8908 0.1166 0.0
C603 C 0.90344 0.80782 0.08541 0.0
C604 C 0.89897 0.78859 0.11315 0.0
C605 C 0.90366 0.79721 0.14504 0.0
C606 C 0.90036 0.77826 0.1706 0.0
C607 C 0.89219 0.75029 0.16495 0.0
C608 C 0.88791 0.74173 0.13301 0.0
C609 C 0.89131 0.76056 0.10755 0.0
C610 C 0.82667 0.85987 1.04175 0.0
C611 C 0.88939 0.87629 0.98813 0.0
C612 C 0.84363 0.96061 1.02716 0.0
C613 C 0.85249 0.98431 1.00692 0.0
C614 C 0.83489 0.99319 0.98208 0.0
C615 C 0.84246 1.01593 0.96294 0.0
C616 C 0.86772 0.03051 0.96846 0.0
C617 C 0.88542 0.02149 0.99334 0.0
C618 C 0.87791 0.99856 1.01237 0.0
C619 C 0.9166 0.90784 0.07274 0.0
O620 O 0.86911 0.86867 0.1096 0.0
O621 O 0.84447 0.90822 0.09429 0.0
O622 O 0.88492 0.80718 0.06227 0.0
O623 O 0.91201 0.83333 0.09154 0.0
O624 O 0.84157 0.83764 1.03581 0.0
O625 O 0.84109 0.87587 0.05914 0.0
O626 O 0.87436 0.89808 0.99744 0.0
O627 O 0.8981 0.85686 1.00884 0.0
O628 O 0.85663 0.95775 0.0545 0.0
O629 O 0.83929 0.93662 1.01266 0.0
O630 O 0.90118 0.93004 0.07517 0.0
O631 O 0.90543 0.89145 0.05245 0.0
H632 H 0.90988 0.81858 0.15031 0.0
H633 H 0.90368 0.78566 0.19483 0.0
H634 H 0.88208 0.72027 0.12759 0.0
H635 H 0.88805 0.75309 0.08332 0.0
H636 H 0.81526 0.98244 0.97739 0.0
H637 H 0.82865 0.02179 0.94345 0.0
H638 H 0.90495 0.03228 0.99828 0.0
H639 H 0.89196 0.99209 1.03139 0.0
Ho640 Ho 0.66497 0.61661 0.7961 0.0
Ho641 Ho 0.60436 0.63215 0.81114 0.0
C642 C 0.62614 0.64062 0.73849 0.0
C643 C 0.71204 0.5972 0.77492 0.0
C644 C 0.73537 0.60823 0.75583 0.0
C645 C 0.75121 0.58974 0.73719 0.0
C646 C 0.77354 0.59974 0.71891 0.0
C647 C 0.78059 0.62847 0.71913 0.0
C648 C 0.7646 0.64698 0.73797 0.0
C649 C 0.7421 0.63694 0.75612 0.0
C650 C 0.65898 0.66824 0.82246 0.0
C651 C 0.64366 0.60243 0.86566 0.0
C652 C 0.5598 0.65356 0.83776 0.0
C653 C 0.54019 0.64867 0.86508 0.0
C654 C 0.54765 0.65526 0.89691 0.0
C655 C 0.52824 0.65209 0.92202 0.0
C656 C 0.5009 0.64222 0.91599 0.0
C657 C 0.49347 0.63598 0.88409 0.0
C658 C 0.51277 0.63922 0.85907 0.0
C659 C 0.61152 0.5777 0.79123 0.0
O660 O 0.64797 0.62536 0.74708 0.0
O661 O 0.60741 0.64947 0.75994 0.0
O662 O 0.70895 0.60834 0.80327 0.0
O663 O 0.6882 0.59373 0.7599 0.0
O664 O 0.68106 0.65272 0.82496 0.0
O665 O 0.64233 0.65718 0.80239 0.0
O666 O 0.62158 0.61867 0.85997 0.0
O667 O 0.66025 0.59415 0.84224 0.0
O668 O 0.55892 0.63603 0.81363 0.0
O669 O 0.58543 0.66125 0.84456 0.0
O670 O 0.58905 0.59253 0.78633 0.0
O671 O 0.62767 0.59199 0.80854 0.0
H672 H 0.74617 0.56756 0.73656 0.0
H673 H 0.78486 0.58497 0.70402 0.0
H674 H 0.76948 0.66917 0.73873 0.0
H675 H 0.72996 0.65158 0.77035 0.0
H676 H 0.56845 0.66301 0.90248 0.0
H677 H 0.5348 0.65696 0.94622 0.0
H678 H 0.4725 0.62884 0.87831 0.0
H679 H 0.50608 0.63456 0.83484 0.0
Ho680 Ho 0.66516 0.41038 0.04935 0.0
Ho681 Ho 0.65536 0.34717 0.05373 0.0
C682 C 0.64187 0.377 0.98582 0.0
C683 C 0.68139 0.46056 1.03505 0.0
C684 C 0.67392 0.48291 1.01204 0.0
C685 C 0.6848 0.48265 0.98082 0.0
C686 C 0.6789 0.50458 0.95979 0.0
C687 C 0.6621 0.5273 0.9695 0.0
C688 C 0.65074 0.52739 1.00046 0.0
C689 C 0.65679 0.50548 1.02165 0.0
C690 C 0.61615 0.39638 0.07663 0.0
C691 C 0.67974 0.382 0.11518 0.0
C692 C 0.63807 0.2979 0.07224 0.0
C693 C 0.63608 0.28165 0.10241 0.0
C694 C 0.64219 0.29378 0.13228 0.0
C695 C 0.64092 0.27767 0.16039 0.0
C696 C 0.63347 0.24904 0.1593 0.0
C697 C 0.62693 0.23718 0.12928 0.0
C698 C 0.62824 0.2533 0.10124 0.0
C699 C 0.70827 0.36195 1.03479 0.0
O700 O 0.65166 0.40031 0.99897 0.0
O701 O 0.63995 0.3532 1.00239 0.0
O702 O 0.66288 0.45507 0.05726 0.0
O703 O 0.69331 0.43785 1.02362 0.0
O704 O 0.62993 0.41902 0.0832 0.0
O705 O 0.62728 0.3837 0.05312 0.0
O706 O 0.66621 0.35939 0.10504 0.0
O707 O 0.6862 0.4028 0.09582 0.0
O708 O 0.66328 0.3028 0.06136 0.0
O709 O 0.62175 0.31981 0.06959 0.0
O710 O 0.69459 0.34012 1.02439 0.0
O711 O 0.69319 0.37409 0.05535 0.0
H712 H 0.69812 0.46568 0.97264 0.0
H713 H 0.68759 0.50382 0.93584 0.0
H714 H 0.63783 0.54473 1.00851 0.0
H715 H 0.64835 0.50641 0.0457 0.0
H716 H 0.64817 0.3156 0.13395 0.0
H717 H 0.64584 0.28767 0.183 0.0
H718 H 0.6216 0.21515 0.12724 0.0
H719 H 0.62346 0.24345 0.07848 0.0
Ho720 Ho 0.86855 0.41729 0.2951 0.0
Ho721 Ho 0.92903 0.40186 0.31154 0.0
C722 C 0.90773 0.39205 0.23862 0.0
C723 C 0.82178 0.43681 0.27316 0.0
C724 C 0.79828 0.42594 0.25419 0.0
C725 C 0.78322 0.44439 0.23465 0.0
C726 C 0.76064 0.43463 0.21657 0.0
C727 C 0.75254 0.40621 0.21787 0.0
C728 C 0.76776 0.38773 0.23758 0.0
C729 C 0.79052 0.39751 0.25554 0.0
C730 C 0.87405 0.36623 0.32305 0.0
C731 C 0.88927 0.43291 0.36463 0.0
C732 C 0.97328 0.38064 0.33915 0.0
C733 C 0.99301 0.3857 0.36636 0.0
C734 C 0.98547 0.37979 0.39832 0.0
C735 C 1.00502 0.3828 0.42334 0.0
C736 C 0.03261 0.39181 0.4171 0.0
C737 C 0.0401 0.39743 0.38509 0.0
C738 C 0.02064 0.39436 0.36015 0.0
C739 C 0.9222 0.45606 0.29052 0.0
O740 O 0.88579 0.40742 0.2465 0.0
O741 O 0.92636 0.38376 0.26054 0.0
O742 O 0.82463 0.42609 0.30175 0.0
O743 O 0.84571 0.43968 0.25817 0.0
O744 O 0.85194 0.38181 0.32451 0.0
O745 O 0.89101 0.37681 0.303 0.0
O746 O 0.91122 0.41627 0.3598 0.0
O747 O 0.87317 0.44084 0.34059 0.0
O748 O 0.97445 0.39758 0.31452 0.0
O749 O 0.94753 0.37356 0.34612 0.0
O750 O 0.94478 0.44121 0.28648 0.0
O751 O 0.90581 0.44192 0.30762 0.0
H752 H 0.78905 0.46634 0.2332 0.0
H753 H 0.74995 0.44932 0.20098 0.0
H754 H 0.76207 0.36577 0.23916 0.0
H755 H 0.80203 0.38291 0.27048 0.0
H756 H 0.96449 0.37265 0.40406 0.0
H757 H 0.9984 0.37844 0.44763 0.0
H758 H 0.06124 0.4039 0.37914 0.0
H759 H 0.02739 0.39846 0.33583 0.0
Ho760 Ho 0.86854 0.6233 0.55104 0.0
Ho761 Ho 0.87809 0.68649 0.55436 0.0
C762 C 0.89145 0.65597 0.48692 0.0
C763 C 0.85322 0.57264 0.53761 0.0
C764 C 0.86038 0.55093 0.51379 0.0
C765 C 0.85473 0.55484 0.4811 0.0
C766 C 0.86056 0.53353 0.4592 0.0
C767 C 0.87233 0.50802 0.46948 0.0
C768 C 0.8788 0.50436 0.50195 0.0
C769 C 0.87265 0.5256 0.52399 0.0
C770 C 0.91725 0.63782 0.57868 0.0
C771 C 0.85334 0.65267 0.61638 0.0
C772 C 0.89484 0.73587 0.57285 0.0
C773 C 0.89414 0.75336 0.60253 0.0
C774 C 0.91551 0.75172 0.62586 0.0
C775 C 0.91559 0.76984 0.6525 0.0
C776 C 0.89448 0.79025 0.65623 0.0
C777 C 0.87283 0.79131 0.63326 0.0
C778 C 0.87274 0.7733 0.6068 0.0
C779 C 0.82513 0.67138 0.53571 0.0
O780 O 0.88124 0.63296 0.50031 0.0
O781 O 0.89402 0.67977 0.50337 0.0
O782 O 0.87285 0.57864 0.55835 0.0
O783 O 0.83977 0.59495 0.52745 0.0
O784 O 0.90326 0.61545 0.58575 0.0
O785 O 0.90637 0.65009 0.55468 0.0
O786 O 0.86622 0.67551 0.60576 0.0
O787 O 0.84767 0.63121 0.59756 0.0
O788 O 0.87101 0.73132 0.55822 0.0
O789 O 0.91093 0.71367 0.57278 0.0
O790 O 0.83877 0.6931 0.52502 0.0
O791 O 0.84028 0.65951 0.55642 0.0
H792 H 0.84552 0.57419 0.47241 0.0
H793 H 0.85569 0.5369 0.43414 0.0
H794 H 0.88777 0.48481 0.51037 0.0
H795 H 0.87717 0.52211 0.5491 0.0
H796 H 0.93252 0.73682 0.62326 0.0
H797 H 0.93263 0.76845 0.66959 0.0
H798 H 0.85588 0.80632 0.63557 0.0
H799 H 0.85602 0.77534 0.58937 0.0
Ho800 Ho 0.66686 0.41734 0.79241 0.0
Ho801 Ho 0.60659 0.40138 0.77597 0.0
C802 C 0.62778 0.39185 0.84867 0.0
C803 C 0.71365 0.43663 0.81458 0.0
C804 C 0.73704 0.42557 0.83361 0.0
C805 C 0.75271 0.444 0.85253 0.0
C806 C 0.7753 0.43407 0.87048 0.0
C807 C 0.7828 0.40546 0.86967 0.0
C808 C 0.7669 0.38697 0.85068 0.0
C809 C 0.74414 0.39694 0.83283 0.0
C810 C 0.66142 0.36597 0.76513 0.0
C811 C 0.64612 0.43266 0.72296 0.0
C812 C 0.56269 0.37965 0.74824 0.0
C813 C 0.54316 0.38451 0.72083 0.0
C814 C 0.55135 0.37974 0.68882 0.0
C815 C 0.53204 0.38278 0.66356 0.0
C816 C 0.50409 0.39071 0.66964 0.0
C817 C 0.49596 0.39511 0.70169 0.0
C818 C 0.51516 0.39199 0.72685 0.0
C819 C 0.61275 0.45559 0.79716 0.0
O820 O 0.6494 0.40769 0.84094 0.0
O821 O 0.60943 0.38314 0.82671 0.0
O822 O 0.71084 0.42598 0.78595 0.0
O823 O 0.68969 0.43961 0.82946 0.0
O824 O 0.68332 0.38176 0.76282 0.0
O825 O 0.64466 0.37672 0.78519 0.0
O826 O 0.62447 0.41565 0.72777 0.0
O827 O 0.66206 0.4409 0.74701 0.0
O828 O 0.56125 0.39678 0.7727 0.0
O829 O 0.58852 0.37261 0.74158 0.0
O830 O 0.59042 0.44038 0.80127 0.0
O831 O 0.62936 0.44177 0.77994 0.0
H832 H 0.7474 0.46611 0.85355 0.0
H833 H 0.78653 0.4488 0.88553 0.0
H834 H 0.7721 0.36486 0.84949 0.0
H835 H 0.73214 0.38235 0.81837 0.0
H836 H 0.57265 0.37354 0.68322 0.0
H837 H 0.53912 0.37938 0.63924 0.0
H838 H 0.47453 0.40075 0.70745 0.0
H839 H 0.50797 0.39521 0.75118 0.0
Ho840 Ho 0.87346 0.41024 1.03618 0.0
Ho841 Ho 0.88299 0.34713 1.03243 0.0
C842 C 0.89546 0.37711 0.10056 0.0
C843 C 0.85838 0.46105 0.04914 0.0
C844 C 0.86465 0.48281 0.07316 0.0
C845 C 0.85864 0.47867 0.10571 0.0
C846 C 0.86349 0.50013 0.12772 0.0
C847 C 0.87461 0.52599 0.11766 0.0
C848 C 0.88147 0.52986 0.08535 0.0
C849 C 0.87631 0.50847 0.0632 0.0
C850 C 0.92278 0.39549 1.00991 0.0
C851 C 0.85781 0.38145 0.97054 0.0
C852 C 0.90079 0.29899 1.01129 0.0
C853 C 0.89786 0.28308 0.98083 0.0
C854 C 0.92051 0.26723 0.96907 0.0
C855 C 0.9178 0.25131 0.94087 0.0
C856 C 0.89227 0.25078 0.92392 0.0
C857 C 0.86993 0.26747 0.93524 0.0
C858 C 0.87272 0.2835 0.96324 0.0
C859 C 0.82978 0.36181 0.05029 0.0
O860 O 0.88513 0.40013 0.08721 0.0
O861 O 0.89853 0.35347 0.08381 0.0
O862 O 0.87883 0.45485 1.02958 0.0
O863 O 0.84434 0.43889 0.05862 0.0
O864 O 0.90859 0.41743 1.0017 0.0
O865 O 0.91129 0.38344 1.03361 0.0
O866 O 0.86989 0.35823 0.98136 0.0
O867 O 0.85303 0.40319 0.98922 0.0
O868 O 0.87826 0.30194 1.02888 0.0
O869 O 0.91551 0.32206 1.00988 0.0
O870 O 0.84315 0.33967 0.06041 0.0
O871 O 0.84521 0.37408 1.03015 0.0
H872 H 0.84989 0.45904 0.11417 0.0
H873 H 0.85834 0.49662 0.15267 0.0
H874 H 0.88997 0.54968 0.07712 0.0
H875 H 0.8811 0.51209 1.03819 0.0
H876 H 0.94021 0.26676 0.98202 0.0
H877 H 0.93534 0.23861 0.93302 0.0
H878 H 0.85009 0.26788 0.92259 0.0
H879 H 0.85505 0.29591 0.97137 0.0
Ho880 Ho 0.86633 0.61594 0.2922 0.0
Ho881 Ho 0.92666 0.63259 0.27675 0.0
C882 C 0.90477 0.64129 0.3493 0.0
C883 C 0.81956 0.59617 0.31373 0.0
C884 C 0.79624 0.60742 0.33264 0.0
C885 C 0.77949 0.58901 0.3503 0.0
C886 C 0.75719 0.5993 0.36845 0.0
C887 C 0.75112 0.62825 0.36909 0.0
C888 C 0.76802 0.64667 0.35122 0.0
C889 C 0.79047 0.63633 0.33319 0.0
C890 C 0.87147 0.66731 0.26488 0.0
C891 C 0.88796 0.60121 0.22288 0.0
C892 C 0.97059 0.65513 0.25016 0.0
C893 C 0.99053 0.65072 0.22317 0.0
C894 C 0.98176 0.65071 0.19091 0.0
C895 C 1.00139 0.64785 0.16597 0.0
C896 C 0.03017 0.6448 0.17273 0.0
C897 C 0.0388 0.64521 0.205 0.0
C898 C 0.01928 0.64819 0.22979 0.0
C899 C 0.92074 0.57815 0.29725 0.0
O900 O 0.88328 0.62546 0.34103 0.0
O901 O 0.92324 0.65032 0.3277 0.0
O902 O 0.82248 0.60688 0.28516 0.0
O903 O 0.84347 0.5932 0.32877 0.0
O904 O 0.84966 0.65139 0.26267 0.0
O905 O 0.88819 0.65676 0.28519 0.0
O906 O 0.90954 0.61824 0.22817 0.0
O907 O 0.87177 0.59278 0.24659 0.0
O908 O 0.97197 0.63774 0.27437 0.0
O909 O 0.94477 0.6619 0.24306 0.0
O910 O 0.94296 0.59345 0.30174 0.0
O911 O 0.90418 0.59202 0.28002 0.0
H912 H 0.78379 0.56666 0.35027 0.0
H913 H 0.74514 0.58456 0.38259 0.0
H914 H 0.76389 0.66902 0.35114 0.0
H915 H 0.80332 0.65088 0.31971 0.0
H916 H 0.95976 0.65287 0.18488 0.0
H917 H 0.99398 0.6474 0.14145 0.0
H918 H 0.0608 0.64331 0.21114 0.0
H919 H 0.02675 0.64864 0.2543 0.0
Ho920 Ho 0.66102 0.62257 0.53582 0.0
Ho921 Ho 0.65016 0.68565 0.53263 0.0
C922 C 0.63837 0.65496 0.60034 0.0
C923 C 0.67623 0.57167 0.54806 0.0
C924 C 0.67035 0.55002 0.57226 0.0
C925 C 0.67562 0.55479 0.60488 0.0
C926 C 0.67079 0.53356 0.62716 0.0
C927 C 0.66041 0.50732 0.61729 0.0
C928 C 0.65433 0.5028 0.58487 0.0
C929 C 0.65948 0.52396 0.56247 0.0
C930 C 0.61157 0.63694 0.50912 0.0
C931 C 0.67726 0.65248 0.4709 0.0
C932 C 0.63025 0.73298 0.5117 0.0
C933 C 0.63334 0.75066 0.48253 0.0
C934 C 0.60942 0.75866 0.46496 0.0
C935 C 0.61174 0.77631 0.43813 0.0
C936 C 0.63807 0.78653 0.4284 0.0
C937 C 0.66206 0.77772 0.44547 0.0
C938 C 0.65975 0.76003 0.47212 0.0
C939 C 0.70361 0.67198 0.5508 0.0
O940 O 0.64946 0.63232 0.58694 0.0
O941 O 0.63445 0.67849 0.58368 0.0
O942 O 0.65529 0.578 0.52921 0.0
O943 O 0.69064 0.59373 0.55713 0.0
O944 O 0.62664 0.61578 0.50025 0.0
O945 O 0.62279 0.64868 0.53321 0.0
O946 O 0.665 0.67555 0.48191 0.0
O947 O 0.68178 0.63041 0.48919 0.0
O948 O 0.65171 0.73115 0.53123 0.0
O949 O 0.61762 0.70888 0.50778 0.0
O950 O 0.69001 0.69417 0.56042 0.0
O951 O 0.68842 0.65941 0.53066 0.0
H952 H 0.68368 0.57476 0.6132 0.0
H953 H 0.67532 0.53758 0.65218 0.0
H954 H 0.64641 0.48269 0.57678 0.0
H955 H 0.65522 0.5199 0.5374 0.0
H956 H 0.5888 0.7516 0.47233 0.0
H957 H 0.59285 0.78271 0.42569 0.0
H958 H 0.68275 0.78475 0.43836 0.0
H959 H 0.67866 0.75398 0.48476 0.0
Ho960 Ho 0.43637 0.40349 0.28195 0.0
Ho961 Ho 0.37307 0.41192 0.28441 0.0
C962 C 0.40263 0.42723 0.21933 0.0
C963 C 0.48582 0.38736 0.26348 0.0
C964 C 0.50127 0.38643 0.2325 0.0
C965 C 0.50985 0.36053 0.21961 0.0
C966 C 0.52547 0.35938 0.19114 0.0
C967 C 0.53301 0.38415 0.17483 0.0
C968 C 0.52398 0.41002 0.18762 0.0
C969 C 0.5083 0.41114 0.21595 0.0
C970 C 0.42035 0.45617 0.30022 0.0
C971 C 0.4058 0.39053 0.3493 0.0
C972 C 0.32193 0.42627 0.29657 0.0
C973 C 0.30068 0.42017 0.32113 0.0
C974 C 0.30634 0.42425 0.35378 0.0
C975 C 0.28556 0.41916 0.3765 0.0
C976 C 0.25889 0.40966 0.36704 0.0
C977 C 0.25348 0.4047 0.33453 0.0
C978 C 0.27422 0.41012 0.3117 0.0
C979 C 0.38897 0.36367 0.25662 0.0
O980 O 0.42547 0.41455 0.23027 0.0
O981 O 0.38098 0.43272 0.23788 0.0
O982 O 0.48066 0.41206 0.2758 0.0
O983 O 0.46456 0.37026 0.26657 0.0
O984 O 0.44218 0.44289 0.31125 0.0
O985 O 0.40876 0.44084 0.27945 0.0
O986 O 0.38269 0.40013 0.33549 0.0
O987 O 0.42975 0.38821 0.33314 0.0
O988 O 0.32861 0.40526 0.27798 0.0
O989 O 0.34373 0.44124 0.30527 0.0
O990 O 0.36655 0.37739 0.24904 0.0
O991 O 0.40052 0.37458 0.28104 0.0
H992 H 0.50469 0.34112 0.23175 0.0
H993 H 0.5317 0.33905 0.18198 0.0
H994 H 0.52971 0.42963 0.17629 0.0
H995 H 0.50208 0.43149 0.22508 0.0
H996 H 0.32667 0.43162 0.36179 0.0
H997 H 0.29025 0.42281 0.40155 0.0
H998 H 0.23303 0.39747 0.32675 0.0
H999 H 0.26951 0.40672 0.28661 0.0
Ho1000 Ho 0.38024 0.67753 1.02554 0.0
Ho1001 Ho 0.3648 0.61701 1.04178 0.0
C1002 C 0.34941 0.6378 0.97234 0.0
C1003 C 0.40168 0.72175 0.9982 0.0
C1004 C 0.39675 0.74152 0.971 0.0
C1005 C 0.40289 0.73409 0.93906 0.0
C1006 C 0.39985 0.75369 0.91409 0.0
C1007 C 0.39058 0.78121 0.92039 0.0
C1008 C 0.38476 0.78859 0.9524 0.0
C1009 C 0.38787 0.7691 0.97726 0.0
C1010 C 0.32613 0.67087 0.04665 0.0
C1011 C 0.38968 0.65632 0.09832 0.0
C1012 C 0.34584 0.56994 0.06351 0.0
C1013 C 0.35722 0.54643 0.08206 0.0
C1014 C 0.33899 0.53007 0.10042 0.0
C1015 C 0.3493 0.50749 0.11811 0.0
C1016 C 0.37808 0.50072 0.11758 0.0
C1017 C 0.39633 0.51723 0.09902 0.0
C1018 C 0.38598 0.53998 0.08144 0.0
C1019 C 0.41593 0.62289 1.01406 0.0
O1020 O 0.36613 0.65966 0.97725 0.0
O1021 O 0.34124 0.62177 0.99632 0.0
O1022 O 0.38455 0.72291 1.02264 0.0
O1023 O 0.40891 0.69599 0.99131 0.0
O1024 O 0.34104 0.69342 0.0506 0.0
O1025 O 0.34005 0.6543 1.02946 0.0
O1026 O 0.37419 0.63447 0.09041 0.0
O1027 O 0.39824 0.67481 0.07645 0.0
O1028 O 0.35617 0.57306 1.0348 0.0
O1029 O 0.34299 0.59377 0.07877 0.0
O1030 O 0.40037 0.60079 1.01212 0.0
O1031 O 0.40519 0.63954 1.0343 0.0
H1032 H 0.4102 0.71316 0.93329 0.0
H1033 H 0.40438 0.74716 0.8898 0.0
H1034 H 0.37809 0.80968 0.95839 0.0
H1035 H 0.38358 0.77576 1.00158 0.0
H1036 H 0.31678 0.53488 0.10128 0.0
H1037 H 0.33473 0.49576 0.13282 0.0
H1038 H 0.41855 0.51258 0.09805 0.0
H1039 H 0.40039 0.55251 0.06739 0.0
Ho1040 Ho 0.09755 0.63028 0.78236 0.0
Ho1041 Ho 0.16071 0.61998 0.78475 0.0
C1042 C 0.13086 0.60568 0.71956 0.0
C1043 C 0.04862 0.64913 0.76483 0.0
C1044 C 0.03182 0.65073 0.73502 0.0
C1045 C 0.04373 0.64534 0.70487 0.0
C1046 C 0.02732 0.64672 0.67701 0.0
C1047 C 0.99855 0.65343 0.67863 0.0
C1048 C 0.98684 0.65907 0.70894 0.0
C1049 C 1.00329 0.65776 0.73674 0.0
C1050 C 0.11194 0.57699 0.79968 0.0
C1051 C 0.12848 0.64039 0.85032 0.0
C1052 C 0.21161 0.60455 0.79669 0.0
C1053 C 0.23333 0.61045 0.82089 0.0
C1054 C 0.22958 0.6029 0.85309 0.0
C1055 C 0.25075 0.608 0.87538 0.0
C1056 C 0.27599 0.62084 0.86598 0.0
C1057 C 0.27955 0.62898 0.834 0.0
C1058 C 0.25843 0.62362 0.81156 0.0
C1059 C 0.14601 0.6696 0.75905 0.0
O1060 O 0.10822 0.61853 0.73075 0.0
O1061 O 0.1525 0.59977 0.73797 0.0
O1062 O 0.05264 0.62415 0.77689 0.0
O1063 O 0.07129 0.66452 0.76595 0.0
O1064 O 0.09023 0.59056 0.81058 0.0
O1065 O 0.12411 0.59225 0.77929 0.0
O1066 O 0.15123 0.63033 0.83619 0.0
O1067 O 0.10473 0.64428 0.83409 0.0
O1068 O 0.20524 0.62541 0.77774 0.0
O1069 O 0.18954 0.59023 0.80583 0.0
O1070 O 0.16782 0.65536 0.75054 0.0
O1071 O 0.13425 0.65808 0.78291 0.0
H1072 H 0.06565 0.63992 0.70276 0.0
H1073 H 0.03721 0.64249 0.65418 0.0
H1074 H 0.96472 0.66378 0.71139 0.0
H1075 H 0.99361 0.66195 0.75972 0.0
H1076 H 0.21041 0.59292 0.86109 0.0
H1077 H 0.24739 0.60187 0.90006 0.0
H1078 H 0.29887 0.63882 0.82623 0.0
H1079 H 0.26179 0.62959 0.78683 0.0
Ho1080 Ho 0.1535 0.35494 0.52605 0.0
Ho1081 Ho 0.16925 0.41528 0.54311 0.0
C1082 C 0.18505 0.39477 0.47358 0.0
C1083 C 0.13099 0.31144 0.49821 0.0
C1084 C 0.13489 0.29317 0.46976 0.0
C1085 C 0.11165 0.27899 0.45678 0.0
C1086 C 0.11486 0.26046 0.43088 0.0
C1087 C 0.14147 0.25557 0.41742 0.0
C1088 C 0.16458 0.27061 0.42986 0.0
C1089 C 0.16132 0.28921 0.45568 0.0
C1090 C 0.20765 0.3611 0.54737 0.0
C1091 C 0.14443 0.37539 0.59919 0.0
C1092 C 0.18824 0.46218 0.5654 0.0
C1093 C 0.17665 0.48578 0.58364 0.0
C1094 C 0.19474 0.50268 0.60158 0.0
C1095 C 0.18421 0.52538 0.61891 0.0
C1096 C 0.15533 0.53173 0.61844 0.0
C1097 C 0.13722 0.51467 0.6003 0.0
C1098 C 0.1478 0.49181 0.58308 0.0
C1099 C 0.11816 0.40988 0.51508 0.0
O1100 O 0.168 0.37308 0.47806 0.0
O1101 O 0.19315 0.41053 0.49787 0.0
O1102 O 0.14965 0.30974 0.52112 0.0
O1103 O 0.12337 0.3373 0.49268 0.0
O1104 O 0.19262 0.33856 0.55097 0.0
O1105 O 0.19377 0.37793 0.53047 0.0
O1106 O 0.15975 0.39742 0.59152 0.0
O1107 O 0.136 0.35696 0.57717 0.0
O1108 O 0.17844 0.45915 0.53641 0.0
O1109 O 0.19058 0.43833 0.58069 0.0
O1110 O 0.13386 0.43189 0.51338 0.0
O1111 O 0.12879 0.39304 0.5352 0.0
H1112 H 0.091 0.28183 0.46713 0.0
H1113 H 0.09665 0.24917 0.42221 0.0
H1114 H 0.18533 0.26775 0.41983 0.0
H1115 H 0.17952 0.30018 0.46494 0.0
H1116 H 0.21703 0.4982 0.60238 0.0
H1117 H 0.1987 0.53754 0.6333 0.0
H1118 H 0.11492 0.51898 0.5994 0.0
H1119 H 0.13349 0.47887 0.56932 0.0
Ho1120 Ho 0.43374 0.6304 0.30387 0.0
Ho1121 Ho 0.37072 0.62045 0.29986 0.0
C1122 C 0.39975 0.60569 0.36533 0.0
C1123 C 0.4829 0.64734 0.32248 0.0
C1124 C 0.49758 0.65109 0.35352 0.0
C1125 C 0.51643 0.67344 0.35738 0.0
C1126 C 0.5324 0.67602 0.38542 0.0
C1127 C 0.52994 0.65622 0.41032 0.0
C1128 C 0.51003 0.63455 0.40697 0.0
C1129 C 0.49401 0.63203 0.3789 0.0
C1130 C 0.41918 0.57756 0.28453 0.0
C1131 C 0.40371 0.64367 0.23602 0.0
C1132 C 0.32074 0.60341 0.28599 0.0
C1133 C 0.29764 0.61084 0.26399 0.0
C1134 C 0.29261 0.59407 0.237 0.0
C1135 C 0.27021 0.59997 0.21665 0.0
C1136 C 0.25207 0.62259 0.22302 0.0
C1137 C 0.25715 0.63955 0.2499 0.0
C1138 C 0.27967 0.63366 0.27031 0.0
C1139 C 0.38456 0.66922 0.3281 0.0
O1140 O 0.42185 0.62015 0.35545 0.0
O1141 O 0.37926 0.59869 0.34573 0.0
O1142 O 0.4774 0.62157 0.31378 0.0
O1143 O 0.46214 0.66443 0.31636 0.0
O1144 O 0.44084 0.59144 0.27411 0.0
O1145 O 0.40701 0.59242 0.30527 0.0
O1146 O 0.38032 0.63446 0.24951 0.0
O1147 O 0.42766 0.64522 0.25235 0.0
O1148 O 0.32624 0.62111 0.30908 0.0
O1149 O 0.34345 0.59277 0.2731 0.0
O1150 O 0.3618 0.65544 0.33409 0.0
O1151 O 0.39714 0.65844 0.3043 0.0
H1152 H 0.51935 0.68857 0.3383 0.0
H1153 H 0.54716 0.69323 0.3873 0.0
H1154 H 0.5077 0.61874 0.42539 0.0
H1155 H 0.47947 0.61466 0.37669 0.0
H1156 H 0.30596 0.57627 0.23164 0.0
H1157 H 0.26724 0.58687 0.19572 0.0
H1158 H 0.24347 0.65705 0.25543 0.0
H1159 H 0.28281 0.64685 0.29113 0.0
Ho1160 Ho 0.14937 0.67672 0.0609 0.0
Ho1161 Ho 0.16633 0.61554 0.0494 0.0
C1162 C 0.1785 0.64013 0.11816 0.0
C1163 C 0.12664 0.7214 0.08573 0.0
C1164 C 0.1307 0.73904 0.11465 0.0
C1165 C 0.10829 0.75511 0.12659 0.0
C1166 C 0.11199 0.77274 0.15324 0.0
C1167 C 0.13827 0.77478 0.16846 0.0
C1168 C 0.16042 0.75787 0.157 0.0
C1169 C 0.15666 0.74017 0.13048 0.0
C1170 C 0.20401 0.6697 1.04226 0.0
C1171 C 0.14207 0.6519 0.98934 0.0
C1172 C 0.18683 0.56783 1.0315 0.0
C1173 C 0.17717 0.5445 1.01148 0.0
C1174 C 0.18923 0.51794 1.01544 0.0
C1175 C 0.18039 0.49545 0.99653 0.0
C1176 C 0.15934 0.49922 0.97328 0.0
C1177 C 0.14662 0.52575 0.9702 0.0
C1178 C 0.15544 0.54822 0.98923 0.0
C1179 C 0.11469 0.62197 0.07533 0.0
O1180 O 0.1624 0.66187 0.11071 0.0
O1181 O 0.18736 0.62235 0.09617 0.0
O1182 O 0.14641 0.72208 0.06403 0.0
O1183 O 0.11741 0.69596 0.09066 0.0
O1184 O 0.18879 0.6916 1.03571 0.0
O1185 O 0.18997 0.65389 0.06029 0.0
O1186 O 0.15667 0.63008 0.99953 0.0
O1187 O 0.13337 0.67188 1.00938 0.0
O1188 O 0.17279 0.57136 0.05799 0.0
O1189 O 0.19222 0.59152 1.01684 0.0
O1190 O 0.1305 0.60022 0.07902 0.0
O1191 O 0.12557 0.63772 0.05425 0.0
H1192 H 0.08799 0.7544 0.11492 0.0
H1193 H 0.09455 0.78555 0.16117 0.0
H1194 H 0.18084 0.75855 0.16836 0.0
H1195 H 0.17416 0.72766 0.12207 0.0
H1196 H 0.20571 0.51466 1.03294 0.0
H1197 H 0.19039 0.47521 0.99966 0.0
H1198 H 0.13065 0.52944 0.95222 0.0
H1199 H 0.14563 0.56857 0.98622 0.0
Ho1200 Ho 0.10515 0.40121 0.80635 0.0
Ho1201 Ho 0.1667 0.41729 0.79663 0.0
C1202 C 0.14071 0.4298 0.86454 0.0
C1203 C 0.0591 0.37951 0.82883 0.0
C1204 C 0.04252 0.37963 0.85887 0.0
C1205 C 0.0288 0.35498 0.8685 0.0
C1206 C 1.01187 0.35469 0.89592 0.0
C1207 C 1.00817 0.37913 0.91445 0.0
C1208 C 0.02264 0.40366 0.90517 0.0
C1209 C 0.03967 0.40389 0.87774 0.0
C1210 C 0.11368 0.4554 0.78666 0.0
C1211 C 0.13248 0.38927 0.73646 0.0
C1212 C 0.21367 0.43905 0.77879 0.0
C1213 C 0.23753 0.43108 0.75837 0.0
C1214 C 0.24522 0.44873 0.73309 0.0
C1215 C 0.26792 0.44188 0.7136 0.0
C1216 C 0.28366 0.41735 0.71924 0.0
C1217 C 0.27596 0.39968 0.74466 0.0
C1218 C 0.25305 0.40644 0.76404 0.0
C1219 C 0.15977 0.36699 0.82493 0.0
O1220 O 0.11916 0.41358 0.8567 0.0
O1221 O 0.15882 0.43862 0.84294 0.0
O1222 O 0.05996 0.40272 0.81219 0.0
O1223 O 0.08342 0.36699 0.82994 0.0
O1224 O 0.09196 0.44028 0.77907 0.0
O1225 O 0.12847 0.44134 0.80568 0.0
O1226 O 0.15526 0.40192 0.74741 0.0
O1227 O 0.11016 0.38501 0.75504 0.0
O1228 O 0.21054 0.4248 0.80529 0.0
O1229 O 0.18984 0.44418 0.76422 0.0
O1230 O 0.18147 0.38296 0.82864 0.0
O1231 O 0.14435 0.37682 0.80274 0.0
H1232 H 0.03089 0.33593 0.85451 0.0
H1233 H 1.00153 0.33529 0.90248 0.0
H1234 H 0.02014 0.423 0.91847 0.0
H1235 H 0.0502 0.42316 0.871 0.0
H1236 H 0.23353 0.46779 0.72828 0.0
H1237 H 0.27279 0.45562 0.69372 0.0
H1238 H 0.2877 0.38072 0.7497 0.0
H1239 H 0.24759 0.39239 0.78344 0.0
Ho1240 Ho 0.3847 0.35535 0.55976 0.0
Ho1241 Ho 0.36784 0.41604 0.54527 0.0
C1242 C 0.35638 0.39427 0.61531 0.0
C1243 C 0.40722 0.31121 0.5861 0.0
C1244 C 0.40265 0.29333 0.61469 0.0
C1245 C 0.42502 0.27755 0.62723 0.0
C1246 C 0.42099 0.25976 0.65364 0.0
C1247 C 0.39441 0.25726 0.66803 0.0
C1248 C 0.37225 0.27382 0.65593 0.0
C1249 C 0.37634 0.2917 0.62964 0.0
C1250 C 0.32982 0.36178 0.54132 0.0
C1251 C 0.39203 0.37756 0.48727 0.0
C1252 C 0.34732 0.46275 0.5243 0.0
C1253 C 0.35772 0.48615 0.50477 0.0
C1254 C 0.33888 0.50113 0.48562 0.0
C1255 C 0.34825 0.52362 0.46711 0.0
C1256 C 0.37669 0.53174 0.46759 0.0
C1257 C 0.39557 0.51657 0.48685 0.0
C1258 C 0.38617 0.4939 0.50521 0.0
C1259 C 0.41987 0.41069 0.57076 0.0
O1260 O 0.37237 0.37224 0.60884 0.0
O1261 O 0.34721 0.41113 0.59255 0.0
O1262 O 0.38833 0.31004 0.56338 0.0
O1263 O 0.41554 0.33686 0.59161 0.0
O1264 O 0.34493 0.33961 0.53579 0.0
O1265 O 0.34411 0.37824 0.55831 0.0
O1266 O 0.37657 0.39917 0.49615 0.0
O1267 O 0.40129 0.35878 0.50842 0.0
O1268 O 0.35898 0.45993 0.55241 0.0
O1269 O 0.3438 0.43876 0.50957 0.0
O1270 O 0.40432 0.43278 0.57302 0.0
O1271 O 0.40861 0.39396 0.55092 0.0
H1272 H 0.44557 0.27864 0.61624 0.0
H1273 H 0.43846 0.24722 0.66205 0.0
H1274 H 0.35159 0.27278 0.66665 0.0
H1275 H 0.35885 0.30397 0.62074 0.0
H1276 H 0.3169 0.49532 0.48484 0.0
H1277 H 0.33323 0.53427 0.45191 0.0
H1278 H 0.41755 0.52225 0.48783 0.0
H1279 H 0.40111 0.48246 0.5198 0.0
C1280 C 0.30047 0.16321 0.17719 0.0
C1281 C 0.30436 0.13877 0.19566 0.0
H1282 H 0.31433 0.18716 0.13665 0.0
C1283 C 0.32866 0.12256 0.19075 0.0
H1284 H 0.28194 0.1761 0.18016 0.0
C1285 C 0.3469 0.1288 0.16566 0.0
C1286 C 0.34161 0.15177 0.14566 0.0
H1287 H 0.33271 0.10405 0.20508 0.0
H1288 H 0.36406 0.11456 0.16051 0.0
C1289 C 0.31907 0.1697 0.15239 0.0
C1290 C 0.17235 0.07591 0.40123 0.0
C1291 C 0.14546 0.08553 0.39293 0.0
H1292 H 0.19684 0.04977 0.43193 0.0
C1293 C 0.1225 0.0786 0.41245 0.0
H1294 H 0.19049 0.08133 0.38688 0.0
C1295 C 0.12624 0.06038 0.43849 0.0
C1296 C 0.1529 0.04904 0.44497 0.0
H1297 H 0.10157 0.08575 0.40644 0.0
H1298 H 0.10816 0.05392 0.45235 0.0
C1299 C 0.17601 0.05781 0.42691 0.0
C1300 C 0.23075 0.8714 0.67911 0.0
C1301 C 0.22773 0.89625 0.69708 0.0
H1302 H 0.21567 0.84706 0.63936 0.0
C1303 C 0.2037 0.91288 0.69234 0.0
H1304 H 0.24904 0.85815 0.68203 0.0
C1305 C 0.18492 0.90664 0.66775 0.0
C1306 C 0.18939 0.88328 0.64804 0.0
H1307 H 0.20028 0.9317 0.70636 0.0
H1308 H 0.16798 0.92116 0.66269 0.0
C1309 C 0.21159 0.86489 0.65479 0.0
C1310 C 0.35723 0.95519 0.90484 0.0
C1311 C 0.38446 0.94722 0.8959 0.0
H1312 H 0.33173 0.97951 0.93628 0.0
C1313 C 0.40732 0.95572 0.91476 0.0
H1314 H 0.33924 0.94884 0.89068 0.0
C1315 C 0.40302 0.9736 0.94098 0.0
C1316 C 0.37578 0.98275 0.94886 0.0
H1317 H 0.42853 0.94995 0.90818 0.0
H1318 H 0.42099 0.98091 0.95449 0.0
C1319 C 0.35291 0.97266 0.93107 0.0
C1320 C 0.32195 0.86629 0.4294 0.0
C1321 C 0.34165 0.88641 0.43909 0.0
H1322 H 0.28679 0.85741 0.39911 0.0
C1323 C 0.34431 0.91141 0.42172 0.0
H1324 H 0.31928 0.84708 0.44296 0.0
C1325 C 0.3261 0.91725 0.39648 0.0
C1326 C 0.30436 0.89849 0.38869 0.0
H1327 H 0.35934 0.92725 0.42903 0.0
H1328 H 0.32807 0.9372 0.38426 0.0
C1329 C 0.30329 0.87233 0.4044 0.0
C1330 C 0.35713 0.07325 0.64625 0.0
C1331 C 0.3786 0.05583 0.63454 0.0
H1332 H 0.34489 0.1031 0.68187 0.0
C1333 C 0.40606 0.05936 0.64639 0.0
H1334 H 0.33595 0.07167 0.637 0.0
C1335 C 0.41131 0.07809 0.67152 0.0
C1336 C 0.3891 0.0932 0.6852 0.0
H1337 H 0.42306 0.04624 0.6379 0.0
H1338 H 0.43209 0.07889 0.68203 0.0
C1339 C 0.36228 0.0915 0.67161 0.0
C1340 C 0.1935 0.10956 0.92665 0.0
C1341 C 0.19137 0.13689 0.93881 0.0
H1342 H 0.21354 0.08219 0.89329 0.0
C1343 C 0.20615 0.15875 0.92401 0.0
H1344 H 0.18219 0.09243 0.93781 0.0
C1345 C 0.22487 0.1528 0.89909 0.0
C1346 C 0.22872 0.12495 0.88855 0.0
H1347 H 0.20504 0.17992 0.93342 0.0
H1348 H 0.23766 0.16967 0.88969 0.0
C1349 C 0.21174 0.10369 0.9015 0.0
C1350 C 0.12418 0.95633 0.17448 0.0
C1351 C 0.14539 0.93873 0.18618 0.0
H1352 H 0.11417 0.9907 0.14359 0.0
C1353 C 0.17178 0.93871 0.17147 0.0
H1354 H 0.10382 0.95693 0.186 0.0
C1355 C 0.17765 0.95761 0.14696 0.0
C1356 C 0.15745 0.97742 0.13739 0.0
H1357 H 0.18841 0.92527 0.18034 0.0
H1358 H 0.19856 0.95779 0.13682 0.0
C1359 C 0.13021 0.97571 0.1503 0.0
C1360 C 0.7179 0.93274 0.90875 0.0
C1361 C 0.73081 0.91083 0.89184 0.0
H1362 H 0.69116 0.94422 0.94756 0.0
C1363 C 0.72291 0.88292 0.89839 0.0
H1364 H 0.72302 0.95445 0.90366 0.0
C1365 C 0.70421 0.87704 0.92341 0.0
C1366 C 0.69342 0.89904 0.94204 0.0
H1367 H 0.73253 0.86564 0.88559 0.0
H1368 H 0.69993 0.85539 0.92965 0.0
C1369 C 0.6995 0.9269 0.93366 0.0
C1370 C 0.91204 0.98506 0.65676 0.0
C1371 C 0.88621 0.98422 0.64033 0.0
H1372 H 0.93646 0.96869 0.69581 0.0
C1373 C 0.86701 0.96278 0.64775 0.0
H1374 H 0.92726 1.00135 0.65178 0.0
C1375 C 0.87217 0.94452 0.67311 0.0
C1376 C 0.89696 0.94678 0.69095 0.0
H1377 H 0.8473 0.96097 0.63499 0.0
H1378 H 0.85608 0.92961 0.67996 0.0
C1379 C 0.91742 0.96633 0.68186 0.0
C1380 C 0.80139 0.16403 0.40583 0.0
C1381 C 0.80113 0.13758 0.39068 0.0
H1382 H 0.81896 0.18924 0.44357 0.0
C1383 C 0.82193 0.11791 0.39879 0.0
H1384 H 0.78564 0.17965 0.4002 0.0
C1385 C 0.84061 0.12332 0.4237 0.0
C1386 C 0.83936 0.14876 0.44048 0.0
H1387 H 0.8229 0.09769 0.38697 0.0
H1388 H 0.85502 0.10695 0.43109 0.0
C1389 C 0.82052 0.16963 0.43053 0.0
C1390 C 0.66776 0.07188 0.15188 0.0
C1391 C 0.64617 0.05454 0.14034 0.0
H1392 H 0.68042 0.10167 0.18728 0.0
C1393 C 0.61896 0.05759 0.15302 0.0
H1394 H 0.68899 0.06993 0.14292 0.0
C1395 C 0.61402 0.07611 0.17848 0.0
C1396 C 0.63634 0.09144 0.19165 0.0
H1397 H 0.60186 0.0447 0.14431 0.0
H1398 H 0.59342 0.07674 0.18941 0.0
C1399 C 0.6629 0.09004 0.17735 0.0
C1400 C 0.711 0.1044 0.6856 0.0
C1401 C 0.72897 0.12526 0.69768 0.0
H1402 H 0.6805 0.09359 0.65006 0.0
C1403 C 0.72581 0.15307 0.6868 0.0
H1404 H 0.71229 0.08297 0.69413 0.0
C1405 C 0.70685 0.15928 0.66222 0.0
C1406 C 0.69117 0.13769 0.64809 0.0
H1407 H 0.73937 0.16963 0.69552 0.0
H1408 H 0.7063 0.18033 0.6524 0.0
C1409 C 0.69253 0.1105 0.66073 0.0
C1410 C 0.67097 0.959 0.43895 0.0
C1411 C 0.65216 0.98073 0.4466 0.0
H1412 H 0.68073 0.92531 0.40687 0.0
C1413 C 0.62582 0.98146 0.43129 0.0
H1414 H 0.69108 0.95733 0.4509 0.0
C1415 C 0.61957 0.96242 0.40679 0.0
C1416 C 0.63968 0.94268 0.39721 0.0
H1417 H 0.61089 0.99797 0.43647 0.0
H1418 H 0.60019 0.9648 0.39348 0.0
C1419 C 0.66492 0.94039 0.41416 0.0
C1420 C 0.84119 0.9211 0.1622 0.0
C1421 C 0.84133 0.89426 0.14851 0.0
H1422 H 0.82282 0.94845 0.1968 0.0
C1423 C 0.82475 0.87298 0.16183 0.0
H1424 H 0.85389 0.93777 0.15212 0.0
C1425 C 0.8062 0.87927 0.18677 0.0
C1426 C 0.80432 0.90685 0.1988 0.0
H1427 H 0.82431 0.85224 0.15116 0.0
H1428 H 0.79197 0.86306 0.1949 0.0
C1429 C 0.82312 0.92726 0.18741 0.0
C1430 C 0.90976 0.07634 0.9118 0.0
C1431 C 0.88831 0.09254 0.89818 0.0
H1432 H 0.91995 0.04332 0.94458 0.0
C1433 C 0.8612 0.09132 0.91104 0.0
H1434 H 0.93072 0.0767 0.90176 0.0
C1435 C 0.85504 0.0726 0.93565 0.0
C1436 C 0.87576 0.05425 0.94732 0.0
H1437 H 0.84437 0.10367 0.90073 0.0
H1438 H 0.83367 0.07149 0.94436 0.0
C1439 C 0.9035 0.05717 0.93617 0.0
C1440 C 0.79994 0.66378 0.68023 0.0
C1441 C 0.8034 0.63893 0.69807 0.0
H1442 H 0.81417 0.6882 0.6402 0.0
C1443 C 0.82739 0.62238 0.69277 0.0
H1444 H 0.78165 0.67695 0.68357 0.0
C1445 C 0.84566 0.6287 0.66777 0.0
C1446 C 0.84071 0.65206 0.64823 0.0
H1447 H 0.83112 0.60355 0.70667 0.0
H1448 H 0.86257 0.61425 0.6623 0.0
C1449 C 0.8186 0.67036 0.6555 0.0
C1450 C 0.62538 0.57991 0.91575 0.0
C1451 C 0.64803 0.58899 0.89694 0.0
H1452 H 0.61213 0.55267 0.95386 0.0
C1453 C 0.67538 0.58085 0.90525 0.0
H1454 H 0.60409 0.58583 0.90965 0.0
C1455 C 0.67993 0.56203 0.93012 0.0
C1456 C 0.65721 0.5509 0.94721 0.0
H1457 H 0.69323 0.58785 0.89131 0.0
H1458 H 0.70118 0.55519 0.93508 0.0
C1459 C 0.62997 0.56089 0.94085 0.0
C1460 C 0.71335 0.36397 0.15542 0.0
C1461 C 0.69207 0.38295 0.14719 0.0
H1462 H 0.74979 0.35673 0.18419 0.0
C1463 C 0.68784 0.40698 0.16588 0.0
H1464 H 0.71718 0.34556 0.14081 0.0
C1465 C 0.70613 0.41325 0.19091 0.0
C1466 C 0.72944 0.39596 0.19705 0.0
H1467 H 0.67156 0.42191 0.15969 0.0
H1468 H 0.70303 0.43258 0.2041 0.0
C1469 C 0.73205 0.3705 0.18016 0.0
C1470 C 0.85385 0.47731 0.4265 0.0
C1471 C 0.87633 0.48502 0.44623 0.0
H1472 H 0.84033 0.45392 0.38588 0.0
C1473 C 0.90258 0.47202 0.44202 0.0
H1474 H 0.83329 0.48661 0.42975 0.0
C1475 C 0.90673 0.45316 0.41663 0.0
C1476 C 0.8846 0.44717 0.39547 0.0
H1477 H 0.92016 0.47762 0.45718 0.0
H1478 H 0.92751 0.4447 0.41244 0.0
C1479 C 0.85791 0.45852 0.4015 0.0
C1480 C 0.80348 0.37 0.90762 0.0
C1481 C 0.80615 0.39512 0.8901 0.0
H1482 H 0.8189 0.34538 0.94694 0.0
C1483 C 0.82994 0.41202 0.89511 0.0
H1484 H 0.78538 0.35654 0.90444 0.0
C1485 C 0.84877 0.40576 0.91961 0.0
C1486 C 0.84459 0.38212 0.93895 0.0
H1487 H 0.83308 0.43106 0.88141 0.0
H1488 H 0.86552 0.42045 0.9249 0.0
C1489 C 0.82271 0.36347 0.93184 0.0
C1490 C 0.90663 0.58173 0.17116 0.0
C1491 C 0.88405 0.58703 0.19189 0.0
H1492 H 0.92132 0.55772 0.13088 0.0
C1493 C 0.85776 0.57498 0.18531 0.0
H1494 H 0.92711 0.59074 0.17579 0.0
C1495 C 0.85459 0.55614 0.16019 0.0
C1496 C 0.87757 0.54908 0.14094 0.0
H1497 H 0.83985 0.57906 0.20059 0.0
H1498 H 0.83436 0.54627 0.15651 0.0
C1499 C 0.90337 0.56281 0.14568 0.0
C1500 C 0.70367 0.62316 0.39418 0.0
C1501 C 0.72833 0.63896 0.39003 0.0
H1502 H 0.66762 0.61558 0.42348 0.0
C1503 C 0.73234 0.66319 0.40884 0.0
H1504 H 0.69955 0.60485 0.37953 0.0
C1505 C 0.71347 0.6698 0.43335 0.0
C1506 C 0.69057 0.65215 0.43941 0.0
H1507 H 0.75115 0.67576 0.40639 0.0
H1508 H 0.71823 0.68706 0.44937 0.0
C1509 C 0.68516 0.6295 0.41895 0.0
C1510 C 0.62825 0.45157 0.67057 0.0
C1511 C 0.65042 0.44698 0.69213 0.0
H1512 H 0.61407 0.47479 0.62945 0.0
C1513 C 0.67656 0.45962 0.68634 0.0
H1514 H 0.6079 0.44209 0.67454 0.0
C1515 C 0.67994 0.47829 0.66112 0.0
C1516 C 0.65733 0.48456 0.64094 0.0
H1517 H 0.69418 0.4561 0.70226 0.0
H1518 H 0.70003 0.48858 0.65801 0.0
C1519 C 0.63173 0.4703 0.64497 0.0
C1520 C 0.21285 0.4252 0.4377 0.0
C1521 C 0.19953 0.39928 0.44287 0.0
H1522 H 0.242 0.44861 0.40957 0.0
C1523 C 0.20332 0.37749 0.42059 0.0
H1524 H 0.20997 0.44255 0.45416 0.0
C1525 C 0.22177 0.38112 0.39476 0.0
C1526 C 0.23659 0.40646 0.39122 0.0
H1527 H 0.19332 0.3573 0.42406 0.0
H1528 H 0.22554 0.36374 0.3786 0.0
C1529 C 0.23125 0.4287 0.41226 0.0
C1530 C 0.37896 0.43492 0.16774 0.0
C1531 C 0.40219 0.43989 0.18748 0.0
H1532 H 0.35376 0.4497 0.12896 0.0
C1533 C 0.42035 0.4622 0.18053 0.0
H1534 H 0.36463 0.41786 0.17296 0.0
C1535 C 0.41366 0.48108 0.15603 0.0
C1536 C 0.38885 0.47764 0.1381 0.0
H1537 H 0.43809 0.46663 0.19598 0.0
H1538 H 0.42666 0.49953 0.15301 0.0
C1539 C 0.37255 0.45341 0.14295 0.0
C1540 C 0.30621 0.60225 0.90943 0.0
C1541 C 0.29863 0.62477 0.8897 0.0
H1542 H 0.32899 0.58875 0.95052 0.0
C1543 C 0.31136 0.65111 0.89439 0.0
H1544 H 0.29718 0.58161 0.90582 0.0
C1545 C 0.32978 0.65528 0.92016 0.0
C1546 C 0.33555 0.6331 0.9413 0.0
H1547 H 0.30587 0.66876 0.87928 0.0
H1548 H 0.33803 0.67611 0.92465 0.0
C1549 C 0.32451 0.60635 0.9349 0.0
C1550 C 0.15385 0.59814 0.66759 0.0
C1551 C 0.13093 0.593 0.6877 0.0
H1552 H 0.17889 0.58331 0.62873 0.0
C1553 C 0.11305 0.57035 0.68124 0.0
H1554 H 0.16799 0.61545 0.67245 0.0
C1555 C 0.11977 0.55131 0.65689 0.0
C1556 C 0.14435 0.55493 0.63865 0.0
H1557 H 0.09558 0.56577 0.69699 0.0
H1558 H 0.10705 0.53262 0.65428 0.0
C1559 C 0.1603 0.57948 0.64297 0.0
C1560 C 0.19472 0.61039 0.16261 0.0
C1561 C 0.19095 0.63741 0.15008 0.0
H1562 H 0.21638 0.58467 0.19636 0.0
C1563 C 0.20395 0.66037 0.16499 0.0
H1564 H 0.18469 0.59242 0.15149 0.0
C1565 C 0.22271 0.65587 0.19032 0.0
C1566 C 0.22839 0.62841 0.20099 0.0
H1567 H 0.20148 0.68136 0.15541 0.0
H1568 H 0.23419 0.6736 0.19993 0.0
C1569 C 0.21306 0.60595 0.18801 0.0
C1570 C 0.12087 0.45408 0.9125 0.0
C1571 C 0.14366 0.44153 0.89682 0.0
H1572 H 0.10798 0.48252 0.94958 0.0
C1573 C 0.17078 0.44485 0.90924 0.0
H1574 H 0.0998 0.45194 0.90306 0.0
C1575 C 0.17549 0.46214 0.93553 0.0
C1576 C 0.15314 0.47671 0.94979 0.0
H1577 H 0.18865 0.43536 0.89739 0.0
H1578 H 0.19694 0.46564 0.94315 0.0
C1579 C 0.12562 0.47177 0.93878 0.0
C1580 C 0.32937 0.3762 0.66177 0.0
C1581 C 0.34421 0.39809 0.64712 0.0
H1582 H 0.29783 0.36526 0.69599 0.0
C1583 C 0.34238 0.42533 0.65957 0.0
H1584 H 0.33029 0.3551 0.65213 0.0
C1585 C 0.32427 0.43114 0.68483 0.0
C1586 C 0.30712 0.4099 0.69753 0.0
H1587 H 0.35379 0.44246 0.64851 0.0
H1588 H 0.32261 0.45259 0.69323 0.0
C1589 C 0.31076 0.3821 0.68677 0.0
C1590 C 0.41181 0.55258 0.42936 0.0
C1591 C 0.3865 0.55493 0.44657 0.0
H1592 H 0.43642 0.56799 0.39006 0.0
C1593 C 0.36908 0.57823 0.44085 0.0
H1594 H 0.42568 0.53485 0.43302 0.0
C1595 C 0.37513 0.59686 0.41607 0.0
C1596 C 0.39909 0.593 0.39719 0.0
H1597 H 0.34986 0.58115 0.45426 0.0
H1598 H 0.36011 0.61316 0.41025 0.0
C1599 C 0.41811 0.57161 0.40487 0.0
C1600 C 0.16869 0.21517 0.39462 0.0
C1601 C 0.14559 0.23334 0.39238 0.0
H1602 H 0.1904 0.17978 0.37574 0.0
C1603 C 0.12644 0.22926 0.36693 0.0
H1604 H 0.18362 0.21719 0.41405 0.0
C1605 C 0.13044 0.20748 0.34443 0.0
C1606 C 0.15337 0.18908 0.34731 0.0
H1607 H 0.10849 0.24301 0.36429 0.0
H1608 H 0.11566 0.20507 0.32494 0.0
C1609 C 0.17246 0.19347 0.37258 0.0
C1610 C 0.06245 0.90291 0.59518 0.0
C1611 C 0.08737 0.88724 0.59589 0.0
H1612 H 0.02348 0.9126 0.6182 0.0
C1613 C 0.09123 0.86759 0.62052 0.0
H1614 H 0.05932 0.91878 0.57694 0.0
C1615 C 0.07107 0.86445 0.64469 0.0
C1616 C 0.04663 0.88115 0.645 0.0
H1617 H 0.11071 0.85606 0.62249 0.0
H1618 H 0.0756 0.85023 0.66423 0.0
C1619 C 0.04218 0.89972 0.61922 0.0
C1620 C 0.35824 0.84031 0.8716 0.0
C1621 C 0.37736 0.84399 0.84628 0.0
H1622 H 0.3471 0.81785 0.91393 0.0
C1623 C 0.4006 0.82585 0.84447 0.0
H1624 H 0.33991 0.85362 0.87373 0.0
C1625 C 0.40489 0.80508 0.86812 0.0
C1626 C 0.38602 0.80211 0.89399 0.0
H1627 H 0.41549 0.82784 0.82505 0.0
H1628 H 0.42327 0.79179 0.86653 0.0
C1629 C 0.36247 0.81981 0.89497 0.0
C1630 C 0.46461 0.12242 0.09746 0.0
C1631 C 0.44277 0.14203 0.09463 0.0
H1632 H 0.50096 0.10903 0.12341 0.0
C1633 C 0.44206 0.16478 0.11598 0.0
H1634 H 0.46532 0.10433 0.08176 0.0
C1635 C 0.46206 0.16717 0.14059 0.0
C1636 C 0.4832 0.14671 0.14451 0.0
H1637 H 0.42483 0.1795 0.11533 0.0
H1638 H 0.45977 0.18407 0.15773 0.0
C1639 C 0.48475 0.1249 0.12177 0.0
C1640 C 0.12885 0.82207 0.24234 0.0
C1641 C 0.15319 0.83869 0.2408 0.0
H1642 H 0.10474 0.78885 0.22055 0.0
C1643 C 0.17273 0.83313 0.21635 0.0
H1644 H 0.11371 0.82532 0.26128 0.0
C1645 C 0.16794 0.81222 0.19359 0.0
C1646 C 0.14336 0.79603 0.19432 0.0
H1647 H 0.1918 0.84538 0.21427 0.0
H1648 H 0.18329 0.80932 0.17476 0.0
C1649 C 0.12381 0.80114 0.21908 0.0
C1650 C 0.46262 0.86571 0.44664 0.0
C1651 C 0.48387 0.88598 0.44229 0.0
H1652 H 0.42494 0.85429 0.4715 0.0
C1653 C 0.48484 0.90882 0.46369 0.0
H1654 H 0.46074 0.84808 0.4304 0.0
C1655 C 0.46428 0.91218 0.48735 0.0
C1656 C 0.44255 0.89253 0.49081 0.0
H1657 H 0.50106 0.92463 0.46164 0.0
H1658 H 0.46473 0.93084 0.50219 0.0
C1659 C 0.44216 0.86901 0.47056 0.0
C1660 C 0.36489 0.21933 0.69245 0.0
C1661 C 0.38919 0.23593 0.69374 0.0
H1662 H 0.34138 0.18562 0.71247 0.0
C1663 C 0.40844 0.23111 0.71889 0.0
H1664 H 0.34976 0.22204 0.67333 0.0
C1665 C 0.40348 0.21 0.74191 0.0
C1666 C 0.37951 0.19291 0.73974 0.0
H1667 H 0.42727 0.24372 0.72084 0.0
H1668 H 0.41842 0.20694 0.76112 0.0
C1669 C 0.36017 0.19823 0.71498 0.0
C1670 C 0.07464 0.15239 0.99407 0.0
C1671 C 0.09342 0.12973 0.9917 0.0
H1672 H 0.04075 0.17516 0.9719 0.0
C1673 C 0.09131 0.1118 0.96502 0.0
H1674 H 0.07548 0.16633 1.01454 0.0
C1675 C 0.07161 0.11667 0.94093 0.0
C1676 C 0.05317 0.13961 0.94265 0.0
H1677 H 0.10524 0.09398 0.9624 0.0
H1678 H 0.07079 0.10225 0.92089 0.0
C1679 C 0.05465 0.15727 0.96977 0.0
C1680 C 0.89833 0.82303 0.74015 0.0
C1681 C 0.88858 0.85032 0.73384 0.0
H1682 H 0.90762 0.78222 0.7205 0.0
C1683 C 0.88395 0.85826 0.70188 0.0
H1684 H 0.90182 0.81629 0.76459 0.0
C1685 C 0.88734 0.83914 0.67692 0.0
C1686 C 0.89502 0.81118 0.68305 0.0
H1687 H 0.87658 0.87919 0.69617 0.0
H1688 H 0.88303 0.84612 0.65273 0.0
C1689 C 0.90151 0.80355 0.7149 0.0
C1690 C 0.96128 0.16493 0.44146 0.0
C1691 C 0.98543 0.1478 0.44209 0.0
H1692 H 0.92132 0.17444 0.46242 0.0
C1693 C 0.9887 0.12918 0.46806 0.0
H1694 H 0.95755 0.17911 0.42165 0.0
C1695 C 0.96787 0.12681 0.49169 0.0
C1696 C 0.94346 0.1433 0.49036 0.0
H1697 H 1.00703 0.11584 0.46973 0.0
H1698 H 0.97029 0.11117 0.51032 0.0
C1699 C 0.94051 0.16254 0.46513 0.0
C1700 C 0.6146 0.20927 0.19338 0.0
C1701 C 0.63414 0.23113 0.18883 0.0
H1702 H 0.60374 0.17228 0.21968 0.0
C1703 C 0.65583 0.23423 0.21148 0.0
H1704 H 0.59752 0.20625 0.17662 0.0
C1705 C 0.65884 0.21508 0.23673 0.0
C1706 C 0.64004 0.19261 0.24039 0.0
H1707 H 0.67156 0.25043 0.20865 0.0
H1708 H 0.67684 0.21696 0.25245 0.0
C1709 C 0.61766 0.19014 0.2187 0.0
C1710 C 0.55274 0.87619 0.96944 0.0
C1711 C 0.55067 0.89464 0.94305 0.0
H1712 H 0.57447 0.86591 1.01336 0.0
C1713 C 0.56895 0.91771 0.94188 0.0
H1714 H 0.53897 0.85818 0.97117 0.0
C1715 C 0.58909 0.92193 0.96565 0.0
C1716 C 0.59185 0.90325 0.99156 0.0
H1717 H 0.56769 0.93276 0.92249 0.0
H1718 H 0.60284 0.93993 0.96337 0.0
C1719 C 0.5732 0.88043 0.99348 0.0
C1720 C 0.86342 0.21491 0.89497 0.0
C1721 C 0.88796 0.23113 0.89632 0.0
H1722 H 0.84029 0.18293 0.87106 0.0
C1723 C 0.90811 0.22762 0.87186 0.0
H1724 H 0.84758 0.21671 0.91345 0.0
C1725 C 0.90372 0.20815 0.84683 0.0
C1726 C 0.87951 0.19129 0.84638 0.0
H1727 H 0.92714 0.24004 0.87198 0.0
H1728 H 0.91925 0.20621 0.82808 0.0
C1729 C 0.85932 0.19535 0.87054 0.0
C1730 C 0.55431 0.15889 0.61787 0.0
C1731 C 0.55299 0.14131 0.64506 0.0
H1732 H 0.5751 0.16796 0.5731 0.0
C1733 C 0.57172 0.11863 0.64699 0.0
H1734 H 0.54017 0.17658 0.61562 0.0
C1735 C 0.59145 0.11385 0.62297 0.0
C1736 C 0.59334 0.13161 0.59614 0.0
H1737 H 0.57105 0.10431 0.66711 0.0
H1738 H 0.60554 0.09616 0.62573 0.0
C1739 C 0.57439 0.15413 0.59364 0.0
C1740 C 0.6632 0.84984 0.38157 0.0
C1741 C 0.64932 0.84719 0.35197 0.0
H1742 H 0.67016 0.83352 0.42844 0.0
C1743 C 0.6302 0.825 0.34794 0.0
H1744 H 0.67774 0.86693 0.38585 0.0
C1745 C 0.62588 0.80541 0.37285 0.0
C1746 C 0.64077 0.80767 0.40203 0.0
H1747 H 0.61929 0.82234 0.32539 0.0
H1748 H 0.61159 0.78807 0.36895 0.0
C1749 C 0.65898 0.83053 0.40611 0.0
C1750 C 0.95791 0.87915 0.09404 0.0
C1751 C 0.93883 0.90154 0.09684 0.0
H1752 H 0.99243 0.85677 0.11562 0.0
C1753 C 0.94075 0.91906 0.1239 0.0
H1754 H 0.95721 0.86548 0.07334 0.0
C1755 C 0.96064 0.91423 0.14778 0.0
C1756 C 0.97954 0.89172 0.14554 0.0
H1757 H 0.92659 0.93665 0.12695 0.0
H1758 H 0.96132 0.92843 0.16803 0.0
C1759 C 0.97817 0.87433 0.11815 0.0
C1760 C 0.62934 0.70881 0.8436 0.0
C1761 C 0.65385 0.6924 0.84442 0.0
H1762 H 0.60556 0.74193 0.86589 0.0
C1763 C 0.6741 0.69836 0.86803 0.0
H1764 H 0.61362 0.70521 0.82534 0.0
C1765 C 0.66977 0.71941 0.89077 0.0
C1766 C 0.64496 0.73531 0.89086 0.0
H1767 H 0.69331 0.68627 0.86946 0.0
H1768 H 0.68562 0.72257 0.90902 0.0
C1769 C 0.6248 0.72988 0.8668 0.0
C1770 C 0.5681 0.40579 0.09664 0.0
C1771 C 0.59139 0.3878 0.09551 0.0
H1772 H 0.53086 0.41812 0.12154 0.0
C1773 C 0.59376 0.36657 0.11865 0.0
H1774 H 0.56612 0.42276 0.07951 0.0
C1775 C 0.57398 0.36432 0.14343 0.0
C1776 C 0.55143 0.3834 0.1457 0.0
H1777 H 0.61204 0.35315 0.11918 0.0
H1778 H 0.57752 0.34883 0.16195 0.0
C1779 C 0.54819 0.40342 0.12114 0.0
C1780 C 0.858 0.33746 0.36925 0.0
C1781 C 0.87886 0.34284 0.34621 0.0
H1782 H 0.84555 0.31459 0.41086 0.0
C1783 C 0.90358 0.32674 0.34717 0.0
H1784 H 0.83857 0.34927 0.36931 0.0
C1785 C 0.90778 0.30675 0.37169 0.0
C1786 C 0.88696 0.30195 0.39512 0.0
H1787 H 0.91973 0.32976 0.3293 0.0
H1788 H 0.92722 0.295 0.37226 0.0
C1789 C 0.86193 0.31738 0.39317 0.0
C1790 C 0.96471 0.62892 0.60077 0.0
C1791 C 0.9415 0.64691 0.59816 0.0
H1792 H 1.00081 0.61674 0.62791 0.0
C1793 C 0.93849 0.66865 0.62059 0.0
H1794 H 0.96697 0.61134 0.58449 0.0
C1795 C 0.95785 0.67181 0.64567 0.0
C1796 C 0.98041 0.65293 0.64927 0.0
H1797 H 0.92009 0.6819 0.62033 0.0
H1798 H 0.95442 0.68837 0.663 0.0
C1799 C 0.98405 0.63198 0.62583 0.0
C1800 C 0.67602 0.33679 0.71855 0.0
C1801 C 0.65621 0.34216 0.74276 0.0
H1802 H 0.68691 0.31322 0.67684 0.0
C1803 C 0.63191 0.32548 0.74393 0.0
H1804 H 0.69506 0.34913 0.71687 0.0
C1805 C 0.6271 0.30471 0.7205 0.0
C1806 C 0.64679 0.29984 0.69585 0.0
H1807 H 0.61653 0.32869 0.76264 0.0
H1808 H 0.60801 0.29243 0.7217 0.0
C1809 C 0.67142 0.316 0.69555 0.0
C1810 C 0.97283 0.39895 0.99343 0.0
C1811 C 0.94677 0.38544 0.99067 0.0
H1812 H 1.01296 0.40709 0.97215 0.0
C1813 C 0.94188 0.36816 0.96403 0.0
H1814 H 0.97679 0.41311 1.01324 0.0
C1815 C 0.9623 0.36505 0.94016 0.0
C1816 C 0.98804 0.37952 0.94206 0.0
H1817 H 0.92159 0.35847 0.9605 0.0
H1818 H 0.95711 0.35267 0.91923 0.0
C1819 C 0.99332 0.39588 0.96955 0.0
C1820 C 0.90504 0.72829 0.21872 0.0
C1821 C 0.88702 0.73017 0.19192 0.0
H1822 H 0.91444 0.70707 0.26317 0.0
C1823 C 0.86373 0.71216 0.19061 0.0
H1824 H 0.92319 0.74186 0.22056 0.0
C1825 C 0.85889 0.69244 0.21468 0.0
C1826 C 0.87719 0.68984 0.24097 0.0
H1827 H 0.84903 0.71331 0.17087 0.0
H1828 H 0.84079 0.67884 0.21231 0.0
C1829 C 0.90018 0.70827 0.24302 0.0
C1830 C 0.56144 0.64504 0.49367 0.0
C1831 C 0.59012 0.64894 0.4875 0.0
H1832 H 0.51966 0.64451 0.47422 0.0
C1833 C 0.59837 0.65786 0.4569 0.0
H1834 H 0.5546 0.63737 0.51679 0.0
C1835 C 0.57861 0.66188 0.4326 0.0
C1836 C 0.54999 0.65645 0.43798 0.0
H1837 H 0.62033 0.6601 0.45105 0.0
H1838 H 0.58611 0.66738 0.40896 0.0
C1839 C 0.54153 0.64872 0.46912 0.0
C1840 C 0.42466 0.32226 0.19153 0.0
C1841 C 0.4054 0.30014 0.187 0.0
H1842 H 0.43473 0.35976 0.21745 0.0
C1843 C 0.38362 0.29692 0.20947 0.0
H1844 H 0.44182 0.32534 0.17493 0.0
C1845 C 0.38008 0.31632 0.23434 0.0
C1846 C 0.39841 0.33919 0.23777 0.0
H1847 H 0.3681 0.28051 0.20664 0.0
H1848 H 0.36189 0.31445 0.24974 0.0
C1849 C 0.42107 0.34167 0.21649 0.0
C1850 C 0.47709 0.65652 0.96828 0.0
C1851 C 0.48028 0.63747 0.94258 0.0
H1852 H 0.45443 0.66704 1.01144 0.0
C1853 C 0.46311 0.61353 0.942 0.0
H1854 H 0.48998 0.6752 0.96956 0.0
C1855 C 0.4429 0.60906 0.96561 0.0
C1856 C 0.43899 0.62835 0.99076 0.0
H1857 H 0.46527 0.59803 0.92318 0.0
H1858 H 0.42998 0.59042 0.9638 0.0
C1859 C 0.45661 0.652 0.99216 0.0
C1860 C 0.11382 0.71012 0.69118 0.0
C1861 C 0.13102 0.73419 0.69036 0.0
H1862 H 0.10473 0.67101 0.71417 0.0
C1863 C 0.14958 0.73871 0.71616 0.0
H1864 H 0.09957 0.70552 0.67167 0.0
C1865 C 0.15237 0.71873 0.74062 0.0
C1866 C 0.13627 0.69407 0.74036 0.0
H1867 H 0.16284 0.75715 0.71683 0.0
H1868 H 0.16832 0.72181 0.75879 0.0
C1869 C 0.11653 0.69029 0.7158 0.0
C1870 C 0.07146 0.41957 0.44257 0.0
C1871 C 0.05347 0.39624 0.44358 0.0
H1872 H 0.10536 0.44188 0.464 0.0
C1873 C 0.05606 0.37748 0.46963 0.0
H1874 H 0.0698 0.43485 0.42347 0.0
C1875 C 0.07669 0.38168 0.49346 0.0
C1876 C 0.09508 0.40471 0.49166 0.0
H1877 H 0.04255 0.35926 0.47125 0.0
H1878 H 0.07835 0.36689 0.51306 0.0
C1879 C 0.09182 0.42371 0.46614 0.0
C1880 C 0.42075 0.71306 0.39127 0.0
C1881 C 0.40027 0.73378 0.39732 0.0
H1882 H 0.43198 0.67637 0.36439 0.0
C1883 C 0.37685 0.73515 0.37683 0.0
H1884 H 0.43914 0.71138 0.4064 0.0
C1885 C 0.37314 0.71536 0.35237 0.0
C1886 C 0.39293 0.69398 0.3473 0.0
H1887 H 0.3604 0.75041 0.38089 0.0
H1888 H 0.35395 0.71588 0.33844 0.0
C1889 C 0.41704 0.69332 0.36661 0.0
C1890 C 0.09183 0.61351 0.12781 0.0
C1891 C 0.09247 0.62895 0.0991 0.0
H1892 H 0.07197 0.60618 0.17281 0.0
C1893 C 0.07195 0.64973 0.09422 0.0
H1894 H 0.10719 0.59725 0.1325 0.0
C1895 C 0.05136 0.6549 0.11782 0.0
C1896 C 0.05119 0.63956 0.14677 0.0
H1897 H 0.07172 0.66178 0.07224 0.0
H1898 H 0.03587 0.67113 0.11365 0.0
C1899 C 0.07166 0.61876 0.15121 0.0
C1900 C 0.1316 0.32433 0.84318 0.0
C1901 C 0.15397 0.34324 0.84715 0.0
H1902 H 0.10924 0.28889 0.86262 0.0
C1903 C 0.17171 0.3399 0.87385 0.0
H1904 H 0.118 0.32585 0.8225 0.0
C1905 C 0.16712 0.31871 0.89625 0.0
C1906 C 0.14454 0.30005 0.8929 0.0
H1907 H 0.18918 0.35403 0.87784 0.0
H1908 H 0.181 0.3174 0.91674 0.0
C1909 C 0.12673 0.30309 0.86606 0.0
C1910 C 0.46527 0.41862 0.64454 0.0
C1911 C 0.48354 0.39554 0.64298 0.0
H1912 H 0.43148 0.44119 0.62335 0.0
C1913 C 0.48154 0.37748 0.61622 0.0
H1914 H 0.46649 0.43337 0.66424 0.0
C1915 C 0.46119 0.3821 0.59218 0.0
C1916 C 0.44255 0.40491 0.59448 0.0
H1917 H 0.49531 0.35948 0.61419 0.0
H1918 H 0.45997 0.36787 0.57201 0.0
C1919 C 0.44523 0.42322 0.62077 0.0
C1920 C 0.13916 0.02949 0.28572 0.0
C1921 C 0.11401 0.04485 0.28332 0.0
H1922 H 0.15847 0.9888 0.28993 0.0
C1923 C 0.08845 0.03009 0.28445 0.0
H1924 H 0.15916 0.04028 0.2853 0.0
C1925 C 0.08804 1.00079 0.28837 0.0
C1926 C 0.11319 0.98539 0.29046 0.0
H1927 H 0.06869 0.04128 0.28317 0.0
H1928 H 0.06799 0.99012 0.28926 0.0
C1929 C 0.13876 1.00007 0.28867 0.0
C1930 C 0.25059 0.88985 0.54131 0.0
C1931 C 0.23571 0.86443 0.53901 0.0
H1932 H 0.29093 0.90974 0.54649 0.0
C1933 C 0.25063 0.8391 0.54221 0.0
H1934 H 0.23961 0.90968 0.53934 0.0
C1935 C 0.27968 0.83916 0.54771 0.0
C1936 C 0.2947 0.86453 0.54932 0.0
H1937 H 0.23974 0.81917 0.5411 0.0
H1938 H 0.29049 0.81925 0.54987 0.0
C1939 C 0.27988 0.88989 0.54574 0.0
C1940 C 0.44643 1.00262 0.79083 0.0
C1941 C 0.42098 0.98775 0.78887 0.0
H1942 H 0.46659 0.04283 0.79471 0.0
C1943 C 0.39574 1.00305 0.78887 0.0
H1944 H 0.46624 0.99148 0.79129 0.0
C1945 C 0.39596 0.03256 0.79023 0.0
C1946 C 0.42139 0.0474 0.79273 0.0
H1947 H 0.3758 0.99218 0.78764 0.0
H1948 H 0.3762 0.04378 0.78959 0.0
C1949 C 0.44662 0.03206 0.79316 0.0
C1950 C 0.25143 0.14802 0.0438 0.0
C1951 C 0.23648 0.17346 1.04241 0.0
H1952 H 0.29181 0.12781 1.04245 0.0
C1953 C 0.25148 0.19841 1.03687 0.0
H1954 H 0.24041 0.12844 0.04771 0.0
C1955 C 0.28071 0.1979 1.03253 0.0
C1956 C 0.29575 0.17252 1.03445 0.0
H1957 H 0.24056 0.2183 1.0352 0.0
H1958 H 0.29161 0.21752 1.0284 0.0
C1959 C 0.28079 0.14763 1.04047 0.0
C1960 C 0.94892 0.0326 0.7977 0.0
C1961 C 0.92385 0.04785 0.79389 0.0
H1962 H 0.9681 0.99219 0.80445 0.0
C1963 C 0.8983 0.03308 0.79393 0.0
H1964 H 0.96893 0.04338 0.79823 0.0
C1965 C 0.89786 1.0037 0.79698 0.0
C1966 C 0.92287 0.98848 0.80122 0.0
H1967 H 0.87864 0.04426 0.79136 0.0
H1968 H 0.87789 0.99287 0.79608 0.0
C1969 C 0.94842 1.0033 0.80172 0.0
C1970 C 0.75173 0.1482 0.54345 0.0
C1971 C 0.73679 0.17369 0.5438 0.0
H1972 H 0.79215 0.128 0.54525 0.0
C1973 C 0.75191 0.1988 0.54778 0.0
H1974 H 0.74064 0.12849 0.54072 0.0
C1975 C 0.7812 0.19842 0.55167 0.0
C1976 C 0.79623 0.17298 0.55083 0.0
H1977 H 0.74104 0.21876 0.54859 0.0
H1978 H 0.79214 0.21818 0.55463 0.0
C1979 C 0.78116 0.14789 0.54633 0.0
C1980 C 0.58651 0.03107 0.29971 0.0
C1981 C 0.61202 0.04594 0.30108 0.0
H1982 H 0.56619 0.99118 0.29346 0.0
C1983 C 0.63719 0.03095 0.29704 0.0
H1984 H 0.56671 0.04202 0.30218 0.0
C1985 C 0.63688 1.00169 0.29254 0.0
C1986 C 0.61136 0.9869 0.29072 0.0
H1987 H 0.65712 0.04186 0.29757 0.0
H1988 H 0.65663 0.9906 0.29037 0.0
C1989 C 0.58618 1.00198 0.29421 0.0
C1990 C 0.75073 0.83494 0.0454 0.0
C1991 C 0.73583 0.86039 0.04735 0.0
H1992 H 0.7909 0.81482 1.04101 0.0
C1993 C 0.75107 0.88568 0.0467 0.0
H1994 H 0.73964 0.8151 0.04543 0.0
C1995 C 0.78053 0.8855 0.0447 0.0
C1996 C 0.79539 0.86006 1.04226 0.0
H1997 H 0.74019 0.90562 0.0479 0.0
H1998 H 0.79171 0.9053 0.04485 0.0
C1999 C 0.78011 0.83479 1.04248 0.0
C2000 C 0.58655 0.53108 0.79247 0.0
C2001 C 0.61177 0.54642 0.79162 0.0
H2002 H 0.56704 0.49055 0.79599 0.0
C2003 C 0.63727 0.53164 0.79356 0.0
H2004 H 0.56654 0.54182 0.79142 0.0
C2005 C 0.63756 0.50219 0.79571 0.0
C2006 C 0.61235 0.48688 0.79697 0.0
H2007 H 0.65703 0.54288 0.79323 0.0
H2008 H 0.65755 0.49135 0.79652 0.0
C2009 C 0.58683 0.5017 0.79549 0.0
C2010 C 0.78355 0.38752 0.04642 0.0
C2011 C 0.79862 0.36212 0.04717 0.0
H2012 H 0.74306 0.40737 1.04255 0.0
C2013 C 0.78382 0.33689 1.04252 0.0
H2014 H 0.79441 0.4073 0.04956 0.0
C2015 C 0.75474 0.33701 1.03714 0.0
C2016 C 0.73951 0.36232 1.0371 0.0
H2017 H 0.79483 0.317 1.04242 0.0
H2018 H 0.74408 0.31715 1.03381 0.0
C2019 C 0.75423 0.38757 1.0421 0.0
C2020 C 0.89607 0.53153 0.29477 0.0
C2021 C 0.92124 0.54686 0.29674 0.0
H2022 H 0.87669 0.49085 0.29149 0.0
C2023 C 0.94679 0.53208 0.29567 0.0
H2024 H 0.87606 0.54233 0.29525 0.0
C2025 C 0.94716 0.50271 0.2924 0.0
C2026 C 0.92197 0.48735 0.29087 0.0
H2027 H 0.96656 0.54326 0.29673 0.0
H2028 H 0.96719 0.49199 0.29175 0.0
C2029 C 0.89643 0.5021 0.29233 0.0
C2030 C 0.74971 0.64612 0.54659 0.0
C2031 C 0.73481 0.67159 0.54817 0.0
H2032 H 0.79004 0.62606 0.54205 0.0
C2033 C 0.74981 0.69682 0.54456 0.0
H2034 H 0.73871 0.62634 0.54891 0.0
C2035 C 0.77889 0.69661 0.53925 0.0
C2036 C 0.79392 0.6712 0.53824 0.0
H2037 H 0.73896 0.7168 0.54513 0.0
H2038 H 0.78972 0.71647 0.53666 0.0
C2039 C 0.77903 0.64595 0.54235 0.0
C2040 C 0.39399 0.53122 0.28945 0.0
C2041 C 0.41924 0.54637 0.287 0.0
H2042 H 0.37453 0.4907 0.29492 0.0
C2043 C 0.44471 0.53167 0.28995 0.0
H2044 H 0.37405 0.54202 0.28768 0.0
C2045 C 0.44496 0.50262 0.29552 0.0
C2046 C 0.41976 0.48735 0.29746 0.0
H2047 H 0.46453 0.54275 0.28873 0.0
H2048 H 0.46498 0.492 0.2976 0.0
C2049 C 0.39426 0.50192 0.29393 0.0
C2050 C 0.28002 0.64516 0.04703 0.0
C2051 C 0.29486 0.67069 0.04692 0.0
H2052 H 0.23968 0.62488 0.04607 0.0
C2053 C 0.27956 0.69587 0.04459 0.0
H2054 H 0.29123 0.62541 0.04853 0.0
C2055 C 0.25016 0.69551 1.042 0.0
C2056 C 0.23528 0.67 1.04249 0.0
H2057 H 0.29034 0.71587 0.04404 0.0
H2058 H 0.23904 0.71528 1.0402 0.0
C2059 C 0.25055 0.64484 0.04536 0.0
C2060 C 0.13828 0.50206 0.78873 0.0
C2061 C 0.11312 0.48662 0.7881 0.0
H2062 H 0.1576 0.54277 0.79227 0.0
C2063 C 0.08765 0.50112 0.79207 0.0
H2064 H 0.15824 0.49143 0.78614 0.0
C2065 C 0.08738 0.53029 0.797 0.0
C2066 C 0.11251 0.5458 0.79724 0.0
H2067 H 0.06793 0.4898 0.79222 0.0
H2068 H 0.06739 0.54078 0.80001 0.0
C2069 C 0.13794 0.53139 0.79259 0.0
C2070 C 0.25391 0.38658 0.54677 0.0
C2071 C 0.23895 0.36111 0.5474 0.0
H2072 H 0.29428 0.40672 0.54469 0.0
C2073 C 0.25416 0.33585 0.54538 0.0
H2074 H 0.24279 0.4064 0.548 0.0
C2075 C 0.28355 0.33607 0.54237 0.0
C2076 C 0.29852 0.36154 0.54207 0.0
H2077 H 0.24331 0.31588 0.54539 0.0
H2078 H 0.29458 0.31624 0.54083 0.0
C2079 C 0.28335 0.38678 0.54461 0.0
C2080 C 0.16046 0.16243 0.15403 0.0
C2081 C 0.13712 0.16121 0.13359 0.0
H2082 H 0.17655 0.15889 0.20154 0.0
C2083 C 0.1104 0.15751 0.1476 0.0
H2084 H 0.18134 0.1649 0.14414 0.0
C2085 C 0.10751 0.15365 0.18118 0.0
C2086 C 0.13133 0.15324 0.2013 0.0
H2087 H 0.09202 0.15583 0.13246 0.0
H2088 H 0.08696 0.14927 0.19101 0.0
C2089 C 0.15764 0.15873 0.18713 0.0
C2090 C 0.12573 0.85845 0.4312 0.0
C2091 C 0.13344 0.88157 0.4506 0.0
H2092 H 0.11737 0.84329 0.38316 0.0
C2093 C 0.13607 0.9079 0.43545 0.0
H2094 H 0.12344 0.83783 0.44177 0.0
C2095 C 0.13264 0.91092 0.40237 0.0
C2096 C 0.12606 0.8879 0.38271 0.0
H2097 H 0.14164 0.92647 0.44901 0.0
H2098 H 0.13601 0.93147 0.39191 0.0
C2099 C 0.12201 0.8616 0.39759 0.0
C2100 C 0.40651 0.86076 0.68908 0.0
C2101 C 0.40823 0.88769 0.70305 0.0
H2102 H 0.40005 0.83667 0.64572 0.0
C2103 C 0.40723 0.91105 0.68259 0.0
H2104 H 0.40654 0.8423 0.7042 0.0
C2105 C 0.40343 0.90794 0.64953 0.0
C2106 C 0.4001 0.88125 0.63535 0.0
H2107 H 0.40816 0.93209 0.69245 0.0
H2108 H 0.40206 0.92683 0.63519 0.0
C2109 C 0.40256 0.85756 0.65554 0.0
C2110 C 0.40122 0.12239 0.90152 0.0
C2111 C 0.40674 0.14549 0.88165 0.0
H2112 H 0.39288 0.10694 0.94833 0.0
C2113 C 0.40971 0.17208 0.89621 0.0
H2114 H 0.39875 0.10162 0.89127 0.0
C2115 C 0.40585 0.1754 0.92975 0.0
C2116 C 0.39908 0.15217 0.94935 0.0
H2117 H 0.41354 0.19042 0.88155 0.0
H2118 H 0.40717 0.19621 0.94007 0.0
C2119 C 0.39767 0.12558 0.93455 0.0
C2120 C 0.92383 0.8772 0.90472 0.0
C2121 C 0.90027 0.88262 0.88507 0.0
H2122 H 0.9392 0.87042 0.95298 0.0
C2123 C 0.87361 0.88191 0.89968 0.0
H2124 H 0.94472 0.87761 0.89455 0.0
C2125 C 0.87055 0.8778 0.93266 0.0
C2126 C 0.89391 0.87387 0.95267 0.0
H2127 H 0.85476 0.88555 0.88576 0.0
H2128 H 0.84965 0.87884 0.94282 0.0
C2129 C 0.92067 0.87289 0.93823 0.0
C2130 C 0.90856 0.12465 0.68249 0.0
C2131 C 0.91027 0.14784 0.70315 0.0
H2132 H 0.90308 0.10923 0.635 0.0
C2133 C 0.9094 0.1749 0.68929 0.0
H2134 H 0.9089 0.10354 0.69218 0.0
C2135 C 0.90555 0.17838 0.65572 0.0
C2136 C 0.90244 0.15486 0.63534 0.0
H2137 H 0.91007 0.19328 0.70452 0.0
H2138 H 0.90366 0.19937 0.64603 0.0
C2139 C 0.90495 0.12804 0.64943 0.0
C2140 C 0.65878 0.1622 0.4329 0.0
C2141 C 0.63577 0.16177 0.45379 0.0
H2142 H 0.67397 0.15807 0.38514 0.0
C2143 C 0.60873 0.15862 0.44041 0.0
H2144 H 0.67988 0.16423 0.44234 0.0
C2145 C 0.60516 0.1546 0.40695 0.0
C2146 C 0.6286 0.15351 0.38631 0.0
H2147 H 0.59058 0.15755 0.45594 0.0
H2148 H 0.58432 0.15082 0.39758 0.0
C2149 C 0.65529 0.15837 0.3999 0.0
C2150 C 0.66022 0.87215 0.15526 0.0
C2151 C 0.63664 0.87152 0.1351 0.0
H2152 H 0.67657 0.87737 0.20247 0.0
C2153 C 0.6099 0.8736 0.14946 0.0
H2154 H 0.68112 0.871 0.14511 0.0
C2155 C 0.60713 0.87761 0.18305 0.0
C2156 C 0.63108 0.87988 0.20285 0.0
H2157 H 0.59128 0.87391 0.13458 0.0
H2158 H 0.58642 0.88057 0.19314 0.0
C2159 C 0.65753 0.8761 0.18835 0.0
C2160 C 0.62715 0.62231 0.68274 0.0
C2161 C 0.62309 0.64542 0.70311 0.0
H2162 H 0.63444 0.60706 0.63552 0.0
C2163 C 0.6215 0.67231 0.689 0.0
H2164 H 0.62868 0.60132 0.69262 0.0
C2165 C 0.62525 0.67584 0.65545 0.0
C2166 C 0.63072 0.65254 0.63539 0.0
H2167 H 0.61896 0.69068 0.70401 0.0
H2168 H 0.62508 0.69683 0.64552 0.0
C2169 C 0.63072 0.62573 0.64971 0.0
C2170 C 0.62502 0.40927 0.9046 0.0
C2171 C 0.6244 0.38618 0.88372 0.0
H2172 H 0.6303 0.42449 0.95223 0.0
C2173 C 0.62678 0.35909 0.89713 0.0
H2174 H 0.62364 0.43042 0.89514 0.0
C2175 C 0.63104 0.35551 0.93055 0.0
C2176 C 0.63321 0.37898 0.95112 0.0
H2177 H 0.62709 0.34085 0.88165 0.0
H2178 H 0.63408 0.33455 0.93995 0.0
C2179 C 0.62918 0.40578 0.93753 0.0
C2180 C 0.90696 0.35595 0.15605 0.0
C2181 C 0.90334 0.37935 0.13561 0.0
H2182 H 0.91172 0.34126 0.20489 0.0
C2183 C 0.90529 0.40625 0.14959 0.0
H2184 H 0.90555 0.3349 0.14642 0.0
C2185 C 0.90896 0.40979 0.18263 0.0
C2186 C 0.91116 0.38668 0.20337 0.0
H2187 H 0.903 0.42497 0.13511 0.0
H2188 H 0.90885 0.43093 0.19225 0.0
C2189 C 0.91076 0.35959 0.18961 0.0
C2190 C 0.90756 0.67357 0.39831 0.0
C2191 C 0.90786 0.6465 0.38453 0.0
H2192 H 0.90214 0.69818 0.44147 0.0
C2193 C 0.90543 0.62333 0.40513 0.0
H2194 H 0.90876 0.69192 0.38308 0.0
C2195 C 0.90156 0.62681 0.4381 0.0
C2196 C 0.89962 0.6537 0.45207 0.0
H2197 H 0.90532 0.60222 0.39544 0.0
H2198 H 0.89907 0.60807 0.45251 0.0
C2199 C 0.90352 0.67714 0.43178 0.0
C2200 C 0.42698 0.37786 0.40429 0.0
C2201 C 0.40354 0.38288 0.38431 0.0
H2202 H 0.44203 0.37164 0.45275 0.0
C2203 C 0.37676 0.38224 0.39865 0.0
H2204 H 0.44794 0.37816 0.39432 0.0
C2205 C 0.37348 0.37848 0.43165 0.0
C2206 C 0.39673 0.37481 0.45192 0.0
H2207 H 0.358 0.3856 0.38451 0.0
H2208 H 0.35251 0.37952 0.44161 0.0
C2209 C 0.4236 0.37387 0.43778 0.0
C2210 C 0.37502 0.65511 0.18713 0.0
C2211 C 0.40177 0.65183 0.20112 0.0
H2212 H 0.35065 0.65972 0.14436 0.0
C2213 C 0.42534 0.65429 0.18078 0.0
H2214 H 0.35622 0.65372 0.2016 0.0
C2215 C 0.42197 0.65819 0.14727 0.0
C2216 C 0.39497 0.65986 0.13348 0.0
H2217 H 0.44628 0.65183 0.19046 0.0
H2218 H 0.44034 0.65819 0.13203 0.0
C2219 C 0.37173 0.65888 0.15409 0.0
C2220 C 0.15689 0.64139 0.90105 0.0
C2221 C 0.13099 0.64653 0.88577 0.0
H2222 H 0.18037 0.6395 0.94454 0.0
C2223 C 0.10865 0.65635 0.90508 0.0
H2224 H 0.17489 0.63407 0.88761 0.0
C2225 C 0.11211 0.6599 0.9387 0.0
C2226 C 0.1379 0.65346 0.95368 0.0
H2227 H 0.0884 0.66065 0.89441 0.0
H2228 H 0.09437 0.66646 0.95304 0.0
C2229 C 0.16018 0.64462 0.93409 0.0
C2230 C 0.10966 0.37819 0.68198 0.0
C2231 C 0.13353 0.37989 0.70197 0.0
H2232 H 0.09407 0.37502 0.63337 0.0
C2233 C 0.15998 0.37544 0.68773 0.0
H2234 H 0.08897 0.38168 0.6919 0.0
C2235 C 0.1628 0.37145 0.65467 0.0
C2236 C 0.13934 0.37148 0.63431 0.0
H2237 H 0.17893 0.37625 0.70205 0.0
H2238 H 0.18374 0.36983 0.6447 0.0
C2239 C 0.11256 0.37417 0.64842 0.0
loop_
_geom_bond_atom_site_label_1
_geom_bond_atom_site_label_2
_geom_bond_distance
_geom_bond_site_symmetry_2
_ccdc_geom_bond_type
Ho0 C3 2.811 . S
Ho0 O20 2.322 . S
Ho0 O22 2.378 . S
Ho0 O23 2.524 . S
Ho0 O24 2.381 . S
Ho0 O25 2.669 . S
Ho0 O27 2.346 . S
Ho0 O31 2.305 . S
Ho1 C12 2.811 . S
Ho1 O21 2.346 . S
Ho1 O25 2.305 . S
Ho1 O26 2.322 . S
Ho1 O28 2.378 . S
Ho1 O29 2.524 . S
Ho1 O30 2.381 . S
Ho1 O31 2.669 . S
C2 O20 1.259 . S
C2 O21 1.268 . S
C3 Ho0 2.811 . S
C3 C4 1.488 . S
C3 O22 1.215 . S
C3 O23 1.289 . S
C4 C3 1.488 . S
C4 C5 1.348 . S
C4 C9 1.413 . S
C5 C4 1.348 . S
C5 C6 1.442 . S
C5 H32 0.930 . S
C6 C5 1.442 . S
C6 C7 1.381 . S
C6 H33 0.931 . S
C7 C6 1.381 . S
C7 C8 1.321 . S
C8 C7 1.321 . S
C8 C9 1.403 . S
C8 H34 0.934 . S
C9 C4 1.413 . S
C9 C8 1.403 . S
C9 H35 0.930 . S
C10 O24 1.275 . S
C10 O25 1.256 . S
C11 O26 1.259 . S
C11 O27 1.268 . S
C12 Ho1 2.811 . S
C12 C13 1.488 . S
C12 O28 1.215 . S
C12 O29 1.289 . S
C13 C12 1.488 . S
C13 C14 1.348 . S
C13 C18 1.413 . S
C14 C13 1.348 . S
C14 C15 1.442 . S
C14 H36 0.930 . S
C15 C14 1.442 . S
C15 C16 1.381 1_455 S
C15 H37 0.931 . S
C16 C15 1.381 1_655 S
C16 C17 1.321 . S
C17 C16 1.321 . S
C17 C18 1.403 1_655 S
C17 H38 0.934 . S
C18 C13 1.413 . S
C18 C17 1.403 1_455 S
C18 H39 0.930 . S
C19 O30 1.275 . S
C19 O31 1.256 . S
O20 Ho0 2.322 . S
O20 C2 1.259 . S
O21 Ho1 2.346 . S
O21 C2 1.268 . S
O22 Ho0 2.378 . S
O22 C3 1.215 . S
O23 Ho0 2.524 . S
O23 C3 1.289 . S
O24 Ho0 2.381 . S
O24 C10 1.275 . S
O25 Ho0 2.669 . S
O25 Ho1 2.305 . S
O25 C10 1.256 . S
O26 Ho1 2.322 . S
O26 C11 1.259 . S
O27 Ho0 2.346 . S
O27 C11 1.268 . S
O28 Ho1 2.378 . S
O28 C12 1.215 . S
O29 Ho1 2.524 . S
O29 C12 1.289 . S
O30 Ho1 2.381 . S
O30 C19 1.275 . S
O31 Ho0 2.305 . S
O31 Ho1 2.669 . S
O31 C19 1.256 . S
H32 C5 0.930 . S
H33 C6 0.931 . S
H34 C8 0.934 . S
H35 C9 0.930 . S
H36 C14 0.930 . S
H37 C15 0.931 . S
H38 C17 0.934 . S
H39 C18 0.930 . S
Ho40 C43 2.811 . S
Ho40 O60 2.322 . S
Ho40 O62 2.378 . S
Ho40 O63 2.524 . S
Ho40 O64 2.381 . S
Ho40 O65 2.669 . S
Ho40 O67 2.346 . S
Ho40 O71 2.305 . S
Ho41 C52 2.811 . S
Ho41 O61 2.346 . S
Ho41 O65 2.305 . S
Ho41 O66 2.322 . S
Ho41 O68 2.378 . S
Ho41 O69 2.524 . S
Ho41 O70 2.381 . S
Ho41 O71 2.669 . S
C42 O60 1.259 . S
C42 O61 1.268 . S
C43 Ho40 2.811 . S
C43 C44 1.488 . S
C43 O62 1.215 . S
C43 O63 1.289 . S
C44 C43 1.488 . S
C44 C45 1.348 . S
C44 C49 1.413 . S
C45 C44 1.348 . S
C45 C46 1.442 . S
C45 H72 0.930 . S
C46 C45 1.442 . S
C46 C47 1.381 1_565 S
C46 H73 0.931 . S
C47 C46 1.381 1_545 S
C47 C48 1.321 . S
C48 C47 1.321 . S
C48 C49 1.403 1_545 S
C48 H74 0.934 . S
C49 C44 1.413 . S
C49 C48 1.403 1_565 S
C49 H75 0.930 . S
C50 O64 1.275 . S
C50 O65 1.256 . S
C51 O66 1.259 . S
C51 O67 1.268 . S
C52 Ho41 2.811 . S
C52 C53 1.488 . S
C52 O68 1.215 . S
C52 O69 1.289 . S
C53 C52 1.488 . S
C53 C54 1.348 . S
C53 C58 1.413 . S
C54 C53 1.348 . S
C54 C55 1.442 . S
C54 H76 0.930 . S
C55 C54 1.442 . S
C55 C56 1.381 . S
C55 H77 0.931 . S
C56 C55 1.381 . S
C56 C57 1.321 . S
C57 C56 1.321 . S
C57 C58 1.403 . S
C57 H78 0.934 . S
C58 C53 1.413 . S
C58 C57 1.403 . S
C58 H79 0.930 . S
C59 O70 1.275 . S
C59 O71 1.256 . S
O60 Ho40 2.322 . S
O60 C42 1.259 . S
O61 Ho41 2.346 . S
O61 C42 1.268 . S
O62 Ho40 2.378 . S
O62 C43 1.215 . S
O63 Ho40 2.524 . S
O63 C43 1.289 . S
O64 Ho40 2.381 . S
O64 C50 1.275 . S
O65 Ho40 2.669 . S
O65 Ho41 2.305 . S
O65 C50 1.256 . S
O66 Ho41 2.322 . S
O66 C51 1.259 . S
O67 Ho40 2.346 . S
O67 C51 1.268 . S
O68 Ho41 2.378 . S
O68 C52 1.215 . S
O69 Ho41 2.524 . S
O69 C52 1.289 . S
O70 Ho41 2.381 . S
O70 C59 1.275 . S
O71 Ho40 2.305 . S
O71 Ho41 2.669 . S
O71 C59 1.256 . S
H72 C45 0.930 . S
H73 C46 0.931 . S
H74 C48 0.934 . S
H75 C49 0.930 . S
H76 C54 0.930 . S
H77 C55 0.931 . S
H78 C57 0.934 . S
H79 C58 0.930 . S
Ho80 C83 2.811 . S
Ho80 O100 2.322 . S
Ho80 O102 2.378 . S
Ho80 O103 2.524 . S
Ho80 O104 2.381 . S
Ho80 O105 2.669 . S
Ho80 O107 2.346 . S
Ho80 O111 2.305 . S
Ho81 C92 2.811 . S
Ho81 O101 2.346 . S
Ho81 O105 2.305 . S
Ho81 O106 2.322 . S
Ho81 O108 2.378 . S
Ho81 O109 2.524 . S
Ho81 O110 2.381 . S
Ho81 O111 2.669 . S
C82 O100 1.259 . S
C82 O101 1.268 . S
C83 Ho80 2.811 . S
C83 C84 1.488 . S
C83 O102 1.215 . S
C83 O103 1.289 . S
C84 C83 1.488 . S
C84 C85 1.348 . S
C84 C89 1.413 . S
C85 C84 1.348 . S
C85 C86 1.442 . S
C85 H112 0.930 . S
C86 C85 1.442 . S
C86 C87 1.381 . S
C86 H113 0.931 . S
C87 C86 1.381 . S
C87 C88 1.321 . S
C88 C87 1.321 . S
C88 C89 1.403 . S
C88 H114 0.934 . S
C89 C84 1.413 . S
C89 C88 1.403 . S
C89 H115 0.930 . S
C90 O104 1.275 . S
C90 O105 1.256 . S
C91 O106 1.259 . S
C91 O107 1.268 . S
C92 Ho81 2.811 . S
C92 C93 1.488 . S
C92 O108 1.215 . S
C92 O109 1.289 . S
C93 C92 1.488 . S
C93 C94 1.348 . S
C93 C98 1.413 . S
C94 C93 1.348 . S
C94 C95 1.442 . S
C94 H116 0.930 . S
C95 C94 1.442 . S
C95 C96 1.381 . S
C95 H117 0.931 . S
C96 C95 1.381 . S
C96 C97 1.321 . S
C97 C96 1.321 . S
C97 C98 1.403 . S
C97 H118 0.934 . S
C98 C93 1.413 . S
C98 C97 1.403 . S
C98 H119 0.930 . S
C99 O110 1.275 . S
C99 O111 1.256 . S
O100 Ho80 2.322 . S
O100 C82 1.259 . S
O101 Ho81 2.346 . S
O101 C82 1.268 . S
O102 Ho80 2.378 . S
O102 C83 1.215 . S
O103 Ho80 2.524 . S
O103 C83 1.289 . S
O104 Ho80 2.381 . S
O104 C90 1.275 . S
O105 Ho80 2.669 . S
O105 Ho81 2.305 . S
O105 C90 1.256 . S
O106 Ho81 2.322 . S
O106 C91 1.259 . S
O107 Ho80 2.346 . S
O107 C91 1.268 . S
O108 Ho81 2.378 . S
O108 C92 1.215 . S
O109 Ho81 2.524 . S
O109 C92 1.289 . S
O110 Ho81 2.381 . S
O110 C99 1.275 . S
O111 Ho80 2.305 . S
O111 Ho81 2.669 . S
O111 C99 1.256 . S
H112 C85 0.930 . S
H113 C86 0.931 . S
H114 C88 0.934 . S
H115 C89 0.930 . S
H116 C94 0.930 . S
H117 C95 0.931 . S
H118 C97 0.934 . S
H119 C98 0.930 . S
Ho120 C123 2.811 1_554 S
Ho120 O140 2.322 1_554 S
Ho120 O142 2.378 1_554 S
Ho120 O143 2.524 1_554 S
Ho120 O144 2.381 . S
Ho120 O145 2.669 . S
Ho120 O147 2.346 . S
Ho120 O151 2.305 . S
Ho121 C132 2.811 . S
Ho121 O141 2.346 1_554 S
Ho121 O145 2.305 . S
Ho121 O146 2.322 . S
Ho121 O148 2.378 . S
Ho121 O149 2.524 . S
Ho121 O150 2.381 . S
Ho121 O151 2.669 . S
C122 O140 1.259 . S
C122 O141 1.268 . S
C123 Ho120 2.811 1_556 S
C123 C124 1.488 . S
C123 O142 1.215 . S
C123 O143 1.289 . S
C124 C123 1.488 . S
C124 C125 1.348 . S
C124 C129 1.413 . S
C125 C124 1.348 . S
C125 C126 1.442 . S
C125 H152 0.930 . S
C126 C125 1.442 . S
C126 C127 1.381 1_545 S
C126 H153 0.931 . S
C127 C126 1.381 1_565 S
C127 C128 1.321 . S
C128 C127 1.321 . S
C128 C129 1.403 1_565 S
C128 H154 0.934 . S
C129 C124 1.413 . S
C129 C128 1.403 1_545 S
C129 H155 0.930 . S
C130 O144 1.275 . S
C130 O145 1.256 . S
C131 O146 1.259 . S
C131 O147 1.268 . S
C132 Ho121 2.811 . S
C132 C133 1.488 . S
C132 O148 1.215 . S
C132 O149 1.289 . S
C133 C132 1.488 . S
C133 C134 1.348 . S
C133 C138 1.413 . S
C134 C133 1.348 . S
C134 C135 1.442 . S
C134 H156 0.930 . S
C135 C134 1.442 . S
C135 C136 1.381 . S
C135 H157 0.931 . S
C136 C135 1.381 . S
C136 C137 1.321 . S
C137 C136 1.321 . S
C137 C138 1.403 . S
C137 H158 0.934 . S
C138 C133 1.413 . S
C138 C137 1.403 . S
C138 H159 0.930 . S
C139 O150 1.275 1_556 S
C139 O151 1.256 1_556 S
O140 Ho120 2.322 1_556 S
O140 C122 1.259 . S
O141 Ho121 2.346 1_556 S
O141 C122 1.268 . S
O142 Ho120 2.378 1_556 S
O142 C123 1.215 . S
O143 Ho120 2.524 1_556 S
O143 C123 1.289 . S
O144 Ho120 2.381 . S
O144 C130 1.275 . S
O145 Ho120 2.669 . S
O145 Ho121 2.305 . S
O145 C130 1.256 . S
O146 Ho121 2.322 . S
O146 C131 1.259 . S
O147 Ho120 2.346 . S
O147 C131 1.268 . S
O148 Ho121 2.378 . S
O148 C132 1.215 . S
O149 Ho121 2.524 . S
O149 C132 1.289 . S
O150 Ho121 2.381 . S
O150 C139 1.275 1_554 S
O151 Ho120 2.305 . S
O151 Ho121 2.669 . S
O151 C139 1.256 1_554 S
H152 C125 0.930 . S
H153 C126 0.931 . S
H154 C128 0.934 . S
H155 C129 0.930 . S
H156 C134 0.930 . S
H157 C135 0.931 . S
H158 C137 0.934 . S
H159 C138 0.930 . S
Ho160 C163 2.811 . S
Ho160 O180 2.322 . S
Ho160 O182 2.378 . S
Ho160 O183 2.524 . S
Ho160 O184 2.381 . S
Ho160 O185 2.669 . S
Ho160 O187 2.346 . S
Ho160 O191 2.305 . S
Ho161 C172 2.811 . S
Ho161 O181 2.346 . S
Ho161 O185 2.305 . S
Ho161 O186 2.322 . S
Ho161 O188 2.378 . S
Ho161 O189 2.524 . S
Ho161 O190 2.381 . S
Ho161 O191 2.669 . S
C162 O180 1.259 . S
C162 O181 1.268 . S
C163 Ho160 2.811 . S
C163 C164 1.488 . S
C163 O182 1.215 . S
C163 O183 1.289 . S
C164 C163 1.488 . S
C164 C165 1.348 . S
C164 C169 1.413 . S
C165 C164 1.348 . S
C165 C166 1.442 . S
C165 H192 0.930 . S
C166 C165 1.442 . S
C166 C167 1.381 . S
C166 H193 0.931 . S
C167 C166 1.381 . S
C167 C168 1.321 . S
C168 C167 1.321 . S
C168 C169 1.403 . S
C168 H194 0.934 . S
C169 C164 1.413 . S
C169 C168 1.403 . S
C169 H195 0.930 . S
C170 O184 1.275 . S
C170 O185 1.256 . S
C171 O186 1.259 . S
C171 O187 1.268 . S
C172 Ho161 2.811 . S
C172 C173 1.488 . S
C172 O188 1.215 . S
C172 O189 1.289 . S
C173 C172 1.488 . S
C173 C174 1.348 . S
C173 C178 1.413 . S
C174 C173 1.348 . S
C174 C175 1.442 . S
C174 H196 0.930 . S
C175 C174 1.442 . S
C175 C176 1.381 1_455 S
C175 H197 0.931 . S
C176 C175 1.381 1_655 S
C176 C177 1.321 . S
C177 C176 1.321 . S
C177 C178 1.403 1_655 S
C177 H198 0.934 . S
C178 C173 1.413 . S
C178 C177 1.403 1_455 S
C178 H199 0.930 . S
C179 O190 1.275 . S
C179 O191 1.256 . S
O180 Ho160 2.322 . S
O180 C162 1.259 . S
O181 Ho161 2.346 . S
O181 C162 1.268 . S
O182 Ho160 2.378 . S
O182 C163 1.215 . S
O183 Ho160 2.524 . S
O183 C163 1.289 . S
O184 Ho160 2.381 . S
O184 C170 1.275 . S
O185 Ho160 2.669 . S
O185 Ho161 2.305 . S
O185 C170 1.256 . S
O186 Ho161 2.322 . S
O186 C171 1.259 . S
O187 Ho160 2.346 . S
O187 C171 1.268 . S
O188 Ho161 2.378 . S
O188 C172 1.215 . S
O189 Ho161 2.524 . S
O189 C172 1.289 . S
O190 Ho161 2.381 . S
O190 C179 1.275 . S
O191 Ho160 2.305 . S
O191 Ho161 2.669 . S
O191 C179 1.256 . S
H192 C165 0.930 . S
H193 C166 0.931 . S
H194 C168 0.934 . S
H195 C169 0.930 . S
H196 C174 0.930 . S
H197 C175 0.931 . S
H198 C177 0.934 . S
H199 C178 0.930 . S
Ho200 C203 2.811 . S
Ho200 O220 2.322 . S
Ho200 O222 2.378 . S
Ho200 O223 2.524 . S
Ho200 O224 2.381 . S
Ho200 O225 2.669 . S
Ho200 O227 2.346 . S
Ho200 O231 2.305 . S
Ho201 C212 2.811 . S
Ho201 O221 2.346 . S
Ho201 O225 2.305 . S
Ho201 O226 2.322 . S
Ho201 O228 2.378 . S
Ho201 O229 2.524 . S
Ho201 O230 2.381 . S
Ho201 O231 2.669 . S
C202 O220 1.259 . S
C202 O221 1.268 . S
C203 Ho200 2.811 . S
C203 C204 1.488 . S
C203 O222 1.215 . S
C203 O223 1.289 . S
C204 C203 1.488 . S
C204 C205 1.348 . S
C204 C209 1.413 . S
C205 C204 1.348 . S
C205 C206 1.442 . S
C205 H232 0.930 . S
C206 C205 1.442 . S
C206 C207 1.381 1_565 S
C206 H233 0.931 . S
C207 C206 1.381 1_545 S
C207 C208 1.321 . S
C208 C207 1.321 . S
C208 C209 1.403 1_545 S
C208 H234 0.934 . S
C209 C204 1.413 . S
C209 C208 1.403 1_565 S
C209 H235 0.930 . S
C210 O224 1.275 . S
C210 O225 1.256 . S
C211 O226 1.259 . S
C211 O227 1.268 . S
C212 Ho201 2.811 . S
C212 C213 1.488 . S
C212 O228 1.215 . S
C212 O229 1.289 . S
C213 C212 1.488 . S
C213 C214 1.348 . S
C213 C218 1.413 . S
C214 C213 1.348 . S
C214 C215 1.442 . S
C214 H236 0.930 . S
C215 C214 1.442 . S
C215 C216 1.381 . S
C215 H237 0.931 . S
C216 C215 1.381 . S
C216 C217 1.321 . S
C217 C216 1.321 . S
C217 C218 1.403 . S
C217 H238 0.934 . S
C218 C213 1.413 . S
C218 C217 1.403 . S
C218 H239 0.930 . S
C219 O230 1.275 . S
C219 O231 1.256 . S
O220 Ho200 2.322 . S
O220 C202 1.259 . S
O221 Ho201 2.346 . S
O221 C202 1.268 . S
O222 Ho200 2.378 . S
O222 C203 1.215 . S
O223 Ho200 2.524 . S
O223 C203 1.289 . S
O224 Ho200 2.381 . S
O224 C210 1.275 . S
O225 Ho200 2.669 . S
O225 Ho201 2.305 . S
O225 C210 1.256 . S
O226 Ho201 2.322 . S
O226 C211 1.259 . S
O227 Ho200 2.346 . S
O227 C211 1.268 . S
O228 Ho201 2.378 . S
O228 C212 1.215 . S
O229 Ho201 2.524 . S
O229 C212 1.289 . S
O230 Ho201 2.381 . S
O230 C219 1.275 . S
O231 Ho200 2.305 . S
O231 Ho201 2.669 . S
O231 C219 1.256 . S
H232 C205 0.930 . S
H233 C206 0.931 . S
H234 C208 0.934 . S
H235 C209 0.930 . S
H236 C214 0.930 . S
H237 C215 0.931 . S
H238 C217 0.934 . S
H239 C218 0.930 . S
Ho240 C243 2.811 . S
Ho240 O260 2.322 . S
Ho240 O262 2.378 . S
Ho240 O263 2.524 . S
Ho240 O264 2.381 . S
Ho240 O265 2.669 . S
Ho240 O267 2.346 . S
Ho240 O271 2.305 . S
Ho241 C252 2.811 . S
Ho241 O261 2.346 . S
Ho241 O265 2.305 . S
Ho241 O266 2.322 . S
Ho241 O268 2.378 . S
Ho241 O269 2.524 . S
Ho241 O270 2.381 . S
Ho241 O271 2.669 . S
C242 O260 1.259 . S
C242 O261 1.268 . S
C243 Ho240 2.811 . S
C243 C244 1.488 . S
C243 O262 1.215 . S
C243 O263 1.289 . S
C244 C243 1.488 . S
C244 C245 1.348 . S
C244 C249 1.413 . S
C245 C244 1.348 . S
C245 C246 1.442 . S
C245 H272 0.930 . S
C246 C245 1.442 . S
C246 C247 1.381 . S
C246 H273 0.931 . S
C247 C246 1.381 . S
C247 C248 1.321 . S
C248 C247 1.321 . S
C248 C249 1.403 . S
C248 H274 0.934 . S
C249 C244 1.413 . S
C249 C248 1.403 . S
C249 H275 0.930 . S
C250 O264 1.275 . S
C250 O265 1.256 . S
C251 O266 1.259 . S
C251 O267 1.268 . S
C252 Ho241 2.811 . S
C252 C253 1.488 . S
C252 O268 1.215 . S
C252 O269 1.289 . S
C253 C252 1.488 . S
C253 C254 1.348 . S
C253 C258 1.413 . S
C254 C253 1.348 . S
C254 C255 1.442 . S
C254 H276 0.930 . S
C255 C254 1.442 . S
C255 C256 1.381 . S
C255 H277 0.931 . S
C256 C255 1.381 . S
C256 C257 1.321 . S
C257 C256 1.321 . S
C257 C258 1.403 . S
C257 H278 0.934 . S
C258 C253 1.413 . S
C258 C257 1.403 . S
C258 H279 0.930 . S
C259 O270 1.275 . S
C259 O271 1.256 . S
O260 Ho240 2.322 . S
O260 C242 1.259 . S
O261 Ho241 2.346 . S
O261 C242 1.268 . S
O262 Ho240 2.378 . S
O262 C243 1.215 . S
O263 Ho240 2.524 . S
O263 C243 1.289 . S
O264 Ho240 2.381 . S
O264 C250 1.275 . S
O265 Ho240 2.669 . S
O265 Ho241 2.305 . S
O265 C250 1.256 . S
O266 Ho241 2.322 . S
O266 C251 1.259 . S
O267 Ho240 2.346 . S
O267 C251 1.268 . S
O268 Ho241 2.378 . S
O268 C252 1.215 . S
O269 Ho241 2.524 . S
O269 C252 1.289 . S
O270 Ho241 2.381 . S
O270 C259 1.275 . S
O271 Ho240 2.305 . S
O271 Ho241 2.669 . S
O271 C259 1.256 . S
H272 C245 0.930 . S
H273 C246 0.931 . S
H274 C248 0.934 . S
H275 C249 0.930 . S
H276 C254 0.930 . S
H277 C255 0.931 . S
H278 C257 0.934 . S
H279 C258 0.930 . S
Ho280 C283 2.811 1_556 S
Ho280 O300 2.322 1_556 S
Ho280 O302 2.378 1_556 S
Ho280 O303 2.524 1_556 S
Ho280 O304 2.381 . S
Ho280 O305 2.669 . S
Ho280 O307 2.346 . S
Ho280 O311 2.305 . S
Ho281 C292 2.811 . S
Ho281 O301 2.346 1_556 S
Ho281 O305 2.305 . S
Ho281 O306 2.322 . S
Ho281 O308 2.378 . S
Ho281 O309 2.524 . S
Ho281 O310 2.381 . S
Ho281 O311 2.669 . S
C282 O300 1.259 . S
C282 O301 1.268 . S
C283 Ho280 2.811 1_554 S
C283 C284 1.488 . S
C283 O302 1.215 . S
C283 O303 1.289 . S
C284 C283 1.488 . S
C284 C285 1.348 . S
C284 C289 1.413 . S
C285 C284 1.348 . S
C285 C286 1.442 . S
C285 H312 0.930 . S
C286 C285 1.442 . S
C286 C287 1.381 1_545 S
C286 H313 0.931 . S
C287 C286 1.381 1_565 S
C287 C288 1.321 . S
C288 C287 1.321 . S
C288 C289 1.403 1_565 S
C288 H314 0.934 . S
C289 C284 1.413 . S
C289 C288 1.403 1_545 S
C289 H315 0.930 . S
C290 O304 1.275 . S
C290 O305 1.256 . S
C291 O306 1.259 . S
C291 O307 1.268 . S
C292 Ho281 2.811 . S
C292 C293 1.488 . S
C292 O308 1.215 . S
C292 O309 1.289 . S
C293 C292 1.488 . S
C293 C294 1.348 . S
C293 C298 1.413 . S
C294 C293 1.348 . S
C294 C295 1.442 . S
C294 H316 0.930 . S
C295 C294 1.442 . S
C295 C296 1.381 . S
C295 H317 0.931 . S
C296 C295 1.381 . S
C296 C297 1.321 . S
C297 C296 1.321 . S
C297 C298 1.403 . S
C297 H318 0.934 . S
C298 C293 1.413 . S
C298 C297 1.403 . S
C298 H319 0.930 . S
C299 O310 1.275 1_554 S
C299 O311 1.256 1_554 S
O300 Ho280 2.322 1_554 S
O300 C282 1.259 . S
O301 Ho281 2.346 1_554 S
O301 C282 1.268 . S
O302 Ho280 2.378 1_554 S
O302 C283 1.215 . S
O303 Ho280 2.524 1_554 S
O303 C283 1.289 . S
O304 Ho280 2.381 . S
O304 C290 1.275 . S
O305 Ho280 2.669 . S
O305 Ho281 2.305 . S
O305 C290 1.256 . S
O306 Ho281 2.322 . S
O306 C291 1.259 . S
O307 Ho280 2.346 . S
O307 C291 1.268 . S
O308 Ho281 2.378 . S
O308 C292 1.215 . S
O309 Ho281 2.524 . S
O309 C292 1.289 . S
O310 Ho281 2.381 . S
O310 C299 1.275 1_556 S
O311 Ho280 2.305 . S
O311 Ho281 2.669 . S
O311 C299 1.256 1_556 S
H312 C285 0.930 . S
H313 C286 0.931 . S
H314 C288 0.934 . S
H315 C289 0.930 . S
H316 C294 0.930 . S
H317 C295 0.931 . S
H318 C297 0.934 . S
H319 C298 0.930 . S
Ho320 C323 2.811 . S
Ho320 O340 2.322 . S
Ho320 O342 2.378 . S
Ho320 O343 2.524 . S
Ho320 O344 2.381 . S
Ho320 O345 2.669 . S
Ho320 O347 2.346 . S
Ho320 O351 2.305 . S
Ho321 C332 2.811 . S
Ho321 O341 2.346 . S
Ho321 O345 2.305 . S
Ho321 O346 2.322 . S
Ho321 O348 2.378 . S
Ho321 O349 2.524 . S
Ho321 O350 2.381 . S
Ho321 O351 2.669 . S
C322 O340 1.259 . S
C322 O341 1.268 . S
C323 Ho320 2.811 . S
C323 C324 1.488 . S
C323 O342 1.215 . S
C323 O343 1.289 . S
C324 C323 1.488 . S
C324 C325 1.348 . S
C324 C329 1.413 . S
C325 C324 1.348 . S
C325 C326 1.442 . S
C325 H352 0.930 . S
C326 C325 1.442 . S
C326 C327 1.381 1_655 S
C326 H353 0.931 . S
C327 C326 1.381 1_455 S
C327 C328 1.321 . S
C328 C327 1.321 . S
C328 C329 1.403 1_455 S
C328 H354 0.934 . S
C329 C324 1.413 . S
C329 C328 1.403 1_655 S
C329 H355 0.930 . S
C330 O344 1.275 . S
C330 O345 1.256 . S
C331 O346 1.259 . S
C331 O347 1.268 . S
C332 Ho321 2.811 . S
C332 C333 1.488 . S
C332 O348 1.215 . S
C332 O349 1.289 . S
C333 C332 1.488 . S
C333 C334 1.348 . S
C333 C338 1.413 . S
C334 C333 1.348 . S
C334 C335 1.442 . S
C334 H356 0.930 . S
C335 C334 1.442 . S
C335 C336 1.381 . S
C335 H357 0.931 . S
C336 C335 1.381 . S
C336 C337 1.321 . S
C337 C336 1.321 . S
C337 C338 1.403 . S
C337 H358 0.934 . S
C338 C333 1.413 . S
C338 C337 1.403 . S
C338 H359 0.930 . S
C339 O350 1.275 . S
C339 O351 1.256 . S
O340 Ho320 2.322 . S
O340 C322 1.259 . S
O341 Ho321 2.346 . S
O341 C322 1.268 . S
O342 Ho320 2.378 . S
O342 C323 1.215 . S
O343 Ho320 2.524 . S
O343 C323 1.289 . S
O344 Ho320 2.381 . S
O344 C330 1.275 . S
O345 Ho320 2.669 . S
O345 Ho321 2.305 . S
O345 C330 1.256 . S
O346 Ho321 2.322 . S
O346 C331 1.259 . S
O347 Ho320 2.346 . S
O347 C331 1.268 . S
O348 Ho321 2.378 . S
O348 C332 1.215 . S
O349 Ho321 2.524 . S
O349 C332 1.289 . S
O350 Ho321 2.381 . S
O350 C339 1.275 . S
O351 Ho320 2.305 . S
O351 Ho321 2.669 . S
O351 C339 1.256 . S
H352 C325 0.930 . S
H353 C326 0.931 . S
H354 C328 0.934 . S
H355 C329 0.930 . S
H356 C334 0.930 . S
H357 C335 0.931 . S
H358 C337 0.934 . S
H359 C338 0.930 . S
Ho360 C363 2.811 . S
Ho360 O380 2.322 . S
Ho360 O382 2.378 . S
Ho360 O383 2.524 . S
Ho360 O384 2.381 . S
Ho360 O385 2.669 . S
Ho360 O387 2.346 . S
Ho360 O391 2.305 . S
Ho361 C372 2.811 . S
Ho361 O381 2.346 . S
Ho361 O385 2.305 . S
Ho361 O386 2.322 . S
Ho361 O388 2.378 . S
Ho361 O389 2.524 . S
Ho361 O390 2.381 . S
Ho361 O391 2.669 . S
C362 O380 1.259 . S
C362 O381 1.268 . S
C363 Ho360 2.811 . S
C363 C364 1.488 . S
C363 O382 1.215 . S
C363 O383 1.289 . S
C364 C363 1.488 . S
C364 C365 1.348 . S
C364 C369 1.413 . S
C365 C364 1.348 . S
C365 C366 1.442 . S
C365 H392 0.930 . S
C366 C365 1.442 . S
C366 C367 1.381 . S
C366 H393 0.931 . S
C367 C366 1.381 . S
C367 C368 1.321 . S
C368 C367 1.321 . S
C368 C369 1.403 . S
C368 H394 0.934 . S
C369 C364 1.413 . S
C369 C368 1.403 . S
C369 H395 0.930 . S
C370 O384 1.275 . S
C370 O385 1.256 . S
C371 O386 1.259 . S
C371 O387 1.268 . S
C372 Ho361 2.811 . S
C372 C373 1.488 . S
C372 O388 1.215 . S
C372 O389 1.289 . S
C373 C372 1.488 . S
C373 C374 1.348 . S
C373 C378 1.413 . S
C374 C373 1.348 . S
C374 C375 1.442 . S
C374 H396 0.930 . S
C375 C374 1.442 . S
C375 C376 1.381 1_545 S
C375 H397 0.931 . S
C376 C375 1.381 1_565 S
C376 C377 1.321 . S
C377 C376 1.321 . S
C377 C378 1.403 1_565 S
C377 H398 0.934 . S
C378 C373 1.413 . S
C378 C377 1.403 1_545 S
C378 H399 0.930 . S
C379 O390 1.275 . S
C379 O391 1.256 . S
O380 Ho360 2.322 . S
O380 C362 1.259 . S
O381 Ho361 2.346 . S
O381 C362 1.268 . S
O382 Ho360 2.378 . S
O382 C363 1.215 . S
O383 Ho360 2.524 . S
O383 C363 1.289 . S
O384 Ho360 2.381 . S
O384 C370 1.275 . S
O385 Ho360 2.669 . S
O385 Ho361 2.305 . S
O385 C370 1.256 . S
O386 Ho361 2.322 . S
O386 C371 1.259 . S
O387 Ho360 2.346 . S
O387 C371 1.268 . S
O388 Ho361 2.378 . S
O388 C372 1.215 . S
O389 Ho361 2.524 . S
O389 C372 1.289 . S
O390 Ho361 2.381 . S
O390 C379 1.275 . S
O391 Ho360 2.305 . S
O391 Ho361 2.669 . S
O391 C379 1.256 . S
H392 C365 0.930 . S
H393 C366 0.931 . S
H394 C368 0.934 . S
H395 C369 0.930 . S
H396 C374 0.930 . S
H397 C375 0.931 . S
H398 C377 0.934 . S
H399 C378 0.930 . S
Ho400 C403 2.811 . S
Ho400 O420 2.322 . S
Ho400 O422 2.378 . S
Ho400 O423 2.524 . S
Ho400 O424 2.381 . S
Ho400 O425 2.669 . S
Ho400 O427 2.346 . S
Ho400 O431 2.305 . S
Ho401 C412 2.811 . S
Ho401 O421 2.346 . S
Ho401 O425 2.305 . S
Ho401 O426 2.322 . S
Ho401 O428 2.378 . S
Ho401 O429 2.524 . S
Ho401 O430 2.381 . S
Ho401 O431 2.669 . S
C402 O420 1.259 . S
C402 O421 1.268 . S
C403 Ho400 2.811 . S
C403 C404 1.488 . S
C403 O422 1.215 . S
C403 O423 1.289 . S
C404 C403 1.488 . S
C404 C405 1.348 . S
C404 C409 1.413 . S
C405 C404 1.348 . S
C405 C406 1.442 . S
C405 H432 0.930 . S
C406 C405 1.442 . S
C406 C407 1.381 . S
C406 H433 0.931 . S
C407 C406 1.381 . S
C407 C408 1.321 . S
C408 C407 1.321 . S
C408 C409 1.403 . S
C408 H434 0.934 . S
C409 C404 1.413 . S
C409 C408 1.403 . S
C409 H435 0.930 . S
C410 O424 1.275 . S
C410 O425 1.256 . S
C411 O426 1.259 . S
C411 O427 1.268 . S
C412 Ho401 2.811 . S
C412 C413 1.488 . S
C412 O428 1.215 . S
C412 O429 1.289 . S
C413 C412 1.488 . S
C413 C414 1.348 . S
C413 C418 1.413 . S
C414 C413 1.348 . S
C414 C415 1.442 . S
C414 H436 0.930 . S
C415 C414 1.442 . S
C415 C416 1.381 . S
C415 H437 0.931 . S
C416 C415 1.381 . S
C416 C417 1.321 . S
C417 C416 1.321 . S
C417 C418 1.403 . S
C417 H438 0.934 . S
C418 C413 1.413 . S
C418 C417 1.403 . S
C418 H439 0.930 . S
C419 O430 1.275 . S
C419 O431 1.256 . S
O420 Ho400 2.322 . S
O420 C402 1.259 . S
O421 Ho401 2.346 . S
O421 C402 1.268 . S
O422 Ho400 2.378 . S
O422 C403 1.215 . S
O423 Ho400 2.524 . S
O423 C403 1.289 . S
O424 Ho400 2.381 . S
O424 C410 1.275 . S
O425 Ho400 2.669 . S
O425 Ho401 2.305 . S
O425 C410 1.256 . S
O426 Ho401 2.322 . S
O426 C411 1.259 . S
O427 Ho400 2.346 . S
O427 C411 1.268 . S
O428 Ho401 2.378 . S
O428 C412 1.215 . S
O429 Ho401 2.524 . S
O429 C412 1.289 . S
O430 Ho401 2.381 . S
O430 C419 1.275 . S
O431 Ho400 2.305 . S
O431 Ho401 2.669 . S
O431 C419 1.256 . S
H432 C405 0.930 . S
H433 C406 0.931 . S
H434 C408 0.934 . S
H435 C409 0.930 . S
H436 C414 0.930 . S
H437 C415 0.931 . S
H438 C417 0.934 . S
H439 C418 0.930 . S
Ho440 C443 2.811 . S
Ho440 O460 2.322 . S
Ho440 O462 2.378 . S
Ho440 O463 2.524 . S
Ho440 O464 2.381 . S
Ho440 O465 2.669 . S
Ho440 O467 2.346 1_556 S
Ho440 O471 2.305 . S
Ho441 C452 2.811 1_556 S
Ho441 O461 2.346 . S
Ho441 O465 2.305 . S
Ho441 O466 2.322 1_556 S
Ho441 O468 2.378 1_556 S
Ho441 O469 2.524 1_556 S
Ho441 O470 2.381 . S
Ho441 O471 2.669 . S
C442 O460 1.259 . S
C442 O461 1.268 . S
C443 Ho440 2.811 . S
C443 C444 1.488 . S
C443 O462 1.215 . S
C443 O463 1.289 . S
C444 C443 1.488 . S
C444 C445 1.348 . S
C444 C449 1.413 . S
C445 C444 1.348 . S
C445 C446 1.442 . S
C445 H472 0.930 . S
C446 C445 1.442 . S
C446 C447 1.381 . S
C446 H473 0.931 . S
C447 C446 1.381 . S
C447 C448 1.321 . S
C448 C447 1.321 . S
C448 C449 1.403 . S
C448 H474 0.934 . S
C449 C444 1.413 . S
C449 C448 1.403 . S
C449 H475 0.930 . S
C450 O464 1.275 1_554 S
C450 O465 1.256 1_554 S
C451 O466 1.259 . S
C451 O467 1.268 . S
C452 Ho441 2.811 1_554 S
C452 C453 1.488 . S
C452 O468 1.215 . S
C452 O469 1.289 . S
C453 C452 1.488 . S
C453 C454 1.348 . S
C453 C458 1.413 . S
C454 C453 1.348 . S
C454 C455 1.442 . S
C454 H476 0.930 . S
C455 C454 1.442 . S
C455 C456 1.381 1_565 S
C455 H477 0.931 . S
C456 C455 1.381 1_545 S
C456 C457 1.321 . S
C457 C456 1.321 . S
C457 C458 1.403 1_545 S
C457 H478 0.934 . S
C458 C453 1.413 . S
C458 C457 1.403 1_565 S
C458 H479 0.930 . S
C459 O470 1.275 . S
C459 O471 1.256 . S
O460 Ho440 2.322 . S
O460 C442 1.259 . S
O461 Ho441 2.346 . S
O461 C442 1.268 . S
O462 Ho440 2.378 . S
O462 C443 1.215 . S
O463 Ho440 2.524 . S
O463 C443 1.289 . S
O464 Ho440 2.381 . S
O464 C450 1.275 1_556 S
O465 Ho440 2.669 . S
O465 Ho441 2.305 . S
O465 C450 1.256 1_556 S
O466 Ho441 2.322 1_554 S
O466 C451 1.259 . S
O467 Ho440 2.346 1_554 S
O467 C451 1.268 . S
O468 Ho441 2.378 1_554 S
O468 C452 1.215 . S
O469 Ho441 2.524 1_554 S
O469 C452 1.289 . S
O470 Ho441 2.381 . S
O470 C459 1.275 . S
O471 Ho440 2.305 . S
O471 Ho441 2.669 . S
O471 C459 1.256 . S
H472 C445 0.930 . S
H473 C446 0.931 . S
H474 C448 0.934 . S
H475 C449 0.930 . S
H476 C454 0.930 . S
H477 C455 0.931 . S
H478 C457 0.934 . S
H479 C458 0.930 . S
Ho480 C483 2.811 . S
Ho480 O500 2.322 . S
Ho480 O502 2.378 . S
Ho480 O503 2.524 . S
Ho480 O504 2.381 . S
Ho480 O505 2.669 . S
Ho480 O507 2.346 . S
Ho480 O511 2.305 . S
Ho481 C492 2.811 . S
Ho481 O501 2.346 . S
Ho481 O505 2.305 . S
Ho481 O506 2.322 . S
Ho481 O508 2.378 . S
Ho481 O509 2.524 . S
Ho481 O510 2.381 . S
Ho481 O511 2.669 . S
C482 O500 1.259 . S
C482 O501 1.268 . S
C483 Ho480 2.811 . S
C483 C484 1.488 . S
C483 O502 1.215 . S
C483 O503 1.289 . S
C484 C483 1.488 . S
C484 C485 1.348 . S
C484 C489 1.413 . S
C485 C484 1.348 . S
C485 C486 1.442 . S
C485 H512 0.930 . S
C486 C485 1.442 . S
C486 C487 1.381 1_655 S
C486 H513 0.931 . S
C487 C486 1.381 1_455 S
C487 C488 1.321 . S
C488 C487 1.321 . S
C488 C489 1.403 1_455 S
C488 H514 0.934 . S
C489 C484 1.413 . S
C489 C488 1.403 1_655 S
C489 H515 0.930 . S
C490 O504 1.275 . S
C490 O505 1.256 . S
C491 O506 1.259 . S
C491 O507 1.268 . S
C492 Ho481 2.811 . S
C492 C493 1.488 . S
C492 O508 1.215 . S
C492 O509 1.289 . S
C493 C492 1.488 . S
C493 C494 1.348 . S
C493 C498 1.413 . S
C494 C493 1.348 . S
C494 C495 1.442 . S
C494 H516 0.930 . S
C495 C494 1.442 . S
C495 C496 1.381 . S
C495 H517 0.931 . S
C496 C495 1.381 . S
C496 C497 1.321 . S
C497 C496 1.321 . S
C497 C498 1.403 . S
C497 H518 0.934 . S
C498 C493 1.413 . S
C498 C497 1.403 . S
C498 H519 0.930 . S
C499 O510 1.275 . S
C499 O511 1.256 . S
O500 Ho480 2.322 . S
O500 C482 1.259 . S
O501 Ho481 2.346 . S
O501 C482 1.268 . S
O502 Ho480 2.378 . S
O502 C483 1.215 . S
O503 Ho480 2.524 . S
O503 C483 1.289 . S
O504 Ho480 2.381 . S
O504 C490 1.275 . S
O505 Ho480 2.669 . S
O505 Ho481 2.305 . S
O505 C490 1.256 . S
O506 Ho481 2.322 . S
O506 C491 1.259 . S
O507 Ho480 2.346 . S
O507 C491 1.268 . S
O508 Ho481 2.378 . S
O508 C492 1.215 . S
O509 Ho481 2.524 . S
O509 C492 1.289 . S
O510 Ho481 2.381 . S
O510 C499 1.275 . S
O511 Ho480 2.305 . S
O511 Ho481 2.669 . S
O511 C499 1.256 . S
H512 C485 0.930 . S
H513 C486 0.931 . S
H514 C488 0.934 . S
H515 C489 0.930 . S
H516 C494 0.930 . S
H517 C495 0.931 . S
H518 C497 0.934 . S
H519 C498 0.930 . S
Ho520 C523 2.811 . S
Ho520 O540 2.322 . S
Ho520 O542 2.378 . S
Ho520 O543 2.524 . S
Ho520 O544 2.381 . S
Ho520 O545 2.669 . S
Ho520 O547 2.346 . S
Ho520 O551 2.305 . S
Ho521 C532 2.811 . S
Ho521 O541 2.346 . S
Ho521 O545 2.305 . S
Ho521 O546 2.322 . S
Ho521 O548 2.378 . S
Ho521 O549 2.524 . S
Ho521 O550 2.381 . S
Ho521 O551 2.669 . S
C522 O540 1.259 . S
C522 O541 1.268 . S
C523 Ho520 2.811 . S
C523 C524 1.488 . S
C523 O542 1.215 . S
C523 O543 1.289 . S
C524 C523 1.488 . S
C524 C525 1.348 . S
C524 C529 1.413 . S
C525 C524 1.348 . S
C525 C526 1.442 . S
C525 H552 0.930 . S
C526 C525 1.442 . S
C526 C527 1.381 . S
C526 H553 0.931 . S
C527 C526 1.381 . S
C527 C528 1.321 . S
C528 C527 1.321 . S
C528 C529 1.403 . S
C528 H554 0.934 . S
C529 C524 1.413 . S
C529 C528 1.403 . S
C529 H555 0.930 . S
C530 O544 1.275 . S
C530 O545 1.256 . S
C531 O546 1.259 . S
C531 O547 1.268 . S
C532 Ho521 2.811 . S
C532 C533 1.488 . S
C532 O548 1.215 . S
C532 O549 1.289 . S
C533 C532 1.488 . S
C533 C534 1.348 . S
C533 C538 1.413 . S
C534 C533 1.348 . S
C534 C535 1.442 . S
C534 H556 0.930 . S
C535 C534 1.442 . S
C535 C536 1.381 1_545 S
C535 H557 0.931 . S
C536 C535 1.381 1_565 S
C536 C537 1.321 . S
C537 C536 1.321 . S
C537 C538 1.403 1_565 S
C537 H558 0.934 . S
C538 C533 1.413 . S
C538 C537 1.403 1_545 S
C538 H559 0.930 . S
C539 O550 1.275 . S
C539 O551 1.256 . S
O540 Ho520 2.322 . S
O540 C522 1.259 . S
O541 Ho521 2.346 . S
O541 C522 1.268 . S
O542 Ho520 2.378 . S
O542 C523 1.215 . S
O543 Ho520 2.524 . S
O543 C523 1.289 . S
O544 Ho520 2.381 . S
O544 C530 1.275 . S
O545 Ho520 2.669 . S
O545 Ho521 2.305 . S
O545 C530 1.256 . S
O546 Ho521 2.322 . S
O546 C531 1.259 . S
O547 Ho520 2.346 . S
O547 C531 1.268 . S
O548 Ho521 2.378 . S
O548 C532 1.215 . S
O549 Ho521 2.524 . S
O549 C532 1.289 . S
O550 Ho521 2.381 . S
O550 C539 1.275 . S
O551 Ho520 2.305 . S
O551 Ho521 2.669 . S
O551 C539 1.256 . S
H552 C525 0.930 . S
H553 C526 0.931 . S
H554 C528 0.934 . S
H555 C529 0.930 . S
H556 C534 0.930 . S
H557 C535 0.931 . S
H558 C537 0.934 . S
H559 C538 0.930 . S
Ho560 C563 2.811 . S
Ho560 O580 2.322 . S
Ho560 O582 2.378 . S
Ho560 O583 2.524 . S
Ho560 O584 2.381 . S
Ho560 O585 2.669 . S
Ho560 O587 2.346 . S
Ho560 O591 2.305 . S
Ho561 C572 2.811 . S
Ho561 O581 2.346 . S
Ho561 O585 2.305 . S
Ho561 O586 2.322 . S
Ho561 O588 2.378 . S
Ho561 O589 2.524 . S
Ho561 O590 2.381 . S
Ho561 O591 2.669 . S
C562 O580 1.259 . S
C562 O581 1.268 . S
C563 Ho560 2.811 . S
C563 C564 1.488 . S
C563 O582 1.215 . S
C563 O583 1.289 . S
C564 C563 1.488 . S
C564 C565 1.348 . S
C564 C569 1.413 . S
C565 C564 1.348 . S
C565 C566 1.442 . S
C565 H592 0.930 . S
C566 C565 1.442 . S
C566 C567 1.381 . S
C566 H593 0.931 . S
C567 C566 1.381 . S
C567 C568 1.321 . S
C568 C567 1.321 . S
C568 C569 1.403 . S
C568 H594 0.934 . S
C569 C564 1.413 . S
C569 C568 1.403 . S
C569 H595 0.930 . S
C570 O584 1.275 . S
C570 O585 1.256 . S
C571 O586 1.259 . S
C571 O587 1.268 . S
C572 Ho561 2.811 . S
C572 C573 1.488 . S
C572 O588 1.215 . S
C572 O589 1.289 . S
C573 C572 1.488 . S
C573 C574 1.348 . S
C573 C578 1.413 . S
C574 C573 1.348 . S
C574 C575 1.442 . S
C574 H596 0.930 . S
C575 C574 1.442 . S
C575 C576 1.381 . S
C575 H597 0.931 . S
C576 C575 1.381 . S
C576 C577 1.321 . S
C577 C576 1.321 . S
C577 C578 1.403 . S
C577 H598 0.934 . S
C578 C573 1.413 . S
C578 C577 1.403 . S
C578 H599 0.930 . S
C579 O590 1.275 . S
C579 O591 1.256 . S
O580 Ho560 2.322 . S
O580 C562 1.259 . S
O581 Ho561 2.346 . S
O581 C562 1.268 . S
O582 Ho560 2.378 . S
O582 C563 1.215 . S
O583 Ho560 2.524 . S
O583 C563 1.289 . S
O584 Ho560 2.381 . S
O584 C570 1.275 . S
O585 Ho560 2.669 . S
O585 Ho561 2.305 . S
O585 C570 1.256 . S
O586 Ho561 2.322 . S
O586 C571 1.259 . S
O587 Ho560 2.346 . S
O587 C571 1.268 . S
O588 Ho561 2.378 . S
O588 C572 1.215 . S
O589 Ho561 2.524 . S
O589 C572 1.289 . S
O590 Ho561 2.381 . S
O590 C579 1.275 . S
O591 Ho560 2.305 . S
O591 Ho561 2.669 . S
O591 C579 1.256 . S
H592 C565 0.930 . S
H593 C566 0.931 . S
H594 C568 0.934 . S
H595 C569 0.930 . S
H596 C574 0.930 . S
H597 C575 0.931 . S
H598 C577 0.934 . S
H599 C578 0.930 . S
Ho600 C603 2.811 . S
Ho600 O620 2.322 . S
Ho600 O622 2.378 . S
Ho600 O623 2.524 . S
Ho600 O624 2.381 . S
Ho600 O625 2.669 . S
Ho600 O627 2.346 1_554 S
Ho600 O631 2.305 . S
Ho601 C612 2.811 1_554 S
Ho601 O621 2.346 . S
Ho601 O625 2.305 . S
Ho601 O626 2.322 1_554 S
Ho601 O628 2.378 1_554 S
Ho601 O629 2.524 1_554 S
Ho601 O630 2.381 . S
Ho601 O631 2.669 . S
C602 O620 1.259 . S
C602 O621 1.268 . S
C603 Ho600 2.811 . S
C603 C604 1.488 . S
C603 O622 1.215 . S
C603 O623 1.289 . S
C604 C603 1.488 . S
C604 C605 1.348 . S
C604 C609 1.413 . S
C605 C604 1.348 . S
C605 C606 1.442 . S
C605 H632 0.930 . S
C606 C605 1.442 . S
C606 C607 1.381 . S
C606 H633 0.931 . S
C607 C606 1.381 . S
C607 C608 1.321 . S
C608 C607 1.321 . S
C608 C609 1.403 . S
C608 H634 0.934 . S
C609 C604 1.413 . S
C609 C608 1.403 . S
C609 H635 0.930 . S
C610 O624 1.275 1_556 S
C610 O625 1.256 1_556 S
C611 O626 1.259 . S
C611 O627 1.268 . S
C612 Ho601 2.811 1_556 S
C612 C613 1.488 . S
C612 O628 1.215 . S
C612 O629 1.289 . S
C613 C612 1.488 . S
C613 C614 1.348 . S
C613 C618 1.413 . S
C614 C613 1.348 . S
C614 C615 1.442 . S
C614 H636 0.930 . S
C615 C614 1.442 . S
C615 C616 1.381 1_565 S
C615 H637 0.931 . S
C616 C615 1.381 1_545 S
C616 C617 1.321 . S
C617 C616 1.321 . S
C617 C618 1.403 1_545 S
C617 H638 0.934 . S
C618 C613 1.413 . S
C618 C617 1.403 1_565 S
C618 H639 0.930 . S
C619 O630 1.275 . S
C619 O631 1.256 . S
O620 Ho600 2.322 . S
O620 C602 1.259 . S
O621 Ho601 2.346 . S
O621 C602 1.268 . S
O622 Ho600 2.378 . S
O622 C603 1.215 . S
O623 Ho600 2.524 . S
O623 C603 1.289 . S
O624 Ho600 2.381 . S
O624 C610 1.275 1_554 S
O625 Ho600 2.669 . S
O625 Ho601 2.305 . S
O625 C610 1.256 1_554 S
O626 Ho601 2.322 1_556 S
O626 C611 1.259 . S
O627 Ho600 2.346 1_556 S
O627 C611 1.268 . S
O628 Ho601 2.378 1_556 S
O628 C612 1.215 . S
O629 Ho601 2.524 1_556 S
O629 C612 1.289 . S
O630 Ho601 2.381 . S
O630 C619 1.275 . S
O631 Ho600 2.305 . S
O631 Ho601 2.669 . S
O631 C619 1.256 . S
H632 C605 0.930 . S
H633 C606 0.931 . S
H634 C608 0.934 . S
H635 C609 0.930 . S
H636 C614 0.930 . S
H637 C615 0.931 . S
H638 C617 0.934 . S
H639 C618 0.930 . S
Ho640 C643 2.811 . S
Ho640 O660 2.322 . S
Ho640 O662 2.378 . S
Ho640 O663 2.524 . S
Ho640 O664 2.381 . S
Ho640 O665 2.669 . S
Ho640 O667 2.346 . S
Ho640 O671 2.305 . S
Ho641 C652 2.811 . S
Ho641 O661 2.346 . S
Ho641 O665 2.305 . S
Ho641 O666 2.322 . S
Ho641 O668 2.378 . S
Ho641 O669 2.524 . S
Ho641 O670 2.381 . S
Ho641 O671 2.669 . S
C642 O660 1.259 . S
C642 O661 1.268 . S
C643 Ho640 2.811 . S
C643 C644 1.488 . S
C643 O662 1.215 . S
C643 O663 1.289 . S
C644 C643 1.488 . S
C644 C645 1.348 . S
C644 C649 1.413 . S
C645 C644 1.348 . S
C645 C646 1.442 . S
C645 H672 0.930 . S
C646 C645 1.442 . S
C646 C647 1.381 . S
C646 H673 0.931 . S
C647 C646 1.381 . S
C647 C648 1.321 . S
C648 C647 1.321 . S
C648 C649 1.403 . S
C648 H674 0.934 . S
C649 C644 1.413 . S
C649 C648 1.403 . S
C649 H675 0.930 . S
C650 O664 1.275 . S
C650 O665 1.256 . S
C651 O666 1.259 . S
C651 O667 1.268 . S
C652 Ho641 2.811 . S
C652 C653 1.488 . S
C652 O668 1.215 . S
C652 O669 1.289 . S
C653 C652 1.488 . S
C653 C654 1.348 . S
C653 C658 1.413 . S
C654 C653 1.348 . S
C654 C655 1.442 . S
C654 H676 0.930 . S
C655 C654 1.442 . S
C655 C656 1.381 . S
C655 H677 0.931 . S
C656 C655 1.381 . S
C656 C657 1.321 . S
C657 C656 1.321 . S
C657 C658 1.403 . S
C657 H678 0.934 . S
C658 C653 1.413 . S
C658 C657 1.403 . S
C658 H679 0.930 . S
C659 O670 1.275 . S
C659 O671 1.256 . S
O660 Ho640 2.322 . S
O660 C642 1.259 . S
O661 Ho641 2.346 . S
O661 C642 1.268 . S
O662 Ho640 2.378 . S
O662 C643 1.215 . S
O663 Ho640 2.524 . S
O663 C643 1.289 . S
O664 Ho640 2.381 . S
O664 C650 1.275 . S
O665 Ho640 2.669 . S
O665 Ho641 2.305 . S
O665 C650 1.256 . S
O666 Ho641 2.322 . S
O666 C651 1.259 . S
O667 Ho640 2.346 . S
O667 C651 1.268 . S
O668 Ho641 2.378 . S
O668 C652 1.215 . S
O669 Ho641 2.524 . S
O669 C652 1.289 . S
O670 Ho641 2.381 . S
O670 C659 1.275 . S
O671 Ho640 2.305 . S
O671 Ho641 2.669 . S
O671 C659 1.256 . S
H672 C645 0.930 . S
H673 C646 0.931 . S
H674 C648 0.934 . S
H675 C649 0.930 . S
H676 C654 0.930 . S
H677 C655 0.931 . S
H678 C657 0.934 . S
H679 C658 0.930 . S
Ho680 C683 2.811 1_554 S
Ho680 O700 2.322 1_554 S
Ho680 O702 2.378 1_554 S
Ho680 O703 2.524 1_554 S
Ho680 O704 2.381 . S
Ho680 O705 2.669 . S
Ho680 O707 2.346 . S
Ho680 O711 2.305 . S
Ho681 C692 2.811 . S
Ho681 O701 2.346 1_554 S
Ho681 O705 2.305 . S
Ho681 O706 2.322 . S
Ho681 O708 2.378 . S
Ho681 O709 2.524 . S
Ho681 O710 2.381 . S
Ho681 O711 2.669 . S
C682 O700 1.259 . S
C682 O701 1.268 . S
C683 Ho680 2.811 1_556 S
C683 C684 1.488 . S
C683 O702 1.215 . S
C683 O703 1.289 . S
C684 C683 1.488 . S
C684 C685 1.348 . S
C684 C689 1.413 . S
C685 C684 1.348 . S
C685 C686 1.442 . S
C685 H712 0.930 . S
C686 C685 1.442 . S
C686 C687 1.381 . S
C686 H713 0.931 . S
C687 C686 1.381 . S
C687 C688 1.321 . S
C688 C687 1.321 . S
C688 C689 1.403 . S
C688 H714 0.934 . S
C689 C684 1.413 . S
C689 C688 1.403 . S
C689 H715 0.930 . S
C690 O704 1.275 . S
C690 O705 1.256 . S
C691 O706 1.259 . S
C691 O707 1.268 . S
C692 Ho681 2.811 . S
C692 C693 1.488 . S
C692 O708 1.215 . S
C692 O709 1.289 . S
C693 C692 1.488 . S
C693 C694 1.348 . S
C693 C698 1.413 . S
C694 C693 1.348 . S
C694 C695 1.442 . S
C694 H716 0.930 . S
C695 C694 1.442 . S
C695 C696 1.381 . S
C695 H717 0.931 . S
C696 C695 1.381 . S
C696 C697 1.321 . S
C697 C696 1.321 . S
C697 C698 1.403 . S
C697 H718 0.934 . S
C698 C693 1.413 . S
C698 C697 1.403 . S
C698 H719 0.930 . S
C699 O710 1.275 1_556 S
C699 O711 1.256 1_556 S
O700 Ho680 2.322 1_556 S
O700 C682 1.259 . S
O701 Ho681 2.346 1_556 S
O701 C682 1.268 . S
O702 Ho680 2.378 1_556 S
O702 C683 1.215 . S
O703 Ho680 2.524 1_556 S
O703 C683 1.289 . S
O704 Ho680 2.381 . S
O704 C690 1.275 . S
O705 Ho680 2.669 . S
O705 Ho681 2.305 . S
O705 C690 1.256 . S
O706 Ho681 2.322 . S
O706 C691 1.259 . S
O707 Ho680 2.346 . S
O707 C691 1.268 . S
O708 Ho681 2.378 . S
O708 C692 1.215 . S
O709 Ho681 2.524 . S
O709 C692 1.289 . S
O710 Ho681 2.381 . S
O710 C699 1.275 1_554 S
O711 Ho680 2.305 . S
O711 Ho681 2.669 . S
O711 C699 1.256 1_554 S
H712 C685 0.930 . S
H713 C686 0.931 . S
H714 C688 0.934 . S
H715 C689 0.930 . S
H716 C694 0.930 . S
H717 C695 0.931 . S
H718 C697 0.934 . S
H719 C698 0.930 . S
Ho720 C723 2.811 . S
Ho720 O740 2.322 . S
Ho720 O742 2.378 . S
Ho720 O743 2.524 . S
Ho720 O744 2.381 . S
Ho720 O745 2.669 . S
Ho720 O747 2.346 . S
Ho720 O751 2.305 . S
Ho721 C732 2.811 . S
Ho721 O741 2.346 . S
Ho721 O745 2.305 . S
Ho721 O746 2.322 . S
Ho721 O748 2.378 . S
Ho721 O749 2.524 . S
Ho721 O750 2.381 . S
Ho721 O751 2.669 . S
C722 O740 1.259 . S
C722 O741 1.268 . S
C723 Ho720 2.811 . S
C723 C724 1.488 . S
C723 O742 1.215 . S
C723 O743 1.289 . S
C724 C723 1.488 . S
C724 C725 1.348 . S
C724 C729 1.413 . S
C725 C724 1.348 . S
C725 C726 1.442 . S
C725 H752 0.930 . S
C726 C725 1.442 . S
C726 C727 1.381 . S
C726 H753 0.931 . S
C727 C726 1.381 . S
C727 C728 1.321 . S
C728 C727 1.321 . S
C728 C729 1.403 . S
C728 H754 0.934 . S
C729 C724 1.413 . S
C729 C728 1.403 . S
C729 H755 0.930 . S
C730 O744 1.275 . S
C730 O745 1.256 . S
C731 O746 1.259 . S
C731 O747 1.268 . S
C732 Ho721 2.811 . S
C732 C733 1.488 . S
C732 O748 1.215 . S
C732 O749 1.289 . S
C733 C732 1.488 . S
C733 C734 1.348 . S
C733 C738 1.413 . S
C734 C733 1.348 . S
C734 C735 1.442 . S
C734 H756 0.930 . S
C735 C734 1.442 . S
C735 C736 1.381 1_655 S
C735 H757 0.931 . S
C736 C735 1.381 1_455 S
C736 C737 1.321 . S
C737 C736 1.321 . S
C737 C738 1.403 1_455 S
C737 H758 0.934 . S
C738 C733 1.413 . S
C738 C737 1.403 1_655 S
C738 H759 0.930 . S
C739 O750 1.275 . S
C739 O751 1.256 . S
O740 Ho720 2.322 . S
O740 C722 1.259 . S
O741 Ho721 2.346 . S
O741 C722 1.268 . S
O742 Ho720 2.378 . S
O742 C723 1.215 . S
O743 Ho720 2.524 . S
O743 C723 1.289 . S
O744 Ho720 2.381 . S
O744 C730 1.275 . S
O745 Ho720 2.669 . S
O745 Ho721 2.305 . S
O745 C730 1.256 . S
O746 Ho721 2.322 . S
O746 C731 1.259 . S
O747 Ho720 2.346 . S
O747 C731 1.268 . S
O748 Ho721 2.378 . S
O748 C732 1.215 . S
O749 Ho721 2.524 . S
O749 C732 1.289 . S
O750 Ho721 2.381 . S
O750 C739 1.275 . S
O751 Ho720 2.305 . S
O751 Ho721 2.669 . S
O751 C739 1.256 . S
H752 C725 0.930 . S
H753 C726 0.931 . S
H754 C728 0.934 . S
H755 C729 0.930 . S
H756 C734 0.930 . S
H757 C735 0.931 . S
H758 C737 0.934 . S
H759 C738 0.930 . S
Ho760 C763 2.811 . S
Ho760 O780 2.322 . S
Ho760 O782 2.378 . S
Ho760 O783 2.524 . S
Ho760 O784 2.381 . S
Ho760 O785 2.669 . S
Ho760 O787 2.346 . S
Ho760 O791 2.305 . S
Ho761 C772 2.811 . S
Ho761 O781 2.346 . S
Ho761 O785 2.305 . S
Ho761 O786 2.322 . S
Ho761 O788 2.378 . S
Ho761 O789 2.524 . S
Ho761 O790 2.381 . S
Ho761 O791 2.669 . S
C762 O780 1.259 . S
C762 O781 1.268 . S
C763 Ho760 2.811 . S
C763 C764 1.488 . S
C763 O782 1.215 . S
C763 O783 1.289 . S
C764 C763 1.488 . S
C764 C765 1.348 . S
C764 C769 1.413 . S
C765 C764 1.348 . S
C765 C766 1.442 . S
C765 H792 0.930 . S
C766 C765 1.442 . S
C766 C767 1.381 . S
C766 H793 0.931 . S
C767 C766 1.381 . S
C767 C768 1.321 . S
C768 C767 1.321 . S
C768 C769 1.403 . S
C768 H794 0.934 . S
C769 C764 1.413 . S
C769 C768 1.403 . S
C769 H795 0.930 . S
C770 O784 1.275 . S
C770 O785 1.256 . S
C771 O786 1.259 . S
C771 O787 1.268 . S
C772 Ho761 2.811 . S
C772 C773 1.488 . S
C772 O788 1.215 . S
C772 O789 1.289 . S
C773 C772 1.488 . S
C773 C774 1.348 . S
C773 C778 1.413 . S
C774 C773 1.348 . S
C774 C775 1.442 . S
C774 H796 0.930 . S
C775 C774 1.442 . S
C775 C776 1.381 . S
C775 H797 0.931 . S
C776 C775 1.381 . S
C776 C777 1.321 . S
C777 C776 1.321 . S
C777 C778 1.403 . S
C777 H798 0.934 . S
C778 C773 1.413 . S
C778 C777 1.403 . S
C778 H799 0.930 . S
C779 O790 1.275 . S
C779 O791 1.256 . S
O780 Ho760 2.322 . S
O780 C762 1.259 . S
O781 Ho761 2.346 . S
O781 C762 1.268 . S
O782 Ho760 2.378 . S
O782 C763 1.215 . S
O783 Ho760 2.524 . S
O783 C763 1.289 . S
O784 Ho760 2.381 . S
O784 C770 1.275 . S
O785 Ho760 2.669 . S
O785 Ho761 2.305 . S
O785 C770 1.256 . S
O786 Ho761 2.322 . S
O786 C771 1.259 . S
O787 Ho760 2.346 . S
O787 C771 1.268 . S
O788 Ho761 2.378 . S
O788 C772 1.215 . S
O789 Ho761 2.524 . S
O789 C772 1.289 . S
O790 Ho761 2.381 . S
O790 C779 1.275 . S
O791 Ho760 2.305 . S
O791 Ho761 2.669 . S
O791 C779 1.256 . S
H792 C765 0.930 . S
H793 C766 0.931 . S
H794 C768 0.934 . S
H795 C769 0.930 . S
H796 C774 0.930 . S
H797 C775 0.931 . S
H798 C777 0.934 . S
H799 C778 0.930 . S
Ho800 C803 2.811 . S
Ho800 O820 2.322 . S
Ho800 O822 2.378 . S
Ho800 O823 2.524 . S
Ho800 O824 2.381 . S
Ho800 O825 2.669 . S
Ho800 O827 2.346 . S
Ho800 O831 2.305 . S
Ho801 C812 2.811 . S
Ho801 O821 2.346 . S
Ho801 O825 2.305 . S
Ho801 O826 2.322 . S
Ho801 O828 2.378 . S
Ho801 O829 2.524 . S
Ho801 O830 2.381 . S
Ho801 O831 2.669 . S
C802 O820 1.259 . S
C802 O821 1.268 . S
C803 Ho800 2.811 . S
C803 C804 1.488 . S
C803 O822 1.215 . S
C803 O823 1.289 . S
C804 C803 1.488 . S
C804 C805 1.348 . S
C804 C809 1.413 . S
C805 C804 1.348 . S
C805 C806 1.442 . S
C805 H832 0.930 . S
C806 C805 1.442 . S
C806 C807 1.381 . S
C806 H833 0.931 . S
C807 C806 1.381 . S
C807 C808 1.321 . S
C808 C807 1.321 . S
C808 C809 1.403 . S
C808 H834 0.934 . S
C809 C804 1.413 . S
C809 C808 1.403 . S
C809 H835 0.930 . S
C810 O824 1.275 . S
C810 O825 1.256 . S
C811 O826 1.259 . S
C811 O827 1.268 . S
C812 Ho801 2.811 . S
C812 C813 1.488 . S
C812 O828 1.215 . S
C812 O829 1.289 . S
C813 C812 1.488 . S
C813 C814 1.348 . S
C813 C818 1.413 . S
C814 C813 1.348 . S
C814 C815 1.442 . S
C814 H836 0.930 . S
C815 C814 1.442 . S
C815 C816 1.381 . S
C815 H837 0.931 . S
C816 C815 1.381 . S
C816 C817 1.321 . S
C817 C816 1.321 . S
C817 C818 1.403 . S
C817 H838 0.934 . S
C818 C813 1.413 . S
C818 C817 1.403 . S
C818 H839 0.930 . S
C819 O830 1.275 . S
C819 O831 1.256 . S
O820 Ho800 2.322 . S
O820 C802 1.259 . S
O821 Ho801 2.346 . S
O821 C802 1.268 . S
O822 Ho800 2.378 . S
O822 C803 1.215 . S
O823 Ho800 2.524 . S
O823 C803 1.289 . S
O824 Ho800 2.381 . S
O824 C810 1.275 . S
O825 Ho800 2.669 . S
O825 Ho801 2.305 . S
O825 C810 1.256 . S
O826 Ho801 2.322 . S
O826 C811 1.259 . S
O827 Ho800 2.346 . S
O827 C811 1.268 . S
O828 Ho801 2.378 . S
O828 C812 1.215 . S
O829 Ho801 2.524 . S
O829 C812 1.289 . S
O830 Ho801 2.381 . S
O830 C819 1.275 . S
O831 Ho800 2.305 . S
O831 Ho801 2.669 . S
O831 C819 1.256 . S
H832 C805 0.930 . S
H833 C806 0.931 . S
H834 C808 0.934 . S
H835 C809 0.930 . S
H836 C814 0.930 . S
H837 C815 0.931 . S
H838 C817 0.934 . S
H839 C818 0.930 . S
Ho840 C843 2.811 1_556 S
Ho840 O860 2.322 1_556 S
Ho840 O862 2.378 1_556 S
Ho840 O863 2.524 1_556 S
Ho840 O864 2.381 . S
Ho840 O865 2.669 . S
Ho840 O867 2.346 . S
Ho840 O871 2.305 . S
Ho841 C852 2.811 . S
Ho841 O861 2.346 1_556 S
Ho841 O865 2.305 . S
Ho841 O866 2.322 . S
Ho841 O868 2.378 . S
Ho841 O869 2.524 . S
Ho841 O870 2.381 . S
Ho841 O871 2.669 . S
C842 O860 1.259 . S
C842 O861 1.268 . S
C843 Ho840 2.811 1_554 S
C843 C844 1.488 . S
C843 O862 1.215 . S
C843 O863 1.289 . S
C844 C843 1.488 . S
C844 C845 1.348 . S
C844 C849 1.413 . S
C845 C844 1.348 . S
C845 C846 1.442 . S
C845 H872 0.930 . S
C846 C845 1.442 . S
C846 C847 1.381 . S
C846 H873 0.931 . S
C847 C846 1.381 . S
C847 C848 1.321 . S
C848 C847 1.321 . S
C848 C849 1.403 . S
C848 H874 0.934 . S
C849 C844 1.413 . S
C849 C848 1.403 . S
C849 H875 0.930 . S
C850 O864 1.275 . S
C850 O865 1.256 . S
C851 O866 1.259 . S
C851 O867 1.268 . S
C852 Ho841 2.811 . S
C852 C853 1.488 . S
C852 O868 1.215 . S
C852 O869 1.289 . S
C853 C852 1.488 . S
C853 C854 1.348 . S
C853 C858 1.413 . S
C854 C853 1.348 . S
C854 C855 1.442 . S
C854 H876 0.930 . S
C855 C854 1.442 . S
C855 C856 1.381 . S
C855 H877 0.931 . S
C856 C855 1.381 . S
C856 C857 1.321 . S
C857 C856 1.321 . S
C857 C858 1.403 . S
C857 H878 0.934 . S
C858 C853 1.413 . S
C858 C857 1.403 . S
C858 H879 0.930 . S
C859 O870 1.275 1_554 S
C859 O871 1.256 1_554 S
O860 Ho840 2.322 1_554 S
O860 C842 1.259 . S
O861 Ho841 2.346 1_554 S
O861 C842 1.268 . S
O862 Ho840 2.378 1_554 S
O862 C843 1.215 . S
O863 Ho840 2.524 1_554 S
O863 C843 1.289 . S
O864 Ho840 2.381 . S
O864 C850 1.275 . S
O865 Ho840 2.669 . S
O865 Ho841 2.305 . S
O865 C850 1.256 . S
O866 Ho841 2.322 . S
O866 C851 1.259 . S
O867 Ho840 2.346 . S
O867 C851 1.268 . S
O868 Ho841 2.378 . S
O868 C852 1.215 . S
O869 Ho841 2.524 . S
O869 C852 1.289 . S
O870 Ho841 2.381 . S
O870 C859 1.275 1_556 S
O871 Ho840 2.305 . S
O871 Ho841 2.669 . S
O871 C859 1.256 1_556 S
H872 C845 0.930 . S
H873 C846 0.931 . S
H874 C848 0.934 . S
H875 C849 0.930 . S
H876 C854 0.930 . S
H877 C855 0.931 . S
H878 C857 0.934 . S
H879 C858 0.930 . S
Ho880 C883 2.811 . S
Ho880 O900 2.322 . S
Ho880 O902 2.378 . S
Ho880 O903 2.524 . S
Ho880 O904 2.381 . S
Ho880 O905 2.669 . S
Ho880 O907 2.346 . S
Ho880 O911 2.305 . S
Ho881 C892 2.811 . S
Ho881 O901 2.346 . S
Ho881 O905 2.305 . S
Ho881 O906 2.322 . S
Ho881 O908 2.378 . S
Ho881 O909 2.524 . S
Ho881 O910 2.381 . S
Ho881 O911 2.669 . S
C882 O900 1.259 . S
C882 O901 1.268 . S
C883 Ho880 2.811 . S
C883 C884 1.488 . S
C883 O902 1.215 . S
C883 O903 1.289 . S
C884 C883 1.488 . S
C884 C885 1.348 . S
C884 C889 1.413 . S
C885 C884 1.348 . S
C885 C886 1.442 . S
C885 H912 0.930 . S
C886 C885 1.442 . S
C886 C887 1.381 . S
C886 H913 0.931 . S
C887 C886 1.381 . S
C887 C888 1.321 . S
C888 C887 1.321 . S
C888 C889 1.403 . S
C888 H914 0.934 . S
C889 C884 1.413 . S
C889 C888 1.403 . S
C889 H915 0.930 . S
C890 O904 1.275 . S
C890 O905 1.256 . S
C891 O906 1.259 . S
C891 O907 1.268 . S
C892 Ho881 2.811 . S
C892 C893 1.488 . S
C892 O908 1.215 . S
C892 O909 1.289 . S
C893 C892 1.488 . S
C893 C894 1.348 . S
C893 C898 1.413 . S
C894 C893 1.348 . S
C894 C895 1.442 . S
C894 H916 0.930 . S
C895 C894 1.442 . S
C895 C896 1.381 1_655 S
C895 H917 0.931 . S
C896 C895 1.381 1_455 S
C896 C897 1.321 . S
C897 C896 1.321 . S
C897 C898 1.403 1_455 S
C897 H918 0.934 . S
C898 C893 1.413 . S
C898 C897 1.403 1_655 S
C898 H919 0.930 . S
C899 O910 1.275 . S
C899 O911 1.256 . S
O900 Ho880 2.322 . S
O900 C882 1.259 . S
O901 Ho881 2.346 . S
O901 C882 1.268 . S
O902 Ho880 2.378 . S
O902 C883 1.215 . S
O903 Ho880 2.524 . S
O903 C883 1.289 . S
O904 Ho880 2.381 . S
O904 C890 1.275 . S
O905 Ho880 2.669 . S
O905 Ho881 2.305 . S
O905 C890 1.256 . S
O906 Ho881 2.322 . S
O906 C891 1.259 . S
O907 Ho880 2.346 . S
O907 C891 1.268 . S
O908 Ho881 2.378 . S
O908 C892 1.215 . S
O909 Ho881 2.524 . S
O909 C892 1.289 . S
O910 Ho881 2.381 . S
O910 C899 1.275 . S
O911 Ho880 2.305 . S
O911 Ho881 2.669 . S
O911 C899 1.256 . S
H912 C885 0.930 . S
H913 C886 0.931 . S
H914 C888 0.934 . S
H915 C889 0.930 . S
H916 C894 0.930 . S
H917 C895 0.931 . S
H918 C897 0.934 . S
H919 C898 0.930 . S
Ho920 C923 2.811 . S
Ho920 O940 2.322 . S
Ho920 O942 2.378 . S
Ho920 O943 2.524 . S
Ho920 O944 2.381 . S
Ho920 O945 2.669 . S
Ho920 O947 2.346 . S
Ho920 O951 2.305 . S
Ho921 C932 2.811 . S
Ho921 O941 2.346 . S
Ho921 O945 2.305 . S
Ho921 O946 2.322 . S
Ho921 O948 2.378 . S
Ho921 O949 2.524 . S
Ho921 O950 2.381 . S
Ho921 O951 2.669 . S
C922 O940 1.259 . S
C922 O941 1.268 . S
C923 Ho920 2.811 . S
C923 C924 1.488 . S
C923 O942 1.215 . S
C923 O943 1.289 . S
C924 C923 1.488 . S
C924 C925 1.348 . S
C924 C929 1.413 . S
C925 C924 1.348 . S
C925 C926 1.442 . S
C925 H952 0.930 . S
C926 C925 1.442 . S
C926 C927 1.381 . S
C926 H953 0.931 . S
C927 C926 1.381 . S
C927 C928 1.321 . S
C928 C927 1.321 . S
C928 C929 1.403 . S
C928 H954 0.934 . S
C929 C924 1.413 . S
C929 C928 1.403 . S
C929 H955 0.930 . S
C930 O944 1.275 . S
C930 O945 1.256 . S
C931 O946 1.259 . S
C931 O947 1.268 . S
C932 Ho921 2.811 . S
C932 C933 1.488 . S
C932 O948 1.215 . S
C932 O949 1.289 . S
C933 C932 1.488 . S
C933 C934 1.348 . S
C933 C938 1.413 . S
C934 C933 1.348 . S
C934 C935 1.442 . S
C934 H956 0.930 . S
C935 C934 1.442 . S
C935 C936 1.381 . S
C935 H957 0.931 . S
C936 C935 1.381 . S
C936 C937 1.321 . S
C937 C936 1.321 . S
C937 C938 1.403 . S
C937 H958 0.934 . S
C938 C933 1.413 . S
C938 C937 1.403 . S
C938 H959 0.930 . S
C939 O950 1.275 . S
C939 O951 1.256 . S
O940 Ho920 2.322 . S
O940 C922 1.259 . S
O941 Ho921 2.346 . S
O941 C922 1.268 . S
O942 Ho920 2.378 . S
O942 C923 1.215 . S
O943 Ho920 2.524 . S
O943 C923 1.289 . S
O944 Ho920 2.381 . S
O944 C930 1.275 . S
O945 Ho920 2.669 . S
O945 Ho921 2.305 . S
O945 C930 1.256 . S
O946 Ho921 2.322 . S
O946 C931 1.259 . S
O947 Ho920 2.346 . S
O947 C931 1.268 . S
O948 Ho921 2.378 . S
O948 C932 1.215 . S
O949 Ho921 2.524 . S
O949 C932 1.289 . S
O950 Ho921 2.381 . S
O950 C939 1.275 . S
O951 Ho920 2.305 . S
O951 Ho921 2.669 . S
O951 C939 1.256 . S
H952 C925 0.930 . S
H953 C926 0.931 . S
H954 C928 0.934 . S
H955 C929 0.930 . S
H956 C934 0.930 . S
H957 C935 0.931 . S
H958 C937 0.934 . S
H959 C938 0.930 . S
Ho960 C963 2.811 . S
Ho960 O980 2.322 . S
Ho960 O982 2.378 . S
Ho960 O983 2.524 . S
Ho960 O984 2.381 . S
Ho960 O985 2.669 . S
Ho960 O987 2.346 . S
Ho960 O991 2.305 . S
Ho961 C972 2.811 . S
Ho961 O981 2.346 . S
Ho961 O985 2.305 . S
Ho961 O986 2.322 . S
Ho961 O988 2.378 . S
Ho961 O989 2.524 . S
Ho961 O990 2.381 . S
Ho961 O991 2.669 . S
C962 O980 1.259 . S
C962 O981 1.268 . S
C963 Ho960 2.811 . S
C963 C964 1.488 . S
C963 O982 1.215 . S
C963 O983 1.289 . S
C964 C963 1.488 . S
C964 C965 1.348 . S
C964 C969 1.413 . S
C965 C964 1.348 . S
C965 C966 1.442 . S
C965 H992 0.930 . S
C966 C965 1.442 . S
C966 C967 1.381 . S
C966 H993 0.931 . S
C967 C966 1.381 . S
C967 C968 1.321 . S
C968 C967 1.321 . S
C968 C969 1.403 . S
C968 H994 0.934 . S
C969 C964 1.413 . S
C969 C968 1.403 . S
C969 H995 0.930 . S
C970 O984 1.275 . S
C970 O985 1.256 . S
C971 O986 1.259 . S
C971 O987 1.268 . S
C972 Ho961 2.811 . S
C972 C973 1.488 . S
C972 O988 1.215 . S
C972 O989 1.289 . S
C973 C972 1.488 . S
C973 C974 1.348 . S
C973 C978 1.413 . S
C974 C973 1.348 . S
C974 C975 1.442 . S
C974 H996 0.930 . S
C975 C974 1.442 . S
C975 C976 1.381 . S
C975 H997 0.931 . S
C976 C975 1.381 . S
C976 C977 1.321 . S
C977 C976 1.321 . S
C977 C978 1.403 . S
C977 H998 0.934 . S
C978 C973 1.413 . S
C978 C977 1.403 . S
C978 H999 0.930 . S
C979 O990 1.275 . S
C979 O991 1.256 . S
O980 Ho960 2.322 . S
O980 C962 1.259 . S
O981 Ho961 2.346 . S
O981 C962 1.268 . S
O982 Ho960 2.378 . S
O982 C963 1.215 . S
O983 Ho960 2.524 . S
O983 C963 1.289 . S
O984 Ho960 2.381 . S
O984 C970 1.275 . S
O985 Ho960 2.669 . S
O985 Ho961 2.305 . S
O985 C970 1.256 . S
O986 Ho961 2.322 . S
O986 C971 1.259 . S
O987 Ho960 2.346 . S
O987 C971 1.268 . S
O988 Ho961 2.378 . S
O988 C972 1.215 . S
O989 Ho961 2.524 . S
O989 C972 1.289 . S
O990 Ho961 2.381 . S
O990 C979 1.275 . S
O991 Ho960 2.305 . S
O991 Ho961 2.669 . S
O991 C979 1.256 . S
H992 C965 0.930 . S
H993 C966 0.931 . S
H994 C968 0.934 . S
H995 C969 0.930 . S
H996 C974 0.930 . S
H997 C975 0.931 . S
H998 C977 0.934 . S
H999 C978 0.930 . S
Ho1000 C1003 2.811 . S
Ho1000 O1020 2.322 . S
Ho1000 O1022 2.378 . S
Ho1000 O1023 2.524 . S
Ho1000 O1024 2.381 . S
Ho1000 O1025 2.669 . S
Ho1000 O1027 2.346 1_556 S
Ho1000 O1031 2.305 . S
Ho1001 C1012 2.811 1_556 S
Ho1001 O1021 2.346 . S
Ho1001 O1025 2.305 . S
Ho1001 O1026 2.322 1_556 S
Ho1001 O1028 2.378 1_556 S
Ho1001 O1029 2.524 1_556 S
Ho1001 O1030 2.381 . S
Ho1001 O1031 2.669 . S
C1002 O1020 1.259 . S
C1002 O1021 1.268 . S
C1003 Ho1000 2.811 . S
C1003 C1004 1.488 . S
C1003 O1022 1.215 . S
C1003 O1023 1.289 . S
C1004 C1003 1.488 . S
C1004 C1005 1.348 . S
C1004 C1009 1.413 . S
C1005 C1004 1.348 . S
C1005 C1006 1.442 . S
C1005 H1032 0.930 . S
C1006 C1005 1.442 . S
C1006 C1007 1.381 . S
C1006 H1033 0.931 . S
C1007 C1006 1.381 . S
C1007 C1008 1.321 . S
C1008 C1007 1.321 . S
C1008 C1009 1.403 . S
C1008 H1034 0.934 . S
C1009 C1004 1.413 . S
C1009 C1008 1.403 . S
C1009 H1035 0.930 . S
C1010 O1024 1.275 1_554 S
C1010 O1025 1.256 1_554 S
C1011 O1026 1.259 . S
C1011 O1027 1.268 . S
C1012 Ho1001 2.811 1_554 S
C1012 C1013 1.488 . S
C1012 O1028 1.215 . S
C1012 O1029 1.289 . S
C1013 C1012 1.488 . S
C1013 C1014 1.348 . S
C1013 C1018 1.413 . S
C1014 C1013 1.348 . S
C1014 C1015 1.442 . S
C1014 H1036 0.930 . S
C1015 C1014 1.442 . S
C1015 C1016 1.381 . S
C1015 H1037 0.931 . S
C1016 C1015 1.381 . S
C1016 C1017 1.321 . S
C1017 C1016 1.321 . S
C1017 C1018 1.403 . S
C1017 H1038 0.934 . S
C1018 C1013 1.413 . S
C1018 C1017 1.403 . S
C1018 H1039 0.930 . S
C1019 O1030 1.275 . S
C1019 O1031 1.256 . S
O1020 Ho1000 2.322 . S
O1020 C1002 1.259 . S
O1021 Ho1001 2.346 . S
O1021 C1002 1.268 . S
O1022 Ho1000 2.378 . S
O1022 C1003 1.215 . S
O1023 Ho1000 2.524 . S
O1023 C1003 1.289 . S
O1024 Ho1000 2.381 . S
O1024 C1010 1.275 1_556 S
O1025 Ho1000 2.669 . S
O1025 Ho1001 2.305 . S
O1025 C1010 1.256 1_556 S
O1026 Ho1001 2.322 1_554 S
O1026 C1011 1.259 . S
O1027 Ho1000 2.346 1_554 S
O1027 C1011 1.268 . S
O1028 Ho1001 2.378 1_554 S
O1028 C1012 1.215 . S
O1029 Ho1001 2.524 1_554 S
O1029 C1012 1.289 . S
O1030 Ho1001 2.381 . S
O1030 C1019 1.275 . S
O1031 Ho1000 2.305 . S
O1031 Ho1001 2.669 . S
O1031 C1019 1.256 . S
H1032 C1005 0.930 . S
H1033 C1006 0.931 . S
H1034 C1008 0.934 . S
H1035 C1009 0.930 . S
H1036 C1014 0.930 . S
H1037 C1015 0.931 . S
H1038 C1017 0.934 . S
H1039 C1018 0.930 . S
Ho1040 C1043 2.811 . S
Ho1040 O1060 2.322 . S
Ho1040 O1062 2.378 . S
Ho1040 O1063 2.524 . S
Ho1040 O1064 2.381 . S
Ho1040 O1065 2.669 . S
Ho1040 O1067 2.346 . S
Ho1040 O1071 2.305 . S
Ho1041 C1052 2.811 . S
Ho1041 O1061 2.346 . S
Ho1041 O1065 2.305 . S
Ho1041 O1066 2.322 . S
Ho1041 O1068 2.378 . S
Ho1041 O1069 2.524 . S
Ho1041 O1070 2.381 . S
Ho1041 O1071 2.669 . S
C1042 O1060 1.259 . S
C1042 O1061 1.268 . S
C1043 Ho1040 2.811 . S
C1043 C1044 1.488 . S
C1043 O1062 1.215 . S
C1043 O1063 1.289 . S
C1044 C1043 1.488 . S
C1044 C1045 1.348 . S
C1044 C1049 1.413 . S
C1045 C1044 1.348 . S
C1045 C1046 1.442 . S
C1045 H1072 0.930 . S
C1046 C1045 1.442 . S
C1046 C1047 1.381 1_455 S
C1046 H1073 0.931 . S
C1047 C1046 1.381 1_655 S
C1047 C1048 1.321 . S
C1048 C1047 1.321 . S
C1048 C1049 1.403 1_655 S
C1048 H1074 0.934 . S
C1049 C1044 1.413 . S
C1049 C1048 1.403 1_455 S
C1049 H1075 0.930 . S
C1050 O1064 1.275 . S
C1050 O1065 1.256 . S
C1051 O1066 1.259 . S
C1051 O1067 1.268 . S
C1052 Ho1041 2.811 . S
C1052 C1053 1.488 . S
C1052 O1068 1.215 . S
C1052 O1069 1.289 . S
C1053 C1052 1.488 . S
C1053 C1054 1.348 . S
C1053 C1058 1.413 . S
C1054 C1053 1.348 . S
C1054 C1055 1.442 . S
C1054 H1076 0.930 . S
C1055 C1054 1.442 . S
C1055 C1056 1.381 . S
C1055 H1077 0.931 . S
C1056 C1055 1.381 . S
C1056 C1057 1.321 . S
C1057 C1056 1.321 . S
C1057 C1058 1.403 . S
C1057 H1078 0.934 . S
C1058 C1053 1.413 . S
C1058 C1057 1.403 . S
C1058 H1079 0.930 . S
C1059 O1070 1.275 . S
C1059 O1071 1.256 . S
O1060 Ho1040 2.322 . S
O1060 C1042 1.259 . S
O1061 Ho1041 2.346 . S
O1061 C1042 1.268 . S
O1062 Ho1040 2.378 . S
O1062 C1043 1.215 . S
O1063 Ho1040 2.524 . S
O1063 C1043 1.289 . S
O1064 Ho1040 2.381 . S
O1064 C1050 1.275 . S
O1065 Ho1040 2.669 . S
O1065 Ho1041 2.305 . S
O1065 C1050 1.256 . S
O1066 Ho1041 2.322 . S
O1066 C1051 1.259 . S
O1067 Ho1040 2.346 . S
O1067 C1051 1.268 . S
O1068 Ho1041 2.378 . S
O1068 C1052 1.215 . S
O1069 Ho1041 2.524 . S
O1069 C1052 1.289 . S
O1070 Ho1041 2.381 . S
O1070 C1059 1.275 . S
O1071 Ho1040 2.305 . S
O1071 Ho1041 2.669 . S
O1071 C1059 1.256 . S
H1072 C1045 0.930 . S
H1073 C1046 0.931 . S
H1074 C1048 0.934 . S
H1075 C1049 0.930 . S
H1076 C1054 0.930 . S
H1077 C1055 0.931 . S
H1078 C1057 0.934 . S
H1079 C1058 0.930 . S
Ho1080 C1083 2.811 . S
Ho1080 O1100 2.322 . S
Ho1080 O1102 2.378 . S
Ho1080 O1103 2.524 . S
Ho1080 O1104 2.381 . S
Ho1080 O1105 2.669 . S
Ho1080 O1107 2.346 . S
Ho1080 O1111 2.305 . S
Ho1081 C1092 2.811 . S
Ho1081 O1101 2.346 . S
Ho1081 O1105 2.305 . S
Ho1081 O1106 2.322 . S
Ho1081 O1108 2.378 . S
Ho1081 O1109 2.524 . S
Ho1081 O1110 2.381 . S
Ho1081 O1111 2.669 . S
C1082 O1100 1.259 . S
C1082 O1101 1.268 . S
C1083 Ho1080 2.811 . S
C1083 C1084 1.488 . S
C1083 O1102 1.215 . S
C1083 O1103 1.289 . S
C1084 C1083 1.488 . S
C1084 C1085 1.348 . S
C1084 C1089 1.413 . S
C1085 C1084 1.348 . S
C1085 C1086 1.442 . S
C1085 H1112 0.930 . S
C1086 C1085 1.442 . S
C1086 C1087 1.381 . S
C1086 H1113 0.931 . S
C1087 C1086 1.381 . S
C1087 C1088 1.321 . S
C1088 C1087 1.321 . S
C1088 C1089 1.403 . S
C1088 H1114 0.934 . S
C1089 C1084 1.413 . S
C1089 C1088 1.403 . S
C1089 H1115 0.930 . S
C1090 O1104 1.275 . S
C1090 O1105 1.256 . S
C1091 O1106 1.259 . S
C1091 O1107 1.268 . S
C1092 Ho1081 2.811 . S
C1092 C1093 1.488 . S
C1092 O1108 1.215 . S
C1092 O1109 1.289 . S
C1093 C1092 1.488 . S
C1093 C1094 1.348 . S
C1093 C1098 1.413 . S
C1094 C1093 1.348 . S
C1094 C1095 1.442 . S
C1094 H1116 0.930 . S
C1095 C1094 1.442 . S
C1095 C1096 1.381 . S
C1095 H1117 0.931 . S
C1096 C1095 1.381 . S
C1096 C1097 1.321 . S
C1097 C1096 1.321 . S
C1097 C1098 1.403 . S
C1097 H1118 0.934 . S
C1098 C1093 1.413 . S
C1098 C1097 1.403 . S
C1098 H1119 0.930 . S
C1099 O1110 1.275 . S
C1099 O1111 1.256 . S
O1100 Ho1080 2.322 . S
O1100 C1082 1.259 . S
O1101 Ho1081 2.346 . S
O1101 C1082 1.268 . S
O1102 Ho1080 2.378 . S
O1102 C1083 1.215 . S
O1103 Ho1080 2.524 . S
O1103 C1083 1.289 . S
O1104 Ho1080 2.381 . S
O1104 C1090 1.275 . S
O1105 Ho1080 2.669 . S
O1105 Ho1081 2.305 . S
O1105 C1090 1.256 . S
O1106 Ho1081 2.322 . S
O1106 C1091 1.259 . S
O1107 Ho1080 2.346 . S
O1107 C1091 1.268 . S
O1108 Ho1081 2.378 . S
O1108 C1092 1.215 . S
O1109 Ho1081 2.524 . S
O1109 C1092 1.289 . S
O1110 Ho1081 2.381 . S
O1110 C1099 1.275 . S
O1111 Ho1080 2.305 . S
O1111 Ho1081 2.669 . S
O1111 C1099 1.256 . S
H1112 C1085 0.930 . S
H1113 C1086 0.931 . S
H1114 C1088 0.934 . S
H1115 C1089 0.930 . S
H1116 C1094 0.930 . S
H1117 C1095 0.931 . S
H1118 C1097 0.934 . S
H1119 C1098 0.930 . S
Ho1120 C1123 2.811 . S
Ho1120 O1140 2.322 . S
Ho1120 O1142 2.378 . S
Ho1120 O1143 2.524 . S
Ho1120 O1144 2.381 . S
Ho1120 O1145 2.669 . S
Ho1120 O1147 2.346 . S
Ho1120 O1151 2.305 . S
Ho1121 C1132 2.811 . S
Ho1121 O1141 2.346 . S
Ho1121 O1145 2.305 . S
Ho1121 O1146 2.322 . S
Ho1121 O1148 2.378 . S
Ho1121 O1149 2.524 . S
Ho1121 O1150 2.381 . S
Ho1121 O1151 2.669 . S
C1122 O1140 1.259 . S
C1122 O1141 1.268 . S
C1123 Ho1120 2.811 . S
C1123 C1124 1.488 . S
C1123 O1142 1.215 . S
C1123 O1143 1.289 . S
C1124 C1123 1.488 . S
C1124 C1125 1.348 . S
C1124 C1129 1.413 . S
C1125 C1124 1.348 . S
C1125 C1126 1.442 . S
C1125 H1152 0.930 . S
C1126 C1125 1.442 . S
C1126 C1127 1.381 . S
C1126 H1153 0.931 . S
C1127 C1126 1.381 . S
C1127 C1128 1.321 . S
C1128 C1127 1.321 . S
C1128 C1129 1.403 . S
C1128 H1154 0.934 . S
C1129 C1124 1.413 . S
C1129 C1128 1.403 . S
C1129 H1155 0.930 . S
C1130 O1144 1.275 . S
C1130 O1145 1.256 . S
C1131 O1146 1.259 . S
C1131 O1147 1.268 . S
C1132 Ho1121 2.811 . S
C1132 C1133 1.488 . S
C1132 O1148 1.215 . S
C1132 O1149 1.289 . S
C1133 C1132 1.488 . S
C1133 C1134 1.348 . S
C1133 C1138 1.413 . S
C1134 C1133 1.348 . S
C1134 C1135 1.442 . S
C1134 H1156 0.930 . S
C1135 C1134 1.442 . S
C1135 C1136 1.381 . S
C1135 H1157 0.931 . S
C1136 C1135 1.381 . S
C1136 C1137 1.321 . S
C1137 C1136 1.321 . S
C1137 C1138 1.403 . S
C1137 H1158 0.934 . S
C1138 C1133 1.413 . S
C1138 C1137 1.403 . S
C1138 H1159 0.930 . S
C1139 O1150 1.275 . S
C1139 O1151 1.256 . S
O1140 Ho1120 2.322 . S
O1140 C1122 1.259 . S
O1141 Ho1121 2.346 . S
O1141 C1122 1.268 . S
O1142 Ho1120 2.378 . S
O1142 C1123 1.215 . S
O1143 Ho1120 2.524 . S
O1143 C1123 1.289 . S
O1144 Ho1120 2.381 . S
O1144 C1130 1.275 . S
O1145 Ho1120 2.669 . S
O1145 Ho1121 2.305 . S
O1145 C1130 1.256 . S
O1146 Ho1121 2.322 . S
O1146 C1131 1.259 . S
O1147 Ho1120 2.346 . S
O1147 C1131 1.268 . S
O1148 Ho1121 2.378 . S
O1148 C1132 1.215 . S
O1149 Ho1121 2.524 . S
O1149 C1132 1.289 . S
O1150 Ho1121 2.381 . S
O1150 C1139 1.275 . S
O1151 Ho1120 2.305 . S
O1151 Ho1121 2.669 . S
O1151 C1139 1.256 . S
H1152 C1125 0.930 . S
H1153 C1126 0.931 . S
H1154 C1128 0.934 . S
H1155 C1129 0.930 . S
H1156 C1134 0.930 . S
H1157 C1135 0.931 . S
H1158 C1137 0.934 . S
H1159 C1138 0.930 . S
Ho1160 C1163 2.811 . S
Ho1160 O1180 2.322 . S
Ho1160 O1182 2.378 . S
Ho1160 O1183 2.524 . S
Ho1160 O1184 2.381 . S
Ho1160 O1185 2.669 . S
Ho1160 O1187 2.346 1_554 S
Ho1160 O1191 2.305 . S
Ho1161 C1172 2.811 1_554 S
Ho1161 O1181 2.346 . S
Ho1161 O1185 2.305 . S
Ho1161 O1186 2.322 1_554 S
Ho1161 O1188 2.378 1_554 S
Ho1161 O1189 2.524 1_554 S
Ho1161 O1190 2.381 . S
Ho1161 O1191 2.669 . S
C1162 O1180 1.259 . S
C1162 O1181 1.268 . S
C1163 Ho1160 2.811 . S
C1163 C1164 1.488 . S
C1163 O1182 1.215 . S
C1163 O1183 1.289 . S
C1164 C1163 1.488 . S
C1164 C1165 1.348 . S
C1164 C1169 1.413 . S
C1165 C1164 1.348 . S
C1165 C1166 1.442 . S
C1165 H1192 0.930 . S
C1166 C1165 1.442 . S
C1166 C1167 1.381 . S
C1166 H1193 0.931 . S
C1167 C1166 1.381 . S
C1167 C1168 1.321 . S
C1168 C1167 1.321 . S
C1168 C1169 1.403 . S
C1168 H1194 0.934 . S
C1169 C1164 1.413 . S
C1169 C1168 1.403 . S
C1169 H1195 0.930 . S
C1170 O1184 1.275 1_556 S
C1170 O1185 1.256 1_556 S
C1171 O1186 1.259 . S
C1171 O1187 1.268 . S
C1172 Ho1161 2.811 1_556 S
C1172 C1173 1.488 . S
C1172 O1188 1.215 . S
C1172 O1189 1.289 . S
C1173 C1172 1.488 . S
C1173 C1174 1.348 . S
C1173 C1178 1.413 . S
C1174 C1173 1.348 . S
C1174 C1175 1.442 . S
C1174 H1196 0.930 . S
C1175 C1174 1.442 . S
C1175 C1176 1.381 . S
C1175 H1197 0.931 . S
C1176 C1175 1.381 . S
C1176 C1177 1.321 . S
C1177 C1176 1.321 . S
C1177 C1178 1.403 . S
C1177 H1198 0.934 . S
C1178 C1173 1.413 . S
C1178 C1177 1.403 . S
C1178 H1199 0.930 . S
C1179 O1190 1.275 . S
C1179 O1191 1.256 . S
O1180 Ho1160 2.322 . S
O1180 C1162 1.259 . S
O1181 Ho1161 2.346 . S
O1181 C1162 1.268 . S
O1182 Ho1160 2.378 . S
O1182 C1163 1.215 . S
O1183 Ho1160 2.524 . S
O1183 C1163 1.289 . S
O1184 Ho1160 2.381 . S
O1184 C1170 1.275 1_554 S
O1185 Ho1160 2.669 . S
O1185 Ho1161 2.305 . S
O1185 C1170 1.256 1_554 S
O1186 Ho1161 2.322 1_556 S
O1186 C1171 1.259 . S
O1187 Ho1160 2.346 1_556 S
O1187 C1171 1.268 . S
O1188 Ho1161 2.378 1_556 S
O1188 C1172 1.215 . S
O1189 Ho1161 2.524 1_556 S
O1189 C1172 1.289 . S
O1190 Ho1161 2.381 . S
O1190 C1179 1.275 . S
O1191 Ho1160 2.305 . S
O1191 Ho1161 2.669 . S
O1191 C1179 1.256 . S
H1192 C1165 0.930 . S
H1193 C1166 0.931 . S
H1194 C1168 0.934 . S
H1195 C1169 0.930 . S
H1196 C1174 0.930 . S
H1197 C1175 0.931 . S
H1198 C1177 0.934 . S
H1199 C1178 0.930 . S
Ho1200 C1203 2.811 . S
Ho1200 O1220 2.322 . S
Ho1200 O1222 2.378 . S
Ho1200 O1223 2.524 . S
Ho1200 O1224 2.381 . S
Ho1200 O1225 2.669 . S
Ho1200 O1227 2.346 . S
Ho1200 O1231 2.305 . S
Ho1201 C1212 2.811 . S
Ho1201 O1221 2.346 . S
Ho1201 O1225 2.305 . S
Ho1201 O1226 2.322 . S
Ho1201 O1228 2.378 . S
Ho1201 O1229 2.524 . S
Ho1201 O1230 2.381 . S
Ho1201 O1231 2.669 . S
C1202 O1220 1.259 . S
C1202 O1221 1.268 . S
C1203 Ho1200 2.811 . S
C1203 C1204 1.488 . S
C1203 O1222 1.215 . S
C1203 O1223 1.289 . S
C1204 C1203 1.488 . S
C1204 C1205 1.348 . S
C1204 C1209 1.413 . S
C1205 C1204 1.348 . S
C1205 C1206 1.442 . S
C1205 H1232 0.930 . S
C1206 C1205 1.442 . S
C1206 C1207 1.381 1_455 S
C1206 H1233 0.931 . S
C1207 C1206 1.381 1_655 S
C1207 C1208 1.321 . S
C1208 C1207 1.321 . S
C1208 C1209 1.403 1_655 S
C1208 H1234 0.934 . S
C1209 C1204 1.413 . S
C1209 C1208 1.403 1_455 S
C1209 H1235 0.930 . S
C1210 O1224 1.275 . S
C1210 O1225 1.256 . S
C1211 O1226 1.259 . S
C1211 O1227 1.268 . S
C1212 Ho1201 2.811 . S
C1212 C1213 1.488 . S
C1212 O1228 1.215 . S
C1212 O1229 1.289 . S
C1213 C1212 1.488 . S
C1213 C1214 1.348 . S
C1213 C1218 1.413 . S
C1214 C1213 1.348 . S
C1214 C1215 1.442 . S
C1214 H1236 0.930 . S
C1215 C1214 1.442 . S
C1215 C1216 1.381 . S
C1215 H1237 0.931 . S
C1216 C1215 1.381 . S
C1216 C1217 1.321 . S
C1217 C1216 1.321 . S
C1217 C1218 1.403 . S
C1217 H1238 0.934 . S
C1218 C1213 1.413 . S
C1218 C1217 1.403 . S
C1218 H1239 0.930 . S
C1219 O1230 1.275 . S
C1219 O1231 1.256 . S
O1220 Ho1200 2.322 . S
O1220 C1202 1.259 . S
O1221 Ho1201 2.346 . S
O1221 C1202 1.268 . S
O1222 Ho1200 2.378 . S
O1222 C1203 1.215 . S
O1223 Ho1200 2.524 . S
O1223 C1203 1.289 . S
O1224 Ho1200 2.381 . S
O1224 C1210 1.275 . S
O1225 Ho1200 2.669 . S
O1225 Ho1201 2.305 . S
O1225 C1210 1.256 . S
O1226 Ho1201 2.322 . S
O1226 C1211 1.259 . S
O1227 Ho1200 2.346 . S
O1227 C1211 1.268 . S
O1228 Ho1201 2.378 . S
O1228 C1212 1.215 . S
O1229 Ho1201 2.524 . S
O1229 C1212 1.289 . S
O1230 Ho1201 2.381 . S
O1230 C1219 1.275 . S
O1231 Ho1200 2.305 . S
O1231 Ho1201 2.669 . S
O1231 C1219 1.256 . S
H1232 C1205 0.930 . S
H1233 C1206 0.931 . S
H1234 C1208 0.934 . S
H1235 C1209 0.930 . S
H1236 C1214 0.930 . S
H1237 C1215 0.931 . S
H1238 C1217 0.934 . S
H1239 C1218 0.930 . S
Ho1240 C1243 2.811 . S
Ho1240 O1260 2.322 . S
Ho1240 O1262 2.378 . S
Ho1240 O1263 2.524 . S
Ho1240 O1264 2.381 . S
Ho1240 O1265 2.669 . S
Ho1240 O1267 2.346 . S
Ho1240 O1271 2.305 . S
Ho1241 C1252 2.811 . S
Ho1241 O1261 2.346 . S
Ho1241 O1265 2.305 . S
Ho1241 O1266 2.322 . S
Ho1241 O1268 2.378 . S
Ho1241 O1269 2.524 . S
Ho1241 O1270 2.381 . S
Ho1241 O1271 2.669 . S
C1242 O1260 1.259 . S
C1242 O1261 1.268 . S
C1243 Ho1240 2.811 . S
C1243 C1244 1.488 . S
C1243 O1262 1.215 . S
C1243 O1263 1.289 . S
C1244 C1243 1.488 . S
C1244 C1245 1.348 . S
C1244 C1249 1.413 . S
C1245 C1244 1.348 . S
C1245 C1246 1.442 . S
C1245 H1272 0.930 . S
C1246 C1245 1.442 . S
C1246 C1247 1.381 . S
C1246 H1273 0.931 . S
C1247 C1246 1.381 . S
C1247 C1248 1.321 . S
C1248 C1247 1.321 . S
C1248 C1249 1.403 . S
C1248 H1274 0.934 . S
C1249 C1244 1.413 . S
C1249 C1248 1.403 . S
C1249 H1275 0.930 . S
C1250 O1264 1.275 . S
C1250 O1265 1.256 . S
C1251 O1266 1.259 . S
C1251 O1267 1.268 . S
C1252 Ho1241 2.811 . S
C1252 C1253 1.488 . S
C1252 O1268 1.215 . S
C1252 O1269 1.289 . S
C1253 C1252 1.488 . S
C1253 C1254 1.348 . S
C1253 C1258 1.413 . S
C1254 C1253 1.348 . S
C1254 C1255 1.442 . S
C1254 H1276 0.930 . S
C1255 C1254 1.442 . S
C1255 C1256 1.381 . S
C1255 H1277 0.931 . S
C1256 C1255 1.381 . S
C1256 C1257 1.321 . S
C1257 C1256 1.321 . S
C1257 C1258 1.403 . S
C1257 H1278 0.934 . S
C1258 C1253 1.413 . S
C1258 C1257 1.403 . S
C1258 H1279 0.930 . S
C1259 O1270 1.275 . S
C1259 O1271 1.256 . S
O1260 Ho1240 2.322 . S
O1260 C1242 1.259 . S
O1261 Ho1241 2.346 . S
O1261 C1242 1.268 . S
O1262 Ho1240 2.378 . S
O1262 C1243 1.215 . S
O1263 Ho1240 2.524 . S
O1263 C1243 1.289 . S
O1264 Ho1240 2.381 . S
O1264 C1250 1.275 . S
O1265 Ho1240 2.669 . S
O1265 Ho1241 2.305 . S
O1265 C1250 1.256 . S
O1266 Ho1241 2.322 . S
O1266 C1251 1.259 . S
O1267 Ho1240 2.346 . S
O1267 C1251 1.268 . S
O1268 Ho1241 2.378 . S
O1268 C1252 1.215 . S
O1269 Ho1241 2.524 . S
O1269 C1252 1.289 . S
O1270 Ho1241 2.381 . S
O1270 C1259 1.275 . S
O1271 Ho1240 2.305 . S
O1271 Ho1241 2.669 . S
O1271 C1259 1.256 . S
H1272 C1245 0.930 . S
H1273 C1246 0.931 . S
H1274 C1248 0.934 . S
H1275 C1249 0.930 . S
H1276 C1254 0.930 . S
H1277 C1255 0.931 . S
H1278 C1257 0.934 . S
H1279 C1258 0.930 . S
C1280 C1281 1.387 . S
C1280 H1284 0.950 . S
C1280 C1289 1.390 . S
C1281 C1280 1.387 . S
C1281 C1283 1.387 . S
H1282 C1289 0.950 . S
C1283 C1281 1.387 . S
C1283 C1285 1.390 . S
C1283 H1287 0.950 . S
H1284 C1280 0.950 . S
C1285 C1283 1.390 . S
C1285 C1286 1.387 . S
C1285 H1288 0.950 . S
C1286 C1285 1.387 . S
C1286 C1289 1.387 . S
H1287 C1283 0.950 . S
H1288 C1285 0.950 . S
C1289 C1280 1.390 . S
C1289 H1282 0.950 . S
C1289 C1286 1.387 . S
C1290 C1291 1.387 . S
C1290 H1294 0.950 . S
C1290 C1299 1.390 . S
C1291 C1290 1.387 . S
C1291 C1293 1.387 . S
H1292 C1299 0.950 . S
C1293 C1291 1.387 . S
C1293 C1295 1.390 . S
C1293 H1297 0.950 . S
H1294 C1290 0.950 . S
C1295 C1293 1.390 . S
C1295 C1296 1.387 . S
C1295 H1298 0.950 . S
C1296 C1295 1.387 . S
C1296 C1299 1.387 . S
H1297 C1293 0.950 . S
H1298 C1295 0.950 . S
C1299 C1290 1.390 . S
C1299 H1292 0.950 . S
C1299 C1296 1.387 . S
C1300 C1301 1.387 . S
C1300 H1304 0.950 . S
C1300 C1309 1.390 . S
C1301 C1300 1.387 . S
C1301 C1303 1.387 . S
H1302 C1309 0.950 . S
C1303 C1301 1.387 . S
C1303 C1305 1.390 . S
C1303 H1307 0.950 . S
H1304 C1300 0.950 . S
C1305 C1303 1.390 . S
C1305 C1306 1.387 . S
C1305 H1308 0.950 . S
C1306 C1305 1.387 . S
C1306 C1309 1.387 . S
H1307 C1303 0.950 . S
H1308 C1305 0.950 . S
C1309 C1300 1.390 . S
C1309 H1302 0.950 . S
C1309 C1306 1.387 . S
C1310 C1311 1.387 . S
C1310 H1314 0.950 . S
C1310 C1319 1.390 . S
C1311 C1310 1.387 . S
C1311 C1313 1.387 . S
H1312 C1319 0.950 . S
C1313 C1311 1.387 . S
C1313 C1315 1.390 . S
C1313 H1317 0.950 . S
H1314 C1310 0.950 . S
C1315 C1313 1.390 . S
C1315 C1316 1.387 . S
C1315 H1318 0.950 . S
C1316 C1315 1.387 . S
C1316 C1319 1.387 . S
H1317 C1313 0.950 . S
H1318 C1315 0.950 . S
C1319 C1310 1.390 . S
C1319 H1312 0.950 . S
C1319 C1316 1.387 . S
C1320 C1321 1.387 . S
C1320 H1324 0.950 . S
C1320 C1329 1.390 . S
C1321 C1320 1.387 . S
C1321 C1323 1.387 . S
H1322 C1329 0.950 . S
C1323 C1321 1.387 . S
C1323 C1325 1.390 . S
C1323 H1327 0.950 . S
H1324 C1320 0.950 . S
C1325 C1323 1.390 . S
C1325 C1326 1.387 . S
C1325 H1328 0.950 . S
C1326 C1325 1.387 . S
C1326 C1329 1.387 . S
H1327 C1323 0.950 . S
H1328 C1325 0.950 . S
C1329 C1320 1.390 . S
C1329 H1322 0.950 . S
C1329 C1326 1.387 . S
C1330 C1331 1.387 . S
C1330 H1334 0.950 . S
C1330 C1339 1.390 . S
C1331 C1330 1.387 . S
C1331 C1333 1.387 . S
H1332 C1339 0.950 . S
C1333 C1331 1.387 . S
C1333 C1335 1.390 . S
C1333 H1337 0.950 . S
H1334 C1330 0.950 . S
C1335 C1333 1.390 . S
C1335 C1336 1.387 . S
C1335 H1338 0.950 . S
C1336 C1335 1.387 . S
C1336 C1339 1.387 . S
H1337 C1333 0.950 . S
H1338 C1335 0.950 . S
C1339 C1330 1.390 . S
C1339 H1332 0.950 . S
C1339 C1336 1.387 . S
C1340 C1341 1.387 . S
C1340 H1344 0.950 . S
C1340 C1349 1.390 . S
C1341 C1340 1.387 . S
C1341 C1343 1.387 . S
H1342 C1349 0.950 . S
C1343 C1341 1.387 . S
C1343 C1345 1.390 . S
C1343 H1347 0.950 . S
H1344 C1340 0.950 . S
C1345 C1343 1.390 . S
C1345 C1346 1.387 . S
C1345 H1348 0.950 . S
C1346 C1345 1.387 . S
C1346 C1349 1.387 . S
H1347 C1343 0.950 . S
H1348 C1345 0.950 . S
C1349 C1340 1.390 . S
C1349 H1342 0.950 . S
C1349 C1346 1.387 . S
C1350 C1351 1.387 . S
C1350 H1354 0.950 . S
C1350 C1359 1.390 . S
C1351 C1350 1.387 . S
C1351 C1353 1.387 . S
H1352 C1359 0.950 . S
C1353 C1351 1.387 . S
C1353 C1355 1.390 . S
C1353 H1357 0.950 . S
H1354 C1350 0.950 . S
C1355 C1353 1.390 . S
C1355 C1356 1.387 . S
C1355 H1358 0.950 . S
C1356 C1355 1.387 . S
C1356 C1359 1.387 . S
H1357 C1353 0.950 . S
H1358 C1355 0.950 . S
C1359 C1350 1.390 . S
C1359 H1352 0.950 . S
C1359 C1356 1.387 . S
C1360 C1361 1.387 . S
C1360 H1364 0.950 . S
C1360 C1369 1.390 . S
C1361 C1360 1.387 . S
C1361 C1363 1.387 . S
H1362 C1369 0.950 . S
C1363 C1361 1.387 . S
C1363 C1365 1.390 . S
C1363 H1367 0.950 . S
H1364 C1360 0.950 . S
C1365 C1363 1.390 . S
C1365 C1366 1.387 . S
C1365 H1368 0.950 . S
C1366 C1365 1.387 . S
C1366 C1369 1.387 . S
H1367 C1363 0.950 . S
H1368 C1365 0.950 . S
C1369 C1360 1.390 . S
C1369 H1362 0.950 . S
C1369 C1366 1.387 . S
C1370 C1371 1.387 . S
C1370 H1374 0.950 . S
C1370 C1379 1.390 . S
C1371 C1370 1.387 . S
C1371 C1373 1.387 . S
H1372 C1379 0.950 . S
C1373 C1371 1.387 . S
C1373 C1375 1.390 . S
C1373 H1377 0.950 . S
H1374 C1370 0.950 . S
C1375 C1373 1.390 . S
C1375 C1376 1.387 . S
C1375 H1378 0.950 . S
C1376 C1375 1.387 . S
C1376 C1379 1.387 . S
H1377 C1373 0.950 . S
H1378 C1375 0.950 . S
C1379 C1370 1.390 . S
C1379 H1372 0.950 . S
C1379 C1376 1.387 . S
C1380 C1381 1.387 . S
C1380 H1384 0.950 . S
C1380 C1389 1.390 . S
C1381 C1380 1.387 . S
C1381 C1383 1.387 . S
H1382 C1389 0.950 . S
C1383 C1381 1.387 . S
C1383 C1385 1.390 . S
C1383 H1387 0.950 . S
H1384 C1380 0.950 . S
C1385 C1383 1.390 . S
C1385 C1386 1.387 . S
C1385 H1388 0.950 . S
C1386 C1385 1.387 . S
C1386 C1389 1.387 . S
H1387 C1383 0.950 . S
H1388 C1385 0.950 . S
C1389 C1380 1.390 . S
C1389 H1382 0.950 . S
C1389 C1386 1.387 . S
C1390 C1391 1.387 . S
C1390 H1394 0.950 . S
C1390 C1399 1.390 . S
C1391 C1390 1.387 . S
C1391 C1393 1.387 . S
H1392 C1399 0.950 . S
C1393 C1391 1.387 . S
C1393 C1395 1.390 . S
C1393 H1397 0.950 . S
H1394 C1390 0.950 . S
C1395 C1393 1.390 . S
C1395 C1396 1.387 . S
C1395 H1398 0.950 . S
C1396 C1395 1.387 . S
C1396 C1399 1.387 . S
H1397 C1393 0.950 . S
H1398 C1395 0.950 . S
C1399 C1390 1.390 . S
C1399 H1392 0.950 . S
C1399 C1396 1.387 . S
C1400 C1401 1.387 . S
C1400 H1404 0.950 . S
C1400 C1409 1.390 . S
C1401 C1400 1.387 . S
C1401 C1403 1.387 . S
H1402 C1409 0.950 . S
C1403 C1401 1.387 . S
C1403 C1405 1.390 . S
C1403 H1407 0.950 . S
H1404 C1400 0.950 . S
C1405 C1403 1.390 . S
C1405 C1406 1.387 . S
C1405 H1408 0.950 . S
C1406 C1405 1.387 . S
C1406 C1409 1.387 . S
H1407 C1403 0.950 . S
H1408 C1405 0.950 . S
C1409 C1400 1.390 . S
C1409 H1402 0.950 . S
C1409 C1406 1.387 . S
C1410 C1411 1.387 . S
C1410 H1414 0.950 . S
C1410 C1419 1.390 . S
C1411 C1410 1.387 . S
C1411 C1413 1.387 . S
H1412 C1419 0.950 . S
C1413 C1411 1.387 . S
C1413 C1415 1.390 . S
C1413 H1417 0.950 . S
H1414 C1410 0.950 . S
C1415 C1413 1.390 . S
C1415 C1416 1.387 . S
C1415 H1418 0.950 . S
C1416 C1415 1.387 . S
C1416 C1419 1.387 . S
H1417 C1413 0.950 . S
H1418 C1415 0.950 . S
C1419 C1410 1.390 . S
C1419 H1412 0.950 . S
C1419 C1416 1.387 . S
C1420 C1421 1.387 . S
C1420 H1424 0.950 . S
C1420 C1429 1.390 . S
C1421 C1420 1.387 . S
C1421 C1423 1.387 . S
H1422 C1429 0.950 . S
C1423 C1421 1.387 . S
C1423 C1425 1.390 . S
C1423 H1427 0.950 . S
H1424 C1420 0.950 . S
C1425 C1423 1.390 . S
C1425 C1426 1.387 . S
C1425 H1428 0.950 . S
C1426 C1425 1.387 . S
C1426 C1429 1.387 . S
H1427 C1423 0.950 . S
H1428 C1425 0.950 . S
C1429 C1420 1.390 . S
C1429 H1422 0.950 . S
C1429 C1426 1.387 . S
C1430 C1431 1.387 . S
C1430 H1434 0.950 . S
C1430 C1439 1.390 . S
C1431 C1430 1.387 . S
C1431 C1433 1.387 . S
H1432 C1439 0.950 . S
C1433 C1431 1.387 . S
C1433 C1435 1.390 . S
C1433 H1437 0.950 . S
H1434 C1430 0.950 . S
C1435 C1433 1.390 . S
C1435 C1436 1.387 . S
C1435 H1438 0.950 . S
C1436 C1435 1.387 . S
C1436 C1439 1.387 . S
H1437 C1433 0.950 . S
H1438 C1435 0.950 . S
C1439 C1430 1.390 . S
C1439 H1432 0.950 . S
C1439 C1436 1.387 . S
C1440 C1441 1.387 . S
C1440 H1444 0.950 . S
C1440 C1449 1.390 . S
C1441 C1440 1.387 . S
C1441 C1443 1.387 . S
H1442 C1449 0.950 . S
C1443 C1441 1.387 . S
C1443 C1445 1.390 . S
C1443 H1447 0.950 . S
H1444 C1440 0.950 . S
C1445 C1443 1.390 . S
C1445 C1446 1.387 . S
C1445 H1448 0.950 . S
C1446 C1445 1.387 . S
C1446 C1449 1.387 . S
H1447 C1443 0.950 . S
H1448 C1445 0.950 . S
C1449 C1440 1.390 . S
C1449 H1442 0.950 . S
C1449 C1446 1.387 . S
C1450 C1451 1.387 . S
C1450 H1454 0.950 . S
C1450 C1459 1.390 . S
C1451 C1450 1.387 . S
C1451 C1453 1.387 . S
H1452 C1459 0.950 . S
C1453 C1451 1.387 . S
C1453 C1455 1.390 . S
C1453 H1457 0.950 . S
H1454 C1450 0.950 . S
C1455 C1453 1.390 . S
C1455 C1456 1.387 . S
C1455 H1458 0.950 . S
C1456 C1455 1.387 . S
C1456 C1459 1.387 . S
H1457 C1453 0.950 . S
H1458 C1455 0.950 . S
C1459 C1450 1.390 . S
C1459 H1452 0.950 . S
C1459 C1456 1.387 . S
C1460 C1461 1.387 . S
C1460 H1464 0.950 . S
C1460 C1469 1.390 . S
C1461 C1460 1.387 . S
C1461 C1463 1.387 . S
H1462 C1469 0.950 . S
C1463 C1461 1.387 . S
C1463 C1465 1.390 . S
C1463 H1467 0.950 . S
H1464 C1460 0.950 . S
C1465 C1463 1.390 . S
C1465 C1466 1.387 . S
C1465 H1468 0.950 . S
C1466 C1465 1.387 . S
C1466 C1469 1.387 . S
H1467 C1463 0.950 . S
H1468 C1465 0.950 . S
C1469 C1460 1.390 . S
C1469 H1462 0.950 . S
C1469 C1466 1.387 . S
C1470 C1471 1.387 . S
C1470 H1474 0.950 . S
C1470 C1479 1.390 . S
C1471 C1470 1.387 . S
C1471 C1473 1.387 . S
H1472 C1479 0.950 . S
C1473 C1471 1.387 . S
C1473 C1475 1.390 . S
C1473 H1477 0.950 . S
H1474 C1470 0.950 . S
C1475 C1473 1.390 . S
C1475 C1476 1.387 . S
C1475 H1478 0.950 . S
C1476 C1475 1.387 . S
C1476 C1479 1.387 . S
H1477 C1473 0.950 . S
H1478 C1475 0.950 . S
C1479 C1470 1.390 . S
C1479 H1472 0.950 . S
C1479 C1476 1.387 . S
C1480 C1481 1.387 . S
C1480 H1484 0.950 . S
C1480 C1489 1.390 . S
C1481 C1480 1.387 . S
C1481 C1483 1.387 . S
H1482 C1489 0.950 . S
C1483 C1481 1.387 . S
C1483 C1485 1.390 . S
C1483 H1487 0.950 . S
H1484 C1480 0.950 . S
C1485 C1483 1.390 . S
C1485 C1486 1.387 . S
C1485 H1488 0.950 . S
C1486 C1485 1.387 . S
C1486 C1489 1.387 . S
H1487 C1483 0.950 . S
H1488 C1485 0.950 . S
C1489 C1480 1.390 . S
C1489 H1482 0.950 . S
C1489 C1486 1.387 . S
C1490 C1491 1.387 . S
C1490 H1494 0.950 . S
C1490 C1499 1.390 . S
C1491 C1490 1.387 . S
C1491 C1493 1.387 . S
H1492 C1499 0.950 . S
C1493 C1491 1.387 . S
C1493 C1495 1.390 . S
C1493 H1497 0.950 . S
H1494 C1490 0.950 . S
C1495 C1493 1.390 . S
C1495 C1496 1.387 . S
C1495 H1498 0.950 . S
C1496 C1495 1.387 . S
C1496 C1499 1.387 . S
H1497 C1493 0.950 . S
H1498 C1495 0.950 . S
C1499 C1490 1.390 . S
C1499 H1492 0.950 . S
C1499 C1496 1.387 . S
C1500 C1501 1.387 . S
C1500 H1504 0.950 . S
C1500 C1509 1.390 . S
C1501 C1500 1.387 . S
C1501 C1503 1.387 . S
H1502 C1509 0.950 . S
C1503 C1501 1.387 . S
C1503 C1505 1.390 . S
C1503 H1507 0.950 . S
H1504 C1500 0.950 . S
C1505 C1503 1.390 . S
C1505 C1506 1.387 . S
C1505 H1508 0.950 . S
C1506 C1505 1.387 . S
C1506 C1509 1.387 . S
H1507 C1503 0.950 . S
H1508 C1505 0.950 . S
C1509 C1500 1.390 . S
C1509 H1502 0.950 . S
C1509 C1506 1.387 . S
C1510 C1511 1.387 . S
C1510 H1514 0.950 . S
C1510 C1519 1.390 . S
C1511 C1510 1.387 . S
C1511 C1513 1.387 . S
H1512 C1519 0.950 . S
C1513 C1511 1.387 . S
C1513 C1515 1.390 . S
C1513 H1517 0.950 . S
H1514 C1510 0.950 . S
C1515 C1513 1.390 . S
C1515 C1516 1.387 . S
C1515 H1518 0.950 . S
C1516 C1515 1.387 . S
C1516 C1519 1.387 . S
H1517 C1513 0.950 . S
H1518 C1515 0.950 . S
C1519 C1510 1.390 . S
C1519 H1512 0.950 . S
C1519 C1516 1.387 . S
C1520 C1521 1.387 . S
C1520 H1524 0.950 . S
C1520 C1529 1.390 . S
C1521 C1520 1.387 . S
C1521 C1523 1.387 . S
H1522 C1529 0.950 . S
C1523 C1521 1.387 . S
C1523 C1525 1.390 . S
C1523 H1527 0.950 . S
H1524 C1520 0.950 . S
C1525 C1523 1.390 . S
C1525 C1526 1.387 . S
C1525 H1528 0.950 . S
C1526 C1525 1.387 . S
C1526 C1529 1.387 . S
H1527 C1523 0.950 . S
H1528 C1525 0.950 . S
C1529 C1520 1.390 . S
C1529 H1522 0.950 . S
C1529 C1526 1.387 . S
C1530 C1531 1.387 . S
C1530 H1534 0.950 . S
C1530 C1539 1.390 . S
C1531 C1530 1.387 . S
C1531 C1533 1.387 . S
H1532 C1539 0.950 . S
C1533 C1531 1.387 . S
C1533 C1535 1.390 . S
C1533 H1537 0.950 . S
H1534 C1530 0.950 . S
C1535 C1533 1.390 . S
C1535 C1536 1.387 . S
C1535 H1538 0.950 . S
C1536 C1535 1.387 . S
C1536 C1539 1.387 . S
H1537 C1533 0.950 . S
H1538 C1535 0.950 . S
C1539 C1530 1.390 . S
C1539 H1532 0.950 . S
C1539 C1536 1.387 . S
C1540 C1541 1.387 . S
C1540 H1544 0.950 . S
C1540 C1549 1.390 . S
C1541 C1540 1.387 . S
C1541 C1543 1.387 . S
H1542 C1549 0.950 . S
C1543 C1541 1.387 . S
C1543 C1545 1.390 . S
C1543 H1547 0.950 . S
H1544 C1540 0.950 . S
C1545 C1543 1.390 . S
C1545 C1546 1.387 . S
C1545 H1548 0.950 . S
C1546 C1545 1.387 . S
C1546 C1549 1.387 . S
H1547 C1543 0.950 . S
H1548 C1545 0.950 . S
C1549 C1540 1.390 . S
C1549 H1542 0.950 . S
C1549 C1546 1.387 . S
C1550 C1551 1.387 . S
C1550 H1554 0.950 . S
C1550 C1559 1.390 . S
C1551 C1550 1.387 . S
C1551 C1553 1.387 . S
H1552 C1559 0.950 . S
C1553 C1551 1.387 . S
C1553 C1555 1.390 . S
C1553 H1557 0.950 . S
H1554 C1550 0.950 . S
C1555 C1553 1.390 . S
C1555 C1556 1.387 . S
C1555 H1558 0.950 . S
C1556 C1555 1.387 . S
C1556 C1559 1.387 . S
H1557 C1553 0.950 . S
H1558 C1555 0.950 . S
C1559 C1550 1.390 . S
C1559 H1552 0.950 . S
C1559 C1556 1.387 . S
C1560 C1561 1.387 . S
C1560 H1564 0.950 . S
C1560 C1569 1.390 . S
C1561 C1560 1.387 . S
C1561 C1563 1.387 . S
H1562 C1569 0.950 . S
C1563 C1561 1.387 . S
C1563 C1565 1.390 . S
C1563 H1567 0.950 . S
H1564 C1560 0.950 . S
C1565 C1563 1.390 . S
C1565 C1566 1.387 . S
C1565 H1568 0.950 . S
C1566 C1565 1.387 . S
C1566 C1569 1.387 . S
H1567 C1563 0.950 . S
H1568 C1565 0.950 . S
C1569 C1560 1.390 . S
C1569 H1562 0.950 . S
C1569 C1566 1.387 . S
C1570 C1571 1.387 . S
C1570 H1574 0.950 . S
C1570 C1579 1.390 . S
C1571 C1570 1.387 . S
C1571 C1573 1.387 . S
H1572 C1579 0.950 . S
C1573 C1571 1.387 . S
C1573 C1575 1.390 . S
C1573 H1577 0.950 . S
H1574 C1570 0.950 . S
C1575 C1573 1.390 . S
C1575 C1576 1.387 . S
C1575 H1578 0.950 . S
C1576 C1575 1.387 . S
C1576 C1579 1.387 . S
H1577 C1573 0.950 . S
H1578 C1575 0.950 . S
C1579 C1570 1.390 . S
C1579 H1572 0.950 . S
C1579 C1576 1.387 . S
C1580 C1581 1.387 . S
C1580 H1584 0.950 . S
C1580 C1589 1.390 . S
C1581 C1580 1.387 . S
C1581 C1583 1.387 . S
H1582 C1589 0.950 . S
C1583 C1581 1.387 . S
C1583 C1585 1.390 . S
C1583 H1587 0.950 . S
H1584 C1580 0.950 . S
C1585 C1583 1.390 . S
C1585 C1586 1.387 . S
C1585 H1588 0.950 . S
C1586 C1585 1.387 . S
C1586 C1589 1.387 . S
H1587 C1583 0.950 . S
H1588 C1585 0.950 . S
C1589 C1580 1.390 . S
C1589 H1582 0.950 . S
C1589 C1586 1.387 . S
C1590 C1591 1.387 . S
C1590 H1594 0.950 . S
C1590 C1599 1.390 . S
C1591 C1590 1.387 . S
C1591 C1593 1.387 . S
H1592 C1599 0.950 . S
C1593 C1591 1.387 . S
C1593 C1595 1.390 . S
C1593 H1597 0.950 . S
H1594 C1590 0.950 . S
C1595 C1593 1.390 . S
C1595 C1596 1.387 . S
C1595 H1598 0.950 . S
C1596 C1595 1.387 . S
C1596 C1599 1.387 . S
H1597 C1593 0.950 . S
H1598 C1595 0.950 . S
C1599 C1590 1.390 . S
C1599 H1592 0.950 . S
C1599 C1596 1.387 . S
C1600 C1601 1.387 . S
C1600 H1604 0.950 . S
C1600 C1609 1.390 . S
C1601 C1600 1.387 . S
C1601 C1603 1.387 . S
H1602 C1609 0.950 . S
C1603 C1601 1.387 . S
C1603 C1605 1.390 . S
C1603 H1607 0.950 . S
H1604 C1600 0.950 . S
C1605 C1603 1.390 . S
C1605 C1606 1.387 . S
C1605 H1608 0.950 . S
C1606 C1605 1.387 . S
C1606 C1609 1.387 . S
H1607 C1603 0.950 . S
H1608 C1605 0.950 . S
C1609 C1600 1.390 . S
C1609 H1602 0.950 . S
C1609 C1606 1.387 . S
C1610 C1611 1.387 . S
C1610 H1614 0.950 . S
C1610 C1619 1.390 . S
C1611 C1610 1.387 . S
C1611 C1613 1.387 . S
H1612 C1619 0.950 . S
C1613 C1611 1.387 . S
C1613 C1615 1.390 . S
C1613 H1617 0.950 . S
H1614 C1610 0.950 . S
C1615 C1613 1.390 . S
C1615 C1616 1.387 . S
C1615 H1618 0.950 . S
C1616 C1615 1.387 . S
C1616 C1619 1.387 . S
H1617 C1613 0.950 . S
H1618 C1615 0.950 . S
C1619 C1610 1.390 . S
C1619 H1612 0.950 . S
C1619 C1616 1.387 . S
C1620 C1621 1.387 . S
C1620 H1624 0.950 . S
C1620 C1629 1.390 . S
C1621 C1620 1.387 . S
C1621 C1623 1.387 . S
H1622 C1629 0.950 . S
C1623 C1621 1.387 . S
C1623 C1625 1.390 . S
C1623 H1627 0.950 . S
H1624 C1620 0.950 . S
C1625 C1623 1.390 . S
C1625 C1626 1.387 . S
C1625 H1628 0.950 . S
C1626 C1625 1.387 . S
C1626 C1629 1.387 . S
H1627 C1623 0.950 . S
H1628 C1625 0.950 . S
C1629 C1620 1.390 . S
C1629 H1622 0.950 . S
C1629 C1626 1.387 . S
C1630 C1631 1.387 . S
C1630 H1634 0.950 . S
C1630 C1639 1.390 . S
C1631 C1630 1.387 . S
C1631 C1633 1.387 . S
H1632 C1639 0.950 . S
C1633 C1631 1.387 . S
C1633 C1635 1.390 . S
C1633 H1637 0.950 . S
H1634 C1630 0.950 . S
C1635 C1633 1.390 . S
C1635 C1636 1.387 . S
C1635 H1638 0.950 . S
C1636 C1635 1.387 . S
C1636 C1639 1.387 . S
H1637 C1633 0.950 . S
H1638 C1635 0.950 . S
C1639 C1630 1.390 . S
C1639 H1632 0.950 . S
C1639 C1636 1.387 . S
C1640 C1641 1.387 . S
C1640 H1644 0.950 . S
C1640 C1649 1.390 . S
C1641 C1640 1.387 . S
C1641 C1643 1.387 . S
H1642 C1649 0.950 . S
C1643 C1641 1.387 . S
C1643 C1645 1.390 . S
C1643 H1647 0.950 . S
H1644 C1640 0.950 . S
C1645 C1643 1.390 . S
C1645 C1646 1.387 . S
C1645 H1648 0.950 . S
C1646 C1645 1.387 . S
C1646 C1649 1.387 . S
H1647 C1643 0.950 . S
H1648 C1645 0.950 . S
C1649 C1640 1.390 . S
C1649 H1642 0.950 . S
C1649 C1646 1.387 . S
C1650 C1651 1.387 . S
C1650 H1654 0.950 . S
C1650 C1659 1.390 . S
C1651 C1650 1.387 . S
C1651 C1653 1.387 . S
H1652 C1659 0.950 . S
C1653 C1651 1.387 . S
C1653 C1655 1.390 . S
C1653 H1657 0.950 . S
H1654 C1650 0.950 . S
C1655 C1653 1.390 . S
C1655 C1656 1.387 . S
C1655 H1658 0.950 . S
C1656 C1655 1.387 . S
C1656 C1659 1.387 . S
H1657 C1653 0.950 . S
H1658 C1655 0.950 . S
C1659 C1650 1.390 . S
C1659 H1652 0.950 . S
C1659 C1656 1.387 . S
C1660 C1661 1.387 . S
C1660 H1664 0.950 . S
C1660 C1669 1.390 . S
C1661 C1660 1.387 . S
C1661 C1663 1.387 . S
H1662 C1669 0.950 . S
C1663 C1661 1.387 . S
C1663 C1665 1.390 . S
C1663 H1667 0.950 . S
H1664 C1660 0.950 . S
C1665 C1663 1.390 . S
C1665 C1666 1.387 . S
C1665 H1668 0.950 . S
C1666 C1665 1.387 . S
C1666 C1669 1.387 . S
H1667 C1663 0.950 . S
H1668 C1665 0.950 . S
C1669 C1660 1.390 . S
C1669 H1662 0.950 . S
C1669 C1666 1.387 . S
C1670 C1671 1.387 . S
C1670 H1674 0.950 . S
C1670 C1679 1.390 . S
C1671 C1670 1.387 . S
C1671 C1673 1.387 . S
H1672 C1679 0.950 . S
C1673 C1671 1.387 . S
C1673 C1675 1.390 . S
C1673 H1677 0.950 . S
H1674 C1670 0.950 . S
C1675 C1673 1.390 . S
C1675 C1676 1.387 . S
C1675 H1678 0.950 . S
C1676 C1675 1.387 . S
C1676 C1679 1.387 . S
H1677 C1673 0.950 . S
H1678 C1675 0.950 . S
C1679 C1670 1.390 . S
C1679 H1672 0.950 . S
C1679 C1676 1.387 . S
C1680 C1681 1.387 . S
C1680 H1684 0.950 . S
C1680 C1689 1.390 . S
C1681 C1680 1.387 . S
C1681 C1683 1.387 . S
H1682 C1689 0.950 . S
C1683 C1681 1.387 . S
C1683 C1685 1.390 . S
C1683 H1687 0.950 . S
H1684 C1680 0.950 . S
C1685 C1683 1.390 . S
C1685 C1686 1.387 . S
C1685 H1688 0.950 . S
C1686 C1685 1.387 . S
C1686 C1689 1.387 . S
H1687 C1683 0.950 . S
H1688 C1685 0.950 . S
C1689 C1680 1.390 . S
C1689 H1682 0.950 . S
C1689 C1686 1.387 . S
C1690 C1691 1.387 . S
C1690 H1694 0.950 . S
C1690 C1699 1.390 . S
C1691 C1690 1.387 . S
C1691 C1693 1.387 . S
H1692 C1699 0.950 . S
C1693 C1691 1.387 . S
C1693 C1695 1.390 . S
C1693 H1697 0.950 . S
H1694 C1690 0.950 . S
C1695 C1693 1.390 . S
C1695 C1696 1.387 . S
C1695 H1698 0.950 . S
C1696 C1695 1.387 . S
C1696 C1699 1.387 . S
H1697 C1693 0.950 . S
H1698 C1695 0.950 . S
C1699 C1690 1.390 . S
C1699 H1692 0.950 . S
C1699 C1696 1.387 . S
C1700 C1701 1.387 . S
C1700 H1704 0.950 . S
C1700 C1709 1.390 . S
C1701 C1700 1.387 . S
C1701 C1703 1.387 . S
H1702 C1709 0.950 . S
C1703 C1701 1.387 . S
C1703 C1705 1.390 . S
C1703 H1707 0.950 . S
H1704 C1700 0.950 . S
C1705 C1703 1.390 . S
C1705 C1706 1.387 . S
C1705 H1708 0.950 . S
C1706 C1705 1.387 . S
C1706 C1709 1.387 . S
H1707 C1703 0.950 . S
H1708 C1705 0.950 . S
C1709 C1700 1.390 . S
C1709 H1702 0.950 . S
C1709 C1706 1.387 . S
C1710 C1711 1.387 . S
C1710 H1714 0.950 . S
C1710 C1719 1.390 . S
C1711 C1710 1.387 . S
C1711 C1713 1.387 . S
H1712 C1719 0.950 . S
C1713 C1711 1.387 . S
C1713 C1715 1.390 . S
C1713 H1717 0.950 . S
H1714 C1710 0.950 . S
C1715 C1713 1.390 . S
C1715 C1716 1.387 . S
C1715 H1718 0.950 . S
C1716 C1715 1.387 . S
C1716 C1719 1.387 . S
H1717 C1713 0.950 . S
H1718 C1715 0.950 . S
C1719 C1710 1.390 . S
C1719 H1712 0.950 . S
C1719 C1716 1.387 . S
C1720 C1721 1.387 . S
C1720 H1724 0.950 . S
C1720 C1729 1.390 . S
C1721 C1720 1.387 . S
C1721 C1723 1.387 . S
H1722 C1729 0.950 . S
C1723 C1721 1.387 . S
C1723 C1725 1.390 . S
C1723 H1727 0.950 . S
H1724 C1720 0.950 . S
C1725 C1723 1.390 . S
C1725 C1726 1.387 . S
C1725 H1728 0.950 . S
C1726 C1725 1.387 . S
C1726 C1729 1.387 . S
H1727 C1723 0.950 . S
H1728 C1725 0.950 . S
C1729 C1720 1.390 . S
C1729 H1722 0.950 . S
C1729 C1726 1.387 . S
C1730 C1731 1.387 . S
C1730 H1734 0.950 . S
C1730 C1739 1.390 . S
C1731 C1730 1.387 . S
C1731 C1733 1.387 . S
H1732 C1739 0.950 . S
C1733 C1731 1.387 . S
C1733 C1735 1.390 . S
C1733 H1737 0.950 . S
H1734 C1730 0.950 . S
C1735 C1733 1.390 . S
C1735 C1736 1.387 . S
C1735 H1738 0.950 . S
C1736 C1735 1.387 . S
C1736 C1739 1.387 . S
H1737 C1733 0.950 . S
H1738 C1735 0.950 . S
C1739 C1730 1.390 . S
C1739 H1732 0.950 . S
C1739 C1736 1.387 . S
C1740 C1741 1.387 . S
C1740 H1744 0.950 . S
C1740 C1749 1.390 . S
C1741 C1740 1.387 . S
C1741 C1743 1.387 . S
H1742 C1749 0.950 . S
C1743 C1741 1.387 . S
C1743 C1745 1.390 . S
C1743 H1747 0.950 . S
H1744 C1740 0.950 . S
C1745 C1743 1.390 . S
C1745 C1746 1.387 . S
C1745 H1748 0.950 . S
C1746 C1745 1.387 . S
C1746 C1749 1.387 . S
H1747 C1743 0.950 . S
H1748 C1745 0.950 . S
C1749 C1740 1.390 . S
C1749 H1742 0.950 . S
C1749 C1746 1.387 . S
C1750 C1751 1.387 . S
C1750 H1754 0.950 . S
C1750 C1759 1.390 . S
C1751 C1750 1.387 . S
C1751 C1753 1.387 . S
H1752 C1759 0.950 . S
C1753 C1751 1.387 . S
C1753 C1755 1.390 . S
C1753 H1757 0.950 . S
H1754 C1750 0.950 . S
C1755 C1753 1.390 . S
C1755 C1756 1.387 . S
C1755 H1758 0.950 . S
C1756 C1755 1.387 . S
C1756 C1759 1.387 . S
H1757 C1753 0.950 . S
H1758 C1755 0.950 . S
C1759 C1750 1.390 . S
C1759 H1752 0.950 . S
C1759 C1756 1.387 . S
C1760 C1761 1.387 . S
C1760 H1764 0.950 . S
C1760 C1769 1.390 . S
C1761 C1760 1.387 . S
C1761 C1763 1.387 . S
H1762 C1769 0.950 . S
C1763 C1761 1.387 . S
C1763 C1765 1.390 . S
C1763 H1767 0.950 . S
H1764 C1760 0.950 . S
C1765 C1763 1.390 . S
C1765 C1766 1.387 . S
C1765 H1768 0.950 . S
C1766 C1765 1.387 . S
C1766 C1769 1.387 . S
H1767 C1763 0.950 . S
H1768 C1765 0.950 . S
C1769 C1760 1.390 . S
C1769 H1762 0.950 . S
C1769 C1766 1.387 . S
C1770 C1771 1.387 . S
C1770 H1774 0.950 . S
C1770 C1779 1.390 . S
C1771 C1770 1.387 . S
C1771 C1773 1.387 . S
H1772 C1779 0.950 . S
C1773 C1771 1.387 . S
C1773 C1775 1.390 . S
C1773 H1777 0.950 . S
H1774 C1770 0.950 . S
C1775 C1773 1.390 . S
C1775 C1776 1.387 . S
C1775 H1778 0.950 . S
C1776 C1775 1.387 . S
C1776 C1779 1.387 . S
H1777 C1773 0.950 . S
H1778 C1775 0.950 . S
C1779 C1770 1.390 . S
C1779 H1772 0.950 . S
C1779 C1776 1.387 . S
C1780 C1781 1.387 . S
C1780 H1784 0.950 . S
C1780 C1789 1.390 . S
C1781 C1780 1.387 . S
C1781 C1783 1.387 . S
H1782 C1789 0.950 . S
C1783 C1781 1.387 . S
C1783 C1785 1.390 . S
C1783 H1787 0.950 . S
H1784 C1780 0.950 . S
C1785 C1783 1.390 . S
C1785 C1786 1.387 . S
C1785 H1788 0.950 . S
C1786 C1785 1.387 . S
C1786 C1789 1.387 . S
H1787 C1783 0.950 . S
H1788 C1785 0.950 . S
C1789 C1780 1.390 . S
C1789 H1782 0.950 . S
C1789 C1786 1.387 . S
C1790 C1791 1.387 . S
C1790 H1794 0.950 . S
C1790 C1799 1.390 . S
C1791 C1790 1.387 . S
C1791 C1793 1.387 . S
H1792 C1799 0.950 . S
C1793 C1791 1.387 . S
C1793 C1795 1.390 . S
C1793 H1797 0.950 . S
H1794 C1790 0.950 . S
C1795 C1793 1.390 . S
C1795 C1796 1.387 . S
C1795 H1798 0.950 . S
C1796 C1795 1.387 . S
C1796 C1799 1.387 . S
H1797 C1793 0.950 . S
H1798 C1795 0.950 . S
C1799 C1790 1.390 . S
C1799 H1792 0.950 . S
C1799 C1796 1.387 . S
C1800 C1801 1.387 . S
C1800 H1804 0.950 . S
C1800 C1809 1.390 . S
C1801 C1800 1.387 . S
C1801 C1803 1.387 . S
H1802 C1809 0.950 . S
C1803 C1801 1.387 . S
C1803 C1805 1.390 . S
C1803 H1807 0.950 . S
H1804 C1800 0.950 . S
C1805 C1803 1.390 . S
C1805 C1806 1.387 . S
C1805 H1808 0.950 . S
C1806 C1805 1.387 . S
C1806 C1809 1.387 . S
H1807 C1803 0.950 . S
H1808 C1805 0.950 . S
C1809 C1800 1.390 . S
C1809 H1802 0.950 . S
C1809 C1806 1.387 . S
C1810 C1811 1.387 . S
C1810 H1814 0.950 . S
C1810 C1819 1.390 . S
C1811 C1810 1.387 . S
C1811 C1813 1.387 . S
H1812 C1819 0.950 . S
C1813 C1811 1.387 . S
C1813 C1815 1.390 . S
C1813 H1817 0.950 . S
H1814 C1810 0.950 . S
C1815 C1813 1.390 . S
C1815 C1816 1.387 . S
C1815 H1818 0.950 . S
C1816 C1815 1.387 . S
C1816 C1819 1.387 . S
H1817 C1813 0.950 . S
H1818 C1815 0.950 . S
C1819 C1810 1.390 . S
C1819 H1812 0.950 . S
C1819 C1816 1.387 . S
C1820 C1821 1.387 . S
C1820 H1824 0.950 . S
C1820 C1829 1.390 . S
C1821 C1820 1.387 . S
C1821 C1823 1.387 . S
H1822 C1829 0.950 . S
C1823 C1821 1.387 . S
C1823 C1825 1.390 . S
C1823 H1827 0.950 . S
H1824 C1820 0.950 . S
C1825 C1823 1.390 . S
C1825 C1826 1.387 . S
C1825 H1828 0.950 . S
C1826 C1825 1.387 . S
C1826 C1829 1.387 . S
H1827 C1823 0.950 . S
H1828 C1825 0.950 . S
C1829 C1820 1.390 . S
C1829 H1822 0.950 . S
C1829 C1826 1.387 . S
C1830 C1831 1.387 . S
C1830 H1834 0.950 . S
C1830 C1839 1.390 . S
C1831 C1830 1.387 . S
C1831 C1833 1.387 . S
H1832 C1839 0.950 . S
C1833 C1831 1.387 . S
C1833 C1835 1.390 . S
C1833 H1837 0.950 . S
H1834 C1830 0.950 . S
C1835 C1833 1.390 . S
C1835 C1836 1.387 . S
C1835 H1838 0.950 . S
C1836 C1835 1.387 . S
C1836 C1839 1.387 . S
H1837 C1833 0.950 . S
H1838 C1835 0.950 . S
C1839 C1830 1.390 . S
C1839 H1832 0.950 . S
C1839 C1836 1.387 . S
C1840 C1841 1.387 . S
C1840 H1844 0.950 . S
C1840 C1849 1.390 . S
C1841 C1840 1.387 . S
C1841 C1843 1.387 . S
H1842 C1849 0.950 . S
C1843 C1841 1.387 . S
C1843 C1845 1.390 . S
C1843 H1847 0.950 . S
H1844 C1840 0.950 . S
C1845 C1843 1.390 . S
C1845 C1846 1.387 . S
C1845 H1848 0.950 . S
C1846 C1845 1.387 . S
C1846 C1849 1.387 . S
H1847 C1843 0.950 . S
H1848 C1845 0.950 . S
C1849 C1840 1.390 . S
C1849 H1842 0.950 . S
C1849 C1846 1.387 . S
C1850 C1851 1.387 . S
C1850 H1854 0.950 . S
C1850 C1859 1.390 . S
C1851 C1850 1.387 . S
C1851 C1853 1.387 . S
H1852 C1859 0.950 . S
C1853 C1851 1.387 . S
C1853 C1855 1.390 . S
C1853 H1857 0.950 . S
H1854 C1850 0.950 . S
C1855 C1853 1.390 . S
C1855 C1856 1.387 . S
C1855 H1858 0.950 . S
C1856 C1855 1.387 . S
C1856 C1859 1.387 . S
H1857 C1853 0.950 . S
H1858 C1855 0.950 . S
C1859 C1850 1.390 . S
C1859 H1852 0.950 . S
C1859 C1856 1.387 . S
C1860 C1861 1.387 . S
C1860 H1864 0.950 . S
C1860 C1869 1.390 . S
C1861 C1860 1.387 . S
C1861 C1863 1.387 . S
H1862 C1869 0.950 . S
C1863 C1861 1.387 . S
C1863 C1865 1.390 . S
C1863 H1867 0.950 . S
H1864 C1860 0.950 . S
C1865 C1863 1.390 . S
C1865 C1866 1.387 . S
C1865 H1868 0.950 . S
C1866 C1865 1.387 . S
C1866 C1869 1.387 . S
H1867 C1863 0.950 . S
H1868 C1865 0.950 . S
C1869 C1860 1.390 . S
C1869 H1862 0.950 . S
C1869 C1866 1.387 . S
C1870 C1871 1.387 . S
C1870 H1874 0.950 . S
C1870 C1879 1.390 . S
C1871 C1870 1.387 . S
C1871 C1873 1.387 . S
H1872 C1879 0.950 . S
C1873 C1871 1.387 . S
C1873 C1875 1.390 . S
C1873 H1877 0.950 . S
H1874 C1870 0.950 . S
C1875 C1873 1.390 . S
C1875 C1876 1.387 . S
C1875 H1878 0.950 . S
C1876 C1875 1.387 . S
C1876 C1879 1.387 . S
H1877 C1873 0.950 . S
H1878 C1875 0.950 . S
C1879 C1870 1.390 . S
C1879 H1872 0.950 . S
C1879 C1876 1.387 . S
C1880 C1881 1.387 . S
C1880 H1884 0.950 . S
C1880 C1889 1.390 . S
C1881 C1880 1.387 . S
C1881 C1883 1.387 . S
H1882 C1889 0.950 . S
C1883 C1881 1.387 . S
C1883 C1885 1.390 . S
C1883 H1887 0.950 . S
H1884 C1880 0.950 . S
C1885 C1883 1.390 . S
C1885 C1886 1.387 . S
C1885 H1888 0.950 . S
C1886 C1885 1.387 . S
C1886 C1889 1.387 . S
H1887 C1883 0.950 . S
H1888 C1885 0.950 . S
C1889 C1880 1.390 . S
C1889 H1882 0.950 . S
C1889 C1886 1.387 . S
C1890 C1891 1.387 . S
C1890 H1894 0.950 . S
C1890 C1899 1.390 . S
C1891 C1890 1.387 . S
C1891 C1893 1.387 . S
H1892 C1899 0.950 . S
C1893 C1891 1.387 . S
C1893 C1895 1.390 . S
C1893 H1897 0.950 . S
H1894 C1890 0.950 . S
C1895 C1893 1.390 . S
C1895 C1896 1.387 . S
C1895 H1898 0.950 . S
C1896 C1895 1.387 . S
C1896 C1899 1.387 . S
H1897 C1893 0.950 . S
H1898 C1895 0.950 . S
C1899 C1890 1.390 . S
C1899 H1892 0.950 . S
C1899 C1896 1.387 . S
C1900 C1901 1.387 . S
C1900 H1904 0.950 . S
C1900 C1909 1.390 . S
C1901 C1900 1.387 . S
C1901 C1903 1.387 . S
H1902 C1909 0.950 . S
C1903 C1901 1.387 . S
C1903 C1905 1.390 . S
C1903 H1907 0.950 . S
H1904 C1900 0.950 . S
C1905 C1903 1.390 . S
C1905 C1906 1.387 . S
C1905 H1908 0.950 . S
C1906 C1905 1.387 . S
C1906 C1909 1.387 . S
H1907 C1903 0.950 . S
H1908 C1905 0.950 . S
C1909 C1900 1.390 . S
C1909 H1902 0.950 . S
C1909 C1906 1.387 . S
C1910 C1911 1.387 . S
C1910 H1914 0.950 . S
C1910 C1919 1.390 . S
C1911 C1910 1.387 . S
C1911 C1913 1.387 . S
H1912 C1919 0.950 . S
C1913 C1911 1.387 . S
C1913 C1915 1.390 . S
C1913 H1917 0.950 . S
H1914 C1910 0.950 . S
C1915 C1913 1.390 . S
C1915 C1916 1.387 . S
C1915 H1918 0.950 . S
C1916 C1915 1.387 . S
C1916 C1919 1.387 . S
H1917 C1913 0.950 . S
H1918 C1915 0.950 . S
C1919 C1910 1.390 . S
C1919 H1912 0.950 . S
C1919 C1916 1.387 . S
C1920 C1921 1.387 . S
C1920 H1924 0.950 . S
C1920 C1929 1.390 1_545 S
C1921 C1920 1.387 . S
C1921 C1923 1.387 . S
H1922 C1929 0.950 . S
C1923 C1921 1.387 . S
C1923 C1925 1.390 1_545 S
C1923 H1927 0.950 . S
H1924 C1920 0.950 . S
C1925 C1923 1.390 1_565 S
C1925 C1926 1.387 . S
C1925 H1928 0.950 . S
C1926 C1925 1.387 . S
C1926 C1929 1.387 . S
H1927 C1923 0.950 . S
H1928 C1925 0.950 . S
C1929 C1920 1.390 1_565 S
C1929 H1922 0.950 . S
C1929 C1926 1.387 . S
C1930 C1931 1.387 . S
C1930 H1934 0.950 . S
C1930 C1939 1.390 . S
C1931 C1930 1.387 . S
C1931 C1933 1.387 . S
H1932 C1939 0.950 . S
C1933 C1931 1.387 . S
C1933 C1935 1.390 . S
C1933 H1937 0.950 . S
H1934 C1930 0.950 . S
C1935 C1933 1.390 . S
C1935 C1936 1.387 . S
C1935 H1938 0.950 . S
C1936 C1935 1.387 . S
C1936 C1939 1.387 . S
H1937 C1933 0.950 . S
H1938 C1935 0.950 . S
C1939 C1930 1.390 . S
C1939 H1932 0.950 . S
C1939 C1936 1.387 . S
C1940 C1941 1.387 . S
C1940 H1944 0.950 . S
C1940 C1949 1.390 1_565 S
C1941 C1940 1.387 . S
C1941 C1943 1.387 . S
H1942 C1949 0.950 . S
C1943 C1941 1.387 . S
C1943 C1945 1.390 1_565 S
C1943 H1947 0.950 . S
H1944 C1940 0.950 . S
C1945 C1943 1.390 1_545 S
C1945 C1946 1.387 . S
C1945 H1948 0.950 . S
C1946 C1945 1.387 . S
C1946 C1949 1.387 . S
H1947 C1943 0.950 . S
H1948 C1945 0.950 . S
C1949 C1940 1.390 1_545 S
C1949 H1942 0.950 . S
C1949 C1946 1.387 . S
C1950 C1951 1.387 . S
C1950 H1954 0.950 . S
C1950 C1959 1.390 1_554 S
C1951 C1950 1.387 . S
C1951 C1953 1.387 . S
H1952 C1959 0.950 . S
C1953 C1951 1.387 . S
C1953 C1955 1.390 1_554 S
C1953 H1957 0.950 . S
H1954 C1950 0.950 . S
C1955 C1953 1.390 1_556 S
C1955 C1956 1.387 . S
C1955 H1958 0.950 . S
C1956 C1955 1.387 . S
C1956 C1959 1.387 . S
H1957 C1953 0.950 . S
H1958 C1955 0.950 . S
C1959 C1950 1.390 1_556 S
C1959 H1952 0.950 . S
C1959 C1956 1.387 . S
C1960 C1961 1.387 . S
C1960 H1964 0.950 . S
C1960 C1969 1.390 1_545 S
C1961 C1960 1.387 . S
C1961 C1963 1.387 . S
H1962 C1969 0.950 . S
C1963 C1961 1.387 . S
C1963 C1965 1.390 1_545 S
C1963 H1967 0.950 . S
H1964 C1960 0.950 . S
C1965 C1963 1.390 1_565 S
C1965 C1966 1.387 . S
C1965 H1968 0.950 . S
C1966 C1965 1.387 . S
C1966 C1969 1.387 . S
H1967 C1963 0.950 . S
H1968 C1965 0.950 . S
C1969 C1960 1.390 1_565 S
C1969 H1962 0.950 . S
C1969 C1966 1.387 . S
C1970 C1971 1.387 . S
C1970 H1974 0.950 . S
C1970 C1979 1.390 . S
C1971 C1970 1.387 . S
C1971 C1973 1.387 . S
H1972 C1979 0.950 . S
C1973 C1971 1.387 . S
C1973 C1975 1.390 . S
C1973 H1977 0.950 . S
H1974 C1970 0.950 . S
C1975 C1973 1.390 . S
C1975 C1976 1.387 . S
C1975 H1978 0.950 . S
C1976 C1975 1.387 . S
C1976 C1979 1.387 . S
H1977 C1973 0.950 . S
H1978 C1975 0.950 . S
C1979 C1970 1.390 . S
C1979 H1972 0.950 . S
C1979 C1976 1.387 . S
C1980 C1981 1.387 . S
C1980 H1984 0.950 . S
C1980 C1989 1.390 1_545 S
C1981 C1980 1.387 . S
C1981 C1983 1.387 . S
H1982 C1989 0.950 . S
C1983 C1981 1.387 . S
C1983 C1985 1.390 1_545 S
C1983 H1987 0.950 . S
H1984 C1980 0.950 . S
C1985 C1983 1.390 1_565 S
C1985 C1986 1.387 . S
C1985 H1988 0.950 . S
C1986 C1985 1.387 . S
C1986 C1989 1.387 . S
H1987 C1983 0.950 . S
H1988 C1985 0.950 . S
C1989 C1980 1.390 1_565 S
C1989 H1982 0.950 . S
C1989 C1986 1.387 . S
C1990 C1991 1.387 . S
C1990 H1994 0.950 . S
C1990 C1999 1.390 1_554 S
C1991 C1990 1.387 . S
C1991 C1993 1.387 . S
H1992 C1999 0.950 . S
C1993 C1991 1.387 . S
C1993 C1995 1.390 1_554 S
C1993 H1997 0.950 . S
H1994 C1990 0.950 . S
C1995 C1993 1.390 1_556 S
C1995 C1996 1.387 . S
C1995 H1998 0.950 . S
C1996 C1995 1.387 . S
C1996 C1999 1.387 . S
H1997 C1993 0.950 . S
H1998 C1995 0.950 . S
C1999 C1990 1.390 1_556 S
C1999 H1992 0.950 . S
C1999 C1996 1.387 . S
C2000 C2001 1.387 . S
C2000 H2004 0.950 . S
C2000 C2009 1.390 . S
C2001 C2000 1.387 . S
C2001 C2003 1.387 . S
H2002 C2009 0.950 . S
C2003 C2001 1.387 . S
C2003 C2005 1.390 . S
C2003 H2007 0.950 . S
H2004 C2000 0.950 . S
C2005 C2003 1.390 . S
C2005 C2006 1.387 . S
C2005 H2008 0.950 . S
C2006 C2005 1.387 . S
C2006 C2009 1.387 . S
H2007 C2003 0.950 . S
H2008 C2005 0.950 . S
C2009 C2000 1.390 . S
C2009 H2002 0.950 . S
C2009 C2006 1.387 . S
C2010 C2011 1.387 . S
C2010 H2014 0.950 . S
C2010 C2019 1.390 1_554 S
C2011 C2010 1.387 . S
C2011 C2013 1.387 . S
H2012 C2019 0.950 . S
C2013 C2011 1.387 . S
C2013 C2015 1.390 1_554 S
C2013 H2017 0.950 . S
H2014 C2010 0.950 . S
C2015 C2013 1.390 1_556 S
C2015 C2016 1.387 . S
C2015 H2018 0.950 . S
C2016 C2015 1.387 . S
C2016 C2019 1.387 . S
H2017 C2013 0.950 . S
H2018 C2015 0.950 . S
C2019 C2010 1.390 1_556 S
C2019 H2012 0.950 . S
C2019 C2016 1.387 . S
C2020 C2021 1.387 . S
C2020 H2024 0.950 . S
C2020 C2029 1.390 . S
C2021 C2020 1.387 . S
C2021 C2023 1.387 . S
H2022 C2029 0.950 . S
C2023 C2021 1.387 . S
C2023 C2025 1.390 . S
C2023 H2027 0.950 . S
H2024 C2020 0.950 . S
C2025 C2023 1.390 . S
C2025 C2026 1.387 . S
C2025 H2028 0.950 . S
C2026 C2025 1.387 . S
C2026 C2029 1.387 . S
H2027 C2023 0.950 . S
H2028 C2025 0.950 . S
C2029 C2020 1.390 . S
C2029 H2022 0.950 . S
C2029 C2026 1.387 . S
C2030 C2031 1.387 . S
C2030 H2034 0.950 . S
C2030 C2039 1.390 . S
C2031 C2030 1.387 . S
C2031 C2033 1.387 . S
H2032 C2039 0.950 . S
C2033 C2031 1.387 . S
C2033 C2035 1.390 . S
C2033 H2037 0.950 . S
H2034 C2030 0.950 . S
C2035 C2033 1.390 . S
C2035 C2036 1.387 . S
C2035 H2038 0.950 . S
C2036 C2035 1.387 . S
C2036 C2039 1.387 . S
H2037 C2033 0.950 . S
H2038 C2035 0.950 . S
C2039 C2030 1.390 . S
C2039 H2032 0.950 . S
C2039 C2036 1.387 . S
C2040 C2041 1.387 . S
C2040 H2044 0.950 . S
C2040 C2049 1.390 . S
C2041 C2040 1.387 . S
C2041 C2043 1.387 . S
H2042 C2049 0.950 . S
C2043 C2041 1.387 . S
C2043 C2045 1.390 . S
C2043 H2047 0.950 . S
H2044 C2040 0.950 . S
C2045 C2043 1.390 . S
C2045 C2046 1.387 . S
C2045 H2048 0.950 . S
C2046 C2045 1.387 . S
C2046 C2049 1.387 . S
H2047 C2043 0.950 . S
H2048 C2045 0.950 . S
C2049 C2040 1.390 . S
C2049 H2042 0.950 . S
C2049 C2046 1.387 . S
C2050 C2051 1.387 . S
C2050 H2054 0.950 . S
C2050 C2059 1.390 1_554 S
C2051 C2050 1.387 . S
C2051 C2053 1.387 . S
H2052 C2059 0.950 . S
C2053 C2051 1.387 . S
C2053 C2055 1.390 1_554 S
C2053 H2057 0.950 . S
H2054 C2050 0.950 . S
C2055 C2053 1.390 1_556 S
C2055 C2056 1.387 . S
C2055 H2058 0.950 . S
C2056 C2055 1.387 . S
C2056 C2059 1.387 . S
H2057 C2053 0.950 . S
H2058 C2055 0.950 . S
C2059 C2050 1.390 1_556 S
C2059 H2052 0.950 . S
C2059 C2056 1.387 . S
C2060 C2061 1.387 . S
C2060 H2064 0.950 . S
C2060 C2069 1.390 . S
C2061 C2060 1.387 . S
C2061 C2063 1.387 . S
H2062 C2069 0.950 . S
C2063 C2061 1.387 . S
C2063 C2065 1.390 . S
C2063 H2067 0.950 . S
H2064 C2060 0.950 . S
C2065 C2063 1.390 . S
C2065 C2066 1.387 . S
C2065 H2068 0.950 . S
C2066 C2065 1.387 . S
C2066 C2069 1.387 . S
H2067 C2063 0.950 . S
H2068 C2065 0.950 . S
C2069 C2060 1.390 . S
C2069 H2062 0.950 . S
C2069 C2066 1.387 . S
C2070 C2071 1.387 . S
C2070 H2074 0.950 . S
C2070 C2079 1.390 . S
C2071 C2070 1.387 . S
C2071 C2073 1.387 . S
H2072 C2079 0.950 . S
C2073 C2071 1.387 . S
C2073 C2075 1.390 . S
C2073 H2077 0.950 . S
H2074 C2070 0.950 . S
C2075 C2073 1.390 . S
C2075 C2076 1.387 . S
C2075 H2078 0.950 . S
C2076 C2075 1.387 . S
C2076 C2079 1.387 . S
H2077 C2073 0.950 . S
H2078 C2075 0.950 . S
C2079 C2070 1.390 . S
C2079 H2072 0.950 . S
C2079 C2076 1.387 . S
C2080 C2081 1.387 . S
C2080 H2084 0.950 . S
C2080 C2089 1.390 . S
C2081 C2080 1.387 . S
C2081 C2083 1.387 . S
H2082 C2089 0.950 . S
C2083 C2081 1.387 . S
C2083 C2085 1.390 . S
C2083 H2087 0.950 . S
H2084 C2080 0.950 . S
C2085 C2083 1.390 . S
C2085 C2086 1.387 . S
C2085 H2088 0.950 . S
C2086 C2085 1.387 . S
C2086 C2089 1.387 . S
H2087 C2083 0.950 . S
H2088 C2085 0.950 . S
C2089 C2080 1.390 . S
C2089 H2082 0.950 . S
C2089 C2086 1.387 . S
C2090 C2091 1.387 . S
C2090 H2094 0.950 . S
C2090 C2099 1.390 . S
C2091 C2090 1.387 . S
C2091 C2093 1.387 . S
H2092 C2099 0.950 . S
C2093 C2091 1.387 . S
C2093 C2095 1.390 . S
C2093 H2097 0.950 . S
H2094 C2090 0.950 . S
C2095 C2093 1.390 . S
C2095 C2096 1.387 . S
C2095 H2098 0.950 . S
C2096 C2095 1.387 . S
C2096 C2099 1.387 . S
H2097 C2093 0.950 . S
H2098 C2095 0.950 . S
C2099 C2090 1.390 . S
C2099 H2092 0.950 . S
C2099 C2096 1.387 . S
C2100 C2101 1.387 . S
C2100 H2104 0.950 . S
C2100 C2109 1.390 . S
C2101 C2100 1.387 . S
C2101 C2103 1.387 . S
H2102 C2109 0.950 . S
C2103 C2101 1.387 . S
C2103 C2105 1.390 . S
C2103 H2107 0.950 . S
H2104 C2100 0.950 . S
C2105 C2103 1.390 . S
C2105 C2106 1.387 . S
C2105 H2108 0.950 . S
C2106 C2105 1.387 . S
C2106 C2109 1.387 . S
H2107 C2103 0.950 . S
H2108 C2105 0.950 . S
C2109 C2100 1.390 . S
C2109 H2102 0.950 . S
C2109 C2106 1.387 . S
C2110 C2111 1.387 . S
C2110 H2114 0.950 . S
C2110 C2119 1.390 . S
C2111 C2110 1.387 . S
C2111 C2113 1.387 . S
H2112 C2119 0.950 . S
C2113 C2111 1.387 . S
C2113 C2115 1.390 . S
C2113 H2117 0.950 . S
H2114 C2110 0.950 . S
C2115 C2113 1.390 . S
C2115 C2116 1.387 . S
C2115 H2118 0.950 . S
C2116 C2115 1.387 . S
C2116 C2119 1.387 . S
H2117 C2113 0.950 . S
H2118 C2115 0.950 . S
C2119 C2110 1.390 . S
C2119 H2112 0.950 . S
C2119 C2116 1.387 . S
C2120 C2121 1.387 . S
C2120 H2124 0.950 . S
C2120 C2129 1.390 . S
C2121 C2120 1.387 . S
C2121 C2123 1.387 . S
H2122 C2129 0.950 . S
C2123 C2121 1.387 . S
C2123 C2125 1.390 . S
C2123 H2127 0.950 . S
H2124 C2120 0.950 . S
C2125 C2123 1.390 . S
C2125 C2126 1.387 . S
C2125 H2128 0.950 . S
C2126 C2125 1.387 . S
C2126 C2129 1.387 . S
H2127 C2123 0.950 . S
H2128 C2125 0.950 . S
C2129 C2120 1.390 . S
C2129 H2122 0.950 . S
C2129 C2126 1.387 . S
C2130 C2131 1.387 . S
C2130 H2134 0.950 . S
C2130 C2139 1.390 . S
C2131 C2130 1.387 . S
C2131 C2133 1.387 . S
H2132 C2139 0.950 . S
C2133 C2131 1.387 . S
C2133 C2135 1.390 . S
C2133 H2137 0.950 . S
H2134 C2130 0.950 . S
C2135 C2133 1.390 . S
C2135 C2136 1.387 . S
C2135 H2138 0.950 . S
C2136 C2135 1.387 . S
C2136 C2139 1.387 . S
H2137 C2133 0.950 . S
H2138 C2135 0.950 . S
C2139 C2130 1.390 . S
C2139 H2132 0.950 . S
C2139 C2136 1.387 . S
C2140 C2141 1.387 . S
C2140 H2144 0.950 . S
C2140 C2149 1.390 . S
C2141 C2140 1.387 . S
C2141 C2143 1.387 . S
H2142 C2149 0.950 . S
C2143 C2141 1.387 . S
C2143 C2145 1.390 . S
C2143 H2147 0.950 . S
H2144 C2140 0.950 . S
C2145 C2143 1.390 . S
C2145 C2146 1.387 . S
C2145 H2148 0.950 . S
C2146 C2145 1.387 . S
C2146 C2149 1.387 . S
H2147 C2143 0.950 . S
H2148 C2145 0.950 . S
C2149 C2140 1.390 . S
C2149 H2142 0.950 . S
C2149 C2146 1.387 . S
C2150 C2151 1.387 . S
C2150 H2154 0.950 . S
C2150 C2159 1.390 . S
C2151 C2150 1.387 . S
C2151 C2153 1.387 . S
H2152 C2159 0.950 . S
C2153 C2151 1.387 . S
C2153 C2155 1.390 . S
C2153 H2157 0.950 . S
H2154 C2150 0.950 . S
C2155 C2153 1.390 . S
C2155 C2156 1.387 . S
C2155 H2158 0.950 . S
C2156 C2155 1.387 . S
C2156 C2159 1.387 . S
H2157 C2153 0.950 . S
H2158 C2155 0.950 . S
C2159 C2150 1.390 . S
C2159 H2152 0.950 . S
C2159 C2156 1.387 . S
C2160 C2161 1.387 . S
C2160 H2164 0.950 . S
C2160 C2169 1.390 . S
C2161 C2160 1.387 . S
C2161 C2163 1.387 . S
H2162 C2169 0.950 . S
C2163 C2161 1.387 . S
C2163 C2165 1.390 . S
C2163 H2167 0.950 . S
H2164 C2160 0.950 . S
C2165 C2163 1.390 . S
C2165 C2166 1.387 . S
C2165 H2168 0.950 . S
C2166 C2165 1.387 . S
C2166 C2169 1.387 . S
H2167 C2163 0.950 . S
H2168 C2165 0.950 . S
C2169 C2160 1.390 . S
C2169 H2162 0.950 . S
C2169 C2166 1.387 . S
C2170 C2171 1.387 . S
C2170 H2174 0.950 . S
C2170 C2179 1.390 . S
C2171 C2170 1.387 . S
C2171 C2173 1.387 . S
H2172 C2179 0.950 . S
C2173 C2171 1.387 . S
C2173 C2175 1.390 . S
C2173 H2177 0.950 . S
H2174 C2170 0.950 . S
C2175 C2173 1.390 . S
C2175 C2176 1.387 . S
C2175 H2178 0.950 . S
C2176 C2175 1.387 . S
C2176 C2179 1.387 . S
H2177 C2173 0.950 . S
H2178 C2175 0.950 . S
C2179 C2170 1.390 . S
C2179 H2172 0.950 . S
C2179 C2176 1.387 . S
C2180 C2181 1.387 . S
C2180 H2184 0.950 . S
C2180 C2189 1.390 . S
C2181 C2180 1.387 . S
C2181 C2183 1.387 . S
H2182 C2189 0.950 . S
C2183 C2181 1.387 . S
C2183 C2185 1.390 . S
C2183 H2187 0.950 . S
H2184 C2180 0.950 . S
C2185 C2183 1.390 . S
C2185 C2186 1.387 . S
C2185 H2188 0.950 . S
C2186 C2185 1.387 . S
C2186 C2189 1.387 . S
H2187 C2183 0.950 . S
H2188 C2185 0.950 . S
C2189 C2180 1.390 . S
C2189 H2182 0.950 . S
C2189 C2186 1.387 . S
C2190 C2191 1.387 . S
C2190 H2194 0.950 . S
C2190 C2199 1.390 . S
C2191 C2190 1.387 . S
C2191 C2193 1.387 . S
H2192 C2199 0.950 . S
C2193 C2191 1.387 . S
C2193 C2195 1.390 . S
C2193 H2197 0.950 . S
H2194 C2190 0.950 . S
C2195 C2193 1.390 . S
C2195 C2196 1.387 . S
C2195 H2198 0.950 . S
C2196 C2195 1.387 . S
C2196 C2199 1.387 . S
H2197 C2193 0.950 . S
H2198 C2195 0.950 . S
C2199 C2190 1.390 . S
C2199 H2192 0.950 . S
C2199 C2196 1.387 . S
C2200 C2201 1.387 . S
C2200 H2204 0.950 . S
C2200 C2209 1.390 . S
C2201 C2200 1.387 . S
C2201 C2203 1.387 . S
H2202 C2209 0.950 . S
C2203 C2201 1.387 . S
C2203 C2205 1.390 . S
C2203 H2207 0.950 . S
H2204 C2200 0.950 . S
C2205 C2203 1.390 . S
C2205 C2206 1.387 . S
C2205 H2208 0.950 . S
C2206 C2205 1.387 . S
C2206 C2209 1.387 . S
H2207 C2203 0.950 . S
H2208 C2205 0.950 . S
C2209 C2200 1.390 . S
C2209 H2202 0.950 . S
C2209 C2206 1.387 . S
C2210 C2211 1.387 . S
C2210 H2214 0.950 . S
C2210 C2219 1.390 . S
C2211 C2210 1.387 . S
C2211 C2213 1.387 . S
H2212 C2219 0.950 . S
C2213 C2211 1.387 . S
C2213 C2215 1.390 . S
C2213 H2217 0.950 . S
H2214 C2210 0.950 . S
C2215 C2213 1.390 . S
C2215 C2216 1.387 . S
C2215 H2218 0.950 . S
C2216 C2215 1.387 . S
C2216 C2219 1.387 . S
H2217 C2213 0.950 . S
H2218 C2215 0.950 . S
C2219 C2210 1.390 . S
C2219 H2212 0.950 . S
C2219 C2216 1.387 . S
C2220 C2221 1.387 . S
C2220 H2224 0.950 . S
C2220 C2229 1.390 . S
C2221 C2220 1.387 . S
C2221 C2223 1.387 . S
H2222 C2229 0.950 . S
C2223 C2221 1.387 . S
C2223 C2225 1.390 . S
C2223 H2227 0.950 . S
H2224 C2220 0.950 . S
C2225 C2223 1.390 . S
C2225 C2226 1.387 . S
C2225 H2228 0.950 . S
C2226 C2225 1.387 . S
C2226 C2229 1.387 . S
H2227 C2223 0.950 . S
H2228 C2225 0.950 . S
C2229 C2220 1.390 . S
C2229 H2222 0.950 . S
C2229 C2226 1.387 . S
C2230 C2231 1.387 . S
C2230 H2234 0.950 . S
C2230 C2239 1.390 . S
C2231 C2230 1.387 . S
C2231 C2233 1.387 . S
H2232 C2239 0.950 . S
C2233 C2231 1.387 . S
C2233 C2235 1.390 . S
C2233 H2237 0.950 . S
H2234 C2230 0.950 . S
C2235 C2233 1.390 . S
C2235 C2236 1.387 . S
C2235 H2238 0.950 . S
C2236 C2235 1.387 . S
C2236 C2239 1.387 . S
H2237 C2233 0.950 . S
H2238 C2235 0.950 . S
C2239 C2230 1.390 . S
C2239 H2232 0.950 . S
C2239 C2236 1.387 . S
C1281 C7 1.045 . S
C1286 C131 1.006 . S
C1291 C11 1.001 . S
C1296 C47 1.046 . S
C1301 C87 1.045 . S
C1306 C51 1.007 . S
C1311 C91 1.003 . S
C1316 C127 1.046 . S
C1321 C211 1.006 . S
C1326 C167 1.045 . S
C1331 C207 1.046 . S
C1336 C251 1.001 . S
C1341 C291 1.001 . S
C1346 C247 1.046 . S
C1351 C171 1.007 . S
C1356 C287 1.045 . S
C1361 C336 1.045 . S
C1366 C442 1.006 . S
C1371 C376 1.046 . S
C1376 C322 1.002 . S
C1381 C416 1.046 . S
C1386 C362 1.002 . S
C1391 C456 1.045 . S
C1396 C402 1.006 . S
C1401 C496 1.045 . S
C1406 C522 1.007 . S
C1411 C536 1.045 . S
C1416 C562 1.006 . S
C1421 C602 1.007 . S
C1426 C576 1.045 . S
C1431 C482 1.002 . S
C1436 C616 1.046 . S
C1441 C647 1.045 . S
C1446 C771 1.007 . S
C1451 C651 1.006 . S
C1456 C687 1.045 . S
C1461 C691 1.007 . S
C1466 C727 1.045 . S
C1471 C767 1.046 . S
C1476 C731 1.001 . S
C1481 C807 1.045 . S
C1486 C851 1.007 . S
C1491 C891 1.006 . S
C1496 C847 1.045 . S
C1501 C887 1.046 . S
C1506 C931 1.002 . S
C1511 C811 1.007 . S
C1516 C927 1.045 . S
C1521 C1082 1.007 . S
C1526 C976 1.045 . S
C1531 C962 1.006 . S
C1536 C1016 1.045 . S
C1541 C1056 1.045 . S
C1546 C1002 1.007 . S
C1551 C1042 1.006 . S
C1556 C1096 1.045 . S
C1561 C1162 1.006 . S
C1566 C1136 1.045 . S
C1571 C1202 1.004 . S
C1576 C1176 1.046 . S
C1581 C1242 1.002 . S
C1586 C1216 1.046 . S
C1591 C1256 1.046 . S
C1596 C1122 1.002 . S
C1601 C1087 1.628 . S
C1606 C10 1.565 . S
C1611 C50 1.562 . S
C1616 C327 1.627 . S
C1621 C90 1.563 . S
C1626 C1007 1.628 . S
C1631 C130 1.562 . S
C1636 C407 1.627 . S
C1641 C170 1.561 . S
C1646 C1167 1.626 . S
C1651 C567 1.627 . S
C1656 C210 1.565 . S
C1661 C1247 1.628 . S
C1666 C250 1.565 . S
C1671 C290 1.564 . S
C1676 C487 1.627 . S
C1681 C339 1.565 . S
C1686 C776 1.628 . S
C1691 C16 1.627 . S
C1696 C379 1.562 . S
C1701 C696 1.627 . S
C1706 C419 1.562 . S
C1711 C96 1.628 . S
C1716 C459 1.564 . S
C1721 C856 1.626 . S
C1726 C499 1.562 . S
C1731 C256 1.628 . S
C1736 C539 1.563 . S
C1741 C579 1.562 . S
C1746 C936 1.626 . S
C1751 C619 1.563 . S
C1756 C176 1.627 . S
C1761 C650 1.562 . S
C1766 C447 1.626 . S
C1771 C690 1.562 . S
C1776 C967 1.627 . S
C1781 C730 1.565 . S
C1786 C367 1.628 . S
C1791 C770 1.562 . S
C1796 C1047 1.626 . S
C1801 C810 1.565 . S
C1806 C527 1.628 . S
C1811 C850 1.563 . S
C1816 C1207 1.627 . S
C1821 C607 1.626 . S
C1826 C890 1.563 . S
C1831 C930 1.562 . S
C1836 C1127 1.627 . S
C1841 C136 1.626 . S
C1846 C979 1.562 . S
C1851 C656 1.627 . S
C1856 C1019 1.563 . S
C1861 C56 1.627 . S
C1866 C1059 1.563 . S
C1871 C736 1.627 . S
C1876 C1099 1.564 . S
C1881 C216 1.626 . S
C1886 C1139 1.561 . S
C1891 C1179 1.564 . S
C1896 C896 1.627 . S
C1901 C1219 1.565 . S
C1906 C296 1.628 . S
C1911 C816 1.626 . S
C1916 C1259 1.563 . S
C1921 C19 1.281 . S
C1926 C179 1.281 . S
C1931 C59 1.281 . S
C1936 C219 1.281 . S
C1941 C99 1.276 . S
C1946 C259 1.276 . S
C1951 C299 1.281 . S
C1956 C139 1.281 . S
C1961 C490 1.281 . S
C1966 C330 1.281 . S
C1971 C530 1.276 . S
C1976 C370 1.276 . S
C1981 C410 1.281 . S
C1986 C570 1.281 . S
C1991 C450 1.281 . S
C1996 C610 1.281 . S
C2001 C659 1.276 . S
C2006 C819 1.276 . S
C2011 C859 1.281 . S
C2016 C699 1.281 . S
C2021 C899 1.281 . S
C2026 C739 1.281 . S
C2031 C939 1.281 . S
C2036 C779 1.281 . S
C2041 C1130 1.276 . S
C2046 C970 1.276 . S
C2051 C1010 1.276 . S
C2056 C1170 1.276 . S
C2061 C1210 1.276 . S
C2066 C1050 1.276 . S
C2071 C1090 1.276 . S
C2076 C1250 1.276 . S
C2081 C282 2.710 . S
C2086 C2 2.710 . S
C2091 C42 2.710 . S
C2096 C162 2.710 . S
C2101 C82 2.710 . S
C2106 C202 2.710 . S
C2111 C242 2.710 . S
C2116 C122 2.710 . S
C2121 C331 2.710 . S
C2126 C611 2.710 . S
C2131 C491 2.710 . S
C2136 C371 2.709 . S
C2141 C531 2.710 . S
C2146 C411 2.710 . S
C2151 C451 2.710 . S
C2156 C571 2.710 . S
C2161 C642 2.710 . S
C2166 C922 2.710 . S
C2171 C802 2.710 . S
C2176 C682 2.710 . S
C2181 C842 2.710 . S
C2186 C722 2.710 . S
C2191 C882 2.710 . S
C2196 C762 2.710 . S
C2201 C971 2.710 . S
C2206 C1251 2.710 . S
C2211 C1131 2.710 . S
C2216 C1011 2.710 . S
C2221 C1051 2.710 . S
C2226 C1171 2.709 . S
C2231 C1211 2.710 . S
C2236 C1091 2.710 . S
