# Generated by pormake.
# Topology uob, (4)-cn, num edge types: 1
# Building blocks:
#     Node 0, Type 0, BuildingBlock: QUQFOY_clean_sbu_1, # of connection points: 4
#     Node 1, Type 0, BuildingBlock: QUQFOY_clean_sbu_1, # of connection points: 4
#     Node 2, Type 0, BuildingBlock: QUQFOY_clean_sbu_1, # of connection points: 4
#     Node 3, Type 0, BuildingBlock: QUQFOY_clean_sbu_1, # of connection points: 4
#     Node 4, Type 0, BuildingBlock: QUQFOY_clean_sbu_1, # of connection points: 4
#     Node 5, Type 0, BuildingBlock: QUQFOY_clean_sbu_1, # of connection points: 4
#     Node 6, Type 0, BuildingBlock: QUQFOY_clean_sbu_1, # of connection points: 4
#     Node 7, Type 0, BuildingBlock: QUQFOY_clean_sbu_1, # of connection points: 4
#     Node 8, Type 0, BuildingBlock: QUQFOY_clean_sbu_1, # of connection points: 4
#     Node 9, Type 0, BuildingBlock: QUQFOY_clean_sbu_1, # of connection points: 4
#     Node 10, Type 0, BuildingBlock: QUQFOY_clean_sbu_1, # of connection points: 4
#     Node 11, Type 0, BuildingBlock: QUQFOY_clean_sbu_1, # of connection points: 4
#     Node 12, Type 0, BuildingBlock: QUQFOY_clean_sbu_1, # of connection points: 4
#     Node 13, Type 0, BuildingBlock: QUQFOY_clean_sbu_1, # of connection points: 4
#     Node 14, Type 0, BuildingBlock: QUQFOY_clean_sbu_1, # of connection points: 4
#     Node 15, Type 0, BuildingBlock: QUQFOY_clean_sbu_1, # of connection points: 4
#     Edge 16, Type (0, 0), BuildingBlock: TEMPAE_clean_linker_10, # of connection points: 2
#     Edge 17, Type (0, 0), BuildingBlock: TEMPAE_clean_linker_10, # of connection points: 2
#     Edge 18, Type (0, 0), BuildingBlock: TEMPAE_clean_linker_10, # of connection points: 2
#     Edge 19, Type (0, 0), BuildingBlock: TEMPAE_clean_linker_10, # of connection points: 2
#     Edge 20, Type (0, 0), BuildingBlock: TEMPAE_clean_linker_10, # of connection points: 2
#     Edge 21, Type (0, 0), BuildingBlock: TEMPAE_clean_linker_10, # of connection points: 2
#     Edge 22, Type (0, 0), BuildingBlock: TEMPAE_clean_linker_10, # of connection points: 2
#     Edge 23, Type (0, 0), BuildingBlock: TEMPAE_clean_linker_10, # of connection points: 2
#     Edge 24, Type (0, 0), BuildingBlock: TEMPAE_clean_linker_10, # of connection points: 2
#     Edge 25, Type (0, 0), BuildingBlock: TEMPAE_clean_linker_10, # of connection points: 2
#     Edge 26, Type (0, 0), BuildingBlock: TEMPAE_clean_linker_10, # of connection points: 2
#     Edge 27, Type (0, 0), BuildingBlock: TEMPAE_clean_linker_10, # of connection points: 2
#     Edge 28, Type (0, 0), BuildingBlock: TEMPAE_clean_linker_10, # of connection points: 2
#     Edge 29, Type (0, 0), BuildingBlock: TEMPAE_clean_linker_10, # of connection points: 2
#     Edge 30, Type (0, 0), BuildingBlock: TEMPAE_clean_linker_10, # of connection points: 2
#     Edge 31, Type (0, 0), BuildingBlock: TEMPAE_clean_linker_10, # of connection points: 2
#     Edge 32, Type (0, 0), BuildingBlock: TEMPAE_clean_linker_10, # of connection points: 2
#     Edge 33, Type (0, 0), BuildingBlock: TEMPAE_clean_linker_10, # of connection points: 2
#     Edge 34, Type (0, 0), BuildingBlock: TEMPAE_clean_linker_10, # of connection points: 2
#     Edge 35, Type (0, 0), BuildingBlock: TEMPAE_clean_linker_10, # of connection points: 2
#     Edge 36, Type (0, 0), BuildingBlock: TEMPAE_clean_linker_10, # of connection points: 2
#     Edge 37, Type (0, 0), BuildingBlock: TEMPAE_clean_linker_10, # of connection points: 2
#     Edge 38, Type (0, 0), BuildingBlock: TEMPAE_clean_linker_10, # of connection points: 2
#     Edge 39, Type (0, 0), BuildingBlock: TEMPAE_clean_linker_10, # of connection points: 2
#     Edge 40, Type (0, 0), BuildingBlock: TEMPAE_clean_linker_10, # of connection points: 2
#     Edge 41, Type (0, 0), BuildingBlock: TEMPAE_clean_linker_10, # of connection points: 2
#     Edge 42, Type (0, 0), BuildingBlock: TEMPAE_clean_linker_10, # of connection points: 2
#     Edge 43, Type (0, 0), BuildingBlock: TEMPAE_clean_linker_10, # of connection points: 2
#     Edge 44, Type (0, 0), BuildingBlock: TEMPAE_clean_linker_10, # of connection points: 2
#     Edge 45, Type (0, 0), BuildingBlock: TEMPAE_clean_linker_10, # of connection points: 2
#     Edge 46, Type (0, 0), BuildingBlock: TEMPAE_clean_linker_10, # of connection points: 2
#     Edge 47, Type (0, 0), BuildingBlock: TEMPAE_clean_linker_10, # of connection points: 2
# Relax obj value: 0.047
# Max RMSD: 0.119
# Mean RMSD: 0.119
data_MOF--net-uob--node1-QUQFOY_clean_sbu_1--edge1-TEMPAE_clean_linker_10
_symmetry_space_group_name_H-M    P1
_symmetry_Int_Tables_number       1
_symmetry_cell_setting            triclinic
loop_
_symmetry_equiv_pos_as_xyz
'x, y, z'
_cell_length_a     56.844704
_cell_length_b     56.813638
_cell_length_c     28.821101
_cell_angle_alpha  89.936215
_cell_angle_beta   89.999644
_cell_angle_gamma 89.988941
loop_
_atom_site_label
_atom_site_type_symbol
_atom_site_fract_x
_atom_site_fract_y
_atom_site_fract_z
_atom_type_partial_charge
O0 O 0.12519 0.05983 0.39213 0.0
Cd1 Cd 0.13262 0.03778 0.33842 0.0
Cd2 Cd 0.11864 0.07667 0.29152 0.0
O3 O 0.12892 0.09304 0.3533 0.0
O4 O 0.15406 0.014 0.36766 0.0
O5 O 0.16599 0.0397 0.31503 0.0
C6 C 0.17121 0.02368 0.34529 0.0
C7 C 0.12678 0.09162 0.21736 0.0
C8 C 0.12728 0.08205 0.39168 0.0
C9 C 0.08553 0.0347 0.2975 0.0
O10 O 0.08791 0.05686 0.29264 0.0
O11 O 0.103 0.0221 0.30998 0.0
O12 O 0.11249 0.10226 0.24502 0.0
O13 O 0.13772 0.07327 0.23283 0.0
O14 O 0.93509 0.63675 0.63454 0.0
Cd15 Cd 0.96271 0.63817 0.58923 0.0
Cd16 Cd 0.92338 0.61722 0.53497 0.0
O17 O 0.90406 0.62546 0.59395 0.0
O18 O 0.98559 0.65701 0.62715 0.0
O19 O 0.96878 0.67086 0.5638 0.0
C20 C 0.9815 0.67466 0.60021 0.0
C21 C 0.90668 0.61973 0.4605 0.0
C22 C 0.91319 0.63265 0.63169 0.0
C23 C 0.96857 0.58845 0.555 0.0
O24 O 0.94751 0.59015 0.54044 0.0
O25 O 0.97893 0.60612 0.57315 0.0
O26 O 0.90085 0.60336 0.48919 0.0
O27 O 0.92113 0.6357 0.47484 0.0
O28 O 0.37336 0.44084 0.88367 0.0
Cd29 Cd 0.36833 0.4697 0.8422 0.0
Cd30 Cd 0.39071 0.43384 0.77841 0.0
O31 O 0.38773 0.41317 0.83737 0.0
O32 O 0.34913 0.49026 0.88432 0.0
O33 O 0.33477 0.47439 0.82053 0.0
C34 C 0.33118 0.48608 0.85833 0.0
C35 C 0.38973 0.41633 0.70442 0.0
C36 C 0.38045 0.41995 0.87688 0.0
C37 C 0.41557 0.48112 0.79975 0.0
O38 O 0.41472 0.46089 0.78108 0.0
O39 O 0.3985 0.48876 0.82424 0.0
O40 O 0.40701 0.41311 0.73253 0.0
O41 O 0.37207 0.42851 0.71914 0.0
O42 O 0.577 0.87101 0.13628 0.0
Cd43 Cd 0.54775 0.8694 0.09512 0.0
Cd44 Cd 0.58577 0.89148 0.03569 0.0
O45 O 0.60655 0.88374 0.09292 0.0
O46 O 0.52627 0.85075 0.13664 0.0
O47 O 0.54104 0.83649 0.07175 0.0
C48 C 0.5296 0.83291 0.10987 0.0
C49 C 0.60139 0.89003 0.96021 0.0
C50 C 0.59865 0.87581 0.13117 0.0
C51 C 0.54023 0.91901 0.06019 0.0
O52 O 0.56083 0.91762 0.04321 0.0
O53 O 0.53079 0.90129 0.08017 0.0
O54 O 0.60698 0.90649 0.98882 0.0
O55 O 0.5878 0.87345 0.97508 0.0
O56 O 0.12246 0.45154 0.94849 0.0
Cd57 Cd 0.12971 0.47443 1.00097 0.0
Cd58 Cd 0.11695 0.43503 0.04983 0.0
O59 O 0.12623 0.41846 0.98801 0.0
O60 O 0.1511 0.49794 0.97098 0.0
O61 O 0.16296 0.47277 0.02473 0.0
C62 C 0.16819 0.48849 0.99389 0.0
C63 C 0.12254 0.41721 0.12245 0.0
C64 C 0.12452 0.42932 0.94952 0.0
C65 C 0.08331 0.47733 0.04329 0.0
O66 O 0.08666 0.45544 0.04989 0.0
O67 O 0.10003 0.49027 0.02861 0.0
O68 O 0.10693 0.40971 0.09368 0.0
O69 O 0.13639 0.43385 0.10875 0.0
O70 O 0.57878 0.63595 0.20463 0.0
Cd71 Cd 0.55311 0.6352 0.25402 0.0
Cd72 Cd 0.59271 0.61808 0.30259 0.0
O73 O 0.61116 0.63099 0.24575 0.0
O74 O 0.52799 0.65395 0.22191 0.0
O75 O 0.54762 0.66716 0.28265 0.0
C76 C 0.53326 0.67129 0.24879 0.0
C77 C 0.60461 0.6242 0.37937 0.0
C78 C 0.60105 0.63594 0.20761 0.0
C79 C 0.55231 0.5844 0.28266 0.0
O80 O 0.57385 0.58735 0.29329 0.0
O81 O 0.53965 0.60192 0.27039 0.0
O82 O 0.61645 0.61079 0.35188 0.0
O83 O 0.58662 0.63523 0.36259 0.0
O84 O 0.38186 0.06212 0.44 0.0
Cd85 Cd 0.37389 0.03719 0.48842 0.0
Cd86 Cd 0.3879 0.07545 0.54347 0.0
O87 O 0.37976 0.09413 0.48331 0.0
O88 O 0.35331 0.01497 0.45273 0.0
O89 O 0.34013 0.03711 0.51009 0.0
C90 C 0.33567 0.02286 0.47622 0.0
C91 C 0.38391 0.09237 0.61742 0.0
C92 C 0.38099 0.08434 0.44371 0.0
C93 C 0.42008 0.03195 0.53173 0.0
O94 O 0.41709 0.05356 0.54164 0.0
O95 O 0.40329 0.01998 0.51436 0.0
O96 O 0.39982 0.09927 0.58871 0.0
O97 O 0.36892 0.07692 0.60309 0.0
O98 O 0.95186 0.88537 0.68201 0.0
Cd99 Cd 0.97381 0.87767 0.73575 0.0
Cd100 Cd 0.93514 0.89091 0.78283 0.0
O101 O 0.9189 0.88044 0.721 0.0
O102 O 0.99731 0.8557 0.70735 0.0
O103 O 0.97104 0.84446 0.75949 0.0
C104 C 0.9871 0.83882 0.72966 0.0
C105 C 0.92038 0.88242 0.85694 0.0
C106 C 0.92973 0.88265 0.68257 0.0
C107 C 0.9767 0.92448 0.77739 0.0
O108 O 0.95455 0.92191 0.78199 0.0
O109 O 0.98943 0.90714 0.76484 0.0
O110 O 0.90951 0.89661 0.82937 0.0
O111 O 0.93885 0.87175 0.84139 0.0
O112 O 0.62376 0.56617 0.8942 0.0
Cd113 Cd 0.62932 0.54362 0.84046 0.0
Cd114 Cd 0.6181 0.5828 0.79485 0.0
O115 O 0.63056 0.59877 0.85517 0.0
O116 O 0.64954 0.51874 0.86933 0.0
O117 O 0.66255 0.5437 0.81627 0.0
C118 C 0.66707 0.52756 0.84671 0.0
C119 C 0.62714 0.59569 0.71986 0.0
C120 C 0.628 0.58808 0.89364 0.0
C121 C 0.58173 0.54398 0.80259 0.0
O122 O 0.58574 0.56594 0.79846 0.0
O123 O 0.59848 0.52998 0.81294 0.0
O124 O 0.61401 0.60805 0.747 0.0
O125 O 0.63644 0.57667 0.73631 0.0
O126 O 0.43515 0.13324 0.13334 0.0
Cd127 Cd 0.46333 0.13308 0.08916 0.0
Cd128 Cd 0.42427 0.11232 0.03463 0.0
O129 O 0.40442 0.12182 0.092 0.0
O130 O 0.48643 0.15194 0.1265 0.0
O131 O 0.4703 0.16516 0.06191 0.0
C132 C 0.4829 0.16923 0.09838 0.0
C133 C 0.40873 0.11501 0.95934 0.0
C134 C 0.41321 0.12959 0.12957 0.0
C135 C 0.46837 0.08268 0.05789 0.0
O136 O 0.44748 0.08462 0.0425 0.0
O137 O 0.47893 0.10042 0.07533 0.0
O138 O 0.40199 0.09893 0.98792 0.0
O139 O 0.42353 0.13053 0.97414 0.0
O140 O 0.87369 0.93557 0.37009 0.0
Cd141 Cd 0.87126 0.96171 0.32178 0.0
Cd142 Cd 0.89151 0.92267 0.27019 0.0
O143 O 0.88238 0.90376 0.32957 0.0
O144 O 0.85236 0.98535 0.35775 0.0
O145 O 0.8382 0.96632 0.29723 0.0
C146 C 0.83451 0.98002 0.33228 0.0
C147 C 0.88639 0.90836 0.19452 0.0
C148 C 0.87671 0.91349 0.36774 0.0
C149 C 0.921 0.96693 0.28726 0.0
O150 O 0.91976 0.94537 0.27548 0.0
O151 O 0.90299 0.9777 0.30308 0.0
O152 O 0.90134 0.8989 0.2225 0.0
O153 O 0.87322 0.92508 0.21028 0.0
O154 O 0.07164 0.37635 0.63795 0.0
Cd155 Cd 0.04425 0.37453 0.59223 0.0
Cd156 Cd 0.08354 0.39502 0.53831 0.0
O157 O 0.10292 0.38668 0.59709 0.0
O158 O 0.0214 0.3555 0.62988 0.0
O159 O 0.03901 0.34166 0.5674 0.0
C160 C 0.02614 0.33779 0.6036 0.0
C161 C 0.09996 0.39233 0.4638 0.0
C162 C 0.09362 0.37998 0.63502 0.0
C163 C 0.03846 0.42406 0.55733 0.0
O164 O 0.05964 0.42229 0.54355 0.0
O165 O 0.02789 0.40639 0.5751 0.0
O166 O 0.10602 0.40869 0.49229 0.0
O167 O 0.08547 0.37646 0.47841 0.0
O168 O 0.6268 0.94525 0.43989 0.0
Cd169 Cd 0.63484 0.97051 0.48746 0.0
Cd170 Cd 0.62151 0.93244 0.54425 0.0
O171 O 0.63018 0.91373 0.48443 0.0
O172 O 0.65517 0.99272 0.45109 0.0
O173 O 0.66871 0.9706 0.50829 0.0
C174 C 0.67296 0.9848 0.47417 0.0
C175 C 0.62556 0.91558 0.61841 0.0
C176 C 0.62847 0.92312 0.44448 0.0
C177 C 0.58885 0.97556 0.53154 0.0
O178 O 0.59205 0.95402 0.54192 0.0
O179 O 0.60549 0.98759 0.51375 0.0
O180 O 0.6098 0.90848 0.5896 0.0
O181 O 0.64033 0.93126 0.60412 0.0
O182 O 0.0724 0.13721 0.70431 0.0
Cd183 Cd 0.04683 0.13956 0.75367 0.0
Cd184 Cd 0.08617 0.1201 0.80411 0.0
O185 O 0.10463 0.12965 0.74442 0.0
O186 O 0.02276 0.1586 0.71907 0.0
O187 O 0.04268 0.17254 0.77871 0.0
C188 C 0.02853 0.17637 0.74439 0.0
C189 C 0.10044 0.1256 0.87973 0.0
C190 C 0.09456 0.1348 0.70627 0.0
C191 C 0.04241 0.08983 0.78823 0.0
O192 O 0.06406 0.09135 0.79916 0.0
O193 O 0.03124 0.10774 0.77302 0.0
O194 O 0.11022 0.11086 0.85178 0.0
O195 O 0.08342 0.13839 0.86392 0.0
O196 O 0.87767 0.56183 0.94395 0.0
Cd197 Cd 0.86886 0.53789 0.9937 0.0
Cd198 Cd 0.88324 0.57686 0.04709 0.0
O199 O 0.87603 0.59456 0.98522 0.0
O200 O 0.84808 0.51548 0.95896 0.0
O201 O 0.83497 0.53886 0.01446 0.0
C202 C 0.83045 0.52412 0.98145 0.0
C203 C 0.87947 0.59518 0.11985 0.0
C204 C 0.87731 0.58412 0.94624 0.0
C205 C 0.91446 0.53241 0.03926 0.0
O206 O 0.91185 0.55421 0.04786 0.0
O207 O 0.89767 0.52055 0.02166 0.0
O208 O 0.89556 0.60124 0.09078 0.0
O209 O 0.86413 0.57988 0.10635 0.0
O210 O 0.44693 0.37594 0.18788 0.0
Cd211 Cd 0.4743 0.37174 0.23333 0.0
Cd212 Cd 0.43744 0.3935 0.29185 0.0
O213 O 0.41776 0.38897 0.23201 0.0
O214 O 0.49582 0.35052 0.19729 0.0
O215 O 0.47664 0.3389 0.25987 0.0
C216 C 0.48961 0.33361 0.22452 0.0
C217 C 0.41941 0.39113 0.36516 0.0
C218 C 0.42562 0.38199 0.19307 0.0
C219 C 0.48419 0.41967 0.27368 0.0
O220 O 0.46344 0.41874 0.29001 0.0
O221 O 0.49285 0.40224 0.25158 0.0
O222 O 0.41543 0.40837 0.33726 0.0
O223 O 0.43276 0.37429 0.35057 0.0
C224 C 0.30677 1.0032 0.42281 0.0
C225 C 0.3111 0.01819 0.46062 0.0
C226 C 0.28423 1.00145 0.40281 0.0
C227 C 0.26549 0.01511 0.42077 0.0
C228 C 0.26952 0.02953 0.46012 0.0
C229 C 0.2922 0.03084 0.47961 0.0
C230 C 0.28071 0.98566 0.36131 0.0
C231 C 0.25007 0.04439 0.48049 0.0
C232 C 0.2143 0.03349 0.34301 0.0
C233 C 0.19606 0.01891 0.35892 0.0
C234 C 0.23712 0.03194 0.36182 0.0
C235 C 0.24196 0.01528 0.39726 0.0
C236 C 0.22394 0.9997 0.41173 0.0
C237 C 0.20124 1.00175 0.39256 0.0
C238 C 0.25577 0.04889 0.34524 0.0
C239 C 0.22836 0.98149 0.4489 0.0
H240 H 0.3212 0.99335 0.40776 0.0
H241 H 0.29531 0.04256 0.50862 0.0
H242 H 0.26539 0.9739 0.3669 0.0
H243 H 0.27686 0.99652 0.33022 0.0
H244 H 0.29645 0.97467 0.35398 0.0
H245 H 0.2557 0.05374 0.51245 0.0
H246 H 0.24425 0.05764 0.45461 0.0
H247 H 0.23463 0.03325 0.48891 0.0
H248 H 0.21053 0.04688 0.31725 0.0
H249 H 0.18733 0.99038 0.40517 0.0
H250 H 0.27176 0.03914 0.33441 0.0
H251 H 0.26093 0.06073 0.3741 0.0
H252 H 0.24965 0.05985 0.31567 0.0
H253 H 0.24426 0.97101 0.44047 0.0
H254 H 0.21323 0.96932 0.45329 0.0
H255 H 0.2317 0.9904 0.4825 0.0
C256 C 0.00892 0.80804 0.68413 0.0
C257 C 0.99126 0.81383 0.71628 0.0
C258 C 0.0105 0.7853 0.66496 0.0
C259 C 0.99385 0.76791 0.67774 0.0
C260 C 0.97663 0.77335 0.71168 0.0
C261 C 0.97563 0.79615 0.73068 0.0
C262 C 0.02939 0.78018 0.62959 0.0
C263 C 0.95849 0.75541 0.72635 0.0
C264 C 0.9774 0.71857 0.59409 0.0
C265 C 0.98812 0.69893 0.61478 0.0
C266 C 0.9798 0.74122 0.6133 0.0
C267 C 0.99348 0.74446 0.65395 0.0
C268 C 0.00549 0.72494 0.67334 0.0
C269 C 1.00256 0.70244 0.65373 0.0
C270 C 0.96664 0.76149 0.59146 0.0
C271 C 0.02059 0.72761 0.71609 0.0
H272 H 0.02111 0.82153 0.67272 0.0
H273 H 0.96183 0.8004 0.75524 0.0
H274 H 0.0388 0.76368 0.6386 0.0
H275 H 0.02123 0.77755 0.59502 0.0
H276 H 0.04241 0.79469 0.62693 0.0
H277 H 0.94702 0.76197 0.75473 0.0
H278 H 0.94725 0.75076 0.69623 0.0
H279 H 0.96724 0.73901 0.73815 0.0
H280 H 0.9661 0.71608 0.56421 0.0
H281 H 0.01096 0.68742 0.67002 0.0
H282 H 0.97878 0.77635 0.58451 0.0
H283 H 0.95298 0.76794 0.61586 0.0
H284 H 0.95794 0.75642 0.55843 0.0
H285 H 0.03301 0.74252 0.71184 0.0
H286 H 0.03081 0.71141 0.72383 0.0
H287 H 0.00927 0.73164 0.74642 0.0
C288 C 0.28737 0.48078 0.85482 0.0
C289 C 0.30701 0.49178 0.87478 0.0
C290 C 0.26492 0.48267 0.87509 0.0
C291 C 0.26189 0.49615 0.91605 0.0
C292 C 0.28139 0.50836 0.93486 0.0
C293 C 0.30371 0.5059 0.91424 0.0
C294 C 0.24466 0.46927 0.85392 0.0
C295 C 0.27891 0.52327 0.97791 0.0
C296 C 0.1984 0.51084 0.94792 0.0
C297 C 0.19303 0.49305 0.98012 0.0
C298 C 0.221 0.51272 0.92826 0.0
C299 C 0.23864 0.49624 0.94053 0.0
C300 C 0.23362 0.4789 0.97455 0.0
C301 C 0.21097 0.47762 0.99411 0.0
C302 C 0.22569 0.53176 0.89287 0.0
C303 C 0.25184 0.46091 0.98861 0.0
H304 H 0.28972 0.46972 0.82455 0.0
H305 H 0.31874 0.51452 0.92993 0.0
H306 H 0.23849 0.45558 0.87859 0.0
H307 H 0.22964 0.48128 0.84729 0.0
H308 H 0.24959 0.46058 0.8208 0.0
H309 H 0.29509 0.53354 0.98539 0.0
H310 H 0.26392 0.53564 0.97417 0.0
H311 H 0.2751 0.51181 0.00818 0.0
H312 H 0.1847 0.52287 0.93686 0.0
H313 H 0.20702 0.46372 0.01869 0.0
H314 H 0.22816 0.5237 0.85817 0.0
H315 H 0.24214 0.54132 0.90149 0.0
H316 H 0.21103 0.54465 0.89071 0.0
H317 H 0.25635 0.44973 0.95833 0.0
H318 H 0.24561 0.44935 0.01718 0.0
H319 H 0.26824 0.4698 0.99989 0.0
C320 C 0.53573 0.78922 0.10787 0.0
C321 C 0.52382 0.80872 0.12629 0.0
C322 C 0.53427 0.76693 0.1291 0.0
C323 C 0.52018 0.76386 0.16927 0.0
C324 C 0.50691 0.78314 0.1862 0.0
C325 C 0.50908 0.80536 0.16487 0.0
C326 C 0.54892 0.74699 0.11003 0.0
C327 C 0.49118 0.78056 0.22809 0.0
C328 C 0.50898 0.69974 0.20221 0.0
C329 C 0.52649 0.69574 0.2357 0.0
C330 C 0.50576 0.72215 0.1822 0.0
C331 C 0.52076 0.74095 0.19514 0.0
C332 C 0.53766 0.73729 0.23063 0.0
C333 C 0.54014 0.71484 0.25078 0.0
C334 C 0.48707 0.72539 0.14556 0.0
C335 C 0.55419 0.75671 0.24531 0.0
H336 H 0.54732 0.79164 0.07839 0.0
H337 H 0.49979 0.8203 0.17938 0.0
H338 H 0.5623 0.74168 0.13608 0.0
H339 H 0.5377 0.73141 0.10319 0.0
H340 H 0.55811 0.75189 0.0774 0.0
H341 H 0.47977 0.79622 0.23325 0.0
H342 H 0.47987 0.76474 0.22463 0.0
H343 H 0.50211 0.77814 0.25961 0.0
H344 H 0.49833 0.68512 0.19032 0.0
H345 H 0.55386 0.71193 0.27627 0.0
H346 H 0.49552 0.72743 0.1111 0.0
H347 H 0.47676 0.74161 0.1523 0.0
H348 H 0.47482 0.71017 0.14402 0.0
H349 H 0.56578 0.76152 0.21578 0.0
H350 H 0.56542 0.75148 0.27514 0.0
H351 H 0.54413 0.77269 0.25499 0.0
C352 C 0.69615 0.50506 0.89521 0.0
C353 C 0.6917 0.52193 0.86061 0.0
C354 C 0.71866 0.50256 0.91501 0.0
C355 C 0.73724 0.51737 0.90017 0.0
C356 C 0.73315 0.53361 0.86365 0.0
C357 C 0.7105 0.53564 0.84425 0.0
C358 C 0.72227 0.48479 0.95334 0.0
C359 C 0.75243 0.54972 0.84659 0.0
C360 C 0.78716 0.53306 0.98311 0.0
C361 C 0.8059 0.51968 0.96552 0.0
C362 C 0.7646 0.53194 0.96303 0.0
C363 C 0.76054 0.51696 0.92452 0.0
C364 C 0.77908 0.50256 0.90807 0.0
C365 C 0.80151 0.50414 0.92862 0.0
C366 C 0.74536 0.54758 0.98181 0.0
C367 C 0.77551 0.48615 0.86752 0.0
H368 H 0.6818 0.49435 0.90818 0.0
H369 H 0.70731 0.5488 0.81773 0.0
H370 H 0.73802 0.47384 0.94622 0.0
H371 H 0.72542 0.49411 0.98658 0.0
H372 H 0.70682 0.47303 0.95773 0.0
H373 H 0.74688 0.56031 0.81607 0.0
H374 H 0.75766 0.56193 0.8748 0.0
H375 H 0.76823 0.53935 0.83703 0.0
H376 H 0.79032 0.5452 0.01142 0.0
H377 H 0.81582 0.49371 0.91467 0.0
H378 H 0.72957 0.53696 0.99036 0.0
H379 H 0.7401 0.56056 0.95493 0.0
H380 H 0.75095 0.5573 0.01337 0.0
H381 H 0.75979 0.47494 0.87327 0.0
H382 H 0.79098 0.4746 0.86157 0.0
H383 H 0.77229 0.49657 0.83557 0.0
C384 C 0.51063 0.30334 0.17641 0.0
C385 C 0.49426 0.3087 0.21134 0.0
C386 C 0.51226 0.2805 0.1577 0.0
C387 C 0.4968 0.26266 0.17352 0.0
C388 C 0.48094 0.26773 0.21017 0.0
C389 C 0.48003 0.29059 0.2289 0.0
C390 C 0.52985 0.27575 0.11962 0.0
C391 C 0.46398 0.24936 0.2279 0.0
C392 C 0.47817 0.213 0.09252 0.0
C393 C 0.48986 0.19355 0.11177 0.0
C394 C 0.48087 0.23569 0.11136 0.0
C395 C 0.49598 0.23919 0.1499 0.0
C396 C 0.509 0.21988 0.16751 0.0
C397 C 0.50561 0.19729 0.14859 0.0
C398 C 0.46646 0.25568 0.09166 0.0
C399 C 0.52574 0.22287 0.20772 0.0
H400 H 0.52174 0.31719 0.16265 0.0
H401 H 0.46719 0.29456 0.25557 0.0
H402 H 0.53988 0.25943 0.12712 0.0
H403 H 0.52046 0.27303 0.08632 0.0
H404 H 0.54246 0.29052 0.11515 0.0
H405 H 0.45355 0.25571 0.25798 0.0
H406 H 0.45166 0.24431 0.19974 0.0
H407 H 0.47362 0.23324 0.23841 0.0
H408 H 0.46581 0.2103 0.06439 0.0
H409 H 0.51475 0.18239 0.16371 0.0
H410 H 0.47801 0.27072 0.08255 0.0
H411 H 0.45382 0.26198 0.11823 0.0
H412 H 0.45646 0.25038 0.06026 0.0
H413 H 0.53754 0.23813 0.20167 0.0
H414 H 0.53667 0.20693 0.21355 0.0
H415 H 0.51563 0.22651 0.23984 0.0
C416 C 0.79078 0.97398 0.33025 0.0
C417 C 0.81027 0.98635 0.34748 0.0
C418 C 0.76842 0.97625 0.35083 0.0
C419 C 0.76531 0.99152 0.38926 0.0
C420 C 0.7846 1.00515 0.40493 0.0
C421 C 0.80684 1.00228 0.38413 0.0
C422 C 0.74841 0.96129 0.33304 0.0
C423 C 0.78203 0.02198 0.44509 0.0
C424 C 0.70171 0.00553 0.42192 0.0
C425 C 0.69741 0.98924 0.45766 0.0
C426 C 0.72396 0.00717 0.4006 0.0
C427 C 0.74234 0.99194 0.41481 0.0
C428 C 0.73836 0.97613 0.45211 0.0
C429 C 0.71605 0.97509 0.47323 0.0
C430 C 0.72751 0.0246 0.36166 0.0
C431 C 0.75738 0.95948 0.46833 0.0
H432 H 0.79322 0.96151 0.30223 0.0
H433 H 0.82175 0.01195 0.39773 0.0
H434 H 0.74307 0.94851 0.36021 0.0
H435 H 0.73288 0.97243 0.32524 0.0
H436 H 0.75326 0.95138 0.30124 0.0
H437 H 0.79785 0.03321 0.44966 0.0
H438 H 0.76648 0.0335 0.43995 0.0
H439 H 0.77912 0.0119 0.47758 0.0
H440 H 0.68747 0.01657 0.40958 0.0
H441 H 0.71293 0.96233 0.50054 0.0
H442 H 0.7299 0.01501 0.32848 0.0
H443 H 0.74367 0.03511 0.36766 0.0
H444 H 0.71234 0.03679 0.35788 0.0
H445 H 0.76201 0.94718 0.43987 0.0
H446 H 0.75188 0.94901 0.49904 0.0
H447 H 0.77353 0.96943 0.47733 0.0
C448 C 1.00474 0.30975 0.65622 0.0
C449 C 0.02032 0.31345 0.61907 0.0
C450 C 1.00252 0.28749 0.67731 0.0
C451 C 0.01654 0.26849 0.66153 0.0
C452 C 0.03144 0.27185 0.6226 0.0
C453 C 0.03298 0.29419 0.60164 0.0
C454 C 0.98599 0.2846 0.71788 0.0
C455 C 0.04682 0.25218 0.60471 0.0
C456 C 0.03548 0.21996 0.74513 0.0
C457 C 0.02224 0.20069 0.72953 0.0
C458 C 0.03322 0.24228 0.72434 0.0
C459 C 0.01701 0.24561 0.6875 0.0
C460 C 1.00249 0.22661 0.67369 0.0
C461 C 0.00542 0.20436 0.69452 0.0
C462 C 0.04917 0.26197 0.74006 0.0
C463 C 0.98459 0.22947 0.63542 0.0
H464 H 0.99485 0.32449 0.66996 0.0
H465 H 0.0452 0.29686 0.57324 0.0
H466 H 0.97504 0.26859 0.71348 0.0
H467 H 0.9963 0.28233 0.75025 0.0
H468 H 0.9742 0.30004 0.72216 0.0
H469 H 0.05646 0.25721 0.57267 0.0
H470 H 0.05985 0.24722 0.63169 0.0
H471 H 0.03606 0.23634 0.5973 0.0
H472 H 0.04865 0.21732 0.77185 0.0
H473 H 0.99507 0.18961 0.68221 0.0
H474 H 0.03868 0.27779 0.74896 0.0
H475 H 0.06121 0.26694 0.71136 0.0
H476 H 0.05993 0.25695 0.7707 0.0
H477 H 0.97379 0.24546 0.64127 0.0
H478 H 0.97271 0.214 0.63273 0.0
H479 H 0.99377 0.23174 0.60174 0.0
C480 C 0.05558 1.0034 0.31501 0.0
C481 C 0.06179 0.02413 0.29155 0.0
C482 C 0.03243 0.99464 0.31333 0.0
C483 C 0.01516 0.00659 0.2867 0.0
C484 C 0.02155 0.02711 0.26177 0.0
C485 C 0.04467 0.03576 0.26492 0.0
C486 C 0.02629 0.97291 0.34098 0.0
C487 C 1.0039 0.04005 0.23202 0.0
C488 C 0.96112 0.97098 0.25249 0.0
C489 C 0.94423 0.97884 0.28448 0.0
C490 C 0.984 0.98034 0.25196 0.0
C491 C 0.99043 0.99761 0.28497 0.0
C492 C 0.97335 0.00591 0.3169 0.0
C493 C 0.95037 0.99663 0.31591 0.0
C494 C 1.00141 0.97143 0.21651 0.0
C495 C 0.97956 0.02404 0.35314 0.0
H496 H 0.06863 0.99445 0.33604 0.0
H497 H 0.04934 0.05174 0.24653 0.0
H498 H 0.01215 0.97708 0.36621 0.0
H499 H 0.01945 0.95901 0.3176 0.0
H500 H 0.04165 0.96577 0.36023 0.0
H501 H 0.01191 0.05512 0.21318 0.0
H502 H 0.99605 0.02784 0.20629 0.0
H503 H 0.98934 0.04678 0.25393 0.0
H504 H 0.95647 0.95731 0.22791 0.0
H505 H 0.93749 1.0026 0.34101 0.0
H506 H 0.01608 0.96221 0.23426 0.0
H507 H 0.00914 0.98641 0.19705 0.0
H508 H 0.99324 0.95909 0.19136 0.0
H509 H 0.99368 0.01709 0.37595 0.0
H510 H 0.96423 0.02891 0.37502 0.0
H511 H 0.98647 0.04018 0.3363 0.0
C512 C 0.99899 0.55912 0.58206 0.0
C513 C 0.98017 0.56495 0.5527 0.0
C514 C 0.00826 0.53609 0.58304 0.0
C515 C 0.99873 0.51853 0.55353 0.0
C516 C 0.98016 0.52452 0.523 0.0
C517 C 0.97106 0.54751 0.52316 0.0
C518 C 0.02799 0.53043 0.61627 0.0
C519 C 0.96974 0.50656 0.49032 0.0
C520 C 0.03648 0.46502 0.52531 0.0
C521 C 0.02693 0.44758 0.55438 0.0
C522 C 0.0274 0.48801 0.5245 0.0
C523 C 0.00837 0.494 0.55388 0.0
C524 C 0.9984 0.47644 0.58292 0.0
C525 C 0.00768 0.45341 0.58261 0.0
C526 C 0.03831 0.50597 0.49238 0.0
C527 C 0.97817 0.48211 0.61494 0.0
H528 H 0.00601 0.57236 0.60528 0.0
H529 H 0.95659 0.5518 0.50016 0.0
H530 H 0.02241 0.51622 0.64033 0.0
H531 H 0.04349 0.52382 0.59686 0.0
H532 H 0.03343 0.54596 0.63704 0.0
H533 H 0.95568 0.51413 0.46807 0.0
H534 H 0.98369 0.49922 0.46762 0.0
H535 H 0.96223 0.49168 0.51041 0.0
H536 H 0.05129 0.46072 0.50316 0.0
H537 H 1.00031 0.44017 0.60546 0.0
H538 H 0.04551 0.52085 0.51283 0.0
H539 H 0.02472 0.5133 0.46881 0.0
H540 H 0.05271 0.4984 0.47102 0.0
H541 H 0.98338 0.49633 0.63922 0.0
H542 H 0.97243 0.46659 0.63547 0.0
H543 H 0.96297 0.4887 0.59457 0.0
C544 C 0.4457 0.50916 0.83175 0.0
C545 C 0.43797 0.49444 0.79582 0.0
C546 C 0.46876 0.51828 0.83189 0.0
C547 C 0.4843 0.51285 0.79488 0.0
C548 C 0.4761 0.49907 0.75734 0.0
C549 C 0.45317 0.48992 0.75845 0.0
C550 C 0.47685 0.53281 0.87269 0.0
C551 C 0.49185 0.49322 0.71674 0.0
C552 C 0.53968 0.54979 0.77873 0.0
C553 C 0.55711 0.53531 0.7983 0.0
C554 C 0.516 0.54269 0.77718 0.0
C555 C 0.50941 0.52068 0.79618 0.0
C556 C 0.52693 0.50588 0.81568 0.0
C557 C 0.55056 0.51329 0.81621 0.0
C558 C 0.49801 0.5588 0.7553 0.0
C559 C 0.52065 0.48232 0.83656 0.0
H560 H 0.43417 0.51253 0.86095 0.0
H561 H 0.4473 0.47864 0.73042 0.0
H562 H 0.49096 0.52327 0.89153 0.0
H563 H 0.4844 0.54973 0.86057 0.0
H564 H 0.46232 0.53659 0.89737 0.0
H565 H 0.48226 0.48388 0.68867 0.0
H566 H 0.49967 0.50952 0.70217 0.0
H567 H 0.50657 0.48189 0.72859 0.0
H568 H 0.54453 0.56681 0.76465 0.0
H569 H 0.56383 0.50206 0.83173 0.0
H570 H 0.48443 0.56366 0.78123 0.0
H571 H 0.48889 0.54957 0.72656 0.0
H572 H 0.50602 0.5752 0.74141 0.0
H573 H 0.50752 0.48474 0.86465 0.0
H574 H 0.53622 0.47307 0.85105 0.0
H575 H 0.51246 0.47092 0.80984 0.0
C576 C 0.50986 0.94799 0.08907 0.0
C577 C 0.52808 0.94225 0.05821 0.0
C578 C 0.50012 0.97083 0.08995 0.0
C579 C 0.50858 0.98829 0.05887 0.0
C580 C 0.52654 0.98239 0.02694 0.0
C581 C 0.5361 0.95959 0.02716 0.0
C582 C 0.48106 0.97642 0.12467 0.0
C583 C 0.53583 1.00024 0.99265 0.0
C584 C 0.46962 0.0409 0.03007 0.0
C585 C 0.47963 0.05896 0.05694 0.0
C586 C 0.47879 0.01793 0.03056 0.0
C587 C 0.49842 0.01262 0.05891 0.0
C588 C 0.50873 0.03075 0.08598 0.0
C589 C 0.49931 0.05371 0.08449 0.0
C590 C 0.46745 0.99933 1.00059 0.0
C591 C 0.52961 0.02581 0.11683 0.0
H592 H 0.50368 0.93483 0.11344 0.0
H593 H 0.55009 0.95538 1.00298 0.0
H594 H 0.48689 0.99096 0.14764 0.0
H595 H 0.465 0.98254 0.1064 0.0
H596 H 0.47642 0.96098 0.1465 0.0
H597 H 0.54961 0.99277 0.96962 0.0
H598 H 0.52125 0.00699 0.97078 0.0
H599 H 0.54338 0.0155 0.01144 0.0
H600 H 0.45447 0.04469 0.0085 0.0
H601 H 0.50706 0.06743 0.10566 0.0
H602 H 0.46125 0.9845 0.02248 0.0
H603 H 0.48055 0.99209 0.97588 0.0
H604 H 0.45227 0.00628 0.98051 0.0
H605 H 0.52519 0.01165 0.14192 0.0
H606 H 0.53531 0.04163 0.13645 0.0
H607 H 0.54461 0.01946 0.09565 0.0
C608 C 0.0514 0.50623 0.02319 0.0
C609 C 0.0591 0.48678 0.04904 0.0
C610 C 0.02761 0.51314 0.02363 0.0
C611 C 0.01119 0.50059 0.05129 0.0
C612 C 0.01909 0.48156 0.07892 0.0
C613 C 0.04285 0.47476 0.07712 0.0
C614 C 0.01988 0.53341 0.99332 0.0
C615 C 1.00237 0.46806 0.10975 0.0
C616 C 0.95367 0.53203 0.07847 0.0
C617 C 0.93814 0.52191 0.04629 0.0
C618 C 0.97725 0.52475 0.08147 0.0
C619 C 0.98573 0.50722 0.05089 0.0
C620 C 0.96997 0.49645 0.01918 0.0
C621 C 0.94629 0.50376 0.01758 0.0
C622 C 0.99323 0.53629 0.11657 0.0
C623 C 0.97834 0.47785 0.98566 0.0
H624 H 0.06378 0.51544 1.00105 0.0
H625 H 0.04866 0.45975 0.09736 0.0
H626 H 0.00669 0.52717 0.96775 0.0
H627 H 0.01128 0.54716 0.01471 0.0
H628 H 0.0348 0.54151 0.97424 0.0
H629 H 0.01154 0.45461 0.13111 0.0
H630 H 0.99295 0.48033 0.13324 0.0
H631 H 0.9889 0.45911 0.08823 0.0
H632 H 0.94747 0.54603 0.10092 0.0
H633 H 0.93447 0.49606 0.99229 0.0
H634 H 0.00711 0.54646 0.09839 0.0
H635 H 1.00218 0.52272 0.13792 0.0
H636 H 0.98354 0.5484 0.14003 0.0
H637 H 0.99194 0.4854 0.96238 0.0
H638 H 0.9638 0.47074 0.96404 0.0
H639 H 0.98663 0.46308 1.00481 0.0
C640 C 0.5138 0.44929 0.24491 0.0
C641 C 0.49719 0.44229 0.27815 0.0
C642 C 0.52342 0.47218 0.24548 0.0
C643 C 0.51653 0.48831 0.28053 0.0
C644 C 0.50052 0.48093 0.31524 0.0
C645 C 0.49096 0.45816 0.31343 0.0
C646 C 0.54031 0.47938 0.20766 0.0
C647 C 0.49303 0.49729 0.35378 0.0
C648 C 0.55493 0.54183 0.30536 0.0
C649 C 0.54252 0.56005 0.28318 0.0
C650 C 0.54674 0.51849 0.30467 0.0
C651 C 0.5257 0.51301 0.28073 0.0
C652 C 0.51305 0.53129 0.25826 0.0
C653 C 0.52151 0.55459 0.26001 0.0
C654 C 0.56057 0.49969 0.32978 0.0
C655 C 0.49062 0.52619 0.2321 0.0
H656 H 0.51852 0.43725 0.21728 0.0
H657 H 0.47821 0.45288 0.33941 0.0
H658 H 0.5326 0.49401 0.18714 0.0
H659 H 0.55693 0.48599 0.22305 0.0
H660 H 0.5445 0.46462 0.1838 0.0
H661 H 0.48141 0.48848 0.37946 0.0
H662 H 0.50871 0.50423 0.37218 0.0
H663 H 0.48349 0.5126 0.33901 0.0
H664 H 0.57115 0.5458 0.32354 0.0
H665 H 0.51188 0.56846 0.24248 0.0
H666 H 0.5659 0.48569 0.30512 0.0
H667 H 0.54938 0.49129 0.35667 0.0
H668 H 0.5766 0.5068 0.34675 0.0
H669 H 0.49396 0.51278 0.20493 0.0
H670 H 0.4832 0.54218 0.21539 0.0
H671 H 0.47726 0.5188 0.25608 0.0
C672 C 0.46024 0.03263 0.56718 0.0
C673 C 0.44405 0.02181 0.53718 0.0
C674 C 0.48386 0.02541 0.56897 0.0
C675 C 0.49172 0.0071 0.53951 0.0
C676 C 0.47535 0.9957 0.50991 0.0
C677 C 0.45167 1.00306 0.50937 0.0
C678 C 0.50053 0.03771 0.60176 0.0
C679 C 0.48303 0.97622 0.47772 0.0
C680 C 0.55708 1.00426 0.5091 0.0
C681 C 0.5648 0.98552 0.53693 0.0
C682 C 0.53338 0.01153 0.5097 0.0
C683 C 0.51708 1.00007 0.5394 0.0
C684 C 0.52502 0.98176 0.56883 0.0
C685 C 0.54867 0.97461 0.56698 0.0
C686 C 0.52561 0.03103 0.47754 0.0
C687 C 0.50843 0.96939 0.60172 0.0
H688 H 0.4545 0.04709 0.58896 0.0
H689 H 0.43937 0.99477 0.48577 0.0
H690 H 0.50944 0.02464 0.62436 0.0
H691 H 0.5144 0.04693 0.58169 0.0
H692 H 0.49141 0.05077 0.62408 0.0
H693 H 0.46814 0.96888 0.45742 0.0
H694 H 0.49648 0.98299 0.4532 0.0
H695 H 0.4913 0.96177 0.49784 0.0
H696 H 0.56934 0.01262 0.48546 0.0
H697 H 0.55448 0.96017 0.58877 0.0
H698 H 0.51741 0.04548 0.49772 0.0
H699 H 0.51207 0.02428 0.45321 0.0
H700 H 0.54044 0.03837 0.45702 0.0
H701 H 0.49957 0.98241 0.62446 0.0
H702 H 0.51759 0.95627 0.6239 0.0
H703 H 0.4945 0.96022 0.58175 0.0
C704 C 0.03927 0.04951 0.82263 0.0
C705 C 0.03087 0.06642 0.79117 0.0
C706 C 0.03023 0.02649 0.8232 0.0
C707 C 0.01273 0.01995 0.79073 0.0
C708 C 1.00388 0.03705 0.75934 0.0
C709 C 0.01286 0.06016 0.76032 0.0
C710 C 0.03971 0.00905 0.85809 0.0
C711 C 0.9855 0.03073 0.72367 0.0
C712 C 0.00752 0.95486 0.75973 0.0
C713 C 0.98706 0.94828 0.78364 0.0
C714 C 0.01601 0.97812 0.76161 0.0
C715 C 1.00409 0.9951 0.78894 0.0
C716 C 0.98388 0.98832 0.81437 0.0
C717 C 0.97546 0.96511 0.81097 0.0
C718 C 0.0374 0.98467 0.73337 0.0
C719 C 0.971 0.00564 0.8449 0.0
H720 H 0.05311 0.05426 0.84676 0.0
H721 H 0.00646 0.07306 0.73562 0.0
H722 H 0.02503 1.00101 0.87791 0.0
H723 H 0.04898 0.9946 0.83982 0.0
H724 H 0.05214 0.01731 0.88295 0.0
H725 H 0.98022 0.04609 0.70217 0.0
H726 H 0.99242 0.01679 0.70043 0.0
H727 H 0.96963 0.02354 0.74098 0.0
H728 H 0.01643 0.94203 0.73816 0.0
H729 H 0.95969 0.96014 0.82972 0.0
H730 H 0.0514 0.99162 0.7564 0.0
H731 H 0.03282 0.99887 0.70848 0.0
H732 H 0.04459 0.96949 0.71367 0.0
H733 H 0.98335 0.01357 0.87026 0.0
H734 H 0.95627 0.99732 0.86419 0.0
H735 H 0.96382 0.0202 0.82347 0.0
C736 C 0.12801 0.12244 0.65486 0.0
C737 C 0.10768 0.1359 0.66198 0.0
C738 C 0.13626 0.11812 0.6096 0.0
C739 C 0.12368 0.1273 0.57112 0.0
C740 C 0.10504 0.14333 0.57872 0.0
C741 C 0.09736 0.14751 0.62409 0.0
C742 C 0.15677 0.10164 0.60289 0.0
C743 C 0.09115 0.15368 0.53896 0.0
C744 C 0.13978 0.11491 0.44482 0.0
C745 C 0.1265 0.09455 0.43651 0.0
C746 C 0.13976 0.12557 0.48899 0.0
C747 C 0.12572 0.11585 0.52489 0.0
C748 C 0.11209 0.09547 0.51613 0.0
C749 C 0.11288 0.085 0.47234 0.0
C750 C 0.15504 0.14684 0.49748 0.0
C751 C 0.09634 0.08479 0.55285 0.0
H752 H 0.13628 0.11368 0.68405 0.0
H753 H 0.08197 0.15846 0.62954 0.0
H754 H 0.15009 0.08375 0.59491 0.0
H755 H 0.16788 0.1074 0.57333 0.0
H756 H 0.16783 0.10052 0.6346 0.0
H757 H 0.08028 0.1689 0.55018 0.0
H758 H 0.10292 0.15945 0.51049 0.0
H759 H 0.07921 0.14 0.52474 0.0
H760 H 0.1506 0.12209 0.41725 0.0
H761 H 0.10249 0.06932 0.46591 0.0
H762 H 0.16916 0.14217 0.52242 0.0
H763 H 0.14465 0.16127 0.51333 0.0
H764 H 0.16332 0.15343 0.46506 0.0
H765 H 0.10695 0.07943 0.58337 0.0
H766 H 0.08663 0.06912 0.54002 0.0
H767 H 0.08331 0.09801 0.56483 0.0
C768 C 0.88027 0.61929 0.68317 0.0
C769 C 0.89931 0.63435 0.67491 0.0
C770 C 0.87182 0.6159 0.72856 0.0
C771 C 0.88285 0.62775 0.76598 0.0
C772 C 0.89983 0.6453 0.75672 0.0
C773 C 0.90784 0.64841 0.71122 0.0
C774 C 0.85306 0.59763 0.73697 0.0
C775 C 0.91184 0.65862 0.79535 0.0
C776 C 0.86484 0.61621 0.8916 0.0
C777 C 0.87965 0.59729 0.90254 0.0
C778 C 0.86541 0.62645 0.84704 0.0
C779 C 0.88143 0.61769 0.81352 0.0
C780 C 0.89693 0.5991 0.82539 0.0
C781 C 0.89564 0.58902 0.8695 0.0
C782 C 0.84832 0.64588 0.8354 0.0
C783 C 0.91478 0.58957 0.7913 0.0
H784 H 0.87338 0.60863 0.65511 0.0
H785 H 0.92218 0.66057 0.70473 0.0
H786 H 0.86145 0.58101 0.7487 0.0
H787 H 0.84079 0.60344 0.76462 0.0
H788 H 0.84285 0.59387 0.70495 0.0
H789 H 0.9209 0.67464 0.78228 0.0
H790 H 0.89906 0.66386 0.82251 0.0
H791 H 0.92517 0.64705 0.81187 0.0
H792 H 0.85222 0.6223 0.91709 0.0
H793 H 0.90712 0.57441 0.87818 0.0
H794 H 0.83429 0.63877 0.81261 0.0
H795 H 0.85715 0.66029 0.81611 0.0
H796 H 0.83992 0.65331 0.86696 0.0
H797 H 0.90565 0.58212 0.76064 0.0
H798 H 0.92601 0.5756 0.80672 0.0
H799 H 0.92636 0.60397 0.77885 0.0
C800 C 0.40386 0.40477 0.13406 0.0
C801 C 0.41087 0.38291 0.15142 0.0
C802 C 0.39575 0.40693 0.08831 0.0
C803 C 0.39395 0.38656 0.06008 0.0
C804 C 0.39889 0.36415 0.07919 0.0
C805 C 0.4079 0.36265 0.12443 0.0
C806 C 0.39112 0.43124 0.06906 0.0
C807 C 0.39613 0.34195 0.05104 0.0
C808 C 0.3637 0.40062 0.94656 0.0
C809 C 0.38311 0.40489 0.91785 0.0
C810 C 0.36681 0.39224 0.99196 0.0
C811 C 0.38989 0.38931 0.00943 0.0
C812 C 0.40945 0.39221 0.97941 0.0
C813 C 0.40575 0.39962 0.93357 0.0
C814 C 0.34548 0.38819 0.02211 0.0
C815 C 0.4344 0.38976 0.99683 0.0
H816 H 0.40659 0.4204 0.15494 0.0
H817 H 0.41351 0.34576 0.13807 0.0
H818 H 0.40413 0.43524 0.04142 0.0
H819 H 0.3734 0.43207 0.05311 0.0
H820 H 0.39234 0.4451 0.09612 0.0
H821 H 0.39558 0.32606 0.07351 0.0
H822 H 0.37984 0.3426 0.02984 0.0
H823 H 0.41123 0.34013 0.02693 0.0
H824 H 0.34619 0.40492 0.93423 0.0
H825 H 0.42071 0.40339 0.9114 0.0
H826 H 0.34291 0.40353 0.04534 0.0
H827 H 0.34788 0.37239 0.04429 0.0
H828 H 0.32928 0.38596 1.001 0.0
H829 H 0.43803 0.40372 0.0228 0.0
H830 H 0.44753 0.39127 0.96844 0.0
H831 H 0.43686 0.37257 0.01436 0.0
C832 C 0.60942 0.91369 0.37035 0.0
C833 C 0.62731 0.90884 0.40217 0.0
C834 C 0.6096 0.90374 0.32609 0.0
C835 C 0.62847 0.88885 0.31294 0.0
C836 C 0.64622 0.88315 0.34562 0.0
C837 C 0.64537 0.8932 0.39026 0.0
C838 C 0.58992 0.9099 0.29289 0.0
C839 C 0.6667 0.86757 0.33289 0.0
C840 C 0.60804 0.85738 0.20678 0.0
C841 C 0.61365 0.87413 0.17276 0.0
C842 C 0.61579 0.86005 0.25257 0.0
C843 C 0.62921 0.8801 0.26441 0.0
C844 C 0.6378 0.89506 0.22881 0.0
C845 C 0.62987 0.8919 0.18305 0.0
C846 C 0.60682 0.84326 0.28912 0.0
C847 C 0.65279 0.91622 0.23994 0.0
H848 H 0.59552 0.92586 0.37983 0.0
H849 H 0.65942 0.88985 0.41484 0.0
H850 H 0.59711 0.91962 0.26264 0.0
H851 H 0.5815 0.89363 0.27963 0.0
H852 H 0.57614 0.92096 0.30938 0.0
H853 H 0.67567 0.8605 0.36419 0.0
H854 H 0.66102 0.85265 0.31078 0.0
H855 H 0.67968 0.878 0.31278 0.0
H856 H 0.59588 0.84328 0.19852 0.0
H857 H 0.63442 0.90474 0.15667 0.0
H858 H 0.59131 0.85117 0.30655 0.0
H859 H 0.62039 0.83993 0.31599 0.0
H860 H 0.60136 0.82618 0.27375 0.0
H861 H 0.64145 0.93042 0.25402 0.0
H862 H 0.6619 0.92306 0.20861 0.0
H863 H 0.66611 0.91182 0.26672 0.0
C864 C 0.12669 0.39304 0.68637 0.0
C865 C 0.10743 0.37824 0.67827 0.0
C866 C 0.13496 0.39662 0.7318 0.0
C867 C 0.12348 0.38529 0.76936 0.0
C868 C 0.10639 0.36782 0.76032 0.0
C869 C 0.09861 0.36447 0.71478 0.0
C870 C 0.15398 0.41463 0.74004 0.0
C871 C 0.0939 0.35503 0.79911 0.0
C872 C 0.13887 0.39762 0.89589 0.0
C873 C 0.12387 0.41662 0.90509 0.0
C874 C 0.13944 0.38729 0.85148 0.0
C875 C 0.12431 0.39599 0.81631 0.0
C876 C 0.10877 0.41483 0.82618 0.0
C877 C 0.10896 0.42503 0.87021 0.0
C878 C 0.15668 0.3677 0.84189 0.0
C879 C 0.09183 0.42433 0.79026 0.0
H880 H 0.13384 0.40343 0.65812 0.0
H881 H 0.08414 0.35245 0.70838 0.0
H882 H 0.14578 0.43158 0.75025 0.0
H883 H 0.16577 0.40901 0.76865 0.0
H884 H 0.16465 0.41768 0.7083 0.0
H885 H 0.08471 0.33902 0.78641 0.0
H886 H 0.10639 0.34985 0.82686 0.0
H887 H 0.08061 0.36693 0.81477 0.0
H888 H 0.15067 0.39141 0.9228 0.0
H889 H 0.09729 0.43968 0.8775 0.0
H890 H 0.17127 0.37464 0.82027 0.0
H891 H 0.14825 0.35324 0.82214 0.0
H892 H 0.16427 0.36039 0.87437 0.0
H893 H 0.10172 0.43135 0.7601 0.0
H894 H 0.0805 0.43861 0.80416 0.0
H895 H 0.08029 0.40999 0.77742 0.0
C896 C 0.60404 0.6523 0.12823 0.0
C897 C 0.61448 0.63946 0.16436 0.0
C898 C 0.61161 0.64957 0.08238 0.0
C899 C 0.63005 0.6336 0.0727 0.0
C900 C 0.64307 0.62366 0.10982 0.0
C901 C 0.63502 0.62661 0.15559 0.0
C902 C 0.59751 0.66098 0.04408 0.0
C903 C 0.66352 0.60739 0.10087 0.0
C904 C 0.61572 0.59157 0.97549 0.0
C905 C 0.62876 0.60065 0.93837 0.0
C906 C 0.61629 0.60213 0.01915 0.0
C907 C 0.63063 0.62218 0.02636 0.0
C908 C 0.644 0.63149 0.98909 0.0
C909 C 0.64276 0.62066 0.94517 0.0
C910 C 0.60124 0.59182 0.05743 0.0
C911 C 0.65999 0.6524 0.99578 0.0
H912 H 0.58851 0.66282 0.1352 0.0
H913 H 0.6434 0.61699 0.18358 0.0
H914 H 0.60907 0.66685 0.01533 0.0
H915 H 0.58492 0.64793 0.02977 0.0
H916 H 0.58732 0.67633 0.05695 0.0
H917 H 0.67503 0.60579 0.13188 0.0
H918 H 0.65677 0.58961 0.09213 0.0
H919 H 0.67417 0.6137 0.07109 0.0
H920 H 0.60474 0.57619 0.97027 0.0
H921 H 0.65311 0.62749 0.91657 0.0
H922 H 0.58885 0.60533 0.07068 0.0
H923 H 0.61249 0.58616 0.08684 0.0
H924 H 0.59084 0.5764 0.04564 0.0
H925 H 0.65121 0.66637 0.0163 0.0
H926 H 0.66585 0.65996 0.96214 0.0
H927 H 0.6758 0.64676 0.01547 0.0
C928 C 0.36641 0.11575 0.38976 0.0
C929 C 0.38279 0.0982 0.40085 0.0
C930 C 0.36619 0.12597 0.34519 0.0
C931 C 0.3829 0.1185 0.31177 0.0
C932 C 0.40012 0.10155 0.32401 0.0
C933 C 0.39967 0.09151 0.36819 0.0
C934 C 0.34743 0.14377 0.33339 0.0
C935 C 0.4187 0.09343 0.29003 0.0
C936 C 0.38073 0.11649 0.18196 0.0
C937 C 0.39881 0.13239 0.17179 0.0
C938 C 0.37256 0.11399 0.22773 0.0
C939 C 0.38285 0.12769 0.26349 0.0
C940 C 0.39839 0.14618 0.25185 0.0
C941 C 0.40629 0.14825 0.20603 0.0
C942 C 0.35529 0.09462 0.23865 0.0
C943 C 0.40925 0.16165 0.28859 0.0
H944 H 0.35314 0.12061 0.41501 0.0
H945 H 0.41233 0.07794 0.37707 0.0
H946 H 0.35448 0.15804 0.3111 0.0
H947 H 0.33317 0.13489 0.3138 0.0
H948 H 0.33963 0.15168 0.3651 0.0
H949 H 0.43127 0.08077 0.30582 0.0
H950 H 0.41022 0.08479 0.25984 0.0
H951 H 0.42881 0.10873 0.27681 0.0
H952 H 0.37467 0.10442 0.15541 0.0
H953 H 0.41986 0.16102 0.19789 0.0
H954 H 0.34268 0.10031 0.2658 0.0
H955 H 0.36498 0.07909 0.25214 0.0
H956 H 0.34531 0.08912 0.20733 0.0
H957 H 0.39621 0.1663 0.31569 0.0
H958 H 0.41653 0.17811 0.27348 0.0
H959 H 0.42384 0.15196 0.30568 0.0
C960 C 0.92586 0.89758 0.60241 0.0
C961 C 0.9171 0.88319 0.63787 0.0
C962 C 0.91542 0.89798 0.55855 0.0
C963 C 0.89593 0.88317 0.54935 0.0
C964 C 0.88697 0.86844 0.58495 0.0
C965 C 0.89755 0.86881 0.62919 0.0
C966 C 0.92523 0.91449 0.52217 0.0
C967 C 0.86667 0.85196 0.57602 0.0
C968 C 0.86333 0.90971 0.4493 0.0
C969 C 0.8758 0.90012 0.41178 0.0
C970 C 0.8676 0.90221 0.49478 0.0
C971 C 0.88465 0.88454 0.50285 0.0
C972 C 0.8948 0.87254 0.46465 0.0
C973 C 0.89033 0.88057 0.41927 0.0
C974 C 0.85616 0.91541 0.53425 0.0
C975 C 0.91242 0.85303 0.47184 0.0
H976 H 0.94091 0.9088 0.60918 0.0
H977 H 0.89101 0.85741 0.65648 0.0
H978 H 0.9314 0.90431 0.49169 0.0
H979 H 0.91128 0.92669 0.51001 0.0
H980 H 0.94019 0.92514 0.53539 0.0
H981 H 0.86018 0.84358 0.60843 0.0
H982 H 0.85188 0.86139 0.55915 0.0
H983 H 0.87241 0.8379 0.55184 0.0
H984 H 0.85159 0.92448 0.44352 0.0
H985 H 0.89979 0.87288 0.39035 0.0
H986 H 0.86895 0.92818 0.5488 0.0
H987 H 0.85096 0.90326 0.56258 0.0
H988 H 0.84035 0.9253 0.52259 0.0
H989 H 0.92979 0.86077 0.48053 0.0
H990 H 0.91449 0.84212 0.44013 0.0
H991 H 0.90708 0.84152 0.50113 0.0
C992 C 0.08896 0.12594 0.96317 0.0
C993 C 0.10676 0.12557 0.92957 0.0
C994 C 0.09406 0.12176 0.01022 0.0
C995 C 0.11769 0.11808 0.02431 0.0
C996 C 0.13589 0.1192 0.99076 0.0
C997 C 0.13015 0.12234 0.94362 0.0
C998 C 0.07399 0.11992 0.04437 0.0
C999 C 0.16137 0.11646 1.00444 0.0
C1000 C 0.12722 0.12241 0.15505 0.0
C1001 C 0.1281 0.09862 0.16793 0.0
C1002 C 0.12531 0.12906 0.10811 0.0
C1003 C 0.12301 0.1115 0.0735 0.0
C1004 C 0.1243 0.08744 0.08644 0.0
C1005 C 0.12732 0.08133 0.13337 0.0
C1006 C 0.12512 0.15488 0.09573 0.0
C1007 C 0.12111 0.06809 0.0511 0.0
H1008 H 0.07082 0.12806 0.95227 0.0
H1009 H 0.14394 0.12204 0.91765 0.0
H1010 H 0.07365 0.10199 0.0597 0.0
H1011 H 0.07652 0.13253 0.07325 0.0
H1012 H 0.05666 0.12344 0.02796 0.0
H1013 H 0.17348 0.12107 0.97558 0.0
H1014 H 0.16547 0.12778 0.03475 0.0
H1015 H 0.16482 0.09798 0.01484 0.0
H1016 H 0.12781 0.13581 0.18177 0.0
H1017 H 0.12761 0.06292 0.14335 0.0
H1018 H 0.10721 0.16017 0.08463 0.0
H1019 H 0.13719 0.15833 0.06623 0.0
H1020 H 0.13041 0.16612 0.12547 0.0
H1021 H 0.10347 0.06963 0.03486 0.0
H1022 H 0.12277 0.05028 0.0667 0.0
H1023 H 0.13432 0.06982 0.02302 0.0
C1024 C 0.89613 0.63908 0.38472 0.0
C1025 C 0.89886 0.61865 0.41151 0.0
C1026 C 0.89016 0.63768 0.33734 0.0
C1027 C 0.8879 0.61532 0.31592 0.0
C1028 C 0.89041 0.59469 0.34313 0.0
C1029 C 0.8954 0.59664 0.39067 0.0
C1030 C 0.88672 0.66009 0.31002 0.0
C1031 C 0.88904 0.57049 0.32162 0.0
C1032 C 0.86066 0.60386 0.19707 0.0
C1033 C 0.88068 0.60325 0.1687 0.0
C1034 C 0.86251 0.60933 0.24464 0.0
C1035 C 0.88499 0.61323 0.26455 0.0
C1036 C 0.90516 0.61305 0.2357 0.0
C1037 C 0.90269 0.6085 0.18811 0.0
C1038 C 0.84049 0.61028 0.2738 0.0
C1039 C 0.92957 0.61627 0.25549 0.0
H1040 H 0.89866 0.65613 0.40082 0.0
H1041 H 0.89772 0.58079 0.41115 0.0
H1042 H 0.90151 0.66245 0.28536 0.0
H1043 H 0.8703 0.6591 0.28927 0.0
H1044 H 0.88586 0.67581 0.33283 0.0
H1045 H 0.89113 0.55622 0.34768 0.0
H1046 H 0.87192 0.56811 0.30383 0.0
H1047 H 0.90303 0.56857 0.29503 0.0
H1048 H 0.84361 0.59991 0.18218 0.0
H1049 H 0.91828 0.60779 0.16647 0.0
H1050 H 0.84056 0.62621 0.29604 0.0
H1051 H 0.83982 0.59475 0.2971 0.0
H1052 H 0.82431 0.61039 0.25217 0.0
H1053 H 0.93071 0.6331 0.27477 0.0
H1054 H 0.94337 0.61618 0.22821 0.0
H1055 H 0.93339 0.60189 0.2805 0.0
C1056 C 0.41375 0.40466 0.63596 0.0
C1057 C 0.39147 0.40827 0.65562 0.0
C1058 C 0.41636 0.39977 0.58855 0.0
C1059 C 0.39615 0.3977 0.56014 0.0
C1060 C 0.37351 0.40001 0.58029 0.0
C1061 C 0.37143 0.40571 0.62769 0.0
C1062 C 0.44086 0.39811 0.56845 0.0
C1063 C 0.35152 0.39715 0.55153 0.0
C1064 C 0.4057 0.41394 0.43377 0.0
C1065 C 0.41078 0.39204 0.41368 0.0
C1066 C 0.40021 0.4159 0.48106 0.0
C1067 C 0.39903 0.39537 0.50885 0.0
C1068 C 0.40281 0.37304 0.48819 0.0
C1069 C 0.40907 0.37167 0.44097 0.0
C1070 C 0.39699 0.44011 0.50175 0.0
C1071 C 0.40094 0.35069 0.51626 0.0
H1072 H 0.42933 0.40678 0.65723 0.0
H1073 H 0.35417 0.40833 0.64278 0.0
H1074 H 0.44313 0.38123 0.54974 0.0
H1075 H 0.44355 0.41249 0.54289 0.0
H1076 H 0.45473 0.39943 0.59548 0.0
H1077 H 0.33545 0.39615 0.57339 0.0
H1078 H 0.34969 0.4123 0.52751 0.0
H1079 H 0.35267 0.381 0.53003 0.0
H1080 H 0.40715 0.42979 0.41298 0.0
H1081 H 0.41283 0.35469 0.42553 0.0
H1082 H 0.411 0.44344 0.52776 0.0
H1083 H 0.37988 0.44125 0.52006 0.0
H1084 H 0.39769 0.45425 0.47512 0.0
H1085 H 0.41596 0.3495 0.5407 0.0
H1086 H 0.40102 0.33476 0.49394 0.0
H1087 H 0.38458 0.35077 0.53728 0.0
C1088 C 0.64487 0.90802 0.69561 0.0
C1089 C 0.62472 0.90796 0.66758 0.0
C1090 C 0.6434 0.9026 0.74326 0.0
C1091 C 0.62114 0.89802 0.7636 0.0
C1092 C 0.60083 0.89762 0.73514 0.0
C1093 C 0.60295 0.90216 0.68746 0.0
C1094 C 0.66558 0.90231 0.77202 0.0
C1095 C 0.57664 0.89367 0.75542 0.0
C1096 C 0.61172 0.87136 0.88377 0.0
C1097 C 0.60859 0.89158 0.91089 0.0
C1098 C 0.61722 0.87314 0.83621 0.0
C1099 C 0.61858 0.89565 0.815 0.0
C1100 C 0.61561 0.91608 0.84251 0.0
C1101 C 0.6111 0.91378 0.89018 0.0
C1102 C 0.62115 0.85097 0.80851 0.0
C1103 C 0.61603 0.94039 0.82125 0.0
H1104 H 0.66174 0.91239 0.68033 0.0
H1105 H 0.58726 0.90234 0.66606 0.0
H1106 H 0.66575 0.91768 0.7957 0.0
H1107 H 0.66621 0.88623 0.79389 0.0
H1108 H 0.68166 0.90297 0.75015 0.0
H1109 H 0.56268 0.89348 0.72843 0.0
H1110 H 0.57606 0.87675 0.77455 0.0
H1111 H 0.57256 0.90785 0.78065 0.0
H1112 H 0.60993 0.85417 0.89975 0.0
H1113 H 0.60845 0.92947 0.91094 0.0
H1114 H 0.63746 0.8525 0.78756 0.0
H1115 H 0.60634 0.84834 0.784 0.0
H1116 H 0.62251 0.83515 0.83106 0.0
H1117 H 0.63294 0.9434 0.80301 0.0
H1118 H 0.61366 0.95449 0.84753 0.0
H1119 H 0.6018 0.94196 0.79506 0.0
C1120 C 0.10984 0.41554 0.39335 0.0
C1121 C 0.10739 0.39349 0.41465 0.0
C1122 C 0.11428 0.41751 0.34563 0.0
C1123 C 0.11733 0.39688 0.31871 0.0
C1124 C 0.11618 0.37453 0.34058 0.0
C1125 C 0.11065 0.37308 0.38817 0.0
C1126 C 0.11445 0.44167 0.32365 0.0
C1127 C 0.12029 0.35218 0.31355 0.0
C1128 C 0.10078 0.40278 0.19163 0.0
C1129 C 0.12229 0.40908 0.17128 0.0
C1130 C 0.09908 0.39815 0.23932 0.0
C1131 C 0.11957 0.39891 0.26723 0.0
C1132 C 0.14162 0.40382 0.24631 0.0
C1133 C 0.14265 0.4094 0.1987 0.0
C1134 C 0.07507 0.39388 0.26024 0.0
C1135 C 0.164 0.40384 0.27444 0.0
H1136 H 0.10708 0.43136 0.41366 0.0
H1137 H 0.10891 0.35601 0.40465 0.0
H1138 H 0.1313 0.4447 0.30524 0.0
H1139 H 0.10016 0.4429 0.29751 0.0
H1140 H 0.11198 0.45594 0.34952 0.0
H1141 H 0.1222 0.33663 0.33665 0.0
H1142 H 0.10529 0.349 0.28978 0.0
H1143 H 0.13635 0.35383 0.29189 0.0
H1144 H 0.08494 0.40277 0.17067 0.0
H1145 H 0.15931 0.41416 0.18301 0.0
H1146 H 0.07091 0.4081 0.28529 0.0
H1147 H 0.07489 0.37704 0.27969 0.0
H1148 H 0.06097 0.39331 0.23359 0.0
H1149 H 0.16437 0.41951 0.29732 0.0
H1150 H 0.17991 0.40422 0.25204 0.0
H1151 H 0.1648 0.38803 0.29705 0.0
C1152 C 0.62804 0.62538 0.65562 0.0
C1153 C 0.62898 0.60182 0.67006 0.0
C1154 C 0.62653 0.63124 0.60826 0.0
C1155 C 0.62487 0.61308 0.57475 0.0
C1156 C 0.62635 0.58926 0.58921 0.0
C1157 C 0.62883 0.58395 0.63661 0.0
C1158 C 0.626 0.65684 0.59424 0.0
C1159 C 0.62396 0.56932 0.55493 0.0
C1160 C 0.59191 0.62508 0.46216 0.0
C1161 C 0.61016 0.62476 0.42952 0.0
C1162 C 0.5965 0.62169 0.50963 0.0
C1163 C 0.62002 0.6188 0.52503 0.0
C1164 C 0.63863 0.61991 0.4924 0.0
C1165 C 0.63344 0.62235 0.44491 0.0
C1166 C 0.57606 0.61993 0.54293 0.0
C1167 C 0.66397 0.61789 0.50749 0.0
H1168 H 0.62819 0.63924 0.68145 0.0
H1169 H 0.62922 0.56572 0.64773 0.0
H1170 H 0.63844 0.66006 0.56523 0.0
H1171 H 0.60816 0.66156 0.58178 0.0
H1172 H 0.63062 0.66867 0.62353 0.0
H1173 H 0.62591 0.55179 0.57163 0.0
H1174 H 0.60644 0.57018 0.53802 0.0
H1175 H 0.63738 0.57096 0.5272 0.0
H1176 H 0.57387 0.62662 0.45027 0.0
H1177 H 0.64759 0.62215 0.41969 0.0
H1178 H 0.57801 0.63297 0.57125 0.0
H1179 H 0.57585 0.6022 0.55917 0.0
H1180 H 0.55887 0.62291 0.52555 0.0
H1181 H 0.66749 0.62986 0.53709 0.0
H1182 H 0.67638 0.62215 0.4789 0.0
H1183 H 0.6676 0.59969 0.5195 0.0
C1184 C 0.36468 0.10055 0.69439 0.0
C1185 C 0.3849 0.09979 0.66663 0.0
C1186 C 0.36624 0.10571 0.74211 0.0
C1187 C 0.38864 0.10912 0.76277 0.0
C1188 C 0.40903 0.10867 0.73457 0.0
C1189 C 0.40685 0.10448 0.68681 0.0
C1190 C 0.34401 0.10697 0.7706 0.0
C1191 C 0.43333 0.11132 0.75518 0.0
C1192 C 0.39929 0.1346 0.88333 0.0
C1193 C 0.40139 0.1141 0.91009 0.0
C1194 C 0.39367 0.13337 0.83578 0.0
C1195 C 0.39116 0.11108 0.81421 0.0
C1196 C 0.39305 0.09037 0.84139 0.0
C1197 C 0.39767 0.09218 0.88908 0.0
C1198 C 0.39089 0.15586 0.80845 0.0
C1199 C 0.39138 0.06622 0.81973 0.0
H1200 H 0.34767 0.09704 0.67884 0.0
H1201 H 0.42258 0.10364 0.66558 0.0
H1202 H 0.34294 0.09146 0.79389 0.0
H1203 H 0.34415 0.12291 0.79284 0.0
H1204 H 0.328 0.10732 0.74849 0.0
H1205 H 0.44737 0.1109 0.72838 0.0
H1206 H 0.4347 0.12813 0.77448 0.0
H1207 H 0.4366 0.09687 0.78033 0.0
H1208 H 0.40201 0.15159 0.89958 0.0
H1209 H 0.39951 0.07627 0.90959 0.0
H1210 H 0.37461 0.15522 0.78722 0.0
H1211 H 0.40591 0.15796 0.78424 0.0
H1212 H 0.39016 0.17158 0.8313 0.0
H1213 H 0.37438 0.0642 0.80134 0.0
H1214 H 0.39297 0.05189 0.84579 0.0
H1215 H 0.40557 0.06405 0.7936 0.0
C1216 C 0.88583 0.91979 0.11103 0.0
C1217 C 0.88653 0.90201 0.14471 0.0
C1218 C 0.89006 0.91472 0.06401 0.0
C1219 C 0.89411 0.89113 0.05002 0.0
C1220 C 0.89334 0.87293 0.08367 0.0
C1221 C 0.89015 0.87866 0.13077 0.0
C1222 C 0.89154 0.9348 0.02975 0.0
C1223 C 0.89649 0.84747 0.07011 0.0
C1224 C 0.88973 0.88145 0.91937 0.0
C1225 C 0.91349 0.88096 0.90639 0.0
C1226 C 0.88312 0.88327 0.96632 0.0
C1227 C 0.9007 0.88587 1.00084 0.0
C1228 C 0.92474 0.88498 0.98781 0.0
C1229 C 0.93082 0.88203 0.94087 0.0
C1230 C 0.85734 0.88304 0.97881 0.0
C1231 C 0.94408 0.8885 0.02305 0.0
H1232 H 0.88341 0.9379 0.12185 0.0
H1233 H 0.89069 0.86488 0.15682 0.0
H1234 H 0.90942 0.93541 0.01434 0.0
H1235 H 0.87892 0.93206 1.00093 0.0
H1236 H 0.88777 0.9521 0.04608 0.0
H1237 H 0.89213 0.8353 0.09905 0.0
H1238 H 0.8852 0.84316 0.03987 0.0
H1239 H 0.91499 0.84432 0.05964 0.0
H1240 H 0.8763 0.88063 0.8927 0.0
H1241 H 0.9492 0.88205 0.93081 0.0
H1242 H 0.85178 0.90088 0.98985 0.0
H1243 H 0.85415 0.87092 0.00839 0.0
H1244 H 0.84615 0.87754 0.94915 0.0
H1245 H 0.94229 0.90614 0.03919 0.0
H1246 H 0.96189 0.88711 0.00739 0.0
H1247 H 0.94261 0.87529 0.05123 0.0
loop_
_geom_bond_atom_site_label_1
_geom_bond_atom_site_label_2
_geom_bond_distance
_geom_bond_site_symmetry_2
_ccdc_geom_bond_type
O0 Cd1 2.223 . S
O0 C8 1.315 . S
Cd1 O0 2.223 . S
Cd1 O4 2.297 . S
Cd1 O5 2.439 . S
Cd1 O11 2.240 . S
Cd2 O3 2.240 . S
Cd2 O10 2.223 . S
Cd2 O12 2.297 . S
Cd2 O13 2.439 . S
O3 Cd2 2.240 . S
O3 C8 1.279 . S
O4 Cd1 2.297 . S
O4 C6 1.247 . S
O5 Cd1 2.439 . S
O5 C6 1.208 . S
C6 O4 1.247 . S
C6 O5 1.208 . S
C7 O12 1.247 . S
C7 O13 1.208 . S
C8 O0 1.315 . S
C8 O3 1.279 . S
C9 O10 1.315 . S
C9 O11 1.279 . S
O10 Cd2 2.223 . S
O10 C9 1.315 . S
O11 Cd1 2.240 . S
O11 C9 1.279 . S
O12 Cd2 2.297 . S
O12 C7 1.247 . S
O13 Cd2 2.439 . S
O13 C7 1.208 . S
O14 Cd15 2.223 . S
O14 C22 1.315 . S
Cd15 O14 2.223 . S
Cd15 O18 2.297 . S
Cd15 O19 2.439 . S
Cd15 O25 2.240 . S
Cd16 O17 2.240 . S
Cd16 O24 2.223 . S
Cd16 O26 2.297 . S
Cd16 O27 2.439 . S
O17 Cd16 2.240 . S
O17 C22 1.279 . S
O18 Cd15 2.297 . S
O18 C20 1.247 . S
O19 Cd15 2.439 . S
O19 C20 1.208 . S
C20 O18 1.247 . S
C20 O19 1.208 . S
C21 O26 1.247 . S
C21 O27 1.208 . S
C22 O14 1.315 . S
C22 O17 1.279 . S
C23 O24 1.315 . S
C23 O25 1.279 . S
O24 Cd16 2.223 . S
O24 C23 1.315 . S
O25 Cd15 2.240 . S
O25 C23 1.279 . S
O26 Cd16 2.297 . S
O26 C21 1.247 . S
O27 Cd16 2.439 . S
O27 C21 1.208 . S
O28 Cd29 2.223 . S
O28 C36 1.315 . S
Cd29 O28 2.223 . S
Cd29 O32 2.297 . S
Cd29 O33 2.439 . S
Cd29 O39 2.240 . S
Cd30 O31 2.240 . S
Cd30 O38 2.223 . S
Cd30 O40 2.297 . S
Cd30 O41 2.439 . S
O31 Cd30 2.240 . S
O31 C36 1.279 . S
O32 Cd29 2.297 . S
O32 C34 1.247 . S
O33 Cd29 2.439 . S
O33 C34 1.208 . S
C34 O32 1.247 . S
C34 O33 1.208 . S
C35 O40 1.247 . S
C35 O41 1.208 . S
C36 O28 1.315 . S
C36 O31 1.279 . S
C37 O38 1.315 . S
C37 O39 1.279 . S
O38 Cd30 2.223 . S
O38 C37 1.315 . S
O39 Cd29 2.240 . S
O39 C37 1.279 . S
O40 Cd30 2.297 . S
O40 C35 1.247 . S
O41 Cd30 2.439 . S
O41 C35 1.208 . S
O42 Cd43 2.223 . S
O42 C50 1.315 . S
Cd43 O42 2.223 . S
Cd43 O46 2.297 . S
Cd43 O47 2.439 . S
Cd43 O53 2.240 . S
Cd44 O45 2.240 . S
Cd44 O52 2.223 . S
Cd44 O54 2.297 1_554 S
Cd44 O55 2.439 1_554 S
O45 Cd44 2.240 . S
O45 C50 1.279 . S
O46 Cd43 2.297 . S
O46 C48 1.247 . S
O47 Cd43 2.439 . S
O47 C48 1.208 . S
C48 O46 1.247 . S
C48 O47 1.208 . S
C49 O54 1.247 . S
C49 O55 1.208 . S
C50 O42 1.315 . S
C50 O45 1.279 . S
C51 O52 1.315 . S
C51 O53 1.279 . S
O52 Cd44 2.223 . S
O52 C51 1.315 . S
O53 Cd43 2.240 . S
O53 C51 1.279 . S
O54 Cd44 2.297 1_556 S
O54 C49 1.247 . S
O55 Cd44 2.439 1_556 S
O55 C49 1.208 . S
O56 Cd57 2.223 . S
O56 C64 1.315 . S
Cd57 O56 2.223 . S
Cd57 O60 2.297 . S
Cd57 O61 2.439 1_556 S
Cd57 O67 2.240 1_556 S
Cd58 O59 2.240 1_554 S
Cd58 O66 2.223 . S
Cd58 O68 2.297 . S
Cd58 O69 2.439 . S
O59 Cd58 2.240 1_556 S
O59 C64 1.279 . S
O60 Cd57 2.297 . S
O60 C62 1.247 . S
O61 Cd57 2.439 1_554 S
O61 C62 1.208 1_554 S
C62 O60 1.247 . S
C62 O61 1.208 1_556 S
C63 O68 1.247 . S
C63 O69 1.208 . S
C64 O56 1.315 . S
C64 O59 1.279 . S
C65 O66 1.315 . S
C65 O67 1.279 . S
O66 Cd58 2.223 . S
O66 C65 1.315 . S
O67 Cd57 2.240 1_554 S
O67 C65 1.279 . S
O68 Cd58 2.297 . S
O68 C63 1.247 . S
O69 Cd58 2.439 . S
O69 C63 1.208 . S
O70 Cd71 2.223 . S
O70 C78 1.315 . S
Cd71 O70 2.223 . S
Cd71 O74 2.297 . S
Cd71 O75 2.439 . S
Cd71 O81 2.240 . S
Cd72 O73 2.240 . S
Cd72 O80 2.223 . S
Cd72 O82 2.297 . S
Cd72 O83 2.439 . S
O73 Cd72 2.240 . S
O73 C78 1.279 . S
O74 Cd71 2.297 . S
O74 C76 1.247 . S
O75 Cd71 2.439 . S
O75 C76 1.208 . S
C76 O74 1.247 . S
C76 O75 1.208 . S
C77 O82 1.247 . S
C77 O83 1.208 . S
C78 O70 1.315 . S
C78 O73 1.279 . S
C79 O80 1.315 . S
C79 O81 1.279 . S
O80 Cd72 2.223 . S
O80 C79 1.315 . S
O81 Cd71 2.240 . S
O81 C79 1.279 . S
O82 Cd72 2.297 . S
O82 C77 1.247 . S
O83 Cd72 2.439 . S
O83 C77 1.208 . S
O84 Cd85 2.223 . S
O84 C92 1.315 . S
Cd85 O84 2.223 . S
Cd85 O88 2.297 . S
Cd85 O89 2.439 . S
Cd85 O95 2.240 . S
Cd86 O87 2.240 . S
Cd86 O94 2.223 . S
Cd86 O96 2.297 . S
Cd86 O97 2.439 . S
O87 Cd86 2.240 . S
O87 C92 1.279 . S
O88 Cd85 2.297 . S
O88 C90 1.247 . S
O89 Cd85 2.439 . S
O89 C90 1.208 . S
C90 O88 1.247 . S
C90 O89 1.208 . S
C91 O96 1.247 . S
C91 O97 1.208 . S
C92 O84 1.315 . S
C92 O87 1.279 . S
C93 O94 1.315 . S
C93 O95 1.279 . S
O94 Cd86 2.223 . S
O94 C93 1.315 . S
O95 Cd85 2.240 . S
O95 C93 1.279 . S
O96 Cd86 2.297 . S
O96 C91 1.247 . S
O97 Cd86 2.439 . S
O97 C91 1.208 . S
O98 Cd99 2.223 . S
O98 C106 1.315 . S
Cd99 O98 2.223 . S
Cd99 O102 2.297 . S
Cd99 O103 2.439 . S
Cd99 O109 2.240 . S
Cd100 O101 2.240 . S
Cd100 O108 2.223 . S
Cd100 O110 2.297 . S
Cd100 O111 2.439 . S
O101 Cd100 2.240 . S
O101 C106 1.279 . S
O102 Cd99 2.297 . S
O102 C104 1.247 . S
O103 Cd99 2.439 . S
O103 C104 1.208 . S
C104 O102 1.247 . S
C104 O103 1.208 . S
C105 O110 1.247 . S
C105 O111 1.208 . S
C106 O98 1.315 . S
C106 O101 1.279 . S
C107 O108 1.315 . S
C107 O109 1.279 . S
O108 Cd100 2.223 . S
O108 C107 1.315 . S
O109 Cd99 2.240 . S
O109 C107 1.279 . S
O110 Cd100 2.297 . S
O110 C105 1.247 . S
O111 Cd100 2.439 . S
O111 C105 1.208 . S
O112 Cd113 2.223 . S
O112 C120 1.315 . S
Cd113 O112 2.223 . S
Cd113 O116 2.297 . S
Cd113 O117 2.439 . S
Cd113 O123 2.240 . S
Cd114 O115 2.240 . S
Cd114 O122 2.223 . S
Cd114 O124 2.297 . S
Cd114 O125 2.439 . S
O115 Cd114 2.240 . S
O115 C120 1.279 . S
O116 Cd113 2.297 . S
O116 C118 1.247 . S
O117 Cd113 2.439 . S
O117 C118 1.208 . S
C118 O116 1.247 . S
C118 O117 1.208 . S
C119 O124 1.247 . S
C119 O125 1.208 . S
C120 O112 1.315 . S
C120 O115 1.279 . S
C121 O122 1.315 . S
C121 O123 1.279 . S
O122 Cd114 2.223 . S
O122 C121 1.315 . S
O123 Cd113 2.240 . S
O123 C121 1.279 . S
O124 Cd114 2.297 . S
O124 C119 1.247 . S
O125 Cd114 2.439 . S
O125 C119 1.208 . S
O126 Cd127 2.223 . S
O126 C134 1.315 . S
Cd127 O126 2.223 . S
Cd127 O130 2.297 . S
Cd127 O131 2.439 . S
Cd127 O137 2.240 . S
Cd128 O129 2.240 . S
Cd128 O136 2.223 . S
Cd128 O138 2.297 1_554 S
Cd128 O139 2.439 1_554 S
O129 Cd128 2.240 . S
O129 C134 1.279 . S
O130 Cd127 2.297 . S
O130 C132 1.247 . S
O131 Cd127 2.439 . S
O131 C132 1.208 . S
C132 O130 1.247 . S
C132 O131 1.208 . S
C133 O138 1.247 . S
C133 O139 1.208 . S
C134 O126 1.315 . S
C134 O129 1.279 . S
C135 O136 1.315 . S
C135 O137 1.279 . S
O136 Cd128 2.223 . S
O136 C135 1.315 . S
O137 Cd127 2.240 . S
O137 C135 1.279 . S
O138 Cd128 2.297 1_556 S
O138 C133 1.247 . S
O139 Cd128 2.439 1_556 S
O139 C133 1.208 . S
O140 Cd141 2.223 . S
O140 C148 1.315 . S
Cd141 O140 2.223 . S
Cd141 O144 2.297 . S
Cd141 O145 2.439 . S
Cd141 O151 2.240 . S
Cd142 O143 2.240 . S
Cd142 O150 2.223 . S
Cd142 O152 2.297 . S
Cd142 O153 2.439 . S
O143 Cd142 2.240 . S
O143 C148 1.279 . S
O144 Cd141 2.297 . S
O144 C146 1.247 . S
O145 Cd141 2.439 . S
O145 C146 1.208 . S
C146 O144 1.247 . S
C146 O145 1.208 . S
C147 O152 1.247 . S
C147 O153 1.208 . S
C148 O140 1.315 . S
C148 O143 1.279 . S
C149 O150 1.315 . S
C149 O151 1.279 . S
O150 Cd142 2.223 . S
O150 C149 1.315 . S
O151 Cd141 2.240 . S
O151 C149 1.279 . S
O152 Cd142 2.297 . S
O152 C147 1.247 . S
O153 Cd142 2.439 . S
O153 C147 1.208 . S
O154 Cd155 2.223 . S
O154 C162 1.315 . S
Cd155 O154 2.223 . S
Cd155 O158 2.297 . S
Cd155 O159 2.439 . S
Cd155 O165 2.240 . S
Cd156 O157 2.240 . S
Cd156 O164 2.223 . S
Cd156 O166 2.297 . S
Cd156 O167 2.439 . S
O157 Cd156 2.240 . S
O157 C162 1.279 . S
O158 Cd155 2.297 . S
O158 C160 1.247 . S
O159 Cd155 2.439 . S
O159 C160 1.208 . S
C160 O158 1.247 . S
C160 O159 1.208 . S
C161 O166 1.247 . S
C161 O167 1.208 . S
C162 O154 1.315 . S
C162 O157 1.279 . S
C163 O164 1.315 . S
C163 O165 1.279 . S
O164 Cd156 2.223 . S
O164 C163 1.315 . S
O165 Cd155 2.240 . S
O165 C163 1.279 . S
O166 Cd156 2.297 . S
O166 C161 1.247 . S
O167 Cd156 2.439 . S
O167 C161 1.208 . S
O168 Cd169 2.223 . S
O168 C176 1.315 . S
Cd169 O168 2.223 . S
Cd169 O172 2.297 . S
Cd169 O173 2.439 . S
Cd169 O179 2.240 . S
Cd170 O171 2.240 . S
Cd170 O178 2.223 . S
Cd170 O180 2.297 . S
Cd170 O181 2.439 . S
O171 Cd170 2.240 . S
O171 C176 1.279 . S
O172 Cd169 2.297 . S
O172 C174 1.247 . S
O173 Cd169 2.439 . S
O173 C174 1.208 . S
C174 O172 1.247 . S
C174 O173 1.208 . S
C175 O180 1.247 . S
C175 O181 1.208 . S
C176 O168 1.315 . S
C176 O171 1.279 . S
C177 O178 1.315 . S
C177 O179 1.279 . S
O178 Cd170 2.223 . S
O178 C177 1.315 . S
O179 Cd169 2.240 . S
O179 C177 1.279 . S
O180 Cd170 2.297 . S
O180 C175 1.247 . S
O181 Cd170 2.439 . S
O181 C175 1.208 . S
O182 Cd183 2.223 . S
O182 C190 1.315 . S
Cd183 O182 2.223 . S
Cd183 O186 2.297 . S
Cd183 O187 2.439 . S
Cd183 O193 2.240 . S
Cd184 O185 2.240 . S
Cd184 O192 2.223 . S
Cd184 O194 2.297 . S
Cd184 O195 2.439 . S
O185 Cd184 2.240 . S
O185 C190 1.279 . S
O186 Cd183 2.297 . S
O186 C188 1.247 . S
O187 Cd183 2.439 . S
O187 C188 1.208 . S
C188 O186 1.247 . S
C188 O187 1.208 . S
C189 O194 1.247 . S
C189 O195 1.208 . S
C190 O182 1.315 . S
C190 O185 1.279 . S
C191 O192 1.315 . S
C191 O193 1.279 . S
O192 Cd184 2.223 . S
O192 C191 1.315 . S
O193 Cd183 2.240 . S
O193 C191 1.279 . S
O194 Cd184 2.297 . S
O194 C189 1.247 . S
O195 Cd184 2.439 . S
O195 C189 1.208 . S
O196 Cd197 2.223 . S
O196 C204 1.315 . S
Cd197 O196 2.223 . S
Cd197 O200 2.297 . S
Cd197 O201 2.439 1_556 S
Cd197 O207 2.240 1_556 S
Cd198 O199 2.240 1_554 S
Cd198 O206 2.223 . S
Cd198 O208 2.297 . S
Cd198 O209 2.439 . S
O199 Cd198 2.240 1_556 S
O199 C204 1.279 . S
O200 Cd197 2.297 . S
O200 C202 1.247 . S
O201 Cd197 2.439 1_554 S
O201 C202 1.208 1_554 S
C202 O200 1.247 . S
C202 O201 1.208 1_556 S
C203 O208 1.247 . S
C203 O209 1.208 . S
C204 O196 1.315 . S
C204 O199 1.279 . S
C205 O206 1.315 . S
C205 O207 1.279 . S
O206 Cd198 2.223 . S
O206 C205 1.315 . S
O207 Cd197 2.240 1_554 S
O207 C205 1.279 . S
O208 Cd198 2.297 . S
O208 C203 1.247 . S
O209 Cd198 2.439 . S
O209 C203 1.208 . S
O210 Cd211 2.223 . S
O210 C218 1.315 . S
Cd211 O210 2.223 . S
Cd211 O214 2.297 . S
Cd211 O215 2.439 . S
Cd211 O221 2.240 . S
Cd212 O213 2.240 . S
Cd212 O220 2.223 . S
Cd212 O222 2.297 . S
Cd212 O223 2.439 . S
O213 Cd212 2.240 . S
O213 C218 1.279 . S
O214 Cd211 2.297 . S
O214 C216 1.247 . S
O215 Cd211 2.439 . S
O215 C216 1.208 . S
C216 O214 1.247 . S
C216 O215 1.208 . S
C217 O222 1.247 . S
C217 O223 1.208 . S
C218 O210 1.315 . S
C218 O213 1.279 . S
C219 O220 1.315 . S
C219 O221 1.279 . S
O220 Cd212 2.223 . S
O220 C219 1.315 . S
O221 Cd211 2.240 . S
O221 C219 1.279 . S
O222 Cd212 2.297 . S
O222 C217 1.247 . S
O223 Cd212 2.439 . S
O223 C217 1.208 . S
C224 C225 1.391 . S
C224 C226 1.394 . S
C224 H240 0.931 . S
C225 C224 1.391 . S
C225 C229 1.376 . S
C226 C224 1.394 . S
C226 C227 1.369 . S
C226 C230 1.531 . S
C227 C226 1.369 . S
C227 C228 1.410 . S
C227 C235 1.503 . S
C228 C227 1.410 . S
C228 C229 1.392 . S
C228 C231 1.511 . S
C229 C225 1.376 . S
C229 C228 1.392 . S
C229 H241 0.929 . S
C230 C226 1.531 . S
C230 H242 0.960 . S
C230 H243 0.962 . S
C230 H244 0.960 . S
C231 C228 1.511 . S
C231 H245 0.961 . S
C231 H246 0.961 . S
C231 H247 0.961 . S
C232 C233 1.370 . S
C232 C234 1.363 . S
C232 H248 0.931 . S
C233 C232 1.370 . S
C233 C237 1.408 . S
C234 C232 1.363 . S
C234 C235 1.370 . S
C234 C238 1.524 . S
C235 C227 1.503 . S
C235 C234 1.370 . S
C235 C236 1.403 . S
C236 C235 1.403 . S
C236 C237 1.404 . S
C236 C239 1.539 . S
C237 C233 1.408 . S
C237 C236 1.404 . S
C237 H249 0.930 . S
C238 C234 1.524 . S
C238 H250 0.956 . S
C238 H251 0.961 . S
C238 H252 0.961 . S
C239 C236 1.539 . S
C239 H253 0.958 . S
C239 H254 0.961 . S
C239 H255 0.960 . S
H240 C224 0.931 . S
H241 C229 0.929 . S
H242 C230 0.960 . S
H243 C230 0.962 . S
H244 C230 0.960 . S
H245 C231 0.961 . S
H246 C231 0.961 . S
H247 C231 0.961 . S
H248 C232 0.931 . S
H249 C237 0.930 . S
H250 C238 0.956 . S
H251 C238 0.961 . S
H252 C238 0.961 . S
H253 C239 0.958 . S
H254 C239 0.961 . S
H255 C239 0.960 . S
C256 C257 1.391 . S
C256 C258 1.394 . S
C256 H272 0.931 . S
C257 C256 1.391 . S
C257 C261 1.376 . S
C258 C256 1.394 . S
C258 C259 1.369 . S
C258 C262 1.531 . S
C259 C258 1.369 . S
C259 C260 1.410 . S
C259 C267 1.503 . S
C260 C259 1.410 . S
C260 C261 1.392 . S
C260 C263 1.511 . S
C261 C257 1.376 . S
C261 C260 1.392 . S
C261 H273 0.929 . S
C262 C258 1.531 . S
C262 H274 0.960 . S
C262 H275 0.962 . S
C262 H276 0.960 . S
C263 C260 1.511 . S
C263 H277 0.961 . S
C263 H278 0.961 . S
C263 H279 0.961 . S
C264 C265 1.370 . S
C264 C266 1.363 . S
C264 H280 0.931 . S
C265 C264 1.370 . S
C265 C269 1.408 . S
C266 C264 1.363 . S
C266 C267 1.370 . S
C266 C270 1.524 . S
C267 C259 1.503 . S
C267 C266 1.370 . S
C267 C268 1.403 . S
C268 C267 1.403 . S
C268 C269 1.404 . S
C268 C271 1.539 . S
C269 C265 1.408 . S
C269 C268 1.404 . S
C269 H281 0.930 . S
C270 C266 1.524 . S
C270 H282 0.956 . S
C270 H283 0.961 . S
C270 H284 0.961 . S
C271 C268 1.539 . S
C271 H285 0.958 . S
C271 H286 0.961 . S
C271 H287 0.960 . S
H272 C256 0.931 . S
H273 C261 0.929 . S
H274 C262 0.960 . S
H275 C262 0.962 . S
H276 C262 0.960 . S
H277 C263 0.961 . S
H278 C263 0.961 . S
H279 C263 0.961 . S
H280 C264 0.931 . S
H281 C269 0.930 . S
H282 C270 0.956 . S
H283 C270 0.961 . S
H284 C270 0.961 . S
H285 C271 0.958 . S
H286 C271 0.961 . S
H287 C271 0.960 . S
C288 C289 1.391 . S
C288 C290 1.394 . S
C288 H304 0.931 . S
C289 C288 1.391 . S
C289 C293 1.376 . S
C290 C288 1.394 . S
C290 C291 1.369 . S
C290 C294 1.531 . S
C291 C290 1.369 . S
C291 C292 1.410 . S
C291 C299 1.503 . S
C292 C291 1.410 . S
C292 C293 1.392 . S
C292 C295 1.511 . S
C293 C289 1.376 . S
C293 C292 1.392 . S
C293 H305 0.929 . S
C294 C290 1.531 . S
C294 H306 0.960 . S
C294 H307 0.962 . S
C294 H308 0.960 . S
C295 C292 1.511 . S
C295 H309 0.961 . S
C295 H310 0.961 . S
C295 H311 0.961 . S
C296 C297 1.370 . S
C296 C298 1.363 . S
C296 H312 0.931 . S
C297 C296 1.370 . S
C297 C301 1.408 . S
C298 C296 1.363 . S
C298 C299 1.370 . S
C298 C302 1.524 . S
C299 C291 1.503 . S
C299 C298 1.370 . S
C299 C300 1.403 . S
C300 C299 1.403 . S
C300 C301 1.404 . S
C300 C303 1.539 . S
C301 C297 1.408 . S
C301 C300 1.404 . S
C301 H313 0.930 . S
C302 C298 1.524 . S
C302 H314 0.956 . S
C302 H315 0.961 . S
C302 H316 0.961 . S
C303 C300 1.539 . S
C303 H317 0.958 . S
C303 H318 0.961 . S
C303 H319 0.960 . S
H304 C288 0.931 . S
H305 C293 0.929 . S
H306 C294 0.960 . S
H307 C294 0.962 . S
H308 C294 0.960 . S
H309 C295 0.961 . S
H310 C295 0.961 . S
H311 C295 0.961 . S
H312 C296 0.931 . S
H313 C301 0.930 . S
H314 C302 0.956 . S
H315 C302 0.961 . S
H316 C302 0.961 . S
H317 C303 0.958 . S
H318 C303 0.961 . S
H319 C303 0.960 . S
C320 C321 1.391 . S
C320 C322 1.394 . S
C320 H336 0.931 . S
C321 C320 1.391 . S
C321 C325 1.376 . S
C322 C320 1.394 . S
C322 C323 1.369 . S
C322 C326 1.531 . S
C323 C322 1.369 . S
C323 C324 1.410 . S
C323 C331 1.503 . S
C324 C323 1.410 . S
C324 C325 1.392 . S
C324 C327 1.511 . S
C325 C321 1.376 . S
C325 C324 1.392 . S
C325 H337 0.929 . S
C326 C322 1.531 . S
C326 H338 0.960 . S
C326 H339 0.962 . S
C326 H340 0.960 . S
C327 C324 1.511 . S
C327 H341 0.961 . S
C327 H342 0.961 . S
C327 H343 0.961 . S
C328 C329 1.370 . S
C328 C330 1.363 . S
C328 H344 0.931 . S
C329 C328 1.370 . S
C329 C333 1.408 . S
C330 C328 1.363 . S
C330 C331 1.370 . S
C330 C334 1.524 . S
C331 C323 1.503 . S
C331 C330 1.370 . S
C331 C332 1.403 . S
C332 C331 1.403 . S
C332 C333 1.404 . S
C332 C335 1.539 . S
C333 C329 1.408 . S
C333 C332 1.404 . S
C333 H345 0.930 . S
C334 C330 1.524 . S
C334 H346 0.956 . S
C334 H347 0.961 . S
C334 H348 0.961 . S
C335 C332 1.539 . S
C335 H349 0.958 . S
C335 H350 0.961 . S
C335 H351 0.960 . S
H336 C320 0.931 . S
H337 C325 0.929 . S
H338 C326 0.960 . S
H339 C326 0.962 . S
H340 C326 0.960 . S
H341 C327 0.961 . S
H342 C327 0.961 . S
H343 C327 0.961 . S
H344 C328 0.931 . S
H345 C333 0.930 . S
H346 C334 0.956 . S
H347 C334 0.961 . S
H348 C334 0.961 . S
H349 C335 0.958 . S
H350 C335 0.961 . S
H351 C335 0.960 . S
C352 C353 1.391 . S
C352 C354 1.394 . S
C352 H368 0.931 . S
C353 C352 1.391 . S
C353 C357 1.376 . S
C354 C352 1.394 . S
C354 C355 1.369 . S
C354 C358 1.531 . S
C355 C354 1.369 . S
C355 C356 1.410 . S
C355 C363 1.503 . S
C356 C355 1.410 . S
C356 C357 1.392 . S
C356 C359 1.511 . S
C357 C353 1.376 . S
C357 C356 1.392 . S
C357 H369 0.929 . S
C358 C354 1.531 . S
C358 H370 0.960 . S
C358 H371 0.962 . S
C358 H372 0.960 . S
C359 C356 1.511 . S
C359 H373 0.961 . S
C359 H374 0.961 . S
C359 H375 0.961 . S
C360 C361 1.370 . S
C360 C362 1.363 . S
C360 H376 0.931 . S
C361 C360 1.370 . S
C361 C365 1.408 . S
C362 C360 1.363 . S
C362 C363 1.370 . S
C362 C366 1.524 . S
C363 C355 1.503 . S
C363 C362 1.370 . S
C363 C364 1.403 . S
C364 C363 1.403 . S
C364 C365 1.404 . S
C364 C367 1.539 . S
C365 C361 1.408 . S
C365 C364 1.404 . S
C365 H377 0.930 . S
C366 C362 1.524 . S
C366 H378 0.956 . S
C366 H379 0.961 . S
C366 H380 0.961 . S
C367 C364 1.539 . S
C367 H381 0.958 . S
C367 H382 0.961 . S
C367 H383 0.960 . S
H368 C352 0.931 . S
H369 C357 0.929 . S
H370 C358 0.960 . S
H371 C358 0.962 . S
H372 C358 0.960 . S
H373 C359 0.961 . S
H374 C359 0.961 . S
H375 C359 0.961 . S
H376 C360 0.931 . S
H377 C365 0.930 . S
H378 C366 0.956 . S
H379 C366 0.961 . S
H380 C366 0.961 . S
H381 C367 0.958 . S
H382 C367 0.961 . S
H383 C367 0.960 . S
C384 C385 1.391 . S
C384 C386 1.394 . S
C384 H400 0.931 . S
C385 C384 1.391 . S
C385 C389 1.376 . S
C386 C384 1.394 . S
C386 C387 1.369 . S
C386 C390 1.531 . S
C387 C386 1.369 . S
C387 C388 1.410 . S
C387 C395 1.503 . S
C388 C387 1.410 . S
C388 C389 1.392 . S
C388 C391 1.511 . S
C389 C385 1.376 . S
C389 C388 1.392 . S
C389 H401 0.929 . S
C390 C386 1.531 . S
C390 H402 0.960 . S
C390 H403 0.962 . S
C390 H404 0.960 . S
C391 C388 1.511 . S
C391 H405 0.961 . S
C391 H406 0.961 . S
C391 H407 0.961 . S
C392 C393 1.370 . S
C392 C394 1.363 . S
C392 H408 0.931 . S
C393 C392 1.370 . S
C393 C397 1.408 . S
C394 C392 1.363 . S
C394 C395 1.370 . S
C394 C398 1.524 . S
C395 C387 1.503 . S
C395 C394 1.370 . S
C395 C396 1.403 . S
C396 C395 1.403 . S
C396 C397 1.404 . S
C396 C399 1.539 . S
C397 C393 1.408 . S
C397 C396 1.404 . S
C397 H409 0.930 . S
C398 C394 1.524 . S
C398 H410 0.956 . S
C398 H411 0.961 . S
C398 H412 0.961 . S
C399 C396 1.539 . S
C399 H413 0.958 . S
C399 H414 0.961 . S
C399 H415 0.960 . S
H400 C384 0.931 . S
H401 C389 0.929 . S
H402 C390 0.960 . S
H403 C390 0.962 . S
H404 C390 0.960 . S
H405 C391 0.961 . S
H406 C391 0.961 . S
H407 C391 0.961 . S
H408 C392 0.931 . S
H409 C397 0.930 . S
H410 C398 0.956 . S
H411 C398 0.961 . S
H412 C398 0.961 . S
H413 C399 0.958 . S
H414 C399 0.961 . S
H415 C399 0.960 . S
C416 C417 1.391 . S
C416 C418 1.394 . S
C416 H432 0.931 . S
C417 C416 1.391 . S
C417 C421 1.376 . S
C418 C416 1.394 . S
C418 C419 1.369 . S
C418 C422 1.531 . S
C419 C418 1.369 . S
C419 C420 1.410 . S
C419 C427 1.503 . S
C420 C419 1.410 . S
C420 C421 1.392 . S
C420 C423 1.511 . S
C421 C417 1.376 . S
C421 C420 1.392 . S
C421 H433 0.929 . S
C422 C418 1.531 . S
C422 H434 0.960 . S
C422 H435 0.962 . S
C422 H436 0.960 . S
C423 C420 1.511 . S
C423 H437 0.961 . S
C423 H438 0.961 . S
C423 H439 0.961 . S
C424 C425 1.370 . S
C424 C426 1.363 . S
C424 H440 0.931 . S
C425 C424 1.370 . S
C425 C429 1.408 . S
C426 C424 1.363 . S
C426 C427 1.370 . S
C426 C430 1.524 . S
C427 C419 1.503 . S
C427 C426 1.370 . S
C427 C428 1.403 . S
C428 C427 1.403 . S
C428 C429 1.404 . S
C428 C431 1.539 . S
C429 C425 1.408 . S
C429 C428 1.404 . S
C429 H441 0.930 . S
C430 C426 1.524 . S
C430 H442 0.956 . S
C430 H443 0.961 . S
C430 H444 0.961 . S
C431 C428 1.539 . S
C431 H445 0.958 . S
C431 H446 0.961 . S
C431 H447 0.960 . S
H432 C416 0.931 . S
H433 C421 0.929 . S
H434 C422 0.960 . S
H435 C422 0.962 . S
H436 C422 0.960 . S
H437 C423 0.961 . S
H438 C423 0.961 . S
H439 C423 0.961 . S
H440 C424 0.931 . S
H441 C429 0.930 . S
H442 C430 0.956 . S
H443 C430 0.961 . S
H444 C430 0.961 . S
H445 C431 0.958 . S
H446 C431 0.961 . S
H447 C431 0.960 . S
C448 C449 1.391 . S
C448 C450 1.394 . S
C448 H464 0.931 . S
C449 C448 1.391 . S
C449 C453 1.376 . S
C450 C448 1.394 . S
C450 C451 1.369 . S
C450 C454 1.531 . S
C451 C450 1.369 . S
C451 C452 1.410 . S
C451 C459 1.503 . S
C452 C451 1.410 . S
C452 C453 1.392 . S
C452 C455 1.511 . S
C453 C449 1.376 . S
C453 C452 1.392 . S
C453 H465 0.929 . S
C454 C450 1.531 . S
C454 H466 0.960 . S
C454 H467 0.962 . S
C454 H468 0.960 1_455 S
C455 C452 1.511 . S
C455 H469 0.961 . S
C455 H470 0.961 . S
C455 H471 0.961 . S
C456 C457 1.370 . S
C456 C458 1.363 . S
C456 H472 0.931 . S
C457 C456 1.370 . S
C457 C461 1.408 . S
C458 C456 1.363 . S
C458 C459 1.370 . S
C458 C462 1.524 . S
C459 C451 1.503 . S
C459 C458 1.370 . S
C459 C460 1.403 . S
C460 C459 1.403 . S
C460 C461 1.404 . S
C460 C463 1.539 . S
C461 C457 1.408 . S
C461 C460 1.404 . S
C461 H473 0.930 . S
C462 C458 1.524 . S
C462 H474 0.956 . S
C462 H475 0.961 . S
C462 H476 0.961 . S
C463 C460 1.539 . S
C463 H477 0.958 . S
C463 H478 0.961 . S
C463 H479 0.960 . S
H464 C448 0.931 . S
H465 C453 0.929 . S
H466 C454 0.960 . S
H467 C454 0.962 . S
H468 C454 0.960 1_655 S
H469 C455 0.961 . S
H470 C455 0.961 . S
H471 C455 0.961 . S
H472 C456 0.931 . S
H473 C461 0.930 . S
H474 C462 0.956 . S
H475 C462 0.961 . S
H476 C462 0.961 . S
H477 C463 0.958 . S
H478 C463 0.961 . S
H479 C463 0.960 . S
C480 C481 1.349 1_565 S
C480 C482 1.410 . S
C480 H496 0.957 . S
C481 C480 1.349 1_545 S
C481 C485 1.376 . S
C482 C480 1.410 . S
C482 C483 1.369 1_565 S
C482 C486 1.531 . S
C483 C482 1.369 1_545 S
C483 C484 1.410 . S
C483 C491 1.503 1_445 S
C484 C483 1.410 . S
C484 C485 1.392 . S
C484 C487 1.511 1_455 S
C485 C481 1.376 . S
C485 C484 1.392 . S
C485 H497 0.929 . S
C486 C482 1.531 . S
C486 H498 0.960 . S
C486 H499 0.962 . S
C486 H500 0.960 . S
C487 C484 1.511 1_655 S
C487 H501 0.961 . S
C487 H502 0.961 . S
C487 H503 0.961 . S
C488 C489 1.370 . S
C488 C490 1.363 . S
C488 H504 0.931 . S
C489 C488 1.370 . S
C489 C493 1.408 . S
C490 C488 1.363 . S
C490 C491 1.370 . S
C490 C494 1.536 . S
C491 C483 1.503 1_665 S
C491 C490 1.370 . S
C491 C492 1.403 . S
C492 C491 1.403 . S
C492 C493 1.404 . S
C492 C495 1.539 . S
C493 C489 1.408 . S
C493 C492 1.404 . S
C493 H505 0.930 . S
C494 C490 1.536 . S
C494 H506 0.981 1_655 S
C494 H507 0.921 1_565 S
C494 H508 0.965 . S
C495 C492 1.539 . S
C495 H509 0.958 . S
C495 H510 0.961 . S
C495 H511 0.960 1_565 S
H496 C480 0.957 . S
H497 C485 0.929 . S
H498 C486 0.960 . S
H499 C486 0.962 . S
H500 C486 0.960 . S
H501 C487 0.961 . S
H502 C487 0.961 . S
H503 C487 0.961 . S
H504 C488 0.931 . S
H505 C493 0.930 . S
H506 C494 0.981 1_455 S
H507 C494 0.921 1_545 S
H508 C494 0.965 . S
H509 C495 0.958 . S
H510 C495 0.961 . S
H511 C495 0.960 1_545 S
C512 C513 1.391 . S
C512 C514 1.394 . S
C512 H528 0.931 . S
C513 C512 1.391 . S
C513 C517 1.376 . S
C514 C512 1.394 . S
C514 C515 1.369 . S
C514 C518 1.531 1_655 S
C515 C514 1.369 . S
C515 C516 1.410 . S
C515 C523 1.503 1_655 S
C516 C515 1.410 . S
C516 C517 1.392 . S
C516 C519 1.511 . S
C517 C513 1.376 . S
C517 C516 1.392 . S
C517 H529 0.929 . S
C518 C514 1.531 1_455 S
C518 H530 0.960 . S
C518 H531 0.962 . S
C518 H532 0.943 1_455 S
C519 C516 1.511 . S
C519 H533 0.961 . S
C519 H534 0.961 . S
C519 H535 0.961 . S
C520 C521 1.370 . S
C520 C522 1.363 . S
C520 H536 0.931 . S
C521 C520 1.370 . S
C521 C525 1.387 1_455 S
C522 C520 1.363 . S
C522 C523 1.370 . S
C522 C526 1.524 . S
C523 C515 1.503 1_455 S
C523 C522 1.370 . S
C523 C524 1.403 1_455 S
C524 C523 1.403 1_655 S
C524 C525 1.414 . S
C524 C527 1.539 . S
C525 C521 1.387 1_655 S
C525 C524 1.414 . S
C525 H537 0.941 . S
C526 C522 1.524 . S
C526 H538 0.956 . S
C526 H539 0.961 . S
C526 H540 0.961 . S
C527 C524 1.539 . S
C527 H541 0.958 . S
C527 H542 0.961 . S
C527 H543 0.960 . S
H528 C512 0.931 . S
H529 C517 0.929 . S
H530 C518 0.960 . S
H531 C518 0.962 . S
H532 C518 0.943 1_655 S
H533 C519 0.961 . S
H534 C519 0.961 . S
H535 C519 0.961 . S
H536 C520 0.931 . S
H537 C525 0.941 . S
H538 C526 0.956 . S
H539 C526 0.961 . S
H540 C526 0.961 . S
H541 C527 0.958 . S
H542 C527 0.961 . S
H543 C527 0.960 . S
C544 C545 1.391 . S
C544 C546 1.394 . S
C544 H560 0.931 . S
C545 C544 1.391 . S
C545 C549 1.376 . S
C546 C544 1.394 . S
C546 C547 1.369 . S
C546 C550 1.531 . S
C547 C546 1.369 . S
C547 C548 1.410 . S
C547 C555 1.503 . S
C548 C547 1.410 . S
C548 C549 1.392 . S
C548 C551 1.511 . S
C549 C545 1.376 . S
C549 C548 1.392 . S
C549 H561 0.929 . S
C550 C546 1.531 . S
C550 H562 0.960 . S
C550 H563 0.962 . S
C550 H564 0.960 . S
C551 C548 1.511 . S
C551 H565 0.961 . S
C551 H566 0.961 . S
C551 H567 0.961 . S
C552 C553 1.370 . S
C552 C554 1.363 . S
C552 H568 0.931 . S
C553 C552 1.370 . S
C553 C557 1.408 . S
C554 C552 1.363 . S
C554 C555 1.370 . S
C554 C558 1.524 . S
C555 C547 1.503 . S
C555 C554 1.370 . S
C555 C556 1.403 . S
C556 C555 1.403 . S
C556 C557 1.404 . S
C556 C559 1.539 . S
C557 C553 1.408 . S
C557 C556 1.404 . S
C557 H569 0.930 . S
C558 C554 1.524 . S
C558 H570 0.956 . S
C558 H571 0.961 . S
C558 H572 0.961 . S
C559 C556 1.539 . S
C559 H573 0.958 . S
C559 H574 0.961 . S
C559 H575 0.960 . S
H560 C544 0.931 . S
H561 C549 0.929 . S
H562 C550 0.960 . S
H563 C550 0.962 . S
H564 C550 0.960 . S
H565 C551 0.961 . S
H566 C551 0.961 . S
H567 C551 0.961 . S
H568 C552 0.931 . S
H569 C557 0.930 . S
H570 C558 0.956 . S
H571 C558 0.961 . S
H572 C558 0.961 . S
H573 C559 0.958 . S
H574 C559 0.961 . S
H575 C559 0.960 . S
C576 C577 1.391 . S
C576 C578 1.394 . S
C576 H592 0.931 . S
C577 C576 1.391 . S
C577 C581 1.376 . S
C578 C576 1.394 . S
C578 C579 1.369 . S
C578 C582 1.531 . S
C579 C578 1.369 . S
C579 C580 1.410 . S
C579 C587 1.503 1_565 S
C580 C579 1.410 . S
C580 C581 1.392 . S
C580 C583 1.511 1_565 S
C581 C577 1.376 . S
C581 C580 1.392 . S
C581 H593 0.929 . S
C582 C578 1.531 . S
C582 H594 0.960 . S
C582 H595 0.962 . S
C582 H596 0.960 . S
C583 C580 1.511 1_545 S
C583 H597 0.961 1_544 S
C583 H598 0.961 . S
C583 H599 0.961 . S
C584 C585 1.370 . S
C584 C586 1.363 . S
C584 H600 0.931 . S
C585 C584 1.370 . S
C585 C589 1.408 . S
C586 C584 1.363 . S
C586 C587 1.370 . S
C586 C590 1.500 1_545 S
C587 C579 1.503 1_545 S
C587 C586 1.370 . S
C587 C588 1.403 . S
C588 C587 1.403 . S
C588 C589 1.404 . S
C588 C591 1.539 . S
C589 C585 1.408 . S
C589 C588 1.404 . S
C589 H601 0.930 . S
C590 C586 1.500 1_565 S
C590 H602 0.983 . S
C590 H603 0.974 1_554 S
C590 H604 0.947 1_564 S
C591 C588 1.539 . S
C591 H605 0.958 . S
C591 H606 0.961 . S
C591 H607 0.960 . S
H592 C576 0.931 . S
H593 C581 0.929 . S
H594 C582 0.960 . S
H595 C582 0.962 . S
H596 C582 0.960 . S
H597 C583 0.961 1_566 S
H598 C583 0.961 . S
H599 C583 0.961 . S
H600 C584 0.931 . S
H601 C589 0.930 . S
H602 C590 0.983 . S
H603 C590 0.974 1_556 S
H604 C590 0.947 1_546 S
H605 C591 0.958 . S
H606 C591 0.961 . S
H607 C591 0.960 . S
C608 C609 1.391 . S
C608 C610 1.394 . S
C608 H624 0.931 . S
C609 C608 1.391 . S
C609 C613 1.376 1_556 S
C610 C608 1.394 . S
C610 C611 1.369 . S
C610 C614 1.531 . S
C611 C610 1.369 . S
C611 C612 1.410 1_556 S
C611 C619 1.503 1_455 S
C612 C611 1.410 1_554 S
C612 C613 1.392 . S
C612 C615 1.511 1_455 S
C613 C609 1.376 1_554 S
C613 C612 1.392 . S
C613 H625 0.929 . S
C614 C610 1.531 . S
C614 H626 0.960 . S
C614 H627 0.962 . S
C614 H628 0.960 . S
C615 C612 1.511 1_655 S
C615 H629 0.965 . S
C615 H630 0.961 . S
C615 H631 0.961 1_554 S
C616 C617 1.376 . S
C616 C618 1.363 . S
C616 H632 0.931 . S
C617 C616 1.376 . S
C617 C621 1.402 1_554 S
C618 C616 1.363 . S
C618 C619 1.370 1_554 S
C618 C622 1.524 . S
C619 C611 1.503 1_655 S
C619 C618 1.370 1_556 S
C619 C620 1.403 . S
C620 C619 1.403 . S
C620 C621 1.404 . S
C620 C623 1.539 . S
C621 C617 1.402 1_556 S
C621 C620 1.404 . S
C621 H633 0.930 . S
C622 C618 1.524 . S
C622 H634 0.956 1_655 S
C622 H635 0.946 1_655 S
C622 H636 0.961 . S
C623 C620 1.539 . S
C623 H637 0.958 . S
C623 H638 0.961 . S
C623 H639 0.960 . S
H624 C608 0.931 . S
H625 C613 0.929 . S
H626 C614 0.960 . S
H627 C614 0.962 . S
H628 C614 0.960 . S
H629 C615 0.965 . S
H630 C615 0.961 . S
H631 C615 0.961 1_556 S
H632 C616 0.931 . S
H633 C621 0.930 . S
H634 C622 0.956 1_455 S
H635 C622 0.946 1_455 S
H636 C622 0.961 . S
H637 C623 0.958 . S
H638 C623 0.961 . S
H639 C623 0.960 . S
C640 C641 1.391 . S
C640 C642 1.394 . S
C640 H656 0.931 . S
C641 C640 1.391 . S
C641 C645 1.376 . S
C642 C640 1.394 . S
C642 C643 1.369 . S
C642 C646 1.531 . S
C643 C642 1.369 . S
C643 C644 1.410 . S
C643 C651 1.503 . S
C644 C643 1.410 . S
C644 C645 1.392 . S
C644 C647 1.511 . S
C645 C641 1.376 . S
C645 C644 1.392 . S
C645 H657 0.929 . S
C646 C642 1.531 . S
C646 H658 0.960 . S
C646 H659 0.962 . S
C646 H660 0.960 . S
C647 C644 1.511 . S
C647 H661 0.961 . S
C647 H662 0.961 . S
C647 H663 0.961 . S
C648 C649 1.370 . S
C648 C650 1.363 . S
C648 H664 0.931 . S
C649 C648 1.370 . S
C649 C653 1.408 . S
C650 C648 1.363 . S
C650 C651 1.370 . S
C650 C654 1.524 . S
C651 C643 1.503 . S
C651 C650 1.370 . S
C651 C652 1.403 . S
C652 C651 1.403 . S
C652 C653 1.404 . S
C652 C655 1.539 . S
C653 C649 1.408 . S
C653 C652 1.404 . S
C653 H665 0.930 . S
C654 C650 1.524 . S
C654 H666 0.956 . S
C654 H667 0.961 . S
C654 H668 0.961 . S
C655 C652 1.539 . S
C655 H669 0.958 . S
C655 H670 0.961 . S
C655 H671 0.960 . S
H656 C640 0.931 . S
H657 C645 0.929 . S
H658 C646 0.960 . S
H659 C646 0.962 . S
H660 C646 0.960 . S
H661 C647 0.961 . S
H662 C647 0.961 . S
H663 C647 0.961 . S
H664 C648 0.931 . S
H665 C653 0.930 . S
H666 C654 0.956 . S
H667 C654 0.961 . S
H668 C654 0.961 . S
H669 C655 0.958 . S
H670 C655 0.961 . S
H671 C655 0.960 . S
C672 C673 1.391 . S
C672 C674 1.394 . S
C672 H688 0.931 . S
C673 C672 1.391 . S
C673 C677 1.374 1_545 S
C674 C672 1.394 . S
C674 C675 1.369 . S
C674 C678 1.531 . S
C675 C674 1.369 . S
C675 C676 1.410 1_545 S
C675 C683 1.503 1_545 S
C676 C675 1.410 1_565 S
C676 C677 1.393 . S
C676 C679 1.511 . S
C677 C673 1.374 1_565 S
C677 C676 1.393 . S
C677 H689 0.930 . S
C678 C674 1.531 . S
C678 H690 0.960 . S
C678 H691 0.962 . S
C678 H692 0.960 . S
C679 C676 1.511 . S
C679 H693 0.961 . S
C679 H694 0.961 . S
C679 H695 0.961 . S
C680 C681 1.370 . S
C680 C682 1.363 . S
C680 H696 0.931 . S
C681 C680 1.370 . S
C681 C685 1.408 . S
C682 C680 1.363 . S
C682 C683 1.370 . S
C682 C686 1.524 1_565 S
C683 C675 1.503 1_565 S
C683 C682 1.370 . S
C683 C684 1.403 . S
C684 C683 1.403 . S
C684 C685 1.404 . S
C684 C687 1.539 . S
C685 C681 1.408 . S
C685 C684 1.404 . S
C685 H697 0.930 . S
C686 C682 1.524 1_545 S
C686 H698 0.956 . S
C686 H699 0.961 . S
C686 H700 0.961 . S
C687 C684 1.539 . S
C687 H701 0.958 . S
C687 H702 0.961 . S
C687 H703 0.960 . S
H688 C672 0.931 . S
H689 C677 0.930 . S
H690 C678 0.960 . S
H691 C678 0.962 . S
H692 C678 0.960 . S
H693 C679 0.961 . S
H694 C679 0.961 . S
H695 C679 0.961 . S
H696 C680 0.931 . S
H697 C685 0.930 . S
H698 C686 0.956 . S
H699 C686 0.961 . S
H700 C686 0.961 . S
H701 C687 0.958 . S
H702 C687 0.961 . S
H703 C687 0.960 . S
C704 C705 1.391 . S
C704 C706 1.394 . S
C704 H720 0.931 . S
C705 C704 1.391 . S
C705 C709 1.374 . S
C706 C704 1.394 . S
C706 C707 1.369 . S
C706 C710 1.531 1_545 S
C707 C706 1.369 . S
C707 C708 1.410 1_455 S
C707 C715 1.503 1_445 S
C708 C707 1.410 1_655 S
C708 C709 1.393 1_655 S
C708 C711 1.511 . S
C709 C705 1.374 . S
C709 C708 1.393 1_455 S
C709 H721 0.930 1_455 S
C710 C706 1.531 1_565 S
C710 H722 0.960 . S
C710 H723 0.962 . S
C710 H724 0.960 1_565 S
C711 C708 1.511 . S
C711 H725 0.961 . S
C711 H726 0.961 . S
C711 H727 0.961 . S
C712 C713 1.370 . S
C712 C714 1.363 . S
C712 H728 0.931 . S
C713 C712 1.370 . S
C713 C717 1.408 . S
C714 C712 1.363 . S
C714 C715 1.370 . S
C714 C718 1.524 1_655 S
C715 C707 1.503 1_665 S
C715 C714 1.370 . S
C715 C716 1.403 . S
C716 C715 1.403 . S
C716 C717 1.404 . S
C716 C719 1.539 . S
C717 C713 1.408 . S
C717 C716 1.404 . S
C717 H729 0.930 . S
C718 C714 1.524 1_455 S
C718 H730 0.956 . S
C718 H731 0.979 . S
C718 H732 0.961 . S
C719 C716 1.539 . S
C719 H733 0.958 . S
C719 H734 0.961 . S
C719 H735 0.960 1_565 S
H720 C704 0.931 . S
H721 C709 0.930 1_655 S
H722 C710 0.960 . S
H723 C710 0.962 . S
H724 C710 0.960 1_545 S
H725 C711 0.961 . S
H726 C711 0.961 . S
H727 C711 0.961 . S
H728 C712 0.931 . S
H729 C717 0.930 . S
H730 C718 0.956 . S
H731 C718 0.979 . S
H732 C718 0.961 . S
H733 C719 0.958 . S
H734 C719 0.961 . S
H735 C719 0.960 1_545 S
C736 C737 1.391 . S
C736 C738 1.394 . S
C736 H752 0.931 . S
C737 C736 1.391 . S
C737 C741 1.376 . S
C738 C736 1.394 . S
C738 C739 1.369 . S
C738 C742 1.531 . S
C739 C738 1.369 . S
C739 C740 1.410 . S
C739 C747 1.503 . S
C740 C739 1.410 . S
C740 C741 1.392 . S
C740 C743 1.511 . S
C741 C737 1.376 . S
C741 C740 1.392 . S
C741 H753 0.929 . S
C742 C738 1.531 . S
C742 H754 0.960 . S
C742 H755 0.962 . S
C742 H756 0.960 . S
C743 C740 1.511 . S
C743 H757 0.961 . S
C743 H758 0.961 . S
C743 H759 0.961 . S
C744 C745 1.370 . S
C744 C746 1.363 . S
C744 H760 0.931 . S
C745 C744 1.370 . S
C745 C749 1.408 . S
C746 C744 1.363 . S
C746 C747 1.370 . S
C746 C750 1.524 . S
C747 C739 1.503 . S
C747 C746 1.370 . S
C747 C748 1.403 . S
C748 C747 1.403 . S
C748 C749 1.404 . S
C748 C751 1.539 . S
C749 C745 1.408 . S
C749 C748 1.404 . S
C749 H761 0.930 . S
C750 C746 1.524 . S
C750 H762 0.956 . S
C750 H763 0.961 . S
C750 H764 0.961 . S
C751 C748 1.539 . S
C751 H765 0.958 . S
C751 H766 0.961 . S
C751 H767 0.960 . S
H752 C736 0.931 . S
H753 C741 0.929 . S
H754 C742 0.960 . S
H755 C742 0.962 . S
H756 C742 0.960 . S
H757 C743 0.961 . S
H758 C743 0.961 . S
H759 C743 0.961 . S
H760 C744 0.931 . S
H761 C749 0.930 . S
H762 C750 0.956 . S
H763 C750 0.961 . S
H764 C750 0.961 . S
H765 C751 0.958 . S
H766 C751 0.961 . S
H767 C751 0.960 . S
C768 C769 1.391 . S
C768 C770 1.394 . S
C768 H784 0.931 . S
C769 C768 1.391 . S
C769 C773 1.376 . S
C770 C768 1.394 . S
C770 C771 1.369 . S
C770 C774 1.531 . S
C771 C770 1.369 . S
C771 C772 1.410 . S
C771 C779 1.503 . S
C772 C771 1.410 . S
C772 C773 1.392 . S
C772 C775 1.511 . S
C773 C769 1.376 . S
C773 C772 1.392 . S
C773 H785 0.929 . S
C774 C770 1.531 . S
C774 H786 0.960 . S
C774 H787 0.962 . S
C774 H788 0.960 . S
C775 C772 1.511 . S
C775 H789 0.961 . S
C775 H790 0.961 . S
C775 H791 0.961 . S
C776 C777 1.370 . S
C776 C778 1.363 . S
C776 H792 0.931 . S
C777 C776 1.370 . S
C777 C781 1.408 . S
C778 C776 1.363 . S
C778 C779 1.370 . S
C778 C782 1.524 . S
C779 C771 1.503 . S
C779 C778 1.370 . S
C779 C780 1.403 . S
C780 C779 1.403 . S
C780 C781 1.404 . S
C780 C783 1.539 . S
C781 C777 1.408 . S
C781 C780 1.404 . S
C781 H793 0.930 . S
C782 C778 1.524 . S
C782 H794 0.956 . S
C782 H795 0.961 . S
C782 H796 0.961 . S
C783 C780 1.539 . S
C783 H797 0.958 . S
C783 H798 0.961 . S
C783 H799 0.960 . S
H784 C768 0.931 . S
H785 C773 0.929 . S
H786 C774 0.960 . S
H787 C774 0.962 . S
H788 C774 0.960 . S
H789 C775 0.961 . S
H790 C775 0.961 . S
H791 C775 0.961 . S
H792 C776 0.931 . S
H793 C781 0.930 . S
H794 C782 0.956 . S
H795 C782 0.961 . S
H796 C782 0.961 . S
H797 C783 0.958 . S
H798 C783 0.961 . S
H799 C783 0.960 . S
C800 C801 1.391 . S
C800 C802 1.394 . S
C800 H816 0.931 . S
C801 C800 1.391 . S
C801 C805 1.376 . S
C802 C800 1.394 . S
C802 C803 1.369 . S
C802 C806 1.531 . S
C803 C802 1.369 . S
C803 C804 1.410 . S
C803 C811 1.503 . S
C804 C803 1.410 . S
C804 C805 1.392 . S
C804 C807 1.511 . S
C805 C801 1.376 . S
C805 C804 1.392 . S
C805 H817 0.929 . S
C806 C802 1.531 . S
C806 H818 0.960 . S
C806 H819 0.962 . S
C806 H820 0.960 . S
C807 C804 1.511 . S
C807 H821 0.961 . S
C807 H822 0.961 . S
C807 H823 0.961 . S
C808 C809 1.370 . S
C808 C810 1.363 . S
C808 H824 0.931 . S
C809 C808 1.370 . S
C809 C813 1.408 . S
C810 C808 1.363 . S
C810 C811 1.370 1_556 S
C810 C814 1.524 1_556 S
C811 C803 1.503 . S
C811 C810 1.370 1_554 S
C811 C812 1.403 1_554 S
C812 C811 1.403 1_556 S
C812 C813 1.404 . S
C812 C815 1.539 . S
C813 C809 1.408 . S
C813 C812 1.404 . S
C813 H825 0.930 . S
C814 C810 1.524 1_554 S
C814 H826 0.956 . S
C814 H827 0.961 . S
C814 H828 0.961 . S
C815 C812 1.539 . S
C815 H829 0.958 1_556 S
C815 H830 0.961 . S
C815 H831 0.960 1_556 S
H816 C800 0.931 . S
H817 C805 0.929 . S
H818 C806 0.960 . S
H819 C806 0.962 . S
H820 C806 0.960 . S
H821 C807 0.961 . S
H822 C807 0.961 . S
H823 C807 0.961 . S
H824 C808 0.931 . S
H825 C813 0.930 . S
H826 C814 0.956 . S
H827 C814 0.961 . S
H828 C814 0.961 . S
H829 C815 0.958 1_554 S
H830 C815 0.961 . S
H831 C815 0.960 1_554 S
C832 C833 1.391 . S
C832 C834 1.394 . S
C832 H848 0.931 . S
C833 C832 1.391 . S
C833 C837 1.376 . S
C834 C832 1.394 . S
C834 C835 1.369 . S
C834 C838 1.531 . S
C835 C834 1.369 . S
C835 C836 1.410 . S
C835 C843 1.503 . S
C836 C835 1.410 . S
C836 C837 1.392 . S
C836 C839 1.511 . S
C837 C833 1.376 . S
C837 C836 1.392 . S
C837 H849 0.929 . S
C838 C834 1.531 . S
C838 H850 0.960 . S
C838 H851 0.962 . S
C838 H852 0.960 . S
C839 C836 1.511 . S
C839 H853 0.961 . S
C839 H854 0.961 . S
C839 H855 0.961 . S
C840 C841 1.370 . S
C840 C842 1.363 . S
C840 H856 0.931 . S
C841 C840 1.370 . S
C841 C845 1.408 . S
C842 C840 1.363 . S
C842 C843 1.370 . S
C842 C846 1.524 . S
C843 C835 1.503 . S
C843 C842 1.370 . S
C843 C844 1.403 . S
C844 C843 1.403 . S
C844 C845 1.404 . S
C844 C847 1.539 . S
C845 C841 1.408 . S
C845 C844 1.404 . S
C845 H857 0.930 . S
C846 C842 1.524 . S
C846 H858 0.956 . S
C846 H859 0.961 . S
C846 H860 0.961 . S
C847 C844 1.539 . S
C847 H861 0.958 . S
C847 H862 0.961 . S
C847 H863 0.960 . S
H848 C832 0.931 . S
H849 C837 0.929 . S
H850 C838 0.960 . S
H851 C838 0.962 . S
H852 C838 0.960 . S
H853 C839 0.961 . S
H854 C839 0.961 . S
H855 C839 0.961 . S
H856 C840 0.931 . S
H857 C845 0.930 . S
H858 C846 0.956 . S
H859 C846 0.961 . S
H860 C846 0.961 . S
H861 C847 0.958 . S
H862 C847 0.961 . S
H863 C847 0.960 . S
C864 C865 1.391 . S
C864 C866 1.394 . S
C864 H880 0.931 . S
C865 C864 1.391 . S
C865 C869 1.376 . S
C866 C864 1.394 . S
C866 C867 1.369 . S
C866 C870 1.531 . S
C867 C866 1.369 . S
C867 C868 1.410 . S
C867 C875 1.503 . S
C868 C867 1.410 . S
C868 C869 1.392 . S
C868 C871 1.511 . S
C869 C865 1.376 . S
C869 C868 1.392 . S
C869 H881 0.929 . S
C870 C866 1.531 . S
C870 H882 0.960 . S
C870 H883 0.962 . S
C870 H884 0.960 . S
C871 C868 1.511 . S
C871 H885 0.961 . S
C871 H886 0.961 . S
C871 H887 0.961 . S
C872 C873 1.370 . S
C872 C874 1.363 . S
C872 H888 0.931 . S
C873 C872 1.370 . S
C873 C877 1.408 . S
C874 C872 1.363 . S
C874 C875 1.370 . S
C874 C878 1.524 . S
C875 C867 1.503 . S
C875 C874 1.370 . S
C875 C876 1.403 . S
C876 C875 1.403 . S
C876 C877 1.404 . S
C876 C879 1.539 . S
C877 C873 1.408 . S
C877 C876 1.404 . S
C877 H889 0.930 . S
C878 C874 1.524 . S
C878 H890 0.956 . S
C878 H891 0.961 . S
C878 H892 0.961 . S
C879 C876 1.539 . S
C879 H893 0.958 . S
C879 H894 0.961 . S
C879 H895 0.960 . S
H880 C864 0.931 . S
H881 C869 0.929 . S
H882 C870 0.960 . S
H883 C870 0.962 . S
H884 C870 0.960 . S
H885 C871 0.961 . S
H886 C871 0.961 . S
H887 C871 0.961 . S
H888 C872 0.931 . S
H889 C877 0.930 . S
H890 C878 0.956 . S
H891 C878 0.961 . S
H892 C878 0.961 . S
H893 C879 0.958 . S
H894 C879 0.961 . S
H895 C879 0.960 . S
C896 C897 1.391 . S
C896 C898 1.394 . S
C896 H912 0.931 . S
C897 C896 1.391 . S
C897 C901 1.376 . S
C898 C896 1.394 . S
C898 C899 1.369 . S
C898 C902 1.531 . S
C899 C898 1.369 . S
C899 C900 1.410 . S
C899 C907 1.503 . S
C900 C899 1.410 . S
C900 C901 1.392 . S
C900 C903 1.511 . S
C901 C897 1.376 . S
C901 C900 1.392 . S
C901 H913 0.929 . S
C902 C898 1.531 . S
C902 H914 0.960 . S
C902 H915 0.962 . S
C902 H916 0.960 . S
C903 C900 1.511 . S
C903 H917 0.961 . S
C903 H918 0.961 . S
C903 H919 0.961 . S
C904 C905 1.370 . S
C904 C906 1.363 . S
C904 H920 0.931 . S
C905 C904 1.370 . S
C905 C909 1.408 . S
C906 C904 1.363 . S
C906 C907 1.370 1_556 S
C906 C910 1.524 1_556 S
C907 C899 1.503 . S
C907 C906 1.370 1_554 S
C907 C908 1.403 1_554 S
C908 C907 1.403 1_556 S
C908 C909 1.404 . S
C908 C911 1.539 1_556 S
C909 C905 1.408 . S
C909 C908 1.404 . S
C909 H921 0.930 . S
C910 C906 1.524 1_554 S
C910 H922 0.956 . S
C910 H923 0.961 . S
C910 H924 0.961 1_554 S
C911 C908 1.539 1_554 S
C911 H925 0.958 . S
C911 H926 0.961 1_554 S
C911 H927 0.960 . S
H912 C896 0.931 . S
H913 C901 0.929 . S
H914 C902 0.960 . S
H915 C902 0.962 . S
H916 C902 0.960 . S
H917 C903 0.961 . S
H918 C903 0.961 . S
H919 C903 0.961 . S
H920 C904 0.931 . S
H921 C909 0.930 . S
H922 C910 0.956 . S
H923 C910 0.961 . S
H924 C910 0.961 1_556 S
H925 C911 0.958 . S
H926 C911 0.961 1_556 S
H927 C911 0.960 . S
C928 C929 1.391 . S
C928 C930 1.394 . S
C928 H944 0.931 . S
C929 C928 1.391 . S
C929 C933 1.376 . S
C930 C928 1.394 . S
C930 C931 1.369 . S
C930 C934 1.531 . S
C931 C930 1.369 . S
C931 C932 1.410 . S
C931 C939 1.503 . S
C932 C931 1.410 . S
C932 C933 1.392 . S
C932 C935 1.511 . S
C933 C929 1.376 . S
C933 C932 1.392 . S
C933 H945 0.929 . S
C934 C930 1.531 . S
C934 H946 0.960 . S
C934 H947 0.962 . S
C934 H948 0.960 . S
C935 C932 1.511 . S
C935 H949 0.961 . S
C935 H950 0.961 . S
C935 H951 0.961 . S
C936 C937 1.370 . S
C936 C938 1.363 . S
C936 H952 0.931 . S
C937 C936 1.370 . S
C937 C941 1.408 . S
C938 C936 1.363 . S
C938 C939 1.370 . S
C938 C942 1.524 . S
C939 C931 1.503 . S
C939 C938 1.370 . S
C939 C940 1.403 . S
C940 C939 1.403 . S
C940 C941 1.404 . S
C940 C943 1.539 . S
C941 C937 1.408 . S
C941 C940 1.404 . S
C941 H953 0.930 . S
C942 C938 1.524 . S
C942 H954 0.956 . S
C942 H955 0.961 . S
C942 H956 0.961 . S
C943 C940 1.539 . S
C943 H957 0.958 . S
C943 H958 0.961 . S
C943 H959 0.960 . S
H944 C928 0.931 . S
H945 C933 0.929 . S
H946 C934 0.960 . S
H947 C934 0.962 . S
H948 C934 0.960 . S
H949 C935 0.961 . S
H950 C935 0.961 . S
H951 C935 0.961 . S
H952 C936 0.931 . S
H953 C941 0.930 . S
H954 C942 0.956 . S
H955 C942 0.961 . S
H956 C942 0.961 . S
H957 C943 0.958 . S
H958 C943 0.961 . S
H959 C943 0.960 . S
C960 C961 1.391 . S
C960 C962 1.394 . S
C960 H976 0.931 . S
C961 C960 1.391 . S
C961 C965 1.376 . S
C962 C960 1.394 . S
C962 C963 1.369 . S
C962 C966 1.531 . S
C963 C962 1.369 . S
C963 C964 1.410 . S
C963 C971 1.503 . S
C964 C963 1.410 . S
C964 C965 1.392 . S
C964 C967 1.511 . S
C965 C961 1.376 . S
C965 C964 1.392 . S
C965 H977 0.929 . S
C966 C962 1.531 . S
C966 H978 0.960 . S
C966 H979 0.962 . S
C966 H980 0.960 . S
C967 C964 1.511 . S
C967 H981 0.961 . S
C967 H982 0.961 . S
C967 H983 0.961 . S
C968 C969 1.370 . S
C968 C970 1.363 . S
C968 H984 0.931 . S
C969 C968 1.370 . S
C969 C973 1.408 . S
C970 C968 1.363 . S
C970 C971 1.370 . S
C970 C974 1.524 . S
C971 C963 1.503 . S
C971 C970 1.370 . S
C971 C972 1.403 . S
C972 C971 1.403 . S
C972 C973 1.404 . S
C972 C975 1.539 . S
C973 C969 1.408 . S
C973 C972 1.404 . S
C973 H985 0.930 . S
C974 C970 1.524 . S
C974 H986 0.956 . S
C974 H987 0.961 . S
C974 H988 0.961 . S
C975 C972 1.539 . S
C975 H989 0.958 . S
C975 H990 0.961 . S
C975 H991 0.960 . S
H976 C960 0.931 . S
H977 C965 0.929 . S
H978 C966 0.960 . S
H979 C966 0.962 . S
H980 C966 0.960 . S
H981 C967 0.961 . S
H982 C967 0.961 . S
H983 C967 0.961 . S
H984 C968 0.931 . S
H985 C973 0.930 . S
H986 C974 0.956 . S
H987 C974 0.961 . S
H988 C974 0.961 . S
H989 C975 0.958 . S
H990 C975 0.961 . S
H991 C975 0.960 . S
C992 C993 1.391 . S
C992 C994 1.394 . S
C992 H1008 0.931 . S
C993 C992 1.391 . S
C993 C997 1.376 . S
C994 C992 1.394 . S
C994 C995 1.369 1_556 S
C994 C998 1.531 1_556 S
C995 C994 1.369 1_554 S
C995 C996 1.410 1_554 S
C995 C1003 1.503 . S
C996 C995 1.410 1_556 S
C996 C997 1.392 . S
C996 C999 1.511 . S
C997 C993 1.376 . S
C997 C996 1.392 . S
C997 H1009 0.929 . S
C998 C994 1.531 1_554 S
C998 H1010 0.960 . S
C998 H1011 0.962 . S
C998 H1012 0.960 . S
C999 C996 1.511 . S
C999 H1013 0.961 . S
C999 H1014 0.961 1_556 S
C999 H1015 0.961 . S
C1000 C1001 1.370 . S
C1000 C1002 1.363 . S
C1000 H1016 0.931 . S
C1001 C1000 1.370 . S
C1001 C1005 1.408 . S
C1002 C1000 1.363 . S
C1002 C1003 1.370 . S
C1002 C1006 1.524 . S
C1003 C995 1.503 . S
C1003 C1002 1.370 . S
C1003 C1004 1.403 . S
C1004 C1003 1.403 . S
C1004 C1005 1.404 . S
C1004 C1007 1.539 . S
C1005 C1001 1.408 . S
C1005 C1004 1.404 . S
C1005 H1017 0.930 . S
C1006 C1002 1.524 . S
C1006 H1018 0.956 . S
C1006 H1019 0.961 . S
C1006 H1020 0.961 . S
C1007 C1004 1.539 . S
C1007 H1021 0.958 . S
C1007 H1022 0.961 . S
C1007 H1023 0.960 . S
H1008 C992 0.931 . S
H1009 C997 0.929 . S
H1010 C998 0.960 . S
H1011 C998 0.962 . S
H1012 C998 0.960 . S
H1013 C999 0.961 . S
H1014 C999 0.961 1_554 S
H1015 C999 0.961 . S
H1016 C1000 0.931 . S
H1017 C1005 0.930 . S
H1018 C1006 0.956 . S
H1019 C1006 0.961 . S
H1020 C1006 0.961 . S
H1021 C1007 0.958 . S
H1022 C1007 0.961 . S
H1023 C1007 0.960 . S
C1024 C1025 1.391 . S
C1024 C1026 1.394 . S
C1024 H1040 0.931 . S
C1025 C1024 1.391 . S
C1025 C1029 1.376 . S
C1026 C1024 1.394 . S
C1026 C1027 1.369 . S
C1026 C1030 1.531 . S
C1027 C1026 1.369 . S
C1027 C1028 1.410 . S
C1027 C1035 1.503 . S
C1028 C1027 1.410 . S
C1028 C1029 1.392 . S
C1028 C1031 1.511 . S
C1029 C1025 1.376 . S
C1029 C1028 1.392 . S
C1029 H1041 0.929 . S
C1030 C1026 1.531 . S
C1030 H1042 0.960 . S
C1030 H1043 0.962 . S
C1030 H1044 0.960 . S
C1031 C1028 1.511 . S
C1031 H1045 0.961 . S
C1031 H1046 0.961 . S
C1031 H1047 0.961 . S
C1032 C1033 1.370 . S
C1032 C1034 1.363 . S
C1032 H1048 0.931 . S
C1033 C1032 1.370 . S
C1033 C1037 1.408 . S
C1034 C1032 1.363 . S
C1034 C1035 1.370 . S
C1034 C1038 1.524 . S
C1035 C1027 1.503 . S
C1035 C1034 1.370 . S
C1035 C1036 1.403 . S
C1036 C1035 1.403 . S
C1036 C1037 1.404 . S
C1036 C1039 1.539 . S
C1037 C1033 1.408 . S
C1037 C1036 1.404 . S
C1037 H1049 0.930 . S
C1038 C1034 1.524 . S
C1038 H1050 0.956 . S
C1038 H1051 0.961 . S
C1038 H1052 0.961 . S
C1039 C1036 1.539 . S
C1039 H1053 0.958 . S
C1039 H1054 0.961 . S
C1039 H1055 0.960 . S
H1040 C1024 0.931 . S
H1041 C1029 0.929 . S
H1042 C1030 0.960 . S
H1043 C1030 0.962 . S
H1044 C1030 0.960 . S
H1045 C1031 0.961 . S
H1046 C1031 0.961 . S
H1047 C1031 0.961 . S
H1048 C1032 0.931 . S
H1049 C1037 0.930 . S
H1050 C1038 0.956 . S
H1051 C1038 0.961 . S
H1052 C1038 0.961 . S
H1053 C1039 0.958 . S
H1054 C1039 0.961 . S
H1055 C1039 0.960 . S
C1056 C1057 1.391 . S
C1056 C1058 1.394 . S
C1056 H1072 0.931 . S
C1057 C1056 1.391 . S
C1057 C1061 1.376 . S
C1058 C1056 1.394 . S
C1058 C1059 1.369 . S
C1058 C1062 1.531 . S
C1059 C1058 1.369 . S
C1059 C1060 1.410 . S
C1059 C1067 1.503 . S
C1060 C1059 1.410 . S
C1060 C1061 1.392 . S
C1060 C1063 1.511 . S
C1061 C1057 1.376 . S
C1061 C1060 1.392 . S
C1061 H1073 0.929 . S
C1062 C1058 1.531 . S
C1062 H1074 0.960 . S
C1062 H1075 0.962 . S
C1062 H1076 0.960 . S
C1063 C1060 1.511 . S
C1063 H1077 0.961 . S
C1063 H1078 0.961 . S
C1063 H1079 0.961 . S
C1064 C1065 1.370 . S
C1064 C1066 1.363 . S
C1064 H1080 0.931 . S
C1065 C1064 1.370 . S
C1065 C1069 1.408 . S
C1066 C1064 1.363 . S
C1066 C1067 1.370 . S
C1066 C1070 1.524 . S
C1067 C1059 1.503 . S
C1067 C1066 1.370 . S
C1067 C1068 1.403 . S
C1068 C1067 1.403 . S
C1068 C1069 1.404 . S
C1068 C1071 1.539 . S
C1069 C1065 1.408 . S
C1069 C1068 1.404 . S
C1069 H1081 0.930 . S
C1070 C1066 1.524 . S
C1070 H1082 0.956 . S
C1070 H1083 0.961 . S
C1070 H1084 0.961 . S
C1071 C1068 1.539 . S
C1071 H1085 0.958 . S
C1071 H1086 0.961 . S
C1071 H1087 0.960 . S
H1072 C1056 0.931 . S
H1073 C1061 0.929 . S
H1074 C1062 0.960 . S
H1075 C1062 0.962 . S
H1076 C1062 0.960 . S
H1077 C1063 0.961 . S
H1078 C1063 0.961 . S
H1079 C1063 0.961 . S
H1080 C1064 0.931 . S
H1081 C1069 0.930 . S
H1082 C1070 0.956 . S
H1083 C1070 0.961 . S
H1084 C1070 0.961 . S
H1085 C1071 0.958 . S
H1086 C1071 0.961 . S
H1087 C1071 0.960 . S
C1088 C1089 1.391 . S
C1088 C1090 1.394 . S
C1088 H1104 0.931 . S
C1089 C1088 1.391 . S
C1089 C1093 1.376 . S
C1090 C1088 1.394 . S
C1090 C1091 1.369 . S
C1090 C1094 1.531 . S
C1091 C1090 1.369 . S
C1091 C1092 1.410 . S
C1091 C1099 1.503 . S
C1092 C1091 1.410 . S
C1092 C1093 1.392 . S
C1092 C1095 1.511 . S
C1093 C1089 1.376 . S
C1093 C1092 1.392 . S
C1093 H1105 0.929 . S
C1094 C1090 1.531 . S
C1094 H1106 0.960 . S
C1094 H1107 0.962 . S
C1094 H1108 0.960 . S
C1095 C1092 1.511 . S
C1095 H1109 0.961 . S
C1095 H1110 0.961 . S
C1095 H1111 0.961 . S
C1096 C1097 1.370 . S
C1096 C1098 1.363 . S
C1096 H1112 0.931 . S
C1097 C1096 1.370 . S
C1097 C1101 1.408 . S
C1098 C1096 1.363 . S
C1098 C1099 1.370 . S
C1098 C1102 1.524 . S
C1099 C1091 1.503 . S
C1099 C1098 1.370 . S
C1099 C1100 1.403 . S
C1100 C1099 1.403 . S
C1100 C1101 1.404 . S
C1100 C1103 1.539 . S
C1101 C1097 1.408 . S
C1101 C1100 1.404 . S
C1101 H1113 0.930 . S
C1102 C1098 1.524 . S
C1102 H1114 0.956 . S
C1102 H1115 0.961 . S
C1102 H1116 0.961 . S
C1103 C1100 1.539 . S
C1103 H1117 0.958 . S
C1103 H1118 0.961 . S
C1103 H1119 0.960 . S
H1104 C1088 0.931 . S
H1105 C1093 0.929 . S
H1106 C1094 0.960 . S
H1107 C1094 0.962 . S
H1108 C1094 0.960 . S
H1109 C1095 0.961 . S
H1110 C1095 0.961 . S
H1111 C1095 0.961 . S
H1112 C1096 0.931 . S
H1113 C1101 0.930 . S
H1114 C1102 0.956 . S
H1115 C1102 0.961 . S
H1116 C1102 0.961 . S
H1117 C1103 0.958 . S
H1118 C1103 0.961 . S
H1119 C1103 0.960 . S
C1120 C1121 1.391 . S
C1120 C1122 1.394 . S
C1120 H1136 0.931 . S
C1121 C1120 1.391 . S
C1121 C1125 1.376 . S
C1122 C1120 1.394 . S
C1122 C1123 1.369 . S
C1122 C1126 1.531 . S
C1123 C1122 1.369 . S
C1123 C1124 1.410 . S
C1123 C1131 1.503 . S
C1124 C1123 1.410 . S
C1124 C1125 1.392 . S
C1124 C1127 1.511 . S
C1125 C1121 1.376 . S
C1125 C1124 1.392 . S
C1125 H1137 0.929 . S
C1126 C1122 1.531 . S
C1126 H1138 0.960 . S
C1126 H1139 0.962 . S
C1126 H1140 0.960 . S
C1127 C1124 1.511 . S
C1127 H1141 0.961 . S
C1127 H1142 0.961 . S
C1127 H1143 0.961 . S
C1128 C1129 1.370 . S
C1128 C1130 1.363 . S
C1128 H1144 0.931 . S
C1129 C1128 1.370 . S
C1129 C1133 1.408 . S
C1130 C1128 1.363 . S
C1130 C1131 1.370 . S
C1130 C1134 1.524 . S
C1131 C1123 1.503 . S
C1131 C1130 1.370 . S
C1131 C1132 1.403 . S
C1132 C1131 1.403 . S
C1132 C1133 1.404 . S
C1132 C1135 1.539 . S
C1133 C1129 1.408 . S
C1133 C1132 1.404 . S
C1133 H1145 0.930 . S
C1134 C1130 1.524 . S
C1134 H1146 0.956 . S
C1134 H1147 0.961 . S
C1134 H1148 0.961 . S
C1135 C1132 1.539 . S
C1135 H1149 0.958 . S
C1135 H1150 0.961 . S
C1135 H1151 0.960 . S
H1136 C1120 0.931 . S
H1137 C1125 0.929 . S
H1138 C1126 0.960 . S
H1139 C1126 0.962 . S
H1140 C1126 0.960 . S
H1141 C1127 0.961 . S
H1142 C1127 0.961 . S
H1143 C1127 0.961 . S
H1144 C1128 0.931 . S
H1145 C1133 0.930 . S
H1146 C1134 0.956 . S
H1147 C1134 0.961 . S
H1148 C1134 0.961 . S
H1149 C1135 0.958 . S
H1150 C1135 0.961 . S
H1151 C1135 0.960 . S
C1152 C1153 1.391 . S
C1152 C1154 1.394 . S
C1152 H1168 0.931 . S
C1153 C1152 1.391 . S
C1153 C1157 1.376 . S
C1154 C1152 1.394 . S
C1154 C1155 1.369 . S
C1154 C1158 1.531 . S
C1155 C1154 1.369 . S
C1155 C1156 1.410 . S
C1155 C1163 1.503 . S
C1156 C1155 1.410 . S
C1156 C1157 1.392 . S
C1156 C1159 1.511 . S
C1157 C1153 1.376 . S
C1157 C1156 1.392 . S
C1157 H1169 0.929 . S
C1158 C1154 1.531 . S
C1158 H1170 0.960 . S
C1158 H1171 0.962 . S
C1158 H1172 0.960 . S
C1159 C1156 1.511 . S
C1159 H1173 0.961 . S
C1159 H1174 0.961 . S
C1159 H1175 0.961 . S
C1160 C1161 1.370 . S
C1160 C1162 1.363 . S
C1160 H1176 0.931 . S
C1161 C1160 1.370 . S
C1161 C1165 1.408 . S
C1162 C1160 1.363 . S
C1162 C1163 1.370 . S
C1162 C1166 1.524 . S
C1163 C1155 1.503 . S
C1163 C1162 1.370 . S
C1163 C1164 1.403 . S
C1164 C1163 1.403 . S
C1164 C1165 1.404 . S
C1164 C1167 1.539 . S
C1165 C1161 1.408 . S
C1165 C1164 1.404 . S
C1165 H1177 0.930 . S
C1166 C1162 1.524 . S
C1166 H1178 0.956 . S
C1166 H1179 0.961 . S
C1166 H1180 0.961 . S
C1167 C1164 1.539 . S
C1167 H1181 0.958 . S
C1167 H1182 0.961 . S
C1167 H1183 0.960 . S
H1168 C1152 0.931 . S
H1169 C1157 0.929 . S
H1170 C1158 0.960 . S
H1171 C1158 0.962 . S
H1172 C1158 0.960 . S
H1173 C1159 0.961 . S
H1174 C1159 0.961 . S
H1175 C1159 0.961 . S
H1176 C1160 0.931 . S
H1177 C1165 0.930 . S
H1178 C1166 0.956 . S
H1179 C1166 0.961 . S
H1180 C1166 0.961 . S
H1181 C1167 0.958 . S
H1182 C1167 0.961 . S
H1183 C1167 0.960 . S
C1184 C1185 1.391 . S
C1184 C1186 1.394 . S
C1184 H1200 0.931 . S
C1185 C1184 1.391 . S
C1185 C1189 1.376 . S
C1186 C1184 1.394 . S
C1186 C1187 1.369 . S
C1186 C1190 1.531 . S
C1187 C1186 1.369 . S
C1187 C1188 1.410 . S
C1187 C1195 1.503 . S
C1188 C1187 1.410 . S
C1188 C1189 1.392 . S
C1188 C1191 1.511 . S
C1189 C1185 1.376 . S
C1189 C1188 1.392 . S
C1189 H1201 0.929 . S
C1190 C1186 1.531 . S
C1190 H1202 0.960 . S
C1190 H1203 0.962 . S
C1190 H1204 0.960 . S
C1191 C1188 1.511 . S
C1191 H1205 0.961 . S
C1191 H1206 0.961 . S
C1191 H1207 0.961 . S
C1192 C1193 1.370 . S
C1192 C1194 1.363 . S
C1192 H1208 0.931 . S
C1193 C1192 1.370 . S
C1193 C1197 1.408 . S
C1194 C1192 1.363 . S
C1194 C1195 1.370 . S
C1194 C1198 1.524 . S
C1195 C1187 1.503 . S
C1195 C1194 1.370 . S
C1195 C1196 1.403 . S
C1196 C1195 1.403 . S
C1196 C1197 1.404 . S
C1196 C1199 1.539 . S
C1197 C1193 1.408 . S
C1197 C1196 1.404 . S
C1197 H1209 0.930 . S
C1198 C1194 1.524 . S
C1198 H1210 0.956 . S
C1198 H1211 0.961 . S
C1198 H1212 0.961 . S
C1199 C1196 1.539 . S
C1199 H1213 0.958 . S
C1199 H1214 0.961 . S
C1199 H1215 0.960 . S
H1200 C1184 0.931 . S
H1201 C1189 0.929 . S
H1202 C1190 0.960 . S
H1203 C1190 0.962 . S
H1204 C1190 0.960 . S
H1205 C1191 0.961 . S
H1206 C1191 0.961 . S
H1207 C1191 0.961 . S
H1208 C1192 0.931 . S
H1209 C1197 0.930 . S
H1210 C1198 0.956 . S
H1211 C1198 0.961 . S
H1212 C1198 0.961 . S
H1213 C1199 0.958 . S
H1214 C1199 0.961 . S
H1215 C1199 0.960 . S
C1216 C1217 1.391 . S
C1216 C1218 1.394 . S
C1216 H1232 0.931 . S
C1217 C1216 1.391 . S
C1217 C1221 1.376 . S
C1218 C1216 1.394 . S
C1218 C1219 1.369 . S
C1218 C1222 1.531 . S
C1219 C1218 1.369 . S
C1219 C1220 1.410 . S
C1219 C1227 1.503 . S
C1220 C1219 1.410 . S
C1220 C1221 1.392 . S
C1220 C1223 1.511 . S
C1221 C1217 1.376 . S
C1221 C1220 1.392 . S
C1221 H1233 0.929 . S
C1222 C1218 1.531 . S
C1222 H1234 0.960 . S
C1222 H1235 0.962 . S
C1222 H1236 0.960 . S
C1223 C1220 1.511 . S
C1223 H1237 0.961 . S
C1223 H1238 0.961 . S
C1223 H1239 0.961 . S
C1224 C1225 1.370 . S
C1224 C1226 1.363 . S
C1224 H1240 0.931 . S
C1225 C1224 1.370 . S
C1225 C1229 1.408 . S
C1226 C1224 1.363 . S
C1226 C1227 1.370 1_556 S
C1226 C1230 1.524 1_556 S
C1227 C1219 1.503 . S
C1227 C1226 1.370 1_554 S
C1227 C1228 1.403 1_554 S
C1228 C1227 1.403 1_556 S
C1228 C1229 1.404 . S
C1228 C1231 1.539 1_556 S
C1229 C1225 1.408 . S
C1229 C1228 1.404 . S
C1229 H1241 0.930 . S
C1230 C1226 1.524 1_554 S
C1230 H1242 0.956 . S
C1230 H1243 0.961 . S
C1230 H1244 0.961 1_554 S
C1231 C1228 1.539 1_554 S
C1231 H1245 0.958 . S
C1231 H1246 0.961 . S
C1231 H1247 0.960 . S
H1232 C1216 0.931 . S
H1233 C1221 0.929 . S
H1234 C1222 0.960 . S
H1235 C1222 0.962 . S
H1236 C1222 0.960 . S
H1237 C1223 0.961 . S
H1238 C1223 0.961 . S
H1239 C1223 0.961 . S
H1240 C1224 0.931 . S
H1241 C1229 0.930 . S
H1242 C1230 0.956 . S
H1243 C1230 0.961 . S
H1244 C1230 0.961 1_556 S
H1245 C1231 0.958 . S
H1246 C1231 0.961 . S
H1247 C1231 0.960 . S
C225 C90 1.416 . S
C233 C6 1.400 . S
C257 C104 1.418 . S
C265 C20 1.400 . S
C289 C34 1.430 . S
C297 C62 1.414 . S
C321 C48 1.429 . S
C329 C76 1.414 . S
C353 C118 1.400 . S
C361 C202 1.403 . S
C385 C216 1.435 . S
C393 C132 1.404 . S
C417 C146 1.408 . S
C425 C174 1.422 . S
C449 C160 1.434 . S
C457 C188 1.403 . S
C481 C9 1.362 . S
C489 C149 1.357 . S
C513 C23 1.320 . S
C521 C163 1.365 . S
C545 C37 1.312 . S
C553 C121 1.363 . S
C577 C51 1.336 . S
C585 C135 1.364 . S
C609 C65 1.349 1_556 S
C617 C205 1.362 . S
C641 C219 1.311 . S
C649 C79 1.358 . S
C673 C93 1.348 . S
C681 C177 1.338 . S
C705 C191 1.350 . S
C713 C107 1.338 . S
C737 C190 0.839 . S
C745 C8 0.815 . S
C769 C22 0.795 . S
C777 C204 0.833 . S
C801 C218 0.787 . S
C809 C36 0.836 . S
C833 C176 0.774 . S
C841 C50 0.842 . S
C865 C162 0.812 . S
C873 C64 0.826 . S
C897 C78 0.848 . S
C905 C120 0.817 . S
C929 C92 0.878 . S
C937 C134 0.802 . S
C961 C106 0.766 . S
C969 C148 0.846 . S
C993 C189 1.485 . S
C1001 C7 1.505 . S
C1025 C21 1.519 . S
C1033 C203 1.497 . S
C1057 C35 1.498 . S
C1065 C217 1.511 . S
C1089 C175 1.494 . S
C1097 C49 1.501 . S
C1121 C161 1.482 . S
C1129 C63 1.513 . S
C1153 C119 1.521 . S
C1161 C77 1.498 . S
C1185 C91 1.514 . S
C1193 C133 1.496 . S
C1217 C147 1.482 . S
C1225 C105 1.508 . S
