# Generated by pormake.
# Topology una, (4)-cn, num edge types: 1
# Building blocks:
#     Node 0, Type 0, BuildingBlock: QUQFOY_clean_sbu_3, # of connection points: 4
#     Node 1, Type 0, BuildingBlock: QUQFOY_clean_sbu_3, # of connection points: 4
#     Node 2, Type 0, BuildingBlock: QUQFOY_clean_sbu_3, # of connection points: 4
#     Node 3, Type 0, BuildingBlock: QUQFOY_clean_sbu_3, # of connection points: 4
#     Node 4, Type 0, BuildingBlock: QUQFOY_clean_sbu_3, # of connection points: 4
#     Node 5, Type 0, BuildingBlock: QUQFOY_clean_sbu_3, # of connection points: 4
#     Node 6, Type 0, BuildingBlock: QUQFOY_clean_sbu_3, # of connection points: 4
#     Node 7, Type 0, BuildingBlock: QUQFOY_clean_sbu_3, # of connection points: 4
#     Node 8, Type 0, BuildingBlock: QUQFOY_clean_sbu_3, # of connection points: 4
#     Node 9, Type 0, BuildingBlock: QUQFOY_clean_sbu_3, # of connection points: 4
#     Node 10, Type 0, BuildingBlock: QUQFOY_clean_sbu_3, # of connection points: 4
#     Node 11, Type 0, BuildingBlock: QUQFOY_clean_sbu_3, # of connection points: 4
#     Edge 12, Type (0, 0), BuildingBlock: ZUJKAS_clean_linker_0, # of connection points: 2
#     Edge 13, Type (0, 0), BuildingBlock: ZUJKAS_clean_linker_0, # of connection points: 2
#     Edge 14, Type (0, 0), BuildingBlock: ZUJKAS_clean_linker_0, # of connection points: 2
#     Edge 15, Type (0, 0), BuildingBlock: ZUJKAS_clean_linker_0, # of connection points: 2
#     Edge 16, Type (0, 0), BuildingBlock: ZUJKAS_clean_linker_0, # of connection points: 2
#     Edge 17, Type (0, 0), BuildingBlock: ZUJKAS_clean_linker_0, # of connection points: 2
#     Edge 18, Type (0, 0), BuildingBlock: ZUJKAS_clean_linker_0, # of connection points: 2
#     Edge 19, Type (0, 0), BuildingBlock: ZUJKAS_clean_linker_0, # of connection points: 2
#     Edge 20, Type (0, 0), BuildingBlock: ZUJKAS_clean_linker_0, # of connection points: 2
#     Edge 21, Type (0, 0), BuildingBlock: ZUJKAS_clean_linker_0, # of connection points: 2
#     Edge 22, Type (0, 0), BuildingBlock: ZUJKAS_clean_linker_0, # of connection points: 2
#     Edge 23, Type (0, 0), BuildingBlock: ZUJKAS_clean_linker_0, # of connection points: 2
#     Edge 24, Type (0, 0), BuildingBlock: ZUJKAS_clean_linker_0, # of connection points: 2
#     Edge 25, Type (0, 0), BuildingBlock: ZUJKAS_clean_linker_0, # of connection points: 2
#     Edge 26, Type (0, 0), BuildingBlock: ZUJKAS_clean_linker_0, # of connection points: 2
#     Edge 27, Type (0, 0), BuildingBlock: ZUJKAS_clean_linker_0, # of connection points: 2
#     Edge 28, Type (0, 0), BuildingBlock: ZUJKAS_clean_linker_0, # of connection points: 2
#     Edge 29, Type (0, 0), BuildingBlock: ZUJKAS_clean_linker_0, # of connection points: 2
#     Edge 30, Type (0, 0), BuildingBlock: ZUJKAS_clean_linker_0, # of connection points: 2
#     Edge 31, Type (0, 0), BuildingBlock: ZUJKAS_clean_linker_0, # of connection points: 2
#     Edge 32, Type (0, 0), BuildingBlock: ZUJKAS_clean_linker_0, # of connection points: 2
#     Edge 33, Type (0, 0), BuildingBlock: ZUJKAS_clean_linker_0, # of connection points: 2
#     Edge 34, Type (0, 0), BuildingBlock: ZUJKAS_clean_linker_0, # of connection points: 2
#     Edge 35, Type (0, 0), BuildingBlock: ZUJKAS_clean_linker_0, # of connection points: 2
# Relax obj value: 0.027
# Max RMSD: 0.045
# Mean RMSD: 0.045
data_MOF--net-una--node1-QUQFOY_clean_sbu_3--edge1-ZUJKAS_clean_linker_0
_symmetry_space_group_name_H-M    P1
_symmetry_Int_Tables_number       1
_symmetry_cell_setting            triclinic
loop_
_symmetry_equiv_pos_as_xyz
'x, y, z'
_cell_length_a     76.503976
_cell_length_b     76.506548
_cell_length_c     29.100923
_cell_angle_alpha  89.940543
_cell_angle_beta   90.018565
_cell_angle_gamma 119.98554
loop_
_atom_site_label
_atom_site_type_symbol
_atom_site_fract_x
_atom_site_fract_y
_atom_site_fract_z
_atom_type_partial_charge
C0 C 0.16215 0.45554 0.98004 0.0
O1 O 0.16975 0.47241 0.0006 0.0
Cd2 Cd 0.1532 0.47913 0.06184 0.0
O3 O 0.14468 0.44119 0.99097 0.0
Cd4 Cd 0.11697 0.43439 0.04545 0.0
C5 C 0.14809 0.4414 0.13468 0.0
O6 O 0.11962 0.46701 0.03487 0.0
O7 O 0.10051 0.4495 0.0909 0.0
O8 O 0.09536 0.41527 0.9819 0.0
C9 C 0.10725 0.46515 0.06596 0.0
O10 O 0.15588 0.46019 0.1264 0.0
C11 C 0.08288 0.40034 0.00583 0.0
O12 O 0.13427 0.42835 0.10894 0.0
O13 O 0.08644 0.40098 0.04864 0.0
C14 C 0.70503 0.16477 0.1685 0.0
O15 O 0.69759 0.17228 0.19577 0.0
Cd16 Cd 0.6746 0.15291 0.25592 0.0
O17 O 0.70099 0.14655 0.17309 0.0
Cd18 Cd 0.68154 0.11692 0.22362 0.0
C19 C 0.70671 0.14309 0.31859 0.0
O20 O 0.65228 0.12127 0.22028 0.0
O21 O 0.64905 0.09728 0.26463 0.0
O22 O 0.68113 0.10037 0.15218 0.0
C23 C 0.64104 0.10657 0.24609 0.0
O24 O 0.69601 0.15153 0.31606 0.0
C25 C 0.68158 0.08558 0.17065 0.0
O26 O 0.7055 0.13071 0.28782 0.0
O27 O 0.6824 0.08544 0.21424 0.0
C28 C 0.53337 0.70847 0.30655 0.0
O29 O 0.51706 0.69962 0.32941 0.0
Cd30 Cd 0.51214 0.67706 0.39127 0.0
O31 O 0.54789 0.70535 0.31562 0.0
Cd32 Cd 0.55636 0.68522 0.36865 0.0
C33 C 0.55184 0.71014 0.45931 0.0
O34 O 0.52343 0.65535 0.36105 0.0
O35 O 0.5422 0.6536 0.41386 0.0
O36 O 0.57442 0.68431 0.30101 0.0
C37 C 0.526 0.64477 0.3908 0.0
O38 O 0.53287 0.69917 0.45345 0.0
C39 C 0.58917 0.68501 0.32254 0.0
O40 O 0.56421 0.70912 0.43169 0.0
O41 O 0.58899 0.68624 0.36606 0.0
C42 C 0.82013 0.52959 0.48684 0.0
O43 O 0.81267 0.51366 0.51113 0.0
Cd44 Cd 0.83021 0.50931 0.57435 0.0
O45 O 0.83782 0.54418 0.49495 0.0
Cd46 Cd 0.86636 0.55321 0.5481 0.0
C47 C 0.83742 0.54971 0.63977 0.0
O48 O 0.86338 0.52026 0.54618 0.0
O49 O 0.88476 0.54066 0.5957 0.0
O50 O 0.88806 0.56782 0.48208 0.0
C51 C 0.87682 0.52365 0.57577 0.0
O52 O 0.82922 0.53067 0.63507 0.0
C53 C 0.89927 0.58508 0.49959 0.0
O54 O 0.85067 0.56168 0.61131 0.0
O55 O 0.89502 0.58789 0.54015 0.0
C56 C 0.28297 0.83083 0.66985 0.0
O57 O 0.29206 0.82369 0.69298 0.0
Cd58 Cd 0.31535 0.84201 0.75317 0.0
O59 O 0.28614 0.84857 0.67769 0.0
Cd60 Cd 0.30675 0.87779 0.72863 0.0
C61 C 0.28313 0.84939 0.82222 0.0
O62 O 0.33649 0.87458 0.72056 0.0
O63 O 0.33946 0.89685 0.7698 0.0
O64 O 0.30768 0.89654 0.66042 0.0
C65 C 0.34768 0.88848 0.74812 0.0
O66 O 0.29397 0.84127 0.81606 0.0
C67 C 0.306 0.91014 0.68145 0.0
O68 O 0.28386 0.8625 0.7941 0.0
O69 O 0.30414 0.90849 0.72488 0.0
C70 C 0.45692 0.28581 0.80104 0.0
O71 O 0.47302 0.29506 0.82447 0.0
Cd72 Cd 0.4761 0.31636 0.88746 0.0
O73 O 0.44176 0.28791 0.81015 0.0
Cd74 Cd 0.43153 0.30642 0.86377 0.0
C75 C 0.43666 0.28136 0.95347 0.0
O76 O 0.46368 0.33727 0.85793 0.0
O77 O 0.44413 0.33765 0.91044 0.0
O78 O 0.41371 0.30706 0.79544 0.0
C79 C 0.46048 0.34721 0.8881 0.0
O80 O 0.45557 0.29295 0.94802 0.0
C81 C 0.3983 0.3052 0.81619 0.0
O82 O 0.42411 0.28214 0.926 0.0
O83 O 0.39805 0.30355 0.85968 0.0
C84 C 0.53407 0.82856 0.92793 0.0
O85 O 0.51789 0.82119 0.90461 0.0
Cd86 Cd 0.51298 0.83908 0.84309 0.0
O87 O 0.54862 0.84625 0.91941 0.0
Cd88 Cd 0.5572 0.87487 0.8666 0.0
C89 C 0.55229 0.84572 0.77444 0.0
O90 O 0.5243 0.87196 0.87398 0.0
O91 O 0.54383 0.89383 0.82417 0.0
O92 O 0.57542 0.8943 0.93368 0.0
C93 C 0.52723 0.88576 0.8458 0.0
O94 O 0.53332 0.83774 0.78022 0.0
C95 C 0.59068 0.90752 0.91184 0.0
O96 O 0.56463 0.85891 0.80241 0.0
O97 O 0.59066 0.90537 0.86854 0.0
C98 C 0.70062 0.53251 0.11013 0.0
O99 O 0.69148 0.51639 0.08674 0.0
Cd100 Cd 0.6694 0.51208 0.02448 0.0
O101 O 0.6982 0.5475 0.1013 0.0
Cd102 Cd 0.67889 0.55662 0.04701 0.0
C103 C 0.70344 0.55112 0.95661 0.0
O104 O 0.64838 0.52427 0.05431 0.0
O105 O 0.6476 0.54311 0.00037 0.0
O106 O 0.67684 0.5752 0.11252 0.0
C107 C 0.63822 0.5271 0.02396 0.0
O108 O 0.69194 0.5322 0.96216 0.0
C109 C 0.67951 0.59049 0.08975 0.0
O110 O 0.70281 0.56364 0.98438 0.0
O111 O 0.68237 0.5903 0.0468 0.0
C112 C 0.16483 0.7088 0.29307 0.0
O113 O 0.17282 0.7005 0.27008 0.0
Cd114 Cd 0.15662 0.67923 0.20543 0.0
O115 O 0.14726 0.70561 0.28297 0.0
Cd116 Cd 0.11966 0.68588 0.22748 0.0
C117 C 0.15008 0.71299 0.1397 0.0
O118 O 0.12309 0.65618 0.23009 0.0
O119 O 0.10383 0.65614 0.176 0.0
O120 O 0.09701 0.67734 0.29191 0.0
C121 C 0.11077 0.64663 0.19811 0.0
O122 O 0.15846 0.70236 0.14542 0.0
C123 C 0.08532 0.68265 0.27377 0.0
O124 O 0.13606 0.71108 0.16648 0.0
O125 O 0.08975 0.69008 0.23351 0.0
C126 C 0.4562 0.16475 0.42404 0.0
O127 O 0.47221 0.17137 0.40031 0.0
Cd128 Cd 0.47563 0.15208 0.34007 0.0
O129 O 0.44121 0.14719 0.41666 0.0
Cd130 Cd 0.43081 0.11731 0.36674 0.0
C131 C 0.43566 0.14546 0.27275 0.0
O132 O 0.46335 0.11963 0.37426 0.0
O133 O 0.44331 0.09696 0.32669 0.0
O134 O 0.41311 0.10109 0.43709 0.0
C135 C 0.4601 0.1053 0.34756 0.0
O136 O 0.45461 0.15317 0.2784 0.0
C137 C 0.39787 0.08664 0.41782 0.0
O138 O 0.42323 0.13259 0.30121 0.0
O139 O 0.39761 0.08655 0.37415 0.0
C140 C 0.2847 0.45478 0.61124 0.0
O141 O 0.29407 0.47161 0.59051 0.0
Cd142 Cd 0.31665 0.47771 0.52808 0.0
O143 O 0.28739 0.4402 0.59996 0.0
Cd144 Cd 0.30755 0.43282 0.54463 0.0
C145 C 0.28306 0.44004 0.45665 0.0
O146 O 0.33802 0.46516 0.55337 0.0
O147 O 0.33859 0.44731 0.49702 0.0
O148 O 0.31043 0.41397 0.60834 0.0
C149 C 0.34801 0.46305 0.52142 0.0
O150 O 0.29436 0.45881 0.46459 0.0
C151 C 0.30751 0.39877 0.58487 0.0
O152 O 0.28374 0.42689 0.48226 0.0
O153 O 0.30414 0.39914 0.5422 0.0
C154 C 0.82003 0.2816 0.77989 0.0
O155 O 0.81188 0.28839 0.75256 0.0
Cd156 Cd 0.83001 0.3104 0.68984 0.0
O157 O 0.8382 0.28572 0.77392 0.0
Cd158 Cd 0.86678 0.30431 0.72036 0.0
C159 C 0.83922 0.27774 0.62798 0.0
O160 O 0.86227 0.33348 0.72228 0.0
O161 O 0.88583 0.33636 0.67715 0.0
O162 O 0.88483 0.30609 0.79043 0.0
C163 C 0.87657 0.34445 0.69535 0.0
O164 O 0.8306 0.28828 0.63056 0.0
C165 C 0.89903 0.3049 0.771 0.0
O166 O 0.85214 0.27953 0.65795 0.0
O167 O 0.89818 0.30312 0.72753 0.0
H168 H 0.1721 0.46429 0.20503 0.0
H169 H 0.19012 0.45514 0.26048 0.0
H170 H 0.16199 0.39495 0.20469 0.0
H171 H 0.14374 0.40394 0.14877 0.0
H172 H 0.17503 0.42078 0.32747 0.0
H173 H 0.22551 0.42085 0.18908 0.0
H174 H 0.21081 0.43317 0.18165 0.0
H175 H 0.19859 0.40616 0.18114 0.0
C176 C 0.16949 0.44901 0.20487 0.0
C177 C 0.15663 0.4349 0.17221 0.0
C178 C 0.17976 0.4438 0.23668 0.0
C179 C 0.1775 0.42446 0.23626 0.0
C180 C 0.16399 0.41 0.20522 0.0
H181 H 0.24922 0.40299 0.44405 0.0
H182 H 0.22186 0.39445 0.38875 0.0
C183 C 0.15354 0.41515 0.17349 0.0
C184 C 0.19053 0.42026 0.26632 0.0
H185 H 0.23476 0.41948 0.26528 0.0
C186 C 0.18783 0.41997 0.31402 0.0
C187 C 0.20726 0.4194 0.24837 0.0
C188 C 0.21091 0.41998 0.19729 0.0
C189 C 0.20199 0.41981 0.34441 0.0
C190 C 0.21922 0.41993 0.32644 0.0
C191 C 0.22142 0.41924 0.27876 0.0
C192 C 0.23641 0.42382 0.35631 0.0
C193 C 0.19917 0.42083 0.39545 0.0
C194 C 0.25379 0.44292 0.35524 0.0
C195 C 0.26933 0.44787 0.38669 0.0
C196 C 0.26783 0.43373 0.41963 0.0
C197 C 0.25082 0.4142 0.41907 0.0
C198 C 0.23516 0.40931 0.3877 0.0
H199 H 0.18569 0.42215 0.40364 0.0
H200 H 0.1974 0.40699 0.41217 0.0
H201 H 0.2127 0.43395 0.41052 0.0
H202 H 0.255 0.45429 0.33116 0.0
H203 H 0.28227 0.46299 0.38598 0.0
H204 H 0.84321 0.24404 0.62678 0.0
H205 H 0.82731 0.21568 0.57272 0.0
H206 H 0.80391 0.24752 0.49497 0.0
H207 H 0.81962 0.27571 0.54842 0.0
H208 H 0.7854 0.19378 0.55917 0.0
H209 H 0.82451 0.2249 0.39437 0.0
H210 H 0.83545 0.23624 0.44914 0.0
H211 H 0.81758 0.2416 0.42154 0.0
C212 C 0.8351 0.24518 0.59748 0.0
C213 C 0.83259 0.26207 0.59195 0.0
C214 C 0.82601 0.22897 0.56674 0.0
C215 C 0.81465 0.22961 0.52957 0.0
C216 C 0.81295 0.24686 0.52287 0.0
H217 H 0.70743 0.16121 0.39947 0.0
H218 H 0.73532 0.17724 0.45365 0.0
C219 C 0.82181 0.26291 0.55371 0.0
C220 C 0.80237 0.21156 0.50086 0.0
H221 H 0.78946 0.19796 0.38906 0.0
C222 C 0.78661 0.19442 0.52199 0.0
C223 C 0.80413 0.21223 0.45246 0.0
C224 C 0.82148 0.22967 0.42809 0.0
C225 C 0.77147 0.17881 0.49576 0.0
C226 C 0.77206 0.18056 0.44736 0.0
C227 C 0.78887 0.19673 0.42624 0.0
C228 C 0.75417 0.16781 0.41859 0.0
C229 C 0.75445 0.16107 0.52014 0.0
C230 C 0.75542 0.15701 0.38097 0.0
C231 C 0.73938 0.14773 0.34979 0.0
C232 C 0.72206 0.14951 0.35535 0.0
C233 C 0.72057 0.1596 0.39416 0.0
C234 C 0.73645 0.16864 0.42542 0.0
H235 H 0.75951 0.15825 0.55374 0.0
H236 H 0.74213 0.16439 0.52698 0.0
H237 H 0.74828 0.14715 0.499 0.0
H238 H 0.76906 0.15637 0.37488 0.0
H239 H 0.74102 0.14017 0.32006 0.0
H240 H 0.58887 0.74441 0.46607 0.0
H241 H 0.59897 0.77205 0.52128 0.0
H242 H 0.54165 0.73828 0.59015 0.0
H243 H 0.53141 0.71077 0.5353 0.0
H244 H 0.57622 0.79249 0.53165 0.0
H245 H 0.5834 0.76034 0.69636 0.0
H246 H 0.58509 0.75047 0.64113 0.0
H247 H 0.56085 0.74359 0.66533 0.0
C248 C 0.57861 0.74269 0.49363 0.0
C249 C 0.5593 0.72545 0.49626 0.0
C250 C 0.5844 0.75851 0.52501 0.0
C251 C 0.57113 0.75709 0.55997 0.0
C252 C 0.55224 0.73952 0.56386 0.0
H253 H 0.532 0.8252 0.69784 0.0
H254 H 0.54212 0.80789 0.6428 0.0
C255 C 0.54636 0.72386 0.53229 0.0
C256 C 0.57576 0.77463 0.58942 0.0
H257 H 0.57609 0.78755 0.70165 0.0
C258 C 0.57672 0.79168 0.56881 0.0
C259 C 0.57662 0.77362 0.63779 0.0
C260 C 0.57664 0.75609 0.6615 0.0
C261 C 0.57687 0.80701 0.59552 0.0
C262 C 0.57594 0.80511 0.64388 0.0
C263 C 0.57665 0.78889 0.6645 0.0
C264 C 0.57146 0.81813 0.67332 0.0
C265 C 0.57716 0.82469 0.57181 0.0
C266 C 0.5847 0.82978 0.70852 0.0
C267 C 0.57898 0.83983 0.74002 0.0
C268 C 0.55977 0.838 0.73726 0.0
C269 C 0.54688 0.82689 0.70094 0.0
C270 C 0.55269 0.81709 0.66926 0.0
H271 H 0.584 0.82717 0.53702 0.0
H272 H 0.56144 0.82159 0.56779 0.0
H273 H 0.58568 0.83872 0.59226 0.0
H274 H 0.59917 0.8306 0.71238 0.0
H275 H 0.58919 0.84818 0.7678 0.0
H276 H 0.83963 0.58657 0.64386 0.0
H277 H 0.8225 0.59718 0.69917 0.0
H278 H 0.80099 0.54121 0.77296 0.0
H279 H 0.81784 0.5305 0.71809 0.0
H280 H 0.7797 0.57416 0.71262 0.0
H281 H 0.82093 0.58429 0.87567 0.0
H282 H 0.83196 0.58531 0.82009 0.0
H283 H 0.81523 0.56137 0.84652 0.0
C284 C 0.83165 0.57676 0.67253 0.0
C285 C 0.83 0.55766 0.67656 0.0
C286 C 0.82186 0.58282 0.70397 0.0
C287 C 0.81068 0.57006 0.74035 0.0
C288 C 0.80984 0.55143 0.74558 0.0
H289 H 0.70406 0.53023 0.88144 0.0
H290 H 0.73137 0.54029 0.82607 0.0
C291 C 0.81936 0.54527 0.71399 0.0
C292 C 0.79786 0.57478 0.7699 0.0
H293 H 0.78604 0.57587 0.88244 0.0
C294 C 0.78135 0.57508 0.74971 0.0
C295 C 0.80015 0.5762 0.81817 0.0
C296 C 0.81815 0.57698 0.8414 0.0
C297 C 0.76618 0.57506 0.77683 0.0
C298 C 0.76757 0.5746 0.82519 0.0
C299 C 0.78491 0.57603 0.8453 0.0
C300 C 0.75019 0.56996 0.85525 0.0
C301 C 0.74836 0.57464 0.75357 0.0
C302 C 0.75169 0.58337 0.88993 0.0
C303 C 0.736 0.57768 0.92166 0.0
C304 C 0.71877 0.55833 0.91965 0.0
C305 C 0.71713 0.54522 0.88399 0.0
C306 C 0.73267 0.55099 0.8521 0.0
H307 H 0.75232 0.58125 0.7185 0.0
H308 H 0.73601 0.55875 0.75027 0.0
H309 H 0.74264 0.58301 0.77393 0.0
H310 H 0.7652 0.598 0.89311 0.0
H311 H 0.73777 0.58808 0.94889 0.0
H312 H 0.28244 0.82759 0.89687 0.0
H313 H 0.25509 0.81022 0.95204 0.0
H314 H 0.22229 0.83606 0.88835 0.0
H315 H 0.24972 0.85359 0.83249 0.0
H316 H 0.23463 0.82408 0.01494 0.0
H317 H 0.18573 0.77316 0.87537 0.0
H318 H 0.21269 0.78874 0.86839 0.0
H319 H 0.19701 0.80001 0.86766 0.0
C320 C 0.26958 0.82988 0.89493 0.0
C321 C 0.26815 0.84179 0.85995 0.0
C322 C 0.25399 0.81998 0.92661 0.0
C323 C 0.23661 0.82168 0.92385 0.0
C324 C 0.23554 0.83444 0.89069 0.0
H325 H 0.14498 0.74597 0.13163 0.0
H326 H 0.16233 0.77427 0.07765 0.0
C327 C 0.25126 0.84451 0.85901 0.0
C328 C 0.21915 0.80854 0.95334 0.0
H329 H 0.17496 0.76354 0.95118 0.0
C330 C 0.22128 0.81112 0.00112 0.0
C331 C 0.20187 0.79161 0.93496 0.0
C332 C 0.19906 0.78802 0.88383 0.0
C333 C 0.20714 0.79655 0.03116 0.0
C334 C 0.19048 0.77904 0.01275 0.0
C335 C 0.18771 0.77707 0.96501 0.0
C336 C 0.17792 0.76127 0.04195 0.0
C337 C 0.21087 0.79919 0.08227 0.0
C338 C 0.18049 0.74442 0.03861 0.0
C339 C 0.17073 0.72837 0.06924 0.0
C340 C 0.15807 0.72878 0.1037 0.0
C341 C 0.15465 0.74522 0.10546 0.0
C342 C 0.16459 0.76142 0.07486 0.0
H343 H 0.22536 0.81297 0.09078 0.0
H344 H 0.19844 0.8003 0.09908 0.0
H345 H 0.21104 0.78588 0.09697 0.0
H346 H 0.1907 0.74404 0.01336 0.0
H347 H 0.17357 0.71589 0.06669 0.0
H348 H 0.45674 0.16695 0.19777 0.0
H349 H 0.44704 0.18461 0.14271 0.0
H350 H 0.38873 0.15987 0.20741 0.0
H351 H 0.39835 0.14205 0.26316 0.0
H352 H 0.41272 0.17114 0.08039 0.0
H353 H 0.41585 0.22282 0.21927 0.0
H354 H 0.42684 0.2069 0.22633 0.0
H355 H 0.39995 0.19606 0.22757 0.0
C356 C 0.44173 0.16497 0.19998 0.0
C357 C 0.4284 0.15328 0.23518 0.0
C358 C 0.43619 0.17504 0.16836 0.0
C359 C 0.41729 0.17373 0.17142 0.0
C360 C 0.40347 0.16119 0.20485 0.0
H361 H 0.39918 0.24768 0.96298 0.0
H362 H 0.38935 0.21982 0.01761 0.0
C363 C 0.40896 0.15096 0.23647 0.0
C364 C 0.41312 0.18694 0.1418 0.0
H365 H 0.41395 0.23198 0.14341 0.0
C366 C 0.41245 0.18418 0.09406 0.0
C367 C 0.41296 0.20401 0.15998 0.0
C368 C 0.41402 0.20782 0.21105 0.0
C369 C 0.41273 0.19864 0.06383 0.0
C370 C 0.4136 0.21619 0.08201 0.0
C371 C 0.41315 0.21841 0.12975 0.0
C372 C 0.4182 0.23369 0.05237 0.0
C373 C 0.4135 0.19574 0.01274 0.0
C374 C 0.43739 0.25091 0.05497 0.0
C375 C 0.44305 0.26675 0.02398 0.0
C376 C 0.42956 0.26575 0.98987 0.0
C377 C 0.40993 0.24891 0.98883 0.0
C378 C 0.40431 0.23294 0.01982 0.0
H379 H 0.41462 0.18216 0.00444 0.0
H380 H 0.39964 0.19408 -0.00357 0.0
H381 H 0.42663 0.20917 -0.00267 0.0
H382 H 0.4483 0.25176 0.07996 0.0
H383 H 0.45822 0.27955 0.02598 0.0
H384 H 0.1185 0.49905 0.01533 0.0
H385 H 0.11525 0.52824 0.03578 0.0
H386 H 0.08451 0.49856 0.1609 0.0
H387 H 0.08742 0.46902 0.14033 0.0
H388 H 0.06789 0.52024 0.11443 0.0
H389 H 0.15085 0.56625 0.13906 0.0
H390 H 0.1433 0.55448 0.08367 0.0
H391 H 0.13784 0.53911 0.13428 0.0
C392 C 0.11088 0.49863 0.04701 0.0
C393 C 0.10346 0.48185 0.07654 0.0
C394 C 0.10907 0.51533 0.05865 0.0
C395 C 0.09997 0.51566 0.10019 0.0
C396 C 0.09167 0.49859 0.12876 0.0
H397 H 0.12147 0.6226 0.24448 0.0
H398 H 0.11669 0.58991 0.22118 0.0
C399 C 0.09339 0.48178 0.11701 0.0
C400 C 0.10028 0.53431 0.11497 0.0
H401 H 0.13245 0.58345 0.1433 0.0
C402 C 0.08196 0.53409 0.12085 0.0
C403 C 0.11869 0.55223 0.12382 0.0
C404 C 0.1388 0.55308 0.12033 0.0
C405 C 0.0816 0.55148 0.13488 0.0
C406 C 0.10005 0.56952 0.14262 0.0
C407 C 0.11832 0.56963 0.13703 0.0
C408 C 0.10099 0.5884 0.15814 0.0
C409 C 0.06153 0.55033 0.14221 0.0
C410 C 0.09358 0.59833 0.13057 0.0
C411 C 0.09623 0.61709 0.14396 0.0
C412 C 0.10654 0.62624 0.18485 0.0
C413 C 0.11357 0.61603 0.21269 0.0
C414 C 0.11082 0.59731 0.19946 0.0
H415 H 0.04904 0.53448 0.14556 0.0
H416 H 0.06186 0.5588 0.17346 0.0
H417 H 0.05821 0.5572 0.11229 0.0
H418 H 0.08629 0.59189 0.0981 0.0
H419 H 0.0907 0.62466 0.12172 0.0
H420 H 0.61189 0.07379 0.29302 0.0
H421 H 0.57705 0.06562 0.30823 0.0
H422 H 0.58827 0.11972 0.23686 0.0
H423 H 0.62267 0.12763 0.22055 0.0
H424 H 0.56358 0.08595 0.35654 0.0
H425 H 0.53601 0.07921 0.17882 0.0
H426 H 0.55922 0.07957 0.19232 0.0
H427 H 0.55884 0.10284 0.18624 0.0
C428 C 0.60683 0.08381 0.28025 0.0
C429 C 0.61997 0.10129 0.25539 0.0
C430 C 0.58693 0.07912 0.28887 0.0
C431 C 0.5799 0.0918 0.27272 0.0
C432 C 0.59312 0.10934 0.24834 0.0
H433 H 0.49873 0.12475 0.37877 0.0
H434 H 0.52539 0.11715 0.3621 0.0
C435 C 0.61287 0.11395 0.23942 0.0
C436 C 0.55927 0.0877 0.28384 0.0
H437 H 0.51869 0.08808 0.23631 0.0
C438 C 0.55357 0.086 0.33018 0.0
C439 C 0.54592 0.0872 0.24949 0.0
C440 C 0.55024 0.08707 0.19894 0.0
C441 C 0.53562 0.08538 0.34323 0.0
C442 C 0.52336 0.08708 0.30909 0.0
C443 C 0.52827 0.08718 0.26259 0.0
C444 C 0.5066 0.09073 0.32091 0.0
C445 C 0.5302 0.08329 0.39356 0.0
C446 C 0.48725 0.07878 0.3021 0.0
C447 C 0.47197 0.08333 0.31097 0.0
C448 C 0.47584 0.09992 0.33871 0.0
C449 C 0.4952 0.11176 0.35758 0.0
C450 C 0.51044 0.10731 0.34845 0.0
H451 H 0.5362 0.07469 0.41205 0.0
H452 H 0.5371 0.09852 0.4093 0.0
H453 H 0.51361 0.07558 0.39872 0.0
H454 H 0.48403 0.06604 0.28032 0.0
H455 H 0.4572 0.07395 0.29592 0.0
H456 H 0.37148 0.49728 0.57014 0.0
H457 H 0.40365 0.52621 0.54705 0.0
H458 H 0.40272 0.49555 0.42204 0.0
H459 H 0.37053 0.46628 0.44525 0.0
H460 H 0.44165 0.51727 0.46575 0.0
H461 H 0.40507 0.56373 0.44336 0.0
H462 H 0.4013 0.55226 0.49905 0.0
H463 H 0.39082 0.53662 0.44908 0.0
C464 C 0.37818 0.49659 0.53789 0.0
C465 C 0.36835 0.47961 0.50919 0.0
C466 C 0.39654 0.51315 0.52475 0.0
C467 C 0.40533 0.51312 0.48251 0.0
C468 C 0.39608 0.49585 0.45469 0.0
H469 H 0.49158 0.62198 0.34216 0.0
H470 H 0.46339 0.58883 0.36214 0.0
C471 C 0.3777 0.47919 0.46793 0.0
C472 C 0.42355 0.53158 0.46644 0.0
H473 H 0.44075 0.58086 0.43884 0.0
C474 C 0.4415 0.53118 0.45964 0.0
C475 C 0.42316 0.54958 0.4579 0.0
C476 C 0.40402 0.55061 0.46227 0.0
C477 C 0.45927 0.54852 0.44538 0.0
C478 C 0.45902 0.5667 0.43842 0.0
C479 C 0.44094 0.56694 0.4445 0.0
C480 C 0.47716 0.58573 0.42428 0.0
C481 C 0.47802 0.54716 0.43727 0.0
C482 C 0.49438 0.59492 0.45238 0.0
C483 C 0.51062 0.6139 0.44089 0.0
C484 C 0.50974 0.62406 0.40144 0.0
C485 C 0.49267 0.61459 0.37291 0.0
C486 C 0.47655 0.59563 0.38423 0.0
H487 H 0.47439 0.53131 0.43208 0.0
H488 H 0.48646 0.55622 0.40684 0.0
H489 H 0.48803 0.5532 0.46771 0.0
H490 H 0.49499 0.58775 0.48396 0.0
H491 H 0.52355 0.62086 0.4636 0.0
H492 H 0.90732 0.5271 0.63163 0.0
H493 H 0.91508 0.5005 0.65145 0.0
H494 H 0.8649 0.45814 0.56869 0.0
H495 H 0.85748 0.48456 0.54785 0.0
H496 H 0.89296 0.46611 0.6965 0.0
H497 H 0.90816 0.44756 0.52359 0.0
H498 H 0.90689 0.4701 0.53489 0.0
H499 H 0.88419 0.4464 0.52427 0.0
C500 C 0.8981 0.51215 0.61737 0.0
C501 C 0.88187 0.50794 0.58798 0.0
C502 C 0.90256 0.49699 0.62864 0.0
C503 C 0.89088 0.47745 0.61064 0.0
C504 C 0.87456 0.47325 0.58175 0.0
H505 H 0.85497 0.36252 0.71853 0.0
H506 H 0.8624 0.3966 0.70008 0.0
C507 C 0.87021 0.48835 0.57021 0.0
C508 C 0.89462 0.46091 0.62426 0.0
H509 H 0.89674 0.42068 0.58037 0.0
C510 C 0.8942 0.4564 0.67114 0.0
C511 C 0.8968 0.44852 0.59135 0.0
C512 C 0.89928 0.45356 0.54077 0.0
C513 C 0.89437 0.439 0.68575 0.0
C514 C 0.89434 0.42548 0.65253 0.0
C515 C 0.89633 0.4308 0.60587 0.0
C516 C 0.89051 0.40506 0.66504 0.0
C517 C 0.89423 0.43516 0.73665 0.0
C518 C 0.90345 0.39814 0.65002 0.0
C519 C 0.899 0.37841 0.65981 0.0
C520 C 0.88155 0.36533 0.68477 0.0
C521 C 0.86864 0.3723 0.69964 0.0
C522 C 0.87298 0.39188 0.6895 0.0
H523 H 0.90184 0.44957 0.75612 0.0
H524 H 0.87838 0.42655 0.74888 0.0
H525 H 0.90183 0.42639 0.74466 0.0
H526 H 0.91694 0.40799 0.63064 0.0
H527 H 0.90921 0.37343 0.6479 0.0
H528 H 0.37682 0.91986 0.79838 0.0
H529 H 0.41144 0.9272 0.81307 0.0
H530 H 0.39998 0.87488 0.73382 0.0
H531 H 0.36586 0.86789 0.71791 0.0
H532 H 0.42419 0.90564 0.8576 0.0
H533 H 0.45289 0.91583 0.68029 0.0
H534 H 0.42971 0.91545 0.69421 0.0
H535 H 0.42986 0.8922 0.68517 0.0
C536 C 0.38181 0.91009 0.78373 0.0
C537 C 0.36868 0.89337 0.7568 0.0
C538 C 0.40158 0.9143 0.79207 0.0
C539 C 0.40848 0.90188 0.77363 0.0
C540 C 0.39527 0.8851 0.7471 0.0
H541 H 0.48836 0.86582 0.87557 0.0
H542 H 0.46183 0.87369 0.85956 0.0
C543 C 0.37566 0.88101 0.7384 0.0
C544 C 0.4289 0.90532 0.78465 0.0
H545 H 0.46936 0.90508 0.73605 0.0
C546 C 0.43426 0.90594 0.83099 0.0
C547 C 0.44235 0.90627 0.75004 0.0
C548 C 0.43849 0.90764 0.69969 0.0
C549 C 0.45196 0.90595 0.84362 0.0
C550 C 0.46428 0.90468 0.80901 0.0
C551 C 0.45972 0.90562 0.76267 0.0
C552 C 0.48087 0.90063 0.81998 0.0
C553 C 0.45708 0.907 0.894 0.0
C554 C 0.5003 0.91272 0.80165 0.0
C555 C 0.51548 0.90799 0.81002 0.0
C556 C 0.51146 0.8911 0.83689 0.0
C557 C 0.49201 0.87906 0.85513 0.0
C558 C 0.47685 0.88366 0.84638 0.0
H559 H 0.45118 0.91544 0.91351 0.0
H560 H 0.44986 0.89149 0.90831 0.0
H561 H 0.47362 0.91438 0.89957 0.0
H562 H 0.50368 0.92576 0.78074 0.0
H563 H 0.53034 0.91752 0.7955 0.0
H564 H 0.49562 0.371 0.84271 0.0
H565 H 0.52347 0.40368 0.86672 0.0
H566 H 0.4895 0.40281 0.98575 0.0
H567 H 0.46128 0.37005 0.9616 0.0
H568 H 0.512 0.44179 0.93965 0.0
H569 H 0.55833 0.40626 0.97837 0.0
H570 H 0.54813 0.40164 0.9212 0.0
H571 H 0.53139 0.39172 0.96966 0.0
C572 C 0.49395 0.37782 0.8738 0.0
C573 C 0.47636 0.36784 0.90063 0.0
C574 C 0.5099 0.39648 0.88745 0.0
C575 C 0.50863 0.40544 0.92834 0.0
C576 C 0.49075 0.39604 0.95414 0.0
H577 H 0.61404 0.49389 0.07491 0.0
H578 H 0.58111 0.46563 0.05406 0.0
C579 C 0.47469 0.37734 0.94038 0.0
C580 C 0.52651 0.42395 0.94537 0.0
H581 H 0.57507 0.44196 0.98027 0.0
C582 C 0.52579 0.44188 0.9488 0.0
C583 C 0.54433 0.42388 0.95782 0.0
C584 C 0.54562 0.40482 0.95704 0.0
C585 C 0.5427 0.45993 0.96346 0.0
C586 C 0.56075 0.45997 0.97433 0.0
C587 C 0.56126 0.44192 0.97165 0.0
C588 C 0.57939 0.47841 0.98901 0.0
C589 C 0.54103 0.47868 0.96773 0.0
C590 C 0.58923 0.49516 0.95964 0.0
C591 C 0.60808 0.51146 0.97164 0.0
C592 C 0.61747 0.51109 0.01288 0.0
C593 C 0.60727 0.49457 0.04275 0.0
C594 C 0.58843 0.47841 0.03094 0.0
H595 H 0.52504 0.47499 0.97021 0.0
H596 H 0.54932 0.48762 -0.00162 0.0
H597 H 0.54774 0.48824 0.93682 0.0
H598 H 0.58272 0.49529 0.92668 0.0
H599 H 0.61563 0.52397 0.94788 0.0
H600 H 0.26482 0.42238 0.66899 0.0
H601 H 0.24156 0.41831 0.73132 0.0
H602 H 0.24937 0.47695 0.70078 0.0
H603 H 0.27253 0.48119 0.6385 0.0
H604 H 0.25038 0.44465 0.80895 0.0
H605 H 0.18723 0.43864 0.70321 0.0
H606 H 0.20684 0.43463 0.67994 0.0
H607 H 0.21144 0.45982 0.68897 0.0
C608 C 0.26151 0.43437 0.67537 0.0
C609 C 0.27051 0.4521 0.64871 0.0
C610 C 0.24824 0.432 0.71096 0.0
C611 C 0.24358 0.44721 0.72008 0.0
C612 C 0.25253 0.4649 0.69366 0.0
H613 H 0.20101 0.48142 0.95371 0.0
H614 H 0.21991 0.47688 0.89185 0.0
C615 C 0.26586 0.46734 0.65828 0.0
C616 C 0.23003 0.44507 0.75842 0.0
H617 H 0.18647 0.44511 0.7833 0.0
C618 C 0.23628 0.4445 0.80342 0.0
C619 C 0.21155 0.44463 0.75092 0.0
C620 C 0.20372 0.44427 0.70314 0.0
C621 C 0.22495 0.44442 0.84134 0.0
C622 C 0.20705 0.44512 0.83384 0.0
C623 C 0.20031 0.44475 0.78883 0.0
C624 C 0.19569 0.44736 0.87218 0.0
C625 C 0.2323 0.44384 0.88912 0.0
C626 C 0.1757 0.43238 0.88099 0.0
C627 C 0.16481 0.43492 0.91634 0.0
C628 C 0.17369 0.45261 0.94306 0.0
C629 C 0.19372 0.4676 0.93388 0.0
C630 C 0.2046 0.46499 0.89874 0.0
H631 H 0.24298 0.43798 0.889 0.0
H632 H 0.24032 0.45937 0.90336 0.0
H633 H 0.21947 0.4343 0.91227 0.0
H634 H 0.16856 0.41874 0.86051 0.0
H635 H 0.14939 0.42311 0.92241 0.0
H636 H 0.71237 0.1514 0.08807 0.0
H637 H 0.73277 0.17167 0.0234 0.0
H638 H 0.7481 0.22612 0.09843 0.0
H639 H 0.72686 0.20587 0.16239 0.0
H640 H 0.73884 0.22957 0.01465 0.0
H641 H 0.79223 0.20081 0.00764 0.0
H642 H 0.76668 0.1807 0.00206 0.0
H643 H 0.77482 0.19503 0.05463 0.0
C644 C 0.72022 0.1677 0.09091 0.0
C645 C 0.71811 0.17707 0.13033 0.0
C646 C 0.73201 0.17927 0.05404 0.0
C647 C 0.74237 0.20043 0.05641 0.0
C648 C 0.74033 0.20982 0.09589 0.0
H649 H 0.83522 0.27603 0.85972 0.0
H650 H 0.81645 0.2571 0.92749 0.0
C651 C 0.72821 0.19825 0.13241 0.0
C652 C 0.75455 0.21278 0.01691 0.0
H653 H 0.79147 0.21914 0.94163 0.0
C654 C 0.75049 0.22742 -0.00104 0.0
C655 C 0.76998 0.21022 -0.00314 0.0
C656 C 0.77634 0.19599 0.01664 0.0
C657 C 0.76116 0.23933 0.9611 0.0
C658 C 0.77575 0.23593 0.93937 0.0
C659 C 0.78007 0.22154 0.95782 0.0
C660 C 0.787 0.24736 0.898 0.0
C661 C 0.75697 0.25572 0.94561 0.0
C662 C 0.7767 0.24795 0.85857 0.0
C663 C 0.78742 0.25911 0.82012 0.0
C664 C 0.80861 0.26938 0.81995 0.0
C665 C 0.81888 0.26822 0.85883 0.0
C666 C 0.80817 0.25742 0.89759 0.0
H667 H 0.75068 0.2606 0.97401 0.0
H668 H 0.77086 0.26913 0.93268 0.0
H669 H 0.74564 0.24984 0.91756 0.0
H670 H 0.76037 0.23976 0.85745 0.0
H671 H 0.77911 0.25953 0.79039 0.0
H672 H 0.56477 0.72767 0.24606 0.0
H673 H 0.56759 0.74978 0.18222 0.0
H674 H 0.50942 0.74228 0.21675 0.0
H675 H 0.50645 0.72028 0.28075 0.0
H676 H 0.54045 0.7396 0.10695 0.0
H677 H 0.54681 0.80414 0.20754 0.0
H678 H 0.55112 0.78498 0.23245 0.0
H679 H 0.52581 0.78007 0.22346 0.0
C680 C 0.55262 0.73083 0.24031 0.0
C681 C 0.53539 0.72224 0.26859 0.0
C682 C 0.55427 0.74344 0.20381 0.0
C683 C 0.53883 0.74782 0.19525 0.0
C684 C 0.52165 0.73933 0.22336 0.0
H685 H 0.50701 0.78977 0.95303 0.0
H686 H 0.50973 0.77053 0.01693 0.0
C687 C 0.51994 0.72668 0.25976 0.0
C688 C 0.54026 0.76063 0.15579 0.0
H689 H 0.54052 0.80402 0.12729 0.0
C690 C 0.54063 0.75377 0.11131 0.0
C691 C 0.54073 0.77919 0.16177 0.0
C692 C 0.54129 0.78768 0.20887 0.0
C693 C 0.5408 0.76471 0.07246 0.0
C694 C 0.54037 0.78282 0.07844 0.0
C695 C 0.54067 0.79002 0.12292 0.0
C696 C 0.53909 0.79429 0.03898 0.0
C697 C 0.54143 0.75682 0.02536 0.0
C698 C 0.55458 0.81412 0.03075 0.0
C699 C 0.55307 0.8252 0.99433 0.0
C700 C 0.53593 0.81667 0.96577 0.0
C701 C 0.52044 0.79677 0.97424 0.0
C702 C 0.522 0.78571 0.01057 0.0
H703 H 0.5469 0.74584 0.02675 0.0
H704 H 0.52598 0.74901 0.01062 0.0
H705 H 0.55133 0.76935 0.00188 0.0
H706 H 0.56783 0.82101 0.05256 0.0
H707 H 0.56525 0.84049 0.98887 0.0
H708 H 0.78149 0.50216 0.46147 0.0
H709 H 0.76225 0.50454 0.39711 0.0
H710 H 0.8124 0.56285 0.36139 0.0
H711 H 0.83189 0.56061 0.42544 0.0
H712 H 0.75205 0.53527 0.37927 0.0
H713 H 0.79909 0.52925 0.24133 0.0
H714 H 0.79998 0.52225 0.3002 0.0
H715 H 0.81254 0.54838 0.28389 0.0
C716 C 0.78847 0.51549 0.43995 0.0
C717 C 0.80828 0.53115 0.44847 0.0
C718 C 0.77743 0.51683 0.40327 0.0
C719 C 0.78602 0.53375 0.37433 0.0
C720 C 0.80565 0.54954 0.38302 0.0
H721 H 0.72081 0.5635 0.17123 0.0
H722 H 0.74209 0.56484 0.23554 0.0
C723 C 0.81671 0.54825 0.41974 0.0
C724 C 0.77437 0.53483 0.33505 0.0
H725 H 0.77288 0.53511 0.21787 0.0
C726 C 0.75659 0.53531 0.34396 0.0
C727 C 0.78034 0.53469 0.28915 0.0
C728 C 0.79894 0.53346 0.27781 0.0
C729 C 0.74456 0.53565 0.30799 0.0
C730 C 0.75063 0.5357 0.26209 0.0
C731 C 0.76841 0.53523 0.25319 0.0
C732 C 0.73821 0.53525 0.22275 0.0
C733 C 0.72519 0.53541 0.31928 0.0
C734 C 0.7294 0.51836 0.19385 0.0
C735 C 0.7173 0.51754 0.1571 0.0
C736 C 0.71389 0.53369 0.14843 0.0
C737 C 0.72306 0.55078 0.17706 0.0
C738 C 0.73514 0.55155 0.21392 0.0
H739 H 0.72071 0.53131 0.35575 0.0
H740 H 0.72725 0.55064 0.31311 0.0
H741 H 0.71272 0.52457 0.29688 0.0
H742 H 0.73168 0.50568 0.20011 0.0
H743 H 0.71054 0.50419 0.13567 0.0
H744 H 0.15159 0.72713 0.35336 0.0
H745 H 0.1702 0.74929 0.41761 0.0
H746 H 0.2217 0.74285 0.3853 0.0
H747 H 0.20334 0.7208 0.32092 0.0
H748 H 0.1875 0.73995 0.49412 0.0
H749 H 0.24479 0.80464 0.39207 0.0
H750 H 0.22154 0.78501 0.36748 0.0
H751 H 0.24231 0.78072 0.37706 0.0
C752 C 0.16691 0.73049 0.35976 0.0
C753 C 0.17601 0.72224 0.33189 0.0
C754 C 0.17749 0.74313 0.39649 0.0
C755 C 0.19737 0.74787 0.40568 0.0
C756 C 0.20647 0.73961 0.37817 0.0
H757 H 0.27116 0.79186 0.64653 0.0
H758 H 0.24891 0.77209 0.58366 0.0
C759 C 0.1959 0.72693 0.34156 0.0
C760 C 0.20848 0.761 0.44487 0.0
H761 H 0.25104 0.80504 0.47241 0.0
C762 C 0.2013 0.75427 0.48946 0.0
C763 C 0.22631 0.77976 0.43848 0.0
C764 C 0.23414 0.7881 0.39119 0.0
C765 C 0.21192 0.76553 0.52807 0.0
C766 C 0.23026 0.78383 0.52172 0.0
C767 C 0.23705 0.7909 0.47709 0.0
C768 C 0.24298 0.79556 0.5609 0.0
C769 C 0.20349 0.75775 0.57532 0.0
C770 C 0.24722 0.8154 0.56841 0.0
C771 C 0.25999 0.82679 0.60424 0.0
C772 C 0.26889 0.81857 0.63288 0.0
C773 C 0.26453 0.79864 0.62522 0.0
C774 C 0.25172 0.78726 0.5895 0.0
H775 H 0.18707 0.74664 0.57409 0.0
H776 H 0.21127 0.75012 0.59029 0.0
H777 H 0.206 0.77032 0.59851 0.0
H778 H 0.24069 0.82208 0.54643 0.0
H779 H 0.26307 0.84211 0.6091 0.0
H780 H 0.48546 0.27629 0.77474 0.0
H781 H 0.48403 0.25544 0.70969 0.0
H782 H 0.42475 0.24493 0.67489 0.0
H783 H 0.42602 0.26585 0.73973 0.0
H784 H 0.45435 0.21412 0.69176 0.0
H785 H 0.4582 0.2666 0.55449 0.0
H786 H 0.46516 0.2745 0.61335 0.0
H787 H 0.43903 0.26024 0.59739 0.0
C788 C 0.47211 0.26957 0.75328 0.0
C789 C 0.45588 0.27282 0.76232 0.0
C790 C 0.47132 0.25765 0.71619 0.0
C791 C 0.4544 0.24889 0.68732 0.0
C792 C 0.43807 0.25184 0.69647 0.0
H793 H 0.42554 0.15441 0.48568 0.0
H794 H 0.42448 0.17469 0.54936 0.0
C795 C 0.4388 0.26372 0.73366 0.0
C796 C 0.45384 0.23652 0.64784 0.0
H797 H 0.4533 0.23491 0.53063 0.0
C798 C 0.45408 0.2186 0.6565 0.0
C799 C 0.45369 0.2426 0.60202 0.0
C800 C 0.45417 0.26211 0.59099 0.0
C801 C 0.45406 0.20649 0.62038 0.0
C802 C 0.45361 0.21241 0.57457 0.0
C803 C 0.45349 0.23038 0.56589 0.0
C804 C 0.45388 0.20042 0.53515 0.0
C805 C 0.45496 0.18767 0.63142 0.0
C806 C 0.47056 0.20842 0.50556 0.0
C807 C 0.47124 0.19692 0.46911 0.0
C808 C 0.45515 0.17725 0.46149 0.0
C809 C 0.43823 0.16947 0.49068 0.0
C810 C 0.43761 0.18098 0.52719 0.0
H811 H 0.45945 0.1875 0.66765 0.0
H812 H 0.43983 0.17424 0.62595 0.0
H813 H 0.46579 0.1863 0.60841 0.0
H814 H 0.48322 0.22346 0.51115 0.0
H815 H 0.48445 0.2034 0.4472 0.0
H816 H 0.07359 0.39363 0.91481 0.0
H817 H 0.04106 0.36962 0.88093 0.0
H818 H 0.01752 0.34602 0.01552 0.0
H819 H 0.0501 0.37003 0.04992 0.0
H820 H 0.01376 0.32395 0.89095 0.0
H821 H 0.98396 0.37187 0.96046 0.0
H822 H 0.01067 0.38114 0.95471 0.0
H823 H -0.00339 0.36362 -0.00041 0.0
C824 C 0.06162 0.3831 0.93719 0.0
C825 C 0.06431 0.38387 0.98509 0.0
C826 C 0.04309 0.36934 0.91773 0.0
C827 C 0.02694 0.35622 0.94582 0.0
C828 C 0.02986 0.35612 0.99339 0.0
H829 H 0.90114 0.301 0.86355 0.0
H830 H 0.93107 0.30887 0.90891 0.0
C831 C 0.04846 0.36983 0.01293 0.0
C832 C 0.0066 0.34441 0.92562 0.0
H833 H 0.96266 0.34504 0.91281 0.0
C834 C 0.00243 0.32832 0.89607 0.0
C835 C 0.99194 0.35022 0.93254 0.0
C836 C -0.00409 0.36771 0.96331 0.0
C837 C 0.98393 0.318 0.8726 0.0
C838 C 0.96958 0.32438 0.87801 0.0
C839 C 0.97361 0.3401 0.90873 0.0
C840 C 0.95088 0.31611 0.85016 0.0
C841 C 0.98 0.30041 0.84233 0.0
C842 C 0.95193 0.3171 0.80195 0.0
C843 C 0.93476 0.31235 0.7759 0.0
C844 C 0.91636 0.30696 0.79771 0.0
C845 C 0.91515 0.30522 0.84582 0.0
C846 C 0.93223 0.30969 0.87177 0.0
H847 H 0.98858 0.29308 0.85437 0.0
H848 H 0.9637 0.28892 0.84133 0.0
H849 H 0.98508 0.30594 0.80685 0.0
H850 H 0.96622 0.32255 0.78448 0.0
H851 H 0.93616 0.31395 0.73888 0.0
H852 H 0.62038 0.94239 0.87322 0.0
H853 H 0.64356 0.97373 0.91327 0.0
H854 H 0.62034 0.94444 0.04368 0.0
H855 H 0.59709 0.91315 0.00409 0.0
H856 H 0.62652 0.99152 0.97345 0.0
H857 H 0.68286 0.97807 0.06283 0.0
H858 H 0.66903 0.96388 0.01282 0.0
H859 H 0.65706 0.95816 0.06819 0.0
C860 C 0.62056 0.94249 0.91044 0.0
C861 C 0.60683 0.92537 0.93555 0.0
C862 C 0.63381 0.96039 0.93321 0.0
C863 C 0.63377 0.9613 0.98136 0.0
C864 C 0.62084 0.94392 0.00652 0.0
H865 H 0.6696 0.04716 0.19882 0.0
H866 H 0.66094 0.01793 0.14986 0.0
C867 C 0.60746 0.92611 0.98382 0.0
C868 C 0.64491 0.98092 0.00516 0.0
H869 H 0.68015 0.00631 0.08816 0.0
C870 C 0.6385 0.99496 -0.00203 0.0
C871 C 0.66028 0.98512 0.03749 0.0
C872 C 0.66788 0.9706 0.04568 0.0
C873 C 0.64644 0.01277 0.02373 0.0
C874 C 0.66173 0.01697 0.05653 0.0
C875 C 0.66852 0.00313 0.06286 0.0
C876 C 0.66982 0.03503 0.08642 0.0
C877 C 0.63754 0.02634 0.0172 0.0
C878 C 0.67848 0.05443 0.06722 0.0
C879 C 0.68308 0.07105 0.09498 0.0
C880 C 0.67956 0.06862 0.14257 0.0
C881 C 0.67241 0.04945 0.16222 0.0
C882 C 0.66748 0.03276 0.1343 0.0
H883 H 0.62262 0.01839 -0.00018 0.0
H884 H 0.63565 0.03217 0.05066 0.0
H885 H 0.6478 0.03939 0.99542 0.0
H886 H 0.68096 0.0566 0.03051 0.0
H887 H 0.68886 0.08572 0.07901 0.0
H888 H 0.67611 0.62068 0.04797 0.0
H889 H 0.6677 0.64435 0.08466 0.0
H890 H 0.66996 0.62073 0.21773 0.0
H891 H 0.67826 0.59699 0.18147 0.0
H892 H 0.63144 0.62778 0.14045 0.0
H893 H 0.69945 0.68338 0.23629 0.0
H894 H 0.70072 0.66942 0.18753 0.0
H895 H 0.69292 0.65743 0.24268 0.0
C896 C 0.6753 0.62086 0.08511 0.0
C897 C 0.67769 0.60688 0.11185 0.0
C898 C 0.67052 0.6344 0.10597 0.0
C899 C 0.66842 0.63438 0.15387 0.0
C900 C 0.67187 0.6212 0.18078 0.0
H901 H 0.61439 0.67272 0.3576 0.0
H902 H 0.63584 0.66334 0.31399 0.0
C903 C 0.67645 0.60755 0.15996 0.0
C904 C 0.65971 0.64584 0.17521 0.0
H905 H 0.66831 0.6816 0.25592 0.0
C906 C 0.63956 0.63979 0.16515 0.0
C907 C 0.67033 0.66124 0.20784 0.0
C908 C 0.69212 0.66842 0.21911 0.0
C909 C 0.62941 0.64816 0.18819 0.0
C910 C 0.63996 0.66354 0.22115 0.0
C911 C 0.6603 0.66992 0.23048 0.0
C912 C 0.62964 0.67219 0.24801 0.0
C913 C 0.6072 0.63966 0.17865 0.0
C914 C 0.61979 0.6811 0.22565 0.0
C915 C 0.60725 0.6861 0.25032 0.0
C916 C 0.60479 0.68275 0.29796 0.0
C917 C 0.61598 0.67541 0.32088 0.0
C918 C 0.62825 0.67007 0.29602 0.0
H919 H 0.60036 0.62462 0.16191 0.0
H920 H 0.59876 0.63816 0.21083 0.0
H921 H 0.60523 0.64996 0.15512 0.0
H922 H 0.62113 0.68342 0.18881 0.0
H923 H 0.59903 0.69203 0.23189 0.0
H924 H 0.06782 0.6584 0.34738 0.0
H925 H 0.03606 0.65001 0.38412 0.0
H926 H 0.02947 0.69102 0.29339 0.0
H927 H 0.06104 0.69875 0.25458 0.0
H928 H 0.02302 0.67051 0.43038 0.0
H929 H 0.97694 0.64085 0.27145 0.0
H930 H 0.00314 0.64772 0.2734 0.0
H931 H -0.0038 0.66694 0.26966 0.0
C932 C 0.05968 0.66571 0.33523 0.0
C933 C 0.06682 0.67908 0.29779 0.0
C934 C 0.04152 0.66094 0.35641 0.0
C935 C 0.03015 0.66962 0.34114 0.0
C936 C 0.03767 0.68371 0.305 0.0
H937 H 0.92138 0.62579 0.51666 0.0
H938 H 0.95206 0.65073 0.47662 0.0
C939 C 0.05576 0.68821 0.28306 0.0
C940 C 0.01017 0.66298 0.36254 0.0
H941 H 0.95961 0.63669 0.34031 0.0
C942 C 0.00912 0.66331 0.4107 0.0
C943 C 0.99206 0.65365 0.33673 0.0
C944 C 0.99202 0.65208 0.28501 0.0
C945 C 0.99059 0.65318 0.43396 0.0
C946 C 0.9725 0.64321 0.40818 0.0
C947 C 0.9735 0.6443 0.35997 0.0
C948 C 0.95281 0.62909 0.42987 0.0
C949 C 0.99078 0.65202 0.48576 0.0
C950 C 0.94245 0.60889 0.41542 0.0
C951 C 0.92474 0.59484 0.43727 0.0
C952 C 0.9171 0.60059 0.47457 0.0
C953 C 0.92709 0.62091 0.48834 0.0
C954 C 0.94468 0.63513 0.4657 0.0
H955 H 0.0061 0.65684 0.49939 0.0
H956 H 0.98575 0.66213 0.50057 0.0
H957 H 0.98038 0.63642 0.49788 0.0
H958 H 0.94839 0.60381 0.38793 0.0
H959 H 0.91739 0.57929 0.42585 0.0
H960 H 0.38927 0.0873 0.50834 0.0
H961 H 0.36702 0.05849 0.55667 0.0
H962 H 0.34957 0.01937 0.43839 0.0
H963 H 0.37121 0.04832 0.38949 0.0
H964 H 0.31796 0.00832 0.49827 0.0
H965 H 0.38633 0.01992 0.59163 0.0
H966 H 0.38246 0.04117 0.59407 0.0
H967 H 0.38777 0.03351 0.53985 0.0
C968 C 0.38041 0.07261 0.49252 0.0
C969 C 0.38217 0.06996 0.44531 0.0
C970 C 0.36779 0.05616 0.52019 0.0
C971 C 0.35711 0.03671 0.50134 0.0
C972 C 0.35781 0.03424 0.45369 0.0
H973 H 0.30527 0.91502 0.58883 0.0
H974 H 0.31393 0.94612 0.54751 0.0
C975 C 0.37018 0.05078 0.4258 0.0
C976 C 0.34665 0.01879 0.53159 0.0
H977 H 0.35515 0.99349 0.61741 0.0
C978 C 0.32604 0.00512 0.52453 0.0
C979 C 0.35728 0.01457 0.56564 0.0
C980 C 0.37971 0.02794 0.57306 0.0
C981 C 0.31582 0.98729 0.55048 0.0
C982 C 0.32653 0.98308 0.58411 0.0
C983 C 0.34696 -0.00306 0.59191 0.0
C984 C 0.31757 0.96359 0.60881 0.0
C985 C 0.29372 0.97299 0.54156 0.0
C986 C 0.31651 0.96308 0.65698 0.0
C987 C 0.31154 0.94529 0.68075 0.0
C988 C 0.3079 0.92787 0.65665 0.0
C989 C 0.30805 0.92821 0.60834 0.0
C990 C 0.31283 0.94593 0.58464 0.0
H991 H 0.28654 0.98061 0.52358 0.0
H992 H 0.2921 0.96044 0.51951 0.0
H993 H 0.28552 0.96641 0.57421 0.0
H994 H 0.32032 0.97664 0.67619 0.0
H995 H 0.31158 0.9455 0.71796 0.0
H996 H 0.31094 0.39271 0.6759 0.0
H997 H 0.31945 0.36871 0.70998 0.0
H998 H 0.31751 0.34376 0.57608 0.0
H999 H 0.30895 0.36777 0.54146 0.0
H1000 H 0.30074 0.32306 0.70266 0.0
H1001 H 0.37746 0.36954 0.6268 0.0
H1002 H 0.36025 0.37907 0.63302 0.0
H1003 H 0.35608 0.36097 0.58908 0.0
C1004 C 0.31196 0.38189 0.65374 0.0
C1005 C 0.30954 0.38229 0.60592 0.0
C1006 C 0.31672 0.36813 0.67333 0.0
C1007 C 0.31924 0.35464 0.64545 0.0
C1008 C 0.31568 0.35416 0.59804 0.0
H1009 H 0.39042 0.29974 0.72454 0.0
H1010 H 0.36752 0.30694 0.68065 0.0
C1011 C 0.3108 0.36787 0.57838 0.0
C1012 C 0.32788 0.34288 0.6655 0.0
H1013 H 0.37237 0.34312 0.67544 0.0
C1014 C 0.31631 0.3272 0.69637 0.0
C1015 C 0.34818 0.3484 0.6571 0.0
C1016 C 0.36136 0.36547 0.62493 0.0
C1017 C 0.32467 0.31699 0.71967 0.0
C1018 C 0.34526 0.32308 0.71269 0.0
C1019 C 0.35658 0.33839 0.68071 0.0
C1020 C 0.35598 0.31496 0.74006 0.0
C1021 C 0.31138 0.29984 0.75143 0.0
C1022 C 0.35673 0.31652 0.78822 0.0
C1023 C 0.36961 0.31212 0.81346 0.0
C1024 C 0.3823 0.30654 0.79082 0.0
C1025 C 0.3809 0.30413 0.74286 0.0
C1026 C 0.3678 0.30822 0.71776 0.0
H1027 H 0.29531 0.29253 0.74068 0.0
H1028 H 0.31604 0.28824 0.75254 0.0
H1029 H 0.31244 0.30584 0.78665 0.0
H1030 H 0.34819 0.3222 0.80617 0.0
H1031 H 0.3705 0.31423 0.85036 0.0
loop_
_geom_bond_atom_site_label_1
_geom_bond_atom_site_label_2
_geom_bond_distance
_geom_bond_site_symmetry_2
_ccdc_geom_bond_type
C0 O1 1.306 . S
C0 O3 1.160 . S
O1 C0 1.306 . S
O1 Cd2 2.228 1_556 S
Cd2 O1 2.228 1_554 S
Cd2 O6 2.273 . S
Cd2 O10 2.277 . S
O3 C0 1.160 . S
O3 Cd4 2.203 1_556 S
Cd4 O3 2.203 1_554 S
Cd4 O6 2.411 . S
Cd4 O7 2.333 . S
Cd4 O8 2.352 1_554 S
Cd4 O12 2.277 . S
Cd4 O13 2.356 . S
C5 O10 1.209 . S
C5 O12 1.226 . S
O6 Cd2 2.273 . S
O6 Cd4 2.411 . S
O6 C9 1.320 . S
O7 Cd4 2.333 . S
O7 C9 1.214 . S
O8 Cd4 2.352 1_556 S
O8 C11 1.258 1_556 S
C9 O6 1.320 . S
C9 O7 1.214 . S
O10 Cd2 2.277 . S
O10 C5 1.209 . S
C11 O8 1.258 1_554 S
C11 O13 1.282 . S
O12 Cd4 2.277 . S
O12 C5 1.226 . S
O13 Cd4 2.356 . S
O13 C11 1.282 . S
C14 O15 1.306 . S
C14 O17 1.160 . S
O15 C14 1.306 . S
O15 Cd16 2.228 . S
Cd16 O15 2.228 . S
Cd16 O20 2.273 . S
Cd16 O24 2.277 . S
O17 C14 1.160 . S
O17 Cd18 2.203 . S
Cd18 O17 2.203 . S
Cd18 O20 2.411 . S
Cd18 O21 2.333 . S
Cd18 O22 2.352 . S
Cd18 O26 2.277 . S
Cd18 O27 2.356 . S
C19 O24 1.209 . S
C19 O26 1.226 . S
O20 Cd16 2.273 . S
O20 Cd18 2.411 . S
O20 C23 1.320 . S
O21 Cd18 2.333 . S
O21 C23 1.214 . S
O22 Cd18 2.352 . S
O22 C25 1.258 . S
C23 O20 1.320 . S
C23 O21 1.214 . S
O24 Cd16 2.277 . S
O24 C19 1.209 . S
C25 O22 1.258 . S
C25 O27 1.282 . S
O26 Cd18 2.277 . S
O26 C19 1.226 . S
O27 Cd18 2.356 . S
O27 C25 1.282 . S
C28 O29 1.306 . S
C28 O31 1.160 . S
O29 C28 1.306 . S
O29 Cd30 2.228 . S
Cd30 O29 2.228 . S
Cd30 O34 2.273 . S
Cd30 O38 2.277 . S
O31 C28 1.160 . S
O31 Cd32 2.203 . S
Cd32 O31 2.203 . S
Cd32 O34 2.411 . S
Cd32 O35 2.333 . S
Cd32 O36 2.352 . S
Cd32 O40 2.277 . S
Cd32 O41 2.356 . S
C33 O38 1.209 . S
C33 O40 1.226 . S
O34 Cd30 2.273 . S
O34 Cd32 2.411 . S
O34 C37 1.320 . S
O35 Cd32 2.333 . S
O35 C37 1.214 . S
O36 Cd32 2.352 . S
O36 C39 1.258 . S
C37 O34 1.320 . S
C37 O35 1.214 . S
O38 Cd30 2.277 . S
O38 C33 1.209 . S
C39 O36 1.258 . S
C39 O41 1.282 . S
O40 Cd32 2.277 . S
O40 C33 1.226 . S
O41 Cd32 2.356 . S
O41 C39 1.282 . S
C42 O43 1.306 . S
C42 O45 1.160 . S
O43 C42 1.306 . S
O43 Cd44 2.228 . S
Cd44 O43 2.228 . S
Cd44 O48 2.273 . S
Cd44 O52 2.277 . S
O45 C42 1.160 . S
O45 Cd46 2.203 . S
Cd46 O45 2.203 . S
Cd46 O48 2.411 . S
Cd46 O49 2.333 . S
Cd46 O50 2.352 . S
Cd46 O54 2.277 . S
Cd46 O55 2.356 . S
C47 O52 1.209 . S
C47 O54 1.226 . S
O48 Cd44 2.273 . S
O48 Cd46 2.411 . S
O48 C51 1.320 . S
O49 Cd46 2.333 . S
O49 C51 1.214 . S
O50 Cd46 2.352 . S
O50 C53 1.258 . S
C51 O48 1.320 . S
C51 O49 1.214 . S
O52 Cd44 2.277 . S
O52 C47 1.209 . S
C53 O50 1.258 . S
C53 O55 1.282 . S
O54 Cd46 2.277 . S
O54 C47 1.226 . S
O55 Cd46 2.356 . S
O55 C53 1.282 . S
C56 O57 1.306 . S
C56 O59 1.160 . S
O57 C56 1.306 . S
O57 Cd58 2.228 . S
Cd58 O57 2.228 . S
Cd58 O62 2.273 . S
Cd58 O66 2.277 . S
O59 C56 1.160 . S
O59 Cd60 2.203 . S
Cd60 O59 2.203 . S
Cd60 O62 2.411 . S
Cd60 O63 2.333 . S
Cd60 O64 2.352 . S
Cd60 O68 2.277 . S
Cd60 O69 2.356 . S
C61 O66 1.209 . S
C61 O68 1.226 . S
O62 Cd58 2.273 . S
O62 Cd60 2.411 . S
O62 C65 1.320 . S
O63 Cd60 2.333 . S
O63 C65 1.214 . S
O64 Cd60 2.352 . S
O64 C67 1.258 . S
C65 O62 1.320 . S
C65 O63 1.214 . S
O66 Cd58 2.277 . S
O66 C61 1.209 . S
C67 O64 1.258 . S
C67 O69 1.282 . S
O68 Cd60 2.277 . S
O68 C61 1.226 . S
O69 Cd60 2.356 . S
O69 C67 1.282 . S
C70 O71 1.306 . S
C70 O73 1.160 . S
O71 C70 1.306 . S
O71 Cd72 2.228 . S
Cd72 O71 2.228 . S
Cd72 O76 2.273 . S
Cd72 O80 2.277 . S
O73 C70 1.160 . S
O73 Cd74 2.203 . S
Cd74 O73 2.203 . S
Cd74 O76 2.411 . S
Cd74 O77 2.333 . S
Cd74 O78 2.352 . S
Cd74 O82 2.277 . S
Cd74 O83 2.356 . S
C75 O80 1.209 . S
C75 O82 1.226 . S
O76 Cd72 2.273 . S
O76 Cd74 2.411 . S
O76 C79 1.320 . S
O77 Cd74 2.333 . S
O77 C79 1.214 . S
O78 Cd74 2.352 . S
O78 C81 1.258 . S
C79 O76 1.320 . S
C79 O77 1.214 . S
O80 Cd72 2.277 . S
O80 C75 1.209 . S
C81 O78 1.258 . S
C81 O83 1.282 . S
O82 Cd74 2.277 . S
O82 C75 1.226 . S
O83 Cd74 2.356 . S
O83 C81 1.282 . S
C84 O85 1.306 . S
C84 O87 1.160 . S
O85 C84 1.306 . S
O85 Cd86 2.228 . S
Cd86 O85 2.228 . S
Cd86 O90 2.273 . S
Cd86 O94 2.277 . S
O87 C84 1.160 . S
O87 Cd88 2.203 . S
Cd88 O87 2.203 . S
Cd88 O90 2.411 . S
Cd88 O91 2.333 . S
Cd88 O92 2.352 . S
Cd88 O96 2.277 . S
Cd88 O97 2.356 . S
C89 O94 1.209 . S
C89 O96 1.226 . S
O90 Cd86 2.273 . S
O90 Cd88 2.411 . S
O90 C93 1.320 . S
O91 Cd88 2.333 . S
O91 C93 1.214 . S
O92 Cd88 2.352 . S
O92 C95 1.258 . S
C93 O90 1.320 . S
C93 O91 1.214 . S
O94 Cd86 2.277 . S
O94 C89 1.209 . S
C95 O92 1.258 . S
C95 O97 1.282 . S
O96 Cd88 2.277 . S
O96 C89 1.226 . S
O97 Cd88 2.356 . S
O97 C95 1.282 . S
C98 O99 1.306 . S
C98 O101 1.160 . S
O99 C98 1.306 . S
O99 Cd100 2.228 . S
Cd100 O99 2.228 . S
Cd100 O104 2.273 . S
Cd100 O108 2.277 . S
O101 C98 1.160 . S
O101 Cd102 2.203 . S
Cd102 O101 2.203 . S
Cd102 O104 2.411 . S
Cd102 O105 2.333 . S
Cd102 O106 2.352 . S
Cd102 O110 2.277 1_554 S
Cd102 O111 2.356 . S
C103 O108 1.209 1_556 S
C103 O110 1.226 . S
O104 Cd100 2.273 . S
O104 Cd102 2.411 . S
O104 C107 1.320 . S
O105 Cd102 2.333 . S
O105 C107 1.214 . S
O106 Cd102 2.352 . S
O106 C109 1.258 . S
C107 O104 1.320 . S
C107 O105 1.214 . S
O108 Cd100 2.277 . S
O108 C103 1.209 1_554 S
C109 O106 1.258 . S
C109 O111 1.282 . S
O110 Cd102 2.277 1_556 S
O110 C103 1.226 . S
O111 Cd102 2.356 . S
O111 C109 1.282 . S
C112 O113 1.306 . S
C112 O115 1.160 . S
O113 C112 1.306 . S
O113 Cd114 2.228 . S
Cd114 O113 2.228 . S
Cd114 O118 2.273 . S
Cd114 O122 2.277 . S
O115 C112 1.160 . S
O115 Cd116 2.203 . S
Cd116 O115 2.203 . S
Cd116 O118 2.411 . S
Cd116 O119 2.333 . S
Cd116 O120 2.352 . S
Cd116 O124 2.277 . S
Cd116 O125 2.356 . S
C117 O122 1.209 . S
C117 O124 1.226 . S
O118 Cd114 2.273 . S
O118 Cd116 2.411 . S
O118 C121 1.320 . S
O119 Cd116 2.333 . S
O119 C121 1.214 . S
O120 Cd116 2.352 . S
O120 C123 1.258 . S
C121 O118 1.320 . S
C121 O119 1.214 . S
O122 Cd114 2.277 . S
O122 C117 1.209 . S
C123 O120 1.258 . S
C123 O125 1.282 . S
O124 Cd116 2.277 . S
O124 C117 1.226 . S
O125 Cd116 2.356 . S
O125 C123 1.282 . S
C126 O127 1.306 . S
C126 O129 1.160 . S
O127 C126 1.306 . S
O127 Cd128 2.228 . S
Cd128 O127 2.228 . S
Cd128 O132 2.273 . S
Cd128 O136 2.277 . S
O129 C126 1.160 . S
O129 Cd130 2.203 . S
Cd130 O129 2.203 . S
Cd130 O132 2.411 . S
Cd130 O133 2.333 . S
Cd130 O134 2.352 . S
Cd130 O138 2.277 . S
Cd130 O139 2.356 . S
C131 O136 1.209 . S
C131 O138 1.226 . S
O132 Cd128 2.273 . S
O132 Cd130 2.411 . S
O132 C135 1.320 . S
O133 Cd130 2.333 . S
O133 C135 1.214 . S
O134 Cd130 2.352 . S
O134 C137 1.258 . S
C135 O132 1.320 . S
C135 O133 1.214 . S
O136 Cd128 2.277 . S
O136 C131 1.209 . S
C137 O134 1.258 . S
C137 O139 1.282 . S
O138 Cd130 2.277 . S
O138 C131 1.226 . S
O139 Cd130 2.356 . S
O139 C137 1.282 . S
C140 O141 1.306 . S
C140 O143 1.160 . S
O141 C140 1.306 . S
O141 Cd142 2.228 . S
Cd142 O141 2.228 . S
Cd142 O146 2.273 . S
Cd142 O150 2.277 . S
O143 C140 1.160 . S
O143 Cd144 2.203 . S
Cd144 O143 2.203 . S
Cd144 O146 2.411 . S
Cd144 O147 2.333 . S
Cd144 O148 2.352 . S
Cd144 O152 2.277 . S
Cd144 O153 2.356 . S
C145 O150 1.209 . S
C145 O152 1.226 . S
O146 Cd142 2.273 . S
O146 Cd144 2.411 . S
O146 C149 1.320 . S
O147 Cd144 2.333 . S
O147 C149 1.214 . S
O148 Cd144 2.352 . S
O148 C151 1.258 . S
C149 O146 1.320 . S
C149 O147 1.214 . S
O150 Cd142 2.277 . S
O150 C145 1.209 . S
C151 O148 1.258 . S
C151 O153 1.282 . S
O152 Cd144 2.277 . S
O152 C145 1.226 . S
O153 Cd144 2.356 . S
O153 C151 1.282 . S
C154 O155 1.306 . S
C154 O157 1.160 . S
O155 C154 1.306 . S
O155 Cd156 2.228 . S
Cd156 O155 2.228 . S
Cd156 O160 2.273 . S
Cd156 O164 2.277 . S
O157 C154 1.160 . S
O157 Cd158 2.203 . S
Cd158 O157 2.203 . S
Cd158 O160 2.411 . S
Cd158 O161 2.333 . S
Cd158 O162 2.352 . S
Cd158 O166 2.277 . S
Cd158 O167 2.356 . S
C159 O164 1.209 . S
C159 O166 1.226 . S
O160 Cd156 2.273 . S
O160 Cd158 2.411 . S
O160 C163 1.320 . S
O161 Cd158 2.333 . S
O161 C163 1.214 . S
O162 Cd158 2.352 . S
O162 C165 1.258 . S
C163 O160 1.320 . S
C163 O161 1.214 . S
O164 Cd156 2.277 . S
O164 C159 1.209 . S
C165 O162 1.258 . S
C165 O167 1.282 . S
O166 Cd158 2.277 . S
O166 C159 1.226 . S
O167 Cd158 2.356 . S
O167 C165 1.282 . S
H168 C176 0.929 . S
H169 C178 0.930 . S
H170 C180 0.930 . S
H171 C183 0.929 . S
H172 C186 0.930 . S
H173 C188 0.960 . S
H174 C188 0.960 . S
H175 C188 0.960 . S
C176 H168 0.929 . S
C176 C177 1.377 . S
C176 C178 1.384 . S
C177 C176 1.377 . S
C177 C183 1.390 . S
C178 H169 0.930 . S
C178 C176 1.384 . S
C178 C179 1.372 . S
C179 C178 1.372 . S
C179 C180 1.400 . S
C179 C184 1.490 . S
C180 H170 0.930 . S
C180 C179 1.400 . S
C180 C183 1.386 . S
H181 C197 0.930 . S
H182 C198 0.931 . S
C183 H171 0.929 . S
C183 C177 1.390 . S
C183 C180 1.386 . S
C184 C179 1.490 . S
C184 C186 1.395 . S
C184 C187 1.403 . S
H185 C191 0.930 . S
C186 H172 0.930 . S
C186 C184 1.395 . S
C186 C189 1.403 . S
C187 C184 1.403 . S
C187 C188 1.524 . S
C187 C191 1.400 . S
C188 H173 0.960 . S
C188 H174 0.960 . S
C188 H175 0.960 . S
C188 C187 1.524 . S
C189 C186 1.403 . S
C189 C190 1.392 . S
C189 C193 1.495 . S
C190 C189 1.392 . S
C190 C191 1.385 . S
C190 C192 1.478 . S
C191 H185 0.930 . S
C191 C187 1.400 . S
C191 C190 1.385 . S
C192 C190 1.478 . S
C192 C194 1.381 . S
C192 C198 1.383 . S
C193 C189 1.495 . S
C193 H199 0.959 . S
C193 H200 0.961 . S
C193 H201 0.960 . S
C194 C192 1.381 . S
C194 C195 1.394 . S
C194 H202 0.930 . S
C195 C194 1.394 . S
C195 C196 1.383 . S
C195 H203 0.929 . S
C196 C195 1.383 . S
C196 C197 1.377 . S
C197 H181 0.930 . S
C197 C196 1.377 . S
C197 C198 1.379 . S
C198 H182 0.931 . S
C198 C192 1.383 . S
C198 C197 1.379 . S
H199 C193 0.959 . S
H200 C193 0.961 . S
H201 C193 0.960 . S
H202 C194 0.930 . S
H203 C195 0.929 . S
H204 C212 0.929 . S
H205 C214 0.930 . S
H206 C216 0.930 . S
H207 C219 0.929 . S
H208 C222 0.930 . S
H209 C224 0.960 . S
H210 C224 0.960 . S
H211 C224 0.960 . S
C212 H204 0.929 . S
C212 C213 1.377 . S
C212 C214 1.384 . S
C213 C212 1.377 . S
C213 C219 1.390 . S
C214 H205 0.930 . S
C214 C212 1.384 . S
C214 C215 1.372 . S
C215 C214 1.372 . S
C215 C216 1.400 . S
C215 C220 1.490 . S
C216 H206 0.930 . S
C216 C215 1.400 . S
C216 C219 1.386 . S
H217 C233 0.930 . S
H218 C234 0.931 . S
C219 H207 0.929 . S
C219 C213 1.390 . S
C219 C216 1.386 . S
C220 C215 1.490 . S
C220 C222 1.395 . S
C220 C223 1.403 . S
H221 C227 0.930 . S
C222 H208 0.930 . S
C222 C220 1.395 . S
C222 C225 1.403 . S
C223 C220 1.403 . S
C223 C224 1.524 . S
C223 C227 1.400 . S
C224 H209 0.960 . S
C224 H210 0.960 . S
C224 H211 0.960 . S
C224 C223 1.524 . S
C225 C222 1.403 . S
C225 C226 1.392 . S
C225 C229 1.495 . S
C226 C225 1.392 . S
C226 C227 1.385 . S
C226 C228 1.478 . S
C227 H221 0.930 . S
C227 C223 1.400 . S
C227 C226 1.385 . S
C228 C226 1.478 . S
C228 C230 1.381 . S
C228 C234 1.383 . S
C229 C225 1.495 . S
C229 H235 0.959 . S
C229 H236 0.961 . S
C229 H237 0.960 . S
C230 C228 1.381 . S
C230 C231 1.394 . S
C230 H238 0.930 . S
C231 C230 1.394 . S
C231 C232 1.383 . S
C231 H239 0.929 . S
C232 C231 1.383 . S
C232 C233 1.377 . S
C233 H217 0.930 . S
C233 C232 1.377 . S
C233 C234 1.379 . S
C234 H218 0.931 . S
C234 C228 1.383 . S
C234 C233 1.379 . S
H235 C229 0.959 . S
H236 C229 0.961 . S
H237 C229 0.960 . S
H238 C230 0.930 . S
H239 C231 0.929 . S
H240 C248 0.929 . S
H241 C250 0.930 . S
H242 C252 0.930 . S
H243 C255 0.929 . S
H244 C258 0.930 . S
H245 C260 0.960 . S
H246 C260 0.960 . S
H247 C260 0.960 . S
C248 H240 0.929 . S
C248 C249 1.377 . S
C248 C250 1.384 . S
C249 C248 1.377 . S
C249 C255 1.390 . S
C250 H241 0.930 . S
C250 C248 1.384 . S
C250 C251 1.372 . S
C251 C250 1.372 . S
C251 C252 1.400 . S
C251 C256 1.490 . S
C252 H242 0.930 . S
C252 C251 1.400 . S
C252 C255 1.386 . S
H253 C269 0.930 . S
H254 C270 0.931 . S
C255 H243 0.929 . S
C255 C249 1.390 . S
C255 C252 1.386 . S
C256 C251 1.490 . S
C256 C258 1.395 . S
C256 C259 1.403 . S
H257 C263 0.930 . S
C258 H244 0.930 . S
C258 C256 1.395 . S
C258 C261 1.403 . S
C259 C256 1.403 . S
C259 C260 1.524 . S
C259 C263 1.400 . S
C260 H245 0.960 . S
C260 H246 0.960 . S
C260 H247 0.960 . S
C260 C259 1.524 . S
C261 C258 1.403 . S
C261 C262 1.392 . S
C261 C265 1.495 . S
C262 C261 1.392 . S
C262 C263 1.385 . S
C262 C264 1.478 . S
C263 H257 0.930 . S
C263 C259 1.400 . S
C263 C262 1.385 . S
C264 C262 1.478 . S
C264 C266 1.381 . S
C264 C270 1.383 . S
C265 C261 1.495 . S
C265 H271 0.959 . S
C265 H272 0.961 . S
C265 H273 0.960 . S
C266 C264 1.381 . S
C266 C267 1.394 . S
C266 H274 0.930 . S
C267 C266 1.394 . S
C267 C268 1.383 . S
C267 H275 0.929 . S
C268 C267 1.383 . S
C268 C269 1.377 . S
C269 H253 0.930 . S
C269 C268 1.377 . S
C269 C270 1.379 . S
C270 H254 0.931 . S
C270 C264 1.383 . S
C270 C269 1.379 . S
H271 C265 0.959 . S
H272 C265 0.961 . S
H273 C265 0.960 . S
H274 C266 0.930 . S
H275 C267 0.929 . S
H276 C284 0.929 . S
H277 C286 0.930 . S
H278 C288 0.930 . S
H279 C291 0.929 . S
H280 C294 0.930 . S
H281 C296 0.960 . S
H282 C296 0.960 . S
H283 C296 0.960 . S
C284 H276 0.929 . S
C284 C285 1.377 . S
C284 C286 1.384 . S
C285 C284 1.377 . S
C285 C291 1.390 . S
C286 H277 0.930 . S
C286 C284 1.384 . S
C286 C287 1.372 . S
C287 C286 1.372 . S
C287 C288 1.400 . S
C287 C292 1.490 . S
C288 H278 0.930 . S
C288 C287 1.400 . S
C288 C291 1.386 . S
H289 C305 0.930 . S
H290 C306 0.931 . S
C291 H279 0.929 . S
C291 C285 1.390 . S
C291 C288 1.386 . S
C292 C287 1.490 . S
C292 C294 1.395 . S
C292 C295 1.403 . S
H293 C299 0.930 . S
C294 H280 0.930 . S
C294 C292 1.395 . S
C294 C297 1.403 . S
C295 C292 1.403 . S
C295 C296 1.524 . S
C295 C299 1.400 . S
C296 H281 0.960 . S
C296 H282 0.960 . S
C296 H283 0.960 . S
C296 C295 1.524 . S
C297 C294 1.403 . S
C297 C298 1.392 . S
C297 C301 1.495 . S
C298 C297 1.392 . S
C298 C299 1.385 . S
C298 C300 1.478 . S
C299 H293 0.930 . S
C299 C295 1.400 . S
C299 C298 1.385 . S
C300 C298 1.478 . S
C300 C302 1.381 . S
C300 C306 1.383 . S
C301 C297 1.495 . S
C301 H307 0.959 . S
C301 H308 0.961 . S
C301 H309 0.960 . S
C302 C300 1.381 . S
C302 C303 1.394 . S
C302 H310 0.930 . S
C303 C302 1.394 . S
C303 C304 1.383 . S
C303 H311 0.929 . S
C304 C303 1.383 . S
C304 C305 1.377 . S
C305 H289 0.930 . S
C305 C304 1.377 . S
C305 C306 1.379 . S
C306 H290 0.931 . S
C306 C300 1.383 . S
C306 C305 1.379 . S
H307 C301 0.959 . S
H308 C301 0.961 . S
H309 C301 0.960 . S
H310 C302 0.930 . S
H311 C303 0.929 . S
H312 C320 0.929 . S
H313 C322 0.930 . S
H314 C324 0.930 . S
H315 C327 0.929 . S
H316 C330 0.930 . S
H317 C332 0.960 . S
H318 C332 0.960 . S
H319 C332 0.960 . S
C320 H312 0.929 . S
C320 C321 1.377 . S
C320 C322 1.384 . S
C321 C320 1.377 . S
C321 C327 1.390 . S
C322 H313 0.930 . S
C322 C320 1.384 . S
C322 C323 1.372 . S
C323 C322 1.372 . S
C323 C324 1.400 . S
C323 C328 1.490 . S
C324 H314 0.930 . S
C324 C323 1.400 . S
C324 C327 1.386 . S
H325 C341 0.930 . S
H326 C342 0.931 . S
C327 H315 0.929 . S
C327 C321 1.390 . S
C327 C324 1.386 . S
C328 C323 1.490 . S
C328 C330 1.395 . S
C328 C331 1.403 . S
H329 C335 0.930 1_554 S
C330 H316 0.930 . S
C330 C328 1.395 . S
C330 C333 1.403 . S
C331 C328 1.403 . S
C331 C332 1.524 . S
C331 C335 1.400 . S
C332 H317 0.960 . S
C332 H318 0.960 . S
C332 H319 0.960 . S
C332 C331 1.524 . S
C333 C330 1.403 . S
C333 C334 1.391 1_556 S
C333 C337 1.495 . S
C334 C333 1.391 1_554 S
C334 C335 1.385 1_554 S
C334 C336 1.479 . S
C335 H329 0.930 1_556 S
C335 C331 1.400 . S
C335 C334 1.385 1_556 S
C336 C334 1.479 . S
C336 C338 1.381 . S
C336 C342 1.383 . S
C337 C333 1.495 . S
C337 H343 0.959 . S
C337 H344 0.961 1_556 S
C337 H345 0.960 . S
C338 C336 1.381 . S
C338 C339 1.394 . S
C338 H346 0.930 1_554 S
C339 C338 1.394 . S
C339 C340 1.383 . S
C339 H347 0.929 . S
C340 C339 1.383 . S
C340 C341 1.377 . S
C341 H325 0.930 . S
C341 C340 1.377 . S
C341 C342 1.379 . S
C342 H326 0.931 . S
C342 C336 1.383 . S
C342 C341 1.379 . S
H343 C337 0.959 . S
H344 C337 0.961 1_554 S
H345 C337 0.960 . S
H346 C338 0.930 1_556 S
H347 C339 0.929 . S
H348 C356 0.929 . S
H349 C358 0.930 . S
H350 C360 0.930 . S
H351 C363 0.929 . S
H352 C366 0.930 . S
H353 C368 0.960 . S
H354 C368 0.960 . S
H355 C368 0.960 . S
C356 H348 0.929 . S
C356 C357 1.377 . S
C356 C358 1.384 . S
C357 C356 1.377 . S
C357 C363 1.390 . S
C358 H349 0.930 . S
C358 C356 1.384 . S
C358 C359 1.372 . S
C359 C358 1.372 . S
C359 C360 1.400 . S
C359 C364 1.490 . S
C360 H350 0.930 . S
C360 C359 1.400 . S
C360 C363 1.386 . S
H361 C377 0.930 . S
H362 C378 0.931 . S
C363 H351 0.929 . S
C363 C357 1.390 . S
C363 C360 1.386 . S
C364 C359 1.490 . S
C364 C366 1.395 . S
C364 C367 1.403 . S
H365 C371 0.930 . S
C366 H352 0.930 . S
C366 C364 1.395 . S
C366 C369 1.403 . S
C367 C364 1.403 . S
C367 C368 1.524 . S
C367 C371 1.400 . S
C368 H353 0.960 . S
C368 H354 0.960 . S
C368 H355 0.960 . S
C368 C367 1.524 . S
C369 C366 1.403 . S
C369 C370 1.392 . S
C369 C373 1.495 . S
C370 C369 1.392 . S
C370 C371 1.385 . S
C370 C372 1.478 . S
C371 H365 0.930 . S
C371 C367 1.400 . S
C371 C370 1.385 . S
C372 C370 1.478 . S
C372 C374 1.381 . S
C372 C378 1.383 . S
C373 C369 1.495 . S
C373 H379 0.959 . S
C373 H380 0.961 . S
C373 H381 0.960 . S
C374 C372 1.381 . S
C374 C375 1.394 . S
C374 H382 0.930 . S
C375 C374 1.394 . S
C375 C376 1.383 1_554 S
C375 H383 0.929 . S
C376 C375 1.383 1_556 S
C376 C377 1.377 . S
C377 H361 0.930 . S
C377 C376 1.377 . S
C377 C378 1.379 1_556 S
C378 H362 0.931 . S
C378 C372 1.383 . S
C378 C377 1.379 1_554 S
H379 C373 0.959 . S
H380 C373 0.961 . S
H381 C373 0.960 . S
H382 C374 0.930 . S
H383 C375 0.929 . S
H384 C392 0.929 . S
H385 C394 0.930 . S
H386 C396 0.930 . S
H387 C399 0.929 . S
H388 C402 0.930 . S
H389 C404 0.960 . S
H390 C404 0.960 . S
H391 C404 0.960 . S
C392 H384 0.929 . S
C392 C393 1.377 . S
C392 C394 1.384 . S
C393 C392 1.377 . S
C393 C399 1.390 . S
C394 H385 0.930 . S
C394 C392 1.384 . S
C394 C395 1.372 . S
C395 C394 1.372 . S
C395 C396 1.400 . S
C395 C400 1.490 . S
C396 H386 0.930 . S
C396 C395 1.400 . S
C396 C399 1.386 . S
H397 C413 0.930 . S
H398 C414 0.931 . S
C399 H387 0.929 . S
C399 C393 1.390 . S
C399 C396 1.386 . S
C400 C395 1.490 . S
C400 C402 1.395 . S
C400 C403 1.403 . S
H401 C407 0.930 . S
C402 H388 0.930 . S
C402 C400 1.395 . S
C402 C405 1.403 . S
C403 C400 1.403 . S
C403 C404 1.524 . S
C403 C407 1.400 . S
C404 H389 0.960 . S
C404 H390 0.960 . S
C404 H391 0.960 . S
C404 C403 1.524 . S
C405 C402 1.403 . S
C405 C406 1.392 . S
C405 C409 1.495 . S
C406 C405 1.392 . S
C406 C407 1.385 . S
C406 C408 1.478 . S
C407 H401 0.930 . S
C407 C403 1.400 . S
C407 C406 1.385 . S
C408 C406 1.478 . S
C408 C410 1.381 . S
C408 C414 1.383 . S
C409 C405 1.495 . S
C409 H415 0.959 . S
C409 H416 0.961 . S
C409 H417 0.960 . S
C410 C408 1.381 . S
C410 C411 1.394 . S
C410 H418 0.930 . S
C411 C410 1.394 . S
C411 C412 1.383 . S
C411 H419 0.929 . S
C412 C411 1.383 . S
C412 C413 1.377 . S
C413 H397 0.930 . S
C413 C412 1.377 . S
C413 C414 1.379 . S
C414 H398 0.931 . S
C414 C408 1.383 . S
C414 C413 1.379 . S
H415 C409 0.959 . S
H416 C409 0.961 . S
H417 C409 0.960 . S
H418 C410 0.930 . S
H419 C411 0.929 . S
H420 C428 0.929 . S
H421 C430 0.930 . S
H422 C432 0.930 . S
H423 C435 0.929 . S
H424 C438 0.930 . S
H425 C440 0.960 . S
H426 C440 0.960 . S
H427 C440 0.960 . S
C428 H420 0.929 . S
C428 C429 1.377 . S
C428 C430 1.384 . S
C429 C428 1.377 . S
C429 C435 1.390 . S
C430 H421 0.930 . S
C430 C428 1.384 . S
C430 C431 1.372 . S
C431 C430 1.372 . S
C431 C432 1.400 . S
C431 C436 1.490 . S
C432 H422 0.930 . S
C432 C431 1.400 . S
C432 C435 1.386 . S
H433 C449 0.930 . S
H434 C450 0.931 . S
C435 H423 0.929 . S
C435 C429 1.390 . S
C435 C432 1.386 . S
C436 C431 1.490 . S
C436 C438 1.395 . S
C436 C439 1.403 . S
H437 C443 0.930 . S
C438 H424 0.930 . S
C438 C436 1.395 . S
C438 C441 1.403 . S
C439 C436 1.403 . S
C439 C440 1.524 . S
C439 C443 1.400 . S
C440 H425 0.960 . S
C440 H426 0.960 . S
C440 H427 0.960 . S
C440 C439 1.524 . S
C441 C438 1.403 . S
C441 C442 1.392 . S
C441 C445 1.495 . S
C442 C441 1.392 . S
C442 C443 1.385 . S
C442 C444 1.478 . S
C443 H437 0.930 . S
C443 C439 1.400 . S
C443 C442 1.385 . S
C444 C442 1.478 . S
C444 C446 1.381 . S
C444 C450 1.383 . S
C445 C441 1.495 . S
C445 H451 0.959 . S
C445 H452 0.961 . S
C445 H453 0.960 . S
C446 C444 1.381 . S
C446 C447 1.394 . S
C446 H454 0.930 . S
C447 C446 1.394 . S
C447 C448 1.383 . S
C447 H455 0.929 . S
C448 C447 1.383 . S
C448 C449 1.377 . S
C449 H433 0.930 . S
C449 C448 1.377 . S
C449 C450 1.379 . S
C450 H434 0.931 . S
C450 C444 1.383 . S
C450 C449 1.379 . S
H451 C445 0.959 . S
H452 C445 0.961 . S
H453 C445 0.960 . S
H454 C446 0.930 . S
H455 C447 0.929 . S
H456 C464 0.929 . S
H457 C466 0.930 . S
H458 C468 0.930 . S
H459 C471 0.929 . S
H460 C474 0.930 . S
H461 C476 0.960 . S
H462 C476 0.960 . S
H463 C476 0.960 . S
C464 H456 0.929 . S
C464 C465 1.377 . S
C464 C466 1.384 . S
C465 C464 1.377 . S
C465 C471 1.390 . S
C466 H457 0.930 . S
C466 C464 1.384 . S
C466 C467 1.372 . S
C467 C466 1.372 . S
C467 C468 1.400 . S
C467 C472 1.490 . S
C468 H458 0.930 . S
C468 C467 1.400 . S
C468 C471 1.386 . S
H469 C485 0.930 . S
H470 C486 0.931 . S
C471 H459 0.929 . S
C471 C465 1.390 . S
C471 C468 1.386 . S
C472 C467 1.490 . S
C472 C474 1.395 . S
C472 C475 1.403 . S
H473 C479 0.930 . S
C474 H460 0.930 . S
C474 C472 1.395 . S
C474 C477 1.403 . S
C475 C472 1.403 . S
C475 C476 1.524 . S
C475 C479 1.400 . S
C476 H461 0.960 . S
C476 H462 0.960 . S
C476 H463 0.960 . S
C476 C475 1.524 . S
C477 C474 1.403 . S
C477 C478 1.392 . S
C477 C481 1.495 . S
C478 C477 1.392 . S
C478 C479 1.385 . S
C478 C480 1.478 . S
C479 H473 0.930 . S
C479 C475 1.400 . S
C479 C478 1.385 . S
C480 C478 1.478 . S
C480 C482 1.381 . S
C480 C486 1.383 . S
C481 C477 1.495 . S
C481 H487 0.959 . S
C481 H488 0.961 . S
C481 H489 0.960 . S
C482 C480 1.381 . S
C482 C483 1.394 . S
C482 H490 0.930 . S
C483 C482 1.394 . S
C483 C484 1.383 . S
C483 H491 0.929 . S
C484 C483 1.383 . S
C484 C485 1.377 . S
C485 H469 0.930 . S
C485 C484 1.377 . S
C485 C486 1.379 . S
C486 H470 0.931 . S
C486 C480 1.383 . S
C486 C485 1.379 . S
H487 C481 0.959 . S
H488 C481 0.961 . S
H489 C481 0.960 . S
H490 C482 0.930 . S
H491 C483 0.929 . S
H492 C500 0.929 . S
H493 C502 0.930 . S
H494 C504 0.930 . S
H495 C507 0.929 . S
H496 C510 0.930 . S
H497 C512 0.960 . S
H498 C512 0.960 . S
H499 C512 0.960 . S
C500 H492 0.929 . S
C500 C501 1.377 . S
C500 C502 1.384 . S
C501 C500 1.377 . S
C501 C507 1.390 . S
C502 H493 0.930 . S
C502 C500 1.384 . S
C502 C503 1.372 . S
C503 C502 1.372 . S
C503 C504 1.400 . S
C503 C508 1.490 . S
C504 H494 0.930 . S
C504 C503 1.400 . S
C504 C507 1.386 . S
H505 C521 0.930 . S
H506 C522 0.931 . S
C507 H495 0.929 . S
C507 C501 1.390 . S
C507 C504 1.386 . S
C508 C503 1.490 . S
C508 C510 1.395 . S
C508 C511 1.403 . S
H509 C515 0.930 . S
C510 H496 0.930 . S
C510 C508 1.395 . S
C510 C513 1.403 . S
C511 C508 1.403 . S
C511 C512 1.524 . S
C511 C515 1.400 . S
C512 H497 0.960 . S
C512 H498 0.960 . S
C512 H499 0.960 . S
C512 C511 1.524 . S
C513 C510 1.403 . S
C513 C514 1.392 . S
C513 C517 1.495 . S
C514 C513 1.392 . S
C514 C515 1.385 . S
C514 C516 1.478 . S
C515 H509 0.930 . S
C515 C511 1.400 . S
C515 C514 1.385 . S
C516 C514 1.478 . S
C516 C518 1.381 . S
C516 C522 1.383 . S
C517 C513 1.495 . S
C517 H523 0.959 . S
C517 H524 0.961 . S
C517 H525 0.960 . S
C518 C516 1.381 . S
C518 C519 1.394 . S
C518 H526 0.930 . S
C519 C518 1.394 . S
C519 C520 1.383 . S
C519 H527 0.929 . S
C520 C519 1.383 . S
C520 C521 1.377 . S
C521 H505 0.930 . S
C521 C520 1.377 . S
C521 C522 1.379 . S
C522 H506 0.931 . S
C522 C516 1.383 . S
C522 C521 1.379 . S
H523 C517 0.959 . S
H524 C517 0.961 . S
H525 C517 0.960 . S
H526 C518 0.930 . S
H527 C519 0.929 . S
H528 C536 0.929 . S
H529 C538 0.930 . S
H530 C540 0.930 . S
H531 C543 0.929 . S
H532 C546 0.930 . S
H533 C548 0.960 . S
H534 C548 0.960 . S
H535 C548 0.960 . S
C536 H528 0.929 . S
C536 C537 1.377 . S
C536 C538 1.384 . S
C537 C536 1.377 . S
C537 C543 1.390 . S
C538 H529 0.930 . S
C538 C536 1.384 . S
C538 C539 1.372 . S
C539 C538 1.372 . S
C539 C540 1.400 . S
C539 C544 1.490 . S
C540 H530 0.930 . S
C540 C539 1.400 . S
C540 C543 1.386 . S
H541 C557 0.930 . S
H542 C558 0.931 . S
C543 H531 0.929 . S
C543 C537 1.390 . S
C543 C540 1.386 . S
C544 C539 1.490 . S
C544 C546 1.395 . S
C544 C547 1.403 . S
H545 C551 0.930 . S
C546 H532 0.930 . S
C546 C544 1.395 . S
C546 C549 1.403 . S
C547 C544 1.403 . S
C547 C548 1.524 . S
C547 C551 1.400 . S
C548 H533 0.960 . S
C548 H534 0.960 . S
C548 H535 0.960 . S
C548 C547 1.524 . S
C549 C546 1.403 . S
C549 C550 1.392 . S
C549 C553 1.495 . S
C550 C549 1.392 . S
C550 C551 1.385 . S
C550 C552 1.478 . S
C551 H545 0.930 . S
C551 C547 1.400 . S
C551 C550 1.385 . S
C552 C550 1.478 . S
C552 C554 1.381 . S
C552 C558 1.383 . S
C553 C549 1.495 . S
C553 H559 0.959 . S
C553 H560 0.961 . S
C553 H561 0.960 . S
C554 C552 1.381 . S
C554 C555 1.394 . S
C554 H562 0.930 . S
C555 C554 1.394 . S
C555 C556 1.383 . S
C555 H563 0.929 . S
C556 C555 1.383 . S
C556 C557 1.377 . S
C557 H541 0.930 . S
C557 C556 1.377 . S
C557 C558 1.379 . S
C558 H542 0.931 . S
C558 C552 1.383 . S
C558 C557 1.379 . S
H559 C553 0.959 . S
H560 C553 0.961 . S
H561 C553 0.960 . S
H562 C554 0.930 . S
H563 C555 0.929 . S
H564 C572 0.929 . S
H565 C574 0.930 . S
H566 C576 0.930 . S
H567 C579 0.929 . S
H568 C582 0.930 . S
H569 C584 0.960 . S
H570 C584 0.960 . S
H571 C584 0.960 . S
C572 H564 0.929 . S
C572 C573 1.377 . S
C572 C574 1.384 . S
C573 C572 1.377 . S
C573 C579 1.390 . S
C574 H565 0.930 . S
C574 C572 1.384 . S
C574 C575 1.372 . S
C575 C574 1.372 . S
C575 C576 1.400 . S
C575 C580 1.490 . S
C576 H566 0.930 . S
C576 C575 1.400 . S
C576 C579 1.386 . S
H577 C593 0.930 . S
H578 C594 0.931 . S
C579 H567 0.929 . S
C579 C573 1.390 . S
C579 C576 1.386 . S
C580 C575 1.490 . S
C580 C582 1.395 . S
C580 C583 1.403 . S
H581 C587 0.930 . S
C582 H568 0.930 . S
C582 C580 1.395 . S
C582 C585 1.403 . S
C583 C580 1.403 . S
C583 C584 1.524 . S
C583 C587 1.400 . S
C584 H569 0.960 . S
C584 H570 0.960 . S
C584 H571 0.960 . S
C584 C583 1.524 . S
C585 C582 1.403 . S
C585 C586 1.392 . S
C585 C589 1.495 . S
C586 C585 1.392 . S
C586 C587 1.385 . S
C586 C588 1.478 . S
C587 H581 0.930 . S
C587 C583 1.400 . S
C587 C586 1.385 . S
C588 C586 1.478 . S
C588 C590 1.381 . S
C588 C594 1.383 1_556 S
C589 C585 1.495 . S
C589 H595 0.959 . S
C589 H596 0.961 1_556 S
C589 H597 0.960 . S
C590 C588 1.381 . S
C590 C591 1.394 . S
C590 H598 0.930 . S
C591 C590 1.394 . S
C591 C592 1.383 1_556 S
C591 H599 0.929 . S
C592 C591 1.383 1_554 S
C592 C593 1.377 . S
C593 H577 0.930 . S
C593 C592 1.377 . S
C593 C594 1.379 . S
C594 H578 0.931 . S
C594 C588 1.383 1_554 S
C594 C593 1.379 . S
H595 C589 0.959 . S
H596 C589 0.961 1_554 S
H597 C589 0.960 . S
H598 C590 0.930 . S
H599 C591 0.929 . S
H600 C608 0.929 . S
H601 C610 0.930 . S
H602 C612 0.930 . S
H603 C615 0.929 . S
H604 C618 0.930 . S
H605 C620 0.960 . S
H606 C620 0.960 . S
H607 C620 0.960 . S
C608 H600 0.929 . S
C608 C609 1.377 . S
C608 C610 1.384 . S
C609 C608 1.377 . S
C609 C615 1.390 . S
C610 H601 0.930 . S
C610 C608 1.384 . S
C610 C611 1.372 . S
C611 C610 1.372 . S
C611 C612 1.400 . S
C611 C616 1.490 . S
C612 H602 0.930 . S
C612 C611 1.400 . S
C612 C615 1.386 . S
H613 C629 0.930 . S
H614 C630 0.931 . S
C615 H603 0.929 . S
C615 C609 1.390 . S
C615 C612 1.386 . S
C616 C611 1.490 . S
C616 C618 1.395 . S
C616 C619 1.403 . S
H617 C623 0.930 . S
C618 H604 0.930 . S
C618 C616 1.395 . S
C618 C621 1.403 . S
C619 C616 1.403 . S
C619 C620 1.524 . S
C619 C623 1.400 . S
C620 H605 0.960 . S
C620 H606 0.960 . S
C620 H607 0.960 . S
C620 C619 1.524 . S
C621 C618 1.403 . S
C621 C622 1.392 . S
C621 C625 1.495 . S
C622 C621 1.392 . S
C622 C623 1.385 . S
C622 C624 1.478 . S
C623 H617 0.930 . S
C623 C619 1.400 . S
C623 C622 1.385 . S
C624 C622 1.478 . S
C624 C626 1.381 . S
C624 C630 1.383 . S
C625 C621 1.495 . S
C625 H631 0.959 . S
C625 H632 0.961 . S
C625 H633 0.960 . S
C626 C624 1.381 . S
C626 C627 1.394 . S
C626 H634 0.930 . S
C627 C626 1.394 . S
C627 C628 1.383 . S
C627 H635 0.929 . S
C628 C627 1.383 . S
C628 C629 1.377 . S
C629 H613 0.930 . S
C629 C628 1.377 . S
C629 C630 1.379 . S
C630 H614 0.931 . S
C630 C624 1.383 . S
C630 C629 1.379 . S
H631 C625 0.959 . S
H632 C625 0.961 . S
H633 C625 0.960 . S
H634 C626 0.930 . S
H635 C627 0.929 . S
H636 C644 0.929 . S
H637 C646 0.914 1_556 S
H638 C648 0.930 . S
H639 C651 0.929 . S
H640 C654 0.930 . S
H641 C656 0.960 . S
H642 C656 0.960 . S
H643 C656 0.960 . S
C644 H636 0.929 . S
C644 C645 1.377 . S
C644 C646 1.384 . S
C645 C644 1.377 . S
C645 C651 1.390 . S
C646 H637 0.914 1_554 S
C646 C644 1.384 . S
C646 C647 1.372 . S
C647 C646 1.372 . S
C647 C648 1.400 . S
C647 C652 1.483 1_554 S
C648 H638 0.930 . S
C648 C647 1.400 . S
C648 C651 1.386 . S
H649 C665 0.930 . S
H650 C666 0.931 . S
C651 H639 0.929 . S
C651 C645 1.390 . S
C651 C648 1.386 . S
C652 C647 1.483 1_556 S
C652 C654 1.401 . S
C652 C655 1.404 . S
H653 C659 0.930 . S
C654 H640 0.930 . S
C654 C652 1.401 . S
C654 C657 1.403 . S
C655 C652 1.404 . S
C655 C656 1.524 1_556 S
C655 C659 1.400 . S
C656 H641 0.960 . S
C656 H642 0.960 . S
C656 H643 0.960 . S
C656 C655 1.524 1_554 S
C657 C654 1.403 . S
C657 C658 1.392 . S
C657 C661 1.495 . S
C658 C657 1.392 . S
C658 C659 1.385 . S
C658 C660 1.478 . S
C659 H653 0.930 . S
C659 C655 1.400 . S
C659 C658 1.385 . S
C660 C658 1.478 . S
C660 C662 1.381 . S
C660 C666 1.383 . S
C661 C657 1.495 . S
C661 H667 0.959 . S
C661 H668 0.961 . S
C661 H669 0.960 . S
C662 C660 1.381 . S
C662 C663 1.394 . S
C662 H670 0.930 . S
C663 C662 1.394 . S
C663 C664 1.383 . S
C663 H671 0.929 . S
C664 C663 1.383 . S
C664 C665 1.377 . S
C665 H649 0.930 . S
C665 C664 1.377 . S
C665 C666 1.379 . S
C666 H650 0.931 . S
C666 C660 1.383 . S
C666 C665 1.379 . S
H667 C661 0.959 . S
H668 C661 0.961 . S
H669 C661 0.960 . S
H670 C662 0.930 . S
H671 C663 0.929 . S
H672 C680 0.929 . S
H673 C682 0.930 . S
H674 C684 0.930 . S
H675 C687 0.929 . S
H676 C690 0.930 . S
H677 C692 0.960 . S
H678 C692 0.960 . S
H679 C692 0.960 . S
C680 H672 0.929 . S
C680 C681 1.377 . S
C680 C682 1.384 . S
C681 C680 1.377 . S
C681 C687 1.390 . S
C682 H673 0.930 . S
C682 C680 1.384 . S
C682 C683 1.372 . S
C683 C682 1.372 . S
C683 C684 1.400 . S
C683 C688 1.490 . S
C684 H674 0.930 . S
C684 C683 1.400 . S
C684 C687 1.386 . S
H685 C701 0.930 1_556 S
H686 C702 0.931 . S
C687 H675 0.929 . S
C687 C681 1.390 . S
C687 C684 1.386 . S
C688 C683 1.490 . S
C688 C690 1.395 . S
C688 C691 1.403 . S
H689 C695 0.930 . S
C690 H676 0.930 . S
C690 C688 1.395 . S
C690 C693 1.403 . S
C691 C688 1.403 . S
C691 C692 1.524 . S
C691 C695 1.400 . S
C692 H677 0.960 . S
C692 H678 0.960 . S
C692 H679 0.960 . S
C692 C691 1.524 . S
C693 C690 1.403 . S
C693 C694 1.392 . S
C693 C697 1.495 . S
C694 C693 1.392 . S
C694 C695 1.385 . S
C694 C696 1.478 . S
C695 H689 0.930 . S
C695 C691 1.400 . S
C695 C694 1.385 . S
C696 C694 1.478 . S
C696 C698 1.381 . S
C696 C702 1.383 . S
C697 C693 1.495 . S
C697 H703 0.959 . S
C697 H704 0.961 . S
C697 H705 0.960 . S
C698 C696 1.381 . S
C698 C699 1.394 . S
C698 H706 0.930 . S
C699 C698 1.394 . S
C699 C700 1.383 1_554 S
C699 H707 0.929 1_554 S
C700 C699 1.383 1_556 S
C700 C701 1.377 1_556 S
C701 H685 0.930 1_554 S
C701 C700 1.377 1_554 S
C701 C702 1.379 . S
C702 H686 0.931 . S
C702 C696 1.383 . S
C702 C701 1.379 . S
H703 C697 0.959 . S
H704 C697 0.961 . S
H705 C697 0.960 . S
H706 C698 0.930 . S
H707 C699 0.929 1_556 S
H708 C716 0.929 . S
H709 C718 0.930 . S
H710 C720 0.930 . S
H711 C723 0.929 . S
H712 C726 0.930 . S
H713 C728 0.960 . S
H714 C728 0.960 . S
H715 C728 0.960 . S
C716 H708 0.929 . S
C716 C717 1.377 . S
C716 C718 1.384 . S
C717 C716 1.377 . S
C717 C723 1.390 . S
C718 H709 0.930 . S
C718 C716 1.384 . S
C718 C719 1.372 . S
C719 C718 1.372 . S
C719 C720 1.400 . S
C719 C724 1.490 . S
C720 H710 0.930 . S
C720 C719 1.400 . S
C720 C723 1.386 . S
H721 C737 0.930 . S
H722 C738 0.931 . S
C723 H711 0.929 . S
C723 C717 1.390 . S
C723 C720 1.386 . S
C724 C719 1.490 . S
C724 C726 1.395 . S
C724 C727 1.403 . S
H725 C731 0.930 . S
C726 H712 0.930 . S
C726 C724 1.395 . S
C726 C729 1.403 . S
C727 C724 1.403 . S
C727 C728 1.524 . S
C727 C731 1.400 . S
C728 H713 0.960 . S
C728 H714 0.960 . S
C728 H715 0.960 . S
C728 C727 1.524 . S
C729 C726 1.403 . S
C729 C730 1.392 . S
C729 C733 1.495 . S
C730 C729 1.392 . S
C730 C731 1.385 . S
C730 C732 1.478 . S
C731 H725 0.930 . S
C731 C727 1.400 . S
C731 C730 1.385 . S
C732 C730 1.478 . S
C732 C734 1.381 . S
C732 C738 1.383 . S
C733 C729 1.495 . S
C733 H739 0.959 . S
C733 H740 0.961 . S
C733 H741 0.960 . S
C734 C732 1.381 . S
C734 C735 1.394 . S
C734 H742 0.930 . S
C735 C734 1.394 . S
C735 C736 1.383 . S
C735 H743 0.929 . S
C736 C735 1.383 . S
C736 C737 1.377 . S
C737 H721 0.930 . S
C737 C736 1.377 . S
C737 C738 1.379 . S
C738 H722 0.931 . S
C738 C732 1.383 . S
C738 C737 1.379 . S
H739 C733 0.959 . S
H740 C733 0.961 . S
H741 C733 0.960 . S
H742 C734 0.930 . S
H743 C735 0.929 . S
H744 C752 0.929 . S
H745 C754 0.930 . S
H746 C756 0.930 . S
H747 C759 0.929 . S
H748 C762 0.930 . S
H749 C764 0.960 . S
H750 C764 0.960 . S
H751 C764 0.960 . S
C752 H744 0.929 . S
C752 C753 1.377 . S
C752 C754 1.384 . S
C753 C752 1.377 . S
C753 C759 1.390 . S
C754 H745 0.930 . S
C754 C752 1.384 . S
C754 C755 1.372 . S
C755 C754 1.372 . S
C755 C756 1.400 . S
C755 C760 1.490 . S
C756 H746 0.930 . S
C756 C755 1.400 . S
C756 C759 1.386 . S
H757 C773 0.930 . S
H758 C774 0.931 . S
C759 H747 0.929 . S
C759 C753 1.390 . S
C759 C756 1.386 . S
C760 C755 1.490 . S
C760 C762 1.395 . S
C760 C763 1.403 . S
H761 C767 0.930 . S
C762 H748 0.930 . S
C762 C760 1.395 . S
C762 C765 1.403 . S
C763 C760 1.403 . S
C763 C764 1.524 . S
C763 C767 1.400 . S
C764 H749 0.960 . S
C764 H750 0.960 . S
C764 H751 0.960 . S
C764 C763 1.524 . S
C765 C762 1.403 . S
C765 C766 1.392 . S
C765 C769 1.495 . S
C766 C765 1.392 . S
C766 C767 1.385 . S
C766 C768 1.478 . S
C767 H761 0.930 . S
C767 C763 1.400 . S
C767 C766 1.385 . S
C768 C766 1.478 . S
C768 C770 1.381 . S
C768 C774 1.383 . S
C769 C765 1.495 . S
C769 H775 0.959 . S
C769 H776 0.961 . S
C769 H777 0.960 . S
C770 C768 1.381 . S
C770 C771 1.394 . S
C770 H778 0.930 . S
C771 C770 1.394 . S
C771 C772 1.383 . S
C771 H779 0.929 . S
C772 C771 1.383 . S
C772 C773 1.377 . S
C773 H757 0.930 . S
C773 C772 1.377 . S
C773 C774 1.379 . S
C774 H758 0.931 . S
C774 C768 1.383 . S
C774 C773 1.379 . S
H775 C769 0.959 . S
H776 C769 0.961 . S
H777 C769 0.960 . S
H778 C770 0.930 . S
H779 C771 0.929 . S
H780 C788 0.929 . S
H781 C790 0.930 . S
H782 C792 0.930 . S
H783 C795 0.929 . S
H784 C798 0.930 . S
H785 C800 0.960 . S
H786 C800 0.960 . S
H787 C800 0.960 . S
C788 H780 0.929 . S
C788 C789 1.377 . S
C788 C790 1.384 . S
C789 C788 1.377 . S
C789 C795 1.390 . S
C790 H781 0.930 . S
C790 C788 1.384 . S
C790 C791 1.372 . S
C791 C790 1.372 . S
C791 C792 1.400 . S
C791 C796 1.490 . S
C792 H782 0.930 . S
C792 C791 1.400 . S
C792 C795 1.386 . S
H793 C809 0.930 . S
H794 C810 0.931 . S
C795 H783 0.929 . S
C795 C789 1.390 . S
C795 C792 1.386 . S
C796 C791 1.490 . S
C796 C798 1.395 . S
C796 C799 1.403 . S
H797 C803 0.930 . S
C798 H784 0.930 . S
C798 C796 1.395 . S
C798 C801 1.403 . S
C799 C796 1.403 . S
C799 C800 1.524 . S
C799 C803 1.400 . S
C800 H785 0.960 . S
C800 H786 0.960 . S
C800 H787 0.960 . S
C800 C799 1.524 . S
C801 C798 1.403 . S
C801 C802 1.392 . S
C801 C805 1.495 . S
C802 C801 1.392 . S
C802 C803 1.385 . S
C802 C804 1.478 . S
C803 H797 0.930 . S
C803 C799 1.400 . S
C803 C802 1.385 . S
C804 C802 1.478 . S
C804 C806 1.381 . S
C804 C810 1.383 . S
C805 C801 1.495 . S
C805 H811 0.959 . S
C805 H812 0.961 . S
C805 H813 0.960 . S
C806 C804 1.381 . S
C806 C807 1.394 . S
C806 H814 0.930 . S
C807 C806 1.394 . S
C807 C808 1.383 . S
C807 H815 0.929 . S
C808 C807 1.383 . S
C808 C809 1.377 . S
C809 H793 0.930 . S
C809 C808 1.377 . S
C809 C810 1.379 . S
C810 H794 0.931 . S
C810 C804 1.383 . S
C810 C809 1.379 . S
H811 C805 0.959 . S
H812 C805 0.961 . S
H813 C805 0.960 . S
H814 C806 0.930 . S
H815 C807 0.929 . S
H816 C824 0.929 . S
H817 C826 0.930 . S
H818 C828 0.930 . S
H819 C831 0.941 . S
H820 C834 0.930 . S
H821 C836 1.010 . S
H822 C836 0.955 1_455 S
H823 C836 0.932 1_455 S
C824 H816 0.929 . S
C824 C825 1.377 . S
C824 C826 1.384 . S
C825 C824 1.377 . S
C825 C831 1.385 1_556 S
C826 H817 0.930 . S
C826 C824 1.384 . S
C826 C827 1.372 . S
C827 C826 1.372 . S
C827 C828 1.400 . S
C827 C832 1.490 . S
C828 H818 0.930 . S
C828 C827 1.400 . S
C828 C831 1.379 1_556 S
H829 C845 0.930 . S
H830 C846 0.931 . S
C831 H819 0.941 . S
C831 C825 1.385 1_554 S
C831 C828 1.379 1_554 S
C832 C827 1.490 . S
C832 C834 1.395 . S
C832 C835 1.443 . S
H833 C839 0.930 . S
C834 H820 0.930 . S
C834 C832 1.395 . S
C834 C837 1.403 . S
C835 C832 1.443 . S
C835 C836 1.499 1_455 S
C835 C839 1.371 1_455 S
C836 H821 1.010 . S
C836 H822 0.955 1_655 S
C836 H823 0.932 1_655 S
C836 C835 1.499 1_655 S
C837 C834 1.403 . S
C837 C838 1.392 1_455 S
C837 C841 1.495 . S
C838 C837 1.392 1_655 S
C838 C839 1.385 . S
C838 C840 1.478 . S
C839 H833 0.930 . S
C839 C835 1.371 1_655 S
C839 C838 1.385 . S
C840 C838 1.478 . S
C840 C842 1.381 . S
C840 C846 1.383 . S
C841 C837 1.495 . S
C841 H847 0.959 . S
C841 H848 0.961 1_455 S
C841 H849 0.960 1_455 S
C842 C840 1.381 . S
C842 C843 1.394 . S
C842 H850 0.930 . S
C843 C842 1.394 . S
C843 C844 1.383 . S
C843 H851 0.929 . S
C844 C843 1.383 . S
C844 C845 1.377 . S
C845 H829 0.930 . S
C845 C844 1.377 . S
C845 C846 1.379 . S
C846 H830 0.931 . S
C846 C840 1.383 . S
C846 C845 1.379 . S
H847 C841 0.959 . S
H848 C841 0.961 1_655 S
H849 C841 0.960 1_655 S
H850 C842 0.930 . S
H851 C843 0.929 . S
H852 C860 0.929 . S
H853 C862 0.930 . S
H854 C864 0.930 . S
H855 C867 0.929 . S
H856 C870 0.933 1_565 S
H857 C872 0.960 . S
H858 C872 0.960 . S
H859 C872 0.960 . S
C860 H852 0.929 . S
C860 C861 1.377 . S
C860 C862 1.384 . S
C861 C860 1.377 . S
C861 C867 1.390 . S
C862 H853 0.930 . S
C862 C860 1.384 . S
C862 C863 1.372 . S
C863 C862 1.372 . S
C863 C864 1.400 1_556 S
C863 C868 1.490 1_556 S
C864 H854 0.930 . S
C864 C863 1.400 1_554 S
C864 C867 1.386 1_554 S
H865 C881 0.930 . S
H866 C882 0.931 . S
C867 H855 0.929 . S
C867 C861 1.390 . S
C867 C864 1.386 1_556 S
C868 C863 1.490 1_554 S
C868 C870 1.378 1_564 S
C868 C871 1.403 . S
H869 C875 0.930 . S
C870 H856 0.933 1_545 S
C870 C868 1.378 1_546 S
C870 C873 1.419 1_556 S
C871 C868 1.403 . S
C871 C872 1.524 . S
C871 C875 1.400 1_565 S
C872 H857 0.960 . S
C872 H858 0.960 . S
C872 H859 0.960 . S
C872 C871 1.524 . S
C873 C870 1.419 1_554 S
C873 C874 1.392 . S
C873 C877 1.495 1_554 S
C874 C873 1.392 . S
C874 C875 1.385 . S
C874 C876 1.478 . S
C875 H869 0.930 . S
C875 C871 1.400 1_545 S
C875 C874 1.385 . S
C876 C874 1.478 . S
C876 C878 1.381 . S
C876 C882 1.383 . S
C877 C873 1.495 1_556 S
C877 H883 0.959 . S
C877 H884 0.961 1_556 S
C877 H885 0.960 . S
C878 C876 1.381 . S
C878 C879 1.394 . S
C878 H886 0.930 . S
C879 C878 1.394 . S
C879 C880 1.383 . S
C879 H887 0.929 . S
C880 C879 1.383 . S
C880 C881 1.377 . S
C881 H865 0.930 . S
C881 C880 1.377 . S
C881 C882 1.379 . S
C882 H866 0.931 . S
C882 C876 1.383 . S
C882 C881 1.379 . S
H883 C877 0.959 . S
H884 C877 0.961 1_554 S
H885 C877 0.960 . S
H886 C878 0.930 . S
H887 C879 0.929 . S
H888 C896 0.929 . S
H889 C898 0.930 . S
H890 C900 0.930 . S
H891 C903 0.929 . S
H892 C906 0.930 . S
H893 C908 0.960 . S
H894 C908 0.960 . S
H895 C908 0.960 . S
C896 H888 0.929 . S
C896 C897 1.377 . S
C896 C898 1.384 . S
C897 C896 1.377 . S
C897 C903 1.390 . S
C898 H889 0.930 . S
C898 C896 1.384 . S
C898 C899 1.372 . S
C899 C898 1.372 . S
C899 C900 1.400 . S
C899 C904 1.490 . S
C900 H890 0.930 . S
C900 C899 1.400 . S
C900 C903 1.386 . S
H901 C917 0.930 . S
H902 C918 0.931 . S
C903 H891 0.929 . S
C903 C897 1.390 . S
C903 C900 1.386 . S
C904 C899 1.490 . S
C904 C906 1.395 . S
C904 C907 1.403 . S
H905 C911 0.930 . S
C906 H892 0.930 . S
C906 C904 1.395 . S
C906 C909 1.403 . S
C907 C904 1.403 . S
C907 C908 1.524 . S
C907 C911 1.400 . S
C908 H893 0.960 . S
C908 H894 0.960 . S
C908 H895 0.960 . S
C908 C907 1.524 . S
C909 C906 1.403 . S
C909 C910 1.392 . S
C909 C913 1.495 . S
C910 C909 1.392 . S
C910 C911 1.385 . S
C910 C912 1.478 . S
C911 H905 0.930 . S
C911 C907 1.400 . S
C911 C910 1.385 . S
C912 C910 1.478 . S
C912 C914 1.381 . S
C912 C918 1.383 . S
C913 C909 1.495 . S
C913 H919 0.959 . S
C913 H920 0.961 . S
C913 H921 0.960 . S
C914 C912 1.381 . S
C914 C915 1.394 . S
C914 H922 0.930 . S
C915 C914 1.394 . S
C915 C916 1.383 . S
C915 H923 0.929 . S
C916 C915 1.383 . S
C916 C917 1.377 . S
C917 H901 0.930 . S
C917 C916 1.377 . S
C917 C918 1.379 . S
C918 H902 0.931 . S
C918 C912 1.383 . S
C918 C917 1.379 . S
H919 C913 0.959 . S
H920 C913 0.961 . S
H921 C913 0.960 . S
H922 C914 0.930 . S
H923 C915 0.929 . S
H924 C932 0.929 . S
H925 C934 0.930 . S
H926 C936 0.930 . S
H927 C939 0.929 . S
H928 C942 0.930 . S
H929 C944 1.021 . S
H930 C944 0.932 1_455 S
H931 C944 0.948 1_455 S
C932 H924 0.929 . S
C932 C933 1.377 . S
C932 C934 1.384 . S
C933 C932 1.377 . S
C933 C939 1.390 . S
C934 H925 0.930 . S
C934 C932 1.384 . S
C934 C935 1.372 . S
C935 C934 1.372 . S
C935 C936 1.400 . S
C935 C940 1.490 . S
C936 H926 0.930 . S
C936 C935 1.400 . S
C936 C939 1.386 . S
H937 C953 0.930 . S
H938 C954 0.931 . S
C939 H927 0.929 . S
C939 C933 1.390 . S
C939 C936 1.386 . S
C940 C935 1.490 . S
C940 C942 1.395 . S
C940 C943 1.432 . S
H941 C947 0.930 . S
C942 H928 0.930 . S
C942 C940 1.395 . S
C942 C945 1.429 . S
C943 C940 1.432 . S
C943 C944 1.500 1_455 S
C943 C947 1.379 1_455 S
C944 H929 1.021 . S
C944 H930 0.932 1_655 S
C944 H931 0.948 1_655 S
C944 C943 1.500 1_655 S
C945 C942 1.429 . S
C945 C946 1.357 1_455 S
C945 C949 1.506 . S
C946 C945 1.357 1_655 S
C946 C947 1.385 . S
C946 C948 1.478 . S
C947 H941 0.930 . S
C947 C943 1.379 1_655 S
C947 C946 1.385 . S
C948 C946 1.478 . S
C948 C950 1.381 . S
C948 C954 1.383 . S
C949 C945 1.506 . S
C949 H955 0.959 . S
C949 H956 0.961 1_455 S
C949 H957 0.960 1_455 S
C950 C948 1.381 . S
C950 C951 1.394 . S
C950 H958 0.930 . S
C951 C950 1.394 . S
C951 C952 1.383 . S
C951 H959 0.929 . S
C952 C951 1.383 . S
C952 C953 1.377 . S
C953 H937 0.930 . S
C953 C952 1.377 . S
C953 C954 1.379 . S
C954 H938 0.931 . S
C954 C948 1.383 . S
C954 C953 1.379 . S
H955 C949 0.959 . S
H956 C949 0.961 1_655 S
H957 C949 0.960 1_655 S
H958 C950 0.930 . S
H959 C951 0.929 . S
H960 C968 0.929 . S
H961 C970 0.930 . S
H962 C972 0.930 . S
H963 C975 0.929 . S
H964 C978 0.930 . S
H965 C980 0.960 . S
H966 C980 0.960 . S
H967 C980 0.960 . S
C968 H960 0.929 . S
C968 C969 1.377 . S
C968 C970 1.384 . S
C969 C968 1.377 . S
C969 C975 1.390 . S
C970 H961 0.930 . S
C970 C968 1.384 . S
C970 C971 1.372 . S
C971 C970 1.372 . S
C971 C972 1.400 . S
C971 C976 1.490 . S
C972 H962 0.930 . S
C972 C971 1.400 . S
C972 C975 1.386 . S
H973 C989 0.930 . S
H974 C990 0.931 . S
C975 H963 0.929 . S
C975 C969 1.390 . S
C975 C972 1.386 . S
C976 C971 1.490 . S
C976 C978 1.395 . S
C976 C979 1.403 . S
H977 C983 0.930 . S
C978 H964 0.930 . S
C978 C976 1.395 . S
C978 C981 1.403 1_545 S
C979 C976 1.403 . S
C979 C980 1.524 . S
C979 C983 1.400 1_545 S
C980 H965 0.960 . S
C980 H966 0.960 . S
C980 H967 0.960 . S
C980 C979 1.524 . S
C981 C978 1.403 1_565 S
C981 C982 1.392 . S
C981 C985 1.495 . S
C982 C981 1.392 . S
C982 C983 1.385 . S
C982 C984 1.478 . S
C983 H977 0.930 . S
C983 C979 1.400 1_565 S
C983 C982 1.385 . S
C984 C982 1.478 . S
C984 C986 1.381 . S
C984 C990 1.383 . S
C985 C981 1.495 . S
C985 H991 0.959 . S
C985 H992 0.961 . S
C985 H993 0.960 . S
C986 C984 1.381 . S
C986 C987 1.394 . S
C986 H994 0.930 . S
C987 C986 1.394 . S
C987 C988 1.383 . S
C987 H995 0.929 . S
C988 C987 1.383 . S
C988 C989 1.377 . S
C989 H973 0.930 . S
C989 C988 1.377 . S
C989 C990 1.379 . S
C990 H974 0.931 . S
C990 C984 1.383 . S
C990 C989 1.379 . S
H991 C985 0.959 . S
H992 C985 0.961 . S
H993 C985 0.960 . S
H994 C986 0.930 . S
H995 C987 0.929 . S
H996 C1004 0.929 . S
H997 C1006 0.930 . S
H998 C1008 0.930 . S
H999 C1011 0.929 . S
H1000 C1014 0.930 . S
H1001 C1016 0.960 . S
H1002 C1016 0.960 . S
H1003 C1016 0.960 . S
C1004 H996 0.929 . S
C1004 C1005 1.377 . S
C1004 C1006 1.384 . S
C1005 C1004 1.377 . S
C1005 C1011 1.390 . S
C1006 H997 0.930 . S
C1006 C1004 1.384 . S
C1006 C1007 1.372 . S
C1007 C1006 1.372 . S
C1007 C1008 1.400 . S
C1007 C1012 1.490 . S
C1008 H998 0.930 . S
C1008 C1007 1.400 . S
C1008 C1011 1.386 . S
H1009 C1025 0.930 . S
H1010 C1026 0.931 . S
C1011 H999 0.929 . S
C1011 C1005 1.390 . S
C1011 C1008 1.386 . S
C1012 C1007 1.490 . S
C1012 C1014 1.395 . S
C1012 C1015 1.403 . S
H1013 C1019 0.930 . S
C1014 H1000 0.930 . S
C1014 C1012 1.395 . S
C1014 C1017 1.403 . S
C1015 C1012 1.403 . S
C1015 C1016 1.524 . S
C1015 C1019 1.400 . S
C1016 H1001 0.960 . S
C1016 H1002 0.960 . S
C1016 H1003 0.960 . S
C1016 C1015 1.524 . S
C1017 C1014 1.403 . S
C1017 C1018 1.392 . S
C1017 C1021 1.495 . S
C1018 C1017 1.392 . S
C1018 C1019 1.385 . S
C1018 C1020 1.478 . S
C1019 H1013 0.930 . S
C1019 C1015 1.400 . S
C1019 C1018 1.385 . S
C1020 C1018 1.478 . S
C1020 C1022 1.381 . S
C1020 C1026 1.383 . S
C1021 C1017 1.495 . S
C1021 H1027 0.959 . S
C1021 H1028 0.961 . S
C1021 H1029 0.960 . S
C1022 C1020 1.381 . S
C1022 C1023 1.394 . S
C1022 H1030 0.930 . S
C1023 C1022 1.394 . S
C1023 C1024 1.383 . S
C1023 H1031 0.929 . S
C1024 C1023 1.383 . S
C1024 C1025 1.377 . S
C1025 H1009 0.930 . S
C1025 C1024 1.377 . S
C1025 C1026 1.379 . S
C1026 H1010 0.931 . S
C1026 C1020 1.383 . S
C1026 C1025 1.379 . S
H1027 C1021 0.959 . S
H1028 C1021 0.961 . S
H1029 C1021 0.960 . S
H1030 C1022 0.930 . S
H1031 C1023 0.929 . S
C177 C5 1.524 . S
C196 C145 1.523 . S
C213 C159 1.526 . S
C232 C19 1.520 . S
C249 C33 1.525 . S
C268 C89 1.529 . S
C285 C47 1.528 . S
C304 C103 1.527 . S
C321 C61 1.525 . S
C340 C117 1.514 . S
C357 C131 1.525 . S
C376 C75 1.512 . S
C393 C9 1.624 . S
C412 C121 1.615 . S
C429 C23 1.622 . S
C448 C135 1.617 . S
C465 C149 1.624 . S
C484 C37 1.615 . S
C501 C51 1.622 . S
C520 C163 1.615 . S
C537 C65 1.622 . S
C556 C93 1.619 . S
C573 C79 1.623 . S
C592 C107 1.614 . S
C609 C140 1.209 . S
C628 C0 1.198 . S
C645 C14 1.211 . S
C664 C154 1.193 . S
C681 C28 1.209 . S
C700 C84 1.204 . S
C717 C42 1.206 . S
C736 C98 1.213 . S
C753 C112 1.208 . S
C772 C56 1.211 . S
C789 C70 1.208 . S
C808 C126 1.210 . S
C825 C11 1.364 1_556 S
C844 C165 1.368 . S
C861 C95 1.367 . S
C880 C25 1.358 . S
C897 C109 1.367 . S
C916 C39 1.358 . S
C933 C123 1.365 . S
C952 C53 1.363 . S
C969 C137 1.365 . S
C988 C67 1.363 . S
C1005 C151 1.365 . S
C1024 C81 1.369 . S
