# Generated by pormake.
# Topology smm, (6)-cn, num edge types: 1
# Building blocks:
#     Node 0, Type 0, BuildingBlock: KUMBOL_clean_sbu_1, # of connection points: 6
#     Node 1, Type 0, BuildingBlock: KUMBOL_clean_sbu_1, # of connection points: 6
#     Node 2, Type 0, BuildingBlock: KUMBOL_clean_sbu_1, # of connection points: 6
#     Node 3, Type 0, BuildingBlock: KUMBOL_clean_sbu_1, # of connection points: 6
#     Node 4, Type 0, BuildingBlock: KUMBOL_clean_sbu_1, # of connection points: 6
#     Node 5, Type 0, BuildingBlock: KUMBOL_clean_sbu_1, # of connection points: 6
#     Node 6, Type 0, BuildingBlock: KUMBOL_clean_sbu_1, # of connection points: 6
#     Node 7, Type 0, BuildingBlock: KUMBOL_clean_sbu_1, # of connection points: 6
#     Node 8, Type 0, BuildingBlock: KUMBOL_clean_sbu_1, # of connection points: 6
#     Edge 9, Type (0, 0), BuildingBlock: ZUJKAS_clean_linker_0, # of connection points: 2
#     Edge 10, Type (0, 0), BuildingBlock: ZUJKAS_clean_linker_0, # of connection points: 2
#     Edge 11, Type (0, 0), BuildingBlock: ZUJKAS_clean_linker_0, # of connection points: 2
#     Edge 12, Type (0, 0), BuildingBlock: ZUJKAS_clean_linker_0, # of connection points: 2
#     Edge 13, Type (0, 0), BuildingBlock: ZUJKAS_clean_linker_0, # of connection points: 2
#     Edge 14, Type (0, 0), BuildingBlock: ZUJKAS_clean_linker_0, # of connection points: 2
#     Edge 15, Type (0, 0), BuildingBlock: ZUJKAS_clean_linker_0, # of connection points: 2
#     Edge 16, Type (0, 0), BuildingBlock: ZUJKAS_clean_linker_0, # of connection points: 2
#     Edge 17, Type (0, 0), BuildingBlock: ZUJKAS_clean_linker_0, # of connection points: 2
#     Edge 18, Type (0, 0), BuildingBlock: ZUJKAS_clean_linker_0, # of connection points: 2
#     Edge 19, Type (0, 0), BuildingBlock: ZUJKAS_clean_linker_0, # of connection points: 2
#     Edge 20, Type (0, 0), BuildingBlock: ZUJKAS_clean_linker_0, # of connection points: 2
#     Edge 21, Type (0, 0), BuildingBlock: ZUJKAS_clean_linker_0, # of connection points: 2
#     Edge 22, Type (0, 0), BuildingBlock: ZUJKAS_clean_linker_0, # of connection points: 2
#     Edge 23, Type (0, 0), BuildingBlock: ZUJKAS_clean_linker_0, # of connection points: 2
#     Edge 24, Type (0, 0), BuildingBlock: ZUJKAS_clean_linker_0, # of connection points: 2
#     Edge 25, Type (0, 0), BuildingBlock: ZUJKAS_clean_linker_0, # of connection points: 2
#     Edge 26, Type (0, 0), BuildingBlock: ZUJKAS_clean_linker_0, # of connection points: 2
#     Edge 27, Type (0, 0), BuildingBlock: ZUJKAS_clean_linker_0, # of connection points: 2
#     Edge 28, Type (0, 0), BuildingBlock: ZUJKAS_clean_linker_0, # of connection points: 2
#     Edge 29, Type (0, 0), BuildingBlock: ZUJKAS_clean_linker_0, # of connection points: 2
#     Edge 30, Type (0, 0), BuildingBlock: ZUJKAS_clean_linker_0, # of connection points: 2
#     Edge 31, Type (0, 0), BuildingBlock: ZUJKAS_clean_linker_0, # of connection points: 2
#     Edge 32, Type (0, 0), BuildingBlock: ZUJKAS_clean_linker_0, # of connection points: 2
#     Edge 33, Type (0, 0), BuildingBlock: ZUJKAS_clean_linker_0, # of connection points: 2
#     Edge 34, Type (0, 0), BuildingBlock: ZUJKAS_clean_linker_0, # of connection points: 2
#     Edge 35, Type (0, 0), BuildingBlock: ZUJKAS_clean_linker_0, # of connection points: 2
# Relax obj value: 0.093
# Max RMSD: 0.212
# Mean RMSD: 0.164
data_MOF--net-smm--node1-KUMBOL_clean_sbu_1--edge1-ZUJKAS_clean_linker_0
_symmetry_space_group_name_H-M    P1
_symmetry_Int_Tables_number       1
_symmetry_cell_setting            triclinic
loop_
_symmetry_equiv_pos_as_xyz
'x, y, z'
_cell_length_a     74.971437
_cell_length_b     90.343777
_cell_length_c     19.427589
_cell_angle_alpha  96.19637
_cell_angle_beta   96.396334
_cell_angle_gamma 121.11959
loop_
_atom_site_label
_atom_site_type_symbol
_atom_site_fract_x
_atom_site_fract_y
_atom_site_fract_z
_atom_type_partial_charge
C0 C 0.11708 0.22305 0.16025 0.0
C1 C 0.12751 0.22165 0.04724 0.0
C2 C 0.1136 0.22261 0.08814 0.0
C3 C 0.14437 0.22049 0.0794 0.0
C4 C 0.1343 0.22239 0.19317 0.0
C5 C 0.14778 0.22089 0.1522 0.0
N6 N 0.10333 0.22387 0.19816 0.0
C7 C 0.10674 0.22546 0.26977 0.0
C8 C 0.13744 0.22328 0.26634 0.0
C9 C 0.12372 0.225 0.30487 0.0
Gd10 Gd 1.02112 0.17726 0.09879 0.0
Gd11 Gd 0.07528 0.22444 0.1355 0.0
N12 N 0.09714 0.22378 0.05859 0.0
C13 C 0.12438 0.22236 0.9756 0.0
C14 C 0.09525 0.22605 0.99044 0.0
C15 C 0.10842 0.2249 0.94743 0.0
H16 H 0.08407 0.22929 0.96943 0.0
H17 H 0.10652 0.22631 0.89297 0.0
H18 H 1.0042 0.1763 0.24989 0.0
H19 H 0.09626 0.22695 0.29961 0.0
H20 H 0.9745 0.17633 0.29463 0.0
H21 H 0.13469 0.22164 0.94233 0.0
H22 H 0.15511 0.21961 0.04867 0.0
H23 H 1.00616 0.16673 0.92012 0.0
H24 H 0.15052 0.22283 0.29364 0.0
H25 H 0.12622 0.22597 0.36155 0.0
H26 H 0.93254 0.17657 0.08912 0.0
H27 H 0.16101 0.22021 0.17639 0.0
H28 H 0.95204 0.17052 0.86589 0.0
H29 H 0.97976 0.16595 0.82995 0.0
N30 N 0.99549 0.17414 0.00687 0.0
C31 C 0.97946 0.17534 0.02758 0.0
C32 C 0.99502 0.16983 0.93683 0.0
C33 C 0.96406 0.17145 0.9059 0.0
C34 C 0.9797 0.16892 0.88539 0.0
C35 C 0.9634 0.17418 0.97765 0.0
H36 H 0.93447 0.17441 0.9631 0.0
N37 N 0.99375 0.17727 0.14524 0.0
C38 C 0.9783 0.17656 0.09863 0.0
C39 C 0.96001 0.1768 0.19317 0.0
C40 C 0.96119 0.17665 0.1216 0.0
C41 C 0.99225 0.17657 0.21431 0.0
C42 C 0.97547 0.17652 0.23954 0.0
O43 O 0.07526 0.1998 0.15344 0.0
O44 O 0.04969 0.17933 0.06175 0.0
O45 O 1.0195 0.15664 0.15132 0.0
O46 O 0.99689 0.14984 0.05611 0.0
O47 O 0.05399 0.21591 0.02821 0.0
O48 O 0.03789 0.18575 0.00733 0.0
O49 O 1.02103 0.20157 0.14622 0.0
O50 O 0.04477 0.22293 0.09368 0.0
O51 O 0.09722 0.25077 0.11787 0.0
O52 O 0.08453 0.24726 0.21532 0.0
O53 O 0.04119 0.18679 0.20845 0.0
O54 O 0.05906 0.21729 0.22838 0.0
C55 C 0.06772 0.18556 0.10518 0.0
C56 C 0.04469 0.20063 0.98471 0.0
C57 C 1.00913 0.13102 0.07066 0.0
C58 C 1.00669 0.103 0.06633 0.0
C59 C 0.02563 0.12243 0.98785 0.0
C60 C 1.02078 0.13445 0.01632 0.0
C61 C 1.01865 0.10679 0.01264 0.0
C62 C 1.00197 0.11523 0.09537 0.0
C63 C 1.00459 0.14399 0.1014 0.0
C64 C 0.94569 0.1763 0.07242 0.0
C65 C 0.94683 0.17511 0.00065 0.0
H66 H 0.94708 0.17684 0.21289 0.0
C67 C 0.02788 0.21635 0.12263 0.0
C68 C 0.05058 0.20227 0.25086 0.0
C69 C 0.10881 0.27743 0.20247 0.0
C70 C 0.12963 0.30717 0.17873 0.0
C71 C 0.12187 0.30279 0.29579 0.0
C72 C 0.1106 0.28458 0.27257 0.0
C73 C 0.13134 0.31403 0.24938 0.0
C74 C 0.1184 0.28878 0.15573 0.0
C75 C 0.09663 0.25818 0.17808 0.0
H76 H 0.03467 0.12517 0.94609 0.0
H77 H 0.026 0.14639 0.9956 0.0
H78 H 0.02221 0.09745 0.98882 0.0
H79 H 0.99288 0.11251 0.1371 0.0
H80 H 0.1233 0.30822 0.35003 0.0
H81 H 0.10335 0.2761 0.30954 0.0
H82 H 0.14025 0.32813 0.26912 0.0
H83 H 0.11679 0.28332 0.10125 0.0
C84 C 0.94348 0.80791 0.96814 0.0
C85 C 0.97115 0.81512 0.06786 0.0
C86 C 0.95112 0.81217 0.04068 0.0
C87 C 0.98367 0.81416 0.02111 0.0
C88 C 0.95585 0.80658 0.92118 0.0
C89 C 0.97607 0.80996 0.94801 0.0
N90 N 0.92369 0.80441 0.94367 0.0
C91 C 0.91479 0.79826 0.87349 0.0
C92 C 0.94734 0.80148 0.84865 0.0
C93 C 0.92662 0.79711 0.82481 0.0
Gd94 Gd 0.90473 0.85158 0.05974 0.0
Gd95 Gd 0.90553 0.80683 0.03072 0.0
N96 N 0.93897 0.8136 0.08478 0.0
C97 C 0.97795 0.8189 0.1413 0.0
C98 C 0.94499 0.81641 0.1563 0.0
C99 C 0.96473 0.8194 0.18566 0.0
H100 H 0.93459 0.81644 0.19046 0.0
H101 H 0.96969 0.82197 0.24241 0.0
H102 H 0.89614 0.8576 0.8927 0.0
H103 H 0.89838 0.79375 0.85484 0.0
H104 H 0.86793 0.85673 0.81153 0.0
H105 H 0.99324 0.82123 0.16423 0.0
H106 H 0.99917 0.81649 0.04097 0.0
H107 H 0.89084 0.84993 0.21667 0.0
H108 H 0.95637 0.80035 0.81086 0.0
H109 H 0.9196 0.79252 0.76908 0.0
H110 H 0.81693 0.85026 0.95371 0.0
H111 H 0.98583 0.80906 0.91267 0.0
H112 H 0.83283 0.849 0.19816 0.0
H113 H 0.86224 0.84922 0.27129 0.0
N114 N 0.87736 0.84946 0.11397 0.0
C115 C 0.8618 0.84996 0.07334 0.0
C116 C 0.87785 0.84946 0.18436 0.0
C117 C 0.84529 0.84922 0.17404 0.0
C118 C 0.8618 0.84926 0.21543 0.0
C119 C 0.84514 0.84958 0.10208 0.0
H120 H 0.81585 0.84906 0.07917 0.0
N121 N 0.87944 0.85203 0.9778 0.0
C122 C 0.86258 0.85081 0.00281 0.0
C123 C 0.84817 0.85268 0.88879 0.0
C124 C 0.84647 0.85107 0.95893 0.0
C125 C 0.88186 0.85484 0.91082 0.0
C126 C 0.86607 0.85479 0.86492 0.0
O127 O 0.93798 0.83459 0.06301 0.0
O128 O 0.93098 0.85283 0.00951 0.0
O129 O 0.91447 0.87828 0.04875 0.0
O130 O 0.92802 0.87383 0.14239 0.0
O131 O 0.89793 0.81443 0.13186 0.0
O132 O 0.91821 0.84466 0.15242 0.0
O133 O 0.87549 0.82588 0.07109 0.0
O134 O 0.87333 0.80376 0.99274 0.0
O135 O 0.89441 0.78677 0.09636 0.0
O136 O 0.89391 0.77922 0.98771 0.0
O137 O 0.90882 0.84229 0.95285 0.0
O138 O 0.89133 0.81182 0.93302 0.0
C139 C 0.94482 0.84938 0.03767 0.0
C140 C 0.90832 0.82974 0.17516 0.0
C141 C 0.92388 0.8983 0.15441 0.0
C142 C 0.92745 0.92693 0.17318 0.0
C143 C 0.91128 0.9067 0.25216 0.0
C144 C 0.91464 0.89461 0.21437 0.0
C145 C 0.91753 0.92274 0.23156 0.0
C146 C 0.93051 0.91461 0.13455 0.0
C147 C 0.92648 0.88533 0.11131 0.0
C148 C 0.82949 0.85015 0.98675 0.0
C149 C 0.82889 0.84952 0.05824 0.0
H150 H 0.83609 0.85288 0.85334 0.0
C151 C 0.86416 0.81113 0.02377 0.0
C152 C 0.89885 0.82677 0.91008 0.0
C153 C 0.86911 0.75667 0.04286 0.0
C154 C 0.84859 0.7255 0.05813 0.0
C155 C 0.83064 0.74062 0.02595 0.0
C156 C 0.85 0.75601 0.02671 0.0
C157 C 0.82993 0.72563 0.04175 0.0
C158 C 0.86837 0.74121 0.05794 0.0
C159 C 0.8896 0.77372 0.04648 0.0
H160 H 0.904 0.90369 0.29798 0.0
H161 H 0.91016 0.8825 0.23246 0.0
H162 H 0.91511 0.93206 0.26231 0.0
H163 H 0.93789 0.91765 0.0888 0.0
H164 H 0.81602 0.74035 0.01346 0.0
H165 H 0.85008 0.76751 0.01518 0.0
H166 H 0.81457 0.71395 0.04077 0.0
H167 H 0.88302 0.74155 0.071 0.0
C168 C 0.18446 0.95781 0.04403 0.0
C169 C 0.16544 0.93991 0.92718 0.0
C170 C 0.18041 0.95641 0.97095 0.0
C171 C 0.15456 0.92498 0.95752 0.0
C172 C 0.1737 0.94279 0.07445 0.0
C173 C 0.15872 0.92641 0.03084 0.0
N174 N 0.19846 0.97394 0.08548 0.0
C175 C 0.20343 0.97585 0.1568 0.0
C176 C 0.17816 0.94476 0.14801 0.0
C177 C 0.19318 0.96134 0.18928 0.0
Gd178 Gd 0.20041 0.03415 0.03194 0.0
Gd179 Gd 0.21602 0.99688 0.0256 0.0
N180 N 0.19114 0.97112 0.94282 0.0
C181 C 0.16202 0.93884 0.85404 0.0
C182 C 0.18875 0.96989 0.87136 0.0
C183 C 0.17388 0.95385 0.82603 0.0
H184 H 0.19873 0.98096 0.84856 0.0
H185 H 0.17189 0.95301 0.76941 0.0
H186 H 0.21831 0.05361 0.20194 0.0
H187 H 0.21568 0.98843 0.18854 0.0
H188 H 0.2469 0.08251 0.27419 0.0
H189 H 0.15064 0.9264 0.81867 0.0
H190 H 0.14299 0.91222 0.92463 0.0
H191 H 0.20104 0.03976 0.86284 0.0
H192 H 0.17022 0.93354 0.17338 0.0
H193 H 0.19704 0.96292 0.24603 0.0
H194 H 0.28437 0.11541 0.10489 0.0
H195 H 0.15022 0.91475 0.05332 0.0
H196 H 0.25779 0.0884 0.85997 0.0
H197 H 0.22518 0.06067 0.79599 0.0
N198 N 0.22174 0.05346 0.96226 0.0
C199 C 0.23847 0.06939 -0.00116 0.0
C200 C 0.21617 0.05084 0.89074 0.0
C201 C 0.24775 0.07877 0.88932 0.0
C202 C 0.22945 0.06309 0.85297 0.0
C203 C 0.25205 0.08238 0.9632 0.0
H204 H 0.27949 0.10889 0.97557 0.0
N205 N 0.2276 0.06058 0.10519 0.0
C206 C 0.24099 0.07331 0.07202 0.0
C207 C 0.25955 0.09322 0.18457 0.0
C208 C 0.25746 0.08994 0.11105 0.0
C209 C 0.22936 0.06372 0.17663 0.0
C210 C 0.24543 0.08006 0.21744 0.0
O211 O 0.18116 0.9864 0.03336 0.0
O212 O 0.17078 1.00649 0.02276 0.0
O213 O 0.18562 0.04595 0.08878 0.0
O214 O 0.18009 0.04132 0.97573 0.0
O215 O 0.21738 1.00935 0.93077 0.0
O216 O 0.19099 0.01542 0.92769 0.0
O217 O 0.23505 0.04174 0.0725 0.0
O218 O 0.2398 0.02316 -0.00104 0.0
O219 O 0.22995 0.98322 0.97868 0.0
O220 O 0.24265 0.99751 0.0865 0.0
O221 O 0.19655 0.02094 0.12584 0.0
O222 O 0.22253 0.01407 0.13136 0.0
C223 C 0.16648 0.99046 0.0278 0.0
C224 C 0.20318 1.01162 0.89614 0.0
C225 C 0.1807 0.06621 0.03249 0.0
C226 C 0.16975 0.08752 0.0506 0.0
C227 C 0.20217 0.09567 0.00765 0.0
C228 C 0.19837 0.07891 0.0086 0.0
C229 C 0.18804 0.09998 0.02872 0.0
C230 C 0.16608 0.07053 0.05294 0.0
C231 C 0.17727 0.04839 0.03213 0.0
C232 C 0.27148 0.1026 0.07575 0.0
C233 C 0.2688 0.09883 0.00211 0.0
H234 H 0.27203 0.10583 0.21642 0.0
C235 C 0.24749 0.03877 0.03796 0.0
C236 C 0.20911 0.01687 0.16026 0.0
C237 C 0.26653 0.99558 0.02017 0.0
C238 C 0.29289 0.99077 0.975 0.0
C239 C 0.30204 0.02043 0.02348 0.0
C240 C 0.28165 0.01376 0.03699 0.0
C241 C 0.30765 1.0091 0.99299 0.0
C242 C 0.27223 0.98406 0.9893 0.0
C243 C 0.24481 0.98863 0.0339 0.0
H244 H 0.21598 0.10527 0.98932 0.0
H245 H 0.20907 0.07582 0.98887 0.0
H246 H 0.19114 0.11303 0.02646 0.0
H247 H 0.15198 0.0608 0.06968 0.0
H248 H 0.31361 0.03449 0.03701 0.0
H249 H 0.27771 0.02282 0.06092 0.0
H250 H 0.32375 0.01474 0.9844 0.0
H251 H 0.26055 0.97001 0.97567 0.0
C252 C 0.67535 0.47659 0.08916 0.0
C253 C 0.65996 0.46154 0.18329 0.0
C254 C 0.67645 0.47579 0.16038 0.0
C255 C 0.64281 0.44761 0.13319 0.0
C256 C 0.65771 0.46292 0.03897 0.0
C257 C 0.64177 0.44823 0.06117 0.0
N258 N 0.69078 0.4912 0.06954 0.0
C259 C 0.68817 0.49372 0.0019 0.0
C260 C 0.65617 0.46473 0.96831 0.0
C261 C 0.67125 0.48036 0.95 0.0
Gd262 Gd 0.77031 0.50842 0.15471 0.0
Gd263 Gd 0.71936 0.51198 0.16148 0.0
N264 N 0.69351 0.48921 0.20761 0.0
C265 C 0.66108 0.46188 0.256 0.0
C266 C 0.69414 0.49018 0.27852 0.0
C267 C 0.67809 0.47641 0.30385 0.0
H268 H 0.70717 0.50152 0.31516 0.0
H269 H 0.67885 0.477 0.36012 0.0
H270 H 0.776 0.50745 0.98544 0.0
H271 H 0.6988 0.50611 0.98741 0.0
H272 H 0.80122 0.52641 0.91574 0.0
H273 H 0.6487 0.45118 0.27569 0.0
H274 H 0.63007 0.43645 0.14967 0.0
H275 H 0.79379 0.52645 0.32527 0.0
H276 H 0.64291 0.45449 0.92812 0.0
H277 H 0.66963 0.48226 0.89614 0.0
H278 H 0.85815 0.57468 0.08958 0.0
H279 H 0.62821 0.43753 0.02324 0.0
H280 H 0.8538 0.57343 0.33338 0.0
H281 H 0.82685 0.55256 0.39435 0.0
N282 N 0.80105 0.53304 0.22582 0.0
C283 C 0.81609 0.54386 0.19118 0.0
C284 C 0.80497 0.53572 0.29781 0.0
C285 C 0.83913 0.56208 0.30262 0.0
C286 C 0.82391 0.55038 0.33725 0.0
C287 C 0.83543 0.55881 0.22873 0.0
H288 H 0.86533 0.58158 0.21941 0.0
N289 N 0.79342 0.52512 0.0832 0.0
C290 C 0.81201 0.53991 0.1178 0.0
C291 C 0.82297 0.54619 0.00666 0.0
C292 C 0.82723 0.55091 0.08035 0.0
C293 C 0.78974 0.51998 0.01183 0.0
C294 C 0.80427 0.53053 0.97238 0.0
O295 O 0.71893 0.48787 0.18841 0.0
O296 O 0.73737 0.48397 0.1109 0.0
O297 O 0.78502 0.49544 0.10873 0.0
O298 O 0.7797 0.49366 0.21499 0.0
O299 O 0.74571 0.52347 0.25759 0.0
O300 O 0.75789 0.5049 0.25643 0.0
O301 O 0.77587 0.53661 0.17563 0.0
O302 O 0.7453 0.53405 0.11963 0.0
O303 O 0.71984 0.53119 0.24086 0.0
O304 O 0.69587 0.51903 0.14525 0.0
O305 O 0.74685 0.49873 0.0512 0.0
O306 O 0.73156 0.51534 0.0584 0.0
C307 C 0.72216 0.47733 0.14728 0.0
C308 C 0.75183 0.51442 0.29043 0.0
C309 C 0.80825 0.49144 0.18508 0.0
C310 C 0.82988 0.47837 0.19153 0.0
C311 C 0.84653 0.51015 0.22317 0.0
C312 C 0.82673 0.50821 0.20842 0.0
C313 C 0.84814 0.49538 0.21449 0.0
C314 C 0.80983 0.47645 0.17738 0.0
C315 C 0.7875 0.48957 0.16491 0.0
C316 C 0.84632 0.56604 0.11753 0.0
C317 C 0.85043 0.56996 0.19149 0.0
H318 H 0.83427 0.55427 0.97596 0.0
C319 C 0.76594 0.54356 0.14495 0.0
C320 C 0.73829 0.50666 0.02173 0.0
C321 C 0.70579 0.54745 0.19988 0.0
C322 C 0.69906 0.57 0.24474 0.0
C323 C 0.71396 0.57158 0.13879 0.0
C324 C 0.71339 0.55607 0.14412 0.0
C325 C 0.70666 0.57845 0.18841 0.0
C326 C 0.69891 0.55457 0.25063 0.0
C327 C 0.70381 0.53056 0.2039 0.0
H328 H 0.86071 0.52317 0.24099 0.0
H329 H 0.82594 0.51983 0.21466 0.0
H330 H 0.86373 0.49726 0.22634 0.0
H331 H 0.79562 0.46344 0.15877 0.0
H332 H 0.71979 0.57817 0.09557 0.0
H333 H 0.71849 0.5506 0.10418 0.0
H334 H 0.70701 0.59041 0.18299 0.0
H335 H 0.6928 0.54779 0.29332 0.0
C336 C 0.55516 0.16164 0.04423 0.0
C337 C 0.58064 0.16973 0.15195 0.0
C338 C 0.56116 0.16674 0.11754 0.0
C339 C 0.59396 0.16761 0.11202 0.0
C340 C 0.56856 0.1596 0.00405 0.0
C341 C 0.58794 0.16255 0.03836 0.0
N342 N 0.53666 0.15945 0.01204 0.0
C343 C 0.53027 0.15469 0.94044 0.0
C344 C 0.56226 0.15497 0.93038 0.0
C345 C 0.54301 0.15247 0.89849 0.0
Gd346 Gd 0.52024 0.20969 0.11829 0.0
Gd347 Gd 0.51636 0.16315 0.08688 0.0
N348 N 0.54824 0.16924 0.15484 0.0
C349 C 0.58622 0.1748 0.22555 0.0
C350 C 0.55309 0.17322 0.22681 0.0
C351 C 0.57227 0.17637 0.26314 0.0
H352 H 0.54208 0.1735 0.25687 0.0
H353 H 0.57614 0.17975 0.32024 0.0
H354 H 0.49221 0.19962 0.95373 0.0
H355 H 0.51514 0.15225 0.91577 0.0
H356 H 0.45867 0.19577 0.89744 0.0
H357 H 0.60106 0.17724 0.25391 0.0
H358 H 0.60901 0.1699 0.13763 0.0
H359 H 0.52624 0.223 0.29152 0.0
H360 H 0.57214 0.15331 0.89769 0.0
H361 H 0.53793 0.14876 0.84164 0.0
H362 H 0.4311 0.20853 0.09129 0.0
H363 H 0.59846 0.16109 0.00833 0.0
H364 H 0.47162 0.22434 0.32544 0.0
H365 H 0.506 0.22802 0.37296 0.0
N366 N 0.5029 0.21544 0.19992 0.0
C367 C 0.48433 0.21379 0.17235 0.0
C368 C 0.51093 0.22079 0.27069 0.0
C369 C 0.48029 0.22187 0.28964 0.0
C370 C 0.49966 0.22391 0.31672 0.0
C371 C 0.47247 0.21689 0.21662 0.0
H372 H 0.44389 0.21722 0.22 0.0
N373 N 0.48846 0.20524 0.0583 0.0
C374 C 0.47702 0.20876 0.09949 0.0
C375 C 0.45104 0.20192 0.99597 0.0
C376 C 0.45779 0.20687 0.06943 0.0
C377 C 0.4824 0.20111 0.98658 0.0
C378 C 0.46351 0.1992 0.95437 0.0
O379 O 0.54624 0.1877 0.07242 0.0
O380 O 0.55028 0.20981 0.15519 0.0
O381 O 0.53335 0.23053 0.05708 0.0
O382 O 0.53739 0.23755 0.16915 0.0
O383 O 0.5097 0.17208 0.18901 0.0
O384 O 0.53183 0.20232 0.2126 0.0
O385 O 0.48724 0.18451 0.11903 0.0
O386 O 0.48534 0.16107 0.04995 0.0
O387 O 0.50548 0.14154 0.14553 0.0
O388 O 0.5005 0.13622 0.02998 0.0
O389 O 0.52442 0.19998 0.01245 0.0
O390 O 0.50367 0.1695 0.99126 0.0
C391 C 0.55845 0.20286 0.11648 0.0
C392 C 0.52013 0.18735 0.2332 0.0
C393 C 0.56477 0.25753 0.11444 0.0
C394 C 0.5931 0.28817 0.11393 0.0
C395 C 0.60101 0.2652 0.11504 0.0
C396 C 0.57979 0.25273 0.11423 0.0
C397 C 0.6076 0.28271 0.11469 0.0
C398 C 0.57152 0.27546 0.11484 0.0
C399 C 0.54216 0.24348 0.11144 0.0
C400 C 0.44594 0.20996 0.11345 0.0
C401 C 0.45323 0.21491 0.18679 0.0
H402 H 0.43639 0.20039 0.97081 0.0
C403 C 0.47616 0.16795 0.08319 0.0
C404 C 0.51386 0.18451 0.96925 0.0
C405 C 0.48795 0.11071 0.08559 0.0
C406 C 0.48221 0.08575 0.14005 0.0
C407 C 0.46616 0.08087 0.0172 0.0
C408 C 0.47536 0.09893 0.02192 0.0
C409 C 0.46957 0.07431 0.07557 0.0
C410 C 0.49119 0.10405 0.14508 0.0
C411 C 0.49846 0.12984 0.08752 0.0
H412 H 0.61239 0.26124 0.11507 0.0
H413 H 0.57497 0.23918 0.11245 0.0
H414 H 0.62419 0.29208 0.1148 0.0
H415 H 0.56007 0.27936 0.11396 0.0
H416 H 0.45643 0.07191 0.9679 0.0
H417 H 0.47264 0.10369 0.97546 0.0
H418 H 0.46213 0.06019 0.07035 0.0
H419 H 0.50118 0.11306 0.19413 0.0
C420 C 0.94287 0.39149 0.20072 0.0
C421 C 0.94204 0.40837 0.30526 0.0
C422 C 0.94129 0.39341 0.27141 0.0
C423 C 0.94371 0.42113 0.26658 0.0
C424 C 0.94492 0.40448 0.16215 0.0
C425 C 0.94492 0.4191 0.19506 0.0
N426 N 0.94372 0.37756 0.17106 0.0
C427 C 0.94881 0.37695 0.10583 0.0
C428 C 0.94785 0.40279 0.09251 0.0
C429 C 0.95017 0.38913 0.06467 0.0
Gd430 Gd 0.88069 0.31384 0.19012 0.0
Gd431 Gd 0.94038 0.35768 0.24544 0.0
N432 N 0.93939 0.38076 0.30751 0.0
C433 C 0.94141 0.41019 0.37736 0.0
C434 C 0.9399 0.38285 0.37851 0.0
C435 C 0.94055 0.39745 0.41428 0.0
H436 H 0.93955 0.37309 0.40698 0.0
H437 H 0.9405 0.39893 0.47027 0.0
H438 H 0.87113 0.30521 0.01204 0.0
H439 H 0.95244 0.36744 0.08565 0.0
H440 H 0.86842 0.28346 0.91642 0.0
H441 H 0.94193 0.4215 0.4052 0.0
H442 H 0.94435 0.43274 0.29171 0.0
H443 H 0.8782 0.29743 0.33658 0.0
H444 H 0.94934 0.41243 0.061 0.0
H445 H 0.95358 0.38824 0.01222 0.0
H446 H 0.87022 0.24022 0.03549 0.0
H447 H 0.94646 0.42918 0.16617 0.0
H448 H 0.87285 0.24778 0.28552 0.0
H449 H 0.87532 0.27104 0.37362 0.0
N450 N 0.8781 0.28937 0.22964 0.0
C451 C 0.87577 0.2764 0.17982 0.0
C452 C 0.8774 0.28743 0.29816 0.0
C453 C 0.87413 0.25932 0.26911 0.0
C454 C 0.8756 0.27246 0.31907 0.0
C455 C 0.87408 0.26114 0.19839 0.0
H456 H 0.87136 0.23653 0.15929 0.0
N457 N 0.87591 0.2931 0.09404 0.0
C458 C 0.87509 0.27851 0.11016 0.0
C459 C 0.87097 0.26748 0.98679 0.0
C460 C 0.87276 0.26536 0.05704 0.0
C461 C 0.87264 0.29458 0.02528 0.0
C462 C 0.8706 0.28203 0.97078 0.0
O463 O 0.91111 0.35817 0.26329 0.0
O464 O 0.88669 0.33967 0.16522 0.0
O465 O 0.84818 0.2994 0.13118 0.0
O466 O 0.85452 0.30995 0.24187 0.0
O467 O 0.92817 0.34026 0.32514 0.0
O468 O 0.89181 0.32812 0.30425 0.0
O469 O 0.90875 0.31077 0.22679 0.0
O470 O 0.93815 0.33297 0.19296 0.0
O471 O 0.96532 0.36281 0.3316 0.0
O472 O 0.97344 0.37719 0.24687 0.0
O473 O 0.8945 0.33036 0.10799 0.0
O474 O 0.93076 0.3424 0.13307 0.0
C475 C 0.89523 0.35408 0.21294 0.0
C476 C 0.91009 0.33417 0.34708 0.0
C477 C 0.82029 0.28446 0.19181 0.0
C478 C 0.78153 0.26696 0.18196 0.0
C479 C 0.80247 0.25391 0.20507 0.0
C480 C 0.82102 0.26973 0.20358 0.0
C481 C 0.7829 0.25248 0.194 0.0
C482 C 0.80045 0.28311 0.18168 0.0
C483 C 0.83992 0.30073 0.18508 0.0
C484 C 0.87181 0.25039 0.0755 0.0
C485 C 0.87241 0.24826 0.14598 0.0
H486 H 0.86921 0.2577 0.94442 0.0
C487 C 0.92701 0.31681 0.20512 0.0
C488 C 0.91272 0.33564 0.08782 0.0
C489 C 1.00024 0.37482 0.30994 0.0
C490 C 0.03833 0.38933 0.35791 0.0
C491 C 1.01972 0.36224 0.26852 0.0
C492 C 1.0007 0.36161 0.26684 0.0
C493 C 0.03838 0.37598 0.31317 0.0
C494 C 1.01901 0.38861 0.35552 0.0
C495 C 0.98057 0.37483 0.30603 0.0
H496 H 0.80324 0.24262 0.21407 0.0
H497 H 0.83588 0.27034 0.2105 0.0
H498 H 0.76872 0.23999 0.19503 0.0
H499 H 0.79965 0.29434 0.17156 0.0
H500 H 1.02006 0.3521 0.23458 0.0
H501 H 0.98641 0.35097 0.23141 0.0
H502 H 0.05293 0.37624 0.31176 0.0
H503 H 1.01844 0.39868 0.38924 0.0
C504 C 0.4926 0.91955 0.79029 0.0
C505 C 0.5045 0.91312 0.68618 0.0
C506 C 0.48926 0.91472 0.71701 0.0
C507 C 0.52283 0.91617 0.72948 0.0
C508 C 0.51098 0.92259 0.83376 0.0
C509 C 0.52606 0.92089 0.80295 0.0
N510 N 0.47739 0.92045 0.81921 0.0
C511 C 0.47976 0.92483 0.89048 0.0
C512 C 0.51346 0.92692 0.9071 0.0
C513 C 0.49781 0.92807 0.93551 0.0
Gd514 Gd 0.39632 0.86568 0.70353 0.0
Gd515 Gd 0.44813 0.91497 0.73901 0.0
N516 N 0.47109 0.91141 0.67612 0.0
C517 C 0.50096 0.90864 0.61258 0.0
C518 C 0.46835 0.90826 0.60437 0.0
C519 C 0.48296 0.90645 0.5715 0.0
H520 H 0.45551 0.90785 0.57213 0.0
H521 H 0.48052 0.90369 0.51446 0.0
H522 H 0.37952 0.86143 0.855 0.0
H523 H 0.46785 0.92597 0.91269 0.0
H524 H 0.34781 0.85637 0.90169 0.0
H525 H 0.5123 0.90729 0.5869 0.0
H526 H 0.53465 0.91494 0.70662 0.0
H527 H 0.3808 0.85547 0.52598 0.0
H528 H 0.52737 0.92934 0.94223 0.0
H529 H 0.49964 0.93148 0.9921 0.0
H530 H 0.30046 0.85152 0.69962 0.0
H531 H 0.54026 0.92313 0.83554 0.0
H532 H 0.32088 0.85058 0.47486 0.0
H533 H 0.3516 0.8511 0.43705 0.0
N534 N 0.36863 0.86025 0.61364 0.0
C535 C 0.3512 0.85872 0.6353 0.0
C536 C 0.36837 0.85663 0.54336 0.0
C537 C 0.33412 0.85324 0.51425 0.0
C538 C 0.35146 0.85359 0.4927 0.0
C539 C 0.33353 0.85527 0.58624 0.0
H540 H 0.30186 0.85068 0.57337 0.0
N541 N 0.36729 0.86177 0.75168 0.0
C542 C 0.35035 0.85922 0.70636 0.0
C543 C 0.33118 0.85547 0.80173 0.0
C544 C 0.33192 0.85624 0.73036 0.0
C545 C 0.36636 0.86027 0.82052 0.0
C546 C 0.34838 0.85727 0.8468 0.0
O547 O 0.45148 0.89212 0.76346 0.0
O548 O 0.42682 0.87056 0.67355 0.0
O549 O 0.39423 0.84524 0.75838 0.0
O550 O 0.37929 0.8387 0.64813 0.0
O551 O 0.42552 0.90511 0.634 0.0
O552 O 0.41294 0.87569 0.61389 0.0
O553 O 0.3909 0.88725 0.74566 0.0
O554 O 0.41751 0.91456 0.72927 0.0
O555 O 0.46359 0.93733 0.68722 0.0
O556 O 0.4631 0.94163 0.80035 0.0
O557 O 0.41649 0.87732 0.81411 0.0
O558 O 0.43211 0.90773 0.83268 0.0
C559 C 0.44386 0.87684 0.72191 0.0
C560 C 0.41655 0.8899 0.59082 0.0
C561 C 0.36283 0.81735 0.71599 0.0
C562 C 0.34559 0.78719 0.73297 0.0
C563 C 0.32517 0.80085 0.71809 0.0
C564 C 0.34335 0.81626 0.7105 0.0
C565 C 0.32621 0.78629 0.72904 0.0
C566 C 0.36392 0.80291 0.72788 0.0
C567 C 0.38189 0.83275 0.70381 0.0
C568 C 0.31469 0.85364 0.68215 0.0
C569 C 0.31551 0.8532 0.61026 0.0
H570 H 0.31728 0.85315 0.82221 0.0
C571 C 0.39854 0.90392 0.74247 0.0
C572 C 0.42355 0.89265 0.85527 0.0
C573 C 0.48033 0.96772 0.747 0.0
C574 C 0.48784 0.99287 0.69132 0.0
C575 C 0.50384 0.9975 0.81408 0.0
C576 C 0.49344 0.97935 0.8102 0.0
C577 C 0.50103 1.00423 0.75536 0.0
C578 C 0.47776 0.97451 0.68711 0.0
C579 C 0.46875 0.94859 0.74502 0.0
H580 H 0.31017 0.80006 0.71379 0.0
H581 H 0.342 0.82703 0.69867 0.0
H582 H 0.31182 0.77423 0.73258 0.0
H583 H 0.37904 0.80384 0.73186 0.0
H584 H 0.51402 1.0064 0.863 0.0
H585 H 0.49566 0.97439 0.85668 0.0
H586 H 0.5093 0.0184 0.75997 0.0
H587 H 0.46736 0.96558 0.63839 0.0
C588 C 0.33475 0.51974 0.71275 0.0
C589 C 0.35933 0.52601 0.8204 0.0
C590 C 0.34005 0.52336 0.78594 0.0
C591 C 0.37357 0.52563 0.78015 0.0
C592 C 0.34878 0.51892 0.67215 0.0
C593 C 0.36834 0.52215 0.70623 0.0
N594 N 0.31551 0.51626 0.68134 0.0
C595 C 0.30884 0.51094 0.60982 0.0
C596 C 0.34251 0.51444 0.5985 0.0
C597 C 0.32236 0.51027 0.56727 0.0
Gd598 Gd 0.28526 0.55796 0.78387 0.0
Gd599 Gd 0.29445 0.51827 0.75783 0.0
N600 N 0.32612 0.52392 0.82353 0.0
C601 C 0.36362 0.52883 0.89429 0.0
C602 C 0.32968 0.52579 0.89529 0.0
C603 C 0.34862 0.52855 0.93183 0.0
H604 H 0.31791 0.52511 0.92429 0.0
H605 H 0.35157 0.53031 0.98883 0.0
H606 H 0.28148 0.56835 0.62202 0.0
H607 H 0.29294 0.50682 0.58531 0.0
H608 H 0.25353 0.56445 0.52916 0.0
H609 H 0.37826 0.53094 0.92274 0.0
H610 H 0.38856 0.52779 0.80567 0.0
H611 H 0.26426 0.54929 0.92714 0.0
H612 H 0.35285 0.51371 0.56544 0.0
H613 H 0.3171 0.50627 0.51051 0.0
H614 H 0.19189 0.54194 0.63474 0.0
H615 H 0.37937 0.52165 0.67588 0.0
H616 H 0.1999 0.53583 0.87655 0.0
H617 H 0.23004 0.54053 0.96329 0.0
N618 N 0.25318 0.54883 0.82103 0.0
C619 C 0.2373 0.5473 0.77366 0.0
C620 C 0.25107 0.54703 0.88902 0.0
C621 C 0.21485 0.53963 0.86054 0.0
C622 C 0.23179 0.5422 0.90961 0.0
C623 C 0.21751 0.54229 0.79172 0.0
H624 H 0.1857 0.53611 0.7534 0.0
N625 N 0.26063 0.55659 0.69288 0.0
C626 C 0.24096 0.55083 0.7071 0.0
C627 C 0.22913 0.55356 0.59095 0.0
C628 C 0.22466 0.54911 0.65641 0.0
C629 C 0.26545 0.56215 0.63103 0.0
C630 C 0.2497 0.56034 0.57861 0.0
O631 O 0.32423 0.54577 0.80277 0.0
O632 O 0.31651 0.56456 0.75491 0.0
O633 O 0.29222 0.58439 0.78122 0.0
O634 O 0.29757 0.57714 0.88077 0.0
O635 O 0.28466 0.52392 0.85807 0.0
O636 O 0.30142 0.55381 0.87686 0.0
O637 O 0.25871 0.52959 0.77991 0.0
O638 O 0.26482 0.51436 0.69538 0.0
O639 O 0.27401 0.49711 0.80903 0.0
O640 O 0.28603 0.49159 0.71977 0.0
O641 O 0.2967 0.55492 0.68297 0.0
O642 O 0.28497 0.52526 0.65712 0.0
C643 C 0.33031 0.56091 0.78241 0.0
C644 C 0.2933 0.53916 0.90068 0.0
C645 C 0.32256 0.60548 0.8657 0.0
C646 C 0.34638 0.63643 0.86482 0.0
C647 C 0.36059 0.6195 0.90603 0.0
C648 C 0.34004 0.60455 0.89329 0.0
C649 C 0.36382 0.63541 0.89145 0.0
C650 C 0.32582 0.62141 0.85189 0.0
C651 C 0.30092 0.5899 0.84813 0.0
C652 C 0.20463 0.54344 0.6732 0.0
C653 C 0.2011 0.54015 0.74082 0.0
H654 H 0.21702 0.55235 0.55051 0.0
C655 C 0.25157 0.51714 0.72393 0.0
C656 C 0.29132 0.54055 0.63821 0.0
C657 C 0.28012 0.47405 0.80638 0.0
C658 C 0.26723 0.4479 0.85874 0.0
C659 C 0.30481 0.46654 0.85662 0.0
C660 C 0.30086 0.47765 0.82242 0.0
C661 C 0.28812 0.45171 0.87449 0.0
C662 C 0.26338 0.45927 0.82515 0.0
C663 C 0.27554 0.48538 0.76946 0.0
H664 H 0.37403 0.61872 0.92671 0.0
H665 H 0.33791 0.59227 0.90391 0.0
H666 H 0.37983 0.64692 0.90178 0.0
H667 H 0.31232 0.62203 0.82979 0.0
H668 H 0.32084 0.46938 0.86899 0.0
H669 H 0.31396 0.48891 0.80806 0.0
H670 H 0.29155 0.44328 0.90116 0.0
H671 H 0.24732 0.45643 0.81228 0.0
C672 C 0.54856 0.6579 0.83888 0.0
C673 C 0.53001 0.64089 0.7201 0.0
C674 C 0.54754 0.65581 0.766 0.0
C675 C 0.5135 0.62809 0.74809 0.0
C676 C 0.53204 0.64492 0.86692 0.0
C677 C 0.51448 0.63013 0.82118 0.0
N678 N 0.56571 0.67241 0.88222 0.0
C679 C 0.56827 0.67369 0.9537 0.0
C680 C 0.53383 0.64702 0.94028 0.0
C681 C 0.55217 0.66133 0.98384 0.0
Gd682 Gd 0.59013 0.73658 0.84476 0.0
Gd683 Gd 0.59168 0.69157 0.82371 0.0
N684 N 0.56335 0.66865 0.73982 0.0
C685 C 0.52942 0.63944 0.64722 0.0
C686 C 0.56313 0.66721 0.66913 0.0
C687 C 0.54607 0.65264 0.62167 0.0
H688 H 0.57621 0.67723 0.64954 0.0
H689 H 0.54582 0.65155 0.5655 0.0
H690 H 0.59382 0.74837 0.01817 0.0
H691 H 0.58301 0.68367 0.98784 0.0
H692 H 0.61905 0.77293 0.11635 0.0
H693 H 0.51618 0.6282 0.61026 0.0
H694 H 0.49983 0.6166 0.71361 0.0
H695 H 0.60873 0.74836 0.69743 0.0
H696 H 0.5215 0.63734 0.96384 0.0
H697 H 0.55418 0.6626 0.04065 0.0
H698 H 0.67345 0.81403 0.00574 0.0
H699 H 0.50162 0.62011 0.84188 0.0
H700 H 0.66645 0.79893 0.75567 0.0
H701 H 0.63942 0.77314 0.66409 0.0
N702 N 0.619 0.75922 0.8073 0.0
C703 C 0.63297 0.77373 0.85795 0.0
C704 C 0.6208 0.75911 0.73819 0.0
C705 C 0.65313 0.78793 0.77077 0.0
C706 C 0.63799 0.77334 0.71896 0.0
C707 C 0.65066 0.78832 0.84121 0.0
H708 H 0.67896 0.81412 0.88323 0.0
N709 N 0.61243 0.75944 0.94147 0.0
C710 C 0.62971 0.77372 0.92709 0.0
C711 C 0.64049 0.7878 0.05013 0.0
C712 C 0.64427 0.78826 0.98118 0.0
C713 C 0.60824 0.7592 0.008 0.0
C714 C 0.62232 0.77325 0.06348 0.0
O715 O 0.56223 0.69154 0.78043 0.0
O716 O 0.56185 0.71127 0.86278 0.0
O717 O 0.57627 0.75136 0.88182 0.0
O718 O 0.57051 0.74157 0.77085 0.0
O719 O 0.60245 0.70773 0.73926 0.0
O720 O 0.58262 0.72071 0.73516 0.0
O721 O 0.62392 0.74127 0.86235 0.0
O722 O 0.6245 0.71556 0.84548 0.0
O723 O 0.60482 0.67849 0.76429 0.0
O724 O 0.60263 0.67696 0.87512 0.0
O725 O 0.58264 0.72122 0.9326 0.0
O726 O 0.60295 0.70882 0.93291 0.0
C727 C 0.55186 0.69593 0.8194 0.0
C728 C 0.59287 0.71434 0.70521 0.0
C729 C 0.57075 0.7679 0.8047 0.0
C730 C 0.55855 0.78846 0.79625 0.0
C731 C 0.59409 0.79695 0.77963 0.0
C732 C 0.59028 0.78065 0.79042 0.0
C733 C 0.57847 0.80086 0.78282 0.0
C734 C 0.55465 0.77178 0.80682 0.0
C735 C 0.56766 0.75093 0.81916 0.0
C736 C 0.66207 0.80275 0.96482 0.0
C737 C 0.66522 0.8028 0.89503 0.0
H738 H 0.65134 0.7987 0.09321 0.0
C739 C 0.63404 0.7328 0.85987 0.0
C740 C 0.59445 0.7164 0.96614 0.0
C741 C 0.61722 0.66136 0.82029 0.0
C742 C 0.63277 0.64632 0.76429 0.0
C743 C 0.62822 0.64505 0.88598 0.0
C744 C 0.61956 0.65542 0.88266 0.0
C745 C 0.63476 0.64051 0.82741 0.0
C746 C 0.62375 0.65666 0.76076 0.0
C747 C 0.60801 0.67239 0.81905 0.0
H748 H 0.60931 0.80664 0.76888 0.0
H749 H 0.6027 0.77809 0.78764 0.0
H750 H 0.58192 0.81366 0.77417 0.0
H751 H 0.53945 0.7621 0.81786 0.0
H752 H 0.62984 0.64049 0.93419 0.0
H753 H 0.61466 0.65876 0.92921 0.0
H754 H 0.64119 0.63224 0.83133 0.0
H755 H 0.62212 0.66123 0.71248 0.0
H756 H 0.15186 0.30445 0.08017 0.0
H757 H 0.17161 0.32616 0.00895 0.0
H758 H 0.15079 0.35919 0.0975 0.0
H759 H 0.13031 0.33726 0.16643 0.0
H760 H 0.15119 0.35873 0.95506 0.0
H761 H 0.22726 0.37172 0.10343 0.0
H762 H 0.20898 0.34925 0.05924 0.0
H763 H 0.20225 0.35863 0.13049 0.0
C764 C 0.15116 0.31617 0.08346 0.0
C765 C 0.13986 0.31931 0.13001 0.0
C766 C 0.1626 0.32863 0.04325 0.0
C767 C 0.16306 0.34445 0.04941 0.0
C768 C 0.15082 0.34714 0.09262 0.0
H769 H 0.23555 0.44543 0.92414 0.0
H770 H 0.20845 0.41959 0.9639 0.0
C771 C 0.13931 0.33468 0.13248 0.0
C772 C 0.17722 0.35873 0.01445 0.0
H773 H 0.22946 0.38725 0.01164 0.0
C774 C 0.1683 0.36494 0.96706 0.0
C775 C 0.19954 0.36691 0.031 0.0
C776 C 0.21014 0.36143 0.08428 0.0
C777 C 0.18114 0.37901 0.93494 0.0
C778 C 0.20345 0.38714 0.9515 0.0
C779 C 0.21232 0.38089 -0.00127 0.0
C780 C 0.21813 0.40226 0.92121 0.0
C781 C 0.17072 0.38489 0.88316 0.0
C782 C 0.23255 0.40109 0.88438 0.0
C783 C 0.24813 0.41583 0.86252 0.0
C784 C 0.24959 0.43202 0.87712 0.0
C785 C 0.23467 0.43306 0.91183 0.0
C786 C 0.21914 0.4183 0.93423 0.0
H787 H 0.1538 0.37442 0.86161 0.0
H788 H 0.17119 0.39656 0.91053 0.0
H789 H 0.17918 0.38868 0.83855 0.0
H790 H 0.23202 0.38883 0.87385 0.0
H791 H 0.25923 0.41462 0.8349 0.0
H792 H 0.83875 0.81544 0.10458 0.0
H793 H 0.8007 0.80377 0.07445 0.0
H794 H 0.79641 0.77371 0.87868 0.0
H795 H 0.83499 0.78634 0.9068 0.0
H796 H 0.77619 0.80535 0.94468 0.0
H797 H 0.74989 0.73726 0.97989 0.0
H798 H 0.77635 0.75587 0.01767 0.0
H799 H 0.76926 0.74677 0.92498 0.0
C800 C 0.82992 0.80673 0.05421 0.0
C801 C 0.84032 0.80238 0.00738 0.0
C802 C 0.80797 0.79985 0.03736 0.0
C803 C 0.79544 0.78783 0.97407 0.0
C804 C 0.80558 0.78294 0.92794 0.0
H805 H 0.65889 0.72246 0.80689 0.0
H806 H 0.69726 0.73662 0.8341 0.0
C807 C 0.82771 0.79014 0.94425 0.0
C808 C 0.77186 0.78041 0.95707 0.0
H809 H 0.72319 0.74246 0.94009 0.0
C810 C 0.76457 0.79158 0.94353 0.0
C811 C 0.75656 0.76246 0.95547 0.0
C812 C 0.76326 0.74983 0.97069 0.0
C813 C 0.7426 0.78525 0.92648 0.0
C814 C 0.72716 0.76726 0.92565 0.0
C815 C 0.73463 0.7562 0.94026 0.0
C816 C 0.70332 0.75933 0.90704 0.0
C817 C 0.73636 0.79788 0.90679 0.0
C818 C 0.69317 0.76717 0.93781 0.0
C819 C 0.67086 0.75916 0.92061 0.0
C820 C 0.65796 0.74282 0.87369 0.0
C821 C 0.66814 0.73504 0.84327 0.0
C822 C 0.6903 0.74315 0.85923 0.0
H823 H 0.74925 0.80896 0.88762 0.0
H824 H 0.72177 0.79116 0.86505 0.0
H825 H 0.73337 0.80363 0.95418 0.0
H826 H 0.70237 0.77928 0.9767 0.0
H827 H 0.66369 0.76542 0.94629 0.0
H828 H 0.28448 0.95862 0.00309 0.0
H829 H 0.30003 0.94201 0.96027 0.0
H830 H 0.33224 0.98001 0.83106 0.0
H831 H 0.31665 0.99643 0.87238 0.0
H832 H 0.3005 0.92749 0.8165 0.0
H833 H 0.38062 0.98097 0.96391 0.0
H834 H 0.35656 0.97918 0.98218 0.0
H835 H 0.36707 0.98808 0.90742 0.0
C836 C 0.29457 0.96326 0.96462 0.0
C837 C 0.29963 0.97909 0.94236 0.0
C838 C 0.30354 0.95379 0.94043 0.0
C839 C 0.31774 0.96 0.89372 0.0
C840 C 0.32176 0.97518 0.86834 0.0
H841 H 0.40329 0.93515 0.71815 0.0
H842 H 0.38301 0.94798 0.75349 0.0
C843 C 0.31282 0.98458 0.89221 0.0
C844 C 0.32914 0.9512 0.8733 0.0
H845 H 0.37896 0.9584 0.88359 0.0
C846 C 0.31763 0.93417 0.83155 0.0
C847 C 0.35153 0.95994 0.89269 0.0
C848 C 0.36471 0.97799 0.93953 0.0
C849 C 0.32795 0.92588 0.80698 0.0
C850 C 0.3504 0.9347 0.82599 0.0
C851 C 0.36182 0.95164 0.86852 0.0
C852 C 0.36238 0.9266 0.80288 0.0
C853 C 0.31475 0.90799 0.75898 0.0
C854 C 0.35793 0.91047 0.81985 0.0
C855 C 0.36957 0.90317 0.79986 0.0
C856 C 0.38593 0.91169 0.76213 0.0
C857 C 0.39063 0.92802 0.74624 0.0
C858 C 0.37902 0.9354 0.76648 0.0
H859 H 0.29923 0.90548 0.73275 0.0
H860 H 0.32322 0.90667 0.71766 0.0
H861 H 0.31148 0.89766 0.79069 0.0
H862 H 0.34575 0.90367 0.85003 0.0
H863 H 0.36613 0.89109 0.81606 0.0
H864 H 0.44909 0.17303 0.15736 0.0
H865 H 0.41095 0.15218 0.1532 0.0
H866 H 0.41056 0.11547 0.99098 0.0
H867 H 0.44832 0.13566 -0.00308 0.0
H868 H 0.37483 0.13711 0.06504 0.0
H869 H 0.38324 0.08178 0.11268 0.0
H870 H 0.40605 0.10363 0.11954 0.0
H871 H 0.39281 0.08896 0.03475 0.0
C872 C 0.44091 0.16049 0.12092 0.0
C873 C 0.45227 0.15616 0.07831 0.0
C874 C 0.41891 0.14845 0.11852 0.0
C875 C 0.40746 0.13163 0.07349 0.0
C876 C 0.41869 0.12778 0.02875 0.0
H877 H 0.27506 0.04042 0.95141 0.0
H878 H 0.31284 0.06278 0.962 0.0
C879 C 0.44056 0.13962 0.03166 0.0
C880 C 0.38395 0.11822 0.07215 0.0
H881 H 0.3479 0.0743 0.06928 0.0
C882 C 0.36912 0.12344 0.06679 0.0
C883 C 0.37586 0.10014 0.07459 0.0
C884 C 0.39036 0.09335 0.08648 0.0
C885 C 0.34695 0.11131 0.06163 0.0
C886 C 0.3389 0.09321 0.06214 0.0
C887 C 0.35369 0.08802 0.06816 0.0
C888 C 0.31533 0.07946 0.05597 0.0
C889 C 0.33219 0.11793 0.05351 0.0
C890 C 0.30362 0.08077 0.10584 0.0
C891 C 0.28191 0.06765 0.10066 0.0
C892 C 0.27087 0.05289 0.04461 0.0
C893 C 0.28267 0.05156 0.99509 0.0
C894 C 0.30447 0.06447 0.00104 0.0
H895 H 0.33976 0.13083 0.03627 0.0
H896 H 0.31735 0.10832 0.01472 0.0
H897 H 0.32781 0.1197 0.10512 0.0
H898 H 0.3114 0.09178 0.15003 0.0
H899 H 0.27386 0.06892 0.1416 0.0
H900 H 0.95762 0.32092 0.13036 0.0
H901 H 0.97329 0.30311 0.11698 0.0
H902 H 0.93355 0.26957 0.24821 0.0
H903 H 0.91796 0.28752 0.26224 0.0
H904 H 0.99616 0.29711 0.21086 0.0
H905 H 0.92328 0.23277 0.08626 0.0
H906 H 0.92379 0.25308 0.09684 0.0
H907 H 0.92155 0.24198 0.16993 0.0
C908 C 0.95208 0.30969 0.1562 0.0
C909 C 0.93614 0.30551 0.19642 0.0
C910 C 0.96109 0.29946 0.14838 0.0
C911 C 0.95443 0.28466 0.18027 0.0
C912 C 0.93863 0.28053 0.22108 0.0
H913 H 0.99833 0.21158 0.20475 0.0
H914 H 0.98038 0.22764 0.21798 0.0
C915 C 0.92962 0.29081 0.229 0.0
C916 C 0.96471 0.27414 0.17283 0.0
H917 H 0.95456 0.23255 0.12097 0.0
C918 C 0.987 0.283 0.19087 0.0
C919 C 0.95293 0.25566 0.14698 0.0
C920 C 0.92909 0.24532 0.12323 0.0
C921 C 0.99771 0.27402 0.18462 0.0
C922 C 0.98597 0.25557 0.15845 0.0
C923 C 0.96367 0.24665 0.141 0.0
C924 C 0.99654 0.24537 0.14853 0.0
C925 C 0.02158 0.28439 0.20761 0.0
C926 C 1.01144 0.24963 0.10411 0.0
C927 C 1.02152 0.24024 0.09569 0.0
C928 C 1.01692 0.22622 0.1311 0.0
C929 C 1.00194 0.22194 0.17527 0.0
C930 C 0.99175 0.23126 0.18335 0.0
H931 H 0.02747 0.29697 0.24449 0.0
H932 H 0.02696 0.27665 0.2338 0.0
H933 H 0.02895 0.28766 0.16053 0.0
H934 H 1.01521 0.2602 0.07544 0.0
H935 H 0.0329 0.24395 0.06106 0.0
H936 H 0.86173 0.70457 0.99505 0.0
H937 H 0.85184 0.67479 0.01165 0.0
H938 H 0.81886 0.6781 0.175 0.0
H939 H 0.82916 0.70783 0.15961 0.0
H940 H 0.8362 0.66116 0.21266 0.0
H941 H 0.79586 0.63079 0.93384 0.0
H942 H 0.82362 0.64692 0.94286 0.0
H943 H 0.80613 0.65358 0.96932 0.0
C944 C 0.85279 0.6991 0.03559 0.0
C945 C 0.84632 0.70876 0.07598 0.0
C946 C 0.84674 0.68183 0.04431 0.0
C947 C 0.83391 0.67362 0.09338 0.0
C948 C 0.8285 0.68373 0.1362 0.0
H949 H 0.75102 0.56003 0.06804 0.0
H950 H 0.76812 0.59091 0.0598 0.0
C951 C 0.83448 0.70088 0.12743 0.0
C952 C 0.82567 0.65456 0.09982 0.0
H953 H 0.79806 0.61204 0.0055 0.0
C954 C 0.82791 0.65047 0.16709 0.0
C955 C 0.81436 0.64024 0.0412 0.0
C956 C 0.80962 0.64302 0.96787 0.0
C957 C 0.81934 0.63288 0.17731 0.0
C958 C 0.80858 0.6186 0.1184 0.0
C959 C 0.80641 0.62272 0.05113 0.0
C960 C 0.7983 0.59932 0.12519 0.0
C961 C 0.82119 0.62986 0.25193 0.0
C962 C 0.8092 0.59304 0.16439 0.0
C963 C 0.79901 0.57513 0.17117 0.0
C964 C 0.77772 0.56275 0.13755 0.0
C965 C 0.76719 0.56899 0.09642 0.0
C966 C 0.77716 0.58684 0.09084 0.0
H967 H 0.82392 0.64114 0.29077 0.0
H968 H 0.80666 0.61773 0.25855 0.0
H969 H 0.83495 0.62843 0.2647 0.0
H970 H 0.82568 0.60196 0.18986 0.0
H971 H 0.80778 0.57109 0.20345 0.0
H972 H 0.23392 0.49894 0.5889 0.0
H973 H 0.19633 0.47969 0.53522 0.0
H974 H 0.17966 0.49127 0.7306 0.0
H975 H 0.21746 0.50976 0.78595 0.0
H976 H 0.15644 0.4571 0.67852 0.0
H977 H 0.15401 0.49134 0.46225 0.0
H978 H 0.17388 0.48597 0.46042 0.0
H979 H 0.17644 0.5012 0.53471 0.0
C980 C 0.22226 0.49745 0.62047 0.0
C981 C 0.22867 0.50613 0.69144 0.0
C982 C 0.20073 0.4866 0.58934 0.0
C983 C 0.18506 0.48435 0.62811 0.0
C984 C 0.19142 0.49297 0.6992 0.0
H985 H 0.05246 0.42464 0.39532 0.0
H986 H 0.08644 0.44832 0.46878 0.0
C987 C 0.21302 0.50369 0.73065 0.0
C988 C 0.16213 0.47207 0.59556 0.0
H989 H 0.1251 0.46111 0.44801 0.0
C990 C 0.14951 0.45814 0.62862 0.0
C991 C 0.15287 0.47354 0.53108 0.0
C992 C 0.16496 0.48894 0.49551 0.0
C993 C 0.12825 0.44525 0.59765 0.0
C994 C 0.11945 0.44593 0.53043 0.0
C995 C 0.1318 0.46034 0.49895 0.0
C996 C 0.09803 0.43141 0.49021 0.0
C997 C 0.11549 0.43109 0.63781 0.0
C998 C 0.09303 0.41396 0.47774 0.0
C999 C 0.07347 0.40037 0.43717 0.0
C1000 C 0.05848 0.40385 0.40596 0.0
C1001 C 0.06341 0.42135 0.4189 0.0
C1002 C 0.08297 0.43496 0.46049 0.0
H1003 H 0.12131 0.43595 0.69572 0.0
H1004 H 0.09835 0.42636 0.62554 0.0
H1005 H 0.11731 0.41978 0.62353 0.0
H1006 H 0.10447 0.41083 0.49817 0.0
H1007 H 0.07022 0.38709 0.42975 0.0
H1008 H 0.66965 0.64721 0.76562 0.0
H1009 H 0.67934 0.63452 0.67051 0.0
H1010 H 0.62235 0.62116 0.52928 0.0
H1011 H 0.61228 0.63366 0.62511 0.0
H1012 H 0.65032 0.5971 0.59835 0.0
H1013 H 0.67273 0.64514 0.41778 0.0
H1014 H 0.67325 0.65124 0.51004 0.0
H1015 H 0.64833 0.63795 0.44914 0.0
C1016 C 0.65923 0.6417 0.71419 0.0
C1017 C 0.64005 0.64121 0.70312 0.0
C1018 C 0.66484 0.63452 0.6599 0.0
C1019 C 0.65154 0.62687 0.59312 0.0
C1020 C 0.63289 0.62712 0.58048 0.0
H1021 H 0.66886 0.57783 0.21632 0.0
H1022 H 0.65562 0.59009 0.30048 0.0
C1023 C 0.6272 0.63431 0.63512 0.0
C1024 C 0.65658 0.6175 0.53902 0.0
H1025 H 0.67465 0.62027 0.38455 0.0
C1026 C 0.65556 0.60208 0.55132 0.0
C1027 C 0.6632 0.62398 0.4777 0.0
C1028 C 0.6646 0.64053 0.46254 0.0
C1029 C 0.66101 0.59293 0.50385 0.0
C1030 C 0.66841 0.59974 0.44352 0.0
C1031 C 0.66908 0.61505 0.43081 0.0
C1032 C 0.67571 0.59137 0.39312 0.0
C1033 C 0.65835 0.57589 0.51852 0.0
C1034 C 0.69141 0.58795 0.41691 0.0
C1035 C 0.69864 0.58059 0.36888 0.0
C1036 C 0.69081 0.57705 0.29607 0.0
C1037 C 0.67525 0.58058 0.27222 0.0
C1038 C 0.6677 0.58757 0.32028 0.0
H1039 H 0.64602 0.56959 0.55081 0.0
H1040 H 0.65387 0.56637 0.46891 0.0
H1041 H 0.67355 0.5787 0.54898 0.0
H1042 H 0.69837 0.59126 0.47249 0.0
H1043 H 0.7108 0.57814 0.38843 0.0
H1044 H 0.49245 0.06085 0.13861 0.0
H1045 H 0.49329 0.04524 0.23276 0.0
H1046 H 0.48152 0.07813 0.37374 0.0
H1047 H 0.48008 0.09356 0.27861 0.0
H1048 H 0.51765 0.05569 0.36561 0.0
H1049 H 0.43295 0.0285 0.3796 0.0
H1050 H 0.44456 0.03923 0.30905 0.0
H1051 H 0.44906 0.05213 0.39368 0.0
C1052 C 0.49005 0.06478 0.18968 0.0
C1053 C 0.48579 0.07822 0.20075 0.0
C1054 C 0.49063 0.0559 0.24356 0.0
C1055 C 0.48694 0.06019 0.3098 0.0
C1056 C 0.48389 0.07429 0.32247 0.0
H1057 H 0.47934 0.01877 0.69278 0.0
H1058 H 0.47838 0.03405 0.59742 0.0
C1059 C 0.48332 0.08324 0.26837 0.0
C1060 C 0.48577 0.04954 0.36441 0.0
H1061 H 0.45253 0.02239 0.46337 0.0
C1062 C 0.5034 0.04838 0.3869 0.0
C1063 C 0.46709 0.03986 0.39167 0.0
C1064 C 0.44725 0.03981 0.36692 0.0
C1065 C 0.50303 0.03814 0.437 0.0
C1066 C 0.48441 0.02856 0.46459 0.0
C1067 C 0.46676 0.02967 0.44195 0.0
C1068 C 0.48338 0.01816 0.52004 0.0
C1069 C 0.52278 0.03803 0.46134 0.0
C1070 C 0.48577 1.0037 0.50763 0.0
C1071 C 0.48635 0.99491 0.56236 0.0
C1072 C 0.48463 1.00051 0.63039 0.0
C1073 C 0.48116 0.01439 0.64138 0.0
C1074 C 0.4805 0.02309 0.58683 0.0
H1075 H 0.53704 0.049 0.44696 0.0
H1076 H 0.52579 0.03904 0.51944 0.0
H1077 H 0.52057 0.02543 0.43594 0.0
H1078 H 0.48756 0.99943 0.45602 0.0
H1079 H 0.48894 0.98421 0.55217 0.0
H1080 H 0.13411 0.08095 0.96497 0.0
H1081 H 0.11614 0.09706 0.97952 0.0
H1082 H 0.15491 0.12349 0.1875 0.0
H1083 H 0.17327 0.10779 0.1718 0.0
H1084 H 0.09325 0.10087 0.06739 0.0
H1085 H 0.16869 0.16523 0.0987 0.0
H1086 H 0.16673 0.14456 0.0735 0.0
H1087 H 0.16936 0.15303 0.1648 0.0
C1088 C 0.13828 0.08979 0.01461 0.0
C1089 C 0.15482 0.0929 0.06776 0.0
C1090 C 0.12818 0.09916 0.02267 0.0
C1091 C 0.13454 0.11195 0.08385 0.0
C1092 C 0.15009 0.11415 0.13891 0.0
H1093 H 0.09628 0.18633 0.21003 0.0
H1094 H 0.11257 0.16873 0.20572 0.0
C1095 C 0.16029 0.10489 0.13059 0.0
C1096 C 0.12536 0.12328 0.08899 0.0
H1097 H 0.13851 0.16618 0.11737 0.0
C1098 C 0.10319 0.11515 0.0782 0.0
C1099 C 0.13822 0.14199 0.10259 0.0
C1100 C 0.16205 0.15173 0.10983 0.0
C1101 C 0.09361 0.12507 0.08174 0.0
C1102 C 0.10644 0.14373 0.09592 0.0
C1103 C 0.12862 0.1519 0.10702 0.0
C1104 C 0.09712 0.15496 0.0979 0.0
C1105 C 0.06976 0.11538 0.07097 0.0
C1106 C 0.08354 0.15361 0.03818 0.0
C1107 C 0.07444 0.16382 0.04033 0.0
C1108 C 0.07859 0.17561 0.10232 0.0
C1109 C 0.09272 0.17739 0.16143 0.0
C1110 C 0.10197 0.16724 0.15912 0.0
H1111 H 0.06282 0.10162 0.07888 0.0
H1112 H 0.06466 0.12216 0.1075 0.0
H1113 H 0.06329 0.11489 0.01599 0.0
H1114 H 0.08 0.14466 0.98959 0.0
H1115 H 0.06414 0.16247 0.99317 0.0
H1116 H 0.90502 0.94253 0.152 0.0
H1117 H 0.91843 0.97247 0.13169 0.0
H1118 H 0.98077 0.98093 0.13645 0.0
H1119 H 0.96716 0.95074 0.15407 0.0
H1120 H 0.9477 1.00224 0.2183 0.0
H1121 H 0.97497 1.00018 0.96564 0.0
H1122 H 0.95876 0.98049 -0.00089 0.0
H1123 H 0.98698 0.99409 0.03264 0.0
C1124 C 0.9215 0.95073 0.14758 0.0
C1125 C 0.93507 0.94438 0.15438 0.0
C1126 C 0.92915 0.9678 0.13608 0.0
C1127 C 0.95055 0.9789 0.1318 0.0
C1128 C 0.96408 0.97249 0.13769 0.0
H1129 H 0.02917 0.08843 0.10525 0.0
H1130 H 1.0153 0.05858 0.12668 0.0
C1131 C 0.95633 0.95528 0.14805 0.0
C1132 C 0.95887 0.99749 0.12589 0.0
H1133 H 0.98557 0.02848 0.02828 0.0
C1134 C 0.95585 1.00794 0.17643 0.0
C1135 C 0.96959 1.00494 0.07143 0.0
C1136 C 0.97259 0.99429 0.01376 0.0
C1137 C 0.96347 0.02568 0.17454 0.0
C1138 C 0.97426 0.0331 0.12038 0.0
C1139 C 0.97732 0.02271 0.0699 0.0
C1140 C 0.98272 0.05169 0.11494 0.0
C1141 C 0.96024 0.03638 0.23121 0.0
C1142 C 0.96904 0.0578 0.10268 0.0
C1143 C 0.977 0.0749 0.09049 0.0
C1144 C 0.99868 0.08598 0.08951 0.0
C1145 C 1.01239 0.08004 0.10459 0.0
C1146 C 1.00449 0.06303 0.11701 0.0
H1147 H 0.95666 0.03017 0.2783 0.0
H1148 H 0.97451 0.04994 0.24801 0.0
H1149 H 0.94661 0.03738 0.20998 0.0
H1150 H 0.95212 0.04914 0.09979 0.0
H1151 H 0.96608 0.07914 0.07844 0.0
H1152 H 0.9616 0.87974 0.98384 0.0
H1153 H 0.99832 0.90214 0.98461 0.0
H1154 H 1.01927 0.87353 0.09678 0.0
H1155 H 0.98206 0.85078 0.09589 0.0
H1156 H 0.0307 0.92511 0.08133 0.0
H1157 H 0.05568 0.88292 0.95311 0.0
H1158 H 0.02827 0.87464 0.9574 0.0
H1159 H 0.04634 0.87678 0.03273 0.0
C1160 C 0.97384 0.87793 0.00847 0.0
C1161 C 0.96826 0.86291 0.03898 0.0
C1162 C 0.99518 0.89101 0.00897 0.0
C1163 C 1.01223 0.88982 0.03952 0.0
C1164 C 1.00682 0.8749 0.07072 0.0
H1165 H 0.15234 0.96027 0.08402 0.0
H1166 H 0.11619 0.93671 0.08595 0.0
C1167 C 0.98529 0.86172 0.07044 0.0
C1168 C 0.03526 0.90449 0.0399 0.0
H1169 H 0.08257 0.9129 -0.00348 0.0
C1170 C 0.04192 0.9223 0.06244 0.0
C1171 C 0.0505 0.90135 0.01583 0.0
C1172 C 0.04485 0.88292 0.98776 0.0
C1173 C 0.0628 0.93663 0.06262 0.0
C1174 C 0.07797 0.93353 0.0376 0.0
C1175 C 0.07137 0.9157 0.01561 0.0
C1176 C 0.10064 0.94835 0.03488 0.0
C1177 C 0.06845 0.95499 0.09216 0.0
C1178 C 0.10491 0.96317 0.00468 0.0
C1179 C 0.12597 0.9768 0.00304 0.0
C1180 C 0.14373 0.97608 0.03027 0.0
C1181 C 0.13941 0.96125 0.06013 0.0
C1182 C 0.11843 0.94768 0.06196 0.0
H1183 H 0.05822 0.95481 0.12969 0.0
H1184 H 0.08529 0.96347 0.11996 0.0
H1185 H 0.06589 0.96102 0.0483 0.0
H1186 H 0.0919 0.96418 0.98118 0.0
H1187 H 0.12829 0.98782 0.97929 0.0
H1188 H 0.85594 0.47391 0.11702 0.0
H1189 H 0.86401 0.45091 0.1148 0.0
H1190 H 0.81848 0.42559 0.24689 0.0
H1191 H 0.80991 0.44842 0.24728 0.0
H1192 H 0.88157 0.44481 0.22297 0.0
H1193 H 0.80423 0.38341 0.10541 0.0
H1194 H 0.80875 0.40499 0.10301 0.0
H1195 H 0.80302 0.39581 0.18138 0.0
C1196 C 0.84736 0.46324 0.1445 0.0
C1197 C 0.83232 0.46297 0.18241 0.0
C1198 C 0.85201 0.45011 0.14334 0.0
C1199 C 0.84183 0.43639 0.18039 0.0
C1200 C 0.82627 0.43577 0.21659 0.0
H1201 H 0.89732 0.37749 0.3205 0.0
H1202 H 0.88458 0.39745 0.31311 0.0
C1203 C 0.8214 0.44885 0.21699 0.0
C1204 C 0.84889 0.42374 0.18534 0.0
H1205 H 0.83185 0.37998 0.15795 0.0
C1206 C 0.87065 0.43064 0.20855 0.0
C1207 C 0.83477 0.40521 0.16586 0.0
C1208 C 0.81143 0.3969 0.13685 0.0
C1209 C 0.87862 0.41964 0.21293 0.0
C1210 C 0.86445 0.40112 0.19569 0.0
C1211 C 0.84271 0.39417 0.17201 0.0
C1212 C 0.87202 0.38883 0.2006 0.0
C1213 C 0.90228 0.42796 0.2334 0.0
C1214 C 0.86883 0.37701 0.14028 0.0
C1215 C 0.87625 0.36566 0.14442 0.0
C1216 C 0.88697 0.36586 0.20905 0.0
C1217 C 0.88967 0.37738 0.26965 0.0
C1218 C 0.88233 0.38877 0.26547 0.0
H1219 H 0.91128 0.44209 0.22945 0.0
H1220 H 0.90637 0.42704 0.28878 0.0
H1221 H 0.90746 0.42091 0.1988 0.0
H1222 H 0.86084 0.37674 0.08969 0.0
H1223 H 0.87384 0.3569 0.09675 0.0
H1224 H 0.7149 0.45028 0.04379 0.0
H1225 H 0.69138 0.41836 0.0369 0.0
H1226 H 0.67556 0.42826 0.2362 0.0
H1227 H 0.69928 0.45995 0.24387 0.0
H1228 H 0.6917 0.39646 0.12614 0.0
H1229 H 0.61667 0.39518 0.11469 0.0
H1230 H 0.64069 0.41368 0.0988 0.0
H1231 H 0.63748 0.4107 0.18762 0.0
C1232 C 0.70642 0.44565 0.08616 0.0
C1233 C 0.70862 0.45781 0.14357 0.0
C1234 C 0.69288 0.42735 0.08208 0.0
C1235 C 0.68109 0.42072 0.13504 0.0
C1236 C 0.68381 0.43286 0.19333 0.0
H1237 H 0.59282 0.31351 0.20687 0.0
H1238 H 0.61344 0.34564 0.21215 0.0
C1239 C 0.69742 0.45109 0.19763 0.0
C1240 C 0.6665 0.40118 0.13054 0.0
H1241 H 0.61488 0.3687 0.12843 0.0
C1242 C 0.67489 0.39042 0.12625 0.0
C1243 C 0.6445 0.39313 0.13132 0.0
C1244 C 0.63419 0.4037 0.13276 0.0
C1245 C 0.66215 0.37208 0.12374 0.0
C1246 C 0.64007 0.36396 0.1236 0.0
C1247 C 0.6317 0.37475 0.12846 0.0
C1248 C 0.62553 0.34431 0.11698 0.0
C1249 C 0.67272 0.36169 0.12316 0.0
C1250 C 0.62437 0.33263 0.06002 0.0
C1251 C 0.61264 0.31437 0.05707 0.0
C1252 C 0.60134 0.3071 0.11028 0.0
C1253 C 0.60119 0.31863 0.16477 0.0
C1254 C 0.61314 0.33704 0.16803 0.0
H1255 H 0.69 0.37025 0.14592 0.0
H1256 H 0.66542 0.35093 0.15335 0.0
H1257 H 0.67094 0.35575 0.06782 0.0
H1258 H 0.63306 0.33767 0.01851 0.0
H1259 H 0.61303 0.30588 0.01418 0.0
H1260 H 0.59047 0.22922 0.22308 0.0
H1261 H 0.62899 0.24308 0.23265 0.0
H1262 H 0.61792 0.20912 0.03773 0.0
H1263 H 0.57994 0.19659 0.02472 0.0
H1264 H 0.65421 0.23144 0.24735 0.0
H1265 H 0.66071 0.2538 0.99246 0.0
H1266 H 0.63662 0.24531 0.02694 0.0
H1267 H 0.64246 0.23049 0.9797 0.0
C1268 C 0.5963 0.22493 0.18173 0.0
C1269 C 0.58198 0.21169 0.12329 0.0
C1270 C 0.61836 0.23279 0.18742 0.0
C1271 C 0.62664 0.22751 0.13513 0.0
C1272 C 0.61225 0.214 0.0777 0.0
H1273 H 0.74723 0.24252 0.08131 0.0
H1274 H 0.71042 0.23473 0.07139 0.0
C1275 C 0.59035 0.20652 0.07109 0.0
C1276 C 0.65016 0.2357 0.14131 0.0
H1277 H 0.69049 0.25338 0.04895 0.0
C1278 C 0.66216 0.23647 0.20425 0.0
C1279 C 0.66076 0.24231 0.08523 0.0
C1280 C 0.64949 0.24311 0.01765 0.0
C1281 C 0.68406 0.24306 0.21176 0.0
C1282 C 0.69447 0.24923 0.15503 0.0
C1283 C 0.68259 0.24869 0.09251 0.0
C1284 C 0.71732 0.25528 0.15793 0.0
C1285 C 0.69574 0.24277 0.27956 0.0
C1286 C 0.73375 0.26992 0.20801 0.0
C1287 C 0.75496 0.27453 0.21324 0.0
C1288 C 0.76008 0.26451 0.16875 0.0
C1289 C 0.74375 0.25044 0.11653 0.0
C1290 C 0.72268 0.24595 0.11091 0.0
H1291 H 0.68467 0.23425 0.31183 0.0
H1292 H 0.70634 0.23801 0.26854 0.0
H1293 H 0.70575 0.25635 0.31134 0.0
H1294 H 0.73012 0.27756 0.244 0.0
H1295 H 0.76717 0.28539 0.25415 0.0
H1296 H 0.51909 0.77372 0.71121 0.0
H1297 H 0.49763 0.78708 0.6997 0.0
H1298 H 0.54131 0.829 0.87503 0.0
H1299 H 0.56285 0.81594 0.88541 0.0
H1300 H 0.47671 0.79705 0.785 0.0
H1301 H 0.54401 0.85664 0.72233 0.0
H1302 H 0.54417 0.83684 0.72585 0.0
H1303 H 0.55063 0.85216 0.80588 0.0
C1304 C 0.52378 0.78554 0.7483 0.0
C1305 C 0.54269 0.79376 0.79923 0.0
C1306 C 0.5116 0.79328 0.74138 0.0
C1307 C 0.51811 0.80942 0.7851 0.0
C1308 C 0.53619 0.81689 0.8391 0.0
H1309 H 0.47861 0.88511 0.82073 0.0
H1310 H 0.49563 0.86839 0.83433 0.0
C1311 C 0.54838 0.80927 0.84565 0.0
C1312 C 0.50669 0.81887 0.77312 0.0
H1313 H 0.51452 0.8584 0.74403 0.0
C1314 C 0.48496 0.81042 0.77556 0.0
C1315 C 0.5173 0.83635 0.76047 0.0
C1316 C 0.54025 0.84598 0.75273 0.0
C1317 C 0.47383 0.81909 0.76812 0.0
C1318 C 0.48455 0.83667 0.75656 0.0
C1319 C 0.50621 0.84501 0.7533 0.0
C1320 C 0.47377 0.84675 0.74812 0.0
C1321 C 0.45082 0.80947 0.77493 0.0
C1322 C 0.45588 0.84046 0.69446 0.0
C1323 C 0.44621 0.85016 0.68604 0.0
C1324 C 0.4542 0.8665 0.73086 0.0
C1325 C 0.47211 0.87276 0.78451 0.0
C1326 C 0.48184 0.86311 0.79262 0.0
H1327 H 0.44672 0.79841 0.80326 0.0
H1328 H 0.44703 0.81852 0.80341 0.0
H1329 H 0.44061 0.80387 0.72143 0.0
H1330 H 0.44951 0.82811 0.65824 0.0
H1331 H 0.43248 0.84485 0.64407 0.0
H1332 H 0.37427 0.65877 0.79116 0.0
H1333 H 0.37765 0.68587 0.76278 0.0
H1334 H 0.32787 0.67796 0.87525 0.0
H1335 H 0.32457 0.65112 0.90446 0.0
H1336 H 0.3396 0.6875 0.69244 0.0
H1337 H 0.38264 0.72961 0.95876 0.0
H1338 H 0.38337 0.71041 0.92683 0.0
H1339 H 0.36023 0.70783 0.95617 0.0
C1340 C 0.36431 0.66301 0.81049 0.0
C1341 C 0.34929 0.65306 0.85027 0.0
C1342 C 0.36613 0.6783 0.79387 0.0
C1343 C 0.3531 0.68376 0.81761 0.0
C1344 C 0.33812 0.67387 0.85723 0.0
H1345 H 0.32758 0.76443 0.82118 0.0
H1346 H 0.33061 0.73924 0.83621 0.0
C1347 C 0.33624 0.65861 0.87359 0.0
C1348 C 0.35486 0.69978 0.801 0.0
H1349 H 0.36836 0.74068 0.87888 0.0
C1350 C 0.34616 0.69929 0.73256 0.0
C1351 C 0.36335 0.71488 0.85415 0.0
C1352 C 0.37308 0.71587 0.92811 0.0
C1353 C 0.34484 0.71346 0.71654 0.0
C1354 C 0.35282 0.7284 0.77037 0.0
C1355 C 0.36223 0.72909 0.83809 0.0
C1356 C 0.35056 0.74314 0.75887 0.0
C1357 C 0.33409 0.71201 0.64344 0.0
C1358 C 0.3608 0.75347 0.71046 0.0
C1359 C 0.35882 0.76763 0.70103 0.0
C1360 C 0.34684 0.77174 0.74078 0.0
C1361 C 0.33663 0.76135 0.78929 0.0
C1362 C 0.33849 0.74712 0.79827 0.0
H1363 H 0.3248 0.69822 0.61329 0.0
H1364 H 0.32328 0.71693 0.64615 0.0
H1365 H 0.34633 0.72021 0.61375 0.0
H1366 H 0.37044 0.75069 0.68056 0.0
H1367 H 0.36669 0.77537 0.66274 0.0
H1368 H 0.52865 0.69276 0.92306 0.0
H1369 H 0.49137 0.67019 0.91944 0.0
H1370 H 0.48658 0.64654 0.70743 0.0
H1371 H 0.523 0.67 0.70883 0.0
H1372 H 0.45295 0.64473 0.70888 0.0
H1373 H 0.4663 0.62201 0.95076 0.0
H1374 H 0.47463 0.64474 0.97105 0.0
H1375 H 0.48799 0.63807 0.91558 0.0
C1376 C 0.5195 0.68285 0.87543 0.0
C1377 C 0.52892 0.68296 0.81667 0.0
C1378 C 0.49825 0.66969 0.87383 0.0
C1379 C 0.48607 0.6561 0.81404 0.0
C1380 C 0.49543 0.65663 0.75468 0.0
H1381 H 0.36557 0.55933 0.82789 0.0
H1382 H 0.40291 0.58155 0.83198 0.0
C1383 C 0.51641 0.67 0.75568 0.0
C1384 C 0.46342 0.64172 0.81138 0.0
H1385 H 0.43015 0.61173 0.90253 0.0
C1386 C 0.44812 0.63743 0.75115 0.0
C1387 C 0.45681 0.63179 0.86554 0.0
C1388 C 0.47236 0.63425 0.92892 0.0
C1389 C 0.42672 0.62377 0.74349 0.0
C1390 C 0.41983 0.61464 0.79963 0.0
C1391 C 0.43514 0.61878 0.85968 0.0
C1392 C 0.39694 0.60086 0.79704 0.0
C1393 C 0.41204 0.61898 0.67381 0.0
C1394 C 0.38088 0.60413 0.77722 0.0
C1395 C 0.35946 0.59108 0.77157 0.0
C1396 C 0.35336 0.57458 0.78905 0.0
C1397 C 0.36948 0.5716 0.81236 0.0
C1398 C 0.39096 0.58448 0.81553 0.0
H1399 H 0.42093 0.62221 0.62995 0.0
H1400 H 0.39944 0.60474 0.66083 0.0
H1401 H 0.40447 0.62678 0.6763 0.0
H1402 H 0.38483 0.61684 0.76602 0.0
H1403 H 0.34768 0.59411 0.75427 0.0
H1404 H 0.04371 0.1762 0.88623 0.0
H1405 H 0.04493 0.17687 0.76112 0.0
H1406 H 0.04593 0.22532 0.78655 0.0
H1407 H 0.04458 0.22471 0.91176 0.0
H1408 H 1.01563 0.17904 0.65452 0.0
H1409 H 0.09933 0.23583 0.70047 0.0
H1410 H 0.08865 0.22262 0.76617 0.0
H1411 H 0.08205 0.23859 0.75027 0.0
C1412 C 0.04396 0.18689 0.86496 0.0
C1413 C 0.0441 0.20044 0.90854 0.0
C1414 C 0.04475 0.18729 0.79373 0.0
C1415 C 0.04582 0.20127 0.76525 0.0
C1416 C 0.04546 0.21459 0.80815 0.0
H1417 H 0.05704 0.22899 0.35185 0.0
H1418 H 0.05602 0.22877 0.4773 0.0
C1419 C 0.04462 0.21418 0.87936 0.0
C1420 C 0.04724 0.20188 0.69043 0.0
H1421 H 0.0803 0.22495 0.58258 0.0
C1422 C 0.02975 0.18903 0.63857 0.0
C1423 C 0.0657 0.215 0.67037 0.0
C1424 C 0.08512 0.22876 0.72453 0.0
C1425 C 0.03009 0.18909 0.56662 0.0
C1426 C 0.04864 0.20211 0.54636 0.0
C1427 C 0.06613 0.215 0.59839 0.0
C1428 C 0.05017 0.20252 0.47132 0.0
C1429 C 1.01041 0.17544 0.51307 0.0
C1430 C 0.04774 0.18801 0.42704 0.0
C1431 C 0.04807 0.18802 0.35544 0.0
C1432 C 0.05123 0.20268 0.32716 0.0
C1433 C 0.05453 0.21749 0.37217 0.0
C1434 C 0.05395 0.21739 0.44374 0.0
H1435 H 0.996 0.1698 0.53688 0.0
H1436 H 1.00786 0.18113 0.46789 0.0
H1437 H 1.01228 0.16447 0.49247 0.0
H1438 H 0.04543 0.17661 0.44778 0.0
H1439 H 0.04584 0.17652 0.32226 0.0
H1440 H 0.87114 0.80018 0.79772 0.0
H1441 H 0.87199 0.80042 0.67169 0.0
H1442 H 0.92698 0.85346 0.72487 0.0
H1443 H 0.92637 0.8533 0.85002 0.0
H1444 H 0.89399 0.84765 0.61358 0.0
H1445 H 0.9172 0.79849 0.57102 0.0
H1446 H 0.89445 0.79205 0.61144 0.0
H1447 H 0.9202 0.8099 0.65789 0.0
C1448 C 0.88345 0.81183 0.78239 0.0
C1449 C 0.89872 0.82666 0.83377 0.0
C1450 C 0.88393 0.81195 0.71055 0.0
C1451 C 0.89968 0.82691 0.68914 0.0
C1452 C 0.9147 0.8418 0.74029 0.0
H1453 H 0.93249 0.8575 0.28749 0.0
H1454 H 0.93064 0.85725 0.41269 0.0
C1455 C 0.91428 0.84167 0.81182 0.0
C1456 C 0.9007 0.82718 0.6135 0.0
H1457 H 0.91059 0.80896 0.47114 0.0
C1458 C 0.89761 0.8392 0.58228 0.0
C1459 C 0.9055 0.81619 0.57312 0.0
C1460 C 0.90971 0.8035 0.60491 0.0
C1461 C 0.89883 0.8403 0.51117 0.0
C1462 C 0.90378 0.82938 0.4708 0.0
C1463 C 0.90686 0.81736 0.50219 0.0
C1464 C 0.90523 0.82978 0.3953 0.0
C1465 C 0.8943 0.85284 0.47955 0.0
C1466 C 0.89201 0.81435 0.34422 0.0
C1467 C 0.89323 0.8144 0.2731 0.0
C1468 C 0.90772 0.82991 0.25127 0.0
C1469 C 0.9211 0.84536 0.30253 0.0
C1470 C 0.91994 0.84527 0.37401 0.0
H1471 H 0.88537 0.85669 0.51126 0.0
H1472 H 0.90955 0.86501 0.47815 0.0
H1473 H 0.88503 0.84691 0.42467 0.0
H1474 H 0.88057 0.80224 0.35936 0.0
H1475 H 0.88259 0.80225 0.23515 0.0
H1476 H 0.17039 1.00542 0.79343 0.0
H1477 H 0.1706 1.00606 0.66732 0.0
H1478 H 0.23482 0.01785 0.70019 0.0
H1479 H 0.23487 0.0175 0.82551 0.0
H1480 H 0.22887 0.03977 0.62239 0.0
H1481 H 0.16781 0.96906 0.51496 0.0
H1482 H 0.15974 0.98036 0.5732 0.0
H1483 H 0.18062 0.97725 0.60694 0.0
C1484 C 0.18448 1.00806 0.77353 0.0
C1485 C 0.20256 1.01134 0.81935 0.0
C1486 C 0.18456 1.00834 0.70153 0.0
C1487 C 0.20266 1.01181 0.67427 0.0
C1488 C 0.22066 0.01507 0.72001 0.0
H1489 H 0.24032 0.02118 0.26436 0.0
H1490 H 0.23901 0.02014 0.38951 0.0
C1491 C 0.2206 0.01477 0.79162 0.0
C1492 C 0.20323 1.01251 0.59849 0.0
H1493 H 0.18075 0.9876 0.43188 0.0
C1494 C 0.21837 0.02836 0.5807 0.0
C1495 C 0.18956 0.99759 0.54428 0.0
C1496 C 0.17362 0.98004 0.56051 0.0
C1497 C 0.22005 0.02976 0.51008 0.0
C1498 C 0.20641 0.01484 0.45591 0.0
C1499 C 0.19121 0.99901 0.47361 0.0
C1500 C 0.20739 0.01548 0.38036 0.0
C1501 C 0.23614 0.04727 0.49382 0.0
C1502 C 0.18996 1.01294 0.33364 0.0
C1503 C 0.19066 0.01352 0.26238 0.0
C1504 C 0.20873 0.01644 0.23614 0.0
C1505 C 0.22616 0.01887 0.28294 0.0
C1506 C 0.22548 0.01838 0.35447 0.0
H1507 H 0.24205 0.05827 0.53936 0.0
H1508 H 0.24992 0.04681 0.48104 0.0
H1509 H 0.2292 0.05011 0.44739 0.0
H1510 H 0.17583 1.01062 0.35249 0.0
H1511 H 0.17691 1.01147 0.22764 0.0
H1512 H 0.75699 0.49337 0.37133 0.0
H1513 H 0.75379 0.49224 0.49493 0.0
H1514 H 0.74221 0.5344 0.50613 0.0
H1515 H 0.74523 0.53555 0.38246 0.0
H1516 H 0.77691 0.51843 0.6171 0.0
H1517 H 0.69152 0.49607 0.57566 0.0
H1518 H 0.70448 0.4953 0.5036 0.0
H1519 H 0.70806 0.51578 0.54357 0.0
C1520 C 0.75386 0.50247 0.40008 0.0
C1521 C 0.75122 0.51447 0.36668 0.0
C1522 C 0.75199 0.50178 0.47077 0.0
C1523 C 0.74736 0.513 0.50948 0.0
C1524 C 0.7453 0.52533 0.4769 0.0
H1525 H 0.73645 0.53036 0.94943 0.0
H1526 H 0.73791 0.53171 0.8246 0.0
C1527 C 0.74718 0.52604 0.40625 0.0
C1528 C 0.74489 0.5119 0.58408 0.0
H1529 H 0.70959 0.50345 0.69441 0.0
C1530 C 0.76216 0.51508 0.63389 0.0
C1531 C 0.72565 0.50757 0.60606 0.0
C1532 C 0.70628 0.50332 0.55443 0.0
C1533 C 0.76078 0.51423 0.7051 0.0
C1534 C 0.74155 0.50987 0.72698 0.0
C1535 C 0.7243 0.50678 0.67742 0.0
C1536 C 0.73913 0.50834 0.80122 0.0
C1537 C 0.78003 0.51842 0.75705 0.0
C1538 C 0.73872 0.49447 0.82891 0.0
C1539 C 0.73768 0.49356 0.89994 0.0
C1540 C 0.73719 0.50659 0.94486 0.0
C1541 C 0.7368 0.52011 0.91628 0.0
C1542 C 0.73772 0.52095 0.84504 0.0
H1543 H 0.79458 0.52408 0.73398 0.0
H1544 H 0.78282 0.52792 0.80457 0.0
H1545 H 0.77724 0.5062 0.77429 0.0
H1546 H 0.73951 0.48447 0.79571 0.0
H1547 H 0.73772 0.48285 0.92009 0.0
H1548 H 0.49032 0.16155 0.29052 0.0
H1549 H 0.48937 0.16081 0.4154 0.0
H1550 H 0.54755 0.21197 0.47272 0.0
H1551 H 0.54887 0.21266 0.34738 0.0
H1552 H 0.54657 0.1865 0.54963 0.0
H1553 H 0.47446 0.18961 0.54845 0.0
H1554 H 0.47135 0.17261 0.4817 0.0
H1555 H 0.4895 0.19536 0.47877 0.0
C1556 C 0.50292 0.17267 0.32962 0.0
C1557 C 0.51954 0.18726 0.30908 0.0
C1558 C 0.50227 0.17227 0.40097 0.0
C1559 C 0.51819 0.18646 0.45323 0.0
C1560 C 0.535 0.20095 0.43308 0.0
H1561 H 0.54275 0.21041 0.9095 0.0
H1562 H 0.54382 0.21018 0.78422 0.0
C1563 C 0.53566 0.20138 0.36155 0.0
C1564 C 0.51739 0.18595 0.5289 0.0
H1565 H 0.48728 0.18351 0.65204 0.0
C1566 C 0.53368 0.18594 0.57218 0.0
C1567 C 0.50049 0.18513 0.55798 0.0
C1568 C 0.48303 0.18583 0.5146 0.0
C1569 C 0.53335 0.18489 0.6437 0.0
C1570 C 0.51646 0.18409 0.67272 0.0
C1571 C 0.50014 0.18404 0.62943 0.0
C1572 C 0.51584 0.18396 0.74861 0.0
C1573 C 0.55089 0.18438 0.68748 0.0
C1574 C 0.4995 0.16939 0.77001 0.0
C1575 C 0.49879 0.16948 0.84176 0.0
C1576 C 0.51431 0.18422 0.89314 0.0
C1577 C 0.53051 0.19885 0.87128 0.0
C1578 C 0.53127 0.1987 0.79974 0.0
H1579 H 0.55973 0.18085 0.65396 0.0
H1580 H 0.56231 0.19758 0.72092 0.0
H1581 H 0.54442 0.17475 0.72292 0.0
H1582 H 0.48735 0.15794 0.73118 0.0
H1583 H 0.48604 0.15807 0.85697 0.0
H1584 H 0.94279 0.34002 0.44737 0.0
H1585 H 0.94375 0.34035 0.57363 0.0
H1586 H 0.8797 0.32884 0.54659 0.0
H1587 H 0.87844 0.32837 0.41969 0.0
H1588 H 0.91487 0.35974 0.66373 0.0
H1589 H 0.90653 0.29474 0.66228 0.0
H1590 H 0.92505 0.30951 0.61378 0.0
H1591 H 0.89713 0.30005 0.58468 0.0
C1592 C 0.92885 0.33752 0.46802 0.0
C1593 C 0.91049 0.33412 0.42334 0.0
C1594 C 0.92945 0.33768 0.54016 0.0
C1595 C 0.91176 0.33451 0.56896 0.0
C1596 C 0.89346 0.33124 0.52494 0.0
H1597 H 0.88517 0.33716 0.98954 0.0
H1598 H 0.88553 0.33705 0.86405 0.0
C1599 C 0.89277 0.33094 0.45255 0.0
C1600 C 0.91252 0.33483 0.64537 0.0
H1601 H 0.912 0.31156 0.77308 0.0
C1602 C 0.9142 0.34922 0.68782 0.0
C1603 C 0.9119 0.32116 0.67624 0.0
C1604 C 0.90994 0.3054 0.63216 0.0
C1605 C 0.91538 0.35036 0.76097 0.0
C1606 C 0.91427 0.33648 0.79182 0.0
C1607 C 0.91281 0.32216 0.74925 0.0
C1608 C 0.91404 0.33635 0.86787 0.0
C1609 C 0.9182 0.36656 0.80465 0.0
C1610 C 0.92959 0.33544 0.91127 0.0
C1611 C 0.92924 0.33524 0.983 0.0
C1612 C 0.91327 0.33585 0.0122 0.0
C1613 C 0.89765 0.33663 0.96845 0.0
C1614 C 0.89795 0.33674 0.89688 0.0
H1615 H 0.92514 0.37796 0.77748 0.0
H1616 H 0.90247 0.36379 0.81329 0.0
H1617 H 0.92861 0.37032 0.857 0.0
H1618 H 0.94205 0.33498 0.88969 0.0
H1619 H 0.94138 0.3345 0.01549 0.0
H1620 H 0.41525 0.86585 0.48858 0.0
H1621 H 0.41537 0.86677 0.36355 0.0
H1622 H 0.41606 0.91507 0.39446 0.0
H1623 H 0.41519 0.91393 0.51965 0.0
H1624 H 0.38864 0.89165 0.27136 0.0
H1625 H 0.46792 0.90024 0.29078 0.0
H1626 H 0.44909 0.88101 0.32084 0.0
H1627 H 0.4574 0.90254 0.3676 0.0
C1628 C 0.41505 0.87652 0.46866 0.0
C1629 C 0.41508 0.88978 0.51399 0.0
C1630 C 0.41539 0.87714 0.39729 0.0
C1631 C 0.41615 0.89117 0.37 0.0
C1632 C 0.41561 0.90418 0.41458 0.0
H1633 H 0.4277 0.91909 0.95268 0.0
H1634 H 0.42576 0.91929 0.07788 0.0
C1635 C 0.41516 0.90353 0.48605 0.0
C1636 C 0.41785 0.89236 0.29519 0.0
H1637 H 0.44846 0.8941 0.17471 0.0
C1638 C 0.40179 0.89233 0.25029 0.0
C1639 C 0.43511 0.89335 0.26796 0.0
C1640 C 0.45347 0.89447 0.31441 0.0
C1641 C 0.40221 0.89271 0.17833 0.0
C1642 C 0.41922 0.8933 0.15094 0.0
C1643 C 0.4354 0.89357 0.19595 0.0
C1644 C 0.42028 0.89324 0.07525 0.0
C1645 C 0.38423 0.89203 0.13158 0.0
C1646 C 0.41816 0.87864 0.03276 0.0
C1647 C 0.41926 0.87848 0.96138 0.0
C1648 C 0.42274 0.89301 0.93126 0.0
C1649 C 0.42509 0.90771 0.97427 0.0
C1650 C 0.42384 0.90781 0.04565 0.0
H1651 H 0.37054 0.88855 0.15804 0.0
H1652 H 0.38995 0.90513 0.1175 0.0
H1653 H 0.37867 0.88227 0.08177 0.0
H1654 H 0.41551 0.86731 0.0548 0.0
H1655 H 0.41745 0.86696 0.92991 0.0
H1656 H 0.2714 0.51173 0.96693 0.0
H1657 H 0.27082 0.51307 0.09295 0.0
H1658 H 0.31526 0.56934 0.13305 0.0
H1659 H 0.31558 0.56819 0.00697 0.0
H1660 H 0.30374 0.52436 0.20321 0.0
H1661 H 0.26866 0.56525 0.23348 0.0
H1662 H 0.26863 0.55506 0.14824 0.0
H1663 H 0.2922 0.57508 0.19649 0.0
C1664 C 0.28103 0.52439 0.00254 0.0
C1665 C 0.29345 0.53986 0.97701 0.0
C1666 C 0.28065 0.52514 0.07445 0.0
C1667 C 0.2927 0.54134 0.12206 0.0
C1668 C 0.30542 0.55677 0.09693 0.0
H1669 H 0.31534 0.56911 0.57996 0.0
H1670 H 0.3157 0.56968 0.45405 0.0
C1671 C 0.30569 0.55606 0.02494 0.0
C1672 C 0.2925 0.54194 0.19833 0.0
H1673 H 0.28142 0.55969 0.33896 0.0
C1674 C 0.29879 0.53203 0.23285 0.0
C1675 C 0.28608 0.55201 0.23677 0.0
C1676 C 0.27832 0.56233 0.20181 0.0
C1677 C 0.29902 0.53203 0.30504 0.0
C1678 C 0.29255 0.54205 0.34337 0.0
C1679 C 0.28641 0.55207 0.30917 0.0
C1680 C 0.29167 0.54194 0.41882 0.0
C1681 C 0.30643 0.52148 0.33994 0.0
C1682 C 0.27771 0.52625 0.44007 0.0
C1683 C 0.27752 0.52589 0.51149 0.0
C1684 C 0.29117 0.54124 0.56282 0.0
C1685 C 0.30468 0.55709 0.54137 0.0
C1686 C 0.30491 0.55743 0.46972 0.0
H1687 H 0.31579 0.51822 0.308 0.0
H1688 H 0.3163 0.52876 0.3933 0.0
H1689 H 0.29239 0.50892 0.34595 0.0
H1690 H 0.26705 0.51426 0.40134 0.0
H1691 H 0.26664 0.51357 0.52646 0.0
H1692 H 0.61822 0.70897 0.62846 0.0
H1693 H 0.6189 0.7094 0.50302 0.0
H1694 H 0.56771 0.71858 0.48301 0.0
H1695 H 0.56717 0.71852 0.60848 0.0
H1696 H 0.58795 0.68882 0.38355 0.0
H1697 H 0.61239 0.75878 0.40448 0.0
H1698 H 0.61348 0.74935 0.48093 0.0
H1699 H 0.58866 0.74566 0.43747 0.0
C1700 C 0.6071 0.71109 0.59739 0.0
C1701 C 0.59281 0.71393 0.6287 0.0
C1702 C 0.60751 0.71131 0.5257 0.0
C1703 C 0.59366 0.71439 0.48401 0.0
C1704 C 0.57893 0.71666 0.5146 0.0
H1705 H 0.56719 0.71811 0.04418 0.0
H1706 H 0.56776 0.71777 0.16999 0.0
C1707 C 0.57859 0.71655 0.58632 0.0
C1708 C 0.59462 0.71522 0.40854 0.0
H1709 H 0.60211 0.7419 0.28844 0.0
C1710 C 0.59119 0.70046 0.36281 0.0
C1711 C 0.59889 0.73044 0.38164 0.0
C1712 C 0.60377 0.74702 0.42875 0.0
C1713 C 0.59143 0.70037 0.29056 0.0
C1714 C 0.59547 0.71552 0.26368 0.0
C1715 C 0.59901 0.73031 0.30936 0.0
C1716 C 0.59565 0.71615 0.18789 0.0
C1717 C 0.58687 0.68396 0.24309 0.0
C1718 C 0.61136 0.71564 0.15659 0.0
C1719 C 0.61122 0.71601 0.08471 0.0
C1720 C 0.59536 0.71693 0.04303 0.0
C1721 C 0.57979 0.71763 0.07492 0.0
C1722 C 0.58002 0.71735 0.14673 0.0
H1723 H 0.57992 0.67233 0.26901 0.0
H1724 H 0.57577 0.68094 0.19323 0.0
H1725 H 0.6019 0.68613 0.22922 0.0
H1726 H 0.62373 0.71496 0.18779 0.0
H1727 H 0.62344 0.71549 0.06168 0.0
loop_
_geom_bond_atom_site_label_1
_geom_bond_atom_site_label_2
_geom_bond_distance
_geom_bond_site_symmetry_2
_ccdc_geom_bond_type
C0 C2 1.422 . S
C0 C4 1.415 . S
C0 N6 1.369 . S
C1 C2 1.421 . S
C1 C3 1.417 . S
C1 C13 1.422 . S
C2 C0 1.422 . S
C2 C1 1.421 . S
C2 N12 1.359 . S
C3 C1 1.417 . S
C3 C5 1.329 . S
C3 H22 0.930 . S
C4 C0 1.415 . S
C4 C5 1.437 . S
C4 C8 1.413 . S
C5 C3 1.329 . S
C5 C4 1.437 . S
C5 H27 0.929 . S
N6 C0 1.369 . S
N6 C7 1.338 . S
N6 Gd11 2.622 . S
C7 N6 1.338 . S
C7 C9 1.378 . S
C7 H19 0.929 . S
C8 C4 1.413 . S
C8 C9 1.348 . S
C8 H24 0.931 . S
C9 C7 1.378 . S
C9 C8 1.348 . S
C9 H25 0.930 . S
Gd10 N30 2.622 1_454 S
Gd10 N37 2.570 1_455 S
Gd10 O44 2.353 . S
Gd10 O45 2.472 1_455 S
Gd10 O46 2.427 1_455 S
Gd10 O48 2.388 1_554 S
Gd10 O49 2.386 . S
Gd10 O53 2.307 . S
Gd10 C63 2.805 1_455 S
Gd11 N6 2.622 . S
Gd11 N12 2.570 . S
Gd11 O43 2.386 . S
Gd11 O47 2.307 . S
Gd11 O50 2.353 . S
Gd11 O51 2.468 . S
Gd11 O52 2.427 . S
Gd11 O54 2.388 . S
Gd11 C75 2.805 . S
N12 C2 1.359 . S
N12 Gd11 2.570 . S
N12 C14 1.343 . S
C13 C1 1.422 . S
C13 C15 1.321 . S
C13 H21 0.931 . S
C14 N12 1.343 . S
C14 C15 1.390 . S
C14 H16 0.931 . S
C15 C13 1.321 . S
C15 C14 1.390 . S
C15 H17 0.930 1_554 S
H16 C14 0.931 . S
H17 C15 0.930 1_556 S
H18 C41 0.931 . S
H19 C7 0.929 . S
H20 C42 0.930 . S
H21 C13 0.931 . S
H22 C3 0.930 . S
H23 C32 0.929 . S
H24 C8 0.931 . S
H25 C9 0.930 . S
H26 C64 0.930 . S
H27 C5 0.929 . S
H28 C33 0.931 . S
H29 C34 0.930 . S
N30 Gd10 2.622 1_656 S
N30 C31 1.369 1_556 S
N30 C32 1.338 . S
C31 N30 1.369 1_554 S
C31 C35 1.415 1_554 S
C31 C38 1.422 . S
C32 H23 0.929 . S
C32 N30 1.338 . S
C32 C34 1.378 . S
C33 H28 0.931 . S
C33 C34 1.348 . S
C33 C35 1.413 . S
C34 H29 0.930 . S
C34 C32 1.378 . S
C34 C33 1.348 . S
C35 C31 1.415 1_556 S
C35 C33 1.413 . S
C35 C65 1.437 . S
H36 C65 0.929 . S
N37 Gd10 2.570 1_655 S
N37 C38 1.359 . S
N37 C41 1.343 . S
C38 C31 1.422 . S
C38 N37 1.359 . S
C38 C40 1.421 . S
C39 C40 1.422 . S
C39 C42 1.321 . S
C39 H66 0.931 . S
C40 C38 1.421 . S
C40 C39 1.422 . S
C40 C64 1.417 . S
C41 H18 0.931 . S
C41 N37 1.343 . S
C41 C42 1.390 . S
C42 H20 0.930 . S
C42 C39 1.321 . S
C42 C41 1.390 . S
O43 Gd11 2.386 . S
O43 C55 1.265 . S
O44 Gd10 2.353 . S
O44 C55 1.242 . S
O45 Gd10 2.472 1_655 S
O45 C63 1.260 . S
O46 Gd10 2.427 1_655 S
O46 C63 1.252 . S
O47 Gd11 2.307 . S
O47 C56 1.261 1_554 S
O48 Gd10 2.388 1_556 S
O48 C56 1.252 . S
O49 Gd10 2.386 . S
O49 C67 1.265 . S
O50 Gd11 2.353 . S
O50 C67 1.242 . S
O51 Gd11 2.468 . S
O51 C75 1.263 . S
O52 Gd11 2.427 . S
O52 C75 1.252 . S
O53 Gd10 2.307 . S
O53 C68 1.261 . S
O54 Gd11 2.388 . S
O54 C68 1.252 . S
C55 O43 1.265 . S
C55 O44 1.242 . S
C56 O47 1.261 1_556 S
C56 O48 1.252 . S
C57 C60 1.394 . S
C57 C62 1.370 . S
C57 C63 1.500 . S
C58 C61 1.383 . S
C58 C62 1.395 . S
C59 C60 1.396 . S
C59 C61 1.365 . S
C59 H76 0.929 1_554 S
C60 C57 1.394 . S
C60 C59 1.396 . S
C60 H77 0.930 1_554 S
C61 C58 1.383 . S
C61 C59 1.365 . S
C61 H78 0.931 . S
C62 C57 1.370 . S
C62 C58 1.395 . S
C62 H79 0.930 . S
C63 Gd10 2.805 1_655 S
C63 O45 1.260 . S
C63 O46 1.252 . S
C63 C57 1.500 . S
C64 H26 0.930 . S
C64 C40 1.417 . S
C64 C65 1.329 1_554 S
C65 C35 1.437 . S
C65 H36 0.929 . S
C65 C64 1.329 1_556 S
H66 C39 0.931 . S
C67 O49 1.265 . S
C67 O50 1.242 . S
C68 O53 1.261 . S
C68 O54 1.252 . S
C69 C72 1.394 . S
C69 C74 1.370 . S
C69 C75 1.500 . S
C70 C73 1.383 . S
C70 C74 1.395 . S
C71 C72 1.396 . S
C71 C73 1.365 . S
C71 H80 0.929 . S
C72 C69 1.394 . S
C72 C71 1.396 . S
C72 H81 0.930 . S
C73 C70 1.383 . S
C73 C71 1.365 . S
C73 H82 0.931 . S
C74 C69 1.370 . S
C74 C70 1.395 . S
C74 H83 0.930 . S
C75 Gd11 2.805 . S
C75 O51 1.263 . S
C75 O52 1.252 . S
C75 C69 1.500 . S
H76 C59 0.929 1_556 S
H77 C60 0.930 1_556 S
H78 C61 0.931 . S
H79 C62 0.930 . S
H80 C71 0.929 . S
H81 C72 0.930 . S
H82 C73 0.931 . S
H83 C74 0.930 . S
C84 C86 1.422 . S
C84 C88 1.415 1_554 S
C84 N90 1.369 1_554 S
C85 C86 1.421 . S
C85 C87 1.417 . S
C85 C97 1.422 . S
C86 C84 1.422 . S
C86 C85 1.421 . S
C86 N96 1.359 . S
C87 C85 1.417 . S
C87 C89 1.329 . S
C87 H106 0.930 . S
C88 C84 1.415 1_556 S
C88 C89 1.437 1_556 S
C88 C92 1.413 . S
C89 C87 1.329 . S
C89 C88 1.437 1_554 S
C89 H111 0.929 1_554 S
N90 C84 1.369 1_556 S
N90 C91 1.338 . S
N90 Gd95 2.622 1_556 S
C91 N90 1.338 . S
C91 C93 1.378 . S
C91 H103 0.929 . S
C92 C88 1.413 . S
C92 C93 1.348 . S
C92 H108 0.931 . S
C93 C91 1.378 . S
C93 C92 1.348 . S
C93 H109 0.930 . S
Gd94 N114 2.622 . S
Gd94 N121 2.570 . S
Gd94 O128 2.353 . S
Gd94 O129 2.468 . S
Gd94 O130 2.427 . S
Gd94 O132 2.388 . S
Gd94 O133 2.386 . S
Gd94 O137 2.307 . S
Gd94 C147 2.805 . S
Gd95 N90 2.622 1_554 S
Gd95 N96 2.570 . S
Gd95 O127 2.386 . S
Gd95 O131 2.307 . S
Gd95 O134 2.353 . S
Gd95 O135 2.468 . S
Gd95 O136 2.427 . S
Gd95 O138 2.388 1_554 S
Gd95 C159 2.805 . S
N96 C86 1.359 . S
N96 Gd95 2.570 . S
N96 C98 1.343 . S
C97 C85 1.422 . S
C97 C99 1.321 . S
C97 H105 0.931 . S
C98 N96 1.343 . S
C98 C99 1.390 . S
C98 H100 0.931 . S
C99 C97 1.321 . S
C99 C98 1.390 . S
C99 H101 0.930 . S
H100 C98 0.931 . S
H101 C99 0.930 . S
H102 C125 0.938 . S
H103 C91 0.929 . S
H104 C126 0.930 . S
H105 C97 0.931 . S
H106 C87 0.930 . S
H107 C116 0.929 . S
H108 C92 0.931 . S
H109 C93 0.930 . S
H110 C148 0.930 . S
H111 C89 0.929 1_556 S
H112 C117 0.931 . S
H113 C118 0.930 . S
N114 Gd94 2.622 . S
N114 C115 1.369 . S
N114 C116 1.338 . S
C115 N114 1.369 . S
C115 C119 1.415 . S
C115 C122 1.422 . S
C116 H107 0.929 . S
C116 N114 1.338 . S
C116 C118 1.378 . S
C117 H112 0.931 . S
C117 C118 1.348 . S
C117 C119 1.413 . S
C118 H113 0.930 . S
C118 C116 1.378 . S
C118 C117 1.348 . S
C119 C115 1.415 . S
C119 C117 1.413 . S
C119 C149 1.437 . S
H120 C149 0.929 . S
N121 Gd94 2.570 . S
N121 C122 1.359 . S
N121 C125 1.332 1_554 S
C122 C115 1.422 . S
C122 N121 1.359 . S
C122 C124 1.421 . S
C123 C124 1.436 . S
C123 C126 1.313 1_554 S
C123 H150 0.926 1_554 S
C124 C122 1.421 . S
C124 C123 1.436 . S
C124 C148 1.417 . S
C125 H102 0.938 . S
C125 N121 1.332 1_556 S
C125 C126 1.394 . S
C126 H104 0.930 . S
C126 C123 1.313 1_556 S
C126 C125 1.394 . S
O127 Gd95 2.386 . S
O127 C139 1.265 . S
O128 Gd94 2.353 . S
O128 C139 1.242 . S
O129 Gd94 2.468 . S
O129 C147 1.263 . S
O130 Gd94 2.427 . S
O130 C147 1.252 . S
O131 Gd95 2.307 . S
O131 C140 1.261 . S
O132 Gd94 2.388 . S
O132 C140 1.252 . S
O133 Gd94 2.386 . S
O133 C151 1.265 . S
O134 Gd95 2.353 . S
O134 C151 1.242 . S
O135 Gd95 2.468 . S
O135 C159 1.263 . S
O136 Gd95 2.427 . S
O136 C159 1.252 . S
O137 Gd94 2.307 . S
O137 C152 1.261 1_554 S
O138 Gd95 2.388 1_556 S
O138 C152 1.252 . S
C139 O127 1.265 . S
C139 O128 1.242 . S
C140 O131 1.261 . S
C140 O132 1.252 . S
C141 C144 1.394 . S
C141 C146 1.370 . S
C141 C147 1.500 . S
C142 C145 1.383 . S
C142 C146 1.395 . S
C143 C144 1.396 . S
C143 C145 1.365 . S
C143 H160 0.929 . S
C144 C141 1.394 . S
C144 C143 1.396 . S
C144 H161 0.930 . S
C145 C142 1.383 . S
C145 C143 1.365 . S
C145 H162 0.931 . S
C146 C141 1.370 . S
C146 C142 1.395 . S
C146 H163 0.930 . S
C147 Gd94 2.805 . S
C147 O129 1.263 . S
C147 O130 1.252 . S
C147 C141 1.500 . S
C148 H110 0.930 . S
C148 C124 1.417 . S
C148 C149 1.329 . S
C149 C119 1.437 . S
C149 H120 0.929 . S
C149 C148 1.329 . S
H150 C123 0.926 1_556 S
C151 O133 1.265 . S
C151 O134 1.242 . S
C152 O137 1.261 1_556 S
C152 O138 1.252 . S
C153 C156 1.394 . S
C153 C158 1.370 . S
C153 C159 1.500 . S
C154 C157 1.383 . S
C154 C158 1.395 . S
C155 C156 1.396 . S
C155 C157 1.365 . S
C155 H164 0.929 1_554 S
C156 C153 1.394 . S
C156 C155 1.396 . S
C156 H165 0.930 1_554 S
C157 C154 1.383 . S
C157 C155 1.365 . S
C157 H166 0.931 . S
C158 C153 1.370 . S
C158 C154 1.395 . S
C158 H167 0.930 . S
C159 Gd95 2.805 . S
C159 O135 1.263 . S
C159 O136 1.252 . S
C159 C153 1.500 . S
H160 C143 0.929 . S
H161 C144 0.930 . S
H162 C145 0.931 . S
H163 C146 0.930 . S
H164 C155 0.929 1_556 S
H165 C156 0.930 1_556 S
H166 C157 0.931 . S
H167 C158 0.930 . S
C168 C170 1.422 1_554 S
C168 C172 1.415 . S
C168 N174 1.369 . S
C169 C170 1.421 . S
C169 C171 1.417 . S
C169 C181 1.422 . S
C170 C168 1.422 1_556 S
C170 C169 1.421 . S
C170 N180 1.359 . S
C171 C169 1.417 . S
C171 C173 1.329 1_556 S
C171 H190 0.930 . S
C172 C168 1.415 . S
C172 C173 1.437 . S
C172 C176 1.413 . S
C173 C171 1.329 1_554 S
C173 C172 1.437 . S
C173 H195 0.929 . S
N174 C168 1.369 . S
N174 C175 1.338 . S
N174 Gd179 2.622 . S
C175 N174 1.338 . S
C175 C177 1.378 . S
C175 H187 0.929 . S
C176 C172 1.413 . S
C176 C177 1.348 . S
C176 H192 0.931 . S
C177 C175 1.378 . S
C177 C176 1.348 . S
C177 H193 0.930 . S
Gd178 N198 2.622 . S
Gd178 N205 2.570 1_556 S
Gd178 O212 2.353 . S
Gd178 O213 2.468 1_556 S
Gd178 O214 2.427 . S
Gd178 O216 2.388 . S
Gd178 O217 2.386 . S
Gd178 O221 2.307 1_556 S
Gd178 C231 2.805 1_556 S
Gd179 N174 2.622 . S
Gd179 N180 2.570 1_554 S
Gd179 O211 2.386 . S
Gd179 O215 2.307 1_554 S
Gd179 O218 2.353 1_565 S
Gd179 O219 2.468 1_554 S
Gd179 O220 2.427 . S
Gd179 O222 2.388 1_565 S
Gd179 C243 2.805 1_554 S
N180 C170 1.359 . S
N180 Gd179 2.570 1_556 S
N180 C182 1.343 . S
C181 C169 1.422 . S
C181 C183 1.321 . S
C181 H189 0.931 . S
C182 N180 1.343 . S
C182 C183 1.390 . S
C182 H184 0.931 . S
C183 C181 1.321 . S
C183 C182 1.390 . S
C183 H185 0.930 . S
H184 C182 0.931 . S
H185 C183 0.930 . S
H186 C209 0.931 . S
H187 C175 0.929 . S
H188 C210 0.930 . S
H189 C181 0.931 . S
H190 C171 0.930 . S
H191 C200 0.929 . S
H192 C176 0.931 . S
H193 C177 0.930 . S
H194 C232 0.930 . S
H195 C173 0.929 . S
H196 C201 0.931 . S
H197 C202 0.930 . S
N198 Gd178 2.622 . S
N198 C199 1.369 . S
N198 C200 1.338 . S
C199 N198 1.369 . S
C199 C203 1.415 . S
C199 C206 1.422 1_556 S
C200 H191 0.929 . S
C200 N198 1.338 . S
C200 C202 1.378 . S
C201 H196 0.931 . S
C201 C202 1.348 . S
C201 C203 1.413 . S
C202 H197 0.930 . S
C202 C200 1.378 . S
C202 C201 1.348 . S
C203 C199 1.415 . S
C203 C201 1.413 . S
C203 C233 1.437 . S
H204 C233 0.929 . S
N205 Gd178 2.570 1_554 S
N205 C206 1.359 . S
N205 C209 1.343 . S
C206 C199 1.422 1_554 S
C206 N205 1.359 . S
C206 C208 1.421 . S
C207 C208 1.422 . S
C207 C210 1.321 . S
C207 H234 0.931 . S
C208 C206 1.421 . S
C208 C207 1.422 . S
C208 C232 1.417 . S
C209 H186 0.931 . S
C209 N205 1.343 . S
C209 C210 1.390 . S
C210 H188 0.930 . S
C210 C207 1.321 . S
C210 C209 1.390 . S
O211 Gd179 2.386 . S
O211 C223 1.265 1_554 S
O212 Gd178 2.353 . S
O212 C223 1.242 1_545 S
O213 Gd178 2.468 1_554 S
O213 C231 1.263 . S
O214 Gd178 2.427 . S
O214 C231 1.252 1_556 S
O215 Gd179 2.307 1_556 S
O215 C224 1.261 1_565 S
O216 Gd178 2.388 . S
O216 C224 1.252 . S
O217 Gd178 2.386 . S
O217 C235 1.265 1_556 S
O218 Gd179 2.353 1_545 S
O218 C235 1.242 . S
O219 Gd179 2.468 1_556 S
O219 C243 1.263 . S
O220 Gd179 2.427 . S
O220 C243 1.252 1_554 S
O221 Gd178 2.307 1_554 S
O221 C236 1.261 . S
O222 Gd179 2.388 1_545 S
O222 C236 1.252 . S
C223 O211 1.265 1_556 S
C223 O212 1.242 1_565 S
C224 O215 1.261 1_545 S
C224 O216 1.252 . S
C225 C228 1.394 1_554 S
C225 C230 1.370 . S
C225 C231 1.500 . S
C226 C229 1.383 . S
C226 C230 1.395 . S
C227 C228 1.396 . S
C227 C229 1.365 1_556 S
C227 H244 0.929 . S
C228 C225 1.394 1_556 S
C228 C227 1.396 . S
C228 H245 0.930 . S
C229 C226 1.383 . S
C229 C227 1.365 1_554 S
C229 H246 0.931 . S
C230 C225 1.370 . S
C230 C226 1.395 . S
C230 H247 0.930 . S
C231 Gd178 2.805 1_554 S
C231 O213 1.263 . S
C231 O214 1.252 1_554 S
C231 C225 1.500 . S
C232 H194 0.930 . S
C232 C208 1.417 . S
C232 C233 1.329 1_554 S
C233 C203 1.437 . S
C233 H204 0.929 . S
C233 C232 1.329 1_556 S
H234 C207 0.931 . S
C235 O217 1.265 1_554 S
C235 O218 1.242 . S
C236 O221 1.261 . S
C236 O222 1.252 . S
C237 C240 1.394 1_556 S
C237 C242 1.370 . S
C237 C243 1.500 . S
C238 C241 1.383 . S
C238 C242 1.395 . S
C239 C240 1.396 . S
C239 C241 1.365 1_554 S
C239 H248 0.929 . S
C240 C237 1.394 1_554 S
C240 C239 1.396 . S
C240 H249 0.930 . S
C241 C238 1.383 . S
C241 C239 1.365 1_556 S
C241 H250 0.931 . S
C242 C237 1.370 . S
C242 C238 1.395 . S
C242 H251 0.930 . S
C243 Gd179 2.805 1_556 S
C243 O219 1.263 . S
C243 O220 1.252 1_556 S
C243 C237 1.500 . S
H244 C227 0.929 . S
H245 C228 0.930 . S
H246 C229 0.931 . S
H247 C230 0.930 . S
H248 C239 0.929 . S
H249 C240 0.930 . S
H250 C241 0.931 . S
H251 C242 0.930 . S
C252 C254 1.422 . S
C252 C256 1.415 . S
C252 N258 1.369 . S
C253 C254 1.421 . S
C253 C255 1.417 . S
C253 C265 1.422 . S
C254 C252 1.422 . S
C254 C253 1.421 . S
C254 N264 1.359 . S
C255 C253 1.417 . S
C255 C257 1.329 . S
C255 H274 0.930 . S
C256 C252 1.415 . S
C256 C257 1.437 . S
C256 C260 1.413 1_554 S
C257 C255 1.329 . S
C257 C256 1.437 . S
C257 H279 0.929 . S
N258 C252 1.369 . S
N258 C259 1.338 1_554 S
N258 Gd263 2.622 . S
C259 N258 1.338 1_556 S
C259 C261 1.378 . S
C259 H271 0.929 . S
C260 C256 1.413 1_556 S
C260 C261 1.348 . S
C260 H276 0.931 . S
C261 C259 1.378 . S
C261 C260 1.348 . S
C261 H277 0.930 . S
Gd262 N282 2.622 . S
Gd262 N289 2.570 . S
Gd262 O296 2.353 . S
Gd262 O297 2.468 . S
Gd262 O298 2.427 . S
Gd262 O300 2.388 . S
Gd262 O301 2.386 . S
Gd262 O305 2.307 . S
Gd262 C315 2.805 . S
Gd263 N258 2.622 . S
Gd263 N264 2.570 . S
Gd263 O295 2.386 . S
Gd263 O299 2.307 . S
Gd263 O302 2.353 . S
Gd263 O303 2.468 . S
Gd263 O304 2.427 . S
Gd263 O306 2.388 . S
Gd263 C327 2.805 . S
N264 C254 1.359 . S
N264 Gd263 2.570 . S
N264 C266 1.343 . S
C265 C253 1.422 . S
C265 C267 1.321 . S
C265 H273 0.931 . S
C266 N264 1.343 . S
C266 C267 1.390 . S
C266 H268 0.931 . S
C267 C265 1.321 . S
C267 C266 1.390 . S
C267 H269 0.930 . S
H268 C266 0.931 . S
H269 C267 0.930 . S
H270 C293 0.931 . S
H271 C259 0.929 . S
H272 C294 0.930 . S
H273 C265 0.931 . S
H274 C255 0.930 . S
H275 C284 0.929 . S
H276 C260 0.931 . S
H277 C261 0.930 . S
H278 C316 0.930 . S
H279 C257 0.929 . S
H280 C285 0.931 . S
H281 C286 0.930 . S
N282 Gd262 2.622 . S
N282 C283 1.369 . S
N282 C284 1.338 . S
C283 N282 1.369 . S
C283 C287 1.415 . S
C283 C290 1.422 . S
C284 H275 0.929 . S
C284 N282 1.338 . S
C284 C286 1.378 . S
C285 H280 0.931 . S
C285 C286 1.348 . S
C285 C287 1.413 . S
C286 H281 0.930 . S
C286 C284 1.378 . S
C286 C285 1.348 . S
C287 C283 1.415 . S
C287 C285 1.413 . S
C287 C317 1.437 . S
H288 C317 0.929 . S
N289 Gd262 2.570 . S
N289 C290 1.359 . S
N289 C293 1.343 . S
C290 C283 1.422 . S
C290 N289 1.359 . S
C290 C292 1.421 . S
C291 C292 1.422 . S
C291 C294 1.321 . S
C291 H318 0.931 . S
C292 C290 1.421 . S
C292 C291 1.422 . S
C292 C316 1.417 . S
C293 H270 0.931 . S
C293 N289 1.343 . S
C293 C294 1.390 . S
C294 H272 0.930 . S
C294 C291 1.321 . S
C294 C293 1.390 . S
O295 Gd263 2.386 . S
O295 C307 1.265 . S
O296 Gd262 2.353 . S
O296 C307 1.242 . S
O297 Gd262 2.468 . S
O297 C315 1.263 . S
O298 Gd262 2.427 . S
O298 C315 1.252 . S
O299 Gd263 2.307 . S
O299 C308 1.261 . S
O300 Gd262 2.388 . S
O300 C308 1.252 . S
O301 Gd262 2.386 . S
O301 C319 1.265 . S
O302 Gd263 2.353 . S
O302 C319 1.242 . S
O303 Gd263 2.468 . S
O303 C327 1.263 . S
O304 Gd263 2.427 . S
O304 C327 1.252 . S
O305 Gd262 2.307 . S
O305 C320 1.261 . S
O306 Gd263 2.388 . S
O306 C320 1.252 . S
C307 O295 1.265 . S
C307 O296 1.242 . S
C308 O299 1.261 . S
C308 O300 1.252 . S
C309 C312 1.394 . S
C309 C314 1.370 . S
C309 C315 1.500 . S
C310 C313 1.383 . S
C310 C314 1.395 . S
C311 C312 1.396 . S
C311 C313 1.365 . S
C311 H328 0.929 . S
C312 C309 1.394 . S
C312 C311 1.396 . S
C312 H329 0.930 . S
C313 C310 1.383 . S
C313 C311 1.365 . S
C313 H330 0.931 . S
C314 C309 1.370 . S
C314 C310 1.395 . S
C314 H331 0.930 . S
C315 Gd262 2.805 . S
C315 O297 1.263 . S
C315 O298 1.252 . S
C315 C309 1.500 . S
C316 H278 0.930 . S
C316 C292 1.417 . S
C316 C317 1.329 . S
C317 C287 1.437 . S
C317 H288 0.929 . S
C317 C316 1.329 . S
H318 C291 0.931 . S
C319 O301 1.265 . S
C319 O302 1.242 . S
C320 O305 1.261 . S
C320 O306 1.252 . S
C321 C324 1.394 . S
C321 C326 1.370 . S
C321 C327 1.500 . S
C322 C325 1.383 . S
C322 C326 1.395 . S
C323 C324 1.396 . S
C323 C325 1.365 . S
C323 H332 0.929 . S
C324 C321 1.394 . S
C324 C323 1.396 . S
C324 H333 0.930 . S
C325 C322 1.383 . S
C325 C323 1.365 . S
C325 H334 0.931 . S
C326 C321 1.370 . S
C326 C322 1.395 . S
C326 H335 0.930 . S
C327 Gd263 2.805 . S
C327 O303 1.263 . S
C327 O304 1.252 . S
C327 C321 1.500 . S
H328 C311 0.929 . S
H329 C312 0.930 . S
H330 C313 0.931 . S
H331 C314 0.930 . S
H332 C323 0.929 . S
H333 C324 0.930 . S
H334 C325 0.931 . S
H335 C326 0.930 . S
C336 C338 1.422 . S
C336 C340 1.415 1_554 S
C336 N342 1.369 1_554 S
C337 C338 1.421 . S
C337 C339 1.417 . S
C337 C349 1.422 . S
C338 C336 1.422 . S
C338 C337 1.421 . S
C338 N348 1.359 . S
C339 C337 1.417 . S
C339 C341 1.329 . S
C339 H358 0.930 . S
C340 C336 1.415 1_556 S
C340 C341 1.437 1_556 S
C340 C344 1.413 . S
C341 C339 1.329 . S
C341 C340 1.437 1_554 S
C341 H363 0.929 1_554 S
N342 C336 1.369 1_556 S
N342 C343 1.338 . S
N342 Gd347 2.622 1_556 S
C343 N342 1.338 . S
C343 C345 1.378 . S
C343 H355 0.929 . S
C344 C340 1.413 . S
C344 C345 1.348 . S
C344 H360 0.931 . S
C345 C343 1.378 . S
C345 C344 1.348 . S
C345 H361 0.930 . S
Gd346 N366 2.622 . S
Gd346 N373 2.570 . S
Gd346 O380 2.353 . S
Gd346 O381 2.468 . S
Gd346 O382 2.427 . S
Gd346 O384 2.388 . S
Gd346 O385 2.386 . S
Gd346 O389 2.307 . S
Gd346 C399 2.805 . S
Gd347 N342 2.622 1_554 S
Gd347 N348 2.570 . S
Gd347 O379 2.386 . S
Gd347 O383 2.307 . S
Gd347 O386 2.353 . S
Gd347 O387 2.468 . S
Gd347 O388 2.427 . S
Gd347 O390 2.388 1_554 S
Gd347 C411 2.805 . S
N348 C338 1.359 . S
N348 Gd347 2.570 . S
N348 C350 1.343 . S
C349 C337 1.422 . S
C349 C351 1.321 . S
C349 H357 0.931 . S
C350 N348 1.343 . S
C350 C351 1.390 . S
C350 H352 0.931 . S
C351 C349 1.321 . S
C351 C350 1.390 . S
C351 H353 0.930 . S
H352 C350 0.931 . S
H353 C351 0.930 . S
H354 C377 0.931 . S
H355 C343 0.929 . S
H356 C378 0.930 . S
H357 C349 0.931 . S
H358 C339 0.930 . S
H359 C368 0.929 . S
H360 C344 0.931 . S
H361 C345 0.930 . S
H362 C400 0.930 . S
H363 C341 0.929 1_556 S
H364 C369 0.931 . S
H365 C370 0.930 . S
N366 Gd346 2.622 . S
N366 C367 1.369 . S
N366 C368 1.338 . S
C367 N366 1.369 . S
C367 C371 1.415 . S
C367 C374 1.422 . S
C368 H359 0.929 . S
C368 N366 1.338 . S
C368 C370 1.378 . S
C369 H364 0.931 . S
C369 C370 1.348 . S
C369 C371 1.413 . S
C370 H365 0.930 . S
C370 C368 1.378 . S
C370 C369 1.348 . S
C371 C367 1.415 . S
C371 C369 1.413 . S
C371 C401 1.437 . S
H372 C401 0.929 . S
N373 Gd346 2.570 . S
N373 C374 1.359 . S
N373 C377 1.343 1_554 S
C374 C367 1.422 . S
C374 N373 1.359 . S
C374 C376 1.421 . S
C375 C376 1.422 1_556 S
C375 C378 1.321 . S
C375 H402 0.931 . S
C376 C374 1.421 . S
C376 C375 1.422 1_554 S
C376 C400 1.417 . S
C377 H354 0.931 . S
C377 N373 1.343 1_556 S
C377 C378 1.390 . S
C378 H356 0.930 . S
C378 C375 1.321 . S
C378 C377 1.390 . S
O379 Gd347 2.386 . S
O379 C391 1.265 . S
O380 Gd346 2.353 . S
O380 C391 1.242 . S
O381 Gd346 2.468 . S
O381 C399 1.263 . S
O382 Gd346 2.427 . S
O382 C399 1.252 . S
O383 Gd347 2.307 . S
O383 C392 1.261 . S
O384 Gd346 2.388 . S
O384 C392 1.252 . S
O385 Gd346 2.386 . S
O385 C403 1.265 . S
O386 Gd347 2.353 . S
O386 C403 1.242 . S
O387 Gd347 2.468 . S
O387 C411 1.263 . S
O388 Gd347 2.427 . S
O388 C411 1.252 . S
O389 Gd346 2.307 . S
O389 C404 1.261 1_554 S
O390 Gd347 2.388 1_556 S
O390 C404 1.252 . S
C391 O379 1.265 . S
C391 O380 1.242 . S
C392 O383 1.261 . S
C392 O384 1.252 . S
C393 C396 1.394 . S
C393 C398 1.370 . S
C393 C399 1.500 . S
C394 C397 1.383 . S
C394 C398 1.395 . S
C395 C396 1.396 . S
C395 C397 1.365 . S
C395 H412 0.929 . S
C396 C393 1.394 . S
C396 C395 1.396 . S
C396 H413 0.930 . S
C397 C394 1.383 . S
C397 C395 1.365 . S
C397 H414 0.931 . S
C398 C393 1.370 . S
C398 C394 1.395 . S
C398 H415 0.930 1_554 S
C399 Gd346 2.805 . S
C399 O381 1.263 . S
C399 O382 1.252 . S
C399 C393 1.500 . S
C400 H362 0.930 . S
C400 C376 1.417 . S
C400 C401 1.329 . S
C401 C371 1.437 . S
C401 H372 0.929 . S
C401 C400 1.329 . S
H402 C375 0.931 . S
C403 O385 1.265 . S
C403 O386 1.242 . S
C404 O389 1.261 1_556 S
C404 O390 1.252 . S
C405 C408 1.394 . S
C405 C410 1.370 . S
C405 C411 1.500 . S
C406 C409 1.383 . S
C406 C410 1.395 . S
C407 C408 1.396 . S
C407 C409 1.365 . S
C407 H416 0.920 1_554 S
C408 C405 1.394 . S
C408 C407 1.396 . S
C408 H417 0.930 1_554 S
C409 C406 1.383 . S
C409 C407 1.365 . S
C409 H418 0.931 . S
C410 C405 1.370 . S
C410 C406 1.395 . S
C410 H419 0.930 . S
C411 Gd347 2.805 . S
C411 O387 1.263 . S
C411 O388 1.252 . S
C411 C405 1.500 . S
H412 C395 0.929 . S
H413 C396 0.930 . S
H414 C397 0.931 . S
H415 C398 0.930 1_556 S
H416 C407 0.920 1_556 S
H417 C408 0.930 1_556 S
H418 C409 0.931 . S
H419 C410 0.930 . S
C420 C422 1.422 . S
C420 C424 1.415 . S
C420 N426 1.369 . S
C421 C422 1.421 . S
C421 C423 1.417 . S
C421 C433 1.422 . S
C422 C420 1.422 . S
C422 C421 1.421 . S
C422 N432 1.359 . S
C423 C421 1.417 . S
C423 C425 1.329 . S
C423 H442 0.930 . S
C424 C420 1.415 . S
C424 C425 1.437 . S
C424 C428 1.413 . S
C425 C423 1.329 . S
C425 C424 1.437 . S
C425 H447 0.929 . S
N426 C420 1.369 . S
N426 C427 1.338 . S
N426 Gd431 2.622 . S
C427 N426 1.338 . S
C427 C429 1.378 . S
C427 H439 0.929 . S
C428 C424 1.413 . S
C428 C429 1.348 . S
C428 H444 0.931 . S
C429 C427 1.378 . S
C429 C428 1.348 . S
C429 H445 0.930 1_554 S
Gd430 N450 2.622 . S
Gd430 N457 2.570 . S
Gd430 O464 2.353 . S
Gd430 O465 2.468 . S
Gd430 O466 2.427 . S
Gd430 O468 2.388 . S
Gd430 O469 2.386 . S
Gd430 O473 2.307 . S
Gd430 C483 2.805 . S
Gd431 N426 2.622 . S
Gd431 N432 2.570 . S
Gd431 O463 2.386 . S
Gd431 O467 2.307 . S
Gd431 O470 2.353 . S
Gd431 O471 2.468 . S
Gd431 O472 2.427 . S
Gd431 O474 2.388 . S
Gd431 C495 2.805 . S
N432 C422 1.359 . S
N432 Gd431 2.570 . S
N432 C434 1.343 . S
C433 C421 1.422 . S
C433 C435 1.321 . S
C433 H441 0.931 . S
C434 N432 1.343 . S
C434 C435 1.390 . S
C434 H436 0.931 . S
C435 C433 1.321 . S
C435 C434 1.390 . S
C435 H437 0.930 . S
H436 C434 0.931 . S
H437 C435 0.930 . S
H438 C461 0.931 . S
H439 C427 0.929 . S
H440 C462 0.930 1_556 S
H441 C433 0.931 . S
H442 C423 0.930 . S
H443 C452 0.929 . S
H444 C428 0.931 . S
H445 C429 0.930 1_556 S
H446 C484 0.930 . S
H447 C425 0.929 . S
H448 C453 0.931 . S
H449 C454 0.930 . S
N450 Gd430 2.622 . S
N450 C451 1.369 . S
N450 C452 1.338 . S
C451 N450 1.369 . S
C451 C455 1.415 . S
C451 C458 1.422 . S
C452 H443 0.929 . S
C452 N450 1.338 . S
C452 C454 1.378 . S
C453 H448 0.931 . S
C453 C454 1.348 . S
C453 C455 1.413 . S
C454 H449 0.930 . S
C454 C452 1.378 . S
C454 C453 1.348 . S
C455 C451 1.415 . S
C455 C453 1.413 . S
C455 C485 1.437 . S
H456 C485 0.929 . S
N457 Gd430 2.570 . S
N457 C458 1.359 . S
N457 C461 1.343 . S
C458 C451 1.422 . S
C458 N457 1.359 . S
C458 C460 1.421 . S
C459 C460 1.422 . S
C459 C462 1.321 . S
C459 H486 0.931 . S
C460 C458 1.421 . S
C460 C459 1.422 . S
C460 C484 1.417 . S
C461 H438 0.931 . S
C461 N457 1.343 . S
C461 C462 1.390 . S
C462 H440 0.930 1_554 S
C462 C459 1.321 . S
C462 C461 1.390 . S
O463 Gd431 2.386 . S
O463 C475 1.265 . S
O464 Gd430 2.353 . S
O464 C475 1.242 . S
O465 Gd430 2.468 . S
O465 C483 1.263 . S
O466 Gd430 2.427 . S
O466 C483 1.252 . S
O467 Gd431 2.307 . S
O467 C476 1.261 . S
O468 Gd430 2.388 . S
O468 C476 1.252 . S
O469 Gd430 2.386 . S
O469 C487 1.265 . S
O470 Gd431 2.353 . S
O470 C487 1.242 . S
O471 Gd431 2.468 . S
O471 C495 1.263 . S
O472 Gd431 2.427 . S
O472 C495 1.252 . S
O473 Gd430 2.307 . S
O473 C488 1.261 . S
O474 Gd431 2.388 . S
O474 C488 1.252 . S
C475 O463 1.265 . S
C475 O464 1.242 . S
C476 O467 1.261 . S
C476 O468 1.252 . S
C477 C480 1.394 . S
C477 C482 1.370 . S
C477 C483 1.500 . S
C478 C481 1.383 . S
C478 C482 1.395 . S
C479 C480 1.396 . S
C479 C481 1.365 . S
C479 H496 0.929 . S
C480 C477 1.394 . S
C480 C479 1.396 . S
C480 H497 0.930 . S
C481 C478 1.383 . S
C481 C479 1.365 . S
C481 H498 0.931 . S
C482 C477 1.370 . S
C482 C478 1.395 . S
C482 H499 0.930 . S
C483 Gd430 2.805 . S
C483 O465 1.263 . S
C483 O466 1.252 . S
C483 C477 1.500 . S
C484 H446 0.930 . S
C484 C460 1.417 . S
C484 C485 1.329 . S
C485 C455 1.437 . S
C485 H456 0.929 . S
C485 C484 1.329 . S
H486 C459 0.931 . S
C487 O469 1.265 . S
C487 O470 1.242 . S
C488 O473 1.261 . S
C488 O474 1.252 . S
C489 C492 1.394 1_655 S
C489 C494 1.370 . S
C489 C495 1.500 . S
C490 C493 1.383 . S
C490 C494 1.395 1_455 S
C491 C492 1.396 . S
C491 C493 1.365 . S
C491 H500 0.929 . S
C492 C489 1.394 1_455 S
C492 C491 1.396 . S
C492 H501 0.930 1_455 S
C493 C490 1.383 . S
C493 C491 1.365 . S
C493 H502 0.931 . S
C494 C489 1.370 . S
C494 C490 1.395 1_655 S
C494 H503 0.930 . S
C495 Gd431 2.805 . S
C495 O471 1.263 . S
C495 O472 1.252 . S
C495 C489 1.500 . S
H496 C479 0.929 . S
H497 C480 0.930 . S
H498 C481 0.931 . S
H499 C482 0.930 . S
H500 C491 0.929 . S
H501 C492 0.930 1_655 S
H502 C493 0.931 . S
H503 C494 0.930 . S
C504 C506 1.422 . S
C504 C508 1.415 . S
C504 N510 1.369 . S
C505 C506 1.421 . S
C505 C507 1.417 . S
C505 C517 1.422 . S
C506 C504 1.422 . S
C506 C505 1.421 . S
C506 N516 1.359 . S
C507 C505 1.417 . S
C507 C509 1.329 . S
C507 H526 0.930 . S
C508 C504 1.415 . S
C508 C509 1.437 . S
C508 C512 1.413 . S
C509 C507 1.329 . S
C509 C508 1.437 . S
C509 H531 0.929 . S
N510 C504 1.369 . S
N510 C511 1.338 . S
N510 Gd515 2.622 . S
C511 N510 1.338 . S
C511 C513 1.378 . S
C511 H523 0.929 . S
C512 C508 1.413 . S
C512 C513 1.348 . S
C512 H528 0.931 . S
C513 C511 1.378 . S
C513 C512 1.348 . S
C513 H529 0.930 1_556 S
Gd514 N534 2.622 . S
Gd514 N541 2.570 . S
Gd514 O548 2.353 . S
Gd514 O549 2.468 . S
Gd514 O550 2.427 . S
Gd514 O552 2.388 . S
Gd514 O553 2.386 . S
Gd514 O557 2.307 . S
Gd514 C567 2.805 . S
Gd515 N510 2.622 . S
Gd515 N516 2.570 . S
Gd515 O547 2.386 . S
Gd515 O551 2.307 . S
Gd515 O554 2.353 . S
Gd515 O555 2.468 . S
Gd515 O556 2.427 . S
Gd515 O558 2.388 . S
Gd515 C579 2.805 . S
N516 C506 1.359 . S
N516 Gd515 2.570 . S
N516 C518 1.343 . S
C517 C505 1.422 . S
C517 C519 1.321 . S
C517 H525 0.931 . S
C518 N516 1.343 . S
C518 C519 1.390 . S
C518 H520 0.931 . S
C519 C517 1.321 . S
C519 C518 1.390 . S
C519 H521 0.930 . S
H520 C518 0.931 . S
H521 C519 0.930 . S
H522 C545 0.931 . S
H523 C511 0.929 . S
H524 C546 0.930 . S
H525 C517 0.931 . S
H526 C507 0.930 . S
H527 C536 0.929 . S
H528 C512 0.931 . S
H529 C513 0.930 1_554 S
H530 C568 0.930 . S
H531 C509 0.929 . S
H532 C537 0.931 . S
H533 C538 0.930 . S
N534 Gd514 2.622 . S
N534 C535 1.369 . S
N534 C536 1.338 . S
C535 N534 1.369 . S
C535 C539 1.415 . S
C535 C542 1.422 . S
C536 H527 0.929 . S
C536 N534 1.338 . S
C536 C538 1.378 . S
C537 H532 0.931 . S
C537 C538 1.348 . S
C537 C539 1.413 . S
C538 H533 0.930 . S
C538 C536 1.378 . S
C538 C537 1.348 . S
C539 C535 1.415 . S
C539 C537 1.413 . S
C539 C569 1.437 . S
H540 C569 0.929 . S
N541 Gd514 2.570 . S
N541 C542 1.359 . S
N541 C545 1.343 . S
C542 C535 1.422 . S
C542 N541 1.359 . S
C542 C544 1.421 . S
C543 C544 1.422 . S
C543 C546 1.321 . S
C543 H570 0.931 . S
C544 C542 1.421 . S
C544 C543 1.422 . S
C544 C568 1.417 . S
C545 H522 0.931 . S
C545 N541 1.343 . S
C545 C546 1.390 . S
C546 H524 0.930 . S
C546 C543 1.321 . S
C546 C545 1.390 . S
O547 Gd515 2.386 . S
O547 C559 1.265 . S
O548 Gd514 2.353 . S
O548 C559 1.242 . S
O549 Gd514 2.468 . S
O549 C567 1.263 . S
O550 Gd514 2.427 . S
O550 C567 1.252 . S
O551 Gd515 2.307 . S
O551 C560 1.261 . S
O552 Gd514 2.388 . S
O552 C560 1.252 . S
O553 Gd514 2.386 . S
O553 C571 1.265 . S
O554 Gd515 2.353 . S
O554 C571 1.242 . S
O555 Gd515 2.468 . S
O555 C579 1.263 . S
O556 Gd515 2.427 . S
O556 C579 1.252 . S
O557 Gd514 2.307 . S
O557 C572 1.261 . S
O558 Gd515 2.388 . S
O558 C572 1.252 . S
C559 O547 1.265 . S
C559 O548 1.242 . S
C560 O551 1.261 . S
C560 O552 1.252 . S
C561 C564 1.394 . S
C561 C566 1.370 . S
C561 C567 1.500 . S
C562 C565 1.383 . S
C562 C566 1.395 . S
C563 C564 1.396 . S
C563 C565 1.365 . S
C563 H580 0.929 . S
C564 C561 1.394 . S
C564 C563 1.396 . S
C564 H581 0.930 . S
C565 C562 1.383 . S
C565 C563 1.365 . S
C565 H582 0.931 . S
C566 C561 1.370 . S
C566 C562 1.395 . S
C566 H583 0.930 . S
C567 Gd514 2.805 . S
C567 O549 1.263 . S
C567 O550 1.252 . S
C567 C561 1.500 . S
C568 H530 0.930 . S
C568 C544 1.417 . S
C568 C569 1.329 . S
C569 C539 1.437 . S
C569 H540 0.929 . S
C569 C568 1.329 . S
H570 C543 0.931 . S
C571 O553 1.265 . S
C571 O554 1.242 . S
C572 O557 1.261 . S
C572 O558 1.252 . S
C573 C576 1.394 . S
C573 C578 1.370 . S
C573 C579 1.500 . S
C574 C577 1.383 . S
C574 C578 1.395 . S
C575 C576 1.396 . S
C575 C577 1.365 . S
C575 H584 0.929 . S
C576 C573 1.394 . S
C576 C575 1.396 . S
C576 H585 0.930 . S
C577 C574 1.383 . S
C577 C575 1.365 . S
C577 H586 0.931 . S
C578 C573 1.370 . S
C578 C574 1.395 . S
C578 H587 0.930 . S
C579 Gd515 2.805 . S
C579 O555 1.263 . S
C579 O556 1.252 . S
C579 C573 1.500 . S
H580 C563 0.929 . S
H581 C564 0.930 . S
H582 C565 0.931 . S
H583 C566 0.930 . S
H584 C575 0.929 . S
H585 C576 0.930 . S
H586 C577 0.931 . S
H587 C578 0.930 . S
C588 C590 1.422 . S
C588 C592 1.415 . S
C588 N594 1.369 . S
C589 C590 1.421 . S
C589 C591 1.417 . S
C589 C601 1.422 . S
C590 C588 1.422 . S
C590 C589 1.421 . S
C590 N600 1.359 . S
C591 C589 1.417 . S
C591 C593 1.329 . S
C591 H610 0.930 . S
C592 C588 1.415 . S
C592 C593 1.437 . S
C592 C596 1.413 . S
C593 C591 1.329 . S
C593 C592 1.437 . S
C593 H615 0.929 . S
N594 C588 1.369 . S
N594 C595 1.338 . S
N594 Gd599 2.622 . S
C595 N594 1.338 . S
C595 C597 1.378 . S
C595 H607 0.929 . S
C596 C592 1.413 . S
C596 C597 1.348 . S
C596 H612 0.931 . S
C597 C595 1.378 . S
C597 C596 1.348 . S
C597 H613 0.930 . S
Gd598 N618 2.622 . S
Gd598 N625 2.570 . S
Gd598 O632 2.353 . S
Gd598 O633 2.468 . S
Gd598 O634 2.427 . S
Gd598 O636 2.388 . S
Gd598 O637 2.386 . S
Gd598 O641 2.307 . S
Gd598 C651 2.805 . S
Gd599 N594 2.622 . S
Gd599 N600 2.570 . S
Gd599 O631 2.386 . S
Gd599 O635 2.307 . S
Gd599 O638 2.353 . S
Gd599 O639 2.468 . S
Gd599 O640 2.427 . S
Gd599 O642 2.388 . S
Gd599 C663 2.805 . S
N600 C590 1.359 . S
N600 Gd599 2.570 . S
N600 C602 1.343 . S
C601 C589 1.422 . S
C601 C603 1.321 . S
C601 H609 0.931 . S
C602 N600 1.343 . S
C602 C603 1.390 . S
C602 H604 0.931 . S
C603 C601 1.321 . S
C603 C602 1.390 . S
C603 H605 0.930 1_556 S
H604 C602 0.931 . S
H605 C603 0.930 1_554 S
H606 C629 0.931 . S
H607 C595 0.929 . S
H608 C630 0.930 . S
H609 C601 0.931 . S
H610 C591 0.930 . S
H611 C620 0.929 . S
H612 C596 0.931 . S
H613 C597 0.930 . S
H614 C652 0.930 . S
H615 C593 0.929 . S
H616 C621 0.931 . S
H617 C622 0.930 . S
N618 Gd598 2.622 . S
N618 C619 1.369 . S
N618 C620 1.338 . S
C619 N618 1.369 . S
C619 C623 1.415 . S
C619 C626 1.422 . S
C620 H611 0.929 . S
C620 N618 1.338 . S
C620 C622 1.378 1_556 S
C621 H616 0.931 . S
C621 C622 1.348 1_556 S
C621 C623 1.413 . S
C622 H617 0.930 . S
C622 C620 1.378 1_554 S
C622 C621 1.348 1_554 S
C623 C619 1.415 . S
C623 C621 1.413 . S
C623 C653 1.437 . S
H624 C653 0.929 . S
N625 Gd598 2.570 . S
N625 C626 1.359 . S
N625 C629 1.343 . S
C626 C619 1.422 . S
C626 N625 1.359 . S
C626 C628 1.421 . S
C627 C628 1.422 . S
C627 C630 1.321 . S
C627 H654 0.931 . S
C628 C626 1.421 . S
C628 C627 1.422 . S
C628 C652 1.417 . S
C629 H606 0.931 . S
C629 N625 1.343 . S
C629 C630 1.390 . S
C630 H608 0.930 . S
C630 C627 1.321 . S
C630 C629 1.390 . S
O631 Gd599 2.386 . S
O631 C643 1.265 . S
O632 Gd598 2.353 . S
O632 C643 1.242 . S
O633 Gd598 2.468 . S
O633 C651 1.263 . S
O634 Gd598 2.427 . S
O634 C651 1.252 . S
O635 Gd599 2.307 . S
O635 C644 1.261 . S
O636 Gd598 2.388 . S
O636 C644 1.252 . S
O637 Gd598 2.386 . S
O637 C655 1.265 . S
O638 Gd599 2.353 . S
O638 C655 1.242 . S
O639 Gd599 2.468 . S
O639 C663 1.263 . S
O640 Gd599 2.427 . S
O640 C663 1.252 . S
O641 Gd598 2.307 . S
O641 C656 1.261 . S
O642 Gd599 2.388 . S
O642 C656 1.252 . S
C643 O631 1.265 . S
C643 O632 1.242 . S
C644 O635 1.261 . S
C644 O636 1.252 . S
C645 C648 1.394 . S
C645 C650 1.370 . S
C645 C651 1.500 . S
C646 C649 1.383 . S
C646 C650 1.395 . S
C647 C648 1.396 . S
C647 C649 1.365 . S
C647 H664 0.929 . S
C648 C645 1.394 . S
C648 C647 1.396 . S
C648 H665 0.930 . S
C649 C646 1.383 . S
C649 C647 1.365 . S
C649 H666 0.931 . S
C650 C645 1.370 . S
C650 C646 1.395 . S
C650 H667 0.930 . S
C651 Gd598 2.805 . S
C651 O633 1.263 . S
C651 O634 1.252 . S
C651 C645 1.500 . S
C652 H614 0.930 . S
C652 C628 1.417 . S
C652 C653 1.329 . S
C653 C623 1.437 . S
C653 H624 0.929 . S
C653 C652 1.329 . S
H654 C627 0.931 . S
C655 O637 1.265 . S
C655 O638 1.242 . S
C656 O641 1.261 . S
C656 O642 1.252 . S
C657 C660 1.394 . S
C657 C662 1.370 . S
C657 C663 1.500 . S
C658 C661 1.383 . S
C658 C662 1.395 . S
C659 C660 1.396 . S
C659 C661 1.365 . S
C659 H668 0.929 . S
C660 C657 1.394 . S
C660 C659 1.396 . S
C660 H669 0.930 . S
C661 C658 1.383 . S
C661 C659 1.365 . S
C661 H670 0.931 . S
C662 C657 1.370 . S
C662 C658 1.395 . S
C662 H671 0.930 . S
C663 Gd599 2.805 . S
C663 O639 1.263 . S
C663 O640 1.252 . S
C663 C657 1.500 . S
H664 C647 0.929 . S
H665 C648 0.930 . S
H666 C649 0.931 . S
H667 C650 0.930 . S
H668 C659 0.929 . S
H669 C660 0.930 . S
H670 C661 0.931 . S
H671 C662 0.930 . S
C672 C674 1.422 . S
C672 C676 1.415 . S
C672 N678 1.369 . S
C673 C674 1.421 . S
C673 C675 1.417 . S
C673 C685 1.422 . S
C674 C672 1.422 . S
C674 C673 1.421 . S
C674 N684 1.359 . S
C675 C673 1.417 . S
C675 C677 1.329 . S
C675 H694 0.930 . S
C676 C672 1.415 . S
C676 C677 1.437 . S
C676 C680 1.413 . S
C677 C675 1.329 . S
C677 C676 1.437 . S
C677 H699 0.929 . S
N678 C672 1.369 . S
N678 C679 1.338 . S
N678 Gd683 2.622 . S
C679 N678 1.338 . S
C679 C681 1.378 . S
C679 H691 0.929 . S
C680 C676 1.413 . S
C680 C681 1.348 . S
C680 H696 0.931 . S
C681 C679 1.378 . S
C681 C680 1.348 . S
C681 H697 0.930 1_556 S
Gd682 N702 2.622 . S
Gd682 N709 2.570 . S
Gd682 O716 2.353 . S
Gd682 O717 2.468 . S
Gd682 O718 2.427 . S
Gd682 O720 2.388 . S
Gd682 O721 2.386 . S
Gd682 O725 2.307 . S
Gd682 C735 2.805 . S
Gd683 N678 2.622 . S
Gd683 N684 2.570 . S
Gd683 O715 2.386 . S
Gd683 O719 2.307 . S
Gd683 O722 2.353 . S
Gd683 O723 2.468 . S
Gd683 O724 2.427 . S
Gd683 O726 2.388 . S
Gd683 C747 2.805 . S
N684 C674 1.359 . S
N684 Gd683 2.570 . S
N684 C686 1.343 . S
C685 C673 1.422 . S
C685 C687 1.321 . S
C685 H693 0.931 . S
C686 N684 1.343 . S
C686 C687 1.390 . S
C686 H688 0.931 . S
C687 C685 1.321 . S
C687 C686 1.390 . S
C687 H689 0.930 . S
H688 C686 0.931 . S
H689 C687 0.930 . S
H690 C713 0.931 . S
H691 C679 0.929 . S
H692 C714 0.930 1_554 S
H693 C685 0.931 . S
H694 C675 0.930 . S
H695 C704 0.929 . S
H696 C680 0.931 . S
H697 C681 0.930 1_554 S
H698 C736 0.930 . S
H699 C677 0.929 . S
H700 C705 0.931 . S
H701 C706 0.930 . S
N702 Gd682 2.622 . S
N702 C703 1.369 . S
N702 C704 1.338 . S
C703 N702 1.369 . S
C703 C707 1.415 . S
C703 C710 1.422 . S
C704 H695 0.929 . S
C704 N702 1.338 . S
C704 C706 1.378 . S
C705 H700 0.931 . S
C705 C706 1.348 . S
C705 C707 1.413 . S
C706 H701 0.930 . S
C706 C704 1.378 . S
C706 C705 1.348 . S
C707 C703 1.415 . S
C707 C705 1.413 . S
C707 C737 1.437 . S
H708 C737 0.929 . S
N709 Gd682 2.570 . S
N709 C710 1.359 . S
N709 C713 1.343 . S
C710 C703 1.422 . S
C710 N709 1.359 . S
C710 C712 1.421 . S
C711 C712 1.422 . S
C711 C714 1.321 . S
C711 H738 0.931 . S
C712 C710 1.421 . S
C712 C711 1.422 . S
C712 C736 1.417 . S
C713 H690 0.931 . S
C713 N709 1.343 . S
C713 C714 1.390 . S
C714 H692 0.930 1_556 S
C714 C711 1.321 . S
C714 C713 1.390 . S
O715 Gd683 2.386 . S
O715 C727 1.265 . S
O716 Gd682 2.353 . S
O716 C727 1.242 . S
O717 Gd682 2.468 . S
O717 C735 1.263 . S
O718 Gd682 2.427 . S
O718 C735 1.252 . S
O719 Gd683 2.307 . S
O719 C728 1.261 . S
O720 Gd682 2.388 . S
O720 C728 1.252 . S
O721 Gd682 2.386 . S
O721 C739 1.265 . S
O722 Gd683 2.353 . S
O722 C739 1.242 . S
O723 Gd683 2.468 . S
O723 C747 1.263 . S
O724 Gd683 2.427 . S
O724 C747 1.252 . S
O725 Gd682 2.307 . S
O725 C740 1.261 . S
O726 Gd683 2.388 . S
O726 C740 1.252 . S
C727 O715 1.265 . S
C727 O716 1.242 . S
C728 O719 1.261 . S
C728 O720 1.252 . S
C729 C732 1.394 . S
C729 C734 1.370 . S
C729 C735 1.500 . S
C730 C733 1.383 . S
C730 C734 1.395 . S
C731 C732 1.396 . S
C731 C733 1.365 . S
C731 H748 0.929 . S
C732 C729 1.394 . S
C732 C731 1.396 . S
C732 H749 0.930 . S
C733 C730 1.383 . S
C733 C731 1.365 . S
C733 H750 0.931 . S
C734 C729 1.370 . S
C734 C730 1.395 . S
C734 H751 0.930 . S
C735 Gd682 2.805 . S
C735 O717 1.263 . S
C735 O718 1.252 . S
C735 C729 1.500 . S
C736 H698 0.930 . S
C736 C712 1.417 . S
C736 C737 1.329 . S
C737 C707 1.437 . S
C737 H708 0.929 . S
C737 C736 1.329 . S
H738 C711 0.931 . S
C739 O721 1.265 . S
C739 O722 1.242 . S
C740 O725 1.261 . S
C740 O726 1.252 . S
C741 C744 1.394 . S
C741 C746 1.370 . S
C741 C747 1.500 . S
C742 C745 1.383 . S
C742 C746 1.395 . S
C743 C744 1.396 . S
C743 C745 1.365 . S
C743 H752 0.929 . S
C744 C741 1.394 . S
C744 C743 1.396 . S
C744 H753 0.930 . S
C745 C742 1.383 . S
C745 C743 1.365 . S
C745 H754 0.931 . S
C746 C741 1.370 . S
C746 C742 1.395 . S
C746 H755 0.930 . S
C747 Gd683 2.805 . S
C747 O723 1.263 . S
C747 O724 1.252 . S
C747 C741 1.500 . S
H748 C731 0.929 . S
H749 C732 0.930 . S
H750 C733 0.931 . S
H751 C734 0.930 . S
H752 C743 0.929 . S
H753 C744 0.930 . S
H754 C745 0.931 . S
H755 C746 0.930 . S
H756 C764 0.929 . S
H757 C766 0.930 . S
H758 C768 0.930 . S
H759 C771 0.929 . S
H760 C774 0.930 . S
H761 C776 0.960 . S
H762 C776 0.960 . S
H763 C776 0.960 . S
C764 H756 0.929 . S
C764 C765 1.377 1_556 S
C764 C766 1.384 . S
C765 C764 1.377 1_554 S
C765 C771 1.390 . S
C766 H757 0.930 . S
C766 C764 1.384 . S
C766 C767 1.372 1_556 S
C767 C766 1.372 1_554 S
C767 C768 1.400 . S
C767 C772 1.490 1_554 S
C768 H758 0.930 . S
C768 C767 1.400 . S
C768 C771 1.386 . S
H769 C785 0.930 1_554 S
H770 C786 0.931 1_554 S
C771 H759 0.929 . S
C771 C765 1.390 . S
C771 C768 1.386 . S
C772 C767 1.490 1_556 S
C772 C774 1.395 . S
C772 C775 1.403 1_556 S
H773 C779 0.930 1_554 S
C774 H760 0.930 . S
C774 C772 1.395 . S
C774 C777 1.403 . S
C775 C772 1.403 1_554 S
C775 C776 1.524 . S
C775 C779 1.400 1_554 S
C776 H761 0.960 . S
C776 H762 0.960 . S
C776 H763 0.960 . S
C776 C775 1.524 . S
C777 C774 1.403 . S
C777 C778 1.392 . S
C777 C781 1.495 . S
C778 C777 1.392 . S
C778 C779 1.385 . S
C778 C780 1.478 . S
C779 H773 0.930 1_556 S
C779 C775 1.400 1_556 S
C779 C778 1.385 . S
C780 C778 1.478 . S
C780 C782 1.381 . S
C780 C786 1.383 . S
C781 C777 1.495 . S
C781 H787 0.959 . S
C781 H788 0.961 . S
C781 H789 0.960 . S
C782 C780 1.381 . S
C782 C783 1.394 . S
C782 H790 0.930 . S
C783 C782 1.394 . S
C783 C784 1.383 . S
C783 H791 0.929 . S
C784 C783 1.383 . S
C784 C785 1.377 . S
C785 H769 0.930 1_556 S
C785 C784 1.377 . S
C785 C786 1.379 . S
C786 H770 0.931 1_556 S
C786 C780 1.383 . S
C786 C785 1.379 . S
H787 C781 0.959 . S
H788 C781 0.961 . S
H789 C781 0.960 . S
H790 C782 0.930 . S
H791 C783 0.929 . S
H792 C800 0.929 . S
H793 C802 0.930 . S
H794 C804 0.930 . S
H795 C807 0.929 . S
H796 C810 0.928 1_554 S
H797 C812 0.960 . S
H798 C812 0.960 1_554 S
H799 C812 0.960 . S
C800 H792 0.929 . S
C800 C801 1.377 . S
C800 C802 1.384 . S
C801 C800 1.377 . S
C801 C807 1.390 1_554 S
C802 H793 0.930 . S
C802 C800 1.384 . S
C802 C803 1.372 . S
C803 C802 1.372 . S
C803 C804 1.400 1_554 S
C803 C808 1.490 1_554 S
C804 H794 0.930 . S
C804 C803 1.400 1_556 S
C804 C807 1.386 . S
H805 C821 0.930 . S
H806 C822 0.931 . S
C807 H795 0.929 . S
C807 C801 1.390 1_556 S
C807 C804 1.386 . S
C808 C803 1.490 1_556 S
C808 C810 1.395 . S
C808 C811 1.403 . S
H809 C815 0.930 . S
C810 H796 0.928 1_556 S
C810 C808 1.395 . S
C810 C813 1.403 . S
C811 C808 1.403 . S
C811 C812 1.524 . S
C811 C815 1.400 . S
C812 H797 0.960 . S
C812 H798 0.960 1_556 S
C812 H799 0.960 . S
C812 C811 1.524 . S
C813 C810 1.403 . S
C813 C814 1.392 . S
C813 C817 1.495 . S
C814 C813 1.392 . S
C814 C815 1.385 . S
C814 C816 1.478 . S
C815 H809 0.930 . S
C815 C811 1.400 . S
C815 C814 1.385 . S
C816 C814 1.478 . S
C816 C818 1.381 . S
C816 C822 1.383 . S
C817 C813 1.495 . S
C817 H823 0.959 . S
C817 H824 0.961 . S
C817 H825 0.960 . S
C818 C816 1.381 . S
C818 C819 1.394 . S
C818 H826 0.930 1_556 S
C819 C818 1.394 . S
C819 C820 1.383 . S
C819 H827 0.929 . S
C820 C819 1.383 . S
C820 C821 1.377 . S
C821 H805 0.930 . S
C821 C820 1.377 . S
C821 C822 1.379 . S
C822 H806 0.931 . S
C822 C816 1.383 . S
C822 C821 1.379 . S
H823 C817 0.959 . S
H824 C817 0.961 . S
H825 C817 0.960 . S
H826 C818 0.930 1_554 S
H827 C819 0.929 . S
H828 C836 0.929 . S
H829 C838 0.930 . S
H830 C840 0.930 . S
H831 C843 0.929 . S
H832 C846 0.930 . S
H833 C848 0.960 . S
H834 C848 0.960 . S
H835 C848 0.960 . S
C836 H828 0.929 . S
C836 C837 1.377 . S
C836 C838 1.384 . S
C837 C836 1.377 . S
C837 C843 1.390 . S
C838 H829 0.930 . S
C838 C836 1.384 . S
C838 C839 1.372 . S
C839 C838 1.372 . S
C839 C840 1.400 . S
C839 C844 1.490 . S
C840 H830 0.930 . S
C840 C839 1.400 . S
C840 C843 1.386 . S
H841 C857 0.930 . S
H842 C858 0.931 . S
C843 H831 0.929 . S
C843 C837 1.390 . S
C843 C840 1.386 . S
C844 C839 1.490 . S
C844 C846 1.395 . S
C844 C847 1.403 . S
H845 C851 0.930 . S
C846 H832 0.930 . S
C846 C844 1.395 . S
C846 C849 1.403 . S
C847 C844 1.403 . S
C847 C848 1.524 . S
C847 C851 1.400 . S
C848 H833 0.960 . S
C848 H834 0.960 . S
C848 H835 0.960 . S
C848 C847 1.524 . S
C849 C846 1.403 . S
C849 C850 1.392 . S
C849 C853 1.495 . S
C850 C849 1.392 . S
C850 C851 1.385 . S
C850 C852 1.478 . S
C851 H845 0.930 . S
C851 C847 1.400 . S
C851 C850 1.385 . S
C852 C850 1.478 . S
C852 C854 1.381 . S
C852 C858 1.383 . S
C853 C849 1.495 . S
C853 H859 0.959 . S
C853 H860 0.961 . S
C853 H861 0.960 . S
C854 C852 1.381 . S
C854 C855 1.394 . S
C854 H862 0.930 . S
C855 C854 1.394 . S
C855 C856 1.383 . S
C855 H863 0.929 . S
C856 C855 1.383 . S
C856 C857 1.377 . S
C857 H841 0.930 . S
C857 C856 1.377 . S
C857 C858 1.379 . S
C858 H842 0.931 . S
C858 C852 1.383 . S
C858 C857 1.379 . S
H859 C853 0.959 . S
H860 C853 0.961 . S
H861 C853 0.960 . S
H862 C854 0.930 . S
H863 C855 0.929 . S
H864 C872 0.929 . S
H865 C874 0.930 . S
H866 C876 0.930 1_556 S
H867 C879 0.929 1_556 S
H868 C882 0.930 . S
H869 C884 0.960 . S
H870 C884 0.960 . S
H871 C884 0.960 . S
C872 H864 0.929 . S
C872 C873 1.377 . S
C872 C874 1.384 . S
C873 C872 1.377 . S
C873 C879 1.390 . S
C874 H865 0.930 . S
C874 C872 1.384 . S
C874 C875 1.372 . S
C875 C874 1.372 . S
C875 C876 1.400 . S
C875 C880 1.490 . S
C876 H866 0.930 1_554 S
C876 C875 1.400 . S
C876 C879 1.386 . S
H877 C893 0.930 . S
H878 C894 0.931 . S
C879 H867 0.929 1_554 S
C879 C873 1.390 . S
C879 C876 1.386 . S
C880 C875 1.490 . S
C880 C882 1.395 . S
C880 C883 1.403 . S
H881 C887 0.930 . S
C882 H868 0.930 . S
C882 C880 1.395 . S
C882 C885 1.403 . S
C883 C880 1.403 . S
C883 C884 1.524 . S
C883 C887 1.400 . S
C884 H869 0.960 . S
C884 H870 0.960 . S
C884 H871 0.960 . S
C884 C883 1.524 . S
C885 C882 1.403 . S
C885 C886 1.392 . S
C885 C889 1.495 . S
C886 C885 1.392 . S
C886 C887 1.385 . S
C886 C888 1.478 . S
C887 H881 0.930 . S
C887 C883 1.400 . S
C887 C886 1.385 . S
C888 C886 1.478 . S
C888 C890 1.381 . S
C888 C894 1.383 1_554 S
C889 C885 1.495 . S
C889 H895 0.959 . S
C889 H896 0.961 . S
C889 H897 0.960 . S
C890 C888 1.381 . S
C890 C891 1.394 . S
C890 H898 0.930 . S
C891 C890 1.394 . S
C891 C892 1.383 . S
C891 H899 0.929 . S
C892 C891 1.383 . S
C892 C893 1.377 1_554 S
C893 H877 0.930 . S
C893 C892 1.377 1_556 S
C893 C894 1.379 . S
C894 H878 0.931 . S
C894 C888 1.383 1_556 S
C894 C893 1.379 . S
H895 C889 0.959 . S
H896 C889 0.961 . S
H897 C889 0.960 . S
H898 C890 0.930 . S
H899 C891 0.929 . S
H900 C908 0.929 . S
H901 C910 0.930 . S
H902 C912 0.930 . S
H903 C915 0.929 . S
H904 C918 0.930 . S
H905 C920 0.960 . S
H906 C920 0.960 . S
H907 C920 0.960 . S
C908 H900 0.929 . S
C908 C909 1.377 . S
C908 C910 1.384 . S
C909 C908 1.377 . S
C909 C915 1.390 . S
C910 H901 0.930 . S
C910 C908 1.384 . S
C910 C911 1.372 . S
C911 C910 1.372 . S
C911 C912 1.400 . S
C911 C916 1.490 . S
C912 H902 0.930 . S
C912 C911 1.400 . S
C912 C915 1.386 . S
H913 C929 0.930 . S
H914 C930 0.931 . S
C915 H903 0.929 . S
C915 C909 1.390 . S
C915 C912 1.386 . S
C916 C911 1.490 . S
C916 C918 1.395 . S
C916 C919 1.403 . S
H917 C923 0.930 . S
C918 H904 0.930 . S
C918 C916 1.395 . S
C918 C921 1.403 . S
C919 C916 1.403 . S
C919 C920 1.524 . S
C919 C923 1.400 . S
C920 H905 0.960 . S
C920 H906 0.960 . S
C920 H907 0.960 . S
C920 C919 1.524 . S
C921 C918 1.403 . S
C921 C922 1.392 . S
C921 C925 1.495 1_655 S
C922 C921 1.392 . S
C922 C923 1.385 . S
C922 C924 1.478 . S
C923 H917 0.930 . S
C923 C919 1.400 . S
C923 C922 1.385 . S
C924 C922 1.478 . S
C924 C926 1.364 1_655 S
C924 C930 1.383 . S
C925 C921 1.495 1_455 S
C925 H931 0.959 . S
C925 H932 0.961 . S
C925 H933 0.960 . S
C926 C924 1.364 1_455 S
C926 C927 1.414 . S
C926 H934 0.928 . S
C927 C926 1.414 . S
C927 C928 1.383 . S
C927 H935 0.929 . S
C928 C927 1.383 . S
C928 C929 1.377 1_455 S
C929 H913 0.930 . S
C929 C928 1.377 1_655 S
C929 C930 1.379 . S
C930 H914 0.931 . S
C930 C924 1.383 . S
C930 C929 1.379 . S
H931 C925 0.959 . S
H932 C925 0.961 . S
H933 C925 0.960 . S
H934 C926 0.928 . S
H935 C927 0.929 . S
H936 C944 0.929 . S
H937 C946 0.930 . S
H938 C948 0.930 . S
H939 C951 0.929 . S
H940 C954 0.930 . S
H941 C956 0.960 . S
H942 C956 0.960 . S
H943 C956 0.960 . S
C944 H936 0.929 . S
C944 C945 1.377 . S
C944 C946 1.384 . S
C945 C944 1.377 . S
C945 C951 1.390 . S
C946 H937 0.930 . S
C946 C944 1.384 . S
C946 C947 1.372 . S
C947 C946 1.372 . S
C947 C948 1.400 . S
C947 C952 1.490 . S
C948 H938 0.930 . S
C948 C947 1.400 . S
C948 C951 1.386 . S
H949 C965 0.930 . S
H950 C966 0.931 . S
C951 H939 0.929 . S
C951 C945 1.390 . S
C951 C948 1.386 . S
C952 C947 1.490 . S
C952 C954 1.395 . S
C952 C955 1.403 . S
H953 C959 0.930 . S
C954 H940 0.930 . S
C954 C952 1.395 . S
C954 C957 1.403 . S
C955 C952 1.403 . S
C955 C956 1.524 . S
C955 C959 1.400 . S
C956 H941 0.960 . S
C956 H942 0.960 . S
C956 H943 0.960 . S
C956 C955 1.524 . S
C957 C954 1.403 . S
C957 C958 1.392 . S
C957 C961 1.495 . S
C958 C957 1.392 . S
C958 C959 1.385 . S
C958 C960 1.478 . S
C959 H953 0.930 . S
C959 C955 1.400 . S
C959 C958 1.385 . S
C960 C958 1.478 . S
C960 C962 1.381 . S
C960 C966 1.383 . S
C961 C957 1.495 . S
C961 H967 0.959 . S
C961 H968 0.961 . S
C961 H969 0.960 . S
C962 C960 1.381 . S
C962 C963 1.394 . S
C962 H970 0.930 . S
C963 C962 1.394 . S
C963 C964 1.383 . S
C963 H971 0.929 . S
C964 C963 1.383 . S
C964 C965 1.377 . S
C965 H949 0.930 . S
C965 C964 1.377 . S
C965 C966 1.379 . S
C966 H950 0.931 . S
C966 C960 1.383 . S
C966 C965 1.379 . S
H967 C961 0.959 . S
H968 C961 0.961 . S
H969 C961 0.960 . S
H970 C962 0.930 . S
H971 C963 0.929 . S
H972 C980 0.929 . S
H973 C982 0.930 . S
H974 C984 0.930 . S
H975 C987 0.929 . S
H976 C990 0.930 . S
H977 C992 0.960 . S
H978 C992 0.960 . S
H979 C992 0.960 . S
C980 H972 0.929 . S
C980 C981 1.377 . S
C980 C982 1.384 . S
C981 C980 1.377 . S
C981 C987 1.390 . S
C982 H973 0.930 . S
C982 C980 1.384 . S
C982 C983 1.372 . S
C983 C982 1.372 . S
C983 C984 1.400 . S
C983 C988 1.490 . S
C984 H974 0.930 . S
C984 C983 1.400 . S
C984 C987 1.386 . S
H985 C1001 0.930 . S
H986 C1002 0.931 . S
C987 H975 0.929 . S
C987 C981 1.390 . S
C987 C984 1.386 . S
C988 C983 1.490 . S
C988 C990 1.395 . S
C988 C991 1.403 . S
H989 C995 0.930 . S
C990 H976 0.930 . S
C990 C988 1.395 . S
C990 C993 1.403 . S
C991 C988 1.403 . S
C991 C992 1.524 . S
C991 C995 1.400 . S
C992 H977 0.960 . S
C992 H978 0.960 . S
C992 H979 0.960 . S
C992 C991 1.524 . S
C993 C990 1.403 . S
C993 C994 1.392 . S
C993 C997 1.495 . S
C994 C993 1.392 . S
C994 C995 1.385 . S
C994 C996 1.478 . S
C995 H989 0.930 . S
C995 C991 1.400 . S
C995 C994 1.385 . S
C996 C994 1.478 . S
C996 C998 1.381 . S
C996 C1002 1.383 . S
C997 C993 1.495 . S
C997 H1003 0.959 . S
C997 H1004 0.961 . S
C997 H1005 0.960 . S
C998 C996 1.381 . S
C998 C999 1.394 . S
C998 H1006 0.930 . S
C999 C998 1.394 . S
C999 C1000 1.383 . S
C999 H1007 0.929 . S
C1000 C999 1.383 . S
C1000 C1001 1.377 . S
C1001 H985 0.930 . S
C1001 C1000 1.377 . S
C1001 C1002 1.379 . S
C1002 H986 0.931 . S
C1002 C996 1.383 . S
C1002 C1001 1.379 . S
H1003 C997 0.959 . S
H1004 C997 0.961 . S
H1005 C997 0.960 . S
H1006 C998 0.930 . S
H1007 C999 0.929 . S
H1008 C1016 0.929 . S
H1009 C1018 0.930 . S
H1010 C1020 0.930 . S
H1011 C1023 0.929 . S
H1012 C1026 0.930 . S
H1013 C1028 0.960 . S
H1014 C1028 0.960 . S
H1015 C1028 0.960 . S
C1016 H1008 0.929 . S
C1016 C1017 1.377 . S
C1016 C1018 1.384 . S
C1017 C1016 1.377 . S
C1017 C1023 1.390 . S
C1018 H1009 0.930 . S
C1018 C1016 1.384 . S
C1018 C1019 1.372 . S
C1019 C1018 1.372 . S
C1019 C1020 1.400 . S
C1019 C1024 1.490 . S
C1020 H1010 0.930 . S
C1020 C1019 1.400 . S
C1020 C1023 1.386 . S
H1021 C1037 0.930 . S
H1022 C1038 0.931 . S
C1023 H1011 0.929 . S
C1023 C1017 1.390 . S
C1023 C1020 1.386 . S
C1024 C1019 1.490 . S
C1024 C1026 1.395 . S
C1024 C1027 1.403 . S
H1025 C1031 0.930 . S
C1026 H1012 0.930 . S
C1026 C1024 1.395 . S
C1026 C1029 1.403 . S
C1027 C1024 1.403 . S
C1027 C1028 1.524 . S
C1027 C1031 1.400 . S
C1028 H1013 0.960 . S
C1028 H1014 0.960 . S
C1028 H1015 0.960 . S
C1028 C1027 1.524 . S
C1029 C1026 1.403 . S
C1029 C1030 1.392 . S
C1029 C1033 1.495 . S
C1030 C1029 1.392 . S
C1030 C1031 1.385 . S
C1030 C1032 1.478 . S
C1031 H1025 0.930 . S
C1031 C1027 1.400 . S
C1031 C1030 1.385 . S
C1032 C1030 1.478 . S
C1032 C1034 1.381 . S
C1032 C1038 1.383 . S
C1033 C1029 1.495 . S
C1033 H1039 0.959 . S
C1033 H1040 0.961 . S
C1033 H1041 0.960 . S
C1034 C1032 1.381 . S
C1034 C1035 1.394 . S
C1034 H1042 0.930 . S
C1035 C1034 1.394 . S
C1035 C1036 1.383 . S
C1035 H1043 0.929 . S
C1036 C1035 1.383 . S
C1036 C1037 1.377 . S
C1037 H1021 0.930 . S
C1037 C1036 1.377 . S
C1037 C1038 1.379 . S
C1038 H1022 0.931 . S
C1038 C1032 1.383 . S
C1038 C1037 1.379 . S
H1039 C1033 0.959 . S
H1040 C1033 0.961 . S
H1041 C1033 0.960 . S
H1042 C1034 0.930 . S
H1043 C1035 0.929 . S
H1044 C1052 0.929 . S
H1045 C1054 0.930 . S
H1046 C1056 0.930 . S
H1047 C1059 0.929 . S
H1048 C1062 0.930 . S
H1049 C1064 0.960 . S
H1050 C1064 0.960 . S
H1051 C1064 0.960 . S
C1052 H1044 0.929 . S
C1052 C1053 1.377 . S
C1052 C1054 1.384 . S
C1053 C1052 1.377 . S
C1053 C1059 1.390 . S
C1054 H1045 0.930 . S
C1054 C1052 1.384 . S
C1054 C1055 1.372 . S
C1055 C1054 1.372 . S
C1055 C1056 1.400 . S
C1055 C1060 1.490 . S
C1056 H1046 0.930 . S
C1056 C1055 1.400 . S
C1056 C1059 1.386 . S
H1057 C1073 0.930 . S
H1058 C1074 0.931 . S
C1059 H1047 0.929 . S
C1059 C1053 1.390 . S
C1059 C1056 1.386 . S
C1060 C1055 1.490 . S
C1060 C1062 1.395 . S
C1060 C1063 1.403 . S
H1061 C1067 0.930 . S
C1062 H1048 0.930 . S
C1062 C1060 1.395 . S
C1062 C1065 1.403 . S
C1063 C1060 1.403 . S
C1063 C1064 1.524 . S
C1063 C1067 1.400 . S
C1064 H1049 0.960 . S
C1064 H1050 0.960 . S
C1064 H1051 0.960 . S
C1064 C1063 1.524 . S
C1065 C1062 1.403 . S
C1065 C1066 1.392 . S
C1065 C1069 1.495 . S
C1066 C1065 1.392 . S
C1066 C1067 1.385 . S
C1066 C1068 1.478 . S
C1067 H1061 0.930 . S
C1067 C1063 1.400 . S
C1067 C1066 1.385 . S
C1068 C1066 1.478 . S
C1068 C1070 1.381 1_545 S
C1068 C1074 1.383 . S
C1069 C1065 1.495 . S
C1069 H1075 0.959 . S
C1069 H1076 0.961 . S
C1069 H1077 0.960 . S
C1070 C1068 1.381 1_565 S
C1070 C1071 1.394 . S
C1070 H1078 0.930 . S
C1071 C1070 1.394 . S
C1071 C1072 1.383 . S
C1071 H1079 0.929 . S
C1072 C1071 1.383 . S
C1072 C1073 1.377 . S
C1073 H1057 0.930 . S
C1073 C1072 1.377 . S
C1073 C1074 1.379 1_565 S
C1074 H1058 0.931 . S
C1074 C1068 1.383 . S
C1074 C1073 1.379 1_545 S
H1075 C1069 0.959 . S
H1076 C1069 0.961 . S
H1077 C1069 0.960 . S
H1078 C1070 0.930 . S
H1079 C1071 0.929 . S
H1080 C1088 0.929 . S
H1081 C1090 0.930 . S
H1082 C1092 0.930 . S
H1083 C1095 0.929 . S
H1084 C1098 0.930 . S
H1085 C1100 0.960 . S
H1086 C1100 0.960 . S
H1087 C1100 0.960 . S
C1088 H1080 0.929 . S
C1088 C1089 1.377 . S
C1088 C1090 1.384 . S
C1089 C1088 1.377 . S
C1089 C1095 1.390 . S
C1090 H1081 0.930 . S
C1090 C1088 1.384 . S
C1090 C1091 1.372 . S
C1091 C1090 1.372 . S
C1091 C1092 1.400 . S
C1091 C1096 1.490 . S
C1092 H1082 0.930 . S
C1092 C1091 1.400 . S
C1092 C1095 1.386 . S
H1093 C1109 0.930 . S
H1094 C1110 0.931 . S
C1095 H1083 0.929 . S
C1095 C1089 1.390 . S
C1095 C1092 1.386 . S
C1096 C1091 1.490 . S
C1096 C1098 1.395 . S
C1096 C1099 1.403 . S
H1097 C1103 0.930 . S
C1098 H1084 0.930 . S
C1098 C1096 1.395 . S
C1098 C1101 1.403 . S
C1099 C1096 1.403 . S
C1099 C1100 1.524 . S
C1099 C1103 1.400 . S
C1100 H1085 0.960 . S
C1100 H1086 0.960 . S
C1100 H1087 0.960 . S
C1100 C1099 1.524 . S
C1101 C1098 1.403 . S
C1101 C1102 1.392 . S
C1101 C1105 1.495 . S
C1102 C1101 1.392 . S
C1102 C1103 1.385 . S
C1102 C1104 1.478 . S
C1103 H1097 0.930 . S
C1103 C1099 1.400 . S
C1103 C1102 1.385 . S
C1104 C1102 1.478 . S
C1104 C1106 1.381 . S
C1104 C1110 1.383 . S
C1105 C1101 1.495 . S
C1105 H1111 0.959 . S
C1105 H1112 0.961 . S
C1105 H1113 0.960 . S
C1106 C1104 1.381 . S
C1106 C1107 1.394 . S
C1106 H1114 0.930 . S
C1107 C1106 1.394 . S
C1107 C1108 1.383 . S
C1107 H1115 0.929 . S
C1108 C1107 1.383 . S
C1108 C1109 1.377 . S
C1109 H1093 0.930 . S
C1109 C1108 1.377 . S
C1109 C1110 1.379 . S
C1110 H1094 0.931 . S
C1110 C1104 1.383 . S
C1110 C1109 1.379 . S
H1111 C1105 0.959 . S
H1112 C1105 0.961 . S
H1113 C1105 0.960 . S
H1114 C1106 0.930 . S
H1115 C1107 0.929 . S
H1116 C1124 0.929 1_556 S
H1117 C1126 0.930 . S
H1118 C1128 0.930 . S
H1119 C1131 0.929 . S
H1120 C1134 0.930 . S
H1121 C1136 0.960 1_545 S
H1122 C1136 0.960 1_556 S
H1123 C1136 0.960 . S
C1124 H1116 0.929 1_554 S
C1124 C1125 1.377 . S
C1124 C1126 1.384 . S
C1125 C1124 1.377 . S
C1125 C1131 1.390 . S
C1126 H1117 0.930 . S
C1126 C1124 1.384 . S
C1126 C1127 1.372 . S
C1127 C1126 1.372 . S
C1127 C1128 1.400 . S
C1127 C1132 1.490 . S
C1128 H1118 0.930 . S
C1128 C1127 1.400 . S
C1128 C1131 1.386 . S
H1129 C1145 0.930 . S
H1130 C1146 0.931 . S
C1131 H1119 0.929 . S
C1131 C1125 1.390 . S
C1131 C1128 1.386 . S
C1132 C1127 1.490 . S
C1132 C1134 1.395 . S
C1132 C1135 1.403 . S
H1133 C1139 0.930 . S
C1134 H1120 0.930 . S
C1134 C1132 1.395 . S
C1134 C1137 1.403 1_565 S
C1135 C1132 1.403 . S
C1135 C1136 1.524 . S
C1135 C1139 1.400 1_565 S
C1136 H1121 0.960 1_565 S
C1136 H1122 0.960 1_554 S
C1136 H1123 0.960 . S
C1136 C1135 1.524 . S
C1137 C1134 1.403 1_545 S
C1137 C1138 1.392 . S
C1137 C1141 1.495 . S
C1138 C1137 1.392 . S
C1138 C1139 1.385 . S
C1138 C1140 1.478 . S
C1139 H1133 0.930 . S
C1139 C1135 1.400 1_545 S
C1139 C1138 1.385 . S
C1140 C1138 1.478 . S
C1140 C1142 1.381 . S
C1140 C1146 1.383 . S
C1141 C1137 1.495 . S
C1141 H1147 0.959 1_545 S
C1141 H1148 0.961 . S
C1141 H1149 0.960 . S
C1142 C1140 1.381 . S
C1142 C1143 1.394 . S
C1142 H1150 0.930 . S
C1143 C1142 1.394 . S
C1143 C1144 1.383 . S
C1143 H1151 0.929 . S
C1144 C1143 1.383 . S
C1144 C1145 1.377 . S
C1145 H1129 0.930 . S
C1145 C1144 1.377 . S
C1145 C1146 1.379 . S
C1146 H1130 0.931 . S
C1146 C1140 1.383 . S
C1146 C1145 1.379 . S
H1147 C1141 0.959 1_565 S
H1148 C1141 0.961 . S
H1149 C1141 0.960 . S
H1150 C1142 0.930 . S
H1151 C1143 0.929 . S
H1152 C1160 0.929 . S
H1153 C1162 0.930 . S
H1154 C1164 0.930 1_455 S
H1155 C1167 0.929 . S
H1156 C1170 0.930 . S
H1157 C1172 0.960 . S
H1158 C1172 0.960 . S
H1159 C1172 0.960 . S
C1160 H1152 0.929 . S
C1160 C1161 1.377 . S
C1160 C1162 1.384 . S
C1161 C1160 1.377 . S
C1161 C1167 1.390 . S
C1162 H1153 0.930 . S
C1162 C1160 1.384 . S
C1162 C1163 1.378 . S
C1163 C1162 1.378 . S
C1163 C1164 1.399 . S
C1163 C1168 1.485 1_655 S
C1164 H1154 0.930 1_655 S
C1164 C1163 1.399 . S
C1164 C1167 1.386 . S
H1165 C1181 0.930 . S
H1166 C1182 0.931 . S
C1167 H1155 0.929 . S
C1167 C1161 1.390 . S
C1167 C1164 1.386 . S
C1168 C1163 1.485 1_455 S
C1168 C1170 1.395 . S
C1168 C1171 1.403 . S
H1169 C1175 0.930 . S
C1170 H1156 0.930 . S
C1170 C1168 1.395 . S
C1170 C1173 1.403 . S
C1171 C1168 1.403 . S
C1171 C1172 1.524 . S
C1171 C1175 1.400 . S
C1172 H1157 0.960 . S
C1172 H1158 0.960 . S
C1172 H1159 0.960 . S
C1172 C1171 1.524 . S
C1173 C1170 1.403 . S
C1173 C1174 1.392 . S
C1173 C1177 1.495 . S
C1174 C1173 1.392 . S
C1174 C1175 1.385 . S
C1174 C1176 1.478 . S
C1175 H1169 0.930 . S
C1175 C1171 1.400 . S
C1175 C1174 1.385 . S
C1176 C1174 1.478 . S
C1176 C1178 1.381 1_554 S
C1176 C1182 1.383 . S
C1177 C1173 1.495 . S
C1177 H1183 0.959 . S
C1177 H1184 0.961 . S
C1177 H1185 0.960 . S
C1178 C1176 1.381 1_556 S
C1178 C1179 1.394 . S
C1178 H1186 0.930 . S
C1179 C1178 1.394 . S
C1179 C1180 1.383 1_556 S
C1179 H1187 0.929 . S
C1180 C1179 1.383 1_554 S
C1180 C1181 1.377 . S
C1181 H1165 0.930 . S
C1181 C1180 1.377 . S
C1181 C1182 1.379 . S
C1182 H1166 0.931 . S
C1182 C1176 1.383 . S
C1182 C1181 1.379 . S
H1183 C1177 0.959 . S
H1184 C1177 0.961 . S
H1185 C1177 0.960 . S
H1186 C1178 0.930 . S
H1187 C1179 0.929 . S
H1188 C1196 0.929 1_556 S
H1189 C1198 0.930 1_556 S
H1190 C1200 0.930 . S
H1191 C1203 0.929 . S
H1192 C1206 0.930 . S
H1193 C1208 0.960 . S
H1194 C1208 0.960 . S
H1195 C1208 0.960 . S
C1196 H1188 0.929 1_554 S
C1196 C1197 1.377 . S
C1196 C1198 1.384 . S
C1197 C1196 1.377 . S
C1197 C1203 1.390 . S
C1198 H1189 0.930 1_554 S
C1198 C1196 1.384 . S
C1198 C1199 1.372 . S
C1199 C1198 1.372 . S
C1199 C1200 1.400 . S
C1199 C1204 1.490 . S
C1200 H1190 0.930 . S
C1200 C1199 1.400 . S
C1200 C1203 1.386 . S
H1201 C1217 0.930 . S
H1202 C1218 0.931 . S
C1203 H1191 0.929 . S
C1203 C1197 1.390 . S
C1203 C1200 1.386 . S
C1204 C1199 1.490 . S
C1204 C1206 1.395 . S
C1204 C1207 1.403 . S
H1205 C1211 0.930 . S
C1206 H1192 0.930 . S
C1206 C1204 1.395 . S
C1206 C1209 1.403 . S
C1207 C1204 1.403 . S
C1207 C1208 1.524 . S
C1207 C1211 1.400 . S
C1208 H1193 0.960 . S
C1208 H1194 0.960 . S
C1208 H1195 0.960 . S
C1208 C1207 1.524 . S
C1209 C1206 1.403 . S
C1209 C1210 1.392 . S
C1209 C1213 1.495 . S
C1210 C1209 1.392 . S
C1210 C1211 1.385 . S
C1210 C1212 1.478 . S
C1211 H1205 0.930 . S
C1211 C1207 1.400 . S
C1211 C1210 1.385 . S
C1212 C1210 1.478 . S
C1212 C1214 1.381 . S
C1212 C1218 1.383 . S
C1213 C1209 1.495 . S
C1213 H1219 0.959 . S
C1213 H1220 0.961 . S
C1213 H1221 0.960 . S
C1214 C1212 1.381 . S
C1214 C1215 1.394 . S
C1214 H1222 0.930 . S
C1215 C1214 1.394 . S
C1215 C1216 1.383 . S
C1215 H1223 0.929 . S
C1216 C1215 1.383 . S
C1216 C1217 1.377 . S
C1217 H1201 0.930 . S
C1217 C1216 1.377 . S
C1217 C1218 1.379 . S
C1218 H1202 0.931 . S
C1218 C1212 1.383 . S
C1218 C1217 1.379 . S
H1219 C1213 0.959 . S
H1220 C1213 0.961 . S
H1221 C1213 0.960 . S
H1222 C1214 0.930 . S
H1223 C1215 0.929 . S
H1224 C1232 0.929 . S
H1225 C1234 0.930 . S
H1226 C1236 0.930 . S
H1227 C1239 0.929 . S
H1228 C1242 0.930 . S
H1229 C1244 0.960 . S
H1230 C1244 0.960 . S
H1231 C1244 0.960 . S
C1232 H1224 0.929 . S
C1232 C1233 1.377 . S
C1232 C1234 1.384 . S
C1233 C1232 1.377 . S
C1233 C1239 1.390 . S
C1234 H1225 0.930 . S
C1234 C1232 1.384 . S
C1234 C1235 1.372 . S
C1235 C1234 1.372 . S
C1235 C1236 1.400 . S
C1235 C1240 1.490 . S
C1236 H1226 0.930 . S
C1236 C1235 1.400 . S
C1236 C1239 1.386 . S
H1237 C1253 0.930 . S
H1238 C1254 0.931 . S
C1239 H1227 0.929 . S
C1239 C1233 1.390 . S
C1239 C1236 1.386 . S
C1240 C1235 1.490 . S
C1240 C1242 1.395 . S
C1240 C1243 1.403 . S
H1241 C1247 0.930 . S
C1242 H1228 0.930 . S
C1242 C1240 1.395 . S
C1242 C1245 1.403 . S
C1243 C1240 1.403 . S
C1243 C1244 1.524 . S
C1243 C1247 1.400 . S
C1244 H1229 0.960 . S
C1244 H1230 0.960 . S
C1244 H1231 0.960 . S
C1244 C1243 1.524 . S
C1245 C1242 1.403 . S
C1245 C1246 1.392 . S
C1245 C1249 1.495 . S
C1246 C1245 1.392 . S
C1246 C1247 1.385 . S
C1246 C1248 1.478 . S
C1247 H1241 0.930 . S
C1247 C1243 1.400 . S
C1247 C1246 1.385 . S
C1248 C1246 1.478 . S
C1248 C1250 1.381 1_554 S
C1248 C1254 1.383 . S
C1249 C1245 1.495 . S
C1249 H1255 0.959 . S
C1249 H1256 0.961 . S
C1249 H1257 0.960 . S
C1250 C1248 1.381 1_556 S
C1250 C1251 1.394 . S
C1250 H1258 0.930 . S
C1251 C1250 1.394 . S
C1251 C1252 1.383 1_556 S
C1251 H1259 0.929 . S
C1252 C1251 1.383 1_554 S
C1252 C1253 1.377 . S
C1253 H1237 0.930 . S
C1253 C1252 1.377 . S
C1253 C1254 1.379 . S
C1254 H1238 0.931 . S
C1254 C1248 1.383 . S
C1254 C1253 1.379 . S
H1255 C1249 0.959 . S
H1256 C1249 0.961 . S
H1257 C1249 0.960 . S
H1258 C1250 0.930 . S
H1259 C1251 0.929 . S
H1260 C1268 0.929 . S
H1261 C1270 0.930 . S
H1262 C1272 0.930 . S
H1263 C1275 0.929 . S
H1264 C1278 0.930 . S
H1265 C1280 0.960 . S
H1266 C1280 0.960 . S
H1267 C1280 0.960 . S
C1268 H1260 0.929 . S
C1268 C1269 1.377 . S
C1268 C1270 1.384 . S
C1269 C1268 1.377 . S
C1269 C1275 1.390 . S
C1270 H1261 0.930 . S
C1270 C1268 1.384 . S
C1270 C1271 1.372 . S
C1271 C1270 1.372 . S
C1271 C1272 1.400 . S
C1271 C1276 1.490 . S
C1272 H1262 0.930 . S
C1272 C1271 1.400 . S
C1272 C1275 1.386 . S
H1273 C1289 0.930 . S
H1274 C1290 0.931 1_556 S
C1275 H1263 0.929 . S
C1275 C1269 1.390 . S
C1275 C1272 1.386 . S
C1276 C1271 1.490 . S
C1276 C1278 1.395 . S
C1276 C1279 1.403 . S
H1277 C1283 0.930 1_556 S
C1278 H1264 0.930 . S
C1278 C1276 1.395 . S
C1278 C1281 1.403 . S
C1279 C1276 1.403 . S
C1279 C1280 1.524 1_554 S
C1279 C1283 1.400 . S
C1280 H1265 0.960 . S
C1280 H1266 0.960 . S
C1280 H1267 0.960 . S
C1280 C1279 1.524 1_556 S
C1281 C1278 1.403 . S
C1281 C1282 1.392 . S
C1281 C1285 1.495 . S
C1282 C1281 1.392 . S
C1282 C1283 1.385 . S
C1282 C1284 1.478 . S
C1283 H1277 0.930 1_554 S
C1283 C1279 1.400 . S
C1283 C1282 1.385 . S
C1284 C1282 1.478 . S
C1284 C1286 1.381 . S
C1284 C1290 1.383 . S
C1285 C1281 1.495 . S
C1285 H1291 0.959 . S
C1285 H1292 0.961 . S
C1285 H1293 0.960 . S
C1286 C1284 1.381 . S
C1286 C1287 1.394 . S
C1286 H1294 0.930 . S
C1287 C1286 1.394 . S
C1287 C1288 1.383 . S
C1287 H1295 0.929 . S
C1288 C1287 1.383 . S
C1288 C1289 1.377 1_554 S
C1289 H1273 0.930 . S
C1289 C1288 1.377 1_556 S
C1289 C1290 1.379 1_556 S
C1290 H1274 0.931 1_554 S
C1290 C1284 1.383 . S
C1290 C1289 1.379 1_554 S
H1291 C1285 0.959 . S
H1292 C1285 0.961 . S
H1293 C1285 0.960 . S
H1294 C1286 0.930 . S
H1295 C1287 0.929 . S
H1296 C1304 0.929 . S
H1297 C1306 0.930 . S
H1298 C1308 0.930 . S
H1299 C1311 0.929 . S
H1300 C1314 0.930 . S
H1301 C1316 0.960 . S
H1302 C1316 0.960 . S
H1303 C1316 0.960 . S
C1304 H1296 0.929 . S
C1304 C1305 1.377 . S
C1304 C1306 1.384 . S
C1305 C1304 1.377 . S
C1305 C1311 1.390 . S
C1306 H1297 0.930 . S
C1306 C1304 1.384 . S
C1306 C1307 1.372 . S
C1307 C1306 1.372 . S
C1307 C1308 1.400 . S
C1307 C1312 1.490 . S
C1308 H1298 0.930 . S
C1308 C1307 1.400 . S
C1308 C1311 1.386 . S
H1309 C1325 0.930 . S
H1310 C1326 0.931 . S
C1311 H1299 0.929 . S
C1311 C1305 1.390 . S
C1311 C1308 1.386 . S
C1312 C1307 1.490 . S
C1312 C1314 1.395 . S
C1312 C1315 1.403 . S
H1313 C1319 0.930 . S
C1314 H1300 0.930 . S
C1314 C1312 1.395 . S
C1314 C1317 1.403 . S
C1315 C1312 1.403 . S
C1315 C1316 1.524 . S
C1315 C1319 1.400 . S
C1316 H1301 0.960 . S
C1316 H1302 0.960 . S
C1316 H1303 0.960 . S
C1316 C1315 1.524 . S
C1317 C1314 1.403 . S
C1317 C1318 1.392 . S
C1317 C1321 1.495 . S
C1318 C1317 1.392 . S
C1318 C1319 1.385 . S
C1318 C1320 1.478 . S
C1319 H1313 0.930 . S
C1319 C1315 1.400 . S
C1319 C1318 1.385 . S
C1320 C1318 1.478 . S
C1320 C1322 1.381 . S
C1320 C1326 1.383 . S
C1321 C1317 1.495 . S
C1321 H1327 0.959 . S
C1321 H1328 0.961 . S
C1321 H1329 0.960 . S
C1322 C1320 1.381 . S
C1322 C1323 1.394 . S
C1322 H1330 0.930 . S
C1323 C1322 1.394 . S
C1323 C1324 1.383 . S
C1323 H1331 0.929 . S
C1324 C1323 1.383 . S
C1324 C1325 1.377 . S
C1325 H1309 0.930 . S
C1325 C1324 1.377 . S
C1325 C1326 1.379 . S
C1326 H1310 0.931 . S
C1326 C1320 1.383 . S
C1326 C1325 1.379 . S
H1327 C1321 0.959 . S
H1328 C1321 0.961 . S
H1329 C1321 0.960 . S
H1330 C1322 0.930 . S
H1331 C1323 0.929 . S
H1332 C1340 0.929 . S
H1333 C1342 0.930 . S
H1334 C1344 0.930 . S
H1335 C1347 0.929 . S
H1336 C1350 0.930 . S
H1337 C1352 0.960 . S
H1338 C1352 0.960 . S
H1339 C1352 0.960 . S
C1340 H1332 0.929 . S
C1340 C1341 1.377 . S
C1340 C1342 1.384 . S
C1341 C1340 1.377 . S
C1341 C1347 1.390 . S
C1342 H1333 0.930 . S
C1342 C1340 1.384 . S
C1342 C1343 1.372 . S
C1343 C1342 1.372 . S
C1343 C1344 1.400 . S
C1343 C1348 1.490 . S
C1344 H1334 0.930 . S
C1344 C1343 1.400 . S
C1344 C1347 1.386 . S
H1345 C1361 0.930 . S
H1346 C1362 0.931 . S
C1347 H1335 0.929 . S
C1347 C1341 1.390 . S
C1347 C1344 1.386 . S
C1348 C1343 1.490 . S
C1348 C1350 1.395 . S
C1348 C1351 1.403 . S
H1349 C1355 0.930 . S
C1350 H1336 0.930 . S
C1350 C1348 1.395 . S
C1350 C1353 1.403 . S
C1351 C1348 1.403 . S
C1351 C1352 1.524 . S
C1351 C1355 1.400 . S
C1352 H1337 0.960 . S
C1352 H1338 0.960 . S
C1352 H1339 0.960 . S
C1352 C1351 1.524 . S
C1353 C1350 1.403 . S
C1353 C1354 1.392 . S
C1353 C1357 1.495 . S
C1354 C1353 1.392 . S
C1354 C1355 1.385 . S
C1354 C1356 1.478 . S
C1355 H1349 0.930 . S
C1355 C1351 1.400 . S
C1355 C1354 1.385 . S
C1356 C1354 1.478 . S
C1356 C1358 1.381 . S
C1356 C1362 1.383 . S
C1357 C1353 1.495 . S
C1357 H1363 0.959 . S
C1357 H1364 0.961 . S
C1357 H1365 0.960 . S
C1358 C1356 1.381 . S
C1358 C1359 1.394 . S
C1358 H1366 0.930 . S
C1359 C1358 1.394 . S
C1359 C1360 1.383 . S
C1359 H1367 0.929 . S
C1360 C1359 1.383 . S
C1360 C1361 1.377 . S
C1361 H1345 0.930 . S
C1361 C1360 1.377 . S
C1361 C1362 1.379 . S
C1362 H1346 0.931 . S
C1362 C1356 1.383 . S
C1362 C1361 1.379 . S
H1363 C1357 0.959 . S
H1364 C1357 0.961 . S
H1365 C1357 0.960 . S
H1366 C1358 0.930 . S
H1367 C1359 0.929 . S
H1368 C1376 0.929 . S
H1369 C1378 0.930 . S
H1370 C1380 0.930 . S
H1371 C1383 0.929 . S
H1372 C1386 0.930 . S
H1373 C1388 0.960 . S
H1374 C1388 0.960 . S
H1375 C1388 0.960 . S
C1376 H1368 0.929 . S
C1376 C1377 1.377 . S
C1376 C1378 1.384 . S
C1377 C1376 1.377 . S
C1377 C1383 1.390 . S
C1378 H1369 0.930 . S
C1378 C1376 1.384 . S
C1378 C1379 1.372 . S
C1379 C1378 1.372 . S
C1379 C1380 1.400 . S
C1379 C1384 1.490 . S
C1380 H1370 0.930 . S
C1380 C1379 1.400 . S
C1380 C1383 1.386 . S
H1381 C1397 0.930 . S
H1382 C1398 0.931 . S
C1383 H1371 0.929 . S
C1383 C1377 1.390 . S
C1383 C1380 1.386 . S
C1384 C1379 1.490 . S
C1384 C1386 1.395 . S
C1384 C1387 1.403 . S
H1385 C1391 0.930 . S
C1386 H1372 0.930 . S
C1386 C1384 1.395 . S
C1386 C1389 1.403 . S
C1387 C1384 1.403 . S
C1387 C1388 1.524 . S
C1387 C1391 1.400 . S
C1388 H1373 0.960 . S
C1388 H1374 0.960 . S
C1388 H1375 0.960 . S
C1388 C1387 1.524 . S
C1389 C1386 1.403 . S
C1389 C1390 1.392 . S
C1389 C1393 1.495 . S
C1390 C1389 1.392 . S
C1390 C1391 1.385 . S
C1390 C1392 1.478 . S
C1391 H1385 0.930 . S
C1391 C1387 1.400 . S
C1391 C1390 1.385 . S
C1392 C1390 1.478 . S
C1392 C1394 1.381 . S
C1392 C1398 1.383 . S
C1393 C1389 1.495 . S
C1393 H1399 0.959 . S
C1393 H1400 0.961 . S
C1393 H1401 0.960 . S
C1394 C1392 1.381 . S
C1394 C1395 1.394 . S
C1394 H1402 0.930 . S
C1395 C1394 1.394 . S
C1395 C1396 1.383 . S
C1395 H1403 0.929 . S
C1396 C1395 1.383 . S
C1396 C1397 1.377 . S
C1397 H1381 0.930 . S
C1397 C1396 1.377 . S
C1397 C1398 1.379 . S
C1398 H1382 0.931 . S
C1398 C1392 1.383 . S
C1398 C1397 1.379 . S
H1399 C1393 0.959 . S
H1400 C1393 0.961 . S
H1401 C1393 0.960 . S
H1402 C1394 0.930 . S
H1403 C1395 0.929 . S
H1404 C1412 0.929 . S
H1405 C1414 0.930 . S
H1406 C1416 0.930 . S
H1407 C1419 0.929 . S
H1408 C1422 0.930 . S
H1409 C1424 0.960 . S
H1410 C1424 0.960 . S
H1411 C1424 0.960 . S
C1412 H1404 0.929 . S
C1412 C1413 1.377 . S
C1412 C1414 1.384 . S
C1413 C1412 1.377 . S
C1413 C1419 1.390 . S
C1414 H1405 0.930 . S
C1414 C1412 1.384 . S
C1414 C1415 1.372 . S
C1415 C1414 1.372 . S
C1415 C1416 1.400 . S
C1415 C1420 1.490 . S
C1416 H1406 0.930 . S
C1416 C1415 1.400 . S
C1416 C1419 1.386 . S
H1417 C1433 0.930 . S
H1418 C1434 0.931 . S
C1419 H1407 0.929 . S
C1419 C1413 1.390 . S
C1419 C1416 1.386 . S
C1420 C1415 1.490 . S
C1420 C1422 1.395 . S
C1420 C1423 1.403 . S
H1421 C1427 0.930 . S
C1422 H1408 0.930 . S
C1422 C1420 1.395 . S
C1422 C1425 1.403 . S
C1423 C1420 1.403 . S
C1423 C1424 1.524 . S
C1423 C1427 1.400 . S
C1424 H1409 0.960 . S
C1424 H1410 0.960 . S
C1424 H1411 0.960 . S
C1424 C1423 1.524 . S
C1425 C1422 1.403 . S
C1425 C1426 1.392 . S
C1425 C1429 1.495 . S
C1426 C1425 1.392 . S
C1426 C1427 1.385 . S
C1426 C1428 1.478 . S
C1427 H1421 0.930 . S
C1427 C1423 1.400 . S
C1427 C1426 1.385 . S
C1428 C1426 1.478 . S
C1428 C1430 1.381 . S
C1428 C1434 1.383 . S
C1429 C1425 1.495 . S
C1429 H1435 0.959 . S
C1429 H1436 0.961 . S
C1429 H1437 0.960 . S
C1430 C1428 1.381 . S
C1430 C1431 1.394 . S
C1430 H1438 0.930 . S
C1431 C1430 1.394 . S
C1431 C1432 1.383 . S
C1431 H1439 0.929 . S
C1432 C1431 1.383 . S
C1432 C1433 1.377 . S
C1433 H1417 0.930 . S
C1433 C1432 1.377 . S
C1433 C1434 1.379 . S
C1434 H1418 0.931 . S
C1434 C1428 1.383 . S
C1434 C1433 1.379 . S
H1435 C1429 0.959 . S
H1436 C1429 0.961 . S
H1437 C1429 0.960 . S
H1438 C1430 0.930 . S
H1439 C1431 0.929 . S
H1440 C1448 0.929 . S
H1441 C1450 0.930 . S
H1442 C1452 0.930 . S
H1443 C1455 0.929 . S
H1444 C1458 0.930 . S
H1445 C1460 0.960 . S
H1446 C1460 0.960 . S
H1447 C1460 0.960 . S
C1448 H1440 0.929 . S
C1448 C1449 1.377 . S
C1448 C1450 1.384 . S
C1449 C1448 1.377 . S
C1449 C1455 1.390 . S
C1450 H1441 0.930 . S
C1450 C1448 1.384 . S
C1450 C1451 1.372 . S
C1451 C1450 1.372 . S
C1451 C1452 1.400 . S
C1451 C1456 1.490 . S
C1452 H1442 0.930 . S
C1452 C1451 1.400 . S
C1452 C1455 1.386 . S
H1453 C1469 0.930 . S
H1454 C1470 0.931 . S
C1455 H1443 0.929 . S
C1455 C1449 1.390 . S
C1455 C1452 1.386 . S
C1456 C1451 1.490 . S
C1456 C1458 1.395 . S
C1456 C1459 1.403 . S
H1457 C1463 0.930 . S
C1458 H1444 0.930 . S
C1458 C1456 1.395 . S
C1458 C1461 1.403 . S
C1459 C1456 1.403 . S
C1459 C1460 1.524 . S
C1459 C1463 1.400 . S
C1460 H1445 0.960 . S
C1460 H1446 0.960 . S
C1460 H1447 0.960 . S
C1460 C1459 1.524 . S
C1461 C1458 1.403 . S
C1461 C1462 1.392 . S
C1461 C1465 1.495 . S
C1462 C1461 1.392 . S
C1462 C1463 1.385 . S
C1462 C1464 1.478 . S
C1463 H1457 0.930 . S
C1463 C1459 1.400 . S
C1463 C1462 1.385 . S
C1464 C1462 1.478 . S
C1464 C1466 1.381 . S
C1464 C1470 1.383 . S
C1465 C1461 1.495 . S
C1465 H1471 0.959 . S
C1465 H1472 0.961 . S
C1465 H1473 0.960 . S
C1466 C1464 1.381 . S
C1466 C1467 1.394 . S
C1466 H1474 0.930 . S
C1467 C1466 1.394 . S
C1467 C1468 1.383 . S
C1467 H1475 0.929 . S
C1468 C1467 1.383 . S
C1468 C1469 1.377 . S
C1469 H1453 0.930 . S
C1469 C1468 1.377 . S
C1469 C1470 1.379 . S
C1470 H1454 0.931 . S
C1470 C1464 1.383 . S
C1470 C1469 1.379 . S
H1471 C1465 0.959 . S
H1472 C1465 0.961 . S
H1473 C1465 0.960 . S
H1474 C1466 0.930 . S
H1475 C1467 0.929 . S
H1476 C1484 0.929 . S
H1477 C1486 0.930 . S
H1478 C1488 0.930 . S
H1479 C1491 0.929 . S
H1480 C1494 0.930 . S
H1481 C1496 0.960 . S
H1482 C1496 0.960 . S
H1483 C1496 0.960 . S
C1484 H1476 0.929 . S
C1484 C1485 1.377 . S
C1484 C1486 1.384 . S
C1485 C1484 1.377 . S
C1485 C1491 1.390 1_545 S
C1486 H1477 0.930 . S
C1486 C1484 1.384 . S
C1486 C1487 1.372 . S
C1487 C1486 1.372 . S
C1487 C1488 1.400 1_545 S
C1487 C1492 1.490 . S
C1488 H1478 0.930 . S
C1488 C1487 1.400 1_565 S
C1488 C1491 1.386 . S
H1489 C1505 0.930 . S
H1490 C1506 0.931 . S
C1491 H1479 0.929 . S
C1491 C1485 1.390 1_565 S
C1491 C1488 1.386 . S
C1492 C1487 1.490 . S
C1492 C1494 1.395 . S
C1492 C1495 1.403 1_545 S
H1493 C1499 0.930 . S
C1494 H1480 0.930 . S
C1494 C1492 1.395 . S
C1494 C1497 1.403 . S
C1495 C1492 1.403 1_565 S
C1495 C1496 1.524 . S
C1495 C1499 1.400 . S
C1496 H1481 0.960 . S
C1496 H1482 0.960 . S
C1496 H1483 0.960 . S
C1496 C1495 1.524 . S
C1497 C1494 1.403 . S
C1497 C1498 1.392 . S
C1497 C1501 1.495 . S
C1498 C1497 1.392 . S
C1498 C1499 1.385 1_545 S
C1498 C1500 1.478 . S
C1499 H1493 0.930 . S
C1499 C1495 1.400 . S
C1499 C1498 1.385 1_565 S
C1500 C1498 1.478 . S
C1500 C1502 1.381 . S
C1500 C1506 1.383 . S
C1501 C1497 1.495 . S
C1501 H1507 0.959 . S
C1501 H1508 0.961 . S
C1501 H1509 0.960 . S
C1502 C1500 1.381 . S
C1502 C1503 1.394 . S
C1502 H1510 0.930 . S
C1503 C1502 1.394 . S
C1503 C1504 1.383 . S
C1503 H1511 0.929 . S
C1504 C1503 1.383 . S
C1504 C1505 1.377 . S
C1505 H1489 0.930 . S
C1505 C1504 1.377 . S
C1505 C1506 1.379 . S
C1506 H1490 0.931 . S
C1506 C1500 1.383 . S
C1506 C1505 1.379 . S
H1507 C1501 0.959 . S
H1508 C1501 0.961 . S
H1509 C1501 0.960 . S
H1510 C1502 0.930 . S
H1511 C1503 0.929 . S
H1512 C1520 0.929 . S
H1513 C1522 0.930 . S
H1514 C1524 0.930 . S
H1515 C1527 0.929 . S
H1516 C1530 0.930 . S
H1517 C1532 0.960 . S
H1518 C1532 0.960 . S
H1519 C1532 0.960 . S
C1520 H1512 0.929 . S
C1520 C1521 1.377 . S
C1520 C1522 1.384 . S
C1521 C1520 1.377 . S
C1521 C1527 1.390 . S
C1522 H1513 0.930 . S
C1522 C1520 1.384 . S
C1522 C1523 1.372 . S
C1523 C1522 1.372 . S
C1523 C1524 1.400 . S
C1523 C1528 1.490 . S
C1524 H1514 0.930 . S
C1524 C1523 1.400 . S
C1524 C1527 1.386 . S
H1525 C1541 0.930 . S
H1526 C1542 0.931 . S
C1527 H1515 0.929 . S
C1527 C1521 1.390 . S
C1527 C1524 1.386 . S
C1528 C1523 1.490 . S
C1528 C1530 1.395 . S
C1528 C1531 1.403 . S
H1529 C1535 0.930 . S
C1530 H1516 0.930 . S
C1530 C1528 1.395 . S
C1530 C1533 1.403 . S
C1531 C1528 1.403 . S
C1531 C1532 1.524 . S
C1531 C1535 1.400 . S
C1532 H1517 0.960 . S
C1532 H1518 0.960 . S
C1532 H1519 0.960 . S
C1532 C1531 1.524 . S
C1533 C1530 1.403 . S
C1533 C1534 1.392 . S
C1533 C1537 1.495 . S
C1534 C1533 1.392 . S
C1534 C1535 1.385 . S
C1534 C1536 1.478 . S
C1535 H1529 0.930 . S
C1535 C1531 1.400 . S
C1535 C1534 1.385 . S
C1536 C1534 1.478 . S
C1536 C1538 1.381 . S
C1536 C1542 1.383 . S
C1537 C1533 1.495 . S
C1537 H1543 0.959 . S
C1537 H1544 0.961 . S
C1537 H1545 0.960 . S
C1538 C1536 1.381 . S
C1538 C1539 1.394 . S
C1538 H1546 0.930 . S
C1539 C1538 1.394 . S
C1539 C1540 1.383 . S
C1539 H1547 0.929 . S
C1540 C1539 1.383 . S
C1540 C1541 1.377 . S
C1541 H1525 0.930 . S
C1541 C1540 1.377 . S
C1541 C1542 1.379 . S
C1542 H1526 0.931 . S
C1542 C1536 1.383 . S
C1542 C1541 1.379 . S
H1543 C1537 0.959 . S
H1544 C1537 0.961 . S
H1545 C1537 0.960 . S
H1546 C1538 0.930 . S
H1547 C1539 0.929 . S
H1548 C1556 0.929 . S
H1549 C1558 0.930 . S
H1550 C1560 0.930 . S
H1551 C1563 0.929 . S
H1552 C1566 0.930 . S
H1553 C1568 0.960 . S
H1554 C1568 0.960 . S
H1555 C1568 0.960 . S
C1556 H1548 0.929 . S
C1556 C1557 1.377 . S
C1556 C1558 1.384 . S
C1557 C1556 1.377 . S
C1557 C1563 1.390 . S
C1558 H1549 0.930 . S
C1558 C1556 1.384 . S
C1558 C1559 1.372 . S
C1559 C1558 1.372 . S
C1559 C1560 1.400 . S
C1559 C1564 1.490 . S
C1560 H1550 0.930 . S
C1560 C1559 1.400 . S
C1560 C1563 1.386 . S
H1561 C1577 0.930 . S
H1562 C1578 0.931 . S
C1563 H1551 0.929 . S
C1563 C1557 1.390 . S
C1563 C1560 1.386 . S
C1564 C1559 1.490 . S
C1564 C1566 1.395 . S
C1564 C1567 1.403 . S
H1565 C1571 0.930 . S
C1566 H1552 0.930 . S
C1566 C1564 1.395 . S
C1566 C1569 1.403 . S
C1567 C1564 1.403 . S
C1567 C1568 1.524 . S
C1567 C1571 1.400 . S
C1568 H1553 0.960 . S
C1568 H1554 0.960 . S
C1568 H1555 0.960 . S
C1568 C1567 1.524 . S
C1569 C1566 1.403 . S
C1569 C1570 1.392 . S
C1569 C1573 1.495 . S
C1570 C1569 1.392 . S
C1570 C1571 1.385 . S
C1570 C1572 1.478 . S
C1571 H1565 0.930 . S
C1571 C1567 1.400 . S
C1571 C1570 1.385 . S
C1572 C1570 1.478 . S
C1572 C1574 1.381 . S
C1572 C1578 1.383 . S
C1573 C1569 1.495 . S
C1573 H1579 0.959 . S
C1573 H1580 0.961 . S
C1573 H1581 0.960 . S
C1574 C1572 1.381 . S
C1574 C1575 1.394 . S
C1574 H1582 0.930 . S
C1575 C1574 1.394 . S
C1575 C1576 1.383 . S
C1575 H1583 0.929 . S
C1576 C1575 1.383 . S
C1576 C1577 1.377 . S
C1577 H1561 0.930 . S
C1577 C1576 1.377 . S
C1577 C1578 1.379 . S
C1578 H1562 0.931 . S
C1578 C1572 1.383 . S
C1578 C1577 1.379 . S
H1579 C1573 0.959 . S
H1580 C1573 0.961 . S
H1581 C1573 0.960 . S
H1582 C1574 0.930 . S
H1583 C1575 0.929 . S
H1584 C1592 0.929 . S
H1585 C1594 0.930 . S
H1586 C1596 0.930 . S
H1587 C1599 0.929 . S
H1588 C1602 0.930 . S
H1589 C1604 0.960 . S
H1590 C1604 0.960 . S
H1591 C1604 0.960 . S
C1592 H1584 0.929 . S
C1592 C1593 1.377 . S
C1592 C1594 1.384 . S
C1593 C1592 1.377 . S
C1593 C1599 1.390 . S
C1594 H1585 0.930 . S
C1594 C1592 1.384 . S
C1594 C1595 1.372 . S
C1595 C1594 1.372 . S
C1595 C1596 1.400 . S
C1595 C1600 1.490 . S
C1596 H1586 0.930 . S
C1596 C1595 1.400 . S
C1596 C1599 1.386 . S
H1597 C1613 0.930 . S
H1598 C1614 0.931 . S
C1599 H1587 0.929 . S
C1599 C1593 1.390 . S
C1599 C1596 1.386 . S
C1600 C1595 1.490 . S
C1600 C1602 1.395 . S
C1600 C1603 1.403 . S
H1601 C1607 0.930 . S
C1602 H1588 0.930 . S
C1602 C1600 1.395 . S
C1602 C1605 1.403 . S
C1603 C1600 1.403 . S
C1603 C1604 1.524 . S
C1603 C1607 1.400 . S
C1604 H1589 0.960 . S
C1604 H1590 0.960 . S
C1604 H1591 0.960 . S
C1604 C1603 1.524 . S
C1605 C1602 1.403 . S
C1605 C1606 1.392 . S
C1605 C1609 1.495 . S
C1606 C1605 1.392 . S
C1606 C1607 1.385 . S
C1606 C1608 1.478 . S
C1607 H1601 0.930 . S
C1607 C1603 1.400 . S
C1607 C1606 1.385 . S
C1608 C1606 1.478 . S
C1608 C1610 1.381 . S
C1608 C1614 1.383 . S
C1609 C1605 1.495 . S
C1609 H1615 0.959 . S
C1609 H1616 0.961 . S
C1609 H1617 0.960 . S
C1610 C1608 1.381 . S
C1610 C1611 1.394 . S
C1610 H1618 0.930 . S
C1611 C1610 1.394 . S
C1611 C1612 1.383 . S
C1611 H1619 0.929 1_556 S
C1612 C1611 1.383 . S
C1612 C1613 1.377 . S
C1613 H1597 0.930 . S
C1613 C1612 1.377 . S
C1613 C1614 1.379 . S
C1614 H1598 0.931 . S
C1614 C1608 1.383 . S
C1614 C1613 1.379 . S
H1615 C1609 0.959 . S
H1616 C1609 0.961 . S
H1617 C1609 0.960 . S
H1618 C1610 0.930 . S
H1619 C1611 0.929 1_554 S
H1620 C1628 0.929 . S
H1621 C1630 0.930 . S
H1622 C1632 0.930 . S
H1623 C1635 0.929 . S
H1624 C1638 0.930 . S
H1625 C1640 0.960 . S
H1626 C1640 0.960 . S
H1627 C1640 0.960 . S
C1628 H1620 0.929 . S
C1628 C1629 1.377 . S
C1628 C1630 1.384 . S
C1629 C1628 1.377 . S
C1629 C1635 1.390 . S
C1630 H1621 0.930 . S
C1630 C1628 1.384 . S
C1630 C1631 1.372 . S
C1631 C1630 1.372 . S
C1631 C1632 1.400 . S
C1631 C1636 1.490 . S
C1632 H1622 0.930 . S
C1632 C1631 1.400 . S
C1632 C1635 1.386 . S
H1633 C1649 0.930 . S
H1634 C1650 0.931 . S
C1635 H1623 0.929 . S
C1635 C1629 1.390 . S
C1635 C1632 1.386 . S
C1636 C1631 1.490 . S
C1636 C1638 1.395 . S
C1636 C1639 1.403 . S
H1637 C1643 0.930 . S
C1638 H1624 0.930 . S
C1638 C1636 1.395 . S
C1638 C1641 1.403 . S
C1639 C1636 1.403 . S
C1639 C1640 1.524 . S
C1639 C1643 1.400 . S
C1640 H1625 0.960 . S
C1640 H1626 0.960 . S
C1640 H1627 0.960 . S
C1640 C1639 1.524 . S
C1641 C1638 1.403 . S
C1641 C1642 1.392 . S
C1641 C1645 1.495 . S
C1642 C1641 1.392 . S
C1642 C1643 1.385 . S
C1642 C1644 1.478 . S
C1643 H1637 0.930 . S
C1643 C1639 1.400 . S
C1643 C1642 1.385 . S
C1644 C1642 1.478 . S
C1644 C1646 1.381 . S
C1644 C1650 1.383 . S
C1645 C1641 1.495 . S
C1645 H1651 0.959 . S
C1645 H1652 0.961 . S
C1645 H1653 0.960 . S
C1646 C1644 1.381 . S
C1646 C1647 1.394 1_554 S
C1646 H1654 0.930 . S
C1647 C1646 1.394 1_556 S
C1647 C1648 1.383 . S
C1647 H1655 0.929 . S
C1648 C1647 1.383 . S
C1648 C1649 1.377 . S
C1649 H1633 0.930 . S
C1649 C1648 1.377 . S
C1649 C1650 1.379 1_556 S
C1650 H1634 0.931 . S
C1650 C1644 1.383 . S
C1650 C1649 1.379 1_554 S
H1651 C1645 0.959 . S
H1652 C1645 0.961 . S
H1653 C1645 0.960 . S
H1654 C1646 0.930 . S
H1655 C1647 0.929 . S
H1656 C1664 0.929 . S
H1657 C1666 0.930 . S
H1658 C1668 0.930 . S
H1659 C1671 0.929 . S
H1660 C1674 0.930 . S
H1661 C1676 0.960 . S
H1662 C1676 0.960 . S
H1663 C1676 0.960 . S
C1664 H1656 0.929 . S
C1664 C1665 1.377 . S
C1664 C1666 1.384 . S
C1665 C1664 1.377 . S
C1665 C1671 1.390 . S
C1666 H1657 0.930 . S
C1666 C1664 1.384 . S
C1666 C1667 1.372 . S
C1667 C1666 1.372 . S
C1667 C1668 1.400 . S
C1667 C1672 1.490 . S
C1668 H1658 0.930 . S
C1668 C1667 1.400 . S
C1668 C1671 1.386 . S
H1669 C1685 0.930 . S
H1670 C1686 0.931 . S
C1671 H1659 0.929 . S
C1671 C1665 1.390 . S
C1671 C1668 1.386 . S
C1672 C1667 1.490 . S
C1672 C1674 1.395 . S
C1672 C1675 1.403 . S
H1673 C1679 0.930 . S
C1674 H1660 0.930 . S
C1674 C1672 1.395 . S
C1674 C1677 1.403 . S
C1675 C1672 1.403 . S
C1675 C1676 1.524 . S
C1675 C1679 1.400 . S
C1676 H1661 0.960 . S
C1676 H1662 0.960 . S
C1676 H1663 0.960 . S
C1676 C1675 1.524 . S
C1677 C1674 1.403 . S
C1677 C1678 1.392 . S
C1677 C1681 1.495 . S
C1678 C1677 1.392 . S
C1678 C1679 1.385 . S
C1678 C1680 1.478 . S
C1679 H1673 0.930 . S
C1679 C1675 1.400 . S
C1679 C1678 1.385 . S
C1680 C1678 1.478 . S
C1680 C1682 1.381 . S
C1680 C1686 1.383 . S
C1681 C1677 1.495 . S
C1681 H1687 0.959 . S
C1681 H1688 0.961 . S
C1681 H1689 0.960 . S
C1682 C1680 1.381 . S
C1682 C1683 1.394 . S
C1682 H1690 0.930 . S
C1683 C1682 1.394 . S
C1683 C1684 1.383 . S
C1683 H1691 0.929 . S
C1684 C1683 1.383 . S
C1684 C1685 1.377 . S
C1685 H1669 0.930 . S
C1685 C1684 1.377 . S
C1685 C1686 1.379 . S
C1686 H1670 0.931 . S
C1686 C1680 1.383 . S
C1686 C1685 1.379 . S
H1687 C1681 0.959 . S
H1688 C1681 0.961 . S
H1689 C1681 0.960 . S
H1690 C1682 0.930 . S
H1691 C1683 0.929 . S
H1692 C1700 0.929 . S
H1693 C1702 0.930 . S
H1694 C1704 0.930 . S
H1695 C1707 0.929 . S
H1696 C1710 0.930 . S
H1697 C1712 0.960 . S
H1698 C1712 0.960 . S
H1699 C1712 0.960 . S
C1700 H1692 0.929 . S
C1700 C1701 1.377 . S
C1700 C1702 1.384 . S
C1701 C1700 1.377 . S
C1701 C1707 1.390 . S
C1702 H1693 0.930 . S
C1702 C1700 1.384 . S
C1702 C1703 1.372 . S
C1703 C1702 1.372 . S
C1703 C1704 1.400 . S
C1703 C1708 1.490 . S
C1704 H1694 0.930 . S
C1704 C1703 1.400 . S
C1704 C1707 1.386 . S
H1705 C1721 0.930 . S
H1706 C1722 0.931 . S
C1707 H1695 0.929 . S
C1707 C1701 1.390 . S
C1707 C1704 1.386 . S
C1708 C1703 1.490 . S
C1708 C1710 1.395 . S
C1708 C1711 1.403 . S
H1709 C1715 0.930 . S
C1710 H1696 0.930 . S
C1710 C1708 1.395 . S
C1710 C1713 1.403 . S
C1711 C1708 1.403 . S
C1711 C1712 1.524 . S
C1711 C1715 1.400 . S
C1712 H1697 0.960 . S
C1712 H1698 0.960 . S
C1712 H1699 0.960 . S
C1712 C1711 1.524 . S
C1713 C1710 1.403 . S
C1713 C1714 1.392 . S
C1713 C1717 1.495 . S
C1714 C1713 1.392 . S
C1714 C1715 1.385 . S
C1714 C1716 1.478 . S
C1715 H1709 0.930 . S
C1715 C1711 1.400 . S
C1715 C1714 1.385 . S
C1716 C1714 1.478 . S
C1716 C1718 1.381 . S
C1716 C1722 1.383 . S
C1717 C1713 1.495 . S
C1717 H1723 0.959 . S
C1717 H1724 0.961 . S
C1717 H1725 0.960 . S
C1718 C1716 1.381 . S
C1718 C1719 1.394 . S
C1718 H1726 0.930 . S
C1719 C1718 1.394 . S
C1719 C1720 1.383 . S
C1719 H1727 0.929 . S
C1720 C1719 1.383 . S
C1720 C1721 1.377 . S
C1721 H1705 0.930 . S
C1721 C1720 1.377 . S
C1721 C1722 1.379 . S
C1722 H1706 0.931 . S
C1722 C1716 1.383 . S
C1722 C1721 1.379 . S
H1723 C1717 0.959 . S
H1724 C1717 0.961 . S
H1725 C1717 0.960 . S
H1726 C1718 0.930 . S
H1727 C1719 0.929 . S
C765 C70 1.116 . S
C784 C658 1.104 . S
C801 C151 2.197 . S
C820 C739 2.199 . S
C837 C238 1.341 . S
C856 C571 1.531 . S
C873 C403 2.240 . S
C892 C235 2.245 . S
C909 C487 2.196 . S
C928 C67 2.185 . S
C945 C154 1.913 . S
C964 C319 2.152 . S
C981 C655 1.513 . S
C1000 C490 1.388 . S
C1017 C742 1.268 . S
C1036 C322 1.308 . S
C1053 C406 1.521 . S
C1072 C574 1.534 . S
C1089 C226 1.334 . S
C1108 C55 1.643 . S
C1125 C142 1.133 . S
C1144 C58 1.170 . S
C1161 C139 2.892 . S
C1180 C223 2.912 1_554 S
C1197 C310 1.567 . S
C1216 C475 1.945 . S
C1233 C307 1.998 . S
C1252 C394 1.624 . S
C1269 C391 1.877 . S
C1288 C478 1.396 . S
C1305 C730 1.704 . S
C1324 C559 2.174 . S
C1341 C646 0.769 . S
C1360 C562 0.677 . S
C1377 C727 2.013 . S
C1396 C643 1.986 . S
C1413 C56 1.394 . S
C1432 C68 1.410 . S
C1449 C152 1.404 . S
C1468 C140 1.380 . S
C1485 C224 1.434 . S
C1504 C236 1.443 . S
C1521 C308 1.406 . S
C1540 C320 1.409 1_556 S
C1557 C392 1.397 . S
C1576 C404 1.392 . S
C1593 C476 1.429 . S
C1612 C488 1.419 1_556 S
C1629 C560 1.389 . S
C1648 C572 1.374 . S
C1665 C644 1.383 1_554 S
C1684 C656 1.362 . S
C1701 C728 1.406 . S
C1720 C740 1.382 1_554 S
