# Generated by pormake.
# Topology ulh, (4)-cn, num edge types: 1
# Building blocks:
#     Node 0, Type 0, BuildingBlock: NAWXER_clean_sbu_0, # of connection points: 4
#     Node 1, Type 0, BuildingBlock: NAWXER_clean_sbu_0, # of connection points: 4
#     Node 2, Type 0, BuildingBlock: NAWXER_clean_sbu_0, # of connection points: 4
#     Node 3, Type 0, BuildingBlock: NAWXER_clean_sbu_0, # of connection points: 4
#     Node 4, Type 0, BuildingBlock: NAWXER_clean_sbu_0, # of connection points: 4
#     Node 5, Type 0, BuildingBlock: NAWXER_clean_sbu_0, # of connection points: 4
#     Node 6, Type 0, BuildingBlock: NAWXER_clean_sbu_0, # of connection points: 4
#     Node 7, Type 0, BuildingBlock: NAWXER_clean_sbu_0, # of connection points: 4
#     Node 8, Type 0, BuildingBlock: NAWXER_clean_sbu_0, # of connection points: 4
#     Node 9, Type 0, BuildingBlock: NAWXER_clean_sbu_0, # of connection points: 4
#     Node 10, Type 0, BuildingBlock: NAWXER_clean_sbu_0, # of connection points: 4
#     Node 11, Type 0, BuildingBlock: NAWXER_clean_sbu_0, # of connection points: 4
#     Node 12, Type 0, BuildingBlock: NAWXER_clean_sbu_0, # of connection points: 4
#     Node 13, Type 0, BuildingBlock: NAWXER_clean_sbu_0, # of connection points: 4
#     Node 14, Type 0, BuildingBlock: NAWXER_clean_sbu_0, # of connection points: 4
#     Node 15, Type 0, BuildingBlock: NAWXER_clean_sbu_0, # of connection points: 4
#     Node 16, Type 0, BuildingBlock: NAWXER_clean_sbu_0, # of connection points: 4
#     Node 17, Type 0, BuildingBlock: NAWXER_clean_sbu_0, # of connection points: 4
#     Node 18, Type 0, BuildingBlock: NAWXER_clean_sbu_0, # of connection points: 4
#     Node 19, Type 0, BuildingBlock: NAWXER_clean_sbu_0, # of connection points: 4
#     Node 20, Type 0, BuildingBlock: NAWXER_clean_sbu_0, # of connection points: 4
#     Node 21, Type 0, BuildingBlock: NAWXER_clean_sbu_0, # of connection points: 4
#     Node 22, Type 0, BuildingBlock: NAWXER_clean_sbu_0, # of connection points: 4
#     Node 23, Type 0, BuildingBlock: NAWXER_clean_sbu_0, # of connection points: 4
#     Node 24, Type 0, BuildingBlock: NAWXER_clean_sbu_0, # of connection points: 4
#     Node 25, Type 0, BuildingBlock: NAWXER_clean_sbu_0, # of connection points: 4
#     Node 26, Type 0, BuildingBlock: NAWXER_clean_sbu_0, # of connection points: 4
#     Node 27, Type 0, BuildingBlock: NAWXER_clean_sbu_0, # of connection points: 4
#     Node 28, Type 0, BuildingBlock: NAWXER_clean_sbu_0, # of connection points: 4
#     Node 29, Type 0, BuildingBlock: NAWXER_clean_sbu_0, # of connection points: 4
#     Node 30, Type 0, BuildingBlock: NAWXER_clean_sbu_0, # of connection points: 4
#     Node 31, Type 0, BuildingBlock: NAWXER_clean_sbu_0, # of connection points: 4
#     Node 32, Type 0, BuildingBlock: NAWXER_clean_sbu_0, # of connection points: 4
#     Node 33, Type 0, BuildingBlock: NAWXER_clean_sbu_0, # of connection points: 4
#     Node 34, Type 0, BuildingBlock: NAWXER_clean_sbu_0, # of connection points: 4
#     Node 35, Type 0, BuildingBlock: NAWXER_clean_sbu_0, # of connection points: 4
#     Node 36, Type 0, BuildingBlock: NAWXER_clean_sbu_0, # of connection points: 4
#     Node 37, Type 0, BuildingBlock: NAWXER_clean_sbu_0, # of connection points: 4
#     Node 38, Type 0, BuildingBlock: NAWXER_clean_sbu_0, # of connection points: 4
#     Node 39, Type 0, BuildingBlock: NAWXER_clean_sbu_0, # of connection points: 4
#     Node 40, Type 0, BuildingBlock: NAWXER_clean_sbu_0, # of connection points: 4
#     Node 41, Type 0, BuildingBlock: NAWXER_clean_sbu_0, # of connection points: 4
#     Node 42, Type 0, BuildingBlock: NAWXER_clean_sbu_0, # of connection points: 4
#     Node 43, Type 0, BuildingBlock: NAWXER_clean_sbu_0, # of connection points: 4
#     Node 44, Type 0, BuildingBlock: NAWXER_clean_sbu_0, # of connection points: 4
#     Node 45, Type 0, BuildingBlock: NAWXER_clean_sbu_0, # of connection points: 4
#     Node 46, Type 0, BuildingBlock: NAWXER_clean_sbu_0, # of connection points: 4
#     Node 47, Type 0, BuildingBlock: NAWXER_clean_sbu_0, # of connection points: 4
#     Node 48, Type 0, BuildingBlock: NAWXER_clean_sbu_0, # of connection points: 4
#     Node 49, Type 0, BuildingBlock: NAWXER_clean_sbu_0, # of connection points: 4
#     Node 50, Type 0, BuildingBlock: NAWXER_clean_sbu_0, # of connection points: 4
#     Node 51, Type 0, BuildingBlock: NAWXER_clean_sbu_0, # of connection points: 4
#     Node 52, Type 0, BuildingBlock: NAWXER_clean_sbu_0, # of connection points: 4
#     Node 53, Type 0, BuildingBlock: NAWXER_clean_sbu_0, # of connection points: 4
#     Node 54, Type 0, BuildingBlock: NAWXER_clean_sbu_0, # of connection points: 4
#     Node 55, Type 0, BuildingBlock: NAWXER_clean_sbu_0, # of connection points: 4
#     Node 56, Type 0, BuildingBlock: NAWXER_clean_sbu_0, # of connection points: 4
#     Node 57, Type 0, BuildingBlock: NAWXER_clean_sbu_0, # of connection points: 4
#     Node 58, Type 0, BuildingBlock: NAWXER_clean_sbu_0, # of connection points: 4
#     Node 59, Type 0, BuildingBlock: NAWXER_clean_sbu_0, # of connection points: 4
#     Node 60, Type 0, BuildingBlock: NAWXER_clean_sbu_0, # of connection points: 4
#     Node 61, Type 0, BuildingBlock: NAWXER_clean_sbu_0, # of connection points: 4
#     Node 62, Type 0, BuildingBlock: NAWXER_clean_sbu_0, # of connection points: 4
#     Node 63, Type 0, BuildingBlock: NAWXER_clean_sbu_0, # of connection points: 4
#     Node 64, Type 0, BuildingBlock: NAWXER_clean_sbu_0, # of connection points: 4
#     Node 65, Type 0, BuildingBlock: NAWXER_clean_sbu_0, # of connection points: 4
#     Node 66, Type 0, BuildingBlock: NAWXER_clean_sbu_0, # of connection points: 4
#     Node 67, Type 0, BuildingBlock: NAWXER_clean_sbu_0, # of connection points: 4
#     Node 68, Type 0, BuildingBlock: NAWXER_clean_sbu_0, # of connection points: 4
#     Node 69, Type 0, BuildingBlock: NAWXER_clean_sbu_0, # of connection points: 4
#     Node 70, Type 0, BuildingBlock: NAWXER_clean_sbu_0, # of connection points: 4
#     Node 71, Type 0, BuildingBlock: NAWXER_clean_sbu_0, # of connection points: 4
#     Node 72, Type 0, BuildingBlock: NAWXER_clean_sbu_0, # of connection points: 4
#     Node 73, Type 0, BuildingBlock: NAWXER_clean_sbu_0, # of connection points: 4
#     Node 74, Type 0, BuildingBlock: NAWXER_clean_sbu_0, # of connection points: 4
#     Node 75, Type 0, BuildingBlock: NAWXER_clean_sbu_0, # of connection points: 4
#     Node 76, Type 0, BuildingBlock: NAWXER_clean_sbu_0, # of connection points: 4
#     Node 77, Type 0, BuildingBlock: NAWXER_clean_sbu_0, # of connection points: 4
#     Node 78, Type 0, BuildingBlock: NAWXER_clean_sbu_0, # of connection points: 4
#     Node 79, Type 0, BuildingBlock: NAWXER_clean_sbu_0, # of connection points: 4
#     Node 80, Type 0, BuildingBlock: NAWXER_clean_sbu_0, # of connection points: 4
#     Node 81, Type 0, BuildingBlock: NAWXER_clean_sbu_0, # of connection points: 4
#     Node 82, Type 0, BuildingBlock: NAWXER_clean_sbu_0, # of connection points: 4
#     Node 83, Type 0, BuildingBlock: NAWXER_clean_sbu_0, # of connection points: 4
#     Node 84, Type 0, BuildingBlock: NAWXER_clean_sbu_0, # of connection points: 4
#     Node 85, Type 0, BuildingBlock: NAWXER_clean_sbu_0, # of connection points: 4
#     Node 86, Type 0, BuildingBlock: NAWXER_clean_sbu_0, # of connection points: 4
#     Node 87, Type 0, BuildingBlock: NAWXER_clean_sbu_0, # of connection points: 4
#     Node 88, Type 0, BuildingBlock: NAWXER_clean_sbu_0, # of connection points: 4
#     Node 89, Type 0, BuildingBlock: NAWXER_clean_sbu_0, # of connection points: 4
#     Node 90, Type 0, BuildingBlock: NAWXER_clean_sbu_0, # of connection points: 4
#     Node 91, Type 0, BuildingBlock: NAWXER_clean_sbu_0, # of connection points: 4
#     Node 92, Type 0, BuildingBlock: NAWXER_clean_sbu_0, # of connection points: 4
#     Node 93, Type 0, BuildingBlock: NAWXER_clean_sbu_0, # of connection points: 4
#     Node 94, Type 0, BuildingBlock: NAWXER_clean_sbu_0, # of connection points: 4
#     Node 95, Type 0, BuildingBlock: NAWXER_clean_sbu_0, # of connection points: 4
#     Edge 96, Type (0, 0), BuildingBlock: CIFDUS_clean_linker_0, # of connection points: 2
#     Edge 97, Type (0, 0), BuildingBlock: CIFDUS_clean_linker_0, # of connection points: 2
#     Edge 98, Type (0, 0), BuildingBlock: CIFDUS_clean_linker_0, # of connection points: 2
#     Edge 99, Type (0, 0), BuildingBlock: CIFDUS_clean_linker_0, # of connection points: 2
#     Edge 100, Type (0, 0), BuildingBlock: CIFDUS_clean_linker_0, # of connection points: 2
#     Edge 101, Type (0, 0), BuildingBlock: CIFDUS_clean_linker_0, # of connection points: 2
#     Edge 102, Type (0, 0), BuildingBlock: CIFDUS_clean_linker_0, # of connection points: 2
#     Edge 103, Type (0, 0), BuildingBlock: CIFDUS_clean_linker_0, # of connection points: 2
#     Edge 104, Type (0, 0), BuildingBlock: CIFDUS_clean_linker_0, # of connection points: 2
#     Edge 105, Type (0, 0), BuildingBlock: CIFDUS_clean_linker_0, # of connection points: 2
#     Edge 106, Type (0, 0), BuildingBlock: CIFDUS_clean_linker_0, # of connection points: 2
#     Edge 107, Type (0, 0), BuildingBlock: CIFDUS_clean_linker_0, # of connection points: 2
#     Edge 108, Type (0, 0), BuildingBlock: CIFDUS_clean_linker_0, # of connection points: 2
#     Edge 109, Type (0, 0), BuildingBlock: CIFDUS_clean_linker_0, # of connection points: 2
#     Edge 110, Type (0, 0), BuildingBlock: CIFDUS_clean_linker_0, # of connection points: 2
#     Edge 111, Type (0, 0), BuildingBlock: CIFDUS_clean_linker_0, # of connection points: 2
#     Edge 112, Type (0, 0), BuildingBlock: CIFDUS_clean_linker_0, # of connection points: 2
#     Edge 113, Type (0, 0), BuildingBlock: CIFDUS_clean_linker_0, # of connection points: 2
#     Edge 114, Type (0, 0), BuildingBlock: CIFDUS_clean_linker_0, # of connection points: 2
#     Edge 115, Type (0, 0), BuildingBlock: CIFDUS_clean_linker_0, # of connection points: 2
#     Edge 116, Type (0, 0), BuildingBlock: CIFDUS_clean_linker_0, # of connection points: 2
#     Edge 117, Type (0, 0), BuildingBlock: CIFDUS_clean_linker_0, # of connection points: 2
#     Edge 118, Type (0, 0), BuildingBlock: CIFDUS_clean_linker_0, # of connection points: 2
#     Edge 119, Type (0, 0), BuildingBlock: CIFDUS_clean_linker_0, # of connection points: 2
#     Edge 120, Type (0, 0), BuildingBlock: CIFDUS_clean_linker_0, # of connection points: 2
#     Edge 121, Type (0, 0), BuildingBlock: CIFDUS_clean_linker_0, # of connection points: 2
#     Edge 122, Type (0, 0), BuildingBlock: CIFDUS_clean_linker_0, # of connection points: 2
#     Edge 123, Type (0, 0), BuildingBlock: CIFDUS_clean_linker_0, # of connection points: 2
#     Edge 124, Type (0, 0), BuildingBlock: CIFDUS_clean_linker_0, # of connection points: 2
#     Edge 125, Type (0, 0), BuildingBlock: CIFDUS_clean_linker_0, # of connection points: 2
#     Edge 126, Type (0, 0), BuildingBlock: CIFDUS_clean_linker_0, # of connection points: 2
#     Edge 127, Type (0, 0), BuildingBlock: CIFDUS_clean_linker_0, # of connection points: 2
#     Edge 128, Type (0, 0), BuildingBlock: CIFDUS_clean_linker_0, # of connection points: 2
#     Edge 129, Type (0, 0), BuildingBlock: CIFDUS_clean_linker_0, # of connection points: 2
#     Edge 130, Type (0, 0), BuildingBlock: CIFDUS_clean_linker_0, # of connection points: 2
#     Edge 131, Type (0, 0), BuildingBlock: CIFDUS_clean_linker_0, # of connection points: 2
#     Edge 132, Type (0, 0), BuildingBlock: CIFDUS_clean_linker_0, # of connection points: 2
#     Edge 133, Type (0, 0), BuildingBlock: CIFDUS_clean_linker_0, # of connection points: 2
#     Edge 134, Type (0, 0), BuildingBlock: CIFDUS_clean_linker_0, # of connection points: 2
#     Edge 135, Type (0, 0), BuildingBlock: CIFDUS_clean_linker_0, # of connection points: 2
#     Edge 136, Type (0, 0), BuildingBlock: CIFDUS_clean_linker_0, # of connection points: 2
#     Edge 137, Type (0, 0), BuildingBlock: CIFDUS_clean_linker_0, # of connection points: 2
#     Edge 138, Type (0, 0), BuildingBlock: CIFDUS_clean_linker_0, # of connection points: 2
#     Edge 139, Type (0, 0), BuildingBlock: CIFDUS_clean_linker_0, # of connection points: 2
#     Edge 140, Type (0, 0), BuildingBlock: CIFDUS_clean_linker_0, # of connection points: 2
#     Edge 141, Type (0, 0), BuildingBlock: CIFDUS_clean_linker_0, # of connection points: 2
#     Edge 142, Type (0, 0), BuildingBlock: CIFDUS_clean_linker_0, # of connection points: 2
#     Edge 143, Type (0, 0), BuildingBlock: CIFDUS_clean_linker_0, # of connection points: 2
#     Edge 144, Type (0, 0), BuildingBlock: CIFDUS_clean_linker_0, # of connection points: 2
#     Edge 145, Type (0, 0), BuildingBlock: CIFDUS_clean_linker_0, # of connection points: 2
#     Edge 146, Type (0, 0), BuildingBlock: CIFDUS_clean_linker_0, # of connection points: 2
#     Edge 147, Type (0, 0), BuildingBlock: CIFDUS_clean_linker_0, # of connection points: 2
#     Edge 148, Type (0, 0), BuildingBlock: CIFDUS_clean_linker_0, # of connection points: 2
#     Edge 149, Type (0, 0), BuildingBlock: CIFDUS_clean_linker_0, # of connection points: 2
#     Edge 150, Type (0, 0), BuildingBlock: CIFDUS_clean_linker_0, # of connection points: 2
#     Edge 151, Type (0, 0), BuildingBlock: CIFDUS_clean_linker_0, # of connection points: 2
#     Edge 152, Type (0, 0), BuildingBlock: CIFDUS_clean_linker_0, # of connection points: 2
#     Edge 153, Type (0, 0), BuildingBlock: CIFDUS_clean_linker_0, # of connection points: 2
#     Edge 154, Type (0, 0), BuildingBlock: CIFDUS_clean_linker_0, # of connection points: 2
#     Edge 155, Type (0, 0), BuildingBlock: CIFDUS_clean_linker_0, # of connection points: 2
#     Edge 156, Type (0, 0), BuildingBlock: CIFDUS_clean_linker_0, # of connection points: 2
#     Edge 157, Type (0, 0), BuildingBlock: CIFDUS_clean_linker_0, # of connection points: 2
#     Edge 158, Type (0, 0), BuildingBlock: CIFDUS_clean_linker_0, # of connection points: 2
#     Edge 159, Type (0, 0), BuildingBlock: CIFDUS_clean_linker_0, # of connection points: 2
#     Edge 160, Type (0, 0), BuildingBlock: CIFDUS_clean_linker_0, # of connection points: 2
#     Edge 161, Type (0, 0), BuildingBlock: CIFDUS_clean_linker_0, # of connection points: 2
#     Edge 162, Type (0, 0), BuildingBlock: CIFDUS_clean_linker_0, # of connection points: 2
#     Edge 163, Type (0, 0), BuildingBlock: CIFDUS_clean_linker_0, # of connection points: 2
#     Edge 164, Type (0, 0), BuildingBlock: CIFDUS_clean_linker_0, # of connection points: 2
#     Edge 165, Type (0, 0), BuildingBlock: CIFDUS_clean_linker_0, # of connection points: 2
#     Edge 166, Type (0, 0), BuildingBlock: CIFDUS_clean_linker_0, # of connection points: 2
#     Edge 167, Type (0, 0), BuildingBlock: CIFDUS_clean_linker_0, # of connection points: 2
#     Edge 168, Type (0, 0), BuildingBlock: CIFDUS_clean_linker_0, # of connection points: 2
#     Edge 169, Type (0, 0), BuildingBlock: CIFDUS_clean_linker_0, # of connection points: 2
#     Edge 170, Type (0, 0), BuildingBlock: CIFDUS_clean_linker_0, # of connection points: 2
#     Edge 171, Type (0, 0), BuildingBlock: CIFDUS_clean_linker_0, # of connection points: 2
#     Edge 172, Type (0, 0), BuildingBlock: CIFDUS_clean_linker_0, # of connection points: 2
#     Edge 173, Type (0, 0), BuildingBlock: CIFDUS_clean_linker_0, # of connection points: 2
#     Edge 174, Type (0, 0), BuildingBlock: CIFDUS_clean_linker_0, # of connection points: 2
#     Edge 175, Type (0, 0), BuildingBlock: CIFDUS_clean_linker_0, # of connection points: 2
#     Edge 176, Type (0, 0), BuildingBlock: CIFDUS_clean_linker_0, # of connection points: 2
#     Edge 177, Type (0, 0), BuildingBlock: CIFDUS_clean_linker_0, # of connection points: 2
#     Edge 178, Type (0, 0), BuildingBlock: CIFDUS_clean_linker_0, # of connection points: 2
#     Edge 179, Type (0, 0), BuildingBlock: CIFDUS_clean_linker_0, # of connection points: 2
#     Edge 180, Type (0, 0), BuildingBlock: CIFDUS_clean_linker_0, # of connection points: 2
#     Edge 181, Type (0, 0), BuildingBlock: CIFDUS_clean_linker_0, # of connection points: 2
#     Edge 182, Type (0, 0), BuildingBlock: CIFDUS_clean_linker_0, # of connection points: 2
#     Edge 183, Type (0, 0), BuildingBlock: CIFDUS_clean_linker_0, # of connection points: 2
#     Edge 184, Type (0, 0), BuildingBlock: CIFDUS_clean_linker_0, # of connection points: 2
#     Edge 185, Type (0, 0), BuildingBlock: CIFDUS_clean_linker_0, # of connection points: 2
#     Edge 186, Type (0, 0), BuildingBlock: CIFDUS_clean_linker_0, # of connection points: 2
#     Edge 187, Type (0, 0), BuildingBlock: CIFDUS_clean_linker_0, # of connection points: 2
#     Edge 188, Type (0, 0), BuildingBlock: CIFDUS_clean_linker_0, # of connection points: 2
#     Edge 189, Type (0, 0), BuildingBlock: CIFDUS_clean_linker_0, # of connection points: 2
#     Edge 190, Type (0, 0), BuildingBlock: CIFDUS_clean_linker_0, # of connection points: 2
#     Edge 191, Type (0, 0), BuildingBlock: CIFDUS_clean_linker_0, # of connection points: 2
#     Edge 192, Type (0, 0), BuildingBlock: CIFDUS_clean_linker_0, # of connection points: 2
#     Edge 193, Type (0, 0), BuildingBlock: CIFDUS_clean_linker_0, # of connection points: 2
#     Edge 194, Type (0, 0), BuildingBlock: CIFDUS_clean_linker_0, # of connection points: 2
#     Edge 195, Type (0, 0), BuildingBlock: CIFDUS_clean_linker_0, # of connection points: 2
#     Edge 196, Type (0, 0), BuildingBlock: CIFDUS_clean_linker_0, # of connection points: 2
#     Edge 197, Type (0, 0), BuildingBlock: CIFDUS_clean_linker_0, # of connection points: 2
#     Edge 198, Type (0, 0), BuildingBlock: CIFDUS_clean_linker_0, # of connection points: 2
#     Edge 199, Type (0, 0), BuildingBlock: CIFDUS_clean_linker_0, # of connection points: 2
#     Edge 200, Type (0, 0), BuildingBlock: CIFDUS_clean_linker_0, # of connection points: 2
#     Edge 201, Type (0, 0), BuildingBlock: CIFDUS_clean_linker_0, # of connection points: 2
#     Edge 202, Type (0, 0), BuildingBlock: CIFDUS_clean_linker_0, # of connection points: 2
#     Edge 203, Type (0, 0), BuildingBlock: CIFDUS_clean_linker_0, # of connection points: 2
#     Edge 204, Type (0, 0), BuildingBlock: CIFDUS_clean_linker_0, # of connection points: 2
#     Edge 205, Type (0, 0), BuildingBlock: CIFDUS_clean_linker_0, # of connection points: 2
#     Edge 206, Type (0, 0), BuildingBlock: CIFDUS_clean_linker_0, # of connection points: 2
#     Edge 207, Type (0, 0), BuildingBlock: CIFDUS_clean_linker_0, # of connection points: 2
#     Edge 208, Type (0, 0), BuildingBlock: CIFDUS_clean_linker_0, # of connection points: 2
#     Edge 209, Type (0, 0), BuildingBlock: CIFDUS_clean_linker_0, # of connection points: 2
#     Edge 210, Type (0, 0), BuildingBlock: CIFDUS_clean_linker_0, # of connection points: 2
#     Edge 211, Type (0, 0), BuildingBlock: CIFDUS_clean_linker_0, # of connection points: 2
#     Edge 212, Type (0, 0), BuildingBlock: CIFDUS_clean_linker_0, # of connection points: 2
#     Edge 213, Type (0, 0), BuildingBlock: CIFDUS_clean_linker_0, # of connection points: 2
#     Edge 214, Type (0, 0), BuildingBlock: CIFDUS_clean_linker_0, # of connection points: 2
#     Edge 215, Type (0, 0), BuildingBlock: CIFDUS_clean_linker_0, # of connection points: 2
#     Edge 216, Type (0, 0), BuildingBlock: CIFDUS_clean_linker_0, # of connection points: 2
#     Edge 217, Type (0, 0), BuildingBlock: CIFDUS_clean_linker_0, # of connection points: 2
#     Edge 218, Type (0, 0), BuildingBlock: CIFDUS_clean_linker_0, # of connection points: 2
#     Edge 219, Type (0, 0), BuildingBlock: CIFDUS_clean_linker_0, # of connection points: 2
#     Edge 220, Type (0, 0), BuildingBlock: CIFDUS_clean_linker_0, # of connection points: 2
#     Edge 221, Type (0, 0), BuildingBlock: CIFDUS_clean_linker_0, # of connection points: 2
#     Edge 222, Type (0, 0), BuildingBlock: CIFDUS_clean_linker_0, # of connection points: 2
#     Edge 223, Type (0, 0), BuildingBlock: CIFDUS_clean_linker_0, # of connection points: 2
#     Edge 224, Type (0, 0), BuildingBlock: CIFDUS_clean_linker_0, # of connection points: 2
#     Edge 225, Type (0, 0), BuildingBlock: CIFDUS_clean_linker_0, # of connection points: 2
#     Edge 226, Type (0, 0), BuildingBlock: CIFDUS_clean_linker_0, # of connection points: 2
#     Edge 227, Type (0, 0), BuildingBlock: CIFDUS_clean_linker_0, # of connection points: 2
#     Edge 228, Type (0, 0), BuildingBlock: CIFDUS_clean_linker_0, # of connection points: 2
#     Edge 229, Type (0, 0), BuildingBlock: CIFDUS_clean_linker_0, # of connection points: 2
#     Edge 230, Type (0, 0), BuildingBlock: CIFDUS_clean_linker_0, # of connection points: 2
#     Edge 231, Type (0, 0), BuildingBlock: CIFDUS_clean_linker_0, # of connection points: 2
#     Edge 232, Type (0, 0), BuildingBlock: CIFDUS_clean_linker_0, # of connection points: 2
#     Edge 233, Type (0, 0), BuildingBlock: CIFDUS_clean_linker_0, # of connection points: 2
#     Edge 234, Type (0, 0), BuildingBlock: CIFDUS_clean_linker_0, # of connection points: 2
#     Edge 235, Type (0, 0), BuildingBlock: CIFDUS_clean_linker_0, # of connection points: 2
#     Edge 236, Type (0, 0), BuildingBlock: CIFDUS_clean_linker_0, # of connection points: 2
#     Edge 237, Type (0, 0), BuildingBlock: CIFDUS_clean_linker_0, # of connection points: 2
#     Edge 238, Type (0, 0), BuildingBlock: CIFDUS_clean_linker_0, # of connection points: 2
#     Edge 239, Type (0, 0), BuildingBlock: CIFDUS_clean_linker_0, # of connection points: 2
#     Edge 240, Type (0, 0), BuildingBlock: CIFDUS_clean_linker_0, # of connection points: 2
#     Edge 241, Type (0, 0), BuildingBlock: CIFDUS_clean_linker_0, # of connection points: 2
#     Edge 242, Type (0, 0), BuildingBlock: CIFDUS_clean_linker_0, # of connection points: 2
#     Edge 243, Type (0, 0), BuildingBlock: CIFDUS_clean_linker_0, # of connection points: 2
#     Edge 244, Type (0, 0), BuildingBlock: CIFDUS_clean_linker_0, # of connection points: 2
#     Edge 245, Type (0, 0), BuildingBlock: CIFDUS_clean_linker_0, # of connection points: 2
#     Edge 246, Type (0, 0), BuildingBlock: CIFDUS_clean_linker_0, # of connection points: 2
#     Edge 247, Type (0, 0), BuildingBlock: CIFDUS_clean_linker_0, # of connection points: 2
#     Edge 248, Type (0, 0), BuildingBlock: CIFDUS_clean_linker_0, # of connection points: 2
#     Edge 249, Type (0, 0), BuildingBlock: CIFDUS_clean_linker_0, # of connection points: 2
#     Edge 250, Type (0, 0), BuildingBlock: CIFDUS_clean_linker_0, # of connection points: 2
#     Edge 251, Type (0, 0), BuildingBlock: CIFDUS_clean_linker_0, # of connection points: 2
#     Edge 252, Type (0, 0), BuildingBlock: CIFDUS_clean_linker_0, # of connection points: 2
#     Edge 253, Type (0, 0), BuildingBlock: CIFDUS_clean_linker_0, # of connection points: 2
#     Edge 254, Type (0, 0), BuildingBlock: CIFDUS_clean_linker_0, # of connection points: 2
#     Edge 255, Type (0, 0), BuildingBlock: CIFDUS_clean_linker_0, # of connection points: 2
#     Edge 256, Type (0, 0), BuildingBlock: CIFDUS_clean_linker_0, # of connection points: 2
#     Edge 257, Type (0, 0), BuildingBlock: CIFDUS_clean_linker_0, # of connection points: 2
#     Edge 258, Type (0, 0), BuildingBlock: CIFDUS_clean_linker_0, # of connection points: 2
#     Edge 259, Type (0, 0), BuildingBlock: CIFDUS_clean_linker_0, # of connection points: 2
#     Edge 260, Type (0, 0), BuildingBlock: CIFDUS_clean_linker_0, # of connection points: 2
#     Edge 261, Type (0, 0), BuildingBlock: CIFDUS_clean_linker_0, # of connection points: 2
#     Edge 262, Type (0, 0), BuildingBlock: CIFDUS_clean_linker_0, # of connection points: 2
#     Edge 263, Type (0, 0), BuildingBlock: CIFDUS_clean_linker_0, # of connection points: 2
#     Edge 264, Type (0, 0), BuildingBlock: CIFDUS_clean_linker_0, # of connection points: 2
#     Edge 265, Type (0, 0), BuildingBlock: CIFDUS_clean_linker_0, # of connection points: 2
#     Edge 266, Type (0, 0), BuildingBlock: CIFDUS_clean_linker_0, # of connection points: 2
#     Edge 267, Type (0, 0), BuildingBlock: CIFDUS_clean_linker_0, # of connection points: 2
#     Edge 268, Type (0, 0), BuildingBlock: CIFDUS_clean_linker_0, # of connection points: 2
#     Edge 269, Type (0, 0), BuildingBlock: CIFDUS_clean_linker_0, # of connection points: 2
#     Edge 270, Type (0, 0), BuildingBlock: CIFDUS_clean_linker_0, # of connection points: 2
#     Edge 271, Type (0, 0), BuildingBlock: CIFDUS_clean_linker_0, # of connection points: 2
#     Edge 272, Type (0, 0), BuildingBlock: CIFDUS_clean_linker_0, # of connection points: 2
#     Edge 273, Type (0, 0), BuildingBlock: CIFDUS_clean_linker_0, # of connection points: 2
#     Edge 274, Type (0, 0), BuildingBlock: CIFDUS_clean_linker_0, # of connection points: 2
#     Edge 275, Type (0, 0), BuildingBlock: CIFDUS_clean_linker_0, # of connection points: 2
#     Edge 276, Type (0, 0), BuildingBlock: CIFDUS_clean_linker_0, # of connection points: 2
#     Edge 277, Type (0, 0), BuildingBlock: CIFDUS_clean_linker_0, # of connection points: 2
#     Edge 278, Type (0, 0), BuildingBlock: CIFDUS_clean_linker_0, # of connection points: 2
#     Edge 279, Type (0, 0), BuildingBlock: CIFDUS_clean_linker_0, # of connection points: 2
#     Edge 280, Type (0, 0), BuildingBlock: CIFDUS_clean_linker_0, # of connection points: 2
#     Edge 281, Type (0, 0), BuildingBlock: CIFDUS_clean_linker_0, # of connection points: 2
#     Edge 282, Type (0, 0), BuildingBlock: CIFDUS_clean_linker_0, # of connection points: 2
#     Edge 283, Type (0, 0), BuildingBlock: CIFDUS_clean_linker_0, # of connection points: 2
#     Edge 284, Type (0, 0), BuildingBlock: CIFDUS_clean_linker_0, # of connection points: 2
#     Edge 285, Type (0, 0), BuildingBlock: CIFDUS_clean_linker_0, # of connection points: 2
#     Edge 286, Type (0, 0), BuildingBlock: CIFDUS_clean_linker_0, # of connection points: 2
#     Edge 287, Type (0, 0), BuildingBlock: CIFDUS_clean_linker_0, # of connection points: 2
# Relax obj value: 0.146
# Max RMSD: 0.291
# Mean RMSD: 0.291
data_MOF--net-ulh--node1-NAWXER_clean_sbu_0--edge1-CIFDUS_clean_linker_0
_symmetry_space_group_name_H-M    P1
_symmetry_Int_Tables_number       1
_symmetry_cell_setting            triclinic
loop_
_symmetry_equiv_pos_as_xyz
'x, y, z'
_cell_length_a     72.559357
_cell_length_b     72.592215
_cell_length_c     72.561769
_cell_angle_alpha  89.989718
_cell_angle_beta   90.001132
_cell_angle_gamma 89.988423
loop_
_atom_site_label
_atom_site_type_symbol
_atom_site_fract_x
_atom_site_fract_y
_atom_site_fract_z
_atom_type_partial_charge
C0 C 0.02242 0.31461 0.05363 0.0
C1 C 0.03359 0.34878 0.10941 0.0
O2 O 0.03508 0.30664 0.0631 0.0
Zn3 Zn 0.04676 0.31066 0.09058 0.0
O4 O 0.01416 0.32857 0.06006 0.0
Zn5 Zn 0.02747 0.33042 0.08236 0.0
O6 O 0.05565 0.33511 0.07359 0.0
O7 O 0.07264 0.31258 0.08517 0.0
O8 O 0.02219 0.35171 0.0965 0.0
O9 O 0.04343 0.33405 0.10918 0.0
O10 O 0.0387 0.28934 0.10448 0.0
O11 O 0.01615 0.3086 0.09814 0.0
C12 C 0.0714 0.32732 0.07579 0.0
C13 C 0.02181 0.29367 0.10561 0.0
C14 C 0.9229 0.25335 0.3024 0.0
C15 C 0.89327 0.27818 0.35667 0.0
O16 O 0.93174 0.26746 0.30842 0.0
Zn17 Zn 0.92982 0.2854 0.33241 0.0
O18 O 0.90903 0.24736 0.31116 0.0
Zn19 Zn 0.90902 0.26547 0.33008 0.0
O20 O 0.90418 0.29103 0.31554 0.0
O21 O 0.92789 0.30931 0.32132 0.0
O22 O 0.88887 0.26444 0.34682 0.0
O23 O 0.90815 0.28707 0.35305 0.0
O24 O 0.952 0.28014 0.34616 0.0
O25 O 0.93196 0.25735 0.34635 0.0
C26 C 0.91244 0.30655 0.31356 0.0
C27 C 0.9475 0.26405 0.3513 0.0
C28 C 0.9808 0.19802 0.60339 0.0
C29 C 0.9327 0.16723 0.56875 0.0
O30 O 0.98684 0.18352 0.59535 0.0
Zn31 Zn 0.97608 0.16275 0.57745 0.0
O32 O 0.96403 0.20257 0.60152 0.0
Zn33 Zn 0.95706 0.18256 0.58561 0.0
O34 O 0.95886 0.15808 0.60317 0.0
O35 O 0.98044 0.14076 0.59062 0.0
O36 O 0.93174 0.18191 0.57819 0.0
O37 O 0.94825 0.1589 0.5671 0.0
O38 O 0.99105 0.16546 0.55644 0.0
O39 O 0.97174 0.18872 0.56007 0.0
C40 C 0.9685 0.14321 0.60312 0.0
C41 C 0.98476 0.18079 0.55107 0.0
C42 C 0.07547 0.17724 0.81756 0.0
C43 C 0.03743 0.22128 0.85079 0.0
O44 O 0.08342 0.19296 0.81924 0.0
Zn45 Zn 0.07721 0.21926 0.83199 0.0
O46 O 0.05949 0.17482 0.8243 0.0
Zn47 Zn 0.05667 0.1992 0.83418 0.0
O48 O 0.05572 0.21614 0.80926 0.0
O49 O 0.07829 0.23638 0.81236 0.0
O50 O 0.03369 0.20471 0.84668 0.0
O51 O 0.05309 0.228 0.84622 0.0
O52 O 0.09625 0.22175 0.84972 0.0
O53 O 0.0774 0.19878 0.85597 0.0
C54 C 0.06483 0.23006 0.80322 0.0
C55 C 0.09184 0.20826 0.8599 0.0
C56 C 0.02566 0.68514 0.95176 0.0
C57 C 0.03769 0.64558 0.90011 0.0
O58 O 0.03802 0.69266 0.94158 0.0
Zn59 Zn 0.05086 0.68533 0.91538 0.0
O60 O 0.01901 0.66961 0.9475 0.0
Zn61 Zn 0.0323 0.66599 0.92558 0.0
O62 O 0.06069 0.66219 0.934 0.0
O63 O 0.07669 0.68451 0.92092 0.0
O64 O 0.02678 0.64359 0.91359 0.0
O65 O 0.0474 0.66035 0.89883 0.0
O66 O 0.043 0.70483 0.89934 0.0
O67 O 0.0205 0.68624 0.90775 0.0
C68 C 0.07618 0.67019 0.93094 0.0
C69 C 0.0261 0.70038 0.89881 0.0
C70 C 0.56829 0.27165 0.19894 0.0
C71 C 0.5998 0.28441 0.14166 0.0
O72 O 0.55945 0.28392 0.18972 0.0
Zn73 Zn 0.56196 0.29587 0.16218 0.0
O74 O 0.58235 0.26395 0.19201 0.0
Zn75 Zn 0.58272 0.27727 0.16951 0.0
O76 O 0.58671 0.30561 0.17812 0.0
O77 O 0.56296 0.32169 0.16772 0.0
O78 O 0.60361 0.2729 0.15424 0.0
O79 O 0.58474 0.29368 0.14266 0.0
O80 O 0.54044 0.28724 0.14903 0.0
O81 O 0.56046 0.26523 0.1548 0.0
C82 C 0.57818 0.32102 0.17638 0.0
C83 C 0.54509 0.27045 0.14789 0.0
C84 C 0.97112 0.81399 0.45345 0.0
C85 C 0.95146 0.84542 0.39816 0.0
O86 O 0.9574 0.80561 0.44608 0.0
Zn87 Zn 0.94169 0.80837 0.42075 0.0
O88 O 0.97818 0.82788 0.44555 0.0
Zn89 Zn 0.96173 0.82896 0.42526 0.0
O90 O 0.93528 0.83384 0.43765 0.0
O91 O 0.91681 0.81084 0.42995 0.0
O92 O 0.96431 0.84955 0.40928 0.0
O93 O 0.94217 0.83057 0.40068 0.0
O94 O 0.94824 0.78656 0.40653 0.0
O95 O 0.97071 0.80684 0.40871 0.0
C96 C 0.91942 0.82605 0.43825 0.0
C97 C 0.96455 0.79153 0.40257 0.0
C98 C 0.43311 0.22656 0.7055 0.0
C99 C 0.39705 0.21598 0.65068 0.0
O100 O 0.44038 0.21354 0.69596 0.0
Zn101 Zn 0.43508 0.20153 0.6689 0.0
O102 O 0.41913 0.23508 0.69945 0.0
Zn103 Zn 0.41611 0.22153 0.67741 0.0
O104 O 0.41063 0.1937 0.68659 0.0
O105 O 0.43232 0.17583 0.67482 0.0
O106 O 0.39469 0.22742 0.66367 0.0
O107 O 0.41143 0.20562 0.65072 0.0
O108 O 0.45627 0.20871 0.6542 0.0
O109 O 0.43776 0.23183 0.66072 0.0
C110 C 0.41782 0.17767 0.68447 0.0
C111 C 0.45228 0.22568 0.65284 0.0
C112 C 0.09693 0.01691 0.30227 0.0
C113 C 0.06381 0.0631 0.33725 0.0
O114 O 0.08934 0.00996 0.3166 0.0
Zn115 Zn 0.07202 0.01934 0.33835 0.0
O116 O 0.09484 0.03389 0.29878 0.0
Zn117 Zn 0.08004 0.04003 0.3199 0.0
O118 O 0.09799 0.03613 0.34358 0.0
O119 O 0.08568 0.01376 0.36011 0.0
O120 O 0.0736 0.06545 0.32293 0.0
O121 O 0.062 0.04692 0.34419 0.0
O122 O 0.05013 0.00543 0.33471 0.0
O123 O 0.05329 0.02783 0.31435 0.0
C124 C 0.09822 0.02574 0.35793 0.0
C125 C 0.04388 0.01449 0.32115 0.0
C126 C 0.22888 0.30118 0.5634 0.0
C127 C 0.21135 0.35491 0.59841 0.0
O128 O 0.21494 0.30915 0.55594 0.0
Zn129 Zn 0.19986 0.33461 0.56055 0.0
O130 O 0.2366 0.30831 0.57734 0.0
Zn131 Zn 0.22054 0.32872 0.58008 0.0
O132 O 0.19399 0.31646 0.58528 0.0
O133 O 0.17486 0.32578 0.56342 0.0
O134 O 0.22418 0.34341 0.60139 0.0
O135 O 0.20146 0.35339 0.5838 0.0
O136 O 0.20595 0.34974 0.53926 0.0
O137 O 0.22911 0.34635 0.55861 0.0
C138 C 0.17785 0.3166 0.57805 0.0
C139 C 0.22247 0.35327 0.54384 0.0
C140 C 0.90088 0.47361 0.7904 0.0
C141 C 0.9318 0.42543 0.82544 0.0
O142 O 0.90677 0.47916 0.80605 0.0
Zn143 Zn 0.92163 0.46853 0.82878 0.0
O144 O 0.9037 0.45705 0.78549 0.0
Zn145 Zn 0.91655 0.44925 0.80763 0.0
O146 O 0.89573 0.45058 0.82906 0.0
O147 O 0.90491 0.47182 0.84875 0.0
O148 O 0.92409 0.42382 0.80978 0.0
O149 O 0.93194 0.44111 0.83361 0.0
O150 O 0.94313 0.48357 0.82878 0.0
O151 O 0.9428 0.46346 0.80591 0.0
C152 C 0.89319 0.45975 0.84398 0.0
C153 C 0.95084 0.47646 0.81481 0.0
C154 C 0.76926 0.19244 0.05823 0.0
C155 C 0.79124 0.13601 0.08566 0.0
O156 O 0.78398 0.187 0.04998 0.0
Zn157 Zn 0.80159 0.16258 0.05148 0.0
O158 O 0.76233 0.18277 0.07101 0.0
Zn159 Zn 0.78028 0.16386 0.071 0.0
O160 O 0.80554 0.17752 0.0787 0.0
O161 O 0.82555 0.17308 0.05613 0.0
O162 O 0.77742 0.1459 0.08972 0.0
O163 O 0.80134 0.14043 0.07179 0.0
O164 O 0.79756 0.15012 0.02802 0.0
O165 O 0.77367 0.14922 0.04669 0.0
C166 C 0.8217 0.17977 0.07186 0.0
C167 C 0.78117 0.14495 0.03132 0.0
C168 C 0.06969 0.9332 0.66159 0.0
C169 C 0.10331 0.9768 0.69962 0.0
O170 O 0.06855 0.94973 0.65536 0.0
Zn171 Zn 0.07948 0.97663 0.66263 0.0
O172 O 0.07932 0.92992 0.67586 0.0
Zn173 Zn 0.08692 0.95488 0.68002 0.0
O174 O 0.06058 0.968 0.68619 0.0
O175 O 0.05791 0.99102 0.66642 0.0
O176 O 0.10169 0.95953 0.70167 0.0
O177 O 0.09591 0.98459 0.68561 0.0
O178 O 0.09384 0.98301 0.64157 0.0
O179 O 0.1052 0.95922 0.65664 0.0
C180 C 0.05154 0.98185 0.67987 0.0
C181 C 0.1059 0.97045 0.64296 0.0
C182 C 0.25868 0.2958 0.92085 0.0
C183 C 0.28496 0.35321 0.89895 0.0
O184 O 0.27128 0.30165 0.93185 0.0
Zn185 Zn 0.28914 0.32572 0.93356 0.0
O186 O 0.25468 0.30503 0.90654 0.0
Zn187 Zn 0.27182 0.32449 0.91018 0.0
O188 O 0.298 0.31123 0.90714 0.0
O189 O 0.31366 0.31518 0.93298 0.0
O190 O 0.27242 0.34331 0.89186 0.0
O191 O 0.29224 0.34833 0.91432 0.0
O192 O 0.28064 0.33776 0.95595 0.0
O193 O 0.26038 0.33813 0.93332 0.0
C194 C 0.31266 0.30881 0.91669 0.0
C195 C 0.26484 0.34227 0.94987 0.0
C196 C 0.89456 0.53123 0.21011 0.0
C197 C 0.92655 0.578 0.17486 0.0
O198 O 0.90071 0.52497 0.19482 0.0
Zn199 Zn 0.91503 0.53517 0.17153 0.0
O200 O 0.89644 0.54819 0.21383 0.0
Zn201 Zn 0.91002 0.5549 0.19186 0.0
O202 O 0.89011 0.5546 0.1693 0.0
O203 O 0.89875 0.53168 0.15142 0.0
O204 O 0.9184 0.57992 0.19024 0.0
O205 O 0.92645 0.56231 0.16666 0.0
O206 O 0.93597 0.51979 0.17119 0.0
O207 O 0.93622 0.5398 0.1942 0.0
C208 C 0.88782 0.5449 0.15467 0.0
C209 C 0.94383 0.52656 0.18521 0.0
C210 C 0.73431 0.19584 0.42985 0.0
C211 C 0.71379 0.1393 0.40132 0.0
O212 O 0.71989 0.18959 0.43799 0.0
Zn213 Zn 0.70325 0.16468 0.4362 0.0
O214 O 0.74183 0.18663 0.41705 0.0
Zn215 Zn 0.72467 0.16685 0.41688 0.0
O216 O 0.69895 0.18015 0.40946 0.0
O217 O 0.67914 0.17493 0.43203 0.0
O218 O 0.72776 0.14917 0.39775 0.0
O219 O 0.70366 0.1433 0.41527 0.0
O220 O 0.70769 0.15212 0.4594 0.0
O221 O 0.73199 0.15246 0.44127 0.0
C222 C 0.68279 0.18205 0.41643 0.0
C223 C 0.72442 0.14789 0.45653 0.0
C224 C 0.29582 0.09197 0.02094 0.0
C225 C 0.33125 0.05962 0.06803 0.0
O226 O 0.31132 0.08599 0.01502 0.0
Zn227 Zn 0.33415 0.07063 0.02507 0.0
O228 O 0.29118 0.08893 0.03754 0.0
Zn229 Zn 0.31336 0.07571 0.04475 0.0
O230 O 0.3349 0.09638 0.04323 0.0
O231 O 0.35443 0.08715 0.02185 0.0
O232 O 0.31587 0.06776 0.07006 0.0
O233 O 0.33916 0.05959 0.05221 0.0
O234 O 0.33362 0.04936 0.00963 0.0
O235 O 0.31113 0.04967 0.03017 0.0
C236 C 0.34978 0.09886 0.03397 0.0
C237 C 0.31971 0.04169 0.01691 0.0
C238 C 0.83524 0.89052 0.46252 0.0
C239 C 0.80722 0.9485 0.47941 0.0
O240 O 0.82022 0.89308 0.4535 0.0
Zn241 Zn 0.79893 0.91422 0.45247 0.0
O242 O 0.84032 0.90238 0.47431 0.0
Zn243 Zn 0.82048 0.91913 0.47114 0.0
O244 O 0.79792 0.90439 0.48234 0.0
O245 O 0.77682 0.90157 0.46072 0.0
O246 O 0.82118 0.94047 0.48618 0.0
O247 O 0.79786 0.94067 0.46659 0.0
O248 O 0.80046 0.92148 0.42695 0.0
O249 O 0.82482 0.92932 0.44349 0.0
C250 C 0.78211 0.8986 0.47713 0.0
C251 C 0.8162 0.92911 0.42804 0.0
C252 C 0.35037 0.03282 0.71453 0.0
C253 C 0.32123 0.07202 0.66882 0.0
O254 O 0.34486 0.04808 0.72142 0.0
Zn255 Zn 0.33099 0.07207 0.71229 0.0
O256 O 0.34778 0.02965 0.69754 0.0
Zn257 Zn 0.33563 0.05266 0.69157 0.0
O258 O 0.35679 0.07389 0.6943 0.0
O259 O 0.34784 0.09129 0.71753 0.0
O260 O 0.3286 0.05632 0.66636 0.0
O261 O 0.32106 0.07926 0.68498 0.0
O262 O 0.30951 0.07205 0.72703 0.0
O263 O 0.30871 0.05105 0.705 0.0
C264 C 0.35938 0.08787 0.70486 0.0
C265 C 0.301 0.05936 0.71861 0.0
C266 C 0.17413 0.56751 0.92649 0.0
C267 C 0.20989 0.59835 0.97356 0.0
O268 O 0.16668 0.56551 0.94245 0.0
Zn269 Zn 0.17285 0.57471 0.97041 0.0
O270 O 0.18903 0.57651 0.92497 0.0
Zn271 Zn 0.19154 0.58265 0.9504 0.0
O272 O 0.1971 0.5559 0.96343 0.0
O273 O 0.1751 0.55299 0.9843 0.0
O274 O 0.21286 0.59714 0.9564 0.0
O275 O 0.19548 0.5908 0.98043 0.0
O276 O 0.15195 0.58874 0.9769 0.0
O277 O 0.16804 0.6013 0.95444 0.0
C278 C 0.18948 0.54683 0.97661 0.0
C279 C 0.15396 0.60153 0.96522 0.0
C280 C 0.15048 0.96213 0.22369 0.0
C281 C 0.18032 0.92609 0.17613 0.0
O282 O 0.15821 0.94778 0.23042 0.0
Zn283 Zn 0.17454 0.92558 0.22034 0.0
O284 O 0.15169 0.9653 0.20656 0.0
Zn285 Zn 0.16599 0.94387 0.20012 0.0
O286 O 0.14775 0.92023 0.2051 0.0
O287 O 0.16109 0.9045 0.22742 0.0
O288 O 0.17105 0.94084 0.17448 0.0
O289 O 0.18287 0.91904 0.1922 0.0
O290 O 0.19668 0.92846 0.23342 0.0
O291 O 0.19351 0.94916 0.21134 0.0
C292 C 0.148 0.90625 0.21602 0.0
C293 C 0.20298 0.94203 0.22449 0.0
C294 C 0.67737 0.94295 0.02132 0.0
C295 C 0.64652 0.8859 0.036 0.0
O296 O 0.68647 0.93407 0.03364 0.0
Zn297 Zn 0.68422 0.90704 0.04648 0.0
O298 O 0.66301 0.93595 0.01426 0.0
Zn299 Zn 0.66288 0.9139 0.02825 0.0
O300 O 0.6594 0.92328 0.05638 0.0
O301 O 0.68337 0.91329 0.07232 0.0
O302 O 0.64206 0.89844 0.02467 0.0
O303 O 0.6618 0.8872 0.04487 0.0
O304 O 0.70567 0.89387 0.03739 0.0
O305 O 0.68477 0.89879 0.01596 0.0
C306 C 0.66815 0.92195 0.07171 0.0
C307 C 0.70036 0.89212 0.02081 0.0
C308 C 0.32203 0.42361 0.82437 0.0
C309 C 0.35797 0.46259 0.78295 0.0
O310 O 0.32333 0.41732 0.80792 0.0
Zn311 Zn 0.33623 0.42459 0.78231 0.0
O312 O 0.33014 0.43854 0.82875 0.0
Zn313 Zn 0.33986 0.44354 0.80427 0.0
O314 O 0.31444 0.44645 0.78893 0.0
O315 O 0.31585 0.42662 0.76587 0.0
O316 O 0.35334 0.46641 0.79939 0.0
O317 O 0.35249 0.44757 0.77557 0.0
O318 O 0.35267 0.40452 0.77856 0.0
O319 O 0.36038 0.42186 0.80235 0.0
C320 C 0.30721 0.4391 0.77456 0.0
C321 C 0.3634 0.40783 0.79198 0.0
C322 C 0.68229 0.08321 0.31313 0.0
C323 C 0.64622 0.05002 0.26734 0.0
O324 O 0.68342 0.09041 0.297 0.0
Zn325 Zn 0.67192 0.08555 0.26994 0.0
O326 O 0.67219 0.06913 0.31571 0.0
Zn327 Zn 0.66415 0.06672 0.29049 0.0
O328 O 0.68995 0.06057 0.27653 0.0
O329 O 0.69293 0.08175 0.25484 0.0
O330 O 0.64853 0.04595 0.28419 0.0
O331 O 0.65397 0.0644 0.26071 0.0
O332 O 0.65844 0.10753 0.26536 0.0
O333 O 0.64657 0.0909 0.28786 0.0
C334 C 0.69892 0.06748 0.26293 0.0
C335 C 0.64627 0.10543 0.27772 0.0
C336 C 0.02109 0.81395 0.54915 0.0
C337 C 0.03902 0.84456 0.60541 0.0
O338 O 0.03488 0.80571 0.55659 0.0
Zn339 Zn 0.05009 0.80826 0.58238 0.0
O340 O 0.01347 0.82742 0.55725 0.0
Zn341 Zn 0.02936 0.82811 0.57795 0.0
O342 O 0.05583 0.83405 0.56587 0.0
O343 O 0.07498 0.81155 0.57347 0.0
O344 O 0.02583 0.84813 0.59451 0.0
O345 O 0.04889 0.83013 0.6027 0.0
O346 O 0.04402 0.78582 0.59575 0.0
O347 O 0.02048 0.80469 0.59277 0.0
C348 C 0.07193 0.82675 0.56529 0.0
C349 C 0.02713 0.78944 0.59856 0.0
C350 C 0.96233 0.77433 0.84899 0.0
C351 C 0.9235 0.81641 0.81484 0.0
O352 O 0.94705 0.76683 0.84437 0.0
Zn353 Zn 0.92291 0.77446 0.82964 0.0
O354 O 0.96539 0.79097 0.84467 0.0
Zn355 Zn 0.94256 0.79528 0.83183 0.0
O356 O 0.92128 0.79538 0.85311 0.0
O357 O 0.9036 0.77147 0.84693 0.0
O358 O 0.93932 0.81938 0.82171 0.0
O359 O 0.916 0.80046 0.81651 0.0
O360 O 0.92276 0.75705 0.8103 0.0
O361 O 0.94453 0.7781 0.80712 0.0
C362 C 0.90712 0.78541 0.85683 0.0
C363 C 0.93607 0.76372 0.80118 0.0
C364 C 0.99486 0.6819 0.05255 0.0
C365 C 0.97283 0.64755 0.10462 0.0
O366 O 0.98123 0.69059 0.05977 0.0
Zn367 Zn 0.96385 0.68597 0.08395 0.0
O368 O -4e-05 0.66663 0.05923 0.0
Zn369 Zn 0.98291 0.6654 0.07868 0.0
O370 O 0.956 0.66146 0.0659 0.0
O371 O 0.93936 0.68547 0.07426 0.0
O372 O 0.9856 0.64411 0.09324 0.0
O373 O 0.96356 0.66258 0.10306 0.0
O374 O 0.96959 0.70664 0.09933 0.0
O375 O 0.99252 0.68693 0.09659 0.0
C376 C 0.94063 0.67028 0.06573 0.0
C377 C 0.98598 0.70195 0.10318 0.0
C378 C 0.05356 0.72977 0.3019 0.0
C379 C 0.08226 0.70976 0.35865 0.0
O380 O 0.04566 0.71514 0.30802 0.0
Zn381 Zn 0.0479 0.69825 0.33288 0.0
O382 O 0.06634 0.73727 0.31115 0.0
Zn383 Zn 0.06681 0.72 0.33079 0.0
O384 O 0.07489 0.69455 0.31763 0.0
O385 O 0.05274 0.67427 0.32283 0.0
O386 O 0.08578 0.72359 0.34858 0.0
O387 O 0.06853 0.69935 0.35462 0.0
O388 O 0.02459 0.70176 0.34545 0.0
O389 O 0.04211 0.72652 0.34507 0.0
C390 C 0.0683 0.67824 0.31584 0.0
C391 C 0.02705 0.71854 0.34965 0.0
C392 C 0.01633 0.18261 0.44943 0.0
C393 C 0.03807 0.1521 0.39477 0.0
O394 O 0.03059 0.19111 0.4432 0.0
Zn395 Zn 0.04822 0.18808 0.41879 0.0
O396 O 0.01029 0.16847 0.44119 0.0
Zn397 Zn 0.02767 0.16811 0.42201 0.0
O398 O 0.05355 0.16192 0.43527 0.0
O399 O 0.0725 0.18492 0.42904 0.0
O400 O 0.02456 0.14851 0.40523 0.0
O401 O 0.04801 0.16639 0.39801 0.0
O402 O 0.04338 0.21049 0.40493 0.0
O403 O 0.01965 0.19166 0.40674 0.0
C404 C 0.06951 0.16942 0.4366 0.0
C405 C 0.02665 0.20689 0.40129 0.0
C406 C 0.55189 0.77557 0.70224 0.0
C407 C 0.58061 0.79233 0.64476 0.0
O408 O 0.54331 0.7894 0.69525 0.0
Zn409 Zn 0.54498 0.80419 0.66898 0.0
O410 O 0.56492 0.76808 0.69341 0.0
Zn411 Zn 0.56481 0.78387 0.67271 0.0
O412 O 0.57167 0.81107 0.68333 0.0
O413 O 0.54804 0.82915 0.67673 0.0
O414 O 0.58436 0.7795 0.65601 0.0
O415 O 0.56634 0.80248 0.64757 0.0
O416 O 0.52222 0.79877 0.65633 0.0
O417 O 0.54114 0.77513 0.65765 0.0
C418 C 0.564 0.82705 0.68359 0.0
C419 C 0.52581 0.78214 0.65241 0.0
C420 C 0.97875 0.29896 0.9018 0.0
C421 C 0.93333 0.33504 0.93568 0.0
O422 O 0.98559 0.31347 0.90911 0.0
Zn423 Zn 0.97672 0.33564 0.92595 0.0
O424 O 0.96178 0.29536 0.90405 0.0
Zn425 Zn 0.95579 0.31693 0.91875 0.0
O426 O 0.95941 0.34005 0.89999 0.0
O427 O 0.98209 0.35676 0.91139 0.0
O428 O 0.93054 0.3205 0.92631 0.0
O429 O 0.94964 0.34183 0.93668 0.0
O430 O 0.9914 0.3324 0.9474 0.0
O431 O 0.96925 0.31165 0.94499 0.0
C432 C 0.96994 0.35425 0.89907 0.0
C433 C 0.98287 0.31862 0.95389 0.0
C434 C 0.4065 0.70025 0.14409 0.0
C435 C 0.43734 0.71512 0.20098 0.0
O436 O 0.42065 0.68981 0.14621 0.0
Zn437 Zn 0.44258 0.68724 0.16664 0.0
O438 O 0.40331 0.7128 0.15579 0.0
Zn439 Zn 0.42312 0.70777 0.17202 0.0
O440 O 0.44675 0.71695 0.15748 0.0
O441 O 0.46502 0.69309 0.15339 0.0
O442 O 0.42379 0.72285 0.19315 0.0
O443 O 0.44556 0.70151 0.19314 0.0
O444 O 0.43932 0.66209 0.17414 0.0
O445 O 0.41668 0.68065 0.18264 0.0
C446 C 0.4618 0.71014 0.15131 0.0
C447 C 0.42401 0.66455 0.18226 0.0
C448 C 0.10135 0.52116 0.7941 0.0
C449 C 0.07188 0.56884 0.83004 0.0
O450 O 0.09403 0.51441 0.80868 0.0
Zn451 Zn 0.07823 0.52469 0.83128 0.0
O452 O 0.1 0.53826 0.79097 0.0
Zn453 Zn 0.0861 0.54474 0.81254 0.0
O454 O 0.10474 0.54072 0.83601 0.0
O455 O 0.09235 0.51826 0.85226 0.0
O456 O 0.0807 0.57027 0.81499 0.0
O457 O 0.06971 0.55292 0.83752 0.0
O458 O 0.05597 0.51142 0.82919 0.0
O459 O 0.05866 0.53312 0.80802 0.0
C460 C 0.10501 0.53009 0.8502 0.0
C461 C 0.04936 0.5201 0.81558 0.0
C462 C 0.2238 0.79722 0.06913 0.0
C463 C 0.21595 0.85411 0.10208 0.0
O464 O 0.21143 0.80695 0.06104 0.0
Zn465 Zn 0.20101 0.83497 0.06469 0.0
O466 O 0.23239 0.80363 0.08287 0.0
Zn467 Zn 0.22021 0.8265 0.08422 0.0
O468 O 0.19155 0.81952 0.08998 0.0
O469 O 0.17501 0.83091 0.06706 0.0
O470 O 0.22688 0.8408 0.10494 0.0
O471 O 0.20565 0.85399 0.08765 0.0
O472 O 0.20906 0.84804 0.04293 0.0
O473 O 0.23188 0.8413 0.06171 0.0
C474 C 0.17583 0.82229 0.08228 0.0
C475 C 0.2261 0.84864 0.04675 0.0
C476 C 0.89016 0.97483 0.29804 0.0
C477 C 0.92315 0.93145 0.33696 0.0
O478 O 0.89694 0.98246 0.31242 0.0
Zn479 Zn 0.9133 0.97479 0.33533 0.0
O480 O 0.89271 0.95776 0.2953 0.0
Zn481 Zn 0.90671 0.9529 0.31757 0.0
O482 O 0.8876 0.95725 0.34033 0.0
O483 O 0.89835 0.98099 0.35596 0.0
O484 O 0.91415 0.92792 0.32234 0.0
O485 O 0.92392 0.94803 0.34306 0.0
O486 O 0.93495 0.9892 0.33199 0.0
O487 O 0.93329 0.96575 0.31267 0.0
C488 C 0.88637 0.96841 0.35403 0.0
C489 C 0.94204 0.97966 0.31919 0.0
C490 C 0.76404 0.69965 0.56176 0.0
C491 C 0.77952 0.64647 0.59838 0.0
O492 O 0.77761 0.69109 0.55428 0.0
Zn493 Zn 0.79186 0.66521 0.55984 0.0
O494 O 0.75661 0.69324 0.57618 0.0
Zn495 Zn 0.77184 0.6723 0.57905 0.0
O496 O 0.79944 0.68309 0.5842 0.0
O497 O 0.81701 0.67265 0.56163 0.0
O498 O 0.76717 0.65858 0.60079 0.0
O499 O 0.78956 0.64701 0.58378 0.0
O500 O 0.78601 0.64988 0.53912 0.0
O501 O 0.76234 0.6545 0.55753 0.0
C502 C 0.81532 0.68179 0.57644 0.0
C503 C 0.76922 0.64711 0.54304 0.0
C504 C 0.05792 0.44119 0.1618 0.0
C505 C 0.09465 0.48477 0.19646 0.0
O506 O 0.05972 0.4565 0.15311 0.0
Zn507 Zn 0.07359 0.48252 0.15774 0.0
O508 O 0.06525 0.43925 0.17757 0.0
Zn509 Zn 0.07609 0.46324 0.1789 0.0
O510 O 0.05225 0.48148 0.18093 0.0
O511 O 0.05451 0.50034 0.15718 0.0
O512 O 0.08977 0.46861 0.20094 0.0
O513 O 0.0897 0.49137 0.18083 0.0
O514 O 0.09034 0.48373 0.13765 0.0
O515 O 0.09702 0.46156 0.15732 0.0
C516 C 0.04612 0.49525 0.17163 0.0
C517 C 0.1005 0.47031 0.1423 0.0
C518 C 0.27045 0.79426 0.43263 0.0
C519 C 0.28907 0.85102 0.40296 0.0
O520 O 0.28497 0.80085 0.44033 0.0
Zn521 Zn 0.30117 0.82599 0.4377 0.0
O522 O 0.26258 0.80313 0.4198 0.0
Zn523 Zn 0.27939 0.82322 0.41881 0.0
O524 O 0.3052 0.81063 0.4108 0.0
O525 O 0.32541 0.81642 0.43286 0.0
O526 O 0.27543 0.84065 0.39952 0.0
O527 O 0.29955 0.84733 0.41675 0.0
O528 O 0.29727 0.83892 0.46077 0.0
O529 O 0.27263 0.83811 0.4431 0.0
C530 C 0.32159 0.80926 0.41734 0.0
C531 C 0.2805 0.8431 0.45808 0.0
C532 C 0.92823 0.06768 0.67127 0.0
C533 C 0.8989 0.01903 0.70637 0.0
O534 O 0.93053 0.05181 0.66374 0.0
Zn535 Zn 0.92207 0.02352 0.66942 0.0
O536 O 0.91908 0.06905 0.68614 0.0
Zn537 Zn 0.91383 0.04335 0.6884 0.0
O538 O 0.94145 0.03204 0.69277 0.0
O539 O 0.9445 0.01047 0.67151 0.0
O540 O 0.89981 0.03612 0.70981 0.0
O541 O 0.90647 0.01275 0.69174 0.0
O542 O 0.90793 0.01738 0.64833 0.0
O543 O 0.89545 0.03964 0.66477 0.0
C544 C 0.95098 0.01921 0.68514 0.0
C545 C 0.89525 0.02919 0.65046 0.0
C546 C 0.73038 0.6962 0.92307 0.0
C547 C 0.71685 0.639 0.89133 0.0
O548 O 0.71697 0.68764 0.93082 0.0
Zn549 Zn 0.70364 0.66095 0.92763 0.0
O550 O 0.73896 0.68879 0.90975 0.0
Zn551 Zn 0.72454 0.66685 0.9085 0.0
O552 O 0.69729 0.67731 0.90188 0.0
O553 O 0.67837 0.66835 0.92402 0.0
O554 O 0.72951 0.65065 0.88825 0.0
O555 O 0.70653 0.64098 0.90558 0.0
O556 O 0.7098 0.64796 0.95016 0.0
O557 O 0.73392 0.65247 0.93236 0.0
C558 C 0.68105 0.6768 0.9089 0.0
C559 C 0.72698 0.64627 0.94736 0.0
C560 C 0.3096 0.55096 0.51949 0.0
C561 C 0.34039 0.60755 0.53672 0.0
O562 O 0.30131 0.55868 0.53311 0.0
Zn563 Zn 0.3041 0.58448 0.54818 0.0
O564 O 0.32344 0.55871 0.51217 0.0
Zn565 Zn 0.3244 0.57954 0.52803 0.0
O566 O 0.32999 0.568 0.55485 0.0
O567 O 0.30717 0.5761 0.57334 0.0
O568 O 0.34457 0.5959 0.52438 0.0
O569 O 0.3258 0.60508 0.54644 0.0
O570 O 0.28181 0.59804 0.5416 0.0
O571 O 0.30158 0.59527 0.51875 0.0
C572 C 0.32244 0.56786 0.57085 0.0
C573 C 0.28625 0.60135 0.525 0.0
C574 C 0.8148 0.45094 0.97759 0.0
C575 C 0.84483 0.39325 0.96268 0.0
O576 O 0.80699 0.44306 0.9638 0.0
Zn577 Zn 0.80936 0.4167 0.94974 0.0
O578 O 0.8275 0.44268 0.98632 0.0
Zn579 Zn 0.82848 0.42127 0.97117 0.0
O580 O 0.83577 0.43241 0.94456 0.0
O581 O 0.8138 0.42489 0.92478 0.0
O582 O 0.84817 0.40438 0.97575 0.0
O583 O 0.8308 0.39605 0.95225 0.0
O584 O 0.78648 0.4038 0.95528 0.0
O585 O 0.80459 0.40679 0.97941 0.0
C586 C 0.82909 0.43278 0.92819 0.0
C587 C 0.78952 0.40104 0.97228 0.0
C588 C 0.34407 0.54091 0.23185 0.0
C589 C 0.3087 0.58275 0.19378 0.0
O590 O 0.33931 0.55537 0.24078 0.0
Zn591 Zn 0.32369 0.57975 0.23559 0.0
O592 O 0.33924 0.5391 0.21516 0.0
Zn593 Zn 0.32612 0.56205 0.2131 0.0
O594 O 0.3473 0.58327 0.21521 0.0
O595 O 0.34065 0.59902 0.24035 0.0
O596 O 0.31588 0.56738 0.1895 0.0
O597 O 0.31033 0.58889 0.21031 0.0
O598 O 0.30439 0.57774 0.25302 0.0
O599 O 0.3016 0.55813 0.22991 0.0
C600 C 0.35086 0.59654 0.2264 0.0
C601 C 0.2955 0.56504 0.24502 0.0
C602 C 0.17152 0.06513 0.429 0.0
C603 C 0.2103 0.09871 0.47168 0.0
O604 O 0.16391 0.06636 0.44496 0.0
Zn605 Zn 0.17092 0.07887 0.47132 0.0
O606 O 0.18732 0.07214 0.42638 0.0
Zn607 Zn 0.19059 0.08165 0.45067 0.0
O608 O 0.1929 0.05667 0.46736 0.0
O609 O 0.17101 0.05913 0.48838 0.0
O610 O 0.21342 0.09443 0.45504 0.0
O611 O 0.19505 0.09388 0.47918 0.0
O612 O 0.15157 0.09605 0.4749 0.0
O613 O 0.16951 0.1032 0.45146 0.0
C614 C 0.18447 0.05036 0.4816 0.0
C615 C 0.15537 0.10667 0.46157 0.0
C616 C 0.15328 0.44346 0.73659 0.0
C617 C 0.18655 0.40945 0.68965 0.0
O618 O 0.1614 0.4293 0.74328 0.0
Zn619 Zn 0.17904 0.40802 0.73348 0.0
O620 O 0.15488 0.44712 0.71958 0.0
Zn621 Zn 0.17013 0.42645 0.71298 0.0
O622 O 0.15285 0.40245 0.71714 0.0
O623 O 0.16587 0.38594 0.73914 0.0
O624 O 0.17645 0.42359 0.68748 0.0
O625 O 0.18868 0.40251 0.70579 0.0
O626 O 0.20117 0.41229 0.74694 0.0
O627 O 0.19674 0.43275 0.72481 0.0
C628 C 0.15305 0.38804 0.72742 0.0
C629 C 0.20666 0.42619 0.73788 0.0
C630 C 0.67921 0.44914 0.51874 0.0
C631 C 0.64989 0.39188 0.53647 0.0
O632 O 0.68707 0.44212 0.53297 0.0
Zn633 Zn 0.68445 0.41682 0.5489 0.0
O634 O 0.66598 0.44074 0.51099 0.0
Zn635 Zn 0.66519 0.42028 0.52735 0.0
O636 O 0.65764 0.43251 0.55328 0.0
O637 O 0.67962 0.42612 0.57339 0.0
O638 O 0.64602 0.4027 0.5233 0.0
O639 O 0.66381 0.39539 0.54682 0.0
O640 O 0.70762 0.40409 0.54422 0.0
O641 O 0.68964 0.40616 0.51985 0.0
C642 C 0.66423 0.43363 0.56965 0.0
C643 C 0.7048 0.40096 0.52723 0.0
C644 C 0.31614 0.91231 0.31659 0.0
C645 C 0.35271 0.94806 0.27331 0.0
O646 O 0.31494 0.90616 0.30005 0.0
Zn647 Zn 0.32639 0.9128 0.27339 0.0
O648 O 0.3261 0.92632 0.31994 0.0
Zn649 Zn 0.33425 0.93036 0.29501 0.0
O650 O 0.30891 0.93796 0.28104 0.0
O651 O 0.30561 0.91795 0.25834 0.0
O652 O 0.35017 0.95128 0.29032 0.0
O653 O 0.34485 0.93422 0.26574 0.0
O654 O 0.33969 0.89105 0.26737 0.0
O655 O 0.35185 0.90642 0.29063 0.0
C656 C 0.29998 0.93206 0.26695 0.0
C657 C 0.35206 0.89254 0.27963 0.0
C658 C 0.68805 0.58332 0.80165 0.0
C659 C 0.64937 0.5483 0.7594 0.0
O660 O 0.6873 0.59077 0.7856 0.0
Zn661 Zn 0.67377 0.58507 0.75955 0.0
O662 O 0.6795 0.56834 0.8046 0.0
Zn663 Zn 0.66925 0.56565 0.78027 0.0
O664 O 0.69358 0.56074 0.76322 0.0
O665 O 0.69307 0.58269 0.74216 0.0
O666 O 0.65391 0.54424 0.77579 0.0
O667 O 0.65573 0.56303 0.75204 0.0
O668 O 0.65882 0.60622 0.7563 0.0
O669 O 0.64988 0.58876 0.77953 0.0
C670 C 0.70053 0.56841 0.74883 0.0
C671 C 0.64784 0.60328 0.76957 0.0
C672 C 0.51495 0.31048 0.54887 0.0
C673 C 0.53383 0.34134 0.60505 0.0
O674 O 0.52953 0.30301 0.55561 0.0
Zn675 Zn 0.54611 0.30643 0.58038 0.0
O676 O 0.50729 0.32373 0.55731 0.0
Zn677 Zn 0.52428 0.32526 0.57727 0.0
O678 O 0.5499 0.33312 0.56436 0.0
O679 O 0.57026 0.31132 0.57048 0.0
O680 O 0.52032 0.34475 0.59448 0.0
O681 O 0.54433 0.32752 0.60155 0.0
O682 O 0.54237 0.28352 0.59367 0.0
O683 O 0.51772 0.3012 0.59262 0.0
C684 C 0.56631 0.32666 0.56302 0.0
C685 C 0.52561 0.2863 0.59783 0.0
C686 C 0.4216 0.32003 0.8201 0.0
C687 C 0.45676 0.2756 0.85571 0.0
O688 O 0.41422 0.30396 0.82009 0.0
Zn689 Zn 0.41981 0.27733 0.83204 0.0
O690 O 0.43647 0.32281 0.82894 0.0
Zn691 Zn 0.43941 0.29794 0.83761 0.0
O692 O 0.44347 0.28307 0.81194 0.0
O693 O 0.42213 0.26138 0.81139 0.0
O694 O 0.46117 0.29212 0.85207 0.0
O695 O 0.44185 0.26888 0.84914 0.0
O696 O 0.3989 0.27343 0.84731 0.0
O697 O 0.41666 0.29605 0.85716 0.0
C698 C 0.43588 0.26921 0.80399 0.0
C699 C 0.40216 0.28604 0.85898 0.0
C700 C 0.47109 0.20678 0.09755 0.0
C701 C 0.43214 0.16493 0.06233 0.0
O702 O 0.47882 0.19133 0.09404 0.0
Zn703 Zn 0.47275 0.16641 0.08011 0.0
O704 O 0.45476 0.20971 0.09195 0.0
Zn705 Zn 0.45134 0.18597 0.07999 0.0
O706 O 0.45067 0.16643 0.10265 0.0
O707 O 0.47481 0.14836 0.09885 0.0
O708 O 0.428 0.18087 0.06828 0.0
O709 O 0.44818 0.15822 0.0656 0.0
O710 O 0.49145 0.16588 0.06192 0.0
O711 O 0.47028 0.18718 0.05671 0.0
C712 C 0.46055 0.15273 0.10796 0.0
C713 C 0.48515 0.17879 0.05198 0.0
C714 C 0.56696 0.23059 0.2992 0.0
C715 C 0.59712 0.21408 0.3564 0.0
O716 O 0.55817 0.21762 0.3074 0.0
Zn717 Zn 0.56006 0.2039 0.33396 0.0
O718 O 0.58069 0.23807 0.30699 0.0
Zn719 Zn 0.58094 0.22314 0.32862 0.0
O720 O 0.58559 0.19545 0.31827 0.0
O721 O 0.56171 0.17849 0.32669 0.0
O722 O 0.6015 0.22632 0.3447 0.0
O723 O 0.58208 0.20499 0.35427 0.0
O724 O 0.53821 0.2115 0.34714 0.0
O725 O 0.55848 0.23386 0.34421 0.0
C726 C 0.57724 0.17985 0.3187 0.0
C727 C 0.54296 0.22803 0.35024 0.0
C728 C 0.52831 0.68624 0.44749 0.0
C729 C 0.54398 0.65637 0.39026 0.0
O730 O 0.54252 0.69399 0.44031 0.0
Zn731 Zn 0.55744 0.69129 0.41431 0.0
O732 O 0.52007 0.67343 0.43898 0.0
Zn733 Zn 0.53591 0.67241 0.41832 0.0
O734 O 0.56224 0.66467 0.42982 0.0
O735 O 0.58218 0.68659 0.42266 0.0
O736 O 0.531 0.65303 0.40146 0.0
O737 O 0.55468 0.67017 0.39318 0.0
O738 O 0.55278 0.7143 0.40148 0.0
O739 O 0.52835 0.69646 0.40361 0.0
C740 C 0.57865 0.67124 0.43032 0.0
C741 C 0.53585 0.71144 0.39814 0.0
C742 C 0.07064 0.26334 0.70025 0.0
C743 C 0.0957 0.28715 0.64332 0.0
O744 O 0.06116 0.27727 0.69476 0.0
Zn745 Zn 0.06153 0.29524 0.6706 0.0
O746 O 0.08421 0.25776 0.69078 0.0
Zn747 Zn 0.08239 0.27547 0.67168 0.0
O748 O 0.08863 0.30146 0.68502 0.0
O749 O 0.06419 0.31922 0.68118 0.0
O750 O 0.10075 0.27362 0.65314 0.0
O751 O 0.08136 0.2964 0.64805 0.0
O752 O 0.03833 0.29009 0.65872 0.0
O753 O 0.05783 0.26684 0.65798 0.0
C754 C 0.08039 0.31695 0.6874 0.0
C755 C 0.04201 0.27364 0.65409 0.0
C756 C 0.48245 0.81251 0.94916 0.0
C757 C 0.46916 0.84968 0.89586 0.0
O758 O 0.46885 0.80549 0.94029 0.0
Zn759 Zn 0.45526 0.8115 0.91413 0.0
O760 O 0.49055 0.82668 0.94303 0.0
Zn761 Zn 0.47584 0.83007 0.92185 0.0
O762 O 0.44851 0.83575 0.93259 0.0
O763 O 0.42996 0.81431 0.92149 0.0
O764 O 0.48134 0.85162 0.90823 0.0
O765 O 0.45864 0.83542 0.89615 0.0
O766 O 0.46125 0.79046 0.89889 0.0
O767 O 0.48509 0.80837 0.90445 0.0
C768 C 0.43233 0.8287 0.93117 0.0
C769 C 0.47824 0.79404 0.89681 0.0
C770 C 0.92852 0.22592 0.19776 0.0
C771 C 0.90319 0.20684 0.13925 0.0
O772 O 0.93724 0.21177 0.19165 0.0
Zn773 Zn 0.93665 0.19556 0.16628 0.0
O774 O 0.91578 0.23316 0.18826 0.0
Zn775 Zn 0.91685 0.21648 0.1682 0.0
O776 O 0.9092 0.1903 0.18026 0.0
O777 O 0.93234 0.17109 0.17538 0.0
O778 O 0.89865 0.22008 0.14969 0.0
O779 O 0.91708 0.19673 0.14357 0.0
O780 O 0.96036 0.20041 0.15504 0.0
O781 O 0.9419 0.22449 0.15526 0.0
C782 C 0.91637 0.1742 0.18185 0.0
C783 C 0.95747 0.21722 0.15121 0.0
C784 C 0.56411 0.07486 0.82455 0.0
C785 C 0.59636 0.03189 0.78474 0.0
O786 O 0.56468 0.05852 0.83129 0.0
Zn787 Zn 0.57643 0.03226 0.82389 0.0
O788 O 0.57186 0.07831 0.80923 0.0
Zn789 Zn 0.58042 0.05362 0.80475 0.0
O790 O 0.55467 0.03832 0.80199 0.0
O791 O 0.55585 0.01623 0.82295 0.0
O792 O 0.59314 0.04881 0.78175 0.0
O793 O 0.59096 0.02453 0.79982 0.0
O794 O 0.59353 0.02765 0.84317 0.0
O795 O 0.60168 0.05113 0.82571 0.0
C796 C 0.54749 0.02415 0.80981 0.0
C797 C 0.60474 0.04056 0.83959 0.0
C798 C 0.74164 0.29586 0.06886 0.0
C799 C 0.72327 0.34854 0.10492 0.0
O800 O 0.72744 0.30346 0.0615 0.0
Zn801 Zn 0.71139 0.32827 0.067 0.0
O802 O 0.74878 0.30275 0.0832 0.0
Zn803 Zn 0.7322 0.32266 0.0861 0.0
O804 O 0.70571 0.31009 0.09189 0.0
O805 O 0.68675 0.31889 0.06976 0.0
O806 O 0.7363 0.33716 0.10739 0.0
O807 O 0.71302 0.34708 0.09052 0.0
O808 O 0.71628 0.34372 0.04575 0.0
O809 O 0.74014 0.34062 0.06426 0.0
C810 C 0.68957 0.31005 0.08461 0.0
C811 C 0.7329 0.34746 0.04968 0.0
C812 C 0.40097 0.47393 0.29757 0.0
C813 C 0.43072 0.42132 0.32601 0.0
O814 O 0.41029 0.47853 0.31183 0.0
Zn815 Zn 0.42787 0.46527 0.33134 0.0
O816 O 0.4009 0.45727 0.29229 0.0
Zn817 Zn 0.41662 0.44782 0.31145 0.0
O818 O 0.4003 0.45166 0.33652 0.0
O819 O 0.4163 0.47064 0.35409 0.0
O820 O 0.4206 0.42165 0.31175 0.0
O821 O 0.43468 0.43644 0.33431 0.0
O822 O 0.45042 0.47748 0.32779 0.0
O823 O 0.44354 0.45917 0.30446 0.0
C824 C 0.40212 0.46075 0.35163 0.0
C825 C 0.4544 0.47079 0.3122 0.0
C826 C 0.2733 0.20373 0.56522 0.0
C827 C 0.28412 0.14795 0.59958 0.0
O828 O 0.28586 0.19414 0.55726 0.0
Zn829 Zn 0.29765 0.16694 0.56162 0.0
O830 O 0.26532 0.19764 0.5795 0.0
Zn831 Zn 0.27846 0.17527 0.58155 0.0
O832 O 0.30668 0.18347 0.58648 0.0
O833 O 0.32355 0.17227 0.56373 0.0
O834 O 0.273 0.16105 0.60279 0.0
O835 O 0.29394 0.14824 0.58483 0.0
O836 O 0.28955 0.15287 0.54046 0.0
O837 O 0.26711 0.15929 0.55985 0.0
C838 C 0.32243 0.18124 0.57873 0.0
C839 C 0.27269 0.15167 0.54496 0.0
C840 C 0.59841 0.97364 0.20464 0.0
C841 C 0.56509 0.93043 0.1658 0.0
O842 O 0.59177 0.98133 0.19022 0.0
Zn843 Zn 0.57634 0.97349 0.16666 0.0
O844 O 0.5964 0.95643 0.20686 0.0
Zn845 Zn 0.58232 0.95169 0.18462 0.0
O846 O 0.60148 0.95481 0.1618 0.0
O847 O 0.59188 0.97901 0.14621 0.0
O848 O 0.57406 0.92689 0.18043 0.0
O849 O 0.56481 0.94692 0.15937 0.0
O850 O 0.55504 0.98851 0.16916 0.0
O851 O 0.55601 0.96561 0.18925 0.0
C852 C 0.6032 0.96584 0.14805 0.0
C853 C 0.54768 0.9796 0.18227 0.0
C854 C 0.76466 0.35204 0.44931 0.0
C855 C 0.80768 0.31458 0.41402 0.0
O856 O 0.75786 0.34638 0.43405 0.0
Zn857 Zn 0.76591 0.32962 0.41149 0.0
O858 O 0.78098 0.3475 0.45369 0.0
Zn859 Zn 0.78642 0.33329 0.43166 0.0
O860 O 0.7866 0.35326 0.40935 0.0
O861 O 0.76378 0.34558 0.39077 0.0
O862 O 0.81078 0.32295 0.4291 0.0
O863 O 0.79179 0.31584 0.40633 0.0
O864 O 0.74858 0.31 0.41272 0.0
O865 O 0.76971 0.30861 0.43464 0.0
C866 C 0.77724 0.35606 0.39457 0.0
C867 C 0.75557 0.30178 0.42647 0.0
C868 C 0.42676 0.57474 0.66686 0.0
C869 C 0.39734 0.5365 0.71325 0.0
O870 O 0.42475 0.55799 0.66155 0.0
Zn871 Zn 0.4126 0.53295 0.67213 0.0
O872 O 0.42045 0.5798 0.68241 0.0
Zn873 Zn 0.41101 0.55609 0.68947 0.0
O874 O 0.43661 0.5402 0.6909 0.0
O875 O 0.43303 0.51649 0.67207 0.0
O876 O 0.40013 0.55374 0.71386 0.0
O877 O 0.40125 0.52757 0.69855 0.0
O878 O 0.39336 0.52782 0.65481 0.0
O879 O 0.38834 0.55345 0.67024 0.0
C880 C 0.44286 0.52537 0.6835 0.0
C881 C 0.38354 0.542 0.65764 0.0
C882 C 0.20995 0.13663 0.90432 0.0
C883 C 0.22772 0.19284 0.93475 0.0
O884 O 0.19947 0.13953 0.91831 0.0
Zn885 Zn 0.19813 0.16004 0.94023 0.0
O886 O 0.22353 0.14722 0.90146 0.0
Zn887 Zn 0.2194 0.16384 0.92118 0.0
O888 O 0.22735 0.1489 0.94505 0.0
O889 O 0.20299 0.14671 0.96294 0.0
O890 O 0.23551 0.18429 0.92169 0.0
O891 O 0.21362 0.18583 0.94286 0.0
O892 O 0.17349 0.16916 0.93643 0.0
O893 O 0.19309 0.17621 0.91415 0.0
C894 C 0.21989 0.14334 0.96004 0.0
C895 C 0.17684 0.17704 0.92114 0.0
C896 C 0.79917 0.09899 0.5207 0.0
C897 C 0.83079 0.06929 0.57171 0.0
O898 O 0.81356 0.09032 0.5153 0.0
Zn899 Zn 0.83452 0.07369 0.52751 0.0
O900 O 0.79503 0.099 0.53767 0.0
Zn901 Zn 0.81534 0.08402 0.54619 0.0
O902 O 0.84002 0.10091 0.54222 0.0
O903 O 0.85667 0.08616 0.52155 0.0
O904 O 0.81656 0.07947 0.57219 0.0
O905 O 0.83865 0.06591 0.55619 0.0
O906 O 0.83136 0.05103 0.51513 0.0
O907 O 0.8092 0.05662 0.53527 0.0
C908 C 0.85471 0.09971 0.53237 0.0
C909 C 0.81666 0.04612 0.52314 0.0
C910 C 0.31396 0.94371 0.97087 0.0
C911 C 0.34242 0.88551 0.95621 0.0
O912 O 0.30524 0.93598 0.95753 0.0
Zn913 Zn 0.30657 0.909 0.9441 0.0
O914 O 0.32693 0.93523 0.97889 0.0
Zn915 Zn 0.32648 0.9137 0.96419 0.0
O916 O 0.33282 0.92364 0.93653 0.0
O917 O 0.30926 0.91589 0.91878 0.0
O918 O 0.34603 0.89698 0.96886 0.0
O919 O 0.32808 0.88799 0.94609 0.0
O920 O 0.28381 0.89684 0.95062 0.0
O921 O 0.30265 0.89976 0.97416 0.0
C922 C 0.32501 0.92332 0.92062 0.0
C923 C 0.28724 0.89427 0.96755 0.0
C924 C 0.84582 0.03211 0.21564 0.0
C925 C 0.81629 0.07111 0.16972 0.0
O926 O 0.84002 0.0474 0.2222 0.0
Zn927 Zn 0.82639 0.07137 0.21296 0.0
O928 O 0.84392 0.02883 0.19856 0.0
Zn929 Zn 0.83154 0.05181 0.19222 0.0
O930 O 0.85247 0.07301 0.19522 0.0
O931 O 0.84315 0.09081 0.218 0.0
O932 O 0.82432 0.05579 0.1669 0.0
O933 O 0.81604 0.07813 0.18595 0.0
O934 O 0.80491 0.07105 0.22766 0.0
O935 O 0.80471 0.04976 0.20582 0.0
C936 C 0.85489 0.08715 0.20559 0.0
C937 C 0.79678 0.05801 0.21935 0.0
C938 C 0.71494 0.59274 0.46469 0.0
C939 C 0.67702 0.56538 0.41689 0.0
O940 O 0.69911 0.58787 0.47073 0.0
Zn941 Zn 0.67512 0.57471 0.46032 0.0
O942 O 0.71906 0.58972 0.44797 0.0
Zn943 Zn 0.69598 0.57848 0.44085 0.0
O944 O 0.67589 0.60081 0.44288 0.0
O945 O 0.65645 0.59238 0.46466 0.0
O946 O 0.69321 0.57186 0.41538 0.0
O947 O 0.66894 0.56537 0.43265 0.0
O948 O 0.67345 0.55339 0.4751 0.0
O949 O 0.69598 0.55171 0.45466 0.0
C950 C 0.66145 0.60402 0.45264 0.0
C951 C 0.68653 0.54447 0.46778 0.0
C952 C 0.64398 0.95421 0.72372 0.0
C953 C 0.67255 0.9199 0.67419 0.0
O954 O 0.65178 0.93954 0.72966 0.0
Zn955 Zn 0.6676 0.91749 0.71828 0.0
O956 O 0.64459 0.95804 0.70668 0.0
Zn957 Zn 0.65866 0.93689 0.69921 0.0
O958 O 0.64015 0.91345 0.70379 0.0
O959 O 0.654 0.89631 0.72472 0.0
O960 O 0.66347 0.93481 0.67336 0.0
O961 O 0.67531 0.91216 0.68988 0.0
O962 O 0.68999 0.91959 0.73106 0.0
O963 O 0.68594 0.94211 0.71095 0.0
C964 C 0.6405 0.89894 0.71399 0.0
C965 C 0.69567 0.93419 0.72344 0.0
C966 C 0.1825 0.94718 0.51347 0.0
C967 C 0.15503 0.89105 0.5362 0.0
O968 O 0.19242 0.9405 0.52653 0.0
Zn969 Zn 0.19154 0.91553 0.54332 0.0
O970 O 0.168 0.93889 0.50841 0.0
Zn971 Zn 0.16941 0.91897 0.52516 0.0
O972 O 0.16572 0.93108 0.55215 0.0
O973 O 0.19084 0.92481 0.56816 0.0
O974 O 0.14962 0.90203 0.52373 0.0
O975 O 0.1703 0.89425 0.54459 0.0
O976 O 0.2134 0.90212 0.5357 0.0
O977 O 0.19184 0.90344 0.51439 0.0
C978 C 0.17491 0.93202 0.56725 0.0
C979 C 0.20779 0.89803 0.51965 0.0
C980 C 0.85167 0.44826 0.26723 0.0
C981 C 0.81275 0.4119 0.30761 0.0
O982 O 0.84676 0.43304 0.25981 0.0
Zn983 Zn 0.83017 0.40988 0.26682 0.0
O984 O 0.84635 0.45213 0.28343 0.0
Zn985 Zn 0.8323 0.42994 0.28744 0.0
O986 O 0.85281 0.40809 0.28861 0.0
O987 O 0.84668 0.38975 0.26517 0.0
O988 O 0.82045 0.42725 0.31094 0.0
O989 O 0.81505 0.40415 0.29187 0.0
O990 O 0.81183 0.41067 0.24828 0.0
O991 O 0.80914 0.43315 0.26862 0.0
C992 C 0.85641 0.39356 0.27917 0.0
C993 C 0.80339 0.42482 0.25409 0.0
C994 C 0.18395 0.0843 0.81214 0.0
C995 C 0.15052 0.05256 0.76357 0.0
O996 O 0.18569 0.09225 0.79642 0.0
Zn997 Zn 0.17543 0.08843 0.76866 0.0
O998 O 0.17401 0.06996 0.8136 0.0
Zn999 Zn 0.16715 0.06862 0.78801 0.0
O1000 O 0.19352 0.06336 0.77477 0.0
O1001 O 0.19715 0.0856 0.75428 0.0
O1002 O 0.15218 0.04797 0.78036 0.0
O1003 O 0.15825 0.0673 0.75775 0.0
O1004 O 0.16173 0.11043 0.76451 0.0
O1005 O 0.14923 0.09253 0.78566 0.0
C1006 C 0.20294 0.07097 0.76188 0.0
C1007 C 0.14907 0.10751 0.77621 0.0
C1008 C 0.53117 0.84451 0.1073 0.0
C1009 C 0.50629 0.81429 0.0535 0.0
O1010 O 0.54038 0.82985 0.10357 0.0
Zn1011 Zn 0.53899 0.80817 0.08291 0.0
O1012 O 0.51721 0.84862 0.09761 0.0
Zn1013 Zn 0.5186 0.82857 0.08091 0.0
O1014 O 0.51127 0.80558 0.09746 0.0
O1015 O 0.5344 0.78592 0.09683 0.0
O1016 O 0.50027 0.82813 0.06227 0.0
O1017 O 0.52068 0.80575 0.05931 0.0
O1018 O 0.56274 0.81077 0.07145 0.0
O1019 O 0.54395 0.83419 0.06631 0.0
C1020 C 0.51837 0.7902 0.10234 0.0
C1021 C 0.55965 0.82634 0.06407 0.0
C1022 C 0.40596 0.78398 0.35259 0.0
C1023 C 0.43592 0.76668 0.29569 0.0
O1024 O 0.42081 0.79334 0.35021 0.0
Zn1025 Zn 0.4425 0.79469 0.32943 0.0
O1026 O 0.40149 0.77182 0.34086 0.0
Zn1027 Zn 0.42163 0.77535 0.32449 0.0
O1028 O 0.44441 0.76518 0.33989 0.0
O1029 O 0.46456 0.7877 0.34268 0.0
O1030 O 0.42182 0.7599 0.30341 0.0
O1031 O 0.44476 0.77991 0.30344 0.0
O1032 O 0.44043 0.81991 0.32168 0.0
O1033 O 0.4165 0.80274 0.31398 0.0
C1034 C 0.45991 0.77114 0.34583 0.0
C1035 C 0.42472 0.81841 0.31411 0.0
C1036 C 0.47026 0.70841 0.59284 0.0
C1037 C 0.42544 0.6723 0.55826 0.0
O1038 O 0.4766 0.69297 0.58717 0.0
Zn1039 Zn 0.46776 0.67014 0.57133 0.0
O1040 O 0.4539 0.71307 0.58869 0.0
Zn1041 Zn 0.44762 0.69089 0.57507 0.0
O1042 O 0.44831 0.66969 0.59601 0.0
O1043 O 0.47025 0.65011 0.58821 0.0
O1044 O 0.42277 0.68783 0.56592 0.0
O1045 O 0.44135 0.66465 0.55913 0.0
O1046 O 0.4843 0.67068 0.55101 0.0
O1047 O 0.46359 0.69301 0.54991 0.0
C1048 C 0.45752 0.65494 0.5992 0.0
C1049 C 0.47736 0.68445 0.54281 0.0
C1050 C 0.55967 0.72271 0.7963 0.0
C1051 C 0.59163 0.70465 0.85203 0.0
O1052 O 0.55165 0.70884 0.80384 0.0
Zn1053 Zn 0.55503 0.69334 0.82939 0.0
O1054 O 0.57353 0.73002 0.80402 0.0
Zn1055 Zn 0.57471 0.71399 0.82472 0.0
O1056 O 0.58089 0.68728 0.81299 0.0
O1057 O 0.55813 0.66852 0.8206 0.0
O1058 O 0.59498 0.71778 0.84099 0.0
O1059 O 0.57721 0.69468 0.84955 0.0
O1060 O 0.53285 0.69886 0.84319 0.0
O1061 O 0.55141 0.72266 0.84023 0.0
C1062 C 0.57352 0.6712 0.81269 0.0
C1063 C 0.53633 0.71572 0.84622 0.0
C1064 C 0.53113 0.21158 0.90406 0.0
C1065 C 0.57039 0.16765 0.93588 0.0
O1066 O 0.52303 0.19635 0.90766 0.0
Zn1067 Zn 0.52906 0.1707 0.92016 0.0
O1068 O 0.548 0.2136 0.90822 0.0
Zn1069 Zn 0.55108 0.18946 0.91948 0.0
O1070 O 0.54992 0.17037 0.89643 0.0
O1071 O 0.52529 0.15325 0.90113 0.0
O1072 O 0.57475 0.18351 0.92987 0.0
O1073 O 0.55402 0.16147 0.93333 0.0
O1074 O 0.51133 0.17016 0.93918 0.0
O1075 O 0.53339 0.1907 0.94389 0.0
C1076 C 0.53923 0.1572 0.89138 0.0
C1077 C 0.51851 0.18261 0.9491 0.0
C1078 C 0.04227 0.7807 0.15485 0.0
C1079 C 0.0772 0.8291 0.18443 0.0
O1080 O 0.05662 0.77416 0.16279 0.0
Zn1081 Zn 0.07884 0.78492 0.17899 0.0
O1082 O 0.03908 0.79784 0.15565 0.0
Zn1083 Zn 0.0601 0.80457 0.17019 0.0
O1084 O 0.08393 0.80022 0.15206 0.0
O1085 O 0.10008 0.77827 0.16543 0.0
O1086 O 0.0623 0.83021 0.17535 0.0
O1087 O 0.08472 0.81327 0.18708 0.0
O1088 O 0.07626 0.77191 0.20134 0.0
O1089 O 0.05442 0.79274 0.19738 0.0
C1090 C 0.09815 0.78964 0.15233 0.0
C1091 C 0.06193 0.77999 0.20711 0.0
C1092 C 0.46648 0.30979 0.45287 0.0
C1093 C 0.4595 0.34299 0.39601 0.0
O1094 O 0.45343 0.30229 0.44351 0.0
Zn1095 Zn 0.44235 0.30679 0.41569 0.0
O1096 O 0.47537 0.32319 0.4462 0.0
Zn1097 Zn 0.46265 0.32506 0.42373 0.0
O1098 O 0.43444 0.33264 0.43123 0.0
O1099 O 0.41669 0.31053 0.42016 0.0
O1100 O 0.47056 0.34514 0.40933 0.0
O1101 O 0.44817 0.32934 0.39626 0.0
O1102 O 0.44843 0.28464 0.40239 0.0
O1103 O 0.47264 0.30175 0.40861 0.0
C1104 C 0.41832 0.32572 0.42866 0.0
C1105 C 0.46566 0.28726 0.40135 0.0
C1106 C 0.92792 0.7375 0.6976 0.0
C1107 C 0.89063 0.72206 0.64497 0.0
O1108 O 0.93524 0.72383 0.68905 0.0
Zn1109 Zn 0.92911 0.70918 0.66344 0.0
O1110 O 0.91329 0.74479 0.69154 0.0
Zn1111 Zn 0.91023 0.72947 0.67076 0.0
O1112 O 0.90492 0.70216 0.68197 0.0
O1113 O 0.92698 0.6841 0.67131 0.0
O1114 O 0.88861 0.73447 0.65706 0.0
O1115 O 0.90506 0.71175 0.6454 0.0
O1116 O 0.95001 0.71484 0.64805 0.0
O1117 O 0.93205 0.73874 0.65325 0.0
C1118 C 0.9124 0.68615 0.68076 0.0
C1119 C 0.94647 0.7318 0.6458 0.0
C1120 C 0.56525 0.56985 0.32708 0.0
C1121 C 0.59867 0.52738 0.28779 0.0
O1122 O 0.56454 0.55327 0.33323 0.0
Zn1123 Zn 0.57559 0.52674 0.32526 0.0
O1124 O 0.57403 0.57328 0.31234 0.0
Zn1125 Zn 0.58193 0.54854 0.30764 0.0
O1126 O 0.55601 0.53429 0.30177 0.0
O1127 O 0.55482 0.51159 0.32204 0.0
O1128 O 0.59637 0.54456 0.2856 0.0
O1129 O 0.59181 0.51943 0.30197 0.0
O1130 O 0.59047 0.52016 0.3456 0.0
O1131 O 0.60128 0.5441 0.33033 0.0
C1132 C 0.5479 0.52001 0.30842 0.0
C1133 C 0.6025 0.53268 0.34384 0.0
C1134 C 0.70543 0.84987 0.59692 0.0
C1135 C 0.71594 0.79503 0.56117 0.0
O1136 O 0.69355 0.84884 0.5838 0.0
Zn1137 Zn 0.68826 0.82977 0.56101 0.0
O1138 O 0.718 0.83781 0.59807 0.0
Zn1139 Zn 0.71052 0.82318 0.57784 0.0
O1140 O 0.71738 0.83959 0.5545 0.0
O1141 O 0.6918 0.84424 0.53889 0.0
O1142 O 0.72517 0.80206 0.57418 0.0
O1143 O 0.70158 0.80336 0.55499 0.0
O1144 O 0.66346 0.82253 0.56638 0.0
O1145 O 0.68386 0.8127 0.58675 0.0
C1146 C 0.70903 0.84658 0.54061 0.0
C1147 C 0.6671 0.81378 0.58109 0.0
C1148 C 0.43123 0.92527 0.82649 0.0
C1149 C 0.3996 0.97331 0.79258 0.0
O1150 O 0.43296 0.94106 0.83433 0.0
Zn1151 Zn 0.42348 0.96902 0.82923 0.0
O1152 O 0.42225 0.92394 0.81153 0.0
Zn1153 Zn 0.4159 0.94946 0.80968 0.0
O1154 O 0.44265 0.96244 0.80502 0.0
O1155 O 0.44519 0.98317 0.82716 0.0
O1156 O 0.40147 0.95644 0.78852 0.0
O1157 O 0.40694 0.97957 0.80735 0.0
O1158 O 0.40936 0.97418 0.85053 0.0
O1159 O 0.39725 0.95235 0.83322 0.0
C1160 C 0.45165 0.97548 0.81291 0.0
C1161 C 0.39681 0.96236 0.84784 0.0
C1162 C 0.26911 0.64687 0.05222 0.0
C1163 C 0.31611 0.67988 0.08648 0.0
O1164 O 0.26277 0.65369 0.06721 0.0
Zn1165 Zn 0.27277 0.67025 0.08929 0.0
O1166 O 0.28586 0.64944 0.04794 0.0
Zn1167 Zn 0.29264 0.66364 0.06931 0.0
O1168 O 0.29035 0.64442 0.0921 0.0
O1169 O 0.26873 0.65529 0.11053 0.0
O1170 O 0.31799 0.67099 0.07152 0.0
O1171 O 0.30022 0.68084 0.09423 0.0
O1172 O 0.25783 0.69169 0.08725 0.0
O1173 O 0.27867 0.68972 0.06514 0.0
C1174 C 0.28078 0.64313 0.10694 0.0
C1175 C 0.2654 0.69838 0.073 0.0
C1176 C 0.55813 0.427 0.66847 0.0
C1177 C 0.5903 0.47173 0.70704 0.0
O1178 O 0.55879 0.44313 0.66126 0.0
Zn1179 Zn 0.57024 0.46974 0.6679 0.0
O1180 O 0.56558 0.42408 0.68406 0.0
Zn1181 Zn 0.574 0.44906 0.68795 0.0
O1182 O 0.54807 0.46408 0.68964 0.0
O1183 O 0.54934 0.48558 0.66809 0.0
O1184 O 0.58678 0.45501 0.71082 0.0
O1185 O 0.58489 0.47843 0.69165 0.0
O1186 O 0.58759 0.47339 0.64845 0.0
O1187 O 0.59539 0.45073 0.66714 0.0
C1188 C 0.54077 0.47783 0.6812 0.0
C1189 C 0.59868 0.46059 0.65281 0.0
C1190 C 0.77489 0.84728 0.95338 0.0
C1191 C 0.81871 0.81615 0.91351 0.0
O1192 O 0.76709 0.84131 0.93872 0.0
Zn1193 Zn 0.77528 0.8267 0.91455 0.0
O1194 O 0.79207 0.84497 0.95544 0.0
Zn1195 Zn 0.79687 0.83198 0.93271 0.0
O1196 O 0.79371 0.85199 0.91054 0.0
O1197 O 0.76964 0.84272 0.89452 0.0
O1198 O 0.82185 0.82452 0.92858 0.0
O1199 O 0.80228 0.81581 0.90685 0.0
O1200 O 0.7605 0.80518 0.91591 0.0
O1201 O 0.7835 0.80512 0.93587 0.0
C1202 C 0.78275 0.85404 0.89677 0.0
C1203 C 0.7696 0.79706 0.92841 0.0
C1204 C 0.39895 0.02669 0.21271 0.0
C1205 C 0.42971 0.07055 0.17257 0.0
O1206 O 0.40452 0.01944 0.19763 0.0
Zn1207 Zn 0.41814 0.02767 0.17323 0.0
O1208 O 0.40112 0.04384 0.2153 0.0
Zn1209 Zn 0.41357 0.04912 0.19218 0.0
O1210 O 0.39266 0.04644 0.17096 0.0
O1211 O 0.40101 0.02278 0.15391 0.0
O1212 O 0.42166 0.07401 0.18775 0.0
O1213 O 0.4294 0.05419 0.16588 0.0
O1214 O 0.43945 0.01247 0.17387 0.0
O1215 O 0.44005 0.03489 0.19452 0.0
C1216 C 0.38981 0.0358 0.15711 0.0
C1217 C 0.44777 0.02104 0.18663 0.0
C1218 C 0.21843 0.69908 0.43555 0.0
C1219 C 0.20091 0.64103 0.40814 0.0
O1220 O 0.20418 0.69249 0.44377 0.0
Zn1221 Zn 0.18856 0.66672 0.44226 0.0
O1222 O 0.22629 0.68989 0.42295 0.0
Zn1223 Zn 0.20997 0.66952 0.42308 0.0
O1224 O 0.18378 0.68142 0.41511 0.0
O1225 O 0.16396 0.67556 0.43751 0.0
O1226 O 0.21424 0.65167 0.40439 0.0
O1227 O 0.19041 0.64478 0.4219 0.0
O1228 O 0.19323 0.65467 0.46578 0.0
O1229 O 0.21763 0.65589 0.44782 0.0
C1230 C 0.16745 0.68256 0.42183 0.0
C1231 C 0.21015 0.65115 0.46309 0.0
C1232 C 0.82434 0.55241 0.01302 0.0
C1233 C 0.86276 0.60571 0.0235 0.0
O1234 O 0.81725 0.56272 0.02553 0.0
Zn1235 Zn 0.82327 0.58996 0.03674 0.0
O1236 O 0.83857 0.55768 0.00436 0.0
Zn1237 Zn 0.84206 0.58018 0.01723 0.0
O1238 O 0.84629 0.57108 0.04551 0.0
O1239 O 0.82481 0.5843 0.06264 0.0
O1240 O 0.86441 0.59283 0.01182 0.0
O1241 O 0.8481 0.60659 0.03342 0.0
O1242 O 0.8027 0.605 0.02864 0.0
O1243 O 0.82088 0.59694 0.00576 0.0
C1244 C 0.83875 0.57375 0.06131 0.0
C1245 C 0.80649 0.60533 0.01158 0.0
C1246 C 0.34228 0.39685 0.46327 0.0
C1247 C 0.30937 0.45359 0.47322 0.0
O1248 O 0.32878 0.39805 0.45182 0.0
Zn1249 Zn 0.30625 0.41773 0.4472 0.0
O1250 O 0.344 0.40896 0.47571 0.0
Zn1251 Zn 0.32412 0.42426 0.46848 0.0
O1252 O 0.30009 0.40951 0.477 0.0
O1253 O 0.2838 0.40442 0.45196 0.0
O1254 O 0.32233 0.44623 0.48227 0.0
O1255 O 0.3021 0.44497 0.45956 0.0
O1256 O 0.31033 0.42389 0.42206 0.0
O1257 O 0.33239 0.43317 0.44091 0.0
C1258 C 0.28568 0.40288 0.46924 0.0
C1259 C 0.32572 0.43182 0.42453 0.0
C1260 C 0.85405 0.53745 0.71424 0.0
C1261 C 0.82063 0.57492 0.67035 0.0
O1262 O 0.84801 0.55224 0.72174 0.0
Zn1263 Zn 0.83245 0.57579 0.71333 0.0
O1264 O 0.85113 0.53464 0.69726 0.0
Zn1265 Zn 0.83724 0.55676 0.69255 0.0
O1266 O 0.85716 0.57939 0.69417 0.0
O1267 O 0.84827 0.59604 0.71793 0.0
O1268 O 0.82865 0.55958 0.66789 0.0
O1269 O 0.8207 0.5824 0.68642 0.0
O1270 O 0.812 0.57462 0.72935 0.0
O1271 O 0.81145 0.55302 0.70791 0.0
C1272 C 0.85931 0.59351 0.70465 0.0
C1273 C 0.80411 0.56095 0.72196 0.0
C1274 C 0.68 0.04123 0.97637 0.0
C1275 C 0.65209 0.09971 0.96109 0.0
O1276 O 0.68872 0.04898 0.96306 0.0
Zn1277 Zn 0.6873 0.07545 0.94897 0.0
O1278 O 0.66664 0.04944 0.98408 0.0
Zn1279 Zn 0.66682 0.07082 0.96907 0.0
O1280 O 0.66076 0.06046 0.94196 0.0
O1281 O 0.68389 0.06809 0.92361 0.0
O1282 O 0.64742 0.088 0.9732 0.0
O1283 O 0.66658 0.09687 0.95133 0.0
O1284 O 0.71014 0.08773 0.95584 0.0
O1285 O 0.69052 0.08474 0.97879 0.0
C1286 C 0.66829 0.06047 0.92596 0.0
C1287 C 0.70608 0.09032 0.97266 0.0
C1288 C 0.68044 0.4181 0.1777 0.0
C1289 C 0.64815 0.45192 0.2255 0.0
O1290 O 0.68225 0.41061 0.19363 0.0
Zn1291 Zn 0.67269 0.41578 0.22139 0.0
O1292 O 0.67108 0.4328 0.17601 0.0
Zn1293 Zn 0.66461 0.43508 0.20159 0.0
O1294 O 0.69116 0.44044 0.2146 0.0
O1295 O 0.69433 0.41844 0.23544 0.0
O1296 O 0.64981 0.4561 0.2086 0.0
O1297 O 0.65584 0.43732 0.23169 0.0
O1298 O 0.6589 0.39443 0.22689 0.0
O1299 O 0.64635 0.41137 0.20498 0.0
C1300 C 0.70033 0.43286 0.2277 0.0
C1301 C 0.64616 0.39689 0.21521 0.0
C1302 C 0.17951 0.44499 0.00592 0.0
C1303 C 0.14505 0.39296 0.02859 0.0
O1304 O 0.18675 0.43921 0.02104 0.0
Zn1305 Zn 0.18143 0.41607 0.03977 0.0
O1306 O 0.16554 0.43686 -0.00064 0.0
Zn1307 Zn 0.16314 0.41868 0.01776 0.0
O1308 O 0.15566 0.43373 0.04242 0.0
O1309 O 0.17726 0.42789 0.06307 0.0
O1310 O 0.14289 0.40267 0.01425 0.0
O1311 O 0.1588 0.39617 0.0393 0.0
O1312 O 0.20348 0.40116 0.03767 0.0
O1313 O 0.18651 0.40168 0.01251 0.0
C1314 C 0.16224 0.43575 0.05873 0.0
C1315 C 0.20093 0.3962 0.0211 0.0
C1316 C 0.80916 0.90555 0.80407 0.0
C1317 C 0.84773 0.9386 0.76067 0.0
O1318 O 0.80954 0.89742 0.78834 0.0
Zn1319 Zn 0.82294 0.90208 0.76196 0.0
O1320 O 0.81796 0.92049 0.80625 0.0
Zn1321 Zn 0.8281 0.92194 0.78191 0.0
O1322 O 0.80428 0.92737 0.76433 0.0
O1323 O 0.80367 0.90418 0.74468 0.0
O1324 O 0.84367 0.94274 0.77715 0.0
O1325 O 0.84115 0.92385 0.7535 0.0
O1326 O 0.83736 0.8806 0.759 0.0
O1327 O 0.84705 0.89851 0.78158 0.0
C1328 C 0.79706 0.91931 0.75031 0.0
C1329 C 0.84861 0.88369 0.77198 0.0
C1330 C 0.17548 0.57875 0.32225 0.0
C1331 C 0.14268 0.54112 0.27746 0.0
O1332 O 0.17459 0.58634 0.3063 0.0
Zn1333 Zn 0.16236 0.58039 0.27994 0.0
O1334 O 0.16784 0.56324 0.32497 0.0
Zn1335 Zn 0.15869 0.55998 0.30019 0.0
O1336 O 0.18396 0.55797 0.28395 0.0
O1337 O 0.18251 0.58052 0.26346 0.0
O1338 O 0.14582 0.53727 0.29424 0.0
O1339 O 0.148 0.55661 0.27096 0.0
O1340 O 0.14511 0.59976 0.27666 0.0
O1341 O 0.13729 0.58083 0.29909 0.0
C1342 C 0.19082 0.56668 0.27013 0.0
C1343 C 0.13404 0.59528 0.2894 0.0
H1344 H 0.98919 0.30752 0.03884 0.0
H1345 H 0.04706 0.31047 0.02593 0.0
H1346 H 0.03996 0.30996 0.99291 0.0
H1347 H 0.0169 0.3137 0.96818 0.0
H1348 H 0.95909 0.30924 0.98109 0.0
H1349 H 0.96646 0.30499 0.01373 0.0
C1350 C 0.00021 0.30747 0.02872 0.0
C1351 C 0.01856 0.30915 0.03458 0.0
C1352 C 0.996 0.30713 0.00988 0.0
C1353 C 0.03284 0.30904 0.02157 0.0
C1354 C 0.02877 0.30895 0.00275 0.0
C1355 C 0.006 0.31136 0.97814 0.0
C1356 C 0.98751 0.31204 0.97246 0.0
C1357 C 0.01036 0.30876 0.99679 0.0
C1358 C 0.97342 0.30876 0.98528 0.0
C1359 C 0.97762 0.30646 0.00391 0.0
H1360 H 0.92949 0.20698 0.22967 0.0
H1361 H 0.93507 0.26145 0.20681 0.0
H1362 H 0.93676 0.27464 0.23783 0.0
H1363 H 0.93294 0.27096 0.27127 0.0
H1364 H 0.92294 0.21696 0.29383 0.0
H1365 H 0.92684 0.20317 0.26329 0.0
C1366 C 0.9315 0.22167 0.23159 0.0
C1367 C 0.93233 0.23329 0.21618 0.0
C1368 C 0.93147 0.22919 0.24942 0.0
C1369 C 0.93448 0.25234 0.21862 0.0
C1370 C 0.93538 0.25985 0.2363 0.0
C1371 C 0.93203 0.25614 0.26949 0.0
C1372 C 0.92777 0.24492 0.28464 0.0
C1373 C 0.93336 0.24847 0.25179 0.0
C1374 C 0.92621 0.2258 0.28225 0.0
C1375 C 0.9284 0.21794 0.26482 0.0
H1376 H 0.96664 0.18634 0.51929 0.0
H1377 H 0.01984 0.19143 0.54503 0.0
H1378 H 0.03433 0.19641 0.51497 0.0
H1379 H 0.03247 0.1934 0.48125 0.0
H1380 H 0.97969 0.18403 0.45572 0.0
H1381 H 0.96432 0.18693 0.48554 0.0
C1382 C 0.98128 0.18922 0.51825 0.0
C1383 C 0.99223 0.18871 0.53411 0.0
C1384 C 0.9896 0.19098 0.50088 0.0
C1385 C 0.01124 0.19195 0.53282 0.0
C1386 C 0.01952 0.19464 0.51567 0.0
C1387 C 0.01757 0.19256 0.48224 0.0
C1388 C 0.00717 0.18843 0.4665 0.0
C1389 C 0.00896 0.19331 0.49955 0.0
C1390 C 0.98791 0.18709 0.46781 0.0
C1391 C 0.97914 0.18869 0.48482 0.0
H1392 H 0.06509 0.21292 0.77039 0.0
H1393 H 0.0565 0.26566 0.79613 0.0
H1394 H 0.05487 0.28055 0.76585 0.0
H1395 H 0.0596 0.27896 0.73228 0.0
H1396 H 0.07236 0.22672 0.70709 0.0
H1397 H 0.06857 0.21114 0.73673 0.0
C1398 C 0.0624 0.22759 0.76923 0.0
C1399 C 0.06067 0.23824 0.78523 0.0
C1400 C 0.0625 0.23612 0.75188 0.0
C1401 C 0.0577 0.25728 0.78383 0.0
C1402 C 0.05688 0.26577 0.76657 0.0
C1403 C 0.0612 0.26413 0.7333 0.0
C1404 C 0.06624 0.25395 0.71766 0.0
C1405 C 0.0598 0.25541 0.75052 0.0
C1406 C 0.06858 0.23479 0.71907 0.0
C1407 C 0.06641 0.2259 0.73597 0.0
H1408 H 0.97976 0.69752 0.02217 0.0
H1409 H 0.03149 0.68122 0.04636 0.0
H1410 H 0.04711 0.68561 0.0169 0.0
H1411 H 0.04462 0.68762 0.98328 0.0
H1412 H 0.9922 0.69989 0.95843 0.0
H1413 H 0.97829 0.70406 0.98889 0.0
C1414 C 0.99454 0.69554 0.02103 0.0
C1415 C 0.00449 0.6889 0.03619 0.0
C1416 C 0.00324 0.69723 0.00382 0.0
C1417 C 0.02359 0.68616 0.03468 0.0
C1418 C 0.0325 0.68862 0.01786 0.0
C1419 C 0.03038 0.69199 0.98465 0.0
C1420 C 0.0194 0.69366 0.96889 0.0
C1421 C 0.0223 0.69324 0.00216 0.0
C1422 C 0.00084 0.69879 0.97056 0.0
C1423 C 0.99288 0.70096 0.98794 0.0
H1424 H 0.56146 0.23817 0.21343 0.0
H1425 H 0.56489 0.29578 0.22716 0.0
H1426 H 0.56342 0.28828 0.26008 0.0
H1427 H 0.56497 0.26489 0.28477 0.0
H1428 H 0.5593 0.20743 0.27099 0.0
H1429 H 0.55755 0.21521 0.23819 0.0
C1430 C 0.56142 0.24904 0.22368 0.0
C1431 C 0.56337 0.26744 0.21809 0.0
C1432 C 0.56033 0.24462 0.24248 0.0
C1433 C 0.56327 0.28153 0.2313 0.0
C1434 C 0.56258 0.27723 0.25007 0.0
C1435 C 0.56299 0.25417 0.27455 0.0
C1436 C 0.56246 0.23564 0.2801 0.0
C1437 C 0.56168 0.25878 0.2558 0.0
C1438 C 0.55969 0.22179 0.26692 0.0
C1439 C 0.55881 0.22622 0.2482 0.0
H1440 H 0.98624 0.80786 0.53792 0.0
H1441 H 0.04245 0.80972 0.51889 0.0
H1442 H 0.03192 0.80814 0.48684 0.0
H1443 H 0.00642 0.81041 0.46448 0.0
H1444 H 0.95029 0.80656 0.48349 0.0
H1445 H 0.96099 0.80442 0.51543 0.0
C1446 C 0.99612 0.80749 0.52671 0.0
C1447 C 0.015 0.80908 0.53053 0.0
C1448 C 0.98997 0.80635 0.50843 0.0
C1449 C 0.02783 0.80844 0.5161 0.0
C1450 C 0.02182 0.80768 0.49783 0.0
C1451 C 0.99662 0.80868 0.47564 0.0
C1452 C 0.97766 0.80884 0.47186 0.0
C1453 C 0.00289 0.80725 0.49386 0.0
C1454 C 0.96497 0.80642 0.48623 0.0
C1455 C 0.97107 0.80534 0.50445 0.0
H1456 H 0.44245 0.2598 0.71889 0.0
H1457 H 0.43727 0.2026 0.73378 0.0
H1458 H 0.43982 0.21062 0.7665 0.0
H1459 H 0.43854 0.23455 0.79063 0.0
H1460 H 0.44523 0.29162 0.77564 0.0
H1461 H 0.44745 0.28308 0.7431 0.0
C1462 C 0.44245 0.2491 0.72934 0.0
C1463 C 0.43956 0.23071 0.72417 0.0
C1464 C 0.44399 0.25383 0.74801 0.0
C1465 C 0.4396 0.21684 0.73761 0.0
C1466 C 0.44088 0.22145 0.75627 0.0
C1467 C 0.44094 0.24501 0.78022 0.0
C1468 C 0.44147 0.26366 0.78534 0.0
C1469 C 0.44233 0.23998 0.76161 0.0
C1470 C 0.4448 0.27717 0.77192 0.0
C1471 C 0.44593 0.27231 0.75333 0.0
H1472 H 0.95833 0.01273 0.31386 0.0
H1473 H 0.96867 0.95426 0.3131 0.0
H1474 H 0.00188 0.95988 0.31149 0.0
H1475 H 0.02782 0.9815 0.3151 0.0
H1476 H 0.01756 0.03997 0.31412 0.0
H1477 H 0.98441 0.03437 0.31127 0.0
C1478 C 0.9679 0.00128 0.31287 0.0
C1479 C 0.96125 0.98315 0.31382 0.0
C1480 C 0.9869 0.00463 0.31179 0.0
C1481 C 0.97359 0.96834 0.31235 0.0
C1482 C 0.99255 0.97154 0.31157 0.0
C1483 C 0.0183 0.99296 0.31378 0.0
C1484 C 0.02491 0.01108 0.31502 0.0
C1485 C -0.00065 0.98962 0.312 0.0
C1486 C 0.01265 0.0259 0.31313 0.0
C1487 C 0.99373 0.02271 0.31166 0.0
H1488 H 0.26374 0.28862 0.56024 0.0
H1489 H 0.20691 0.27263 0.55362 0.0
H1490 H 0.21608 0.24028 0.55106 0.0
H1491 H 0.23984 0.21651 0.55594 0.0
H1492 H 0.29676 0.23243 0.56126 0.0
H1493 H 0.28813 0.26499 0.55879 0.0
C1494 C 0.25347 0.27804 0.55776 0.0
C1495 C 0.23472 0.28279 0.55737 0.0
C1496 C 0.25886 0.25956 0.55623 0.0
C1497 C 0.22144 0.26917 0.55394 0.0
C1498 C 0.22666 0.2507 0.55263 0.0
C1499 C 0.25033 0.22716 0.55599 0.0
C1500 C 0.26882 0.22234 0.55891 0.0
C1501 C 0.24525 0.24572 0.55451 0.0
C1502 C 0.28245 0.23601 0.55893 0.0
C1503 C 0.2775 0.25457 0.55768 0.0
H1504 H 0.96407 0.51124 0.8136 0.0
H1505 H 0.97939 0.45452 0.80497 0.0
H1506 H 0.01179 0.46345 0.80201 0.0
H1507 H 0.03591 0.48694 0.80625 0.0
H1508 H 0.02065 0.54385 0.8132 0.0
H1509 H 0.98792 0.53547 0.81206 0.0
C1510 C 0.97452 0.50094 0.81073 0.0
C1511 C 0.96957 0.48226 0.80978 0.0
C1512 C 0.99302 0.50622 0.80878 0.0
C1513 C 0.98302 0.46898 0.80578 0.0
C1514 C 0.0015 0.47406 0.80418 0.0
C1515 C 0.02535 0.49751 0.80694 0.0
C1516 C 0.03045 0.51591 0.80987 0.0
C1517 C 0.0067 0.49257 0.80624 0.0
C1518 C 0.01687 0.52961 0.81078 0.0
C1519 C 0.99822 0.52479 0.81033 0.0
H1520 H 0.78749 0.22449 0.05399 0.0
H1521 H 0.73303 0.20089 0.05498 0.0
H1522 H 0.71931 0.23169 0.05492 0.0
H1523 H 0.723 0.26511 0.05936 0.0
H1524 H 0.77759 0.28817 0.06287 0.0
H1525 H 0.79114 0.25805 0.05615 0.0
C1526 C 0.77263 0.22618 0.05365 0.0
C1527 C 0.76123 0.21061 0.05439 0.0
C1528 C 0.76491 0.24388 0.05466 0.0
C1529 C 0.742 0.21281 0.05438 0.0
C1530 C 0.73418 0.23038 0.05443 0.0
C1531 C 0.73783 0.26353 0.05815 0.0
C1532 C 0.74934 0.27866 0.0615 0.0
C1533 C 0.7455 0.246 0.05527 0.0
C1534 C 0.76854 0.27657 0.06031 0.0
C1535 C 0.77627 0.25938 0.05654 0.0
H1536 H 0.03656 0.01551 0.68541 0.0
H1537 H 0.0249 0.95741 0.68918 0.0
H1538 H 0.99217 0.96404 0.69384 0.0
H1539 H 0.96657 0.98625 0.69183 0.0
H1540 H 0.9782 0.04439 0.68949 0.0
H1541 H 0.01137 0.03799 0.68967 0.0
C1542 C 0.02686 0.00437 0.68769 0.0
C1543 C 0.03293 0.98603 0.68669 0.0
C1544 C 0.00814 0.00831 0.69051 0.0
C1545 C 0.02043 0.97164 0.68989 0.0
C1546 C 0.00173 0.97542 0.69243 0.0
C1547 C 0.97643 0.99748 0.69194 0.0
C1548 C 0.97016 0.01571 0.69051 0.0
C1549 C 0.99537 0.99367 0.69206 0.0
C1550 C 0.98287 0.03026 0.69071 0.0
C1551 C 0.00178 0.02658 0.69062 0.0
H1552 H 0.2114 0.22317 0.92204 0.0
H1553 H 0.25755 0.20433 0.95418 0.0
H1554 H 0.27054 0.23557 0.95436 0.0
H1555 H 0.27031 0.26731 0.94227 0.0
H1556 H 0.22538 0.28501 0.90754 0.0
H1557 H 0.2103 0.25523 0.91143 0.0
C1558 C 0.22402 0.22613 0.92951 0.0
C1559 C 0.23341 0.21181 0.9384 0.0
C1560 C 0.23175 0.24382 0.92876 0.0
C1561 C 0.25002 0.21541 0.94757 0.0
C1562 C 0.25749 0.23317 0.94751 0.0
C1563 C 0.25711 0.2647 0.93577 0.0
C1564 C 0.24904 0.27827 0.92453 0.0
C1565 C 0.24873 0.24736 0.93767 0.0
C1566 C 0.23197 0.2747 0.91609 0.0
C1567 C 0.22331 0.25771 0.91835 0.0
H1568 H 0.0167 0.48126 0.19014 0.0
H1569 H 0.03754 0.53101 0.16519 0.0
H1570 H 0.00814 0.54641 0.1706 0.0
H1571 H 0.97534 0.54443 0.17859 0.0
H1572 H 0.9534 0.49378 0.20022 0.0
H1573 H 0.98431 0.48009 0.20038 0.0
C1574 C 0.01486 0.49557 0.18623 0.0
C1575 C 0.02915 0.50496 0.17716 0.0
C1576 C 0.99768 0.50415 0.1888 0.0
C1577 C 0.02662 0.52345 0.17201 0.0
C1578 C 0.00984 0.53228 0.17512 0.0
C1579 C 0.97754 0.53062 0.18389 0.0
C1580 C 0.96242 0.52015 0.1897 0.0
C1581 C 0.99511 0.5226 0.18299 0.0
C1582 C 0.96507 0.50209 0.196 0.0
C1583 C 0.98267 0.49424 0.19591 0.0
H1584 H 0.71399 0.22653 0.43425 0.0
H1585 H 0.76993 0.2066 0.43358 0.0
H1586 H 0.78152 0.23822 0.43564 0.0
H1587 H 0.77567 0.27151 0.43374 0.0
H1588 H 0.71983 0.29128 0.42973 0.0
H1589 H 0.70812 0.25987 0.43361 0.0
C1590 C 0.72869 0.22917 0.435 0.0
C1591 C 0.74115 0.21443 0.43392 0.0
C1592 C 0.7352 0.24737 0.43517 0.0
C1593 C 0.76017 0.21787 0.43444 0.0
C1594 C 0.76677 0.2359 0.43556 0.0
C1595 C 0.76095 0.26891 0.43417 0.0
C1596 C 0.74856 0.28353 0.43163 0.0
C1597 C 0.75442 0.25076 0.43539 0.0
C1598 C 0.72953 0.28012 0.43173 0.0
C1599 C 0.72288 0.2622 0.43388 0.0
H1600 H 0.30866 0.9569 0.00512 0.0
H1601 H 0.31192 0.97333 0.94817 0.0
H1602 H 0.31294 0.00582 0.95737 0.0
H1603 H 0.31662 0.0291 0.98196 0.0
H1604 H 0.31114 0.01272 0.03879 0.0
H1605 H 0.30707 0.98058 0.0294 0.0
C1606 C 0.30914 0.96767 0.99477 0.0
C1607 C 0.31032 0.96292 0.97606 0.0
C1608 C 0.30953 0.98622 0.00017 0.0
C1609 C 0.31086 0.97682 0.96265 0.0
C1610 C 0.31162 0.99533 0.96792 0.0
C1611 C 0.31423 0.01847 0.9922 0.0
C1612 C 0.31441 0.02306 0.01101 0.0
C1613 C 0.31154 0.00014 0.98667 0.0
C1614 C 0.31105 0.00938 0.02424 0.0
C1615 C 0.30882 0.99104 0.01888 0.0
H1616 H 0.80523 0.03372 0.4902 0.0
H1617 H 0.81248 0.01768 0.54688 0.0
H1618 H 0.8081 0.98525 0.53851 0.0
H1619 H 0.80703 0.9615 0.51423 0.0
H1620 H 0.79839 0.97761 0.45772 0.0
H1621 H 0.79814 0.01011 0.46679 0.0
C1622 C 0.80526 0.0231 0.50073 0.0
C1623 C 0.8092 0.02783 0.51905 0.0
C1624 C 0.8027 0.00461 0.49579 0.0
C1625 C 0.80929 0.01419 0.53271 0.0
C1626 C 0.80697 0.99569 0.5279 0.0
C1627 C 0.80467 0.97217 0.50402 0.0
C1628 C 0.80298 0.96737 0.48535 0.0
C1629 C 0.8044 0.99073 0.50937 0.0
C1630 C 0.7997 0.98112 0.47217 0.0
C1631 C 0.79969 -0.00034 0.47734 0.0
H1632 H 0.28694 0.05469 0.75263 0.0
H1633 H 0.27197 0.05715 0.69523 0.0
H1634 H 0.23933 0.05942 0.7036 0.0
H1635 H 0.21579 0.0652 0.72748 0.0
H1636 H 0.23056 0.06091 0.78484 0.0
H1637 H 0.26264 0.05462 0.77636 0.0
C1638 C 0.27643 0.05521 0.74201 0.0
C1639 C 0.28167 0.05591 0.7234 0.0
C1640 C 0.25779 0.05641 0.74694 0.0
C1641 C 0.26811 0.05649 0.70964 0.0
C1642 C 0.24952 0.05797 0.71443 0.0
C1643 C 0.22603 0.06249 0.73805 0.0
C1644 C 0.22108 0.06372 0.7567 0.0
C1645 C 0.2443 0.05863 0.73305 0.0
C1646 C 0.23421 0.06 0.77038 0.0
C1647 C 0.25251 0.05652 0.76555 0.0
H1648 H 0.19671 0.47455 0.02117 0.0
H1649 H 0.17749 0.45259 0.96941 0.0
H1650 H 0.18323 0.48208 0.95435 0.0
H1651 H 0.18824 0.51539 0.95726 0.0
H1652 H 0.20402 0.53813 0.00969 0.0
H1653 H 0.20565 0.5072 0.02306 0.0
C1654 C 0.19426 0.47614 0.00651 0.0
C1655 C 0.18646 0.46157 0.99646 0.0
C1656 C 0.19693 0.49337 0.99808 0.0
C1657 C 0.18324 0.46376 0.97748 0.0
C1658 C 0.18652 0.4806 0.96885 0.0
C1659 C 0.19277 0.5134 0.97138 0.0
C1660 C 0.19625 0.52878 0.98249 0.0
C1661 C 0.19261 0.49571 0.97918 0.0
C1662 C 0.20156 0.52631 0.00092 0.0
C1663 C 0.20227 0.50868 0.00858 0.0
H1664 H 0.28749 0.93764 0.23234 0.0
H1665 H 0.27322 0.94519 0.28951 0.0
H1666 H 0.2415 0.95267 0.28084 0.0
H1667 H 0.21701 0.95124 0.25742 0.0
H1668 H 0.23125 0.94433 0.20022 0.0
H1669 H 0.26401 0.94293 0.20831 0.0
C1670 C 0.27749 0.94137 0.24281 0.0
C1671 C 0.28242 0.94054 0.26152 0.0
C1672 C 0.25937 0.94571 0.2377 0.0
C1673 C 0.2696 0.94567 0.27503 0.0
C1674 C 0.25148 0.94985 0.27008 0.0
C1675 C 0.22741 0.95015 0.24672 0.0
C1676 C 0.22194 0.94778 0.22832 0.0
C1677 C 0.24607 0.94911 0.25153 0.0
C1678 C 0.23531 0.94634 0.21445 0.0
C1679 C 0.25397 0.94529 0.21912 0.0
H1680 H 0.68297 0.95583 0.987 0.0
H1681 H 0.68286 0.97191 0.04415 0.0
H1682 H 0.68526 0.00441 0.03525 0.0
H1683 H 0.68347 0.02815 0.01098 0.0
H1684 H 0.68566 0.012 0.95388 0.0
H1685 H 0.68667 0.97949 0.96288 0.0
C1686 C 0.6839 0.96649 0.99744 0.0
C1687 C 0.6826 0.96173 0.01613 0.0
C1688 C 0.68551 0.98501 0.99221 0.0
C1689 C 0.68392 0.97544 0.02967 0.0
C1690 C 0.68516 0.99396 0.02458 0.0
C1691 C 0.68456 0.01746 0.00059 0.0
C1692 C 0.68429 0.02225 0.98185 0.0
C1693 C 0.68538 -0.00109 0.00588 0.0
C1694 C 0.68589 0.00849 0.96839 0.0
C1695 C 0.68634 0.98995 0.97353 0.0
H1696 H 0.2915 0.44 0.74069 0.0
H1697 H 0.27946 0.44527 0.79865 0.0
H1698 H 0.24646 0.44341 0.79225 0.0
H1699 H 0.2215 0.43571 0.77057 0.0
H1700 H 0.23319 0.43229 0.71246 0.0
H1701 H 0.2659 0.4382 0.7184 0.0
C1702 C 0.28158 0.44122 0.75182 0.0
C1703 C 0.28778 0.44257 0.77009 0.0
C1704 C 0.26265 0.44025 0.74802 0.0
C1705 C 0.27492 0.4443 0.78445 0.0
C1706 C 0.25608 0.44306 0.78083 0.0
C1707 C 0.23122 0.43669 0.75924 0.0
C1708 C 0.22522 0.43339 0.74118 0.0
C1709 C 0.24986 0.44034 0.76275 0.0
C1710 C 0.23768 0.43484 0.72648 0.0
C1711 C 0.25634 0.43809 0.72988 0.0
H1712 H 0.71158 0.06152 0.22849 0.0
H1713 H 0.72666 0.05744 0.28579 0.0
H1714 H 0.75879 0.05174 0.27718 0.0
H1715 H 0.78301 0.05267 0.25338 0.0
H1716 H 0.7678 0.05512 0.19604 0.0
H1717 H 0.73513 0.05636 0.20452 0.0
C1718 C 0.72189 0.05894 0.23901 0.0
C1719 C 0.71701 0.06011 0.25769 0.0
C1720 C 0.74021 0.05551 0.23394 0.0
C1721 C 0.73025 0.05657 0.27132 0.0
C1722 C 0.74859 0.05345 0.26641 0.0
C1723 C 0.77245 0.05296 0.2428 0.0
C1724 C 0.77759 0.05398 0.22419 0.0
C1725 C 0.75381 0.05357 0.24779 0.0
C1726 C 0.764 0.05424 0.21046 0.0
C1727 C 0.74538 0.05511 0.21531 0.0
H1728 H 0.94318 0.78186 0.76953 0.0
H1729 H 0.93785 0.72745 0.79266 0.0
H1730 H 0.93864 0.7139 0.76181 0.0
H1731 H 0.93563 0.71804 0.72829 0.0
H1732 H 0.93648 0.7728 0.70547 0.0
H1733 H 0.94296 0.78577 0.73591 0.0
C1734 C 0.94274 0.76702 0.76775 0.0
C1735 C 0.94048 0.75561 0.78317 0.0
C1736 C 0.94219 0.75945 0.74996 0.0
C1737 C 0.93956 0.73643 0.78085 0.0
C1738 C 0.93994 0.72871 0.76324 0.0
C1739 C 0.93781 0.73273 0.73001 0.0
C1740 C 0.93572 0.74451 0.71486 0.0
C1741 C 0.94049 0.74013 0.74768 0.0
C1742 C 0.93811 0.76356 0.71709 0.0
C1743 C 0.94172 0.77096 0.73447 0.0
H1744 H 0.05323 0.76547 0.29118 0.0
H1745 H 0.0446 0.71016 0.27131 0.0
H1746 H 0.04395 0.72145 0.23954 0.0
H1747 H 0.05061 0.7464 0.2175 0.0
H1748 H 0.05814 0.80185 0.23719 0.0
H1749 H 0.05414 0.7913 0.26907 0.0
C1750 C 0.05082 0.75599 0.27988 0.0
C1751 C 0.04925 0.73701 0.28344 0.0
C1752 C 0.05036 0.7626 0.26171 0.0
C1753 C 0.04586 0.72482 0.26882 0.0
C1754 C 0.0456 0.73126 0.25068 0.0
C1755 C 0.0508 0.75619 0.2288 0.0
C1756 C 0.0547 0.77479 0.22523 0.0
C1757 C 0.04851 0.75 0.24696 0.0
C1758 C 0.05498 0.78749 0.23977 0.0
C1759 C 0.05288 0.78142 0.25795 0.0
H1760 H 0.54692 0.74041 0.71283 0.0
H1761 H 0.54898 0.79602 0.73344 0.0
H1762 H 0.55025 0.78443 0.76517 0.0
H1763 H 0.55494 0.75828 0.78647 0.0
H1764 H 0.55102 0.70271 0.76595 0.0
H1765 H 0.54611 0.71439 0.73464 0.0
C1766 C 0.54716 0.74994 0.72434 0.0
C1767 C 0.54798 0.76897 0.72097 0.0
C1768 C 0.54778 0.74316 0.74243 0.0
C1769 C 0.54821 0.7813 0.73584 0.0
C1770 C 0.54912 0.77467 0.75392 0.0
C1771 C 0.55267 0.74879 0.77514 0.0
C1772 C 0.55357 0.72972 0.7783 0.0
C1773 C 0.54956 0.75562 0.75731 0.0
C1774 C 0.55038 0.71746 0.76371 0.0
C1775 C 0.54767 0.72413 0.74585 0.0
H1776 H 0.44429 0.74989 0.21165 0.0
H1777 H 0.4411 0.6941 0.23165 0.0
H1778 H 0.44204 0.70524 0.26354 0.0
H1779 H 0.43936 0.73121 0.28533 0.0
H1780 H 0.44426 0.7869 0.26538 0.0
H1781 H 0.44732 0.77553 0.23372 0.0
C1782 C 0.4443 0.74021 0.22305 0.0
C1783 C 0.4425 0.72128 0.21952 0.0
C1784 C 0.44495 0.74672 0.24122 0.0
C1785 C 0.4426 0.70873 0.2342 0.0
C1786 C 0.44296 0.71511 0.25237 0.0
C1787 C 0.44148 0.74077 0.27403 0.0
C1788 C 0.44135 0.75981 0.27745 0.0
C1789 C 0.44346 0.73411 0.256 0.0
C1790 C 0.44433 0.77218 0.26292 0.0
C1791 C 0.44597 0.76569 0.24487 0.0
H1792 H 0.23081 0.71204 0.07101 0.0
H1793 H 0.28771 0.72571 0.06076 0.0
H1794 H 0.2793 0.75799 0.05583 0.0
H1795 H 0.25636 0.78277 0.05928 0.0
H1796 H 0.19931 0.76909 0.06824 0.0
H1797 H 0.207 0.73619 0.06845 0.0
C1798 C 0.24126 0.72208 0.06733 0.0
C1799 C 0.25985 0.71674 0.06654 0.0
C1800 C 0.23628 0.7405 0.06433 0.0
C1801 C 0.27332 0.72964 0.06147 0.0
C1802 C 0.26853 0.74807 0.05875 0.0
C1803 C 0.24559 0.77248 0.06066 0.0
C1804 C 0.22737 0.7781 0.06379 0.0
C1805 C 0.25016 0.75373 0.06081 0.0
C1806 C 0.21341 0.76489 0.06563 0.0
C1807 C 0.21784 0.74616 0.06596 0.0
H1808 H 0.72891 0.71065 0.55712 0.0
H1809 H 0.78519 0.72876 0.55154 0.0
H1810 H 0.77476 0.76066 0.54794 0.0
H1811 H 0.74995 0.78352 0.55198 0.0
H1812 H 0.69361 0.76538 0.55664 0.0
H1813 H 0.70361 0.7332 0.5546 0.0
C1814 C 0.7388 0.72157 0.5546 0.0
C1815 C 0.75775 0.71758 0.55483 0.0
C1816 C 0.73268 0.73977 0.55254 0.0
C1817 C 0.77053 0.73164 0.55138 0.0
C1818 C 0.76458 0.74985 0.54948 0.0
C1819 C 0.73987 0.77248 0.55196 0.0
C1820 C 0.72115 0.77661 0.55464 0.0
C1821 C 0.74575 0.75412 0.55084 0.0
C1822 C 0.70809 0.76239 0.55451 0.0
C1823 C 0.71383 0.74404 0.55353 0.0
H1824 H 0.25369 0.70991 0.43994 0.0
H1825 H 0.19782 0.73004 0.43944 0.0
H1826 H 0.20907 0.76188 0.43981 0.0
H1827 H 0.23495 0.78373 0.43662 0.0
H1828 H 0.29078 0.76361 0.43921 0.0
H1829 H 0.27948 0.73193 0.44192 0.0
C1830 C 0.24403 0.72132 0.44029 0.0
C1831 C 0.22502 0.71781 0.43949 0.0
C1832 C 0.2506 0.73949 0.44073 0.0
C1833 C 0.21253 0.73254 0.44012 0.0
C1834 C 0.21895 0.7507 0.44019 0.0
C1835 C 0.24457 0.77238 0.43811 0.0
C1836 C 0.26361 0.77582 0.4375 0.0
C1837 C 0.23796 0.75431 0.43994 0.0
C1838 C 0.27605 0.76118 0.43967 0.0
C1839 C 0.2696 0.74311 0.4411 0.0
H1840 H 0.76424 0.71111 0.92763 0.0
H1841 H 0.70626 0.72375 0.93017 0.0
H1842 H 0.7133 0.75651 0.93394 0.0
H1843 H 0.73599 0.78174 0.93276 0.0
H1844 H 0.79401 0.76905 0.93232 0.0
H1845 H 0.78702 0.73604 0.93185 0.0
C1846 C 0.75322 0.72106 0.92934 0.0
C1847 C 0.7348 0.71522 0.9284 0.0
C1848 C 0.75739 0.73978 0.93183 0.0
C1849 C 0.72054 0.72805 0.93086 0.0
C1850 C 0.72456 0.74675 0.93292 0.0
C1851 C 0.74705 0.77168 0.933 0.0
C1852 C 0.76544 0.77766 0.93243 0.0
C1853 C 0.74292 0.75281 0.9329 0.0
C1854 C 0.77974 0.76466 0.93288 0.0
C1855 C 0.77576 0.74583 0.93243 0.0
H1856 H 0.30805 0.53869 0.48434 0.0
H1857 H 0.2993 0.52196 0.54067 0.0
H1858 H 0.2961 0.48985 0.53087 0.0
H1859 H 0.30021 0.46633 0.50675 0.0
H1860 H 0.30738 0.48301 0.45024 0.0
H1861 H 0.30643 0.5155 0.45949 0.0
C1862 C 0.30508 0.52801 0.49437 0.0
C1863 C 0.30417 0.53249 0.51319 0.0
C1864 C 0.30304 0.50967 0.4886 0.0
C1865 C 0.30006 0.51872 0.52611 0.0
C1866 C 0.29833 0.50039 0.52053 0.0
C1867 C 0.30103 0.47715 0.49646 0.0
C1868 C 0.30397 0.47249 0.47792 0.0
C1869 C 0.30041 0.49567 0.50189 0.0
C1870 C 0.30498 0.48642 0.46458 0.0
C1871 C 0.30462 0.50494 0.46989 0.0
H1872 H 0.81319 0.46719 0.01116 0.0
H1873 H 0.80864 0.47824 0.95296 0.0
H1874 H 0.80933 0.51138 0.95892 0.0
H1875 H 0.81566 0.53689 0.98043 0.0
H1876 H 0.81828 0.52613 0.03875 0.0
H1877 H 0.81365 0.49316 0.03314 0.0
C1878 C 0.81192 0.47692 -0.00013 0.0
C1879 C 0.81108 0.47043 0.98167 0.0
C1880 C 0.81213 0.49592 0.00343 0.0
C1881 C 0.80925 0.48302 0.96709 0.0
C1882 C 0.80979 0.50194 0.97048 0.0
C1883 C 0.81474 0.52731 0.99188 0.0
C1884 C 0.81743 0.53369 0.00992 0.0
C1885 C 0.81187 0.5085 0.98854 0.0
C1886 C 0.81614 0.52137 0.02475 0.0
C1887 C 0.81364 0.50256 0.02154 0.0
H1888 H 0.26429 0.56008 0.22564 0.0
H1889 H 0.28635 0.55919 0.28075 0.0
H1890 H 0.25526 0.55623 0.29349 0.0
H1891 H 0.22173 0.5585 0.28903 0.0
H1892 H 0.19989 0.56398 0.23409 0.0
H1893 H 0.23079 0.56033 0.22108 0.0
C1894 C 0.26224 0.55873 0.24039 0.0
C1895 C 0.2774 0.55975 0.2523 0.0
C1896 C 0.24432 0.5581 0.2476 0.0
C1897 C 0.27473 0.55841 0.27141 0.0
C1898 C 0.257 0.5568 0.27867 0.0
C1899 C 0.22379 0.55843 0.27421 0.0
C1900 C 0.20876 0.56145 0.26246 0.0
C1901 C 0.24166 0.55731 0.26693 0.0
C1902 C 0.21142 0.56171 0.24331 0.0
C1903 C 0.22903 0.55967 0.2359 0.0
H1904 H 0.19165 0.97927 0.52998 0.0
H1905 H 0.18331 0.95406 0.47689 0.0
H1906 H 0.18653 0.98401 0.46175 0.0
H1907 H 0.18762 0.0178 0.46405 0.0
H1908 H 0.19149 0.04328 0.51749 0.0
H1909 H 0.1944 0.01302 0.53212 0.0
C1910 C 0.19098 0.98038 0.51508 0.0
C1911 C 0.18735 0.96465 0.50449 0.0
C1912 C 0.19191 0.99775 0.50659 0.0
C1913 C 0.18611 0.96612 0.48524 0.0
C1914 C 0.18791 0.98321 0.4766 0.0
C1915 C 0.18959 0.01663 0.47883 0.0
C1916 C 0.18952 0.03255 0.48974 0.0
C1917 C 0.19023 -0.00081 0.48718 0.0
C1918 C 0.1916 0.03107 0.50891 0.0
C1919 C 0.19318 0.01381 0.51725 0.0
H1920 H 0.69113 0.53308 0.50267 0.0
H1921 H 0.68865 0.5137 0.44662 0.0
H1922 H 0.68725 0.48173 0.45753 0.0
H1923 H 0.68303 0.45984 0.48326 0.0
H1924 H 0.68749 0.47921 0.53924 0.0
H1925 H 0.69202 0.51076 0.52819 0.0
C1926 C 0.69072 0.52177 0.4929 0.0
C1927 C 0.68987 0.52553 0.47395 0.0
C1928 C 0.69007 0.50356 0.49927 0.0
C1929 C 0.68944 0.51096 0.46128 0.0
C1930 C 0.68847 0.49276 0.46752 0.0
C1931 C 0.68528 0.47098 0.49297 0.0
C1932 C 0.68468 0.46742 0.51199 0.0
C1933 C 0.68819 0.48896 0.4865 0.0
C1934 C 0.68788 0.48176 0.52453 0.0
C1935 C 0.69039 0.49976 0.51823 0.0
H1936 H 0.73091 0.55615 0.76663 0.0
H1937 H 0.70873 0.56637 0.7125 0.0
H1938 H 0.73899 0.56099 0.69871 0.0
H1939 H 0.77255 0.55842 0.70261 0.0
H1940 H 0.79523 0.55256 0.75713 0.0
H1941 H 0.7642 0.5508 0.77024 0.0
C1942 C 0.73268 0.55668 0.75179 0.0
C1943 C 0.71776 0.56165 0.74055 0.0
C1944 C 0.75031 0.5545 0.74407 0.0
C1945 C 0.72015 0.56263 0.72137 0.0
C1946 C 0.73743 0.55961 0.7135 0.0
C1947 C 0.77059 0.55615 0.71727 0.0
C1948 C 0.78596 0.55545 0.72894 0.0
C1949 C 0.75275 0.55624 0.72477 0.0
C1950 C 0.78345 0.553 0.74796 0.0
C1951 C 0.76575 0.55212 0.75544 0.0
H1952 H 0.47936 0.31025 0.53749 0.0
H1953 H 0.53473 0.29803 0.51966 0.0
H1954 H 0.52384 0.29381 0.48805 0.0
H1955 H 0.49937 0.29826 0.465 0.0
H1956 H 0.44386 0.30955 0.48267 0.0
H1957 H 0.45384 0.30908 0.51498 0.0
C1958 C 0.48895 0.30635 0.5267 0.0
C1959 C 0.50784 0.30477 0.53073 0.0
C1960 C 0.48255 0.30379 0.50862 0.0
C1961 C 0.52014 0.29939 0.51681 0.0
C1962 C 0.51393 0.29705 0.49874 0.0
C1963 C 0.4894 0.29998 0.47602 0.0
C1964 C 0.47098 0.30392 0.47167 0.0
C1965 C 0.49529 0.29984 0.49441 0.0
C1966 C 0.45808 0.30627 0.48586 0.0
C1967 C 0.46384 0.30623 0.50426 0.0
H1968 H 0.5356 0.18451 0.98199 0.0
H1969 H 0.48249 0.18921 0.95588 0.0
H1970 H 0.46748 0.19132 0.98602 0.0
H1971 H 0.46922 0.18798 0.01966 0.0
H1972 H 0.52195 0.17907 0.04551 0.0
H1973 H 0.53747 0.18259 0.01578 0.0
C1974 C 0.5208 0.18643 0.98301 0.0
C1975 C 0.51009 0.18684 0.96695 0.0
C1976 C 0.51224 0.18665 0.00034 0.0
C1977 C 0.4909 0.18891 0.96822 0.0
C1978 C 0.48235 0.19005 0.9854 0.0
C1979 C 0.48412 0.18718 0.01876 0.0
C1980 C 0.49449 0.18329 0.0346 0.0
C1981 C 0.49282 0.18836 0.00154 0.0
C1982 C 0.51376 0.18198 0.03337 0.0
C1983 C 0.52261 0.18398 0.01641 0.0
H1984 H 0.49362 0.69306 0.45863 0.0
H1985 H 0.54956 0.68897 0.47809 0.0
H1986 H 0.53872 0.68948 0.51008 0.0
H1987 H 0.51291 0.68701 0.53211 0.0
H1988 H 0.4571 0.69305 0.51266 0.0
H1989 H 0.46823 0.69611 0.48095 0.0
C1990 C 0.5034 0.69274 0.46994 0.0
C1991 C 0.52227 0.69083 0.46622 0.0
C1992 C 0.49707 0.6932 0.48817 0.0
C1993 C 0.53496 0.69054 0.48079 0.0
C1994 C 0.52875 0.69067 0.49902 0.0
C1995 C 0.50328 0.68934 0.52091 0.0
C1996 C 0.48427 0.68956 0.5245 0.0
C1997 C 0.5098 0.69136 0.50283 0.0
C1998 C 0.47181 0.69283 0.51008 0.0
C1999 C 0.47815 0.69448 0.49199 0.0
H2000 H 0.46177 0.81226 0.97975 0.0
H2001 H 0.51562 0.79867 0.95889 0.0
H2002 H 0.52715 0.79456 0.99035 0.0
H2003 H 0.52311 0.80006 0.02348 0.0
H2004 H 0.47027 0.81789 0.04399 0.0
H2005 H 0.45699 0.81496 0.01317 0.0
C2006 C 0.47583 0.80778 0.9822 0.0
C2007 C 0.48785 0.80552 0.96727 0.0
C2008 C 0.48257 0.80656 0.00028 0.0
C2009 C 0.50618 0.80025 0.97036 0.0
C2010 C 0.51278 0.79807 0.98829 0.0
C2011 C 0.50859 0.80283 0.02124 0.0
C2012 C 0.49767 0.80926 0.03585 0.0
C2013 C 0.5013 0.80196 0.00335 0.0
C2014 C 0.47893 0.81305 0.03283 0.0
C2015 C 0.47135 0.8114 0.01523 0.0
H2016 H 0.46286 0.00984 0.80509 0.0
H2017 H 0.48132 0.95349 0.80722 0.0
H2018 H 0.51343 0.96366 0.80443 0.0
H2019 H 0.53608 0.98896 0.80617 0.0
H2020 H 0.5175 0.04526 0.80262 0.0
H2021 H 0.48546 0.03482 0.80086 0.0
C2022 C 0.47394 -0.00017 0.80441 0.0
C2023 C 0.46997 0.98103 0.80648 0.0
C2024 C 0.49223 0.0058 0.80276 0.0
C2025 C 0.48422 0.96803 0.80553 0.0
C2026 C 0.50253 0.97386 0.80411 0.0
C2027 C 0.52498 -0.00113 0.8046 0.0
C2028 C 0.52894 0.0178 0.80479 0.0
C2029 C 0.50669 0.99274 0.80344 0.0
C2030 C 0.51465 0.0306 0.8025 0.0
C2031 C 0.49637 0.02465 0.80162 0.0
H2032 H 0.53751 0.48513 0.3018 0.0
H2033 H 0.51814 0.54123 0.30028 0.0
H2034 H 0.48627 0.53037 0.29777 0.0
H2035 H 0.46419 0.50501 0.30255 0.0
H2036 H 0.48355 0.44895 0.30401 0.0
H2037 H 0.51532 0.45957 0.29959 0.0
C2038 C 0.52629 0.49491 0.30033 0.0
C2039 C 0.52993 0.51388 0.3015 0.0
C2040 C 0.50812 0.48855 0.29907 0.0
C2041 C 0.51552 0.52656 0.2994 0.0
C2042 C 0.49733 0.52035 0.29814 0.0
C2043 C 0.47536 0.49516 0.30119 0.0
C2044 C 0.47181 0.47632 0.30368 0.0
C2045 C 0.49348 0.50141 0.2989 0.0
C2046 C 0.48614 0.46351 0.30198 0.0
C2047 C 0.50426 0.4696 0.29966 0.0
H2048 H 0.5336 0.01357 0.1879 0.0
H2049 H 0.5196 0.95589 0.18879 0.0
H2050 H 0.48689 0.96362 0.19194 0.0
H2051 H 0.46221 0.98694 0.1904 0.0
H2052 H 0.4763 0.0446 0.19148 0.0
H2053 H 0.50913 0.03683 0.19189 0.0
C2054 C 0.52336 0.00275 0.18919 0.0
C2055 C 0.52881 0.98424 0.18794 0.0
C2056 C 0.50468 0.00731 0.19121 0.0
C2057 C 0.51561 0.97024 0.18979 0.0
C2058 C 0.49694 0.97466 0.19145 0.0
C2059 C 0.47252 0.99774 0.19113 0.0
C2060 C 0.46702 0.01627 0.19073 0.0
C2061 C 0.4913 0.99315 0.19158 0.0
C2062 C 0.48034 0.03023 0.19185 0.0
C2063 C 0.49907 0.0258 0.19194 0.0
H2064 H 0.52838 0.51279 0.68409 0.0
H2065 H 0.51107 0.45613 0.68777 0.0
H2066 H 0.47881 0.46588 0.68995 0.0
H2067 H 0.45549 0.49053 0.68767 0.0
H2068 H 0.47297 0.54726 0.6863 0.0
H2069 H 0.50528 0.53757 0.68659 0.0
C2070 C 0.51752 0.50265 0.68568 0.0
C2071 C 0.52192 0.48382 0.68559 0.0
C2072 C 0.49911 0.50837 0.68724 0.0
C2073 C 0.50789 0.47072 0.68786 0.0
C2074 C 0.48948 0.47628 0.68899 0.0
C2075 C 0.46642 0.50072 0.68774 0.0
C2076 C 0.46199 0.51953 0.68677 0.0
C2077 C 0.48491 0.49505 0.68822 0.0
C2078 C 0.47615 0.5327 0.68709 0.0
C2079 C 0.49459 0.52717 0.68714 0.0
H2080 H 0.72613 0.93034 0.7032 0.0
H2081 H 0.70609 0.95059 0.75518 0.0
H2082 H 0.7375 0.95103 0.76754 0.0
H2083 H 0.76939 0.93958 0.76533 0.0
H2084 H 0.78826 0.91574 0.71427 0.0
H2085 H 0.75886 0.9229 0.69965 0.0
C2086 C 0.72887 0.9356 0.71693 0.0
C2087 C 0.71411 0.94067 0.72825 0.0
C2088 C 0.74673 0.93469 0.72423 0.0
C2089 C 0.71747 0.94693 0.74622 0.0
C2090 C 0.73535 0.94694 0.75333 0.0
C2091 C 0.76717 0.93642 0.75088 0.0
C2092 C 0.78076 0.92691 0.74094 0.0
C2093 C 0.74994 0.93992 0.74277 0.0
C2094 C 0.7778 0.9228 0.72225 0.0
C2095 C 0.76102 0.9269 0.71388 0.0
H2096 H 0.77422 0.44244 0.2693 0.0
H2097 H 0.79437 0.41992 0.21812 0.0
H2098 H 0.76424 0.42457 0.20387 0.0
H2099 H 0.73107 0.43 0.20766 0.0
H2100 H 0.71018 0.44871 0.25991 0.0
H2101 H 0.74161 0.4511 0.27201 0.0
C2102 C 0.77209 0.43899 0.25491 0.0
C2103 C 0.78634 0.43067 0.24481 0.0
C2104 C 0.75454 0.44099 0.24706 0.0
C2105 C 0.78346 0.42613 0.22621 0.0
C2106 C 0.76626 0.42878 0.21806 0.0
C2107 C 0.73357 0.43526 0.22144 0.0
C2108 C 0.71862 0.43944 0.23288 0.0
C2109 C 0.75153 0.4355 0.22857 0.0
C2110 C 0.7217 0.44571 0.25089 0.0
C2111 C 0.7396 0.44687 0.25783 0.0
H2112 H 0.02616 0.25769 0.11592 0.0
H2113 H 0.98714 0.30265 0.11619 0.0
H2114 H 0.96401 0.28287 0.13016 0.0
H2115 H 0.95458 0.25302 0.14176 0.0
H2116 H 0.9928 0.20744 0.14155 0.0
H2117 H 0.01652 0.22728 0.12798 0.0
C2118 C 0.01264 0.26315 0.11917 0.0
C2119 C 0.00839 0.28161 0.115 0.0
C2120 C -0.00077 0.25161 0.12707 0.0
C2121 C 0.99077 0.28848 0.11917 0.0
C2122 C 0.9775 0.27719 0.12716 0.0
C2123 C 0.96808 0.24734 0.13876 0.0
C2124 C 0.97189 0.22876 0.14263 0.0
C2125 C 0.98154 0.25874 0.13104 0.0
C2126 C 0.98949 0.2217 0.13864 0.0
C2127 C 0.00306 0.23304 0.13093 0.0
H2128 H 0.98431 0.26936 0.3576 0.0
H2129 H 0.93887 0.23285 0.36978 0.0
H2130 H 0.95947 0.21228 0.38627 0.0
H2131 H 0.99007 0.20406 0.39637 0.0
H2132 H 0.03624 0.23968 0.38465 0.0
H2133 H 0.01559 0.26124 0.36875 0.0
C2134 C 0.97894 0.25698 0.36401 0.0
C2135 C 0.9601 0.25261 0.36239 0.0
C2136 C 0.99095 0.24501 0.37339 0.0
C2137 C 0.95332 0.23649 0.3707 0.0
C2138 C 0.96508 0.22469 0.38014 0.0
C2139 C 0.99574 0.2165 0.39033 0.0
C2140 C 0.0147 0.22019 0.39156 0.0
C2141 C 0.98389 0.22871 0.38136 0.0
C2142 C 0.02169 0.23649 0.3838 0.0
C2143 C 0.00989 0.24881 0.37475 0.0
H2144 H 0.97542 0.2332 0.61532 0.0
H2145 H 0.01524 0.18896 0.61492 0.0
H2146 H 0.03753 0.20855 0.63055 0.0
H2147 H 0.04602 0.23819 0.64358 0.0
H2148 H 0.00679 0.28292 0.64386 0.0
H2149 H 0.98395 0.26314 0.6289 0.0
C2150 C 0.98892 0.22782 0.6188 0.0
C2151 C 0.99366 0.20966 0.61396 0.0
C2152 C 0.00181 0.23924 0.6276 0.0
C2153 C 0.01125 0.20291 0.61844 0.0
C2154 C 0.02403 0.21409 0.62736 0.0
C2155 C 0.03249 0.24369 0.64038 0.0
C2156 C 0.02814 0.26202 0.64478 0.0
C2157 C 0.01951 0.2323 0.63184 0.0
C2158 C 0.01051 0.26886 0.64056 0.0
C2159 C 0.99744 0.25755 0.63205 0.0
H2160 H 0.9725 0.26322 0.89134 0.0
H2161 H 0.01267 0.30707 0.88858 0.0
H2162 H 0.03408 0.28688 0.87266 0.0
H2163 H 0.04183 0.25693 0.86016 0.0
H2164 H 0.00252 0.21239 0.86272 0.0
H2165 H 0.98038 0.2327 0.87815 0.0
C2166 C 0.98588 0.26835 0.88712 0.0
C2167 C 0.99097 0.28661 0.89119 0.0
C2168 C -0.00166 0.25655 0.87806 0.0
C2169 C 0.00841 0.29305 0.88573 0.0
C2170 C 0.0207 0.28152 0.87661 0.0
C2171 C 0.02844 0.25158 0.86408 0.0
C2172 C 0.02388 0.23315 0.86034 0.0
C2173 C 0.01588 0.26325 0.87286 0.0
C2174 C 0.00641 0.22653 0.86549 0.0
C2175 C 0.99373 0.23814 0.87428 0.0
H2176 H 0.03043 0.73559 0.88674 0.0
H2177 H 0.99146 0.69067 0.88862 0.0
H2178 H 0.96832 0.70978 0.8736 0.0
H2179 H 0.959 0.73913 0.86043 0.0
H2180 H 0.99739 0.78454 0.85877 0.0
H2181 H 0.02092 0.76533 0.87341 0.0
C2182 C 0.01692 0.72997 0.88371 0.0
C2183 C 0.01266 0.71175 0.88873 0.0
C2184 C 0.00356 0.74112 0.8753 0.0
C2185 C 0.99505 0.70467 0.88491 0.0
C2186 C 0.9818 0.71558 0.87635 0.0
C2187 C 0.97249 0.74489 0.86328 0.0
C2188 C 0.97643 0.76323 0.85853 0.0
C2189 C 0.98587 0.73383 0.87161 0.0
C2190 C 0.99399 0.77046 0.86235 0.0
C2191 C 0.00746 0.75947 0.87065 0.0
H2192 H 0.51017 0.27543 0.13439 0.0
H2193 H 0.55285 0.23447 0.14148 0.0
H2194 H 0.53336 0.21135 0.12721 0.0
H2195 H 0.50476 0.20269 0.1125 0.0
H2196 H 0.46156 0.24284 0.10474 0.0
H2197 H 0.4807 0.26634 0.11971 0.0
C2198 C 0.51519 0.26146 0.13277 0.0
C2199 C 0.53298 0.25674 0.13896 0.0
C2200 C 0.50384 0.24808 0.12454 0.0
C2201 C 0.53925 0.23854 0.13685 0.0
C2202 C 0.52811 0.22526 0.1287 0.0
C2203 C 0.49941 0.21656 0.11407 0.0
C2204 C 0.48177 0.22101 0.10745 0.0
C2205 C 0.51045 0.22988 0.12248 0.0
C2206 C 0.4751 0.23905 0.10974 0.0
C2207 C 0.48606 0.25249 0.11824 0.0
H2208 H 0.96126 0.75483 0.39405 0.0
H2209 H 0.99551 0.80274 0.38528 0.0
H2210 H 0.01741 0.78436 0.36801 0.0
H2211 H 0.02754 0.75493 0.35634 0.0
H2212 H 0.99438 0.7063 0.36467 0.0
H2213 H 0.97133 0.72474 0.38117 0.0
C2214 C 0.97344 0.76121 0.38821 0.0
C2215 C 0.97679 0.78009 0.39107 0.0
C2216 C 0.98623 0.75047 0.37834 0.0
C2217 C 0.99266 0.7882 0.38346 0.0
C2218 C 0.00523 0.77772 0.37356 0.0
C2219 C 0.0153 0.74827 0.36175 0.0
C2220 C 0.01276 0.72925 0.3594 0.0
C2221 C 0.00227 0.75886 0.37113 0.0
C2222 C 0.9967 0.72094 0.36636 0.0
C2223 C 0.98353 0.73147 0.37578 0.0
H2224 H 0.4911 0.29047 0.61078 0.0
H2225 H 0.53577 0.25128 0.60839 0.0
H2226 H 0.5169 0.22868 0.62496 0.0
H2227 H 0.48741 0.22018 0.64004 0.0
H2228 H 0.44345 0.26031 0.64218 0.0
H2229 H 0.46239 0.28235 0.62565 0.0
C2230 C 0.49679 0.277 0.61384 0.0
C2231 C 0.51481 0.27257 0.60831 0.0
C2232 C 0.48595 0.2642 0.62328 0.0
C2233 C 0.52194 0.25505 0.61252 0.0
C2234 C 0.51113 0.24212 0.62195 0.0
C2235 C 0.48199 0.23372 0.63681 0.0
C2236 C 0.46404 0.23856 0.64235 0.0
C2237 C 0.49307 0.24653 0.62736 0.0
C2238 C 0.45724 0.25621 0.63817 0.0
C2239 C 0.46805 0.26887 0.62869 0.0
H2240 H 0.10704 0.02391 0.26683 0.0
H2241 H 0.11087 0.98304 0.30991 0.0
H2242 H 0.12794 0.96267 0.28939 0.0
H2243 H 0.14132 0.95625 0.25928 0.0
H2244 H 0.13686 0.9964 0.21562 0.0
H2245 H 0.12039 0.01728 0.23633 0.0
C2246 C 0.11171 0.01059 0.27173 0.0
C2247 C 0.10773 0.005 0.28986 0.0
C2248 C 0.1213 -0.00119 0.25977 0.0
C2249 C 0.11371 0.98764 0.29599 0.0
C2250 C 0.12347 0.97598 0.28428 0.0
C2251 C 0.13679 0.96958 0.25427 0.0
C2252 C 0.14034 0.97478 0.23596 0.0
C2253 C 0.12726 0.98139 0.26615 0.0
C2254 C 0.13426 0.99206 0.22966 0.0
C2255 C 0.12488 0.00401 0.24149 0.0
H2256 H 0.21972 0.36015 0.50691 0.0
H2257 H 0.25249 0.37218 0.55509 0.0
H2258 H 0.27458 0.38895 0.53628 0.0
H2259 H 0.28546 0.39889 0.50624 0.0
H2260 H 0.25365 0.38656 0.45751 0.0
H2261 H 0.23035 0.37119 0.47644 0.0
C2262 C 0.23158 0.36665 0.51326 0.0
C2263 C 0.23452 0.36487 0.53232 0.0
C2264 C 0.2445 0.37604 0.50228 0.0
C2265 C 0.25001 0.37323 0.5404 0.0
C2266 C 0.26267 0.38282 0.52968 0.0
C2267 C 0.27344 0.39287 0.4997 0.0
C2268 C 0.27137 0.39377 0.48049 0.0
C2269 C 0.26021 0.38404 0.51059 0.0
C2270 C 0.25562 0.38598 0.4723 0.0
C2271 C 0.24228 0.37722 0.4831 0.0
H2272 H 0.86135 0.53953 0.75066 0.0
H2273 H 0.86792 0.50394 0.70346 0.0
H2274 H 0.88253 0.48061 0.72294 0.0
H2275 H 0.89346 0.4704 0.75357 0.0
H2276 H 0.88672 0.50668 0.80027 0.0
H2277 H 0.87202 0.52956 0.78075 0.0
C2278 C 0.86601 0.52671 0.74456 0.0
C2279 C 0.86357 0.52351 0.72564 0.0
C2280 C 0.87429 0.5134 0.75578 0.0
C2281 C 0.86968 0.50678 0.71801 0.0
C2282 C 0.87798 0.4934 0.72914 0.0
C2283 C 0.88866 0.48326 0.75945 0.0
C2284 C 0.8912 0.48681 0.77833 0.0
C2285 C 0.88032 0.49655 0.74808 0.0
C2286 C 0.88502 0.50361 0.78576 0.0
C2287 C 0.8766 0.51674 0.77462 0.0
H2288 H 0.74839 0.12895 0.03728 0.0
H2289 H 0.78948 0.13696 0.99505 0.0
H2290 H 0.76997 0.12042 0.97289 0.0
H2291 H 0.74057 0.10439 0.96556 0.0
H2292 H 0.7002 0.09723 0.00882 0.0
H2293 H 0.72018 0.11285 0.03047 0.0
C2294 C 0.75319 0.12713 0.02324 0.0
C2295 C 0.77031 0.13428 0.0178 0.0
C2296 C 0.74197 0.1178 0.01072 0.0
C2297 C 0.77632 0.13158 -0.00042 0.0
C2298 C 0.76515 0.12218 0.98691 0.0
C2299 C 0.7362 0.10624 0.97972 0.0
C2300 C 0.71885 0.09969 0.98547 0.0
C2301 C 0.74784 0.11534 0.99231 0.0
C2302 C 0.71342 0.10215 0.00392 0.0
C2303 C 0.72484 0.11109 0.01639 0.0
H2304 H 0.14258 0.01599 0.76679 0.0
H2305 H 0.13625 0.06278 0.73059 0.0
H2306 H 0.12131 0.04337 0.70765 0.0
H2307 H 0.11054 0.01326 0.69761 0.0
H2308 H 0.11731 0.96596 0.73304 0.0
H2309 H 0.13176 0.98542 0.75648 0.0
C2310 C 0.13776 0.02193 0.75394 0.0
C2311 C 0.14045 0.04079 0.75041 0.0
C2312 C 0.12945 0.01061 0.74062 0.0
C2313 C 0.13437 0.04829 0.73362 0.0
C2314 C 0.12584 0.03721 0.72048 0.0
C2315 C 0.11519 0.00714 0.71044 0.0
C2316 C 0.11285 0.98818 0.71356 0.0
C2317 C 0.12345 0.01835 0.72377 0.0
C2318 C 0.11901 0.98052 0.73026 0.0
C2319 C 0.12721 0.99165 0.74369 0.0
H2320 H 0.19821 0.38348 0.9864 0.0
H2321 H 0.23469 0.38386 0.03337 0.0
H2322 H 0.25792 0.36696 0.01557 0.0
H2323 H 0.26804 0.35283 0.9861 0.0
H2324 H 0.23077 0.35349 0.93961 0.0
H2325 H 0.20777 0.36933 0.95785 0.0
C2326 C 0.21119 0.37985 0.99286 0.0
C2327 C 0.21472 0.38498 0.01117 0.0
C2328 C 0.22443 0.37039 0.98257 0.0
C2329 C 0.23162 0.38006 0.01927 0.0
C2330 C 0.24492 0.37045 0.00908 0.0
C2331 C 0.25489 0.35646 0.98001 0.0
C2332 C 0.25123 0.352 0.96148 0.0
C2333 C 0.24153 0.36569 0.99063 0.0
C2334 C 0.23406 0.35675 0.9538 0.0
C2335 C 0.22082 0.36582 0.96422 0.0
H2336 H 0.89397 0.49424 0.20775 0.0
H2337 H 0.87669 0.53928 0.24254 0.0
H2338 H 0.86299 0.51735 0.26428 0.0
H2339 H 0.85493 0.48531 0.27258 0.0
H2340 H 0.8722 0.44086 0.23698 0.0
H2341 H 0.88715 0.46274 0.21645 0.0
C2342 C 0.88718 0.49934 0.22006 0.0
C2343 C 0.88618 0.51836 0.22343 0.0
C2344 C 0.87944 0.48676 0.23239 0.0
C2345 C 0.87754 0.52468 0.23958 0.0
C2346 C 0.86975 0.51216 0.25201 0.0
C2347 C 0.86219 0.48044 0.26046 0.0
C2348 C 0.86241 0.46152 0.25625 0.0
C2349 C 0.87052 0.49315 0.24848 0.0
C2350 C 0.87174 0.45537 0.24045 0.0
C2351 C 0.88026 0.46786 0.22867 0.0
H2352 H 0.76394 0.11148 0.52519 0.0
H2353 H 0.80791 0.10732 0.48528 0.0
H2354 H 0.78849 0.12171 0.46203 0.0
H2355 H 0.75926 0.13531 0.4529 0.0
H2356 H 0.71473 0.13935 0.49214 0.0
H2357 H 0.73412 0.12499 0.51575 0.0
C2358 C 0.76928 0.11383 0.51143 0.0
C2359 C 0.78737 0.10838 0.50701 0.0
C2360 C 0.75794 0.12195 0.49798 0.0
C2361 C 0.79404 0.11135 0.48907 0.0
C2362 C 0.78295 0.11957 0.47573 0.0
C2363 C 0.75372 0.13304 0.4666 0.0
C2364 C 0.73557 0.13843 0.47074 0.0
C2365 C 0.76489 0.12486 0.48002 0.0
C2366 C 0.72864 0.13529 0.48857 0.0
C2367 C 0.73975 0.12715 0.50209 0.0
H2368 H 0.25567 0.13386 0.95667 0.0
H2369 H 0.20974 0.13061 0.99431 0.0
H2370 H 0.22925 0.11473 0.01687 0.0
H2371 H 0.25957 0.10167 0.02573 0.0
H2372 H 0.30486 0.10518 0.98721 0.0
H2373 H 0.28533 0.12115 0.96525 0.0
C2374 C 0.24984 0.1297 0.96979 0.0
C2375 C 0.23126 0.13342 0.97377 0.0
C2376 C 0.26106 0.12065 0.98259 0.0
C2377 C 0.224 0.12788 0.99087 0.0
C2378 C 0.23516 0.11884 0.00378 0.0
C2379 C 0.26515 0.10601 0.01256 0.0
C2380 C 0.28366 0.10219 0.00816 0.0
C2381 C 0.25375 0.11515 -0.00021 0.0
C2382 C 0.29066 0.10784 0.99099 0.0
C2383 C 0.27951 0.117 0.97837 0.0
H2384 H 0.74496 0.8558 0.5425 0.0
H2385 H 0.69713 0.86058 0.50746 0.0
H2386 H 0.71555 0.87691 0.48436 0.0
H2387 H 0.74552 0.88971 0.47417 0.0
H2388 H 0.79275 0.88478 0.51012 0.0
H2389 H 0.77423 0.86854 0.53274 0.0
C2390 C 0.73849 0.8604 0.52983 0.0
C2391 C 0.71971 0.85694 0.5267 0.0
C2392 C 0.74908 0.86972 0.51672 0.0
C2393 C 0.71158 0.86309 0.51022 0.0
C2394 C 0.72211 0.87239 0.49699 0.0
C2395 C 0.75173 0.88502 0.48693 0.0
C2396 C 0.77049 0.88848 0.49042 0.0
C2397 C 0.74092 0.87574 0.50008 0.0
C2398 C 0.77833 0.8824 0.50707 0.0
C2399 C 0.76776 0.87308 0.52005 0.0
H2400 H 0.35952 0.03727 0.75028 0.0
H2401 H 0.36169 0.99775 0.70588 0.0
H2402 H 0.37657 0.97544 0.72637 0.0
H2403 H 0.3893 0.96745 0.75691 0.0
H2404 H 0.3874 0.00772 0.80069 0.0
H2405 H 0.37192 0.02944 0.78036 0.0
C2406 C 0.3632 0.02378 0.74502 0.0
C2407 C 0.3595 0.01919 0.72658 0.0
C2408 C 0.37176 0.01115 0.75678 0.0
C2409 C 0.36443 0.00165 0.72003 0.0
C2410 C 0.37291 0.98888 0.73174 0.0
C2411 C 0.38538 0.98093 0.76201 0.0
C2412 C 0.38949 0.98596 0.78028 0.0
C2413 C 0.37665 0.99351 0.75015 0.0
C2414 C 0.38446 0.00352 0.78667 0.0
C2415 C 0.37561 0.01597 0.77506 0.0
H2416 H 0.20602 0.60517 0.01 0.0
H2417 H 0.24352 0.61284 0.96445 0.0
H2418 H 0.2656 0.62788 0.98497 0.0
H2419 H 0.27408 0.63907 0.01587 0.0
H2420 H 0.23594 0.63192 0.06098 0.0
H2421 H 0.21434 0.6163 0.04058 0.0
C2422 C 0.21901 0.61013 0.00452 0.0
C2423 C 0.2231 0.60789 0.98573 0.0
C2424 C 0.23157 0.61878 0.01633 0.0
C2425 C 0.24 0.61444 0.97887 0.0
C2426 C 0.25266 0.62299 0.99059 0.0
C2427 C 0.2611 0.63396 0.02123 0.0
C2428 C 0.25663 0.63662 0.03989 0.0
C2429 C 0.24858 0.62522 0.00936 0.0
C2430 C 0.23969 0.6301 0.04665 0.0
C2431 C 0.22731 0.62117 0.035 0.0
H2432 H 0.73707 0.88388 0.02292 0.0
H2433 H 0.68968 0.87982 0.98716 0.0
H2434 H 0.70857 0.86581 0.96326 0.0
H2435 H 0.7384 0.85503 0.95227 0.0
H2436 H 0.78624 0.85933 0.98737 0.0
H2437 H 0.76733 0.87302 0.01169 0.0
C2438 C 0.73089 0.87981 0.00994 0.0
C2439 C 0.71199 0.88288 0.00686 0.0
C2440 C 0.74191 0.87193 0.99608 0.0
C2441 C 0.7042 0.87768 0.9899 0.0
C2442 C 0.71498 0.86966 0.97619 0.0
C2443 C 0.74475 0.85897 0.96521 0.0
C2444 C 0.76371 0.85615 0.96797 0.0
C2445 C 0.73385 0.86682 0.97909 0.0
C2446 C 0.77167 0.86139 0.98485 0.0
C2447 C 0.76086 0.86917 -0.00121 0.0
H2448 H 0.35777 0.50035 0.78201 0.0
H2449 H 0.38358 0.45226 0.75841 0.0
H2450 H 0.39895 0.47127 0.7355 0.0
H2451 H 0.40266 0.50071 0.72031 0.0
H2452 H 0.37696 0.54941 0.74259 0.0
H2453 H 0.36397 0.53108 0.76794 0.0
C2454 C 0.36709 0.49419 0.77208 0.0
C2455 C 0.36947 0.47496 0.77175 0.0
C2456 C 0.37562 0.50523 0.75856 0.0
C2457 C 0.38144 0.46703 0.75878 0.0
C2458 C 0.39018 0.47786 0.74564 0.0
C2459 C 0.39424 0.50737 0.73072 0.0
C2460 C 0.39045 0.52627 0.72942 0.0
C2461 C 0.38691 0.49684 0.74506 0.0
C2462 C 0.37992 0.5348 0.74325 0.0
C2463 C 0.37249 0.52433 0.75771 0.0
H2464 H 0.60412 0.01033 0.20316 0.0
H2465 H 0.61326 0.96287 0.23783 0.0
H2466 H 0.62789 0.98253 0.26105 0.0
H2467 H 0.6387 0.01332 0.27109 0.0
H2468 H 0.62979 0.06014 0.23547 0.0
H2469 H 0.61422 0.04058 0.21313 0.0
C2470 C 0.6093 0.0042 0.21577 0.0
C2471 C 0.60766 0.98514 0.2187 0.0
C2472 C 0.61764 0.01551 0.22896 0.0
C2473 C 0.61443 0.97751 0.23518 0.0
C2474 C 0.62275 0.98875 0.24848 0.0
C2475 C 0.63314 0.01922 0.25853 0.0
C2476 C 0.63538 0.03813 0.25492 0.0
C2477 C 0.62446 0.00779 0.2455 0.0
C2478 C 0.62831 0.0456 0.23852 0.0
C2479 C 0.61942 0.03443 0.22572 0.0
H2480 H 0.99109 0.79431 0.60614 0.0
H2481 H 0.03513 0.75465 0.61143 0.0
H2482 H 0.01374 0.73277 0.62575 0.0
H2483 H 0.98247 0.72523 0.63708 0.0
H2484 H 0.9391 0.76567 0.63187 0.0
H2485 H 0.96037 0.78689 0.61695 0.0
C2486 C 0.99612 0.7809 0.61042 0.0
C2487 C 0.01471 0.77615 0.60775 0.0
C2488 C 0.98382 0.7685 0.61854 0.0
C2489 C 0.02089 0.75869 0.61339 0.0
C2490 C 0.00866 0.74616 0.62152 0.0
C2491 C 0.97766 0.73862 0.6325 0.0
C2492 C 0.95923 0.74387 0.63556 0.0
C2493 C 0.99007 0.75093 0.62415 0.0
C2494 C 0.95323 0.76132 0.62973 0.0
C2495 C 0.96537 0.77348 0.62123 0.0
H2496 H 0.04676 0.74422 0.1483 0.0
H2497 H 0.00891 0.78929 0.13957 0.0
H2498 H 0.98769 0.76863 0.12363 0.0
H2499 H 0.9802 0.73792 0.11162 0.0
H2500 H 0.01858 0.69316 0.11957 0.0
H2501 H 0.03922 0.71357 0.13653 0.0
C2502 C 0.03386 0.74954 0.14294 0.0
C2503 C 0.02945 0.76827 0.1451 0.0
C2504 C 0.0218 0.73764 0.1337 0.0
C2505 C 0.01268 0.77494 0.13804 0.0
C2506 C 0.00051 0.76313 0.12895 0.0
C2507 C 0.99301 0.7326 0.1172 0.0
C2508 C 0.99785 0.71407 0.11437 0.0
C2509 C 0.00496 0.74447 0.12666 0.0
C2510 C 0.01456 0.7074 0.12153 0.0
C2511 C 0.02638 0.71905 0.13121 0.0
H2512 H 0.46349 0.74345 0.60528 0.0
H2513 H 0.50406 0.69984 0.60621 0.0
H2514 H 0.52438 0.71869 0.62483 0.0
H2515 H 0.53102 0.74734 0.64057 0.0
H2516 H 0.49134 0.79164 0.63987 0.0
H2517 H 0.47031 0.77269 0.62148 0.0
C2518 C 0.47676 0.7381 0.60959 0.0
C2519 C 0.48221 0.72026 0.60429 0.0
C2520 C 0.48857 0.74909 0.62034 0.0
C2521 C 0.49948 0.71353 0.60999 0.0
C2522 C 0.51116 0.72428 0.62069 0.0
C2523 C 0.51776 0.75291 0.63646 0.0
C2524 C 0.51277 0.77087 0.64159 0.0
C2525 C 0.50588 0.74206 0.62588 0.0
C2526 C 0.49553 0.77783 0.63609 0.0
C2527 C 0.48351 0.76701 0.62558 0.0
H2528 H 0.45975 0.74705 0.14871 0.0
H2529 H 0.49399 0.70086 0.13351 0.0
H2530 H 0.51541 0.72178 0.11786 0.0
H2531 H 0.52354 0.75325 0.10747 0.0
H2532 H 0.48834 0.79877 0.12271 0.0
H2533 H 0.46821 0.77796 0.13953 0.0
C2534 C 0.47188 0.74147 0.14199 0.0
C2535 C 0.47519 0.72241 0.14214 0.0
C2536 C 0.48398 0.75347 0.13306 0.0
C2537 C 0.4911 0.7155 0.13352 0.0
C2538 C 0.50334 0.72744 0.12459 0.0
C2539 C 0.51157 0.75859 0.11465 0.0
C2540 C 0.50738 0.7775 0.11377 0.0
C2541 C 0.49982 0.74647 0.12415 0.0
C2542 C 0.49179 0.78425 0.12305 0.0
C2543 C 0.48025 0.77238 0.13268 0.0
H2544 H 0.11035 0.48534 0.79912 0.0
H2545 H 0.11407 0.52968 0.75964 0.0
H2546 H 0.12979 0.50929 0.73795 0.0
H2547 H 0.14286 0.47892 0.73041 0.0
H2548 H 0.13992 0.4351 0.77054 0.0
H2549 H 0.12338 0.45524 0.79172 0.0
C2550 C 0.11456 0.49056 0.78576 0.0
C2551 C 0.11104 0.50898 0.78101 0.0
C2552 C 0.12369 0.47884 0.77345 0.0
C2553 C 0.11667 0.51555 0.76367 0.0
C2554 C 0.12562 0.50389 0.75124 0.0
C2555 C 0.13847 0.47377 0.74374 0.0
C2556 C 0.14257 0.45556 0.7489 0.0
C2557 C 0.12923 0.48552 0.756 0.0
C2558 C 0.13697 0.44909 0.76627 0.0
C2559 C 0.12752 0.46059 0.7784 0.0
H2560 H 0.22055 0.85891 0.01101 0.0
H2561 H 0.26164 0.85794 0.05406 0.0
H2562 H 0.28406 0.87182 0.0333 0.0
H2563 H 0.29211 0.88411 0.00309 0.0
H2564 H 0.25158 0.88469 0.95955 0.0
H2565 H 0.22886 0.87098 0.98034 0.0
C2566 C 0.23438 0.86181 0.01585 0.0
C2567 C 0.23938 0.85744 0.03407 0.0
C2568 C 0.24733 0.86964 0.00376 0.0
C2569 C 0.25742 0.86114 0.0401 0.0
C2570 C 0.27027 0.86908 0.02824 0.0
C2571 C 0.27831 0.88124 0.9981 0.0
C2572 C 0.27355 0.88545 0.97981 0.0
C2573 C 0.26539 0.87334 0.01006 0.0
C2574 C 0.25562 0.88155 0.97357 0.0
C2575 C 0.24261 0.87375 0.98546 0.0
H2576 H 0.88419 0.96839 0.26135 0.0
H2577 H 0.87329 0.0072 0.30514 0.0
H2578 H 0.85842 0.02793 0.28345 0.0
H2579 H 0.84963 0.0357 0.25232 0.0
H2580 H 0.86062 0.99801 0.20764 0.0
H2581 H 0.87442 0.97616 0.22946 0.0
C2582 C 0.87836 0.9813 0.26611 0.0
C2583 C 0.87988 0.98629 0.2848 0.0
C2584 C 0.87004 0.99341 0.25344 0.0
C2585 C 0.87241 0.0031 0.2908 0.0
C2586 C 0.86391 0.01499 0.27842 0.0
C2587 C 0.85502 0.02272 0.24723 0.0
C2588 C 0.85419 0.01855 0.22835 0.0
C2589 C 0.86289 0.01039 0.25973 0.0
C2590 C 0.86117 0.00159 0.22212 0.0
C2591 C 0.86903 0.9891 0.23458 0.0
H2592 H 0.7772 0.63486 0.50848 0.0
H2593 H 0.73471 0.63436 0.55018 0.0
H2594 H 0.71454 0.61702 0.52972 0.0
H2595 H 0.70858 0.60288 0.49992 0.0
H2596 H 0.75041 0.60381 0.45761 0.0
H2597 H 0.77128 0.62013 0.47847 0.0
C2598 C 0.76357 0.63085 0.51312 0.0
C2599 C 0.75746 0.63591 0.53081 0.0
C2600 C 0.75192 0.62104 0.5012 0.0
C2601 C 0.73973 0.6307 0.5366 0.0
C2602 C 0.72818 0.62078 0.52492 0.0
C2603 C 0.72229 0.60657 0.49522 0.0
C2604 C 0.72792 0.60216 0.47722 0.0
C2605 C 0.73408 0.61603 0.50717 0.0
C2606 C 0.74572 0.60708 0.47139 0.0
C2607 C 0.75765 0.6164 0.48331 0.0
H2608 H 0.10148 0.47857 0.23296 0.0
H2609 H 0.11146 0.51726 0.18882 0.0
H2610 H 0.12724 0.53779 0.21008 0.0
H2611 H 0.13735 0.54523 0.24098 0.0
H2612 H 0.12757 0.50731 0.28576 0.0
H2613 H 0.11246 0.48594 0.26438 0.0
C2614 C 0.10724 0.49142 0.22799 0.0
C2615 C 0.10525 0.4964 0.20934 0.0
C2616 C 0.11618 0.50333 0.24037 0.0
C2617 C 0.11272 0.51313 0.20311 0.0
C2618 C 0.12174 0.5249 0.21526 0.0
C2619 C 0.13192 0.53232 0.24617 0.0
C2620 C 0.13348 0.52792 0.26497 0.0
C2621 C 0.12336 0.52022 0.2339 0.0
C2622 C 0.12647 0.51105 0.27135 0.0
C2623 C 0.11787 0.49883 0.25914 0.0
H2624 H 0.24385 0.88742 0.52372 0.0
H2625 H 0.19748 0.88436 0.48646 0.0
H2626 H 0.21592 0.86723 0.46446 0.0
H2627 H 0.24492 0.85341 0.45549 0.0
H2628 H 0.29189 0.85606 0.49189 0.0
H2629 H 0.27348 0.87309 0.51452 0.0
C2630 C 0.2378 0.88294 0.51082 0.0
C2631 C 0.21931 0.88722 0.50678 0.0
C2632 C 0.24856 0.87308 0.49804 0.0
C2633 C 0.21168 0.88135 0.48995 0.0
C2634 C 0.22221 0.87152 0.47732 0.0
C2635 C 0.25122 0.85768 0.46836 0.0
C2636 C 0.26977 0.85347 0.47197 0.0
C2637 C 0.24063 0.86739 0.48118 0.0
C2638 C 0.27763 0.85914 0.48875 0.0
C2639 C 0.26711 0.86886 0.50169 0.0
H2640 H 0.8558 0.97454 0.76743 0.0
H2641 H 0.86486 0.93066 0.72829 0.0
H2642 H 0.88182 0.95168 0.70831 0.0
H2643 H 0.89308 0.98256 0.70143 0.0
H2644 H 0.88337 0.0269 0.73989 0.0
H2645 H 0.86757 0.0056 0.76067 0.0
C2646 C 0.86164 0.96955 0.75462 0.0
C2647 C 0.85909 0.95108 0.74935 0.0
C2648 C 0.87111 0.98179 0.74302 0.0
C2649 C 0.86659 0.94484 0.73263 0.0
C2650 C 0.87627 0.95684 0.72118 0.0
C2651 C 0.88755 0.98761 0.71437 0.0
C2652 C 0.88936 0.0063 0.71907 0.0
C2653 C 0.87842 0.97536 0.72614 0.0
C2654 C 0.8821 0.01258 0.7359 0.0
C2655 C 0.8731 0.00041 0.7478 0.0
H2656 H 0.77001 0.61344 0.01581 0.0
H2657 H 0.815 0.61695 0.97705 0.0
H2658 H 0.79433 0.62973 0.95384 0.0
H2659 H 0.76354 0.63931 0.94429 0.0
H2660 H 0.71805 0.63513 0.98239 0.0
H2661 H 0.73882 0.62303 0.00605 0.0
C2662 C 0.7753 0.61719 0.00234 0.0
C2663 C 0.79403 0.61433 0.99819 0.0
C2664 C 0.76322 0.62421 0.98888 0.0
C2665 C 0.80064 0.61901 0.9806 0.0
C2666 C 0.78882 0.62628 0.9673 0.0
C2667 C 0.7581 0.63573 0.95775 0.0
C2668 C 0.73924 0.63812 0.96153 0.0
C2669 C 0.77008 0.62879 0.97123 0.0
C2670 C 0.73249 0.63336 0.97907 0.0
C2671 C 0.74438 0.62651 0.99263 0.0
H2672 H 0.24653 0.64406 0.46115 0.0
H2673 H 0.1995 0.6376 0.49696 0.0
H2674 H 0.219 0.62217 0.51988 0.0
H2675 H 0.24958 0.60988 0.52929 0.0
H2676 H 0.29586 0.61666 0.49243 0.0
H2677 H 0.27643 0.6327 0.47047 0.0
C2678 C 0.24044 0.63931 0.47395 0.0
C2679 C 0.22155 0.64191 0.47728 0.0
C2680 C 0.25164 0.63051 0.48693 0.0
C2681 C 0.21401 0.63572 0.49402 0.0
C2682 C 0.22516 0.62691 0.50713 0.0
C2683 C 0.25538 0.61499 0.51651 0.0
C2684 C 0.27414 0.61197 0.51251 0.0
C2685 C 0.24402 0.62416 0.5037 0.0
C2686 C 0.28146 0.61864 0.49585 0.0
C2687 C 0.27037 0.62784 0.48324 0.0
H2688 H 0.7928 0.39434 0.00865 0.0
H2689 H 0.75602 0.38594 0.96266 0.0
H2690 H 0.73453 0.36938 0.98282 0.0
H2691 H 0.72686 0.3564 0.01351 0.0
H2692 H 0.76469 0.36472 0.05872 0.0
H2693 H 0.78505 0.38233 0.0388 0.0
C2694 C 0.78008 0.38894 0.00294 0.0
C2695 C 0.77608 0.39131 0.98414 0.0
C2696 C 0.76796 0.37943 0.0145 0.0
C2697 C 0.75947 0.38426 0.97709 0.0
C2698 C 0.74718 0.3748 0.98861 0.0
C2699 C 0.73947 0.36223 0.019 0.0
C2700 C 0.74428 0.35919 0.03756 0.0
C2701 C 0.75135 0.3722 0.00734 0.0
C2702 C 0.76072 0.36673 0.04446 0.0
C2703 C 0.77239 0.37682 0.03309 0.0
H2704 H 0.35949 0.54286 0.26564 0.0
H2705 H 0.35259 0.50636 0.21918 0.0
H2706 H 0.36939 0.48214 0.23556 0.0
H2707 H 0.38581 0.47136 0.2633 0.0
H2708 H 0.3929 0.50852 0.30924 0.0
H2709 H 0.37613 0.53245 0.2928 0.0
C2710 C 0.36164 0.52962 0.25905 0.0
C2711 C 0.35475 0.52639 0.24126 0.0
C2712 C 0.37129 0.51586 0.26847 0.0
C2713 C 0.35779 0.50919 0.23288 0.0
C2714 C 0.36734 0.49533 0.24225 0.0
C2715 C 0.38362 0.48468 0.26971 0.0
C2716 C 0.39055 0.48814 0.28747 0.0
C2717 C 0.37409 0.4985 0.2601 0.0
C2718 C 0.38774 0.5055 0.29556 0.0
C2719 C 0.37815 0.51921 0.28619 0.0
H2720 H 0.20639 0.11148 0.50641 0.0
H2721 H 0.24541 0.1085 0.4616 0.0
H2722 H 0.26843 0.1244 0.48042 0.0
H2723 H 0.27743 0.13904 0.50979 0.0
H2724 H 0.23774 0.14203 0.55408 0.0
H2725 H 0.21508 0.12614 0.53523 0.0
C2726 C 0.21991 0.1143 0.5007 0.0
C2727 C 0.22417 0.10879 0.48265 0.0
C2728 C 0.233 0.12341 0.51152 0.0
C2729 C 0.24176 0.11263 0.47547 0.0
C2730 C 0.25494 0.12168 0.48623 0.0
C2731 C 0.26384 0.13615 0.51531 0.0
C2732 C 0.25932 0.1417 0.53332 0.0
C2733 C 0.25073 0.12709 0.50431 0.0
C2734 C 0.24161 0.13796 0.54025 0.0
C2735 C 0.2286 0.12886 0.52949 0.0
H2736 H 0.76905 0.35826 0.48633 0.0
H2737 H 0.73399 0.37093 0.43989 0.0
H2738 H 0.71287 0.3874 0.45995 0.0
H2739 H 0.70356 0.39706 0.49041 0.0
H2740 H 0.73754 0.38462 0.53761 0.0
H2741 H 0.75992 0.36919 0.51748 0.0
C2742 C 0.75688 0.36481 0.48063 0.0
C2743 C 0.75305 0.36328 0.46166 0.0
C2744 C 0.74454 0.37413 0.49234 0.0
C2745 C 0.7372 0.37175 0.45445 0.0
C2746 C 0.72508 0.38118 0.4659 0.0
C2747 C 0.71583 0.39099 0.4964 0.0
C2748 C 0.71878 0.39185 0.51552 0.0
C2749 C 0.72848 0.38221 0.48485 0.0
C2750 C 0.7349 0.38406 0.52294 0.0
C2751 C 0.74769 0.37526 0.51143 0.0
H2752 H 0.39566 0.98979 0.21134 0.0
H2753 H 0.38362 0.03659 0.24601 0.0
H2754 H 0.36947 0.01609 0.26887 0.0
H2755 H 0.35929 0.9848 0.27815 0.0
H2756 H 0.371 0.93878 0.24232 0.0
H2757 H 0.38677 0.95912 0.22083 0.0
C2758 C 0.38997 0.99561 0.22388 0.0
C2759 C 0.39056 0.01472 0.22689 0.0
C2760 C 0.38188 0.98385 0.23679 0.0
C2761 C 0.38325 0.02192 0.24332 0.0
C2762 C 0.37519 0.01021 0.25639 0.0
C2763 C 0.36555 0.97926 0.26576 0.0
C2764 C 0.36397 0.96036 0.26177 0.0
C2765 C 0.3743 0.99114 0.25319 0.0
C2766 C 0.37195 0.95331 0.24561 0.0
C2767 C 0.38094 0.96492 0.2333 0.0
H2768 H 0.59919 0.50743 0.70196 0.0
H2769 H 0.60514 0.46285 0.74088 0.0
H2770 H 0.62342 0.48285 0.76108 0.0
H2771 H 0.63854 0.51292 0.76704 0.0
H2772 H 0.63255 0.55669 0.72713 0.0
H2773 H 0.6134 0.53701 0.708 0.0
C2774 C 0.60441 0.502 0.71488 0.0
C2775 C 0.60084 0.48363 0.71985 0.0
C2776 C 0.61494 0.51345 0.72625 0.0
C2777 C 0.6077 0.47694 0.73669 0.0
C2778 C 0.61817 0.48837 0.74823 0.0
C2779 C 0.63294 0.51815 0.75422 0.0
C2780 C 0.63706 0.53624 0.74851 0.0
C2781 C 0.62199 0.50664 0.74307 0.0
C2782 C 0.62973 0.5428 0.73182 0.0
C2783 C 0.61874 0.53157 0.72085 0.0
H2784 H 0.49391 0.27829 0.86197 0.0
H2785 H 0.44561 0.24617 0.87533 0.0
H2786 H 0.46446 0.2242 0.8921 0.0
H2787 H 0.49435 0.21307 0.90136 0.0
H2788 H 0.54347 0.24381 0.88807 0.0
H2789 H 0.52458 0.26749 0.87292 0.0
C2790 C 0.48757 0.26659 0.86876 0.0
C2791 C 0.46844 0.26374 0.86729 0.0
C2792 C 0.49859 0.25372 0.87821 0.0
C2793 C 0.46034 0.24853 0.87609 0.0
C2794 C 0.47109 0.23596 0.88569 0.0
C2795 C 0.50103 0.22492 0.89515 0.0
C2796 C 0.52029 0.22657 0.89559 0.0
C2797 C 0.4902 0.23823 0.88651 0.0
C2798 C 0.52864 0.2422 0.88779 0.0
C2799 C 0.51785 0.2557 0.87914 0.0
H2800 H 0.50681 0.22305 0.35931 0.0
H2801 H 0.55188 0.26157 0.36431 0.0
H2802 H 0.53202 0.28303 0.38077 0.0
H2803 H 0.5019 0.29114 0.39334 0.0
H2804 H 0.45638 0.25326 0.38785 0.0
H2805 H 0.47639 0.23129 0.37197 0.0
C2806 C 0.51229 0.2361 0.36408 0.0
C2807 C 0.5308 0.24068 0.36058 0.0
C2808 C 0.50072 0.24853 0.3734 0.0
C2809 C 0.53767 0.25771 0.36675 0.0
C2810 C 0.52633 0.27001 0.37619 0.0
C2811 C 0.49633 0.27806 0.38873 0.0
C2812 C 0.47768 0.27386 0.3918 0.0
C2813 C 0.50784 0.2656 0.37951 0.0
C2814 C 0.47069 0.25687 0.38563 0.0
C2815 C 0.48212 0.24429 0.37657 0.0
H2816 H 0.4959 0.77646 0.35593 0.0
H2817 H 0.45114 0.7373 0.35886 0.0
H2818 H 0.47076 0.71568 0.37517 0.0
H2819 H 0.50031 0.70763 0.38829 0.0
H2820 H 0.54577 0.74588 0.38563 0.0
H2821 H 0.52615 0.76813 0.36944 0.0
C2822 C 0.49046 0.76323 0.36021 0.0
C2823 C 0.47208 0.75852 0.35615 0.0
C2824 C 0.50191 0.75068 0.36955 0.0
C2825 C 0.46524 0.74128 0.36172 0.0
C2826 C 0.47644 0.72887 0.37107 0.0
C2827 C 0.50602 0.72082 0.38421 0.0
C2828 C 0.52448 0.72508 0.38817 0.0
C2829 C 0.49476 0.7334 0.37498 0.0
C2830 C 0.53159 0.74225 0.38272 0.0
C2831 C 0.52037 0.75497 0.37349 0.0
H2832 H 0.54095 0.75151 0.85507 0.0
H2833 H 0.50182 0.70691 0.8592 0.0
H2834 H 0.47988 0.72746 0.87456 0.0
H2835 H 0.47206 0.7582 0.88708 0.0
H2836 H 0.51198 0.80215 0.88304 0.0
H2837 H 0.5333 0.78171 0.86719 0.0
C2838 C 0.52764 0.7462 0.85932 0.0
C2839 C 0.52306 0.72769 0.85601 0.0
C2840 C 0.51519 0.75801 0.86808 0.0
C2841 C 0.50573 0.72111 0.86164 0.0
C2842 C 0.49316 0.73286 0.87037 0.0
C2843 C 0.48537 0.7633 0.88258 0.0
C2844 C 0.49042 0.78166 0.88623 0.0
C2845 C 0.49775 0.75136 0.87366 0.0
C2846 C 0.50777 0.78806 0.88047 0.0
C2847 C 0.52 0.77639 0.87141 0.0
H2848 H 0.63312 0.98974 0.71804 0.0
H2849 H 0.63445 0.94658 0.75903 0.0
H2850 H 0.62022 0.96706 0.78142 0.0
H2851 H 0.60757 0.99687 0.78944 0.0
H2852 H 0.60618 0.04065 0.74918 0.0
H2853 H 0.6205 0.02024 0.7264 0.0
C2854 C 0.63019 0.98482 0.73184 0.0
C2855 C 0.63479 0.96666 0.73686 0.0
C2856 C 0.62215 0.99675 0.74478 0.0
C2857 C 0.63108 0.9605 0.75483 0.0
C2858 C 0.62295 0.97219 0.76766 0.0
C2859 C 0.61038 0.00204 0.77569 0.0
C2860 C 0.60577 0.02024 0.77099 0.0
C2861 C 0.6185 0.99031 0.76278 0.0
C2862 C 0.60964 0.02669 0.75315 0.0
C2863 C 0.61775 0.01501 0.74011 0.0
H2864 H 0.6393 0.48825 0.2214 0.0
H2865 H 0.63414 0.44208 0.25859 0.0
H2866 H 0.61863 0.4615 0.28105 0.0
H2867 H 0.60704 0.49135 0.2904 0.0
H2868 H 0.61225 0.53818 0.2541 0.0
H2869 H 0.62743 0.51874 0.23104 0.0
C2870 C 0.63463 0.48247 0.23436 0.0
C2871 C 0.63784 0.46378 0.23834 0.0
C2872 C 0.62591 0.49381 0.24741 0.0
C2873 C 0.6319 0.45645 0.25524 0.0
C2874 C 0.62303 0.46753 0.26811 0.0
C2875 C 0.61148 0.49739 0.27746 0.0
C2876 C 0.60852 0.51618 0.27397 0.0
C2877 C 0.62011 0.48622 0.26439 0.0
C2878 C 0.61443 0.52374 0.25714 0.0
C2879 C 0.62305 0.51263 0.24394 0.0
H2880 H 0.07305 0.34783 0.04498 0.0
H2881 H 0.10672 0.3263 0.08893 0.0
H2882 H 0.13319 0.34397 0.07757 0.0
H2883 H 0.14588 0.36753 0.05645 0.0
H2884 H 0.11185 0.38792 0.01203 0.0
H2885 H 0.0865 0.36857 0.02218 0.0
C2886 C 0.08624 0.3469 0.05197 0.0
C2887 C 0.08794 0.33603 0.06786 0.0
C2888 C 0.10131 0.35694 0.04532 0.0
C2889 C 0.10513 0.33464 0.07665 0.0
C2890 C 0.12022 0.34479 0.07022 0.0
C2891 C 0.13299 0.36757 0.04889 0.0
C2892 C 0.13074 0.37935 0.03364 0.0
C2893 C 0.11835 0.35629 0.05476 0.0
C2894 C 0.11399 0.37908 0.02387 0.0
C2895 C 0.09941 0.36805 0.02968 0.0
H2896 H 0.91456 0.34335 0.31972 0.0
H2897 H 0.88951 0.30266 0.28438 0.0
H2898 H 0.87142 0.32661 0.26916 0.0
H2899 H 0.86076 0.3584 0.26783 0.0
H2900 H 0.88356 0.39894 0.30487 0.0
H2901 H 0.90465 0.3758 0.31744 0.0
C2902 C 0.90536 0.33984 0.30848 0.0
C2903 C 0.9033 0.32134 0.30314 0.0
C2904 C 0.89453 0.3536 0.30023 0.0
C2905 C 0.89119 0.31684 0.28874 0.0
C2906 C 0.88087 0.3305 0.28006 0.0
C2907 C 0.87051 0.36228 0.27847 0.0
C2908 C 0.87057 0.38035 0.28544 0.0
C2909 C 0.88211 0.34883 0.28599 0.0
C2910 C 0.88321 0.38509 0.29933 0.0
C2911 C 0.89524 0.37187 0.30653 0.0
H2912 H 0.85536 0.13109 0.5532 0.0
H2913 H 0.8889 0.09777 0.51703 0.0
H2914 H 0.91568 0.11666 0.524 0.0
H2915 H 0.93031 0.14077 0.54248 0.0
H2916 H 0.89703 0.17455 0.57834 0.0
H2917 H 0.86948 0.15752 0.5692 0.0
C2918 C 0.86847 0.12811 0.54666 0.0
C2919 C 0.87011 0.11287 0.5348 0.0
C2920 C 0.88394 0.13905 0.55075 0.0
C2921 C 0.8872 0.10933 0.52632 0.0
C2922 C 0.90259 0.1201 0.53032 0.0
C2923 C 0.917 0.14455 0.54813 0.0
C2924 C 0.91577 0.15875 0.56122 0.0
C2925 C 0.90123 0.13469 0.54286 0.0
C2926 C 0.89838 0.16364 0.56825 0.0
C2927 C 0.88261 0.15385 0.5631 0.0
H2928 H 0.11699 0.10428 0.79554 0.0
H2929 H 0.15026 0.14345 0.76556 0.0
H2930 H 0.12971 0.16833 0.7748 0.0
H2931 H 0.10376 0.17938 0.79336 0.0
H2932 H 0.06983 0.14039 0.8227 0.0
H2933 H 0.08904 0.11502 0.81158 0.0
C2934 C 0.11963 0.11823 0.79088 0.0
C2935 C 0.13526 0.12201 0.78005 0.0
C2936 C 0.10769 0.13253 0.79619 0.0
C2937 C 0.13837 0.14013 0.77394 0.0
C2938 C 0.12665 0.15441 0.77927 0.0
C2939 C 0.10048 0.16531 0.79718 0.0
C2940 C 0.08555 0.16177 0.80899 0.0
C2941 C 0.11151 0.15083 0.7907 0.0
C2942 C 0.08127 0.14346 0.81362 0.0
C2943 C 0.0923 0.12896 0.80734 0.0
H2944 H 0.08003 0.64611 0.9591 0.0
H2945 H 0.111 0.67495 0.91737 0.0
H2946 H 0.13855 0.65717 0.92521 0.0
H2947 H 0.1529 0.6312 0.94191 0.0
H2948 H 0.12154 0.60299 0.98394 0.0
H2949 H 0.09524 0.62284 0.97806 0.0
C2950 C 0.09287 0.64866 0.95188 0.0
C2951 C 0.09343 0.66164 0.93755 0.0
C2952 C 0.10859 0.63839 0.95641 0.0
C2953 C 0.11022 0.665 0.92847 0.0
C2954 C 0.12595 0.65476 0.93287 0.0
C2955 C 0.1404 0.62957 0.94994 0.0
C2956 C 0.13916 0.61543 0.96314 0.0
C2957 C 0.12517 0.64108 0.9465 0.0
C2958 C 0.12289 0.61363 0.97356 0.0
C2959 C 0.10777 0.62496 0.97021 0.0
H2960 H 0.60189 0.32346 0.20479 0.0
H2961 H 0.5736 0.35638 0.1642 0.0
H2962 H 0.59119 0.38356 0.17373 0.0
H2963 H 0.61681 0.39703 0.1916 0.0
H2964 H 0.64451 0.36364 0.23239 0.0
H2965 H 0.6248 0.33765 0.22488 0.0
C2966 C 0.59945 0.33663 0.19815 0.0
C2967 C 0.58672 0.33792 0.18367 0.0
C2968 C 0.60957 0.35209 0.20367 0.0
C2969 C 0.58341 0.35509 0.17538 0.0
C2970 C 0.59352 0.37059 0.18076 0.0
C2971 C 0.61836 0.38415 0.19901 0.0
C2972 C 0.63231 0.38224 0.21233 0.0
C2973 C 0.60697 0.36913 0.19459 0.0
C2974 C 0.634 0.36549 0.22195 0.0
C2975 C 0.62276 0.35056 0.21765 0.0
H2976 H 0.86817 0.88254 0.47812 0.0
H2977 H 0.82965 0.86299 0.43723 0.0
H2978 H 0.85162 0.83927 0.4277 0.0
H2979 H 0.88317 0.82644 0.42872 0.0
H2980 H 0.92198 0.84783 0.46833 0.0
H2981 H 0.89842 0.86829 0.48081 0.0
C2982 C 0.86444 0.87297 0.46727 0.0
C2983 C 0.84737 0.87469 0.45827 0.0
C2984 C 0.87725 0.8597 0.46159 0.0
C2985 C 0.84276 0.86206 0.44431 0.0
C2986 C 0.85532 0.84851 0.43883 0.0
C2987 C 0.88627 0.83529 0.44035 0.0
C2988 C 0.90424 0.83573 0.44758 0.0
C2989 C 0.87281 0.84751 0.44705 0.0
C2990 C 0.90824 0.84738 0.4625 0.0
C2991 C 0.8948 0.85911 0.4696 0.0
H2992 H 0.36532 0.12038 0.72208 0.0
H2993 H 0.38685 0.08556 0.67892 0.0
H2994 H 0.40853 0.10981 0.67002 0.0
H2995 H 0.41902 0.14211 0.67251 0.0
H2996 H 0.3955 0.17716 0.71439 0.0
H2997 H 0.37701 0.15156 0.72584 0.0
C2998 C 0.37492 0.11793 0.71088 0.0
C2999 C 0.37435 0.10121 0.7011 0.0
C3000 C 0.38689 0.13207 0.7055 0.0
C3001 C 0.38693 0.09832 0.68665 0.0
C3002 C 0.39929 0.11221 0.6815 0.0
C3003 C 0.41006 0.14401 0.68433 0.0
C3004 C 0.40852 0.1615 0.69254 0.0
C3005 C 0.39905 0.12933 0.69052 0.0
C3006 C 0.39678 0.16386 0.70774 0.0
C3007 C 0.38621 0.14923 0.7143 0.0
H3008 H 0.02242 0.11899 0.38829 0.0
H3009 H 0.06552 0.1551 0.36888 0.0
H3010 H 0.07621 0.13112 0.3477 0.0
H3011 H 0.075 0.09886 0.33695 0.0
H3012 H 0.03312 0.06254 0.35849 0.0
H3013 H 0.02019 0.08773 0.37656 0.0
C3014 C 0.03402 0.12177 0.37928 0.0
C3015 C 0.04323 0.13878 0.38026 0.0
C3016 C 0.04039 0.10781 0.36763 0.0
C3017 C 0.05823 0.14209 0.36846 0.0
C3018 C 0.06438 0.12837 0.35639 0.0
C3019 C 0.06288 0.09658 0.3454 0.0
C3020 C 0.05506 0.07889 0.3465 0.0
C3021 C 0.05582 0.11102 0.35619 0.0
C3022 C 0.03946 0.07602 0.35758 0.0
C3023 C 0.03206 0.0904 0.3679 0.0
H3024 H 0.14195 0.32704 0.58137 0.0
H3025 H 0.18054 0.28448 0.59661 0.0
H3026 H 0.1575 0.27035 0.61661 0.0
H3027 H 0.12788 0.27196 0.6322 0.0
H3028 H 0.08972 0.31568 0.61916 0.0
H3029 H 0.11099 0.3274 0.59575 0.0
C3030 C 0.14511 0.31446 0.58879 0.0
C3031 C 0.16286 0.30679 0.58759 0.0
C3032 C 0.13197 0.30676 0.60081 0.0
C3033 C 0.16696 0.29064 0.59743 0.0
C3034 C 0.15382 0.28259 0.60888 0.0
C3035 C 0.12405 0.28393 0.62411 0.0
C3036 C 0.10728 0.29301 0.62757 0.0
C3037 C 0.1365 0.29084 0.61108 0.0
C3038 C 0.10258 0.30847 0.61686 0.0
C3039 C 0.11476 0.3152 0.60349 0.0
H3040 H 0.95841 0.42555 0.85136 0.0
H3041 H 0.92235 0.38916 0.82127 0.0
H3042 H 0.93193 0.36331 0.84075 0.0
H3043 H 0.94844 0.35188 0.86825 0.0
H3044 H 0.98481 0.38863 0.89772 0.0
H3045 H 0.9773 0.41346 0.87647 0.0
C3046 C 0.9528 0.4119 0.84893 0.0
C3047 C 0.93954 0.40928 0.83508 0.0
C3048 C 0.95833 0.39721 0.86016 0.0
C3049 C 0.93259 0.39151 0.83187 0.0
C3050 C 0.93798 0.37676 0.84308 0.0
C3051 C 0.95486 0.36526 0.8699 0.0
C3052 C 0.96698 0.36843 0.88472 0.0
C3053 C 0.9505 0.37956 0.85757 0.0
C3054 C 0.97537 0.3858 0.88651 0.0
C3055 C 0.97105 0.40006 0.87439 0.0
H3056 H 0.85838 0.17227 0.07322 0.0
H3057 H 0.81648 0.20787 0.0958 0.0
H3058 H 0.8388 0.22091 0.11734 0.0
H3059 H 0.86918 0.22008 0.13164 0.0
H3060 H 0.91064 0.18269 0.11115 0.0
H3061 H 0.88961 0.17254 0.08681 0.0
C3062 C 0.85429 0.18312 0.08264 0.0
C3063 C 0.83587 0.18914 0.08297 0.0
C3064 C 0.86705 0.19008 0.09546 0.0
C3065 C 0.8306 0.203 0.09539 0.0
C3066 C 0.84333 0.21043 0.10771 0.0
C3067 C 0.87376 0.2099 0.12171 0.0
C3068 C 0.89144 0.20212 0.12326 0.0
C3069 C 0.86145 0.20375 0.10817 0.0
C3070 C 0.89707 0.18885 0.11031 0.0
C3071 C 0.88504 0.18302 0.09641 0.0
H3072 H 0.02683 0.87965 0.60877 0.0
H3073 H 0.06349 0.84004 0.63379 0.0
H3074 H 0.07518 0.86381 0.65463 0.0
H3075 H 0.07684 0.89644 0.66383 0.0
H3076 H 0.04147 0.93613 0.63713 0.0
H3077 H 0.0274 0.91169 0.61888 0.0
C3078 C 0.03717 0.8761 0.61896 0.0
C3079 C 0.04431 0.8581 0.61969 0.0
C3080 C 0.0442 0.88991 0.63048 0.0
C3081 C 0.0578 0.85381 0.63292 0.0
C3082 C 0.06453 0.86741 0.64479 0.0
C3083 C 0.0659 0.89969 0.65417 0.0
C3084 C 0.06029 0.91808 0.65175 0.0
C3085 C 0.05813 0.8856 0.6434 0.0
C3086 C 0.04617 0.92211 0.63912 0.0
C3087 C 0.03808 0.90814 0.6287 0.0
H3088 H 0.34886 0.31784 0.9199 0.0
H3089 H 0.31166 0.27998 0.89321 0.0
H3090 H 0.33685 0.26807 0.87435 0.0
H3091 H 0.36836 0.27079 0.86312 0.0
H3092 H 0.40532 0.31033 0.88775 0.0
H3093 H 0.38139 0.31915 0.90981 0.0
C3094 C 0.34645 0.30669 0.91025 0.0
C3095 C 0.32853 0.29973 0.90791 0.0
C3096 C 0.36087 0.30042 0.89891 0.0
C3097 C 0.32539 0.28553 0.89517 0.0
C3098 C 0.33975 0.27877 0.88435 0.0
C3099 C 0.37132 0.28118 0.87345 0.0
C3100 C 0.38857 0.28999 0.87367 0.0
C3101 C 0.35739 0.28649 0.88572 0.0
C3102 C 0.39211 0.30341 0.88719 0.0
C3103 C 0.37843 0.30847 0.8998 0.0
H3104 H 0.9487 0.65081 0.13339 0.0
H3105 H 0.98609 0.61267 0.10707 0.0
H3106 H 0.97598 0.5882 0.12752 0.0
H3107 H 0.95484 0.57687 0.151 0.0
H3108 H 0.91772 0.61448 0.17815 0.0
H3109 H 0.92959 0.63998 0.15944 0.0
C3110 C 0.95474 0.63719 0.13227 0.0
C3111 C 0.96794 0.63355 0.11855 0.0
C3112 C 0.9489 0.62307 0.14417 0.0
C3113 C 0.97582 0.61588 0.11742 0.0
C3114 C 0.97004 0.60181 0.12909 0.0
C3115 C 0.94947 0.59069 0.15294 0.0
C3116 C 0.93531 0.59382 0.16569 0.0
C3117 C 0.95632 0.60516 0.14221 0.0
C3118 C 0.92866 0.6118 0.16835 0.0
C3119 C 0.93536 0.62633 0.1576 0.0
H3120 H 0.64555 0.17807 0.41895 0.0
H3121 H 0.68802 0.20782 0.38984 0.0
H3122 H 0.66487 0.22193 0.36997 0.0
H3123 H 0.63304 0.22383 0.35919 0.0
H3124 H 0.5906 0.19254 0.38668 0.0
H3125 H 0.61319 0.18119 0.40897 0.0
C3126 C 0.64967 0.18785 0.40842 0.0
C3127 C 0.66845 0.19184 0.4058 0.0
C3128 C 0.63631 0.19555 0.39669 0.0
C3129 C 0.67364 0.20441 0.39202 0.0
C3130 C 0.66042 0.2125 0.38066 0.0
C3131 C 0.62864 0.21475 0.37021 0.0
C3132 C 0.61017 0.20901 0.37123 0.0
C3133 C 0.64177 0.20787 0.38262 0.0
C3134 C 0.60476 0.19712 0.38554 0.0
C3135 C 0.61768 0.19059 0.39827 0.0
H3136 H 0.32928 0.06918 0.10431 0.0
H3137 H 0.35477 0.03069 0.06686 0.0
H3138 H 0.37358 0.01839 0.09186 0.0
H3139 H 0.38494 0.02058 0.12339 0.0
H3140 H 0.36145 0.06056 0.16063 0.0
H3141 H 0.33959 0.07011 0.13679 0.0
C3142 C 0.33873 0.05789 0.10175 0.0
C3143 C 0.34071 0.05088 0.08379 0.0
C3144 C 0.34997 0.05125 0.11611 0.0
C3145 C 0.35312 0.03639 0.08056 0.0
C3146 C 0.36389 0.02935 0.09484 0.0
C3147 C 0.37486 0.0312 0.12644 0.0
C3148 C 0.37491 0.03989 0.14376 0.0
C3149 C 0.36276 0.03699 0.11254 0.0
C3150 C 0.36178 0.05367 0.14739 0.0
C3151 C 0.3493 0.05918 0.13374 0.0
H3152 H 0.85621 0.9459 0.35292 0.0
H3153 H 0.88524 0.98419 0.38803 0.0
H3154 H 0.86515 0.97628 0.41369 0.0
H3155 H 0.84131 0.95649 0.42699 0.0
H3156 H 0.81147 0.91876 0.39214 0.0
H3157 H 0.82976 0.92859 0.36551 0.0
C3158 C 0.85798 0.95268 0.36612 0.0
C3159 C 0.87238 0.96545 0.36858 0.0
C3160 C 0.84632 0.94809 0.3809 0.0
C3161 C 0.87434 0.97427 0.38572 0.0
C3162 C 0.8629 0.9697 0.40047 0.0
C3163 C 0.83869 0.95057 0.41351 0.0
C3164 C 0.82526 0.93678 0.41153 0.0
C3165 C 0.84916 0.95632 0.39834 0.0
C3166 C 0.82176 0.92941 0.39398 0.0
C3167 C 0.83228 0.93495 0.37879 0.0
H3168 H 0.29601 0.09931 0.67015 0.0
H3169 H 0.32978 0.06829 0.63232 0.0
H3170 H 0.32018 0.08839 0.60699 0.0
H3171 H 0.30426 0.11641 0.59629 0.0
H3172 H 0.2702 0.14692 0.63441 0.0
H3173 H 0.27774 0.12525 0.65887 0.0
C3174 C 0.30115 0.09685 0.65632 0.0
C3175 C 0.31375 0.08253 0.65312 0.0
C3176 C 0.29559 0.10841 0.6419 0.0
C3177 C 0.32007 0.07928 0.63511 0.0
C3178 C 0.31466 0.09081 0.62065 0.0
C3179 C 0.29833 0.11819 0.6099 0.0
C3180 C 0.28688 0.1334 0.61355 0.0
C3181 C 0.30274 0.10567 0.62398 0.0
C3182 C 0.27913 0.1354 0.63121 0.0
C3183 C 0.28347 0.12304 0.64525 0.0
H3184 H 0.13504 0.55279 0.85035 0.0
H3185 H 0.10536 0.51364 0.88392 0.0
H3186 H 0.12474 0.52106 0.91023 0.0
H3187 H 0.1484 0.54046 0.92452 0.0
H3188 H 0.17879 0.57904 0.89102 0.0
H3189 H 0.16098 0.56996 0.86395 0.0
C3190 C 0.13298 0.54572 0.86335 0.0
C3191 C 0.11861 0.53284 0.86516 0.0
C3192 C 0.14421 0.55004 0.87853 0.0
C3193 C 0.11624 0.52368 0.88209 0.0
C3194 C 0.12728 0.52796 0.89723 0.0
C3195 C 0.15122 0.54676 0.91126 0.0
C3196 C 0.16473 0.56053 0.90983 0.0
C3197 C 0.14102 0.54141 0.89573 0.0
C3198 C 0.16843 0.5684 0.8925 0.0
C3199 C 0.1582 0.56327 0.87701 0.0
H3200 H 0.20761 0.90074 0.17447 0.0
H3201 H 0.16813 0.92967 0.14071 0.0
H3202 H 0.1768 0.91092 0.11411 0.0
H3203 H 0.19362 0.88439 0.10127 0.0
H3204 H 0.23339 0.85595 0.13525 0.0
H3205 H 0.22671 0.87658 0.1608 0.0
C3206 C 0.20102 0.90305 0.16125 0.0
C3207 C 0.1871 0.91637 0.15961 0.0
C3208 C 0.20607 0.89227 0.14604 0.0
C3209 C 0.17887 0.91944 0.14233 0.0
C3210 C 0.18377 0.90868 0.12713 0.0
C3211 C 0.20101 0.88287 0.11417 0.0
C3212 C 0.21379 0.86847 0.11638 0.0
C3213 C 0.19707 0.89477 0.12893 0.0
C3214 C 0.22337 0.86681 0.13317 0.0
C3215 C 0.21953 0.87857 0.14785 0.0
H3216 H 0.63106 0.94042 0.14803 0.0
H3217 H 0.60556 0.98249 0.11451 0.0
H3218 H 0.62427 0.97327 0.08827 0.0
H3219 H 0.64571 0.95151 0.07396 0.0
H3220 H 0.67217 0.91 0.10722 0.0
H3221 H 0.65537 0.92083 0.13444 0.0
C3222 C 0.62979 0.94774 0.13506 0.0
C3223 C 0.61673 0.96198 0.13324 0.0
C3224 C 0.64065 0.94237 0.11991 0.0
C3225 C 0.61541 0.97143 0.11635 0.0
C3226 C 0.62606 0.96612 0.10126 0.0
C3227 C 0.64792 0.94495 0.08722 0.0
C3228 C 0.65993 0.92984 0.08857 0.0
C3229 C 0.63835 0.95132 0.10276 0.0
C3230 C 0.66294 0.92165 0.10586 0.0
C3231 C 0.65329 0.92779 0.12139 0.0
H3232 H 0.27317 0.36619 0.86602 0.0
H3233 H 0.31271 0.37678 0.90916 0.0
H3234 H 0.32646 0.40141 0.89072 0.0
H3235 H 0.32916 0.41781 0.86086 0.0
H3236 H 0.29047 0.40542 0.81748 0.0
H3237 H 0.27435 0.38384 0.83754 0.0
C3238 C 0.28466 0.374 0.87152 0.0
C3239 C 0.292 0.3695 0.88886 0.0
C3240 C 0.29271 0.38783 0.86073 0.0
C3241 C 0.30684 0.37987 0.89579 0.0
C3242 C 0.31475 0.39395 0.88523 0.0
C3243 C 0.31698 0.41064 0.85602 0.0
C3244 C 0.31102 0.41307 0.83776 0.0
C3245 C 0.30807 0.39776 0.86749 0.0
C3246 C 0.29536 0.4036 0.83148 0.0
C3247 C 0.28616 0.39125 0.84291 0.0
H3248 H 0.72775 0.13286 0.36733 0.0
H3249 H 0.68654 0.11348 0.40559 0.0
H3250 H 0.67427 0.0927 0.38205 0.0
H3251 H 0.67336 0.08242 0.3496 0.0
H3252 H 0.71333 0.10387 0.31115 0.0
H3253 H 0.72803 0.12136 0.33578 0.0
C3254 C 0.71626 0.12389 0.37066 0.0
C3255 C 0.70802 0.1248 0.38818 0.0
C3256 C 0.70894 0.11245 0.35693 0.0
C3257 C 0.6931 0.11311 0.39219 0.0
C3258 C 0.68604 0.10126 0.37871 0.0
C3259 C 0.68546 0.0907 0.34673 0.0
C3260 C 0.6922 0.09196 0.32859 0.0
C3261 C 0.69356 0.10117 0.36089 0.0
C3262 C 0.70779 0.10284 0.32498 0.0
C3263 C 0.71622 0.11283 0.33905 0.0
H3264 H 0.12164 0.88234 0.52218 0.0
H3265 H 0.16136 0.86501 0.56294 0.0
H3266 H 0.13974 0.84171 0.57425 0.0
H3267 H 0.10831 0.82842 0.57443 0.0
H3268 H 0.06841 0.84774 0.53481 0.0
H3269 H 0.09143 0.86797 0.52104 0.0
C3270 C 0.12571 0.87336 0.53342 0.0
C3271 C 0.14303 0.87555 0.54181 0.0
C3272 C 0.11312 0.86037 0.54009 0.0
C3273 C 0.14806 0.8637 0.5563 0.0
C3274 C 0.13569 0.85039 0.56279 0.0
C3275 C 0.10484 0.83681 0.56256 0.0
C3276 C 0.08674 0.83669 0.55565 0.0
C3277 C 0.11801 0.8489 0.55507 0.0
C3278 C 0.08226 0.84774 0.54041 0.0
C3279 C 0.09538 0.85932 0.53256 0.0
H3280 H 0.8957 0.81336 0.79031 0.0
H3281 H 0.92778 0.85337 0.82033 0.0
H3282 H 0.90778 0.8781 0.80915 0.0
H3283 H 0.87974 0.88795 0.7926 0.0
H3284 H 0.84852 0.8477 0.76186 0.0
H3285 H 0.86965 0.82352 0.77152 0.0
C3286 C 0.8984 0.82752 0.79426 0.0
C3287 C 0.91303 0.83154 0.80624 0.0
C3288 C 0.88693 0.84162 0.78776 0.0
C3289 C 0.91657 0.84995 0.81108 0.0
C3290 C 0.90509 0.86408 0.80479 0.0
C3291 C 0.87767 0.8739 0.78794 0.0
C3292 C 0.86249 0.86961 0.7767 0.0
C3293 C 0.89 0.86001 0.79341 0.0
C3294 C 0.86008 0.85139 0.77055 0.0
C3295 C 0.87213 0.83752 0.7761 0.0
H3296 H 0.86329 0.63707 0.04428 0.0
H3297 H 0.89797 0.60205 0.01095 0.0
H3298 H 0.92505 0.61957 0.02023 0.0
H3299 H 0.93931 0.64315 0.03988 0.0
H3300 H 0.90468 0.67884 0.07247 0.0
H3301 H 0.87727 0.66287 0.06131 0.0
C3302 C 0.87674 0.63343 0.03886 0.0
C3303 C 0.87857 0.61814 0.02709 0.0
C3304 C 0.89234 0.6436 0.04422 0.0
C3305 C 0.8961 0.61372 0.02006 0.0
C3306 C 0.91166 0.62368 0.02543 0.0
C3307 C 0.92575 0.64755 0.04438 0.0
C3308 C 0.92407 0.66202 0.05713 0.0
C3309 C 0.91 0.63838 0.03783 0.0
C3310 C 0.90638 0.66772 0.06266 0.0
C3311 C 0.89068 0.65854 0.05635 0.0
H3312 H 0.06846 0.64148 0.32273 0.0
H3313 H 0.09354 0.68335 0.28879 0.0
H3314 H 0.11491 0.66067 0.27613 0.0
H3315 H 0.12821 0.62985 0.27681 0.0
H3316 H 0.10496 0.58829 0.31245 0.0
H3317 H 0.08102 0.60991 0.32227 0.0
C3318 C 0.0784 0.64551 0.31232 0.0
C3319 C 0.07949 0.66401 0.30669 0.0
C3320 C 0.09106 0.63252 0.30556 0.0
C3321 C 0.09256 0.66918 0.29339 0.0
C3322 C 0.10477 0.65624 0.28617 0.0
C3323 C 0.11777 0.6254 0.28655 0.0
C3324 C 0.11841 0.60752 0.29395 0.0
C3325 C 0.10443 0.638 0.29249 0.0
C3326 C 0.10482 0.60203 0.30662 0.0
C3327 C 0.09115 0.61438 0.31225 0.0
H3328 H 0.12143 0.11262 0.47579 0.0
H3329 H 0.1604 0.13466 0.43663 0.0
H3330 H 0.13775 0.15773 0.42694 0.0
H3331 H 0.10589 0.16975 0.42774 0.0
H3332 H 0.06656 0.14562 0.46522 0.0
H3333 H 0.09042 0.12536 0.4776 0.0
C3334 C 0.12511 0.1226 0.46529 0.0
C3335 C 0.14258 0.12187 0.45691 0.0
C3336 C 0.1119 0.13542 0.45946 0.0
C3337 C 0.14703 0.13488 0.44326 0.0
C3338 C 0.13408 0.14805 0.43771 0.0
C3339 C 0.10269 0.16029 0.43886 0.0
C3340 C 0.08455 0.15916 0.44562 0.0
C3341 C 0.11633 0.1482 0.44545 0.0
C3342 C 0.08044 0.14667 0.4598 0.0
C3343 C 0.09405 0.13507 0.46684 0.0
H3344 H 0.60745 0.90102 0.69605 0.0
H3345 H 0.6416 0.86429 0.72812 0.0
H3346 H 0.62017 0.83915 0.72268 0.0
H3347 H 0.59318 0.82684 0.70675 0.0
H3348 H 0.5584 0.86329 0.6752 0.0
H3349 H 0.57846 0.88929 0.68271 0.0
C3350 C 0.61009 0.88757 0.70198 0.0
C3351 C 0.62622 0.88452 0.71227 0.0
C3352 C 0.59763 0.87307 0.69887 0.0
C3353 C 0.62934 0.86705 0.72007 0.0
C3354 C 0.61711 0.8526 0.71694 0.0
C3355 C 0.58989 0.84052 0.70169 0.0
C3356 C 0.57449 0.84312 0.69028 0.0
C3357 C 0.60144 0.85535 0.70604 0.0
C3358 C 0.57021 0.86094 0.68402 0.0
C3359 C 0.58173 0.87579 0.68821 0.0
H3360 H 0.89672 0.3332 0.92737 0.0
H3361 H 0.93554 0.35894 0.96435 0.0
H3362 H 0.91097 0.3777 0.97749 0.0
H3363 H 0.87923 0.38883 0.97656 0.0
H3364 H 0.84058 0.36478 0.93829 0.0
H3365 H 0.86421 0.34319 0.92777 0.0
C3366 C 0.89972 0.34273 0.93849 0.0
C3367 C 0.91794 0.34477 0.9448 0.0
C3368 C 0.88557 0.35385 0.94569 0.0
C3369 C 0.92165 0.35724 0.95913 0.0
C3370 C 0.90761 0.36797 0.96667 0.0
C3371 C 0.87585 0.37868 0.96613 0.0
C3372 C 0.85818 0.37849 0.95818 0.0
C3373 C 0.88962 0.3667 0.95977 0.0
C3374 C 0.8541 0.36528 0.9446 0.0
C3375 C 0.86763 0.35296 0.93853 0.0
H3376 H 0.40059 0.66562 0.21103 0.0
H3377 H 0.42497 0.62851 0.17157 0.0
H3378 H 0.40513 0.6035 0.18255 0.0
H3379 H 0.37896 0.59309 0.20164 0.0
H3380 H 0.3556 0.63035 0.24173 0.0
H3381 H 0.37707 0.65432 0.23235 0.0
C3382 C 0.40166 0.65199 0.20497 0.0
C3383 C 0.41398 0.6489 0.1904 0.0
C3384 C 0.39036 0.63774 0.21141 0.0
C3385 C 0.41553 0.63116 0.18283 0.0
C3386 C 0.40414 0.61691 0.18903 0.0
C3387 C 0.37873 0.60639 0.20845 0.0
C3388 C 0.36555 0.60998 0.22219 0.0
C3389 C 0.39121 0.62017 0.20304 0.0
C3390 C 0.36555 0.62721 0.23107 0.0
C3391 C 0.37778 0.64098 0.22567 0.0
H3392 H 0.04686 0.57068 0.85765 0.0
H3393 H 0.08215 0.60448 0.82376 0.0
H3394 H 0.07376 0.63165 0.84175 0.0
H3395 H 0.05823 0.6453 0.86863 0.0
H3396 H 0.02267 0.61128 0.90212 0.0
H3397 H 0.02925 0.5848 0.88266 0.0
C3398 C 0.0526 0.58402 0.85412 0.0
C3399 C 0.06525 0.58553 0.83956 0.0
C3400 C 0.04774 0.59956 0.86449 0.0
C3401 C 0.07239 0.60294 0.83496 0.0
C3402 C 0.06766 0.61848 0.84527 0.0
C3403 C 0.05178 0.63214 0.87155 0.0
C3404 C 0.04016 0.63026 0.88693 0.0
C3405 C 0.05563 0.61688 0.8603 0.0
C3406 C 0.03176 0.61314 0.89043 0.0
C3407 C 0.03554 0.59793 0.87934 0.0
H3408 H 0.17246 0.7957 0.10815 0.0
H3409 H 0.14096 0.83582 0.07763 0.0
H3410 H 0.11354 0.82844 0.09582 0.0
H3411 H 0.09924 0.81224 0.12212 0.0
H3412 H 0.13105 0.77167 0.15191 0.0
H3413 H 0.15747 0.77748 0.13218 0.0
C3414 C 0.15955 0.80273 0.10539 0.0
C3415 C 0.15878 0.81642 0.09174 0.0
C3416 C 0.14388 0.79839 0.11582 0.0
C3417 C 0.14191 0.82522 0.0881 0.0
C3418 C 0.12624 0.82106 0.09855 0.0
C3419 C 0.11187 0.80452 0.12415 0.0
C3420 C 0.11316 0.7917 0.13865 0.0
C3421 C 0.12716 0.80791 0.1127 0.0
C3422 C 0.12963 0.78171 0.14096 0.0
C3423 C 0.14483 0.78504 0.1297 0.0
H3424 H 0.9642 0.8801 0.39312 0.0
H3425 H 0.92682 0.83998 0.3701 0.0
H3426 H 0.91589 0.86273 0.34777 0.0
H3427 H 0.91517 0.8948 0.33657 0.0
H3428 H 0.95143 0.93503 0.36113 0.0
H3429 H 0.96466 0.9114 0.38099 0.0
C3430 C 0.95382 0.87622 0.38309 0.0
C3431 C 0.94627 0.8584 0.38335 0.0
C3432 C 0.94731 0.88944 0.37063 0.0
C3433 C 0.9328 0.85365 0.37025 0.0
C3434 C 0.92652 0.86665 0.3575 0.0
C3435 C 0.92614 0.8983 0.3461 0.0
C3436 C 0.93223 0.91663 0.34748 0.0
C3437 C 0.9334 0.88471 0.35782 0.0
C3438 C 0.94638 0.92103 0.35995 0.0
C3439 C 0.95397 0.90754 0.3713 0.0
H3440 H 0.81635 0.70866 0.60235 0.0
H3441 H 0.85126 0.67215 0.57101 0.0
H3442 H 0.87808 0.68218 0.58871 0.0
H3443 H 0.89114 0.69954 0.61482 0.0
H3444 H 0.85608 0.73659 0.64547 0.0
H3445 H 0.82993 0.72824 0.62623 0.0
C3446 C 0.82986 0.70303 0.59929 0.0
C3447 C 0.83178 0.68956 0.58555 0.0
C3448 C 0.84522 0.70889 0.60946 0.0
C3449 C 0.84941 0.68256 0.58154 0.0
C3450 C 0.86475 0.68822 0.59171 0.0
C3451 C 0.87782 0.70592 0.61715 0.0
C3452 C 0.87556 0.7185 0.6317 0.0
C3453 C 0.86275 0.7011 0.60597 0.0
C3454 C 0.85824 0.72681 0.63441 0.0
C3455 C 0.84322 0.72201 0.62345 0.0
H3456 H 0.02107 0.38388 0.10871 0.0
H3457 H 0.05392 0.34636 0.14115 0.0
H3458 H 0.06261 0.37159 0.16175 0.0
H3459 H 0.06335 0.40481 0.16853 0.0
H3460 H 0.03244 0.44239 0.13434 0.0
H3461 H 0.02036 0.41656 0.1165 0.0
C3462 C 0.0299 0.38111 0.12045 0.0
C3463 C 0.03691 0.36327 0.12334 0.0
C3464 C 0.03529 0.39574 0.13183 0.0
C3465 C 0.0484 0.35999 0.13858 0.0
C3466 C 0.05341 0.37441 0.15033 0.0
C3467 C 0.05371 0.4073 0.15738 0.0
C3468 C 0.04882 0.42546 0.1527 0.0
C3469 C 0.0473 0.39242 0.1468 0.0
C3470 C 0.03648 0.42853 0.13811 0.0
C3471 C 0.02959 0.41378 0.12791 0.0
H3472 H 0.35845 0.81605 0.41795 0.0
H3473 H 0.31692 0.78296 0.39121 0.0
H3474 H 0.33995 0.77082 0.36993 0.0
H3475 H 0.37108 0.77162 0.35727 0.0
H3476 H 0.41239 0.80626 0.38239 0.0
H3477 H 0.39029 0.81568 0.40604 0.0
C3478 C 0.35454 0.80595 0.40765 0.0
C3479 C 0.33604 0.80042 0.40611 0.0
C3480 C 0.36777 0.79944 0.39508 0.0
C3481 C 0.33108 0.7875 0.39258 0.0
C3482 C 0.34422 0.78057 0.38041 0.0
C3483 C 0.37536 0.78106 0.36804 0.0
C3484 C 0.39334 0.78828 0.36801 0.0
C3485 C 0.36249 0.78676 0.38127 0.0
C3486 C 0.3986 0.80055 0.38204 0.0
C3487 C 0.38597 0.80597 0.39556 0.0
H3488 H 0.94472 0.14347 0.63232 0.0
H3489 H 0.98406 0.10913 0.60372 0.0
H3490 H 0.97576 0.08307 0.62304 0.0
H3491 H 0.9558 0.06932 0.64636 0.0
H3492 H 0.91675 0.10329 0.67559 0.0
H3493 H 0.9266 0.13021 0.65784 0.0
C3494 C 0.95161 0.13034 0.63046 0.0
C3495 C 0.96483 0.12824 0.61644 0.0
C3496 C 0.94676 0.1153 0.64164 0.0
C3497 C 0.97374 0.11116 0.61432 0.0
C3498 C 0.96899 0.09618 0.62533 0.0
C3499 C 0.94953 0.08264 0.64893 0.0
C3500 C 0.93544 0.08429 0.66207 0.0
C3501 C 0.95526 0.098 0.63875 0.0
C3502 C 0.92763 0.10168 0.66549 0.0
C3503 C 0.9332 0.11706 0.65531 0.0
H3504 H 0.62653 0.71747 0.85527 0.0
H3505 H 0.58771 0.68022 0.8806 0.0
H3506 H 0.61168 0.66938 0.90171 0.0
H3507 H 0.64438 0.66873 0.91121 0.0
H3508 H 0.68325 0.70467 0.8841 0.0
H3509 H 0.65853 0.71781 0.86552 0.0
C3510 C 0.62319 0.70716 0.86557 0.0
C3511 C 0.60534 0.69965 0.86632 0.0
C3512 C 0.63713 0.70064 0.87726 0.0
C3513 C 0.60135 0.68621 0.87969 0.0
C3514 C 0.61507 0.67997 0.89174 0.0
C3515 C 0.64736 0.6796 0.9014 0.0
C3516 C 0.66562 0.68566 0.89897 0.0
C3517 C 0.63311 0.68681 0.89039 0.0
C3518 C 0.66933 0.69966 0.88611 0.0
C3519 C 0.6552 0.7072 0.87549 0.0
H3520 H 0.32225 0.5775 0.60716 0.0
H3521 H 0.34479 0.53805 0.56885 0.0
H3522 H 0.36399 0.52498 0.59317 0.0
H3523 H 0.37661 0.52672 0.6243 0.0
H3524 H 0.35633 0.5678 0.66218 0.0
H3525 H 0.33389 0.57812 0.6392 0.0
C3526 C 0.33114 0.56584 0.60428 0.0
C3527 C 0.33215 0.55876 0.58626 0.0
C3528 C 0.34264 0.55877 0.61822 0.0
C3529 C 0.34387 0.5438 0.5826 0.0
C3530 C 0.35486 0.53632 0.59649 0.0
C3531 C 0.36707 0.53771 0.62769 0.0
C3532 C 0.36818 0.54648 0.64494 0.0
C3533 C 0.35469 0.54399 0.61422 0.0
C3534 C 0.35581 0.56084 0.64899 0.0
C3535 C 0.34301 0.56678 0.63583 0.0
H3536 H 0.82911 0.42509 0.89141 0.0
H3537 H 0.85323 0.46087 0.9323 0.0
H3538 H 0.8739 0.47381 0.90921 0.0
H3539 H 0.88707 0.47295 0.87835 0.0
H3540 H 0.86457 0.43597 0.83757 0.0
H3541 H 0.84122 0.42567 0.85958 0.0
C3542 C 0.83869 0.43593 0.89513 0.0
C3543 C 0.83975 0.44194 0.91352 0.0
C3544 C 0.85093 0.44299 0.88186 0.0
C3545 C 0.85231 0.45589 0.91825 0.0
C3546 C 0.86413 0.46331 0.90507 0.0
C3547 C 0.87693 0.46281 0.87415 0.0
C3548 C 0.87767 0.45515 0.85638 0.0
C3549 C 0.86387 0.45664 0.88697 0.0
C3550 C 0.86438 0.44202 0.85121 0.0
C3551 C 0.85104 0.43609 0.8638 0.0
H3552 H 0.27158 0.64258 0.14315 0.0
H3553 H 0.29961 0.6111 0.10119 0.0
H3554 H 0.30929 0.5886 0.1243 0.0
H3555 H 0.31184 0.57928 0.15669 0.0
H3556 H 0.28559 0.61196 0.19888 0.0
H3557 H 0.27305 0.63255 0.17537 0.0
C3558 C 0.27958 0.63065 0.13901 0.0
C3559 C 0.2849 0.62852 0.12049 0.0
C3560 C 0.28552 0.61807 0.15243 0.0
C3561 C 0.29541 0.61309 0.11538 0.0
C3562 C 0.30096 0.60023 0.12858 0.0
C3563 C 0.30317 0.59076 0.16073 0.0
C3564 C 0.29969 0.59413 0.1795 0.0
C3565 C 0.29641 0.6028 0.14719 0.0
C3566 C 0.28856 0.60915 0.18453 0.0
C3567 C 0.28138 0.62092 0.1711 0.0
H3568 H 0.14272 0.0413 0.43069 0.0
H3569 H 0.17743 0.07063 0.39234 0.0
H3570 H 0.15846 0.06002 0.36667 0.0
H3571 H 0.13057 0.04446 0.3554 0.0
H3572 H 0.09641 0.01435 0.39367 0.0
H3573 H 0.11671 0.02304 0.41901 0.0
C3574 C 0.14621 0.04522 0.41669 0.0
C3575 C 0.16131 0.0569 0.41344 0.0
C3576 C 0.13532 0.03899 0.40197 0.0
C3577 C 0.16585 0.06167 0.39522 0.0
C3578 C 0.15497 0.05567 0.38052 0.0
C3579 C 0.12769 0.03964 0.36926 0.0
C3580 C 0.11191 0.02896 0.37266 0.0
C3581 C 0.13946 0.04464 0.38378 0.0
C3582 C 0.10847 0.02261 0.39065 0.0
C3583 C 0.12002 0.02765 0.40519 0.0
H3584 H 0.2261 0.3581 0.63251 0.0
H3585 H 0.18614 0.3829 0.59605 0.0
H3586 H 0.1761 0.40342 0.6208 0.0
H3587 H 0.17679 0.41228 0.65356 0.0
H3588 H 0.21565 0.38595 0.69011 0.0
H3589 H 0.22808 0.36814 0.66449 0.0
C3590 C 0.21535 0.36815 0.62986 0.0
C3591 C 0.2068 0.36887 0.6125 0.0
C3592 C 0.20935 0.37954 0.64422 0.0
C3593 C 0.19289 0.38199 0.60934 0.0
C3594 C 0.18711 0.3937 0.62349 0.0
C3595 C 0.18815 0.40283 0.65583 0.0
C3596 C 0.1952 0.40032 0.6737 0.0
C3597 C 0.19495 0.3923 0.6411 0.0
C3598 C 0.20986 0.38798 0.6765 0.0
C3599 C 0.21699 0.3778 0.66187 0.0
H3600 H 0.66384 0.4264 0.60648 0.0
H3601 H 0.63967 0.46132 0.56486 0.0
H3602 H 0.61851 0.47423 0.58757 0.0
H3603 H 0.60499 0.47353 0.61835 0.0
H3604 H 0.62743 0.43713 0.65969 0.0
H3605 H 0.65122 0.42699 0.63809 0.0
C3606 C 0.65414 0.43706 0.60251 0.0
C3607 C 0.65325 0.44287 0.58405 0.0
C3608 C 0.6416 0.44404 0.61554 0.0
C3609 C 0.64051 0.45655 0.57899 0.0
C3610 C 0.6284 0.46392 0.59195 0.0
C3611 C 0.61523 0.46357 0.62276 0.0
C3612 C 0.61436 0.45604 0.64058 0.0
C3613 C 0.62852 0.45745 0.61014 0.0
C3614 C 0.62772 0.44308 0.64601 0.0
C3615 C 0.64132 0.43725 0.63365 0.0
H3616 H 0.27478 0.85725 0.36901 0.0
H3617 H 0.31459 0.87837 0.40782 0.0
H3618 H 0.32521 0.90074 0.38497 0.0
H3619 H 0.32511 0.91228 0.35302 0.0
H3620 H 0.28662 0.88945 0.31386 0.0
H3621 H 0.27347 0.86989 0.33783 0.0
C3622 C 0.2856 0.86692 0.3726 0.0
C3623 C 0.29393 0.86607 0.39008 0.0
C3624 C 0.29197 0.87937 0.35926 0.0
C3625 C 0.30799 0.87867 0.39443 0.0
C3626 C 0.3141 0.89144 0.38136 0.0
C3627 C 0.31365 0.90323 0.34983 0.0
C3628 C 0.30689 0.90225 0.33169 0.0
C3629 C 0.30648 0.89162 0.36358 0.0
C3630 C 0.29215 0.89036 0.3277 0.0
C3631 C 0.28462 0.87916 0.34139 0.0
H3632 H 0.6827 0.57907 0.83855 0.0
H3633 H 0.71474 0.60954 0.79878 0.0
H3634 H 0.72816 0.62804 0.82347 0.0
H3635 H 0.72864 0.63745 0.85587 0.0
H3636 H 0.69494 0.6086 0.89546 0.0
H3637 H 0.6845 0.58746 0.8714 0.0
C3638 C 0.69284 0.58956 0.83533 0.0
C3639 C 0.69767 0.59296 0.81684 0.0
C3640 C 0.70013 0.60052 0.84956 0.0
C3641 C 0.7107 0.60672 0.81288 0.0
C3642 C 0.71838 0.61731 0.82699 0.0
C3643 C 0.71926 0.62634 0.85933 0.0
C3644 C 0.71256 0.62464 0.87745 0.0
C3645 C 0.71288 0.61461 0.84532 0.0
C3646 C 0.70027 0.61026 0.88162 0.0
C3647 C 0.69426 0.59819 0.86785 0.0
H3648 H 0.61521 0.38629 0.52379 0.0
H3649 H 0.65661 0.36272 0.55941 0.0
H3650 H 0.63482 0.33899 0.56929 0.0
H3651 H 0.60316 0.32667 0.56985 0.0
H3652 H 0.56139 0.35197 0.53593 0.0
H3653 H 0.5842 0.37316 0.52321 0.0
C3654 C 0.61958 0.3758 0.53351 0.0
C3655 C 0.63749 0.37631 0.54088 0.0
C3656 C 0.60685 0.36256 0.53952 0.0
C3657 C 0.64286 0.36269 0.55358 0.0
C3658 C 0.63041 0.34913 0.55925 0.0
C3659 C 0.59916 0.33662 0.55944 0.0
C3660 C 0.58064 0.3378 0.55384 0.0
C3661 C 0.61224 0.34917 0.55262 0.0
C3662 C 0.57556 0.35089 0.54052 0.0
C3663 C 0.58858 0.36302 0.53326 0.0
H3664 H 0.42352 0.35661 0.82793 0.0
H3665 H 0.39812 0.3174 0.79116 0.0
H3666 H 0.37935 0.34179 0.77765 0.0
H3667 H 0.36803 0.37343 0.77837 0.0
H3668 H 0.3916 0.4124 0.8166 0.0
H3669 H 0.41336 0.389 0.82731 0.0
C3670 C 0.41409 0.35351 0.81675 0.0
C3671 C 0.4121 0.33526 0.8106 0.0
C3672 C 0.40293 0.36752 0.80941 0.0
C3673 C 0.39975 0.33134 0.79622 0.0
C3674 C 0.38902 0.34527 0.78849 0.0
C3675 C 0.3781 0.37692 0.78884 0.0
C3676 C 0.37812 0.39459 0.79674 0.0
C3677 C 0.39016 0.36329 0.7953 0.0
C3678 C 0.39123 0.39885 0.81036 0.0
C3679 C 0.40365 0.38547 0.81652 0.0
H3680 H 0.39488 0.16575 0.06634 0.0
H3681 H 0.43868 0.13788 0.03737 0.0
H3682 H 0.4166 0.11602 0.0245 0.0
H3683 H 0.38546 0.10317 0.02371 0.0
H3684 H 0.34189 0.12948 0.05446 0.0
H3685 H 0.3632 0.15364 0.06431 0.0
C3686 C 0.3995 0.15508 0.05695 0.0
C3687 C 0.41836 0.1534 0.05281 0.0
C3688 C 0.3868 0.14217 0.05007 0.0
C3689 C 0.42423 0.13938 0.04082 0.0
C3690 C 0.41162 0.12687 0.03348 0.0
C3691 C 0.38054 0.11432 0.03236 0.0
C3692 C 0.36212 0.11448 0.03839 0.0
C3693 C 0.39296 0.12787 0.03836 0.0
C3694 C 0.35602 0.12898 0.0497 0.0
C3695 C 0.36821 0.1428 0.05535 0.0
H3696 H 0.6033 0.17925 0.29213 0.0
H3697 H 0.57167 0.14371 0.32775 0.0
H3698 H 0.58957 0.11707 0.31736 0.0
H3699 H 0.61591 0.10443 0.29995 0.0
H3700 H 0.64684 0.14026 0.26387 0.0
H3701 H 0.6274 0.16617 0.27255 0.0
C3702 C 0.60022 0.16564 0.2975 0.0
C3703 C 0.58636 0.16346 0.31083 0.0
C3704 C 0.6105 0.15045 0.29145 0.0
C3705 C 0.58231 0.14573 0.31747 0.0
C3706 C 0.59259 0.13052 0.3116 0.0
C3707 C 0.61827 0.11786 0.29385 0.0
C3708 C 0.63295 0.12041 0.28144 0.0
C3709 C 0.60698 0.13279 0.29887 0.0
C3710 C 0.63569 0.13788 0.2735 0.0
C3711 C 0.62462 0.15276 0.2785 0.0
H3712 H 0.61492 0.67017 0.42092 0.0
H3713 H 0.5751 0.64739 0.45875 0.0
H3714 H 0.59816 0.62596 0.47054 0.0
H3715 H 0.62836 0.61169 0.46793 0.0
H3716 H 0.66783 0.63251 0.42858 0.0
H3717 H 0.64626 0.65687 0.41969 0.0
C3718 C 0.61145 0.66073 0.43198 0.0
C3719 C 0.59338 0.66026 0.43893 0.0
C3720 C 0.62463 0.64801 0.43828 0.0
C3721 C 0.58892 0.64787 0.45311 0.0
C3722 C 0.60208 0.63562 0.45984 0.0
C3723 C 0.6324 0.62168 0.45757 0.0
C3724 C 0.64963 0.62018 0.44883 0.0
C3725 C 0.61979 0.63524 0.45218 0.0
C3726 C 0.6546 0.63329 0.43546 0.0
C3727 C 0.64226 0.64719 0.43033 0.0
H3728 H 0.12006 0.39058 0.70994 0.0
H3729 H 0.15584 0.35204 0.73773 0.0
H3730 H 0.13578 0.3266 0.72872 0.0
H3731 H 0.10962 0.31505 0.71061 0.0
H3732 H 0.07334 0.35362 0.68356 0.0
H3733 H 0.09196 0.37932 0.69475 0.0
C3734 C 0.12334 0.37664 0.7142 0.0
C3735 C 0.13951 0.37318 0.72429 0.0
C3736 C 0.11173 0.36208 0.70901 0.0
C3737 C 0.14347 0.35508 0.72993 0.0
C3738 C 0.13206 0.3405 0.72471 0.0
C3739 C 0.1057 0.3291 0.70732 0.0
C3740 C 0.09029 0.33244 0.6961 0.0
C3741 C 0.11641 0.3438 0.71388 0.0
C3742 C 0.08518 0.3507 0.69217 0.0
C3743 C 0.09586 0.3654 0.69849 0.0
H3744 H 0.3762 0.8808 0.97131 0.0
H3745 H 0.33925 0.85757 0.9309 0.0
H3746 H 0.36348 0.83639 0.9208 0.0
H3747 H 0.39611 0.8267 0.92145 0.0
H3748 H 0.43322 0.85185 0.96053 0.0
H3749 H 0.40793 0.87 0.9732 0.0
C3750 C 0.37329 0.87093 0.96047 0.0
C3751 C 0.35594 0.87085 0.95182 0.0
C3752 C 0.38741 0.85925 0.95438 0.0
C3753 C 0.3525 0.85797 0.93777 0.0
C3754 C 0.36638 0.8459 0.93194 0.0
C3755 C 0.39857 0.83595 0.93293 0.0
C3756 C 0.41652 0.83801 0.93999 0.0
C3757 C 0.38403 0.84675 0.93983 0.0
C3758 C 0.41956 0.85014 0.95476 0.0
C3759 C 0.4051 0.86052 0.96202 0.0
H3760 H 0.91869 0.13748 0.17489 0.0
H3761 H 0.88952 0.17764 0.20761 0.0
H3762 H 0.86923 0.1536 0.2195 0.0
H3763 H 0.85811 0.12193 0.21851 0.0
H3764 H 0.88541 0.08198 0.18394 0.0
H3765 H 0.90825 0.10513 0.17499 0.0
C3766 C 0.90806 0.14087 0.18484 0.0
C3767 C 0.90554 0.15927 0.19035 0.0
C3768 C 0.89606 0.12706 0.19117 0.0
C3769 C 0.89161 0.16357 0.20308 0.0
C3770 C 0.88002 0.14985 0.20988 0.0
C3771 C 0.86921 0.11816 0.20923 0.0
C3772 C 0.87004 0.10026 0.20187 0.0
C3773 C 0.88187 0.13164 0.20371 0.0
C3774 C 0.88444 0.09569 0.18975 0.0
C3775 C 0.89747 0.10893 0.1846 0.0
H3776 H 0.52379 0.12461 0.88226 0.0
H3777 H 0.56557 0.16322 0.86493 0.0
H3778 H 0.5756 0.14178 0.84089 0.0
H3779 H 0.57436 0.11076 0.8269 0.0
H3780 H 0.53421 0.07158 0.84653 0.0
H3781 H 0.52152 0.09462 0.86748 0.0
C3782 C 0.53493 0.1285 0.87308 0.0
C3783 C 0.54397 0.14546 0.87544 0.0
C3784 C 0.54096 0.11593 0.85976 0.0
C3785 C 0.55843 0.1502 0.86345 0.0
C3786 C 0.56419 0.13794 0.84973 0.0
C3787 C 0.56262 0.10745 0.83554 0.0
C3788 C 0.55519 0.08957 0.83525 0.0
C3789 C 0.55583 0.12058 0.84805 0.0
C3790 C 0.54017 0.08526 0.84665 0.0
C3791 C 0.53294 0.09841 0.85862 0.0
H3792 H 0.63482 0.27153 0.13951 0.0
H3793 H 0.59595 0.30667 0.11136 0.0
H3794 H 0.62004 0.31626 0.08982 0.0
H3795 H 0.65283 0.31685 0.08089 0.0
H3796 H 0.6918 0.28311 0.11058 0.0
H3797 H 0.66694 0.27069 0.12951 0.0
C3798 C 0.6315 0.28109 0.12851 0.0
C3799 C 0.6136 0.28843 0.12713 0.0
C3800 C 0.6455 0.28691 0.11652 0.0
C3801 C 0.60961 0.30085 0.1128 0.0
C3802 C 0.62341 0.30638 0.1005 0.0
C3803 C 0.65582 0.30655 0.0913 0.0
C3804 C 0.67415 0.30097 0.09437 0.0
C3805 C 0.6415 0.29982 0.1025 0.0
C3806 C 0.67783 0.28773 0.10802 0.0
C3807 C 0.66363 0.28063 0.11887 0.0
H3808 H 0.43613 0.34492 0.36639 0.0
H3809 H 0.48135 0.37322 0.39285 0.0
H3810 H 0.47759 0.3992 0.37212 0.0
H3811 H 0.4594 0.41543 0.34895 0.0
H3812 H 0.41436 0.38763 0.32196 0.0
H3813 H 0.42032 0.35987 0.34017 0.0
C3814 C 0.44534 0.35664 0.36742 0.0
C3815 C 0.45877 0.3572 0.3814 0.0
C3816 C 0.44309 0.37172 0.35543 0.0
C3817 C 0.47071 0.37245 0.3824 0.0
C3818 C 0.46859 0.38739 0.37055 0.0
C3819 C 0.45106 0.4032 0.34686 0.0
C3820 C 0.43633 0.40363 0.33435 0.0
C3821 C 0.45448 0.3874 0.35741 0.0
C3822 C 0.4258 0.38762 0.33155 0.0
C3823 C 0.42912 0.37179 0.34205 0.0
H3824 H 0.32441 0.20822 0.60424 0.0
H3825 H 0.35795 0.16927 0.57441 0.0
H3826 H 0.38467 0.17755 0.59328 0.0
H3827 H 0.39761 0.19385 0.62019 0.0
H3828 H 0.36363 0.23295 0.64954 0.0
H3829 H 0.33805 0.22667 0.62883 0.0
C3830 C 0.33761 0.20167 0.60174 0.0
C3831 C 0.33916 0.188 0.58813 0.0
C3832 C 0.35282 0.20643 0.61264 0.0
C3833 C 0.35641 0.17983 0.58483 0.0
C3834 C 0.37166 0.18449 0.59569 0.0
C3835 C 0.38468 0.20115 0.62192 0.0
C3836 C 0.38251 0.21367 0.63657 0.0
C3837 C 0.3699 0.19745 0.60993 0.0
C3838 C 0.3657 0.22314 0.63849 0.0
C3839 C 0.351 0.21954 0.62666 0.0
H3840 H 0.51963 0.87948 0.11278 0.0
H3841 H 0.55767 0.83878 0.13361 0.0
H3842 H 0.57056 0.86152 0.15492 0.0
H3843 H 0.57253 0.89367 0.16586 0.0
H3844 H 0.5357 0.93446 0.14312 0.0
H3845 H 0.52076 0.91093 0.12438 0.0
C3846 C 0.53058 0.87547 0.12213 0.0
C3847 C 0.5377 0.85748 0.12158 0.0
C3848 C 0.53823 0.88869 0.13392 0.0
C3849 C 0.55198 0.85257 0.13373 0.0
C3850 C 0.55937 0.86557 0.14589 0.0
C3851 C 0.56109 0.89731 0.15696 0.0
C3852 C 0.55527 0.91575 0.15579 0.0
C3853 C 0.55284 0.88378 0.14584 0.0
C3854 C 0.54053 0.92037 0.14412 0.0
C3855 C 0.53196 0.90693 0.13342 0.0
H3856 H 0.84469 0.32067 0.41497 0.0
H3857 H 0.80319 0.28484 0.39199 0.0
H3858 H 0.82656 0.26907 0.37369 0.0
H3859 H 0.85806 0.26725 0.36219 0.0
H3860 H 0.89947 0.30445 0.38311 0.0
H3861 H 0.87693 0.31779 0.40435 0.0
C3862 C 0.84087 0.30922 0.40617 0.0
C3863 C 0.82228 0.30393 0.40476 0.0
C3864 C 0.85432 0.30056 0.39522 0.0
C3865 C 0.81742 0.28922 0.39318 0.0
C3866 C 0.83076 0.2802 0.38271 0.0
C3867 C 0.86227 0.2781 0.37157 0.0
C3868 C 0.88041 0.28488 0.37101 0.0
C3869 C 0.84916 0.28603 0.38331 0.0
C3870 C 0.88557 0.29902 0.3832 0.0
C3871 C 0.87268 0.30668 0.39533 0.0
H3872 H 0.46664 0.61912 0.60414 0.0
H3873 H 0.43657 0.66391 0.62915 0.0
H3874 H 0.42562 0.64328 0.65342 0.0
H3875 H 0.42276 0.61197 0.66618 0.0
H3876 H 0.45129 0.567 0.63973 0.0
H3877 H 0.46475 0.58826 0.61746 0.0
C3878 C 0.45789 0.62443 0.61504 0.0
C3879 C 0.45239 0.64298 0.61483 0.0
C3880 C 0.45126 0.61242 0.62863 0.0
C3881 C 0.44092 0.64963 0.62896 0.0
C3882 C 0.43464 0.63786 0.64283 0.0
C3883 C 0.43211 0.60691 0.65567 0.0
C3884 C 0.43597 0.58798 0.65453 0.0
C3885 C 0.43944 0.61914 0.6426 0.0
C3886 C 0.44798 0.58152 0.64077 0.0
C3887 C 0.4557 0.59365 0.62805 0.0
H3888 H 0.12636 0.2207 0.86626 0.0
H3889 H 0.08575 0.18247 0.8869 0.0
H3890 H 0.10812 0.1706 0.90922 0.0
H3891 H 0.14011 0.16935 0.92095 0.0
H3892 H 0.18089 0.20613 0.89818 0.0
H3893 H 0.15751 0.2204 0.87867 0.0
C3894 C 0.12226 0.20994 0.8758 0.0
C3895 C 0.10441 0.20246 0.87488 0.0
C3896 C 0.1353 0.20284 0.88813 0.0
C3897 C 0.09942 0.18845 0.88729 0.0
C3898 C 0.11222 0.18163 0.90002 0.0
C3899 C 0.14376 0.18067 0.9119 0.0
C3900 C 0.16216 0.18667 0.91093 0.0
C3901 C 0.13033 0.18845 0.90029 0.0
C3902 C 0.16682 0.2012 0.89903 0.0
C3903 C 0.15347 0.20937 0.8879 0.0
H3904 H 0.8672 0.05433 0.64911 0.0
H3905 H 0.8932 0.01093 0.61775 0.0
H3906 H 0.87467 0.01882 0.59097 0.0
H3907 H 0.85328 0.0398 0.5755 0.0
H3908 H 0.82667 0.0829 0.60657 0.0
H3909 H 0.84311 0.07328 0.6344 0.0
C3910 C 0.8686 0.04641 0.63651 0.0
C3911 C 0.88177 0.03222 0.63543 0.0
C3912 C 0.85792 0.05107 0.62102 0.0
C3913 C 0.8833 0.02202 0.619 0.0
C3914 C 0.87274 0.02656 0.6036 0.0
C3915 C 0.85096 0.04699 0.5884 0.0
C3916 C 0.83899 0.06218 0.58894 0.0
C3917 C 0.86039 0.04136 0.60431 0.0
C3918 C 0.83587 0.07118 0.60581 0.0
C3919 C 0.84532 0.06573 0.6217 0.0
H3920 H 0.3515 0.94943 0.92051 0.0
H3921 H 0.32057 0.91367 0.88451 0.0
H3922 H 0.33937 0.92347 0.85827 0.0
H3923 H 0.36623 0.94045 0.84616 0.0
H3924 H 0.39635 0.97678 0.88243 0.0
H3925 H 0.37612 0.96863 0.90786 0.0
C3926 C 0.34879 0.94389 0.90688 0.0
C3927 C 0.33487 0.93071 0.90446 0.0
C3928 C 0.35954 0.94964 0.89191 0.0
C3929 C 0.33127 0.92385 0.8867 0.0
C3930 C 0.34205 0.92938 0.87172 0.0
C3931 C 0.36822 0.94673 0.85957 0.0
C3932 C 0.38293 0.95903 0.8624 0.0
C3933 C 0.35647 0.94201 0.87424 0.0
C3934 C 0.38521 0.9672 0.87984 0.0
C3935 C 0.37368 0.96251 0.89445 0.0
H3936 H 0.82764 0.0735 0.13403 0.0
H3937 H 0.78562 0.09201 0.17179 0.0
H3938 H 0.77293 0.11231 0.14819 0.0
H3939 H 0.77549 0.12684 0.11813 0.0
H3940 H 0.81878 0.11052 0.08075 0.0
H3941 H 0.82919 0.0872 0.10281 0.0
C3942 C 0.81552 0.08176 0.1369 0.0
C3943 C 0.80756 0.08135 0.15456 0.0
C3944 C 0.80865 0.09389 0.12343 0.0
C3945 C 0.79201 0.09224 0.15829 0.0
C3946 C 0.78477 0.10384 0.14483 0.0
C3947 C 0.78708 0.11806 0.11465 0.0
C3948 C 0.79641 0.12051 0.09785 0.0
C3949 C 0.79325 0.10511 0.12754 0.0
C3950 C 0.8114 0.10898 0.09363 0.0
C3951 C 0.81738 0.09567 0.10625 0.0
H3952 H 0.63375 0.55369 0.34258 0.0
H3953 H 0.60301 0.51671 0.37767 0.0
H3954 H 0.62412 0.5227 0.40298 0.0
H3955 H 0.64976 0.54019 0.41598 0.0
H3956 H 0.68145 0.57642 0.38117 0.0
H3957 H 0.66168 0.56881 0.35489 0.0
C3958 C 0.6318 0.54682 0.35572 0.0
C3959 C 0.6167 0.53495 0.35826 0.0
C3960 C 0.64411 0.55022 0.37029 0.0
C3961 C 0.61448 0.52597 0.3753 0.0
C3962 C 0.62651 0.52941 0.38985 0.0
C3963 C 0.65244 0.54627 0.40259 0.0
C3964 C 0.66685 0.55897 0.40052 0.0
C3965 C 0.64113 0.54178 0.38761 0.0
C3966 C 0.6704 0.56657 0.38306 0.0
C3967 C 0.65905 0.56231 0.36807 0.0
H3968 H 0.69997 0.8949 0.67067 0.0
H3969 H 0.65865 0.9241 0.63948 0.0
H3970 H 0.66602 0.90583 0.61216 0.0
H3971 H 0.68239 0.87963 0.59798 0.0
H3972 H 0.72424 0.85117 0.62932 0.0
H3973 H 0.71859 0.87118 0.65559 0.0
C3974 C 0.69272 0.89738 0.65784 0.0
C3975 C 0.67866 0.91064 0.65714 0.0
C3976 C 0.69705 0.88689 0.6422 0.0
C3977 C 0.66954 0.91393 0.64036 0.0
C3978 C 0.67368 0.90343 0.62476 0.0
C3979 C 0.69042 0.87797 0.61048 0.0
C3980 C 0.70354 0.86376 0.61172 0.0
C3981 C 0.68714 0.88958 0.62563 0.0
C3982 C 0.71398 0.86192 0.62797 0.0
C3983 C 0.71073 0.87332 0.64307 0.0
H3984 H 0.13725 0.94958 0.64343 0.0
H3985 H 0.10454 0.98481 0.60836 0.0
H3986 H 0.12385 0.977 0.58206 0.0
H3987 H 0.14823 0.95804 0.56836 0.0
H3988 H 0.18183 0.92363 0.60327 0.0
H3989 H 0.16415 0.9334 0.63027 0.0
C3990 C 0.13451 0.95572 0.63008 0.0
C3991 C 0.11933 0.96759 0.62786 0.0
C3992 C 0.14577 0.95125 0.61494 0.0
C3993 C 0.11609 0.9756 0.6105 0.0
C3994 C 0.12708 0.97109 0.59539 0.0
C3995 C 0.15181 0.95287 0.58192 0.0
C3996 C 0.16615 0.94 0.58381 0.0
C3997 C 0.14168 0.9586 0.59736 0.0
C3998 C 0.17084 0.93358 0.60147 0.0
C3999 C 0.16067 0.93907 0.6169 0.0
H4000 H 0.76775 0.35835 0.35858 0.0
H4001 H 0.80047 0.38518 0.40036 0.0
H4002 H 0.81294 0.40631 0.37723 0.0
H4003 H 0.81652 0.41531 0.34469 0.0
H4004 H 0.78559 0.3866 0.30282 0.0
H4005 H 0.77032 0.36813 0.32645 0.0
C4006 C 0.7774 0.369 0.3627 0.0
C4007 C 0.78319 0.37019 0.38115 0.0
C4008 C 0.78492 0.38067 0.34927 0.0
C4009 C 0.79584 0.38394 0.38622 0.0
C4010 C 0.80299 0.396 0.373 0.0
C4011 C 0.80622 0.4052 0.3408 0.0
C4012 C 0.80219 0.40228 0.32207 0.0
C4013 C 0.79793 0.39423 0.35442 0.0
C4014 C 0.78899 0.38901 0.31716 0.0
C4015 C 0.78026 0.37845 0.33065 0.0
H4016 H 0.17311 0.0817 0.848 0.0
H4017 H 0.21467 0.1055 0.81275 0.0
H4018 H 0.2278 0.12198 0.83893 0.0
H4019 H 0.22572 0.13188 0.87089 0.0
H4020 H 0.18285 0.11028 0.90601 0.0
H4021 H 0.17214 0.09046 0.8809 0.0
C4022 C 0.18521 0.09028 0.84615 0.0
C4023 C 0.19287 0.09248 0.82848 0.0
C4024 C 0.19237 0.10017 0.8612 0.0
C4025 C 0.20845 0.10373 0.8262 0.0
C4026 C 0.21596 0.11314 0.84116 0.0
C4027 C 0.21419 0.12265 0.87321 0.0
C4028 C 0.20504 0.12264 0.8903 0.0
C4029 C 0.20777 0.11181 0.8586 0.0
C4030 C 0.19011 0.1106 0.89298 0.0
C4031 C 0.18394 0.09932 0.8786 0.0
H4032 H 0.59663 0.82295 0.06891 0.0
H4033 H 0.55556 0.85241 0.03757 0.0
H4034 H 0.57941 0.87214 0.02441 0.0
H4035 H 0.6112 0.88302 0.0243 0.0
H4036 H 0.65216 0.85525 0.05733 0.0
H4037 H 0.62912 0.83274 0.06721 0.0
C4038 C 0.59299 0.83347 0.05893 0.0
C4039 C 0.57439 0.83629 0.05424 0.0
C4040 C 0.60671 0.84517 0.05188 0.0
C4041 C 0.56979 0.85007 0.04146 0.0
C4042 C 0.5834 0.86136 0.03396 0.0
C4043 C 0.6152 0.8719 0.03345 0.0
C4044 C 0.63336 0.8709 0.04016 0.0
C4045 C 0.60181 0.85936 0.03946 0.0
C4046 C 0.63825 0.8564 0.05204 0.0
C4047 C 0.62507 0.84354 0.05772 0.0
H4048 H 0.384 0.89355 0.29939 0.0
H4049 H 0.35066 0.85791 0.26537 0.0
H4050 H 0.37109 0.83211 0.27196 0.0
H4051 H 0.39687 0.81905 0.28936 0.0
H4052 H 0.43082 0.8545 0.32286 0.0
H4053 H 0.41187 0.88103 0.3143 0.0
C4054 C 0.38132 0.88017 0.2933 0.0
C4055 C 0.36571 0.87762 0.2821 0.0
C4056 C 0.39319 0.86535 0.29708 0.0
C4057 C 0.36254 0.86026 0.27409 0.0
C4058 C 0.37419 0.84546 0.27789 0.0
C4059 C 0.40024 0.83262 0.29462 0.0
C4060 C 0.41506 0.83479 0.30687 0.0
C4061 C 0.38931 0.84776 0.28966 0.0
C4062 C 0.41945 0.85249 0.3134 0.0
C4063 C 0.40856 0.86764 0.3086 0.0
H4064 H 0.37367 0.61421 0.52114 0.0
H4065 H 0.33543 0.63586 0.56124 0.0
H4066 H 0.3577 0.65963 0.56984 0.0
H4067 H 0.38926 0.67229 0.56805 0.0
H4068 H 0.42784 0.64892 0.52935 0.0
H4069 H 0.40413 0.62799 0.51792 0.0
C4070 C 0.37007 0.62424 0.53162 0.0
C4071 C 0.35296 0.62314 0.54064 0.0
C4072 C 0.38306 0.63758 0.53677 0.0
C4073 C 0.34856 0.63631 0.55416 0.0
C4074 C 0.36129 0.64991 0.55909 0.0
C4075 C 0.39229 0.66288 0.55685 0.0
C4076 C 0.41022 0.66209 0.54954 0.0
C4077 C 0.37875 0.65042 0.55078 0.0
C4078 C 0.41412 0.64968 0.53521 0.0
C4079 C 0.40061 0.63769 0.52872 0.0
H4080 H 0.59969 0.67333 0.78635 0.0
H4081 H 0.57046 0.63446 0.8205 0.0
H4082 H 0.59047 0.60957 0.8096 0.0
H4083 H 0.61786 0.59944 0.79205 0.0
H4084 H 0.64621 0.63861 0.75736 0.0
H4085 H 0.62492 0.66274 0.76674 0.0
C4086 C 0.59758 0.65937 0.79127 0.0
C4087 C 0.58378 0.65575 0.80433 0.0
C4088 C 0.60907 0.6452 0.78494 0.0
C4089 C 0.58101 0.63758 0.81041 0.0
C4090 C 0.59252 0.62337 0.80427 0.0
C4091 C 0.61927 0.61322 0.78646 0.0
C4092 C 0.63373 0.61724 0.77418 0.0
C4093 C 0.60685 0.6271 0.79182 0.0
C4094 C 0.63524 0.63512 0.76686 0.0
C4095 C 0.62309 0.64897 0.77225 0.0
H4096 H 0.60744 0.16767 0.9305 0.0
H4097 H 0.56409 0.1406 0.96087 0.0
H4098 H 0.58615 0.11826 0.97295 0.0
H4099 H 0.617 0.10483 0.97267 0.0
H4100 H 0.66006 0.13028 0.94049 0.0
H4101 H 0.63893 0.15493 0.93144 0.0
C4102 C 0.60293 0.15705 0.94001 0.0
C4103 C 0.5842 0.15572 0.94478 0.0
C4104 C 0.61559 0.14389 0.94644 0.0
C4105 C 0.57844 0.1418 0.95693 0.0
C4106 C 0.59103 0.12903 0.96383 0.0
C4107 C 0.62186 0.1159 0.96388 0.0
C4108 C 0.64005 0.11568 0.95721 0.0
C4109 C 0.60954 0.12969 0.95833 0.0
C4110 C 0.64608 0.13007 0.94574 0.0
C4111 C 0.63401 0.14416 0.94054 0.0
H4112 H 0.11705 0.90548 0.19457 0.0
H4113 H 0.14826 0.87317 0.23363 0.0
H4114 H 0.12833 0.84682 0.2282 0.0
H4115 H 0.10374 0.83204 0.21051 0.0
H4116 H 0.07193 0.86416 0.17189 0.0
H4117 H 0.09024 0.89145 0.17915 0.0
C4118 C 0.11934 0.89274 0.20205 0.0
C4119 C 0.13428 0.89128 0.2143 0.0
C4120 C 0.10779 0.87753 0.19888 0.0
C4121 C 0.13694 0.87471 0.22402 0.0
C4122 C 0.12558 0.85956 0.2209 0.0
C4123 C 0.1007 0.84506 0.20382 0.0
C4124 C 0.08667 0.84603 0.19055 0.0
C4125 C 0.11124 0.86068 0.20806 0.0
C4126 C 0.0827 0.86305 0.18216 0.0
C4127 C 0.09321 0.87865 0.18624 0.0
H4128 H 0.34285 0.36751 0.43961 0.0
H4129 H 0.37508 0.39506 0.48137 0.0
H4130 H 0.40119 0.37511 0.47482 0.0
H4131 H 0.41577 0.35134 0.45574 0.0
H4132 H 0.38353 0.32285 0.41476 0.0
H4133 H 0.35661 0.34154 0.42255 0.0
C4134 C 0.3555 0.36899 0.44743 0.0
C4135 C 0.357 0.38291 0.46083 0.0
C4136 C 0.37057 0.35738 0.44364 0.0
C4137 C 0.37349 0.38452 0.47093 0.0
C4138 C 0.38851 0.37315 0.46715 0.0
C4139 C 0.40281 0.34916 0.44861 0.0
C4140 C 0.40169 0.3359 0.43458 0.0
C4141 C 0.38735 0.35981 0.45328 0.0
C4142 C 0.38475 0.33301 0.42562 0.0
C4143 C 0.36936 0.34373 0.43002 0.0
H4144 H 0.86157 0.62768 0.71938 0.0
H4145 H 0.88762 0.59193 0.67961 0.0
H4146 H 0.90775 0.61722 0.66993 0.0
H4147 H 0.91603 0.65015 0.67102 0.0
H4148 H 0.88807 0.68608 0.70929 0.0
H4149 H 0.87064 0.65997 0.72139 0.0
C4150 C 0.87182 0.62528 0.70876 0.0
C4151 C 0.87306 0.60792 0.70021 0.0
C4152 C 0.8829 0.63997 0.70291 0.0
C4153 C 0.88635 0.60516 0.6864 0.0
C4154 C 0.89783 0.61963 0.68083 0.0
C4155 C 0.90631 0.6522 0.68219 0.0
C4156 C 0.90331 0.67002 0.68924 0.0
C4157 C 0.89595 0.6372 0.68873 0.0
C4158 C 0.89054 0.67251 0.70357 0.0
C4159 C 0.88058 0.6576 0.71049 0.0
H4160 H 0.52905 0.62256 0.3853 0.0
H4161 H 0.56758 0.6609 0.36115 0.0
H4162 H 0.57616 0.63792 0.33803 0.0
H4163 H 0.57466 0.60606 0.32649 0.0
H4164 H 0.53768 0.56731 0.35232 0.0
H4165 H 0.52643 0.59142 0.37291 0.0
C4166 C 0.53915 0.62602 0.37484 0.0
C4167 C 0.54772 0.6434 0.375 0.0
C4168 C 0.54437 0.61262 0.36196 0.0
C4169 C 0.56084 0.64759 0.36138 0.0
C4170 C 0.56577 0.63445 0.34818 0.0
C4171 C 0.56393 0.60299 0.33644 0.0
C4172 C 0.55703 0.58494 0.33794 0.0
C4173 C 0.55791 0.61679 0.3486 0.0
C4174 C 0.54327 0.58109 0.35099 0.0
C4175 C 0.53684 0.59485 0.36277 0.0
H4176 H 0.63092 0.82361 0.58108 0.0
H4177 H 0.66977 0.78653 0.60666 0.0
H4178 H 0.64577 0.77542 0.62746 0.0
H4179 H 0.61462 0.77786 0.63982 0.0
H4180 H 0.57608 0.81635 0.61591 0.0
H4181 H 0.59908 0.8252 0.59286 0.0
C4182 C 0.63405 0.81292 0.59104 0.0
C4183 C 0.6521 0.80591 0.59236 0.0
C4184 C 0.62029 0.80694 0.6033 0.0
C4185 C 0.65601 0.7922 0.60545 0.0
C4186 C 0.6423 0.78585 0.61734 0.0
C4187 C 0.61112 0.78804 0.62945 0.0
C4188 C 0.59364 0.79646 0.62962 0.0
C4189 C 0.62452 0.79337 0.61661 0.0
C4190 C 0.58943 0.80968 0.61611 0.0
C4191 C 0.60259 0.81477 0.60296 0.0
H4192 H 0.45819 0.92362 0.85217 0.0
H4193 H 0.42041 0.8896 0.82139 0.0
H4194 H 0.42969 0.86267 0.83939 0.0
H4195 H 0.44669 0.84943 0.86567 0.0
H4196 H 0.48487 0.88371 0.89583 0.0
H4197 H 0.47738 0.90979 0.87617 0.0
C4198 C 0.45212 0.91028 0.84929 0.0
C4199 C 0.4385 0.90863 0.83565 0.0
C4200 C 0.45752 0.89489 0.85964 0.0
C4201 C 0.43093 0.89122 0.83186 0.0
C4202 C 0.43616 0.87583 0.8422 0.0
C4203 C 0.45351 0.86255 0.8678 0.0
C4204 C 0.46615 0.86463 0.88235 0.0
C4205 C 0.44916 0.87759 0.8564 0.0
C4206 C 0.47502 0.88169 0.8848 0.0
C4207 C 0.47071 0.89668 0.87359 0.0
H4208 H 0.35192 0.66903 0.08412 0.0
H4209 H 0.31619 0.70888 0.11003 0.0
H4210 H 0.34184 0.72015 0.1286 0.0
H4211 H 0.37335 0.71668 0.1396 0.0
H4212 H 0.40883 0.67537 0.11568 0.0
H4213 H 0.38442 0.66681 0.09404 0.0
C4214 C 0.34988 0.68039 0.09361 0.0
C4215 C 0.33221 0.68809 0.09578 0.0
C4216 C 0.36458 0.68643 0.10469 0.0
C4217 C 0.32965 0.70267 0.10823 0.0
C4218 C 0.3443 0.70911 0.11886 0.0
C4219 C 0.37589 0.70596 0.1295 0.0
C4220 C 0.39287 0.6966 0.12935 0.0
C4221 C 0.36167 0.70077 0.11753 0.0
C4222 C 0.39587 0.68275 0.11615 0.0
C4223 C 0.38189 0.67781 0.10381 0.0
H4224 H 0.51939 0.37522 0.61111 0.0
H4225 H 0.55865 0.33632 0.63307 0.0
H4226 H 0.56828 0.35885 0.65622 0.0
H4227 H 0.5674 0.39063 0.66842 0.0
H4228 H 0.52963 0.42986 0.64458 0.0
H4229 H 0.51743 0.40615 0.62412 0.0
C4230 C 0.52988 0.37154 0.62111 0.0
C4231 C 0.53832 0.35412 0.62031 0.0
C4232 C 0.53568 0.3847 0.63401 0.0
C4233 C 0.55197 0.34966 0.63332 0.0
C4234 C 0.55751 0.36255 0.64655 0.0
C4235 C 0.55628 0.39384 0.65896 0.0
C4236 C 0.54942 0.41193 0.65796 0.0
C4237 C 0.54973 0.38025 0.64678 0.0
C4238 C 0.53519 0.41603 0.6455 0.0
C4239 C 0.52822 0.4025 0.63379 0.0
H4240 H 0.85531 0.82426 0.91485 0.0
H4241 H 0.81585 0.78775 0.88942 0.0
H4242 H 0.8403 0.7737 0.87112 0.0
H4243 H 0.87222 0.7732 0.86085 0.0
H4244 H 0.91161 0.81115 0.88417 0.0
H4245 H 0.88788 0.8231 0.905 0.0
C4246 C 0.85214 0.81309 0.90544 0.0
C4247 C 0.83382 0.80707 0.90342 0.0
C4248 C 0.86622 0.80538 0.89459 0.0
C4249 C 0.82984 0.79272 0.89108 0.0
C4250 C 0.8438 0.78465 0.88065 0.0
C4251 C 0.87575 0.7839 0.87066 0.0
C4252 C 0.89367 0.79125 0.87098 0.0
C4253 C 0.86196 0.79108 0.88209 0.0
C4254 C 0.89791 0.80526 0.88366 0.0
C4255 C 0.88434 0.81213 0.89552 0.0
H4256 H 0.4203 0.10672 0.16975 0.0
H4257 H 0.4605 0.06663 0.15212 0.0
H4258 H 0.47494 0.08944 0.1321 0.0
H4259 H 0.47441 0.11958 0.11755 0.0
H4260 H 0.43287 0.15929 0.13287 0.0
H4261 H 0.42076 0.13791 0.15599 0.0
C4262 C 0.4324 0.10315 0.16172 0.0
C4263 C 0.43933 0.08509 0.16228 0.0
C4264 C 0.44027 0.11619 0.14975 0.0
C4265 C 0.45487 0.08046 0.15173 0.0
C4266 C 0.46312 0.09347 0.14031 0.0
C4267 C 0.46286 0.12372 0.1261 0.0
C4268 C 0.4545 0.14097 0.12343 0.0
C4269 C 0.45567 0.11121 0.13888 0.0
C4270 C 0.4395 0.14604 0.1346 0.0
C4271 C 0.43256 0.13381 0.14779 0.0
H4272 H 0.13078 0.67461 0.42181 0.0
H4273 H 0.17148 0.71007 0.39693 0.0
H4274 H 0.14812 0.72297 0.37645 0.0
H4275 H 0.11688 0.72249 0.36403 0.0
H4276 H 0.07647 0.68535 0.38689 0.0
H4277 H 0.09889 0.67488 0.40984 0.0
C4278 C 0.13442 0.68535 0.41207 0.0
C4279 C 0.15279 0.6914 0.41085 0.0
C4280 C 0.12101 0.6923 0.39992 0.0
C4281 C 0.15743 0.70514 0.39804 0.0
C4282 C 0.14409 0.71252 0.38633 0.0
C4283 C 0.11285 0.71229 0.37419 0.0
C4284 C 0.09502 0.70473 0.37376 0.0
C4285 C 0.12594 0.70595 0.38692 0.0
C4286 C 0.09013 0.69137 0.38691 0.0
C4287 C 0.10295 0.68536 0.40001 0.0
H4288 H 0.88364 0.52992 0.12082 0.0
H4289 H 0.86208 0.57266 0.1561 0.0
H4290 H 0.84349 0.5845 0.13054 0.0
H4291 H 0.83577 0.58441 0.0973 0.0
H4292 H 0.85946 0.54271 0.06212 0.0
H4293 H 0.87481 0.52878 0.08853 0.0
C4294 C 0.87468 0.54168 0.12307 0.0
C4295 C 0.87434 0.55044 0.14036 0.0
C4296 C 0.86457 0.54873 0.10822 0.0
C4297 C 0.86264 0.56566 0.14294 0.0
C4298 C 0.85208 0.5725 0.12829 0.0
C4299 C 0.84412 0.57215 0.0955 0.0
C4300 C 0.8466 0.56469 0.07776 0.0
C4301 C 0.8533 0.56442 0.11074 0.0
C4302 C 0.85751 0.54884 0.07559 0.0
C4303 C 0.86626 0.54084 0.09069 0.0
H4304 H 0.3565 0.45302 0.42492 0.0
H4305 H 0.31941 0.42453 0.38816 0.0
H4306 H 0.33933 0.43181 0.36206 0.0
H4307 H 0.36843 0.44432 0.35006 0.0
H4308 H 0.40525 0.47303 0.38695 0.0
H4309 H 0.38422 0.46766 0.41254 0.0
C4310 C 0.35268 0.44854 0.41118 0.0
C4311 C 0.33661 0.4381 0.40853 0.0
C4312 C 0.3642 0.45271 0.39624 0.0
C4313 C 0.33175 0.43257 0.3906 0.0
C4314 C 0.34316 0.43665 0.37566 0.0
C4315 C 0.37178 0.44952 0.36367 0.0
C4316 C 0.38847 0.45888 0.36661 0.0
C4317 C 0.35961 0.4464 0.37838 0.0
C4318 C 0.39252 0.46571 0.38429 0.0
C4319 C 0.38053 0.46262 0.39897 0.0
H4320 H 0.79528 0.60235 0.67132 0.0
H4321 H 0.82792 0.56969 0.63386 0.0
H4322 H 0.81727 0.58832 0.60794 0.0
H4323 H 0.80049 0.61539 0.59628 0.0
H4324 H 0.76719 0.6474 0.63379 0.0
H4325 H 0.77617 0.62744 0.65923 0.0
C4326 C 0.79993 0.59922 0.65746 0.0
C4327 C 0.81251 0.58482 0.65454 0.0
C4328 C 0.79369 0.60992 0.64261 0.0
C4329 C 0.81823 0.58074 0.63648 0.0
C4330 C 0.81221 0.59143 0.62165 0.0
C4331 C 0.79506 0.61788 0.60999 0.0
C4332 C 0.78335 0.63297 0.61314 0.0
C4333 C 0.80022 0.60628 0.6246 0.0
C4334 C 0.77626 0.63589 0.63095 0.0
C4335 C 0.78144 0.62453 0.64556 0.0
H4336 H 0.66829 0.07163 0.89015 0.0
H4337 H 0.6451 0.03137 0.92721 0.0
H4338 H 0.62476 0.02025 0.90287 0.0
H4339 H 0.61147 0.024 0.8723 0.0
H4340 H 0.63268 0.06571 0.83559 0.0
H4341 H 0.656 0.07414 0.85846 0.0
C4342 C 0.65901 0.0602 0.89272 0.0
C4343 C 0.65811 0.05233 0.9104 0.0
C4344 C 0.64689 0.05428 0.87881 0.0
C4345 C 0.64591 0.03769 0.91371 0.0
C4346 C 0.63428 0.03135 0.89982 0.0
C4347 C 0.62133 0.03478 0.86915 0.0
C4348 C 0.62024 0.04429 0.85231 0.0
C4349 C 0.6343 0.03987 0.8825 0.0
C4350 C 0.63315 0.05823 0.8485 0.0
C4351 C 0.64646 0.06308 0.86158 0.0
H4352 H 0.70895 0.39424 0.17706 0.0
H4353 H 0.6694 0.42115 0.14179 0.0
H4354 H 0.67992 0.4027 0.11558 0.0
H4355 H 0.6987 0.37706 0.10343 0.0
H4356 H 0.73858 0.35086 0.13905 0.0
H4357 H 0.72965 0.37098 0.1643 0.0
C4358 C 0.70274 0.39618 0.16359 0.0
C4359 C 0.68829 0.40884 0.16139 0.0
C4360 C 0.70885 0.38558 0.14866 0.0
C4361 C 0.68056 0.41145 0.14382 0.0
C4362 C 0.6865 0.40084 0.12886 0.0
C4363 C 0.70555 0.37589 0.11666 0.0
C4364 C 0.71913 0.36231 0.11936 0.0
C4365 C 0.70038 0.38757 0.13122 0.0
C4366 C 0.72802 0.36111 0.13655 0.0
C4367 C 0.7229 0.37259 0.15106 0.0
H4368 H 0.10526 0.48 0.1066 0.0
H4369 H 0.12856 0.44608 0.14955 0.0
H4370 H 0.15111 0.43372 0.12771 0.0
H4371 H 0.16263 0.43091 0.09586 0.0
H4372 H 0.1375 0.46321 0.05272 0.0
H4373 H 0.11732 0.47799 0.07524 0.0
C4374 C 0.11541 0.47007 0.11128 0.0
C4375 C 0.11522 0.46397 0.12968 0.0
C4376 C 0.12795 0.46269 0.09857 0.0
C4377 C 0.12837 0.45097 0.13544 0.0
C4378 C 0.14125 0.44389 0.12296 0.0
C4379 C 0.15293 0.4414 0.09147 0.0
C4380 C 0.15155 0.446 0.07268 0.0
C4381 C 0.14096 0.44942 0.10442 0.0
C4382 C 0.13875 0.45941 0.0671 0.0
C4383 C 0.12721 0.46784 0.07996 0.0
H4384 H 0.76954 0.8546 0.86186 0.0
H4385 H 0.80549 0.88407 0.89894 0.0
H4386 H 0.81533 0.90409 0.87364 0.0
H4387 H 0.81594 0.91115 0.84047 0.0
H4388 H 0.78187 0.87977 0.80318 0.0
H4389 H 0.76898 0.86262 0.82913 0.0
C4390 C 0.77929 0.8656 0.86452 0.0
C4391 C 0.78677 0.86783 0.88228 0.0
C4392 C 0.78534 0.8766 0.84981 0.0
C4393 C 0.79954 0.88205 0.8854 0.0
C4394 C 0.80521 0.89345 0.87092 0.0
C4395 C 0.80547 0.90076 0.83806 0.0
C4396 C 0.79988 0.89671 0.81992 0.0
C4397 C 0.79854 0.89055 0.85299 0.0
C4398 C 0.78646 0.88308 0.81699 0.0
C4399 C 0.7791 0.87326 0.83182 0.0
H4400 H 0.21564 0.63449 0.37452 0.0
H4401 H 0.17582 0.61321 0.41324 0.0
H4402 H 0.16587 0.5903 0.39058 0.0
H4403 H 0.16643 0.57843 0.35865 0.0
H4404 H 0.20461 0.60185 0.31957 0.0
H4405 H 0.21739 0.62168 0.34354 0.0
C4406 C 0.20497 0.62467 0.37815 0.0
C4407 C 0.19643 0.62563 0.39553 0.0
C4408 C 0.19895 0.61198 0.36491 0.0
C4409 C 0.18257 0.61283 0.39993 0.0
C4410 C 0.17684 0.59975 0.38696 0.0
C4411 C 0.17777 0.58765 0.35553 0.0
C4412 C 0.18458 0.58874 0.33741 0.0
C4413 C 0.18463 0.5995 0.36925 0.0
C4414 C 0.19911 0.60088 0.33342 0.0
C4415 C 0.2064 0.61222 0.3471 0.0
loop_
_geom_bond_atom_site_label_1
_geom_bond_atom_site_label_2
_geom_bond_distance
_geom_bond_site_symmetry_2
_ccdc_geom_bond_type
C0 O2 1.247 . S
C0 O4 1.258 . S
C1 O8 1.247 . S
C1 O9 1.258 . S
O2 C0 1.247 . S
O2 Zn3 2.028 . S
Zn3 O2 2.028 . S
Zn3 O7 2.035 . S
Zn3 O9 2.035 . S
Zn3 O10 2.028 . S
O4 C0 1.258 . S
O4 Zn5 2.035 . S
Zn5 O4 2.035 . S
Zn5 O6 2.028 . S
Zn5 O8 2.028 . S
Zn5 O11 2.035 . S
O6 Zn5 2.028 . S
O6 C12 1.247 . S
O7 Zn3 2.035 . S
O7 C12 1.258 . S
O8 C1 1.247 . S
O8 Zn5 2.028 . S
O9 C1 1.258 . S
O9 Zn3 2.035 . S
O10 Zn3 2.028 . S
O10 C13 1.247 . S
O11 Zn5 2.035 . S
O11 C13 1.258 . S
C12 O6 1.247 . S
C12 O7 1.258 . S
C13 O10 1.247 . S
C13 O11 1.258 . S
C14 O16 1.247 . S
C14 O18 1.258 . S
C15 O22 1.247 . S
C15 O23 1.258 . S
O16 C14 1.247 . S
O16 Zn17 2.028 . S
Zn17 O16 2.028 . S
Zn17 O21 2.035 . S
Zn17 O23 2.035 . S
Zn17 O24 2.028 . S
O18 C14 1.258 . S
O18 Zn19 2.035 . S
Zn19 O18 2.035 . S
Zn19 O20 2.028 . S
Zn19 O22 2.028 . S
Zn19 O25 2.035 . S
O20 Zn19 2.028 . S
O20 C26 1.247 . S
O21 Zn17 2.035 . S
O21 C26 1.258 . S
O22 C15 1.247 . S
O22 Zn19 2.028 . S
O23 C15 1.258 . S
O23 Zn17 2.035 . S
O24 Zn17 2.028 . S
O24 C27 1.247 . S
O25 Zn19 2.035 . S
O25 C27 1.258 . S
C26 O20 1.247 . S
C26 O21 1.258 . S
C27 O24 1.247 . S
C27 O25 1.258 . S
C28 O30 1.247 . S
C28 O32 1.258 . S
C29 O36 1.247 . S
C29 O37 1.258 . S
O30 C28 1.247 . S
O30 Zn31 2.028 . S
Zn31 O30 2.028 . S
Zn31 O35 2.035 . S
Zn31 O37 2.035 . S
Zn31 O38 2.028 . S
O32 C28 1.258 . S
O32 Zn33 2.035 . S
Zn33 O32 2.035 . S
Zn33 O34 2.028 . S
Zn33 O36 2.028 . S
Zn33 O39 2.035 . S
O34 Zn33 2.028 . S
O34 C40 1.247 . S
O35 Zn31 2.035 . S
O35 C40 1.258 . S
O36 C29 1.247 . S
O36 Zn33 2.028 . S
O37 C29 1.258 . S
O37 Zn31 2.035 . S
O38 Zn31 2.028 . S
O38 C41 1.247 . S
O39 Zn33 2.035 . S
O39 C41 1.258 . S
C40 O34 1.247 . S
C40 O35 1.258 . S
C41 O38 1.247 . S
C41 O39 1.258 . S
C42 O44 1.247 . S
C42 O46 1.258 . S
C43 O50 1.247 . S
C43 O51 1.258 . S
O44 C42 1.247 . S
O44 Zn45 2.028 . S
Zn45 O44 2.028 . S
Zn45 O49 2.035 . S
Zn45 O51 2.035 . S
Zn45 O52 2.028 . S
O46 C42 1.258 . S
O46 Zn47 2.035 . S
Zn47 O46 2.035 . S
Zn47 O48 2.028 . S
Zn47 O50 2.028 . S
Zn47 O53 2.035 . S
O48 Zn47 2.028 . S
O48 C54 1.247 . S
O49 Zn45 2.035 . S
O49 C54 1.258 . S
O50 C43 1.247 . S
O50 Zn47 2.028 . S
O51 C43 1.258 . S
O51 Zn45 2.035 . S
O52 Zn45 2.028 . S
O52 C55 1.247 . S
O53 Zn47 2.035 . S
O53 C55 1.258 . S
C54 O48 1.247 . S
C54 O49 1.258 . S
C55 O52 1.247 . S
C55 O53 1.258 . S
C56 O58 1.247 . S
C56 O60 1.258 . S
C57 O64 1.247 . S
C57 O65 1.258 . S
O58 C56 1.247 . S
O58 Zn59 2.028 . S
Zn59 O58 2.028 . S
Zn59 O63 2.035 . S
Zn59 O65 2.035 . S
Zn59 O66 2.028 . S
O60 C56 1.258 . S
O60 Zn61 2.035 . S
Zn61 O60 2.035 . S
Zn61 O62 2.028 . S
Zn61 O64 2.028 . S
Zn61 O67 2.035 . S
O62 Zn61 2.028 . S
O62 C68 1.247 . S
O63 Zn59 2.035 . S
O63 C68 1.258 . S
O64 C57 1.247 . S
O64 Zn61 2.028 . S
O65 C57 1.258 . S
O65 Zn59 2.035 . S
O66 Zn59 2.028 . S
O66 C69 1.247 . S
O67 Zn61 2.035 . S
O67 C69 1.258 . S
C68 O62 1.247 . S
C68 O63 1.258 . S
C69 O66 1.247 . S
C69 O67 1.258 . S
C70 O72 1.247 . S
C70 O74 1.258 . S
C71 O78 1.247 . S
C71 O79 1.258 . S
O72 C70 1.247 . S
O72 Zn73 2.028 . S
Zn73 O72 2.028 . S
Zn73 O77 2.035 . S
Zn73 O79 2.035 . S
Zn73 O80 2.028 . S
O74 C70 1.258 . S
O74 Zn75 2.035 . S
Zn75 O74 2.035 . S
Zn75 O76 2.028 . S
Zn75 O78 2.028 . S
Zn75 O81 2.035 . S
O76 Zn75 2.028 . S
O76 C82 1.247 . S
O77 Zn73 2.035 . S
O77 C82 1.258 . S
O78 C71 1.247 . S
O78 Zn75 2.028 . S
O79 C71 1.258 . S
O79 Zn73 2.035 . S
O80 Zn73 2.028 . S
O80 C83 1.247 . S
O81 Zn75 2.035 . S
O81 C83 1.258 . S
C82 O76 1.247 . S
C82 O77 1.258 . S
C83 O80 1.247 . S
C83 O81 1.258 . S
C84 O86 1.247 . S
C84 O88 1.258 . S
C85 O92 1.247 . S
C85 O93 1.258 . S
O86 C84 1.247 . S
O86 Zn87 2.028 . S
Zn87 O86 2.028 . S
Zn87 O91 2.035 . S
Zn87 O93 2.035 . S
Zn87 O94 2.028 . S
O88 C84 1.258 . S
O88 Zn89 2.035 . S
Zn89 O88 2.035 . S
Zn89 O90 2.028 . S
Zn89 O92 2.028 . S
Zn89 O95 2.035 . S
O90 Zn89 2.028 . S
O90 C96 1.247 . S
O91 Zn87 2.035 . S
O91 C96 1.258 . S
O92 C85 1.247 . S
O92 Zn89 2.028 . S
O93 C85 1.258 . S
O93 Zn87 2.035 . S
O94 Zn87 2.028 . S
O94 C97 1.247 . S
O95 Zn89 2.035 . S
O95 C97 1.258 . S
C96 O90 1.247 . S
C96 O91 1.258 . S
C97 O94 1.247 . S
C97 O95 1.258 . S
C98 O100 1.247 . S
C98 O102 1.258 . S
C99 O106 1.247 . S
C99 O107 1.258 . S
O100 C98 1.247 . S
O100 Zn101 2.028 . S
Zn101 O100 2.028 . S
Zn101 O105 2.035 . S
Zn101 O107 2.035 . S
Zn101 O108 2.028 . S
O102 C98 1.258 . S
O102 Zn103 2.035 . S
Zn103 O102 2.035 . S
Zn103 O104 2.028 . S
Zn103 O106 2.028 . S
Zn103 O109 2.035 . S
O104 Zn103 2.028 . S
O104 C110 1.247 . S
O105 Zn101 2.035 . S
O105 C110 1.258 . S
O106 C99 1.247 . S
O106 Zn103 2.028 . S
O107 C99 1.258 . S
O107 Zn101 2.035 . S
O108 Zn101 2.028 . S
O108 C111 1.247 . S
O109 Zn103 2.035 . S
O109 C111 1.258 . S
C110 O104 1.247 . S
C110 O105 1.258 . S
C111 O108 1.247 . S
C111 O109 1.258 . S
C112 O114 1.247 . S
C112 O116 1.258 . S
C113 O120 1.247 . S
C113 O121 1.258 . S
O114 C112 1.247 . S
O114 Zn115 2.028 . S
Zn115 O114 2.028 . S
Zn115 O119 2.035 . S
Zn115 O121 2.035 . S
Zn115 O122 2.028 . S
O116 C112 1.258 . S
O116 Zn117 2.035 . S
Zn117 O116 2.035 . S
Zn117 O118 2.028 . S
Zn117 O120 2.028 . S
Zn117 O123 2.035 . S
O118 Zn117 2.028 . S
O118 C124 1.247 . S
O119 Zn115 2.035 . S
O119 C124 1.258 . S
O120 C113 1.247 . S
O120 Zn117 2.028 . S
O121 C113 1.258 . S
O121 Zn115 2.035 . S
O122 Zn115 2.028 . S
O122 C125 1.247 . S
O123 Zn117 2.035 . S
O123 C125 1.258 . S
C124 O118 1.247 . S
C124 O119 1.258 . S
C125 O122 1.247 . S
C125 O123 1.258 . S
C126 O128 1.247 . S
C126 O130 1.258 . S
C127 O134 1.247 . S
C127 O135 1.258 . S
O128 C126 1.247 . S
O128 Zn129 2.028 . S
Zn129 O128 2.028 . S
Zn129 O133 2.035 . S
Zn129 O135 2.035 . S
Zn129 O136 2.028 . S
O130 C126 1.258 . S
O130 Zn131 2.035 . S
Zn131 O130 2.035 . S
Zn131 O132 2.028 . S
Zn131 O134 2.028 . S
Zn131 O137 2.035 . S
O132 Zn131 2.028 . S
O132 C138 1.247 . S
O133 Zn129 2.035 . S
O133 C138 1.258 . S
O134 C127 1.247 . S
O134 Zn131 2.028 . S
O135 C127 1.258 . S
O135 Zn129 2.035 . S
O136 Zn129 2.028 . S
O136 C139 1.247 . S
O137 Zn131 2.035 . S
O137 C139 1.258 . S
C138 O132 1.247 . S
C138 O133 1.258 . S
C139 O136 1.247 . S
C139 O137 1.258 . S
C140 O142 1.247 . S
C140 O144 1.258 . S
C141 O148 1.247 . S
C141 O149 1.258 . S
O142 C140 1.247 . S
O142 Zn143 2.028 . S
Zn143 O142 2.028 . S
Zn143 O147 2.035 . S
Zn143 O149 2.035 . S
Zn143 O150 2.028 . S
O144 C140 1.258 . S
O144 Zn145 2.035 . S
Zn145 O144 2.035 . S
Zn145 O146 2.028 . S
Zn145 O148 2.028 . S
Zn145 O151 2.035 . S
O146 Zn145 2.028 . S
O146 C152 1.247 . S
O147 Zn143 2.035 . S
O147 C152 1.258 . S
O148 C141 1.247 . S
O148 Zn145 2.028 . S
O149 C141 1.258 . S
O149 Zn143 2.035 . S
O150 Zn143 2.028 . S
O150 C153 1.247 . S
O151 Zn145 2.035 . S
O151 C153 1.258 . S
C152 O146 1.247 . S
C152 O147 1.258 . S
C153 O150 1.247 . S
C153 O151 1.258 . S
C154 O156 1.247 . S
C154 O158 1.258 . S
C155 O162 1.247 . S
C155 O163 1.258 . S
O156 C154 1.247 . S
O156 Zn157 2.028 . S
Zn157 O156 2.028 . S
Zn157 O161 2.035 . S
Zn157 O163 2.035 . S
Zn157 O164 2.028 . S
O158 C154 1.258 . S
O158 Zn159 2.035 . S
Zn159 O158 2.035 . S
Zn159 O160 2.028 . S
Zn159 O162 2.028 . S
Zn159 O165 2.035 . S
O160 Zn159 2.028 . S
O160 C166 1.247 . S
O161 Zn157 2.035 . S
O161 C166 1.258 . S
O162 C155 1.247 . S
O162 Zn159 2.028 . S
O163 C155 1.258 . S
O163 Zn157 2.035 . S
O164 Zn157 2.028 . S
O164 C167 1.247 . S
O165 Zn159 2.035 . S
O165 C167 1.258 . S
C166 O160 1.247 . S
C166 O161 1.258 . S
C167 O164 1.247 . S
C167 O165 1.258 . S
C168 O170 1.247 . S
C168 O172 1.258 . S
C169 O176 1.247 . S
C169 O177 1.258 . S
O170 C168 1.247 . S
O170 Zn171 2.028 . S
Zn171 O170 2.028 . S
Zn171 O175 2.035 . S
Zn171 O177 2.035 . S
Zn171 O178 2.028 . S
O172 C168 1.258 . S
O172 Zn173 2.035 . S
Zn173 O172 2.035 . S
Zn173 O174 2.028 . S
Zn173 O176 2.028 . S
Zn173 O179 2.035 . S
O174 Zn173 2.028 . S
O174 C180 1.247 . S
O175 Zn171 2.035 . S
O175 C180 1.258 . S
O176 C169 1.247 . S
O176 Zn173 2.028 . S
O177 C169 1.258 . S
O177 Zn171 2.035 . S
O178 Zn171 2.028 . S
O178 C181 1.247 . S
O179 Zn173 2.035 . S
O179 C181 1.258 . S
C180 O174 1.247 . S
C180 O175 1.258 . S
C181 O178 1.247 . S
C181 O179 1.258 . S
C182 O184 1.247 . S
C182 O186 1.258 . S
C183 O190 1.247 . S
C183 O191 1.258 . S
O184 C182 1.247 . S
O184 Zn185 2.028 . S
Zn185 O184 2.028 . S
Zn185 O189 2.035 . S
Zn185 O191 2.035 . S
Zn185 O192 2.028 . S
O186 C182 1.258 . S
O186 Zn187 2.035 . S
Zn187 O186 2.035 . S
Zn187 O188 2.028 . S
Zn187 O190 2.028 . S
Zn187 O193 2.035 . S
O188 Zn187 2.028 . S
O188 C194 1.247 . S
O189 Zn185 2.035 . S
O189 C194 1.258 . S
O190 C183 1.247 . S
O190 Zn187 2.028 . S
O191 C183 1.258 . S
O191 Zn185 2.035 . S
O192 Zn185 2.028 . S
O192 C195 1.247 . S
O193 Zn187 2.035 . S
O193 C195 1.258 . S
C194 O188 1.247 . S
C194 O189 1.258 . S
C195 O192 1.247 . S
C195 O193 1.258 . S
C196 O198 1.247 . S
C196 O200 1.258 . S
C197 O204 1.247 . S
C197 O205 1.258 . S
O198 C196 1.247 . S
O198 Zn199 2.028 . S
Zn199 O198 2.028 . S
Zn199 O203 2.035 . S
Zn199 O205 2.035 . S
Zn199 O206 2.028 . S
O200 C196 1.258 . S
O200 Zn201 2.035 . S
Zn201 O200 2.035 . S
Zn201 O202 2.028 . S
Zn201 O204 2.028 . S
Zn201 O207 2.035 . S
O202 Zn201 2.028 . S
O202 C208 1.247 . S
O203 Zn199 2.035 . S
O203 C208 1.258 . S
O204 C197 1.247 . S
O204 Zn201 2.028 . S
O205 C197 1.258 . S
O205 Zn199 2.035 . S
O206 Zn199 2.028 . S
O206 C209 1.247 . S
O207 Zn201 2.035 . S
O207 C209 1.258 . S
C208 O202 1.247 . S
C208 O203 1.258 . S
C209 O206 1.247 . S
C209 O207 1.258 . S
C210 O212 1.247 . S
C210 O214 1.258 . S
C211 O218 1.247 . S
C211 O219 1.258 . S
O212 C210 1.247 . S
O212 Zn213 2.028 . S
Zn213 O212 2.028 . S
Zn213 O217 2.035 . S
Zn213 O219 2.035 . S
Zn213 O220 2.028 . S
O214 C210 1.258 . S
O214 Zn215 2.035 . S
Zn215 O214 2.035 . S
Zn215 O216 2.028 . S
Zn215 O218 2.028 . S
Zn215 O221 2.035 . S
O216 Zn215 2.028 . S
O216 C222 1.247 . S
O217 Zn213 2.035 . S
O217 C222 1.258 . S
O218 C211 1.247 . S
O218 Zn215 2.028 . S
O219 C211 1.258 . S
O219 Zn213 2.035 . S
O220 Zn213 2.028 . S
O220 C223 1.247 . S
O221 Zn215 2.035 . S
O221 C223 1.258 . S
C222 O216 1.247 . S
C222 O217 1.258 . S
C223 O220 1.247 . S
C223 O221 1.258 . S
C224 O226 1.247 . S
C224 O228 1.258 . S
C225 O232 1.247 . S
C225 O233 1.258 . S
O226 C224 1.247 . S
O226 Zn227 2.028 . S
Zn227 O226 2.028 . S
Zn227 O231 2.035 . S
Zn227 O233 2.035 . S
Zn227 O234 2.028 . S
O228 C224 1.258 . S
O228 Zn229 2.035 . S
Zn229 O228 2.035 . S
Zn229 O230 2.028 . S
Zn229 O232 2.028 . S
Zn229 O235 2.035 . S
O230 Zn229 2.028 . S
O230 C236 1.247 . S
O231 Zn227 2.035 . S
O231 C236 1.258 . S
O232 C225 1.247 . S
O232 Zn229 2.028 . S
O233 C225 1.258 . S
O233 Zn227 2.035 . S
O234 Zn227 2.028 . S
O234 C237 1.247 . S
O235 Zn229 2.035 . S
O235 C237 1.258 . S
C236 O230 1.247 . S
C236 O231 1.258 . S
C237 O234 1.247 . S
C237 O235 1.258 . S
C238 O240 1.247 . S
C238 O242 1.258 . S
C239 O246 1.247 . S
C239 O247 1.258 . S
O240 C238 1.247 . S
O240 Zn241 2.028 . S
Zn241 O240 2.028 . S
Zn241 O245 2.035 . S
Zn241 O247 2.035 . S
Zn241 O248 2.028 . S
O242 C238 1.258 . S
O242 Zn243 2.035 . S
Zn243 O242 2.035 . S
Zn243 O244 2.028 . S
Zn243 O246 2.028 . S
Zn243 O249 2.035 . S
O244 Zn243 2.028 . S
O244 C250 1.247 . S
O245 Zn241 2.035 . S
O245 C250 1.258 . S
O246 C239 1.247 . S
O246 Zn243 2.028 . S
O247 C239 1.258 . S
O247 Zn241 2.035 . S
O248 Zn241 2.028 . S
O248 C251 1.247 . S
O249 Zn243 2.035 . S
O249 C251 1.258 . S
C250 O244 1.247 . S
C250 O245 1.258 . S
C251 O248 1.247 . S
C251 O249 1.258 . S
C252 O254 1.247 . S
C252 O256 1.258 . S
C253 O260 1.247 . S
C253 O261 1.258 . S
O254 C252 1.247 . S
O254 Zn255 2.028 . S
Zn255 O254 2.028 . S
Zn255 O259 2.035 . S
Zn255 O261 2.035 . S
Zn255 O262 2.028 . S
O256 C252 1.258 . S
O256 Zn257 2.035 . S
Zn257 O256 2.035 . S
Zn257 O258 2.028 . S
Zn257 O260 2.028 . S
Zn257 O263 2.035 . S
O258 Zn257 2.028 . S
O258 C264 1.247 . S
O259 Zn255 2.035 . S
O259 C264 1.258 . S
O260 C253 1.247 . S
O260 Zn257 2.028 . S
O261 C253 1.258 . S
O261 Zn255 2.035 . S
O262 Zn255 2.028 . S
O262 C265 1.247 . S
O263 Zn257 2.035 . S
O263 C265 1.258 . S
C264 O258 1.247 . S
C264 O259 1.258 . S
C265 O262 1.247 . S
C265 O263 1.258 . S
C266 O268 1.247 . S
C266 O270 1.258 . S
C267 O274 1.247 . S
C267 O275 1.258 . S
O268 C266 1.247 . S
O268 Zn269 2.028 . S
Zn269 O268 2.028 . S
Zn269 O273 2.035 . S
Zn269 O275 2.035 . S
Zn269 O276 2.028 . S
O270 C266 1.258 . S
O270 Zn271 2.035 . S
Zn271 O270 2.035 . S
Zn271 O272 2.028 . S
Zn271 O274 2.028 . S
Zn271 O277 2.035 . S
O272 Zn271 2.028 . S
O272 C278 1.247 . S
O273 Zn269 2.035 . S
O273 C278 1.258 . S
O274 C267 1.247 . S
O274 Zn271 2.028 . S
O275 C267 1.258 . S
O275 Zn269 2.035 . S
O276 Zn269 2.028 . S
O276 C279 1.247 . S
O277 Zn271 2.035 . S
O277 C279 1.258 . S
C278 O272 1.247 . S
C278 O273 1.258 . S
C279 O276 1.247 . S
C279 O277 1.258 . S
C280 O282 1.247 . S
C280 O284 1.258 . S
C281 O288 1.247 . S
C281 O289 1.258 . S
O282 C280 1.247 . S
O282 Zn283 2.028 . S
Zn283 O282 2.028 . S
Zn283 O287 2.035 . S
Zn283 O289 2.035 . S
Zn283 O290 2.028 . S
O284 C280 1.258 . S
O284 Zn285 2.035 . S
Zn285 O284 2.035 . S
Zn285 O286 2.028 . S
Zn285 O288 2.028 . S
Zn285 O291 2.035 . S
O286 Zn285 2.028 . S
O286 C292 1.247 . S
O287 Zn283 2.035 . S
O287 C292 1.258 . S
O288 C281 1.247 . S
O288 Zn285 2.028 . S
O289 C281 1.258 . S
O289 Zn283 2.035 . S
O290 Zn283 2.028 . S
O290 C293 1.247 . S
O291 Zn285 2.035 . S
O291 C293 1.258 . S
C292 O286 1.247 . S
C292 O287 1.258 . S
C293 O290 1.247 . S
C293 O291 1.258 . S
C294 O296 1.247 . S
C294 O298 1.258 . S
C295 O302 1.247 . S
C295 O303 1.258 . S
O296 C294 1.247 . S
O296 Zn297 2.028 . S
Zn297 O296 2.028 . S
Zn297 O301 2.035 . S
Zn297 O303 2.035 . S
Zn297 O304 2.028 . S
O298 C294 1.258 . S
O298 Zn299 2.035 . S
Zn299 O298 2.035 . S
Zn299 O300 2.028 . S
Zn299 O302 2.028 . S
Zn299 O305 2.035 . S
O300 Zn299 2.028 . S
O300 C306 1.247 . S
O301 Zn297 2.035 . S
O301 C306 1.258 . S
O302 C295 1.247 . S
O302 Zn299 2.028 . S
O303 C295 1.258 . S
O303 Zn297 2.035 . S
O304 Zn297 2.028 . S
O304 C307 1.247 . S
O305 Zn299 2.035 . S
O305 C307 1.258 . S
C306 O300 1.247 . S
C306 O301 1.258 . S
C307 O304 1.247 . S
C307 O305 1.258 . S
C308 O310 1.247 . S
C308 O312 1.258 . S
C309 O316 1.247 . S
C309 O317 1.258 . S
O310 C308 1.247 . S
O310 Zn311 2.028 . S
Zn311 O310 2.028 . S
Zn311 O315 2.035 . S
Zn311 O317 2.035 . S
Zn311 O318 2.028 . S
O312 C308 1.258 . S
O312 Zn313 2.035 . S
Zn313 O312 2.035 . S
Zn313 O314 2.028 . S
Zn313 O316 2.028 . S
Zn313 O319 2.035 . S
O314 Zn313 2.028 . S
O314 C320 1.247 . S
O315 Zn311 2.035 . S
O315 C320 1.258 . S
O316 C309 1.247 . S
O316 Zn313 2.028 . S
O317 C309 1.258 . S
O317 Zn311 2.035 . S
O318 Zn311 2.028 . S
O318 C321 1.247 . S
O319 Zn313 2.035 . S
O319 C321 1.258 . S
C320 O314 1.247 . S
C320 O315 1.258 . S
C321 O318 1.247 . S
C321 O319 1.258 . S
C322 O324 1.247 . S
C322 O326 1.258 . S
C323 O330 1.247 . S
C323 O331 1.258 . S
O324 C322 1.247 . S
O324 Zn325 2.028 . S
Zn325 O324 2.028 . S
Zn325 O329 2.035 . S
Zn325 O331 2.035 . S
Zn325 O332 2.028 . S
O326 C322 1.258 . S
O326 Zn327 2.035 . S
Zn327 O326 2.035 . S
Zn327 O328 2.028 . S
Zn327 O330 2.028 . S
Zn327 O333 2.035 . S
O328 Zn327 2.028 . S
O328 C334 1.247 . S
O329 Zn325 2.035 . S
O329 C334 1.258 . S
O330 C323 1.247 . S
O330 Zn327 2.028 . S
O331 C323 1.258 . S
O331 Zn325 2.035 . S
O332 Zn325 2.028 . S
O332 C335 1.247 . S
O333 Zn327 2.035 . S
O333 C335 1.258 . S
C334 O328 1.247 . S
C334 O329 1.258 . S
C335 O332 1.247 . S
C335 O333 1.258 . S
C336 O338 1.247 . S
C336 O340 1.258 . S
C337 O344 1.247 . S
C337 O345 1.258 . S
O338 C336 1.247 . S
O338 Zn339 2.028 . S
Zn339 O338 2.028 . S
Zn339 O343 2.035 . S
Zn339 O345 2.035 . S
Zn339 O346 2.028 . S
O340 C336 1.258 . S
O340 Zn341 2.035 . S
Zn341 O340 2.035 . S
Zn341 O342 2.028 . S
Zn341 O344 2.028 . S
Zn341 O347 2.035 . S
O342 Zn341 2.028 . S
O342 C348 1.247 . S
O343 Zn339 2.035 . S
O343 C348 1.258 . S
O344 C337 1.247 . S
O344 Zn341 2.028 . S
O345 C337 1.258 . S
O345 Zn339 2.035 . S
O346 Zn339 2.028 . S
O346 C349 1.247 . S
O347 Zn341 2.035 . S
O347 C349 1.258 . S
C348 O342 1.247 . S
C348 O343 1.258 . S
C349 O346 1.247 . S
C349 O347 1.258 . S
C350 O352 1.247 . S
C350 O354 1.258 . S
C351 O358 1.247 . S
C351 O359 1.258 . S
O352 C350 1.247 . S
O352 Zn353 2.028 . S
Zn353 O352 2.028 . S
Zn353 O357 2.035 . S
Zn353 O359 2.035 . S
Zn353 O360 2.028 . S
O354 C350 1.258 . S
O354 Zn355 2.035 . S
Zn355 O354 2.035 . S
Zn355 O356 2.028 . S
Zn355 O358 2.028 . S
Zn355 O361 2.035 . S
O356 Zn355 2.028 . S
O356 C362 1.247 . S
O357 Zn353 2.035 . S
O357 C362 1.258 . S
O358 C351 1.247 . S
O358 Zn355 2.028 . S
O359 C351 1.258 . S
O359 Zn353 2.035 . S
O360 Zn353 2.028 . S
O360 C363 1.247 . S
O361 Zn355 2.035 . S
O361 C363 1.258 . S
C362 O356 1.247 . S
C362 O357 1.258 . S
C363 O360 1.247 . S
C363 O361 1.258 . S
C364 O366 1.247 . S
C364 O368 1.258 . S
C365 O372 1.247 . S
C365 O373 1.258 . S
O366 C364 1.247 . S
O366 Zn367 2.028 . S
Zn367 O366 2.028 . S
Zn367 O371 2.035 . S
Zn367 O373 2.035 . S
Zn367 O374 2.028 . S
O368 C364 1.258 . S
O368 Zn369 2.035 . S
Zn369 O368 2.035 . S
Zn369 O370 2.028 . S
Zn369 O372 2.028 . S
Zn369 O375 2.035 . S
O370 Zn369 2.028 . S
O370 C376 1.247 . S
O371 Zn367 2.035 . S
O371 C376 1.258 . S
O372 C365 1.247 . S
O372 Zn369 2.028 . S
O373 C365 1.258 . S
O373 Zn367 2.035 . S
O374 Zn367 2.028 . S
O374 C377 1.247 . S
O375 Zn369 2.035 . S
O375 C377 1.258 . S
C376 O370 1.247 . S
C376 O371 1.258 . S
C377 O374 1.247 . S
C377 O375 1.258 . S
C378 O380 1.247 . S
C378 O382 1.258 . S
C379 O386 1.247 . S
C379 O387 1.258 . S
O380 C378 1.247 . S
O380 Zn381 2.028 . S
Zn381 O380 2.028 . S
Zn381 O385 2.035 . S
Zn381 O387 2.035 . S
Zn381 O388 2.028 . S
O382 C378 1.258 . S
O382 Zn383 2.035 . S
Zn383 O382 2.035 . S
Zn383 O384 2.028 . S
Zn383 O386 2.028 . S
Zn383 O389 2.035 . S
O384 Zn383 2.028 . S
O384 C390 1.247 . S
O385 Zn381 2.035 . S
O385 C390 1.258 . S
O386 C379 1.247 . S
O386 Zn383 2.028 . S
O387 C379 1.258 . S
O387 Zn381 2.035 . S
O388 Zn381 2.028 . S
O388 C391 1.247 . S
O389 Zn383 2.035 . S
O389 C391 1.258 . S
C390 O384 1.247 . S
C390 O385 1.258 . S
C391 O388 1.247 . S
C391 O389 1.258 . S
C392 O394 1.247 . S
C392 O396 1.258 . S
C393 O400 1.247 . S
C393 O401 1.258 . S
O394 C392 1.247 . S
O394 Zn395 2.028 . S
Zn395 O394 2.028 . S
Zn395 O399 2.035 . S
Zn395 O401 2.035 . S
Zn395 O402 2.028 . S
O396 C392 1.258 . S
O396 Zn397 2.035 . S
Zn397 O396 2.035 . S
Zn397 O398 2.028 . S
Zn397 O400 2.028 . S
Zn397 O403 2.035 . S
O398 Zn397 2.028 . S
O398 C404 1.247 . S
O399 Zn395 2.035 . S
O399 C404 1.258 . S
O400 C393 1.247 . S
O400 Zn397 2.028 . S
O401 C393 1.258 . S
O401 Zn395 2.035 . S
O402 Zn395 2.028 . S
O402 C405 1.247 . S
O403 Zn397 2.035 . S
O403 C405 1.258 . S
C404 O398 1.247 . S
C404 O399 1.258 . S
C405 O402 1.247 . S
C405 O403 1.258 . S
C406 O408 1.247 . S
C406 O410 1.258 . S
C407 O414 1.247 . S
C407 O415 1.258 . S
O408 C406 1.247 . S
O408 Zn409 2.028 . S
Zn409 O408 2.028 . S
Zn409 O413 2.035 . S
Zn409 O415 2.035 . S
Zn409 O416 2.028 . S
O410 C406 1.258 . S
O410 Zn411 2.035 . S
Zn411 O410 2.035 . S
Zn411 O412 2.028 . S
Zn411 O414 2.028 . S
Zn411 O417 2.035 . S
O412 Zn411 2.028 . S
O412 C418 1.247 . S
O413 Zn409 2.035 . S
O413 C418 1.258 . S
O414 C407 1.247 . S
O414 Zn411 2.028 . S
O415 C407 1.258 . S
O415 Zn409 2.035 . S
O416 Zn409 2.028 . S
O416 C419 1.247 . S
O417 Zn411 2.035 . S
O417 C419 1.258 . S
C418 O412 1.247 . S
C418 O413 1.258 . S
C419 O416 1.247 . S
C419 O417 1.258 . S
C420 O422 1.247 . S
C420 O424 1.258 . S
C421 O428 1.247 . S
C421 O429 1.258 . S
O422 C420 1.247 . S
O422 Zn423 2.028 . S
Zn423 O422 2.028 . S
Zn423 O427 2.035 . S
Zn423 O429 2.035 . S
Zn423 O430 2.028 . S
O424 C420 1.258 . S
O424 Zn425 2.035 . S
Zn425 O424 2.035 . S
Zn425 O426 2.028 . S
Zn425 O428 2.028 . S
Zn425 O431 2.035 . S
O426 Zn425 2.028 . S
O426 C432 1.247 . S
O427 Zn423 2.035 . S
O427 C432 1.258 . S
O428 C421 1.247 . S
O428 Zn425 2.028 . S
O429 C421 1.258 . S
O429 Zn423 2.035 . S
O430 Zn423 2.028 . S
O430 C433 1.247 . S
O431 Zn425 2.035 . S
O431 C433 1.258 . S
C432 O426 1.247 . S
C432 O427 1.258 . S
C433 O430 1.247 . S
C433 O431 1.258 . S
C434 O436 1.247 . S
C434 O438 1.258 . S
C435 O442 1.247 . S
C435 O443 1.258 . S
O436 C434 1.247 . S
O436 Zn437 2.028 . S
Zn437 O436 2.028 . S
Zn437 O441 2.035 . S
Zn437 O443 2.035 . S
Zn437 O444 2.028 . S
O438 C434 1.258 . S
O438 Zn439 2.035 . S
Zn439 O438 2.035 . S
Zn439 O440 2.028 . S
Zn439 O442 2.028 . S
Zn439 O445 2.035 . S
O440 Zn439 2.028 . S
O440 C446 1.247 . S
O441 Zn437 2.035 . S
O441 C446 1.258 . S
O442 C435 1.247 . S
O442 Zn439 2.028 . S
O443 C435 1.258 . S
O443 Zn437 2.035 . S
O444 Zn437 2.028 . S
O444 C447 1.247 . S
O445 Zn439 2.035 . S
O445 C447 1.258 . S
C446 O440 1.247 . S
C446 O441 1.258 . S
C447 O444 1.247 . S
C447 O445 1.258 . S
C448 O450 1.247 . S
C448 O452 1.258 . S
C449 O456 1.247 . S
C449 O457 1.258 . S
O450 C448 1.247 . S
O450 Zn451 2.028 . S
Zn451 O450 2.028 . S
Zn451 O455 2.035 . S
Zn451 O457 2.035 . S
Zn451 O458 2.028 . S
O452 C448 1.258 . S
O452 Zn453 2.035 . S
Zn453 O452 2.035 . S
Zn453 O454 2.028 . S
Zn453 O456 2.028 . S
Zn453 O459 2.035 . S
O454 Zn453 2.028 . S
O454 C460 1.247 . S
O455 Zn451 2.035 . S
O455 C460 1.258 . S
O456 C449 1.247 . S
O456 Zn453 2.028 . S
O457 C449 1.258 . S
O457 Zn451 2.035 . S
O458 Zn451 2.028 . S
O458 C461 1.247 . S
O459 Zn453 2.035 . S
O459 C461 1.258 . S
C460 O454 1.247 . S
C460 O455 1.258 . S
C461 O458 1.247 . S
C461 O459 1.258 . S
C462 O464 1.247 . S
C462 O466 1.258 . S
C463 O470 1.247 . S
C463 O471 1.258 . S
O464 C462 1.247 . S
O464 Zn465 2.028 . S
Zn465 O464 2.028 . S
Zn465 O469 2.035 . S
Zn465 O471 2.035 . S
Zn465 O472 2.028 . S
O466 C462 1.258 . S
O466 Zn467 2.035 . S
Zn467 O466 2.035 . S
Zn467 O468 2.028 . S
Zn467 O470 2.028 . S
Zn467 O473 2.035 . S
O468 Zn467 2.028 . S
O468 C474 1.247 . S
O469 Zn465 2.035 . S
O469 C474 1.258 . S
O470 C463 1.247 . S
O470 Zn467 2.028 . S
O471 C463 1.258 . S
O471 Zn465 2.035 . S
O472 Zn465 2.028 . S
O472 C475 1.247 . S
O473 Zn467 2.035 . S
O473 C475 1.258 . S
C474 O468 1.247 . S
C474 O469 1.258 . S
C475 O472 1.247 . S
C475 O473 1.258 . S
C476 O478 1.247 . S
C476 O480 1.258 . S
C477 O484 1.247 . S
C477 O485 1.258 . S
O478 C476 1.247 . S
O478 Zn479 2.028 . S
Zn479 O478 2.028 . S
Zn479 O483 2.035 . S
Zn479 O485 2.035 . S
Zn479 O486 2.028 . S
O480 C476 1.258 . S
O480 Zn481 2.035 . S
Zn481 O480 2.035 . S
Zn481 O482 2.028 . S
Zn481 O484 2.028 . S
Zn481 O487 2.035 . S
O482 Zn481 2.028 . S
O482 C488 1.247 . S
O483 Zn479 2.035 . S
O483 C488 1.258 . S
O484 C477 1.247 . S
O484 Zn481 2.028 . S
O485 C477 1.258 . S
O485 Zn479 2.035 . S
O486 Zn479 2.028 . S
O486 C489 1.247 . S
O487 Zn481 2.035 . S
O487 C489 1.258 . S
C488 O482 1.247 . S
C488 O483 1.258 . S
C489 O486 1.247 . S
C489 O487 1.258 . S
C490 O492 1.247 . S
C490 O494 1.258 . S
C491 O498 1.247 . S
C491 O499 1.258 . S
O492 C490 1.247 . S
O492 Zn493 2.028 . S
Zn493 O492 2.028 . S
Zn493 O497 2.035 . S
Zn493 O499 2.035 . S
Zn493 O500 2.028 . S
O494 C490 1.258 . S
O494 Zn495 2.035 . S
Zn495 O494 2.035 . S
Zn495 O496 2.028 . S
Zn495 O498 2.028 . S
Zn495 O501 2.035 . S
O496 Zn495 2.028 . S
O496 C502 1.247 . S
O497 Zn493 2.035 . S
O497 C502 1.258 . S
O498 C491 1.247 . S
O498 Zn495 2.028 . S
O499 C491 1.258 . S
O499 Zn493 2.035 . S
O500 Zn493 2.028 . S
O500 C503 1.247 . S
O501 Zn495 2.035 . S
O501 C503 1.258 . S
C502 O496 1.247 . S
C502 O497 1.258 . S
C503 O500 1.247 . S
C503 O501 1.258 . S
C504 O506 1.247 . S
C504 O508 1.258 . S
C505 O512 1.247 . S
C505 O513 1.258 . S
O506 C504 1.247 . S
O506 Zn507 2.028 . S
Zn507 O506 2.028 . S
Zn507 O511 2.035 . S
Zn507 O513 2.035 . S
Zn507 O514 2.028 . S
O508 C504 1.258 . S
O508 Zn509 2.035 . S
Zn509 O508 2.035 . S
Zn509 O510 2.028 . S
Zn509 O512 2.028 . S
Zn509 O515 2.035 . S
O510 Zn509 2.028 . S
O510 C516 1.247 . S
O511 Zn507 2.035 . S
O511 C516 1.258 . S
O512 C505 1.247 . S
O512 Zn509 2.028 . S
O513 C505 1.258 . S
O513 Zn507 2.035 . S
O514 Zn507 2.028 . S
O514 C517 1.247 . S
O515 Zn509 2.035 . S
O515 C517 1.258 . S
C516 O510 1.247 . S
C516 O511 1.258 . S
C517 O514 1.247 . S
C517 O515 1.258 . S
C518 O520 1.247 . S
C518 O522 1.258 . S
C519 O526 1.247 . S
C519 O527 1.258 . S
O520 C518 1.247 . S
O520 Zn521 2.028 . S
Zn521 O520 2.028 . S
Zn521 O525 2.035 . S
Zn521 O527 2.035 . S
Zn521 O528 2.028 . S
O522 C518 1.258 . S
O522 Zn523 2.035 . S
Zn523 O522 2.035 . S
Zn523 O524 2.028 . S
Zn523 O526 2.028 . S
Zn523 O529 2.035 . S
O524 Zn523 2.028 . S
O524 C530 1.247 . S
O525 Zn521 2.035 . S
O525 C530 1.258 . S
O526 C519 1.247 . S
O526 Zn523 2.028 . S
O527 C519 1.258 . S
O527 Zn521 2.035 . S
O528 Zn521 2.028 . S
O528 C531 1.247 . S
O529 Zn523 2.035 . S
O529 C531 1.258 . S
C530 O524 1.247 . S
C530 O525 1.258 . S
C531 O528 1.247 . S
C531 O529 1.258 . S
C532 O534 1.247 . S
C532 O536 1.258 . S
C533 O540 1.247 . S
C533 O541 1.258 . S
O534 C532 1.247 . S
O534 Zn535 2.028 . S
Zn535 O534 2.028 . S
Zn535 O539 2.035 . S
Zn535 O541 2.035 . S
Zn535 O542 2.028 . S
O536 C532 1.258 . S
O536 Zn537 2.035 . S
Zn537 O536 2.035 . S
Zn537 O538 2.028 . S
Zn537 O540 2.028 . S
Zn537 O543 2.035 . S
O538 Zn537 2.028 . S
O538 C544 1.247 . S
O539 Zn535 2.035 . S
O539 C544 1.258 . S
O540 C533 1.247 . S
O540 Zn537 2.028 . S
O541 C533 1.258 . S
O541 Zn535 2.035 . S
O542 Zn535 2.028 . S
O542 C545 1.247 . S
O543 Zn537 2.035 . S
O543 C545 1.258 . S
C544 O538 1.247 . S
C544 O539 1.258 . S
C545 O542 1.247 . S
C545 O543 1.258 . S
C546 O548 1.247 . S
C546 O550 1.258 . S
C547 O554 1.247 . S
C547 O555 1.258 . S
O548 C546 1.247 . S
O548 Zn549 2.028 . S
Zn549 O548 2.028 . S
Zn549 O553 2.035 . S
Zn549 O555 2.035 . S
Zn549 O556 2.028 . S
O550 C546 1.258 . S
O550 Zn551 2.035 . S
Zn551 O550 2.035 . S
Zn551 O552 2.028 . S
Zn551 O554 2.028 . S
Zn551 O557 2.035 . S
O552 Zn551 2.028 . S
O552 C558 1.247 . S
O553 Zn549 2.035 . S
O553 C558 1.258 . S
O554 C547 1.247 . S
O554 Zn551 2.028 . S
O555 C547 1.258 . S
O555 Zn549 2.035 . S
O556 Zn549 2.028 . S
O556 C559 1.247 . S
O557 Zn551 2.035 . S
O557 C559 1.258 . S
C558 O552 1.247 . S
C558 O553 1.258 . S
C559 O556 1.247 . S
C559 O557 1.258 . S
C560 O562 1.247 . S
C560 O564 1.258 . S
C561 O568 1.247 . S
C561 O569 1.258 . S
O562 C560 1.247 . S
O562 Zn563 2.028 . S
Zn563 O562 2.028 . S
Zn563 O567 2.035 . S
Zn563 O569 2.035 . S
Zn563 O570 2.028 . S
O564 C560 1.258 . S
O564 Zn565 2.035 . S
Zn565 O564 2.035 . S
Zn565 O566 2.028 . S
Zn565 O568 2.028 . S
Zn565 O571 2.035 . S
O566 Zn565 2.028 . S
O566 C572 1.247 . S
O567 Zn563 2.035 . S
O567 C572 1.258 . S
O568 C561 1.247 . S
O568 Zn565 2.028 . S
O569 C561 1.258 . S
O569 Zn563 2.035 . S
O570 Zn563 2.028 . S
O570 C573 1.247 . S
O571 Zn565 2.035 . S
O571 C573 1.258 . S
C572 O566 1.247 . S
C572 O567 1.258 . S
C573 O570 1.247 . S
C573 O571 1.258 . S
C574 O576 1.247 . S
C574 O578 1.258 . S
C575 O582 1.247 . S
C575 O583 1.258 . S
O576 C574 1.247 . S
O576 Zn577 2.028 . S
Zn577 O576 2.028 . S
Zn577 O581 2.035 . S
Zn577 O583 2.035 . S
Zn577 O584 2.028 . S
O578 C574 1.258 . S
O578 Zn579 2.035 . S
Zn579 O578 2.035 . S
Zn579 O580 2.028 . S
Zn579 O582 2.028 . S
Zn579 O585 2.035 . S
O580 Zn579 2.028 . S
O580 C586 1.247 . S
O581 Zn577 2.035 . S
O581 C586 1.258 . S
O582 C575 1.247 . S
O582 Zn579 2.028 . S
O583 C575 1.258 . S
O583 Zn577 2.035 . S
O584 Zn577 2.028 . S
O584 C587 1.247 . S
O585 Zn579 2.035 . S
O585 C587 1.258 . S
C586 O580 1.247 . S
C586 O581 1.258 . S
C587 O584 1.247 . S
C587 O585 1.258 . S
C588 O590 1.247 . S
C588 O592 1.258 . S
C589 O596 1.247 . S
C589 O597 1.258 . S
O590 C588 1.247 . S
O590 Zn591 2.028 . S
Zn591 O590 2.028 . S
Zn591 O595 2.035 . S
Zn591 O597 2.035 . S
Zn591 O598 2.028 . S
O592 C588 1.258 . S
O592 Zn593 2.035 . S
Zn593 O592 2.035 . S
Zn593 O594 2.028 . S
Zn593 O596 2.028 . S
Zn593 O599 2.035 . S
O594 Zn593 2.028 . S
O594 C600 1.247 . S
O595 Zn591 2.035 . S
O595 C600 1.258 . S
O596 C589 1.247 . S
O596 Zn593 2.028 . S
O597 C589 1.258 . S
O597 Zn591 2.035 . S
O598 Zn591 2.028 . S
O598 C601 1.247 . S
O599 Zn593 2.035 . S
O599 C601 1.258 . S
C600 O594 1.247 . S
C600 O595 1.258 . S
C601 O598 1.247 . S
C601 O599 1.258 . S
C602 O604 1.247 . S
C602 O606 1.258 . S
C603 O610 1.247 . S
C603 O611 1.258 . S
O604 C602 1.247 . S
O604 Zn605 2.028 . S
Zn605 O604 2.028 . S
Zn605 O609 2.035 . S
Zn605 O611 2.035 . S
Zn605 O612 2.028 . S
O606 C602 1.258 . S
O606 Zn607 2.035 . S
Zn607 O606 2.035 . S
Zn607 O608 2.028 . S
Zn607 O610 2.028 . S
Zn607 O613 2.035 . S
O608 Zn607 2.028 . S
O608 C614 1.247 . S
O609 Zn605 2.035 . S
O609 C614 1.258 . S
O610 C603 1.247 . S
O610 Zn607 2.028 . S
O611 C603 1.258 . S
O611 Zn605 2.035 . S
O612 Zn605 2.028 . S
O612 C615 1.247 . S
O613 Zn607 2.035 . S
O613 C615 1.258 . S
C614 O608 1.247 . S
C614 O609 1.258 . S
C615 O612 1.247 . S
C615 O613 1.258 . S
C616 O618 1.247 . S
C616 O620 1.258 . S
C617 O624 1.247 . S
C617 O625 1.258 . S
O618 C616 1.247 . S
O618 Zn619 2.028 . S
Zn619 O618 2.028 . S
Zn619 O623 2.035 . S
Zn619 O625 2.035 . S
Zn619 O626 2.028 . S
O620 C616 1.258 . S
O620 Zn621 2.035 . S
Zn621 O620 2.035 . S
Zn621 O622 2.028 . S
Zn621 O624 2.028 . S
Zn621 O627 2.035 . S
O622 Zn621 2.028 . S
O622 C628 1.247 . S
O623 Zn619 2.035 . S
O623 C628 1.258 . S
O624 C617 1.247 . S
O624 Zn621 2.028 . S
O625 C617 1.258 . S
O625 Zn619 2.035 . S
O626 Zn619 2.028 . S
O626 C629 1.247 . S
O627 Zn621 2.035 . S
O627 C629 1.258 . S
C628 O622 1.247 . S
C628 O623 1.258 . S
C629 O626 1.247 . S
C629 O627 1.258 . S
C630 O632 1.247 . S
C630 O634 1.258 . S
C631 O638 1.247 . S
C631 O639 1.258 . S
O632 C630 1.247 . S
O632 Zn633 2.028 . S
Zn633 O632 2.028 . S
Zn633 O637 2.035 . S
Zn633 O639 2.035 . S
Zn633 O640 2.028 . S
O634 C630 1.258 . S
O634 Zn635 2.035 . S
Zn635 O634 2.035 . S
Zn635 O636 2.028 . S
Zn635 O638 2.028 . S
Zn635 O641 2.035 . S
O636 Zn635 2.028 . S
O636 C642 1.247 . S
O637 Zn633 2.035 . S
O637 C642 1.258 . S
O638 C631 1.247 . S
O638 Zn635 2.028 . S
O639 C631 1.258 . S
O639 Zn633 2.035 . S
O640 Zn633 2.028 . S
O640 C643 1.247 . S
O641 Zn635 2.035 . S
O641 C643 1.258 . S
C642 O636 1.247 . S
C642 O637 1.258 . S
C643 O640 1.247 . S
C643 O641 1.258 . S
C644 O646 1.247 . S
C644 O648 1.258 . S
C645 O652 1.247 . S
C645 O653 1.258 . S
O646 C644 1.247 . S
O646 Zn647 2.028 . S
Zn647 O646 2.028 . S
Zn647 O651 2.035 . S
Zn647 O653 2.035 . S
Zn647 O654 2.028 . S
O648 C644 1.258 . S
O648 Zn649 2.035 . S
Zn649 O648 2.035 . S
Zn649 O650 2.028 . S
Zn649 O652 2.028 . S
Zn649 O655 2.035 . S
O650 Zn649 2.028 . S
O650 C656 1.247 . S
O651 Zn647 2.035 . S
O651 C656 1.258 . S
O652 C645 1.247 . S
O652 Zn649 2.028 . S
O653 C645 1.258 . S
O653 Zn647 2.035 . S
O654 Zn647 2.028 . S
O654 C657 1.247 . S
O655 Zn649 2.035 . S
O655 C657 1.258 . S
C656 O650 1.247 . S
C656 O651 1.258 . S
C657 O654 1.247 . S
C657 O655 1.258 . S
C658 O660 1.247 . S
C658 O662 1.258 . S
C659 O666 1.247 . S
C659 O667 1.258 . S
O660 C658 1.247 . S
O660 Zn661 2.028 . S
Zn661 O660 2.028 . S
Zn661 O665 2.035 . S
Zn661 O667 2.035 . S
Zn661 O668 2.028 . S
O662 C658 1.258 . S
O662 Zn663 2.035 . S
Zn663 O662 2.035 . S
Zn663 O664 2.028 . S
Zn663 O666 2.028 . S
Zn663 O669 2.035 . S
O664 Zn663 2.028 . S
O664 C670 1.247 . S
O665 Zn661 2.035 . S
O665 C670 1.258 . S
O666 C659 1.247 . S
O666 Zn663 2.028 . S
O667 C659 1.258 . S
O667 Zn661 2.035 . S
O668 Zn661 2.028 . S
O668 C671 1.247 . S
O669 Zn663 2.035 . S
O669 C671 1.258 . S
C670 O664 1.247 . S
C670 O665 1.258 . S
C671 O668 1.247 . S
C671 O669 1.258 . S
C672 O674 1.247 . S
C672 O676 1.258 . S
C673 O680 1.247 . S
C673 O681 1.258 . S
O674 C672 1.247 . S
O674 Zn675 2.028 . S
Zn675 O674 2.028 . S
Zn675 O679 2.035 . S
Zn675 O681 2.035 . S
Zn675 O682 2.028 . S
O676 C672 1.258 . S
O676 Zn677 2.035 . S
Zn677 O676 2.035 . S
Zn677 O678 2.028 . S
Zn677 O680 2.028 . S
Zn677 O683 2.035 . S
O678 Zn677 2.028 . S
O678 C684 1.247 . S
O679 Zn675 2.035 . S
O679 C684 1.258 . S
O680 C673 1.247 . S
O680 Zn677 2.028 . S
O681 C673 1.258 . S
O681 Zn675 2.035 . S
O682 Zn675 2.028 . S
O682 C685 1.247 . S
O683 Zn677 2.035 . S
O683 C685 1.258 . S
C684 O678 1.247 . S
C684 O679 1.258 . S
C685 O682 1.247 . S
C685 O683 1.258 . S
C686 O688 1.247 . S
C686 O690 1.258 . S
C687 O694 1.247 . S
C687 O695 1.258 . S
O688 C686 1.247 . S
O688 Zn689 2.028 . S
Zn689 O688 2.028 . S
Zn689 O693 2.035 . S
Zn689 O695 2.035 . S
Zn689 O696 2.028 . S
O690 C686 1.258 . S
O690 Zn691 2.035 . S
Zn691 O690 2.035 . S
Zn691 O692 2.028 . S
Zn691 O694 2.028 . S
Zn691 O697 2.035 . S
O692 Zn691 2.028 . S
O692 C698 1.247 . S
O693 Zn689 2.035 . S
O693 C698 1.258 . S
O694 C687 1.247 . S
O694 Zn691 2.028 . S
O695 C687 1.258 . S
O695 Zn689 2.035 . S
O696 Zn689 2.028 . S
O696 C699 1.247 . S
O697 Zn691 2.035 . S
O697 C699 1.258 . S
C698 O692 1.247 . S
C698 O693 1.258 . S
C699 O696 1.247 . S
C699 O697 1.258 . S
C700 O702 1.247 . S
C700 O704 1.258 . S
C701 O708 1.247 . S
C701 O709 1.258 . S
O702 C700 1.247 . S
O702 Zn703 2.028 . S
Zn703 O702 2.028 . S
Zn703 O707 2.035 . S
Zn703 O709 2.035 . S
Zn703 O710 2.028 . S
O704 C700 1.258 . S
O704 Zn705 2.035 . S
Zn705 O704 2.035 . S
Zn705 O706 2.028 . S
Zn705 O708 2.028 . S
Zn705 O711 2.035 . S
O706 Zn705 2.028 . S
O706 C712 1.247 . S
O707 Zn703 2.035 . S
O707 C712 1.258 . S
O708 C701 1.247 . S
O708 Zn705 2.028 . S
O709 C701 1.258 . S
O709 Zn703 2.035 . S
O710 Zn703 2.028 . S
O710 C713 1.247 . S
O711 Zn705 2.035 . S
O711 C713 1.258 . S
C712 O706 1.247 . S
C712 O707 1.258 . S
C713 O710 1.247 . S
C713 O711 1.258 . S
C714 O716 1.247 . S
C714 O718 1.258 . S
C715 O722 1.247 . S
C715 O723 1.258 . S
O716 C714 1.247 . S
O716 Zn717 2.028 . S
Zn717 O716 2.028 . S
Zn717 O721 2.035 . S
Zn717 O723 2.035 . S
Zn717 O724 2.028 . S
O718 C714 1.258 . S
O718 Zn719 2.035 . S
Zn719 O718 2.035 . S
Zn719 O720 2.028 . S
Zn719 O722 2.028 . S
Zn719 O725 2.035 . S
O720 Zn719 2.028 . S
O720 C726 1.247 . S
O721 Zn717 2.035 . S
O721 C726 1.258 . S
O722 C715 1.247 . S
O722 Zn719 2.028 . S
O723 C715 1.258 . S
O723 Zn717 2.035 . S
O724 Zn717 2.028 . S
O724 C727 1.247 . S
O725 Zn719 2.035 . S
O725 C727 1.258 . S
C726 O720 1.247 . S
C726 O721 1.258 . S
C727 O724 1.247 . S
C727 O725 1.258 . S
C728 O730 1.247 . S
C728 O732 1.258 . S
C729 O736 1.247 . S
C729 O737 1.258 . S
O730 C728 1.247 . S
O730 Zn731 2.028 . S
Zn731 O730 2.028 . S
Zn731 O735 2.035 . S
Zn731 O737 2.035 . S
Zn731 O738 2.028 . S
O732 C728 1.258 . S
O732 Zn733 2.035 . S
Zn733 O732 2.035 . S
Zn733 O734 2.028 . S
Zn733 O736 2.028 . S
Zn733 O739 2.035 . S
O734 Zn733 2.028 . S
O734 C740 1.247 . S
O735 Zn731 2.035 . S
O735 C740 1.258 . S
O736 C729 1.247 . S
O736 Zn733 2.028 . S
O737 C729 1.258 . S
O737 Zn731 2.035 . S
O738 Zn731 2.028 . S
O738 C741 1.247 . S
O739 Zn733 2.035 . S
O739 C741 1.258 . S
C740 O734 1.247 . S
C740 O735 1.258 . S
C741 O738 1.247 . S
C741 O739 1.258 . S
C742 O744 1.247 . S
C742 O746 1.258 . S
C743 O750 1.247 . S
C743 O751 1.258 . S
O744 C742 1.247 . S
O744 Zn745 2.028 . S
Zn745 O744 2.028 . S
Zn745 O749 2.035 . S
Zn745 O751 2.035 . S
Zn745 O752 2.028 . S
O746 C742 1.258 . S
O746 Zn747 2.035 . S
Zn747 O746 2.035 . S
Zn747 O748 2.028 . S
Zn747 O750 2.028 . S
Zn747 O753 2.035 . S
O748 Zn747 2.028 . S
O748 C754 1.247 . S
O749 Zn745 2.035 . S
O749 C754 1.258 . S
O750 C743 1.247 . S
O750 Zn747 2.028 . S
O751 C743 1.258 . S
O751 Zn745 2.035 . S
O752 Zn745 2.028 . S
O752 C755 1.247 . S
O753 Zn747 2.035 . S
O753 C755 1.258 . S
C754 O748 1.247 . S
C754 O749 1.258 . S
C755 O752 1.247 . S
C755 O753 1.258 . S
C756 O758 1.247 . S
C756 O760 1.258 . S
C757 O764 1.247 . S
C757 O765 1.258 . S
O758 C756 1.247 . S
O758 Zn759 2.028 . S
Zn759 O758 2.028 . S
Zn759 O763 2.035 . S
Zn759 O765 2.035 . S
Zn759 O766 2.028 . S
O760 C756 1.258 . S
O760 Zn761 2.035 . S
Zn761 O760 2.035 . S
Zn761 O762 2.028 . S
Zn761 O764 2.028 . S
Zn761 O767 2.035 . S
O762 Zn761 2.028 . S
O762 C768 1.247 . S
O763 Zn759 2.035 . S
O763 C768 1.258 . S
O764 C757 1.247 . S
O764 Zn761 2.028 . S
O765 C757 1.258 . S
O765 Zn759 2.035 . S
O766 Zn759 2.028 . S
O766 C769 1.247 . S
O767 Zn761 2.035 . S
O767 C769 1.258 . S
C768 O762 1.247 . S
C768 O763 1.258 . S
C769 O766 1.247 . S
C769 O767 1.258 . S
C770 O772 1.247 . S
C770 O774 1.258 . S
C771 O778 1.247 . S
C771 O779 1.258 . S
O772 C770 1.247 . S
O772 Zn773 2.028 . S
Zn773 O772 2.028 . S
Zn773 O777 2.035 . S
Zn773 O779 2.035 . S
Zn773 O780 2.028 . S
O774 C770 1.258 . S
O774 Zn775 2.035 . S
Zn775 O774 2.035 . S
Zn775 O776 2.028 . S
Zn775 O778 2.028 . S
Zn775 O781 2.035 . S
O776 Zn775 2.028 . S
O776 C782 1.247 . S
O777 Zn773 2.035 . S
O777 C782 1.258 . S
O778 C771 1.247 . S
O778 Zn775 2.028 . S
O779 C771 1.258 . S
O779 Zn773 2.035 . S
O780 Zn773 2.028 . S
O780 C783 1.247 . S
O781 Zn775 2.035 . S
O781 C783 1.258 . S
C782 O776 1.247 . S
C782 O777 1.258 . S
C783 O780 1.247 . S
C783 O781 1.258 . S
C784 O786 1.247 . S
C784 O788 1.258 . S
C785 O792 1.247 . S
C785 O793 1.258 . S
O786 C784 1.247 . S
O786 Zn787 2.028 . S
Zn787 O786 2.028 . S
Zn787 O791 2.035 . S
Zn787 O793 2.035 . S
Zn787 O794 2.028 . S
O788 C784 1.258 . S
O788 Zn789 2.035 . S
Zn789 O788 2.035 . S
Zn789 O790 2.028 . S
Zn789 O792 2.028 . S
Zn789 O795 2.035 . S
O790 Zn789 2.028 . S
O790 C796 1.247 . S
O791 Zn787 2.035 . S
O791 C796 1.258 . S
O792 C785 1.247 . S
O792 Zn789 2.028 . S
O793 C785 1.258 . S
O793 Zn787 2.035 . S
O794 Zn787 2.028 . S
O794 C797 1.247 . S
O795 Zn789 2.035 . S
O795 C797 1.258 . S
C796 O790 1.247 . S
C796 O791 1.258 . S
C797 O794 1.247 . S
C797 O795 1.258 . S
C798 O800 1.247 . S
C798 O802 1.258 . S
C799 O806 1.247 . S
C799 O807 1.258 . S
O800 C798 1.247 . S
O800 Zn801 2.028 . S
Zn801 O800 2.028 . S
Zn801 O805 2.035 . S
Zn801 O807 2.035 . S
Zn801 O808 2.028 . S
O802 C798 1.258 . S
O802 Zn803 2.035 . S
Zn803 O802 2.035 . S
Zn803 O804 2.028 . S
Zn803 O806 2.028 . S
Zn803 O809 2.035 . S
O804 Zn803 2.028 . S
O804 C810 1.247 . S
O805 Zn801 2.035 . S
O805 C810 1.258 . S
O806 C799 1.247 . S
O806 Zn803 2.028 . S
O807 C799 1.258 . S
O807 Zn801 2.035 . S
O808 Zn801 2.028 . S
O808 C811 1.247 . S
O809 Zn803 2.035 . S
O809 C811 1.258 . S
C810 O804 1.247 . S
C810 O805 1.258 . S
C811 O808 1.247 . S
C811 O809 1.258 . S
C812 O814 1.247 . S
C812 O816 1.258 . S
C813 O820 1.247 . S
C813 O821 1.258 . S
O814 C812 1.247 . S
O814 Zn815 2.028 . S
Zn815 O814 2.028 . S
Zn815 O819 2.035 . S
Zn815 O821 2.035 . S
Zn815 O822 2.028 . S
O816 C812 1.258 . S
O816 Zn817 2.035 . S
Zn817 O816 2.035 . S
Zn817 O818 2.028 . S
Zn817 O820 2.028 . S
Zn817 O823 2.035 . S
O818 Zn817 2.028 . S
O818 C824 1.247 . S
O819 Zn815 2.035 . S
O819 C824 1.258 . S
O820 C813 1.247 . S
O820 Zn817 2.028 . S
O821 C813 1.258 . S
O821 Zn815 2.035 . S
O822 Zn815 2.028 . S
O822 C825 1.247 . S
O823 Zn817 2.035 . S
O823 C825 1.258 . S
C824 O818 1.247 . S
C824 O819 1.258 . S
C825 O822 1.247 . S
C825 O823 1.258 . S
C826 O828 1.247 . S
C826 O830 1.258 . S
C827 O834 1.247 . S
C827 O835 1.258 . S
O828 C826 1.247 . S
O828 Zn829 2.028 . S
Zn829 O828 2.028 . S
Zn829 O833 2.035 . S
Zn829 O835 2.035 . S
Zn829 O836 2.028 . S
O830 C826 1.258 . S
O830 Zn831 2.035 . S
Zn831 O830 2.035 . S
Zn831 O832 2.028 . S
Zn831 O834 2.028 . S
Zn831 O837 2.035 . S
O832 Zn831 2.028 . S
O832 C838 1.247 . S
O833 Zn829 2.035 . S
O833 C838 1.258 . S
O834 C827 1.247 . S
O834 Zn831 2.028 . S
O835 C827 1.258 . S
O835 Zn829 2.035 . S
O836 Zn829 2.028 . S
O836 C839 1.247 . S
O837 Zn831 2.035 . S
O837 C839 1.258 . S
C838 O832 1.247 . S
C838 O833 1.258 . S
C839 O836 1.247 . S
C839 O837 1.258 . S
C840 O842 1.247 . S
C840 O844 1.258 . S
C841 O848 1.247 . S
C841 O849 1.258 . S
O842 C840 1.247 . S
O842 Zn843 2.028 . S
Zn843 O842 2.028 . S
Zn843 O847 2.035 . S
Zn843 O849 2.035 . S
Zn843 O850 2.028 . S
O844 C840 1.258 . S
O844 Zn845 2.035 . S
Zn845 O844 2.035 . S
Zn845 O846 2.028 . S
Zn845 O848 2.028 . S
Zn845 O851 2.035 . S
O846 Zn845 2.028 . S
O846 C852 1.247 . S
O847 Zn843 2.035 . S
O847 C852 1.258 . S
O848 C841 1.247 . S
O848 Zn845 2.028 . S
O849 C841 1.258 . S
O849 Zn843 2.035 . S
O850 Zn843 2.028 . S
O850 C853 1.247 . S
O851 Zn845 2.035 . S
O851 C853 1.258 . S
C852 O846 1.247 . S
C852 O847 1.258 . S
C853 O850 1.247 . S
C853 O851 1.258 . S
C854 O856 1.247 . S
C854 O858 1.258 . S
C855 O862 1.247 . S
C855 O863 1.258 . S
O856 C854 1.247 . S
O856 Zn857 2.028 . S
Zn857 O856 2.028 . S
Zn857 O861 2.035 . S
Zn857 O863 2.035 . S
Zn857 O864 2.028 . S
O858 C854 1.258 . S
O858 Zn859 2.035 . S
Zn859 O858 2.035 . S
Zn859 O860 2.028 . S
Zn859 O862 2.028 . S
Zn859 O865 2.035 . S
O860 Zn859 2.028 . S
O860 C866 1.247 . S
O861 Zn857 2.035 . S
O861 C866 1.258 . S
O862 C855 1.247 . S
O862 Zn859 2.028 . S
O863 C855 1.258 . S
O863 Zn857 2.035 . S
O864 Zn857 2.028 . S
O864 C867 1.247 . S
O865 Zn859 2.035 . S
O865 C867 1.258 . S
C866 O860 1.247 . S
C866 O861 1.258 . S
C867 O864 1.247 . S
C867 O865 1.258 . S
C868 O870 1.247 . S
C868 O872 1.258 . S
C869 O876 1.247 . S
C869 O877 1.258 . S
O870 C868 1.247 . S
O870 Zn871 2.028 . S
Zn871 O870 2.028 . S
Zn871 O875 2.035 . S
Zn871 O877 2.035 . S
Zn871 O878 2.028 . S
O872 C868 1.258 . S
O872 Zn873 2.035 . S
Zn873 O872 2.035 . S
Zn873 O874 2.028 . S
Zn873 O876 2.028 . S
Zn873 O879 2.035 . S
O874 Zn873 2.028 . S
O874 C880 1.247 . S
O875 Zn871 2.035 . S
O875 C880 1.258 . S
O876 C869 1.247 . S
O876 Zn873 2.028 . S
O877 C869 1.258 . S
O877 Zn871 2.035 . S
O878 Zn871 2.028 . S
O878 C881 1.247 . S
O879 Zn873 2.035 . S
O879 C881 1.258 . S
C880 O874 1.247 . S
C880 O875 1.258 . S
C881 O878 1.247 . S
C881 O879 1.258 . S
C882 O884 1.247 . S
C882 O886 1.258 . S
C883 O890 1.247 . S
C883 O891 1.258 . S
O884 C882 1.247 . S
O884 Zn885 2.028 . S
Zn885 O884 2.028 . S
Zn885 O889 2.035 . S
Zn885 O891 2.035 . S
Zn885 O892 2.028 . S
O886 C882 1.258 . S
O886 Zn887 2.035 . S
Zn887 O886 2.035 . S
Zn887 O888 2.028 . S
Zn887 O890 2.028 . S
Zn887 O893 2.035 . S
O888 Zn887 2.028 . S
O888 C894 1.247 . S
O889 Zn885 2.035 . S
O889 C894 1.258 . S
O890 C883 1.247 . S
O890 Zn887 2.028 . S
O891 C883 1.258 . S
O891 Zn885 2.035 . S
O892 Zn885 2.028 . S
O892 C895 1.247 . S
O893 Zn887 2.035 . S
O893 C895 1.258 . S
C894 O888 1.247 . S
C894 O889 1.258 . S
C895 O892 1.247 . S
C895 O893 1.258 . S
C896 O898 1.247 . S
C896 O900 1.258 . S
C897 O904 1.247 . S
C897 O905 1.258 . S
O898 C896 1.247 . S
O898 Zn899 2.028 . S
Zn899 O898 2.028 . S
Zn899 O903 2.035 . S
Zn899 O905 2.035 . S
Zn899 O906 2.028 . S
O900 C896 1.258 . S
O900 Zn901 2.035 . S
Zn901 O900 2.035 . S
Zn901 O902 2.028 . S
Zn901 O904 2.028 . S
Zn901 O907 2.035 . S
O902 Zn901 2.028 . S
O902 C908 1.247 . S
O903 Zn899 2.035 . S
O903 C908 1.258 . S
O904 C897 1.247 . S
O904 Zn901 2.028 . S
O905 C897 1.258 . S
O905 Zn899 2.035 . S
O906 Zn899 2.028 . S
O906 C909 1.247 . S
O907 Zn901 2.035 . S
O907 C909 1.258 . S
C908 O902 1.247 . S
C908 O903 1.258 . S
C909 O906 1.247 . S
C909 O907 1.258 . S
C910 O912 1.247 . S
C910 O914 1.258 . S
C911 O918 1.247 . S
C911 O919 1.258 . S
O912 C910 1.247 . S
O912 Zn913 2.028 . S
Zn913 O912 2.028 . S
Zn913 O917 2.035 . S
Zn913 O919 2.035 . S
Zn913 O920 2.028 . S
O914 C910 1.258 . S
O914 Zn915 2.035 . S
Zn915 O914 2.035 . S
Zn915 O916 2.028 . S
Zn915 O918 2.028 . S
Zn915 O921 2.035 . S
O916 Zn915 2.028 . S
O916 C922 1.247 . S
O917 Zn913 2.035 . S
O917 C922 1.258 . S
O918 C911 1.247 . S
O918 Zn915 2.028 . S
O919 C911 1.258 . S
O919 Zn913 2.035 . S
O920 Zn913 2.028 . S
O920 C923 1.247 . S
O921 Zn915 2.035 . S
O921 C923 1.258 . S
C922 O916 1.247 . S
C922 O917 1.258 . S
C923 O920 1.247 . S
C923 O921 1.258 . S
C924 O926 1.247 . S
C924 O928 1.258 . S
C925 O932 1.247 . S
C925 O933 1.258 . S
O926 C924 1.247 . S
O926 Zn927 2.028 . S
Zn927 O926 2.028 . S
Zn927 O931 2.035 . S
Zn927 O933 2.035 . S
Zn927 O934 2.028 . S
O928 C924 1.258 . S
O928 Zn929 2.035 . S
Zn929 O928 2.035 . S
Zn929 O930 2.028 . S
Zn929 O932 2.028 . S
Zn929 O935 2.035 . S
O930 Zn929 2.028 . S
O930 C936 1.247 . S
O931 Zn927 2.035 . S
O931 C936 1.258 . S
O932 C925 1.247 . S
O932 Zn929 2.028 . S
O933 C925 1.258 . S
O933 Zn927 2.035 . S
O934 Zn927 2.028 . S
O934 C937 1.247 . S
O935 Zn929 2.035 . S
O935 C937 1.258 . S
C936 O930 1.247 . S
C936 O931 1.258 . S
C937 O934 1.247 . S
C937 O935 1.258 . S
C938 O940 1.247 . S
C938 O942 1.258 . S
C939 O946 1.247 . S
C939 O947 1.258 . S
O940 C938 1.247 . S
O940 Zn941 2.028 . S
Zn941 O940 2.028 . S
Zn941 O945 2.035 . S
Zn941 O947 2.035 . S
Zn941 O948 2.028 . S
O942 C938 1.258 . S
O942 Zn943 2.035 . S
Zn943 O942 2.035 . S
Zn943 O944 2.028 . S
Zn943 O946 2.028 . S
Zn943 O949 2.035 . S
O944 Zn943 2.028 . S
O944 C950 1.247 . S
O945 Zn941 2.035 . S
O945 C950 1.258 . S
O946 C939 1.247 . S
O946 Zn943 2.028 . S
O947 C939 1.258 . S
O947 Zn941 2.035 . S
O948 Zn941 2.028 . S
O948 C951 1.247 . S
O949 Zn943 2.035 . S
O949 C951 1.258 . S
C950 O944 1.247 . S
C950 O945 1.258 . S
C951 O948 1.247 . S
C951 O949 1.258 . S
C952 O954 1.247 . S
C952 O956 1.258 . S
C953 O960 1.247 . S
C953 O961 1.258 . S
O954 C952 1.247 . S
O954 Zn955 2.028 . S
Zn955 O954 2.028 . S
Zn955 O959 2.035 . S
Zn955 O961 2.035 . S
Zn955 O962 2.028 . S
O956 C952 1.258 . S
O956 Zn957 2.035 . S
Zn957 O956 2.035 . S
Zn957 O958 2.028 . S
Zn957 O960 2.028 . S
Zn957 O963 2.035 . S
O958 Zn957 2.028 . S
O958 C964 1.247 . S
O959 Zn955 2.035 . S
O959 C964 1.258 . S
O960 C953 1.247 . S
O960 Zn957 2.028 . S
O961 C953 1.258 . S
O961 Zn955 2.035 . S
O962 Zn955 2.028 . S
O962 C965 1.247 . S
O963 Zn957 2.035 . S
O963 C965 1.258 . S
C964 O958 1.247 . S
C964 O959 1.258 . S
C965 O962 1.247 . S
C965 O963 1.258 . S
C966 O968 1.247 . S
C966 O970 1.258 . S
C967 O974 1.247 . S
C967 O975 1.258 . S
O968 C966 1.247 . S
O968 Zn969 2.028 . S
Zn969 O968 2.028 . S
Zn969 O973 2.035 . S
Zn969 O975 2.035 . S
Zn969 O976 2.028 . S
O970 C966 1.258 . S
O970 Zn971 2.035 . S
Zn971 O970 2.035 . S
Zn971 O972 2.028 . S
Zn971 O974 2.028 . S
Zn971 O977 2.035 . S
O972 Zn971 2.028 . S
O972 C978 1.247 . S
O973 Zn969 2.035 . S
O973 C978 1.258 . S
O974 C967 1.247 . S
O974 Zn971 2.028 . S
O975 C967 1.258 . S
O975 Zn969 2.035 . S
O976 Zn969 2.028 . S
O976 C979 1.247 . S
O977 Zn971 2.035 . S
O977 C979 1.258 . S
C978 O972 1.247 . S
C978 O973 1.258 . S
C979 O976 1.247 . S
C979 O977 1.258 . S
C980 O982 1.247 . S
C980 O984 1.258 . S
C981 O988 1.247 . S
C981 O989 1.258 . S
O982 C980 1.247 . S
O982 Zn983 2.028 . S
Zn983 O982 2.028 . S
Zn983 O987 2.035 . S
Zn983 O989 2.035 . S
Zn983 O990 2.028 . S
O984 C980 1.258 . S
O984 Zn985 2.035 . S
Zn985 O984 2.035 . S
Zn985 O986 2.028 . S
Zn985 O988 2.028 . S
Zn985 O991 2.035 . S
O986 Zn985 2.028 . S
O986 C992 1.247 . S
O987 Zn983 2.035 . S
O987 C992 1.258 . S
O988 C981 1.247 . S
O988 Zn985 2.028 . S
O989 C981 1.258 . S
O989 Zn983 2.035 . S
O990 Zn983 2.028 . S
O990 C993 1.247 . S
O991 Zn985 2.035 . S
O991 C993 1.258 . S
C992 O986 1.247 . S
C992 O987 1.258 . S
C993 O990 1.247 . S
C993 O991 1.258 . S
C994 O996 1.247 . S
C994 O998 1.258 . S
C995 O1002 1.247 . S
C995 O1003 1.258 . S
O996 C994 1.247 . S
O996 Zn997 2.028 . S
Zn997 O996 2.028 . S
Zn997 O1001 2.035 . S
Zn997 O1003 2.035 . S
Zn997 O1004 2.028 . S
O998 C994 1.258 . S
O998 Zn999 2.035 . S
Zn999 O998 2.035 . S
Zn999 O1000 2.028 . S
Zn999 O1002 2.028 . S
Zn999 O1005 2.035 . S
O1000 Zn999 2.028 . S
O1000 C1006 1.247 . S
O1001 Zn997 2.035 . S
O1001 C1006 1.258 . S
O1002 C995 1.247 . S
O1002 Zn999 2.028 . S
O1003 C995 1.258 . S
O1003 Zn997 2.035 . S
O1004 Zn997 2.028 . S
O1004 C1007 1.247 . S
O1005 Zn999 2.035 . S
O1005 C1007 1.258 . S
C1006 O1000 1.247 . S
C1006 O1001 1.258 . S
C1007 O1004 1.247 . S
C1007 O1005 1.258 . S
C1008 O1010 1.247 . S
C1008 O1012 1.258 . S
C1009 O1016 1.247 . S
C1009 O1017 1.258 . S
O1010 C1008 1.247 . S
O1010 Zn1011 2.028 . S
Zn1011 O1010 2.028 . S
Zn1011 O1015 2.035 . S
Zn1011 O1017 2.035 . S
Zn1011 O1018 2.028 . S
O1012 C1008 1.258 . S
O1012 Zn1013 2.035 . S
Zn1013 O1012 2.035 . S
Zn1013 O1014 2.028 . S
Zn1013 O1016 2.028 . S
Zn1013 O1019 2.035 . S
O1014 Zn1013 2.028 . S
O1014 C1020 1.247 . S
O1015 Zn1011 2.035 . S
O1015 C1020 1.258 . S
O1016 C1009 1.247 . S
O1016 Zn1013 2.028 . S
O1017 C1009 1.258 . S
O1017 Zn1011 2.035 . S
O1018 Zn1011 2.028 . S
O1018 C1021 1.247 . S
O1019 Zn1013 2.035 . S
O1019 C1021 1.258 . S
C1020 O1014 1.247 . S
C1020 O1015 1.258 . S
C1021 O1018 1.247 . S
C1021 O1019 1.258 . S
C1022 O1024 1.247 . S
C1022 O1026 1.258 . S
C1023 O1030 1.247 . S
C1023 O1031 1.258 . S
O1024 C1022 1.247 . S
O1024 Zn1025 2.028 . S
Zn1025 O1024 2.028 . S
Zn1025 O1029 2.035 . S
Zn1025 O1031 2.035 . S
Zn1025 O1032 2.028 . S
O1026 C1022 1.258 . S
O1026 Zn1027 2.035 . S
Zn1027 O1026 2.035 . S
Zn1027 O1028 2.028 . S
Zn1027 O1030 2.028 . S
Zn1027 O1033 2.035 . S
O1028 Zn1027 2.028 . S
O1028 C1034 1.247 . S
O1029 Zn1025 2.035 . S
O1029 C1034 1.258 . S
O1030 C1023 1.247 . S
O1030 Zn1027 2.028 . S
O1031 C1023 1.258 . S
O1031 Zn1025 2.035 . S
O1032 Zn1025 2.028 . S
O1032 C1035 1.247 . S
O1033 Zn1027 2.035 . S
O1033 C1035 1.258 . S
C1034 O1028 1.247 . S
C1034 O1029 1.258 . S
C1035 O1032 1.247 . S
C1035 O1033 1.258 . S
C1036 O1038 1.247 . S
C1036 O1040 1.258 . S
C1037 O1044 1.247 . S
C1037 O1045 1.258 . S
O1038 C1036 1.247 . S
O1038 Zn1039 2.028 . S
Zn1039 O1038 2.028 . S
Zn1039 O1043 2.035 . S
Zn1039 O1045 2.035 . S
Zn1039 O1046 2.028 . S
O1040 C1036 1.258 . S
O1040 Zn1041 2.035 . S
Zn1041 O1040 2.035 . S
Zn1041 O1042 2.028 . S
Zn1041 O1044 2.028 . S
Zn1041 O1047 2.035 . S
O1042 Zn1041 2.028 . S
O1042 C1048 1.247 . S
O1043 Zn1039 2.035 . S
O1043 C1048 1.258 . S
O1044 C1037 1.247 . S
O1044 Zn1041 2.028 . S
O1045 C1037 1.258 . S
O1045 Zn1039 2.035 . S
O1046 Zn1039 2.028 . S
O1046 C1049 1.247 . S
O1047 Zn1041 2.035 . S
O1047 C1049 1.258 . S
C1048 O1042 1.247 . S
C1048 O1043 1.258 . S
C1049 O1046 1.247 . S
C1049 O1047 1.258 . S
C1050 O1052 1.247 . S
C1050 O1054 1.258 . S
C1051 O1058 1.247 . S
C1051 O1059 1.258 . S
O1052 C1050 1.247 . S
O1052 Zn1053 2.028 . S
Zn1053 O1052 2.028 . S
Zn1053 O1057 2.035 . S
Zn1053 O1059 2.035 . S
Zn1053 O1060 2.028 . S
O1054 C1050 1.258 . S
O1054 Zn1055 2.035 . S
Zn1055 O1054 2.035 . S
Zn1055 O1056 2.028 . S
Zn1055 O1058 2.028 . S
Zn1055 O1061 2.035 . S
O1056 Zn1055 2.028 . S
O1056 C1062 1.247 . S
O1057 Zn1053 2.035 . S
O1057 C1062 1.258 . S
O1058 C1051 1.247 . S
O1058 Zn1055 2.028 . S
O1059 C1051 1.258 . S
O1059 Zn1053 2.035 . S
O1060 Zn1053 2.028 . S
O1060 C1063 1.247 . S
O1061 Zn1055 2.035 . S
O1061 C1063 1.258 . S
C1062 O1056 1.247 . S
C1062 O1057 1.258 . S
C1063 O1060 1.247 . S
C1063 O1061 1.258 . S
C1064 O1066 1.247 . S
C1064 O1068 1.258 . S
C1065 O1072 1.247 . S
C1065 O1073 1.258 . S
O1066 C1064 1.247 . S
O1066 Zn1067 2.028 . S
Zn1067 O1066 2.028 . S
Zn1067 O1071 2.035 . S
Zn1067 O1073 2.035 . S
Zn1067 O1074 2.028 . S
O1068 C1064 1.258 . S
O1068 Zn1069 2.035 . S
Zn1069 O1068 2.035 . S
Zn1069 O1070 2.028 . S
Zn1069 O1072 2.028 . S
Zn1069 O1075 2.035 . S
O1070 Zn1069 2.028 . S
O1070 C1076 1.247 . S
O1071 Zn1067 2.035 . S
O1071 C1076 1.258 . S
O1072 C1065 1.247 . S
O1072 Zn1069 2.028 . S
O1073 C1065 1.258 . S
O1073 Zn1067 2.035 . S
O1074 Zn1067 2.028 . S
O1074 C1077 1.247 . S
O1075 Zn1069 2.035 . S
O1075 C1077 1.258 . S
C1076 O1070 1.247 . S
C1076 O1071 1.258 . S
C1077 O1074 1.247 . S
C1077 O1075 1.258 . S
C1078 O1080 1.247 . S
C1078 O1082 1.258 . S
C1079 O1086 1.247 . S
C1079 O1087 1.258 . S
O1080 C1078 1.247 . S
O1080 Zn1081 2.028 . S
Zn1081 O1080 2.028 . S
Zn1081 O1085 2.035 . S
Zn1081 O1087 2.035 . S
Zn1081 O1088 2.028 . S
O1082 C1078 1.258 . S
O1082 Zn1083 2.035 . S
Zn1083 O1082 2.035 . S
Zn1083 O1084 2.028 . S
Zn1083 O1086 2.028 . S
Zn1083 O1089 2.035 . S
O1084 Zn1083 2.028 . S
O1084 C1090 1.247 . S
O1085 Zn1081 2.035 . S
O1085 C1090 1.258 . S
O1086 C1079 1.247 . S
O1086 Zn1083 2.028 . S
O1087 C1079 1.258 . S
O1087 Zn1081 2.035 . S
O1088 Zn1081 2.028 . S
O1088 C1091 1.247 . S
O1089 Zn1083 2.035 . S
O1089 C1091 1.258 . S
C1090 O1084 1.247 . S
C1090 O1085 1.258 . S
C1091 O1088 1.247 . S
C1091 O1089 1.258 . S
C1092 O1094 1.247 . S
C1092 O1096 1.258 . S
C1093 O1100 1.247 . S
C1093 O1101 1.258 . S
O1094 C1092 1.247 . S
O1094 Zn1095 2.028 . S
Zn1095 O1094 2.028 . S
Zn1095 O1099 2.035 . S
Zn1095 O1101 2.035 . S
Zn1095 O1102 2.028 . S
O1096 C1092 1.258 . S
O1096 Zn1097 2.035 . S
Zn1097 O1096 2.035 . S
Zn1097 O1098 2.028 . S
Zn1097 O1100 2.028 . S
Zn1097 O1103 2.035 . S
O1098 Zn1097 2.028 . S
O1098 C1104 1.247 . S
O1099 Zn1095 2.035 . S
O1099 C1104 1.258 . S
O1100 C1093 1.247 . S
O1100 Zn1097 2.028 . S
O1101 C1093 1.258 . S
O1101 Zn1095 2.035 . S
O1102 Zn1095 2.028 . S
O1102 C1105 1.247 . S
O1103 Zn1097 2.035 . S
O1103 C1105 1.258 . S
C1104 O1098 1.247 . S
C1104 O1099 1.258 . S
C1105 O1102 1.247 . S
C1105 O1103 1.258 . S
C1106 O1108 1.247 . S
C1106 O1110 1.258 . S
C1107 O1114 1.247 . S
C1107 O1115 1.258 . S
O1108 C1106 1.247 . S
O1108 Zn1109 2.028 . S
Zn1109 O1108 2.028 . S
Zn1109 O1113 2.035 . S
Zn1109 O1115 2.035 . S
Zn1109 O1116 2.028 . S
O1110 C1106 1.258 . S
O1110 Zn1111 2.035 . S
Zn1111 O1110 2.035 . S
Zn1111 O1112 2.028 . S
Zn1111 O1114 2.028 . S
Zn1111 O1117 2.035 . S
O1112 Zn1111 2.028 . S
O1112 C1118 1.247 . S
O1113 Zn1109 2.035 . S
O1113 C1118 1.258 . S
O1114 C1107 1.247 . S
O1114 Zn1111 2.028 . S
O1115 C1107 1.258 . S
O1115 Zn1109 2.035 . S
O1116 Zn1109 2.028 . S
O1116 C1119 1.247 . S
O1117 Zn1111 2.035 . S
O1117 C1119 1.258 . S
C1118 O1112 1.247 . S
C1118 O1113 1.258 . S
C1119 O1116 1.247 . S
C1119 O1117 1.258 . S
C1120 O1122 1.247 . S
C1120 O1124 1.258 . S
C1121 O1128 1.247 . S
C1121 O1129 1.258 . S
O1122 C1120 1.247 . S
O1122 Zn1123 2.028 . S
Zn1123 O1122 2.028 . S
Zn1123 O1127 2.035 . S
Zn1123 O1129 2.035 . S
Zn1123 O1130 2.028 . S
O1124 C1120 1.258 . S
O1124 Zn1125 2.035 . S
Zn1125 O1124 2.035 . S
Zn1125 O1126 2.028 . S
Zn1125 O1128 2.028 . S
Zn1125 O1131 2.035 . S
O1126 Zn1125 2.028 . S
O1126 C1132 1.247 . S
O1127 Zn1123 2.035 . S
O1127 C1132 1.258 . S
O1128 C1121 1.247 . S
O1128 Zn1125 2.028 . S
O1129 C1121 1.258 . S
O1129 Zn1123 2.035 . S
O1130 Zn1123 2.028 . S
O1130 C1133 1.247 . S
O1131 Zn1125 2.035 . S
O1131 C1133 1.258 . S
C1132 O1126 1.247 . S
C1132 O1127 1.258 . S
C1133 O1130 1.247 . S
C1133 O1131 1.258 . S
C1134 O1136 1.247 . S
C1134 O1138 1.258 . S
C1135 O1142 1.247 . S
C1135 O1143 1.258 . S
O1136 C1134 1.247 . S
O1136 Zn1137 2.028 . S
Zn1137 O1136 2.028 . S
Zn1137 O1141 2.035 . S
Zn1137 O1143 2.035 . S
Zn1137 O1144 2.028 . S
O1138 C1134 1.258 . S
O1138 Zn1139 2.035 . S
Zn1139 O1138 2.035 . S
Zn1139 O1140 2.028 . S
Zn1139 O1142 2.028 . S
Zn1139 O1145 2.035 . S
O1140 Zn1139 2.028 . S
O1140 C1146 1.247 . S
O1141 Zn1137 2.035 . S
O1141 C1146 1.258 . S
O1142 C1135 1.247 . S
O1142 Zn1139 2.028 . S
O1143 C1135 1.258 . S
O1143 Zn1137 2.035 . S
O1144 Zn1137 2.028 . S
O1144 C1147 1.247 . S
O1145 Zn1139 2.035 . S
O1145 C1147 1.258 . S
C1146 O1140 1.247 . S
C1146 O1141 1.258 . S
C1147 O1144 1.247 . S
C1147 O1145 1.258 . S
C1148 O1150 1.247 . S
C1148 O1152 1.258 . S
C1149 O1156 1.247 . S
C1149 O1157 1.258 . S
O1150 C1148 1.247 . S
O1150 Zn1151 2.028 . S
Zn1151 O1150 2.028 . S
Zn1151 O1155 2.035 . S
Zn1151 O1157 2.035 . S
Zn1151 O1158 2.028 . S
O1152 C1148 1.258 . S
O1152 Zn1153 2.035 . S
Zn1153 O1152 2.035 . S
Zn1153 O1154 2.028 . S
Zn1153 O1156 2.028 . S
Zn1153 O1159 2.035 . S
O1154 Zn1153 2.028 . S
O1154 C1160 1.247 . S
O1155 Zn1151 2.035 . S
O1155 C1160 1.258 . S
O1156 C1149 1.247 . S
O1156 Zn1153 2.028 . S
O1157 C1149 1.258 . S
O1157 Zn1151 2.035 . S
O1158 Zn1151 2.028 . S
O1158 C1161 1.247 . S
O1159 Zn1153 2.035 . S
O1159 C1161 1.258 . S
C1160 O1154 1.247 . S
C1160 O1155 1.258 . S
C1161 O1158 1.247 . S
C1161 O1159 1.258 . S
C1162 O1164 1.247 . S
C1162 O1166 1.258 . S
C1163 O1170 1.247 . S
C1163 O1171 1.258 . S
O1164 C1162 1.247 . S
O1164 Zn1165 2.028 . S
Zn1165 O1164 2.028 . S
Zn1165 O1169 2.035 . S
Zn1165 O1171 2.035 . S
Zn1165 O1172 2.028 . S
O1166 C1162 1.258 . S
O1166 Zn1167 2.035 . S
Zn1167 O1166 2.035 . S
Zn1167 O1168 2.028 . S
Zn1167 O1170 2.028 . S
Zn1167 O1173 2.035 . S
O1168 Zn1167 2.028 . S
O1168 C1174 1.247 . S
O1169 Zn1165 2.035 . S
O1169 C1174 1.258 . S
O1170 C1163 1.247 . S
O1170 Zn1167 2.028 . S
O1171 C1163 1.258 . S
O1171 Zn1165 2.035 . S
O1172 Zn1165 2.028 . S
O1172 C1175 1.247 . S
O1173 Zn1167 2.035 . S
O1173 C1175 1.258 . S
C1174 O1168 1.247 . S
C1174 O1169 1.258 . S
C1175 O1172 1.247 . S
C1175 O1173 1.258 . S
C1176 O1178 1.247 . S
C1176 O1180 1.258 . S
C1177 O1184 1.247 . S
C1177 O1185 1.258 . S
O1178 C1176 1.247 . S
O1178 Zn1179 2.028 . S
Zn1179 O1178 2.028 . S
Zn1179 O1183 2.035 . S
Zn1179 O1185 2.035 . S
Zn1179 O1186 2.028 . S
O1180 C1176 1.258 . S
O1180 Zn1181 2.035 . S
Zn1181 O1180 2.035 . S
Zn1181 O1182 2.028 . S
Zn1181 O1184 2.028 . S
Zn1181 O1187 2.035 . S
O1182 Zn1181 2.028 . S
O1182 C1188 1.247 . S
O1183 Zn1179 2.035 . S
O1183 C1188 1.258 . S
O1184 C1177 1.247 . S
O1184 Zn1181 2.028 . S
O1185 C1177 1.258 . S
O1185 Zn1179 2.035 . S
O1186 Zn1179 2.028 . S
O1186 C1189 1.247 . S
O1187 Zn1181 2.035 . S
O1187 C1189 1.258 . S
C1188 O1182 1.247 . S
C1188 O1183 1.258 . S
C1189 O1186 1.247 . S
C1189 O1187 1.258 . S
C1190 O1192 1.247 . S
C1190 O1194 1.258 . S
C1191 O1198 1.247 . S
C1191 O1199 1.258 . S
O1192 C1190 1.247 . S
O1192 Zn1193 2.028 . S
Zn1193 O1192 2.028 . S
Zn1193 O1197 2.035 . S
Zn1193 O1199 2.035 . S
Zn1193 O1200 2.028 . S
O1194 C1190 1.258 . S
O1194 Zn1195 2.035 . S
Zn1195 O1194 2.035 . S
Zn1195 O1196 2.028 . S
Zn1195 O1198 2.028 . S
Zn1195 O1201 2.035 . S
O1196 Zn1195 2.028 . S
O1196 C1202 1.247 . S
O1197 Zn1193 2.035 . S
O1197 C1202 1.258 . S
O1198 C1191 1.247 . S
O1198 Zn1195 2.028 . S
O1199 C1191 1.258 . S
O1199 Zn1193 2.035 . S
O1200 Zn1193 2.028 . S
O1200 C1203 1.247 . S
O1201 Zn1195 2.035 . S
O1201 C1203 1.258 . S
C1202 O1196 1.247 . S
C1202 O1197 1.258 . S
C1203 O1200 1.247 . S
C1203 O1201 1.258 . S
C1204 O1206 1.247 . S
C1204 O1208 1.258 . S
C1205 O1212 1.247 . S
C1205 O1213 1.258 . S
O1206 C1204 1.247 . S
O1206 Zn1207 2.028 . S
Zn1207 O1206 2.028 . S
Zn1207 O1211 2.035 . S
Zn1207 O1213 2.035 . S
Zn1207 O1214 2.028 . S
O1208 C1204 1.258 . S
O1208 Zn1209 2.035 . S
Zn1209 O1208 2.035 . S
Zn1209 O1210 2.028 . S
Zn1209 O1212 2.028 . S
Zn1209 O1215 2.035 . S
O1210 Zn1209 2.028 . S
O1210 C1216 1.247 . S
O1211 Zn1207 2.035 . S
O1211 C1216 1.258 . S
O1212 C1205 1.247 . S
O1212 Zn1209 2.028 . S
O1213 C1205 1.258 . S
O1213 Zn1207 2.035 . S
O1214 Zn1207 2.028 . S
O1214 C1217 1.247 . S
O1215 Zn1209 2.035 . S
O1215 C1217 1.258 . S
C1216 O1210 1.247 . S
C1216 O1211 1.258 . S
C1217 O1214 1.247 . S
C1217 O1215 1.258 . S
C1218 O1220 1.247 . S
C1218 O1222 1.258 . S
C1219 O1226 1.247 . S
C1219 O1227 1.258 . S
O1220 C1218 1.247 . S
O1220 Zn1221 2.028 . S
Zn1221 O1220 2.028 . S
Zn1221 O1225 2.035 . S
Zn1221 O1227 2.035 . S
Zn1221 O1228 2.028 . S
O1222 C1218 1.258 . S
O1222 Zn1223 2.035 . S
Zn1223 O1222 2.035 . S
Zn1223 O1224 2.028 . S
Zn1223 O1226 2.028 . S
Zn1223 O1229 2.035 . S
O1224 Zn1223 2.028 . S
O1224 C1230 1.247 . S
O1225 Zn1221 2.035 . S
O1225 C1230 1.258 . S
O1226 C1219 1.247 . S
O1226 Zn1223 2.028 . S
O1227 C1219 1.258 . S
O1227 Zn1221 2.035 . S
O1228 Zn1221 2.028 . S
O1228 C1231 1.247 . S
O1229 Zn1223 2.035 . S
O1229 C1231 1.258 . S
C1230 O1224 1.247 . S
C1230 O1225 1.258 . S
C1231 O1228 1.247 . S
C1231 O1229 1.258 . S
C1232 O1234 1.247 . S
C1232 O1236 1.258 . S
C1233 O1240 1.247 . S
C1233 O1241 1.258 . S
O1234 C1232 1.247 . S
O1234 Zn1235 2.028 . S
Zn1235 O1234 2.028 . S
Zn1235 O1239 2.035 . S
Zn1235 O1241 2.035 . S
Zn1235 O1242 2.028 . S
O1236 C1232 1.258 . S
O1236 Zn1237 2.035 . S
Zn1237 O1236 2.035 . S
Zn1237 O1238 2.028 . S
Zn1237 O1240 2.028 . S
Zn1237 O1243 2.035 . S
O1238 Zn1237 2.028 . S
O1238 C1244 1.247 . S
O1239 Zn1235 2.035 . S
O1239 C1244 1.258 . S
O1240 C1233 1.247 . S
O1240 Zn1237 2.028 . S
O1241 C1233 1.258 . S
O1241 Zn1235 2.035 . S
O1242 Zn1235 2.028 . S
O1242 C1245 1.247 . S
O1243 Zn1237 2.035 . S
O1243 C1245 1.258 . S
C1244 O1238 1.247 . S
C1244 O1239 1.258 . S
C1245 O1242 1.247 . S
C1245 O1243 1.258 . S
C1246 O1248 1.247 . S
C1246 O1250 1.258 . S
C1247 O1254 1.247 . S
C1247 O1255 1.258 . S
O1248 C1246 1.247 . S
O1248 Zn1249 2.028 . S
Zn1249 O1248 2.028 . S
Zn1249 O1253 2.035 . S
Zn1249 O1255 2.035 . S
Zn1249 O1256 2.028 . S
O1250 C1246 1.258 . S
O1250 Zn1251 2.035 . S
Zn1251 O1250 2.035 . S
Zn1251 O1252 2.028 . S
Zn1251 O1254 2.028 . S
Zn1251 O1257 2.035 . S
O1252 Zn1251 2.028 . S
O1252 C1258 1.247 . S
O1253 Zn1249 2.035 . S
O1253 C1258 1.258 . S
O1254 C1247 1.247 . S
O1254 Zn1251 2.028 . S
O1255 C1247 1.258 . S
O1255 Zn1249 2.035 . S
O1256 Zn1249 2.028 . S
O1256 C1259 1.247 . S
O1257 Zn1251 2.035 . S
O1257 C1259 1.258 . S
C1258 O1252 1.247 . S
C1258 O1253 1.258 . S
C1259 O1256 1.247 . S
C1259 O1257 1.258 . S
C1260 O1262 1.247 . S
C1260 O1264 1.258 . S
C1261 O1268 1.247 . S
C1261 O1269 1.258 . S
O1262 C1260 1.247 . S
O1262 Zn1263 2.028 . S
Zn1263 O1262 2.028 . S
Zn1263 O1267 2.035 . S
Zn1263 O1269 2.035 . S
Zn1263 O1270 2.028 . S
O1264 C1260 1.258 . S
O1264 Zn1265 2.035 . S
Zn1265 O1264 2.035 . S
Zn1265 O1266 2.028 . S
Zn1265 O1268 2.028 . S
Zn1265 O1271 2.035 . S
O1266 Zn1265 2.028 . S
O1266 C1272 1.247 . S
O1267 Zn1263 2.035 . S
O1267 C1272 1.258 . S
O1268 C1261 1.247 . S
O1268 Zn1265 2.028 . S
O1269 C1261 1.258 . S
O1269 Zn1263 2.035 . S
O1270 Zn1263 2.028 . S
O1270 C1273 1.247 . S
O1271 Zn1265 2.035 . S
O1271 C1273 1.258 . S
C1272 O1266 1.247 . S
C1272 O1267 1.258 . S
C1273 O1270 1.247 . S
C1273 O1271 1.258 . S
C1274 O1276 1.247 . S
C1274 O1278 1.258 . S
C1275 O1282 1.247 . S
C1275 O1283 1.258 . S
O1276 C1274 1.247 . S
O1276 Zn1277 2.028 . S
Zn1277 O1276 2.028 . S
Zn1277 O1281 2.035 . S
Zn1277 O1283 2.035 . S
Zn1277 O1284 2.028 . S
O1278 C1274 1.258 . S
O1278 Zn1279 2.035 . S
Zn1279 O1278 2.035 . S
Zn1279 O1280 2.028 . S
Zn1279 O1282 2.028 . S
Zn1279 O1285 2.035 . S
O1280 Zn1279 2.028 . S
O1280 C1286 1.247 . S
O1281 Zn1277 2.035 . S
O1281 C1286 1.258 . S
O1282 C1275 1.247 . S
O1282 Zn1279 2.028 . S
O1283 C1275 1.258 . S
O1283 Zn1277 2.035 . S
O1284 Zn1277 2.028 . S
O1284 C1287 1.247 . S
O1285 Zn1279 2.035 . S
O1285 C1287 1.258 . S
C1286 O1280 1.247 . S
C1286 O1281 1.258 . S
C1287 O1284 1.247 . S
C1287 O1285 1.258 . S
C1288 O1290 1.247 . S
C1288 O1292 1.258 . S
C1289 O1296 1.247 . S
C1289 O1297 1.258 . S
O1290 C1288 1.247 . S
O1290 Zn1291 2.028 . S
Zn1291 O1290 2.028 . S
Zn1291 O1295 2.035 . S
Zn1291 O1297 2.035 . S
Zn1291 O1298 2.028 . S
O1292 C1288 1.258 . S
O1292 Zn1293 2.035 . S
Zn1293 O1292 2.035 . S
Zn1293 O1294 2.028 . S
Zn1293 O1296 2.028 . S
Zn1293 O1299 2.035 . S
O1294 Zn1293 2.028 . S
O1294 C1300 1.247 . S
O1295 Zn1291 2.035 . S
O1295 C1300 1.258 . S
O1296 C1289 1.247 . S
O1296 Zn1293 2.028 . S
O1297 C1289 1.258 . S
O1297 Zn1291 2.035 . S
O1298 Zn1291 2.028 . S
O1298 C1301 1.247 . S
O1299 Zn1293 2.035 . S
O1299 C1301 1.258 . S
C1300 O1294 1.247 . S
C1300 O1295 1.258 . S
C1301 O1298 1.247 . S
C1301 O1299 1.258 . S
C1302 O1304 1.247 . S
C1302 O1306 1.258 . S
C1303 O1310 1.247 . S
C1303 O1311 1.258 . S
O1304 C1302 1.247 . S
O1304 Zn1305 2.028 . S
Zn1305 O1304 2.028 . S
Zn1305 O1309 2.035 . S
Zn1305 O1311 2.035 . S
Zn1305 O1312 2.028 . S
O1306 C1302 1.258 . S
O1306 Zn1307 2.035 . S
Zn1307 O1306 2.035 . S
Zn1307 O1308 2.028 . S
Zn1307 O1310 2.028 . S
Zn1307 O1313 2.035 . S
O1308 Zn1307 2.028 . S
O1308 C1314 1.247 . S
O1309 Zn1305 2.035 . S
O1309 C1314 1.258 . S
O1310 C1303 1.247 . S
O1310 Zn1307 2.028 . S
O1311 C1303 1.258 . S
O1311 Zn1305 2.035 . S
O1312 Zn1305 2.028 . S
O1312 C1315 1.247 . S
O1313 Zn1307 2.035 . S
O1313 C1315 1.258 . S
C1314 O1308 1.247 . S
C1314 O1309 1.258 . S
C1315 O1312 1.247 . S
C1315 O1313 1.258 . S
C1316 O1318 1.247 . S
C1316 O1320 1.258 . S
C1317 O1324 1.247 . S
C1317 O1325 1.258 . S
O1318 C1316 1.247 . S
O1318 Zn1319 2.028 . S
Zn1319 O1318 2.028 . S
Zn1319 O1323 2.035 . S
Zn1319 O1325 2.035 . S
Zn1319 O1326 2.028 . S
O1320 C1316 1.258 . S
O1320 Zn1321 2.035 . S
Zn1321 O1320 2.035 . S
Zn1321 O1322 2.028 . S
Zn1321 O1324 2.028 . S
Zn1321 O1327 2.035 . S
O1322 Zn1321 2.028 . S
O1322 C1328 1.247 . S
O1323 Zn1319 2.035 . S
O1323 C1328 1.258 . S
O1324 C1317 1.247 . S
O1324 Zn1321 2.028 . S
O1325 C1317 1.258 . S
O1325 Zn1319 2.035 . S
O1326 Zn1319 2.028 . S
O1326 C1329 1.247 . S
O1327 Zn1321 2.035 . S
O1327 C1329 1.258 . S
C1328 O1322 1.247 . S
C1328 O1323 1.258 . S
C1329 O1326 1.247 . S
C1329 O1327 1.258 . S
C1330 O1332 1.247 . S
C1330 O1334 1.258 . S
C1331 O1338 1.247 . S
C1331 O1339 1.258 . S
O1332 C1330 1.247 . S
O1332 Zn1333 2.028 . S
Zn1333 O1332 2.028 . S
Zn1333 O1337 2.035 . S
Zn1333 O1339 2.035 . S
Zn1333 O1340 2.028 . S
O1334 C1330 1.258 . S
O1334 Zn1335 2.035 . S
Zn1335 O1334 2.035 . S
Zn1335 O1336 2.028 . S
Zn1335 O1338 2.028 . S
Zn1335 O1341 2.035 . S
O1336 Zn1335 2.028 . S
O1336 C1342 1.247 . S
O1337 Zn1333 2.035 . S
O1337 C1342 1.258 . S
O1338 C1331 1.247 . S
O1338 Zn1335 2.028 . S
O1339 C1331 1.258 . S
O1339 Zn1333 2.035 . S
O1340 Zn1333 2.028 . S
O1340 C1343 1.247 . S
O1341 Zn1335 2.035 . S
O1341 C1343 1.258 . S
C1342 O1336 1.247 . S
C1342 O1337 1.258 . S
C1343 O1340 1.247 . S
C1343 O1341 1.258 . S
H1344 C1350 0.930 . S
H1345 C1353 0.930 . S
H1346 C1354 0.946 . S
H1347 C1355 0.930 . S
H1348 C1358 0.930 . S
H1349 C1359 0.946 . S
C1350 H1344 0.930 . S
C1350 C1351 1.355 . S
C1350 C1352 1.427 . S
C1351 C1350 1.355 . S
C1351 C1353 1.419 . S
C1352 C1350 1.427 . S
C1352 C1357 1.425 1_454 S
C1352 C1359 1.405 1_554 S
C1353 H1345 0.930 . S
C1353 C1351 1.419 . S
C1353 C1354 1.341 1_455 S
C1354 H1346 0.946 . S
C1354 C1353 1.341 1_655 S
C1354 C1357 1.405 1_554 S
C1355 H1347 0.930 . S
C1355 C1356 1.355 . S
C1355 C1357 1.427 . S
C1356 C1355 1.355 . S
C1356 C1358 1.419 . S
C1357 C1352 1.425 1_656 S
C1357 C1354 1.405 1_556 S
C1357 C1355 1.427 . S
C1358 H1348 0.930 . S
C1358 C1356 1.419 . S
C1358 C1359 1.341 1_655 S
C1359 H1349 0.946 . S
C1359 C1352 1.405 1_556 S
C1359 C1358 1.341 1_455 S
H1360 C1366 0.930 . S
H1361 C1369 0.930 . S
H1362 C1370 0.930 . S
H1363 C1371 0.930 . S
H1364 C1374 0.930 . S
H1365 C1375 0.930 . S
C1366 H1360 0.930 . S
C1366 C1367 1.355 . S
C1366 C1368 1.415 . S
C1367 C1366 1.355 . S
C1367 C1369 1.419 . S
C1368 C1366 1.415 . S
C1368 C1373 1.425 . S
C1368 C1375 1.409 . S
C1369 H1361 0.930 . S
C1369 C1367 1.419 . S
C1369 C1370 1.362 . S
C1370 H1362 0.930 . S
C1370 C1369 1.362 . S
C1370 C1373 1.409 . S
C1371 H1363 0.930 . S
C1371 C1372 1.355 . S
C1371 C1373 1.415 . S
C1372 C1371 1.355 . S
C1372 C1374 1.419 . S
C1373 C1368 1.425 . S
C1373 C1370 1.409 . S
C1373 C1371 1.415 . S
C1374 H1364 0.930 . S
C1374 C1372 1.419 . S
C1374 C1375 1.362 . S
C1375 H1365 0.930 . S
C1375 C1368 1.409 . S
C1375 C1374 1.362 . S
H1376 C1382 0.930 . S
H1377 C1385 0.930 . S
H1378 C1386 0.930 . S
H1379 C1387 0.930 . S
H1380 C1390 0.930 . S
H1381 C1391 0.930 . S
C1382 H1376 0.930 . S
C1382 C1383 1.355 . S
C1382 C1384 1.415 . S
C1383 C1382 1.355 . S
C1383 C1385 1.419 . S
C1384 C1382 1.415 . S
C1384 C1389 1.425 1_655 S
C1384 C1391 1.409 . S
C1385 H1377 0.930 . S
C1385 C1383 1.419 . S
C1385 C1386 1.362 1_655 S
C1386 H1378 0.930 . S
C1386 C1385 1.362 1_455 S
C1386 C1389 1.409 . S
C1387 H1379 0.930 . S
C1387 C1388 1.355 . S
C1387 C1389 1.415 . S
C1388 C1387 1.355 . S
C1388 C1390 1.419 . S
C1389 C1384 1.425 1_455 S
C1389 C1386 1.409 . S
C1389 C1387 1.415 . S
C1390 H1380 0.930 . S
C1390 C1388 1.419 . S
C1390 C1391 1.362 1_455 S
C1391 H1381 0.930 . S
C1391 C1384 1.409 . S
C1391 C1390 1.362 1_655 S
H1392 C1398 0.930 . S
H1393 C1401 0.930 . S
H1394 C1402 0.930 . S
H1395 C1403 0.930 . S
H1396 C1406 0.930 . S
H1397 C1407 0.930 . S
C1398 H1392 0.930 . S
C1398 C1399 1.355 . S
C1398 C1400 1.415 . S
C1399 C1398 1.355 . S
C1399 C1401 1.419 . S
C1400 C1398 1.415 . S
C1400 C1405 1.425 . S
C1400 C1407 1.409 . S
C1401 H1393 0.930 . S
C1401 C1399 1.419 . S
C1401 C1402 1.362 . S
C1402 H1394 0.930 . S
C1402 C1401 1.362 . S
C1402 C1405 1.409 . S
C1403 H1395 0.930 . S
C1403 C1404 1.355 . S
C1403 C1405 1.415 . S
C1404 C1403 1.355 . S
C1404 C1406 1.419 . S
C1405 C1400 1.425 . S
C1405 C1402 1.409 . S
C1405 C1403 1.415 . S
C1406 H1396 0.930 . S
C1406 C1404 1.419 . S
C1406 C1407 1.362 . S
C1407 H1397 0.930 . S
C1407 C1400 1.409 . S
C1407 C1406 1.362 . S
H1408 C1414 0.930 . S
H1409 C1417 0.930 . S
H1410 C1418 0.930 . S
H1411 C1419 0.930 . S
H1412 C1422 0.930 . S
H1413 C1423 0.930 . S
C1414 H1408 0.930 . S
C1414 C1415 1.355 . S
C1414 C1416 1.415 1_554 S
C1415 C1414 1.355 . S
C1415 C1417 1.419 . S
C1416 C1414 1.415 1_556 S
C1416 C1421 1.425 1_656 S
C1416 C1423 1.409 . S
C1417 H1409 0.930 . S
C1417 C1415 1.419 . S
C1417 C1418 1.362 1_655 S
C1418 H1410 0.930 . S
C1418 C1417 1.362 1_455 S
C1418 C1421 1.409 . S
C1419 H1411 0.930 . S
C1419 C1420 1.355 . S
C1419 C1421 1.415 1_556 S
C1420 C1419 1.355 . S
C1420 C1422 1.419 . S
C1421 C1416 1.425 1_454 S
C1421 C1418 1.409 . S
C1421 C1419 1.415 1_554 S
C1422 H1412 0.930 . S
C1422 C1420 1.419 . S
C1422 C1423 1.362 1_455 S
C1423 H1413 0.930 . S
C1423 C1416 1.409 . S
C1423 C1422 1.362 1_655 S
H1424 C1430 0.930 . S
H1425 C1433 0.930 . S
H1426 C1434 0.930 . S
H1427 C1435 0.930 . S
H1428 C1438 0.930 . S
H1429 C1439 0.930 . S
C1430 H1424 0.930 . S
C1430 C1431 1.355 . S
C1430 C1432 1.415 . S
C1431 C1430 1.355 . S
C1431 C1433 1.419 . S
C1432 C1430 1.415 . S
C1432 C1437 1.425 . S
C1432 C1439 1.409 . S
C1433 H1425 0.930 . S
C1433 C1431 1.419 . S
C1433 C1434 1.362 . S
C1434 H1426 0.930 . S
C1434 C1433 1.362 . S
C1434 C1437 1.409 . S
C1435 H1427 0.930 . S
C1435 C1436 1.355 . S
C1435 C1437 1.415 . S
C1436 C1435 1.355 . S
C1436 C1438 1.419 . S
C1437 C1432 1.425 . S
C1437 C1434 1.409 . S
C1437 C1435 1.415 . S
C1438 H1428 0.930 . S
C1438 C1436 1.419 . S
C1438 C1439 1.362 . S
C1439 H1429 0.930 . S
C1439 C1432 1.409 . S
C1439 C1438 1.362 . S
H1440 C1446 0.930 1_655 S
H1441 C1449 0.930 . S
H1442 C1450 0.930 . S
H1443 C1451 0.930 1_455 S
H1444 C1454 0.930 . S
H1445 C1455 0.930 . S
C1446 H1440 0.930 1_455 S
C1446 C1447 1.355 . S
C1446 C1448 1.415 1_455 S
C1447 C1446 1.355 . S
C1447 C1449 1.419 . S
C1448 C1446 1.415 1_655 S
C1448 C1453 1.425 1_655 S
C1448 C1455 1.409 . S
C1449 H1441 0.930 . S
C1449 C1447 1.419 . S
C1449 C1450 1.362 . S
C1450 H1442 0.930 . S
C1450 C1449 1.362 . S
C1450 C1453 1.409 . S
C1451 H1443 0.930 1_655 S
C1451 C1452 1.355 . S
C1451 C1453 1.415 1_655 S
C1452 C1451 1.355 . S
C1452 C1454 1.419 . S
C1453 C1448 1.425 1_455 S
C1453 C1450 1.409 . S
C1453 C1451 1.415 1_455 S
C1454 H1444 0.930 . S
C1454 C1452 1.419 . S
C1454 C1455 1.362 . S
C1455 H1445 0.930 . S
C1455 C1448 1.409 . S
C1455 C1454 1.362 . S
H1456 C1462 0.930 . S
H1457 C1465 0.930 . S
H1458 C1466 0.930 . S
H1459 C1467 0.930 . S
H1460 C1470 0.930 . S
H1461 C1471 0.930 . S
C1462 H1456 0.930 . S
C1462 C1463 1.355 . S
C1462 C1464 1.415 . S
C1463 C1462 1.355 . S
C1463 C1465 1.419 . S
C1464 C1462 1.415 . S
C1464 C1469 1.425 . S
C1464 C1471 1.409 . S
C1465 H1457 0.930 . S
C1465 C1463 1.419 . S
C1465 C1466 1.362 . S
C1466 H1458 0.930 . S
C1466 C1465 1.362 . S
C1466 C1469 1.409 . S
C1467 H1459 0.930 . S
C1467 C1468 1.355 . S
C1467 C1469 1.415 . S
C1468 C1467 1.355 . S
C1468 C1470 1.419 . S
C1469 C1464 1.425 . S
C1469 C1466 1.409 . S
C1469 C1467 1.415 . S
C1470 H1460 0.930 . S
C1470 C1468 1.419 . S
C1470 C1471 1.362 . S
C1471 H1461 0.930 . S
C1471 C1464 1.409 . S
C1471 C1470 1.362 . S
H1472 C1478 0.911 1_545 S
H1473 C1481 0.930 . S
H1474 C1482 0.930 . S
H1475 C1483 0.911 1_565 S
H1476 C1486 0.930 . S
H1477 C1487 0.930 . S
C1478 H1472 0.911 1_565 S
C1478 C1479 1.355 . S
C1478 C1480 1.415 1_565 S
C1479 C1478 1.355 . S
C1479 C1481 1.419 . S
C1480 C1478 1.415 1_545 S
C1480 C1485 1.425 1_645 S
C1480 C1487 1.409 . S
C1481 H1473 0.930 . S
C1481 C1479 1.419 . S
C1481 C1482 1.362 1_655 S
C1482 H1474 0.930 . S
C1482 C1481 1.362 1_455 S
C1482 C1485 1.409 . S
C1483 H1475 0.911 1_545 S
C1483 C1484 1.355 . S
C1483 C1485 1.415 1_545 S
C1484 C1483 1.355 . S
C1484 C1486 1.419 . S
C1485 C1480 1.425 1_465 S
C1485 C1482 1.409 . S
C1485 C1483 1.415 1_565 S
C1486 H1476 0.930 . S
C1486 C1484 1.419 . S
C1486 C1487 1.362 1_455 S
C1487 H1477 0.930 . S
C1487 C1480 1.409 . S
C1487 C1486 1.362 1_655 S
H1488 C1494 0.930 . S
H1489 C1497 0.930 . S
H1490 C1498 0.930 . S
H1491 C1499 0.930 . S
H1492 C1502 0.930 . S
H1493 C1503 0.930 . S
C1494 H1488 0.930 . S
C1494 C1495 1.355 . S
C1494 C1496 1.415 . S
C1495 C1494 1.355 . S
C1495 C1497 1.419 . S
C1496 C1494 1.415 . S
C1496 C1501 1.425 . S
C1496 C1503 1.409 . S
C1497 H1489 0.930 . S
C1497 C1495 1.419 . S
C1497 C1498 1.362 . S
C1498 H1490 0.930 . S
C1498 C1497 1.362 . S
C1498 C1501 1.409 . S
C1499 H1491 0.930 . S
C1499 C1500 1.355 . S
C1499 C1501 1.415 . S
C1500 C1499 1.355 . S
C1500 C1502 1.419 . S
C1501 C1496 1.425 . S
C1501 C1498 1.409 . S
C1501 C1499 1.415 . S
C1502 H1492 0.930 . S
C1502 C1500 1.419 . S
C1502 C1503 1.362 . S
C1503 H1493 0.930 . S
C1503 C1496 1.409 . S
C1503 C1502 1.362 . S
H1504 C1510 0.930 . S
H1505 C1513 0.930 . S
H1506 C1514 0.930 . S
H1507 C1515 0.930 . S
H1508 C1518 0.930 . S
H1509 C1519 0.930 . S
C1510 H1504 0.930 . S
C1510 C1511 1.355 . S
C1510 C1512 1.415 . S
C1511 C1510 1.355 . S
C1511 C1513 1.419 . S
C1512 C1510 1.415 . S
C1512 C1517 1.425 1_655 S
C1512 C1519 1.409 . S
C1513 H1505 0.930 . S
C1513 C1511 1.419 . S
C1513 C1514 1.362 1_655 S
C1514 H1506 0.930 . S
C1514 C1513 1.362 1_455 S
C1514 C1517 1.409 . S
C1515 H1507 0.930 . S
C1515 C1516 1.355 . S
C1515 C1517 1.415 . S
C1516 C1515 1.355 . S
C1516 C1518 1.419 . S
C1517 C1512 1.425 1_455 S
C1517 C1514 1.409 . S
C1517 C1515 1.415 . S
C1518 H1508 0.930 . S
C1518 C1516 1.419 . S
C1518 C1519 1.362 1_455 S
C1519 H1509 0.930 . S
C1519 C1512 1.409 . S
C1519 C1518 1.362 1_655 S
H1520 C1526 0.930 . S
H1521 C1529 0.930 . S
H1522 C1530 0.930 . S
H1523 C1531 0.930 . S
H1524 C1534 0.930 . S
H1525 C1535 0.930 . S
C1526 H1520 0.930 . S
C1526 C1527 1.355 . S
C1526 C1528 1.415 . S
C1527 C1526 1.355 . S
C1527 C1529 1.419 . S
C1528 C1526 1.415 . S
C1528 C1533 1.425 . S
C1528 C1535 1.409 . S
C1529 H1521 0.930 . S
C1529 C1527 1.419 . S
C1529 C1530 1.362 . S
C1530 H1522 0.930 . S
C1530 C1529 1.362 . S
C1530 C1533 1.409 . S
C1531 H1523 0.930 . S
C1531 C1532 1.355 . S
C1531 C1533 1.415 . S
C1532 C1531 1.355 . S
C1532 C1534 1.419 . S
C1533 C1528 1.425 . S
C1533 C1530 1.409 . S
C1533 C1531 1.415 . S
C1534 H1524 0.930 . S
C1534 C1532 1.419 . S
C1534 C1535 1.362 . S
C1535 H1525 0.930 . S
C1535 C1528 1.409 . S
C1535 C1534 1.362 . S
H1536 C1542 0.930 . S
H1537 C1545 0.930 . S
H1538 C1546 0.930 . S
H1539 C1547 0.930 . S
H1540 C1550 0.930 . S
H1541 C1551 0.930 . S
C1542 H1536 0.930 . S
C1542 C1543 1.355 . S
C1542 C1544 1.415 1_565 S
C1543 C1542 1.355 . S
C1543 C1545 1.419 . S
C1544 C1542 1.415 1_545 S
C1544 C1549 1.425 1_445 S
C1544 C1551 1.409 . S
C1545 H1537 0.930 . S
C1545 C1543 1.419 . S
C1545 C1546 1.362 1_455 S
C1546 H1538 0.930 . S
C1546 C1545 1.362 1_655 S
C1546 C1549 1.409 . S
C1547 H1539 0.930 . S
C1547 C1548 1.355 . S
C1547 C1549 1.415 1_545 S
C1548 C1547 1.355 . S
C1548 C1550 1.419 . S
C1549 C1544 1.425 1_665 S
C1549 C1546 1.409 . S
C1549 C1547 1.415 1_565 S
C1550 H1540 0.930 . S
C1550 C1548 1.419 . S
C1550 C1551 1.362 1_655 S
C1551 H1541 0.930 . S
C1551 C1544 1.409 . S
C1551 C1550 1.362 1_455 S
H1552 C1558 0.930 . S
H1553 C1561 0.930 . S
H1554 C1562 0.930 . S
H1555 C1563 0.930 . S
H1556 C1566 0.930 . S
H1557 C1567 0.930 . S
C1558 H1552 0.930 . S
C1558 C1559 1.355 . S
C1558 C1560 1.415 . S
C1559 C1558 1.355 . S
C1559 C1561 1.419 . S
C1560 C1558 1.415 . S
C1560 C1565 1.425 . S
C1560 C1567 1.409 . S
C1561 H1553 0.930 . S
C1561 C1559 1.419 . S
C1561 C1562 1.362 . S
C1562 H1554 0.930 . S
C1562 C1561 1.362 . S
C1562 C1565 1.409 . S
C1563 H1555 0.930 . S
C1563 C1564 1.355 . S
C1563 C1565 1.415 . S
C1564 C1563 1.355 . S
C1564 C1566 1.419 . S
C1565 C1560 1.425 . S
C1565 C1562 1.409 . S
C1565 C1563 1.415 . S
C1566 H1556 0.930 . S
C1566 C1564 1.419 . S
C1566 C1567 1.362 . S
C1567 H1557 0.930 . S
C1567 C1560 1.409 . S
C1567 C1566 1.362 . S
H1568 C1574 0.930 . S
H1569 C1577 0.930 . S
H1570 C1578 0.930 . S
H1571 C1579 0.930 . S
H1572 C1582 0.930 . S
H1573 C1583 0.930 . S
C1574 H1568 0.930 . S
C1574 C1575 1.355 . S
C1574 C1576 1.415 1_455 S
C1575 C1574 1.355 . S
C1575 C1577 1.419 . S
C1576 C1574 1.415 1_655 S
C1576 C1581 1.425 1_655 S
C1576 C1583 1.409 . S
C1577 H1569 0.930 . S
C1577 C1575 1.419 . S
C1577 C1578 1.362 . S
C1578 H1570 0.930 . S
C1578 C1577 1.362 . S
C1578 C1581 1.409 . S
C1579 H1571 0.930 . S
C1579 C1580 1.355 . S
C1579 C1581 1.415 1_655 S
C1580 C1579 1.355 . S
C1580 C1582 1.419 . S
C1581 C1576 1.425 1_455 S
C1581 C1578 1.409 . S
C1581 C1579 1.415 1_455 S
C1582 H1572 0.930 . S
C1582 C1580 1.419 . S
C1582 C1583 1.362 . S
C1583 H1573 0.930 . S
C1583 C1576 1.409 . S
C1583 C1582 1.362 . S
H1584 C1590 0.930 . S
H1585 C1593 0.930 . S
H1586 C1594 0.930 . S
H1587 C1595 0.930 . S
H1588 C1598 0.930 . S
H1589 C1599 0.930 . S
C1590 H1584 0.930 . S
C1590 C1591 1.355 . S
C1590 C1592 1.415 . S
C1591 C1590 1.355 . S
C1591 C1593 1.419 . S
C1592 C1590 1.415 . S
C1592 C1597 1.425 . S
C1592 C1599 1.409 . S
C1593 H1585 0.930 . S
C1593 C1591 1.419 . S
C1593 C1594 1.362 . S
C1594 H1586 0.930 . S
C1594 C1593 1.362 . S
C1594 C1597 1.409 . S
C1595 H1587 0.930 . S
C1595 C1596 1.355 . S
C1595 C1597 1.415 . S
C1596 C1595 1.355 . S
C1596 C1598 1.419 . S
C1597 C1592 1.425 . S
C1597 C1594 1.409 . S
C1597 C1595 1.415 . S
C1598 H1588 0.930 . S
C1598 C1596 1.419 . S
C1598 C1599 1.362 . S
C1599 H1589 0.930 . S
C1599 C1592 1.409 . S
C1599 C1598 1.362 . S
H1600 C1606 0.930 . S
H1601 C1609 0.930 . S
H1602 C1610 0.930 1_554 S
H1603 C1611 0.930 . S
H1604 C1614 0.930 . S
H1605 C1615 0.930 1_556 S
C1606 H1600 0.930 . S
C1606 C1607 1.355 . S
C1606 C1608 1.459 . S
C1607 C1606 1.355 . S
C1607 C1609 1.419 . S
C1608 C1606 1.459 . S
C1608 C1613 1.418 1_566 S
C1608 C1615 1.372 1_566 S
C1609 H1601 0.930 . S
C1609 C1607 1.419 . S
C1609 C1610 1.362 . S
C1610 H1602 0.930 1_556 S
C1610 C1609 1.362 . S
C1610 C1613 1.372 1_566 S
C1611 H1603 0.930 . S
C1611 C1612 1.355 . S
C1611 C1613 1.459 . S
C1612 C1611 1.355 . S
C1612 C1614 1.419 . S
C1613 C1608 1.418 1_544 S
C1613 C1610 1.372 1_544 S
C1613 C1611 1.459 . S
C1614 H1604 0.930 . S
C1614 C1612 1.419 . S
C1614 C1615 1.362 . S
C1615 H1605 0.930 1_554 S
C1615 C1608 1.372 1_544 S
C1615 C1614 1.362 . S
H1616 C1622 0.930 . S
H1617 C1625 0.930 . S
H1618 C1626 0.930 . S
H1619 C1627 0.930 . S
H1620 C1630 0.930 . S
H1621 C1631 0.930 . S
C1622 H1616 0.930 . S
C1622 C1623 1.355 . S
C1622 C1624 1.415 . S
C1623 C1622 1.355 . S
C1623 C1625 1.419 . S
C1624 C1622 1.415 . S
C1624 C1629 1.425 1_545 S
C1624 C1631 1.409 . S
C1625 H1617 0.930 . S
C1625 C1623 1.419 . S
C1625 C1626 1.362 1_545 S
C1626 H1618 0.930 . S
C1626 C1625 1.362 1_565 S
C1626 C1629 1.409 . S
C1627 H1619 0.930 . S
C1627 C1628 1.355 . S
C1627 C1629 1.415 . S
C1628 C1627 1.355 . S
C1628 C1630 1.419 . S
C1629 C1624 1.425 1_565 S
C1629 C1626 1.409 . S
C1629 C1627 1.415 . S
C1630 H1620 0.930 . S
C1630 C1628 1.419 . S
C1630 C1631 1.362 1_565 S
C1631 H1621 0.930 . S
C1631 C1624 1.409 . S
C1631 C1630 1.362 1_545 S
H1632 C1638 0.930 . S
H1633 C1641 0.930 . S
H1634 C1642 0.930 . S
H1635 C1643 0.930 . S
H1636 C1646 0.930 . S
H1637 C1647 0.930 . S
C1638 H1632 0.930 . S
C1638 C1639 1.355 . S
C1638 C1640 1.415 . S
C1639 C1638 1.355 . S
C1639 C1641 1.419 . S
C1640 C1638 1.415 . S
C1640 C1645 1.425 . S
C1640 C1647 1.409 . S
C1641 H1633 0.930 . S
C1641 C1639 1.419 . S
C1641 C1642 1.362 . S
C1642 H1634 0.930 . S
C1642 C1641 1.362 . S
C1642 C1645 1.409 . S
C1643 H1635 0.930 . S
C1643 C1644 1.355 . S
C1643 C1645 1.415 . S
C1644 C1643 1.355 . S
C1644 C1646 1.419 . S
C1645 C1640 1.425 . S
C1645 C1642 1.409 . S
C1645 C1643 1.415 . S
C1646 H1636 0.930 . S
C1646 C1644 1.419 . S
C1646 C1647 1.362 . S
C1647 H1637 0.930 . S
C1647 C1640 1.409 . S
C1647 C1646 1.362 . S
H1648 C1654 0.930 . S
H1649 C1657 0.930 . S
H1650 C1658 0.930 . S
H1651 C1659 0.930 . S
H1652 C1662 0.930 . S
H1653 C1663 0.930 . S
C1654 H1648 0.930 . S
C1654 C1655 1.355 . S
C1654 C1656 1.415 . S
C1655 C1654 1.355 . S
C1655 C1657 1.419 . S
C1656 C1654 1.415 . S
C1656 C1661 1.425 1_554 S
C1656 C1663 1.409 . S
C1657 H1649 0.930 . S
C1657 C1655 1.419 . S
C1657 C1658 1.362 1_554 S
C1658 H1650 0.930 . S
C1658 C1657 1.362 1_556 S
C1658 C1661 1.409 . S
C1659 H1651 0.930 . S
C1659 C1660 1.355 . S
C1659 C1661 1.415 . S
C1660 C1659 1.355 . S
C1660 C1662 1.419 . S
C1661 C1656 1.425 1_556 S
C1661 C1658 1.409 . S
C1661 C1659 1.415 . S
C1662 H1652 0.930 . S
C1662 C1660 1.419 . S
C1662 C1663 1.362 1_556 S
C1663 H1653 0.930 . S
C1663 C1656 1.409 . S
C1663 C1662 1.362 1_554 S
H1664 C1670 0.930 . S
H1665 C1673 0.930 . S
H1666 C1674 0.930 . S
H1667 C1675 0.930 . S
H1668 C1678 0.930 . S
H1669 C1679 0.930 . S
C1670 H1664 0.930 . S
C1670 C1671 1.355 . S
C1670 C1672 1.415 . S
C1671 C1670 1.355 . S
C1671 C1673 1.419 . S
C1672 C1670 1.415 . S
C1672 C1677 1.425 . S
C1672 C1679 1.409 . S
C1673 H1665 0.930 . S
C1673 C1671 1.419 . S
C1673 C1674 1.362 . S
C1674 H1666 0.930 . S
C1674 C1673 1.362 . S
C1674 C1677 1.409 . S
C1675 H1667 0.930 . S
C1675 C1676 1.355 . S
C1675 C1677 1.415 . S
C1676 C1675 1.355 . S
C1676 C1678 1.419 . S
C1677 C1672 1.425 . S
C1677 C1674 1.409 . S
C1677 C1675 1.415 . S
C1678 H1668 0.930 . S
C1678 C1676 1.419 . S
C1678 C1679 1.362 . S
C1679 H1669 0.930 . S
C1679 C1672 1.409 . S
C1679 C1678 1.362 . S
H1680 C1686 0.930 . S
H1681 C1689 0.930 . S
H1682 C1690 0.930 . S
H1683 C1691 0.930 . S
H1684 C1694 0.930 . S
H1685 C1695 0.930 . S
C1686 H1680 0.930 . S
C1686 C1687 1.355 . S
C1686 C1688 1.415 1_554 S
C1687 C1686 1.355 . S
C1687 C1689 1.419 . S
C1688 C1686 1.415 1_556 S
C1688 C1693 1.425 1_566 S
C1688 C1695 1.409 . S
C1689 H1681 0.930 . S
C1689 C1687 1.419 . S
C1689 C1690 1.362 1_565 S
C1690 H1682 0.930 . S
C1690 C1689 1.362 1_545 S
C1690 C1693 1.409 . S
C1691 H1683 0.930 . S
C1691 C1692 1.355 . S
C1691 C1693 1.415 1_556 S
C1692 C1691 1.355 . S
C1692 C1694 1.419 . S
C1693 C1688 1.425 1_544 S
C1693 C1690 1.409 . S
C1693 C1691 1.415 1_554 S
C1694 H1684 0.930 . S
C1694 C1692 1.419 . S
C1694 C1695 1.362 1_545 S
C1695 H1685 0.930 . S
C1695 C1688 1.409 . S
C1695 C1694 1.362 1_565 S
H1696 C1702 0.930 . S
H1697 C1705 0.930 . S
H1698 C1706 0.930 . S
H1699 C1707 0.930 . S
H1700 C1710 0.930 . S
H1701 C1711 0.930 . S
C1702 H1696 0.930 . S
C1702 C1703 1.355 . S
C1702 C1704 1.415 . S
C1703 C1702 1.355 . S
C1703 C1705 1.419 . S
C1704 C1702 1.415 . S
C1704 C1709 1.425 . S
C1704 C1711 1.409 . S
C1705 H1697 0.930 . S
C1705 C1703 1.419 . S
C1705 C1706 1.362 . S
C1706 H1698 0.930 . S
C1706 C1705 1.362 . S
C1706 C1709 1.409 . S
C1707 H1699 0.930 . S
C1707 C1708 1.355 . S
C1707 C1709 1.415 . S
C1708 C1707 1.355 . S
C1708 C1710 1.419 . S
C1709 C1704 1.425 . S
C1709 C1706 1.409 . S
C1709 C1707 1.415 . S
C1710 H1700 0.930 . S
C1710 C1708 1.419 . S
C1710 C1711 1.362 . S
C1711 H1701 0.930 . S
C1711 C1704 1.409 . S
C1711 C1710 1.362 . S
H1712 C1718 0.930 . S
H1713 C1721 0.930 . S
H1714 C1722 0.930 . S
H1715 C1723 0.930 . S
H1716 C1726 0.930 . S
H1717 C1727 0.930 . S
C1718 H1712 0.930 . S
C1718 C1719 1.355 . S
C1718 C1720 1.415 . S
C1719 C1718 1.355 . S
C1719 C1721 1.419 . S
C1720 C1718 1.415 . S
C1720 C1725 1.425 . S
C1720 C1727 1.409 . S
C1721 H1713 0.930 . S
C1721 C1719 1.419 . S
C1721 C1722 1.362 . S
C1722 H1714 0.930 . S
C1722 C1721 1.362 . S
C1722 C1725 1.409 . S
C1723 H1715 0.930 . S
C1723 C1724 1.355 . S
C1723 C1725 1.415 . S
C1724 C1723 1.355 . S
C1724 C1726 1.419 . S
C1725 C1720 1.425 . S
C1725 C1722 1.409 . S
C1725 C1723 1.415 . S
C1726 H1716 0.930 . S
C1726 C1724 1.419 . S
C1726 C1727 1.362 . S
C1727 H1717 0.930 . S
C1727 C1720 1.409 . S
C1727 C1726 1.362 . S
H1728 C1734 0.930 . S
H1729 C1737 0.930 . S
H1730 C1738 0.930 . S
H1731 C1739 0.930 . S
H1732 C1742 0.930 . S
H1733 C1743 0.930 . S
C1734 H1728 0.930 . S
C1734 C1735 1.355 . S
C1734 C1736 1.415 . S
C1735 C1734 1.355 . S
C1735 C1737 1.419 . S
C1736 C1734 1.415 . S
C1736 C1741 1.425 . S
C1736 C1743 1.409 . S
C1737 H1729 0.930 . S
C1737 C1735 1.419 . S
C1737 C1738 1.362 . S
C1738 H1730 0.930 . S
C1738 C1737 1.362 . S
C1738 C1741 1.409 . S
C1739 H1731 0.930 . S
C1739 C1740 1.355 . S
C1739 C1741 1.415 . S
C1740 C1739 1.355 . S
C1740 C1742 1.419 . S
C1741 C1736 1.425 . S
C1741 C1738 1.409 . S
C1741 C1739 1.415 . S
C1742 H1732 0.930 . S
C1742 C1740 1.419 . S
C1742 C1743 1.362 . S
C1743 H1733 0.930 . S
C1743 C1736 1.409 . S
C1743 C1742 1.362 . S
H1744 C1750 0.930 . S
H1745 C1753 0.930 . S
H1746 C1754 0.930 . S
H1747 C1755 0.930 . S
H1748 C1758 0.930 . S
H1749 C1759 0.930 . S
C1750 H1744 0.930 . S
C1750 C1751 1.355 . S
C1750 C1752 1.415 . S
C1751 C1750 1.355 . S
C1751 C1753 1.419 . S
C1752 C1750 1.415 . S
C1752 C1757 1.425 . S
C1752 C1759 1.409 . S
C1753 H1745 0.930 . S
C1753 C1751 1.419 . S
C1753 C1754 1.362 . S
C1754 H1746 0.930 . S
C1754 C1753 1.362 . S
C1754 C1757 1.409 . S
C1755 H1747 0.930 . S
C1755 C1756 1.355 . S
C1755 C1757 1.415 . S
C1756 C1755 1.355 . S
C1756 C1758 1.419 . S
C1757 C1752 1.425 . S
C1757 C1754 1.409 . S
C1757 C1755 1.415 . S
C1758 H1748 0.930 . S
C1758 C1756 1.419 . S
C1758 C1759 1.362 . S
C1759 H1749 0.930 . S
C1759 C1752 1.409 . S
C1759 C1758 1.362 . S
H1760 C1766 0.930 . S
H1761 C1769 0.930 . S
H1762 C1770 0.930 . S
H1763 C1771 0.930 . S
H1764 C1774 0.930 . S
H1765 C1775 0.930 . S
C1766 H1760 0.930 . S
C1766 C1767 1.355 . S
C1766 C1768 1.415 . S
C1767 C1766 1.355 . S
C1767 C1769 1.419 . S
C1768 C1766 1.415 . S
C1768 C1773 1.425 . S
C1768 C1775 1.409 . S
C1769 H1761 0.930 . S
C1769 C1767 1.419 . S
C1769 C1770 1.362 . S
C1770 H1762 0.930 . S
C1770 C1769 1.362 . S
C1770 C1773 1.409 . S
C1771 H1763 0.930 . S
C1771 C1772 1.355 . S
C1771 C1773 1.415 . S
C1772 C1771 1.355 . S
C1772 C1774 1.419 . S
C1773 C1768 1.425 . S
C1773 C1770 1.409 . S
C1773 C1771 1.415 . S
C1774 H1764 0.930 . S
C1774 C1772 1.419 . S
C1774 C1775 1.362 . S
C1775 H1765 0.930 . S
C1775 C1768 1.409 . S
C1775 C1774 1.362 . S
H1776 C1782 0.930 . S
H1777 C1785 0.930 . S
H1778 C1786 0.930 . S
H1779 C1787 0.930 . S
H1780 C1790 0.930 . S
H1781 C1791 0.930 . S
C1782 H1776 0.930 . S
C1782 C1783 1.355 . S
C1782 C1784 1.415 . S
C1783 C1782 1.355 . S
C1783 C1785 1.419 . S
C1784 C1782 1.415 . S
C1784 C1789 1.425 . S
C1784 C1791 1.409 . S
C1785 H1777 0.930 . S
C1785 C1783 1.419 . S
C1785 C1786 1.362 . S
C1786 H1778 0.930 . S
C1786 C1785 1.362 . S
C1786 C1789 1.409 . S
C1787 H1779 0.930 . S
C1787 C1788 1.355 . S
C1787 C1789 1.415 . S
C1788 C1787 1.355 . S
C1788 C1790 1.419 . S
C1789 C1784 1.425 . S
C1789 C1786 1.409 . S
C1789 C1787 1.415 . S
C1790 H1780 0.930 . S
C1790 C1788 1.419 . S
C1790 C1791 1.362 . S
C1791 H1781 0.930 . S
C1791 C1784 1.409 . S
C1791 C1790 1.362 . S
H1792 C1798 0.930 . S
H1793 C1801 0.930 . S
H1794 C1802 0.930 . S
H1795 C1803 0.930 . S
H1796 C1806 0.930 . S
H1797 C1807 0.930 . S
C1798 H1792 0.930 . S
C1798 C1799 1.355 . S
C1798 C1800 1.415 . S
C1799 C1798 1.355 . S
C1799 C1801 1.419 . S
C1800 C1798 1.415 . S
C1800 C1805 1.425 . S
C1800 C1807 1.409 . S
C1801 H1793 0.930 . S
C1801 C1799 1.419 . S
C1801 C1802 1.362 . S
C1802 H1794 0.930 . S
C1802 C1801 1.362 . S
C1802 C1805 1.409 . S
C1803 H1795 0.930 . S
C1803 C1804 1.355 . S
C1803 C1805 1.415 . S
C1804 C1803 1.355 . S
C1804 C1806 1.419 . S
C1805 C1800 1.425 . S
C1805 C1802 1.409 . S
C1805 C1803 1.415 . S
C1806 H1796 0.930 . S
C1806 C1804 1.419 . S
C1806 C1807 1.362 . S
C1807 H1797 0.930 . S
C1807 C1800 1.409 . S
C1807 C1806 1.362 . S
H1808 C1814 0.930 . S
H1809 C1817 0.930 . S
H1810 C1818 0.930 . S
H1811 C1819 0.930 . S
H1812 C1822 0.930 . S
H1813 C1823 0.930 . S
C1814 H1808 0.930 . S
C1814 C1815 1.355 . S
C1814 C1816 1.415 . S
C1815 C1814 1.355 . S
C1815 C1817 1.419 . S
C1816 C1814 1.415 . S
C1816 C1821 1.425 . S
C1816 C1823 1.409 . S
C1817 H1809 0.930 . S
C1817 C1815 1.419 . S
C1817 C1818 1.362 . S
C1818 H1810 0.930 . S
C1818 C1817 1.362 . S
C1818 C1821 1.409 . S
C1819 H1811 0.930 . S
C1819 C1820 1.355 . S
C1819 C1821 1.415 . S
C1820 C1819 1.355 . S
C1820 C1822 1.419 . S
C1821 C1816 1.425 . S
C1821 C1818 1.409 . S
C1821 C1819 1.415 . S
C1822 H1812 0.930 . S
C1822 C1820 1.419 . S
C1822 C1823 1.362 . S
C1823 H1813 0.930 . S
C1823 C1816 1.409 . S
C1823 C1822 1.362 . S
H1824 C1830 0.930 . S
H1825 C1833 0.930 . S
H1826 C1834 0.930 . S
H1827 C1835 0.930 . S
H1828 C1838 0.930 . S
H1829 C1839 0.930 . S
C1830 H1824 0.930 . S
C1830 C1831 1.355 . S
C1830 C1832 1.415 . S
C1831 C1830 1.355 . S
C1831 C1833 1.419 . S
C1832 C1830 1.415 . S
C1832 C1837 1.425 . S
C1832 C1839 1.409 . S
C1833 H1825 0.930 . S
C1833 C1831 1.419 . S
C1833 C1834 1.362 . S
C1834 H1826 0.930 . S
C1834 C1833 1.362 . S
C1834 C1837 1.409 . S
C1835 H1827 0.930 . S
C1835 C1836 1.355 . S
C1835 C1837 1.415 . S
C1836 C1835 1.355 . S
C1836 C1838 1.419 . S
C1837 C1832 1.425 . S
C1837 C1834 1.409 . S
C1837 C1835 1.415 . S
C1838 H1828 0.930 . S
C1838 C1836 1.419 . S
C1838 C1839 1.362 . S
C1839 H1829 0.930 . S
C1839 C1832 1.409 . S
C1839 C1838 1.362 . S
H1840 C1846 0.930 . S
H1841 C1849 0.930 . S
H1842 C1850 0.930 . S
H1843 C1851 0.930 . S
H1844 C1854 0.930 . S
H1845 C1855 0.930 . S
C1846 H1840 0.930 . S
C1846 C1847 1.355 . S
C1846 C1848 1.415 . S
C1847 C1846 1.355 . S
C1847 C1849 1.419 . S
C1848 C1846 1.415 . S
C1848 C1853 1.425 . S
C1848 C1855 1.409 . S
C1849 H1841 0.930 . S
C1849 C1847 1.419 . S
C1849 C1850 1.362 . S
C1850 H1842 0.930 . S
C1850 C1849 1.362 . S
C1850 C1853 1.409 . S
C1851 H1843 0.930 . S
C1851 C1852 1.355 . S
C1851 C1853 1.415 . S
C1852 C1851 1.355 . S
C1852 C1854 1.419 . S
C1853 C1848 1.425 . S
C1853 C1850 1.409 . S
C1853 C1851 1.415 . S
C1854 H1844 0.930 . S
C1854 C1852 1.419 . S
C1854 C1855 1.362 . S
C1855 H1845 0.930 . S
C1855 C1848 1.409 . S
C1855 C1854 1.362 . S
H1856 C1862 0.930 . S
H1857 C1865 0.930 . S
H1858 C1866 0.930 . S
H1859 C1867 0.930 . S
H1860 C1870 0.930 . S
H1861 C1871 0.930 . S
C1862 H1856 0.930 . S
C1862 C1863 1.355 . S
C1862 C1864 1.415 . S
C1863 C1862 1.355 . S
C1863 C1865 1.419 . S
C1864 C1862 1.415 . S
C1864 C1869 1.425 . S
C1864 C1871 1.409 . S
C1865 H1857 0.930 . S
C1865 C1863 1.419 . S
C1865 C1866 1.362 . S
C1866 H1858 0.930 . S
C1866 C1865 1.362 . S
C1866 C1869 1.409 . S
C1867 H1859 0.930 . S
C1867 C1868 1.355 . S
C1867 C1869 1.415 . S
C1868 C1867 1.355 . S
C1868 C1870 1.419 . S
C1869 C1864 1.425 . S
C1869 C1866 1.409 . S
C1869 C1867 1.415 . S
C1870 H1860 0.930 . S
C1870 C1868 1.419 . S
C1870 C1871 1.362 . S
C1871 H1861 0.930 . S
C1871 C1864 1.409 . S
C1871 C1870 1.362 . S
H1872 C1878 0.916 1_554 S
H1873 C1881 0.930 . S
H1874 C1882 0.930 . S
H1875 C1883 0.916 1_556 S
H1876 C1886 0.930 . S
H1877 C1887 0.930 . S
C1878 H1872 0.916 1_556 S
C1878 C1879 1.355 . S
C1878 C1880 1.415 1_556 S
C1879 C1878 1.355 . S
C1879 C1881 1.419 . S
C1880 C1878 1.415 1_554 S
C1880 C1885 1.425 1_554 S
C1880 C1887 1.409 . S
C1881 H1873 0.930 . S
C1881 C1879 1.419 . S
C1881 C1882 1.362 . S
C1882 H1874 0.930 . S
C1882 C1881 1.362 . S
C1882 C1885 1.409 . S
C1883 H1875 0.916 1_554 S
C1883 C1884 1.355 . S
C1883 C1885 1.415 1_554 S
C1884 C1883 1.355 . S
C1884 C1886 1.419 . S
C1885 C1880 1.425 1_556 S
C1885 C1882 1.409 . S
C1885 C1883 1.415 1_556 S
C1886 H1876 0.930 . S
C1886 C1884 1.419 . S
C1886 C1887 1.362 . S
C1887 H1877 0.930 . S
C1887 C1880 1.409 . S
C1887 C1886 1.362 . S
H1888 C1894 0.930 . S
H1889 C1897 0.930 . S
H1890 C1898 0.930 . S
H1891 C1899 0.930 . S
H1892 C1902 0.930 . S
H1893 C1903 0.930 . S
C1894 H1888 0.930 . S
C1894 C1895 1.355 . S
C1894 C1896 1.415 . S
C1895 C1894 1.355 . S
C1895 C1897 1.419 . S
C1896 C1894 1.415 . S
C1896 C1901 1.425 . S
C1896 C1903 1.409 . S
C1897 H1889 0.930 . S
C1897 C1895 1.419 . S
C1897 C1898 1.362 . S
C1898 H1890 0.930 . S
C1898 C1897 1.362 . S
C1898 C1901 1.409 . S
C1899 H1891 0.930 . S
C1899 C1900 1.355 . S
C1899 C1901 1.415 . S
C1900 C1899 1.355 . S
C1900 C1902 1.419 . S
C1901 C1896 1.425 . S
C1901 C1898 1.409 . S
C1901 C1899 1.415 . S
C1902 H1892 0.930 . S
C1902 C1900 1.419 . S
C1902 C1903 1.362 . S
C1903 H1893 0.930 . S
C1903 C1896 1.409 . S
C1903 C1902 1.362 . S
H1904 C1910 0.930 . S
H1905 C1913 0.930 . S
H1906 C1914 0.930 . S
H1907 C1915 0.930 . S
H1908 C1918 0.930 . S
H1909 C1919 0.930 . S
C1910 H1904 0.930 . S
C1910 C1911 1.355 . S
C1910 C1912 1.415 1_565 S
C1911 C1910 1.355 . S
C1911 C1913 1.419 . S
C1912 C1910 1.415 1_545 S
C1912 C1917 1.425 1_545 S
C1912 C1919 1.409 . S
C1913 H1905 0.930 . S
C1913 C1911 1.419 . S
C1913 C1914 1.362 . S
C1914 H1906 0.930 . S
C1914 C1913 1.362 . S
C1914 C1917 1.409 . S
C1915 H1907 0.930 . S
C1915 C1916 1.355 . S
C1915 C1917 1.415 1_545 S
C1916 C1915 1.355 . S
C1916 C1918 1.419 . S
C1917 C1912 1.425 1_565 S
C1917 C1914 1.409 . S
C1917 C1915 1.415 1_565 S
C1918 H1908 0.930 . S
C1918 C1916 1.419 . S
C1918 C1919 1.362 . S
C1919 H1909 0.930 . S
C1919 C1912 1.409 . S
C1919 C1918 1.362 . S
H1920 C1926 0.930 . S
H1921 C1929 0.930 . S
H1922 C1930 0.930 . S
H1923 C1931 0.930 . S
H1924 C1934 0.930 . S
H1925 C1935 0.930 . S
C1926 H1920 0.930 . S
C1926 C1927 1.355 . S
C1926 C1928 1.415 . S
C1927 C1926 1.355 . S
C1927 C1929 1.419 . S
C1928 C1926 1.415 . S
C1928 C1933 1.425 . S
C1928 C1935 1.409 . S
C1929 H1921 0.930 . S
C1929 C1927 1.419 . S
C1929 C1930 1.362 . S
C1930 H1922 0.930 . S
C1930 C1929 1.362 . S
C1930 C1933 1.409 . S
C1931 H1923 0.930 . S
C1931 C1932 1.355 . S
C1931 C1933 1.415 . S
C1932 C1931 1.355 . S
C1932 C1934 1.419 . S
C1933 C1928 1.425 . S
C1933 C1930 1.409 . S
C1933 C1931 1.415 . S
C1934 H1924 0.930 . S
C1934 C1932 1.419 . S
C1934 C1935 1.362 . S
C1935 H1925 0.930 . S
C1935 C1928 1.409 . S
C1935 C1934 1.362 . S
H1936 C1942 0.930 . S
H1937 C1945 0.930 . S
H1938 C1946 0.930 . S
H1939 C1947 0.930 . S
H1940 C1950 0.930 . S
H1941 C1951 0.930 . S
C1942 H1936 0.930 . S
C1942 C1943 1.355 . S
C1942 C1944 1.415 . S
C1943 C1942 1.355 . S
C1943 C1945 1.419 . S
C1944 C1942 1.415 . S
C1944 C1949 1.425 . S
C1944 C1951 1.409 . S
C1945 H1937 0.930 . S
C1945 C1943 1.419 . S
C1945 C1946 1.362 . S
C1946 H1938 0.930 . S
C1946 C1945 1.362 . S
C1946 C1949 1.409 . S
C1947 H1939 0.930 . S
C1947 C1948 1.355 . S
C1947 C1949 1.415 . S
C1948 C1947 1.355 . S
C1948 C1950 1.419 . S
C1949 C1944 1.425 . S
C1949 C1946 1.409 . S
C1949 C1947 1.415 . S
C1950 H1940 0.930 . S
C1950 C1948 1.419 . S
C1950 C1951 1.362 . S
C1951 H1941 0.930 . S
C1951 C1944 1.409 . S
C1951 C1950 1.362 . S
H1952 C1958 0.930 . S
H1953 C1961 0.930 . S
H1954 C1962 0.930 . S
H1955 C1963 0.930 . S
H1956 C1966 0.930 . S
H1957 C1967 0.930 . S
C1958 H1952 0.930 . S
C1958 C1959 1.355 . S
C1958 C1960 1.415 . S
C1959 C1958 1.355 . S
C1959 C1961 1.419 . S
C1960 C1958 1.415 . S
C1960 C1965 1.425 . S
C1960 C1967 1.409 . S
C1961 H1953 0.930 . S
C1961 C1959 1.419 . S
C1961 C1962 1.362 . S
C1962 H1954 0.930 . S
C1962 C1961 1.362 . S
C1962 C1965 1.409 . S
C1963 H1955 0.930 . S
C1963 C1964 1.355 . S
C1963 C1965 1.415 . S
C1964 C1963 1.355 . S
C1964 C1966 1.419 . S
C1965 C1960 1.425 . S
C1965 C1962 1.409 . S
C1965 C1963 1.415 . S
C1966 H1956 0.930 . S
C1966 C1964 1.419 . S
C1966 C1967 1.362 . S
C1967 H1957 0.930 . S
C1967 C1960 1.409 . S
C1967 C1966 1.362 . S
H1968 C1974 0.930 . S
H1969 C1977 0.930 . S
H1970 C1978 0.930 . S
H1971 C1979 0.930 . S
H1972 C1982 0.930 . S
H1973 C1983 0.930 . S
C1974 H1968 0.930 . S
C1974 C1975 1.355 . S
C1974 C1976 1.415 1_556 S
C1975 C1974 1.355 . S
C1975 C1977 1.419 . S
C1976 C1974 1.415 1_554 S
C1976 C1981 1.425 1_554 S
C1976 C1983 1.409 . S
C1977 H1969 0.930 . S
C1977 C1975 1.419 . S
C1977 C1978 1.362 . S
C1978 H1970 0.930 . S
C1978 C1977 1.362 . S
C1978 C1981 1.409 . S
C1979 H1971 0.930 . S
C1979 C1980 1.355 . S
C1979 C1981 1.415 1_554 S
C1980 C1979 1.355 . S
C1980 C1982 1.419 . S
C1981 C1976 1.425 1_556 S
C1981 C1978 1.409 . S
C1981 C1979 1.415 1_556 S
C1982 H1972 0.930 . S
C1982 C1980 1.419 . S
C1982 C1983 1.362 . S
C1983 H1973 0.930 . S
C1983 C1976 1.409 . S
C1983 C1982 1.362 . S
H1984 C1990 0.930 . S
H1985 C1993 0.930 . S
H1986 C1994 0.930 . S
H1987 C1995 0.930 . S
H1988 C1998 0.930 . S
H1989 C1999 0.930 . S
C1990 H1984 0.930 . S
C1990 C1991 1.355 . S
C1990 C1992 1.415 . S
C1991 C1990 1.355 . S
C1991 C1993 1.419 . S
C1992 C1990 1.415 . S
C1992 C1997 1.425 . S
C1992 C1999 1.409 . S
C1993 H1985 0.930 . S
C1993 C1991 1.419 . S
C1993 C1994 1.362 . S
C1994 H1986 0.930 . S
C1994 C1993 1.362 . S
C1994 C1997 1.409 . S
C1995 H1987 0.930 . S
C1995 C1996 1.355 . S
C1995 C1997 1.415 . S
C1996 C1995 1.355 . S
C1996 C1998 1.419 . S
C1997 C1992 1.425 . S
C1997 C1994 1.409 . S
C1997 C1995 1.415 . S
C1998 H1988 0.930 . S
C1998 C1996 1.419 . S
C1998 C1999 1.362 . S
C1999 H1989 0.930 . S
C1999 C1992 1.409 . S
C1999 C1998 1.362 . S
H2000 C2006 0.930 . S
H2001 C2009 0.930 . S
H2002 C2010 0.930 . S
H2003 C2011 0.930 . S
H2004 C2014 0.930 . S
H2005 C2015 0.930 . S
C2006 H2000 0.930 . S
C2006 C2007 1.355 . S
C2006 C2008 1.415 1_556 S
C2007 C2006 1.355 . S
C2007 C2009 1.419 . S
C2008 C2006 1.415 1_554 S
C2008 C2013 1.425 1_554 S
C2008 C2015 1.409 . S
C2009 H2001 0.930 . S
C2009 C2007 1.419 . S
C2009 C2010 1.362 . S
C2010 H2002 0.930 . S
C2010 C2009 1.362 . S
C2010 C2013 1.409 . S
C2011 H2003 0.930 . S
C2011 C2012 1.355 . S
C2011 C2013 1.415 1_554 S
C2012 C2011 1.355 . S
C2012 C2014 1.419 . S
C2013 C2008 1.425 1_556 S
C2013 C2010 1.409 . S
C2013 C2011 1.415 1_556 S
C2014 H2004 0.930 . S
C2014 C2012 1.419 . S
C2014 C2015 1.362 . S
C2015 H2005 0.930 . S
C2015 C2008 1.409 . S
C2015 C2014 1.362 . S
H2016 C2022 0.930 . S
H2017 C2025 0.930 . S
H2018 C2026 0.930 . S
H2019 C2027 0.930 . S
H2020 C2030 0.930 . S
H2021 C2031 0.930 . S
C2022 H2016 0.930 . S
C2022 C2023 1.355 . S
C2022 C2024 1.415 1_565 S
C2023 C2022 1.355 . S
C2023 C2025 1.419 . S
C2024 C2022 1.415 1_545 S
C2024 C2029 1.425 1_545 S
C2024 C2031 1.409 . S
C2025 H2017 0.930 . S
C2025 C2023 1.419 . S
C2025 C2026 1.362 . S
C2026 H2018 0.930 . S
C2026 C2025 1.362 . S
C2026 C2029 1.409 . S
C2027 H2019 0.930 . S
C2027 C2028 1.355 . S
C2027 C2029 1.415 1_545 S
C2028 C2027 1.355 . S
C2028 C2030 1.419 . S
C2029 C2024 1.425 1_565 S
C2029 C2026 1.409 . S
C2029 C2027 1.415 1_565 S
C2030 H2020 0.930 . S
C2030 C2028 1.419 . S
C2030 C2031 1.362 . S
C2031 H2021 0.930 . S
C2031 C2024 1.409 . S
C2031 C2030 1.362 . S
H2032 C2038 0.930 . S
H2033 C2041 0.930 . S
H2034 C2042 0.930 . S
H2035 C2043 0.930 . S
H2036 C2046 0.930 . S
H2037 C2047 0.930 . S
C2038 H2032 0.930 . S
C2038 C2039 1.355 . S
C2038 C2040 1.415 . S
C2039 C2038 1.355 . S
C2039 C2041 1.419 . S
C2040 C2038 1.415 . S
C2040 C2045 1.425 . S
C2040 C2047 1.409 . S
C2041 H2033 0.930 . S
C2041 C2039 1.419 . S
C2041 C2042 1.362 . S
C2042 H2034 0.930 . S
C2042 C2041 1.362 . S
C2042 C2045 1.409 . S
C2043 H2035 0.930 . S
C2043 C2044 1.355 . S
C2043 C2045 1.415 . S
C2044 C2043 1.355 . S
C2044 C2046 1.419 . S
C2045 C2040 1.425 . S
C2045 C2042 1.409 . S
C2045 C2043 1.415 . S
C2046 H2036 0.930 . S
C2046 C2044 1.419 . S
C2046 C2047 1.362 . S
C2047 H2037 0.930 . S
C2047 C2040 1.409 . S
C2047 C2046 1.362 . S
H2048 C2054 0.930 1_545 S
H2049 C2057 0.930 . S
H2050 C2058 0.930 . S
H2051 C2059 0.930 1_565 S
H2052 C2062 0.930 . S
H2053 C2063 0.930 . S
C2054 H2048 0.930 1_565 S
C2054 C2055 1.355 . S
C2054 C2056 1.415 1_565 S
C2055 C2054 1.355 . S
C2055 C2057 1.419 . S
C2056 C2054 1.415 1_545 S
C2056 C2061 1.425 1_545 S
C2056 C2063 1.409 . S
C2057 H2049 0.930 . S
C2057 C2055 1.419 . S
C2057 C2058 1.362 . S
C2058 H2050 0.930 . S
C2058 C2057 1.362 . S
C2058 C2061 1.409 . S
C2059 H2051 0.930 1_545 S
C2059 C2060 1.355 . S
C2059 C2061 1.415 1_545 S
C2060 C2059 1.355 . S
C2060 C2062 1.419 . S
C2061 C2056 1.425 1_565 S
C2061 C2058 1.409 . S
C2061 C2059 1.415 1_565 S
C2062 H2052 0.930 . S
C2062 C2060 1.419 . S
C2062 C2063 1.362 . S
C2063 H2053 0.930 . S
C2063 C2056 1.409 . S
C2063 C2062 1.362 . S
H2064 C2070 0.930 . S
H2065 C2073 0.930 . S
H2066 C2074 0.930 . S
H2067 C2075 0.930 . S
H2068 C2078 0.930 . S
H2069 C2079 0.930 . S
C2070 H2064 0.930 . S
C2070 C2071 1.355 . S
C2070 C2072 1.415 . S
C2071 C2070 1.355 . S
C2071 C2073 1.419 . S
C2072 C2070 1.415 . S
C2072 C2077 1.425 . S
C2072 C2079 1.409 . S
C2073 H2065 0.930 . S
C2073 C2071 1.419 . S
C2073 C2074 1.362 . S
C2074 H2066 0.930 . S
C2074 C2073 1.362 . S
C2074 C2077 1.409 . S
C2075 H2067 0.930 . S
C2075 C2076 1.355 . S
C2075 C2077 1.415 . S
C2076 C2075 1.355 . S
C2076 C2078 1.419 . S
C2077 C2072 1.425 . S
C2077 C2074 1.409 . S
C2077 C2075 1.415 . S
C2078 H2068 0.930 . S
C2078 C2076 1.419 . S
C2078 C2079 1.362 . S
C2079 H2069 0.930 . S
C2079 C2072 1.409 . S
C2079 C2078 1.362 . S
H2080 C2086 0.930 . S
H2081 C2089 0.930 . S
H2082 C2090 0.930 . S
H2083 C2091 0.930 . S
H2084 C2094 0.930 . S
H2085 C2095 0.930 . S
C2086 H2080 0.930 . S
C2086 C2087 1.355 . S
C2086 C2088 1.415 . S
C2087 C2086 1.355 . S
C2087 C2089 1.419 . S
C2088 C2086 1.415 . S
C2088 C2093 1.425 . S
C2088 C2095 1.409 . S
C2089 H2081 0.930 . S
C2089 C2087 1.419 . S
C2089 C2090 1.362 . S
C2090 H2082 0.930 . S
C2090 C2089 1.362 . S
C2090 C2093 1.409 . S
C2091 H2083 0.930 . S
C2091 C2092 1.355 . S
C2091 C2093 1.415 . S
C2092 C2091 1.355 . S
C2092 C2094 1.419 . S
C2093 C2088 1.425 . S
C2093 C2090 1.409 . S
C2093 C2091 1.415 . S
C2094 H2084 0.930 . S
C2094 C2092 1.419 . S
C2094 C2095 1.362 . S
C2095 H2085 0.930 . S
C2095 C2088 1.409 . S
C2095 C2094 1.362 . S
H2096 C2102 0.930 . S
H2097 C2105 0.930 . S
H2098 C2106 0.930 . S
H2099 C2107 0.930 . S
H2100 C2110 0.930 . S
H2101 C2111 0.930 . S
C2102 H2096 0.930 . S
C2102 C2103 1.355 . S
C2102 C2104 1.415 . S
C2103 C2102 1.355 . S
C2103 C2105 1.419 . S
C2104 C2102 1.415 . S
C2104 C2109 1.425 . S
C2104 C2111 1.409 . S
C2105 H2097 0.930 . S
C2105 C2103 1.419 . S
C2105 C2106 1.362 . S
C2106 H2098 0.930 . S
C2106 C2105 1.362 . S
C2106 C2109 1.409 . S
C2107 H2099 0.930 . S
C2107 C2108 1.355 . S
C2107 C2109 1.415 . S
C2108 C2107 1.355 . S
C2108 C2110 1.419 . S
C2109 C2104 1.425 . S
C2109 C2106 1.409 . S
C2109 C2107 1.415 . S
C2110 H2100 0.930 . S
C2110 C2108 1.419 . S
C2110 C2111 1.362 . S
C2111 H2101 0.930 . S
C2111 C2104 1.409 . S
C2111 C2110 1.362 . S
H2112 C2118 0.930 . S
H2113 C2121 0.930 . S
H2114 C2122 0.930 . S
H2115 C2123 0.930 . S
H2116 C2126 0.930 . S
H2117 C2127 0.930 . S
C2118 H2112 0.930 . S
C2118 C2119 1.355 . S
C2118 C2120 1.415 1_455 S
C2119 C2118 1.355 . S
C2119 C2121 1.419 . S
C2120 C2118 1.415 1_655 S
C2120 C2125 1.425 . S
C2120 C2127 1.409 . S
C2121 H2113 0.930 . S
C2121 C2119 1.419 . S
C2121 C2122 1.362 1_455 S
C2122 H2114 0.930 . S
C2122 C2121 1.362 1_655 S
C2122 C2125 1.409 . S
C2123 H2115 0.930 . S
C2123 C2124 1.355 . S
C2123 C2125 1.415 . S
C2124 C2123 1.355 . S
C2124 C2126 1.419 . S
C2125 C2120 1.425 . S
C2125 C2122 1.409 . S
C2125 C2123 1.415 . S
C2126 H2116 0.930 . S
C2126 C2124 1.419 . S
C2126 C2127 1.362 . S
C2127 H2117 0.930 . S
C2127 C2120 1.409 . S
C2127 C2126 1.362 . S
H2128 C2134 0.930 . S
H2129 C2137 0.930 . S
H2130 C2138 0.930 . S
H2131 C2139 0.930 . S
H2132 C2142 0.930 . S
H2133 C2143 0.930 . S
C2134 H2128 0.930 . S
C2134 C2135 1.355 . S
C2134 C2136 1.415 . S
C2135 C2134 1.355 . S
C2135 C2137 1.419 . S
C2136 C2134 1.415 . S
C2136 C2141 1.425 . S
C2136 C2143 1.409 1_655 S
C2137 H2129 0.930 . S
C2137 C2135 1.419 . S
C2137 C2138 1.362 . S
C2138 H2130 0.930 . S
C2138 C2137 1.362 . S
C2138 C2141 1.409 . S
C2139 H2131 0.930 . S
C2139 C2140 1.355 1_655 S
C2139 C2141 1.415 . S
C2140 C2139 1.355 1_455 S
C2140 C2142 1.419 . S
C2141 C2136 1.425 . S
C2141 C2138 1.409 . S
C2141 C2139 1.415 . S
C2142 H2132 0.930 . S
C2142 C2140 1.419 . S
C2142 C2143 1.362 . S
C2143 H2133 0.930 . S
C2143 C2136 1.409 1_455 S
C2143 C2142 1.362 . S
H2144 C2150 0.930 . S
H2145 C2153 0.930 . S
H2146 C2154 0.930 . S
H2147 C2155 0.930 . S
H2148 C2158 0.930 . S
H2149 C2159 0.930 . S
C2150 H2144 0.930 . S
C2150 C2151 1.355 . S
C2150 C2152 1.415 . S
C2151 C2150 1.355 . S
C2151 C2153 1.419 1_655 S
C2152 C2150 1.415 . S
C2152 C2157 1.425 1_655 S
C2152 C2159 1.409 . S
C2153 H2145 0.930 . S
C2153 C2151 1.419 1_455 S
C2153 C2154 1.362 . S
C2154 H2146 0.930 . S
C2154 C2153 1.362 . S
C2154 C2157 1.409 . S
C2155 H2147 0.930 . S
C2155 C2156 1.355 . S
C2155 C2157 1.415 . S
C2156 C2155 1.355 . S
C2156 C2158 1.419 . S
C2157 C2152 1.425 1_455 S
C2157 C2154 1.409 . S
C2157 C2155 1.415 . S
C2158 H2148 0.930 . S
C2158 C2156 1.419 . S
C2158 C2159 1.362 1_455 S
C2159 H2149 0.930 . S
C2159 C2152 1.409 . S
C2159 C2158 1.362 1_655 S
H2160 C2166 0.929 1_455 S
H2161 C2169 0.930 . S
H2162 C2170 0.930 . S
H2163 C2171 0.930 . S
H2164 C2174 0.930 . S
H2165 C2175 0.930 . S
C2166 H2160 0.929 1_655 S
C2166 C2167 1.355 . S
C2166 C2168 1.415 1_655 S
C2167 C2166 1.355 . S
C2167 C2169 1.419 . S
C2168 C2166 1.415 1_455 S
C2168 C2173 1.425 . S
C2168 C2175 1.409 . S
C2169 H2161 0.930 . S
C2169 C2167 1.419 . S
C2169 C2170 1.362 . S
C2170 H2162 0.930 . S
C2170 C2169 1.362 . S
C2170 C2173 1.409 1_655 S
C2171 H2163 0.930 . S
C2171 C2172 1.355 . S
C2171 C2173 1.415 . S
C2172 C2171 1.355 . S
C2172 C2174 1.419 . S
C2173 C2168 1.425 . S
C2173 C2170 1.409 1_455 S
C2173 C2171 1.415 . S
C2174 H2164 0.930 . S
C2174 C2172 1.419 . S
C2174 C2175 1.362 . S
C2175 H2165 0.930 . S
C2175 C2168 1.409 . S
C2175 C2174 1.362 . S
H2176 C2182 0.930 . S
H2177 C2185 0.930 . S
H2178 C2186 0.930 . S
H2179 C2187 0.930 . S
H2180 C2190 0.930 . S
H2181 C2191 0.910 1_455 S
C2182 H2176 0.930 . S
C2182 C2183 1.355 . S
C2182 C2184 1.393 1_455 S
C2183 C2182 1.355 . S
C2183 C2185 1.419 1_455 S
C2184 C2182 1.393 1_655 S
C2184 C2189 1.448 . S
C2184 C2191 1.409 . S
C2185 H2177 0.930 . S
C2185 C2183 1.419 1_655 S
C2185 C2186 1.362 . S
C2186 H2178 0.930 . S
C2186 C2185 1.362 . S
C2186 C2189 1.409 . S
C2187 H2179 0.930 . S
C2187 C2188 1.355 . S
C2187 C2189 1.415 . S
C2188 C2187 1.355 . S
C2188 C2190 1.419 . S
C2189 C2184 1.448 . S
C2189 C2186 1.409 . S
C2189 C2187 1.415 . S
C2190 H2180 0.930 . S
C2190 C2188 1.419 . S
C2190 C2191 1.383 . S
C2191 H2181 0.910 1_655 S
C2191 C2184 1.409 . S
C2191 C2190 1.383 . S
H2192 C2198 0.930 . S
H2193 C2201 0.930 . S
H2194 C2202 0.930 . S
H2195 C2203 0.930 . S
H2196 C2206 0.930 . S
H2197 C2207 0.930 . S
C2198 H2192 0.930 . S
C2198 C2199 1.355 . S
C2198 C2200 1.415 . S
C2199 C2198 1.355 . S
C2199 C2201 1.419 . S
C2200 C2198 1.415 . S
C2200 C2205 1.425 . S
C2200 C2207 1.409 . S
C2201 H2193 0.930 . S
C2201 C2199 1.419 . S
C2201 C2202 1.362 . S
C2202 H2194 0.930 . S
C2202 C2201 1.362 . S
C2202 C2205 1.409 . S
C2203 H2195 0.930 . S
C2203 C2204 1.355 . S
C2203 C2205 1.415 . S
C2204 C2203 1.355 . S
C2204 C2206 1.419 . S
C2205 C2200 1.425 . S
C2205 C2202 1.409 . S
C2205 C2203 1.415 . S
C2206 H2196 0.930 . S
C2206 C2204 1.419 . S
C2206 C2207 1.362 . S
C2207 H2197 0.930 . S
C2207 C2200 1.409 . S
C2207 C2206 1.362 . S
H2208 C2214 0.930 . S
H2209 C2217 0.930 . S
H2210 C2218 0.930 . S
H2211 C2219 0.930 . S
H2212 C2222 0.930 . S
H2213 C2223 0.930 . S
C2214 H2208 0.930 . S
C2214 C2215 1.355 . S
C2214 C2216 1.415 1_655 S
C2215 C2214 1.355 . S
C2215 C2217 1.419 . S
C2216 C2214 1.415 1_455 S
C2216 C2221 1.425 . S
C2216 C2223 1.409 . S
C2217 H2209 0.930 . S
C2217 C2215 1.419 . S
C2217 C2218 1.362 1_655 S
C2218 H2210 0.930 . S
C2218 C2217 1.362 1_455 S
C2218 C2221 1.409 . S
C2219 H2211 0.930 . S
C2219 C2220 1.355 . S
C2219 C2221 1.415 . S
C2220 C2219 1.355 . S
C2220 C2222 1.419 . S
C2221 C2216 1.425 . S
C2221 C2218 1.409 . S
C2221 C2219 1.415 . S
C2222 H2212 0.930 . S
C2222 C2220 1.419 . S
C2222 C2223 1.362 . S
C2223 H2213 0.930 . S
C2223 C2216 1.409 . S
C2223 C2222 1.362 . S
H2224 C2230 0.930 . S
H2225 C2233 0.930 . S
H2226 C2234 0.930 . S
H2227 C2235 0.930 . S
H2228 C2238 0.930 . S
H2229 C2239 0.930 . S
C2230 H2224 0.930 . S
C2230 C2231 1.355 . S
C2230 C2232 1.415 . S
C2231 C2230 1.355 . S
C2231 C2233 1.419 . S
C2232 C2230 1.415 . S
C2232 C2237 1.425 . S
C2232 C2239 1.409 . S
C2233 H2225 0.930 . S
C2233 C2231 1.419 . S
C2233 C2234 1.362 . S
C2234 H2226 0.930 . S
C2234 C2233 1.362 . S
C2234 C2237 1.409 . S
C2235 H2227 0.930 . S
C2235 C2236 1.355 . S
C2235 C2237 1.415 . S
C2236 C2235 1.355 . S
C2236 C2238 1.419 . S
C2237 C2232 1.425 . S
C2237 C2234 1.409 . S
C2237 C2235 1.415 . S
C2238 H2228 0.930 . S
C2238 C2236 1.419 . S
C2238 C2239 1.362 . S
C2239 H2229 0.930 . S
C2239 C2232 1.409 . S
C2239 C2238 1.362 . S
H2240 C2246 0.930 . S
H2241 C2249 0.930 . S
H2242 C2250 0.930 . S
H2243 C2251 0.930 . S
H2244 C2254 0.930 . S
H2245 C2255 0.930 . S
C2246 H2240 0.930 . S
C2246 C2247 1.355 . S
C2246 C2248 1.415 . S
C2247 C2246 1.355 . S
C2247 C2249 1.419 1_545 S
C2248 C2246 1.415 . S
C2248 C2253 1.425 1_545 S
C2248 C2255 1.409 . S
C2249 H2241 0.930 . S
C2249 C2247 1.419 1_565 S
C2249 C2250 1.362 . S
C2250 H2242 0.930 . S
C2250 C2249 1.362 . S
C2250 C2253 1.409 . S
C2251 H2243 0.930 . S
C2251 C2252 1.355 . S
C2251 C2253 1.415 . S
C2252 C2251 1.355 . S
C2252 C2254 1.419 . S
C2253 C2248 1.425 1_565 S
C2253 C2250 1.409 . S
C2253 C2251 1.415 . S
C2254 H2244 0.930 . S
C2254 C2252 1.419 . S
C2254 C2255 1.362 1_565 S
C2255 H2245 0.930 . S
C2255 C2248 1.409 . S
C2255 C2254 1.362 1_545 S
H2256 C2262 0.930 . S
H2257 C2265 0.930 . S
H2258 C2266 0.930 . S
H2259 C2267 0.930 . S
H2260 C2270 0.930 . S
H2261 C2271 0.930 . S
C2262 H2256 0.930 . S
C2262 C2263 1.355 . S
C2262 C2264 1.415 . S
C2263 C2262 1.355 . S
C2263 C2265 1.419 . S
C2264 C2262 1.415 . S
C2264 C2269 1.425 . S
C2264 C2271 1.409 . S
C2265 H2257 0.930 . S
C2265 C2263 1.419 . S
C2265 C2266 1.362 . S
C2266 H2258 0.930 . S
C2266 C2265 1.362 . S
C2266 C2269 1.409 . S
C2267 H2259 0.930 . S
C2267 C2268 1.355 . S
C2267 C2269 1.415 . S
C2268 C2267 1.355 . S
C2268 C2270 1.419 . S
C2269 C2264 1.425 . S
C2269 C2266 1.409 . S
C2269 C2267 1.415 . S
C2270 H2260 0.930 . S
C2270 C2268 1.419 . S
C2270 C2271 1.362 . S
C2271 H2261 0.930 . S
C2271 C2264 1.409 . S
C2271 C2270 1.362 . S
H2272 C2278 0.930 . S
H2273 C2281 0.930 . S
H2274 C2282 0.930 . S
H2275 C2283 0.930 . S
H2276 C2286 0.930 . S
H2277 C2287 0.930 . S
C2278 H2272 0.930 . S
C2278 C2279 1.355 . S
C2278 C2280 1.415 . S
C2279 C2278 1.355 . S
C2279 C2281 1.419 . S
C2280 C2278 1.415 . S
C2280 C2285 1.425 . S
C2280 C2287 1.409 . S
C2281 H2273 0.930 . S
C2281 C2279 1.419 . S
C2281 C2282 1.362 . S
C2282 H2274 0.930 . S
C2282 C2281 1.362 . S
C2282 C2285 1.409 . S
C2283 H2275 0.930 . S
C2283 C2284 1.355 . S
C2283 C2285 1.415 . S
C2284 C2283 1.355 . S
C2284 C2286 1.419 . S
C2285 C2280 1.425 . S
C2285 C2282 1.409 . S
C2285 C2283 1.415 . S
C2286 H2276 0.930 . S
C2286 C2284 1.419 . S
C2286 C2287 1.362 . S
C2287 H2277 0.930 . S
C2287 C2280 1.409 . S
C2287 C2286 1.362 . S
H2288 C2294 0.930 . S
H2289 C2297 0.930 . S
H2290 C2298 0.930 . S
H2291 C2299 0.930 . S
H2292 C2302 0.930 . S
H2293 C2303 0.930 . S
C2294 H2288 0.930 . S
C2294 C2295 1.355 . S
C2294 C2296 1.415 . S
C2295 C2294 1.355 . S
C2295 C2297 1.419 . S
C2296 C2294 1.415 . S
C2296 C2301 1.409 1_554 S
C2296 C2303 1.409 . S
C2297 H2289 0.930 . S
C2297 C2295 1.419 . S
C2297 C2298 1.362 1_554 S
C2298 H2290 0.930 . S
C2298 C2297 1.362 1_556 S
C2298 C2301 1.411 . S
C2299 H2291 0.930 . S
C2299 C2300 1.355 . S
C2299 C2301 1.429 . S
C2300 C2299 1.355 . S
C2300 C2302 1.419 1_556 S
C2301 C2296 1.409 1_556 S
C2301 C2298 1.411 . S
C2301 C2299 1.429 . S
C2302 H2292 0.930 . S
C2302 C2300 1.419 1_554 S
C2302 C2303 1.362 . S
C2303 H2293 0.930 . S
C2303 C2296 1.409 . S
C2303 C2302 1.362 . S
H2304 C2310 0.930 . S
H2305 C2313 0.930 . S
H2306 C2314 0.930 . S
H2307 C2315 0.930 . S
H2308 C2318 0.930 . S
H2309 C2319 0.930 . S
C2310 H2304 0.930 . S
C2310 C2311 1.355 . S
C2310 C2312 1.415 . S
C2311 C2310 1.355 . S
C2311 C2313 1.419 . S
C2312 C2310 1.415 . S
C2312 C2317 1.425 . S
C2312 C2319 1.409 1_545 S
C2313 H2305 0.930 . S
C2313 C2311 1.419 . S
C2313 C2314 1.362 . S
C2314 H2306 0.930 . S
C2314 C2313 1.362 . S
C2314 C2317 1.409 . S
C2315 H2307 0.930 . S
C2315 C2316 1.355 1_545 S
C2315 C2317 1.415 . S
C2316 C2315 1.355 1_565 S
C2316 C2318 1.419 . S
C2317 C2312 1.425 . S
C2317 C2314 1.409 . S
C2317 C2315 1.415 . S
C2318 H2308 0.930 . S
C2318 C2316 1.419 . S
C2318 C2319 1.362 . S
C2319 H2309 0.930 . S
C2319 C2312 1.409 1_565 S
C2319 C2318 1.362 . S
H2320 C2326 0.930 . S
H2321 C2329 0.930 . S
H2322 C2330 0.930 . S
H2323 C2331 0.930 . S
H2324 C2334 0.930 . S
H2325 C2335 0.930 . S
C2326 H2320 0.930 . S
C2326 C2327 1.355 . S
C2326 C2328 1.415 1_554 S
C2327 C2326 1.355 . S
C2327 C2329 1.419 . S
C2328 C2326 1.415 1_556 S
C2328 C2333 1.425 . S
C2328 C2335 1.409 . S
C2329 H2321 0.930 . S
C2329 C2327 1.419 . S
C2329 C2330 1.362 1_554 S
C2330 H2322 0.930 . S
C2330 C2329 1.362 1_556 S
C2330 C2333 1.409 . S
C2331 H2323 0.930 . S
C2331 C2332 1.355 . S
C2331 C2333 1.415 . S
C2332 C2331 1.355 . S
C2332 C2334 1.419 . S
C2333 C2328 1.425 . S
C2333 C2330 1.409 . S
C2333 C2331 1.415 . S
C2334 H2324 0.930 . S
C2334 C2332 1.419 . S
C2334 C2335 1.362 . S
C2335 H2325 0.930 . S
C2335 C2328 1.409 . S
C2335 C2334 1.362 . S
H2336 C2342 0.930 . S
H2337 C2345 0.930 . S
H2338 C2346 0.930 . S
H2339 C2347 0.930 . S
H2340 C2350 0.930 . S
H2341 C2351 0.930 . S
C2342 H2336 0.930 . S
C2342 C2343 1.355 . S
C2342 C2344 1.415 . S
C2343 C2342 1.355 . S
C2343 C2345 1.419 . S
C2344 C2342 1.415 . S
C2344 C2349 1.425 . S
C2344 C2351 1.409 . S
C2345 H2337 0.930 . S
C2345 C2343 1.419 . S
C2345 C2346 1.362 . S
C2346 H2338 0.930 . S
C2346 C2345 1.362 . S
C2346 C2349 1.409 . S
C2347 H2339 0.930 . S
C2347 C2348 1.355 . S
C2347 C2349 1.415 . S
C2348 C2347 1.355 . S
C2348 C2350 1.419 . S
C2349 C2344 1.425 . S
C2349 C2346 1.409 . S
C2349 C2347 1.415 . S
C2350 H2340 0.930 . S
C2350 C2348 1.419 . S
C2350 C2351 1.362 . S
C2351 H2341 0.930 . S
C2351 C2344 1.409 . S
C2351 C2350 1.362 . S
H2352 C2358 0.930 . S
H2353 C2361 0.930 . S
H2354 C2362 0.930 . S
H2355 C2363 0.930 . S
H2356 C2366 0.930 . S
H2357 C2367 0.930 . S
C2358 H2352 0.930 . S
C2358 C2359 1.355 . S
C2358 C2360 1.415 . S
C2359 C2358 1.355 . S
C2359 C2361 1.419 . S
C2360 C2358 1.415 . S
C2360 C2365 1.425 . S
C2360 C2367 1.409 . S
C2361 H2353 0.930 . S
C2361 C2359 1.419 . S
C2361 C2362 1.362 . S
C2362 H2354 0.930 . S
C2362 C2361 1.362 . S
C2362 C2365 1.409 . S
C2363 H2355 0.930 . S
C2363 C2364 1.355 . S
C2363 C2365 1.415 . S
C2364 C2363 1.355 . S
C2364 C2366 1.419 . S
C2365 C2360 1.425 . S
C2365 C2362 1.409 . S
C2365 C2363 1.415 . S
C2366 H2356 0.930 . S
C2366 C2364 1.419 . S
C2366 C2367 1.362 . S
C2367 H2357 0.930 . S
C2367 C2360 1.409 . S
C2367 C2366 1.362 . S
H2368 C2374 0.930 . S
H2369 C2377 0.930 . S
H2370 C2378 0.930 . S
H2371 C2379 0.930 . S
H2372 C2382 0.930 . S
H2373 C2383 0.930 . S
C2374 H2368 0.930 . S
C2374 C2375 1.355 . S
C2374 C2376 1.415 . S
C2375 C2374 1.355 . S
C2375 C2377 1.419 . S
C2376 C2374 1.415 . S
C2376 C2381 1.385 1_556 S
C2376 C2383 1.409 . S
C2377 H2369 0.930 . S
C2377 C2375 1.419 . S
C2377 C2378 1.362 1_556 S
C2378 H2370 0.930 . S
C2378 C2377 1.362 1_554 S
C2378 C2381 1.415 . S
C2379 H2371 0.930 . S
C2379 C2380 1.355 . S
C2379 C2381 1.448 . S
C2380 C2379 1.355 . S
C2380 C2382 1.419 1_554 S
C2381 C2376 1.385 1_554 S
C2381 C2378 1.415 . S
C2381 C2379 1.448 . S
C2382 H2372 0.930 . S
C2382 C2380 1.419 1_556 S
C2382 C2383 1.362 . S
C2383 H2373 0.930 . S
C2383 C2376 1.409 . S
C2383 C2382 1.362 . S
H2384 C2390 0.930 . S
H2385 C2393 0.930 . S
H2386 C2394 0.930 . S
H2387 C2395 0.930 . S
H2388 C2398 0.930 . S
H2389 C2399 0.930 . S
C2390 H2384 0.930 . S
C2390 C2391 1.355 . S
C2390 C2392 1.415 . S
C2391 C2390 1.355 . S
C2391 C2393 1.419 . S
C2392 C2390 1.415 . S
C2392 C2397 1.425 . S
C2392 C2399 1.409 . S
C2393 H2385 0.930 . S
C2393 C2391 1.419 . S
C2393 C2394 1.362 . S
C2394 H2386 0.930 . S
C2394 C2393 1.362 . S
C2394 C2397 1.409 . S
C2395 H2387 0.930 . S
C2395 C2396 1.355 . S
C2395 C2397 1.415 . S
C2396 C2395 1.355 . S
C2396 C2398 1.419 . S
C2397 C2392 1.425 . S
C2397 C2394 1.409 . S
C2397 C2395 1.415 . S
C2398 H2388 0.930 . S
C2398 C2396 1.419 . S
C2398 C2399 1.362 . S
C2399 H2389 0.930 . S
C2399 C2392 1.409 . S
C2399 C2398 1.362 . S
H2400 C2406 0.930 . S
H2401 C2409 0.930 . S
H2402 C2410 0.930 . S
H2403 C2411 0.930 . S
H2404 C2414 0.930 . S
H2405 C2415 0.930 . S
C2406 H2400 0.930 . S
C2406 C2407 1.355 . S
C2406 C2408 1.415 . S
C2407 C2406 1.355 . S
C2407 C2409 1.419 . S
C2408 C2406 1.415 . S
C2408 C2413 1.425 1_545 S
C2408 C2415 1.409 . S
C2409 H2401 0.930 . S
C2409 C2407 1.419 . S
C2409 C2410 1.362 1_545 S
C2410 H2402 0.930 . S
C2410 C2409 1.362 1_565 S
C2410 C2413 1.409 . S
C2411 H2403 0.930 . S
C2411 C2412 1.355 . S
C2411 C2413 1.415 . S
C2412 C2411 1.355 . S
C2412 C2414 1.419 1_565 S
C2413 C2408 1.425 1_565 S
C2413 C2410 1.409 . S
C2413 C2411 1.415 . S
C2414 H2404 0.930 . S
C2414 C2412 1.419 1_545 S
C2414 C2415 1.362 . S
C2415 H2405 0.930 . S
C2415 C2408 1.409 . S
C2415 C2414 1.362 . S
H2416 C2422 0.929 . S
H2417 C2425 0.930 . S
H2418 C2426 0.930 . S
H2419 C2427 0.930 . S
H2420 C2430 0.930 . S
H2421 C2431 0.930 . S
C2422 H2416 0.929 . S
C2422 C2423 1.355 . S
C2422 C2424 1.415 1_556 S
C2423 C2422 1.355 . S
C2423 C2425 1.419 . S
C2424 C2422 1.415 1_554 S
C2424 C2429 1.425 . S
C2424 C2431 1.409 . S
C2425 H2417 0.930 . S
C2425 C2423 1.419 . S
C2425 C2426 1.362 . S
C2426 H2418 0.930 . S
C2426 C2425 1.362 . S
C2426 C2429 1.409 1_556 S
C2427 H2419 0.930 . S
C2427 C2428 1.355 . S
C2427 C2429 1.415 . S
C2428 C2427 1.355 . S
C2428 C2430 1.419 . S
C2429 C2424 1.425 . S
C2429 C2426 1.409 1_554 S
C2429 C2427 1.415 . S
C2430 H2420 0.930 . S
C2430 C2428 1.419 . S
C2430 C2431 1.362 . S
C2431 H2421 0.930 . S
C2431 C2424 1.409 . S
C2431 C2430 1.362 . S
H2432 C2438 0.930 . S
H2433 C2441 0.930 . S
H2434 C2442 0.930 . S
H2435 C2443 0.930 . S
H2436 C2446 0.930 . S
H2437 C2447 0.930 . S
C2438 H2432 0.930 . S
C2438 C2439 1.355 . S
C2438 C2440 1.415 1_554 S
C2439 C2438 1.355 . S
C2439 C2441 1.419 . S
C2440 C2438 1.415 1_556 S
C2440 C2445 1.425 . S
C2440 C2447 1.409 . S
C2441 H2433 0.930 . S
C2441 C2439 1.419 . S
C2441 C2442 1.362 1_554 S
C2442 H2434 0.930 . S
C2442 C2441 1.362 1_556 S
C2442 C2445 1.409 . S
C2443 H2435 0.930 . S
C2443 C2444 1.355 . S
C2443 C2445 1.415 . S
C2444 C2443 1.355 . S
C2444 C2446 1.419 . S
C2445 C2440 1.425 . S
C2445 C2442 1.409 . S
C2445 C2443 1.415 . S
C2446 H2436 0.930 . S
C2446 C2444 1.419 . S
C2446 C2447 1.362 . S
C2447 H2437 0.930 . S
C2447 C2440 1.409 . S
C2447 C2446 1.362 . S
H2448 C2454 0.930 . S
H2449 C2457 0.930 . S
H2450 C2458 0.930 . S
H2451 C2459 0.930 . S
H2452 C2462 0.930 . S
H2453 C2463 0.930 . S
C2454 H2448 0.930 . S
C2454 C2455 1.355 . S
C2454 C2456 1.415 . S
C2455 C2454 1.355 . S
C2455 C2457 1.419 . S
C2456 C2454 1.415 . S
C2456 C2461 1.425 . S
C2456 C2463 1.409 . S
C2457 H2449 0.930 . S
C2457 C2455 1.419 . S
C2457 C2458 1.362 . S
C2458 H2450 0.930 . S
C2458 C2457 1.362 . S
C2458 C2461 1.409 . S
C2459 H2451 0.930 . S
C2459 C2460 1.355 . S
C2459 C2461 1.415 . S
C2460 C2459 1.355 . S
C2460 C2462 1.419 . S
C2461 C2456 1.425 . S
C2461 C2458 1.409 . S
C2461 C2459 1.415 . S
C2462 H2452 0.930 . S
C2462 C2460 1.419 . S
C2462 C2463 1.362 . S
C2463 H2453 0.930 . S
C2463 C2456 1.409 . S
C2463 C2462 1.362 . S
H2464 C2470 0.930 . S
H2465 C2473 0.930 . S
H2466 C2474 0.930 . S
H2467 C2475 0.930 . S
H2468 C2478 0.930 . S
H2469 C2479 0.930 . S
C2470 H2464 0.930 . S
C2470 C2471 1.355 1_545 S
C2470 C2472 1.415 . S
C2471 C2470 1.355 1_565 S
C2471 C2473 1.419 . S
C2472 C2470 1.415 . S
C2472 C2477 1.425 . S
C2472 C2479 1.409 . S
C2473 H2465 0.930 . S
C2473 C2471 1.419 . S
C2473 C2474 1.362 . S
C2474 H2466 0.930 . S
C2474 C2473 1.362 . S
C2474 C2477 1.409 1_565 S
C2475 H2467 0.930 . S
C2475 C2476 1.355 . S
C2475 C2477 1.415 . S
C2476 C2475 1.355 . S
C2476 C2478 1.419 . S
C2477 C2472 1.425 . S
C2477 C2474 1.409 1_545 S
C2477 C2475 1.415 . S
C2478 H2468 0.930 . S
C2478 C2476 1.419 . S
C2478 C2479 1.362 . S
C2479 H2469 0.930 . S
C2479 C2472 1.409 . S
C2479 C2478 1.362 . S
H2480 C2486 0.930 . S
H2481 C2489 0.930 . S
H2482 C2490 0.930 . S
H2483 C2491 0.930 . S
H2484 C2494 0.930 . S
H2485 C2495 0.930 . S
C2486 H2480 0.930 . S
C2486 C2487 1.355 1_655 S
C2486 C2488 1.415 . S
C2487 C2486 1.355 1_455 S
C2487 C2489 1.419 . S
C2488 C2486 1.415 . S
C2488 C2493 1.425 . S
C2488 C2495 1.409 . S
C2489 H2481 0.930 . S
C2489 C2487 1.419 . S
C2489 C2490 1.362 . S
C2490 H2482 0.930 . S
C2490 C2489 1.362 . S
C2490 C2493 1.409 1_455 S
C2491 H2483 0.930 . S
C2491 C2492 1.355 . S
C2491 C2493 1.415 . S
C2492 C2491 1.355 . S
C2492 C2494 1.419 . S
C2493 C2488 1.425 . S
C2493 C2490 1.409 1_655 S
C2493 C2491 1.415 . S
C2494 H2484 0.930 . S
C2494 C2492 1.419 . S
C2494 C2495 1.362 . S
C2495 H2485 0.930 . S
C2495 C2488 1.409 . S
C2495 C2494 1.362 . S
H2496 C2502 0.930 . S
H2497 C2505 0.930 . S
H2498 C2506 0.930 . S
H2499 C2507 0.930 . S
H2500 C2510 0.930 . S
H2501 C2511 0.930 . S
C2502 H2496 0.930 . S
C2502 C2503 1.355 . S
C2502 C2504 1.415 . S
C2503 C2502 1.355 . S
C2503 C2505 1.419 . S
C2504 C2502 1.415 . S
C2504 C2509 1.425 1_455 S
C2504 C2511 1.409 . S
C2505 H2497 0.930 . S
C2505 C2503 1.419 . S
C2505 C2506 1.362 1_455 S
C2506 H2498 0.930 . S
C2506 C2505 1.362 1_655 S
C2506 C2509 1.409 . S
C2507 H2499 0.930 . S
C2507 C2508 1.355 . S
C2507 C2509 1.415 . S
C2508 C2507 1.355 . S
C2508 C2510 1.419 1_655 S
C2509 C2504 1.425 1_655 S
C2509 C2506 1.409 . S
C2509 C2507 1.415 . S
C2510 H2500 0.930 . S
C2510 C2508 1.419 1_455 S
C2510 C2511 1.362 . S
C2511 H2501 0.930 . S
C2511 C2504 1.409 . S
C2511 C2510 1.362 . S
H2512 C2518 0.930 . S
H2513 C2521 0.930 . S
H2514 C2522 0.930 . S
H2515 C2523 0.930 . S
H2516 C2526 0.930 . S
H2517 C2527 0.930 . S
C2518 H2512 0.930 . S
C2518 C2519 1.355 . S
C2518 C2520 1.415 . S
C2519 C2518 1.355 . S
C2519 C2521 1.419 . S
C2520 C2518 1.415 . S
C2520 C2525 1.425 . S
C2520 C2527 1.409 . S
C2521 H2513 0.930 . S
C2521 C2519 1.419 . S
C2521 C2522 1.362 . S
C2522 H2514 0.930 . S
C2522 C2521 1.362 . S
C2522 C2525 1.409 . S
C2523 H2515 0.930 . S
C2523 C2524 1.355 . S
C2523 C2525 1.415 . S
C2524 C2523 1.355 . S
C2524 C2526 1.419 . S
C2525 C2520 1.425 . S
C2525 C2522 1.409 . S
C2525 C2523 1.415 . S
C2526 H2516 0.930 . S
C2526 C2524 1.419 . S
C2526 C2527 1.362 . S
C2527 H2517 0.930 . S
C2527 C2520 1.409 . S
C2527 C2526 1.362 . S
H2528 C2534 0.930 . S
H2529 C2537 0.930 . S
H2530 C2538 0.930 . S
H2531 C2539 0.930 . S
H2532 C2542 0.930 . S
H2533 C2543 0.930 . S
C2534 H2528 0.930 . S
C2534 C2535 1.355 . S
C2534 C2536 1.415 . S
C2535 C2534 1.355 . S
C2535 C2537 1.419 . S
C2536 C2534 1.415 . S
C2536 C2541 1.425 . S
C2536 C2543 1.409 . S
C2537 H2529 0.930 . S
C2537 C2535 1.419 . S
C2537 C2538 1.362 . S
C2538 H2530 0.930 . S
C2538 C2537 1.362 . S
C2538 C2541 1.409 . S
C2539 H2531 0.930 . S
C2539 C2540 1.355 . S
C2539 C2541 1.415 . S
C2540 C2539 1.355 . S
C2540 C2542 1.419 . S
C2541 C2536 1.425 . S
C2541 C2538 1.409 . S
C2541 C2539 1.415 . S
C2542 H2532 0.930 . S
C2542 C2540 1.419 . S
C2542 C2543 1.362 . S
C2543 H2533 0.930 . S
C2543 C2536 1.409 . S
C2543 C2542 1.362 . S
H2544 C2550 0.930 . S
H2545 C2553 0.930 . S
H2546 C2554 0.930 . S
H2547 C2555 0.930 . S
H2548 C2558 0.930 . S
H2549 C2559 0.930 . S
C2550 H2544 0.930 . S
C2550 C2551 1.355 . S
C2550 C2552 1.415 . S
C2551 C2550 1.355 . S
C2551 C2553 1.419 . S
C2552 C2550 1.415 . S
C2552 C2557 1.425 . S
C2552 C2559 1.409 . S
C2553 H2545 0.930 . S
C2553 C2551 1.419 . S
C2553 C2554 1.362 . S
C2554 H2546 0.930 . S
C2554 C2553 1.362 . S
C2554 C2557 1.409 . S
C2555 H2547 0.930 . S
C2555 C2556 1.355 . S
C2555 C2557 1.415 . S
C2556 C2555 1.355 . S
C2556 C2558 1.419 . S
C2557 C2552 1.425 . S
C2557 C2554 1.409 . S
C2557 C2555 1.415 . S
C2558 H2548 0.930 . S
C2558 C2556 1.419 . S
C2558 C2559 1.362 . S
C2559 H2549 0.930 . S
C2559 C2552 1.409 . S
C2559 C2558 1.362 . S
H2560 C2566 0.930 . S
H2561 C2569 0.930 . S
H2562 C2570 0.930 . S
H2563 C2571 0.930 . S
H2564 C2574 0.930 . S
H2565 C2575 0.930 . S
C2566 H2560 0.930 . S
C2566 C2567 1.355 . S
C2566 C2568 1.415 . S
C2567 C2566 1.355 . S
C2567 C2569 1.419 . S
C2568 C2566 1.415 . S
C2568 C2573 1.425 . S
C2568 C2575 1.409 1_554 S
C2569 H2561 0.930 . S
C2569 C2567 1.419 . S
C2569 C2570 1.362 . S
C2570 H2562 0.930 . S
C2570 C2569 1.362 . S
C2570 C2573 1.409 . S
C2571 H2563 0.930 . S
C2571 C2572 1.355 1_554 S
C2571 C2573 1.415 . S
C2572 C2571 1.355 1_556 S
C2572 C2574 1.419 . S
C2573 C2568 1.425 . S
C2573 C2570 1.409 . S
C2573 C2571 1.415 . S
C2574 H2564 0.930 . S
C2574 C2572 1.419 . S
C2574 C2575 1.362 . S
C2575 H2565 0.930 . S
C2575 C2568 1.409 1_556 S
C2575 C2574 1.362 . S
H2576 C2582 0.930 . S
H2577 C2585 0.930 . S
H2578 C2586 0.927 1_545 S
H2579 C2587 0.930 . S
H2580 C2590 0.930 . S
H2581 C2591 0.930 . S
C2582 H2576 0.930 . S
C2582 C2583 1.355 . S
C2582 C2584 1.415 1_565 S
C2583 C2582 1.355 . S
C2583 C2585 1.419 . S
C2584 C2582 1.415 1_545 S
C2584 C2589 1.425 . S
C2584 C2591 1.409 . S
C2585 H2577 0.930 . S
C2585 C2583 1.419 . S
C2585 C2586 1.391 . S
C2586 H2578 0.927 1_565 S
C2586 C2585 1.391 . S
C2586 C2589 1.386 1_565 S
C2587 H2579 0.930 . S
C2587 C2588 1.355 . S
C2587 C2589 1.415 . S
C2588 C2587 1.355 . S
C2588 C2590 1.419 . S
C2589 C2584 1.425 . S
C2589 C2586 1.386 1_545 S
C2589 C2587 1.415 . S
C2590 H2580 0.930 . S
C2590 C2588 1.419 . S
C2590 C2591 1.362 . S
C2591 H2581 0.930 . S
C2591 C2584 1.409 . S
C2591 C2590 1.362 . S
H2592 C2598 0.930 . S
H2593 C2601 0.930 . S
H2594 C2602 0.930 . S
H2595 C2603 0.930 . S
H2596 C2606 0.930 . S
H2597 C2607 0.930 . S
C2598 H2592 0.930 . S
C2598 C2599 1.355 . S
C2598 C2600 1.415 . S
C2599 C2598 1.355 . S
C2599 C2601 1.419 . S
C2600 C2598 1.415 . S
C2600 C2605 1.425 . S
C2600 C2607 1.409 . S
C2601 H2593 0.930 . S
C2601 C2599 1.419 . S
C2601 C2602 1.362 . S
C2602 H2594 0.930 . S
C2602 C2601 1.362 . S
C2602 C2605 1.409 . S
C2603 H2595 0.930 . S
C2603 C2604 1.355 . S
C2603 C2605 1.415 . S
C2604 C2603 1.355 . S
C2604 C2606 1.419 . S
C2605 C2600 1.425 . S
C2605 C2602 1.409 . S
C2605 C2603 1.415 . S
C2606 H2596 0.930 . S
C2606 C2604 1.419 . S
C2606 C2607 1.362 . S
C2607 H2597 0.930 . S
C2607 C2600 1.409 . S
C2607 C2606 1.362 . S
H2608 C2614 0.930 . S
H2609 C2617 0.930 . S
H2610 C2618 0.930 . S
H2611 C2619 0.930 . S
H2612 C2622 0.930 . S
H2613 C2623 0.930 . S
C2614 H2608 0.930 . S
C2614 C2615 1.355 . S
C2614 C2616 1.415 . S
C2615 C2614 1.355 . S
C2615 C2617 1.419 . S
C2616 C2614 1.415 . S
C2616 C2621 1.425 . S
C2616 C2623 1.409 . S
C2617 H2609 0.930 . S
C2617 C2615 1.419 . S
C2617 C2618 1.362 . S
C2618 H2610 0.930 . S
C2618 C2617 1.362 . S
C2618 C2621 1.409 . S
C2619 H2611 0.930 . S
C2619 C2620 1.355 . S
C2619 C2621 1.415 . S
C2620 C2619 1.355 . S
C2620 C2622 1.419 . S
C2621 C2616 1.425 . S
C2621 C2618 1.409 . S
C2621 C2619 1.415 . S
C2622 H2612 0.930 . S
C2622 C2620 1.419 . S
C2622 C2623 1.362 . S
C2623 H2613 0.930 . S
C2623 C2616 1.409 . S
C2623 C2622 1.362 . S
H2624 C2630 0.930 . S
H2625 C2633 0.930 . S
H2626 C2634 0.930 . S
H2627 C2635 0.930 . S
H2628 C2638 0.930 . S
H2629 C2639 0.930 . S
C2630 H2624 0.930 . S
C2630 C2631 1.355 . S
C2630 C2632 1.415 . S
C2631 C2630 1.355 . S
C2631 C2633 1.419 . S
C2632 C2630 1.415 . S
C2632 C2637 1.425 . S
C2632 C2639 1.409 . S
C2633 H2625 0.930 . S
C2633 C2631 1.419 . S
C2633 C2634 1.362 . S
C2634 H2626 0.930 . S
C2634 C2633 1.362 . S
C2634 C2637 1.409 . S
C2635 H2627 0.930 . S
C2635 C2636 1.355 . S
C2635 C2637 1.415 . S
C2636 C2635 1.355 . S
C2636 C2638 1.419 . S
C2637 C2632 1.425 . S
C2637 C2634 1.409 . S
C2637 C2635 1.415 . S
C2638 H2628 0.930 . S
C2638 C2636 1.419 . S
C2638 C2639 1.362 . S
C2639 H2629 0.930 . S
C2639 C2632 1.409 . S
C2639 C2638 1.362 . S
H2640 C2646 0.930 . S
H2641 C2649 0.930 . S
H2642 C2650 0.930 . S
H2643 C2651 0.930 . S
H2644 C2654 0.930 . S
H2645 C2655 0.930 . S
C2646 H2640 0.930 . S
C2646 C2647 1.355 . S
C2646 C2648 1.415 . S
C2647 C2646 1.355 . S
C2647 C2649 1.419 . S
C2648 C2646 1.415 . S
C2648 C2653 1.425 . S
C2648 C2655 1.409 . S
C2649 H2641 0.930 . S
C2649 C2647 1.419 . S
C2649 C2650 1.362 . S
C2650 H2642 0.930 . S
C2650 C2649 1.362 . S
C2650 C2653 1.409 . S
C2651 H2643 0.930 . S
C2651 C2652 1.355 . S
C2651 C2653 1.415 1_545 S
C2652 C2651 1.355 . S
C2652 C2654 1.419 . S
C2653 C2648 1.425 . S
C2653 C2650 1.409 . S
C2653 C2651 1.415 1_565 S
C2654 H2644 0.930 . S
C2654 C2652 1.419 . S
C2654 C2655 1.362 1_545 S
C2655 H2645 0.930 . S
C2655 C2648 1.409 . S
C2655 C2654 1.362 1_565 S
H2656 C2662 0.930 . S
H2657 C2665 0.930 . S
H2658 C2666 0.930 . S
H2659 C2667 0.930 . S
H2660 C2670 0.930 . S
H2661 C2671 0.978 . S
C2662 H2656 0.930 . S
C2662 C2663 1.355 . S
C2662 C2664 1.411 . S
C2663 C2662 1.355 . S
C2663 C2665 1.419 1_554 S
C2664 C2662 1.411 . S
C2664 C2669 1.430 1_554 S
C2664 C2671 1.407 . S
C2665 H2657 0.930 . S
C2665 C2663 1.419 1_556 S
C2665 C2666 1.362 . S
C2666 H2658 0.930 . S
C2666 C2665 1.362 . S
C2666 C2669 1.409 . S
C2667 H2659 0.930 . S
C2667 C2668 1.355 . S
C2667 C2669 1.415 . S
C2668 C2667 1.355 . S
C2668 C2670 1.419 . S
C2669 C2664 1.430 1_556 S
C2669 C2666 1.409 . S
C2669 C2667 1.415 . S
C2670 H2660 0.930 . S
C2670 C2668 1.419 . S
C2670 C2671 1.320 1_556 S
C2671 H2661 0.978 . S
C2671 C2664 1.407 . S
C2671 C2670 1.320 1_554 S
H2672 C2678 0.930 . S
H2673 C2681 0.930 . S
H2674 C2682 0.930 . S
H2675 C2683 0.930 . S
H2676 C2686 0.930 . S
H2677 C2687 0.930 . S
C2678 H2672 0.930 . S
C2678 C2679 1.355 . S
C2678 C2680 1.415 . S
C2679 C2678 1.355 . S
C2679 C2681 1.419 . S
C2680 C2678 1.415 . S
C2680 C2685 1.425 . S
C2680 C2687 1.409 . S
C2681 H2673 0.930 . S
C2681 C2679 1.419 . S
C2681 C2682 1.362 . S
C2682 H2674 0.930 . S
C2682 C2681 1.362 . S
C2682 C2685 1.409 . S
C2683 H2675 0.930 . S
C2683 C2684 1.355 . S
C2683 C2685 1.415 . S
C2684 C2683 1.355 . S
C2684 C2686 1.419 . S
C2685 C2680 1.425 . S
C2685 C2682 1.409 . S
C2685 C2683 1.415 . S
C2686 H2676 0.930 . S
C2686 C2684 1.419 . S
C2686 C2687 1.362 . S
C2687 H2677 0.930 . S
C2687 C2680 1.409 . S
C2687 C2686 1.362 . S
H2688 C2694 0.931 1_554 S
H2689 C2697 0.930 . S
H2690 C2698 0.930 . S
H2691 C2699 0.930 . S
H2692 C2702 0.930 . S
H2693 C2703 0.930 . S
C2694 H2688 0.931 1_556 S
C2694 C2695 1.350 . S
C2694 C2696 1.418 1_556 S
C2695 C2694 1.350 . S
C2695 C2697 1.419 . S
C2696 C2694 1.418 1_554 S
C2696 C2701 1.425 . S
C2696 C2703 1.409 . S
C2697 H2689 0.930 . S
C2697 C2695 1.419 . S
C2697 C2698 1.362 . S
C2698 H2690 0.930 . S
C2698 C2697 1.362 . S
C2698 C2701 1.409 1_556 S
C2699 H2691 0.930 . S
C2699 C2700 1.355 . S
C2699 C2701 1.415 . S
C2700 C2699 1.355 . S
C2700 C2702 1.419 . S
C2701 C2696 1.425 . S
C2701 C2698 1.409 1_554 S
C2701 C2699 1.415 . S
C2702 H2692 0.930 . S
C2702 C2700 1.419 . S
C2702 C2703 1.362 . S
C2703 H2693 0.930 . S
C2703 C2696 1.409 . S
C2703 C2702 1.362 . S
H2704 C2710 0.930 . S
H2705 C2713 0.930 . S
H2706 C2714 0.930 . S
H2707 C2715 0.930 . S
H2708 C2718 0.930 . S
H2709 C2719 0.930 . S
C2710 H2704 0.930 . S
C2710 C2711 1.355 . S
C2710 C2712 1.415 . S
C2711 C2710 1.355 . S
C2711 C2713 1.419 . S
C2712 C2710 1.415 . S
C2712 C2717 1.425 . S
C2712 C2719 1.409 . S
C2713 H2705 0.930 . S
C2713 C2711 1.419 . S
C2713 C2714 1.362 . S
C2714 H2706 0.930 . S
C2714 C2713 1.362 . S
C2714 C2717 1.409 . S
C2715 H2707 0.930 . S
C2715 C2716 1.355 . S
C2715 C2717 1.415 . S
C2716 C2715 1.355 . S
C2716 C2718 1.419 . S
C2717 C2712 1.425 . S
C2717 C2714 1.409 . S
C2717 C2715 1.415 . S
C2718 H2708 0.930 . S
C2718 C2716 1.419 . S
C2718 C2719 1.362 . S
C2719 H2709 0.930 . S
C2719 C2712 1.409 . S
C2719 C2718 1.362 . S
H2720 C2726 0.930 . S
H2721 C2729 0.930 . S
H2722 C2730 0.930 . S
H2723 C2731 0.930 . S
H2724 C2734 0.930 . S
H2725 C2735 0.930 . S
C2726 H2720 0.930 . S
C2726 C2727 1.355 . S
C2726 C2728 1.415 . S
C2727 C2726 1.355 . S
C2727 C2729 1.419 . S
C2728 C2726 1.415 . S
C2728 C2733 1.425 . S
C2728 C2735 1.409 . S
C2729 H2721 0.930 . S
C2729 C2727 1.419 . S
C2729 C2730 1.362 . S
C2730 H2722 0.930 . S
C2730 C2729 1.362 . S
C2730 C2733 1.409 . S
C2731 H2723 0.930 . S
C2731 C2732 1.355 . S
C2731 C2733 1.415 . S
C2732 C2731 1.355 . S
C2732 C2734 1.419 . S
C2733 C2728 1.425 . S
C2733 C2730 1.409 . S
C2733 C2731 1.415 . S
C2734 H2724 0.930 . S
C2734 C2732 1.419 . S
C2734 C2735 1.362 . S
C2735 H2725 0.930 . S
C2735 C2728 1.409 . S
C2735 C2734 1.362 . S
H2736 C2742 0.930 . S
H2737 C2745 0.930 . S
H2738 C2746 0.930 . S
H2739 C2747 0.930 . S
H2740 C2750 0.930 . S
H2741 C2751 0.930 . S
C2742 H2736 0.930 . S
C2742 C2743 1.355 . S
C2742 C2744 1.415 . S
C2743 C2742 1.355 . S
C2743 C2745 1.419 . S
C2744 C2742 1.415 . S
C2744 C2749 1.425 . S
C2744 C2751 1.409 . S
C2745 H2737 0.930 . S
C2745 C2743 1.419 . S
C2745 C2746 1.362 . S
C2746 H2738 0.930 . S
C2746 C2745 1.362 . S
C2746 C2749 1.409 . S
C2747 H2739 0.930 . S
C2747 C2748 1.355 . S
C2747 C2749 1.415 . S
C2748 C2747 1.355 . S
C2748 C2750 1.419 . S
C2749 C2744 1.425 . S
C2749 C2746 1.409 . S
C2749 C2747 1.415 . S
C2750 H2740 0.930 . S
C2750 C2748 1.419 . S
C2750 C2751 1.362 . S
C2751 H2741 0.930 . S
C2751 C2744 1.409 . S
C2751 C2750 1.362 . S
H2752 C2758 0.930 . S
H2753 C2761 0.930 . S
H2754 C2762 0.930 . S
H2755 C2763 0.930 . S
H2756 C2766 0.930 . S
H2757 C2767 0.930 . S
C2758 H2752 0.930 . S
C2758 C2759 1.355 1_565 S
C2758 C2760 1.415 . S
C2759 C2758 1.355 1_545 S
C2759 C2761 1.419 . S
C2760 C2758 1.415 . S
C2760 C2765 1.425 . S
C2760 C2767 1.409 . S
C2761 H2753 0.930 . S
C2761 C2759 1.419 . S
C2761 C2762 1.362 . S
C2762 H2754 0.930 . S
C2762 C2761 1.362 . S
C2762 C2765 1.409 1_545 S
C2763 H2755 0.930 . S
C2763 C2764 1.355 . S
C2763 C2765 1.415 . S
C2764 C2763 1.355 . S
C2764 C2766 1.419 . S
C2765 C2760 1.425 . S
C2765 C2762 1.409 1_565 S
C2765 C2763 1.415 . S
C2766 H2756 0.930 . S
C2766 C2764 1.419 . S
C2766 C2767 1.362 . S
C2767 H2757 0.930 . S
C2767 C2760 1.409 . S
C2767 C2766 1.362 . S
H2768 C2774 0.930 . S
H2769 C2777 0.930 . S
H2770 C2778 0.930 . S
H2771 C2779 0.930 . S
H2772 C2782 0.930 . S
H2773 C2783 0.930 . S
C2774 H2768 0.930 . S
C2774 C2775 1.355 . S
C2774 C2776 1.415 . S
C2775 C2774 1.355 . S
C2775 C2777 1.419 . S
C2776 C2774 1.415 . S
C2776 C2781 1.425 . S
C2776 C2783 1.409 . S
C2777 H2769 0.930 . S
C2777 C2775 1.419 . S
C2777 C2778 1.362 . S
C2778 H2770 0.930 . S
C2778 C2777 1.362 . S
C2778 C2781 1.409 . S
C2779 H2771 0.930 . S
C2779 C2780 1.355 . S
C2779 C2781 1.415 . S
C2780 C2779 1.355 . S
C2780 C2782 1.419 . S
C2781 C2776 1.425 . S
C2781 C2778 1.409 . S
C2781 C2779 1.415 . S
C2782 H2772 0.930 . S
C2782 C2780 1.419 . S
C2782 C2783 1.362 . S
C2783 H2773 0.930 . S
C2783 C2776 1.409 . S
C2783 C2782 1.362 . S
H2784 C2790 0.930 . S
H2785 C2793 0.930 . S
H2786 C2794 0.930 . S
H2787 C2795 0.930 . S
H2788 C2798 0.930 . S
H2789 C2799 0.930 . S
C2790 H2784 0.930 . S
C2790 C2791 1.355 . S
C2790 C2792 1.415 . S
C2791 C2790 1.355 . S
C2791 C2793 1.419 . S
C2792 C2790 1.415 . S
C2792 C2797 1.425 . S
C2792 C2799 1.409 . S
C2793 H2785 0.930 . S
C2793 C2791 1.419 . S
C2793 C2794 1.362 . S
C2794 H2786 0.930 . S
C2794 C2793 1.362 . S
C2794 C2797 1.409 . S
C2795 H2787 0.930 . S
C2795 C2796 1.355 . S
C2795 C2797 1.415 . S
C2796 C2795 1.355 . S
C2796 C2798 1.419 . S
C2797 C2792 1.425 . S
C2797 C2794 1.409 . S
C2797 C2795 1.415 . S
C2798 H2788 0.930 . S
C2798 C2796 1.419 . S
C2798 C2799 1.362 . S
C2799 H2789 0.930 . S
C2799 C2792 1.409 . S
C2799 C2798 1.362 . S
H2800 C2806 0.930 . S
H2801 C2809 0.930 . S
H2802 C2810 0.930 . S
H2803 C2811 0.930 . S
H2804 C2814 0.930 . S
H2805 C2815 0.930 . S
C2806 H2800 0.930 . S
C2806 C2807 1.355 . S
C2806 C2808 1.415 . S
C2807 C2806 1.355 . S
C2807 C2809 1.419 . S
C2808 C2806 1.415 . S
C2808 C2813 1.425 . S
C2808 C2815 1.409 . S
C2809 H2801 0.930 . S
C2809 C2807 1.419 . S
C2809 C2810 1.362 . S
C2810 H2802 0.930 . S
C2810 C2809 1.362 . S
C2810 C2813 1.409 . S
C2811 H2803 0.930 . S
C2811 C2812 1.355 . S
C2811 C2813 1.415 . S
C2812 C2811 1.355 . S
C2812 C2814 1.419 . S
C2813 C2808 1.425 . S
C2813 C2810 1.409 . S
C2813 C2811 1.415 . S
C2814 H2804 0.930 . S
C2814 C2812 1.419 . S
C2814 C2815 1.362 . S
C2815 H2805 0.930 . S
C2815 C2808 1.409 . S
C2815 C2814 1.362 . S
H2816 C2822 0.930 . S
H2817 C2825 0.930 . S
H2818 C2826 0.930 . S
H2819 C2827 0.930 . S
H2820 C2830 0.930 . S
H2821 C2831 0.930 . S
C2822 H2816 0.930 . S
C2822 C2823 1.355 . S
C2822 C2824 1.415 . S
C2823 C2822 1.355 . S
C2823 C2825 1.419 . S
C2824 C2822 1.415 . S
C2824 C2829 1.425 . S
C2824 C2831 1.409 . S
C2825 H2817 0.930 . S
C2825 C2823 1.419 . S
C2825 C2826 1.362 . S
C2826 H2818 0.930 . S
C2826 C2825 1.362 . S
C2826 C2829 1.409 . S
C2827 H2819 0.930 . S
C2827 C2828 1.355 . S
C2827 C2829 1.415 . S
C2828 C2827 1.355 . S
C2828 C2830 1.419 . S
C2829 C2824 1.425 . S
C2829 C2826 1.409 . S
C2829 C2827 1.415 . S
C2830 H2820 0.930 . S
C2830 C2828 1.419 . S
C2830 C2831 1.362 . S
C2831 H2821 0.930 . S
C2831 C2824 1.409 . S
C2831 C2830 1.362 . S
H2832 C2838 0.930 . S
H2833 C2841 0.930 . S
H2834 C2842 0.930 . S
H2835 C2843 0.930 . S
H2836 C2846 0.930 . S
H2837 C2847 0.930 . S
C2838 H2832 0.930 . S
C2838 C2839 1.355 . S
C2838 C2840 1.415 . S
C2839 C2838 1.355 . S
C2839 C2841 1.419 . S
C2840 C2838 1.415 . S
C2840 C2845 1.425 . S
C2840 C2847 1.409 . S
C2841 H2833 0.930 . S
C2841 C2839 1.419 . S
C2841 C2842 1.362 . S
C2842 H2834 0.930 . S
C2842 C2841 1.362 . S
C2842 C2845 1.409 . S
C2843 H2835 0.930 . S
C2843 C2844 1.355 . S
C2843 C2845 1.415 . S
C2844 C2843 1.355 . S
C2844 C2846 1.419 . S
C2845 C2840 1.425 . S
C2845 C2842 1.409 . S
C2845 C2843 1.415 . S
C2846 H2836 0.930 . S
C2846 C2844 1.419 . S
C2846 C2847 1.362 . S
C2847 H2837 0.930 . S
C2847 C2840 1.409 . S
C2847 C2846 1.362 . S
H2848 C2854 0.930 . S
H2849 C2857 0.930 . S
H2850 C2858 0.930 . S
H2851 C2859 0.922 1_565 S
H2852 C2862 0.930 . S
H2853 C2863 0.930 . S
C2854 H2848 0.930 . S
C2854 C2855 1.355 . S
C2854 C2856 1.415 . S
C2855 C2854 1.355 . S
C2855 C2857 1.419 . S
C2856 C2854 1.415 . S
C2856 C2861 1.425 . S
C2856 C2863 1.409 1_565 S
C2857 H2849 0.930 . S
C2857 C2855 1.419 . S
C2857 C2858 1.362 . S
C2858 H2850 0.930 . S
C2858 C2857 1.362 . S
C2858 C2861 1.409 . S
C2859 H2851 0.922 1_545 S
C2859 C2860 1.396 . S
C2859 C2861 1.385 1_545 S
C2860 C2859 1.396 . S
C2860 C2862 1.419 . S
C2861 C2856 1.425 . S
C2861 C2858 1.409 . S
C2861 C2859 1.385 1_565 S
C2862 H2852 0.930 . S
C2862 C2860 1.419 . S
C2862 C2863 1.362 . S
C2863 H2853 0.930 . S
C2863 C2856 1.409 1_545 S
C2863 C2862 1.362 . S
H2864 C2870 0.930 . S
H2865 C2873 0.930 . S
H2866 C2874 0.930 . S
H2867 C2875 0.930 . S
H2868 C2878 0.930 . S
H2869 C2879 0.930 . S
C2870 H2864 0.930 . S
C2870 C2871 1.355 . S
C2870 C2872 1.415 . S
C2871 C2870 1.355 . S
C2871 C2873 1.419 . S
C2872 C2870 1.415 . S
C2872 C2877 1.425 . S
C2872 C2879 1.409 . S
C2873 H2865 0.930 . S
C2873 C2871 1.419 . S
C2873 C2874 1.362 . S
C2874 H2866 0.930 . S
C2874 C2873 1.362 . S
C2874 C2877 1.409 . S
C2875 H2867 0.930 . S
C2875 C2876 1.355 . S
C2875 C2877 1.415 . S
C2876 C2875 1.355 . S
C2876 C2878 1.419 . S
C2877 C2872 1.425 . S
C2877 C2874 1.409 . S
C2877 C2875 1.415 . S
C2878 H2868 0.930 . S
C2878 C2876 1.419 . S
C2878 C2879 1.362 . S
C2879 H2869 0.930 . S
C2879 C2872 1.409 . S
C2879 C2878 1.362 . S
H2880 C2886 0.930 . S
H2881 C2889 0.930 . S
H2882 C2890 0.930 . S
H2883 C2891 0.930 . S
H2884 C2894 0.930 . S
H2885 C2895 0.930 . S
C2886 H2880 0.930 . S
C2886 C2887 1.355 . S
C2886 C2888 1.415 . S
C2887 C2886 1.355 . S
C2887 C2889 1.419 . S
C2888 C2886 1.415 . S
C2888 C2893 1.425 . S
C2888 C2895 1.409 . S
C2889 H2881 0.930 . S
C2889 C2887 1.419 . S
C2889 C2890 1.362 . S
C2890 H2882 0.930 . S
C2890 C2889 1.362 . S
C2890 C2893 1.409 . S
C2891 H2883 0.930 . S
C2891 C2892 1.355 . S
C2891 C2893 1.415 . S
C2892 C2891 1.355 . S
C2892 C2894 1.419 . S
C2893 C2888 1.425 . S
C2893 C2890 1.409 . S
C2893 C2891 1.415 . S
C2894 H2884 0.930 . S
C2894 C2892 1.419 . S
C2894 C2895 1.362 . S
C2895 H2885 0.930 . S
C2895 C2888 1.409 . S
C2895 C2894 1.362 . S
H2896 C2902 0.930 . S
H2897 C2905 0.930 . S
H2898 C2906 0.930 . S
H2899 C2907 0.930 . S
H2900 C2910 0.930 . S
H2901 C2911 0.930 . S
C2902 H2896 0.930 . S
C2902 C2903 1.355 . S
C2902 C2904 1.415 . S
C2903 C2902 1.355 . S
C2903 C2905 1.419 . S
C2904 C2902 1.415 . S
C2904 C2909 1.425 . S
C2904 C2911 1.409 . S
C2905 H2897 0.930 . S
C2905 C2903 1.419 . S
C2905 C2906 1.362 . S
C2906 H2898 0.930 . S
C2906 C2905 1.362 . S
C2906 C2909 1.409 . S
C2907 H2899 0.930 . S
C2907 C2908 1.355 . S
C2907 C2909 1.415 . S
C2908 C2907 1.355 . S
C2908 C2910 1.419 . S
C2909 C2904 1.425 . S
C2909 C2906 1.409 . S
C2909 C2907 1.415 . S
C2910 H2900 0.930 . S
C2910 C2908 1.419 . S
C2910 C2911 1.362 . S
C2911 H2901 0.930 . S
C2911 C2904 1.409 . S
C2911 C2910 1.362 . S
H2912 C2918 0.930 . S
H2913 C2921 0.930 . S
H2914 C2922 0.930 . S
H2915 C2923 0.930 . S
H2916 C2926 0.930 . S
H2917 C2927 0.930 . S
C2918 H2912 0.930 . S
C2918 C2919 1.355 . S
C2918 C2920 1.415 . S
C2919 C2918 1.355 . S
C2919 C2921 1.419 . S
C2920 C2918 1.415 . S
C2920 C2925 1.425 . S
C2920 C2927 1.409 . S
C2921 H2913 0.930 . S
C2921 C2919 1.419 . S
C2921 C2922 1.362 . S
C2922 H2914 0.930 . S
C2922 C2921 1.362 . S
C2922 C2925 1.409 . S
C2923 H2915 0.930 . S
C2923 C2924 1.355 . S
C2923 C2925 1.415 . S
C2924 C2923 1.355 . S
C2924 C2926 1.419 . S
C2925 C2920 1.425 . S
C2925 C2922 1.409 . S
C2925 C2923 1.415 . S
C2926 H2916 0.930 . S
C2926 C2924 1.419 . S
C2926 C2927 1.362 . S
C2927 H2917 0.930 . S
C2927 C2920 1.409 . S
C2927 C2926 1.362 . S
H2928 C2934 0.930 . S
H2929 C2937 0.930 . S
H2930 C2938 0.930 . S
H2931 C2939 0.930 . S
H2932 C2942 0.930 . S
H2933 C2943 0.930 . S
C2934 H2928 0.930 . S
C2934 C2935 1.355 . S
C2934 C2936 1.415 . S
C2935 C2934 1.355 . S
C2935 C2937 1.419 . S
C2936 C2934 1.415 . S
C2936 C2941 1.425 . S
C2936 C2943 1.409 . S
C2937 H2929 0.930 . S
C2937 C2935 1.419 . S
C2937 C2938 1.362 . S
C2938 H2930 0.930 . S
C2938 C2937 1.362 . S
C2938 C2941 1.409 . S
C2939 H2931 0.930 . S
C2939 C2940 1.355 . S
C2939 C2941 1.415 . S
C2940 C2939 1.355 . S
C2940 C2942 1.419 . S
C2941 C2936 1.425 . S
C2941 C2938 1.409 . S
C2941 C2939 1.415 . S
C2942 H2932 0.930 . S
C2942 C2940 1.419 . S
C2942 C2943 1.362 . S
C2943 H2933 0.930 . S
C2943 C2936 1.409 . S
C2943 C2942 1.362 . S
H2944 C2950 0.930 . S
H2945 C2953 0.930 . S
H2946 C2954 0.930 . S
H2947 C2955 0.930 . S
H2948 C2958 0.930 . S
H2949 C2959 0.930 . S
C2950 H2944 0.930 . S
C2950 C2951 1.355 . S
C2950 C2952 1.415 . S
C2951 C2950 1.355 . S
C2951 C2953 1.419 . S
C2952 C2950 1.415 . S
C2952 C2957 1.425 . S
C2952 C2959 1.409 . S
C2953 H2945 0.930 . S
C2953 C2951 1.419 . S
C2953 C2954 1.362 . S
C2954 H2946 0.930 . S
C2954 C2953 1.362 . S
C2954 C2957 1.409 . S
C2955 H2947 0.930 . S
C2955 C2956 1.355 . S
C2955 C2957 1.415 . S
C2956 C2955 1.355 . S
C2956 C2958 1.419 . S
C2957 C2952 1.425 . S
C2957 C2954 1.409 . S
C2957 C2955 1.415 . S
C2958 H2948 0.930 . S
C2958 C2956 1.419 . S
C2958 C2959 1.362 . S
C2959 H2949 0.930 . S
C2959 C2952 1.409 . S
C2959 C2958 1.362 . S
H2960 C2966 0.930 . S
H2961 C2969 0.930 . S
H2962 C2970 0.930 . S
H2963 C2971 0.930 . S
H2964 C2974 0.930 . S
H2965 C2975 0.930 . S
C2966 H2960 0.930 . S
C2966 C2967 1.355 . S
C2966 C2968 1.415 . S
C2967 C2966 1.355 . S
C2967 C2969 1.419 . S
C2968 C2966 1.415 . S
C2968 C2973 1.425 . S
C2968 C2975 1.409 . S
C2969 H2961 0.930 . S
C2969 C2967 1.419 . S
C2969 C2970 1.362 . S
C2970 H2962 0.930 . S
C2970 C2969 1.362 . S
C2970 C2973 1.409 . S
C2971 H2963 0.930 . S
C2971 C2972 1.355 . S
C2971 C2973 1.415 . S
C2972 C2971 1.355 . S
C2972 C2974 1.419 . S
C2973 C2968 1.425 . S
C2973 C2970 1.409 . S
C2973 C2971 1.415 . S
C2974 H2964 0.930 . S
C2974 C2972 1.419 . S
C2974 C2975 1.362 . S
C2975 H2965 0.930 . S
C2975 C2968 1.409 . S
C2975 C2974 1.362 . S
H2976 C2982 0.930 . S
H2977 C2985 0.930 . S
H2978 C2986 0.930 . S
H2979 C2987 0.930 . S
H2980 C2990 0.930 . S
H2981 C2991 0.930 . S
C2982 H2976 0.930 . S
C2982 C2983 1.355 . S
C2982 C2984 1.415 . S
C2983 C2982 1.355 . S
C2983 C2985 1.419 . S
C2984 C2982 1.415 . S
C2984 C2989 1.425 . S
C2984 C2991 1.409 . S
C2985 H2977 0.930 . S
C2985 C2983 1.419 . S
C2985 C2986 1.362 . S
C2986 H2978 0.930 . S
C2986 C2985 1.362 . S
C2986 C2989 1.409 . S
C2987 H2979 0.930 . S
C2987 C2988 1.355 . S
C2987 C2989 1.415 . S
C2988 C2987 1.355 . S
C2988 C2990 1.419 . S
C2989 C2984 1.425 . S
C2989 C2986 1.409 . S
C2989 C2987 1.415 . S
C2990 H2980 0.930 . S
C2990 C2988 1.419 . S
C2990 C2991 1.362 . S
C2991 H2981 0.930 . S
C2991 C2984 1.409 . S
C2991 C2990 1.362 . S
H2992 C2998 0.930 . S
H2993 C3001 0.930 . S
H2994 C3002 0.930 . S
H2995 C3003 0.930 . S
H2996 C3006 0.930 . S
H2997 C3007 0.930 . S
C2998 H2992 0.930 . S
C2998 C2999 1.355 . S
C2998 C3000 1.415 . S
C2999 C2998 1.355 . S
C2999 C3001 1.419 . S
C3000 C2998 1.415 . S
C3000 C3005 1.425 . S
C3000 C3007 1.409 . S
C3001 H2993 0.930 . S
C3001 C2999 1.419 . S
C3001 C3002 1.362 . S
C3002 H2994 0.930 . S
C3002 C3001 1.362 . S
C3002 C3005 1.409 . S
C3003 H2995 0.930 . S
C3003 C3004 1.355 . S
C3003 C3005 1.415 . S
C3004 C3003 1.355 . S
C3004 C3006 1.419 . S
C3005 C3000 1.425 . S
C3005 C3002 1.409 . S
C3005 C3003 1.415 . S
C3006 H2996 0.930 . S
C3006 C3004 1.419 . S
C3006 C3007 1.362 . S
C3007 H2997 0.930 . S
C3007 C3000 1.409 . S
C3007 C3006 1.362 . S
H3008 C3014 0.930 . S
H3009 C3017 0.930 . S
H3010 C3018 0.930 . S
H3011 C3019 0.930 . S
H3012 C3022 0.930 . S
H3013 C3023 0.930 . S
C3014 H3008 0.930 . S
C3014 C3015 1.355 . S
C3014 C3016 1.415 . S
C3015 C3014 1.355 . S
C3015 C3017 1.419 . S
C3016 C3014 1.415 . S
C3016 C3021 1.425 . S
C3016 C3023 1.409 . S
C3017 H3009 0.930 . S
C3017 C3015 1.419 . S
C3017 C3018 1.362 . S
C3018 H3010 0.930 . S
C3018 C3017 1.362 . S
C3018 C3021 1.409 . S
C3019 H3011 0.930 . S
C3019 C3020 1.355 . S
C3019 C3021 1.415 . S
C3020 C3019 1.355 . S
C3020 C3022 1.419 . S
C3021 C3016 1.425 . S
C3021 C3018 1.409 . S
C3021 C3019 1.415 . S
C3022 H3012 0.930 . S
C3022 C3020 1.419 . S
C3022 C3023 1.362 . S
C3023 H3013 0.930 . S
C3023 C3016 1.409 . S
C3023 C3022 1.362 . S
H3024 C3030 0.930 . S
H3025 C3033 0.930 . S
H3026 C3034 0.930 . S
H3027 C3035 0.930 . S
H3028 C3038 0.930 . S
H3029 C3039 0.930 . S
C3030 H3024 0.930 . S
C3030 C3031 1.355 . S
C3030 C3032 1.415 . S
C3031 C3030 1.355 . S
C3031 C3033 1.419 . S
C3032 C3030 1.415 . S
C3032 C3037 1.425 . S
C3032 C3039 1.409 . S
C3033 H3025 0.930 . S
C3033 C3031 1.419 . S
C3033 C3034 1.362 . S
C3034 H3026 0.930 . S
C3034 C3033 1.362 . S
C3034 C3037 1.409 . S
C3035 H3027 0.930 . S
C3035 C3036 1.355 . S
C3035 C3037 1.415 . S
C3036 C3035 1.355 . S
C3036 C3038 1.419 . S
C3037 C3032 1.425 . S
C3037 C3034 1.409 . S
C3037 C3035 1.415 . S
C3038 H3028 0.930 . S
C3038 C3036 1.419 . S
C3038 C3039 1.362 . S
C3039 H3029 0.930 . S
C3039 C3032 1.409 . S
C3039 C3038 1.362 . S
H3040 C3046 0.930 . S
H3041 C3049 0.930 . S
H3042 C3050 0.930 . S
H3043 C3051 0.930 . S
H3044 C3054 0.930 . S
H3045 C3055 0.930 . S
C3046 H3040 0.930 . S
C3046 C3047 1.355 . S
C3046 C3048 1.415 . S
C3047 C3046 1.355 . S
C3047 C3049 1.419 . S
C3048 C3046 1.415 . S
C3048 C3053 1.425 . S
C3048 C3055 1.409 . S
C3049 H3041 0.930 . S
C3049 C3047 1.419 . S
C3049 C3050 1.362 . S
C3050 H3042 0.930 . S
C3050 C3049 1.362 . S
C3050 C3053 1.409 . S
C3051 H3043 0.930 . S
C3051 C3052 1.355 . S
C3051 C3053 1.415 . S
C3052 C3051 1.355 . S
C3052 C3054 1.419 . S
C3053 C3048 1.425 . S
C3053 C3050 1.409 . S
C3053 C3051 1.415 . S
C3054 H3044 0.930 . S
C3054 C3052 1.419 . S
C3054 C3055 1.362 . S
C3055 H3045 0.930 . S
C3055 C3048 1.409 . S
C3055 C3054 1.362 . S
H3056 C3062 0.930 . S
H3057 C3065 0.930 . S
H3058 C3066 0.930 . S
H3059 C3067 0.930 . S
H3060 C3070 0.930 . S
H3061 C3071 0.930 . S
C3062 H3056 0.930 . S
C3062 C3063 1.355 . S
C3062 C3064 1.415 . S
C3063 C3062 1.355 . S
C3063 C3065 1.419 . S
C3064 C3062 1.415 . S
C3064 C3069 1.425 . S
C3064 C3071 1.409 . S
C3065 H3057 0.930 . S
C3065 C3063 1.419 . S
C3065 C3066 1.362 . S
C3066 H3058 0.930 . S
C3066 C3065 1.362 . S
C3066 C3069 1.409 . S
C3067 H3059 0.930 . S
C3067 C3068 1.355 . S
C3067 C3069 1.415 . S
C3068 C3067 1.355 . S
C3068 C3070 1.419 . S
C3069 C3064 1.425 . S
C3069 C3066 1.409 . S
C3069 C3067 1.415 . S
C3070 H3060 0.930 . S
C3070 C3068 1.419 . S
C3070 C3071 1.362 . S
C3071 H3061 0.930 . S
C3071 C3064 1.409 . S
C3071 C3070 1.362 . S
H3072 C3078 0.930 . S
H3073 C3081 0.930 . S
H3074 C3082 0.930 . S
H3075 C3083 0.930 . S
H3076 C3086 0.930 . S
H3077 C3087 0.930 . S
C3078 H3072 0.930 . S
C3078 C3079 1.355 . S
C3078 C3080 1.415 . S
C3079 C3078 1.355 . S
C3079 C3081 1.419 . S
C3080 C3078 1.415 . S
C3080 C3085 1.425 . S
C3080 C3087 1.409 . S
C3081 H3073 0.930 . S
C3081 C3079 1.419 . S
C3081 C3082 1.362 . S
C3082 H3074 0.930 . S
C3082 C3081 1.362 . S
C3082 C3085 1.409 . S
C3083 H3075 0.930 . S
C3083 C3084 1.355 . S
C3083 C3085 1.415 . S
C3084 C3083 1.355 . S
C3084 C3086 1.419 . S
C3085 C3080 1.425 . S
C3085 C3082 1.409 . S
C3085 C3083 1.415 . S
C3086 H3076 0.930 . S
C3086 C3084 1.419 . S
C3086 C3087 1.362 . S
C3087 H3077 0.930 . S
C3087 C3080 1.409 . S
C3087 C3086 1.362 . S
H3088 C3094 0.930 . S
H3089 C3097 0.930 . S
H3090 C3098 0.930 . S
H3091 C3099 0.930 . S
H3092 C3102 0.930 . S
H3093 C3103 0.930 . S
C3094 H3088 0.930 . S
C3094 C3095 1.355 . S
C3094 C3096 1.415 . S
C3095 C3094 1.355 . S
C3095 C3097 1.419 . S
C3096 C3094 1.415 . S
C3096 C3101 1.425 . S
C3096 C3103 1.409 . S
C3097 H3089 0.930 . S
C3097 C3095 1.419 . S
C3097 C3098 1.362 . S
C3098 H3090 0.930 . S
C3098 C3097 1.362 . S
C3098 C3101 1.409 . S
C3099 H3091 0.930 . S
C3099 C3100 1.355 . S
C3099 C3101 1.415 . S
C3100 C3099 1.355 . S
C3100 C3102 1.419 . S
C3101 C3096 1.425 . S
C3101 C3098 1.409 . S
C3101 C3099 1.415 . S
C3102 H3092 0.930 . S
C3102 C3100 1.419 . S
C3102 C3103 1.362 . S
C3103 H3093 0.930 . S
C3103 C3096 1.409 . S
C3103 C3102 1.362 . S
H3104 C3110 0.930 . S
H3105 C3113 0.930 . S
H3106 C3114 0.930 . S
H3107 C3115 0.930 . S
H3108 C3118 0.930 . S
H3109 C3119 0.930 . S
C3110 H3104 0.930 . S
C3110 C3111 1.355 . S
C3110 C3112 1.415 . S
C3111 C3110 1.355 . S
C3111 C3113 1.419 . S
C3112 C3110 1.415 . S
C3112 C3117 1.425 . S
C3112 C3119 1.409 . S
C3113 H3105 0.930 . S
C3113 C3111 1.419 . S
C3113 C3114 1.362 . S
C3114 H3106 0.930 . S
C3114 C3113 1.362 . S
C3114 C3117 1.409 . S
C3115 H3107 0.930 . S
C3115 C3116 1.355 . S
C3115 C3117 1.415 . S
C3116 C3115 1.355 . S
C3116 C3118 1.419 . S
C3117 C3112 1.425 . S
C3117 C3114 1.409 . S
C3117 C3115 1.415 . S
C3118 H3108 0.930 . S
C3118 C3116 1.419 . S
C3118 C3119 1.362 . S
C3119 H3109 0.930 . S
C3119 C3112 1.409 . S
C3119 C3118 1.362 . S
H3120 C3126 0.930 . S
H3121 C3129 0.930 . S
H3122 C3130 0.930 . S
H3123 C3131 0.930 . S
H3124 C3134 0.930 . S
H3125 C3135 0.930 . S
C3126 H3120 0.930 . S
C3126 C3127 1.355 . S
C3126 C3128 1.415 . S
C3127 C3126 1.355 . S
C3127 C3129 1.419 . S
C3128 C3126 1.415 . S
C3128 C3133 1.425 . S
C3128 C3135 1.409 . S
C3129 H3121 0.930 . S
C3129 C3127 1.419 . S
C3129 C3130 1.362 . S
C3130 H3122 0.930 . S
C3130 C3129 1.362 . S
C3130 C3133 1.409 . S
C3131 H3123 0.930 . S
C3131 C3132 1.355 . S
C3131 C3133 1.415 . S
C3132 C3131 1.355 . S
C3132 C3134 1.419 . S
C3133 C3128 1.425 . S
C3133 C3130 1.409 . S
C3133 C3131 1.415 . S
C3134 H3124 0.930 . S
C3134 C3132 1.419 . S
C3134 C3135 1.362 . S
C3135 H3125 0.930 . S
C3135 C3128 1.409 . S
C3135 C3134 1.362 . S
H3136 C3142 0.930 . S
H3137 C3145 0.930 . S
H3138 C3146 0.930 . S
H3139 C3147 0.930 . S
H3140 C3150 0.930 . S
H3141 C3151 0.930 . S
C3142 H3136 0.930 . S
C3142 C3143 1.355 . S
C3142 C3144 1.415 . S
C3143 C3142 1.355 . S
C3143 C3145 1.419 . S
C3144 C3142 1.415 . S
C3144 C3149 1.425 . S
C3144 C3151 1.409 . S
C3145 H3137 0.930 . S
C3145 C3143 1.419 . S
C3145 C3146 1.362 . S
C3146 H3138 0.930 . S
C3146 C3145 1.362 . S
C3146 C3149 1.409 . S
C3147 H3139 0.930 . S
C3147 C3148 1.355 . S
C3147 C3149 1.415 . S
C3148 C3147 1.355 . S
C3148 C3150 1.419 . S
C3149 C3144 1.425 . S
C3149 C3146 1.409 . S
C3149 C3147 1.415 . S
C3150 H3140 0.930 . S
C3150 C3148 1.419 . S
C3150 C3151 1.362 . S
C3151 H3141 0.930 . S
C3151 C3144 1.409 . S
C3151 C3150 1.362 . S
H3152 C3158 0.930 . S
H3153 C3161 0.930 . S
H3154 C3162 0.930 . S
H3155 C3163 0.930 . S
H3156 C3166 0.930 . S
H3157 C3167 0.930 . S
C3158 H3152 0.930 . S
C3158 C3159 1.355 . S
C3158 C3160 1.415 . S
C3159 C3158 1.355 . S
C3159 C3161 1.419 . S
C3160 C3158 1.415 . S
C3160 C3165 1.425 . S
C3160 C3167 1.409 . S
C3161 H3153 0.930 . S
C3161 C3159 1.419 . S
C3161 C3162 1.362 . S
C3162 H3154 0.930 . S
C3162 C3161 1.362 . S
C3162 C3165 1.409 . S
C3163 H3155 0.930 . S
C3163 C3164 1.355 . S
C3163 C3165 1.415 . S
C3164 C3163 1.355 . S
C3164 C3166 1.419 . S
C3165 C3160 1.425 . S
C3165 C3162 1.409 . S
C3165 C3163 1.415 . S
C3166 H3156 0.930 . S
C3166 C3164 1.419 . S
C3166 C3167 1.362 . S
C3167 H3157 0.930 . S
C3167 C3160 1.409 . S
C3167 C3166 1.362 . S
H3168 C3174 0.930 . S
H3169 C3177 0.930 . S
H3170 C3178 0.930 . S
H3171 C3179 0.930 . S
H3172 C3182 0.930 . S
H3173 C3183 0.930 . S
C3174 H3168 0.930 . S
C3174 C3175 1.355 . S
C3174 C3176 1.415 . S
C3175 C3174 1.355 . S
C3175 C3177 1.419 . S
C3176 C3174 1.415 . S
C3176 C3181 1.425 . S
C3176 C3183 1.409 . S
C3177 H3169 0.930 . S
C3177 C3175 1.419 . S
C3177 C3178 1.362 . S
C3178 H3170 0.930 . S
C3178 C3177 1.362 . S
C3178 C3181 1.409 . S
C3179 H3171 0.930 . S
C3179 C3180 1.355 . S
C3179 C3181 1.415 . S
C3180 C3179 1.355 . S
C3180 C3182 1.419 . S
C3181 C3176 1.425 . S
C3181 C3178 1.409 . S
C3181 C3179 1.415 . S
C3182 H3172 0.930 . S
C3182 C3180 1.419 . S
C3182 C3183 1.362 . S
C3183 H3173 0.930 . S
C3183 C3176 1.409 . S
C3183 C3182 1.362 . S
H3184 C3190 0.930 . S
H3185 C3193 0.930 . S
H3186 C3194 0.930 . S
H3187 C3195 0.930 . S
H3188 C3198 0.930 . S
H3189 C3199 0.930 . S
C3190 H3184 0.930 . S
C3190 C3191 1.355 . S
C3190 C3192 1.415 . S
C3191 C3190 1.355 . S
C3191 C3193 1.419 . S
C3192 C3190 1.415 . S
C3192 C3197 1.425 . S
C3192 C3199 1.409 . S
C3193 H3185 0.930 . S
C3193 C3191 1.419 . S
C3193 C3194 1.362 . S
C3194 H3186 0.930 . S
C3194 C3193 1.362 . S
C3194 C3197 1.409 . S
C3195 H3187 0.930 . S
C3195 C3196 1.355 . S
C3195 C3197 1.415 . S
C3196 C3195 1.355 . S
C3196 C3198 1.419 . S
C3197 C3192 1.425 . S
C3197 C3194 1.409 . S
C3197 C3195 1.415 . S
C3198 H3188 0.930 . S
C3198 C3196 1.419 . S
C3198 C3199 1.362 . S
C3199 H3189 0.930 . S
C3199 C3192 1.409 . S
C3199 C3198 1.362 . S
H3200 C3206 0.930 . S
H3201 C3209 0.930 . S
H3202 C3210 0.930 . S
H3203 C3211 0.930 . S
H3204 C3214 0.930 . S
H3205 C3215 0.930 . S
C3206 H3200 0.930 . S
C3206 C3207 1.355 . S
C3206 C3208 1.415 . S
C3207 C3206 1.355 . S
C3207 C3209 1.419 . S
C3208 C3206 1.415 . S
C3208 C3213 1.425 . S
C3208 C3215 1.409 . S
C3209 H3201 0.930 . S
C3209 C3207 1.419 . S
C3209 C3210 1.362 . S
C3210 H3202 0.930 . S
C3210 C3209 1.362 . S
C3210 C3213 1.409 . S
C3211 H3203 0.930 . S
C3211 C3212 1.355 . S
C3211 C3213 1.415 . S
C3212 C3211 1.355 . S
C3212 C3214 1.419 . S
C3213 C3208 1.425 . S
C3213 C3210 1.409 . S
C3213 C3211 1.415 . S
C3214 H3204 0.930 . S
C3214 C3212 1.419 . S
C3214 C3215 1.362 . S
C3215 H3205 0.930 . S
C3215 C3208 1.409 . S
C3215 C3214 1.362 . S
H3216 C3222 0.930 . S
H3217 C3225 0.930 . S
H3218 C3226 0.930 . S
H3219 C3227 0.930 . S
H3220 C3230 0.930 . S
H3221 C3231 0.930 . S
C3222 H3216 0.930 . S
C3222 C3223 1.355 . S
C3222 C3224 1.415 . S
C3223 C3222 1.355 . S
C3223 C3225 1.419 . S
C3224 C3222 1.415 . S
C3224 C3229 1.425 . S
C3224 C3231 1.409 . S
C3225 H3217 0.930 . S
C3225 C3223 1.419 . S
C3225 C3226 1.362 . S
C3226 H3218 0.930 . S
C3226 C3225 1.362 . S
C3226 C3229 1.409 . S
C3227 H3219 0.930 . S
C3227 C3228 1.355 . S
C3227 C3229 1.415 . S
C3228 C3227 1.355 . S
C3228 C3230 1.419 . S
C3229 C3224 1.425 . S
C3229 C3226 1.409 . S
C3229 C3227 1.415 . S
C3230 H3220 0.930 . S
C3230 C3228 1.419 . S
C3230 C3231 1.362 . S
C3231 H3221 0.930 . S
C3231 C3224 1.409 . S
C3231 C3230 1.362 . S
H3232 C3238 0.930 . S
H3233 C3241 0.930 . S
H3234 C3242 0.930 . S
H3235 C3243 0.930 . S
H3236 C3246 0.930 . S
H3237 C3247 0.930 . S
C3238 H3232 0.930 . S
C3238 C3239 1.355 . S
C3238 C3240 1.415 . S
C3239 C3238 1.355 . S
C3239 C3241 1.419 . S
C3240 C3238 1.415 . S
C3240 C3245 1.425 . S
C3240 C3247 1.409 . S
C3241 H3233 0.930 . S
C3241 C3239 1.419 . S
C3241 C3242 1.362 . S
C3242 H3234 0.930 . S
C3242 C3241 1.362 . S
C3242 C3245 1.409 . S
C3243 H3235 0.930 . S
C3243 C3244 1.355 . S
C3243 C3245 1.415 . S
C3244 C3243 1.355 . S
C3244 C3246 1.419 . S
C3245 C3240 1.425 . S
C3245 C3242 1.409 . S
C3245 C3243 1.415 . S
C3246 H3236 0.930 . S
C3246 C3244 1.419 . S
C3246 C3247 1.362 . S
C3247 H3237 0.930 . S
C3247 C3240 1.409 . S
C3247 C3246 1.362 . S
H3248 C3254 0.930 . S
H3249 C3257 0.930 . S
H3250 C3258 0.930 . S
H3251 C3259 0.930 . S
H3252 C3262 0.930 . S
H3253 C3263 0.930 . S
C3254 H3248 0.930 . S
C3254 C3255 1.355 . S
C3254 C3256 1.415 . S
C3255 C3254 1.355 . S
C3255 C3257 1.419 . S
C3256 C3254 1.415 . S
C3256 C3261 1.425 . S
C3256 C3263 1.409 . S
C3257 H3249 0.930 . S
C3257 C3255 1.419 . S
C3257 C3258 1.362 . S
C3258 H3250 0.930 . S
C3258 C3257 1.362 . S
C3258 C3261 1.409 . S
C3259 H3251 0.930 . S
C3259 C3260 1.355 . S
C3259 C3261 1.415 . S
C3260 C3259 1.355 . S
C3260 C3262 1.419 . S
C3261 C3256 1.425 . S
C3261 C3258 1.409 . S
C3261 C3259 1.415 . S
C3262 H3252 0.930 . S
C3262 C3260 1.419 . S
C3262 C3263 1.362 . S
C3263 H3253 0.930 . S
C3263 C3256 1.409 . S
C3263 C3262 1.362 . S
H3264 C3270 0.930 . S
H3265 C3273 0.930 . S
H3266 C3274 0.930 . S
H3267 C3275 0.930 . S
H3268 C3278 0.930 . S
H3269 C3279 0.930 . S
C3270 H3264 0.930 . S
C3270 C3271 1.355 . S
C3270 C3272 1.415 . S
C3271 C3270 1.355 . S
C3271 C3273 1.419 . S
C3272 C3270 1.415 . S
C3272 C3277 1.425 . S
C3272 C3279 1.409 . S
C3273 H3265 0.930 . S
C3273 C3271 1.419 . S
C3273 C3274 1.362 . S
C3274 H3266 0.930 . S
C3274 C3273 1.362 . S
C3274 C3277 1.409 . S
C3275 H3267 0.930 . S
C3275 C3276 1.355 . S
C3275 C3277 1.415 . S
C3276 C3275 1.355 . S
C3276 C3278 1.419 . S
C3277 C3272 1.425 . S
C3277 C3274 1.409 . S
C3277 C3275 1.415 . S
C3278 H3268 0.930 . S
C3278 C3276 1.419 . S
C3278 C3279 1.362 . S
C3279 H3269 0.930 . S
C3279 C3272 1.409 . S
C3279 C3278 1.362 . S
H3280 C3286 0.930 . S
H3281 C3289 0.930 . S
H3282 C3290 0.930 . S
H3283 C3291 0.930 . S
H3284 C3294 0.930 . S
H3285 C3295 0.930 . S
C3286 H3280 0.930 . S
C3286 C3287 1.355 . S
C3286 C3288 1.415 . S
C3287 C3286 1.355 . S
C3287 C3289 1.419 . S
C3288 C3286 1.415 . S
C3288 C3293 1.425 . S
C3288 C3295 1.409 . S
C3289 H3281 0.930 . S
C3289 C3287 1.419 . S
C3289 C3290 1.362 . S
C3290 H3282 0.930 . S
C3290 C3289 1.362 . S
C3290 C3293 1.409 . S
C3291 H3283 0.930 . S
C3291 C3292 1.355 . S
C3291 C3293 1.415 . S
C3292 C3291 1.355 . S
C3292 C3294 1.419 . S
C3293 C3288 1.425 . S
C3293 C3290 1.409 . S
C3293 C3291 1.415 . S
C3294 H3284 0.930 . S
C3294 C3292 1.419 . S
C3294 C3295 1.362 . S
C3295 H3285 0.930 . S
C3295 C3288 1.409 . S
C3295 C3294 1.362 . S
H3296 C3302 0.930 . S
H3297 C3305 0.930 . S
H3298 C3306 0.930 . S
H3299 C3307 0.930 . S
H3300 C3310 0.930 . S
H3301 C3311 0.930 . S
C3302 H3296 0.930 . S
C3302 C3303 1.355 . S
C3302 C3304 1.415 . S
C3303 C3302 1.355 . S
C3303 C3305 1.419 . S
C3304 C3302 1.415 . S
C3304 C3309 1.425 . S
C3304 C3311 1.409 . S
C3305 H3297 0.930 . S
C3305 C3303 1.419 . S
C3305 C3306 1.362 . S
C3306 H3298 0.930 . S
C3306 C3305 1.362 . S
C3306 C3309 1.409 . S
C3307 H3299 0.930 . S
C3307 C3308 1.355 . S
C3307 C3309 1.415 . S
C3308 C3307 1.355 . S
C3308 C3310 1.419 . S
C3309 C3304 1.425 . S
C3309 C3306 1.409 . S
C3309 C3307 1.415 . S
C3310 H3300 0.930 . S
C3310 C3308 1.419 . S
C3310 C3311 1.362 . S
C3311 H3301 0.930 . S
C3311 C3304 1.409 . S
C3311 C3310 1.362 . S
H3312 C3318 0.930 . S
H3313 C3321 0.930 . S
H3314 C3322 0.930 . S
H3315 C3323 0.930 . S
H3316 C3326 0.930 . S
H3317 C3327 0.930 . S
C3318 H3312 0.930 . S
C3318 C3319 1.355 . S
C3318 C3320 1.415 . S
C3319 C3318 1.355 . S
C3319 C3321 1.419 . S
C3320 C3318 1.415 . S
C3320 C3325 1.425 . S
C3320 C3327 1.409 . S
C3321 H3313 0.930 . S
C3321 C3319 1.419 . S
C3321 C3322 1.362 . S
C3322 H3314 0.930 . S
C3322 C3321 1.362 . S
C3322 C3325 1.409 . S
C3323 H3315 0.930 . S
C3323 C3324 1.355 . S
C3323 C3325 1.415 . S
C3324 C3323 1.355 . S
C3324 C3326 1.419 . S
C3325 C3320 1.425 . S
C3325 C3322 1.409 . S
C3325 C3323 1.415 . S
C3326 H3316 0.930 . S
C3326 C3324 1.419 . S
C3326 C3327 1.362 . S
C3327 H3317 0.930 . S
C3327 C3320 1.409 . S
C3327 C3326 1.362 . S
H3328 C3334 0.930 . S
H3329 C3337 0.930 . S
H3330 C3338 0.930 . S
H3331 C3339 0.930 . S
H3332 C3342 0.930 . S
H3333 C3343 0.930 . S
C3334 H3328 0.930 . S
C3334 C3335 1.355 . S
C3334 C3336 1.415 . S
C3335 C3334 1.355 . S
C3335 C3337 1.419 . S
C3336 C3334 1.415 . S
C3336 C3341 1.425 . S
C3336 C3343 1.409 . S
C3337 H3329 0.930 . S
C3337 C3335 1.419 . S
C3337 C3338 1.362 . S
C3338 H3330 0.930 . S
C3338 C3337 1.362 . S
C3338 C3341 1.409 . S
C3339 H3331 0.930 . S
C3339 C3340 1.355 . S
C3339 C3341 1.415 . S
C3340 C3339 1.355 . S
C3340 C3342 1.419 . S
C3341 C3336 1.425 . S
C3341 C3338 1.409 . S
C3341 C3339 1.415 . S
C3342 H3332 0.930 . S
C3342 C3340 1.419 . S
C3342 C3343 1.362 . S
C3343 H3333 0.930 . S
C3343 C3336 1.409 . S
C3343 C3342 1.362 . S
H3344 C3350 0.930 . S
H3345 C3353 0.930 . S
H3346 C3354 0.930 . S
H3347 C3355 0.930 . S
H3348 C3358 0.930 . S
H3349 C3359 0.930 . S
C3350 H3344 0.930 . S
C3350 C3351 1.355 . S
C3350 C3352 1.415 . S
C3351 C3350 1.355 . S
C3351 C3353 1.419 . S
C3352 C3350 1.415 . S
C3352 C3357 1.425 . S
C3352 C3359 1.409 . S
C3353 H3345 0.930 . S
C3353 C3351 1.419 . S
C3353 C3354 1.362 . S
C3354 H3346 0.930 . S
C3354 C3353 1.362 . S
C3354 C3357 1.409 . S
C3355 H3347 0.930 . S
C3355 C3356 1.355 . S
C3355 C3357 1.415 . S
C3356 C3355 1.355 . S
C3356 C3358 1.419 . S
C3357 C3352 1.425 . S
C3357 C3354 1.409 . S
C3357 C3355 1.415 . S
C3358 H3348 0.930 . S
C3358 C3356 1.419 . S
C3358 C3359 1.362 . S
C3359 H3349 0.930 . S
C3359 C3352 1.409 . S
C3359 C3358 1.362 . S
H3360 C3366 0.930 . S
H3361 C3369 0.930 . S
H3362 C3370 0.930 . S
H3363 C3371 0.930 . S
H3364 C3374 0.930 . S
H3365 C3375 0.930 . S
C3366 H3360 0.930 . S
C3366 C3367 1.355 . S
C3366 C3368 1.415 . S
C3367 C3366 1.355 . S
C3367 C3369 1.419 . S
C3368 C3366 1.415 . S
C3368 C3373 1.425 . S
C3368 C3375 1.409 . S
C3369 H3361 0.930 . S
C3369 C3367 1.419 . S
C3369 C3370 1.362 . S
C3370 H3362 0.930 . S
C3370 C3369 1.362 . S
C3370 C3373 1.409 . S
C3371 H3363 0.930 . S
C3371 C3372 1.355 . S
C3371 C3373 1.415 . S
C3372 C3371 1.355 . S
C3372 C3374 1.419 . S
C3373 C3368 1.425 . S
C3373 C3370 1.409 . S
C3373 C3371 1.415 . S
C3374 H3364 0.930 . S
C3374 C3372 1.419 . S
C3374 C3375 1.362 . S
C3375 H3365 0.930 . S
C3375 C3368 1.409 . S
C3375 C3374 1.362 . S
H3376 C3382 0.930 . S
H3377 C3385 0.930 . S
H3378 C3386 0.930 . S
H3379 C3387 0.930 . S
H3380 C3390 0.930 . S
H3381 C3391 0.930 . S
C3382 H3376 0.930 . S
C3382 C3383 1.355 . S
C3382 C3384 1.415 . S
C3383 C3382 1.355 . S
C3383 C3385 1.419 . S
C3384 C3382 1.415 . S
C3384 C3389 1.425 . S
C3384 C3391 1.409 . S
C3385 H3377 0.930 . S
C3385 C3383 1.419 . S
C3385 C3386 1.362 . S
C3386 H3378 0.930 . S
C3386 C3385 1.362 . S
C3386 C3389 1.409 . S
C3387 H3379 0.930 . S
C3387 C3388 1.355 . S
C3387 C3389 1.415 . S
C3388 C3387 1.355 . S
C3388 C3390 1.419 . S
C3389 C3384 1.425 . S
C3389 C3386 1.409 . S
C3389 C3387 1.415 . S
C3390 H3380 0.930 . S
C3390 C3388 1.419 . S
C3390 C3391 1.362 . S
C3391 H3381 0.930 . S
C3391 C3384 1.409 . S
C3391 C3390 1.362 . S
H3392 C3398 0.930 . S
H3393 C3401 0.930 . S
H3394 C3402 0.930 . S
H3395 C3403 0.930 . S
H3396 C3406 0.930 . S
H3397 C3407 0.930 . S
C3398 H3392 0.930 . S
C3398 C3399 1.355 . S
C3398 C3400 1.415 . S
C3399 C3398 1.355 . S
C3399 C3401 1.419 . S
C3400 C3398 1.415 . S
C3400 C3405 1.425 . S
C3400 C3407 1.409 . S
C3401 H3393 0.930 . S
C3401 C3399 1.419 . S
C3401 C3402 1.362 . S
C3402 H3394 0.930 . S
C3402 C3401 1.362 . S
C3402 C3405 1.409 . S
C3403 H3395 0.930 . S
C3403 C3404 1.355 . S
C3403 C3405 1.415 . S
C3404 C3403 1.355 . S
C3404 C3406 1.419 . S
C3405 C3400 1.425 . S
C3405 C3402 1.409 . S
C3405 C3403 1.415 . S
C3406 H3396 0.930 . S
C3406 C3404 1.419 . S
C3406 C3407 1.362 . S
C3407 H3397 0.930 . S
C3407 C3400 1.409 . S
C3407 C3406 1.362 . S
H3408 C3414 0.930 . S
H3409 C3417 0.930 . S
H3410 C3418 0.930 . S
H3411 C3419 0.930 . S
H3412 C3422 0.930 . S
H3413 C3423 0.930 . S
C3414 H3408 0.930 . S
C3414 C3415 1.355 . S
C3414 C3416 1.415 . S
C3415 C3414 1.355 . S
C3415 C3417 1.419 . S
C3416 C3414 1.415 . S
C3416 C3421 1.425 . S
C3416 C3423 1.409 . S
C3417 H3409 0.930 . S
C3417 C3415 1.419 . S
C3417 C3418 1.362 . S
C3418 H3410 0.930 . S
C3418 C3417 1.362 . S
C3418 C3421 1.409 . S
C3419 H3411 0.930 . S
C3419 C3420 1.355 . S
C3419 C3421 1.415 . S
C3420 C3419 1.355 . S
C3420 C3422 1.419 . S
C3421 C3416 1.425 . S
C3421 C3418 1.409 . S
C3421 C3419 1.415 . S
C3422 H3412 0.930 . S
C3422 C3420 1.419 . S
C3422 C3423 1.362 . S
C3423 H3413 0.930 . S
C3423 C3416 1.409 . S
C3423 C3422 1.362 . S
H3424 C3430 0.930 . S
H3425 C3433 0.930 . S
H3426 C3434 0.930 . S
H3427 C3435 0.930 . S
H3428 C3438 0.930 . S
H3429 C3439 0.930 . S
C3430 H3424 0.930 . S
C3430 C3431 1.355 . S
C3430 C3432 1.415 . S
C3431 C3430 1.355 . S
C3431 C3433 1.419 . S
C3432 C3430 1.415 . S
C3432 C3437 1.425 . S
C3432 C3439 1.409 . S
C3433 H3425 0.930 . S
C3433 C3431 1.419 . S
C3433 C3434 1.362 . S
C3434 H3426 0.930 . S
C3434 C3433 1.362 . S
C3434 C3437 1.409 . S
C3435 H3427 0.930 . S
C3435 C3436 1.355 . S
C3435 C3437 1.415 . S
C3436 C3435 1.355 . S
C3436 C3438 1.419 . S
C3437 C3432 1.425 . S
C3437 C3434 1.409 . S
C3437 C3435 1.415 . S
C3438 H3428 0.930 . S
C3438 C3436 1.419 . S
C3438 C3439 1.362 . S
C3439 H3429 0.930 . S
C3439 C3432 1.409 . S
C3439 C3438 1.362 . S
H3440 C3446 0.930 . S
H3441 C3449 0.930 . S
H3442 C3450 0.930 . S
H3443 C3451 0.930 . S
H3444 C3454 0.930 . S
H3445 C3455 0.930 . S
C3446 H3440 0.930 . S
C3446 C3447 1.355 . S
C3446 C3448 1.415 . S
C3447 C3446 1.355 . S
C3447 C3449 1.419 . S
C3448 C3446 1.415 . S
C3448 C3453 1.425 . S
C3448 C3455 1.409 . S
C3449 H3441 0.930 . S
C3449 C3447 1.419 . S
C3449 C3450 1.362 . S
C3450 H3442 0.930 . S
C3450 C3449 1.362 . S
C3450 C3453 1.409 . S
C3451 H3443 0.930 . S
C3451 C3452 1.355 . S
C3451 C3453 1.415 . S
C3452 C3451 1.355 . S
C3452 C3454 1.419 . S
C3453 C3448 1.425 . S
C3453 C3450 1.409 . S
C3453 C3451 1.415 . S
C3454 H3444 0.930 . S
C3454 C3452 1.419 . S
C3454 C3455 1.362 . S
C3455 H3445 0.930 . S
C3455 C3448 1.409 . S
C3455 C3454 1.362 . S
H3456 C3462 0.930 . S
H3457 C3465 0.930 . S
H3458 C3466 0.930 . S
H3459 C3467 0.930 . S
H3460 C3470 0.930 . S
H3461 C3471 0.930 . S
C3462 H3456 0.930 . S
C3462 C3463 1.355 . S
C3462 C3464 1.415 . S
C3463 C3462 1.355 . S
C3463 C3465 1.419 . S
C3464 C3462 1.415 . S
C3464 C3469 1.425 . S
C3464 C3471 1.409 . S
C3465 H3457 0.930 . S
C3465 C3463 1.419 . S
C3465 C3466 1.362 . S
C3466 H3458 0.930 . S
C3466 C3465 1.362 . S
C3466 C3469 1.409 . S
C3467 H3459 0.930 . S
C3467 C3468 1.355 . S
C3467 C3469 1.415 . S
C3468 C3467 1.355 . S
C3468 C3470 1.419 . S
C3469 C3464 1.425 . S
C3469 C3466 1.409 . S
C3469 C3467 1.415 . S
C3470 H3460 0.930 . S
C3470 C3468 1.419 . S
C3470 C3471 1.362 . S
C3471 H3461 0.930 . S
C3471 C3464 1.409 . S
C3471 C3470 1.362 . S
H3472 C3478 0.930 . S
H3473 C3481 0.930 . S
H3474 C3482 0.930 . S
H3475 C3483 0.930 . S
H3476 C3486 0.930 . S
H3477 C3487 0.930 . S
C3478 H3472 0.930 . S
C3478 C3479 1.355 . S
C3478 C3480 1.415 . S
C3479 C3478 1.355 . S
C3479 C3481 1.419 . S
C3480 C3478 1.415 . S
C3480 C3485 1.425 . S
C3480 C3487 1.409 . S
C3481 H3473 0.930 . S
C3481 C3479 1.419 . S
C3481 C3482 1.362 . S
C3482 H3474 0.930 . S
C3482 C3481 1.362 . S
C3482 C3485 1.409 . S
C3483 H3475 0.930 . S
C3483 C3484 1.355 . S
C3483 C3485 1.415 . S
C3484 C3483 1.355 . S
C3484 C3486 1.419 . S
C3485 C3480 1.425 . S
C3485 C3482 1.409 . S
C3485 C3483 1.415 . S
C3486 H3476 0.930 . S
C3486 C3484 1.419 . S
C3486 C3487 1.362 . S
C3487 H3477 0.930 . S
C3487 C3480 1.409 . S
C3487 C3486 1.362 . S
H3488 C3494 0.930 . S
H3489 C3497 0.930 . S
H3490 C3498 0.930 . S
H3491 C3499 0.930 . S
H3492 C3502 0.930 . S
H3493 C3503 0.930 . S
C3494 H3488 0.930 . S
C3494 C3495 1.355 . S
C3494 C3496 1.415 . S
C3495 C3494 1.355 . S
C3495 C3497 1.419 . S
C3496 C3494 1.415 . S
C3496 C3501 1.425 . S
C3496 C3503 1.409 . S
C3497 H3489 0.930 . S
C3497 C3495 1.419 . S
C3497 C3498 1.362 . S
C3498 H3490 0.930 . S
C3498 C3497 1.362 . S
C3498 C3501 1.409 . S
C3499 H3491 0.930 . S
C3499 C3500 1.355 . S
C3499 C3501 1.415 . S
C3500 C3499 1.355 . S
C3500 C3502 1.419 . S
C3501 C3496 1.425 . S
C3501 C3498 1.409 . S
C3501 C3499 1.415 . S
C3502 H3492 0.930 . S
C3502 C3500 1.419 . S
C3502 C3503 1.362 . S
C3503 H3493 0.930 . S
C3503 C3496 1.409 . S
C3503 C3502 1.362 . S
H3504 C3510 0.930 . S
H3505 C3513 0.930 . S
H3506 C3514 0.930 . S
H3507 C3515 0.930 . S
H3508 C3518 0.930 . S
H3509 C3519 0.930 . S
C3510 H3504 0.930 . S
C3510 C3511 1.355 . S
C3510 C3512 1.415 . S
C3511 C3510 1.355 . S
C3511 C3513 1.419 . S
C3512 C3510 1.415 . S
C3512 C3517 1.425 . S
C3512 C3519 1.409 . S
C3513 H3505 0.930 . S
C3513 C3511 1.419 . S
C3513 C3514 1.362 . S
C3514 H3506 0.930 . S
C3514 C3513 1.362 . S
C3514 C3517 1.409 . S
C3515 H3507 0.930 . S
C3515 C3516 1.355 . S
C3515 C3517 1.415 . S
C3516 C3515 1.355 . S
C3516 C3518 1.419 . S
C3517 C3512 1.425 . S
C3517 C3514 1.409 . S
C3517 C3515 1.415 . S
C3518 H3508 0.930 . S
C3518 C3516 1.419 . S
C3518 C3519 1.362 . S
C3519 H3509 0.930 . S
C3519 C3512 1.409 . S
C3519 C3518 1.362 . S
H3520 C3526 0.930 . S
H3521 C3529 0.930 . S
H3522 C3530 0.930 . S
H3523 C3531 0.930 . S
H3524 C3534 0.930 . S
H3525 C3535 0.930 . S
C3526 H3520 0.930 . S
C3526 C3527 1.355 . S
C3526 C3528 1.415 . S
C3527 C3526 1.355 . S
C3527 C3529 1.419 . S
C3528 C3526 1.415 . S
C3528 C3533 1.425 . S
C3528 C3535 1.409 . S
C3529 H3521 0.930 . S
C3529 C3527 1.419 . S
C3529 C3530 1.362 . S
C3530 H3522 0.930 . S
C3530 C3529 1.362 . S
C3530 C3533 1.409 . S
C3531 H3523 0.930 . S
C3531 C3532 1.355 . S
C3531 C3533 1.415 . S
C3532 C3531 1.355 . S
C3532 C3534 1.419 . S
C3533 C3528 1.425 . S
C3533 C3530 1.409 . S
C3533 C3531 1.415 . S
C3534 H3524 0.930 . S
C3534 C3532 1.419 . S
C3534 C3535 1.362 . S
C3535 H3525 0.930 . S
C3535 C3528 1.409 . S
C3535 C3534 1.362 . S
H3536 C3542 0.930 . S
H3537 C3545 0.930 . S
H3538 C3546 0.930 . S
H3539 C3547 0.930 . S
H3540 C3550 0.930 . S
H3541 C3551 0.930 . S
C3542 H3536 0.930 . S
C3542 C3543 1.355 . S
C3542 C3544 1.415 . S
C3543 C3542 1.355 . S
C3543 C3545 1.419 . S
C3544 C3542 1.415 . S
C3544 C3549 1.425 . S
C3544 C3551 1.409 . S
C3545 H3537 0.930 . S
C3545 C3543 1.419 . S
C3545 C3546 1.362 . S
C3546 H3538 0.930 . S
C3546 C3545 1.362 . S
C3546 C3549 1.409 . S
C3547 H3539 0.930 . S
C3547 C3548 1.355 . S
C3547 C3549 1.415 . S
C3548 C3547 1.355 . S
C3548 C3550 1.419 . S
C3549 C3544 1.425 . S
C3549 C3546 1.409 . S
C3549 C3547 1.415 . S
C3550 H3540 0.930 . S
C3550 C3548 1.419 . S
C3550 C3551 1.362 . S
C3551 H3541 0.930 . S
C3551 C3544 1.409 . S
C3551 C3550 1.362 . S
H3552 C3558 0.930 . S
H3553 C3561 0.930 . S
H3554 C3562 0.930 . S
H3555 C3563 0.930 . S
H3556 C3566 0.930 . S
H3557 C3567 0.930 . S
C3558 H3552 0.930 . S
C3558 C3559 1.355 . S
C3558 C3560 1.415 . S
C3559 C3558 1.355 . S
C3559 C3561 1.419 . S
C3560 C3558 1.415 . S
C3560 C3565 1.425 . S
C3560 C3567 1.409 . S
C3561 H3553 0.930 . S
C3561 C3559 1.419 . S
C3561 C3562 1.362 . S
C3562 H3554 0.930 . S
C3562 C3561 1.362 . S
C3562 C3565 1.409 . S
C3563 H3555 0.930 . S
C3563 C3564 1.355 . S
C3563 C3565 1.415 . S
C3564 C3563 1.355 . S
C3564 C3566 1.419 . S
C3565 C3560 1.425 . S
C3565 C3562 1.409 . S
C3565 C3563 1.415 . S
C3566 H3556 0.930 . S
C3566 C3564 1.419 . S
C3566 C3567 1.362 . S
C3567 H3557 0.930 . S
C3567 C3560 1.409 . S
C3567 C3566 1.362 . S
H3568 C3574 0.930 . S
H3569 C3577 0.930 . S
H3570 C3578 0.930 . S
H3571 C3579 0.930 . S
H3572 C3582 0.930 . S
H3573 C3583 0.930 . S
C3574 H3568 0.930 . S
C3574 C3575 1.355 . S
C3574 C3576 1.415 . S
C3575 C3574 1.355 . S
C3575 C3577 1.419 . S
C3576 C3574 1.415 . S
C3576 C3581 1.425 . S
C3576 C3583 1.409 . S
C3577 H3569 0.930 . S
C3577 C3575 1.419 . S
C3577 C3578 1.362 . S
C3578 H3570 0.930 . S
C3578 C3577 1.362 . S
C3578 C3581 1.409 . S
C3579 H3571 0.930 . S
C3579 C3580 1.355 . S
C3579 C3581 1.415 . S
C3580 C3579 1.355 . S
C3580 C3582 1.419 . S
C3581 C3576 1.425 . S
C3581 C3578 1.409 . S
C3581 C3579 1.415 . S
C3582 H3572 0.930 . S
C3582 C3580 1.419 . S
C3582 C3583 1.362 . S
C3583 H3573 0.930 . S
C3583 C3576 1.409 . S
C3583 C3582 1.362 . S
H3584 C3590 0.930 . S
H3585 C3593 0.930 . S
H3586 C3594 0.930 . S
H3587 C3595 0.930 . S
H3588 C3598 0.930 . S
H3589 C3599 0.930 . S
C3590 H3584 0.930 . S
C3590 C3591 1.355 . S
C3590 C3592 1.415 . S
C3591 C3590 1.355 . S
C3591 C3593 1.419 . S
C3592 C3590 1.415 . S
C3592 C3597 1.425 . S
C3592 C3599 1.409 . S
C3593 H3585 0.930 . S
C3593 C3591 1.419 . S
C3593 C3594 1.362 . S
C3594 H3586 0.930 . S
C3594 C3593 1.362 . S
C3594 C3597 1.409 . S
C3595 H3587 0.930 . S
C3595 C3596 1.355 . S
C3595 C3597 1.415 . S
C3596 C3595 1.355 . S
C3596 C3598 1.419 . S
C3597 C3592 1.425 . S
C3597 C3594 1.409 . S
C3597 C3595 1.415 . S
C3598 H3588 0.930 . S
C3598 C3596 1.419 . S
C3598 C3599 1.362 . S
C3599 H3589 0.930 . S
C3599 C3592 1.409 . S
C3599 C3598 1.362 . S
H3600 C3606 0.930 . S
H3601 C3609 0.930 . S
H3602 C3610 0.930 . S
H3603 C3611 0.930 . S
H3604 C3614 0.930 . S
H3605 C3615 0.930 . S
C3606 H3600 0.930 . S
C3606 C3607 1.355 . S
C3606 C3608 1.415 . S
C3607 C3606 1.355 . S
C3607 C3609 1.419 . S
C3608 C3606 1.415 . S
C3608 C3613 1.425 . S
C3608 C3615 1.409 . S
C3609 H3601 0.930 . S
C3609 C3607 1.419 . S
C3609 C3610 1.362 . S
C3610 H3602 0.930 . S
C3610 C3609 1.362 . S
C3610 C3613 1.409 . S
C3611 H3603 0.930 . S
C3611 C3612 1.355 . S
C3611 C3613 1.415 . S
C3612 C3611 1.355 . S
C3612 C3614 1.419 . S
C3613 C3608 1.425 . S
C3613 C3610 1.409 . S
C3613 C3611 1.415 . S
C3614 H3604 0.930 . S
C3614 C3612 1.419 . S
C3614 C3615 1.362 . S
C3615 H3605 0.930 . S
C3615 C3608 1.409 . S
C3615 C3614 1.362 . S
H3616 C3622 0.930 . S
H3617 C3625 0.930 . S
H3618 C3626 0.930 . S
H3619 C3627 0.930 . S
H3620 C3630 0.930 . S
H3621 C3631 0.930 . S
C3622 H3616 0.930 . S
C3622 C3623 1.355 . S
C3622 C3624 1.415 . S
C3623 C3622 1.355 . S
C3623 C3625 1.419 . S
C3624 C3622 1.415 . S
C3624 C3629 1.425 . S
C3624 C3631 1.409 . S
C3625 H3617 0.930 . S
C3625 C3623 1.419 . S
C3625 C3626 1.362 . S
C3626 H3618 0.930 . S
C3626 C3625 1.362 . S
C3626 C3629 1.409 . S
C3627 H3619 0.930 . S
C3627 C3628 1.355 . S
C3627 C3629 1.415 . S
C3628 C3627 1.355 . S
C3628 C3630 1.419 . S
C3629 C3624 1.425 . S
C3629 C3626 1.409 . S
C3629 C3627 1.415 . S
C3630 H3620 0.930 . S
C3630 C3628 1.419 . S
C3630 C3631 1.362 . S
C3631 H3621 0.930 . S
C3631 C3624 1.409 . S
C3631 C3630 1.362 . S
H3632 C3638 0.930 . S
H3633 C3641 0.930 . S
H3634 C3642 0.930 . S
H3635 C3643 0.930 . S
H3636 C3646 0.930 . S
H3637 C3647 0.930 . S
C3638 H3632 0.930 . S
C3638 C3639 1.355 . S
C3638 C3640 1.415 . S
C3639 C3638 1.355 . S
C3639 C3641 1.419 . S
C3640 C3638 1.415 . S
C3640 C3645 1.425 . S
C3640 C3647 1.409 . S
C3641 H3633 0.930 . S
C3641 C3639 1.419 . S
C3641 C3642 1.362 . S
C3642 H3634 0.930 . S
C3642 C3641 1.362 . S
C3642 C3645 1.409 . S
C3643 H3635 0.930 . S
C3643 C3644 1.355 . S
C3643 C3645 1.415 . S
C3644 C3643 1.355 . S
C3644 C3646 1.419 . S
C3645 C3640 1.425 . S
C3645 C3642 1.409 . S
C3645 C3643 1.415 . S
C3646 H3636 0.930 . S
C3646 C3644 1.419 . S
C3646 C3647 1.362 . S
C3647 H3637 0.930 . S
C3647 C3640 1.409 . S
C3647 C3646 1.362 . S
H3648 C3654 0.930 . S
H3649 C3657 0.930 . S
H3650 C3658 0.930 . S
H3651 C3659 0.930 . S
H3652 C3662 0.930 . S
H3653 C3663 0.930 . S
C3654 H3648 0.930 . S
C3654 C3655 1.355 . S
C3654 C3656 1.415 . S
C3655 C3654 1.355 . S
C3655 C3657 1.419 . S
C3656 C3654 1.415 . S
C3656 C3661 1.425 . S
C3656 C3663 1.409 . S
C3657 H3649 0.930 . S
C3657 C3655 1.419 . S
C3657 C3658 1.362 . S
C3658 H3650 0.930 . S
C3658 C3657 1.362 . S
C3658 C3661 1.409 . S
C3659 H3651 0.930 . S
C3659 C3660 1.355 . S
C3659 C3661 1.415 . S
C3660 C3659 1.355 . S
C3660 C3662 1.419 . S
C3661 C3656 1.425 . S
C3661 C3658 1.409 . S
C3661 C3659 1.415 . S
C3662 H3652 0.930 . S
C3662 C3660 1.419 . S
C3662 C3663 1.362 . S
C3663 H3653 0.930 . S
C3663 C3656 1.409 . S
C3663 C3662 1.362 . S
H3664 C3670 0.930 . S
H3665 C3673 0.930 . S
H3666 C3674 0.930 . S
H3667 C3675 0.930 . S
H3668 C3678 0.930 . S
H3669 C3679 0.930 . S
C3670 H3664 0.930 . S
C3670 C3671 1.355 . S
C3670 C3672 1.415 . S
C3671 C3670 1.355 . S
C3671 C3673 1.419 . S
C3672 C3670 1.415 . S
C3672 C3677 1.425 . S
C3672 C3679 1.409 . S
C3673 H3665 0.930 . S
C3673 C3671 1.419 . S
C3673 C3674 1.362 . S
C3674 H3666 0.930 . S
C3674 C3673 1.362 . S
C3674 C3677 1.409 . S
C3675 H3667 0.930 . S
C3675 C3676 1.355 . S
C3675 C3677 1.415 . S
C3676 C3675 1.355 . S
C3676 C3678 1.419 . S
C3677 C3672 1.425 . S
C3677 C3674 1.409 . S
C3677 C3675 1.415 . S
C3678 H3668 0.930 . S
C3678 C3676 1.419 . S
C3678 C3679 1.362 . S
C3679 H3669 0.930 . S
C3679 C3672 1.409 . S
C3679 C3678 1.362 . S
H3680 C3686 0.930 . S
H3681 C3689 0.930 . S
H3682 C3690 0.930 . S
H3683 C3691 0.930 . S
H3684 C3694 0.930 . S
H3685 C3695 0.930 . S
C3686 H3680 0.930 . S
C3686 C3687 1.355 . S
C3686 C3688 1.415 . S
C3687 C3686 1.355 . S
C3687 C3689 1.419 . S
C3688 C3686 1.415 . S
C3688 C3693 1.425 . S
C3688 C3695 1.409 . S
C3689 H3681 0.930 . S
C3689 C3687 1.419 . S
C3689 C3690 1.362 . S
C3690 H3682 0.930 . S
C3690 C3689 1.362 . S
C3690 C3693 1.409 . S
C3691 H3683 0.930 . S
C3691 C3692 1.355 . S
C3691 C3693 1.415 . S
C3692 C3691 1.355 . S
C3692 C3694 1.419 . S
C3693 C3688 1.425 . S
C3693 C3690 1.409 . S
C3693 C3691 1.415 . S
C3694 H3684 0.930 . S
C3694 C3692 1.419 . S
C3694 C3695 1.362 . S
C3695 H3685 0.930 . S
C3695 C3688 1.409 . S
C3695 C3694 1.362 . S
H3696 C3702 0.930 . S
H3697 C3705 0.930 . S
H3698 C3706 0.930 . S
H3699 C3707 0.930 . S
H3700 C3710 0.930 . S
H3701 C3711 0.930 . S
C3702 H3696 0.930 . S
C3702 C3703 1.355 . S
C3702 C3704 1.415 . S
C3703 C3702 1.355 . S
C3703 C3705 1.419 . S
C3704 C3702 1.415 . S
C3704 C3709 1.425 . S
C3704 C3711 1.409 . S
C3705 H3697 0.930 . S
C3705 C3703 1.419 . S
C3705 C3706 1.362 . S
C3706 H3698 0.930 . S
C3706 C3705 1.362 . S
C3706 C3709 1.409 . S
C3707 H3699 0.930 . S
C3707 C3708 1.355 . S
C3707 C3709 1.415 . S
C3708 C3707 1.355 . S
C3708 C3710 1.419 . S
C3709 C3704 1.425 . S
C3709 C3706 1.409 . S
C3709 C3707 1.415 . S
C3710 H3700 0.930 . S
C3710 C3708 1.419 . S
C3710 C3711 1.362 . S
C3711 H3701 0.930 . S
C3711 C3704 1.409 . S
C3711 C3710 1.362 . S
H3712 C3718 0.930 . S
H3713 C3721 0.930 . S
H3714 C3722 0.930 . S
H3715 C3723 0.930 . S
H3716 C3726 0.930 . S
H3717 C3727 0.930 . S
C3718 H3712 0.930 . S
C3718 C3719 1.355 . S
C3718 C3720 1.415 . S
C3719 C3718 1.355 . S
C3719 C3721 1.419 . S
C3720 C3718 1.415 . S
C3720 C3725 1.425 . S
C3720 C3727 1.409 . S
C3721 H3713 0.930 . S
C3721 C3719 1.419 . S
C3721 C3722 1.362 . S
C3722 H3714 0.930 . S
C3722 C3721 1.362 . S
C3722 C3725 1.409 . S
C3723 H3715 0.930 . S
C3723 C3724 1.355 . S
C3723 C3725 1.415 . S
C3724 C3723 1.355 . S
C3724 C3726 1.419 . S
C3725 C3720 1.425 . S
C3725 C3722 1.409 . S
C3725 C3723 1.415 . S
C3726 H3716 0.930 . S
C3726 C3724 1.419 . S
C3726 C3727 1.362 . S
C3727 H3717 0.930 . S
C3727 C3720 1.409 . S
C3727 C3726 1.362 . S
H3728 C3734 0.930 . S
H3729 C3737 0.930 . S
H3730 C3738 0.930 . S
H3731 C3739 0.930 . S
H3732 C3742 0.930 . S
H3733 C3743 0.930 . S
C3734 H3728 0.930 . S
C3734 C3735 1.355 . S
C3734 C3736 1.415 . S
C3735 C3734 1.355 . S
C3735 C3737 1.419 . S
C3736 C3734 1.415 . S
C3736 C3741 1.425 . S
C3736 C3743 1.409 . S
C3737 H3729 0.930 . S
C3737 C3735 1.419 . S
C3737 C3738 1.362 . S
C3738 H3730 0.930 . S
C3738 C3737 1.362 . S
C3738 C3741 1.409 . S
C3739 H3731 0.930 . S
C3739 C3740 1.355 . S
C3739 C3741 1.415 . S
C3740 C3739 1.355 . S
C3740 C3742 1.419 . S
C3741 C3736 1.425 . S
C3741 C3738 1.409 . S
C3741 C3739 1.415 . S
C3742 H3732 0.930 . S
C3742 C3740 1.419 . S
C3742 C3743 1.362 . S
C3743 H3733 0.930 . S
C3743 C3736 1.409 . S
C3743 C3742 1.362 . S
H3744 C3750 0.930 . S
H3745 C3753 0.930 . S
H3746 C3754 0.930 . S
H3747 C3755 0.930 . S
H3748 C3758 0.930 . S
H3749 C3759 0.930 . S
C3750 H3744 0.930 . S
C3750 C3751 1.355 . S
C3750 C3752 1.415 . S
C3751 C3750 1.355 . S
C3751 C3753 1.419 . S
C3752 C3750 1.415 . S
C3752 C3757 1.425 . S
C3752 C3759 1.409 . S
C3753 H3745 0.930 . S
C3753 C3751 1.419 . S
C3753 C3754 1.362 . S
C3754 H3746 0.930 . S
C3754 C3753 1.362 . S
C3754 C3757 1.409 . S
C3755 H3747 0.930 . S
C3755 C3756 1.355 . S
C3755 C3757 1.415 . S
C3756 C3755 1.355 . S
C3756 C3758 1.419 . S
C3757 C3752 1.425 . S
C3757 C3754 1.409 . S
C3757 C3755 1.415 . S
C3758 H3748 0.930 . S
C3758 C3756 1.419 . S
C3758 C3759 1.362 . S
C3759 H3749 0.930 . S
C3759 C3752 1.409 . S
C3759 C3758 1.362 . S
H3760 C3766 0.930 . S
H3761 C3769 0.930 . S
H3762 C3770 0.930 . S
H3763 C3771 0.930 . S
H3764 C3774 0.930 . S
H3765 C3775 0.930 . S
C3766 H3760 0.930 . S
C3766 C3767 1.355 . S
C3766 C3768 1.415 . S
C3767 C3766 1.355 . S
C3767 C3769 1.419 . S
C3768 C3766 1.415 . S
C3768 C3773 1.425 . S
C3768 C3775 1.409 . S
C3769 H3761 0.930 . S
C3769 C3767 1.419 . S
C3769 C3770 1.362 . S
C3770 H3762 0.930 . S
C3770 C3769 1.362 . S
C3770 C3773 1.409 . S
C3771 H3763 0.930 . S
C3771 C3772 1.355 . S
C3771 C3773 1.415 . S
C3772 C3771 1.355 . S
C3772 C3774 1.419 . S
C3773 C3768 1.425 . S
C3773 C3770 1.409 . S
C3773 C3771 1.415 . S
C3774 H3764 0.930 . S
C3774 C3772 1.419 . S
C3774 C3775 1.362 . S
C3775 H3765 0.930 . S
C3775 C3768 1.409 . S
C3775 C3774 1.362 . S
H3776 C3782 0.930 . S
H3777 C3785 0.930 . S
H3778 C3786 0.930 . S
H3779 C3787 0.930 . S
H3780 C3790 0.930 . S
H3781 C3791 0.930 . S
C3782 H3776 0.930 . S
C3782 C3783 1.355 . S
C3782 C3784 1.415 . S
C3783 C3782 1.355 . S
C3783 C3785 1.419 . S
C3784 C3782 1.415 . S
C3784 C3789 1.425 . S
C3784 C3791 1.409 . S
C3785 H3777 0.930 . S
C3785 C3783 1.419 . S
C3785 C3786 1.362 . S
C3786 H3778 0.930 . S
C3786 C3785 1.362 . S
C3786 C3789 1.409 . S
C3787 H3779 0.930 . S
C3787 C3788 1.355 . S
C3787 C3789 1.415 . S
C3788 C3787 1.355 . S
C3788 C3790 1.419 . S
C3789 C3784 1.425 . S
C3789 C3786 1.409 . S
C3789 C3787 1.415 . S
C3790 H3780 0.930 . S
C3790 C3788 1.419 . S
C3790 C3791 1.362 . S
C3791 H3781 0.930 . S
C3791 C3784 1.409 . S
C3791 C3790 1.362 . S
H3792 C3798 0.930 . S
H3793 C3801 0.930 . S
H3794 C3802 0.930 . S
H3795 C3803 0.930 . S
H3796 C3806 0.930 . S
H3797 C3807 0.930 . S
C3798 H3792 0.930 . S
C3798 C3799 1.355 . S
C3798 C3800 1.415 . S
C3799 C3798 1.355 . S
C3799 C3801 1.419 . S
C3800 C3798 1.415 . S
C3800 C3805 1.425 . S
C3800 C3807 1.409 . S
C3801 H3793 0.930 . S
C3801 C3799 1.419 . S
C3801 C3802 1.362 . S
C3802 H3794 0.930 . S
C3802 C3801 1.362 . S
C3802 C3805 1.409 . S
C3803 H3795 0.930 . S
C3803 C3804 1.355 . S
C3803 C3805 1.415 . S
C3804 C3803 1.355 . S
C3804 C3806 1.419 . S
C3805 C3800 1.425 . S
C3805 C3802 1.409 . S
C3805 C3803 1.415 . S
C3806 H3796 0.930 . S
C3806 C3804 1.419 . S
C3806 C3807 1.362 . S
C3807 H3797 0.930 . S
C3807 C3800 1.409 . S
C3807 C3806 1.362 . S
H3808 C3814 0.930 . S
H3809 C3817 0.930 . S
H3810 C3818 0.930 . S
H3811 C3819 0.930 . S
H3812 C3822 0.930 . S
H3813 C3823 0.930 . S
C3814 H3808 0.930 . S
C3814 C3815 1.355 . S
C3814 C3816 1.415 . S
C3815 C3814 1.355 . S
C3815 C3817 1.419 . S
C3816 C3814 1.415 . S
C3816 C3821 1.425 . S
C3816 C3823 1.409 . S
C3817 H3809 0.930 . S
C3817 C3815 1.419 . S
C3817 C3818 1.362 . S
C3818 H3810 0.930 . S
C3818 C3817 1.362 . S
C3818 C3821 1.409 . S
C3819 H3811 0.930 . S
C3819 C3820 1.355 . S
C3819 C3821 1.415 . S
C3820 C3819 1.355 . S
C3820 C3822 1.419 . S
C3821 C3816 1.425 . S
C3821 C3818 1.409 . S
C3821 C3819 1.415 . S
C3822 H3812 0.930 . S
C3822 C3820 1.419 . S
C3822 C3823 1.362 . S
C3823 H3813 0.930 . S
C3823 C3816 1.409 . S
C3823 C3822 1.362 . S
H3824 C3830 0.930 . S
H3825 C3833 0.930 . S
H3826 C3834 0.930 . S
H3827 C3835 0.930 . S
H3828 C3838 0.930 . S
H3829 C3839 0.930 . S
C3830 H3824 0.930 . S
C3830 C3831 1.355 . S
C3830 C3832 1.415 . S
C3831 C3830 1.355 . S
C3831 C3833 1.419 . S
C3832 C3830 1.415 . S
C3832 C3837 1.425 . S
C3832 C3839 1.409 . S
C3833 H3825 0.930 . S
C3833 C3831 1.419 . S
C3833 C3834 1.362 . S
C3834 H3826 0.930 . S
C3834 C3833 1.362 . S
C3834 C3837 1.409 . S
C3835 H3827 0.930 . S
C3835 C3836 1.355 . S
C3835 C3837 1.415 . S
C3836 C3835 1.355 . S
C3836 C3838 1.419 . S
C3837 C3832 1.425 . S
C3837 C3834 1.409 . S
C3837 C3835 1.415 . S
C3838 H3828 0.930 . S
C3838 C3836 1.419 . S
C3838 C3839 1.362 . S
C3839 H3829 0.930 . S
C3839 C3832 1.409 . S
C3839 C3838 1.362 . S
H3840 C3846 0.930 . S
H3841 C3849 0.930 . S
H3842 C3850 0.930 . S
H3843 C3851 0.930 . S
H3844 C3854 0.930 . S
H3845 C3855 0.930 . S
C3846 H3840 0.930 . S
C3846 C3847 1.355 . S
C3846 C3848 1.415 . S
C3847 C3846 1.355 . S
C3847 C3849 1.419 . S
C3848 C3846 1.415 . S
C3848 C3853 1.425 . S
C3848 C3855 1.409 . S
C3849 H3841 0.930 . S
C3849 C3847 1.419 . S
C3849 C3850 1.362 . S
C3850 H3842 0.930 . S
C3850 C3849 1.362 . S
C3850 C3853 1.409 . S
C3851 H3843 0.930 . S
C3851 C3852 1.355 . S
C3851 C3853 1.415 . S
C3852 C3851 1.355 . S
C3852 C3854 1.419 . S
C3853 C3848 1.425 . S
C3853 C3850 1.409 . S
C3853 C3851 1.415 . S
C3854 H3844 0.930 . S
C3854 C3852 1.419 . S
C3854 C3855 1.362 . S
C3855 H3845 0.930 . S
C3855 C3848 1.409 . S
C3855 C3854 1.362 . S
H3856 C3862 0.930 . S
H3857 C3865 0.930 . S
H3858 C3866 0.930 . S
H3859 C3867 0.930 . S
H3860 C3870 0.930 . S
H3861 C3871 0.930 . S
C3862 H3856 0.930 . S
C3862 C3863 1.355 . S
C3862 C3864 1.415 . S
C3863 C3862 1.355 . S
C3863 C3865 1.419 . S
C3864 C3862 1.415 . S
C3864 C3869 1.425 . S
C3864 C3871 1.409 . S
C3865 H3857 0.930 . S
C3865 C3863 1.419 . S
C3865 C3866 1.362 . S
C3866 H3858 0.930 . S
C3866 C3865 1.362 . S
C3866 C3869 1.409 . S
C3867 H3859 0.930 . S
C3867 C3868 1.355 . S
C3867 C3869 1.415 . S
C3868 C3867 1.355 . S
C3868 C3870 1.419 . S
C3869 C3864 1.425 . S
C3869 C3866 1.409 . S
C3869 C3867 1.415 . S
C3870 H3860 0.930 . S
C3870 C3868 1.419 . S
C3870 C3871 1.362 . S
C3871 H3861 0.930 . S
C3871 C3864 1.409 . S
C3871 C3870 1.362 . S
H3872 C3878 0.930 . S
H3873 C3881 0.930 . S
H3874 C3882 0.930 . S
H3875 C3883 0.930 . S
H3876 C3886 0.930 . S
H3877 C3887 0.930 . S
C3878 H3872 0.930 . S
C3878 C3879 1.355 . S
C3878 C3880 1.415 . S
C3879 C3878 1.355 . S
C3879 C3881 1.419 . S
C3880 C3878 1.415 . S
C3880 C3885 1.425 . S
C3880 C3887 1.409 . S
C3881 H3873 0.930 . S
C3881 C3879 1.419 . S
C3881 C3882 1.362 . S
C3882 H3874 0.930 . S
C3882 C3881 1.362 . S
C3882 C3885 1.409 . S
C3883 H3875 0.930 . S
C3883 C3884 1.355 . S
C3883 C3885 1.415 . S
C3884 C3883 1.355 . S
C3884 C3886 1.419 . S
C3885 C3880 1.425 . S
C3885 C3882 1.409 . S
C3885 C3883 1.415 . S
C3886 H3876 0.930 . S
C3886 C3884 1.419 . S
C3886 C3887 1.362 . S
C3887 H3877 0.930 . S
C3887 C3880 1.409 . S
C3887 C3886 1.362 . S
H3888 C3894 0.930 . S
H3889 C3897 0.930 . S
H3890 C3898 0.930 . S
H3891 C3899 0.930 . S
H3892 C3902 0.930 . S
H3893 C3903 0.930 . S
C3894 H3888 0.930 . S
C3894 C3895 1.355 . S
C3894 C3896 1.415 . S
C3895 C3894 1.355 . S
C3895 C3897 1.419 . S
C3896 C3894 1.415 . S
C3896 C3901 1.425 . S
C3896 C3903 1.409 . S
C3897 H3889 0.930 . S
C3897 C3895 1.419 . S
C3897 C3898 1.362 . S
C3898 H3890 0.930 . S
C3898 C3897 1.362 . S
C3898 C3901 1.409 . S
C3899 H3891 0.930 . S
C3899 C3900 1.355 . S
C3899 C3901 1.415 . S
C3900 C3899 1.355 . S
C3900 C3902 1.419 . S
C3901 C3896 1.425 . S
C3901 C3898 1.409 . S
C3901 C3899 1.415 . S
C3902 H3892 0.930 . S
C3902 C3900 1.419 . S
C3902 C3903 1.362 . S
C3903 H3893 0.930 . S
C3903 C3896 1.409 . S
C3903 C3902 1.362 . S
H3904 C3910 0.930 . S
H3905 C3913 0.930 . S
H3906 C3914 0.930 . S
H3907 C3915 0.930 . S
H3908 C3918 0.930 . S
H3909 C3919 0.930 . S
C3910 H3904 0.930 . S
C3910 C3911 1.355 . S
C3910 C3912 1.415 . S
C3911 C3910 1.355 . S
C3911 C3913 1.419 . S
C3912 C3910 1.415 . S
C3912 C3917 1.425 . S
C3912 C3919 1.409 . S
C3913 H3905 0.930 . S
C3913 C3911 1.419 . S
C3913 C3914 1.362 . S
C3914 H3906 0.930 . S
C3914 C3913 1.362 . S
C3914 C3917 1.409 . S
C3915 H3907 0.930 . S
C3915 C3916 1.355 . S
C3915 C3917 1.415 . S
C3916 C3915 1.355 . S
C3916 C3918 1.419 . S
C3917 C3912 1.425 . S
C3917 C3914 1.409 . S
C3917 C3915 1.415 . S
C3918 H3908 0.930 . S
C3918 C3916 1.419 . S
C3918 C3919 1.362 . S
C3919 H3909 0.930 . S
C3919 C3912 1.409 . S
C3919 C3918 1.362 . S
H3920 C3926 0.930 . S
H3921 C3929 0.930 . S
H3922 C3930 0.930 . S
H3923 C3931 0.930 . S
H3924 C3934 0.930 . S
H3925 C3935 0.930 . S
C3926 H3920 0.930 . S
C3926 C3927 1.355 . S
C3926 C3928 1.415 . S
C3927 C3926 1.355 . S
C3927 C3929 1.419 . S
C3928 C3926 1.415 . S
C3928 C3933 1.425 . S
C3928 C3935 1.409 . S
C3929 H3921 0.930 . S
C3929 C3927 1.419 . S
C3929 C3930 1.362 . S
C3930 H3922 0.930 . S
C3930 C3929 1.362 . S
C3930 C3933 1.409 . S
C3931 H3923 0.930 . S
C3931 C3932 1.355 . S
C3931 C3933 1.415 . S
C3932 C3931 1.355 . S
C3932 C3934 1.419 . S
C3933 C3928 1.425 . S
C3933 C3930 1.409 . S
C3933 C3931 1.415 . S
C3934 H3924 0.930 . S
C3934 C3932 1.419 . S
C3934 C3935 1.362 . S
C3935 H3925 0.930 . S
C3935 C3928 1.409 . S
C3935 C3934 1.362 . S
H3936 C3942 0.930 . S
H3937 C3945 0.930 . S
H3938 C3946 0.930 . S
H3939 C3947 0.930 . S
H3940 C3950 0.930 . S
H3941 C3951 0.930 . S
C3942 H3936 0.930 . S
C3942 C3943 1.355 . S
C3942 C3944 1.415 . S
C3943 C3942 1.355 . S
C3943 C3945 1.419 . S
C3944 C3942 1.415 . S
C3944 C3949 1.425 . S
C3944 C3951 1.409 . S
C3945 H3937 0.930 . S
C3945 C3943 1.419 . S
C3945 C3946 1.362 . S
C3946 H3938 0.930 . S
C3946 C3945 1.362 . S
C3946 C3949 1.409 . S
C3947 H3939 0.930 . S
C3947 C3948 1.355 . S
C3947 C3949 1.415 . S
C3948 C3947 1.355 . S
C3948 C3950 1.419 . S
C3949 C3944 1.425 . S
C3949 C3946 1.409 . S
C3949 C3947 1.415 . S
C3950 H3940 0.930 . S
C3950 C3948 1.419 . S
C3950 C3951 1.362 . S
C3951 H3941 0.930 . S
C3951 C3944 1.409 . S
C3951 C3950 1.362 . S
H3952 C3958 0.930 . S
H3953 C3961 0.930 . S
H3954 C3962 0.930 . S
H3955 C3963 0.930 . S
H3956 C3966 0.930 . S
H3957 C3967 0.930 . S
C3958 H3952 0.930 . S
C3958 C3959 1.355 . S
C3958 C3960 1.415 . S
C3959 C3958 1.355 . S
C3959 C3961 1.419 . S
C3960 C3958 1.415 . S
C3960 C3965 1.425 . S
C3960 C3967 1.409 . S
C3961 H3953 0.930 . S
C3961 C3959 1.419 . S
C3961 C3962 1.362 . S
C3962 H3954 0.930 . S
C3962 C3961 1.362 . S
C3962 C3965 1.409 . S
C3963 H3955 0.930 . S
C3963 C3964 1.355 . S
C3963 C3965 1.415 . S
C3964 C3963 1.355 . S
C3964 C3966 1.419 . S
C3965 C3960 1.425 . S
C3965 C3962 1.409 . S
C3965 C3963 1.415 . S
C3966 H3956 0.930 . S
C3966 C3964 1.419 . S
C3966 C3967 1.362 . S
C3967 H3957 0.930 . S
C3967 C3960 1.409 . S
C3967 C3966 1.362 . S
H3968 C3974 0.930 . S
H3969 C3977 0.930 . S
H3970 C3978 0.930 . S
H3971 C3979 0.930 . S
H3972 C3982 0.930 . S
H3973 C3983 0.930 . S
C3974 H3968 0.930 . S
C3974 C3975 1.355 . S
C3974 C3976 1.415 . S
C3975 C3974 1.355 . S
C3975 C3977 1.419 . S
C3976 C3974 1.415 . S
C3976 C3981 1.425 . S
C3976 C3983 1.409 . S
C3977 H3969 0.930 . S
C3977 C3975 1.419 . S
C3977 C3978 1.362 . S
C3978 H3970 0.930 . S
C3978 C3977 1.362 . S
C3978 C3981 1.409 . S
C3979 H3971 0.930 . S
C3979 C3980 1.355 . S
C3979 C3981 1.415 . S
C3980 C3979 1.355 . S
C3980 C3982 1.419 . S
C3981 C3976 1.425 . S
C3981 C3978 1.409 . S
C3981 C3979 1.415 . S
C3982 H3972 0.930 . S
C3982 C3980 1.419 . S
C3982 C3983 1.362 . S
C3983 H3973 0.930 . S
C3983 C3976 1.409 . S
C3983 C3982 1.362 . S
H3984 C3990 0.930 . S
H3985 C3993 0.930 . S
H3986 C3994 0.930 . S
H3987 C3995 0.930 . S
H3988 C3998 0.930 . S
H3989 C3999 0.930 . S
C3990 H3984 0.930 . S
C3990 C3991 1.355 . S
C3990 C3992 1.415 . S
C3991 C3990 1.355 . S
C3991 C3993 1.419 . S
C3992 C3990 1.415 . S
C3992 C3997 1.425 . S
C3992 C3999 1.409 . S
C3993 H3985 0.930 . S
C3993 C3991 1.419 . S
C3993 C3994 1.362 . S
C3994 H3986 0.930 . S
C3994 C3993 1.362 . S
C3994 C3997 1.409 . S
C3995 H3987 0.930 . S
C3995 C3996 1.355 . S
C3995 C3997 1.415 . S
C3996 C3995 1.355 . S
C3996 C3998 1.419 . S
C3997 C3992 1.425 . S
C3997 C3994 1.409 . S
C3997 C3995 1.415 . S
C3998 H3988 0.930 . S
C3998 C3996 1.419 . S
C3998 C3999 1.362 . S
C3999 H3989 0.930 . S
C3999 C3992 1.409 . S
C3999 C3998 1.362 . S
H4000 C4006 0.930 . S
H4001 C4009 0.930 . S
H4002 C4010 0.930 . S
H4003 C4011 0.930 . S
H4004 C4014 0.930 . S
H4005 C4015 0.930 . S
C4006 H4000 0.930 . S
C4006 C4007 1.355 . S
C4006 C4008 1.415 . S
C4007 C4006 1.355 . S
C4007 C4009 1.419 . S
C4008 C4006 1.415 . S
C4008 C4013 1.425 . S
C4008 C4015 1.409 . S
C4009 H4001 0.930 . S
C4009 C4007 1.419 . S
C4009 C4010 1.362 . S
C4010 H4002 0.930 . S
C4010 C4009 1.362 . S
C4010 C4013 1.409 . S
C4011 H4003 0.930 . S
C4011 C4012 1.355 . S
C4011 C4013 1.415 . S
C4012 C4011 1.355 . S
C4012 C4014 1.419 . S
C4013 C4008 1.425 . S
C4013 C4010 1.409 . S
C4013 C4011 1.415 . S
C4014 H4004 0.930 . S
C4014 C4012 1.419 . S
C4014 C4015 1.362 . S
C4015 H4005 0.930 . S
C4015 C4008 1.409 . S
C4015 C4014 1.362 . S
H4016 C4022 0.930 . S
H4017 C4025 0.930 . S
H4018 C4026 0.930 . S
H4019 C4027 0.930 . S
H4020 C4030 0.930 . S
H4021 C4031 0.930 . S
C4022 H4016 0.930 . S
C4022 C4023 1.355 . S
C4022 C4024 1.415 . S
C4023 C4022 1.355 . S
C4023 C4025 1.419 . S
C4024 C4022 1.415 . S
C4024 C4029 1.425 . S
C4024 C4031 1.409 . S
C4025 H4017 0.930 . S
C4025 C4023 1.419 . S
C4025 C4026 1.362 . S
C4026 H4018 0.930 . S
C4026 C4025 1.362 . S
C4026 C4029 1.409 . S
C4027 H4019 0.930 . S
C4027 C4028 1.355 . S
C4027 C4029 1.415 . S
C4028 C4027 1.355 . S
C4028 C4030 1.419 . S
C4029 C4024 1.425 . S
C4029 C4026 1.409 . S
C4029 C4027 1.415 . S
C4030 H4020 0.930 . S
C4030 C4028 1.419 . S
C4030 C4031 1.362 . S
C4031 H4021 0.930 . S
C4031 C4024 1.409 . S
C4031 C4030 1.362 . S
H4032 C4038 0.930 . S
H4033 C4041 0.930 . S
H4034 C4042 0.930 . S
H4035 C4043 0.930 . S
H4036 C4046 0.930 . S
H4037 C4047 0.930 . S
C4038 H4032 0.930 . S
C4038 C4039 1.355 . S
C4038 C4040 1.415 . S
C4039 C4038 1.355 . S
C4039 C4041 1.419 . S
C4040 C4038 1.415 . S
C4040 C4045 1.425 . S
C4040 C4047 1.409 . S
C4041 H4033 0.930 . S
C4041 C4039 1.419 . S
C4041 C4042 1.362 . S
C4042 H4034 0.930 . S
C4042 C4041 1.362 . S
C4042 C4045 1.409 . S
C4043 H4035 0.930 . S
C4043 C4044 1.355 . S
C4043 C4045 1.415 . S
C4044 C4043 1.355 . S
C4044 C4046 1.419 . S
C4045 C4040 1.425 . S
C4045 C4042 1.409 . S
C4045 C4043 1.415 . S
C4046 H4036 0.930 . S
C4046 C4044 1.419 . S
C4046 C4047 1.362 . S
C4047 H4037 0.930 . S
C4047 C4040 1.409 . S
C4047 C4046 1.362 . S
H4048 C4054 0.930 . S
H4049 C4057 0.930 . S
H4050 C4058 0.930 . S
H4051 C4059 0.930 . S
H4052 C4062 0.930 . S
H4053 C4063 0.930 . S
C4054 H4048 0.930 . S
C4054 C4055 1.355 . S
C4054 C4056 1.415 . S
C4055 C4054 1.355 . S
C4055 C4057 1.419 . S
C4056 C4054 1.415 . S
C4056 C4061 1.425 . S
C4056 C4063 1.409 . S
C4057 H4049 0.930 . S
C4057 C4055 1.419 . S
C4057 C4058 1.362 . S
C4058 H4050 0.930 . S
C4058 C4057 1.362 . S
C4058 C4061 1.409 . S
C4059 H4051 0.930 . S
C4059 C4060 1.355 . S
C4059 C4061 1.415 . S
C4060 C4059 1.355 . S
C4060 C4062 1.419 . S
C4061 C4056 1.425 . S
C4061 C4058 1.409 . S
C4061 C4059 1.415 . S
C4062 H4052 0.930 . S
C4062 C4060 1.419 . S
C4062 C4063 1.362 . S
C4063 H4053 0.930 . S
C4063 C4056 1.409 . S
C4063 C4062 1.362 . S
H4064 C4070 0.930 . S
H4065 C4073 0.930 . S
H4066 C4074 0.930 . S
H4067 C4075 0.930 . S
H4068 C4078 0.930 . S
H4069 C4079 0.930 . S
C4070 H4064 0.930 . S
C4070 C4071 1.355 . S
C4070 C4072 1.415 . S
C4071 C4070 1.355 . S
C4071 C4073 1.419 . S
C4072 C4070 1.415 . S
C4072 C4077 1.425 . S
C4072 C4079 1.409 . S
C4073 H4065 0.930 . S
C4073 C4071 1.419 . S
C4073 C4074 1.362 . S
C4074 H4066 0.930 . S
C4074 C4073 1.362 . S
C4074 C4077 1.409 . S
C4075 H4067 0.930 . S
C4075 C4076 1.355 . S
C4075 C4077 1.415 . S
C4076 C4075 1.355 . S
C4076 C4078 1.419 . S
C4077 C4072 1.425 . S
C4077 C4074 1.409 . S
C4077 C4075 1.415 . S
C4078 H4068 0.930 . S
C4078 C4076 1.419 . S
C4078 C4079 1.362 . S
C4079 H4069 0.930 . S
C4079 C4072 1.409 . S
C4079 C4078 1.362 . S
H4080 C4086 0.930 . S
H4081 C4089 0.930 . S
H4082 C4090 0.930 . S
H4083 C4091 0.930 . S
H4084 C4094 0.930 . S
H4085 C4095 0.930 . S
C4086 H4080 0.930 . S
C4086 C4087 1.355 . S
C4086 C4088 1.415 . S
C4087 C4086 1.355 . S
C4087 C4089 1.419 . S
C4088 C4086 1.415 . S
C4088 C4093 1.425 . S
C4088 C4095 1.409 . S
C4089 H4081 0.930 . S
C4089 C4087 1.419 . S
C4089 C4090 1.362 . S
C4090 H4082 0.930 . S
C4090 C4089 1.362 . S
C4090 C4093 1.409 . S
C4091 H4083 0.930 . S
C4091 C4092 1.355 . S
C4091 C4093 1.415 . S
C4092 C4091 1.355 . S
C4092 C4094 1.419 . S
C4093 C4088 1.425 . S
C4093 C4090 1.409 . S
C4093 C4091 1.415 . S
C4094 H4084 0.930 . S
C4094 C4092 1.419 . S
C4094 C4095 1.362 . S
C4095 H4085 0.930 . S
C4095 C4088 1.409 . S
C4095 C4094 1.362 . S
H4096 C4102 0.930 . S
H4097 C4105 0.930 . S
H4098 C4106 0.930 . S
H4099 C4107 0.930 . S
H4100 C4110 0.930 . S
H4101 C4111 0.930 . S
C4102 H4096 0.930 . S
C4102 C4103 1.355 . S
C4102 C4104 1.415 . S
C4103 C4102 1.355 . S
C4103 C4105 1.419 . S
C4104 C4102 1.415 . S
C4104 C4109 1.425 . S
C4104 C4111 1.409 . S
C4105 H4097 0.930 . S
C4105 C4103 1.419 . S
C4105 C4106 1.362 . S
C4106 H4098 0.930 . S
C4106 C4105 1.362 . S
C4106 C4109 1.409 . S
C4107 H4099 0.930 . S
C4107 C4108 1.355 . S
C4107 C4109 1.415 . S
C4108 C4107 1.355 . S
C4108 C4110 1.419 . S
C4109 C4104 1.425 . S
C4109 C4106 1.409 . S
C4109 C4107 1.415 . S
C4110 H4100 0.930 . S
C4110 C4108 1.419 . S
C4110 C4111 1.362 . S
C4111 H4101 0.930 . S
C4111 C4104 1.409 . S
C4111 C4110 1.362 . S
H4112 C4118 0.930 . S
H4113 C4121 0.930 . S
H4114 C4122 0.930 . S
H4115 C4123 0.930 . S
H4116 C4126 0.930 . S
H4117 C4127 0.930 . S
C4118 H4112 0.930 . S
C4118 C4119 1.355 . S
C4118 C4120 1.415 . S
C4119 C4118 1.355 . S
C4119 C4121 1.419 . S
C4120 C4118 1.415 . S
C4120 C4125 1.425 . S
C4120 C4127 1.409 . S
C4121 H4113 0.930 . S
C4121 C4119 1.419 . S
C4121 C4122 1.362 . S
C4122 H4114 0.930 . S
C4122 C4121 1.362 . S
C4122 C4125 1.409 . S
C4123 H4115 0.930 . S
C4123 C4124 1.355 . S
C4123 C4125 1.415 . S
C4124 C4123 1.355 . S
C4124 C4126 1.419 . S
C4125 C4120 1.425 . S
C4125 C4122 1.409 . S
C4125 C4123 1.415 . S
C4126 H4116 0.930 . S
C4126 C4124 1.419 . S
C4126 C4127 1.362 . S
C4127 H4117 0.930 . S
C4127 C4120 1.409 . S
C4127 C4126 1.362 . S
H4128 C4134 0.930 . S
H4129 C4137 0.930 . S
H4130 C4138 0.930 . S
H4131 C4139 0.930 . S
H4132 C4142 0.930 . S
H4133 C4143 0.930 . S
C4134 H4128 0.930 . S
C4134 C4135 1.355 . S
C4134 C4136 1.415 . S
C4135 C4134 1.355 . S
C4135 C4137 1.419 . S
C4136 C4134 1.415 . S
C4136 C4141 1.425 . S
C4136 C4143 1.409 . S
C4137 H4129 0.930 . S
C4137 C4135 1.419 . S
C4137 C4138 1.362 . S
C4138 H4130 0.930 . S
C4138 C4137 1.362 . S
C4138 C4141 1.409 . S
C4139 H4131 0.930 . S
C4139 C4140 1.355 . S
C4139 C4141 1.415 . S
C4140 C4139 1.355 . S
C4140 C4142 1.419 . S
C4141 C4136 1.425 . S
C4141 C4138 1.409 . S
C4141 C4139 1.415 . S
C4142 H4132 0.930 . S
C4142 C4140 1.419 . S
C4142 C4143 1.362 . S
C4143 H4133 0.930 . S
C4143 C4136 1.409 . S
C4143 C4142 1.362 . S
H4144 C4150 0.930 . S
H4145 C4153 0.930 . S
H4146 C4154 0.930 . S
H4147 C4155 0.930 . S
H4148 C4158 0.930 . S
H4149 C4159 0.930 . S
C4150 H4144 0.930 . S
C4150 C4151 1.355 . S
C4150 C4152 1.415 . S
C4151 C4150 1.355 . S
C4151 C4153 1.419 . S
C4152 C4150 1.415 . S
C4152 C4157 1.425 . S
C4152 C4159 1.409 . S
C4153 H4145 0.930 . S
C4153 C4151 1.419 . S
C4153 C4154 1.362 . S
C4154 H4146 0.930 . S
C4154 C4153 1.362 . S
C4154 C4157 1.409 . S
C4155 H4147 0.930 . S
C4155 C4156 1.355 . S
C4155 C4157 1.415 . S
C4156 C4155 1.355 . S
C4156 C4158 1.419 . S
C4157 C4152 1.425 . S
C4157 C4154 1.409 . S
C4157 C4155 1.415 . S
C4158 H4148 0.930 . S
C4158 C4156 1.419 . S
C4158 C4159 1.362 . S
C4159 H4149 0.930 . S
C4159 C4152 1.409 . S
C4159 C4158 1.362 . S
H4160 C4166 0.930 . S
H4161 C4169 0.930 . S
H4162 C4170 0.930 . S
H4163 C4171 0.930 . S
H4164 C4174 0.930 . S
H4165 C4175 0.930 . S
C4166 H4160 0.930 . S
C4166 C4167 1.355 . S
C4166 C4168 1.415 . S
C4167 C4166 1.355 . S
C4167 C4169 1.419 . S
C4168 C4166 1.415 . S
C4168 C4173 1.425 . S
C4168 C4175 1.409 . S
C4169 H4161 0.930 . S
C4169 C4167 1.419 . S
C4169 C4170 1.362 . S
C4170 H4162 0.930 . S
C4170 C4169 1.362 . S
C4170 C4173 1.409 . S
C4171 H4163 0.930 . S
C4171 C4172 1.355 . S
C4171 C4173 1.415 . S
C4172 C4171 1.355 . S
C4172 C4174 1.419 . S
C4173 C4168 1.425 . S
C4173 C4170 1.409 . S
C4173 C4171 1.415 . S
C4174 H4164 0.930 . S
C4174 C4172 1.419 . S
C4174 C4175 1.362 . S
C4175 H4165 0.930 . S
C4175 C4168 1.409 . S
C4175 C4174 1.362 . S
H4176 C4182 0.930 . S
H4177 C4185 0.930 . S
H4178 C4186 0.930 . S
H4179 C4187 0.930 . S
H4180 C4190 0.930 . S
H4181 C4191 0.930 . S
C4182 H4176 0.930 . S
C4182 C4183 1.355 . S
C4182 C4184 1.415 . S
C4183 C4182 1.355 . S
C4183 C4185 1.419 . S
C4184 C4182 1.415 . S
C4184 C4189 1.425 . S
C4184 C4191 1.409 . S
C4185 H4177 0.930 . S
C4185 C4183 1.419 . S
C4185 C4186 1.362 . S
C4186 H4178 0.930 . S
C4186 C4185 1.362 . S
C4186 C4189 1.409 . S
C4187 H4179 0.930 . S
C4187 C4188 1.355 . S
C4187 C4189 1.415 . S
C4188 C4187 1.355 . S
C4188 C4190 1.419 . S
C4189 C4184 1.425 . S
C4189 C4186 1.409 . S
C4189 C4187 1.415 . S
C4190 H4180 0.930 . S
C4190 C4188 1.419 . S
C4190 C4191 1.362 . S
C4191 H4181 0.930 . S
C4191 C4184 1.409 . S
C4191 C4190 1.362 . S
H4192 C4198 0.930 . S
H4193 C4201 0.930 . S
H4194 C4202 0.930 . S
H4195 C4203 0.930 . S
H4196 C4206 0.930 . S
H4197 C4207 0.930 . S
C4198 H4192 0.930 . S
C4198 C4199 1.355 . S
C4198 C4200 1.415 . S
C4199 C4198 1.355 . S
C4199 C4201 1.419 . S
C4200 C4198 1.415 . S
C4200 C4205 1.425 . S
C4200 C4207 1.409 . S
C4201 H4193 0.930 . S
C4201 C4199 1.419 . S
C4201 C4202 1.362 . S
C4202 H4194 0.930 . S
C4202 C4201 1.362 . S
C4202 C4205 1.409 . S
C4203 H4195 0.930 . S
C4203 C4204 1.355 . S
C4203 C4205 1.415 . S
C4204 C4203 1.355 . S
C4204 C4206 1.419 . S
C4205 C4200 1.425 . S
C4205 C4202 1.409 . S
C4205 C4203 1.415 . S
C4206 H4196 0.930 . S
C4206 C4204 1.419 . S
C4206 C4207 1.362 . S
C4207 H4197 0.930 . S
C4207 C4200 1.409 . S
C4207 C4206 1.362 . S
H4208 C4214 0.930 . S
H4209 C4217 0.930 . S
H4210 C4218 0.930 . S
H4211 C4219 0.930 . S
H4212 C4222 0.930 . S
H4213 C4223 0.930 . S
C4214 H4208 0.930 . S
C4214 C4215 1.355 . S
C4214 C4216 1.415 . S
C4215 C4214 1.355 . S
C4215 C4217 1.419 . S
C4216 C4214 1.415 . S
C4216 C4221 1.425 . S
C4216 C4223 1.409 . S
C4217 H4209 0.930 . S
C4217 C4215 1.419 . S
C4217 C4218 1.362 . S
C4218 H4210 0.930 . S
C4218 C4217 1.362 . S
C4218 C4221 1.409 . S
C4219 H4211 0.930 . S
C4219 C4220 1.355 . S
C4219 C4221 1.415 . S
C4220 C4219 1.355 . S
C4220 C4222 1.419 . S
C4221 C4216 1.425 . S
C4221 C4218 1.409 . S
C4221 C4219 1.415 . S
C4222 H4212 0.930 . S
C4222 C4220 1.419 . S
C4222 C4223 1.362 . S
C4223 H4213 0.930 . S
C4223 C4216 1.409 . S
C4223 C4222 1.362 . S
H4224 C4230 0.930 . S
H4225 C4233 0.930 . S
H4226 C4234 0.930 . S
H4227 C4235 0.930 . S
H4228 C4238 0.930 . S
H4229 C4239 0.930 . S
C4230 H4224 0.930 . S
C4230 C4231 1.355 . S
C4230 C4232 1.415 . S
C4231 C4230 1.355 . S
C4231 C4233 1.419 . S
C4232 C4230 1.415 . S
C4232 C4237 1.425 . S
C4232 C4239 1.409 . S
C4233 H4225 0.930 . S
C4233 C4231 1.419 . S
C4233 C4234 1.362 . S
C4234 H4226 0.930 . S
C4234 C4233 1.362 . S
C4234 C4237 1.409 . S
C4235 H4227 0.930 . S
C4235 C4236 1.355 . S
C4235 C4237 1.415 . S
C4236 C4235 1.355 . S
C4236 C4238 1.419 . S
C4237 C4232 1.425 . S
C4237 C4234 1.409 . S
C4237 C4235 1.415 . S
C4238 H4228 0.930 . S
C4238 C4236 1.419 . S
C4238 C4239 1.362 . S
C4239 H4229 0.930 . S
C4239 C4232 1.409 . S
C4239 C4238 1.362 . S
H4240 C4246 0.930 . S
H4241 C4249 0.930 . S
H4242 C4250 0.930 . S
H4243 C4251 0.930 . S
H4244 C4254 0.930 . S
H4245 C4255 0.930 . S
C4246 H4240 0.930 . S
C4246 C4247 1.355 . S
C4246 C4248 1.415 . S
C4247 C4246 1.355 . S
C4247 C4249 1.419 . S
C4248 C4246 1.415 . S
C4248 C4253 1.425 . S
C4248 C4255 1.409 . S
C4249 H4241 0.930 . S
C4249 C4247 1.419 . S
C4249 C4250 1.362 . S
C4250 H4242 0.930 . S
C4250 C4249 1.362 . S
C4250 C4253 1.409 . S
C4251 H4243 0.930 . S
C4251 C4252 1.355 . S
C4251 C4253 1.415 . S
C4252 C4251 1.355 . S
C4252 C4254 1.419 . S
C4253 C4248 1.425 . S
C4253 C4250 1.409 . S
C4253 C4251 1.415 . S
C4254 H4244 0.930 . S
C4254 C4252 1.419 . S
C4254 C4255 1.362 . S
C4255 H4245 0.930 . S
C4255 C4248 1.409 . S
C4255 C4254 1.362 . S
H4256 C4262 0.930 . S
H4257 C4265 0.930 . S
H4258 C4266 0.930 . S
H4259 C4267 0.930 . S
H4260 C4270 0.930 . S
H4261 C4271 0.930 . S
C4262 H4256 0.930 . S
C4262 C4263 1.355 . S
C4262 C4264 1.415 . S
C4263 C4262 1.355 . S
C4263 C4265 1.419 . S
C4264 C4262 1.415 . S
C4264 C4269 1.425 . S
C4264 C4271 1.409 . S
C4265 H4257 0.930 . S
C4265 C4263 1.419 . S
C4265 C4266 1.362 . S
C4266 H4258 0.930 . S
C4266 C4265 1.362 . S
C4266 C4269 1.409 . S
C4267 H4259 0.930 . S
C4267 C4268 1.355 . S
C4267 C4269 1.415 . S
C4268 C4267 1.355 . S
C4268 C4270 1.419 . S
C4269 C4264 1.425 . S
C4269 C4266 1.409 . S
C4269 C4267 1.415 . S
C4270 H4260 0.930 . S
C4270 C4268 1.419 . S
C4270 C4271 1.362 . S
C4271 H4261 0.930 . S
C4271 C4264 1.409 . S
C4271 C4270 1.362 . S
H4272 C4278 0.930 . S
H4273 C4281 0.930 . S
H4274 C4282 0.930 . S
H4275 C4283 0.930 . S
H4276 C4286 0.930 . S
H4277 C4287 0.930 . S
C4278 H4272 0.930 . S
C4278 C4279 1.355 . S
C4278 C4280 1.415 . S
C4279 C4278 1.355 . S
C4279 C4281 1.419 . S
C4280 C4278 1.415 . S
C4280 C4285 1.425 . S
C4280 C4287 1.409 . S
C4281 H4273 0.930 . S
C4281 C4279 1.419 . S
C4281 C4282 1.362 . S
C4282 H4274 0.930 . S
C4282 C4281 1.362 . S
C4282 C4285 1.409 . S
C4283 H4275 0.930 . S
C4283 C4284 1.355 . S
C4283 C4285 1.415 . S
C4284 C4283 1.355 . S
C4284 C4286 1.419 . S
C4285 C4280 1.425 . S
C4285 C4282 1.409 . S
C4285 C4283 1.415 . S
C4286 H4276 0.930 . S
C4286 C4284 1.419 . S
C4286 C4287 1.362 . S
C4287 H4277 0.930 . S
C4287 C4280 1.409 . S
C4287 C4286 1.362 . S
H4288 C4294 0.930 . S
H4289 C4297 0.930 . S
H4290 C4298 0.930 . S
H4291 C4299 0.930 . S
H4292 C4302 0.930 . S
H4293 C4303 0.930 . S
C4294 H4288 0.930 . S
C4294 C4295 1.355 . S
C4294 C4296 1.415 . S
C4295 C4294 1.355 . S
C4295 C4297 1.419 . S
C4296 C4294 1.415 . S
C4296 C4301 1.425 . S
C4296 C4303 1.409 . S
C4297 H4289 0.930 . S
C4297 C4295 1.419 . S
C4297 C4298 1.362 . S
C4298 H4290 0.930 . S
C4298 C4297 1.362 . S
C4298 C4301 1.409 . S
C4299 H4291 0.930 . S
C4299 C4300 1.355 . S
C4299 C4301 1.415 . S
C4300 C4299 1.355 . S
C4300 C4302 1.419 . S
C4301 C4296 1.425 . S
C4301 C4298 1.409 . S
C4301 C4299 1.415 . S
C4302 H4292 0.930 . S
C4302 C4300 1.419 . S
C4302 C4303 1.362 . S
C4303 H4293 0.930 . S
C4303 C4296 1.409 . S
C4303 C4302 1.362 . S
H4304 C4310 0.930 . S
H4305 C4313 0.930 . S
H4306 C4314 0.930 . S
H4307 C4315 0.930 . S
H4308 C4318 0.930 . S
H4309 C4319 0.930 . S
C4310 H4304 0.930 . S
C4310 C4311 1.355 . S
C4310 C4312 1.415 . S
C4311 C4310 1.355 . S
C4311 C4313 1.419 . S
C4312 C4310 1.415 . S
C4312 C4317 1.425 . S
C4312 C4319 1.409 . S
C4313 H4305 0.930 . S
C4313 C4311 1.419 . S
C4313 C4314 1.362 . S
C4314 H4306 0.930 . S
C4314 C4313 1.362 . S
C4314 C4317 1.409 . S
C4315 H4307 0.930 . S
C4315 C4316 1.355 . S
C4315 C4317 1.415 . S
C4316 C4315 1.355 . S
C4316 C4318 1.419 . S
C4317 C4312 1.425 . S
C4317 C4314 1.409 . S
C4317 C4315 1.415 . S
C4318 H4308 0.930 . S
C4318 C4316 1.419 . S
C4318 C4319 1.362 . S
C4319 H4309 0.930 . S
C4319 C4312 1.409 . S
C4319 C4318 1.362 . S
H4320 C4326 0.930 . S
H4321 C4329 0.930 . S
H4322 C4330 0.930 . S
H4323 C4331 0.930 . S
H4324 C4334 0.930 . S
H4325 C4335 0.930 . S
C4326 H4320 0.930 . S
C4326 C4327 1.355 . S
C4326 C4328 1.415 . S
C4327 C4326 1.355 . S
C4327 C4329 1.419 . S
C4328 C4326 1.415 . S
C4328 C4333 1.425 . S
C4328 C4335 1.409 . S
C4329 H4321 0.930 . S
C4329 C4327 1.419 . S
C4329 C4330 1.362 . S
C4330 H4322 0.930 . S
C4330 C4329 1.362 . S
C4330 C4333 1.409 . S
C4331 H4323 0.930 . S
C4331 C4332 1.355 . S
C4331 C4333 1.415 . S
C4332 C4331 1.355 . S
C4332 C4334 1.419 . S
C4333 C4328 1.425 . S
C4333 C4330 1.409 . S
C4333 C4331 1.415 . S
C4334 H4324 0.930 . S
C4334 C4332 1.419 . S
C4334 C4335 1.362 . S
C4335 H4325 0.930 . S
C4335 C4328 1.409 . S
C4335 C4334 1.362 . S
H4336 C4342 0.930 . S
H4337 C4345 0.930 . S
H4338 C4346 0.930 . S
H4339 C4347 0.930 . S
H4340 C4350 0.930 . S
H4341 C4351 0.930 . S
C4342 H4336 0.930 . S
C4342 C4343 1.355 . S
C4342 C4344 1.415 . S
C4343 C4342 1.355 . S
C4343 C4345 1.419 . S
C4344 C4342 1.415 . S
C4344 C4349 1.425 . S
C4344 C4351 1.409 . S
C4345 H4337 0.930 . S
C4345 C4343 1.419 . S
C4345 C4346 1.362 . S
C4346 H4338 0.930 . S
C4346 C4345 1.362 . S
C4346 C4349 1.409 . S
C4347 H4339 0.930 . S
C4347 C4348 1.355 . S
C4347 C4349 1.415 . S
C4348 C4347 1.355 . S
C4348 C4350 1.419 . S
C4349 C4344 1.425 . S
C4349 C4346 1.409 . S
C4349 C4347 1.415 . S
C4350 H4340 0.930 . S
C4350 C4348 1.419 . S
C4350 C4351 1.362 . S
C4351 H4341 0.930 . S
C4351 C4344 1.409 . S
C4351 C4350 1.362 . S
H4352 C4358 0.930 . S
H4353 C4361 0.930 . S
H4354 C4362 0.930 . S
H4355 C4363 0.930 . S
H4356 C4366 0.930 . S
H4357 C4367 0.930 . S
C4358 H4352 0.930 . S
C4358 C4359 1.355 . S
C4358 C4360 1.415 . S
C4359 C4358 1.355 . S
C4359 C4361 1.419 . S
C4360 C4358 1.415 . S
C4360 C4365 1.425 . S
C4360 C4367 1.409 . S
C4361 H4353 0.930 . S
C4361 C4359 1.419 . S
C4361 C4362 1.362 . S
C4362 H4354 0.930 . S
C4362 C4361 1.362 . S
C4362 C4365 1.409 . S
C4363 H4355 0.930 . S
C4363 C4364 1.355 . S
C4363 C4365 1.415 . S
C4364 C4363 1.355 . S
C4364 C4366 1.419 . S
C4365 C4360 1.425 . S
C4365 C4362 1.409 . S
C4365 C4363 1.415 . S
C4366 H4356 0.930 . S
C4366 C4364 1.419 . S
C4366 C4367 1.362 . S
C4367 H4357 0.930 . S
C4367 C4360 1.409 . S
C4367 C4366 1.362 . S
H4368 C4374 0.930 . S
H4369 C4377 0.930 . S
H4370 C4378 0.930 . S
H4371 C4379 0.930 . S
H4372 C4382 0.930 . S
H4373 C4383 0.930 . S
C4374 H4368 0.930 . S
C4374 C4375 1.355 . S
C4374 C4376 1.415 . S
C4375 C4374 1.355 . S
C4375 C4377 1.419 . S
C4376 C4374 1.415 . S
C4376 C4381 1.425 . S
C4376 C4383 1.409 . S
C4377 H4369 0.930 . S
C4377 C4375 1.419 . S
C4377 C4378 1.362 . S
C4378 H4370 0.930 . S
C4378 C4377 1.362 . S
C4378 C4381 1.409 . S
C4379 H4371 0.930 . S
C4379 C4380 1.355 . S
C4379 C4381 1.415 . S
C4380 C4379 1.355 . S
C4380 C4382 1.419 . S
C4381 C4376 1.425 . S
C4381 C4378 1.409 . S
C4381 C4379 1.415 . S
C4382 H4372 0.930 . S
C4382 C4380 1.419 . S
C4382 C4383 1.362 . S
C4383 H4373 0.930 . S
C4383 C4376 1.409 . S
C4383 C4382 1.362 . S
H4384 C4390 0.930 . S
H4385 C4393 0.930 . S
H4386 C4394 0.930 . S
H4387 C4395 0.930 . S
H4388 C4398 0.930 . S
H4389 C4399 0.930 . S
C4390 H4384 0.930 . S
C4390 C4391 1.355 . S
C4390 C4392 1.415 . S
C4391 C4390 1.355 . S
C4391 C4393 1.419 . S
C4392 C4390 1.415 . S
C4392 C4397 1.425 . S
C4392 C4399 1.409 . S
C4393 H4385 0.930 . S
C4393 C4391 1.419 . S
C4393 C4394 1.362 . S
C4394 H4386 0.930 . S
C4394 C4393 1.362 . S
C4394 C4397 1.409 . S
C4395 H4387 0.930 . S
C4395 C4396 1.355 . S
C4395 C4397 1.415 . S
C4396 C4395 1.355 . S
C4396 C4398 1.419 . S
C4397 C4392 1.425 . S
C4397 C4394 1.409 . S
C4397 C4395 1.415 . S
C4398 H4388 0.930 . S
C4398 C4396 1.419 . S
C4398 C4399 1.362 . S
C4399 H4389 0.930 . S
C4399 C4392 1.409 . S
C4399 C4398 1.362 . S
H4400 C4406 0.930 . S
H4401 C4409 0.930 . S
H4402 C4410 0.930 . S
H4403 C4411 0.930 . S
H4404 C4414 0.930 . S
H4405 C4415 0.930 . S
C4406 H4400 0.930 . S
C4406 C4407 1.355 . S
C4406 C4408 1.415 . S
C4407 C4406 1.355 . S
C4407 C4409 1.419 . S
C4408 C4406 1.415 . S
C4408 C4413 1.425 . S
C4408 C4415 1.409 . S
C4409 H4401 0.930 . S
C4409 C4407 1.419 . S
C4409 C4410 1.362 . S
C4410 H4402 0.930 . S
C4410 C4409 1.362 . S
C4410 C4413 1.409 . S
C4411 H4403 0.930 . S
C4411 C4412 1.355 . S
C4411 C4413 1.415 . S
C4412 C4411 1.355 . S
C4412 C4414 1.419 . S
C4413 C4408 1.425 . S
C4413 C4410 1.409 . S
C4413 C4411 1.415 . S
C4414 H4404 0.930 . S
C4414 C4412 1.419 . S
C4414 C4415 1.362 . S
C4415 H4405 0.930 . S
C4415 C4408 1.409 . S
C4415 C4414 1.362 . S
C1351 C0 2.161 . S
C1356 C433 2.125 . S
C1367 C770 2.130 . S
C1372 C14 2.160 . S
C1383 C41 2.134 . S
C1388 C392 2.146 . S
C1399 C54 2.132 . S
C1404 C742 2.153 . S
C1415 C364 2.137 . S
C1420 C56 2.147 . S
C1431 C70 2.144 . S
C1436 C714 2.174 . S
C1447 C336 2.169 . S
C1452 C84 2.155 . S
C1463 C98 2.175 . S
C1468 C698 2.140 . S
C1479 C489 2.163 . S
C1484 C125 2.156 . S
C1495 C126 2.158 . S
C1500 C826 2.166 . S
C1511 C153 2.167 . S
C1516 C461 2.150 . S
C1527 C154 2.129 . S
C1532 C798 2.161 . S
C1543 C180 2.148 . S
C1548 C544 2.173 . S
C1559 C883 2.126 . S
C1564 C182 2.159 . S
C1575 C516 2.136 . S
C1580 C209 2.144 . S
C1591 C210 2.149 . S
C1596 C867 2.132 . S
C1607 C910 2.132 . S
C1612 C237 2.171 . S
C1623 C909 2.172 . S
C1628 C239 2.134 . S
C1639 C265 2.168 . S
C1644 C1006 2.150 . S
C1655 C1302 2.139 . S
C1660 C278 2.144 . S
C1671 C656 2.175 . S
C1676 C293 2.131 . S
C1687 C294 2.153 . S
C1692 C1274 2.170 . S
C1703 C320 2.169 . S
C1708 C629 2.151 . S
C1719 C334 2.166 . S
C1724 C937 2.125 . S
C1735 C363 2.137 . S
C1740 C1106 2.143 . S
C1751 C378 2.169 . S
C1756 C1091 2.125 . S
C1767 C406 2.173 . S
C1772 C1050 2.147 . S
C1783 C435 2.169 . S
C1788 C1023 2.147 . S
C1799 C1175 2.170 . S
C1804 C462 2.146 . S
C1815 C490 2.173 . S
C1820 C1135 2.143 . S
C1831 C1218 2.167 . S
C1836 C518 2.129 . S
C1847 C546 2.167 . S
C1852 C1203 2.125 . S
C1863 C560 2.173 . S
C1868 C1247 2.127 . S
C1879 C574 2.165 . S
C1884 C1232 2.159 . S
C1895 C601 2.129 . S
C1900 C1342 2.152 . S
C1911 C966 2.129 . S
C1916 C614 2.165 . S
C1927 C951 2.171 . S
C1932 C630 2.144 . S
C1943 C670 2.134 . S
C1948 C1273 2.148 . S
C1959 C672 2.140 . S
C1964 C1092 2.175 . S
C1975 C1077 2.142 . S
C1980 C713 2.134 . S
C1991 C728 2.170 . S
C1996 C1049 2.125 . S
C2007 C756 2.132 . S
C2012 C1009 2.150 . S
C2023 C1160 2.158 . S
C2028 C796 2.166 . S
C2039 C1132 2.169 . S
C2044 C825 2.151 . S
C2055 C853 2.166 . S
C2060 C1217 2.152 . S
C2071 C1188 2.169 . S
C2076 C880 2.129 . S
C2087 C965 2.150 . S
C2092 C1328 2.133 . S
C2103 C993 2.131 . S
C2108 C1300 2.149 . S
C2119 C13 1.523 . S
C2124 C783 1.513 . S
C2135 C27 1.537 . S
C2140 C405 1.526 . S
C2151 C28 1.543 . S
C2156 C755 1.536 . S
C2167 C420 1.512 . S
C2172 C43 1.507 . S
C2183 C69 1.544 . S
C2188 C350 1.546 . S
C2199 C83 1.526 . S
C2204 C700 1.516 . S
C2215 C97 1.522 . S
C2220 C391 1.512 . S
C2231 C685 1.523 . S
C2236 C111 1.534 . S
C2247 C112 1.546 . S
C2252 C280 1.543 . S
C2263 C139 1.515 . S
C2268 C1258 1.509 . S
C2279 C1260 1.507 . S
C2284 C140 1.509 . S
C2295 C167 1.513 . S
C2300 C1287 1.523 . S
C2311 C995 1.518 . S
C2316 C169 1.510 . S
C2327 C1315 1.537 . S
C2332 C195 1.544 . S
C2343 C196 1.524 . S
C2348 C980 1.533 . S
C2359 C896 1.510 . S
C2364 C223 1.507 . S
C2375 C894 1.515 . S
C2380 C224 1.524 . S
C2391 C1146 1.508 . S
C2396 C250 1.512 . S
C2407 C252 1.534 . S
C2412 C1149 1.542 . S
C2423 C267 1.526 . S
C2428 C1162 1.536 . S
C2439 C307 1.521 . S
C2444 C1190 1.513 . S
C2455 C309 1.518 . S
C2460 C869 1.509 . S
C2471 C840 1.510 . S
C2476 C323 1.517 . S
C2487 C349 1.507 . S
C2492 C1119 1.510 . S
C2503 C1078 1.520 . S
C2508 C377 1.530 . S
C2519 C1036 1.512 . S
C2524 C419 1.507 . S
C2535 C446 1.534 . S
C2540 C1020 1.541 . S
C2551 C448 1.537 . S
C2556 C616 1.543 . S
C2567 C475 1.543 . S
C2572 C923 1.535 . S
C2583 C476 1.515 . S
C2588 C924 1.509 . S
C2599 C503 1.539 . S
C2604 C938 1.530 . S
C2615 C505 1.514 . S
C2620 C1331 1.508 . S
C2631 C979 1.537 . S
C2636 C531 1.526 . S
C2647 C1317 1.545 . S
C2652 C533 1.545 . S
C2663 C1245 1.545 . S
C2668 C559 1.545 . S
C2679 C1231 1.512 . S
C2684 C573 1.522 . S
C2695 C587 1.522 . S
C2700 C811 1.533 . S
C2711 C588 1.533 . S
C2716 C812 1.540 . S
C2727 C603 1.507 . S
C2732 C839 1.510 . S
C2743 C854 1.545 . S
C2748 C643 1.545 . S
C2759 C1204 1.521 . S
C2764 C645 1.531 . S
C2775 C1177 1.526 . S
C2780 C659 1.537 . S
C2791 C687 1.520 . S
C2796 C1064 1.512 . S
C2807 C727 1.546 . S
C2812 C1105 1.542 . S
C2823 C1034 1.543 . S
C2828 C741 1.536 . S
C2839 C1063 1.535 . S
C2844 C769 1.543 . S
C2855 C952 1.511 . S
C2860 C785 1.507 . S
C2871 C1289 1.534 . S
C2876 C1121 1.523 . S
C2887 C12 1.684 . S
C2892 C1303 1.597 . S
C2903 C26 1.724 . S
C2908 C992 1.668 . S
C2919 C908 1.593 . S
C2924 C29 1.685 . S
C2935 C1007 1.586 . S
C2940 C42 1.684 . S
C2951 C68 1.694 . S
C2956 C279 1.597 . S
C2967 C82 1.684 . S
C2972 C1301 1.585 . S
C2983 C238 1.673 . S
C2988 C96 1.731 . S
C2999 C264 1.673 . S
C3004 C110 1.728 . S
C3015 C393 1.664 . S
C3020 C113 1.729 . S
C3031 C138 1.712 . S
C3036 C743 1.624 . S
C3047 C141 1.682 . S
C3052 C432 1.591 . S
C3063 C166 1.729 . S
C3068 C771 1.659 . S
C3079 C337 1.654 . S
C3084 C168 1.727 . S
C3095 C194 1.725 . S
C3100 C699 1.650 . S
C3111 C365 1.593 . S
C3116 C197 1.689 . S
C3127 C222 1.711 . S
C3132 C715 1.648 . S
C3143 C225 1.704 . S
C3148 C1216 1.642 . S
C3159 C488 1.644 . S
C3164 C251 1.705 . S
C3175 C253 1.707 . S
C3180 C827 1.620 . S
C3191 C460 1.592 . S
C3196 C266 1.681 . S
C3207 C281 1.679 . S
C3212 C463 1.589 . S
C3223 C852 1.631 . S
C3228 C306 1.698 . S
C3239 C183 1.639 . S
C3244 C308 1.720 . S
C3255 C211 1.669 . S
C3260 C322 1.727 . S
C3271 C967 1.670 . S
C3276 C348 1.731 . S
C3287 C351 1.679 . S
C3292 C1329 1.585 . S
C3303 C1233 1.588 . S
C3308 C376 1.686 . S
C3319 C390 1.721 . S
C3324 C1343 1.662 . S
C3335 C615 1.628 . S
C3340 C404 1.699 . S
C3351 C964 1.589 . S
C3356 C418 1.682 . S
C3367 C421 1.714 . S
C3372 C575 1.631 . S
C3383 C447 1.696 . S
C3388 C600 1.607 . S
C3399 C449 1.679 . S
C3404 C57 1.586 . S
C3415 C474 1.694 . S
C3420 C1090 1.601 . S
C3431 C85 1.628 . S
C3436 C477 1.712 . S
C3447 C502 1.692 . S
C3452 C1107 1.595 . S
C3463 C1 1.670 . S
C3468 C504 1.729 . S
C3479 C530 1.702 . S
C3484 C1022 1.638 . S
C3495 C40 1.593 . S
C3500 C532 1.681 . S
C3511 C1051 1.628 . S
C3516 C558 1.714 . S
C3527 C572 1.715 . S
C3532 C881 1.630 . S
C3543 C586 1.685 . S
C3548 C152 1.605 . S
C3559 C1174 1.672 . S
C3564 C589 1.730 . S
C3575 C602 1.707 . S
C3580 C124 1.621 . S
C3591 C127 1.664 . S
C3596 C617 1.721 . S
C3607 C642 1.731 . S
C3612 C1189 1.667 . S
C3623 C519 1.638 . S
C3628 C644 1.719 . S
C3639 C658 1.729 . S
C3644 C547 1.670 . S
C3655 C631 1.670 . S
C3660 C684 1.729 . S
C3671 C686 1.726 . S
C3676 C321 1.668 . S
C3687 C701 1.729 . S
C3692 C236 1.673 . S
C3703 C726 1.687 . S
C3708 C335 1.589 . S
C3719 C740 1.711 . S
C3724 C950 1.652 . S
C3735 C628 1.595 . S
C3740 C754 1.689 . S
C3751 C911 1.598 . S
C3756 C768 1.695 . S
C3767 C782 1.706 . S
C3772 C936 1.644 . S
C3783 C1076 1.664 . S
C3788 C784 1.729 . S
C3799 C71 1.670 . S
C3804 C810 1.729 . S
C3815 C1093 1.604 . S
C3820 C813 1.685 . S
C3831 C838 1.681 . S
C3836 C99 1.586 . S
C3847 C1008 1.655 . S
C3852 C841 1.712 . S
C3863 C855 1.710 . S
C3868 C15 1.647 . S
C3879 C1048 1.610 . S
C3884 C868 1.700 . S
C3895 C55 1.616 . S
C3900 C895 1.704 . S
C3911 C545 1.587 . S
C3916 C897 1.684 . S
C3927 C922 1.697 . S
C3932 C1161 1.601 . S
C3943 C925 1.729 . S
C3948 C155 1.664 . S
C3959 C1133 1.613 . S
C3964 C939 1.689 . S
C3975 C953 1.705 . S
C3980 C1134 1.621 . S
C3991 C181 1.585 . S
C3996 C978 1.682 . S
C4007 C866 1.673 . S
C4012 C981 1.730 . S
C4023 C994 1.726 . S
C4028 C882 1.671 . S
C4039 C1021 1.721 . S
C4044 C295 1.663 . S
C4055 C657 1.596 . S
C4060 C1035 1.691 . S
C4071 C561 1.612 . S
C4076 C1037 1.702 . S
C4087 C1062 1.684 . S
C4092 C671 1.586 . S
C4103 C1065 1.730 . S
C4108 C1275 1.667 . S
C4119 C292 1.597 . S
C4124 C1079 1.688 . S
C4135 C1246 1.589 . S
C4140 C1104 1.682 . S
C4151 C1272 1.669 . S
C4156 C1118 1.731 . S
C4167 C729 1.665 . S
C4172 C1120 1.731 . S
C4183 C1147 1.730 . S
C4188 C407 1.667 . S
C4199 C1148 1.682 . S
C4204 C757 1.593 . S
C4215 C1163 1.717 . S
C4220 C434 1.662 . S
C4231 C673 1.659 . S
C4236 C1176 1.718 . S
C4247 C1191 1.721 . S
C4252 C362 1.667 . S
C4263 C1205 1.721 . S
C4268 C712 1.649 . S
C4279 C1230 1.724 . S
C4284 C379 1.647 . S
C4295 C208 1.639 . S
C4300 C1244 1.718 . S
C4311 C1259 1.713 . S
C4316 C824 1.633 . S
C4327 C1261 1.679 . S
C4332 C491 1.586 . S
C4343 C1286 1.721 . S
C4348 C797 1.661 . S
C4359 C1288 1.709 . S
C4364 C799 1.620 . S
C4375 C517 1.653 . S
C4380 C1314 1.714 . S
C4391 C1202 1.661 . S
C4396 C1316 1.717 . S
C4407 C1219 1.625 . S
C4412 C1330 1.697 . S
