# Generated by pormake.
# Topology xfh, (7)-cn, num edge types: 1
# Building blocks:
#     Node 0, Type 0, BuildingBlock: NUHQUE_clean_sbu_2, # of connection points: 7
#     Node 1, Type 0, BuildingBlock: NUHQUE_clean_sbu_2, # of connection points: 7
#     Node 2, Type 0, BuildingBlock: NUHQUE_clean_sbu_2, # of connection points: 7
#     Node 3, Type 0, BuildingBlock: NUHQUE_clean_sbu_2, # of connection points: 7
#     Node 4, Type 0, BuildingBlock: NUHQUE_clean_sbu_2, # of connection points: 7
#     Node 5, Type 0, BuildingBlock: NUHQUE_clean_sbu_2, # of connection points: 7
#     Node 6, Type 0, BuildingBlock: NUHQUE_clean_sbu_2, # of connection points: 7
#     Node 7, Type 0, BuildingBlock: NUHQUE_clean_sbu_2, # of connection points: 7
#     Node 8, Type 0, BuildingBlock: NUHQUE_clean_sbu_2, # of connection points: 7
#     Node 9, Type 0, BuildingBlock: NUHQUE_clean_sbu_2, # of connection points: 7
#     Node 10, Type 0, BuildingBlock: NUHQUE_clean_sbu_2, # of connection points: 7
#     Node 11, Type 0, BuildingBlock: NUHQUE_clean_sbu_2, # of connection points: 7
#     Node 12, Type 0, BuildingBlock: NUHQUE_clean_sbu_2, # of connection points: 7
#     Node 13, Type 0, BuildingBlock: NUHQUE_clean_sbu_2, # of connection points: 7
#     Node 14, Type 0, BuildingBlock: NUHQUE_clean_sbu_2, # of connection points: 7
#     Node 15, Type 0, BuildingBlock: NUHQUE_clean_sbu_2, # of connection points: 7
#     Edge 16, Type (0, 0), BuildingBlock: EZIPEK_clean_linker_0, # of connection points: 2
#     Edge 17, Type (0, 0), BuildingBlock: EZIPEK_clean_linker_0, # of connection points: 2
#     Edge 18, Type (0, 0), BuildingBlock: EZIPEK_clean_linker_0, # of connection points: 2
#     Edge 19, Type (0, 0), BuildingBlock: EZIPEK_clean_linker_0, # of connection points: 2
#     Edge 20, Type (0, 0), BuildingBlock: EZIPEK_clean_linker_0, # of connection points: 2
#     Edge 21, Type (0, 0), BuildingBlock: EZIPEK_clean_linker_0, # of connection points: 2
#     Edge 22, Type (0, 0), BuildingBlock: EZIPEK_clean_linker_0, # of connection points: 2
#     Edge 23, Type (0, 0), BuildingBlock: EZIPEK_clean_linker_0, # of connection points: 2
#     Edge 24, Type (0, 0), BuildingBlock: EZIPEK_clean_linker_0, # of connection points: 2
#     Edge 25, Type (0, 0), BuildingBlock: EZIPEK_clean_linker_0, # of connection points: 2
#     Edge 26, Type (0, 0), BuildingBlock: EZIPEK_clean_linker_0, # of connection points: 2
#     Edge 27, Type (0, 0), BuildingBlock: EZIPEK_clean_linker_0, # of connection points: 2
#     Edge 28, Type (0, 0), BuildingBlock: EZIPEK_clean_linker_0, # of connection points: 2
#     Edge 29, Type (0, 0), BuildingBlock: EZIPEK_clean_linker_0, # of connection points: 2
#     Edge 30, Type (0, 0), BuildingBlock: EZIPEK_clean_linker_0, # of connection points: 2
#     Edge 31, Type (0, 0), BuildingBlock: EZIPEK_clean_linker_0, # of connection points: 2
#     Edge 32, Type (0, 0), BuildingBlock: EZIPEK_clean_linker_0, # of connection points: 2
#     Edge 33, Type (0, 0), BuildingBlock: EZIPEK_clean_linker_0, # of connection points: 2
#     Edge 34, Type (0, 0), BuildingBlock: EZIPEK_clean_linker_0, # of connection points: 2
#     Edge 35, Type (0, 0), BuildingBlock: EZIPEK_clean_linker_0, # of connection points: 2
#     Edge 36, Type (0, 0), BuildingBlock: EZIPEK_clean_linker_0, # of connection points: 2
#     Edge 37, Type (0, 0), BuildingBlock: EZIPEK_clean_linker_0, # of connection points: 2
#     Edge 38, Type (0, 0), BuildingBlock: EZIPEK_clean_linker_0, # of connection points: 2
#     Edge 39, Type (0, 0), BuildingBlock: EZIPEK_clean_linker_0, # of connection points: 2
#     Edge 40, Type (0, 0), BuildingBlock: EZIPEK_clean_linker_0, # of connection points: 2
#     Edge 41, Type (0, 0), BuildingBlock: EZIPEK_clean_linker_0, # of connection points: 2
#     Edge 42, Type (0, 0), BuildingBlock: EZIPEK_clean_linker_0, # of connection points: 2
#     Edge 43, Type (0, 0), BuildingBlock: EZIPEK_clean_linker_0, # of connection points: 2
#     Edge 44, Type (0, 0), BuildingBlock: EZIPEK_clean_linker_0, # of connection points: 2
#     Edge 45, Type (0, 0), BuildingBlock: EZIPEK_clean_linker_0, # of connection points: 2
#     Edge 46, Type (0, 0), BuildingBlock: EZIPEK_clean_linker_0, # of connection points: 2
#     Edge 47, Type (0, 0), BuildingBlock: EZIPEK_clean_linker_0, # of connection points: 2
#     Edge 48, Type (0, 0), BuildingBlock: EZIPEK_clean_linker_0, # of connection points: 2
#     Edge 49, Type (0, 0), BuildingBlock: EZIPEK_clean_linker_0, # of connection points: 2
#     Edge 50, Type (0, 0), BuildingBlock: EZIPEK_clean_linker_0, # of connection points: 2
#     Edge 51, Type (0, 0), BuildingBlock: EZIPEK_clean_linker_0, # of connection points: 2
#     Edge 52, Type (0, 0), BuildingBlock: EZIPEK_clean_linker_0, # of connection points: 2
#     Edge 53, Type (0, 0), BuildingBlock: EZIPEK_clean_linker_0, # of connection points: 2
#     Edge 54, Type (0, 0), BuildingBlock: EZIPEK_clean_linker_0, # of connection points: 2
#     Edge 55, Type (0, 0), BuildingBlock: EZIPEK_clean_linker_0, # of connection points: 2
#     Edge 56, Type (0, 0), BuildingBlock: EZIPEK_clean_linker_0, # of connection points: 2
#     Edge 57, Type (0, 0), BuildingBlock: EZIPEK_clean_linker_0, # of connection points: 2
#     Edge 58, Type (0, 0), BuildingBlock: EZIPEK_clean_linker_0, # of connection points: 2
#     Edge 59, Type (0, 0), BuildingBlock: EZIPEK_clean_linker_0, # of connection points: 2
#     Edge 60, Type (0, 0), BuildingBlock: EZIPEK_clean_linker_0, # of connection points: 2
#     Edge 61, Type (0, 0), BuildingBlock: EZIPEK_clean_linker_0, # of connection points: 2
#     Edge 62, Type (0, 0), BuildingBlock: EZIPEK_clean_linker_0, # of connection points: 2
#     Edge 63, Type (0, 0), BuildingBlock: EZIPEK_clean_linker_0, # of connection points: 2
#     Edge 64, Type (0, 0), BuildingBlock: EZIPEK_clean_linker_0, # of connection points: 2
#     Edge 65, Type (0, 0), BuildingBlock: EZIPEK_clean_linker_0, # of connection points: 2
#     Edge 66, Type (0, 0), BuildingBlock: EZIPEK_clean_linker_0, # of connection points: 2
#     Edge 67, Type (0, 0), BuildingBlock: EZIPEK_clean_linker_0, # of connection points: 2
#     Edge 68, Type (0, 0), BuildingBlock: EZIPEK_clean_linker_0, # of connection points: 2
#     Edge 69, Type (0, 0), BuildingBlock: EZIPEK_clean_linker_0, # of connection points: 2
#     Edge 70, Type (0, 0), BuildingBlock: EZIPEK_clean_linker_0, # of connection points: 2
#     Edge 71, Type (0, 0), BuildingBlock: EZIPEK_clean_linker_0, # of connection points: 2
# Relax obj value: 0.269
# Max RMSD: 0.282
# Mean RMSD: 0.269
data_MOF--net-xfh--node1-NUHQUE_clean_sbu_2--edge1-EZIPEK_clean_linker_0
_symmetry_space_group_name_H-M    P1
_symmetry_Int_Tables_number       1
_symmetry_cell_setting            triclinic
loop_
_symmetry_equiv_pos_as_xyz
'x, y, z'
_cell_length_a     26.860852
_cell_length_b     25.936032
_cell_length_c     54.18223
_cell_angle_alpha  90.087735
_cell_angle_beta   89.541124
_cell_angle_gamma 90.084989
loop_
_atom_site_label
_atom_site_type_symbol
_atom_site_fract_x
_atom_site_fract_y
_atom_site_fract_z
_atom_type_partial_charge
O0 O 0.22669 0.06628 0.06249 0.0
Tb1 Tb 0.2264 0.06448 0.10236 0.0
Eu2 Eu 0.32853 0.0672 0.14228 0.0
C3 C 0.20504 0.10392 0.05056 0.0
O4 O 0.18344 0.14162 0.06277 0.0
C5 C 0.25976 0.16166 0.13051 0.0
O6 O 0.35417 0.05044 0.18052 0.0
C7 C 0.40454 0.08492 0.11355 0.0
C8 C 0.31915 0.0418 0.197 0.0
O9 O 0.27235 0.04241 0.19013 0.0
C10 C 0.27775 0.96387 0.12248 0.0
C11 C 0.45365 0.06377 0.10578 0.0
C12 C 0.46533 0.05991 0.08044 0.0
C13 C 0.51354 0.04587 0.07265 0.0
C14 C 0.55005 0.03566 0.09016 0.0
C15 C 0.53922 0.03912 0.11539 0.0
C16 C 0.49093 0.05261 0.12325 0.0
O17 O 0.25465 0.14255 0.10821 0.0
O18 O 0.27537 0.13253 0.14853 0.0
O19 O 0.14582 0.06224 0.09706 0.0
O20 O 0.174 0.0551 0.13345 0.0
C21 C 0.1337 0.05631 0.12016 0.0
O22 O 0.29801 0.98714 0.14137 0.0
O23 O 0.26224 0.98877 0.10283 0.0
O24 O 0.40086 0.10192 0.13638 0.0
O25 O 0.36376 0.06191 0.10569 0.0
H26 H 0.43744 0.06907 0.06678 0.0
H27 H 0.58739 0.02554 0.08409 0.0
H28 H 0.48317 0.05594 0.14284 0.0
O29 O 0.72424 0.72608 0.40719 0.0
Tb30 Tb 0.72752 0.64198 0.41207 0.0
Eu31 Eu 0.73791 0.52581 0.37245 0.0
C32 C 0.76284 0.75588 0.41222 0.0
O33 O 0.80468 0.73422 0.4191 0.0
C34 C 0.82484 0.57944 0.40235 0.0
O35 O 0.739 0.43816 0.36785 0.0
C36 C 0.74563 0.57752 0.33123 0.0
C37 C 0.74275 0.40825 0.38752 0.0
O38 O 0.74518 0.43001 0.40939 0.0
C39 C 0.63752 0.57489 0.3935 0.0
C40 C 0.71491 0.59343 0.30991 0.0
C41 C 0.72692 0.63852 0.29659 0.0
C42 C 0.69584 0.656 0.2774 0.0
C43 C 0.65238 0.62718 0.27264 0.0
C44 C 0.64697 0.57595 0.28109 0.0
C45 C 0.67647 0.56142 0.30137 0.0
O46 O 0.80339 0.62479 0.39951 0.0
O47 O 0.8019 0.53587 0.39773 0.0
O48 O 0.72369 0.66625 0.4508 0.0
O49 O 0.71991 0.58653 0.44255 0.0
C50 C 0.71967 0.62044 0.46032 0.0
O51 O 0.66343 0.53229 0.39074 0.0
O52 O 0.65812 0.62128 0.39329 0.0
O53 O 0.75566 0.52806 0.33321 0.0
O54 O 0.73517 0.59917 0.35261 0.0
H55 H 0.76091 0.65896 0.30094 0.0
H56 H 0.62622 0.64272 0.25967 0.0
H57 H 0.67166 0.52461 0.31019 0.0
O58 O 0.31774 0.89949 0.55918 0.0
Tb59 Tb 0.31783 0.91113 0.59882 0.0
Eu60 Eu 0.18291 0.903 0.62302 0.0
C61 C 0.27895 0.88095 0.5475 0.0
O62 O 0.2404 0.8637 0.56009 0.0
C63 C 0.26339 0.80947 0.62094 0.0
O64 O 0.16183 0.91462 0.66277 0.0
C65 C 0.10736 0.91901 0.5948 0.0
C66 C 0.1854 0.89021 0.68034 0.0
O67 O 0.21211 0.84932 0.67488 0.0
C68 C 0.25152 1.00115 0.61581 0.0
C69 C 0.06618 0.95486 0.58913 0.0
C70 C 0.05951 0.96996 0.56449 0.0
C71 C 0.01684 0.99719 0.55755 0.0
C72 C 0.98059 1.00949 0.57523 0.0
C73 C 0.98623 0.99432 0.59983 0.0
C74 C 0.02972 0.96819 0.60695 0.0
O75 O 0.3026 0.84009 0.61919 0.0
O76 O 0.21705 0.82461 0.618 0.0
O77 O 0.39951 0.90808 0.5967 0.0
O78 O 0.36567 0.96037 0.62142 0.0
C79 C 0.40814 0.9433 0.61329 0.0
O80 O 0.22484 0.97515 0.63173 0.0
O81 O 0.27056 0.97901 0.59613 0.0
O82 O 0.10447 0.89308 0.61567 0.0
O83 O 0.15309 0.93282 0.58853 0.0
H84 H 0.08646 0.9587 0.55048 0.0
H85 H 0.94675 0.0288 0.56957 0.0
H86 H 0.03332 0.95546 0.62589 0.0
O87 O 0.81557 0.59138 0.80492 0.0
Tb88 Tb 0.81742 0.58506 0.84505 0.0
Eu89 Eu 0.82861 0.49325 0.88924 0.0
C90 C 0.79727 0.55486 0.79072 0.0
O91 O 0.77975 0.51239 0.80074 0.0
C92 C 0.9192 0.55387 0.86787 0.0
O93 O 0.82106 0.46005 0.92752 0.0
C94 C 0.82958 0.42103 0.85593 0.0
C95 C 0.81262 0.49191 0.94599 0.0
O96 O 0.80914 0.54154 0.94153 0.0
C97 C 0.72597 0.5427 0.87486 0.0
C98 C 0.8027 0.37359 0.84871 0.0
C99 C 0.79377 0.36321 0.82358 0.0
C100 C 0.77573 0.3146 0.81621 0.0
C101 C 0.76745 0.27639 0.83396 0.0
C102 C 0.77622 0.28631 0.85894 0.0
C103 C 0.79186 0.33544 0.8664 0.0
O104 O 0.89417 0.55598 0.84704 0.0
O105 O 0.89629 0.54353 0.88871 0.0
O106 O 0.80974 0.66851 0.84162 0.0
O107 O 0.82062 0.63635 0.87727 0.0
C108 C 0.81415 0.6789 0.86497 0.0
O109 O 0.75497 0.53226 0.8935 0.0
O110 O 0.74415 0.54999 0.8524 0.0
O111 O 0.85482 0.41892 0.87661 0.0
O112 O 0.80732 0.46552 0.85254 0.0
H113 H 0.80262 0.39199 0.80973 0.0
H114 H 0.75565 0.23821 0.82821 0.0
H115 H 0.79917 0.34236 0.88578 0.0
O116 O 0.82126 0.98632 0.96099 0.0
Tb117 Tb 0.82068 0.99273 0.92119 0.0
Eu118 Eu 0.7106 0.98459 0.88476 0.0
C119 C 0.78545 0.96218 0.97292 0.0
O120 O 0.74841 0.94137 0.96075 0.0
C121 C 0.78442 0.89042 0.89485 0.0
O122 O 0.67765 0.99182 0.84706 0.0
C123 C 0.64094 0.97592 0.91813 0.0
C124 C 0.7074 1.00455 0.82872 0.0
O125 O 0.75444 1.01458 0.83312 0.0
C126 C 0.76286 0.0882 0.90087 0.0
C127 C 0.59946 1.0045 0.93036 0.0
C128 C 0.60103 1.01258 0.95608 0.0
C129 C 0.56046 0.03496 0.96859 0.0
C130 C 0.51894 0.05087 0.95534 0.0
C131 C 0.51487 0.04013 0.93009 0.0
C132 C 0.55552 0.01755 0.91751 0.0
O133 O 0.7996 0.91203 0.91547 0.0
O134 O 0.75921 0.91569 0.87815 0.0
O135 O 0.89994 1.00489 0.92824 0.0
O136 O 0.87487 1.00746 0.89124 0.0
C137 C 0.91376 1.012 0.90543 0.0
O138 O 0.74356 0.06327 0.88225 0.0
O139 O 0.77779 0.06452 0.92097 0.0
O140 O 0.6352 0.96252 0.89491 0.0
O141 O 0.68694 0.98962 0.92339 0.0
H142 H 0.63249 0.99892 0.96656 0.0
H143 H 0.4873 0.067 0.96524 0.0
H144 H 0.55183 1.00811 0.89813 0.0
O145 O 0.31518 0.51242 0.71147 0.0
Tb146 Tb 0.30848 0.50496 0.67191 0.0
Eu147 Eu 0.30309 0.43271 0.62082 0.0
C148 C 0.33854 0.47829 0.72494 0.0
O149 O 0.36006 0.43834 0.71445 0.0
C150 C 0.39994 0.48763 0.63953 0.0
O151 O 0.29949 0.42725 0.57912 0.0
C152 C 0.32059 0.34494 0.64225 0.0
C153 C 0.28043 0.46481 0.56586 0.0
O154 O 0.25968 0.50437 0.57706 0.0
C155 C 0.21099 0.46044 0.65403 0.0
C156 C 0.29621 0.29926 0.65371 0.0
C157 C 0.28471 0.29728 0.67929 0.0
C158 C 0.26629 0.25126 0.68985 0.0
C159 C 0.2581 0.20845 0.67476 0.0
C160 C 0.27172 0.20897 0.64986 0.0
C161 C 0.29048 0.25429 0.63934 0.0
O162 O 0.38311 0.48066 0.6621 0.0
O163 O 0.37043 0.48388 0.62045 0.0
O164 O 0.29921 0.58785 0.67644 0.0
O165 O 0.29283 0.55572 0.64053 0.0
C166 C 0.29148 0.59827 0.65334 0.0
O167 O 0.22736 0.46212 0.63114 0.0
O168 O 0.24219 0.45731 0.67241 0.0
O169 O 0.3158 0.3504 0.61824 0.0
O170 O 0.31981 0.38904 0.65426 0.0
H171 H 0.29211 0.33014 0.69109 0.0
H172 H 0.24502 0.17268 0.68298 0.0
H173 H 0.30258 0.25363 0.62021 0.0
O174 O 0.71079 0.09221 0.46242 0.0
Tb175 Tb 0.71413 0.0875 0.42255 0.0
Eu176 Eu 0.81176 0.08104 0.38256 0.0
C177 C 0.70249 0.13635 0.47364 0.0
O178 O 0.69477 0.17838 0.46076 0.0
C179 C 0.75294 0.18364 0.39269 0.0
O180 O 0.83748 0.05795 0.34502 0.0
C181 C 0.89003 0.09536 0.40955 0.0
C182 C 0.80419 0.04361 0.3289 0.0
O183 O 0.75692 0.04215 0.33528 0.0
C184 C 0.76223 0.98151 0.40709 0.0
C185 C 0.93545 0.06969 0.41911 0.0
C186 C 0.9391 0.05967 0.44454 0.0
C187 C 0.98379 0.04155 0.45454 0.0
C188 C 0.02527 0.03389 0.43926 0.0
C189 C 0.02268 0.04342 0.4139 0.0
C190 C 0.97743 0.06047 0.40374 0.0
O191 O 0.74455 0.1645 0.4148 0.0
O192 O 0.76836 0.15361 0.37473 0.0
O193 O 0.63375 0.09859 0.42563 0.0
O194 O 0.66206 0.05819 0.39469 0.0
C195 C 0.62137 0.07376 0.40571 0.0
O196 O 0.77856 1.00162 0.38633 0.0
O197 O 0.74877 1.01113 0.42583 0.0
O198 O 0.88868 0.10499 0.38576 0.0
O199 O 0.84632 0.08233 0.41899 0.0
H200 H 0.9077 0.06713 0.45672 0.0
H201 H 0.05995 0.02075 0.44721 0.0
H202 H 0.97587 0.06843 0.38414 0.0
O203 O 0.22741 0.46934 0.22008 0.0
Tb204 Tb 0.21542 0.46687 0.18017 0.0
Eu205 Eu 0.20344 0.55177 0.13381 0.0
C206 C 0.19053 0.47189 0.23623 0.0
O207 O 0.14439 0.47389 0.22848 0.0
C208 C 0.11343 0.48944 0.15495 0.0
O209 O 0.20828 0.576 0.09409 0.0
C210 C 0.19917 0.62936 0.16416 0.0
C211 C 0.213 0.53885 0.07772 0.0
O212 O 0.2139 0.4908 0.08534 0.0
C213 C 0.30741 0.50814 0.14955 0.0
C214 C 0.22622 0.67689 0.17142 0.0
C215 C 0.2351 0.68707 0.19661 0.0
C216 C 0.25403 0.73526 0.20409 0.0
C217 C 0.26356 0.77323 0.18639 0.0
C218 C 0.25474 0.76376 0.16138 0.0
C219 C 0.23764 0.71515 0.15381 0.0
O220 O 0.13697 0.49082 0.17628 0.0
O221 O 0.13729 0.49951 0.1344 0.0
O222 O 0.21721 0.38342 0.18571 0.0
O223 O 0.22384 0.41309 0.14922 0.0
C224 C 0.22288 0.37135 0.16253 0.0
O225 O 0.27908 0.51704 0.13052 0.0
O226 O 0.28835 0.50281 0.172 0.0
O227 O 0.17834 0.62911 0.14224 0.0
O228 O 0.21846 0.58461 0.17031 0.0
H229 H 0.22564 0.65843 0.21043 0.0
H230 H 0.27632 0.81102 0.19222 0.0
H231 H 0.23026 0.70865 0.13442 0.0
O232 O 0.72445 0.58225 0.58252 0.0
Tb233 Tb 0.70034 0.57094 0.62076 0.0
Eu234 Eu 0.82714 0.59485 0.62873 0.0
C235 C 0.69232 0.59915 0.56614 0.0
O236 O 0.64706 0.61126 0.57342 0.0
C237 C 0.7415 0.68108 0.6302 0.0
O238 O 0.82691 0.58394 0.67044 0.0
C239 C 0.9175 0.61044 0.61351 0.0
C240 C 0.78656 0.58545 0.68444 0.0
O241 O 0.74303 0.59355 0.67442 0.0
C242 C 0.77665 0.4869 0.63118 0.0
C243 C 0.96359 0.581 0.60895 0.0
C244 C 0.98115 0.57543 0.58459 0.0
C245 C 0.02516 0.54833 0.5797 0.0
C246 C 0.05235 0.52779 0.5991 0.0
C247 C 0.03572 0.5336 0.62346 0.0
C248 C 0.99095 0.55943 0.62845 0.0
O249 O 0.70658 0.64781 0.63591 0.0
O250 O 0.78393 0.66711 0.62007 0.0
O251 O 0.63539 0.52814 0.60762 0.0
O252 O 0.62744 0.57875 0.6383 0.0
C253 C 0.60463 0.54641 0.62405 0.0
O254 O 0.80958 0.51269 0.61823 0.0
O255 O 0.73818 0.51072 0.64077 0.0
O256 O 0.90336 0.61695 0.63658 0.0
O257 O 0.88034 0.6012 0.59848 0.0
H258 H 0.96035 0.59152 0.56936 0.0
H259 H 0.08668 0.5072 0.59519 0.0
H260 H 0.9784 0.56348 0.64741 0.0
O261 O 0.21587 0.20802 0.88984 0.0
Tb262 Tb 0.21427 0.12436 0.896 0.0
Eu263 Eu 0.22591 1.00375 0.86925 0.0
C264 C 0.25383 0.2359 0.89771 0.0
O265 O 0.29238 0.21213 0.90717 0.0
C266 C 0.31262 0.06262 0.89449 0.0
O267 O 0.22569 0.916 0.86645 0.0
C268 C 0.24449 0.05132 0.82791 0.0
C269 C 0.23821 0.8881 0.88582 0.0
O270 O 0.24963 0.91168 0.90649 0.0
C271 C 0.12149 0.05559 0.88262 0.0
C272 C 0.22862 0.06228 0.8024 0.0
C273 C 0.235 0.11243 0.79275 0.0
C274 C 0.2299 0.12151 0.76727 0.0
C275 C 0.21675 0.0805 0.75174 0.0
C276 C 0.20951 0.03081 0.7612 0.0
C277 C 0.21482 0.02186 0.78653 0.0
O278 O 0.29174 0.10553 0.88655 0.0
O279 O 0.28664 0.01984 0.89589 0.0
O280 O 0.205 0.15448 0.93326 0.0
O281 O 0.21186 0.07345 0.92823 0.0
C282 C 0.2065 0.11026 0.94436 0.0
O283 O 0.14741 1.01257 0.88315 0.0
O284 O 0.143 0.10118 0.87944 0.0
O285 O 0.25952 1.00422 0.83281 0.0
O286 O 0.22005 0.07298 0.84626 0.0
H287 H 0.24689 0.14357 0.8047 0.0
H288 H 0.21424 0.08681 0.732 0.0
H289 H 0.21118 0.98286 0.79349 0.0
O290 O 0.82737 0.45458 0.06361 0.0
Tb291 Tb 0.82027 0.45235 0.10358 0.0
Eu292 Eu 0.69591 0.45418 0.14004 0.0
C293 C 0.79074 0.4396 0.04931 0.0
O294 O 0.75036 0.41952 0.05922 0.0
C295 C 0.76942 0.35698 0.12846 0.0
O296 O 0.65057 0.46857 0.17479 0.0
C297 C 0.63564 0.45358 0.10246 0.0
C298 C 0.67343 0.48204 0.19523 0.0
O299 O 0.72228 0.48443 0.19521 0.0
C300 C 0.77146 0.54662 0.12833 0.0
C301 C 0.58688 0.47514 0.09465 0.0
C302 C 0.57831 0.48481 0.06942 0.0
C303 C 0.53102 0.50059 0.06125 0.0
C304 C 0.49224 0.50674 0.0785 0.0
C305 C 0.4998 0.4968 0.10365 0.0
C306 C 0.54733 0.48163 0.11172 0.0
O307 O 0.78562 0.37687 0.10752 0.0
O308 O 0.7436 0.38315 0.14508 0.0
O309 O 0.90155 0.46096 0.10143 0.0
O310 O 0.86769 0.45148 0.13658 0.0
C311 C 0.90994 0.45787 0.125 0.0
O312 O 0.74374 0.52464 0.1454 0.0
O313 O 0.78006 0.52451 0.10696 0.0
O314 O 0.63426 0.41948 0.12037 0.0
O315 O 0.67394 0.4851 0.10399 0.0
H316 H 0.60804 0.47899 0.05606 0.0
H317 H 0.45558 0.5179 0.0722 0.0
H318 H 0.55291 0.4733 0.1311 0.0
O319 O 0.32317 0.05803 0.31403 0.0
Tb320 Tb 0.31943 0.0573 0.35383 0.0
Eu321 Eu 0.32116 0.95259 0.39067 0.0
C322 C 0.34232 0.0194 0.30154 0.0
O323 O 0.3608 0.97943 0.3131 0.0
C324 C 0.41566 0.02228 0.38034 0.0
O325 O 0.30739 0.9065 0.42523 0.0
C326 C 0.32675 0.89414 0.35167 0.0
C327 C 0.30002 0.93331 0.44554 0.0
O328 O 0.30064 0.98389 0.44428 0.0
C329 C 0.22236 1.01353 0.37831 0.0
C330 C 0.3026 0.84745 0.3417 0.0
C331 C 0.29942 0.8395 0.316 0.0
C332 C 0.28051 0.79274 0.30664 0.0
C333 C 0.26729 0.75335 0.32302 0.0
C334 C 0.272 0.76035 0.3485 0.0
C335 C 0.28718 0.80816 0.35783 0.0
O336 O 0.39604 0.03128 0.35861 0.0
O337 O 0.38872 1.00105 0.3979 0.0
O338 O 0.31339 0.13991 0.34807 0.0
O339 O 0.32265 0.11179 0.38465 0.0
C340 C 0.31747 0.15296 0.37115 0.0
O341 O 0.24761 0.9923 0.39622 0.0
O342 O 0.24392 0.02611 0.35729 0.0
O343 O 0.35379 0.88736 0.37154 0.0
O344 O 0.30019 0.93661 0.35243 0.0
H345 H 0.31257 0.86883 0.30335 0.0
H346 H 0.25527 0.71632 0.31586 0.0
H347 H 0.29062 0.81315 0.37762 0.0
O348 O 0.30704 0.48929 0.44352 0.0
Tb349 Tb 0.33853 0.48015 0.40647 0.0
Eu350 Eu 0.20973 0.45822 0.39924 0.0
C351 C 0.31369 0.45254 0.45996 0.0
O352 O 0.33633 0.4099 0.4532 0.0
C353 C 0.29751 0.3685 0.39495 0.0
O354 O 0.19453 0.46376 0.35816 0.0
C355 C 0.1289 0.44708 0.42476 0.0
C356 C 0.23063 0.4644 0.34154 0.0
O357 O 0.27714 0.46139 0.34861 0.0
C358 C 0.26362 0.56249 0.39318 0.0
C359 C 0.09482 0.48184 0.43839 0.0
C360 C 0.10161 0.49082 0.4638 0.0
C361 C 0.06737 0.52096 0.47704 0.0
C362 C 0.02774 0.54412 0.46486 0.0
C363 C 0.0195 0.53408 0.4399 0.0
C364 C 0.05316 0.50329 0.4266 0.0
O365 O 0.33571 0.4003 0.3953 0.0
O366 O 0.2507 0.38232 0.39823 0.0
O367 O 0.41113 0.49749 0.42297 0.0
O368 O 0.40096 0.5093 0.38465 0.0
C369 C 0.4323 0.5131 0.40261 0.0
O370 O 0.23169 0.53983 0.40776 0.0
O371 O 0.30089 0.53637 0.38412 0.0
O372 O 0.12921 0.45071 0.40054 0.0
O373 O 0.17354 0.44098 0.43415 0.0
H374 H 0.13169 0.47226 0.47361 0.0
H375 H 1.00043 0.56599 0.47538 0.0
H376 H 0.04549 0.49429 0.40746 0.0
O377 O 0.82975 0.05397 0.21396 0.0
Tb378 Tb 0.82857 0.05319 0.17436 0.0
Eu379 Eu 0.83171 0.96408 0.13242 0.0
C380 C 0.84531 1.01371 0.22627 0.0
O381 O 0.86348 0.97352 0.21452 0.0
C382 C 0.92601 0.02658 0.14706 0.0
O383 O 0.81745 0.93631 0.09399 0.0
C384 C 0.84312 0.88878 0.16363 0.0
C385 C 0.80764 0.97263 0.0779 0.0
O386 O 0.80616 0.02083 0.08535 0.0
C387 C 0.73153 1.00954 0.15287 0.0
C388 C 0.82281 0.83772 0.17121 0.0
C389 C 0.79801 0.83054 0.19425 0.0
C390 C 0.78482 0.78033 0.20218 0.0
C391 C 0.79713 0.73844 0.18698 0.0
C392 C 0.81626 0.74554 0.16332 0.0
C393 C 0.83067 0.79469 0.15569 0.0
O394 O 0.90576 0.02823 0.1692 0.0
O395 O 0.89817 1.01588 0.12803 0.0
O396 O 0.82054 0.13612 0.17925 0.0
O397 O 0.81978 0.1051 0.14283 0.0
C398 C 0.81602 0.14715 0.15595 0.0
O399 O 0.75544 0.99871 0.13241 0.0
O400 O 0.75585 1.01551 0.17359 0.0
O401 O 0.86486 0.89107 0.14182 0.0
O402 O 0.81796 0.93076 0.16916 0.0
H403 H 0.78874 0.86348 0.20566 0.0
H404 H 0.78718 0.69962 0.19271 0.0
H405 H 0.84717 0.79902 0.13749 0.0
O406 O 0.19966 0.57021 0.95718 0.0
Tb407 Tb 0.21158 0.5667 0.91761 0.0
Eu408 Eu 0.31721 0.56403 0.88134 0.0
C409 C 0.23668 0.56068 0.9722 0.0
O410 O 0.28101 0.55052 0.96305 0.0
C411 C 0.25601 0.66422 0.89347 0.0
O412 O 0.34539 0.54399 0.84343 0.0
C413 C 0.39118 0.57821 0.9115 0.0
C414 C 0.31247 0.52852 0.82721 0.0
O415 O 0.26531 0.52599 0.8337 0.0
C416 C 0.26066 0.46121 0.90029 0.0
C417 C 0.43877 0.55703 0.92134 0.0
C418 C 0.44336 0.54614 0.94679 0.0
C419 C 0.49007 0.53361 0.95692 0.0
C420 C 0.53214 0.53181 0.94149 0.0
C421 C 0.52844 0.54263 0.91624 0.0
C422 C 0.48183 0.55477 0.9062 0.0
O423 O 0.24702 0.64256 0.91497 0.0
O424 O 0.2708 0.63542 0.87488 0.0
O425 O 0.13032 0.5699 0.91769 0.0
O426 O 0.16854 0.5635 0.88324 0.0
C427 C 0.12493 0.56712 0.89389 0.0
O428 O 0.28518 0.48359 0.88215 0.0
O429 O 0.24042 0.48771 0.91859 0.0
O430 O 0.39118 0.59347 0.88835 0.0
O431 O 0.34842 0.5578 0.91861 0.0
H432 H 0.41117 0.54935 0.95889 0.0
H433 H 0.5683 0.52356 0.94932 0.0
H434 H 0.47987 0.56467 0.88682 0.0
O435 O 0.70192 1.00084 0.71133 0.0
Tb436 Tb 0.69984 0.99068 0.67164 0.0
Eu437 Eu 0.69499 0.09352 0.63323 0.0
C438 C 0.66177 0.99808 0.72527 0.0
O439 O 0.61793 0.99083 0.71529 0.0
C440 C 0.60297 0.01942 0.64367 0.0
O441 O 0.70125 0.1336 0.59676 0.0
C442 C 0.69355 0.15712 0.67029 0.0
C443 C 0.6973 0.10294 0.57758 0.0
O444 O 0.69044 0.05337 0.58123 0.0
C445 C 0.79477 0.03287 0.64303 0.0
C446 C 0.72206 0.2021 0.67943 0.0
C447 C 0.72701 0.21046 0.70501 0.0
C448 C 0.74818 0.25656 0.71384 0.0
C449 C 0.76292 0.2947 0.6971 0.0
C450 C 0.75774 0.28717 0.67165 0.0
C451 C 0.73952 0.23988 0.66284 0.0
O452 O 0.62208 1.01185 0.66563 0.0
O453 O 0.62814 0.04404 0.62663 0.0
O454 O 0.70688 0.90922 0.68082 0.0
O455 O 0.69891 0.9312 0.64313 0.0
C456 C 0.70458 0.89263 0.65817 0.0
O457 O 0.76838 0.05568 0.62604 0.0
O458 O 0.77553 0.01965 0.66456 0.0
O459 O 0.66845 0.16434 0.64982 0.0
O460 O 0.71482 0.11149 0.67146 0.0
H461 H 0.71335 0.18198 0.71798 0.0
H462 H 0.777 0.33118 0.70399 0.0
H463 H 0.73546 0.23433 0.64312 0.0
C464 C 0.19863 0.2945 0.13673 0.0
C465 C 0.23271 0.31859 0.15305 0.0
C466 C 0.28885 0.24479 0.14875 0.0
C467 C 0.2517 0.2174 0.13566 0.0
N468 N 0.16776 0.2139 0.12001 0.0
N469 N 0.30732 0.31291 0.17765 0.0
C470 C 0.20574 0.24175 0.13013 0.0
C471 C 0.27685 0.29257 0.16004 0.0
N472 N 0.15913 0.32166 0.1278 0.0
N473 N 0.3364 0.22617 0.14948 0.0
H474 H 0.3012 0.34848 0.18607 0.0
H475 H 0.33675 0.29249 0.18534 0.0
H476 H 0.34725 0.19265 0.14025 0.0
H477 H 0.36616 0.24696 0.1567 0.0
H478 H 0.13619 0.3079 0.11384 0.0
H479 H 0.15142 0.35954 0.133 0.0
H480 H 0.1317 0.22802 0.11824 0.0
H481 H 0.17091 0.17507 0.11532 0.0
C482 C 0.51386 0.51464 0.37986 0.0
C483 C 0.484 0.53251 0.39984 0.0
C484 C 0.55389 0.58505 0.41461 0.0
C485 C 0.58265 0.56875 0.39394 0.0
N486 N 0.58466 0.53158 0.35319 0.0
N487 N 0.47145 0.59486 0.43249 0.0
C488 C 0.56073 0.53799 0.37534 0.0
C489 C 0.50274 0.57074 0.41617 0.0
N490 N 0.49908 0.47323 0.36607 0.0
N491 N 0.57568 0.61228 0.43323 0.0
H492 H 0.43354 0.58661 0.43379 0.0
H493 H 0.48202 0.6266 0.44304 0.0
H494 H 0.61253 0.62481 0.43253 0.0
H495 H 0.55816 0.61944 0.45011 0.0
H496 H 0.52193 0.45571 0.35289 0.0
H497 H 0.46644 0.45266 0.36958 0.0
H498 H 0.56841 0.51339 0.33809 0.0
H499 H 0.61851 0.54959 0.34912 0.0
C500 C 0.24749 0.71395 0.61565 0.0
C501 C 0.27176 0.75486 0.62833 0.0
C502 C 0.31648 0.69127 0.65299 0.0
C503 C 0.28613 0.6513 0.64338 0.0
N504 N 0.21573 0.62674 0.61836 0.0
N505 N 0.32048 0.7814 0.66361 0.0
C506 C 0.24971 0.66306 0.62539 0.0
C507 C 0.30387 0.74331 0.64827 0.0
N508 N 0.22396 0.72306 0.59383 0.0
N509 N 0.35862 0.67982 0.66583 0.0
H510 H 0.30977 0.81983 0.66203 0.0
H511 H 0.34019 0.77373 0.67969 0.0
H512 H 0.37135 0.64222 0.66827 0.0
H513 H 0.38409 0.70789 0.6713 0.0
H514 H 0.20968 0.69365 0.58281 0.0
H515 H 0.22359 0.75916 0.58538 0.0
H516 H 0.18539 0.63522 0.60721 0.0
H517 H 0.21476 0.58954 0.62558 0.0
C518 C 0.05066 0.51341 0.88294 0.0
C519 C 0.07596 0.56137 0.88158 0.0
C520 C 1.00055 0.60275 0.86552 0.0
C521 C 0.97466 0.55529 0.86807 0.0
N522 N 0.97782 0.46306 0.87187 0.0
N523 N 0.08003 0.64811 0.86609 0.0
C524 C 1.00074 0.5098 0.87448 0.0
C525 C 0.0525 0.60491 0.87096 0.0
N526 N 0.07404 0.47164 0.89294 0.0
N527 N 0.97497 0.64604 0.85896 0.0
H528 H 0.11808 0.65016 0.86964 0.0
H529 H 0.06651 0.68007 0.85671 0.0
H530 H 0.93769 0.64501 0.85374 0.0
H531 H 0.9898 0.6831 0.85959 0.0
H532 H 0.05596 0.43729 0.89733 0.0
H533 H 0.11149 0.47206 0.89792 0.0
H534 H 0.99568 0.42784 0.87419 0.0
H535 H 0.94193 0.45957 0.86486 0.0
C536 C 0.75773 0.75307 0.87493 0.0
C537 C 0.80582 0.73063 0.87592 0.0
C538 C 0.8404 0.81235 0.89098 0.0
C539 C 0.79191 0.83422 0.89082 0.0
N540 N 0.70308 0.8207 0.88979 0.0
N541 N 0.89039 0.73443 0.89032 0.0
C542 C 0.75013 0.80312 0.88492 0.0
C543 C 0.84629 0.75876 0.88589 0.0
N544 N 0.71932 0.72696 0.86416 0.0
N545 N 0.88111 0.84313 0.89446 0.0
H546 H 0.89596 0.69542 0.8866 0.0
H547 H 0.91972 0.75163 0.89974 0.0
H548 H 0.87867 0.88263 0.89779 0.0
H549 H 0.91757 0.83041 0.89198 0.0
H550 H 0.68514 0.7439 0.86026 0.0
H551 H 0.72245 0.68923 0.85767 0.0
H552 H 0.67134 0.79787 0.88813 0.0
H553 H 0.69612 0.8563 0.89811 0.0
C554 C 0.49047 0.46599 0.6398 0.0
C555 C 0.45233 0.50259 0.63554 0.0
C556 C 0.51416 0.56799 0.62379 0.0
C557 C 0.55219 0.53084 0.62719 0.0
N558 N 0.57831 0.44451 0.63725 0.0
N559 N 0.42574 0.5869 0.62227 0.0
C560 C 0.54082 0.47975 0.63479 0.0
C561 C 0.46358 0.5532 0.62716 0.0
N562 N 0.47837 0.41836 0.64896 0.0
N563 N 0.52665 0.61756 0.61763 0.0
H564 H 0.38847 0.57882 0.62607 0.0
H565 H 0.43048 0.62224 0.61352 0.0
H566 H 0.56293 0.62899 0.61333 0.0
H567 H 0.50178 0.64825 0.61766 0.0
H568 H 0.50415 0.39155 0.65512 0.0
H569 H 0.44176 0.4059 0.65151 0.0
H570 H 0.57262 0.40528 0.63994 0.0
H571 H 0.61589 0.45405 0.63569 0.0
C572 C 0.79084 0.27183 0.39926 0.0
C573 C 0.75233 0.24098 0.38908 0.0
C574 C 0.70851 0.31988 0.37594 0.0
C575 C 0.74771 0.35066 0.38559 0.0
N576 N 0.83129 0.35557 0.40122 0.0
N577 N 0.67896 0.23467 0.36401 0.0
C578 C 0.79032 0.32642 0.39578 0.0
C579 C 0.71271 0.26479 0.37611 0.0
N580 N 0.82782 0.24896 0.41254 0.0
N581 N 0.66601 0.34313 0.36788 0.0
H582 H 0.67976 0.19447 0.36455 0.0
H583 H 0.6524 0.24923 0.352 0.0
H584 H 0.66157 0.38304 0.36738 0.0
H585 H 0.63376 0.3231 0.36331 0.0
H586 H 0.85329 0.26943 0.42314 0.0
H587 H 0.83146 0.20908 0.41418 0.0
H588 H 0.86539 0.34007 0.40635 0.0
H589 H 0.83282 0.39529 0.39826 0.0
C590 C 0.98085 0.51731 0.13577 0.0
C591 C 0.95931 0.46725 0.13679 0.0
C592 C 0.0363 0.43334 0.15523 0.0
C593 C 0.05822 0.48306 0.15342 0.0
N594 N 0.04822 0.57437 0.14814 0.0
N595 N 0.96222 0.37971 0.15146 0.0
C596 C 0.02933 0.52568 0.14561 0.0
C597 C 0.9856 0.42601 0.14801 0.0
N598 N 0.9553 0.55671 0.12491 0.0
N599 N 0.06484 0.39274 0.16268 0.0
H600 H 0.92622 0.37245 0.14529 0.0
H601 H 0.97702 0.34951 0.16165 0.0
H602 H 0.1011 0.39739 0.16908 0.0
H603 H 0.05368 0.35437 0.16165 0.0
H604 H 0.97079 0.59254 0.12089 0.0
H605 H 0.91878 0.55295 0.11877 0.0
H606 H 0.02793 0.60783 0.14502 0.0
H607 H 0.08321 0.58142 0.1557 0.0
C608 C 0.67989 0.81259 0.63522 0.0
C609 C 0.71446 0.83898 0.65036 0.0
C610 C 0.76612 0.76146 0.65271 0.0
C611 C 0.73337 0.73608 0.63621 0.0
N612 N 0.66481 0.74028 0.60783 0.0
N613 N 0.79618 0.84271 0.66867 0.0
C614 C 0.69182 0.76245 0.62632 0.0
C615 C 0.75921 0.81464 0.65775 0.0
N616 N 0.63487 0.83455 0.63014 0.0
N617 N 0.8026 0.73439 0.66446 0.0
H618 H 0.79329 0.88203 0.67239 0.0
H619 H 0.83174 0.82824 0.67175 0.0
H620 H 0.809 0.69522 0.66157 0.0
H621 H 0.82351 0.74958 0.67886 0.0
H622 H 0.60606 0.81501 0.6214 0.0
H623 H 0.62457 0.87098 0.63654 0.0
H624 H 0.63725 0.75963 0.59813 0.0
H625 H 0.67313 0.70402 0.60054 0.0
C626 C 0.04231 0.07563 0.90637 0.0
C627 C 0.06629 0.05146 0.88596 0.0
C628 C 0.9898 1.00199 0.87766 0.0
C629 C 0.96519 0.02761 0.8975 0.0
N630 N 0.96476 0.09849 0.92656 0.0
N631 N 0.05918 1.00166 0.84862 0.0
C632 C 0.99047 0.06733 0.91058 0.0
C633 C 0.03877 0.01777 0.87049 0.0
N634 N 0.06938 0.1044 0.92264 0.0
N635 N 0.96781 0.96057 0.86653 0.0
H636 H 0.09446 1.01336 0.84264 0.0
H637 H 0.03937 0.98124 0.83535 0.0
H638 H 0.93261 0.94695 0.87144 0.0
H639 H 0.98625 0.93679 0.85395 0.0
H640 H 0.05538 0.11697 0.93959 0.0
H641 H 0.1071 0.11233 0.92028 0.0
H642 H 0.97987 0.13171 0.93433 0.0
H643 H 0.92685 0.09446 0.93019 0.0
C644 C 0.8353 0.24146 0.15624 0.0
C645 C 0.80712 0.20003 0.1464 0.0
C646 C 0.75907 0.26165 0.12171 0.0
C647 C 0.7828 0.30295 0.13418 0.0
N648 N 0.83927 0.33254 0.16565 0.0
N649 N 0.73755 0.17095 0.12185 0.0
C650 C 0.8196 0.29295 0.15217 0.0
C651 C 0.76809 0.21001 0.12944 0.0
N652 N 0.87857 0.23173 0.1685 0.0
N653 N 0.72758 0.27173 0.10262 0.0
H654 H 0.74227 0.13262 0.12693 0.0
H655 H 0.70485 0.17699 0.11208 0.0
H656 H 0.71792 0.30902 0.09732 0.0
H657 H 0.71378 0.24328 0.09093 0.0
H658 H 0.90336 0.2605 0.17384 0.0
H659 H 0.8926 0.19464 0.17091 0.0
H660 H 0.86168 0.32684 0.181 0.0
H661 H 0.8305 0.37113 0.16263 0.0
C662 C 0.5558 0.0513 0.37345 0.0
C663 C 0.5689 0.06092 0.39847 0.0
C664 C 0.48036 0.05668 0.40952 0.0
C665 C 0.46837 0.03754 0.38574 0.0
N666 N 0.49957 1.00535 0.34655 0.0
N667 N 0.54208 0.05405 0.4413 0.0
C668 C 0.50742 0.03165 0.36802 0.0
C669 C 0.53082 0.05834 0.41685 0.0
N670 N 0.58825 0.06255 0.3547 0.0
N671 N 0.44412 0.07505 0.42501 0.0
H672 H 0.57802 0.04759 0.44763 0.0
H673 H 0.51479 0.04891 0.45488 0.0
H674 H 0.40711 0.07912 0.41969 0.0
H675 H 0.4523 0.09258 0.44184 0.0
H676 H 0.57838 0.05994 0.33617 0.0
H677 H 0.62246 0.08048 0.35748 0.0
H678 H 0.52829 0.99651 0.3342 0.0
H679 H 0.46609 0.98705 0.34246 0.0
C680 C 0.3441 0.24428 0.36558 0.0
C681 C 0.31815 0.2071 0.37994 0.0
C682 C 0.28935 0.27592 0.40758 0.0
C683 C 0.30741 0.31314 0.39053 0.0
N684 N 0.34556 0.33214 0.35099 0.0
N685 N 0.26155 0.18826 0.41381 0.0
C686 C 0.33337 0.29727 0.36895 0.0
C687 C 0.28991 0.2229 0.40092 0.0
N688 N 0.38032 0.22913 0.34926 0.0
N689 N 0.27291 0.29105 0.4304 0.0
H690 H 0.26069 0.14899 0.40995 0.0
H691 H 0.2356 0.19918 0.42721 0.0
H692 H 0.27307 0.32944 0.43612 0.0
H693 H 0.26406 0.26519 0.44446 0.0
H694 H 0.40334 0.25512 0.33994 0.0
H695 H 0.39142 0.1908 0.34732 0.0
H696 H 0.35974 0.32132 0.33379 0.0
H697 H 0.33703 0.37125 0.3522 0.0
C698 C 1.0065 0.07738 0.15077 0.0
C699 C 0.9809 0.03204 0.14327 0.0
C700 C 0.05551 1.00283 0.12082 0.0
C701 C 0.08203 0.0468 0.12928 0.0
N702 N 0.08565 0.12155 0.15576 0.0
N703 N 0.98561 0.94537 0.12735 0.0
C704 C 0.05853 0.08243 0.14556 0.0
C705 C 1.00679 0.99297 0.13008 0.0
N706 N 0.98064 0.11695 0.16151 0.0
N707 N 0.0764 0.97049 0.1037 0.0
H708 H 0.95097 0.93599 0.1349 0.0
H709 H 1.00455 0.91364 0.12016 0.0
H710 H 0.1128 0.97422 0.09719 0.0
H711 H 0.05638 0.94184 0.09462 0.0
H712 H 0.99583 0.15326 0.16477 0.0
H713 H 0.94266 0.11497 0.16544 0.0
H714 H 0.0721 0.14538 0.16976 0.0
H715 H 0.12307 0.12797 0.15153 0.0
C716 C 0.28833 0.75122 0.87872 0.0
C717 C 0.25002 0.7215 0.89025 0.0
C718 C 0.20283 0.80153 0.8981 0.0
C719 C 0.23944 0.83044 0.88505 0.0
N720 N 0.31236 0.83158 0.85892 0.0
N721 N 0.16567 0.7179 0.90601 0.0
C722 C 0.28046 0.80474 0.87391 0.0
C723 C 0.20585 0.74656 0.89863 0.0
N724 N 0.3337 0.72939 0.87392 0.0
N725 N 0.16525 0.82665 0.91027 0.0
H726 H 0.16548 0.67774 0.90602 0.0
H727 H 0.13079 0.73366 0.90977 0.0
H728 H 0.15984 0.8664 0.90906 0.0
H729 H 0.1413 0.80855 0.92276 0.0
H730 H 0.36458 0.75032 0.8679 0.0
H731 H 0.34235 0.69145 0.87847 0.0
H732 H 0.33968 0.81397 0.84808 0.0
H733 H 0.30874 0.871 0.85563 0.0
C734 C 0.49917 0.96244 0.60483 0.0
C735 C 0.45827 0.96138 0.62162 0.0
C736 C 0.51123 1.00273 0.65286 0.0
C737 C 0.55332 0.99747 0.63705 0.0
N738 N 0.58843 0.95624 0.60077 0.0
N739 N 0.43085 0.96776 0.66427 0.0
C740 C 0.54766 0.9724 0.61388 0.0
C741 C 0.46575 0.97787 0.64644 0.0
N742 N 0.49201 0.95691 0.58004 0.0
N743 N 0.51363 0.03298 0.67347 0.0
H744 H 0.39898 0.94592 0.66108 0.0
H745 H 0.43669 0.97543 0.68291 0.0
H746 H 0.5454 0.05356 0.67837 0.0
H747 H 0.4824 0.04191 0.68419 0.0
H748 H 0.52062 0.96191 0.56713 0.0
H749 H 0.45695 0.95414 0.57207 0.0
H750 H 0.58564 0.93387 0.58483 0.0
H751 H 0.62466 0.95946 0.60737 0.0
C752 C 0.24372 0.13386 0.98475 0.0
C753 C 0.20844 0.10433 0.97143 0.0
C754 C 0.17482 0.06963 1.01017 0.0
C755 C 0.20598 0.10407 0.02337 0.0
N756 N 0.26695 0.17246 0.02372 0.0
N757 N 0.13784 0.04671 0.97094 0.0
C758 C 0.23941 0.13736 1.01079 0.0
C759 C 0.17357 0.0724 0.98396 0.0
N760 N 0.28299 0.15626 0.97258 0.0
N761 N 0.14653 0.03427 0.02269 0.0
H762 H 0.1364 0.04672 0.95174 0.0
H763 H 0.10764 0.02801 0.97912 0.0
H764 H 0.14445 0.03285 0.04192 0.0
H765 H 0.12754 1.00422 0.01415 0.0
H766 H 0.3126 0.17408 0.9815 0.0
H767 H 0.28891 0.15226 0.95363 0.0
H768 H 0.28737 0.20189 0.01535 0.0
H769 H 0.26674 0.17456 0.04295 0.0
C770 C 0.59575 0.55335 0.24356 0.0
C771 C 0.6215 0.53632 0.26467 0.0
C772 C 0.65741 0.46621 0.24037 0.0
C773 C 0.64562 0.49367 0.21848 0.0
N774 N 0.59652 0.56029 0.19899 0.0
N775 N 0.63695 0.45477 0.28373 0.0
C776 C 0.61117 0.53531 0.21985 0.0
C777 C 0.64056 0.48568 0.26351 0.0
N778 N 0.55676 0.58631 0.24658 0.0
N779 N 0.68515 0.42223 0.23913 0.0
H780 H 0.61759 0.46692 0.29949 0.0
H781 H 0.64684 0.41594 0.28362 0.0
H782 H 0.69504 0.40496 0.22238 0.0
H783 H 0.69936 0.40413 0.25472 0.0
H784 H 0.5336 0.59757 0.23224 0.0
H785 H 0.54586 0.59854 0.26421 0.0
H786 H 0.57605 0.59436 0.19936 0.0
H787 H 0.60709 0.54863 0.18131 0.0
C788 C 0.24156 0.91506 0.50826 0.0
C789 C 0.27794 0.88432 0.52017 0.0
C790 C 0.32561 0.87781 0.48144 0.0
C791 C 0.28919 0.90848 0.46963 0.0
N792 N 0.20589 0.94255 0.46948 0.0
N793 N 0.34656 0.82501 0.51682 0.0
C794 C 0.24488 0.92241 0.48233 0.0
C795 C 0.31735 0.86189 0.50627 0.0
N796 N 0.20598 0.94036 0.52179 0.0
N797 N 0.36934 0.86654 0.46957 0.0
H798 H 0.34089 0.81216 0.53487 0.0
H799 H 0.37294 0.80368 0.50701 0.0
H800 H 0.37671 0.87706 0.45135 0.0
H801 H 0.39968 0.84976 0.47829 0.0
H802 H 0.18231 0.96791 0.51432 0.0
H803 H 0.20255 0.93735 0.54089 0.0
H804 H 0.17086 0.949 0.47727 0.0
H805 H 0.2071 0.94768 0.45037 0.0
C806 C 0.76974 0.60628 0.75384 0.0
C807 C 0.79472 0.56255 0.76349 0.0
C808 C 0.80995 0.53128 0.72123 0.0
C809 C 0.78993 0.57773 0.71165 0.0
N810 N 0.7582 0.66344 0.71906 0.0
N811 N 0.84624 0.48775 0.7563 0.0
C812 C 0.77188 0.61636 0.72803 0.0
C813 C 0.81692 0.52616 0.74716 0.0
N814 N 0.74186 0.63692 0.76915 0.0
N815 N 0.82016 0.49103 0.70569 0.0
H816 H 0.85307 0.48316 0.77508 0.0
H817 H 0.86755 0.46343 0.74514 0.0
H818 H 0.81423 0.49281 0.68673 0.0
H819 H 0.82973 0.45434 0.71183 0.0
H820 H 0.71852 0.66595 0.76277 0.0
H821 H 0.73799 0.63016 0.78803 0.0
H822 H 0.75026 0.695 0.73033 0.0
H823 H 0.75907 0.6725 0.70034 0.0
C824 C 0.83668 0.93896 0.03678 0.0
C825 C 0.79848 0.96087 0.05167 0.0
C826 C 0.75016 0.98156 0.0149 0.0
C827 C 0.78757 0.95817 1.00006 0.0
N828 N 0.85972 0.90326 0.99695 0.0
N829 N 0.71373 0.99034 0.05575 0.0
C830 C 0.82874 0.9332 1.01105 0.0
C831 C 0.75346 0.97801 0.04096 0.0
N832 N 0.88158 0.92649 0.04686 0.0
N833 N 0.71324 1.00983 1.00422 0.0
H834 H 0.71481 0.9873 0.07495 0.0
H835 H 0.67842 0.99846 0.04897 0.0
H836 H 0.71066 1.01496 0.9852 0.0
H837 H 0.68785 0.03203 0.01423 0.0
H838 H 0.91265 0.91623 0.03634 0.0
H839 H 0.88919 0.93018 0.06561 0.0
H840 H 0.8874 0.87997 1.00435 0.0
H841 H 0.85464 0.89777 0.97805 0.0
C842 C 0.36051 0.53326 0.76102 0.0
C843 C 0.34056 0.48633 0.75193 0.0
C844 C 0.31559 0.46204 0.79389 0.0
C845 C 0.32763 0.5125 0.80206 0.0
N846 N 0.35785 0.59826 0.7931 0.0
N847 N 0.29523 0.40718 0.75919 0.0
C848 C 0.34978 0.54857 0.78566 0.0
C849 C 0.31763 0.45056 0.76825 0.0
N850 N 0.39032 0.5628 0.74612 0.0
N851 N 0.30303 0.42491 0.81072 0.0
H852 H 0.29566 0.39725 0.74055 0.0
H853 H 0.27293 0.38294 0.7699 0.0
H854 H 0.30228 0.43189 0.82969 0.0
H855 H 0.29832 0.3862 0.80615 0.0
H856 H 0.40985 0.59492 0.75238 0.0
H857 H 0.39952 0.55216 0.72807 0.0
H858 H 0.36835 0.62768 0.78107 0.0
H859 H 0.3503 0.61128 0.81095 0.0
C860 C 0.65189 0.11617 0.53838 0.0
C861 C 0.69609 0.12294 0.55213 0.0
C862 C 0.74028 0.15208 0.51496 0.0
C863 C 0.69841 0.13752 0.50077 0.0
N864 N 0.61415 0.10608 0.49814 0.0
N865 N 0.78291 0.14604 0.5542 0.0
C866 C 0.65392 0.12012 0.51227 0.0
C867 C 0.74029 0.14151 0.54072 0.0
N868 N 0.60789 0.10685 0.55047 0.0
N869 N 0.77997 0.17565 0.50373 0.0
H870 H 0.78397 0.1396 0.57318 0.0
H871 H 0.8178 0.15337 0.54648 0.0
H872 H 0.78142 0.18279 0.48479 0.0
H873 H 0.80966 0.19171 0.51329 0.0
H874 H 0.57343 0.10595 0.54185 0.0
H875 H 0.60528 0.10457 0.56968 0.0
H876 H 0.58289 0.08703 0.50503 0.0
H877 H 0.61336 0.11137 0.47906 0.0
C878 C 0.22313 0.51317 0.27512 0.0
C879 C 0.2008 0.47013 0.26324 0.0
C880 C 0.19962 0.42275 0.30261 0.0
C881 C 0.21909 0.46686 0.31474 0.0
N882 N 0.24341 0.55623 0.3137 0.0
N883 N 0.16317 0.38575 0.26573 0.0
C884 C 0.2294 0.51265 0.30128 0.0
C885 C 0.18749 0.42554 0.27706 0.0
N886 N 0.23852 0.55448 0.26135 0.0
N887 N 0.1949 0.37742 0.31531 0.0
H888 H 0.15675 0.3845 0.24679 0.0
H889 H 0.14681 0.35516 0.27521 0.0
H890 H 0.203 0.37396 0.33403 0.0
H891 H 0.18655 0.34224 0.30705 0.0
H892 H 0.26008 0.5845 0.26826 0.0
H893 H 0.23218 0.5575 0.24245 0.0
H894 H 0.24641 0.59246 0.30559 0.0
H895 H 0.24853 0.55712 0.33276 0.0
C896 C 0.7504 0.6344 0.50364 0.0
C897 C 0.71671 0.60942 0.48736 0.0
C898 C 0.67618 0.56808 0.52307 0.0
C899 C 0.70443 0.5995 0.53926 0.0
N900 N 0.76589 0.66611 0.54505 0.0
N901 N 0.64395 0.5557 0.4819 0.0
C902 C 0.74118 0.63336 0.52959 0.0
C903 C 0.67895 0.57663 0.49712 0.0
N904 N 0.79234 0.65743 0.49436 0.0
N905 N 0.64759 0.52902 0.53249 0.0
H906 H 0.64437 0.56034 0.46284 0.0
H907 H 0.61206 0.53704 0.48836 0.0
H908 H 0.64533 0.52105 0.55134 0.0
H909 H 0.63024 0.50136 0.52156 0.0
H910 H 0.82066 0.67194 0.50541 0.0
H911 H 0.80151 0.65707 0.47562 0.0
H912 H 0.78881 0.69584 0.5388 0.0
H913 H 0.76055 0.66614 0.56414 0.0
C914 C 0.24068 0.93659 0.71028 0.0
C915 C 0.19258 0.91781 0.70401 0.0
C916 C 0.15528 0.96957 0.7373 0.0
C917 C 0.20342 0.98716 0.74377 0.0
N918 N 0.29253 0.97772 0.74096 0.0
N919 N 0.10579 0.90769 0.71432 0.0
C920 C 0.24631 0.9671 0.73182 0.0
C921 C 0.15035 0.93154 0.71848 0.0
N922 N 0.28041 0.92905 0.69473 0.0
N923 N 0.11432 0.99059 0.74853 0.0
H924 H 0.10136 0.87945 0.70077 0.0
H925 H 0.07453 0.91243 0.72557 0.0
H926 H 0.11686 1.01721 0.76293 0.0
H927 H 0.07801 0.98393 0.74276 0.0
H928 H 0.31481 0.9469 0.69708 0.0
H929 H 0.27829 0.90918 0.67807 0.0
H930 H 0.32484 0.95966 0.73465 0.0
H931 H 0.29817 1.00092 0.75643 0.0
C932 C 0.84344 0.44593 0.9839 0.0
C933 C 0.80494 0.47275 0.97155 0.0
C934 C 0.75694 0.478 1.01017 0.0
C935 C 0.79405 0.44849 0.02224 0.0
N936 N 0.86674 0.39427 0.01922 0.0
N937 N 0.71992 0.50247 0.97129 0.0
C938 C 0.83558 0.42939 1.00867 0.0
C939 C 0.76006 0.48507 0.9842 0.0
N940 N 0.8884 0.43843 0.97246 0.0
N941 N 0.7203 0.50192 0.02358 0.0
H942 H 0.72052 0.50716 0.95216 0.0
H943 H 0.68466 0.50707 0.97913 0.0
H944 H 0.7174 0.49961 0.04274 0.0
H945 H 0.69554 0.52826 0.01598 0.0
H946 H 0.91963 0.42449 0.98155 0.0
H947 H 0.89585 0.45011 0.95441 0.0
H948 H 0.89467 0.37507 1.00945 0.0
H949 H 0.86156 0.38044 0.03713 0.0
C950 C 0.31182 0.98811 0.23495 0.0
C951 C 0.3313 0.03257 0.2231 0.0
C952 C 0.36786 0.06102 0.26202 0.0
C953 C 0.34174 0.0211 0.2744 0.0
N954 N 0.28205 0.95145 0.27332 0.0
N955 N 0.37216 0.11556 0.22594 0.0
C956 C 0.31218 0.98552 0.26107 0.0
C957 C 0.35832 0.07002 0.23669 0.0
N958 N 0.29376 0.94804 0.22124 0.0
N959 N 0.40217 0.08991 0.27443 0.0
H960 H 0.36485 0.12461 0.20759 0.0
H961 H 0.38693 0.14641 0.23582 0.0
H962 H 0.41024 0.08408 0.29303 0.0
H963 H 0.42591 0.11612 0.26575 0.0
H964 H 0.28344 0.9127 0.22887 0.0
H965 H 0.29397 0.9482 0.20198 0.0
H966 H 0.25603 0.92816 0.26448 0.0
H967 H 0.27956 0.94996 0.29251 0.0
C968 C 0.26511 0.42727 0.49795 0.0
C969 C 0.3007 0.46022 0.48652 0.0
C970 C 0.31782 0.5008 0.52669 0.0
C971 C 0.28582 0.46442 0.53844 0.0
N972 N 0.23048 0.39146 0.53582 0.0
N973 N 0.36518 0.52457 0.49008 0.0
C974 C 0.25984 0.42722 0.52419 0.0
C975 C 0.32771 0.49651 0.50085 0.0
N976 N 0.23529 0.3971 0.48354 0.0
N977 N 0.33935 0.53921 0.54027 0.0
H978 H 0.37359 0.52295 0.47129 0.0
H979 H 0.39052 0.54678 0.49992 0.0
H980 H 0.33675 0.54143 0.55945 0.0
H981 H 0.35751 0.57079 0.53248 0.0
H982 H 0.20501 0.37616 0.49022 0.0
H983 H 0.23835 0.39625 0.46435 0.0
H984 H 0.21523 0.3595 0.52702 0.0
H985 H 0.22326 0.39215 0.55476 0.0
C986 C 0.84695 0.06997 0.28982 0.0
C987 C 0.81946 0.03256 0.30332 0.0
C988 C 0.81265 0.97873 0.26643 0.0
C989 C 0.84227 1.01509 0.25336 0.0
N990 N 0.89941 0.08677 0.25426 0.0
N991 N 0.78731 0.9458 0.30642 0.0
C992 C 0.86337 0.0579 0.26566 0.0
C993 C 0.80581 0.98508 0.29224 0.0
N994 N 0.85461 0.11821 0.29931 0.0
N995 N 0.78865 0.94007 0.25413 0.0
H996 H 0.78255 0.94887 0.3255 0.0
H997 H 0.78136 0.90868 0.29966 0.0
H998 H 0.79194 0.93444 0.23516 0.0
H999 H 0.76229 0.91608 0.26243 0.0
H1000 H 0.86993 0.14834 0.28905 0.0
H1001 H 0.84112 0.12996 0.3165 0.0
H1002 H 0.91937 0.11559 0.26326 0.0
H1003 H 0.91301 0.07815 0.23663 0.0
C1004 C 0.25532 0.58034 0.04113 0.0
C1005 C 0.216 0.54979 0.05092 0.0
C1006 C 0.19121 0.5251 1.00913 0.0
C1007 C 0.22811 0.55861 0.99925 0.0
N1008 N 0.28787 0.62679 1.00573 0.0
N1009 N 0.13916 0.50374 0.04433 0.0
C1010 C 0.25799 0.58888 0.01522 0.0
C1011 C 0.18164 0.52548 0.03492 0.0
N1012 N 0.29157 0.599 0.05631 0.0
N1013 N 0.16725 0.4907 0.99419 0.0
H1014 H 0.13025 0.50438 0.06311 0.0
H1015 H 0.11043 0.48999 0.0333 0.0
H1016 H 0.17435 0.4875 0.97531 0.0
H1017 H 0.14398 0.46171 1.00094 0.0
H1018 H 0.32405 0.61643 0.04977 0.0
H1019 H 0.29142 0.59321 0.07534 0.0
H1020 H 0.30665 0.65343 0.01666 0.0
H1021 H 0.29006 0.6349 0.9869 0.0
C1022 C 0.66009 0.95633 0.76687 0.0
C1023 C 0.66688 1.00134 0.75235 0.0
C1024 C 0.69062 0.05041 0.78917 0.0
C1025 C 0.68952 1.0041 0.80303 0.0
N1026 N 0.67885 0.91175 0.80495 0.0
N1027 N 0.69032 0.09085 0.74884 0.0
C1028 C 0.67506 0.95679 0.79197 0.0
C1029 C 0.68253 0.04836 0.76329 0.0
N1030 N 0.64007 0.91287 0.75659 0.0
N1031 N 0.69794 0.09646 0.80096 0.0
H1032 H 0.68151 0.09186 0.73013 0.0
H1033 H 0.70774 0.12427 0.75503 0.0
H1034 H 0.70347 0.09925 0.81996 0.0
H1035 H 0.69442 0.13221 0.79246 0.0
H1036 H 0.62858 0.88104 0.76686 0.0
H1037 H 0.63159 0.90966 0.73792 0.0
H1038 H 0.67476 0.87537 0.79708 0.0
H1039 H 0.69003 0.91014 0.82331 0.0
C1040 C 0.53662 0.99124 1.00823 0.0
C1041 C 0.55661 0.03517 0.996 0.0
C1042 C 0.54655 0.08664 0.03374 0.0
C1043 C 0.52718 0.04254 0.04605 0.0
N1044 N 0.51176 0.95098 0.04682 0.0
N1045 N 0.58927 0.12134 0.99762 0.0
C1046 C 0.52472 0.99421 0.03382 0.0
C1047 C 0.5643 0.0819 1.00899 0.0
N1048 N 0.52705 0.9473 0.9951 0.0
N1049 N 0.54687 0.13323 0.0456 0.0
H1050 H 0.60276 0.11852 0.97955 0.0
H1051 H 0.60031 0.15498 1.00653 0.0
H1052 H 0.53525 0.13782 0.06389 0.0
H1053 H 0.55559 0.16797 0.03701 0.0
H1054 H 0.50632 0.9165 1.00198 0.0
H1055 H 0.53767 0.94246 0.9767 0.0
H1056 H 0.51506 0.91371 0.03984 0.0
H1057 H 0.50065 0.95191 0.06531 0.0
C1058 C 0.69902 0.69507 0.23426 0.0
C1059 C 0.71113 0.69908 0.25974 0.0
C1060 C 0.76633 0.77198 0.2487 0.0
C1061 C 0.7512 0.76805 0.2237 0.0
N1062 N 0.68525 0.74227 0.19657 0.0
N1063 N 0.74194 0.7567 0.29137 0.0
C1064 C 0.71006 0.73633 0.21824 0.0
C1065 C 0.74032 0.74249 0.26716 0.0
N1066 N 0.68233 0.64946 0.22499 0.0
N1067 N 0.80616 0.80182 0.2548 0.0
H1068 H 0.71987 0.73882 0.30479 0.0
H1069 H 0.7602 0.78989 0.29735 0.0
H1070 H 0.82526 0.82412 0.24182 0.0
H1071 H 0.8214 0.80202 0.27244 0.0
H1072 H 0.67725 0.64233 0.20621 0.0
H1073 H 0.67725 0.64233 0.20621 0.0
H1074 H 0.65353 0.72082 0.19234 0.0
H1075 H 0.69392 0.7721 0.18431 0.0
C1076 C 0.97385 0.9832 0.49108 0.0
C1077 C 0.98846 0.03169 0.48135 0.0
C1078 C 0.02418 0.05644 0.52118 0.0
C1079 C 1.00753 1.00894 0.53122 0.0
N1080 N 0.96071 0.92992 0.52733 0.0
N1081 N 0.02021 0.11768 0.48741 0.0
C1082 C 0.98056 0.97313 0.51663 0.0
C1083 C 1.0115 0.06931 0.49652 0.0
N1084 N 0.95517 0.94618 0.47569 0.0
N1085 N 0.05304 0.08861 0.5351 0.0
H1086 H 1.01166 0.12824 0.46936 0.0
H1087 H 0.0322 0.14854 0.49813 0.0
H1088 H 0.06193 0.08097 0.55344 0.0
H1089 H 0.07104 0.12107 0.52811 0.0
H1090 H 0.94926 0.90806 0.48091 0.0
H1091 H 0.94833 0.95269 0.45702 0.0
H1092 H 0.93582 0.9054 0.5185 0.0
H1093 H 0.96647 0.92012 0.54575 0.0
C1094 C 0.79866 0.25591 0.75259 0.0
C1095 C 0.75314 0.2674 0.74071 0.0
C1096 C 0.72181 0.30914 0.77852 0.0
C1097 C 0.76877 0.30123 0.78972 0.0
N1098 N 0.85386 0.27233 0.78703 0.0
N1099 N 0.67295 0.30895 0.741 0.0
C1100 C 0.80776 0.27598 0.77663 0.0
C1101 C 0.71504 0.29502 0.75334 0.0
N1102 N 0.83281 0.22506 0.74095 0.0
N1103 N 0.68335 0.32903 0.7922 0.0
H1104 H 0.66569 0.29729 0.72294 0.0
H1105 H 0.64646 0.33438 0.74805 0.0
H1106 H 0.68746 0.34157 0.81038 0.0
H1107 H 0.64669 0.33026 0.78617 0.0
H1108 H 0.86452 0.21067 0.7494 0.0
H1109 H 0.82754 0.21034 0.72323 0.0
H1110 H 0.88537 0.25941 0.77761 0.0
H1111 H 0.86166 0.2859 0.80472 0.0
C1112 C 0.29207 0.18359 0.74903 0.0
C1113 C 0.24194 0.17229 0.75559 0.0
C1114 C 0.21307 0.23962 0.72724 0.0
C1115 C 0.26154 0.24217 0.71695 0.0
N1116 N 0.34893 0.22446 0.71975 0.0
N1117 N 0.15525 0.19466 0.75466 0.0
C1118 C 0.30187 0.21786 0.729 0.0
C1119 C 0.20264 0.20293 0.74621 0.0
N1120 N 0.32993 0.16009 0.76138 0.0
N1121 N 0.17711 0.27107 0.71794 0.0
H1122 H 0.14751 0.16944 0.7692 0.0
H1123 H 0.12375 0.21205 0.7474 0.0
H1124 H 0.18515 0.29789 0.7041 0.0
H1125 H 0.14091 0.27332 0.72479 0.0
H1126 H 0.3674 0.16884 0.75883 0.0
H1127 H 0.32374 0.1339 0.77564 0.0
H1128 H 0.37986 0.20361 0.72538 0.0
H1129 H 0.35685 0.25096 0.70579 0.0
C1130 C 0.30634 0.73724 0.24244 0.0
C1131 C 0.26071 0.74862 0.23062 0.0
C1132 C 0.23266 0.79749 0.26709 0.0
C1133 C 0.27645 0.78249 0.27965 0.0
N1134 N 0.35363 0.73527 0.28045 0.0
N1135 N 0.17809 0.7846 0.23207 0.0
C1136 C 0.313 0.75164 0.2676 0.0
C1137 C 0.22326 0.77755 0.24305 0.0
N1138 N 0.34381 0.71394 0.22934 0.0
N1139 N 0.20032 0.83123 0.27812 0.0
H1140 H 0.17001 0.77086 0.21444 0.0
H1141 H 0.14728 0.8005 0.24098 0.0
H1142 H 0.20547 0.84563 0.29591 0.0
H1143 H 0.1705 0.84823 0.26911 0.0
H1144 H 0.37994 0.70981 0.23582 0.0
H1145 H 0.33966 0.70139 0.21117 0.0
H1146 H 0.37845 0.70754 0.27394 0.0
H1147 H 0.36135 0.74765 0.29835 0.0
C1148 C 0.02324 0.4941 0.5417 0.0
C1149 C 0.04153 0.53837 0.55406 0.0
C1150 C 0.08604 0.56606 0.51676 0.0
C1151 C 0.06696 0.52232 0.5043 0.0
N1152 N 0.02698 0.43903 0.50555 0.0
N1153 N 0.09775 0.6108 0.55571 0.0
C1154 C 0.03882 0.48434 0.51708 0.0
C1155 C 0.07551 0.57254 0.54233 0.0
N1156 N 0.98955 0.46247 0.55326 0.0
N1157 N 0.11259 0.60218 0.50383 0.0
H1158 H 0.08974 0.61738 0.57433 0.0
H1159 H 0.12653 0.63384 0.54897 0.0
H1160 H 0.12294 0.597 0.48538 0.0
H1161 H 0.12267 0.63797 0.51093 0.0
H1162 H 0.97002 0.43328 0.54437 0.0
H1163 H 0.97859 0.46721 0.57164 0.0
H1164 H 1.01093 0.40759 0.5145 0.0
H1165 H 0.03693 0.43093 0.48733 0.0
C1166 C 0.52827 0.55822 0.02377 0.0
C1167 C 0.52077 0.50878 0.03441 0.0
C1168 C 0.49172 0.47559 0.99435 0.0
C1169 C 0.49676 0.52568 0.98407 0.0
N1170 N 0.51326 0.61628 0.98942 0.0
N1171 N 0.4897 0.42184 0.03106 0.0
C1172 C 0.51315 0.56748 0.99895 0.0
C1173 C 0.50081 0.46787 0.02002 0.0
N1174 N 0.55086 0.59604 0.03729 0.0
N1175 N 0.47973 0.43508 0.97934 0.0
H1176 H 0.49776 0.41399 0.04948 0.0
H1177 H 0.46977 0.39246 0.02252 0.0
H1178 H 0.47109 0.43959 0.96073 0.0
H1179 H 0.48119 0.39667 0.98482 0.0
H1180 H 0.56258 0.63113 0.02999 0.0
H1181 H 0.56118 0.59104 0.05566 0.0
H1182 H 0.5197 0.64932 0.99984 0.0
H1183 H 0.50306 0.62434 0.9713 0.0
C1184 C 0.21619 0.83675 0.13841 0.0
C1185 C 0.25928 0.80752 0.14389 0.0
C1186 C 0.31224 0.87491 0.12579 0.0
C1187 C 0.27009 0.90751 0.12451 0.0
N1188 N 0.18173 0.92064 0.12922 0.0
N1189 N 0.34792 0.79539 0.14147 0.0
C1190 C 0.22179 0.88831 0.13005 0.0
C1191 C 0.30723 0.8253 0.13676 0.0
N1192 N 0.16995 0.81564 0.14177 0.0
N1193 N 0.35683 0.89185 0.11654 0.0
H1194 H 0.34485 0.75787 0.14827 0.0
H1195 H 0.38453 0.80789 0.13939 0.0
H1196 H 0.36084 0.92798 0.10826 0.0
H1197 H 0.38862 0.86914 0.11521 0.0
H1198 H 0.13729 0.83275 0.13562 0.0
H1199 H 0.16417 0.77888 0.14896 0.0
H1200 H 0.14675 0.9117 0.13643 0.0
H1201 H 0.1841 0.95795 0.12233 0.0
C1202 C 0.96547 0.58643 0.41142 0.0
C1203 C 0.97039 0.54737 0.42954 0.0
C1204 C 0.88023 0.54172 0.43372 0.0
C1205 C 0.87485 0.57523 0.41328 0.0
N1206 N 0.91251 0.6252 0.38051 0.0
N1207 N 0.93248 0.47925 0.45366 0.0
C1208 C 0.9175 0.5969 0.40158 0.0
C1209 C 0.92775 0.52252 0.43946 0.0
N1210 N 1.00631 0.61393 0.40398 0.0
N1211 N 0.83993 0.52906 0.44803 0.0
H1212 H 0.96675 0.46244 0.4576 0.0
H1213 H 0.90217 0.45691 0.45927 0.0
H1214 H 0.80452 0.54375 0.44484 0.0
H1215 H 0.84276 0.50881 0.46456 0.0
H1216 H 1.00424 0.64634 0.39271 0.0
H1217 H 0.04197 0.60656 0.41059 0.0
H1218 H 0.94264 0.63715 0.36972 0.0
H1219 H 0.87806 0.63364 0.37278 0.0
C1220 C 0.29486 0.06806 0.64094 0.0
C1221 C 0.26234 0.05577 0.62129 0.0
C1222 C 0.23932 0.14692 0.61765 0.0
C1223 C 0.27368 0.15892 0.63656 0.0
N1224 N 0.34541 0.13374 0.66011 0.0
N1225 N 0.21011 0.0838 0.58788 0.0
C1226 C 0.30539 0.12031 0.64605 0.0
C1227 C 0.2371 0.09546 0.60842 0.0
N1228 N 0.31369 0.03021 0.65568 0.0
N1229 N 0.207 0.18372 0.60957 0.0
H1230 H 0.20611 0.04624 0.58126 0.0
H1231 H 0.19476 0.11163 0.5764 0.0
H1232 H 0.20791 0.22175 0.61582 0.0
H1233 H 0.17733 0.17591 0.59788 0.0
H1234 H 0.33321 0.03789 0.67182 0.0
H1235 H 0.30594 0.99123 0.65315 0.0
H1236 H 0.37223 0.10731 0.66572 0.0
H1237 H 0.35458 0.17207 0.66387 0.0
C1238 C 0.63909 0.50645 0.8747 0.0
C1239 C 0.67185 0.54781 0.88023 0.0
C1240 C 0.60506 0.59123 0.90345 0.0
C1241 C 0.57497 0.54655 0.90111 0.0
N1242 N 0.56234 0.46103 0.88499 0.0
N1243 N 0.68758 0.62877 0.90069 0.0
C1244 C 0.5914 0.50422 0.88653 0.0
C1245 C 0.65504 0.59028 0.89461 0.0
N1246 N 0.65401 0.46901 0.85848 0.0
N1247 N 0.58555 0.63474 0.91402 0.0
H1248 H 0.72383 0.63057 0.89374 0.0
H1249 H 0.67974 0.65742 0.91362 0.0
H1250 H 0.54916 0.63659 0.92085 0.0
H1251 H 0.60364 0.67026 0.91408 0.0
H1252 H 0.63069 0.44013 0.85189 0.0
H1253 H 0.68908 0.46905 0.85007 0.0
H1254 H 0.57409 0.42653 0.87706 0.0
H1255 H 0.52686 0.4588 0.8929 0.0
C1256 C 0.81489 0.16656 0.8933 0.0
C1257 C 0.76751 0.14479 0.89847 0.0
C1258 C 0.72626 0.22296 0.88378 0.0
C1259 C 0.77345 0.24284 0.87665 0.0
N1260 N 0.86315 0.24015 0.87937 0.0
N1261 N 0.67963 0.15538 0.90495 0.0
C1262 C 0.81796 0.21701 0.88326 0.0
C1263 C 0.7236 0.17434 0.89586 0.0
N1264 N 0.85667 0.13737 0.89626 0.0
N1265 N 0.68416 0.24987 0.87809 0.0
H1266 H 0.67746 0.12005 0.91413 0.0
H1267 H 0.64634 0.17581 0.90523 0.0
H1268 H 0.68534 0.28677 0.87044 0.0
H1269 H 0.64822 0.23551 0.88024 0.0
H1270 H 0.89176 0.1473 0.88952 0.0
H1271 H 0.85578 0.10167 0.90492 0.0
H1272 H 0.8965 0.2261 0.88629 0.0
H1273 H 0.86743 0.27555 0.87058 0.0
C1274 C 0.14669 0.52538 0.66425 0.0
C1275 C 0.15847 0.47345 0.65874 0.0
C1276 C 0.07385 0.45905 0.64437 0.0
C1277 C 0.06773 0.51316 0.64316 0.0
N1278 N 0.09547 0.59875 0.65378 0.0
N1279 N 0.1324 0.38801 0.64776 0.0
C1280 C 0.10253 0.54662 0.65444 0.0
C1281 C 0.1212 0.43901 0.65067 0.0
N1282 N 0.17844 0.55449 0.67805 0.0
N1283 N 0.03497 0.42771 0.63828 0.0
H1284 H 0.16651 0.37282 0.65332 0.0
H1285 H 0.10876 0.36132 0.63954 0.0
H1286 H 1.00026 0.44272 0.63354 0.0
H1287 H 0.03574 0.38773 0.63983 0.0
H1288 H 0.17038 0.59177 0.68399 0.0
H1289 H 0.21054 0.53924 0.68581 0.0
H1290 H 0.12275 0.62546 0.65853 0.0
H1291 H 0.06277 0.61546 0.64738 0.0
C1292 C 0.78216 0.89787 0.42935 0.0
C1293 C 0.75969 0.9238 0.40922 0.0
C1294 C 0.74119 0.83945 0.39017 0.0
C1295 C 0.7592 0.81369 0.41144 0.0
N1296 N 0.78483 0.82013 0.45398 0.0
N1297 N 0.70713 0.91826 0.37332 0.0
C1298 C 0.77616 0.84345 0.43183 0.0
C1299 C 0.73607 0.89426 0.39045 0.0
N1300 N 0.81146 0.9245 0.44547 0.0
N1301 N 0.73122 0.81213 0.3692 0.0
H1302 H 0.7007 0.9579 0.37339 0.0
H1303 H 0.68524 0.89825 0.36072 0.0
H1304 H 0.73572 0.77231 0.36788 0.0
H1305 H 0.72327 0.8296 0.35238 0.0
H1306 H 0.83289 0.9065 0.45889 0.0
H1307 H 0.81862 0.96387 0.44386 0.0
H1308 H 0.79265 0.84068 0.47004 0.0
H1309 H 0.77869 0.78092 0.45701 0.0
C1310 C 0.42991 0.45331 0.12713 0.0
C1311 C 0.45617 0.49919 0.12096 0.0
C1312 C 0.38882 0.55128 0.13926 0.0
C1313 C 0.36206 0.50545 0.14481 0.0
N1314 N 0.36122 0.4134 0.1495 0.0
N1315 N 0.46678 0.5907 0.1259 0.0
C1316 C 0.3843 0.45663 0.14069 0.0
C1317 C 0.43757 0.54788 0.12867 0.0
N1318 N 0.44705 0.40679 0.11874 0.0
N1319 N 0.3667 0.598 0.14332 0.0
H1320 H 0.5025 0.58912 0.1182 0.0
H1321 H 0.4576 0.62682 0.13295 0.0
H1322 H 0.33233 0.60163 0.15229 0.0
H1323 H 0.38119 0.63288 0.13706 0.0
H1324 H 0.4268 0.37263 0.11993 0.0
H1325 H 0.48058 0.4026 0.10913 0.0
H1326 H 0.37719 0.37686 0.14922 0.0
H1327 H 0.32757 0.41504 0.15915 0.0
C1328 C 0.82028 0.40655 0.64621 0.0
C1329 C 0.77956 0.43023 0.63416 0.0
C1330 C 0.7273 0.35494 0.64204 0.0
C1331 C 0.76728 0.3315 0.65486 0.0
N1332 N 0.85547 0.32721 0.6622 0.0
N1333 N 0.70338 0.41882 0.61185 0.0
C1334 C 0.81519 0.35473 0.65447 0.0
C1335 C 0.7362 0.40134 0.62903 0.0
N1336 N 0.8624 0.43417 0.65114 0.0
N1337 N 0.68 0.33572 0.64387 0.0
H1338 H 0.70989 0.45246 0.60175 0.0
H1339 H 0.67311 0.39719 0.60577 0.0
H1340 H 0.67044 0.30356 0.65435 0.0
H1341 H 0.64915 0.35459 0.63671 0.0
H1342 H 0.89066 0.42078 0.6625 0.0
H1343 H 0.86793 0.47188 0.64513 0.0
H1344 H 0.89199 0.34034 0.66048 0.0
H1345 H 0.85252 0.28902 0.6681 0.0
C1346 C 0.4245 0.01737 0.92991 0.0
C1347 C 0.46451 0.0446 0.91873 0.0
C1348 C 0.40533 0.08293 0.88964 0.0
C1349 C 0.365 0.06142 0.90344 0.0
N1350 N 0.33805 0.02159 0.94163 0.0
N1351 N 0.49193 0.11013 0.89012 0.0
C1352 C 0.37514 0.03262 0.92505 0.0
C1353 C 0.45472 0.07945 0.89917 0.0
N1354 N 0.43349 0.97608 0.94485 0.0
N1355 N 0.39725 0.10436 0.86703 0.0
H1356 H 0.52833 0.10852 0.89664 0.0
H1357 H 0.48567 0.13989 0.87764 0.0
H1358 H 0.36223 0.10611 0.85896 0.0
H1359 H 0.42605 0.11595 0.85528 0.0
H1360 H 0.40514 0.95267 0.95185 0.0
H1361 H 0.46922 0.96175 0.94776 0.0
H1362 H 0.34482 1.00427 0.95864 0.0
H1363 H 0.30189 0.03556 0.93985 0.0
C1364 C 0.84738 0.65874 0.15284 0.0
C1365 C 0.81609 0.70029 0.14662 0.0
C1366 C 0.76447 0.64198 0.12196 0.0
C1367 C 0.78955 0.59958 0.13267 0.0
N1368 N 0.85218 0.56722 0.16039 0.0
N1369 N 0.74398 0.73267 0.12537 0.0
C1370 C 0.8308 0.60775 0.14842 0.0
C1371 C 0.77504 0.69255 0.13066 0.0
N1372 N 0.89199 0.66844 0.16382 0.0
N1373 N 0.7297 0.63388 0.10408 0.0
H1374 H 0.75118 0.7705 0.13078 0.0
H1375 H 0.7098 0.72813 0.1167 0.0
H1376 H 0.7193 0.59718 0.09813 0.0
H1377 H 0.7139 0.66354 0.09386 0.0
H1378 H 0.91854 0.64004 0.16706 0.0
H1379 H 0.90419 0.70601 0.16729 0.0
H1380 H 0.8794 0.57152 0.17382 0.0
H1381 H 0.83955 0.5295 0.15851 0.0
C1382 C 0.14864 0.07238 0.38435 0.0
C1383 C 0.16788 0.02159 0.38186 0.0
C1384 C 0.08723 0.98534 0.39474 0.0
C1385 C 0.06886 0.03608 0.39873 0.0
N1386 N 0.07779 0.12787 0.39324 0.0
N1387 N 0.15336 0.93035 0.37868 0.0
C1388 C 0.09812 0.0796 0.39195 0.0
C1389 C 0.13636 0.97821 0.3852 0.0
N1390 N 0.17958 0.11368 0.38081 0.0
N1391 N 0.05794 0.94404 0.40087 0.0
H1392 H 0.1889 0.92428 0.37132 0.0
H1393 H 0.13141 0.89728 0.37859 0.0
H1394 H 0.02072 0.94792 0.40622 0.0
H1395 H 0.07058 0.90618 0.4015 0.0
H1396 H 0.17037 0.15157 0.38514 0.0
H1397 H 0.21604 0.11002 0.37438 0.0
H1398 H 0.09478 0.16084 0.38623 0.0
H1399 H 0.04204 0.13498 0.39999 0.0
C1400 C 0.21974 0.68993 0.3667 0.0
C1401 C 0.26647 0.71516 0.36494 0.0
C1402 C 0.30375 0.64808 0.39031 0.0
C1403 C 0.26028 0.61788 0.38746 0.0
N1404 N 0.17693 0.60839 0.37145 0.0
N1405 N 0.35535 0.71445 0.37243 0.0
C1406 C 0.21775 0.63856 0.37567 0.0
C1407 C 0.30911 0.69374 0.37635 0.0
N1408 N 0.17753 0.71506 0.35965 0.0
N1409 N 0.33997 0.63284 0.4063 0.0
H1410 H 0.36192 0.74674 0.36147 0.0
H1411 H 0.38798 0.69658 0.37817 0.0
H1412 H 0.33644 0.59988 0.41722 0.0
H1413 H 0.37061 0.65572 0.41065 0.0
H1414 H 0.14186 0.70032 0.36255 0.0
H1415 H 0.17808 0.7529 0.35311 0.0
H1416 H 0.14748 0.61986 0.36035 0.0
H1417 H 0.17388 0.5704 0.37747 0.0
C1418 C 0.60801 0.07296 0.14212 0.0
C1419 C 0.58049 0.03032 0.13301 0.0
C1420 C 0.64777 0.97149 0.14443 0.0
C1421 C 0.67661 1.01454 0.15189 0.0
N1422 N 0.67933 0.10316 0.16528 0.0
N1423 N 0.56714 0.93878 0.13144 0.0
C1424 C 0.65484 0.06422 0.15345 0.0
C1425 C 0.59807 0.97934 0.13634 0.0
N1426 N 0.59107 0.12197 0.13834 0.0
N1427 N 0.66875 0.9235 0.14432 0.0
H1428 H 0.53056 0.94403 0.12558 0.0
H1429 H 0.57594 0.90049 0.13505 0.0
H1430 H 0.70389 0.91638 0.15167 0.0
H1431 H 0.65227 0.89116 0.13645 0.0
H1432 H 0.61237 0.15487 0.14149 0.0
H1433 H 0.55642 0.12985 0.13069 0.0
H1434 H 0.66353 0.13902 0.16895 0.0
H1435 H 0.71405 0.09827 0.17336 0.0
C1436 C 0.27075 0.37411 0.92087 0.0
C1437 C 0.25626 0.40356 0.90007 0.0
C1438 C 0.24135 0.32292 0.87704 0.0
C1439 C 0.2517 0.29368 0.89855 0.0
N1440 N 0.26285 0.29318 0.94276 0.0
N1441 N 0.2158 0.40539 0.86043 0.0
C1442 C 0.26247 0.31981 0.92101 0.0
C1443 C 0.23809 0.37777 0.87873 0.0
N1444 N 0.29463 0.39733 0.94011 0.0
N1445 N 0.23677 0.29877 0.85475 0.0
H1446 H 0.21084 0.44522 0.86135 0.0
H1447 H 0.19767 0.38823 0.8456 0.0
H1448 H 0.23969 0.25894 0.8526 0.0
H1449 H 0.23473 0.31866 0.83809 0.0
H1450 H 0.31058 0.37673 0.95452 0.0
H1451 H 0.30313 0.43656 0.94047 0.0
H1452 H 0.26574 0.31111 0.95991 0.0
H1453 H 0.25454 0.25397 0.94393 0.0
C1454 C 0.90906 0.95983 0.62008 0.0
C1455 C 0.94304 1.00126 0.61691 0.0
C1456 C 0.88398 0.06003 0.63747 0.0
C1457 C 0.84756 0.02042 0.63719 0.0
N1458 N 0.82377 0.93337 0.62706 0.0
N1459 N 0.9647 0.09043 0.62282 0.0
C1460 C 0.85996 0.97023 0.62863 0.0
C1461 C 0.93123 0.05121 0.626 0.0
N1462 N 0.92338 0.91058 0.61443 0.0
N1463 N 0.87321 0.10586 0.6488 0.0
H1464 H 1.00049 0.08437 0.61575 0.0
H1465 H 0.95674 0.12903 0.62628 0.0
H1466 H 0.83883 0.11313 0.65722 0.0
H1467 H 0.89912 0.13512 0.65156 0.0
H1468 H 0.90254 0.87809 0.61906 0.0
H1469 H 0.95802 0.90146 0.60687 0.0
H1470 H 0.82825 0.8982 0.61805 0.0
H1471 H 0.78774 0.93935 0.63349 0.0
loop_
_geom_bond_atom_site_label_1
_geom_bond_atom_site_label_2
_geom_bond_distance
_geom_bond_site_symmetry_2
_ccdc_geom_bond_type
O0 Tb1 2.292 . S
O0 C3 1.255 . S
Tb1 O0 2.292 . S
Tb1 O17 2.326 . S
Tb1 O19 2.500 . S
Tb1 O20 2.473 . S
Tb1 O23 2.324 1_545 S
Eu2 O6 2.292 . S
Eu2 C7 2.852 . S
Eu2 O18 2.324 . S
Eu2 O22 2.326 . S
Eu2 O24 2.500 . S
Eu2 O25 2.473 . S
C3 O0 1.255 . S
C3 O4 1.247 . S
O4 C3 1.247 . S
C5 O17 1.242 . S
C5 O18 1.258 . S
O6 Eu2 2.292 . S
O6 C8 1.255 . S
C7 Eu2 2.852 . S
C7 C11 1.503 . S
C7 O24 1.273 . S
C7 O25 1.257 . S
C8 O6 1.255 . S
C8 O9 1.247 . S
O9 C8 1.247 . S
C10 O22 1.242 1_565 S
C10 O23 1.258 . S
C11 C7 1.503 . S
C11 C12 1.379 . S
C11 C16 1.392 . S
C12 C11 1.379 . S
C12 C13 1.404 . S
C12 H26 0.929 . S
C13 C12 1.404 . S
C13 C14 1.389 . S
C14 C13 1.389 . S
C14 C15 1.399 . S
C14 H27 0.931 . S
C15 C14 1.399 . S
C15 C16 1.390 . S
C16 C11 1.392 . S
C16 C15 1.390 . S
C16 H28 0.929 . S
O17 Tb1 2.326 . S
O17 C5 1.242 . S
O18 Eu2 2.324 . S
O18 C5 1.258 . S
O19 Tb1 2.500 . S
O19 C21 1.273 . S
O20 Tb1 2.473 . S
O20 C21 1.257 . S
C21 O19 1.273 . S
C21 O20 1.257 . S
O22 Eu2 2.326 . S
O22 C10 1.242 1_545 S
O23 Tb1 2.324 1_565 S
O23 C10 1.258 . S
O24 Eu2 2.500 . S
O24 C7 1.273 . S
O25 Eu2 2.473 . S
O25 C7 1.257 . S
H26 C12 0.929 . S
H27 C14 0.931 . S
H28 C16 0.929 . S
O29 Tb30 2.292 . S
O29 C32 1.255 . S
Tb30 O29 2.292 . S
Tb30 O46 2.326 . S
Tb30 O48 2.500 . S
Tb30 O49 2.473 . S
Tb30 O52 2.324 . S
Eu31 O35 2.292 . S
Eu31 C36 2.852 . S
Eu31 O47 2.324 . S
Eu31 O51 2.326 . S
Eu31 O53 2.500 . S
Eu31 O54 2.473 . S
C32 O29 1.255 . S
C32 O33 1.247 . S
O33 C32 1.247 . S
C34 O46 1.242 . S
C34 O47 1.258 . S
O35 Eu31 2.292 . S
O35 C37 1.255 . S
C36 Eu31 2.852 . S
C36 C40 1.503 . S
C36 O53 1.273 . S
C36 O54 1.257 . S
C37 O35 1.255 . S
C37 O38 1.247 . S
O38 C37 1.247 . S
C39 O51 1.242 . S
C39 O52 1.258 . S
C40 C36 1.503 . S
C40 C41 1.379 . S
C40 C45 1.392 . S
C41 C40 1.379 . S
C41 C42 1.404 . S
C41 H55 0.929 . S
C42 C41 1.404 . S
C42 C43 1.389 . S
C43 C42 1.389 . S
C43 C44 1.399 . S
C43 H56 0.931 . S
C44 C43 1.399 . S
C44 C45 1.390 . S
C45 C40 1.392 . S
C45 C44 1.390 . S
C45 H57 0.929 . S
O46 Tb30 2.326 . S
O46 C34 1.242 . S
O47 Eu31 2.324 . S
O47 C34 1.258 . S
O48 Tb30 2.500 . S
O48 C50 1.273 . S
O49 Tb30 2.473 . S
O49 C50 1.257 . S
C50 O48 1.273 . S
C50 O49 1.257 . S
O51 Eu31 2.326 . S
O51 C39 1.242 . S
O52 Tb30 2.324 . S
O52 C39 1.258 . S
O53 Eu31 2.500 . S
O53 C36 1.273 . S
O54 Eu31 2.473 . S
O54 C36 1.257 . S
H55 C41 0.929 . S
H56 C43 0.931 . S
H57 C45 0.929 . S
O58 Tb59 2.292 . S
O58 C61 1.255 . S
Tb59 O58 2.292 . S
Tb59 O75 2.326 . S
Tb59 O77 2.500 . S
Tb59 O78 2.473 . S
Tb59 O81 2.324 1_565 S
Eu60 O64 2.292 . S
Eu60 C65 2.852 . S
Eu60 O76 2.324 . S
Eu60 O80 2.326 . S
Eu60 O82 2.500 . S
Eu60 O83 2.473 . S
C61 O58 1.255 . S
C61 O62 1.247 . S
O62 C61 1.247 . S
C63 O75 1.242 . S
C63 O76 1.258 . S
O64 Eu60 2.292 . S
O64 C66 1.255 . S
C65 Eu60 2.852 . S
C65 C69 1.503 . S
C65 O82 1.273 . S
C65 O83 1.257 . S
C66 O64 1.255 . S
C66 O67 1.247 . S
O67 C66 1.247 . S
C68 O80 1.242 1_545 S
C68 O81 1.258 . S
C69 C65 1.503 . S
C69 C70 1.379 . S
C69 C74 1.392 . S
C70 C69 1.379 . S
C70 C71 1.404 . S
C70 H84 0.929 . S
C71 C70 1.404 . S
C71 C72 1.389 1_455 S
C72 C71 1.389 1_655 S
C72 C73 1.399 . S
C72 H85 0.931 . S
C73 C72 1.399 . S
C73 C74 1.390 1_655 S
C74 C69 1.392 . S
C74 C73 1.390 1_455 S
C74 H86 0.929 . S
O75 Tb59 2.326 . S
O75 C63 1.242 . S
O76 Eu60 2.324 . S
O76 C63 1.258 . S
O77 Tb59 2.500 . S
O77 C79 1.273 . S
O78 Tb59 2.473 . S
O78 C79 1.257 . S
C79 O77 1.273 . S
C79 O78 1.257 . S
O80 Eu60 2.326 . S
O80 C68 1.242 1_565 S
O81 Tb59 2.324 1_545 S
O81 C68 1.258 . S
O82 Eu60 2.500 . S
O82 C65 1.273 . S
O83 Eu60 2.473 . S
O83 C65 1.257 . S
H84 C70 0.929 . S
H85 C72 0.931 . S
H86 C74 0.929 . S
O87 Tb88 2.292 . S
O87 C90 1.255 . S
Tb88 O87 2.292 . S
Tb88 O104 2.326 . S
Tb88 O106 2.500 . S
Tb88 O107 2.473 . S
Tb88 O110 2.324 . S
Eu89 O93 2.292 . S
Eu89 C94 2.852 . S
Eu89 O105 2.324 . S
Eu89 O109 2.326 . S
Eu89 O111 2.500 . S
Eu89 O112 2.473 . S
C90 O87 1.255 . S
C90 O91 1.247 . S
O91 C90 1.247 . S
C92 O104 1.242 . S
C92 O105 1.258 . S
O93 Eu89 2.292 . S
O93 C95 1.255 . S
C94 Eu89 2.852 . S
C94 C98 1.503 . S
C94 O111 1.273 . S
C94 O112 1.257 . S
C95 O93 1.255 . S
C95 O96 1.247 . S
O96 C95 1.247 . S
C97 O109 1.242 . S
C97 O110 1.258 . S
C98 C94 1.503 . S
C98 C99 1.379 . S
C98 C103 1.392 . S
C99 C98 1.379 . S
C99 C100 1.404 . S
C99 H113 0.929 . S
C100 C99 1.404 . S
C100 C101 1.389 . S
C101 C100 1.389 . S
C101 C102 1.399 . S
C101 H114 0.931 . S
C102 C101 1.399 . S
C102 C103 1.390 . S
C103 C98 1.392 . S
C103 C102 1.390 . S
C103 H115 0.929 . S
O104 Tb88 2.326 . S
O104 C92 1.242 . S
O105 Eu89 2.324 . S
O105 C92 1.258 . S
O106 Tb88 2.500 . S
O106 C108 1.273 . S
O107 Tb88 2.473 . S
O107 C108 1.257 . S
C108 O106 1.273 . S
C108 O107 1.257 . S
O109 Eu89 2.326 . S
O109 C97 1.242 . S
O110 Tb88 2.324 . S
O110 C97 1.258 . S
O111 Eu89 2.500 . S
O111 C94 1.273 . S
O112 Eu89 2.473 . S
O112 C94 1.257 . S
H113 C99 0.929 . S
H114 C101 0.931 . S
H115 C103 0.929 . S
O116 Tb117 2.292 . S
O116 C119 1.255 . S
Tb117 O116 2.292 . S
Tb117 O133 2.326 . S
Tb117 O135 2.500 . S
Tb117 O136 2.473 . S
Tb117 O139 2.324 1_565 S
Eu118 O122 2.292 . S
Eu118 C123 2.852 . S
Eu118 O134 2.324 . S
Eu118 O138 2.326 . S
Eu118 O140 2.500 . S
Eu118 O141 2.473 . S
C119 O116 1.255 . S
C119 O120 1.247 . S
O120 C119 1.247 . S
C121 O133 1.242 . S
C121 O134 1.258 . S
O122 Eu118 2.292 . S
O122 C124 1.255 . S
C123 Eu118 2.852 . S
C123 C127 1.503 . S
C123 O140 1.273 . S
C123 O141 1.257 . S
C124 O122 1.255 . S
C124 O125 1.247 1_565 S
O125 C124 1.247 1_545 S
C126 O138 1.242 1_545 S
C126 O139 1.258 . S
C127 C123 1.503 . S
C127 C128 1.379 . S
C127 C132 1.392 . S
C128 C127 1.379 . S
C128 C129 1.404 . S
C128 H142 0.929 . S
C129 C128 1.404 . S
C129 C130 1.389 . S
C130 C129 1.389 . S
C130 C131 1.399 1_565 S
C130 H143 0.931 1_565 S
C131 C130 1.399 1_545 S
C131 C132 1.390 1_545 S
C132 C127 1.392 . S
C132 C131 1.390 1_565 S
C132 H144 0.929 . S
O133 Tb117 2.326 . S
O133 C121 1.242 . S
O134 Eu118 2.324 . S
O134 C121 1.258 . S
O135 Tb117 2.500 . S
O135 C137 1.273 . S
O136 Tb117 2.473 . S
O136 C137 1.257 . S
C137 O135 1.273 . S
C137 O136 1.257 . S
O138 Eu118 2.326 . S
O138 C126 1.242 1_565 S
O139 Tb117 2.324 1_545 S
O139 C126 1.258 . S
O140 Eu118 2.500 . S
O140 C123 1.273 . S
O141 Eu118 2.473 . S
O141 C123 1.257 . S
H142 C128 0.929 . S
H143 C130 0.931 1_545 S
H144 C132 0.929 . S
O145 Tb146 2.292 . S
O145 C148 1.255 . S
Tb146 O145 2.292 . S
Tb146 O162 2.326 . S
Tb146 O164 2.500 . S
Tb146 O165 2.473 . S
Tb146 O168 2.324 . S
Eu147 O151 2.292 . S
Eu147 C152 2.852 . S
Eu147 O163 2.324 . S
Eu147 O167 2.326 . S
Eu147 O169 2.500 . S
Eu147 O170 2.473 . S
C148 O145 1.255 . S
C148 O149 1.247 . S
O149 C148 1.247 . S
C150 O162 1.242 . S
C150 O163 1.258 . S
O151 Eu147 2.292 . S
O151 C153 1.255 . S
C152 Eu147 2.852 . S
C152 C156 1.503 . S
C152 O169 1.273 . S
C152 O170 1.257 . S
C153 O151 1.255 . S
C153 O154 1.247 . S
O154 C153 1.247 . S
C155 O167 1.242 . S
C155 O168 1.258 . S
C156 C152 1.503 . S
C156 C157 1.379 . S
C156 C161 1.392 . S
C157 C156 1.379 . S
C157 C158 1.404 . S
C157 H171 0.929 . S
C158 C157 1.404 . S
C158 C159 1.389 . S
C159 C158 1.389 . S
C159 C160 1.399 . S
C159 H172 0.931 . S
C160 C159 1.399 . S
C160 C161 1.390 . S
C161 C156 1.392 . S
C161 C160 1.390 . S
C161 H173 0.929 . S
O162 Tb146 2.326 . S
O162 C150 1.242 . S
O163 Eu147 2.324 . S
O163 C150 1.258 . S
O164 Tb146 2.500 . S
O164 C166 1.273 . S
O165 Tb146 2.473 . S
O165 C166 1.257 . S
C166 O164 1.273 . S
C166 O165 1.257 . S
O167 Eu147 2.326 . S
O167 C155 1.242 . S
O168 Tb146 2.324 . S
O168 C155 1.258 . S
O169 Eu147 2.500 . S
O169 C152 1.273 . S
O170 Eu147 2.473 . S
O170 C152 1.257 . S
H171 C157 0.929 . S
H172 C159 0.931 . S
H173 C161 0.929 . S
O174 Tb175 2.292 . S
O174 C177 1.255 . S
Tb175 O174 2.292 . S
Tb175 O191 2.326 . S
Tb175 O193 2.500 . S
Tb175 O194 2.473 . S
Tb175 O197 2.324 1_545 S
Eu176 O180 2.292 . S
Eu176 C181 2.852 . S
Eu176 O192 2.324 . S
Eu176 O196 2.326 . S
Eu176 O198 2.500 . S
Eu176 O199 2.473 . S
C177 O174 1.255 . S
C177 O178 1.247 . S
O178 C177 1.247 . S
C179 O191 1.242 . S
C179 O192 1.258 . S
O180 Eu176 2.292 . S
O180 C182 1.255 . S
C181 Eu176 2.852 . S
C181 C185 1.503 . S
C181 O198 1.273 . S
C181 O199 1.257 . S
C182 O180 1.255 . S
C182 O183 1.247 . S
O183 C182 1.247 . S
C184 O196 1.242 1_565 S
C184 O197 1.258 . S
C185 C181 1.503 . S
C185 C186 1.379 . S
C185 C190 1.392 . S
C186 C185 1.379 . S
C186 C187 1.404 . S
C186 H200 0.929 . S
C187 C186 1.404 . S
C187 C188 1.389 1_655 S
C188 C187 1.389 1_455 S
C188 C189 1.399 . S
C188 H201 0.931 . S
C189 C188 1.399 . S
C189 C190 1.390 1_455 S
C190 C185 1.392 . S
C190 C189 1.390 1_655 S
C190 H202 0.929 . S
O191 Tb175 2.326 . S
O191 C179 1.242 . S
O192 Eu176 2.324 . S
O192 C179 1.258 . S
O193 Tb175 2.500 . S
O193 C195 1.273 . S
O194 Tb175 2.473 . S
O194 C195 1.257 . S
C195 O193 1.273 . S
C195 O194 1.257 . S
O196 Eu176 2.326 . S
O196 C184 1.242 1_545 S
O197 Tb175 2.324 1_565 S
O197 C184 1.258 . S
O198 Eu176 2.500 . S
O198 C181 1.273 . S
O199 Eu176 2.473 . S
O199 C181 1.257 . S
H200 C186 0.929 . S
H201 C188 0.931 . S
H202 C190 0.929 . S
O203 Tb204 2.292 . S
O203 C206 1.255 . S
Tb204 O203 2.292 . S
Tb204 O220 2.326 . S
Tb204 O222 2.500 . S
Tb204 O223 2.473 . S
Tb204 O226 2.324 . S
Eu205 O209 2.292 . S
Eu205 C210 2.852 . S
Eu205 O221 2.324 . S
Eu205 O225 2.326 . S
Eu205 O227 2.500 . S
Eu205 O228 2.473 . S
C206 O203 1.255 . S
C206 O207 1.247 . S
O207 C206 1.247 . S
C208 O220 1.242 . S
C208 O221 1.258 . S
O209 Eu205 2.292 . S
O209 C211 1.255 . S
C210 Eu205 2.852 . S
C210 C214 1.503 . S
C210 O227 1.273 . S
C210 O228 1.257 . S
C211 O209 1.255 . S
C211 O212 1.247 . S
O212 C211 1.247 . S
C213 O225 1.242 . S
C213 O226 1.258 . S
C214 C210 1.503 . S
C214 C215 1.379 . S
C214 C219 1.392 . S
C215 C214 1.379 . S
C215 C216 1.404 . S
C215 H229 0.929 . S
C216 C215 1.404 . S
C216 C217 1.389 . S
C217 C216 1.389 . S
C217 C218 1.399 . S
C217 H230 0.931 . S
C218 C217 1.399 . S
C218 C219 1.390 . S
C219 C214 1.392 . S
C219 C218 1.390 . S
C219 H231 0.929 . S
O220 Tb204 2.326 . S
O220 C208 1.242 . S
O221 Eu205 2.324 . S
O221 C208 1.258 . S
O222 Tb204 2.500 . S
O222 C224 1.273 . S
O223 Tb204 2.473 . S
O223 C224 1.257 . S
C224 O222 1.273 . S
C224 O223 1.257 . S
O225 Eu205 2.326 . S
O225 C213 1.242 . S
O226 Tb204 2.324 . S
O226 C213 1.258 . S
O227 Eu205 2.500 . S
O227 C210 1.273 . S
O228 Eu205 2.473 . S
O228 C210 1.257 . S
H229 C215 0.929 . S
H230 C217 0.931 . S
H231 C219 0.929 . S
O232 Tb233 2.292 . S
O232 C235 1.255 . S
Tb233 O232 2.292 . S
Tb233 O249 2.326 . S
Tb233 O251 2.500 . S
Tb233 O252 2.473 . S
Tb233 O255 2.324 . S
Eu234 O238 2.292 . S
Eu234 C239 2.852 . S
Eu234 O250 2.324 . S
Eu234 O254 2.326 . S
Eu234 O256 2.500 . S
Eu234 O257 2.473 . S
C235 O232 1.255 . S
C235 O236 1.247 . S
O236 C235 1.247 . S
C237 O249 1.242 . S
C237 O250 1.258 . S
O238 Eu234 2.292 . S
O238 C240 1.255 . S
C239 Eu234 2.852 . S
C239 C243 1.503 . S
C239 O256 1.273 . S
C239 O257 1.257 . S
C240 O238 1.255 . S
C240 O241 1.247 . S
O241 C240 1.247 . S
C242 O254 1.242 . S
C242 O255 1.258 . S
C243 C239 1.503 . S
C243 C244 1.379 . S
C243 C248 1.392 . S
C244 C243 1.379 . S
C244 C245 1.404 . S
C244 H258 0.929 . S
C245 C244 1.404 . S
C245 C246 1.389 1_655 S
C246 C245 1.389 1_455 S
C246 C247 1.399 . S
C246 H259 0.931 . S
C247 C246 1.399 . S
C247 C248 1.390 1_455 S
C248 C243 1.392 . S
C248 C247 1.390 1_655 S
C248 H260 0.929 . S
O249 Tb233 2.326 . S
O249 C237 1.242 . S
O250 Eu234 2.324 . S
O250 C237 1.258 . S
O251 Tb233 2.500 . S
O251 C253 1.273 . S
O252 Tb233 2.473 . S
O252 C253 1.257 . S
C253 O251 1.273 . S
C253 O252 1.257 . S
O254 Eu234 2.326 . S
O254 C242 1.242 . S
O255 Tb233 2.324 . S
O255 C242 1.258 . S
O256 Eu234 2.500 . S
O256 C239 1.273 . S
O257 Eu234 2.473 . S
O257 C239 1.257 . S
H258 C244 0.929 . S
H259 C246 0.931 . S
H260 C248 0.929 . S
O261 Tb262 2.292 . S
O261 C264 1.255 . S
Tb262 O261 2.292 . S
Tb262 O278 2.326 . S
Tb262 O280 2.500 . S
Tb262 O281 2.473 . S
Tb262 O284 2.324 . S
Eu263 O267 2.292 . S
Eu263 C268 2.852 1_565 S
Eu263 O279 2.324 1_565 S
Eu263 O283 2.326 1_565 S
Eu263 O285 2.500 . S
Eu263 O286 2.473 1_565 S
C264 O261 1.255 . S
C264 O265 1.247 . S
O265 C264 1.247 . S
C266 O278 1.242 . S
C266 O279 1.258 . S
O267 Eu263 2.292 . S
O267 C269 1.255 . S
C268 Eu263 2.852 1_545 S
C268 C272 1.503 . S
C268 O285 1.273 1_545 S
C268 O286 1.257 . S
C269 O267 1.255 . S
C269 O270 1.247 . S
O270 C269 1.247 . S
C271 O283 1.242 . S
C271 O284 1.258 . S
C272 C268 1.503 . S
C272 C273 1.379 . S
C272 C277 1.392 . S
C273 C272 1.379 . S
C273 C274 1.404 . S
C273 H287 0.929 . S
C274 C273 1.404 . S
C274 C275 1.389 . S
C275 C274 1.389 . S
C275 C276 1.399 . S
C275 H288 0.931 . S
C276 C275 1.399 . S
C276 C277 1.390 . S
C277 C272 1.392 . S
C277 C276 1.390 . S
C277 H289 0.929 . S
O278 Tb262 2.326 . S
O278 C266 1.242 . S
O279 Eu263 2.324 1_545 S
O279 C266 1.258 . S
O280 Tb262 2.500 . S
O280 C282 1.273 . S
O281 Tb262 2.473 . S
O281 C282 1.257 . S
C282 O280 1.273 . S
C282 O281 1.257 . S
O283 Eu263 2.326 1_545 S
O283 C271 1.242 . S
O284 Tb262 2.324 . S
O284 C271 1.258 . S
O285 Eu263 2.500 . S
O285 C268 1.273 1_565 S
O286 Eu263 2.473 1_545 S
O286 C268 1.257 . S
H287 C273 0.929 . S
H288 C275 0.931 . S
H289 C277 0.929 . S
O290 Tb291 2.292 . S
O290 C293 1.255 . S
Tb291 O290 2.292 . S
Tb291 O307 2.326 . S
Tb291 O309 2.500 . S
Tb291 O310 2.473 . S
Tb291 O313 2.324 . S
Eu292 O296 2.292 . S
Eu292 C297 2.852 . S
Eu292 O308 2.324 . S
Eu292 O312 2.326 . S
Eu292 O314 2.500 . S
Eu292 O315 2.473 . S
C293 O290 1.255 . S
C293 O294 1.247 . S
O294 C293 1.247 . S
C295 O307 1.242 . S
C295 O308 1.258 . S
O296 Eu292 2.292 . S
O296 C298 1.255 . S
C297 Eu292 2.852 . S
C297 C301 1.503 . S
C297 O314 1.273 . S
C297 O315 1.257 . S
C298 O296 1.255 . S
C298 O299 1.247 . S
O299 C298 1.247 . S
C300 O312 1.242 . S
C300 O313 1.258 . S
C301 C297 1.503 . S
C301 C302 1.379 . S
C301 C306 1.392 . S
C302 C301 1.379 . S
C302 C303 1.404 . S
C302 H316 0.929 . S
C303 C302 1.404 . S
C303 C304 1.389 . S
C304 C303 1.389 . S
C304 C305 1.399 . S
C304 H317 0.931 . S
C305 C304 1.399 . S
C305 C306 1.390 . S
C306 C301 1.392 . S
C306 C305 1.390 . S
C306 H318 0.929 . S
O307 Tb291 2.326 . S
O307 C295 1.242 . S
O308 Eu292 2.324 . S
O308 C295 1.258 . S
O309 Tb291 2.500 . S
O309 C311 1.273 . S
O310 Tb291 2.473 . S
O310 C311 1.257 . S
C311 O309 1.273 . S
C311 O310 1.257 . S
O312 Eu292 2.326 . S
O312 C300 1.242 . S
O313 Tb291 2.324 . S
O313 C300 1.258 . S
O314 Eu292 2.500 . S
O314 C297 1.273 . S
O315 Eu292 2.473 . S
O315 C297 1.257 . S
H316 C302 0.929 . S
H317 C304 0.931 . S
H318 C306 0.929 . S
O319 Tb320 2.292 . S
O319 C322 1.255 . S
Tb320 O319 2.292 . S
Tb320 O336 2.326 . S
Tb320 O338 2.500 . S
Tb320 O339 2.473 . S
Tb320 O342 2.324 1_545 S
Eu321 O325 2.292 . S
Eu321 C326 2.852 . S
Eu321 O337 2.324 . S
Eu321 O341 2.326 . S
Eu321 O343 2.500 . S
Eu321 O344 2.473 . S
C322 O319 1.255 . S
C322 O323 1.247 1_545 S
O323 C322 1.247 1_565 S
C324 O336 1.242 1_565 S
C324 O337 1.258 . S
O325 Eu321 2.292 . S
O325 C327 1.255 . S
C326 Eu321 2.852 . S
C326 C330 1.503 . S
C326 O343 1.273 . S
C326 O344 1.257 . S
C327 O325 1.255 . S
C327 O328 1.247 . S
O328 C327 1.247 . S
C329 O341 1.242 . S
C329 O342 1.258 . S
C330 C326 1.503 . S
C330 C331 1.379 . S
C330 C335 1.392 . S
C331 C330 1.379 . S
C331 C332 1.404 . S
C331 H345 0.929 . S
C332 C331 1.404 . S
C332 C333 1.389 . S
C333 C332 1.389 . S
C333 C334 1.399 . S
C333 H346 0.931 . S
C334 C333 1.399 . S
C334 C335 1.390 . S
C335 C330 1.392 . S
C335 C334 1.390 . S
C335 H347 0.929 . S
O336 Tb320 2.326 . S
O336 C324 1.242 1_545 S
O337 Eu321 2.324 . S
O337 C324 1.258 . S
O338 Tb320 2.500 . S
O338 C340 1.273 . S
O339 Tb320 2.473 . S
O339 C340 1.257 . S
C340 O338 1.273 . S
C340 O339 1.257 . S
O341 Eu321 2.326 . S
O341 C329 1.242 . S
O342 Tb320 2.324 1_565 S
O342 C329 1.258 . S
O343 Eu321 2.500 . S
O343 C326 1.273 . S
O344 Eu321 2.473 . S
O344 C326 1.257 . S
H345 C331 0.929 . S
H346 C333 0.931 . S
H347 C335 0.929 . S
O348 Tb349 2.292 . S
O348 C351 1.255 . S
Tb349 O348 2.292 . S
Tb349 O365 2.326 . S
Tb349 O367 2.500 . S
Tb349 O368 2.473 . S
Tb349 O371 2.324 . S
Eu350 O354 2.292 . S
Eu350 C355 2.852 . S
Eu350 O366 2.324 . S
Eu350 O370 2.326 . S
Eu350 O372 2.500 . S
Eu350 O373 2.473 . S
C351 O348 1.255 . S
C351 O352 1.247 . S
O352 C351 1.247 . S
C353 O365 1.242 . S
C353 O366 1.258 . S
O354 Eu350 2.292 . S
O354 C356 1.255 . S
C355 Eu350 2.852 . S
C355 C359 1.503 . S
C355 O372 1.273 . S
C355 O373 1.257 . S
C356 O354 1.255 . S
C356 O357 1.247 . S
O357 C356 1.247 . S
C358 O370 1.242 . S
C358 O371 1.258 . S
C359 C355 1.503 . S
C359 C360 1.379 . S
C359 C364 1.392 . S
C360 C359 1.379 . S
C360 C361 1.404 . S
C360 H374 0.929 . S
C361 C360 1.404 . S
C361 C362 1.389 1_455 S
C362 C361 1.389 1_655 S
C362 C363 1.399 . S
C362 H375 0.931 . S
C363 C362 1.399 . S
C363 C364 1.390 1_655 S
C364 C359 1.392 . S
C364 C363 1.390 1_455 S
C364 H376 0.929 . S
O365 Tb349 2.326 . S
O365 C353 1.242 . S
O366 Eu350 2.324 . S
O366 C353 1.258 . S
O367 Tb349 2.500 . S
O367 C369 1.273 . S
O368 Tb349 2.473 . S
O368 C369 1.257 . S
C369 O367 1.273 . S
C369 O368 1.257 . S
O370 Eu350 2.326 . S
O370 C358 1.242 . S
O371 Tb349 2.324 . S
O371 C358 1.258 . S
O372 Eu350 2.500 . S
O372 C355 1.273 . S
O373 Eu350 2.473 . S
O373 C355 1.257 . S
H374 C360 0.929 . S
H375 C362 0.931 . S
H376 C364 0.929 . S
O377 Tb378 2.292 . S
O377 C380 1.255 1_545 S
Tb378 O377 2.292 . S
Tb378 O394 2.326 1_545 S
Tb378 O396 2.500 . S
Tb378 O397 2.473 . S
Tb378 O400 2.324 1_545 S
Eu379 O383 2.292 . S
Eu379 C384 2.852 . S
Eu379 O395 2.324 . S
Eu379 O399 2.326 . S
Eu379 O401 2.500 . S
Eu379 O402 2.473 . S
C380 O377 1.255 1_565 S
C380 O381 1.247 . S
O381 C380 1.247 . S
C382 O394 1.242 . S
C382 O395 1.258 . S
O383 Eu379 2.292 . S
O383 C385 1.255 . S
C384 Eu379 2.852 . S
C384 C388 1.503 . S
C384 O401 1.273 . S
C384 O402 1.257 . S
C385 O383 1.255 . S
C385 O386 1.247 . S
O386 C385 1.247 . S
C387 O399 1.242 . S
C387 O400 1.258 . S
C388 C384 1.503 . S
C388 C389 1.379 . S
C388 C393 1.392 . S
C389 C388 1.379 . S
C389 C390 1.404 . S
C389 H403 0.929 . S
C390 C389 1.404 . S
C390 C391 1.389 . S
C391 C390 1.389 . S
C391 C392 1.399 . S
C391 H404 0.931 . S
C392 C391 1.399 . S
C392 C393 1.390 . S
C393 C388 1.392 . S
C393 C392 1.390 . S
C393 H405 0.929 . S
O394 Tb378 2.326 1_565 S
O394 C382 1.242 . S
O395 Eu379 2.324 . S
O395 C382 1.258 . S
O396 Tb378 2.500 . S
O396 C398 1.273 . S
O397 Tb378 2.473 . S
O397 C398 1.257 . S
C398 O396 1.273 . S
C398 O397 1.257 . S
O399 Eu379 2.326 . S
O399 C387 1.242 . S
O400 Tb378 2.324 1_565 S
O400 C387 1.258 . S
O401 Eu379 2.500 . S
O401 C384 1.273 . S
O402 Eu379 2.473 . S
O402 C384 1.257 . S
H403 C389 0.929 . S
H404 C391 0.931 . S
H405 C393 0.929 . S
O406 Tb407 2.292 . S
O406 C409 1.255 . S
Tb407 O406 2.292 . S
Tb407 O423 2.326 . S
Tb407 O425 2.500 . S
Tb407 O426 2.473 . S
Tb407 O429 2.324 . S
Eu408 O412 2.292 . S
Eu408 C413 2.852 . S
Eu408 O424 2.324 . S
Eu408 O428 2.326 . S
Eu408 O430 2.500 . S
Eu408 O431 2.473 . S
C409 O406 1.255 . S
C409 O410 1.247 . S
O410 C409 1.247 . S
C411 O423 1.242 . S
C411 O424 1.258 . S
O412 Eu408 2.292 . S
O412 C414 1.255 . S
C413 Eu408 2.852 . S
C413 C417 1.503 . S
C413 O430 1.273 . S
C413 O431 1.257 . S
C414 O412 1.255 . S
C414 O415 1.247 . S
O415 C414 1.247 . S
C416 O428 1.242 . S
C416 O429 1.258 . S
C417 C413 1.503 . S
C417 C418 1.379 . S
C417 C422 1.392 . S
C418 C417 1.379 . S
C418 C419 1.404 . S
C418 H432 0.929 . S
C419 C418 1.404 . S
C419 C420 1.389 . S
C420 C419 1.389 . S
C420 C421 1.399 . S
C420 H433 0.931 . S
C421 C420 1.399 . S
C421 C422 1.390 . S
C422 C417 1.392 . S
C422 C421 1.390 . S
C422 H434 0.929 . S
O423 Tb407 2.326 . S
O423 C411 1.242 . S
O424 Eu408 2.324 . S
O424 C411 1.258 . S
O425 Tb407 2.500 . S
O425 C427 1.273 . S
O426 Tb407 2.473 . S
O426 C427 1.257 . S
C427 O425 1.273 . S
C427 O426 1.257 . S
O428 Eu408 2.326 . S
O428 C416 1.242 . S
O429 Tb407 2.324 . S
O429 C416 1.258 . S
O430 Eu408 2.500 . S
O430 C413 1.273 . S
O431 Eu408 2.473 . S
O431 C413 1.257 . S
H432 C418 0.929 . S
H433 C420 0.931 . S
H434 C422 0.929 . S
O435 Tb436 2.292 . S
O435 C438 1.255 . S
Tb436 O435 2.292 . S
Tb436 O452 2.326 . S
Tb436 O454 2.500 . S
Tb436 O455 2.473 . S
Tb436 O458 2.324 1_565 S
Eu437 O441 2.292 . S
Eu437 C442 2.852 . S
Eu437 O453 2.324 . S
Eu437 O457 2.326 . S
Eu437 O459 2.500 . S
Eu437 O460 2.473 . S
C438 O435 1.255 . S
C438 O439 1.248 1_565 S
O439 C438 1.248 1_545 S
C440 O452 1.242 1_545 S
C440 O453 1.258 . S
O441 Eu437 2.292 . S
O441 C443 1.255 . S
C442 Eu437 2.852 . S
C442 C446 1.503 . S
C442 O459 1.273 . S
C442 O460 1.257 . S
C443 O441 1.255 . S
C443 O444 1.247 . S
O444 C443 1.247 . S
C445 O457 1.242 . S
C445 O458 1.258 . S
C446 C442 1.503 . S
C446 C447 1.379 . S
C446 C451 1.392 . S
C447 C446 1.379 . S
C447 C448 1.404 . S
C447 H461 0.929 . S
C448 C447 1.404 . S
C448 C449 1.389 . S
C449 C448 1.389 . S
C449 C450 1.399 . S
C449 H462 0.931 . S
C450 C449 1.399 . S
C450 C451 1.390 . S
C451 C446 1.392 . S
C451 C450 1.390 . S
C451 H463 0.929 . S
O452 Tb436 2.326 . S
O452 C440 1.242 1_565 S
O453 Eu437 2.324 . S
O453 C440 1.258 . S
O454 Tb436 2.500 . S
O454 C456 1.273 . S
O455 Tb436 2.473 . S
O455 C456 1.257 . S
C456 O454 1.273 . S
C456 O455 1.257 . S
O457 Eu437 2.326 . S
O457 C445 1.242 . S
O458 Tb436 2.324 1_545 S
O458 C445 1.258 . S
O459 Eu437 2.500 . S
O459 C442 1.273 . S
O460 Eu437 2.473 . S
O460 C442 1.257 . S
H461 C447 0.929 . S
H462 C449 0.931 . S
H463 C451 0.929 . S
C464 C465 1.363 . S
C464 C470 1.379 . S
C464 N472 1.356 . S
C465 C464 1.363 . S
C465 C471 1.363 . S
C466 C467 1.363 . S
C466 C471 1.379 . S
C466 N473 1.356 . S
C467 C466 1.363 . S
C467 C470 1.363 . S
N468 C470 1.356 . S
N468 H480 0.984 . S
N468 H481 0.985 . S
N469 C471 1.356 . S
N469 H474 0.984 . S
N469 H475 0.985 . S
C470 C464 1.379 . S
C470 C467 1.363 . S
C470 N468 1.356 . S
C471 C465 1.363 . S
C471 C466 1.379 . S
C471 N469 1.356 . S
N472 C464 1.356 . S
N472 H478 0.984 . S
N472 H479 0.984 . S
N473 C466 1.356 . S
N473 H476 0.984 . S
N473 H477 0.985 . S
H474 N469 0.984 . S
H475 N469 0.985 . S
H476 N473 0.984 . S
H477 N473 0.985 . S
H478 N472 0.984 . S
H479 N472 0.984 . S
H480 N468 0.984 . S
H481 N468 0.985 . S
C482 C483 1.363 . S
C482 C488 1.379 . S
C482 N490 1.356 . S
C483 C482 1.363 . S
C483 C489 1.363 . S
C484 C485 1.363 . S
C484 C489 1.379 . S
C484 N491 1.356 . S
C485 C484 1.363 . S
C485 C488 1.363 . S
N486 C488 1.356 . S
N486 H498 0.984 . S
N486 H499 0.985 . S
N487 C489 1.356 . S
N487 H492 0.984 . S
N487 H493 0.985 . S
C488 C482 1.379 . S
C488 C485 1.363 . S
C488 N486 1.356 . S
C489 C483 1.363 . S
C489 C484 1.379 . S
C489 N487 1.356 . S
N490 C482 1.356 . S
N490 H496 0.984 . S
N490 H497 0.984 . S
N491 C484 1.356 . S
N491 H494 0.984 . S
N491 H495 0.985 . S
H492 N487 0.984 . S
H493 N487 0.985 . S
H494 N491 0.984 . S
H495 N491 0.985 . S
H496 N490 0.984 . S
H497 N490 0.984 . S
H498 N486 0.984 . S
H499 N486 0.985 . S
C500 C501 1.363 . S
C500 C506 1.379 . S
C500 N508 1.356 . S
C501 C500 1.363 . S
C501 C507 1.363 . S
C502 C503 1.363 . S
C502 C507 1.379 . S
C502 N509 1.356 . S
C503 C502 1.363 . S
C503 C506 1.363 . S
N504 C506 1.356 . S
N504 H516 0.984 . S
N504 H517 0.985 . S
N505 C507 1.356 . S
N505 H510 0.984 . S
N505 H511 0.985 . S
C506 C500 1.379 . S
C506 C503 1.363 . S
C506 N504 1.356 . S
C507 C501 1.363 . S
C507 C502 1.379 . S
C507 N505 1.356 . S
N508 C500 1.356 . S
N508 H514 0.984 . S
N508 H515 0.984 . S
N509 C502 1.356 . S
N509 H512 0.984 . S
N509 H513 0.985 . S
H510 N505 0.984 . S
H511 N505 0.985 . S
H512 N509 0.984 . S
H513 N509 0.985 . S
H514 N508 0.984 . S
H515 N508 0.984 . S
H516 N504 0.984 . S
H517 N504 0.985 . S
C518 C519 1.363 . S
C518 C524 1.379 . S
C518 N526 1.356 . S
C519 C518 1.363 . S
C519 C525 1.363 . S
C520 C521 1.363 . S
C520 C525 1.379 1_655 S
C520 N527 1.356 . S
C521 C520 1.363 . S
C521 C524 1.363 1_655 S
N522 C524 1.356 1_655 S
N522 H534 0.984 1_655 S
N522 H535 0.985 . S
N523 C525 1.356 . S
N523 H528 0.984 . S
N523 H529 0.985 . S
C524 C518 1.379 . S
C524 C521 1.363 1_455 S
C524 N522 1.356 1_455 S
C525 C519 1.363 . S
C525 C520 1.379 1_455 S
C525 N523 1.356 . S
N526 C518 1.356 . S
N526 H532 0.984 . S
N526 H533 0.984 . S
N527 C520 1.356 . S
N527 H530 0.984 . S
N527 H531 0.985 . S
H528 N523 0.984 . S
H529 N523 0.985 . S
H530 N527 0.984 . S
H531 N527 0.985 . S
H532 N526 0.984 . S
H533 N526 0.984 . S
H534 N522 0.984 1_455 S
H535 N522 0.985 . S
C536 C537 1.363 . S
C536 C542 1.379 . S
C536 N544 1.356 . S
C537 C536 1.363 . S
C537 C543 1.363 . S
C538 C539 1.363 . S
C538 C543 1.379 . S
C538 N545 1.356 . S
C539 C538 1.363 . S
C539 C542 1.363 . S
N540 C542 1.356 . S
N540 H552 0.984 . S
N540 H553 0.985 . S
N541 C543 1.356 . S
N541 H546 0.984 . S
N541 H547 0.985 . S
C542 C536 1.379 . S
C542 C539 1.363 . S
C542 N540 1.356 . S
C543 C537 1.363 . S
C543 C538 1.379 . S
C543 N541 1.356 . S
N544 C536 1.356 . S
N544 H550 0.984 . S
N544 H551 0.984 . S
N545 C538 1.356 . S
N545 H548 0.984 . S
N545 H549 0.985 . S
H546 N541 0.984 . S
H547 N541 0.985 . S
H548 N545 0.984 . S
H549 N545 0.985 . S
H550 N544 0.984 . S
H551 N544 0.984 . S
H552 N540 0.984 . S
H553 N540 0.985 . S
C554 C555 1.363 . S
C554 C560 1.379 . S
C554 N562 1.356 . S
C555 C554 1.363 . S
C555 C561 1.363 . S
C556 C557 1.363 . S
C556 C561 1.379 . S
C556 N563 1.356 . S
C557 C556 1.363 . S
C557 C560 1.363 . S
N558 C560 1.356 . S
N558 H570 0.984 . S
N558 H571 0.985 . S
N559 C561 1.356 . S
N559 H564 0.984 . S
N559 H565 0.985 . S
C560 C554 1.379 . S
C560 C557 1.363 . S
C560 N558 1.356 . S
C561 C555 1.363 . S
C561 C556 1.379 . S
C561 N559 1.356 . S
N562 C554 1.356 . S
N562 H568 0.984 . S
N562 H569 0.984 . S
N563 C556 1.356 . S
N563 H566 0.984 . S
N563 H567 0.985 . S
H564 N559 0.984 . S
H565 N559 0.985 . S
H566 N563 0.984 . S
H567 N563 0.985 . S
H568 N562 0.984 . S
H569 N562 0.984 . S
H570 N558 0.984 . S
H571 N558 0.985 . S
C572 C573 1.363 . S
C572 C578 1.379 . S
C572 N580 1.356 . S
C573 C572 1.363 . S
C573 C579 1.363 . S
C574 C575 1.363 . S
C574 C579 1.379 . S
C574 N581 1.356 . S
C575 C574 1.363 . S
C575 C578 1.363 . S
N576 C578 1.356 . S
N576 H588 0.984 . S
N576 H589 0.985 . S
N577 C579 1.356 . S
N577 H582 0.984 . S
N577 H583 0.985 . S
C578 C572 1.379 . S
C578 C575 1.363 . S
C578 N576 1.356 . S
C579 C573 1.363 . S
C579 C574 1.379 . S
C579 N577 1.356 . S
N580 C572 1.356 . S
N580 H586 0.984 . S
N580 H587 0.984 . S
N581 C574 1.356 . S
N581 H584 0.984 . S
N581 H585 0.985 . S
H582 N577 0.984 . S
H583 N577 0.985 . S
H584 N581 0.984 . S
H585 N581 0.985 . S
H586 N580 0.984 . S
H587 N580 0.984 . S
H588 N576 0.984 . S
H589 N576 0.985 . S
C590 C591 1.363 . S
C590 C596 1.379 . S
C590 N598 1.356 . S
C591 C590 1.363 . S
C591 C597 1.363 . S
C592 C593 1.363 1_655 S
C592 C597 1.379 . S
C592 N599 1.356 1_655 S
C593 C592 1.363 1_455 S
C593 C596 1.363 1_455 S
N594 C596 1.356 1_455 S
N594 H606 0.984 . S
N594 H607 0.985 . S
N595 C597 1.356 . S
N595 H600 0.984 . S
N595 H601 0.985 . S
C596 C590 1.379 . S
C596 C593 1.363 1_655 S
C596 N594 1.356 1_655 S
C597 C591 1.363 . S
C597 C592 1.379 . S
C597 N595 1.356 . S
N598 C590 1.356 . S
N598 H604 0.984 . S
N598 H605 0.984 . S
N599 C592 1.356 1_455 S
N599 H602 0.984 . S
N599 H603 0.985 . S
H600 N595 0.984 . S
H601 N595 0.985 . S
H602 N599 0.984 . S
H603 N599 0.985 . S
H604 N598 0.984 . S
H605 N598 0.984 . S
H606 N594 0.984 . S
H607 N594 0.985 . S
C608 C609 1.363 . S
C608 C614 1.379 . S
C608 N616 1.356 . S
C609 C608 1.363 . S
C609 C615 1.363 . S
C610 C611 1.363 . S
C610 C615 1.379 . S
C610 N617 1.356 . S
C611 C610 1.363 . S
C611 C614 1.363 . S
N612 C614 1.356 . S
N612 H624 0.984 . S
N612 H625 0.985 . S
N613 C615 1.356 . S
N613 H618 0.984 . S
N613 H619 0.985 . S
C614 C608 1.379 . S
C614 C611 1.363 . S
C614 N612 1.356 . S
C615 C609 1.363 . S
C615 C610 1.379 . S
C615 N613 1.356 . S
N616 C608 1.356 . S
N616 H622 0.984 . S
N616 H623 0.984 . S
N617 C610 1.356 . S
N617 H620 0.984 . S
N617 H621 0.985 . S
H618 N613 0.984 . S
H619 N613 0.985 . S
H620 N617 0.984 . S
H621 N617 0.985 . S
H622 N616 0.984 . S
H623 N616 0.984 . S
H624 N612 0.984 . S
H625 N612 0.985 . S
C626 C627 1.365 . S
C626 C632 1.376 1_455 S
C626 N634 1.358 . S
C627 C626 1.365 . S
C627 C633 1.363 1_545 S
C628 C629 1.363 . S
C628 C633 1.379 1_655 S
C628 N635 1.356 . S
C629 C628 1.363 . S
C629 C632 1.363 1_565 S
N630 C632 1.356 . S
N630 H642 0.984 . S
N630 H643 0.985 1_545 S
N631 C633 1.356 . S
N631 H636 0.984 . S
N631 H637 0.985 . S
C632 C626 1.376 1_655 S
C632 C629 1.363 1_545 S
C632 N630 1.356 . S
C633 C627 1.363 1_565 S
C633 C628 1.379 1_455 S
C633 N631 1.356 . S
N634 C626 1.358 . S
N634 H640 0.984 . S
N634 H641 0.984 . S
N635 C628 1.356 . S
N635 H638 0.984 . S
N635 H639 0.985 . S
H636 N631 0.984 . S
H637 N631 0.985 . S
H638 N635 0.984 . S
H639 N635 0.985 . S
H640 N634 0.984 . S
H641 N634 0.984 . S
H642 N630 0.984 . S
H643 N630 0.985 1_565 S
C644 C645 1.363 . S
C644 C650 1.379 . S
C644 N652 1.356 . S
C645 C644 1.363 . S
C645 C651 1.363 . S
C646 C647 1.363 . S
C646 C651 1.379 . S
C646 N653 1.356 . S
C647 C646 1.363 . S
C647 C650 1.363 . S
N648 C650 1.356 . S
N648 H660 0.984 . S
N648 H661 0.985 . S
N649 C651 1.356 . S
N649 H654 0.984 . S
N649 H655 0.985 . S
C650 C644 1.379 . S
C650 C647 1.363 . S
C650 N648 1.356 . S
C651 C645 1.363 . S
C651 C646 1.379 . S
C651 N649 1.356 . S
N652 C644 1.356 . S
N652 H658 0.984 . S
N652 H659 0.984 . S
N653 C646 1.356 . S
N653 H656 0.984 . S
N653 H657 0.985 . S
H654 N649 0.984 . S
H655 N649 0.985 . S
H656 N653 0.984 . S
H657 N653 0.985 . S
H658 N652 0.984 . S
H659 N652 0.984 . S
H660 N648 0.984 . S
H661 N648 0.985 . S
C662 C663 1.363 . S
C662 C668 1.379 . S
C662 N670 1.356 . S
C663 C662 1.363 . S
C663 C669 1.363 . S
C664 C665 1.363 . S
C664 C669 1.379 . S
C664 N671 1.356 1_545 S
C665 C664 1.363 . S
C665 C668 1.363 . S
N666 C668 1.356 . S
N666 H678 0.984 . S
N666 H679 0.985 . S
N667 C669 1.356 . S
N667 H672 0.984 . S
N667 H673 0.985 1_545 S
C668 C662 1.379 . S
C668 C665 1.363 . S
C668 N666 1.356 . S
C669 C663 1.363 . S
C669 C664 1.379 . S
C669 N667 1.356 . S
N670 C662 1.356 . S
N670 H676 0.984 . S
N670 H677 0.984 . S
N671 C664 1.356 1_565 S
N671 H674 0.984 . S
N671 H675 0.985 . S
H672 N667 0.984 . S
H673 N667 0.985 1_565 S
H674 N671 0.984 . S
H675 N671 0.985 . S
H676 N670 0.984 . S
H677 N670 0.984 . S
H678 N666 0.984 . S
H679 N666 0.985 . S
C680 C681 1.363 . S
C680 C686 1.379 . S
C680 N688 1.356 . S
C681 C680 1.363 . S
C681 C687 1.363 . S
C682 C683 1.363 . S
C682 C687 1.379 . S
C682 N689 1.356 . S
C683 C682 1.363 . S
C683 C686 1.363 . S
N684 C686 1.356 . S
N684 H696 0.984 . S
N684 H697 0.985 . S
N685 C687 1.356 . S
N685 H690 0.984 . S
N685 H691 0.985 . S
C686 C680 1.379 . S
C686 C683 1.363 . S
C686 N684 1.356 . S
C687 C681 1.363 . S
C687 C682 1.379 . S
C687 N685 1.356 . S
N688 C680 1.356 . S
N688 H694 0.984 . S
N688 H695 0.984 . S
N689 C682 1.356 . S
N689 H692 0.984 . S
N689 H693 0.985 . S
H690 N685 0.984 . S
H691 N685 0.985 . S
H692 N689 0.984 . S
H693 N689 0.985 . S
H694 N688 0.984 . S
H695 N688 0.984 . S
H696 N684 0.984 . S
H697 N684 0.985 . S
C698 C699 1.363 . S
C698 C704 1.379 1_655 S
C698 N706 1.356 . S
C699 C698 1.363 . S
C699 C705 1.363 1_645 S
C700 C701 1.363 . S
C700 C705 1.379 1_545 S
C700 N707 1.356 1_545 S
C701 C700 1.363 . S
C701 C704 1.363 . S
N702 C704 1.356 . S
N702 H714 0.984 . S
N702 H715 0.985 . S
N703 C705 1.356 1_655 S
N703 H708 0.984 . S
N703 H709 0.985 1_655 S
C704 C698 1.379 1_455 S
C704 C701 1.363 . S
C704 N702 1.356 . S
C705 C699 1.363 1_465 S
C705 C700 1.379 1_565 S
C705 N703 1.356 1_455 S
N706 C698 1.356 . S
N706 H712 0.984 . S
N706 H713 0.984 . S
N707 C700 1.356 1_565 S
N707 H710 0.984 1_565 S
N707 H711 0.985 . S
H708 N703 0.984 . S
H709 N703 0.985 1_455 S
H710 N707 0.984 1_545 S
H711 N707 0.985 . S
H712 N706 0.984 . S
H713 N706 0.984 . S
H714 N702 0.984 . S
H715 N702 0.985 . S
C716 C717 1.363 . S
C716 C722 1.379 . S
C716 N724 1.356 . S
C717 C716 1.363 . S
C717 C723 1.363 . S
C718 C719 1.363 . S
C718 C723 1.379 . S
C718 N725 1.356 . S
C719 C718 1.363 . S
C719 C722 1.363 . S
N720 C722 1.356 . S
N720 H732 0.984 . S
N720 H733 0.985 . S
N721 C723 1.356 . S
N721 H726 0.984 . S
N721 H727 0.985 . S
C722 C716 1.379 . S
C722 C719 1.363 . S
C722 N720 1.356 . S
C723 C717 1.363 . S
C723 C718 1.379 . S
C723 N721 1.356 . S
N724 C716 1.356 . S
N724 H730 0.984 . S
N724 H731 0.984 . S
N725 C718 1.356 . S
N725 H728 0.984 . S
N725 H729 0.985 . S
H726 N721 0.984 . S
H727 N721 0.985 . S
H728 N725 0.984 . S
H729 N725 0.985 . S
H730 N724 0.984 . S
H731 N724 0.984 . S
H732 N720 0.984 . S
H733 N720 0.985 . S
C734 C735 1.363 . S
C734 C740 1.379 . S
C734 N742 1.356 . S
C735 C734 1.363 . S
C735 C741 1.363 . S
C736 C737 1.363 . S
C736 C741 1.379 . S
C736 N743 1.356 . S
C737 C736 1.363 . S
C737 C740 1.363 . S
N738 C740 1.356 1_545 S
N738 H750 0.984 . S
N738 H751 0.985 . S
N739 C741 1.356 . S
N739 H744 0.984 . S
N739 H745 0.985 . S
C740 C734 1.379 . S
C740 C737 1.363 . S
C740 N738 1.356 1_565 S
C741 C735 1.363 . S
C741 C736 1.379 . S
C741 N739 1.356 . S
N742 C734 1.356 . S
N742 H748 0.984 . S
N742 H749 0.984 . S
N743 C736 1.356 . S
N743 H746 0.984 . S
N743 H747 0.985 . S
H744 N739 0.984 . S
H745 N739 0.985 . S
H746 N743 0.984 . S
H747 N743 0.985 . S
H748 N742 0.984 . S
H749 N742 0.984 . S
H750 N738 0.984 . S
H751 N738 0.985 . S
C752 C753 1.363 . S
C752 C758 1.379 . S
C752 N760 1.356 . S
C753 C752 1.363 . S
C753 C759 1.363 . S
C754 C755 1.363 . S
C754 C759 1.379 1_554 S
C754 N761 1.356 . S
C755 C754 1.363 . S
C755 C758 1.363 1_554 S
N756 C758 1.356 1_554 S
N756 H768 0.984 1_554 S
N756 H769 0.985 . S
N757 C759 1.356 . S
N757 H762 0.984 . S
N757 H763 0.985 . S
C758 C752 1.379 . S
C758 C755 1.363 1_556 S
C758 N756 1.356 1_556 S
C759 C753 1.363 . S
C759 C754 1.379 1_556 S
C759 N757 1.356 . S
N760 C752 1.356 . S
N760 H766 0.984 . S
N760 H767 0.984 . S
N761 C754 1.356 . S
N761 H764 0.984 . S
N761 H765 0.985 . S
H762 N757 0.984 . S
H763 N757 0.985 . S
H764 N761 0.984 . S
H765 N761 0.985 . S
H766 N760 0.984 . S
H767 N760 0.984 . S
H768 N756 0.984 1_556 S
H769 N756 0.985 . S
C770 C771 1.363 . S
C770 C776 1.379 . S
C770 N778 1.356 . S
C771 C770 1.363 . S
C771 C777 1.363 . S
C772 C773 1.363 . S
C772 C777 1.379 . S
C772 N779 1.356 . S
C773 C772 1.363 . S
C773 C776 1.363 . S
N774 C776 1.356 . S
N774 H786 0.984 . S
N774 H787 0.985 . S
N775 C777 1.356 . S
N775 H780 0.984 . S
N775 H781 0.985 . S
C776 C770 1.379 . S
C776 C773 1.363 . S
C776 N774 1.356 . S
C777 C771 1.363 . S
C777 C772 1.379 . S
C777 N775 1.356 . S
N778 C770 1.356 . S
N778 H784 0.984 . S
N778 H785 0.984 . S
N779 C772 1.356 . S
N779 H782 0.984 . S
N779 H783 0.985 . S
H780 N775 0.984 . S
H781 N775 0.985 . S
H782 N779 0.984 . S
H783 N779 0.985 . S
H784 N778 0.984 . S
H785 N778 0.984 . S
H786 N774 0.984 . S
H787 N774 0.985 . S
C788 C789 1.363 . S
C788 C794 1.379 . S
C788 N796 1.356 . S
C789 C788 1.363 . S
C789 C795 1.363 . S
C790 C791 1.363 . S
C790 C795 1.379 . S
C790 N797 1.356 . S
C791 C790 1.363 . S
C791 C794 1.363 . S
N792 C794 1.356 . S
N792 H804 0.984 . S
N792 H805 0.985 . S
N793 C795 1.356 . S
N793 H798 0.984 . S
N793 H799 0.985 . S
C794 C788 1.379 . S
C794 C791 1.363 . S
C794 N792 1.356 . S
C795 C789 1.363 . S
C795 C790 1.379 . S
C795 N793 1.356 . S
N796 C788 1.356 . S
N796 H802 0.984 . S
N796 H803 0.984 . S
N797 C790 1.356 . S
N797 H800 0.984 . S
N797 H801 0.985 . S
H798 N793 0.984 . S
H799 N793 0.985 . S
H800 N797 0.984 . S
H801 N797 0.985 . S
H802 N796 0.984 . S
H803 N796 0.984 . S
H804 N792 0.984 . S
H805 N792 0.985 . S
C806 C807 1.363 . S
C806 C812 1.379 . S
C806 N814 1.356 . S
C807 C806 1.363 . S
C807 C813 1.363 . S
C808 C809 1.363 . S
C808 C813 1.379 . S
C808 N815 1.356 . S
C809 C808 1.363 . S
C809 C812 1.363 . S
N810 C812 1.356 . S
N810 H822 0.984 . S
N810 H823 0.985 . S
N811 C813 1.356 . S
N811 H816 0.984 . S
N811 H817 0.985 . S
C812 C806 1.379 . S
C812 C809 1.363 . S
C812 N810 1.356 . S
C813 C807 1.363 . S
C813 C808 1.379 . S
C813 N811 1.356 . S
N814 C806 1.356 . S
N814 H820 0.984 . S
N814 H821 0.984 . S
N815 C808 1.356 . S
N815 H818 0.984 . S
N815 H819 0.985 . S
H816 N811 0.984 . S
H817 N811 0.985 . S
H818 N815 0.984 . S
H819 N815 0.985 . S
H820 N814 0.984 . S
H821 N814 0.984 . S
H822 N810 0.984 . S
H823 N810 0.985 . S
C824 C825 1.363 . S
C824 C830 1.379 . S
C824 N832 1.356 . S
C825 C824 1.363 . S
C825 C831 1.363 . S
C826 C827 1.363 . S
C826 C831 1.379 1_556 S
C826 N833 1.356 . S
C827 C826 1.363 . S
C827 C830 1.363 1_556 S
N828 C830 1.356 1_556 S
N828 H840 0.984 1_556 S
N828 H841 0.985 . S
N829 C831 1.356 . S
N829 H834 0.984 . S
N829 H835 0.985 1_565 S
C830 C824 1.379 . S
C830 C827 1.363 1_554 S
C830 N828 1.356 1_554 S
C831 C825 1.363 . S
C831 C826 1.379 1_554 S
C831 N829 1.356 . S
N832 C824 1.356 . S
N832 H838 0.984 . S
N832 H839 0.984 . S
N833 C826 1.356 . S
N833 H836 0.984 . S
N833 H837 0.985 . S
H834 N829 0.984 . S
H835 N829 0.985 1_545 S
H836 N833 0.984 . S
H837 N833 0.985 . S
H838 N832 0.984 . S
H839 N832 0.984 . S
H840 N828 0.984 1_554 S
H841 N828 0.985 . S
C842 C843 1.363 . S
C842 C848 1.379 . S
C842 N850 1.356 . S
C843 C842 1.363 . S
C843 C849 1.363 . S
C844 C845 1.363 . S
C844 C849 1.379 . S
C844 N851 1.356 . S
C845 C844 1.363 . S
C845 C848 1.363 . S
N846 C848 1.356 . S
N846 H858 0.984 . S
N846 H859 0.985 . S
N847 C849 1.356 . S
N847 H852 0.984 . S
N847 H853 0.985 . S
C848 C842 1.379 . S
C848 C845 1.363 . S
C848 N846 1.356 . S
C849 C843 1.363 . S
C849 C844 1.379 . S
C849 N847 1.356 . S
N850 C842 1.356 . S
N850 H856 0.984 . S
N850 H857 0.984 . S
N851 C844 1.356 . S
N851 H854 0.984 . S
N851 H855 0.985 . S
H852 N847 0.984 . S
H853 N847 0.985 . S
H854 N851 0.984 . S
H855 N851 0.985 . S
H856 N850 0.984 . S
H857 N850 0.984 . S
H858 N846 0.984 . S
H859 N846 0.985 . S
C860 C861 1.363 . S
C860 C866 1.379 . S
C860 N868 1.356 . S
C861 C860 1.363 . S
C861 C867 1.363 . S
C862 C863 1.363 . S
C862 C867 1.379 . S
C862 N869 1.356 . S
C863 C862 1.363 . S
C863 C866 1.363 . S
N864 C866 1.356 . S
N864 H876 0.984 . S
N864 H877 0.985 . S
N865 C867 1.356 . S
N865 H870 0.984 . S
N865 H871 0.985 . S
C866 C860 1.379 . S
C866 C863 1.363 . S
C866 N864 1.356 . S
C867 C861 1.363 . S
C867 C862 1.379 . S
C867 N865 1.356 . S
N868 C860 1.356 . S
N868 H874 0.973 1_545 S
N868 H875 0.984 . S
N869 C862 1.356 . S
N869 H872 0.984 . S
N869 H873 0.985 . S
H870 N865 0.984 . S
H871 N865 0.985 . S
H872 N869 0.984 . S
H873 N869 0.985 . S
H874 N868 0.973 1_565 S
H875 N868 0.984 . S
H876 N864 0.984 . S
H877 N864 0.985 . S
C878 C879 1.363 . S
C878 C884 1.379 . S
C878 N886 1.356 . S
C879 C878 1.363 . S
C879 C885 1.363 . S
C880 C881 1.363 . S
C880 C885 1.379 . S
C880 N887 1.356 . S
C881 C880 1.363 . S
C881 C884 1.363 . S
N882 C884 1.356 . S
N882 H894 0.984 . S
N882 H895 0.985 . S
N883 C885 1.356 . S
N883 H888 0.984 . S
N883 H889 0.985 . S
C884 C878 1.379 . S
C884 C881 1.363 . S
C884 N882 1.356 . S
C885 C879 1.363 . S
C885 C880 1.379 . S
C885 N883 1.356 . S
N886 C878 1.356 . S
N886 H892 0.984 . S
N886 H893 0.984 . S
N887 C880 1.356 . S
N887 H890 0.984 . S
N887 H891 0.985 . S
H888 N883 0.984 . S
H889 N883 0.985 . S
H890 N887 0.984 . S
H891 N887 0.985 . S
H892 N886 0.984 . S
H893 N886 0.984 . S
H894 N882 0.984 . S
H895 N882 0.985 . S
C896 C897 1.363 . S
C896 C902 1.379 . S
C896 N904 1.356 . S
C897 C896 1.363 . S
C897 C903 1.363 . S
C898 C899 1.363 . S
C898 C903 1.379 . S
C898 N905 1.356 . S
C899 C898 1.363 . S
C899 C902 1.363 . S
N900 C902 1.356 . S
N900 H912 0.984 . S
N900 H913 0.985 . S
N901 C903 1.356 . S
N901 H906 0.984 . S
N901 H907 0.985 . S
C902 C896 1.379 . S
C902 C899 1.363 . S
C902 N900 1.356 . S
C903 C897 1.363 . S
C903 C898 1.379 . S
C903 N901 1.356 . S
N904 C896 1.356 . S
N904 H910 0.984 . S
N904 H911 0.984 . S
N905 C898 1.356 . S
N905 H908 0.984 . S
N905 H909 0.985 . S
H906 N901 0.984 . S
H907 N901 0.985 . S
H908 N905 0.984 . S
H909 N905 0.985 . S
H910 N904 0.984 . S
H911 N904 0.984 . S
H912 N900 0.984 . S
H913 N900 0.985 . S
C914 C915 1.363 1_545 S
C914 C920 1.379 . S
C914 N922 1.356 . S
C915 C914 1.363 1_565 S
C915 C921 1.363 . S
C916 C917 1.363 1_565 S
C916 C921 1.379 . S
C916 N923 1.356 . S
C917 C916 1.363 1_545 S
C917 C920 1.363 . S
N918 C920 1.356 . S
N918 H930 0.984 . S
N918 H931 0.985 . S
N919 C921 1.356 . S
N919 H924 0.984 . S
N919 H925 0.985 . S
C920 C914 1.379 . S
C920 C917 1.363 . S
C920 N918 1.356 . S
C921 C915 1.363 . S
C921 C916 1.379 . S
C921 N919 1.356 . S
N922 C914 1.356 . S
N922 H928 0.984 . S
N922 H929 0.984 . S
N923 C916 1.356 . S
N923 H926 0.984 1_565 S
N923 H927 0.985 . S
H924 N919 0.984 . S
H925 N919 0.985 . S
H926 N923 0.984 1_545 S
H927 N923 0.985 . S
H928 N922 0.984 . S
H929 N922 0.984 . S
H930 N918 0.984 . S
H931 N918 0.985 . S
C932 C933 1.363 . S
C932 C938 1.335 1_556 S
C932 N940 1.356 . S
C933 C932 1.363 . S
C933 C939 1.363 . S
C934 C935 1.363 1_556 S
C934 C939 1.379 . S
C934 N941 1.356 . S
C935 C934 1.363 1_554 S
C935 C938 1.372 . S
N936 C938 1.400 . S
N936 H948 0.984 . S
N936 H949 0.985 . S
N937 C939 1.356 . S
N937 H942 0.984 . S
N937 H943 0.985 . S
C938 C932 1.335 1_554 S
C938 C935 1.372 . S
C938 N936 1.400 . S
C939 C933 1.363 . S
C939 C934 1.379 . S
C939 N937 1.356 . S
N940 C932 1.356 . S
N940 H946 0.984 . S
N940 H947 0.984 . S
N941 C934 1.356 . S
N941 H944 0.984 1_556 S
N941 H945 0.985 . S
H942 N937 0.984 . S
H943 N937 0.985 . S
H944 N941 0.984 1_554 S
H945 N941 0.985 . S
H946 N940 0.984 . S
H947 N940 0.984 . S
H948 N936 0.984 . S
H949 N936 0.985 . S
C950 C951 1.363 1_565 S
C950 C956 1.379 . S
C950 N958 1.356 . S
C951 C950 1.363 1_545 S
C951 C957 1.363 . S
C952 C953 1.363 . S
C952 C957 1.379 . S
C952 N959 1.356 . S
C953 C952 1.363 . S
C953 C956 1.363 1_545 S
N954 C956 1.356 . S
N954 H966 0.984 . S
N954 H967 0.985 . S
N955 C957 1.356 . S
N955 H960 0.984 . S
N955 H961 0.985 . S
C956 C950 1.379 . S
C956 C953 1.363 1_565 S
C956 N954 1.356 . S
C957 C951 1.363 . S
C957 C952 1.379 . S
C957 N955 1.356 . S
N958 C950 1.356 . S
N958 H964 0.984 . S
N958 H965 0.984 . S
N959 C952 1.356 . S
N959 H962 0.984 . S
N959 H963 0.985 . S
H960 N955 0.984 . S
H961 N955 0.985 . S
H962 N959 0.984 . S
H963 N959 0.985 . S
H964 N958 0.984 . S
H965 N958 0.984 . S
H966 N954 0.984 . S
H967 N954 0.985 . S
C968 C969 1.363 . S
C968 C974 1.379 . S
C968 N976 1.356 . S
C969 C968 1.363 . S
C969 C975 1.363 . S
C970 C971 1.363 . S
C970 C975 1.379 . S
C970 N977 1.356 . S
C971 C970 1.363 . S
C971 C974 1.363 . S
N972 C974 1.356 . S
N972 H984 0.984 . S
N972 H985 0.985 . S
N973 C975 1.356 . S
N973 H978 0.984 . S
N973 H979 0.985 . S
C974 C968 1.379 . S
C974 C971 1.363 . S
C974 N972 1.356 . S
C975 C969 1.363 . S
C975 C970 1.379 . S
C975 N973 1.356 . S
N976 C968 1.356 . S
N976 H982 0.984 . S
N976 H983 0.984 . S
N977 C970 1.356 . S
N977 H980 0.984 . S
N977 H981 0.985 . S
H978 N973 0.984 . S
H979 N973 0.985 . S
H980 N977 0.984 . S
H981 N977 0.985 . S
H982 N976 0.984 . S
H983 N976 0.984 . S
H984 N972 0.984 . S
H985 N972 0.985 . S
C986 C987 1.375 . S
C986 C992 1.379 . S
C986 N994 1.356 . S
C987 C986 1.375 . S
C987 C993 1.350 1_545 S
C988 C989 1.363 . S
C988 C993 1.379 . S
C988 N995 1.356 . S
C989 C988 1.363 . S
C989 C992 1.363 1_565 S
N990 C992 1.356 . S
N990 H1002 0.984 . S
N990 H1003 0.985 . S
N991 C993 1.356 . S
N991 H996 0.984 . S
N991 H997 0.985 . S
C992 C986 1.379 . S
C992 C989 1.363 1_545 S
C992 N990 1.356 . S
C993 C987 1.350 1_565 S
C993 C988 1.379 . S
C993 N991 1.356 . S
N994 C986 1.356 . S
N994 H1000 0.984 . S
N994 H1001 0.984 . S
N995 C988 1.356 . S
N995 H998 0.984 . S
N995 H999 0.985 . S
H996 N991 0.984 . S
H997 N991 0.985 . S
H998 N995 0.984 . S
H999 N995 0.985 . S
H1000 N994 0.984 . S
H1001 N994 0.984 . S
H1002 N990 0.984 . S
H1003 N990 0.985 . S
C1004 C1005 1.363 . S
C1004 C1010 1.379 . S
C1004 N1012 1.356 . S
C1005 C1004 1.363 . S
C1005 C1011 1.363 . S
C1006 C1007 1.363 . S
C1006 C1011 1.379 1_556 S
C1006 N1013 1.356 . S
C1007 C1006 1.363 . S
C1007 C1010 1.363 1_556 S
N1008 C1010 1.356 1_556 S
N1008 H1020 0.984 1_556 S
N1008 H1021 0.985 . S
N1009 C1011 1.356 . S
N1009 H1014 0.984 . S
N1009 H1015 0.985 . S
C1010 C1004 1.379 . S
C1010 C1007 1.363 1_554 S
C1010 N1008 1.356 1_554 S
C1011 C1005 1.363 . S
C1011 C1006 1.379 1_554 S
C1011 N1009 1.356 . S
N1012 C1004 1.356 . S
N1012 H1018 0.984 . S
N1012 H1019 0.984 . S
N1013 C1006 1.356 . S
N1013 H1016 0.984 . S
N1013 H1017 0.985 . S
H1014 N1009 0.984 . S
H1015 N1009 0.985 . S
H1016 N1013 0.984 . S
H1017 N1013 0.985 . S
H1018 N1012 0.984 . S
H1019 N1012 0.984 . S
H1020 N1008 0.984 1_554 S
H1021 N1008 0.985 . S
C1022 C1023 1.363 . S
C1022 C1028 1.379 . S
C1022 N1030 1.356 . S
C1023 C1022 1.363 . S
C1023 C1029 1.363 1_565 S
C1024 C1025 1.363 . S
C1024 C1029 1.379 . S
C1024 N1031 1.356 . S
C1025 C1024 1.363 . S
C1025 C1028 1.363 1_545 S
N1026 C1028 1.356 . S
N1026 H1038 0.984 . S
N1026 H1039 0.985 . S
N1027 C1029 1.356 . S
N1027 H1032 0.984 . S
N1027 H1033 0.985 . S
C1028 C1022 1.379 . S
C1028 C1025 1.363 1_565 S
C1028 N1026 1.356 . S
C1029 C1023 1.363 1_545 S
C1029 C1024 1.379 . S
C1029 N1027 1.356 . S
N1030 C1022 1.356 . S
N1030 H1036 0.984 . S
N1030 H1037 0.984 . S
N1031 C1024 1.356 . S
N1031 H1034 0.984 . S
N1031 H1035 0.985 . S
H1032 N1027 0.984 . S
H1033 N1027 0.985 . S
H1034 N1031 0.984 . S
H1035 N1031 0.985 . S
H1036 N1030 0.984 . S
H1037 N1030 0.984 . S
H1038 N1026 0.984 . S
H1039 N1026 0.985 . S
C1040 C1041 1.339 1_554 S
C1040 C1046 1.410 . S
C1040 N1048 1.340 1_554 S
C1041 C1040 1.339 1_556 S
C1041 C1047 1.363 1_565 S
C1042 C1043 1.363 . S
C1042 C1047 1.379 1_554 S
C1042 N1049 1.356 . S
C1043 C1042 1.363 . S
C1043 C1046 1.363 1_545 S
N1044 C1046 1.356 . S
N1044 H1056 0.984 . S
N1044 H1057 0.985 . S
N1045 C1047 1.356 . S
N1045 H1050 0.984 . S
N1045 H1051 0.985 . S
C1046 C1040 1.410 . S
C1046 C1043 1.363 1_565 S
C1046 N1044 1.356 . S
C1047 C1041 1.363 1_545 S
C1047 C1042 1.379 1_556 S
C1047 N1045 1.356 . S
N1048 C1040 1.340 1_556 S
N1048 H1054 0.984 . S
N1048 H1055 0.984 . S
N1049 C1042 1.356 . S
N1049 H1052 0.984 . S
N1049 H1053 0.985 . S
H1050 N1045 0.984 . S
H1051 N1045 0.985 . S
H1052 N1049 0.984 . S
H1053 N1049 0.985 . S
H1054 N1048 0.984 . S
H1055 N1048 0.984 . S
H1056 N1044 0.984 . S
H1057 N1044 0.985 . S
C1058 C1059 1.363 . S
C1058 C1064 1.379 . S
C1058 N1066 1.356 . S
C1059 C1058 1.363 . S
C1059 C1065 1.363 . S
C1060 C1061 1.363 . S
C1060 C1065 1.379 . S
C1060 N1067 1.356 . S
C1061 C1060 1.363 . S
C1061 C1064 1.363 . S
N1062 C1064 1.356 . S
N1062 H1074 0.984 . S
N1062 H1075 0.985 . S
N1063 C1065 1.356 . S
N1063 H1068 0.984 . S
N1063 H1069 0.985 . S
C1064 C1058 1.379 . S
C1064 C1061 1.363 . S
C1064 N1062 1.356 . S
C1065 C1059 1.363 . S
C1065 C1060 1.379 . S
C1065 N1063 1.356 . S
N1066 C1058 1.356 . S
N1066 H1072 0.984 . S
N1066 H1073 0.984 . S
N1067 C1060 1.356 . S
N1067 H1070 0.984 . S
N1067 H1071 0.985 . S
H1068 N1063 0.984 . S
H1069 N1063 0.985 . S
H1070 N1067 0.984 . S
H1071 N1067 0.985 . S
H1072 N1066 0.984 . S
H1073 N1066 0.984 . S
H1074 N1062 0.984 . S
H1075 N1062 0.985 . S
C1076 C1077 1.363 1_565 S
C1076 C1082 1.379 . S
C1076 N1084 1.356 . S
C1077 C1076 1.363 1_545 S
C1077 C1083 1.363 1_655 S
C1078 C1079 1.363 1_545 S
C1078 C1083 1.379 . S
C1078 N1085 1.356 . S
C1079 C1078 1.363 1_565 S
C1079 C1082 1.363 1_455 S
N1080 C1082 1.356 . S
N1080 H1092 0.984 . S
N1080 H1093 0.985 . S
N1081 C1083 1.356 . S
N1081 H1086 0.984 . S
N1081 H1087 0.985 . S
C1082 C1076 1.379 . S
C1082 C1079 1.363 1_655 S
C1082 N1080 1.356 . S
C1083 C1077 1.363 1_455 S
C1083 C1078 1.379 . S
C1083 N1081 1.356 . S
N1084 C1076 1.356 . S
N1084 H1090 0.984 . S
N1084 H1091 0.984 . S
N1085 C1078 1.356 . S
N1085 H1088 0.984 . S
N1085 H1089 0.985 . S
H1086 N1081 0.984 . S
H1087 N1081 0.985 . S
H1088 N1085 0.984 . S
H1089 N1085 0.985 . S
H1090 N1084 0.984 . S
H1091 N1084 0.984 . S
H1092 N1080 0.984 . S
H1093 N1080 0.985 . S
C1094 C1095 1.363 . S
C1094 C1100 1.379 . S
C1094 N1102 1.356 . S
C1095 C1094 1.363 . S
C1095 C1101 1.363 . S
C1096 C1097 1.363 . S
C1096 C1101 1.379 . S
C1096 N1103 1.356 . S
C1097 C1096 1.363 . S
C1097 C1100 1.363 . S
N1098 C1100 1.356 . S
N1098 H1110 0.984 . S
N1098 H1111 0.985 . S
N1099 C1101 1.356 . S
N1099 H1104 0.984 . S
N1099 H1105 0.985 . S
C1100 C1094 1.379 . S
C1100 C1097 1.363 . S
C1100 N1098 1.356 . S
C1101 C1095 1.363 . S
C1101 C1096 1.379 . S
C1101 N1099 1.356 . S
N1102 C1094 1.356 . S
N1102 H1108 0.984 . S
N1102 H1109 0.984 . S
N1103 C1096 1.356 . S
N1103 H1106 0.984 . S
N1103 H1107 0.985 . S
H1104 N1099 0.984 . S
H1105 N1099 0.985 . S
H1106 N1103 0.984 . S
H1107 N1103 0.985 . S
H1108 N1102 0.984 . S
H1109 N1102 0.984 . S
H1110 N1098 0.984 . S
H1111 N1098 0.985 . S
C1112 C1113 1.363 . S
C1112 C1118 1.379 . S
C1112 N1120 1.356 . S
C1113 C1112 1.363 . S
C1113 C1119 1.363 . S
C1114 C1115 1.363 . S
C1114 C1119 1.379 . S
C1114 N1121 1.356 . S
C1115 C1114 1.363 . S
C1115 C1118 1.363 . S
N1116 C1118 1.356 . S
N1116 H1128 0.984 . S
N1116 H1129 0.985 . S
N1117 C1119 1.356 . S
N1117 H1122 0.984 . S
N1117 H1123 0.985 . S
C1118 C1112 1.379 . S
C1118 C1115 1.363 . S
C1118 N1116 1.356 . S
C1119 C1113 1.363 . S
C1119 C1114 1.379 . S
C1119 N1117 1.356 . S
N1120 C1112 1.356 . S
N1120 H1126 0.984 . S
N1120 H1127 0.984 . S
N1121 C1114 1.356 . S
N1121 H1124 0.984 . S
N1121 H1125 0.985 . S
H1122 N1117 0.984 . S
H1123 N1117 0.985 . S
H1124 N1121 0.984 . S
H1125 N1121 0.985 . S
H1126 N1120 0.984 . S
H1127 N1120 0.984 . S
H1128 N1116 0.984 . S
H1129 N1116 0.985 . S
C1130 C1131 1.363 . S
C1130 C1136 1.379 . S
C1130 N1138 1.356 . S
C1131 C1130 1.363 . S
C1131 C1137 1.363 . S
C1132 C1133 1.363 . S
C1132 C1137 1.379 . S
C1132 N1139 1.356 . S
C1133 C1132 1.363 . S
C1133 C1136 1.363 . S
N1134 C1136 1.356 . S
N1134 H1146 0.984 . S
N1134 H1147 0.985 . S
N1135 C1137 1.356 . S
N1135 H1140 0.984 . S
N1135 H1141 0.985 . S
C1136 C1130 1.379 . S
C1136 C1133 1.363 . S
C1136 N1134 1.356 . S
C1137 C1131 1.363 . S
C1137 C1132 1.379 . S
C1137 N1135 1.356 . S
N1138 C1130 1.356 . S
N1138 H1144 0.984 . S
N1138 H1145 0.984 . S
N1139 C1132 1.356 . S
N1139 H1142 0.984 . S
N1139 H1143 0.985 . S
H1140 N1135 0.984 . S
H1141 N1135 0.985 . S
H1142 N1139 0.984 . S
H1143 N1139 0.985 . S
H1144 N1138 0.984 . S
H1145 N1138 0.984 . S
H1146 N1134 0.984 . S
H1147 N1134 0.985 . S
C1148 C1149 1.351 1_655 S
C1148 C1154 1.379 . S
C1148 N1156 1.356 . S
C1149 C1148 1.351 1_455 S
C1149 C1155 1.377 . S
C1150 C1151 1.363 . S
C1150 C1155 1.379 . S
C1150 N1157 1.356 . S
C1151 C1150 1.363 . S
C1151 C1154 1.363 1_455 S
N1152 C1154 1.356 . S
N1152 H1164 0.984 . S
N1152 H1165 0.985 . S
N1153 C1155 1.356 . S
N1153 H1158 0.984 . S
N1153 H1159 0.985 . S
C1154 C1148 1.379 . S
C1154 C1151 1.363 1_655 S
C1154 N1152 1.356 . S
C1155 C1149 1.377 . S
C1155 C1150 1.379 . S
C1155 N1153 1.356 . S
N1156 C1148 1.356 . S
N1156 H1162 0.984 . S
N1156 H1163 0.984 . S
N1157 C1150 1.356 . S
N1157 H1160 0.984 . S
N1157 H1161 0.985 . S
H1158 N1153 0.984 . S
H1159 N1153 0.985 . S
H1160 N1157 0.984 . S
H1161 N1157 0.985 . S
H1162 N1156 0.984 . S
H1163 N1156 0.984 . S
H1164 N1152 0.984 . S
H1165 N1152 0.985 . S
C1166 C1167 1.363 . S
C1166 C1172 1.379 1_554 S
C1166 N1174 1.356 . S
C1167 C1166 1.363 . S
C1167 C1173 1.354 1_554 S
C1168 C1169 1.363 . S
C1168 C1173 1.390 . S
C1168 N1175 1.356 . S
C1169 C1168 1.363 . S
C1169 C1172 1.363 . S
N1170 C1172 1.356 . S
N1170 H1182 0.984 . S
N1170 H1183 0.985 . S
N1171 C1173 1.351 1_554 S
N1171 H1176 0.984 . S
N1171 H1177 0.999 . S
C1172 C1166 1.379 1_556 S
C1172 C1169 1.363 . S
C1172 N1170 1.356 . S
C1173 C1167 1.354 1_556 S
C1173 C1168 1.390 . S
C1173 N1171 1.351 1_556 S
N1174 C1166 1.356 . S
N1174 H1180 0.984 . S
N1174 H1181 0.984 . S
N1175 C1168 1.356 . S
N1175 H1178 0.984 . S
N1175 H1179 0.985 . S
H1176 N1171 0.984 . S
H1177 N1171 0.999 . S
H1178 N1175 0.984 . S
H1179 N1175 0.985 . S
H1180 N1174 0.984 . S
H1181 N1174 0.984 . S
H1182 N1170 0.984 . S
H1183 N1170 0.985 . S
C1184 C1185 1.363 . S
C1184 C1190 1.379 . S
C1184 N1192 1.356 . S
C1185 C1184 1.363 . S
C1185 C1191 1.363 . S
C1186 C1187 1.363 . S
C1186 C1191 1.379 . S
C1186 N1193 1.356 . S
C1187 C1186 1.363 . S
C1187 C1190 1.363 . S
N1188 C1190 1.356 . S
N1188 H1200 0.984 . S
N1188 H1201 0.985 1_565 S
N1189 C1191 1.356 . S
N1189 H1194 0.984 . S
N1189 H1195 0.985 . S
C1190 C1184 1.379 . S
C1190 C1187 1.363 . S
C1190 N1188 1.356 . S
C1191 C1185 1.363 . S
C1191 C1186 1.379 . S
C1191 N1189 1.356 . S
N1192 C1184 1.356 . S
N1192 H1198 0.984 . S
N1192 H1199 0.984 . S
N1193 C1186 1.356 . S
N1193 H1196 0.984 . S
N1193 H1197 0.985 . S
H1194 N1189 0.984 . S
H1195 N1189 0.985 . S
H1196 N1193 0.984 . S
H1197 N1193 0.985 . S
H1198 N1192 0.984 . S
H1199 N1192 0.984 . S
H1200 N1188 0.984 . S
H1201 N1188 0.985 1_545 S
C1202 C1203 1.363 . S
C1202 C1208 1.379 . S
C1202 N1210 1.356 . S
C1203 C1202 1.363 . S
C1203 C1209 1.363 . S
C1204 C1205 1.363 . S
C1204 C1209 1.379 . S
C1204 N1211 1.356 . S
C1205 C1204 1.363 . S
C1205 C1208 1.363 . S
N1206 C1208 1.356 . S
N1206 H1218 0.984 . S
N1206 H1219 0.985 . S
N1207 C1209 1.356 . S
N1207 H1212 0.984 . S
N1207 H1213 0.985 . S
C1208 C1202 1.379 . S
C1208 C1205 1.363 . S
C1208 N1206 1.356 . S
C1209 C1203 1.363 . S
C1209 C1204 1.379 . S
C1209 N1207 1.356 . S
N1210 C1202 1.356 . S
N1210 H1216 0.984 . S
N1210 H1217 0.984 . S
N1211 C1204 1.356 . S
N1211 H1214 0.984 . S
N1211 H1215 0.985 . S
H1212 N1207 0.984 . S
H1213 N1207 0.985 . S
H1214 N1211 0.984 . S
H1215 N1211 0.985 . S
H1216 N1210 0.984 . S
H1217 N1210 0.984 . S
H1218 N1206 0.984 . S
H1219 N1206 0.985 . S
C1220 C1221 1.363 . S
C1220 C1226 1.379 . S
C1220 N1228 1.356 . S
C1221 C1220 1.363 . S
C1221 C1227 1.363 . S
C1222 C1223 1.363 . S
C1222 C1227 1.379 . S
C1222 N1229 1.356 . S
C1223 C1222 1.363 . S
C1223 C1226 1.363 . S
N1224 C1226 1.356 . S
N1224 H1236 0.984 . S
N1224 H1237 0.985 . S
N1225 C1227 1.356 . S
N1225 H1230 0.984 . S
N1225 H1231 0.985 . S
C1226 C1220 1.379 . S
C1226 C1223 1.363 . S
C1226 N1224 1.356 . S
C1227 C1221 1.363 . S
C1227 C1222 1.379 . S
C1227 N1225 1.356 . S
N1228 C1220 1.356 . S
N1228 H1234 0.984 . S
N1228 H1235 0.984 1_545 S
N1229 C1222 1.356 . S
N1229 H1232 0.984 . S
N1229 H1233 0.985 . S
H1230 N1225 0.984 . S
H1231 N1225 0.985 . S
H1232 N1229 0.984 . S
H1233 N1229 0.985 . S
H1234 N1228 0.984 . S
H1235 N1228 0.984 1_565 S
H1236 N1224 0.984 . S
H1237 N1224 0.985 . S
C1238 C1239 1.363 . S
C1238 C1244 1.379 . S
C1238 N1246 1.356 . S
C1239 C1238 1.363 . S
C1239 C1245 1.363 . S
C1240 C1241 1.363 . S
C1240 C1245 1.379 . S
C1240 N1247 1.356 . S
C1241 C1240 1.363 . S
C1241 C1244 1.363 . S
N1242 C1244 1.356 . S
N1242 H1254 0.984 . S
N1242 H1255 0.985 . S
N1243 C1245 1.356 . S
N1243 H1248 0.984 . S
N1243 H1249 0.985 . S
C1244 C1238 1.379 . S
C1244 C1241 1.363 . S
C1244 N1242 1.356 . S
C1245 C1239 1.363 . S
C1245 C1240 1.379 . S
C1245 N1243 1.356 . S
N1246 C1238 1.356 . S
N1246 H1252 0.984 . S
N1246 H1253 0.984 . S
N1247 C1240 1.356 . S
N1247 H1250 0.984 . S
N1247 H1251 0.985 . S
H1248 N1243 0.984 . S
H1249 N1243 0.985 . S
H1250 N1247 0.984 . S
H1251 N1247 0.985 . S
H1252 N1246 0.984 . S
H1253 N1246 0.984 . S
H1254 N1242 0.984 . S
H1255 N1242 0.985 . S
C1256 C1257 1.363 . S
C1256 C1262 1.379 . S
C1256 N1264 1.356 . S
C1257 C1256 1.363 . S
C1257 C1263 1.363 . S
C1258 C1259 1.363 . S
C1258 C1263 1.379 . S
C1258 N1265 1.356 . S
C1259 C1258 1.363 . S
C1259 C1262 1.363 . S
N1260 C1262 1.356 . S
N1260 H1272 0.984 . S
N1260 H1273 0.985 . S
N1261 C1263 1.356 . S
N1261 H1266 0.984 . S
N1261 H1267 0.985 . S
C1262 C1256 1.379 . S
C1262 C1259 1.363 . S
C1262 N1260 1.356 . S
C1263 C1257 1.363 . S
C1263 C1258 1.379 . S
C1263 N1261 1.356 . S
N1264 C1256 1.356 . S
N1264 H1270 0.984 . S
N1264 H1271 0.984 . S
N1265 C1258 1.356 . S
N1265 H1268 0.984 . S
N1265 H1269 0.985 . S
H1266 N1261 0.984 . S
H1267 N1261 0.985 . S
H1268 N1265 0.984 . S
H1269 N1265 0.985 . S
H1270 N1264 0.984 . S
H1271 N1264 0.984 . S
H1272 N1260 0.984 . S
H1273 N1260 0.985 . S
C1274 C1275 1.363 . S
C1274 C1280 1.379 . S
C1274 N1282 1.356 . S
C1275 C1274 1.363 . S
C1275 C1281 1.363 . S
C1276 C1277 1.363 . S
C1276 C1281 1.379 . S
C1276 N1283 1.356 . S
C1277 C1276 1.363 . S
C1277 C1280 1.363 . S
N1278 C1280 1.356 . S
N1278 H1290 0.984 . S
N1278 H1291 0.985 . S
N1279 C1281 1.356 . S
N1279 H1284 0.984 . S
N1279 H1285 0.985 . S
C1280 C1274 1.379 . S
C1280 C1277 1.363 . S
C1280 N1278 1.356 . S
C1281 C1275 1.363 . S
C1281 C1276 1.379 . S
C1281 N1279 1.356 . S
N1282 C1274 1.356 . S
N1282 H1288 0.984 . S
N1282 H1289 0.984 . S
N1283 C1276 1.356 . S
N1283 H1286 0.984 . S
N1283 H1287 0.985 . S
H1284 N1279 0.984 . S
H1285 N1279 0.985 . S
H1286 N1283 0.984 . S
H1287 N1283 0.985 . S
H1288 N1282 0.984 . S
H1289 N1282 0.984 . S
H1290 N1278 0.984 . S
H1291 N1278 0.985 . S
C1292 C1293 1.363 . S
C1292 C1298 1.379 . S
C1292 N1300 1.356 . S
C1293 C1292 1.363 . S
C1293 C1299 1.363 . S
C1294 C1295 1.363 . S
C1294 C1299 1.379 . S
C1294 N1301 1.356 . S
C1295 C1294 1.363 . S
C1295 C1298 1.363 . S
N1296 C1298 1.356 . S
N1296 H1308 0.984 . S
N1296 H1309 0.985 . S
N1297 C1299 1.356 . S
N1297 H1302 0.984 . S
N1297 H1303 0.985 . S
C1298 C1292 1.379 . S
C1298 C1295 1.363 . S
C1298 N1296 1.356 . S
C1299 C1293 1.363 . S
C1299 C1294 1.379 . S
C1299 N1297 1.356 . S
N1300 C1292 1.356 . S
N1300 H1306 0.984 . S
N1300 H1307 0.984 . S
N1301 C1294 1.356 . S
N1301 H1304 0.984 . S
N1301 H1305 0.985 . S
H1302 N1297 0.984 . S
H1303 N1297 0.985 . S
H1304 N1301 0.984 . S
H1305 N1301 0.985 . S
H1306 N1300 0.984 . S
H1307 N1300 0.984 . S
H1308 N1296 0.984 . S
H1309 N1296 0.985 . S
C1310 C1311 1.363 . S
C1310 C1316 1.379 . S
C1310 N1318 1.356 . S
C1311 C1310 1.363 . S
C1311 C1317 1.363 . S
C1312 C1313 1.363 . S
C1312 C1317 1.379 . S
C1312 N1319 1.356 . S
C1313 C1312 1.363 . S
C1313 C1316 1.363 . S
N1314 C1316 1.356 . S
N1314 H1326 0.984 . S
N1314 H1327 0.985 . S
N1315 C1317 1.356 . S
N1315 H1320 0.984 . S
N1315 H1321 0.985 . S
C1316 C1310 1.379 . S
C1316 C1313 1.363 . S
C1316 N1314 1.356 . S
C1317 C1311 1.363 . S
C1317 C1312 1.379 . S
C1317 N1315 1.356 . S
N1318 C1310 1.356 . S
N1318 H1324 0.984 . S
N1318 H1325 0.984 . S
N1319 C1312 1.356 . S
N1319 H1322 0.984 . S
N1319 H1323 0.985 . S
H1320 N1315 0.984 . S
H1321 N1315 0.985 . S
H1322 N1319 0.984 . S
H1323 N1319 0.985 . S
H1324 N1318 0.984 . S
H1325 N1318 0.984 . S
H1326 N1314 0.984 . S
H1327 N1314 0.985 . S
C1328 C1329 1.363 . S
C1328 C1334 1.379 . S
C1328 N1336 1.356 . S
C1329 C1328 1.363 . S
C1329 C1335 1.363 . S
C1330 C1331 1.363 . S
C1330 C1335 1.379 . S
C1330 N1337 1.356 . S
C1331 C1330 1.363 . S
C1331 C1334 1.363 . S
N1332 C1334 1.356 . S
N1332 H1344 0.984 . S
N1332 H1345 0.985 . S
N1333 C1335 1.356 . S
N1333 H1338 0.984 . S
N1333 H1339 0.985 . S
C1334 C1328 1.379 . S
C1334 C1331 1.363 . S
C1334 N1332 1.356 . S
C1335 C1329 1.363 . S
C1335 C1330 1.379 . S
C1335 N1333 1.356 . S
N1336 C1328 1.356 . S
N1336 H1342 0.984 . S
N1336 H1343 0.984 . S
N1337 C1330 1.356 . S
N1337 H1340 0.984 . S
N1337 H1341 0.985 . S
H1338 N1333 0.984 . S
H1339 N1333 0.985 . S
H1340 N1337 0.984 . S
H1341 N1337 0.985 . S
H1342 N1336 0.984 . S
H1343 N1336 0.984 . S
H1344 N1332 0.984 . S
H1345 N1332 0.985 . S
C1346 C1347 1.363 . S
C1346 C1352 1.379 . S
C1346 N1354 1.356 1_545 S
C1347 C1346 1.363 . S
C1347 C1353 1.363 . S
C1348 C1349 1.363 . S
C1348 C1353 1.379 . S
C1348 N1355 1.356 . S
C1349 C1348 1.363 . S
C1349 C1352 1.363 . S
N1350 C1352 1.356 . S
N1350 H1362 0.984 1_545 S
N1350 H1363 0.985 . S
N1351 C1353 1.356 . S
N1351 H1356 0.984 . S
N1351 H1357 0.985 . S
C1352 C1346 1.379 . S
C1352 C1349 1.363 . S
C1352 N1350 1.356 . S
C1353 C1347 1.363 . S
C1353 C1348 1.379 . S
C1353 N1351 1.356 . S
N1354 C1346 1.356 1_565 S
N1354 H1360 0.984 . S
N1354 H1361 0.984 . S
N1355 C1348 1.356 . S
N1355 H1358 0.984 . S
N1355 H1359 0.985 . S
H1356 N1351 0.984 . S
H1357 N1351 0.985 . S
H1358 N1355 0.984 . S
H1359 N1355 0.985 . S
H1360 N1354 0.984 . S
H1361 N1354 0.984 . S
H1362 N1350 0.984 1_565 S
H1363 N1350 0.985 . S
C1364 C1365 1.363 . S
C1364 C1370 1.379 . S
C1364 N1372 1.356 . S
C1365 C1364 1.363 . S
C1365 C1371 1.363 . S
C1366 C1367 1.363 . S
C1366 C1371 1.379 . S
C1366 N1373 1.356 . S
C1367 C1366 1.363 . S
C1367 C1370 1.363 . S
N1368 C1370 1.356 . S
N1368 H1380 0.984 . S
N1368 H1381 0.985 . S
N1369 C1371 1.356 . S
N1369 H1374 0.984 . S
N1369 H1375 0.985 . S
C1370 C1364 1.379 . S
C1370 C1367 1.363 . S
C1370 N1368 1.356 . S
C1371 C1365 1.363 . S
C1371 C1366 1.379 . S
C1371 N1369 1.356 . S
N1372 C1364 1.356 . S
N1372 H1378 0.984 . S
N1372 H1379 0.984 . S
N1373 C1366 1.356 . S
N1373 H1376 0.984 . S
N1373 H1377 0.985 . S
H1374 N1369 0.984 . S
H1375 N1369 0.985 . S
H1376 N1373 0.984 . S
H1377 N1373 0.985 . S
H1378 N1372 0.984 . S
H1379 N1372 0.984 . S
H1380 N1368 0.984 . S
H1381 N1368 0.985 . S
C1382 C1383 1.363 1_545 S
C1382 C1388 1.379 . S
C1382 N1390 1.356 . S
C1383 C1382 1.363 1_565 S
C1383 C1389 1.363 . S
C1384 C1385 1.363 . S
C1384 C1389 1.379 . S
C1384 N1391 1.356 . S
C1385 C1384 1.363 . S
C1385 C1388 1.363 1_565 S
N1386 C1388 1.356 . S
N1386 H1398 0.984 . S
N1386 H1399 0.985 . S
N1387 C1389 1.356 . S
N1387 H1392 0.984 . S
N1387 H1393 0.985 . S
C1388 C1382 1.379 . S
C1388 C1385 1.363 1_545 S
C1388 N1386 1.356 . S
C1389 C1383 1.363 . S
C1389 C1384 1.379 . S
C1389 N1387 1.356 . S
N1390 C1382 1.356 . S
N1390 H1396 0.984 . S
N1390 H1397 0.984 . S
N1391 C1384 1.356 . S
N1391 H1394 0.984 . S
N1391 H1395 0.985 . S
H1392 N1387 0.984 . S
H1393 N1387 0.985 . S
H1394 N1391 0.984 . S
H1395 N1391 0.985 . S
H1396 N1390 0.984 . S
H1397 N1390 0.984 . S
H1398 N1386 0.984 . S
H1399 N1386 0.985 . S
C1400 C1401 1.363 . S
C1400 C1406 1.379 . S
C1400 N1408 1.356 . S
C1401 C1400 1.363 . S
C1401 C1407 1.363 . S
C1402 C1403 1.363 . S
C1402 C1407 1.379 . S
C1402 N1409 1.356 . S
C1403 C1402 1.363 . S
C1403 C1406 1.363 . S
N1404 C1406 1.356 . S
N1404 H1416 0.984 . S
N1404 H1417 0.985 . S
N1405 C1407 1.356 . S
N1405 H1410 0.984 . S
N1405 H1411 0.985 . S
C1406 C1400 1.379 . S
C1406 C1403 1.363 . S
C1406 N1404 1.356 . S
C1407 C1401 1.363 . S
C1407 C1402 1.379 . S
C1407 N1405 1.356 . S
N1408 C1400 1.356 . S
N1408 H1414 0.984 . S
N1408 H1415 0.984 . S
N1409 C1402 1.356 . S
N1409 H1412 0.984 . S
N1409 H1413 0.985 . S
H1410 N1405 0.984 . S
H1411 N1405 0.985 . S
H1412 N1409 0.984 . S
H1413 N1409 0.985 . S
H1414 N1408 0.984 . S
H1415 N1408 0.984 . S
H1416 N1404 0.984 . S
H1417 N1404 0.985 . S
C1418 C1419 1.363 . S
C1418 C1424 1.379 . S
C1418 N1426 1.356 1_565 S
C1419 C1418 1.363 . S
C1419 C1425 1.363 . S
C1420 C1421 1.363 . S
C1420 C1425 1.379 . S
C1420 N1427 1.356 . S
C1421 C1420 1.363 . S
C1421 C1424 1.363 . S
N1422 C1424 1.356 . S
N1422 H1434 0.984 1_565 S
N1422 H1435 0.985 . S
N1423 C1425 1.356 . S
N1423 H1428 0.984 . S
N1423 H1429 0.985 . S
C1424 C1418 1.379 . S
C1424 C1421 1.363 . S
C1424 N1422 1.356 . S
C1425 C1419 1.363 . S
C1425 C1420 1.379 . S
C1425 N1423 1.356 . S
N1426 C1418 1.356 1_545 S
N1426 H1432 0.984 . S
N1426 H1433 0.984 . S
N1427 C1420 1.356 . S
N1427 H1430 0.984 . S
N1427 H1431 0.985 . S
H1428 N1423 0.984 . S
H1429 N1423 0.985 . S
H1430 N1427 0.984 . S
H1431 N1427 0.985 . S
H1432 N1426 0.984 . S
H1433 N1426 0.984 . S
H1434 N1422 0.984 1_545 S
H1435 N1422 0.985 . S
C1436 C1437 1.363 . S
C1436 C1442 1.379 . S
C1436 N1444 1.356 . S
C1437 C1436 1.363 . S
C1437 C1443 1.363 . S
C1438 C1439 1.363 . S
C1438 C1443 1.379 . S
C1438 N1445 1.356 . S
C1439 C1438 1.363 . S
C1439 C1442 1.363 . S
N1440 C1442 1.356 . S
N1440 H1452 0.984 . S
N1440 H1453 0.985 . S
N1441 C1443 1.356 . S
N1441 H1446 0.984 . S
N1441 H1447 0.985 . S
C1442 C1436 1.379 . S
C1442 C1439 1.363 . S
C1442 N1440 1.356 . S
C1443 C1437 1.363 . S
C1443 C1438 1.379 . S
C1443 N1441 1.356 . S
N1444 C1436 1.356 . S
N1444 H1450 0.984 . S
N1444 H1451 0.984 . S
N1445 C1438 1.356 . S
N1445 H1448 0.984 . S
N1445 H1449 0.985 . S
H1446 N1441 0.984 . S
H1447 N1441 0.985 . S
H1448 N1445 0.984 . S
H1449 N1445 0.985 . S
H1450 N1444 0.984 . S
H1451 N1444 0.984 . S
H1452 N1440 0.984 . S
H1453 N1440 0.985 . S
C1454 C1455 1.363 . S
C1454 C1460 1.379 . S
C1454 N1462 1.356 1_545 S
C1455 C1454 1.363 . S
C1455 C1461 1.363 . S
C1456 C1457 1.363 . S
C1456 C1461 1.379 . S
C1456 N1463 1.356 . S
C1457 C1456 1.363 . S
C1457 C1460 1.363 . S
N1458 C1460 1.356 . S
N1458 H1470 0.995 . S
N1458 H1471 0.985 . S
N1459 C1461 1.356 . S
N1459 H1464 0.984 . S
N1459 H1465 0.985 . S
C1460 C1454 1.379 . S
C1460 C1457 1.363 . S
C1460 N1458 1.356 . S
C1461 C1455 1.363 . S
C1461 C1456 1.379 . S
C1461 N1459 1.356 . S
N1462 C1454 1.356 1_565 S
N1462 H1468 0.984 . S
N1462 H1469 0.984 . S
N1463 C1456 1.356 . S
N1463 H1466 0.984 . S
N1463 H1467 0.985 . S
H1464 N1459 0.984 . S
H1465 N1459 0.985 . S
H1466 N1463 0.984 . S
H1467 N1463 0.985 . S
H1468 N1462 0.984 . S
H1469 N1462 0.984 . S
H1470 N1458 0.995 . S
H1471 N1458 0.985 . S
C465 C224 2.091 . S
C467 C5 2.134 . S
C483 C369 2.362 . S
C485 C39 2.507 . S
C501 C63 2.412 . S
C503 C166 2.408 . S
C519 C427 2.216 . S
C521 C92 2.205 . S
C537 C108 2.289 . S
C539 C121 2.281 . S
C555 C150 2.395 . S
C557 C253 2.296 . S
C573 C179 2.423 . S
C575 C37 2.165 . S
C591 C311 2.377 . S
C593 C208 2.339 . S
C609 C456 2.091 . S
C611 C237 2.134 . S
C627 C271 2.507 . S
C629 C137 2.362 . S
C645 C398 2.408 . S
C647 C295 2.412 . S
C663 C195 2.216 . S
C665 C324 2.205 1_545 S
C681 C340 2.289 . S
C683 C353 2.281 . S
C699 C382 2.395 1_545 S
C701 C21 2.296 . S
C717 C411 2.423 . S
C719 C269 2.165 . S
C735 C79 2.377 . S
C737 C440 2.339 1_565 S
C753 C282 1.288 . S
C755 C3 1.272 . S
C771 C44 0.970 . S
C773 C298 1.088 . S
C789 C61 0.979 . S
C791 C327 1.091 . S
C807 C90 1.176 . S
C809 C240 1.331 . S
C825 C385 0.859 . S
C827 C119 0.829 . S
C843 C148 1.462 . S
C845 C414 1.592 . S
C861 C443 1.265 . S
C863 C177 1.148 . S
C879 C206 1.433 . S
C881 C356 1.606 . S
C897 C50 1.288 . S
C899 C235 1.272 . S
C915 C66 1.088 . S
C917 C276 0.970 . S
C933 C95 1.091 . S
C935 C293 0.979 . S
C951 C8 1.331 . S
C953 C322 1.176 . S
C969 C351 0.829 . S
C971 C153 0.859 . S
C987 C182 1.596 . S
C989 C380 1.462 . S
C1005 C211 1.265 . S
C1007 C409 1.148 . S
C1023 C438 1.433 . S
C1025 C124 1.606 1_545 S
C1041 C129 2.238 . S
C1043 C13 2.240 . S
C1059 C42 1.854 . S
C1061 C390 2.004 . S
C1077 C187 2.068 . S
C1079 C71 2.071 . S
C1095 C448 2.423 . S
C1097 C100 2.421 . S
C1113 C274 1.854 . S
C1115 C158 2.004 . S
C1131 C216 2.423 . S
C1133 C332 2.421 . S
C1149 C245 2.239 1_455 S
C1151 C361 2.238 . S
C1167 C303 2.071 . S
C1169 C419 2.068 . S
C1185 C218 1.509 . S
C1187 C10 1.458 . S
C1203 C363 1.669 . S
C1205 C34 1.530 . S
C1221 C68 1.216 . S
C1223 C160 1.255 . S
C1239 C97 1.684 . S
C1241 C421 1.704 . S
C1257 C126 1.406 . S
C1259 C102 1.440 . S
C1275 C155 1.608 . S
C1277 C247 1.702 . S
C1293 C184 1.946 . S
C1295 C32 2.002 . S
C1311 C305 1.804 . S
C1313 C213 1.760 . S
C1329 C242 1.458 . S
C1331 C450 1.509 . S
C1347 C131 1.669 . S
C1349 C266 1.530 . S
C1365 C392 1.255 . S
C1367 C300 1.216 . S
C1383 C329 1.684 . S
C1385 C189 1.704 1_565 S
C1401 C334 1.440 . S
C1403 C358 1.406 . S
C1419 C15 1.702 1_565 S
C1421 C387 1.608 . S
C1437 C416 1.946 . S
C1439 C264 2.002 . S
C1455 C73 1.804 1_545 S
C1457 C445 1.760 . S
