# Generated by pormake.
# Topology wjs, (5)-cn, num edge types: 1
# Building blocks:
#     Node 0, Type 0, BuildingBlock: BEQFEK_clean_sbu_0, # of connection points: 5
#     Node 1, Type 0, BuildingBlock: BEQFEK_clean_sbu_0, # of connection points: 5
#     Node 2, Type 0, BuildingBlock: BEQFEK_clean_sbu_0, # of connection points: 5
#     Node 3, Type 0, BuildingBlock: BEQFEK_clean_sbu_0, # of connection points: 5
#     Node 4, Type 0, BuildingBlock: BEQFEK_clean_sbu_0, # of connection points: 5
#     Node 5, Type 0, BuildingBlock: BEQFEK_clean_sbu_0, # of connection points: 5
#     Node 6, Type 0, BuildingBlock: BEQFEK_clean_sbu_0, # of connection points: 5
#     Node 7, Type 0, BuildingBlock: BEQFEK_clean_sbu_0, # of connection points: 5
#     Node 8, Type 0, BuildingBlock: BEQFEK_clean_sbu_0, # of connection points: 5
#     Node 9, Type 0, BuildingBlock: BEQFEK_clean_sbu_0, # of connection points: 5
#     Node 10, Type 0, BuildingBlock: BEQFEK_clean_sbu_0, # of connection points: 5
#     Node 11, Type 0, BuildingBlock: BEQFEK_clean_sbu_0, # of connection points: 5
#     Edge 12, Type (0, 0), BuildingBlock: AJUNOK_clean_linker_0, # of connection points: 2
#     Edge 13, Type (0, 0), BuildingBlock: AJUNOK_clean_linker_0, # of connection points: 2
#     Edge 14, Type (0, 0), BuildingBlock: AJUNOK_clean_linker_0, # of connection points: 2
#     Edge 15, Type (0, 0), BuildingBlock: AJUNOK_clean_linker_0, # of connection points: 2
#     Edge 16, Type (0, 0), BuildingBlock: AJUNOK_clean_linker_0, # of connection points: 2
#     Edge 17, Type (0, 0), BuildingBlock: AJUNOK_clean_linker_0, # of connection points: 2
#     Edge 18, Type (0, 0), BuildingBlock: AJUNOK_clean_linker_0, # of connection points: 2
#     Edge 19, Type (0, 0), BuildingBlock: AJUNOK_clean_linker_0, # of connection points: 2
#     Edge 20, Type (0, 0), BuildingBlock: AJUNOK_clean_linker_0, # of connection points: 2
#     Edge 21, Type (0, 0), BuildingBlock: AJUNOK_clean_linker_0, # of connection points: 2
#     Edge 22, Type (0, 0), BuildingBlock: AJUNOK_clean_linker_0, # of connection points: 2
#     Edge 23, Type (0, 0), BuildingBlock: AJUNOK_clean_linker_0, # of connection points: 2
#     Edge 24, Type (0, 0), BuildingBlock: AJUNOK_clean_linker_0, # of connection points: 2
#     Edge 25, Type (0, 0), BuildingBlock: AJUNOK_clean_linker_0, # of connection points: 2
#     Edge 26, Type (0, 0), BuildingBlock: AJUNOK_clean_linker_0, # of connection points: 2
#     Edge 27, Type (0, 0), BuildingBlock: AJUNOK_clean_linker_0, # of connection points: 2
#     Edge 28, Type (0, 0), BuildingBlock: AJUNOK_clean_linker_0, # of connection points: 2
#     Edge 29, Type (0, 0), BuildingBlock: AJUNOK_clean_linker_0, # of connection points: 2
#     Edge 30, Type (0, 0), BuildingBlock: AJUNOK_clean_linker_0, # of connection points: 2
#     Edge 31, Type (0, 0), BuildingBlock: AJUNOK_clean_linker_0, # of connection points: 2
#     Edge 32, Type (0, 0), BuildingBlock: AJUNOK_clean_linker_0, # of connection points: 2
#     Edge 33, Type (0, 0), BuildingBlock: AJUNOK_clean_linker_0, # of connection points: 2
#     Edge 34, Type (0, 0), BuildingBlock: AJUNOK_clean_linker_0, # of connection points: 2
#     Edge 35, Type (0, 0), BuildingBlock: AJUNOK_clean_linker_0, # of connection points: 2
#     Edge 36, Type (0, 0), BuildingBlock: AJUNOK_clean_linker_0, # of connection points: 2
#     Edge 37, Type (0, 0), BuildingBlock: AJUNOK_clean_linker_0, # of connection points: 2
#     Edge 38, Type (0, 0), BuildingBlock: AJUNOK_clean_linker_0, # of connection points: 2
#     Edge 39, Type (0, 0), BuildingBlock: AJUNOK_clean_linker_0, # of connection points: 2
#     Edge 40, Type (0, 0), BuildingBlock: AJUNOK_clean_linker_0, # of connection points: 2
#     Edge 41, Type (0, 0), BuildingBlock: AJUNOK_clean_linker_0, # of connection points: 2
# Relax obj value: 0.279
# Max RMSD: 0.228
# Mean RMSD: 0.228
data_MOF--net-wjs--node1-BEQFEK_clean_sbu_0--edge1-AJUNOK_clean_linker_0
_symmetry_space_group_name_H-M    P1
_symmetry_Int_Tables_number       1
_symmetry_cell_setting            triclinic
loop_
_symmetry_equiv_pos_as_xyz
'x, y, z'
_cell_length_a     23.320342
_cell_length_b     23.315729
_cell_length_c     56.541496
_cell_angle_alpha  89.964652
_cell_angle_beta   89.98198
_cell_angle_gamma 120.06701
loop_
_atom_site_label
_atom_site_type_symbol
_atom_site_fract_x
_atom_site_fract_y
_atom_site_fract_z
_atom_type_partial_charge
Co0 Co 0.20974 0.28954 0.01656 0.0
Co1 Co 0.19329 0.4111 0.00374 0.0
C2 C 0.2039 0.319 0.96719 0.0
O3 O 0.20351 0.27881 0.98249 0.0
O4 O 0.20112 0.37056 0.97301 0.0
C5 C 0.27247 0.22163 0.03549 0.0
O6 O 0.32441 0.26353 0.02312 0.0
C7 C 0.09664 0.44717 0.98735 0.0
C8 C 0.13407 0.54673 0.0026 0.0
C9 C 0.08057 0.49643 0.99066 0.0
N10 N 0.15652 0.46713 -0.00292 0.0
N11 N 0.17907 0.52722 0.00582 0.0
C12 C 0.05229 0.37898 0.9779 0.0
H13 H 0.06903 0.34445 0.98392 0.0
H14 H 1.00031 0.36055 0.98352 0.0
H15 H 0.05388 0.38074 0.95829 0.0
C16 C 0.09231 0.25242 0.04491 0.0
N17 N 0.13765 0.29227 0.029 0.0
N18 N 0.13408 0.34623 0.02615 0.0
C19 C 0.08748 0.34335 0.04117 0.0
C20 C 0.05924 0.28345 0.05335 0.0
C21 C 0.08426 0.188 0.05341 0.0
H22 H 0.09069 0.1609 0.03848 0.0
H23 H 0.03471 0.15678 0.06154 0.0
H24 H 0.12242 0.19784 0.06695 0.0
O25 O 0.2932 0.37114 0.02321 0.0
O26 O 0.2876 0.46167 0.016 0.0
H27 H 0.12283 0.4475 0.04455 0.0
H28 H 0.0542 0.39544 0.06388 0.0
C29 C 0.07573 0.39971 0.04601 0.0
H30 H 0.04017 0.39895 0.03283 0.0
H31 H 0.22328 0.55324 0.01525 0.0
O32 O 0.21803 0.22099 0.0334 0.0
C33 C 0.32027 0.43387 0.02268 0.0
Co34 Co 0.92469 0.24219 0.19441 0.0
Co35 Co 0.79284 0.19436 0.167 0.0
C36 C 0.90916 0.21545 0.14101 0.0
O37 O 0.94095 0.23483 0.1604 0.0
O38 O 0.84683 0.19253 0.14039 0.0
C39 C 0.0123 0.20349 0.21044 0.0
O40 O 0.97526 0.15341 0.19645 0.0
C41 C 0.66644 0.10228 0.14379 0.0
C42 C 0.5973 0.12129 0.16444 0.0
C43 C 0.59957 0.0783 0.14806 0.0
N44 N 0.70192 0.15596 0.15756 0.0
N45 N 0.66013 0.16799 0.16933 0.0
C46 C 0.69601 0.06971 0.12937 0.0
H47 H 0.74149 0.07587 0.13796 0.0
H48 H 0.66009 0.01622 0.12677 0.0
H49 H 0.71016 0.09408 0.11179 0.0
C50 C 0.83973 0.13098 0.22536 0.0
N51 N 0.84877 0.16867 0.20616 0.0
N52 N 0.79414 0.14279 0.1936 0.0
C53 C 0.7495 0.0847 0.20389 0.0
C54 C 0.77745 0.07548 0.22425 0.0
C55 C 0.88605 0.15151 0.24601 0.0
H56 H 0.91518 0.126 0.24521 0.0
H57 H 0.85757 0.1365 0.26282 0.0
H58 H 0.91993 0.2059 0.24611 0.0
O59 O 0.91886 0.32091 0.19819 0.0
O60 O 0.83429 0.29456 0.17384 0.0
H61 H 0.65038 0.05831 0.19481 0.0
H62 H 0.65947 0.9889 0.20361 0.0
C63 C 0.68311 0.03666 0.1939 0.0
H64 H 0.68876 0.02631 0.17525 0.0
H65 H 0.67446 0.20486 0.18215 0.0
O66 O 1.00143 0.25154 0.21174 0.0
C67 C 0.8824 0.33699 0.18664 0.0
Co68 Co 0.71892 0.91872 0.35246 0.0
Co69 Co 0.60224 0.78385 0.33464 0.0
C70 C 0.70166 0.89465 0.30204 0.0
O71 O 0.73799 0.93115 0.3188 0.0
O72 O 0.64944 0.83879 0.30583 0.0
C73 C 0.78091 0.0434 0.3763 0.0
O74 O 0.73986 0.05603 0.3646 0.0
C75 C 0.56619 0.65302 0.31614 0.0
C76 C 0.4632 0.59193 0.32864 0.0
C77 C 0.51486 0.58817 0.31809 0.0
N78 N 0.54621 0.69332 0.32544 0.0
N79 N 0.48402 0.65651 0.3324 0.0
C80 C 0.63557 0.67536 0.30841 0.0
H81 H 0.6688 0.72863 0.31246 0.0
H82 H 0.65397 0.64512 0.31721 0.0
H83 H 0.63589 0.66749 0.28906 0.0
C84 C 0.75207 0.8327 0.37928 0.0
N85 N 0.71435 0.84141 0.36333 0.0
N86 N 0.6619 0.78427 0.3583 0.0
C87 C 0.66323 0.73732 0.37201 0.0
C88 C 0.72096 0.76655 0.38549 0.0
C89 C 0.81294 0.88794 0.39043 0.0
H90 H 0.84281 0.92582 0.37693 0.0
H91 H 0.84385 0.8697 0.39874 0.0
H92 H 0.79794 0.91129 0.40433 0.0
O93 O 0.63603 0.91967 0.35721 0.0
O94 O 0.54895 0.82474 0.34619 0.0
H95 H 0.55991 0.66339 0.37122 0.0
H96 H 0.60954 0.64363 0.39055 0.0
C97 C 0.60866 0.66668 0.37349 0.0
H98 H 0.61561 0.63812 0.35928 0.0
H99 H 0.45738 0.67499 0.34123 0.0
O100 O 0.78313 0.99119 0.37207 0.0
C101 C 0.57392 0.88356 0.35432 0.0
Co102 Co 0.77249 0.68548 0.52601 0.0
Co103 Co 0.82249 0.60129 0.49976 0.0
C104 C 0.79627 0.69175 0.47289 0.0
O105 O 0.77574 0.70398 0.492 0.0
O106 O 0.8252 0.6577 0.47289 0.0
C107 C 0.80397 0.81242 0.53979 0.0
O108 O 0.85381 0.82753 0.52539 0.0
C109 C 0.92065 0.57112 0.47927 0.0
C110 C 0.87405 0.46343 0.48532 0.0
C111 C 0.93108 0.51787 0.47679 0.0
N112 N 0.8605 0.54929 0.4891 0.0
N113 N 0.83268 0.48467 0.49243 0.0
C114 C 0.96652 0.64139 0.47211 0.0
H115 H 0.95438 0.67537 0.48178 0.0
H116 H 0.01887 0.6553 0.47527 0.0
H117 H 0.96055 0.64642 0.45288 0.0
C118 C 0.88553 0.71732 0.55698 0.0
N119 N 0.84842 0.68747 0.53774 0.0
N120 N 0.87063 0.65207 0.52724 0.0
C121 C 0.92349 0.65911 0.5397 0.0
C122 C 0.93544 0.70227 0.55837 0.0
C123 C 0.86882 0.75202 0.57569 0.0
H124 H 0.81465 0.73206 0.57656 0.0
H125 H 0.89448 0.80567 0.57166 0.0
H126 H 0.88624 0.7462 0.59332 0.0
O127 O 0.69494 0.59885 0.53044 0.0
O128 O 0.72259 0.5435 0.50521 0.0
H129 H 0.92514 0.57121 0.52966 0.0
H130 H 0.98843 0.62294 0.55066 0.0
C131 C 0.96011 0.62303 0.53491 0.0
H132 H 0.9959 0.6486 0.52041 0.0
H133 H 0.78626 0.4554 0.50018 0.0
O134 O 0.75952 0.75214 0.54226 0.0
C135 C 0.67927 0.54813 0.51777 0.0
Co136 Co 0.08114 0.76755 0.69536 0.0
Co137 Co 0.21463 0.81294 0.66934 0.0
C138 C 0.09921 0.78709 0.64187 0.0
O139 O 0.06556 0.7676 0.66089 0.0
O140 O 0.16206 0.8139 0.64194 0.0
C141 C 0.99542 0.80922 0.71216 0.0
O142 O 0.03338 0.86055 0.69878 0.0
C143 C 0.34285 0.90575 0.6478 0.0
C144 C 0.40877 0.87604 0.66515 0.0
C145 C 0.40902 0.92473 0.65101 0.0
N146 N 0.30538 0.84925 0.65998 0.0
N147 N 0.34512 0.83091 0.66979 0.0
C148 C 0.31605 0.94494 0.63604 0.0
H149 H 0.27085 0.93738 0.64533 0.0
H150 H 0.35371 0.9985 0.63555 0.0
H151 H 0.30212 0.92712 0.61759 0.0
C152 C 0.16608 0.87878 0.72642 0.0
N153 N 0.15679 0.84248 0.70679 0.0
N154 N 0.21308 0.86593 0.69526 0.0
C155 C 0.25927 0.92087 0.70676 0.0
C156 C 0.22998 0.93123 0.72637 0.0
C157 C 0.12042 0.85711 0.74731 0.0
H158 H 0.09897 0.88975 0.7491 0.0
H159 H 0.14855 0.86276 0.7638 0.0
H160 H 0.08108 0.80457 0.74583 0.0
O161 O 0.0877 0.69014 0.70155 0.0
O162 O 0.17169 0.71335 0.67726 0.0
H163 H 0.35178 0.92581 0.69989 0.0
H164 H 0.35963 0.99818 0.71433 0.0
C165 C 0.33141 0.95959 0.70084 0.0
H166 H 0.33806 0.9844 0.68355 0.0
H167 H 0.32911 0.79035 0.68112 0.0
O168 O 1.00383 0.7595 0.71196 0.0
C169 C 0.12357 0.67246 0.69045 0.0
Co170 Co 0.3231 0.09512 0.86158 0.0
Co171 Co 0.40538 0.2234 0.83188 0.0
C172 C 0.31479 0.10383 0.80769 0.0
O173 O 0.30496 0.07482 0.82759 0.0
O174 O 0.34725 0.16682 0.80603 0.0
C175 C 0.19531 1.00154 0.8763 0.0
O176 O 0.18022 0.03437 0.86101 0.0
C177 C 0.445 0.35169 0.80841 0.0
C178 C 0.54988 0.41092 0.819 0.0
C179 C 0.49974 0.41504 0.80742 0.0
N180 N 0.46177 0.31215 0.82038 0.0
N181 N 0.52491 0.34784 0.82632 0.0
C182 C 0.37809 0.32909 0.79801 0.0
H183 H 0.34031 0.28207 0.80635 0.0
H184 H 0.36413 0.36787 0.80002 0.0
H185 H 0.37989 0.32038 0.7788 0.0
C186 C 0.29065 0.18152 0.88908 0.0
N187 N 0.32183 0.17139 0.87094 0.0
N188 N 0.35479 0.22625 0.85858 0.0
C189 C 0.34399 0.27307 0.86847 0.0
C190 C 0.30148 0.24533 0.88766 0.0
C191 C 0.2582 0.13429 0.90922 0.0
H192 H 0.28056 0.10248 0.91164 0.0
H193 H 0.20458 0.10276 0.90559 0.0
H194 H 0.26351 0.16159 0.92591 0.0
O195 O 0.40899 0.10404 0.86704 0.0
O196 O 0.45983 0.17783 0.83847 0.0
H197 H 0.42696 0.36416 0.85651 0.0
H198 H 0.36656 0.37462 0.87295 0.0
C199 C 0.37335 0.34295 0.85997 0.0
H200 H 0.34823 0.34342 0.84345 0.0
H201 H 0.55022 0.32981 0.83625 0.0
O202 O 0.25562 0.01806 0.87916 0.0
C203 C 0.45662 0.13308 0.85251 0.0
Co204 Co 0.71961 0.80134 0.80468 0.0
Co205 Co 0.5959 0.81359 0.81729 0.0
C206 C 0.69191 0.80981 0.85383 0.0
O207 O 0.73332 0.81309 0.83852 0.0
O208 O 0.63823 0.80816 0.84792 0.0
C209 C 0.85045 0.82329 0.79249 0.0
O210 O 0.87511 0.868 0.80934 0.0
C211 C 0.56017 0.90999 0.83367 0.0
C212 C 0.45821 0.87009 0.82047 0.0
C213 C 0.51 0.92489 0.83132 0.0
N214 N 0.53951 0.84946 0.82444 0.0
N215 N 0.47801 0.8254 0.81691 0.0
C216 C 0.62945 0.95619 0.8417 0.0
H217 H 0.66113 0.93359 0.83939 0.0
H218 H 0.65045 1.00314 0.8315 0.0
H219 H 0.62878 0.96849 0.86062 0.0
C220 C 0.74887 0.91307 0.77338 0.0
N221 N 0.71264 0.86981 0.79047 0.0
N222 N 0.65803 0.87192 0.79388 0.0
C223 C 0.65713 0.91563 0.77829 0.0
C224 C 0.71498 0.94322 0.76494 0.0
C225 C 0.81381 0.92376 0.76446 0.0
H226 H 0.84774 0.93579 0.77966 0.0
H227 H 0.83697 0.96532 0.75163 0.0
H228 H 0.80651 0.87794 0.75579 0.0
O229 O 0.639 0.71588 0.79924 0.0
O230 O 0.54653 0.71863 0.80572 0.0
H231 H 0.60025 0.94435 0.75612 0.0
H232 H 0.60096 0.96195 0.78706 0.0
C233 C 0.59913 0.92522 0.7742 0.0
H234 H 0.55224 0.87776 0.77675 0.0
H235 H 0.45097 0.78025 0.8081 0.0
O236 O 0.78851 0.79113 0.789 0.0
C237 C 0.57612 0.68727 0.79954 0.0
Co238 Co 0.9154 0.68807 0.9598 0.0
Co239 Co 0.78744 0.60984 0.99011 0.0
C240 C 0.90661 0.70102 0.01384 0.0
O241 O 0.93506 0.70865 0.9939 0.0
O242 O 0.84369 0.66883 0.01575 0.0
C243 C 0.00567 0.8146 0.94322 0.0
O244 O 0.96986 0.8296 0.95708 0.0
C245 C 0.65784 0.56872 0.01375 0.0
C246 C 0.5968 0.46803 -0.00077 0.0
C247 C 0.59345 0.51544 0.01294 0.0
N248 N 0.69723 0.55378 0.00074 0.0
N249 N 0.66027 0.49304 0.99243 0.0
C250 C 0.68143 0.6322 0.02696 0.0
H251 H 0.73042 0.671 0.02027 0.0
H252 H 0.64484 0.64923 0.02562 0.0
H253 H 0.68639 0.62341 0.04594 0.0
C254 C 0.82869 0.71637 0.93081 0.0
N255 N 0.83932 0.68804 0.94974 0.0
N256 N 0.78598 0.65996 0.96304 0.0
C257 C 0.74044 0.67288 0.95334 0.0
C258 C 0.76656 0.70964 0.93274 0.0
C259 C 0.87371 0.74255 0.9098 0.0
H260 H 0.90656 0.72097 0.90888 0.0
H261 H 0.90413 0.79715 0.911 0.0
H262 H 0.84431 0.73062 0.89324 0.0
O263 O 0.90616 0.60215 0.95517 0.0
O264 O 0.83244 0.55382 0.984 0.0
H265 H 0.64457 0.5993 0.96531 0.0
H266 H 0.64777 0.67344 0.95394 0.0
C267 C 0.67496 0.65404 0.96417 0.0
H268 H 0.68309 0.67504 0.98218 0.0
H269 H 0.67786 0.46969 0.98124 0.0
O270 O 0.99237 0.75483 0.94196 0.0
C271 C 0.87606 0.55503 0.96979 0.0
Co272 Co 0.2545 0.92537 0.12272 0.0
Co273 Co 0.20465 0.79135 0.14877 0.0
C274 C 0.24082 0.91262 0.176 0.0
O275 O 0.25947 0.9456 0.15677 0.0
O276 O 0.21162 0.84934 0.17598 0.0
C277 C 0.27343 0.05347 0.11007 0.0
O278 O 0.25833 0.05763 0.13214 0.0
C279 C 0.10467 0.66464 0.16992 0.0
C280 C 0.13338 0.59581 0.15439 0.0
C281 C 0.08397 0.59783 0.16732 0.0
N282 N 0.16298 0.7003 0.15855 0.0
N283 N 0.18054 0.65877 0.14983 0.0
C284 C 0.06603 0.69374 0.1804 0.0
H285 H 0.07945 0.74151 0.17167 0.0
H286 H 0.01195 0.65879 0.17884 0.0
H287 H 0.0785 0.70349 0.19946 0.0
C288 C 0.12965 0.85172 0.09726 0.0
N289 N 0.17221 0.85572 0.1141 0.0
N290 N 0.15218 0.79691 0.12327 0.0
C291 C 0.09616 0.75282 0.11183 0.0
C292 C 0.07969 0.78654 0.09537 0.0
C293 C 0.14068 0.90805 0.08153 0.0
H294 H 0.18757 0.92572 0.07156 0.0
H295 H 0.14546 0.94959 0.09253 0.0
H296 H 0.0995 0.89343 0.06879 0.0
O297 O 0.32442 0.9067 0.11523 0.0
O298 O 0.30192 0.8264 0.14089 0.0
H299 H 0.09749 0.66222 0.11643 0.0
H300 H 0.02643 0.65299 0.10038 0.0
C301 C 0.06102 0.67928 0.11516 0.0
H302 H 0.03151 0.66618 0.13166 0.0
H303 H 0.22235 0.67318 0.1393 0.0
O304 O 0.27493 1.00249 0.10334 0.0
C305 C 0.34227 0.87189 0.12687 0.0
Co306 Co 0.3109 0.22172 0.29666 0.0
Co307 Co 0.40706 0.18279 0.32124 0.0
C308 C 0.30375 0.19343 0.34873 0.0
O309 O 0.28506 0.20917 0.32994 0.0
O310 O 0.34901 0.17796 0.34823 0.0
C311 C 0.18439 0.19309 0.28172 0.0
O312 O 0.16544 0.14378 0.29673 0.0
C313 C 0.43965 0.0848 0.34044 0.0
C314 C 0.54856 0.13706 0.33718 0.0
C315 C 0.49439 0.07697 0.34374 0.0
N316 N 0.46055 0.14631 0.332 0.0
N317 N 0.52582 0.17741 0.33031 0.0
C318 C 0.36887 0.036 0.34606 0.0
H319 H 0.35882 0.04368 0.36463 0.0
H320 H 0.33534 0.0443 0.33445 0.0
H321 H 0.35851 0.9843 0.34438 0.0
C322 C 0.2901 0.1151 0.26413 0.0
N323 N 0.31717 0.15122 0.2838 0.0
N324 N 0.358 0.13433 0.29341 0.0
C325 C 0.35771 0.08626 0.27982 0.0
C326 C 0.31368 0.0719 0.26125 0.0
C327 C 0.24533 0.12419 0.24748 0.0
H328 H 0.19503 0.10048 0.25522 0.0
H329 H 0.24132 0.10057 0.23009 0.0
H330 H 0.26366 0.17764 0.24468 0.0
O331 O 0.39499 0.30376 0.29463 0.0
O332 O 0.46356 0.28213 0.3151 0.0
H333 H 0.40805 0.03669 0.26628 0.0
H334 H 0.37994 0.01802 0.2963 0.0
C335 C 0.40239 0.05821 0.28303 0.0
H336 H 0.4518 0.09701 0.28926 0.0
H337 H 0.55474 0.22562 0.32392 0.0
O338 O 0.24562 0.23442 0.27934 0.0
C339 C 0.45114 0.3226 0.30398 0.0
Co340 Co 0.07831 0.29282 0.46785 0.0
Co341 Co 0.21911 0.40432 0.4828 0.0
C342 C 0.1108 0.31062 0.51758 0.0
O343 O 0.07033 0.2754 0.50149 0.0
O344 O 0.16762 0.36066 0.51283 0.0
C345 C 0.94325 0.18948 0.45525 0.0
O346 O 0.92972 0.1713 0.47749 0.0
C347 C 0.35123 0.43604 0.49911 0.0
C348 C 0.41383 0.53763 0.48545 0.0
C349 C 0.41655 0.4858 0.49635 0.0
N350 N 0.31164 0.4571 0.48995 0.0
N351 N 0.34944 0.51834 0.48218 0.0
C352 C 0.32737 0.36708 0.50771 0.0
H353 H 0.27361 0.33486 0.50422 0.0
H354 H 0.35569 0.34639 0.49897 0.0
H355 H 0.33651 0.36838 0.52702 0.0
C356 C 0.15252 0.2485 0.4398 0.0
N357 N 0.15048 0.29076 0.45539 0.0
N358 N 0.21036 0.34044 0.45923 0.0
C359 C 0.25284 0.33254 0.44508 0.0
C360 C 0.21736 0.27346 0.43243 0.0
C361 C 0.09278 0.18543 0.43205 0.0
H362 H 0.05873 0.1621 0.44725 0.0
H363 H 0.10694 0.15008 0.42474 0.0
H364 H 0.06607 0.19671 0.41824 0.0
O365 O 0.08326 0.37776 0.46327 0.0
O366 O 0.18213 0.46217 0.47209 0.0
H367 H 0.34102 0.38082 0.42349 0.0
H368 H 0.35497 0.37586 0.45448 0.0
C369 C 0.32406 0.38399 0.44153 0.0
H370 H 0.33118 0.43421 0.44426 0.0
H371 H 0.33148 0.54559 0.47344 0.0
O372 O 1.00058 0.23463 0.44931 0.0
C373 C 0.12259 0.43957 0.46508 0.0
Co374 Co 0.7658 0.08459 0.62464 0.0
Co375 Co 0.81203 0.21572 0.65234 0.0
C376 C 0.788 0.09894 0.67845 0.0
O377 O 0.76993 0.06779 0.65888 0.0
O378 O 0.81173 0.16145 0.67929 0.0
C379 C 0.8033 0.99512 0.60874 0.0
O380 O 0.85403 0.0315 0.62256 0.0
C381 C 0.90082 0.34467 0.67514 0.0
C382 C 0.88059 0.41039 0.65287 0.0
C383 C 0.92334 0.41089 0.66997 0.0
N384 N 0.84829 0.30693 0.66114 0.0
N385 N 0.83549 0.34673 0.6484 0.0
C386 C 0.93379 0.31785 0.69073 0.0
H387 H 0.9262 0.27014 0.68372 0.0
H388 H 0.98758 0.35381 0.69244 0.0
H389 H 0.91107 0.30856 0.70858 0.0
C390 C 0.87999 0.17 0.59486 0.0
N391 N 0.84079 0.16039 0.61365 0.0
N392 N 0.86567 0.21463 0.62641 0.0
C393 C 0.92452 0.25958 0.61668 0.0
C394 C 0.93533 0.23238 0.59645 0.0
C395 C 0.86111 0.12406 0.57414 0.0
H396 H 0.80672 0.0905 0.57344 0.0
H397 H 0.88609 0.09447 0.57549 0.0
H398 H 0.87783 0.15279 0.55741 0.0
O399 O 0.68786 0.09115 0.61968 0.0
O400 O 0.71245 0.17368 0.64476 0.0
H401 H 0.95099 0.35882 0.62561 0.0
H402 H 0.02072 0.34884 0.61819 0.0
C403 C 0.97185 0.32551 0.62716 0.0
H404 H 0.97969 0.31916 0.64601 0.0
H405 H 0.7993 0.33043 0.63525 0.0
O406 O 0.75631 0.00756 0.60746 0.0
C407 C 0.67086 0.12647 0.63148 0.0
C408 C 0.30105 0.13909 0.05074 0.0
C409 C 0.27963 0.18445 0.05501 0.0
C410 C 0.30114 0.09851 0.06898 0.0
C411 C 0.28058 0.10271 0.0921 0.0
H412 H 0.31529 0.13315 0.03307 0.0
H413 H 0.31589 0.06244 0.06473 0.0
S414 S 0.22936 0.22151 0.11256 0.0
N415 N 0.24414 0.23696 0.08403 0.0
N416 N 0.2443 0.16088 0.11845 0.0
C417 C 0.26281 0.15095 0.09674 0.0
C418 C 0.26224 0.19175 0.07812 0.0
C419 C 0.15055 0.25492 0.25476 0.0
C420 C 0.13772 0.19413 0.26448 0.0
C421 C 0.11023 0.25736 0.23696 0.0
C422 C 0.05693 0.19899 0.22778 0.0
H423 H 0.19194 0.30103 0.26103 0.0
H424 H 0.1211 0.30534 0.23026 0.0
S425 S 1.00317 0.02701 0.24694 0.0
N426 N 0.06756 0.07411 0.26385 0.0
N427 N 0.99361 0.07847 0.22953 0.0
C428 C 0.04415 0.13771 0.23707 0.0
C429 C 0.08395 0.13535 0.25573 0.0
C430 C 0.85155 0.0862 0.43788 0.0
C431 C 0.89487 0.15475 0.43635 0.0
C432 C 0.81343 0.05082 0.41836 0.0
C433 C 0.81672 0.08308 0.39694 0.0
H434 H 0.84947 0.05931 0.45379 0.0
H435 H 0.78173 0.99766 0.41994 0.0
S436 S 0.91651 0.26282 0.38485 0.0
N437 N 0.93506 0.25455 0.41237 0.0
N438 N 0.86194 0.18742 0.37584 0.0
C439 C 0.85653 0.15196 0.39564 0.0
C440 C 0.89617 0.18799 0.41534 0.0
C441 C 0.74577 0.85237 0.56601 0.0
C442 C 0.80543 0.86191 0.55631 0.0
C443 C 0.74569 0.89537 0.5832 0.0
C444 C 0.80533 0.94825 0.59181 0.0
H445 H 0.69871 0.81141 0.56021 0.0
H446 H 0.69853 0.88681 0.58995 0.0
S447 S 0.97514 0.99429 0.57239 0.0
N448 N 0.92582 0.92889 0.55626 0.0
N449 N 0.92576 0.00785 0.58948 0.0
C450 C 0.86546 0.95798 0.58248 0.0
C451 C 0.86548 0.91541 0.56442 0.0
C452 C 0.90646 0.75705 0.74239 0.0
C453 C 0.95671 0.81498 0.7317 0.0
C454 C 0.87417 0.7602 0.76275 0.0
C455 C 0.89253 0.82116 0.77361 0.0
H456 H 0.89185 0.70883 0.73495 0.0
H457 H 0.83421 0.71454 0.77 0.0
S458 S 0.02113 0.98739 0.7528 0.0
N459 N 0.02196 0.93555 0.73312 0.0
N460 N 0.96418 0.9408 0.77241 0.0
C461 C 0.9433 0.87946 0.76338 0.0
C462 C 0.97436 0.87655 0.74206 0.0
C463 C 0.15377 0.903 0.90264 0.0
C464 C 0.14489 0.9532 0.89261 0.0
C465 C 0.10857 0.8585 0.91913 0.0
C466 C 0.05411 0.86398 0.92669 0.0
H467 H 0.19573 0.89775 0.89759 0.0
H468 H 0.11668 0.81992 0.92618 0.0
S469 S 0.00879 0.98705 0.90594 0.0
N470 N 0.07686 0.00522 0.89113 0.0
N471 N 0.99363 0.92347 0.92297 0.0
C472 C 0.04505 0.91444 0.91703 0.0
C473 C 0.08994 0.95849 0.89971 0.0
C474 C 0.48953 0.45999 0.03653 0.0
C475 C 0.53053 0.51068 0.02081 0.0
C476 C 0.42262 0.44124 0.03932 0.0
C477 C 0.39346 0.47134 0.02607 0.0
H478 H 0.5082 0.43168 0.04557 0.0
H479 H 0.39215 0.39891 0.0505 0.0
S480 S 0.48171 0.61112 0.98412 0.0
N481 N 0.53926 0.59495 0.99344 0.0
N482 N 0.41306 0.55885 -0.00175 0.0
C483 C 0.43537 0.52587 0.01176 0.0
C484 C 0.50395 0.54546 0.00913 0.0
C485 C 0.92718 0.43279 0.15934 0.0
C486 C 0.91153 0.40912 0.18271 0.0
C487 C 0.98053 0.49645 0.15452 0.0
C488 C 0.01882 0.53922 0.17289 0.0
H489 H 0.90334 0.39946 0.14462 0.0
H490 H 0.99468 0.51068 0.13626 0.0
S491 S 0.99047 0.50574 0.23705 0.0
N492 N 0.9332 0.43677 0.2244 0.0
N493 N 0.03189 0.55723 0.21524 0.0
C494 C 0.99894 0.5192 0.19628 0.0
C495 C 0.94542 0.45397 0.20121 0.0
C496 C 0.53909 0.02056 0.36881 0.0
C497 C 0.49785 0.01699 0.35011 0.0
C498 C 0.55688 0.97178 0.37188 0.0
C499 C 0.53488 0.91785 0.35615 0.0
H500 H 0.56099 0.06347 0.38031 0.0
H501 H 0.59248 0.97921 0.38557 0.0
S502 S 0.42293 0.88395 0.305 0.0
N503 N 0.43252 0.95342 0.31639 0.0
N504 N 0.46593 0.86176 0.3221 0.0
C505 C 0.48966 0.91115 0.33842 0.0
C506 C 0.47144 0.96095 0.33532 0.0
C507 C 0.49581 0.47868 0.5244 0.0
C508 C 0.47784 0.4836 0.50109 0.0
C509 C 0.56022 0.49172 0.52968 0.0
C510 C 0.60805 0.50832 0.51174 0.0
H511 H 0.46178 0.47004 0.53881 0.0
H512 H 0.57427 0.49396 0.54806 0.0
S513 S 0.58183 0.51899 0.44751 0.0
N514 N 0.51016 0.50006 0.45976 0.0
N515 N 0.63021 0.52257 0.46947 0.0
C516 C 0.58821 0.50704 0.48814 0.0
C517 C 0.52337 0.49544 0.48287 0.0
C518 C 0.02935 0.51179 0.65874 0.0
C519 C 0.98677 0.47026 0.67663 0.0
C520 C 0.08228 0.57526 0.66395 0.0
C521 C 0.09343 0.59998 0.6872 0.0
H522 H 0.01921 0.49666 0.64038 0.0
H523 H 0.1096 0.6076 0.64934 0.0
S524 S 1.00237 0.50671 0.74075 0.0
N525 N 0.96464 0.45458 0.71875 0.0
N526 N 0.06311 0.57448 0.72859 0.0
C527 C 0.05525 0.55627 0.70547 0.0
C528 C 1.0019 0.4913 0.70017 0.0
C529 C 0.51348 0.00865 0.85982 0.0
C530 C 0.5125 0.98844 0.83636 0.0
C531 C 0.50322 0.06182 0.86503 0.0
C532 C 0.4929 0.09742 0.84694 0.0
H533 H 0.51755 0.98035 0.87426 0.0
H534 H 0.49843 0.072 0.88339 0.0
S535 S 0.49684 0.06975 0.78241 0.0
N536 N 0.50798 0.01195 0.79484 0.0
N537 N 0.49044 0.11276 0.80442 0.0
C538 C 0.49838 0.08137 0.82333 0.0
C539 C 0.50739 0.02639 0.81809 0.0
C540 C 0.47167 0.50466 0.81354 0.0
C541 C 0.50396 0.47811 0.8002 0.0
C542 C 0.48955 0.57188 0.81135 0.0
C543 C 0.5403 0.61439 0.79576 0.0
H544 H 0.4364 0.47486 0.8271 0.0
H545 H 0.46796 0.59184 0.82346 0.0
S546 S 0.63167 0.5655 0.75421 0.0
N547 N 0.58288 0.49701 0.76907 0.0
N548 N 0.61559 0.62227 0.76448 0.0
C549 C 0.56802 0.58632 0.78077 0.0
C550 C 0.55032 0.51851 0.78319 0.0
C551 C 0.92993 0.51646 -0.00137 0.0
C552 C 0.90965 0.51674 0.97519 0.0
C553 C 0.9834 0.50652 0.0036 0.0
C554 C 0.01738 0.49475 0.98541 0.0
H555 H 0.9089 0.53058 0.01304 0.0
H556 H 1.00034 0.51125 0.02172 0.0
S557 S 0.97837 0.48184 0.92147 0.0
N558 N 0.92407 0.49832 0.93387 0.0
N559 N 0.023 0.47756 0.94336 0.0
C560 C 0.99389 0.48895 0.96218 0.0
C561 C 0.94028 0.50027 0.95705 0.0
C562 C 0.43854 0.91589 0.15387 0.0
C563 C 0.41478 0.90323 0.13047 0.0
C564 C 0.50074 0.9706 0.15925 0.0
C565 C 0.54206 0.01347 0.1414 0.0
H566 H 0.40606 0.88833 0.16842 0.0
H567 H 0.51484 0.9818 0.17766 0.0
S568 S 0.5089 0.99428 0.07705 0.0
N569 N 0.4417 0.93242 0.08906 0.0
N570 N 0.55935 0.03421 0.09924 0.0
C571 C 0.52249 0.99687 0.11779 0.0
C572 C 0.45875 0.94169 0.1123 0.0
C573 C 0.51526 0.50247 0.29164 0.0
C574 C 0.51712 0.52649 0.31455 0.0
C575 C 0.50234 0.43736 0.28808 0.0
C576 C 0.49262 0.39494 0.30733 0.0
H577 H 0.51852 0.53221 0.27642 0.0
H578 H 0.49447 0.41827 0.27018 0.0
S579 S 0.50091 0.43796 0.37083 0.0
N580 N 0.51398 0.50553 0.35672 0.0
N581 N 0.49215 0.3843 0.35008 0.0
C582 C 0.50087 0.42097 0.33029 0.0
C583 C 0.51222 0.48646 0.3339 0.0
C584 C 0.98972 0.47881 0.45038 0.0
C585 C 0.99191 0.51708 0.46985 0.0
C586 C 0.03891 0.46181 0.44695 0.0
C587 C 0.09155 0.48143 0.46311 0.0
H588 H 0.94731 0.45805 0.43864 0.0
H589 H 0.03222 0.42773 0.43277 0.0
S590 S 0.1224 0.58704 0.51592 0.0
N591 N 0.05356 0.57882 0.50442 0.0
N592 N 0.14567 0.54612 0.49818 0.0
C593 C 0.09731 0.5245 0.48151 0.0
C594 C 0.04723 0.54215 0.48493 0.0
C595 C 0.51138 0.02756 0.66359 0.0
C596 C 0.46873 0.98886 0.64527 0.0
C597 C 0.57493 0.08094 0.65872 0.0
C598 C 0.59862 0.09626 0.63534 0.0
H599 H 0.49699 0.01397 0.68188 0.0
H600 H 0.60809 0.10525 0.67345 0.0
S601 S 0.50231 0.01607 0.58107 0.0
N602 N 0.45087 0.97491 0.60292 0.0
N603 N 0.57117 0.07371 0.59367 0.0
C604 C 0.55396 0.06179 0.61686 0.0
C605 C 0.48883 0.00822 0.62185 0.0
C606 C 0.31612 0.32963 0.91801 0.0
C607 C 0.27377 0.27507 0.90391 0.0
C608 C 0.29122 0.34842 0.93725 0.0
C609 C 0.2235 0.31266 0.94312 0.0
H610 H 0.36922 0.3548 0.91525 0.0
H611 H 0.32593 0.38763 0.94878 0.0
S612 S 0.09143 0.17137 0.91012 0.0
N613 N 0.16004 0.19056 0.89545 0.0
N614 N 0.11403 0.22412 0.9324 0.0
C615 C 0.18025 0.26083 0.92835 0.0
C616 C 0.20527 0.2425 0.90851 0.0
C617 C 0.9524 0.24052 0.07541 0.0
C618 C 0.02115 0.26637 0.07559 0.0
C619 C 0.91585 0.22147 0.09658 0.0
C620 C 0.94708 0.22797 0.1186 0.0
H621 H 0.92682 0.23488 0.05883 0.0
H622 H 0.86302 0.20286 0.09567 0.0
S623 S 0.12727 0.29342 0.12786 0.0
N624 N 0.11947 0.29762 0.099 0.0
N625 N 0.05176 0.26175 0.13876 0.0
C626 C 0.01617 0.25324 0.11872 0.0
C627 C 0.05297 0.27257 0.09722 0.0
C628 C 0.77087 0.94609 0.26632 0.0
C629 C 0.71184 0.92619 0.27877 0.0
C630 C 0.78924 0.99106 0.2475 0.0
C631 C 0.7502 0.0191 0.24103 0.0
H632 H 0.80438 0.92913 0.27185 0.0
H633 H 0.83591 0.00637 0.23863 0.0
S634 S 0.59172 0.98373 0.26874 0.0
N635 N 0.61364 0.93618 0.28323 0.0
N636 N 0.64991 0.02346 0.24863 0.0
C637 C 0.69006 0.99797 0.25293 0.0
C638 C 0.67056 0.9509 0.27169 0.0
C639 C 0.79383 0.73569 0.40814 0.0
C640 C 0.73606 0.74035 0.4069 0.0
C641 C 0.81333 0.71951 0.42949 0.0
C642 C 0.77624 0.70888 0.45031 0.0
H643 H 0.82474 0.74596 0.39262 0.0
H644 H 0.85833 0.71675 0.42982 0.0
S645 S 0.61846 0.7114 0.45562 0.0
N646 N 0.64089 0.73095 0.42776 0.0
N647 N 0.6762 0.69973 0.46772 0.0
C648 C 0.71732 0.71184 0.44897 0.0
C649 C 0.69757 0.72782 0.4273 0.0
C650 C 0.97462 0.67828 0.59592 0.0
C651 C 0.98456 0.72277 0.57758 0.0
C652 C 0.01288 0.69997 0.61654 0.0
C653 C 0.06283 0.76665 0.61933 0.0
H654 H 0.93518 0.62711 0.59473 0.0
H655 H 1.00282 0.66441 0.63056 0.0
S656 S 0.10883 0.90198 0.57607 0.0
N657 N 0.04753 0.83604 0.56324 0.0
N658 N 0.12143 0.87637 0.60179 0.0
C659 C 0.07483 0.81108 0.60076 0.0
C660 C 0.03494 0.78923 0.57993 0.0
C661 C 0.25462 0.037 0.74584 0.0
C662 C 0.26071 0.97999 0.74551 0.0
C663 C 0.27367 0.0784 0.7658 0.0
C664 C 0.29723 0.06246 0.7862 0.0
H665 H 0.23336 0.04857 0.73082 0.0
H666 H 0.26773 0.1216 0.7656 0.0
S667 S 0.32534 0.91987 0.79335 0.0
N668 N 0.29497 0.91145 0.76639 0.0
N669 N 0.32913 0.98743 0.8042 0.0
C670 C 0.30492 0.00618 0.7857 0.0
C671 C 0.28699 0.96528 0.76526 0.0
C672 C 0.75834 0.83075 0.89041 0.0
C673 C 0.69966 0.79074 0.87788 0.0
C674 C 0.77667 0.8052 0.90956 0.0
C675 C 0.73798 0.73826 0.91632 0.0
H676 H 0.79209 0.88088 0.88452 0.0
H677 H 0.82349 0.83706 0.91826 0.0
S678 S 0.5796 0.61335 0.88905 0.0
N679 N 0.60141 0.68211 0.87405 0.0
N680 N 0.63772 0.63303 0.90924 0.0
C681 C 0.6777 0.69859 0.90459 0.0
C682 C 0.65816 0.72515 0.8855 0.0
C683 C 0.93504 0.74835 0.05493 0.0
C684 C 0.94849 0.72024 0.03522 0.0
C685 C 0.97677 0.76823 0.07485 0.0
C686 C 0.03172 0.75871 0.07579 0.0
H687 H 0.89335 0.75671 0.05467 0.0
H688 H 0.96676 0.79211 0.08941 0.0
S689 S 0.08464 0.68194 0.02985 0.0
N690 N 0.01856 0.68039 0.01859 0.0
N691 N 0.0958 0.71704 0.05608 0.0
C692 C 0.04417 0.72859 0.05663 0.0
C693 C 1.00271 0.70942 0.03632 0.0
C694 C 0.30664 0.0188 0.198 0.0
C695 C 0.25986 0.95035 0.19858 0.0
C696 C 0.32684 0.05681 0.21864 0.0
C697 C 0.30096 0.0282 0.2407 0.0
H698 H 0.32786 0.04379 0.18142 0.0
H699 H 0.36128 0.10959 0.21726 0.0
S700 S 0.17991 0.85181 0.25263 0.0
N701 N 0.19047 0.85536 0.22365 0.0
N702 N 0.22818 0.928 0.26248 0.0
C703 C 0.25583 0.95995 0.24188 0.0
C704 C 0.23528 0.92074 0.22081 0.0
C705 C 0.20349 0.23406 0.39084 0.0
C706 C 0.23927 0.24904 0.41209 0.0
C707 C 0.22228 0.21153 0.37107 0.0
C708 C 0.27848 0.2039 0.37149 0.0
H709 H 0.16138 0.24147 0.3892 0.0
H710 H 0.19362 0.20233 0.35501 0.0
S711 S 0.38792 0.23437 0.42333 0.0
N712 N 0.33159 0.25191 0.43298 0.0
N713 N 0.36893 0.21161 0.39543 0.0
C714 C 0.314 0.21719 0.39288 0.0
C715 C 0.29423 0.23973 0.4132 0.0
C716 C 0.02062 0.22302 0.57284 0.0
C717 C 0.99207 0.2612 0.57981 0.0
C718 C 0.06486 0.24234 0.55376 0.0
C719 C 0.08351 0.30149 0.54154 0.0
H720 H 0.00585 0.17602 0.58138 0.0
H721 H 0.08159 0.2091 0.54769 0.0
S722 S 0.02541 0.42039 0.55323 0.0
N723 N 0.9868 0.36145 0.57319 0.0
N724 N 0.07271 0.39943 0.5381 0.0
C725 C 0.05893 0.34229 0.5493 0.0
C726 C 0.01258 0.32184 0.56832 0.0
C727 C 0.76939 0.08745 0.72244 0.0
C728 C 0.77305 0.05988 0.70067 0.0
C729 C 0.74826 0.04897 0.74318 0.0
C730 C 0.73042 0.98189 0.7428 0.0
H731 H 0.78177 0.13879 0.72344 0.0
H732 H 0.74674 0.07196 0.75963 0.0
S733 S 0.73157 0.88553 0.69091 0.0
N734 N 0.75759 0.96073 0.68046 0.0
N735 N 0.71714 0.88904 0.71929 0.0
C736 C 0.7337 0.95366 0.72132 0.0
C737 C 0.75536 0.99252 0.7003 0.0
loop_
_geom_bond_atom_site_label_1
_geom_bond_atom_site_label_2
_geom_bond_distance
_geom_bond_site_symmetry_2
_ccdc_geom_bond_type
Co0 O3 1.970 1_554 S
Co0 N17 1.989 . S
Co0 O25 1.967 . S
Co0 O32 1.920 . S
Co1 O4 1.966 1_554 S
Co1 N10 2.022 1_554 S
Co1 N18 1.993 . S
Co1 O26 1.941 . S
C2 O3 1.258 . S
C2 O4 1.263 . S
O3 Co0 1.970 1_556 S
O3 C2 1.258 . S
O4 Co1 1.966 1_556 S
O4 C2 1.263 . S
C5 O6 1.235 . S
C5 O32 1.289 . S
O6 C5 1.235 . S
C7 C9 1.400 . S
C7 N10 1.351 . S
C7 C12 1.501 . S
C8 C9 1.387 1_554 S
C8 N11 1.341 . S
C9 C7 1.400 . S
C9 C8 1.387 1_556 S
N10 Co1 2.022 1_556 S
N10 C7 1.351 . S
N10 N11 1.365 1_556 S
N11 C8 1.341 . S
N11 N10 1.365 1_554 S
N11 H31 0.862 . S
C12 C7 1.501 . S
C12 H13 0.961 . S
C12 H14 0.961 . S
C12 H15 0.960 . S
H13 C12 0.961 . S
H14 C12 0.961 . S
H15 C12 0.960 . S
C16 N17 1.342 . S
C16 C20 1.401 . S
C16 C21 1.499 . S
N17 Co0 1.989 . S
N17 C16 1.342 . S
N17 N18 1.388 . S
N18 Co1 1.993 . S
N18 N17 1.388 . S
N18 C19 1.346 . S
C19 N18 1.346 . S
C19 C20 1.396 . S
C19 C29 1.510 . S
C20 C16 1.401 . S
C20 C19 1.396 . S
C21 C16 1.499 . S
C21 H22 0.959 . S
C21 H23 0.960 . S
C21 H24 0.961 . S
H22 C21 0.959 . S
H23 C21 0.960 . S
H24 C21 0.961 . S
O25 Co0 1.967 . S
O25 C33 1.258 . S
O26 Co1 1.941 . S
O26 C33 1.266 . S
H27 C29 0.959 . S
H28 C29 0.961 1_655 S
C29 C19 1.510 . S
C29 H27 0.959 . S
C29 H28 0.961 1_455 S
C29 H30 0.960 . S
H30 C29 0.960 . S
H31 N11 0.862 . S
O32 Co0 1.920 . S
O32 C5 1.289 . S
C33 O25 1.258 . S
C33 O26 1.266 . S
Co34 O37 1.970 . S
Co34 N51 1.989 . S
Co34 O59 1.967 . S
Co34 O66 1.920 . S
Co35 O38 1.966 . S
Co35 N44 2.022 . S
Co35 N52 1.993 . S
Co35 O60 1.941 . S
C36 O37 1.258 . S
C36 O38 1.263 . S
O37 Co34 1.970 . S
O37 C36 1.258 . S
O38 Co35 1.966 . S
O38 C36 1.263 . S
C39 O40 1.235 1_455 S
C39 O66 1.289 1_455 S
O40 C39 1.235 1_655 S
C41 C43 1.400 . S
C41 N44 1.351 . S
C41 C46 1.501 . S
C42 C43 1.387 . S
C42 N45 1.341 . S
C43 C41 1.400 . S
C43 C42 1.387 . S
N44 Co35 2.022 . S
N44 C41 1.351 . S
N44 N45 1.365 . S
N45 C42 1.341 . S
N45 N44 1.365 . S
N45 H65 0.862 . S
C46 C41 1.501 . S
C46 H47 0.961 . S
C46 H48 0.961 . S
C46 H49 0.960 . S
H47 C46 0.961 . S
H48 C46 0.961 . S
H49 C46 0.960 . S
C50 N51 1.342 . S
C50 C54 1.401 . S
C50 C55 1.499 . S
N51 Co34 1.989 . S
N51 C50 1.342 . S
N51 N52 1.388 . S
N52 Co35 1.993 . S
N52 N51 1.388 . S
N52 C53 1.346 . S
C53 N52 1.346 . S
C53 C54 1.396 . S
C53 C63 1.510 . S
C54 C50 1.401 . S
C54 C53 1.396 . S
C55 C50 1.499 . S
C55 H56 0.959 . S
C55 H57 0.960 . S
C55 H58 0.961 . S
H56 C55 0.959 . S
H57 C55 0.960 . S
H58 C55 0.961 . S
O59 Co34 1.967 . S
O59 C67 1.258 . S
O60 Co35 1.941 . S
O60 C67 1.266 . S
H61 C63 0.959 . S
H62 C63 0.961 1_565 S
C63 C53 1.510 . S
C63 H61 0.959 . S
C63 H62 0.961 1_545 S
C63 H64 0.960 . S
H64 C63 0.960 . S
H65 N45 0.862 . S
O66 Co34 1.920 . S
O66 C39 1.289 1_655 S
C67 O59 1.258 . S
C67 O60 1.266 . S
Co68 O71 1.970 . S
Co68 N85 1.989 . S
Co68 O93 1.967 . S
Co68 O100 1.920 . S
Co69 O72 1.966 . S
Co69 N78 2.022 . S
Co69 N86 1.993 . S
Co69 O94 1.941 . S
C70 O71 1.258 . S
C70 O72 1.263 . S
O71 Co68 1.970 . S
O71 C70 1.258 . S
O72 Co69 1.966 . S
O72 C70 1.263 . S
C73 O74 1.235 1_545 S
C73 O100 1.289 1_545 S
O74 C73 1.235 1_565 S
C75 C77 1.400 . S
C75 N78 1.351 . S
C75 C80 1.501 . S
C76 C77 1.387 . S
C76 N79 1.341 . S
C77 C75 1.400 . S
C77 C76 1.387 . S
N78 Co69 2.022 . S
N78 C75 1.351 . S
N78 N79 1.365 . S
N79 C76 1.341 . S
N79 N78 1.365 . S
N79 H99 0.862 . S
C80 C75 1.501 . S
C80 H81 0.961 . S
C80 H82 0.961 . S
C80 H83 0.960 . S
H81 C80 0.961 . S
H82 C80 0.961 . S
H83 C80 0.960 . S
C84 N85 1.342 . S
C84 C88 1.401 . S
C84 C89 1.499 . S
N85 Co68 1.989 . S
N85 C84 1.342 . S
N85 N86 1.388 . S
N86 Co69 1.993 . S
N86 N85 1.388 . S
N86 C87 1.346 . S
C87 N86 1.346 . S
C87 C88 1.396 . S
C87 C97 1.510 . S
C88 C84 1.401 . S
C88 C87 1.396 . S
C89 C84 1.499 . S
C89 H90 0.959 . S
C89 H91 0.960 . S
C89 H92 0.961 . S
H90 C89 0.959 . S
H91 C89 0.960 . S
H92 C89 0.961 . S
O93 Co68 1.967 . S
O93 C101 1.258 . S
O94 Co69 1.941 . S
O94 C101 1.266 . S
H95 C97 0.959 . S
H96 C97 0.961 . S
C97 C87 1.510 . S
C97 H95 0.959 . S
C97 H96 0.961 . S
C97 H98 0.960 . S
H98 C97 0.960 . S
H99 N79 0.862 . S
O100 Co68 1.920 . S
O100 C73 1.289 1_565 S
C101 O93 1.258 . S
C101 O94 1.266 . S
Co102 O105 1.970 . S
Co102 N119 1.989 . S
Co102 O127 1.967 . S
Co102 O134 1.920 . S
Co103 O106 1.966 . S
Co103 N112 2.022 . S
Co103 N120 1.993 . S
Co103 O128 1.941 . S
C104 O105 1.258 . S
C104 O106 1.263 . S
O105 Co102 1.970 . S
O105 C104 1.258 . S
O106 Co103 1.966 . S
O106 C104 1.263 . S
C107 O108 1.235 . S
C107 O134 1.289 . S
O108 C107 1.235 . S
C109 C111 1.400 . S
C109 N112 1.351 . S
C109 C114 1.501 . S
C110 C111 1.387 . S
C110 N113 1.341 . S
C111 C109 1.400 . S
C111 C110 1.387 . S
N112 Co103 2.022 . S
N112 C109 1.351 . S
N112 N113 1.365 . S
N113 C110 1.341 . S
N113 N112 1.365 . S
N113 H133 0.862 . S
C114 C109 1.501 . S
C114 H115 0.961 . S
C114 H116 0.961 . S
C114 H117 0.960 . S
H115 C114 0.961 . S
H116 C114 0.961 . S
H117 C114 0.960 . S
C118 N119 1.342 . S
C118 C122 1.401 . S
C118 C123 1.499 . S
N119 Co102 1.989 . S
N119 C118 1.342 . S
N119 N120 1.388 . S
N120 Co103 1.993 . S
N120 N119 1.388 . S
N120 C121 1.346 . S
C121 N120 1.346 . S
C121 C122 1.396 . S
C121 C131 1.510 . S
C122 C118 1.401 . S
C122 C121 1.396 . S
C123 C118 1.499 . S
C123 H124 0.959 . S
C123 H125 0.960 . S
C123 H126 0.961 . S
H124 C123 0.959 . S
H125 C123 0.960 . S
H126 C123 0.961 . S
O127 Co102 1.967 . S
O127 C135 1.258 . S
O128 Co103 1.941 . S
O128 C135 1.266 . S
H129 C131 0.959 . S
H130 C131 0.961 1_455 S
C131 C121 1.510 . S
C131 H129 0.959 . S
C131 H130 0.961 1_655 S
C131 H132 0.960 . S
H132 C131 0.960 . S
H133 N113 0.862 . S
O134 Co102 1.920 . S
O134 C107 1.289 . S
C135 O127 1.258 . S
C135 O128 1.266 . S
Co136 O139 1.970 . S
Co136 N153 1.989 . S
Co136 O161 1.967 . S
Co136 O168 1.920 . S
Co137 O140 1.966 . S
Co137 N146 2.022 . S
Co137 N154 1.993 . S
Co137 O162 1.941 . S
C138 O139 1.258 . S
C138 O140 1.263 . S
O139 Co136 1.970 . S
O139 C138 1.258 . S
O140 Co137 1.966 . S
O140 C138 1.263 . S
C141 O142 1.235 1_655 S
C141 O168 1.289 1_655 S
O142 C141 1.235 1_455 S
C143 C145 1.400 . S
C143 N146 1.351 . S
C143 C148 1.501 . S
C144 C145 1.387 . S
C144 N147 1.341 . S
C145 C143 1.400 . S
C145 C144 1.387 . S
N146 Co137 2.022 . S
N146 C143 1.351 . S
N146 N147 1.365 . S
N147 C144 1.341 . S
N147 N146 1.365 . S
N147 H167 0.862 . S
C148 C143 1.501 . S
C148 H149 0.961 . S
C148 H150 0.961 . S
C148 H151 0.960 . S
H149 C148 0.961 . S
H150 C148 0.961 . S
H151 C148 0.960 . S
C152 N153 1.342 . S
C152 C156 1.401 . S
C152 C157 1.499 . S
N153 Co136 1.989 . S
N153 C152 1.342 . S
N153 N154 1.388 . S
N154 Co137 1.993 . S
N154 N153 1.388 . S
N154 C155 1.346 . S
C155 N154 1.346 . S
C155 C156 1.396 . S
C155 C165 1.510 . S
C156 C152 1.401 . S
C156 C155 1.396 . S
C157 C152 1.499 . S
C157 H158 0.959 . S
C157 H159 0.960 . S
C157 H160 0.961 . S
H158 C157 0.959 . S
H159 C157 0.960 . S
H160 C157 0.961 . S
O161 Co136 1.967 . S
O161 C169 1.258 . S
O162 Co137 1.941 . S
O162 C169 1.266 . S
H163 C165 0.959 . S
H164 C165 0.961 1_545 S
C165 C155 1.510 . S
C165 H163 0.959 . S
C165 H164 0.961 1_565 S
C165 H166 0.960 . S
H166 C165 0.960 . S
H167 N147 0.862 . S
O168 Co136 1.920 . S
O168 C141 1.289 1_455 S
C169 O161 1.258 . S
C169 O162 1.266 . S
Co170 O173 1.970 . S
Co170 N187 1.989 . S
Co170 O195 1.967 . S
Co170 O202 1.920 . S
Co171 O174 1.966 . S
Co171 N180 2.022 . S
Co171 N188 1.993 . S
Co171 O196 1.941 . S
C172 O173 1.258 . S
C172 O174 1.263 . S
O173 Co170 1.970 . S
O173 C172 1.258 . S
O174 Co171 1.966 . S
O174 C172 1.263 . S
C175 O176 1.235 1_565 S
C175 O202 1.289 1_565 S
O176 C175 1.235 1_545 S
C177 C179 1.400 . S
C177 N180 1.351 . S
C177 C182 1.501 . S
C178 C179 1.387 . S
C178 N181 1.341 . S
C179 C177 1.400 . S
C179 C178 1.387 . S
N180 Co171 2.022 . S
N180 C177 1.351 . S
N180 N181 1.365 . S
N181 C178 1.341 . S
N181 N180 1.365 . S
N181 H201 0.862 . S
C182 C177 1.501 . S
C182 H183 0.961 . S
C182 H184 0.961 . S
C182 H185 0.960 . S
H183 C182 0.961 . S
H184 C182 0.961 . S
H185 C182 0.960 . S
C186 N187 1.342 . S
C186 C190 1.401 . S
C186 C191 1.499 . S
N187 Co170 1.989 . S
N187 C186 1.342 . S
N187 N188 1.388 . S
N188 Co171 1.993 . S
N188 N187 1.388 . S
N188 C189 1.346 . S
C189 N188 1.346 . S
C189 C190 1.396 . S
C189 C199 1.510 . S
C190 C186 1.401 . S
C190 C189 1.396 . S
C191 C186 1.499 . S
C191 H192 0.959 . S
C191 H193 0.960 . S
C191 H194 0.961 . S
H192 C191 0.959 . S
H193 C191 0.960 . S
H194 C191 0.961 . S
O195 Co170 1.967 . S
O195 C203 1.258 . S
O196 Co171 1.941 . S
O196 C203 1.266 . S
H197 C199 0.959 . S
H198 C199 0.961 . S
C199 C189 1.510 . S
C199 H197 0.959 . S
C199 H198 0.961 . S
C199 H200 0.960 . S
H200 C199 0.960 . S
H201 N181 0.862 . S
O202 Co170 1.920 . S
O202 C175 1.289 1_545 S
C203 O195 1.258 . S
C203 O196 1.266 . S
Co204 O207 1.970 . S
Co204 N221 1.989 . S
Co204 O229 1.967 . S
Co204 O236 1.920 . S
Co205 O208 1.966 . S
Co205 N214 2.022 . S
Co205 N222 1.993 . S
Co205 O230 1.941 . S
C206 O207 1.258 . S
C206 O208 1.263 . S
O207 Co204 1.970 . S
O207 C206 1.258 . S
O208 Co205 1.966 . S
O208 C206 1.263 . S
C209 O210 1.235 . S
C209 O236 1.289 . S
O210 C209 1.235 . S
C211 C213 1.400 . S
C211 N214 1.351 . S
C211 C216 1.501 . S
C212 C213 1.387 . S
C212 N215 1.341 . S
C213 C211 1.400 . S
C213 C212 1.387 . S
N214 Co205 2.022 . S
N214 C211 1.351 . S
N214 N215 1.365 . S
N215 C212 1.341 . S
N215 N214 1.365 . S
N215 H235 0.862 . S
C216 C211 1.501 . S
C216 H217 0.961 . S
C216 H218 0.961 . S
C216 H219 0.960 . S
H217 C216 0.961 . S
H218 C216 0.961 . S
H219 C216 0.960 . S
C220 N221 1.342 . S
C220 C224 1.401 . S
C220 C225 1.499 . S
N221 Co204 1.989 . S
N221 C220 1.342 . S
N221 N222 1.388 . S
N222 Co205 1.993 . S
N222 N221 1.388 . S
N222 C223 1.346 . S
C223 N222 1.346 . S
C223 C224 1.396 . S
C223 C233 1.510 . S
C224 C220 1.401 . S
C224 C223 1.396 . S
C225 C220 1.499 . S
C225 H226 0.959 . S
C225 H227 0.960 . S
C225 H228 0.961 . S
H226 C225 0.959 . S
H227 C225 0.960 . S
H228 C225 0.961 . S
O229 Co204 1.967 . S
O229 C237 1.258 . S
O230 Co205 1.941 . S
O230 C237 1.266 . S
H231 C233 0.959 . S
H232 C233 0.961 1_545 S
C233 C223 1.510 . S
C233 H231 0.959 . S
C233 H232 0.961 1_565 S
C233 H234 0.960 . S
H234 C233 0.960 . S
H235 N215 0.862 . S
O236 Co204 1.920 . S
O236 C209 1.289 . S
C237 O229 1.258 . S
C237 O230 1.266 . S
Co238 O241 1.970 . S
Co238 N255 1.989 . S
Co238 O263 1.967 . S
Co238 O270 1.920 . S
Co239 O242 1.966 1_556 S
Co239 N248 2.022 . S
Co239 N256 1.993 . S
Co239 O264 1.941 . S
C240 O241 1.258 1_554 S
C240 O242 1.263 . S
O241 Co238 1.970 . S
O241 C240 1.258 1_556 S
O242 Co239 1.966 1_554 S
O242 C240 1.263 . S
C243 O244 1.235 1_455 S
C243 O270 1.289 1_455 S
O244 C243 1.235 1_655 S
C245 C247 1.400 . S
C245 N248 1.351 1_554 S
C245 C250 1.501 . S
C246 C247 1.387 1_556 S
C246 N249 1.341 . S
C247 C245 1.400 . S
C247 C246 1.387 1_554 S
N248 Co239 2.022 . S
N248 C245 1.351 1_556 S
N248 N249 1.365 . S
N249 C246 1.341 . S
N249 N248 1.365 . S
N249 H269 0.862 . S
C250 C245 1.501 . S
C250 H251 0.961 . S
C250 H252 0.961 . S
C250 H253 0.960 . S
H251 C250 0.961 . S
H252 C250 0.961 . S
H253 C250 0.960 . S
C254 N255 1.342 . S
C254 C258 1.401 . S
C254 C259 1.499 . S
N255 Co238 1.989 . S
N255 C254 1.342 . S
N255 N256 1.388 . S
N256 Co239 1.993 . S
N256 N255 1.388 . S
N256 C257 1.346 . S
C257 N256 1.346 . S
C257 C258 1.396 . S
C257 C267 1.510 . S
C258 C254 1.401 . S
C258 C257 1.396 . S
C259 C254 1.499 . S
C259 H260 0.959 . S
C259 H261 0.960 . S
C259 H262 0.961 . S
H260 C259 0.959 . S
H261 C259 0.960 . S
H262 C259 0.961 . S
O263 Co238 1.967 . S
O263 C271 1.258 . S
O264 Co239 1.941 . S
O264 C271 1.266 . S
H265 C267 0.959 . S
H266 C267 0.961 . S
C267 C257 1.510 . S
C267 H265 0.959 . S
C267 H266 0.961 . S
C267 H268 0.960 . S
H268 C267 0.960 . S
H269 N249 0.862 . S
O270 Co238 1.920 . S
O270 C243 1.289 1_655 S
C271 O263 1.258 . S
C271 O264 1.266 . S
Co272 O275 1.970 . S
Co272 N289 1.989 . S
Co272 O297 1.967 . S
Co272 O304 1.920 . S
Co273 O276 1.966 . S
Co273 N282 2.022 . S
Co273 N290 1.993 . S
Co273 O298 1.941 . S
C274 O275 1.258 . S
C274 O276 1.263 . S
O275 Co272 1.970 . S
O275 C274 1.258 . S
O276 Co273 1.966 . S
O276 C274 1.263 . S
C277 O278 1.235 1_545 S
C277 O304 1.289 1_545 S
O278 C277 1.235 1_565 S
C279 C281 1.400 . S
C279 N282 1.351 . S
C279 C284 1.501 . S
C280 C281 1.387 . S
C280 N283 1.341 . S
C281 C279 1.400 . S
C281 C280 1.387 . S
N282 Co273 2.022 . S
N282 C279 1.351 . S
N282 N283 1.365 . S
N283 C280 1.341 . S
N283 N282 1.365 . S
N283 H303 0.862 . S
C284 C279 1.501 . S
C284 H285 0.961 . S
C284 H286 0.961 . S
C284 H287 0.960 . S
H285 C284 0.961 . S
H286 C284 0.961 . S
H287 C284 0.960 . S
C288 N289 1.342 . S
C288 C292 1.401 . S
C288 C293 1.499 . S
N289 Co272 1.989 . S
N289 C288 1.342 . S
N289 N290 1.388 . S
N290 Co273 1.993 . S
N290 N289 1.388 . S
N290 C291 1.346 . S
C291 N290 1.346 . S
C291 C292 1.396 . S
C291 C301 1.510 . S
C292 C288 1.401 . S
C292 C291 1.396 . S
C293 C288 1.499 . S
C293 H294 0.959 . S
C293 H295 0.960 . S
C293 H296 0.961 . S
H294 C293 0.959 . S
H295 C293 0.960 . S
H296 C293 0.961 . S
O297 Co272 1.967 . S
O297 C305 1.258 . S
O298 Co273 1.941 . S
O298 C305 1.266 . S
H299 C301 0.959 . S
H300 C301 0.961 1_655 S
C301 C291 1.510 . S
C301 H299 0.959 . S
C301 H300 0.961 1_455 S
C301 H302 0.960 . S
H302 C301 0.960 . S
H303 N283 0.862 . S
O304 Co272 1.920 . S
O304 C277 1.289 1_565 S
C305 O297 1.258 . S
C305 O298 1.266 . S
Co306 O309 1.970 . S
Co306 N323 1.989 . S
Co306 O331 1.967 . S
Co306 O338 1.920 . S
Co307 O310 1.966 . S
Co307 N316 2.022 . S
Co307 N324 1.993 . S
Co307 O332 1.941 . S
C308 O309 1.258 . S
C308 O310 1.263 . S
O309 Co306 1.970 . S
O309 C308 1.258 . S
O310 Co307 1.966 . S
O310 C308 1.263 . S
C311 O312 1.235 . S
C311 O338 1.289 . S
O312 C311 1.235 . S
C313 C315 1.400 . S
C313 N316 1.351 . S
C313 C318 1.501 . S
C314 C315 1.387 . S
C314 N317 1.341 . S
C315 C313 1.400 . S
C315 C314 1.387 . S
N316 Co307 2.022 . S
N316 C313 1.351 . S
N316 N317 1.365 . S
N317 C314 1.341 . S
N317 N316 1.365 . S
N317 H337 0.862 . S
C318 C313 1.501 . S
C318 H319 0.961 . S
C318 H320 0.961 . S
C318 H321 0.960 . S
H319 C318 0.961 . S
H320 C318 0.961 . S
H321 C318 0.960 . S
C322 N323 1.342 . S
C322 C326 1.401 . S
C322 C327 1.499 . S
N323 Co306 1.989 . S
N323 C322 1.342 . S
N323 N324 1.388 . S
N324 Co307 1.993 . S
N324 N323 1.388 . S
N324 C325 1.346 . S
C325 N324 1.346 . S
C325 C326 1.396 . S
C325 C335 1.510 . S
C326 C322 1.401 . S
C326 C325 1.396 . S
C327 C322 1.499 . S
C327 H328 0.959 . S
C327 H329 0.960 . S
C327 H330 0.961 . S
H328 C327 0.959 . S
H329 C327 0.960 . S
H330 C327 0.961 . S
O331 Co306 1.967 . S
O331 C339 1.258 . S
O332 Co307 1.941 . S
O332 C339 1.266 . S
H333 C335 0.959 . S
H334 C335 0.961 1_565 S
C335 C325 1.510 . S
C335 H333 0.959 . S
C335 H334 0.961 1_545 S
C335 H336 0.960 . S
H336 C335 0.960 . S
H337 N317 0.862 . S
O338 Co306 1.920 . S
O338 C311 1.289 . S
C339 O331 1.258 . S
C339 O332 1.266 . S
Co340 O343 1.970 . S
Co340 N357 1.989 . S
Co340 O365 1.967 . S
Co340 O372 1.920 . S
Co341 O344 1.966 . S
Co341 N350 2.022 . S
Co341 N358 1.993 . S
Co341 O366 1.941 . S
C342 O343 1.258 . S
C342 O344 1.263 . S
O343 Co340 1.970 . S
O343 C342 1.258 . S
O344 Co341 1.966 . S
O344 C342 1.263 . S
C345 O346 1.235 1_655 S
C345 O372 1.289 1_655 S
O346 C345 1.235 1_455 S
C347 C349 1.400 . S
C347 N350 1.351 . S
C347 C352 1.501 . S
C348 C349 1.387 . S
C348 N351 1.341 . S
C349 C347 1.400 . S
C349 C348 1.387 . S
N350 Co341 2.022 . S
N350 C347 1.351 . S
N350 N351 1.365 . S
N351 C348 1.341 . S
N351 N350 1.365 . S
N351 H371 0.862 . S
C352 C347 1.501 . S
C352 H353 0.961 . S
C352 H354 0.961 . S
C352 H355 0.960 . S
H353 C352 0.961 . S
H354 C352 0.961 . S
H355 C352 0.960 . S
C356 N357 1.342 . S
C356 C360 1.401 . S
C356 C361 1.499 . S
N357 Co340 1.989 . S
N357 C356 1.342 . S
N357 N358 1.388 . S
N358 Co341 1.993 . S
N358 N357 1.388 . S
N358 C359 1.346 . S
C359 N358 1.346 . S
C359 C360 1.396 . S
C359 C369 1.510 . S
C360 C356 1.401 . S
C360 C359 1.396 . S
C361 C356 1.499 . S
C361 H362 0.959 . S
C361 H363 0.960 . S
C361 H364 0.961 . S
H362 C361 0.959 . S
H363 C361 0.960 . S
H364 C361 0.961 . S
O365 Co340 1.967 . S
O365 C373 1.258 . S
O366 Co341 1.941 . S
O366 C373 1.266 . S
H367 C369 0.959 . S
H368 C369 0.961 . S
C369 C359 1.510 . S
C369 H367 0.959 . S
C369 H368 0.961 . S
C369 H370 0.960 . S
H370 C369 0.960 . S
H371 N351 0.862 . S
O372 Co340 1.920 . S
O372 C345 1.289 1_455 S
C373 O365 1.258 . S
C373 O366 1.266 . S
Co374 O377 1.970 . S
Co374 N391 1.989 . S
Co374 O399 1.967 . S
Co374 O406 1.920 . S
Co375 O378 1.966 . S
Co375 N384 2.022 . S
Co375 N392 1.993 . S
Co375 O400 1.941 . S
C376 O377 1.258 . S
C376 O378 1.263 . S
O377 Co374 1.970 . S
O377 C376 1.258 . S
O378 Co375 1.966 . S
O378 C376 1.263 . S
C379 O380 1.235 1_565 S
C379 O406 1.289 1_565 S
O380 C379 1.235 1_545 S
C381 C383 1.400 . S
C381 N384 1.351 . S
C381 C386 1.501 . S
C382 C383 1.387 . S
C382 N385 1.341 . S
C383 C381 1.400 . S
C383 C382 1.387 . S
N384 Co375 2.022 . S
N384 C381 1.351 . S
N384 N385 1.365 . S
N385 C382 1.341 . S
N385 N384 1.365 . S
N385 H405 0.862 . S
C386 C381 1.501 . S
C386 H387 0.961 . S
C386 H388 0.961 . S
C386 H389 0.960 . S
H387 C386 0.961 . S
H388 C386 0.961 . S
H389 C386 0.960 . S
C390 N391 1.342 . S
C390 C394 1.401 . S
C390 C395 1.499 . S
N391 Co374 1.989 . S
N391 C390 1.342 . S
N391 N392 1.388 . S
N392 Co375 1.993 . S
N392 N391 1.388 . S
N392 C393 1.346 . S
C393 N392 1.346 . S
C393 C394 1.396 . S
C393 C403 1.510 . S
C394 C390 1.401 . S
C394 C393 1.396 . S
C395 C390 1.499 . S
C395 H396 0.959 . S
C395 H397 0.960 . S
C395 H398 0.961 . S
H396 C395 0.959 . S
H397 C395 0.960 . S
H398 C395 0.961 . S
O399 Co374 1.967 . S
O399 C407 1.258 . S
O400 Co375 1.941 . S
O400 C407 1.266 . S
H401 C403 0.959 . S
H402 C403 0.961 1_455 S
C403 C393 1.510 . S
C403 H401 0.959 . S
C403 H402 0.961 1_655 S
C403 H404 0.960 . S
H404 C403 0.960 . S
H405 N385 0.862 . S
O406 Co374 1.920 . S
O406 C379 1.289 1_545 S
C407 O399 1.258 . S
C407 O400 1.266 . S
C408 C409 1.369 . S
C408 C410 1.419 . S
C408 H412 0.930 . S
C409 C408 1.369 . S
C409 C418 1.429 . S
C410 C408 1.419 . S
C410 C411 1.363 . S
C410 H413 0.932 . S
C411 C410 1.363 . S
C411 C417 1.428 . S
H412 C408 0.930 . S
H413 C410 0.932 . S
S414 N415 1.613 . S
S414 N416 1.610 . S
N415 S414 1.613 . S
N415 C418 1.350 . S
N416 S414 1.610 . S
N416 C417 1.351 . S
C417 C411 1.428 . S
C417 N416 1.351 . S
C417 C418 1.434 . S
C418 C409 1.429 . S
C418 N415 1.350 . S
C418 C417 1.434 . S
C419 C420 1.369 . S
C419 C421 1.419 . S
C419 H423 0.930 . S
C420 C419 1.369 . S
C420 C429 1.429 . S
C421 C419 1.419 . S
C421 C422 1.363 . S
C421 H424 0.929 . S
C422 C421 1.363 . S
C422 C428 1.428 . S
H423 C419 0.930 . S
H424 C421 0.929 . S
S425 N426 1.613 1_655 S
S425 N427 1.610 . S
N426 S425 1.613 1_455 S
N426 C429 1.350 . S
N427 S425 1.610 . S
N427 C428 1.351 1_655 S
C428 C422 1.428 . S
C428 N427 1.351 1_455 S
C428 C429 1.434 . S
C429 C420 1.429 . S
C429 N426 1.350 . S
C429 C428 1.434 . S
C430 C431 1.369 . S
C430 C432 1.419 . S
C430 H434 0.930 . S
C431 C430 1.369 . S
C431 C440 1.429 . S
C432 C430 1.419 . S
C432 C433 1.363 . S
C432 H435 0.929 1_545 S
C433 C432 1.363 . S
C433 C439 1.428 . S
H434 C430 0.930 . S
H435 C432 0.929 1_565 S
S436 N437 1.613 . S
S436 N438 1.610 1_455 S
N437 S436 1.613 . S
N437 C440 1.350 1_455 S
N438 S436 1.610 1_655 S
N438 C439 1.351 . S
C439 C433 1.428 . S
C439 N438 1.351 . S
C439 C440 1.434 . S
C440 C431 1.429 . S
C440 N437 1.350 1_655 S
C440 C439 1.434 . S
C441 C442 1.369 . S
C441 C443 1.419 . S
C441 H445 0.930 . S
C442 C441 1.369 . S
C442 C451 1.429 . S
C443 C441 1.419 . S
C443 C444 1.363 . S
C443 H446 0.929 . S
C444 C443 1.363 . S
C444 C450 1.428 . S
H445 C441 0.930 . S
H446 C443 0.929 . S
S447 N448 1.613 . S
S447 N449 1.610 . S
N448 S447 1.613 . S
N448 C451 1.350 . S
N449 S447 1.610 . S
N449 C450 1.351 . S
C450 C444 1.428 . S
C450 N449 1.351 . S
C450 C451 1.434 . S
C451 C442 1.429 . S
C451 N448 1.350 . S
C451 C450 1.434 . S
C452 C453 1.369 . S
C452 C454 1.419 . S
C452 H456 0.930 . S
C453 C452 1.369 . S
C453 C462 1.429 . S
C454 C452 1.419 . S
C454 C455 1.363 . S
C454 H457 0.929 . S
C455 C454 1.363 . S
C455 C461 1.428 . S
H456 C452 0.930 . S
H457 C454 0.929 . S
S458 N459 1.613 . S
S458 N460 1.610 . S
N459 S458 1.613 . S
N459 C462 1.350 . S
N460 S458 1.610 . S
N460 C461 1.351 . S
C461 C455 1.428 . S
C461 N460 1.351 . S
C461 C462 1.434 . S
C462 C453 1.429 . S
C462 N459 1.350 . S
C462 C461 1.434 . S
C463 C464 1.369 . S
C463 C465 1.419 . S
C463 H467 0.930 . S
C464 C463 1.369 . S
C464 C473 1.429 . S
C465 C463 1.419 . S
C465 C466 1.363 . S
C465 H468 0.929 . S
C466 C465 1.363 . S
C466 C472 1.428 . S
H467 C463 0.930 . S
H468 C465 0.929 . S
S469 N470 1.613 1_655 S
S469 N471 1.610 . S
N470 S469 1.613 1_455 S
N470 C473 1.350 . S
N471 S469 1.610 . S
N471 C472 1.351 1_655 S
C472 C466 1.428 . S
C472 N471 1.351 1_455 S
C472 C473 1.434 . S
C473 C464 1.429 . S
C473 N470 1.350 . S
C473 C472 1.434 . S
C474 C475 1.369 . S
C474 C476 1.419 . S
C474 H478 0.930 . S
C475 C474 1.369 . S
C475 C484 1.429 1_554 S
C476 C474 1.419 . S
C476 C477 1.363 . S
C476 H479 0.929 . S
C477 C476 1.363 . S
C477 C483 1.428 . S
H478 C474 0.930 . S
H479 C476 0.929 . S
S480 N481 1.613 . S
S480 N482 1.610 . S
N481 S480 1.613 . S
N481 C484 1.350 . S
N482 S480 1.610 . S
N482 C483 1.351 1_556 S
C483 C477 1.428 . S
C483 N482 1.351 1_554 S
C483 C484 1.434 1_554 S
C484 C475 1.429 1_556 S
C484 N481 1.350 . S
C484 C483 1.434 1_556 S
C485 C486 1.369 . S
C485 C487 1.419 . S
C485 H489 0.930 . S
C486 C485 1.369 . S
C486 C495 1.429 . S
C487 C485 1.419 . S
C487 C488 1.363 1_655 S
C487 H490 0.929 . S
C488 C487 1.363 1_455 S
C488 C494 1.428 1_455 S
H489 C485 0.930 . S
H490 C487 0.929 . S
S491 N492 1.613 . S
S491 N493 1.610 1_655 S
N492 S491 1.613 . S
N492 C495 1.350 . S
N493 S491 1.610 1_455 S
N493 C494 1.351 1_455 S
C494 C488 1.428 1_655 S
C494 N493 1.351 1_655 S
C494 C495 1.434 . S
C495 C486 1.429 . S
C495 N492 1.350 . S
C495 C494 1.434 . S
C496 C497 1.369 . S
C496 C498 1.419 1_545 S
C496 H500 0.930 . S
C497 C496 1.369 . S
C497 C506 1.429 1_545 S
C498 C496 1.419 1_565 S
C498 C499 1.363 . S
C498 H501 0.929 . S
C499 C498 1.363 . S
C499 C505 1.428 . S
H500 C496 0.930 . S
H501 C498 0.929 . S
S502 N503 1.613 . S
S502 N504 1.610 . S
N503 S502 1.613 . S
N503 C506 1.350 . S
N504 S502 1.610 . S
N504 C505 1.351 . S
C505 C499 1.428 . S
C505 N504 1.351 . S
C505 C506 1.434 . S
C506 C497 1.429 1_565 S
C506 N503 1.350 . S
C506 C505 1.434 . S
C507 C508 1.369 . S
C507 C509 1.419 . S
C507 H511 0.930 . S
C508 C507 1.369 . S
C508 C517 1.429 . S
C509 C507 1.419 . S
C509 C510 1.363 . S
C509 H512 0.929 . S
C510 C509 1.363 . S
C510 C516 1.428 . S
H511 C507 0.930 . S
H512 C509 0.929 . S
S513 N514 1.613 . S
S513 N515 1.610 . S
N514 S513 1.613 . S
N514 C517 1.350 . S
N515 S513 1.610 . S
N515 C516 1.351 . S
C516 C510 1.428 . S
C516 N515 1.351 . S
C516 C517 1.434 . S
C517 C508 1.429 . S
C517 N514 1.350 . S
C517 C516 1.434 . S
C518 C519 1.369 . S
C518 C520 1.419 1_655 S
C518 H522 0.930 . S
C519 C518 1.369 . S
C519 C528 1.429 1_655 S
C520 C518 1.419 1_455 S
C520 C521 1.363 . S
C520 H523 0.929 . S
C521 C520 1.363 . S
C521 C527 1.428 . S
H522 C518 0.930 . S
H523 C520 0.929 . S
S524 N525 1.613 . S
S524 N526 1.610 . S
N525 S524 1.613 . S
N525 C528 1.350 . S
N526 S524 1.610 . S
N526 C527 1.351 . S
C527 C521 1.428 . S
C527 N526 1.351 . S
C527 C528 1.434 . S
C528 C519 1.429 1_455 S
C528 N525 1.350 . S
C528 C527 1.434 . S
C529 C530 1.369 1_545 S
C529 C531 1.419 . S
C529 H533 0.930 1_545 S
C530 C529 1.369 1_565 S
C530 C539 1.429 1_565 S
C531 C529 1.419 . S
C531 C532 1.363 . S
C531 H534 0.929 . S
C532 C531 1.363 . S
C532 C538 1.428 . S
H533 C529 0.930 1_565 S
H534 C531 0.929 . S
S535 N536 1.613 . S
S535 N537 1.610 . S
N536 S535 1.613 . S
N536 C539 1.350 . S
N537 S535 1.610 . S
N537 C538 1.351 . S
C538 C532 1.428 . S
C538 N537 1.351 . S
C538 C539 1.434 . S
C539 C530 1.429 1_545 S
C539 N536 1.350 . S
C539 C538 1.434 . S
C540 C541 1.369 . S
C540 C542 1.419 . S
C540 H544 0.930 . S
C541 C540 1.369 . S
C541 C550 1.429 . S
C542 C540 1.419 . S
C542 C543 1.363 . S
C542 H545 0.929 . S
C543 C542 1.363 . S
C543 C549 1.428 . S
H544 C540 0.930 . S
H545 C542 0.929 . S
S546 N547 1.613 . S
S546 N548 1.610 . S
N547 S546 1.613 . S
N547 C550 1.350 . S
N548 S546 1.610 . S
N548 C549 1.351 . S
C549 C543 1.428 . S
C549 N548 1.351 . S
C549 C550 1.434 . S
C550 C541 1.429 . S
C550 N547 1.350 . S
C550 C549 1.434 . S
C551 C552 1.369 . S
C551 C553 1.419 . S
C551 H555 0.930 . S
C552 C551 1.369 . S
C552 C561 1.429 . S
C553 C551 1.419 . S
C553 C554 1.363 1_655 S
C553 H556 0.929 . S
C554 C553 1.363 1_455 S
C554 C560 1.428 . S
H555 C551 0.930 . S
H556 C553 0.929 . S
S557 N558 1.613 . S
S557 N559 1.610 . S
N558 S557 1.613 . S
N558 C561 1.350 1_455 S
N559 S557 1.610 . S
N559 C560 1.351 . S
C560 C554 1.428 . S
C560 N559 1.351 . S
C560 C561 1.434 1_455 S
C561 C552 1.429 . S
C561 N558 1.350 1_655 S
C561 C560 1.434 1_655 S
C562 C563 1.369 . S
C562 C564 1.419 . S
C562 H566 0.930 . S
C563 C562 1.369 . S
C563 C572 1.429 . S
C564 C562 1.419 . S
C564 C565 1.363 1_565 S
C564 H567 0.929 . S
C565 C564 1.363 1_545 S
C565 C571 1.428 . S
H566 C562 0.930 . S
H567 C564 0.929 . S
S568 N569 1.613 . S
S568 N570 1.610 . S
N569 S568 1.613 . S
N569 C572 1.350 1_545 S
N570 S568 1.610 . S
N570 C571 1.351 . S
C571 C565 1.428 . S
C571 N570 1.351 . S
C571 C572 1.434 1_545 S
C572 C563 1.429 . S
C572 N569 1.350 1_565 S
C572 C571 1.434 1_565 S
C573 C574 1.369 . S
C573 C575 1.419 . S
C573 H577 0.930 . S
C574 C573 1.369 . S
C574 C583 1.429 . S
C575 C573 1.419 . S
C575 C576 1.363 . S
C575 H578 0.929 . S
C576 C575 1.363 . S
C576 C582 1.428 . S
H577 C573 0.930 . S
H578 C575 0.929 . S
S579 N580 1.613 . S
S579 N581 1.610 . S
N580 S579 1.613 . S
N580 C583 1.350 . S
N581 S579 1.610 . S
N581 C582 1.351 . S
C582 C576 1.428 . S
C582 N581 1.351 . S
C582 C583 1.434 . S
C583 C574 1.429 . S
C583 N580 1.350 . S
C583 C582 1.434 . S
C584 C585 1.369 . S
C584 C586 1.419 1_655 S
C584 H588 0.930 . S
C585 C584 1.369 . S
C585 C594 1.429 1_655 S
C586 C584 1.419 1_455 S
C586 C587 1.363 . S
C586 H589 0.929 . S
C587 C586 1.363 . S
C587 C593 1.428 . S
H588 C584 0.930 . S
H589 C586 0.929 . S
S590 N591 1.613 . S
S590 N592 1.610 . S
N591 S590 1.613 . S
N591 C594 1.350 . S
N592 S590 1.610 . S
N592 C593 1.351 . S
C593 C587 1.428 . S
C593 N592 1.351 . S
C593 C594 1.434 . S
C594 C585 1.429 1_455 S
C594 N591 1.350 . S
C594 C593 1.434 . S
C595 C596 1.369 1_545 S
C595 C597 1.419 . S
C595 H599 0.930 . S
C596 C595 1.369 1_565 S
C596 C605 1.429 . S
C597 C595 1.419 . S
C597 C598 1.363 . S
C597 H600 0.929 . S
C598 C597 1.363 . S
C598 C604 1.428 . S
H599 C595 0.930 . S
H600 C597 0.929 . S
S601 N602 1.613 . S
S601 N603 1.610 . S
N602 S601 1.613 . S
N602 C605 1.350 . S
N603 S601 1.610 . S
N603 C604 1.351 1_565 S
C604 C598 1.428 . S
C604 N603 1.351 1_545 S
C604 C605 1.434 1_545 S
C605 C596 1.429 . S
C605 N602 1.350 . S
C605 C604 1.434 1_565 S
C606 C607 1.369 . S
C606 C608 1.419 . S
C606 H610 0.930 . S
C607 C606 1.369 . S
C607 C616 1.429 . S
C608 C606 1.419 . S
C608 C609 1.363 . S
C608 H611 0.929 . S
C609 C608 1.363 . S
C609 C615 1.428 . S
H610 C606 0.930 . S
H611 C608 0.929 . S
S612 N613 1.613 . S
S612 N614 1.610 . S
N613 S612 1.613 . S
N613 C616 1.350 . S
N614 S612 1.610 . S
N614 C615 1.351 . S
C615 C609 1.428 . S
C615 N614 1.351 . S
C615 C616 1.434 . S
C616 C607 1.429 . S
C616 N613 1.350 . S
C616 C615 1.434 . S
C617 C618 1.369 1_655 S
C617 C619 1.419 . S
C617 H621 0.930 . S
C618 C617 1.369 1_455 S
C618 C627 1.429 . S
C619 C617 1.419 . S
C619 C620 1.363 . S
C619 H622 0.929 . S
C620 C619 1.363 . S
C620 C626 1.428 . S
H621 C617 0.930 . S
H622 C619 0.929 . S
S623 N624 1.613 . S
S623 N625 1.610 . S
N624 S623 1.613 . S
N624 C627 1.350 . S
N625 S623 1.610 . S
N625 C626 1.351 1_455 S
C626 C620 1.428 . S
C626 N625 1.351 1_655 S
C626 C627 1.434 1_655 S
C627 C618 1.429 . S
C627 N624 1.350 . S
C627 C626 1.434 1_455 S
C628 C629 1.369 . S
C628 C630 1.419 . S
C628 H632 0.930 . S
C629 C628 1.369 . S
C629 C638 1.429 . S
C630 C628 1.419 . S
C630 C631 1.363 1_565 S
C630 H633 0.929 . S
C631 C630 1.363 1_545 S
C631 C637 1.428 . S
H632 C628 0.930 . S
H633 C630 0.929 . S
S634 N635 1.613 . S
S634 N636 1.610 . S
N635 S634 1.613 . S
N635 C638 1.350 1_545 S
N636 S634 1.610 . S
N636 C637 1.351 . S
C637 C631 1.428 . S
C637 N636 1.351 . S
C637 C638 1.434 1_545 S
C638 C629 1.429 . S
C638 N635 1.350 1_565 S
C638 C637 1.434 1_565 S
C639 C640 1.369 . S
C639 C641 1.419 . S
C639 H643 0.930 . S
C640 C639 1.369 . S
C640 C649 1.429 . S
C641 C639 1.419 . S
C641 C642 1.363 . S
C641 H644 0.929 . S
C642 C641 1.363 . S
C642 C648 1.428 . S
H643 C639 0.930 . S
H644 C641 0.929 . S
S645 N646 1.613 . S
S645 N647 1.610 . S
N646 S645 1.613 . S
N646 C649 1.350 . S
N647 S645 1.610 . S
N647 C648 1.351 . S
C648 C642 1.428 . S
C648 N647 1.351 . S
C648 C649 1.434 . S
C649 C640 1.429 . S
C649 N646 1.350 . S
C649 C648 1.434 . S
C650 C651 1.369 . S
C650 C652 1.419 1_655 S
C650 H654 0.930 . S
C651 C650 1.369 . S
C651 C660 1.429 1_655 S
C652 C650 1.419 1_455 S
C652 C653 1.363 . S
C652 H655 0.929 . S
C653 C652 1.363 . S
C653 C659 1.428 . S
H654 C650 0.930 . S
H655 C652 0.929 . S
S656 N657 1.613 . S
S656 N658 1.610 . S
N657 S656 1.613 . S
N657 C660 1.350 . S
N658 S656 1.610 . S
N658 C659 1.351 . S
C659 C653 1.428 . S
C659 N658 1.351 . S
C659 C660 1.434 . S
C660 C651 1.429 1_455 S
C660 N657 1.350 . S
C660 C659 1.434 . S
C661 C662 1.369 1_545 S
C661 C663 1.419 . S
C661 H665 0.930 . S
C662 C661 1.369 1_565 S
C662 C671 1.429 . S
C663 C661 1.419 . S
C663 C664 1.363 . S
C663 H666 0.929 . S
C664 C663 1.363 . S
C664 C670 1.428 . S
H665 C661 0.930 . S
H666 C663 0.929 . S
S667 N668 1.613 . S
S667 N669 1.610 . S
N668 S667 1.613 . S
N668 C671 1.350 . S
N669 S667 1.610 . S
N669 C670 1.351 1_565 S
C670 C664 1.428 . S
C670 N669 1.351 1_545 S
C670 C671 1.434 1_545 S
C671 C662 1.429 . S
C671 N668 1.350 . S
C671 C670 1.434 1_565 S
C672 C673 1.369 . S
C672 C674 1.419 . S
C672 H676 0.930 . S
C673 C672 1.369 . S
C673 C682 1.429 . S
C674 C672 1.419 . S
C674 C675 1.363 . S
C674 H677 0.929 . S
C675 C674 1.363 . S
C675 C681 1.428 . S
H676 C672 0.930 . S
H677 C674 0.929 . S
S678 N679 1.613 . S
S678 N680 1.610 . S
N679 S678 1.613 . S
N679 C682 1.350 . S
N680 S678 1.610 . S
N680 C681 1.351 . S
C681 C675 1.428 . S
C681 N680 1.351 . S
C681 C682 1.434 . S
C682 C673 1.429 . S
C682 N679 1.350 . S
C682 C681 1.434 . S
C683 C684 1.369 . S
C683 C685 1.419 1_655 S
C683 H687 0.930 . S
C684 C683 1.369 . S
C684 C693 1.429 . S
C685 C683 1.419 1_455 S
C685 C686 1.363 . S
C685 H688 0.929 . S
C686 C685 1.363 . S
C686 C692 1.428 1_455 S
H687 C683 0.930 . S
H688 C685 0.929 . S
S689 N690 1.613 . S
S689 N691 1.610 . S
N690 S689 1.613 . S
N690 C693 1.350 . S
N691 S689 1.610 . S
N691 C692 1.351 . S
C692 C686 1.428 1_655 S
C692 N691 1.351 . S
C692 C693 1.434 . S
C693 C684 1.429 . S
C693 N690 1.350 . S
C693 C692 1.434 . S
C694 C695 1.369 . S
C694 C696 1.419 1_565 S
C694 H698 0.930 . S
C695 C694 1.369 . S
C695 C704 1.429 . S
C696 C694 1.419 1_545 S
C696 C697 1.363 . S
C696 H699 0.929 . S
C697 C696 1.363 . S
C697 C703 1.428 1_545 S
H698 C694 0.930 . S
H699 C696 0.929 . S
S700 N701 1.613 . S
S700 N702 1.610 . S
N701 S700 1.613 . S
N701 C704 1.350 . S
N702 S700 1.610 . S
N702 C703 1.351 . S
C703 C697 1.428 1_565 S
C703 N702 1.351 . S
C703 C704 1.434 . S
C704 C695 1.429 . S
C704 N701 1.350 . S
C704 C703 1.434 . S
C705 C706 1.369 . S
C705 C707 1.419 . S
C705 H709 0.930 . S
C706 C705 1.369 . S
C706 C715 1.429 . S
C707 C705 1.419 . S
C707 C708 1.363 . S
C707 H710 0.929 . S
C708 C707 1.363 . S
C708 C714 1.428 . S
H709 C705 0.930 . S
H710 C707 0.929 . S
S711 N712 1.613 . S
S711 N713 1.610 . S
N712 S711 1.613 . S
N712 C715 1.350 . S
N713 S711 1.610 . S
N713 C714 1.351 . S
C714 C708 1.428 . S
C714 N713 1.351 . S
C714 C715 1.434 . S
C715 C706 1.429 . S
C715 N712 1.350 . S
C715 C714 1.434 . S
C716 C717 1.369 1_455 S
C716 C718 1.419 . S
C716 H720 0.930 . S
C717 C716 1.369 1_655 S
C717 C726 1.429 . S
C718 C716 1.419 . S
C718 C719 1.363 . S
C718 H721 0.929 . S
C719 C718 1.363 . S
C719 C725 1.428 . S
H720 C716 0.930 . S
H721 C718 0.929 . S
S722 N723 1.613 . S
S722 N724 1.610 1_655 S
N723 S722 1.613 . S
N723 C726 1.350 . S
N724 S722 1.610 1_455 S
N724 C725 1.351 . S
C725 C719 1.428 . S
C725 N724 1.351 . S
C725 C726 1.434 1_455 S
C726 C717 1.429 . S
C726 N723 1.350 . S
C726 C725 1.434 1_655 S
C727 C728 1.369 . S
C727 C729 1.419 . S
C727 H731 0.930 . S
C728 C727 1.369 . S
C728 C737 1.429 . S
C729 C727 1.419 . S
C729 C730 1.363 1_545 S
C729 H732 0.929 . S
C730 C729 1.363 1_565 S
C730 C736 1.428 . S
H731 C727 0.930 . S
H732 C729 0.929 . S
S733 N734 1.613 . S
S733 N735 1.610 . S
N734 S733 1.613 . S
N734 C737 1.350 1_565 S
N735 S733 1.610 . S
N735 C736 1.351 . S
C736 C730 1.428 . S
C736 N735 1.351 . S
C736 C737 1.434 1_565 S
C737 C728 1.429 . S
C737 N734 1.350 1_545 S
C737 C736 1.434 1_545 S
C409 C5 1.083 . S
C411 C277 1.092 . S
C420 C311 1.082 . S
C422 C39 1.084 . S
C431 C345 1.085 . S
C433 C73 1.092 . S
C442 C107 1.080 . S
C444 C379 1.087 . S
C453 C141 1.085 . S
C455 C209 1.082 . S
C464 C175 1.085 . S
C466 C243 1.082 . S
C475 C247 1.562 . S
C477 C33 1.591 . S
C486 C67 1.593 . S
C488 C281 1.565 . S
C497 C315 1.566 . S
C499 C101 1.593 . S
C508 C349 1.561 . S
C510 C135 1.591 . S
C519 C383 1.566 . S
C521 C169 1.592 . S
C530 C213 1.560 . S
C532 C203 1.590 . S
C541 C179 1.558 . S
C543 C237 1.588 . S
C552 C271 1.588 . S
C554 C9 1.560 . S
C563 C305 1.591 . S
C565 C43 1.563 . S
C574 C77 1.559 . S
C576 C339 1.590 . S
C585 C111 1.564 . S
C587 C373 1.592 . S
C596 C145 1.561 . S
C598 C407 1.589 . S
C607 C190 1.419 . S
C609 C2 1.402 . S
C618 C20 1.423 . S
C620 C36 1.395 . S
C629 C70 1.394 . S
C631 C54 1.423 . S
C640 C88 1.427 . S
C642 C104 1.393 . S
C651 C122 1.420 . S
C653 C138 1.402 . S
C662 C156 1.422 . S
C664 C172 1.397 . S
C673 C206 1.396 . S
C675 C258 1.426 . S
C684 C240 1.396 . S
C686 C292 1.426 . S
C695 C274 1.400 . S
C697 C326 1.423 . S
C706 C360 1.426 . S
C708 C308 1.397 . S
C717 C394 1.426 . S
C719 C342 1.393 . S
C728 C376 1.395 . S
C730 C224 1.423 . S
