# Generated by pormake.
# Topology tfs, (6)-cn, num edge types: 1
# Building blocks:
#     Node 0, Type 0, BuildingBlock: CUWYAW_clean_sbu_0, # of connection points: 6
#     Node 1, Type 0, BuildingBlock: CUWYAW_clean_sbu_0, # of connection points: 6
#     Node 2, Type 0, BuildingBlock: CUWYAW_clean_sbu_0, # of connection points: 6
#     Node 3, Type 0, BuildingBlock: CUWYAW_clean_sbu_0, # of connection points: 6
#     Node 4, Type 0, BuildingBlock: CUWYAW_clean_sbu_0, # of connection points: 6
#     Node 5, Type 0, BuildingBlock: CUWYAW_clean_sbu_0, # of connection points: 6
#     Edge 6, Type (0, 0), BuildingBlock: TEMPAE_clean_linker_10, # of connection points: 2
#     Edge 7, Type (0, 0), BuildingBlock: TEMPAE_clean_linker_10, # of connection points: 2
#     Edge 8, Type (0, 0), BuildingBlock: TEMPAE_clean_linker_10, # of connection points: 2
#     Edge 9, Type (0, 0), BuildingBlock: TEMPAE_clean_linker_10, # of connection points: 2
#     Edge 10, Type (0, 0), BuildingBlock: TEMPAE_clean_linker_10, # of connection points: 2
#     Edge 11, Type (0, 0), BuildingBlock: TEMPAE_clean_linker_10, # of connection points: 2
#     Edge 12, Type (0, 0), BuildingBlock: TEMPAE_clean_linker_10, # of connection points: 2
#     Edge 13, Type (0, 0), BuildingBlock: TEMPAE_clean_linker_10, # of connection points: 2
#     Edge 14, Type (0, 0), BuildingBlock: TEMPAE_clean_linker_10, # of connection points: 2
#     Edge 15, Type (0, 0), BuildingBlock: TEMPAE_clean_linker_10, # of connection points: 2
#     Edge 16, Type (0, 0), BuildingBlock: TEMPAE_clean_linker_10, # of connection points: 2
#     Edge 17, Type (0, 0), BuildingBlock: TEMPAE_clean_linker_10, # of connection points: 2
#     Edge 18, Type (0, 0), BuildingBlock: TEMPAE_clean_linker_10, # of connection points: 2
#     Edge 19, Type (0, 0), BuildingBlock: TEMPAE_clean_linker_10, # of connection points: 2
#     Edge 20, Type (0, 0), BuildingBlock: TEMPAE_clean_linker_10, # of connection points: 2
#     Edge 21, Type (0, 0), BuildingBlock: TEMPAE_clean_linker_10, # of connection points: 2
#     Edge 22, Type (0, 0), BuildingBlock: TEMPAE_clean_linker_10, # of connection points: 2
#     Edge 23, Type (0, 0), BuildingBlock: TEMPAE_clean_linker_10, # of connection points: 2
# Relax obj value: 0.535
# Max RMSD: 0.288
# Mean RMSD: 0.288
data_MOF--net-tfs--node1-CUWYAW_clean_sbu_0--edge1-TEMPAE_clean_linker_10
_symmetry_space_group_name_H-M    P1
_symmetry_Int_Tables_number       1
_symmetry_cell_setting            triclinic
loop_
_symmetry_equiv_pos_as_xyz
'x, y, z'
_cell_length_a     55.970416
_cell_length_b     55.962464
_cell_length_c     14.718139
_cell_angle_alpha  89.994989
_cell_angle_beta   90.017933
_cell_angle_gamma 119.99708
loop_
_atom_site_label
_atom_site_type_symbol
_atom_site_fract_x
_atom_site_fract_y
_atom_site_fract_z
_atom_type_partial_charge
C0 C 0.19166 0.36502 0.93238 0.0
Eu1 Eu 0.18324 0.40413 0.99189 0.0
C2 C 0.2122 0.35605 0.94241 0.0
C3 C 0.22499 0.35782 0.02625 0.0
C4 C 0.24362 0.34817 0.03492 0.0
C5 C 0.24998 0.33682 0.95977 0.0
C6 C 0.23747 0.33555 0.87564 0.0
C7 C 0.21871 0.34502 0.86719 0.0
C8 C 0.18303 0.41579 0.17094 0.0
C9 C 0.11864 0.38488 1.00547 0.0
C10 C 0.15732 0.48463 0.08896 0.0
Eu11 Eu 0.16572 0.44568 0.02748 0.0
C12 C 0.16844 0.51444 0.07897 0.0
C13 C 0.19177 0.53067 0.02528 0.0
C14 C 0.20174 0.55903 0.01619 0.0
C15 C 0.18855 0.57154 0.06092 0.0
C16 C 0.16524 0.55505 0.1148 0.0
C17 C 0.15531 0.52678 0.12367 0.0
C18 C 0.16695 0.43411 0.84854 0.0
C19 C 0.23169 0.46611 0.01553 0.0
O20 O 0.17668 0.36253 1.00379 0.0
O21 O 0.19954 0.38808 0.88836 0.0
O22 O 0.20085 0.41041 0.13397 0.0
O23 O 0.16504 0.41301 0.11356 0.0
O24 O 0.13729 0.38214 0.95869 0.0
O25 O 0.12622 0.40673 0.05697 0.0
O26 O 0.17327 0.477 0.12908 0.0
O27 O 0.14459 0.46941 0.0183 0.0
O28 O 0.14832 0.43848 0.88396 0.0
O29 O 0.18473 0.43752 0.90713 0.0
O30 O 0.21228 0.47186 0.03853 0.0
O31 O 0.22568 0.44132 0.98757 0.0
H32 H 0.22047 0.36648 0.08515 0.0
H33 H 0.2532 0.34975 0.10029 0.0
H34 H 0.24179 0.32673 0.81673 0.0
H35 H 0.20904 0.34347 0.80197 0.0
H36 H 0.20219 0.52141 0.99048 0.0
H37 H 0.21987 0.57121 0.97486 0.0
H38 H 0.15436 0.56392 0.14898 0.0
H39 H 0.13722 0.51449 0.16515 0.0
C40 C 0.82818 0.18937 0.93092 0.0
Eu41 Eu 0.78068 0.18234 0.98511 0.0
C42 C 0.85779 0.2095 0.93958 0.0
C43 C 0.87675 0.20008 0.93846 0.0
C44 C 0.90503 0.21872 0.94563 0.0
C45 C 0.91487 0.24718 0.95373 0.0
C46 C 0.89576 0.25656 0.9551 0.0
C47 C 0.86743 0.23786 0.94845 0.0
C48 C 0.76808 0.18241 0.16343 0.0
C49 C 0.73452 0.1182 0.99616 0.0
C50 C 0.67537 0.15841 0.08896 0.0
Eu51 Eu 0.7217 0.16594 0.0215 0.0
C52 C 0.65504 0.16761 0.07717 0.0
C53 C 0.64352 0.16715 0.99187 0.0
C54 C 0.62274 0.17397 0.98397 0.0
C55 C 0.61313 0.1815 0.0611 0.0
C56 C 0.62527 0.18262 0.1459 0.0
C57 C 0.64593 0.17565 0.1538 0.0
C58 C 0.73336 0.16702 0.84127 0.0
C59 C 0.76836 0.23155 0.00686 0.0
O60 O 0.81565 0.17576 1.0044 0.0
O61 O 0.81331 0.19699 0.88371 0.0
O62 O 0.79084 0.2011 0.12644 0.0
O63 O 0.75342 0.16421 0.10603 0.0
O64 O 0.75604 0.13667 0.94964 0.0
O65 O 0.72064 0.12605 0.0485 0.0
O66 O 0.69955 0.17639 0.12164 0.0
O67 O 0.6769 0.14308 0.02467 0.0
O68 O 0.70935 0.1509 0.8764 0.0
O69 O 0.74894 0.18395 0.90025 0.0
O70 O 0.74336 0.21262 0.03348 0.0
O71 O 0.7864 0.22489 0.97598 0.0
H72 H 0.86968 0.17827 0.9316 0.0
H73 H 0.91923 0.21089 0.94346 0.0
H74 H 0.9027 0.27833 0.96235 0.0
H75 H 0.85309 0.24554 0.95014 0.0
H76 H 0.6502 0.16104 0.93151 0.0
H77 H 0.61371 0.17267 0.91777 0.0
H78 H 0.61878 0.18883 0.20641 0.0
H79 H 0.65456 0.17619 0.22021 0.0
C80 C 0.64083 0.82785 0.94518 0.0
Eu81 Eu 0.60017 0.78144 1.00557 0.0
C82 C 0.65007 0.85746 0.94778 0.0
C83 C 0.67835 0.87657 0.94269 0.0
C84 C 0.68778 0.90485 0.9462 0.0
C85 C 0.66903 0.91451 0.95458 0.0
C86 C 0.64063 0.89526 0.95936 0.0
C87 C 0.63121 0.86693 0.9564 0.0
C88 C 0.58778 0.76981 0.18424 0.0
C89 C 0.61735 0.73458 0.0223 0.0
C90 C 0.51691 0.67635 0.10102 0.0
Eu91 Eu 0.55716 0.72297 0.04059 0.0
C92 C 0.48721 0.65713 0.08672 0.0
C93 C 0.4767 0.64526 1.00134 0.0
C94 C 0.4488 0.62551 0.99139 0.0
C95 C 0.43086 0.61731 0.06648 0.0
C96 C 0.44135 0.62982 0.15121 0.0
C97 C 0.46925 0.64944 0.16121 0.0
C98 C 0.56913 0.73553 0.86171 0.0
C99 C 0.53901 0.77034 0.02637 0.0
O100 O 0.64163 0.81667 0.02222 0.0
O101 O 0.61855 0.81211 0.89808 0.0
O102 O 0.59398 0.79323 0.14703 0.0
O103 O 0.59013 0.75421 0.12739 0.0
O104 O 0.62112 0.75636 0.97568 0.0
O105 O 0.59513 0.72081 0.07256 0.0
O106 O 0.52382 0.70023 0.13768 0.0
O107 O 0.53382 0.67815 0.03659 0.0
O108 O 0.56375 0.7122 0.89713 0.0
O109 O 0.56634 0.7503 0.92023 0.0
O110 O 0.53233 0.74491 0.04969 0.0
O111 O 0.56414 0.78851 0.99928 0.0
H112 H 0.69318 0.86959 0.9361 0.0
H113 H 0.70975 0.91918 0.94146 0.0
H114 H 0.62573 0.90211 0.96687 0.0
H115 H 0.60928 0.85245 0.9612 0.0
H116 H 0.49008 0.65081 0.94257 0.0
H117 H 0.44148 0.61611 0.92538 0.0
H118 H 0.42802 0.62437 0.21007 0.0
H119 H 0.4769 0.65834 0.22766 0.0
C120 C 0.80908 0.63575 0.92807 0.0
Eu121 Eu 0.81792 0.59658 0.98363 0.0
C122 C 0.7887 0.64481 0.93987 0.0
C123 C 0.77648 0.64329 0.02461 0.0
C124 C 0.75786 0.65289 0.03453 0.0
C125 C 0.75095 0.66391 0.95976 0.0
C126 C 0.76293 0.66497 0.87481 0.0
C127 C 0.78168 0.65557 0.86509 0.0
C128 C 0.81842 0.58446 0.16215 0.0
C129 C 0.88263 0.61644 0.99346 0.0
C130 C 0.84467 0.51739 0.08791 0.0
Eu131 Eu 0.83604 0.55543 0.02026 0.0
C132 C 0.83522 0.48786 0.07547 0.0
C133 C 0.83387 0.47663 0.98897 0.0
C134 C 0.82627 0.44886 0.97962 0.0
C135 C 0.8197 0.43173 0.05649 0.0
C136 C 0.82048 0.44297 0.14271 0.0
C137 C 0.82825 0.47077 0.15203 0.0
C138 C 0.83455 0.56565 0.83995 0.0
C139 C 0.76992 0.53432 1.00597 0.0
O140 O 0.82437 0.63807 0.99846 0.0
O141 O 0.80084 0.61274 0.88343 0.0
O142 O 0.79933 0.5879 0.12517 0.0
O143 O 0.83674 0.58842 0.10472 0.0
O144 O 0.86364 0.61886 0.94772 0.0
O145 O 0.87549 0.59483 0.04572 0.0
O146 O 0.82684 0.52356 0.12205 0.0
O147 O 0.85953 0.53413 0.0227 0.0
O148 O 0.85129 0.55857 0.87527 0.0
O149 O 0.81737 0.56375 0.89884 0.0
O150 O 0.78945 0.52898 0.03144 0.0
O151 O 0.7758 0.55891 0.97619 0.0
H152 H 0.78142 0.63483 0.08316 0.0
H153 H 0.74868 0.65149 0.10052 0.0
H154 H 0.75818 0.67357 0.81619 0.0
H155 H 0.79091 0.6569 0.7992 0.0
H156 H 0.83906 0.48937 0.92866 0.0
H157 H 0.82615 0.44097 0.91233 0.0
H158 H 0.81505 0.43027 0.20316 0.0
H159 H 0.82905 0.479 0.21931 0.0
C160 C 0.17371 0.80197 0.88297 0.0
Eu161 Eu 0.21981 0.81674 0.96866 0.0
C162 C 0.14382 0.78465 0.89648 0.0
C163 C 0.13258 0.77527 0.98313 0.0
C164 C 0.10402 0.75852 0.99394 0.0
C165 C 0.08632 0.75078 0.91817 0.0
C166 C 0.0978 0.76038 0.83163 0.0
C167 C 0.12628 0.77717 0.821 0.0
C168 C 0.2296 0.82303 0.15251 0.0
C169 C 0.26355 0.88117 0.99388 0.0
C170 C 0.33036 0.84854 0.07492 0.0
Eu171 Eu 0.28273 0.83748 0.00832 0.0
C172 C 0.35103 0.83985 0.06661 0.0
C173 C 0.34488 0.81502 0.02378 0.0
C174 C 0.36499 0.80718 0.01771 0.0
C175 C 0.3915 0.82407 0.05441 0.0
C176 C 0.39748 0.84901 0.09659 0.0
C177 C 0.37741 0.85679 0.10261 0.0
C178 C 0.26899 0.83764 0.83024 0.0
C179 C 0.23866 0.7711 0.99797 0.0
O180 O 0.18642 0.82429 0.93278 0.0
O181 O 0.1876 0.78897 0.87533 0.0
O182 O 0.20537 0.81428 0.11682 0.0
O183 O 0.24623 0.82749 0.08878 0.0
O184 O 0.24334 0.86294 0.94168 0.0
O185 O 0.27821 0.87387 0.04503 0.0
O186 O 0.3067 0.83077 0.1112 0.0
O187 O 0.32766 0.86144 1.00507 0.0
O188 O 0.29253 0.85556 0.86511 0.0
O189 O 0.25493 0.81973 0.88911 0.0
O190 O 0.26477 0.79116 1.00355 0.0
O191 O 0.21784 0.77578 0.98686 0.0
H192 H 0.14588 0.78075 0.04214 0.0
H193 H 0.09584 0.7512 0.0613 0.0
H194 H 0.08471 0.75505 0.77213 0.0
H195 H 0.13465 0.78428 0.75363 0.0
H196 H 0.32456 0.8017 0.99556 0.0
H197 H 0.35967 0.78773 0.98555 0.0
H198 H 0.41779 0.86267 0.12426 0.0
H199 H 0.3825 0.87609 0.13552 0.0
C200 C 0.35982 0.17231 0.94479 0.0
Eu201 Eu 0.40068 0.21882 1.00421 0.0
C202 C 0.34997 0.14257 0.9493 0.0
C203 C 0.32179 0.12382 0.93779 0.0
C204 C 0.31178 0.09543 0.94258 0.0
C205 C 0.32984 0.08526 0.9588 0.0
C206 C 0.35816 0.10417 0.97023 0.0
C207 C 0.36814 0.13261 0.96585 0.0
C208 C 0.41318 0.23061 0.18275 0.0
C209 C 0.38377 0.26598 0.01985 0.0
C210 C 0.48449 0.32411 0.09809 0.0
Eu211 Eu 0.44391 0.27741 0.03889 0.0
C212 C 0.51423 0.34319 0.08335 0.0
C213 C 0.5248 0.35428 0.99721 0.0
C214 C 0.55272 0.37397 0.98667 0.0
C215 C 0.57065 0.38291 0.06193 0.0
C216 C 0.56008 0.37115 0.14752 0.0
C217 C 0.53217 0.3516 0.15807 0.0
C218 C 0.43187 0.26464 0.86013 0.0
C219 C 0.46177 0.2298 0.0264 0.0
O220 O 0.35896 0.184 0.0206 0.0
O221 O 0.38238 0.18753 0.89835 0.0
O222 O 0.40683 0.20712 0.14577 0.0
O223 O 0.4109 0.24622 0.12578 0.0
O224 O 0.37993 0.2441 0.97358 0.0
O225 O 0.406 0.27977 0.07017 0.0
O226 O 0.47747 0.30028 0.13539 0.0
O227 O 0.46753 0.32223 0.0337 0.0
O228 O 0.43737 0.28804 0.89521 0.0
O229 O 0.43458 0.24988 0.91889 0.0
O230 O 0.46841 0.25519 0.05016 0.0
O231 O 0.43675 0.21175 0.99795 0.0
H232 H 0.30748 0.13117 0.92502 0.0
H233 H 0.28993 0.08143 0.93252 0.0
H234 H 0.37253 0.09697 0.98385 0.0
H235 H 0.38997 0.1468 0.97563 0.0
H236 H 0.51145 0.34817 0.93824 0.0
H237 H 0.56007 0.38275 0.91995 0.0
H238 H 0.57338 0.37716 0.20663 0.0
H239 H 0.52449 0.3433 0.22512 0.0
C240 C 0.36906 0.30057 0.05371 0.0
C241 C 0.36349 0.2756 0.01319 0.0
C242 C 0.3505 0.31044 0.04585 0.0
C243 C 0.32564 0.29489 0.99679 0.0
C244 C 0.31972 0.26951 0.95657 0.0
C245 C 0.33876 0.26022 0.96496 0.0
C246 C 0.35765 0.33767 0.08928 0.0
C247 C 0.29333 0.25225 0.90427 0.0
C248 C 0.26722 0.30935 0.04336 0.0
C249 C 0.26937 0.32608 0.96924 0.0
C250 C 0.28521 0.29884 0.05274 0.0
C251 C 0.30601 0.30538 0.98678 0.0
C252 C 0.3083 0.32229 0.91188 0.0
C253 C 0.28989 0.33235 0.90384 0.0
C254 C 0.28194 0.28067 0.13311 0.0
C255 C 0.33037 0.32996 0.84061 0.0
H256 H 0.38814 0.31266 0.09091 0.0
H257 H 0.33424 0.24089 0.93355 0.0
H258 H 0.35857 0.35229 0.0366 0.0
H259 H 0.34136 0.33472 0.13836 0.0
H260 H 0.37775 0.34719 0.1255 0.0
H261 H 0.29151 0.23271 0.87891 0.0
H262 H 0.27528 0.24719 0.94808 0.0
H263 H 0.29237 0.26412 0.84539 0.0
H264 H 0.25116 0.30415 0.09347 0.0
H265 H 0.29182 0.34549 0.84693 0.0
H266 H 0.30114 0.29019 0.17416 0.0
H267 H 0.27847 0.26037 0.10918 0.0
H268 H 0.26447 0.2772 0.17765 0.0
H269 H 0.35106 0.34114 0.87269 0.0
H270 H 0.32929 0.34317 0.78629 0.0
H271 H 0.32835 0.31104 0.80895 0.0
C272 C 0.07983 0.34251 0.93415 0.0
C273 C 0.089 0.36381 0.99847 0.0
C274 C 0.05164 0.32299 0.92533 0.0
C275 C 0.03222 0.32473 0.98252 0.0
C276 C 0.04141 0.346 0.0482 0.0
C277 C 0.06965 0.3653 0.0552 0.0
C278 C 0.04262 0.30066 0.85426 0.0
C279 C 0.02137 0.34847 0.1108 0.0
C280 C 0.95713 0.29143 0.90964 0.0
C281 C 0.94498 0.26696 0.96053 0.0
C282 C 0.98557 0.31022 0.91515 0.0
C283 C 0.00223 0.3045 0.97342 0.0
C284 C 0.9901 0.2798 0.02478 0.0
C285 C 0.96164 0.2613 0.01755 0.0
C286 C 0.99777 0.33624 0.85884 0.0
C287 C 0.00713 0.27308 0.08822 0.0
H288 H 0.09462 0.34126 0.88982 0.0
H289 H 0.07653 0.38162 0.10531 0.0
H290 H 0.03128 0.28006 0.88682 0.0
H291 H 0.02823 0.30213 0.80573 0.0
H292 H 0.0603 0.30204 0.81558 0.0
H293 H 0.0319 0.36591 0.15933 0.0
H294 H 0.0064 0.35156 0.07035 0.0
H295 H 0.0094 0.32911 0.15005 0.0
H296 H 0.94441 0.29572 0.86457 0.0
H297 H 0.95231 0.24257 0.05776 0.0
H298 H 0.01443 0.33747 0.81476 0.0
H299 H 0.0072 0.35458 0.90398 0.0
H300 H 0.98212 0.33732 0.81528 0.0
H301 H 0.02416 0.27291 0.05025 0.0
H302 H 0.99466 0.25276 0.12202 0.0
H303 H 0.01668 0.28924 0.14132 0.0
C304 C 0.70504 0.06939 0.04725 0.0
C305 C 0.7257 0.08852 0.98949 0.0
C306 C 0.69609 0.04113 0.0413 0.0
C307 C 0.70795 0.03173 0.97561 0.0
C308 C 0.72884 0.05091 0.91715 0.0
C309 C 0.73754 0.07912 0.92499 0.0
C310 C 0.67391 0.02134 0.10531 0.0
C311 C 0.74188 0.04161 0.84599 0.0
C312 C 0.70172 0.96173 0.01447 0.0
C313 C 0.67917 0.94459 0.95904 0.0
C314 C 0.71145 0.99017 0.01992 0.0
C315 C 0.69841 0.00176 0.96831 0.0
C316 C 0.67579 0.98461 0.91158 0.0
C317 C 0.66637 0.9562 0.9079 0.0
C318 C 0.73546 0.00775 0.08182 0.0
C319 C 0.66149 0.99626 0.85505 0.0
H320 H 0.69584 0.07646 0.09755 0.0
H321 H 0.75345 0.09376 0.87992 0.0
H322 H 0.65576 0.00601 0.06598 0.0
H323 H 0.68161 0.00974 0.14517 0.0
H324 H 0.66704 0.03202 0.1533 0.0
H325 H 0.75783 0.05912 0.80572 0.0
H326 H 0.75155 0.03069 0.87878 0.0
H327 H 0.72581 0.02679 0.79891 0.0
H328 H 0.71147 0.9528 0.0549 0.0
H329 H 0.64915 0.94307 0.86414 0.0
H330 H 0.72897 0.0175 0.13457 0.0
H331 H 0.75238 0.02464 0.0425 0.0
H332 H 0.74365 0.99564 0.11607 0.0
H333 H 0.65264 0.00579 0.89996 0.0
H334 H 0.64465 0.98026 0.81271 0.0
H335 H 0.67661 0.01275 0.80976 0.0
C336 C 0.71052 0.66779 0.90643 0.0
C337 C 0.73153 0.67452 0.97036 0.0
C338 C 0.69214 0.67784 0.91522 0.0
C339 C 0.69497 0.69518 0.98938 0.0
C340 C 0.7162 0.70213 0.05396 0.0
C341 C 0.73417 0.69162 0.04385 0.0
C342 C 0.66958 0.66975 0.84546 0.0
C343 C 0.72 0.72075 0.1335 0.0
C344 C 0.66216 0.74018 0.96653 0.0
C345 C 0.63767 0.72504 0.01608 0.0
C346 C 0.68117 0.73088 0.95816 0.0
C347 C 0.67546 0.70577 0.99987 0.0
C348 C 0.65089 0.6905 0.05049 0.0
C349 C 0.63233 0.70036 0.05821 0.0
C350 C 0.70726 0.74781 0.9041 0.0
C351 C 0.64401 0.66356 0.09557 0.0
H352 H 0.70824 0.65434 0.85006 0.0
H353 H 0.7506 0.69715 0.09278 0.0
H354 H 0.64912 0.65883 0.8791 0.0
H355 H 0.67143 0.68847 0.81282 0.0
H356 H 0.67024 0.65615 0.79173 0.0
H357 H 0.73771 0.7244 0.17717 0.0
H358 H 0.72342 0.74094 0.10866 0.0
H359 H 0.70105 0.71153 0.1757 0.0
H360 H 0.66647 0.75929 0.93388 0.0
H361 H 0.61345 0.68848 0.09651 0.0
H362 H 0.70782 0.73561 0.84556 0.0
H363 H 0.72556 0.75304 0.94687 0.0
H364 H 0.70899 0.76725 0.87804 0.0
H365 H 0.64265 0.64856 0.04362 0.0
H366 H 0.62419 0.65434 0.13337 0.0
H367 H 0.66066 0.66679 0.14356 0.0
C368 C 0.04143 0.71047 0.86806 0.0
C369 C 0.05606 0.73236 0.92884 0.0
C370 C 0.01295 0.69255 0.87792 0.0
C371 C 0.99869 0.69662 0.95023 0.0
C372 C 0.01324 0.71891 0.01112 0.0
C373 C 0.04177 0.73646 0.99986 0.0
C374 C 0.99822 0.6689 0.81197 0.0
C375 C 0.99871 0.72402 0.08866 0.0
C376 C 0.92049 0.66126 0.93137 0.0
C377 C 0.91219 0.63763 0.98479 0.0
C378 C 0.94857 0.68094 0.92077 0.0
C379 C 0.96879 0.6768 0.96424 0.0
C380 C 0.96051 0.65318 0.01912 0.0
C381 C 0.93235 0.63394 0.02888 0.0
C382 C 0.95661 0.70596 0.8621 0.0
C383 C 0.98144 0.64795 0.06635 0.0
H384 H 0.05239 0.70698 0.8137 0.0
H385 H 0.0529 0.75355 0.04633 0.0
H386 H 0.9895 0.649 0.84892 0.0
H387 H 0.98073 0.66974 0.77978 0.0
H388 H 0.01211 0.66913 0.75765 0.0
H389 H 0.01277 0.74287 0.12785 0.0
H390 H 0.98131 0.72619 0.06238 0.0
H391 H 0.98987 0.70612 0.1356 0.0
H392 H 0.90507 0.66432 0.89724 0.0
H393 H 0.9262 0.61577 0.07036 0.0
H394 H 0.96895 0.70584 0.80331 0.0
H395 H 0.96977 0.72507 0.90129 0.0
H396 H 0.93838 0.70675 0.8361 0.0
H397 H 0.99493 0.646 0.01523 0.0
H398 H 0.97159 0.6289 0.10832 0.0
H399 H 0.99488 0.66566 0.1108 0.0
C400 C 0.28955 0.92917 0.05574 0.0
C401 C 0.27117 0.91062 0.99121 0.0
C402 C 0.29822 0.9574 0.05172 0.0
C403 C 0.28845 0.96743 0.98102 0.0
C404 C 0.26954 0.94878 0.91647 0.0
C405 C 0.26103 0.92057 0.92256 0.0
C406 C 0.31817 0.97656 0.12241 0.0
C407 C 0.25876 0.95872 0.8399 0.0
C408 C 0.29486 0.03787 0.01237 0.0
C409 C 0.31909 0.05503 0.96384 0.0
C410 C 0.2845 0.00929 0.0179 0.0
C411 C 0.29864 0.99756 0.97352 0.0
C412 C 0.32299 0.01474 0.92383 0.0
C413 C 0.33296 0.04326 0.91983 0.0
C414 C 0.25862 0.99171 0.07219 0.0
C415 C 0.33856 0.00299 0.8751 0.0
H416 H 0.29736 0.92166 0.10942 0.0
H417 H 0.24689 0.90641 0.87226 0.0
H418 H 0.33772 0.99183 0.08929 0.0
H419 H 0.30952 0.98826 0.15637 0.0
H420 H 0.32295 0.96533 0.17503 0.0
H421 H 0.24358 0.9415 0.79679 0.0
H422 H 0.24881 0.97005 0.86756 0.0
H423 H 0.27615 0.97336 0.79641 0.0
H424 H 0.28421 0.04687 0.04738 0.0
H425 H 0.35148 0.05636 0.88124 0.0
H426 H 0.26321 0.98151 0.12874 0.0
H427 H 0.24283 0.97515 0.02868 0.0
H428 H 0.24974 0.00392 0.10105 0.0
H429 H 0.3457 0.99296 0.9247 0.0
H430 H 0.35677 0.01903 0.83762 0.0
H431 H 0.32473 0.98688 0.82624 0.0
C432 C 0.20542 0.72012 0.99431 0.0
C433 C 0.23256 0.74207 1.00382 0.0
C434 C 0.19928 0.69261 1.00146 0.0
C435 C 0.22077 0.68682 0.0187 0.0
C436 C 0.24824 0.70882 0.02743 0.0
C437 C 0.25381 0.73616 0.01986 0.0
C438 C 0.16971 0.66971 0.99157 0.0
C439 C 0.27172 0.70349 0.04589 0.0
C440 C 0.19961 0.61732 0.12622 0.0
C441 C 0.19861 0.60154 0.05071 0.0
C442 C 0.20734 0.64523 0.117 0.0
C443 C 0.21427 0.65773 0.03011 0.0
C444 C 0.21401 0.64214 0.95394 0.0
C445 C 0.20619 0.61422 0.96515 0.0
C446 C 0.20754 0.66119 0.20002 0.0
C447 C 0.22128 0.65474 0.8602 0.0
H448 H 0.18883 0.72438 0.98166 0.0
H449 H 0.27487 0.7529 0.02734 0.0
H450 H 0.16808 0.6554 0.93661 0.0
H451 H 0.16275 0.65755 0.05534 0.0
H452 H 0.15551 0.67763 0.97589 0.0
H453 H 0.29203 0.72283 0.04813 0.0
H454 H 0.26834 0.69263 0.1118 0.0
H455 H 0.27243 0.68984 0.9926 0.0
H456 H 0.19422 0.60778 0.19278 0.0
H457 H 0.20523 0.60211 0.90637 0.0
H458 H 0.19221 0.66808 0.19171 0.0
H459 H 0.22807 0.67997 0.20801 0.0
H460 H 0.20263 0.64874 0.26321 0.0
H461 H 0.20612 0.66089 0.83864 0.0
H462 H 0.22145 0.64027 0.80889 0.0
H463 H 0.24187 0.67368 0.86105 0.0
C464 C 0.50869 0.23926 0.07296 0.0
C465 C 0.48334 0.22183 0.03049 0.0
C466 C 0.52949 0.23229 0.07714 0.0
C467 C 0.52499 0.20736 0.03726 0.0
C468 C 0.4995 0.18966 0.99415 0.0
C469 C 0.47891 0.19704 0.99163 0.0
C470 C 0.55629 0.25158 0.12453 0.0
C471 C 0.49403 0.163 0.95032 0.0
C472 C 0.58884 0.20283 0.97989 0.0
C473 C 0.59022 0.18767 0.05367 0.0
C474 C 0.56743 0.20893 0.97276 0.0
C475 C 0.547 0.19983 0.04137 0.0
C476 C 0.54812 0.18434 0.11556 0.0
C477 C 0.56962 0.17835 0.12061 0.0
C478 C 0.56688 0.22544 0.89245 0.0
C479 C 0.52676 0.17433 0.19021 0.0
H480 H 0.51229 0.2584 0.10362 0.0
H481 H 0.45945 0.18349 0.95842 0.0
H482 H 0.55988 0.24063 0.18105 0.0
H483 H 0.57377 0.25843 0.07646 0.0
H484 H 0.55648 0.27012 0.15245 0.0
H485 H 0.47318 0.15158 0.91918 0.0
H486 H 0.50966 0.1673 0.8969 0.0
H487 H 0.49593 0.1495 1.00154 0.0
H488 H 0.6048 0.21037 0.92836 0.0
H489 H 0.57019 0.16617 0.17694 0.0
H490 H 0.56918 0.2453 0.91621 0.0
H491 H 0.54673 0.2141 0.85703 0.0
H492 H 0.58357 0.22991 0.84289 0.0
H493 H 0.52702 0.19221 0.22382 0.0
H494 H 0.53032 0.16215 0.24256 0.0
H495 H 0.50584 0.16134 0.16115 0.0
C496 C 0.38612 0.59393 0.98017 0.0
C497 C 0.40151 0.59522 0.0572 0.0
C498 C 0.35852 0.57295 0.97045 0.0
C499 C 0.34596 0.55288 0.03968 0.0
C500 C 0.36134 0.55407 0.11759 0.0
C501 C 0.38893 0.57513 0.12521 0.0
C502 C 0.34278 0.57229 0.88627 0.0
C503 C 0.34863 0.53309 0.19299 0.0
C504 C 0.26788 0.51393 0.05926 0.0
C505 C 0.26093 0.48836 0.02033 0.0
C506 C 0.29545 0.53514 0.06545 0.0
C507 C 0.3166 0.53079 0.03135 0.0
C508 C 0.30975 0.50517 0.99108 0.0
C509 C 0.28199 0.48421 0.98636 0.0
C510 C 0.30195 0.56212 0.10947 0.0
C511 C 0.33176 0.49986 0.95333 0.0
H512 H 0.39557 0.60954 0.92781 0.0
H513 H 0.40079 0.57564 0.18415 0.0
H514 H 0.33476 0.55217 0.85117 0.0
H515 H 0.32471 0.57434 0.9054 0.0
H516 H 0.35572 0.58905 0.83781 0.0
H517 H 0.36335 0.53702 0.24939 0.0
H518 H 0.33033 0.53332 0.22082 0.0
H519 H 0.34142 0.51206 0.16595 0.0
H520 H 0.25178 0.51736 0.08584 0.0
H521 H 0.27683 0.46458 0.95579 0.0
H522 H 0.31359 0.57944 0.06153 0.0
H523 H 0.31527 0.56594 0.16983 0.0
H524 H 0.28307 0.56237 0.13118 0.0
H525 H 0.34405 0.51559 0.90123 0.0
H526 H 0.32296 0.47906 0.92215 0.0
H527 H 0.34616 0.50169 0.00825 0.0
C528 C 0.82238 0.39058 0.1102 0.0
C529 C 0.8125 0.4024 0.04709 0.0
C530 C 0.8156 0.3629 0.10293 0.0
C531 C 0.79875 0.34666 0.03025 0.0
C532 C 0.78897 0.35849 0.96565 0.0
C533 C 0.79585 0.38617 0.97507 0.0
C534 C 0.82634 0.35098 0.17338 0.0
C535 C 0.77103 0.34182 0.88701 0.0
C536 C 0.80031 0.2814 0.97009 0.0
C537 C 0.77613 0.261 0.0119 0.0
C538 C 0.8078 0.30935 0.97469 0.0
C539 C 0.79087 0.3171 0.02305 0.0
C540 C 0.7665 0.29663 0.06559 0.0
C541 C 0.75936 0.26884 0.05914 0.0
C542 C 0.83383 0.3306 0.92781 0.0
C543 C 0.74806 0.30412 0.11861 0.0
H544 H 0.83567 0.40307 0.1651 0.0
H545 H 0.78785 0.395 0.92663 0.0
H546 H 0.80882 0.33323 0.2078 0.0
H547 H 0.83884 0.34311 0.14018 0.0
H548 H 0.83924 0.36639 0.22567 0.0
H549 H 0.76591 0.35435 0.84091 0.0
H550 H 0.78161 0.33302 0.84711 0.0
H551 H 0.75152 0.32427 0.91293 0.0
H552 H 0.81335 0.27553 0.93318 0.0
H553 H 0.74072 0.25326 0.09212 0.0
H554 H 0.84825 0.34563 0.97823 0.0
H555 H 0.82887 0.34235 0.87791 0.0
H556 H 0.84451 0.32115 0.89182 0.0
H557 H 0.75987 0.31829 0.17504 0.0
H558 H 0.72979 0.28572 0.14753 0.0
H559 H 0.74077 0.31518 0.0741 0.0
C560 C 0.4298 0.81945 0.12461 0.0
C561 C 0.41292 0.8158 0.04931 0.0
C562 C 0.45047 0.81227 0.12061 0.0
C563 C 0.45435 0.8011 0.03938 0.0
C564 C 0.43732 0.79725 0.96319 0.0
C565 C 0.41679 0.80463 0.96909 0.0
C566 C 0.4681 0.81656 0.20346 0.0
C567 C 0.44088 0.78543 0.87536 0.0
C568 C 0.52351 0.80497 1.00423 0.0
C569 C 0.5174 0.77829 0.02908 0.0
C570 C 0.50314 0.81264 0.00667 0.0
C571 C 0.47604 0.79317 0.03465 0.0
C572 C 0.46972 0.76621 0.05954 0.0
C573 C 0.49046 0.7591 0.05649 0.0
C574 C 0.51065 0.8416 0.97972 0.0
C575 C 0.44107 0.74488 0.08985 0.0
H576 H 0.42666 0.82769 0.18725 0.0
H577 H 0.40405 0.80206 0.91033 0.0
H578 H 0.46577 0.79656 0.22576 0.0
H579 H 0.49018 0.83035 0.18657 0.0
H580 H 0.46262 0.82571 0.26111 0.0
H581 H 0.42596 0.78373 0.8224 0.0
H582 H 0.4621 0.79863 0.84894 0.0
H583 H 0.43813 0.76464 0.88758 0.0
H584 H 0.54423 0.81996 0.98293 0.0
H585 H 0.48547 0.73843 0.0758 0.0
H586 H 0.50699 0.85208 0.03756 0.0
H587 H 0.49732 0.84096 0.92289 0.0
H588 H 0.53257 0.85417 0.95846 0.0
H589 H 0.43521 0.75232 0.1511 0.0
H590 H 0.43945 0.72473 0.10594 0.0
H591 H 0.42589 0.74164 0.03592 0.0
C592 C 0.73381 0.48673 0.05285 0.0
C593 C 0.7407 0.51192 0.01106 0.0
C594 C 0.70625 0.46546 0.05978 0.0
C595 C 0.68502 0.46936 0.02358 0.0
C596 C 0.69181 0.4946 0.98043 0.0
C597 C 0.71955 0.51561 0.97497 0.0
C598 C 0.69985 0.43893 0.10689 0.0
C599 C 0.66974 0.49945 0.94047 0.0
C600 C 0.61548 0.40563 0.9758 0.0
C601 C 0.60003 0.40495 0.05188 0.0
C602 C 0.6431 0.42656 0.96534 0.0
C603 C 0.65565 0.44724 0.0328 0.0
C604 C 0.64021 0.44666 0.10977 0.0
C605 C 0.61261 0.42563 0.11818 0.0
C606 C 0.65888 0.4265 0.88225 0.0
C607 C 0.65286 0.4683 0.18331 0.0
H608 H 0.74994 0.48365 0.08122 0.0
H609 H 0.72464 0.53494 0.94226 0.0
H610 H 0.68648 0.43559 0.16674 0.0
H611 H 0.68829 0.42118 0.06041 0.0
H612 H 0.71877 0.43898 0.13002 0.0
H613 H 0.67848 0.51994 0.90712 0.0
H614 H 0.65748 0.48322 0.88968 0.0
H615 H 0.65532 0.49807 0.99462 0.0
H616 H 0.60607 0.38959 0.92477 0.0
H617 H 0.60073 0.4256 0.17636 0.0
H618 H 0.677 0.42473 0.90292 0.0
H619 H 0.66682 0.44628 0.84499 0.0
H620 H 0.64599 0.40927 0.83519 0.0
H621 H 0.6712 0.46838 0.21233 0.0
H622 H 0.63813 0.46479 0.23923 0.0
H623 H 0.66 0.48906 0.15409 0.0
C624 C 0.1474 0.41019 0.70163 0.0
C625 C 0.16962 0.43086 0.75026 0.0
C626 C 0.1495 0.40686 0.60775 0.0
C627 C 0.17393 0.42555 0.56077 0.0
C628 C 0.19627 0.4468 0.60991 0.0
C629 C 0.19407 0.44877 0.70454 0.0
C630 C 0.12569 0.38317 0.5591 0.0
C631 C 0.22223 0.46783 0.56228 0.0
C632 C 0.19134 0.4067 0.33087 0.0
C633 C 0.18048 0.41816 0.27029 0.0
C634 C 0.18874 0.40834 0.4254 0.0
C635 C 0.1761 0.42292 0.46037 0.0
C636 C 0.16555 0.43497 0.39922 0.0
C637 C 0.16721 0.4318 0.30498 0.0
C638 C 0.19915 0.39411 0.48777 0.0
C639 C 0.15289 0.4516 0.43325 0.0
H640 H 0.12858 0.39626 0.73754 0.0
H641 H 0.21114 0.4649 0.74243 0.0
H642 H 0.1169 0.39117 0.50797 0.0
H643 H 0.13305 0.37078 0.52208 0.0
H644 H 0.109 0.36939 0.6065 0.0
H645 H 0.23713 0.48382 0.60957 0.0
H646 H 0.23248 0.4575 0.52939 0.0
H647 H 0.21698 0.47815 0.5078 0.0
H648 H 0.20134 0.39584 0.30427 0.0
H649 H 0.15863 0.44049 0.25839 0.0
H650 H 0.18237 0.37983 0.53392 0.0
H651 H 0.21609 0.40953 0.53094 0.0
H652 H 0.2069 0.3822 0.44975 0.0
H653 H 0.13398 0.43822 0.47289 0.0
H654 H 0.14739 0.46119 0.37693 0.0
H655 H 0.1675 0.46816 0.47948 0.0
C656 C 0.76292 0.17258 0.70682 0.0
C657 C 0.73869 0.1703 0.74239 0.0
C658 C 0.76768 0.17447 0.61248 0.0
C659 C 0.74809 0.17499 0.55252 0.0
C660 C 0.72382 0.1733 0.58873 0.0
C661 C 0.71917 0.17042 0.68309 0.0
C662 C 0.79338 0.1753 0.5769 0.0
C663 C 0.70284 0.17469 0.52785 0.0
C664 C 0.77354 0.20445 0.31549 0.0
C665 C 0.76229 0.18052 0.26214 0.0
C666 C 0.76857 0.20302 0.40963 0.0
C667 C 0.75281 0.17693 0.452 0.0
C668 C 0.74162 0.15268 0.3982 0.0
C669 C 0.74606 0.1548 0.30369 0.0
C670 C 0.78007 0.22942 0.46364 0.0
C671 C 0.7254 0.12443 0.44069 0.0
H672 H 0.77773 0.17193 0.75263 0.0
H673 H 0.70044 0.16874 0.71077 0.0
H674 H 0.78761 0.15779 0.52968 0.0
H675 H 0.80599 0.19456 0.53784 0.0
H676 H 0.80629 0.1742 0.63229 0.0
H677 H 0.68584 0.17462 0.56699 0.0
H678 H 0.713 0.19368 0.48579 0.0
H679 H 0.69381 0.15687 0.4806 0.0
H680 H 0.78593 0.22437 0.28326 0.0
H681 H 0.73749 0.13625 0.2626 0.0
H682 H 0.795 0.23023 0.51484 0.0
H683 H 0.76321 0.23008 0.50113 0.0
H684 H 0.79065 0.24804 0.41987 0.0
H685 H 0.73807 0.12181 0.49353 0.0
H686 H 0.71888 0.1076 0.38994 0.0
H687 H 0.70675 0.12224 0.47478 0.0
C688 C 0.55612 0.75033 0.71905 0.0
C689 C 0.57236 0.74135 0.76336 0.0
C690 C 0.55801 0.75453 0.62446 0.0
C691 C 0.57758 0.75097 0.57389 0.0
C692 C 0.59464 0.74274 0.61939 0.0
C693 C 0.59132 0.73736 0.71328 0.0
C694 C 0.53864 0.76216 0.57839 0.0
C695 C 0.61662 0.73993 0.56916 0.0
C696 C 0.56939 0.73817 0.31819 0.0
C697 C 0.58516 0.76492 0.28352 0.0
C698 C 0.5661 0.7334 0.41244 0.0
C699 C 0.58017 0.75579 0.47352 0.0
C700 C 0.59683 0.78279 0.43852 0.0
C701 C 0.59857 0.7871 0.34402 0.0
C702 C 0.54723 0.70447 0.44653 0.0
C703 C 0.6132 0.80707 0.5008 0.0
H704 H 0.54129 0.75318 0.75804 0.0
H705 H 0.60398 0.73059 0.74808 0.0
H706 H 0.55052 0.78265 0.54556 0.0
H707 H 0.52696 0.74699 0.52406 0.0
H708 H 0.52372 0.76279 0.6267 0.0
H709 H 0.62942 0.73525 0.61553 0.0
H710 H 0.60697 0.7232 0.51802 0.0
H711 H 0.63033 0.7593 0.53198 0.0
H712 H 0.55912 0.721 0.27157 0.0
H713 H 0.61106 0.8078 0.31733 0.0
H714 H 0.53176 0.70434 0.49399 0.0
H715 H 0.55929 0.69702 0.48484 0.0
H716 H 0.53619 0.68976 0.39033 0.0
H717 H 0.59906 0.81033 0.54507 0.0
H718 H 0.62639 0.82643 0.46268 0.0
H719 H 0.62654 0.80282 0.54587 0.0
C720 C 0.83269 0.54893 0.68133 0.0
C721 C 0.83125 0.56766 0.74104 0.0
C722 C 0.82975 0.55066 0.58698 0.0
C723 C 0.82639 0.57233 0.55121 0.0
C724 C 0.82532 0.59154 0.61158 0.0
C725 C 0.82731 0.58868 0.70588 0.0
C726 C 0.83004 0.52918 0.52565 0.0
C727 C 0.82271 0.61548 0.57649 0.0
C728 C 0.84634 0.59164 0.30285 0.0
C729 C 0.8205 0.58075 0.26087 0.0
C730 C 0.84856 0.58946 0.39738 0.0
C731 C 0.82433 0.57508 0.45073 0.0
C732 C 0.79817 0.56338 0.4079 0.0
C733 C 0.79659 0.56683 0.31378 0.0
C734 C 0.87683 0.60301 0.44039 0.0
C735 C 0.77186 0.54703 0.46136 0.0
H736 H 0.83564 0.5326 0.70867 0.0
H737 H 0.82673 0.60344 0.75201 0.0
H738 H 0.81112 0.51942 0.48316 0.0
H739 H 0.84792 0.53905 0.47882 0.0
H740 H 0.83126 0.5128 0.56447 0.0
H741 H 0.8227 0.62887 0.63218 0.0
H742 H 0.84007 0.62818 0.52977 0.0
H743 H 0.80336 0.60778 0.537 0.0
H744 H 0.86486 0.60259 0.26205 0.0
H745 H 0.77659 0.55823 0.28117 0.0
H746 H 0.88027 0.58726 0.47407 0.0
H747 H 0.87831 0.61774 0.49363 0.0
H748 H 0.89356 0.61429 0.39002 0.0
H749 H 0.77238 0.53004 0.49856 0.0
H750 H 0.75326 0.53806 0.41726 0.0
H751 H 0.76993 0.56045 0.51278 0.0
C752 C 0.25819 0.82431 0.28638 0.0
C753 C 0.23573 0.8259 0.25153 0.0
C754 C 0.26333 0.8259 0.38065 0.0
C755 C 0.246 0.82991 0.44164 0.0
C756 C 0.22354 0.83199 0.40632 0.0
C757 C 0.21845 0.82954 0.31204 0.0
C758 C 0.28705 0.82282 0.41508 0.0
C759 C 0.20496 0.83702 0.46807 0.0
C760 C 0.24313 0.81047 0.69248 0.0
C761 C 0.26217 0.83576 0.7319 0.0
C762 C 0.23789 0.80819 0.59822 0.0
C763 C 0.25136 0.83196 0.54219 0.0
C764 C 0.27001 0.8577 0.58244 0.0
C765 C 0.27548 0.85919 0.67636 0.0
C766 C 0.21835 0.78023 0.55833 0.0
C767 C 0.28417 0.88372 0.52626 0.0
H768 H 0.27131 0.82105 0.24013 0.0
H769 H 0.20108 0.83085 0.28542 0.0
H770 H 0.30189 0.84165 0.4526 0.0
H771 H 0.2793 0.8053 0.46345 0.0
H772 H 0.29822 0.81921 0.35922 0.0
H773 H 0.18902 0.83916 0.42978 0.0
H774 H 0.19445 0.81973 0.51689 0.0
H775 H 0.21742 0.85607 0.5084 0.0
H776 H 0.23289 0.79225 0.73501 0.0
H777 H 0.29008 0.87883 0.70664 0.0
H778 H 0.22915 0.77496 0.50568 0.0
H779 H 0.20084 0.78063 0.52452 0.0
H780 H 0.20999 0.76369 0.61058 0.0
H781 H 0.29752 0.88187 0.47437 0.0
H782 H 0.29705 0.90229 0.56833 0.0
H783 H 0.26858 0.88677 0.48948 0.0
C784 C 0.44422 0.24906 0.71784 0.0
C785 C 0.42851 0.2587 0.76188 0.0
C786 C 0.44231 0.24489 0.62323 0.0
C787 C 0.42324 0.24918 0.5724 0.0
C788 C 0.40667 0.25805 0.61764 0.0
C789 C 0.41002 0.26337 0.71154 0.0
C790 C 0.46117 0.23655 0.57743 0.0
C791 C 0.38519 0.26164 0.5671 0.0
C792 C 0.43203 0.26211 0.31688 0.0
C793 C 0.41571 0.23546 0.28201 0.0
C794 C 0.43529 0.26677 0.41118 0.0
C795 C 0.42066 0.24444 0.47202 0.0
C796 C 0.40345 0.21758 0.43678 0.0
C797 C 0.40173 0.21332 0.34227 0.0
C798 C 0.45473 0.29553 0.44559 0.0
C799 C 0.38649 0.1934 0.49878 0.0
H800 H 0.45869 0.2457 0.75702 0.0
H801 H 0.39776 0.27066 0.74613 0.0
H802 H 0.44886 0.21616 0.54429 0.0
H803 H 0.47324 0.25163 0.52337 0.0
H804 H 0.47574 0.23535 0.62597 0.0
H805 H 0.37268 0.26673 0.6133 0.0
H806 H 0.39529 0.27838 0.5162 0.0
H807 H 0.37115 0.24244 0.5296 0.0
H808 H 0.44275 0.27923 0.27041 0.0
H809 H 0.38883 0.19271 0.31537 0.0
H810 H 0.46993 0.29514 0.49314 0.0
H811 H 0.44307 0.30344 0.48389 0.0
H812 H 0.46609 0.31017 0.38956 0.0
H813 H 0.40023 0.18959 0.54322 0.0
H814 H 0.37292 0.17419 0.46045 0.0
H815 H 0.37346 0.19813 0.54371 0.0
loop_
_geom_bond_atom_site_label_1
_geom_bond_atom_site_label_2
_geom_bond_distance
_geom_bond_site_symmetry_2
_ccdc_geom_bond_type
C0 Eu1 2.835 1_556 S
C0 C2 1.500 . S
C0 O20 1.257 . S
C0 O21 1.260 1_556 S
Eu1 C0 2.835 1_554 S
Eu1 O20 2.473 1_554 S
Eu1 O21 2.480 . S
Eu1 O22 2.430 . S
Eu1 O23 2.670 . S
Eu1 O24 2.394 . S
Eu1 O29 2.355 1_554 S
Eu1 O31 2.374 . S
C2 C0 1.500 . S
C2 C3 1.377 1_556 S
C2 C7 1.377 . S
C3 C2 1.377 1_554 S
C3 C4 1.395 . S
C3 H32 0.931 . S
C4 C3 1.395 . S
C4 C5 1.383 1_554 S
C4 H33 0.931 . S
C5 C4 1.383 1_556 S
C5 C6 1.394 . S
C6 C5 1.394 . S
C6 C7 1.378 . S
C6 H34 0.931 . S
C7 C2 1.377 . S
C7 C6 1.378 . S
C7 H35 0.931 . S
C8 O22 1.259 . S
C8 O23 1.270 . S
C9 O24 1.251 . S
C9 O25 1.251 . S
C10 Eu11 2.835 1_554 S
C10 C12 1.500 . S
C10 O26 1.257 . S
C10 O27 1.260 1_554 S
Eu11 C10 2.835 1_556 S
Eu11 O23 2.355 1_556 S
Eu11 O25 2.374 1_556 S
Eu11 O26 2.473 1_556 S
Eu11 O27 2.480 . S
Eu11 O28 2.430 . S
Eu11 O29 2.670 . S
Eu11 O30 2.394 . S
C12 C10 1.500 . S
C12 C13 1.377 1_554 S
C12 C17 1.377 . S
C13 C12 1.377 1_556 S
C13 C14 1.395 . S
C13 H36 0.931 . S
C14 C13 1.395 . S
C14 C15 1.383 1_556 S
C14 H37 0.931 . S
C15 C14 1.383 1_554 S
C15 C16 1.394 . S
C16 C15 1.394 . S
C16 C17 1.378 . S
C16 H38 0.931 . S
C17 C12 1.377 . S
C17 C16 1.378 . S
C17 H39 0.931 . S
C18 O28 1.259 . S
C18 O29 1.270 . S
C19 O30 1.251 . S
C19 O31 1.251 1_556 S
O20 C0 1.257 . S
O20 Eu1 2.473 1_556 S
O21 C0 1.260 1_554 S
O21 Eu1 2.480 . S
O22 Eu1 2.430 . S
O22 C8 1.259 . S
O23 Eu1 2.670 . S
O23 C8 1.270 . S
O23 Eu11 2.355 1_554 S
O24 Eu1 2.394 . S
O24 C9 1.251 . S
O25 C9 1.251 . S
O25 Eu11 2.374 1_554 S
O26 C10 1.257 . S
O26 Eu11 2.473 1_554 S
O27 C10 1.260 1_556 S
O27 Eu11 2.480 . S
O28 Eu11 2.430 . S
O28 C18 1.259 . S
O29 Eu1 2.355 1_556 S
O29 Eu11 2.670 . S
O29 C18 1.270 . S
O30 Eu11 2.394 . S
O30 C19 1.251 . S
O31 Eu1 2.374 . S
O31 C19 1.251 1_554 S
H32 C3 0.931 . S
H33 C4 0.931 . S
H34 C6 0.931 . S
H35 C7 0.931 . S
H36 C13 0.931 . S
H37 C14 0.931 . S
H38 C16 0.931 . S
H39 C17 0.931 . S
C40 Eu41 2.835 1_556 S
C40 C42 1.500 . S
C40 O60 1.257 . S
C40 O61 1.260 1_556 S
Eu41 C40 2.835 1_554 S
Eu41 O60 2.473 1_554 S
Eu41 O61 2.480 . S
Eu41 O62 2.430 . S
Eu41 O63 2.670 . S
Eu41 O64 2.394 . S
Eu41 O69 2.355 1_554 S
Eu41 O71 2.374 . S
C42 C40 1.500 . S
C42 C43 1.377 1_556 S
C42 C47 1.377 . S
C43 C42 1.377 1_554 S
C43 C44 1.395 . S
C43 H72 0.931 . S
C44 C43 1.395 . S
C44 C45 1.383 1_554 S
C44 H73 0.931 . S
C45 C44 1.383 1_556 S
C45 C46 1.394 . S
C46 C45 1.394 . S
C46 C47 1.378 . S
C46 H74 0.931 . S
C47 C42 1.377 . S
C47 C46 1.378 . S
C47 H75 0.931 . S
C48 O62 1.259 . S
C48 O63 1.270 . S
C49 O64 1.251 . S
C49 O65 1.251 . S
C50 Eu51 2.835 1_554 S
C50 C52 1.500 . S
C50 O66 1.257 . S
C50 O67 1.260 1_554 S
Eu51 C50 2.835 1_556 S
Eu51 O63 2.355 1_556 S
Eu51 O65 2.374 1_556 S
Eu51 O66 2.473 1_556 S
Eu51 O67 2.480 . S
Eu51 O68 2.430 . S
Eu51 O69 2.670 . S
Eu51 O70 2.394 . S
C52 C50 1.500 . S
C52 C53 1.377 1_554 S
C52 C57 1.377 . S
C53 C52 1.377 1_556 S
C53 C54 1.395 . S
C53 H76 0.931 . S
C54 C53 1.395 . S
C54 C55 1.383 1_556 S
C54 H77 0.931 . S
C55 C54 1.383 1_554 S
C55 C56 1.394 . S
C56 C55 1.394 . S
C56 C57 1.378 . S
C56 H78 0.931 . S
C57 C52 1.377 . S
C57 C56 1.378 . S
C57 H79 0.931 . S
C58 O68 1.259 . S
C58 O69 1.270 . S
C59 O70 1.251 . S
C59 O71 1.251 1_556 S
O60 C40 1.257 . S
O60 Eu41 2.473 1_556 S
O61 C40 1.260 1_554 S
O61 Eu41 2.480 . S
O62 Eu41 2.430 . S
O62 C48 1.259 . S
O63 Eu41 2.670 . S
O63 C48 1.270 . S
O63 Eu51 2.355 1_554 S
O64 Eu41 2.394 . S
O64 C49 1.251 . S
O65 C49 1.251 . S
O65 Eu51 2.374 1_554 S
O66 C50 1.257 . S
O66 Eu51 2.473 1_554 S
O67 C50 1.260 1_556 S
O67 Eu51 2.480 . S
O68 Eu51 2.430 . S
O68 C58 1.259 . S
O69 Eu41 2.355 1_556 S
O69 Eu51 2.670 . S
O69 C58 1.270 . S
O70 Eu51 2.394 . S
O70 C59 1.251 . S
O71 Eu41 2.374 . S
O71 C59 1.251 1_554 S
H72 C43 0.931 . S
H73 C44 0.931 . S
H74 C46 0.931 . S
H75 C47 0.931 . S
H76 C53 0.931 . S
H77 C54 0.931 . S
H78 C56 0.931 . S
H79 C57 0.931 . S
C80 Eu81 2.835 1_556 S
C80 C82 1.500 . S
C80 O100 1.257 . S
C80 O101 1.260 1_556 S
Eu81 C80 2.835 1_554 S
Eu81 O100 2.473 1_554 S
Eu81 O101 2.480 . S
Eu81 O102 2.430 . S
Eu81 O103 2.670 . S
Eu81 O104 2.394 . S
Eu81 O109 2.355 1_554 S
Eu81 O111 2.374 . S
C82 C80 1.500 . S
C82 C83 1.377 1_556 S
C82 C87 1.377 . S
C83 C82 1.377 1_554 S
C83 C84 1.395 . S
C83 H112 0.931 . S
C84 C83 1.395 . S
C84 C85 1.383 1_554 S
C84 H113 0.931 . S
C85 C84 1.383 1_556 S
C85 C86 1.394 . S
C86 C85 1.394 . S
C86 C87 1.378 . S
C86 H114 0.931 . S
C87 C82 1.377 . S
C87 C86 1.378 . S
C87 H115 0.931 . S
C88 O102 1.259 . S
C88 O103 1.270 . S
C89 O104 1.251 . S
C89 O105 1.251 . S
C90 Eu91 2.835 1_554 S
C90 C92 1.500 . S
C90 O106 1.257 . S
C90 O107 1.260 1_554 S
Eu91 C90 2.835 1_556 S
Eu91 O103 2.355 1_556 S
Eu91 O105 2.374 1_556 S
Eu91 O106 2.473 1_556 S
Eu91 O107 2.480 . S
Eu91 O108 2.430 . S
Eu91 O109 2.670 . S
Eu91 O110 2.394 . S
C92 C90 1.500 . S
C92 C93 1.377 1_554 S
C92 C97 1.377 . S
C93 C92 1.377 1_556 S
C93 C94 1.395 . S
C93 H116 0.931 . S
C94 C93 1.395 . S
C94 C95 1.383 1_556 S
C94 H117 0.931 . S
C95 C94 1.383 1_554 S
C95 C96 1.394 . S
C96 C95 1.394 . S
C96 C97 1.378 . S
C96 H118 0.931 . S
C97 C92 1.377 . S
C97 C96 1.378 . S
C97 H119 0.931 . S
C98 O108 1.259 . S
C98 O109 1.270 . S
C99 O110 1.251 . S
C99 O111 1.251 1_556 S
O100 C80 1.257 . S
O100 Eu81 2.473 1_556 S
O101 C80 1.260 1_554 S
O101 Eu81 2.480 . S
O102 Eu81 2.430 . S
O102 C88 1.259 . S
O103 Eu81 2.670 . S
O103 C88 1.270 . S
O103 Eu91 2.355 1_554 S
O104 Eu81 2.394 . S
O104 C89 1.251 . S
O105 C89 1.251 . S
O105 Eu91 2.374 1_554 S
O106 C90 1.257 . S
O106 Eu91 2.473 1_554 S
O107 C90 1.260 1_556 S
O107 Eu91 2.480 . S
O108 Eu91 2.430 . S
O108 C98 1.259 . S
O109 Eu81 2.355 1_556 S
O109 Eu91 2.670 . S
O109 C98 1.270 . S
O110 Eu91 2.394 . S
O110 C99 1.251 . S
O111 Eu81 2.374 . S
O111 C99 1.251 1_554 S
H112 C83 0.931 . S
H113 C84 0.931 . S
H114 C86 0.931 . S
H115 C87 0.931 . S
H116 C93 0.931 . S
H117 C94 0.931 . S
H118 C96 0.931 . S
H119 C97 0.931 . S
C120 Eu121 2.835 1_556 S
C120 C122 1.500 . S
C120 O140 1.257 . S
C120 O141 1.260 1_556 S
Eu121 C120 2.835 1_554 S
Eu121 O140 2.473 1_554 S
Eu121 O141 2.480 . S
Eu121 O142 2.430 . S
Eu121 O143 2.670 . S
Eu121 O144 2.394 . S
Eu121 O149 2.355 1_554 S
Eu121 O151 2.374 . S
C122 C120 1.500 . S
C122 C123 1.377 1_556 S
C122 C127 1.377 . S
C123 C122 1.377 1_554 S
C123 C124 1.395 . S
C123 H152 0.931 . S
C124 C123 1.395 . S
C124 C125 1.383 1_554 S
C124 H153 0.931 . S
C125 C124 1.383 1_556 S
C125 C126 1.394 . S
C126 C125 1.394 . S
C126 C127 1.378 . S
C126 H154 0.931 . S
C127 C122 1.377 . S
C127 C126 1.378 . S
C127 H155 0.931 . S
C128 O142 1.259 . S
C128 O143 1.270 . S
C129 O144 1.251 . S
C129 O145 1.251 . S
C130 Eu131 2.835 1_554 S
C130 C132 1.500 . S
C130 O146 1.257 . S
C130 O147 1.260 1_554 S
Eu131 C130 2.835 1_556 S
Eu131 O143 2.355 1_556 S
Eu131 O145 2.374 1_556 S
Eu131 O146 2.473 1_556 S
Eu131 O147 2.480 . S
Eu131 O148 2.430 . S
Eu131 O149 2.670 . S
Eu131 O150 2.394 . S
C132 C130 1.500 . S
C132 C133 1.377 1_554 S
C132 C137 1.377 . S
C133 C132 1.377 1_556 S
C133 C134 1.395 . S
C133 H156 0.931 . S
C134 C133 1.395 . S
C134 C135 1.383 1_556 S
C134 H157 0.931 . S
C135 C134 1.383 1_554 S
C135 C136 1.394 . S
C136 C135 1.394 . S
C136 C137 1.378 . S
C136 H158 0.931 . S
C137 C132 1.377 . S
C137 C136 1.378 . S
C137 H159 0.931 . S
C138 O148 1.259 . S
C138 O149 1.270 . S
C139 O150 1.251 . S
C139 O151 1.251 1_556 S
O140 C120 1.257 . S
O140 Eu121 2.473 1_556 S
O141 C120 1.260 1_554 S
O141 Eu121 2.480 . S
O142 Eu121 2.430 . S
O142 C128 1.259 . S
O143 Eu121 2.670 . S
O143 C128 1.270 . S
O143 Eu131 2.355 1_554 S
O144 Eu121 2.394 . S
O144 C129 1.251 . S
O145 C129 1.251 . S
O145 Eu131 2.374 1_554 S
O146 C130 1.257 . S
O146 Eu131 2.473 1_554 S
O147 C130 1.260 1_556 S
O147 Eu131 2.480 . S
O148 Eu131 2.430 . S
O148 C138 1.259 . S
O149 Eu121 2.355 1_556 S
O149 Eu131 2.670 . S
O149 C138 1.270 . S
O150 Eu131 2.394 . S
O150 C139 1.251 . S
O151 Eu121 2.374 . S
O151 C139 1.251 1_554 S
H152 C123 0.931 . S
H153 C124 0.931 . S
H154 C126 0.931 . S
H155 C127 0.931 . S
H156 C133 0.931 . S
H157 C134 0.931 . S
H158 C136 0.931 . S
H159 C137 0.931 . S
C160 Eu161 2.835 1_556 S
C160 C162 1.500 . S
C160 O180 1.257 . S
C160 O181 1.260 1_556 S
Eu161 C160 2.835 1_554 S
Eu161 O180 2.473 1_554 S
Eu161 O181 2.480 . S
Eu161 O182 2.430 . S
Eu161 O183 2.670 . S
Eu161 O184 2.394 . S
Eu161 O189 2.355 1_554 S
Eu161 O191 2.374 . S
C162 C160 1.500 . S
C162 C163 1.377 1_556 S
C162 C167 1.377 . S
C163 C162 1.377 1_554 S
C163 C164 1.395 . S
C163 H192 0.931 . S
C164 C163 1.395 . S
C164 C165 1.383 1_554 S
C164 H193 0.931 . S
C165 C164 1.383 1_556 S
C165 C166 1.394 . S
C166 C165 1.394 . S
C166 C167 1.378 . S
C166 H194 0.931 . S
C167 C162 1.377 . S
C167 C166 1.378 . S
C167 H195 0.931 . S
C168 O182 1.259 . S
C168 O183 1.270 . S
C169 O184 1.251 . S
C169 O185 1.251 . S
C170 Eu171 2.835 1_554 S
C170 C172 1.500 . S
C170 O186 1.257 . S
C170 O187 1.260 1_554 S
Eu171 C170 2.835 1_556 S
Eu171 O183 2.355 1_556 S
Eu171 O185 2.374 1_556 S
Eu171 O186 2.473 1_556 S
Eu171 O187 2.480 . S
Eu171 O188 2.430 . S
Eu171 O189 2.670 . S
Eu171 O190 2.394 . S
C172 C170 1.500 . S
C172 C173 1.377 1_554 S
C172 C177 1.377 . S
C173 C172 1.377 1_556 S
C173 C174 1.395 . S
C173 H196 0.931 . S
C174 C173 1.395 . S
C174 C175 1.383 1_556 S
C174 H197 0.931 . S
C175 C174 1.383 1_554 S
C175 C176 1.394 . S
C176 C175 1.394 . S
C176 C177 1.378 . S
C176 H198 0.931 . S
C177 C172 1.377 . S
C177 C176 1.378 . S
C177 H199 0.931 . S
C178 O188 1.259 . S
C178 O189 1.270 . S
C179 O190 1.251 . S
C179 O191 1.251 1_556 S
O180 C160 1.257 . S
O180 Eu161 2.473 1_556 S
O181 C160 1.260 1_554 S
O181 Eu161 2.480 . S
O182 Eu161 2.430 . S
O182 C168 1.259 . S
O183 Eu161 2.670 . S
O183 C168 1.270 . S
O183 Eu171 2.355 1_554 S
O184 Eu161 2.394 . S
O184 C169 1.251 . S
O185 C169 1.251 . S
O185 Eu171 2.374 1_554 S
O186 C170 1.257 . S
O186 Eu171 2.473 1_554 S
O187 C170 1.260 1_556 S
O187 Eu171 2.480 . S
O188 Eu171 2.430 . S
O188 C178 1.259 . S
O189 Eu161 2.355 1_556 S
O189 Eu171 2.670 . S
O189 C178 1.270 . S
O190 Eu171 2.394 . S
O190 C179 1.251 . S
O191 Eu161 2.374 . S
O191 C179 1.251 1_554 S
H192 C163 0.931 . S
H193 C164 0.931 . S
H194 C166 0.931 . S
H195 C167 0.931 . S
H196 C173 0.931 . S
H197 C174 0.931 . S
H198 C176 0.931 . S
H199 C177 0.931 . S
C200 Eu201 2.835 1_556 S
C200 C202 1.500 . S
C200 O220 1.257 . S
C200 O221 1.260 1_556 S
Eu201 C200 2.835 1_554 S
Eu201 O220 2.473 1_554 S
Eu201 O221 2.480 . S
Eu201 O222 2.430 . S
Eu201 O223 2.670 . S
Eu201 O224 2.394 . S
Eu201 O229 2.355 1_554 S
Eu201 O231 2.374 . S
C202 C200 1.500 . S
C202 C203 1.377 1_556 S
C202 C207 1.377 . S
C203 C202 1.377 1_554 S
C203 C204 1.395 . S
C203 H232 0.931 . S
C204 C203 1.395 . S
C204 C205 1.383 1_554 S
C204 H233 0.931 . S
C205 C204 1.383 1_556 S
C205 C206 1.394 . S
C206 C205 1.394 . S
C206 C207 1.378 . S
C206 H234 0.931 . S
C207 C202 1.377 . S
C207 C206 1.378 . S
C207 H235 0.931 . S
C208 O222 1.259 . S
C208 O223 1.270 . S
C209 O224 1.251 . S
C209 O225 1.251 . S
C210 Eu211 2.835 1_554 S
C210 C212 1.500 . S
C210 O226 1.257 . S
C210 O227 1.260 1_554 S
Eu211 C210 2.835 1_556 S
Eu211 O223 2.355 1_556 S
Eu211 O225 2.374 1_556 S
Eu211 O226 2.473 1_556 S
Eu211 O227 2.480 . S
Eu211 O228 2.430 . S
Eu211 O229 2.670 . S
Eu211 O230 2.394 . S
C212 C210 1.500 . S
C212 C213 1.377 1_554 S
C212 C217 1.377 . S
C213 C212 1.377 1_556 S
C213 C214 1.395 . S
C213 H236 0.931 . S
C214 C213 1.395 . S
C214 C215 1.383 1_556 S
C214 H237 0.931 . S
C215 C214 1.383 1_554 S
C215 C216 1.394 . S
C216 C215 1.394 . S
C216 C217 1.378 . S
C216 H238 0.931 . S
C217 C212 1.377 . S
C217 C216 1.378 . S
C217 H239 0.931 . S
C218 O228 1.259 . S
C218 O229 1.270 . S
C219 O230 1.251 . S
C219 O231 1.251 1_556 S
O220 C200 1.257 . S
O220 Eu201 2.473 1_556 S
O221 C200 1.260 1_554 S
O221 Eu201 2.480 . S
O222 Eu201 2.430 . S
O222 C208 1.259 . S
O223 Eu201 2.670 . S
O223 C208 1.270 . S
O223 Eu211 2.355 1_554 S
O224 Eu201 2.394 . S
O224 C209 1.251 . S
O225 C209 1.251 . S
O225 Eu211 2.374 1_554 S
O226 C210 1.257 . S
O226 Eu211 2.473 1_554 S
O227 C210 1.260 1_556 S
O227 Eu211 2.480 . S
O228 Eu211 2.430 . S
O228 C218 1.259 . S
O229 Eu201 2.355 1_556 S
O229 Eu211 2.670 . S
O229 C218 1.270 . S
O230 Eu211 2.394 . S
O230 C219 1.251 . S
O231 Eu201 2.374 . S
O231 C219 1.251 1_554 S
H232 C203 0.931 . S
H233 C204 0.931 . S
H234 C206 0.931 . S
H235 C207 0.931 . S
H236 C213 0.931 . S
H237 C214 0.931 . S
H238 C216 0.931 . S
H239 C217 0.931 . S
C240 C241 1.391 . S
C240 C242 1.394 . S
C240 H256 0.929 1_556 S
C241 C240 1.391 . S
C241 C245 1.376 . S
C242 C240 1.394 . S
C242 C243 1.369 . S
C242 C246 1.531 . S
C243 C242 1.369 . S
C243 C244 1.410 . S
C243 C251 1.503 . S
C244 C243 1.410 . S
C244 C245 1.392 . S
C244 C247 1.511 . S
C245 C241 1.376 . S
C245 C244 1.392 . S
C245 H257 0.929 . S
C246 C242 1.531 . S
C246 H258 0.960 . S
C246 H259 0.962 1_556 S
C246 H260 0.960 . S
C247 C244 1.511 . S
C247 H261 0.961 . S
C247 H262 0.961 . S
C247 H263 0.961 . S
C248 C249 1.370 1_554 S
C248 C250 1.363 . S
C248 H264 0.931 . S
C249 C248 1.370 1_556 S
C249 C253 1.408 . S
C250 C248 1.363 . S
C250 C251 1.370 1_554 S
C250 C254 1.524 . S
C251 C243 1.503 . S
C251 C250 1.370 1_556 S
C251 C252 1.403 . S
C252 C251 1.403 . S
C252 C253 1.404 . S
C252 C255 1.539 . S
C253 C249 1.408 . S
C253 C252 1.404 . S
C253 H265 0.930 . S
C254 C250 1.524 . S
C254 H266 0.956 . S
C254 H267 0.961 . S
C254 H268 0.961 . S
C255 C252 1.539 . S
C255 H269 0.958 . S
C255 H270 0.961 . S
C255 H271 0.960 . S
H256 C240 0.929 1_554 S
H257 C245 0.929 . S
H258 C246 0.960 . S
H259 C246 0.962 1_554 S
H260 C246 0.960 . S
H261 C247 0.961 . S
H262 C247 0.961 . S
H263 C247 0.961 . S
H264 C248 0.931 . S
H265 C253 0.930 . S
H266 C254 0.956 . S
H267 C254 0.961 . S
H268 C254 0.961 . S
H269 C255 0.958 . S
H270 C255 0.961 . S
H271 C255 0.960 . S
C272 C273 1.391 . S
C272 C274 1.394 . S
C272 H288 0.931 . S
C273 C272 1.391 . S
C273 C277 1.376 1_554 S
C274 C272 1.394 . S
C274 C275 1.369 . S
C274 C278 1.531 . S
C275 C274 1.369 . S
C275 C276 1.410 1_554 S
C275 C283 1.503 1_554 S
C276 C275 1.410 1_556 S
C276 C277 1.392 . S
C276 C279 1.511 . S
C277 C273 1.376 1_556 S
C277 C276 1.392 . S
C277 H289 0.929 . S
C278 C274 1.531 . S
C278 H290 0.960 . S
C278 H291 0.962 1_554 S
C278 H292 0.960 . S
C279 C276 1.511 . S
C279 H293 0.961 . S
C279 H294 0.961 . S
C279 H295 0.961 1_556 S
C280 C281 1.370 1_455 S
C280 C282 1.363 . S
C280 H296 0.931 1_455 S
C281 C280 1.370 1_655 S
C281 C285 1.408 1_556 S
C282 C280 1.363 . S
C282 C283 1.370 . S
C282 C286 1.524 . S
C283 C275 1.503 1_556 S
C283 C282 1.370 . S
C283 C284 1.403 1_556 S
C284 C283 1.403 1_554 S
C284 C285 1.404 1_455 S
C284 C287 1.539 . S
C285 C281 1.408 1_554 S
C285 C284 1.404 1_655 S
C285 H297 0.930 . S
C286 C282 1.524 . S
C286 H298 0.956 . S
C286 H299 0.961 . S
C286 H300 0.961 . S
C287 C284 1.539 . S
C287 H301 0.958 . S
C287 H302 0.961 . S
C287 H303 0.960 . S
H288 C272 0.931 . S
H289 C277 0.929 . S
H290 C278 0.960 . S
H291 C278 0.962 1_556 S
H292 C278 0.960 . S
H293 C279 0.961 . S
H294 C279 0.961 . S
H295 C279 0.961 1_554 S
H296 C280 0.931 1_655 S
H297 C285 0.930 . S
H298 C286 0.956 . S
H299 C286 0.961 . S
H300 C286 0.961 . S
H301 C287 0.958 . S
H302 C287 0.961 . S
H303 C287 0.960 . S
C304 C305 1.391 . S
C304 C306 1.394 . S
C304 H320 0.931 . S
C305 C304 1.391 . S
C305 C309 1.376 1_556 S
C306 C304 1.394 . S
C306 C307 1.369 . S
C306 C310 1.531 . S
C307 C306 1.369 . S
C307 C308 1.410 1_556 S
C307 C315 1.503 . S
C308 C307 1.410 1_554 S
C308 C309 1.392 . S
C308 C311 1.511 . S
C309 C305 1.376 1_554 S
C309 C308 1.392 . S
C309 H321 0.929 . S
C310 C306 1.531 . S
C310 H322 0.960 . S
C310 H323 0.962 . S
C310 H324 0.960 . S
C311 C308 1.511 . S
C311 H325 0.961 . S
C311 H326 0.961 . S
C311 H327 0.961 . S
C312 C313 1.370 1_554 S
C312 C314 1.363 1_565 S
C312 H328 0.931 . S
C313 C312 1.370 1_556 S
C313 C317 1.408 1_565 S
C314 C312 1.363 1_545 S
C314 C315 1.370 1_554 S
C314 C318 1.524 . S
C315 C307 1.503 . S
C315 C314 1.370 1_556 S
C315 C316 1.403 . S
C316 C315 1.403 . S
C316 C317 1.404 . S
C316 C319 1.539 . S
C317 C313 1.408 1_545 S
C317 C316 1.404 . S
C317 H329 0.930 1_545 S
C318 C314 1.524 . S
C318 H330 0.956 . S
C318 H331 0.961 . S
C318 H332 0.961 . S
C319 C316 1.539 . S
C319 H333 0.958 . S
C319 H334 0.961 . S
C319 H335 0.960 . S
H320 C304 0.931 . S
H321 C309 0.929 . S
H322 C310 0.960 . S
H323 C310 0.962 . S
H324 C310 0.960 . S
H325 C311 0.961 . S
H326 C311 0.961 . S
H327 C311 0.961 . S
H328 C312 0.931 . S
H329 C317 0.930 1_565 S
H330 C318 0.956 . S
H331 C318 0.961 . S
H332 C318 0.961 . S
H333 C319 0.958 . S
H334 C319 0.961 . S
H335 C319 0.960 . S
C336 C337 1.391 . S
C336 C338 1.394 . S
C336 H352 0.931 . S
C337 C336 1.391 . S
C337 C341 1.376 . S
C338 C336 1.394 . S
C338 C339 1.369 . S
C338 C342 1.531 . S
C339 C338 1.369 . S
C339 C340 1.410 1_556 S
C339 C347 1.503 . S
C340 C339 1.410 1_554 S
C340 C341 1.392 1_554 S
C340 C343 1.511 . S
C341 C337 1.376 . S
C341 C340 1.392 1_556 S
C341 H353 0.929 1_556 S
C342 C338 1.531 . S
C342 H354 0.960 . S
C342 H355 0.962 . S
C342 H356 0.960 . S
C343 C340 1.511 . S
C343 H357 0.961 . S
C343 H358 0.961 . S
C343 H359 0.961 . S
C344 C345 1.370 1_556 S
C344 C346 1.363 . S
C344 H360 0.931 . S
C345 C344 1.370 1_554 S
C345 C349 1.408 . S
C346 C344 1.363 . S
C346 C347 1.370 . S
C346 C350 1.524 . S
C347 C339 1.503 . S
C347 C346 1.370 . S
C347 C348 1.403 1_556 S
C348 C347 1.403 1_554 S
C348 C349 1.404 . S
C348 C351 1.539 . S
C349 C345 1.408 . S
C349 C348 1.404 . S
C349 H361 0.930 . S
C350 C346 1.524 . S
C350 H362 0.956 . S
C350 H363 0.961 . S
C350 H364 0.961 . S
C351 C348 1.539 . S
C351 H365 0.958 . S
C351 H366 0.961 . S
C351 H367 0.960 . S
H352 C336 0.931 . S
H353 C341 0.929 1_554 S
H354 C342 0.960 . S
H355 C342 0.962 . S
H356 C342 0.960 . S
H357 C343 0.961 . S
H358 C343 0.961 . S
H359 C343 0.961 . S
H360 C344 0.931 . S
H361 C349 0.930 . S
H362 C350 0.956 . S
H363 C350 0.961 . S
H364 C350 0.961 . S
H365 C351 0.958 . S
H366 C351 0.961 . S
H367 C351 0.960 . S
C368 C369 1.391 . S
C368 C370 1.394 1_455 S
C368 H384 0.931 . S
C369 C368 1.391 . S
C369 C373 1.376 1_456 S
C370 C368 1.394 1_655 S
C370 C371 1.369 . S
C370 C374 1.531 . S
C371 C370 1.369 . S
C371 C372 1.410 1_556 S
C371 C379 1.503 . S
C372 C371 1.410 1_554 S
C372 C373 1.392 . S
C372 C375 1.511 . S
C373 C369 1.376 1_654 S
C373 C372 1.392 . S
C373 H385 0.929 1_655 S
C374 C370 1.531 . S
C374 H386 0.960 . S
C374 H387 0.962 . S
C374 H388 0.960 . S
C375 C372 1.511 . S
C375 H389 0.961 . S
C375 H390 0.961 . S
C375 H391 0.961 . S
C376 C377 1.370 1_556 S
C376 C378 1.363 . S
C376 H392 0.931 . S
C377 C376 1.370 1_554 S
C377 C381 1.408 . S
C378 C376 1.363 . S
C378 C379 1.370 . S
C378 C382 1.524 . S
C379 C371 1.503 . S
C379 C378 1.370 . S
C379 C380 1.403 1_556 S
C380 C379 1.403 1_554 S
C380 C381 1.404 . S
C380 C383 1.539 . S
C381 C377 1.408 . S
C381 C380 1.404 . S
C381 H393 0.930 . S
C382 C378 1.524 . S
C382 H394 0.956 . S
C382 H395 0.961 . S
C382 H396 0.961 . S
C383 C380 1.539 . S
C383 H397 0.958 . S
C383 H398 0.961 . S
C383 H399 0.960 . S
H384 C368 0.931 . S
H385 C373 0.929 1_455 S
H386 C374 0.960 . S
H387 C374 0.962 . S
H388 C374 0.960 . S
H389 C375 0.961 . S
H390 C375 0.961 . S
H391 C375 0.961 . S
H392 C376 0.931 . S
H393 C381 0.930 . S
H394 C382 0.956 . S
H395 C382 0.961 . S
H396 C382 0.961 . S
H397 C383 0.958 . S
H398 C383 0.961 . S
H399 C383 0.960 . S
C400 C401 1.391 . S
C400 C402 1.394 . S
C400 H416 0.931 . S
C401 C400 1.391 . S
C401 C405 1.376 1_556 S
C402 C400 1.394 . S
C402 C403 1.369 . S
C402 C406 1.531 . S
C403 C402 1.369 . S
C403 C404 1.410 1_556 S
C403 C411 1.503 . S
C404 C403 1.410 1_554 S
C404 C405 1.392 . S
C404 C407 1.511 . S
C405 C401 1.376 1_554 S
C405 C404 1.392 . S
C405 H417 0.929 . S
C406 C402 1.531 . S
C406 H418 0.960 . S
C406 H419 0.962 . S
C406 H420 0.960 . S
C407 C404 1.511 . S
C407 H421 0.961 . S
C407 H422 0.961 . S
C407 H423 0.961 1_554 S
C408 C409 1.370 1_554 S
C408 C410 1.363 1_545 S
C408 H424 0.931 . S
C409 C408 1.370 1_556 S
C409 C413 1.408 1_545 S
C410 C408 1.363 1_565 S
C410 C411 1.370 1_554 S
C410 C414 1.524 . S
C411 C403 1.503 . S
C411 C410 1.370 1_556 S
C411 C412 1.403 . S
C412 C411 1.403 . S
C412 C413 1.404 . S
C412 C415 1.539 . S
C413 C409 1.408 1_565 S
C413 C412 1.404 . S
C413 H425 0.930 1_565 S
C414 C410 1.524 . S
C414 H426 0.956 . S
C414 H427 0.961 . S
C414 H428 0.961 . S
C415 C412 1.539 . S
C415 H429 0.958 . S
C415 H430 0.961 . S
C415 H431 0.960 . S
H416 C400 0.931 . S
H417 C405 0.929 . S
H418 C406 0.960 . S
H419 C406 0.962 . S
H420 C406 0.960 . S
H421 C407 0.961 . S
H422 C407 0.961 . S
H423 C407 0.961 1_556 S
H424 C408 0.931 . S
H425 C413 0.930 1_545 S
H426 C414 0.956 . S
H427 C414 0.961 . S
H428 C414 0.961 . S
H429 C415 0.958 . S
H430 C415 0.961 . S
H431 C415 0.960 . S
C432 C433 1.391 1_554 S
C432 C434 1.394 . S
C432 H448 0.931 . S
C433 C432 1.391 1_556 S
C433 C437 1.376 . S
C434 C432 1.394 . S
C434 C435 1.369 . S
C434 C438 1.531 . S
C435 C434 1.369 . S
C435 C436 1.410 1_554 S
C435 C443 1.503 . S
C436 C435 1.410 1_556 S
C436 C437 1.392 . S
C436 C439 1.511 . S
C437 C433 1.376 . S
C437 C436 1.392 . S
C437 H449 0.929 . S
C438 C434 1.531 . S
C438 H450 0.960 . S
C438 H451 0.962 . S
C438 H452 0.960 . S
C439 C436 1.511 . S
C439 H453 0.961 . S
C439 H454 0.961 . S
C439 H455 0.961 . S
C440 C441 1.370 . S
C440 C442 1.363 . S
C440 H456 0.931 . S
C441 C440 1.370 . S
C441 C445 1.408 1_554 S
C442 C440 1.363 . S
C442 C443 1.370 . S
C442 C446 1.524 . S
C443 C435 1.503 . S
C443 C442 1.370 . S
C443 C444 1.403 1_554 S
C444 C443 1.403 1_556 S
C444 C445 1.404 . S
C444 C447 1.539 . S
C445 C441 1.408 1_556 S
C445 C444 1.404 . S
C445 H457 0.930 . S
C446 C442 1.524 . S
C446 H458 0.956 . S
C446 H459 0.961 . S
C446 H460 0.961 . S
C447 C444 1.539 . S
C447 H461 0.958 . S
C447 H462 0.961 . S
C447 H463 0.960 . S
H448 C432 0.931 . S
H449 C437 0.929 . S
H450 C438 0.960 . S
H451 C438 0.962 . S
H452 C438 0.960 . S
H453 C439 0.961 . S
H454 C439 0.961 . S
H455 C439 0.961 . S
H456 C440 0.931 . S
H457 C445 0.930 . S
H458 C446 0.956 . S
H459 C446 0.961 . S
H460 C446 0.961 . S
H461 C447 0.958 . S
H462 C447 0.961 . S
H463 C447 0.960 . S
C464 C465 1.391 . S
C464 C466 1.394 . S
C464 H480 0.931 . S
C465 C464 1.391 . S
C465 C469 1.376 1_554 S
C466 C464 1.394 . S
C466 C467 1.369 . S
C466 C470 1.531 . S
C467 C466 1.369 . S
C467 C468 1.410 1_554 S
C467 C475 1.503 . S
C468 C467 1.410 1_556 S
C468 C469 1.392 . S
C468 C471 1.511 . S
C469 C465 1.376 1_556 S
C469 C468 1.392 . S
C469 H481 0.929 . S
C470 C466 1.531 . S
C470 H482 0.960 . S
C470 H483 0.962 . S
C470 H484 0.960 . S
C471 C468 1.511 . S
C471 H485 0.961 . S
C471 H486 0.961 . S
C471 H487 0.961 . S
C472 C473 1.370 . S
C472 C474 1.363 . S
C472 H488 0.931 1_554 S
C473 C472 1.370 . S
C473 C477 1.408 . S
C474 C472 1.363 . S
C474 C475 1.370 . S
C474 C478 1.524 1_554 S
C475 C467 1.503 . S
C475 C474 1.370 . S
C475 C476 1.403 . S
C476 C475 1.403 . S
C476 C477 1.404 . S
C476 C479 1.539 . S
C477 C473 1.408 . S
C477 C476 1.404 . S
C477 H489 0.930 . S
C478 C474 1.524 1_556 S
C478 H490 0.956 1_556 S
C478 H491 0.961 . S
C478 H492 0.961 . S
C479 C476 1.539 . S
C479 H493 0.958 . S
C479 H494 0.961 . S
C479 H495 0.960 . S
H480 C464 0.931 . S
H481 C469 0.929 . S
H482 C470 0.960 . S
H483 C470 0.962 . S
H484 C470 0.960 . S
H485 C471 0.961 . S
H486 C471 0.961 . S
H487 C471 0.961 . S
H488 C472 0.931 1_556 S
H489 C477 0.930 . S
H490 C478 0.956 1_554 S
H491 C478 0.961 . S
H492 C478 0.961 . S
H493 C479 0.958 . S
H494 C479 0.961 . S
H495 C479 0.960 . S
C496 C497 1.391 1_556 S
C496 C498 1.394 . S
C496 H512 0.931 . S
C497 C496 1.391 1_554 S
C497 C501 1.376 . S
C498 C496 1.394 . S
C498 C499 1.369 1_556 S
C498 C502 1.531 . S
C499 C498 1.369 1_554 S
C499 C500 1.410 . S
C499 C507 1.503 . S
C500 C499 1.410 . S
C500 C501 1.392 . S
C500 C503 1.511 . S
C501 C497 1.376 . S
C501 C500 1.392 . S
C501 H513 0.929 . S
C502 C498 1.531 . S
C502 H514 0.960 . S
C502 H515 0.962 . S
C502 H516 0.960 . S
C503 C500 1.511 . S
C503 H517 0.961 . S
C503 H518 0.961 . S
C503 H519 0.961 . S
C504 C505 1.371 . S
C504 C506 1.363 . S
C504 H520 0.931 . S
C505 C504 1.371 . S
C505 C509 1.408 1_554 S
C506 C504 1.363 . S
C506 C507 1.370 . S
C506 C510 1.524 . S
C507 C499 1.503 . S
C507 C506 1.370 . S
C507 C508 1.403 1_554 S
C508 C507 1.403 1_556 S
C508 C509 1.404 . S
C508 C511 1.539 . S
C509 C505 1.408 1_556 S
C509 C508 1.404 . S
C509 H521 0.930 . S
C510 C506 1.524 . S
C510 H522 0.956 . S
C510 H523 0.961 . S
C510 H524 0.961 . S
C511 C508 1.539 . S
C511 H525 0.958 . S
C511 H526 0.961 . S
C511 H527 0.960 . S
H512 C496 0.931 . S
H513 C501 0.929 . S
H514 C502 0.960 . S
H515 C502 0.962 . S
H516 C502 0.960 . S
H517 C503 0.961 . S
H518 C503 0.961 . S
H519 C503 0.961 . S
H520 C504 0.931 . S
H521 C509 0.930 . S
H522 C510 0.956 . S
H523 C510 0.961 . S
H524 C510 0.961 . S
H525 C511 0.958 . S
H526 C511 0.961 . S
H527 C511 0.960 . S
C528 C529 1.391 . S
C528 C530 1.394 . S
C528 H544 0.931 . S
C529 C528 1.391 . S
C529 C533 1.376 . S
C530 C528 1.394 . S
C530 C531 1.369 . S
C530 C534 1.531 . S
C531 C530 1.369 . S
C531 C532 1.410 . S
C531 C539 1.503 . S
C532 C531 1.410 . S
C532 C533 1.392 . S
C532 C535 1.511 1_554 S
C533 C529 1.376 . S
C533 C532 1.392 . S
C533 H545 0.929 1_554 S
C534 C530 1.531 . S
C534 H546 0.960 . S
C534 H547 0.962 . S
C534 H548 0.960 . S
C535 C532 1.511 1_556 S
C535 H549 0.961 . S
C535 H550 0.961 . S
C535 H551 0.961 1_556 S
C536 C537 1.370 1_556 S
C536 C538 1.363 . S
C536 H552 0.931 . S
C537 C536 1.370 1_554 S
C537 C541 1.408 . S
C538 C536 1.363 . S
C538 C539 1.370 1_556 S
C538 C542 1.524 . S
C539 C531 1.503 . S
C539 C538 1.370 1_554 S
C539 C540 1.403 . S
C540 C539 1.403 . S
C540 C541 1.404 . S
C540 C543 1.539 . S
C541 C537 1.408 . S
C541 C540 1.404 . S
C541 H553 0.930 . S
C542 C538 1.524 . S
C542 H554 0.956 . S
C542 H555 0.961 . S
C542 H556 0.961 . S
C543 C540 1.539 . S
C543 H557 0.958 . S
C543 H558 0.961 . S
C543 H559 0.960 . S
H544 C528 0.931 . S
H545 C533 0.929 1_556 S
H546 C534 0.960 . S
H547 C534 0.962 . S
H548 C534 0.960 . S
H549 C535 0.961 . S
H550 C535 0.961 . S
H551 C535 0.961 1_554 S
H552 C536 0.931 . S
H553 C541 0.930 . S
H554 C542 0.956 . S
H555 C542 0.961 . S
H556 C542 0.961 . S
H557 C543 0.958 . S
H558 C543 0.961 . S
H559 C543 0.960 . S
C560 C561 1.391 . S
C560 C562 1.394 . S
C560 H576 0.931 . S
C561 C560 1.391 . S
C561 C565 1.376 1_554 S
C562 C560 1.394 . S
C562 C563 1.369 . S
C562 C566 1.531 . S
C563 C562 1.369 . S
C563 C564 1.410 1_554 S
C563 C571 1.503 . S
C564 C563 1.410 1_556 S
C564 C565 1.392 . S
C564 C567 1.511 . S
C565 C561 1.376 1_556 S
C565 C564 1.392 . S
C565 H577 0.929 . S
C566 C562 1.531 . S
C566 H578 0.960 . S
C566 H579 0.962 . S
C566 H580 0.960 . S
C567 C564 1.511 . S
C567 H581 0.961 . S
C567 H582 0.961 . S
C567 H583 0.961 . S
C568 C569 1.369 1_554 S
C568 C570 1.363 . S
C568 H584 0.931 . S
C569 C568 1.369 1_556 S
C569 C573 1.409 . S
C570 C568 1.363 . S
C570 C571 1.370 . S
C570 C574 1.524 . S
C571 C563 1.503 . S
C571 C570 1.370 . S
C571 C572 1.403 1_554 S
C572 C571 1.403 1_556 S
C572 C573 1.404 . S
C572 C575 1.539 . S
C573 C569 1.409 . S
C573 C572 1.404 . S
C573 H585 0.930 . S
C574 C570 1.524 . S
C574 H586 0.956 . S
C574 H587 0.961 . S
C574 H588 0.961 . S
C575 C572 1.539 . S
C575 H589 0.958 1_556 S
C575 H590 0.961 . S
C575 H591 0.960 . S
H576 C560 0.931 . S
H577 C565 0.929 . S
H578 C566 0.960 . S
H579 C566 0.962 . S
H580 C566 0.960 . S
H581 C567 0.961 . S
H582 C567 0.961 . S
H583 C567 0.961 . S
H584 C568 0.931 . S
H585 C573 0.930 . S
H586 C574 0.956 . S
H587 C574 0.961 . S
H588 C574 0.961 . S
H589 C575 0.958 1_554 S
H590 C575 0.961 . S
H591 C575 0.960 . S
C592 C593 1.391 . S
C592 C594 1.394 . S
C592 H608 0.931 . S
C593 C592 1.391 . S
C593 C597 1.376 1_554 S
C594 C592 1.394 . S
C594 C595 1.369 . S
C594 C598 1.531 . S
C595 C594 1.369 . S
C595 C596 1.410 1_554 S
C595 C603 1.503 . S
C596 C595 1.410 1_556 S
C596 C597 1.392 . S
C596 C599 1.511 . S
C597 C593 1.376 1_556 S
C597 C596 1.392 . S
C597 H609 0.929 . S
C598 C594 1.531 . S
C598 H610 0.960 . S
C598 H611 0.962 . S
C598 H612 0.960 . S
C599 C596 1.511 . S
C599 H613 0.961 . S
C599 H614 0.961 . S
C599 H615 0.961 . S
C600 C601 1.370 . S
C600 C602 1.363 . S
C600 H616 0.931 1_554 S
C601 C600 1.370 . S
C601 C605 1.408 . S
C602 C600 1.363 . S
C602 C603 1.370 . S
C602 C606 1.524 1_554 S
C603 C595 1.503 . S
C603 C602 1.370 . S
C603 C604 1.403 . S
C604 C603 1.403 . S
C604 C605 1.404 . S
C604 C607 1.539 . S
C605 C601 1.408 . S
C605 C604 1.404 . S
C605 H617 0.930 . S
C606 C602 1.524 1_556 S
C606 H618 0.956 1_556 S
C606 H619 0.961 . S
C606 H620 0.961 . S
C607 C604 1.539 . S
C607 H621 0.958 . S
C607 H622 0.961 . S
C607 H623 0.960 . S
H608 C592 0.931 . S
H609 C597 0.929 . S
H610 C598 0.960 . S
H611 C598 0.962 . S
H612 C598 0.960 . S
H613 C599 0.961 . S
H614 C599 0.961 . S
H615 C599 0.961 . S
H616 C600 0.931 1_556 S
H617 C605 0.930 . S
H618 C606 0.956 1_554 S
H619 C606 0.961 . S
H620 C606 0.961 . S
H621 C607 0.958 . S
H622 C607 0.961 . S
H623 C607 0.960 . S
C624 C625 1.391 . S
C624 C626 1.394 . S
C624 H640 0.931 . S
C625 C624 1.391 . S
C625 C629 1.376 . S
C626 C624 1.394 . S
C626 C627 1.369 . S
C626 C630 1.531 . S
C627 C626 1.369 . S
C627 C628 1.410 . S
C627 C635 1.503 . S
C628 C627 1.410 . S
C628 C629 1.392 . S
C628 C631 1.511 . S
C629 C625 1.376 . S
C629 C628 1.392 . S
C629 H641 0.929 . S
C630 C626 1.531 . S
C630 H642 0.960 . S
C630 H643 0.962 . S
C630 H644 0.960 . S
C631 C628 1.511 . S
C631 H645 0.961 . S
C631 H646 0.961 . S
C631 H647 0.961 . S
C632 C633 1.370 . S
C632 C634 1.363 . S
C632 H648 0.931 . S
C633 C632 1.370 . S
C633 C637 1.408 . S
C634 C632 1.363 . S
C634 C635 1.370 . S
C634 C638 1.524 . S
C635 C627 1.503 . S
C635 C634 1.370 . S
C635 C636 1.403 . S
C636 C635 1.403 . S
C636 C637 1.404 . S
C636 C639 1.539 . S
C637 C633 1.408 . S
C637 C636 1.404 . S
C637 H649 0.930 . S
C638 C634 1.524 . S
C638 H650 0.956 . S
C638 H651 0.961 . S
C638 H652 0.961 . S
C639 C636 1.539 . S
C639 H653 0.958 . S
C639 H654 0.961 . S
C639 H655 0.960 . S
H640 C624 0.931 . S
H641 C629 0.929 . S
H642 C630 0.960 . S
H643 C630 0.962 . S
H644 C630 0.960 . S
H645 C631 0.961 . S
H646 C631 0.961 . S
H647 C631 0.961 . S
H648 C632 0.931 . S
H649 C637 0.930 . S
H650 C638 0.956 . S
H651 C638 0.961 . S
H652 C638 0.961 . S
H653 C639 0.958 . S
H654 C639 0.961 . S
H655 C639 0.960 . S
C656 C657 1.391 . S
C656 C658 1.394 . S
C656 H672 0.931 . S
C657 C656 1.391 . S
C657 C661 1.376 . S
C658 C656 1.394 . S
C658 C659 1.369 . S
C658 C662 1.531 . S
C659 C658 1.369 . S
C659 C660 1.410 . S
C659 C667 1.503 . S
C660 C659 1.410 . S
C660 C661 1.392 . S
C660 C663 1.511 . S
C661 C657 1.376 . S
C661 C660 1.392 . S
C661 H673 0.929 . S
C662 C658 1.531 . S
C662 H674 0.960 . S
C662 H675 0.962 . S
C662 H676 0.960 . S
C663 C660 1.511 . S
C663 H677 0.961 . S
C663 H678 0.961 . S
C663 H679 0.961 . S
C664 C665 1.370 . S
C664 C666 1.363 . S
C664 H680 0.931 . S
C665 C664 1.370 . S
C665 C669 1.408 . S
C666 C664 1.363 . S
C666 C667 1.370 . S
C666 C670 1.524 . S
C667 C659 1.503 . S
C667 C666 1.370 . S
C667 C668 1.403 . S
C668 C667 1.403 . S
C668 C669 1.404 . S
C668 C671 1.539 . S
C669 C665 1.408 . S
C669 C668 1.404 . S
C669 H681 0.930 . S
C670 C666 1.524 . S
C670 H682 0.956 . S
C670 H683 0.961 . S
C670 H684 0.961 . S
C671 C668 1.539 . S
C671 H685 0.958 . S
C671 H686 0.961 . S
C671 H687 0.960 . S
H672 C656 0.931 . S
H673 C661 0.929 . S
H674 C662 0.960 . S
H675 C662 0.962 . S
H676 C662 0.960 . S
H677 C663 0.961 . S
H678 C663 0.961 . S
H679 C663 0.961 . S
H680 C664 0.931 . S
H681 C669 0.930 . S
H682 C670 0.956 . S
H683 C670 0.961 . S
H684 C670 0.961 . S
H685 C671 0.958 . S
H686 C671 0.961 . S
H687 C671 0.960 . S
C688 C689 1.391 . S
C688 C690 1.394 . S
C688 H704 0.931 . S
C689 C688 1.391 . S
C689 C693 1.376 . S
C690 C688 1.394 . S
C690 C691 1.369 . S
C690 C694 1.531 . S
C691 C690 1.369 . S
C691 C692 1.410 . S
C691 C699 1.503 . S
C692 C691 1.410 . S
C692 C693 1.392 . S
C692 C695 1.511 . S
C693 C689 1.376 . S
C693 C692 1.392 . S
C693 H705 0.929 . S
C694 C690 1.531 . S
C694 H706 0.960 . S
C694 H707 0.962 . S
C694 H708 0.960 . S
C695 C692 1.511 . S
C695 H709 0.961 . S
C695 H710 0.961 . S
C695 H711 0.961 . S
C696 C697 1.370 . S
C696 C698 1.363 . S
C696 H712 0.931 . S
C697 C696 1.370 . S
C697 C701 1.408 . S
C698 C696 1.363 . S
C698 C699 1.370 . S
C698 C702 1.524 . S
C699 C691 1.503 . S
C699 C698 1.370 . S
C699 C700 1.403 . S
C700 C699 1.403 . S
C700 C701 1.404 . S
C700 C703 1.539 . S
C701 C697 1.408 . S
C701 C700 1.404 . S
C701 H713 0.930 . S
C702 C698 1.524 . S
C702 H714 0.956 . S
C702 H715 0.961 . S
C702 H716 0.961 . S
C703 C700 1.539 . S
C703 H717 0.958 . S
C703 H718 0.961 . S
C703 H719 0.960 . S
H704 C688 0.931 . S
H705 C693 0.929 . S
H706 C694 0.960 . S
H707 C694 0.962 . S
H708 C694 0.960 . S
H709 C695 0.961 . S
H710 C695 0.961 . S
H711 C695 0.961 . S
H712 C696 0.931 . S
H713 C701 0.930 . S
H714 C702 0.956 . S
H715 C702 0.961 . S
H716 C702 0.961 . S
H717 C703 0.958 . S
H718 C703 0.961 . S
H719 C703 0.960 . S
C720 C721 1.391 . S
C720 C722 1.394 . S
C720 H736 0.931 . S
C721 C720 1.391 . S
C721 C725 1.376 . S
C722 C720 1.394 . S
C722 C723 1.369 . S
C722 C726 1.531 . S
C723 C722 1.369 . S
C723 C724 1.410 . S
C723 C731 1.503 . S
C724 C723 1.410 . S
C724 C725 1.392 . S
C724 C727 1.511 . S
C725 C721 1.376 . S
C725 C724 1.392 . S
C725 H737 0.929 . S
C726 C722 1.531 . S
C726 H738 0.960 . S
C726 H739 0.962 . S
C726 H740 0.960 . S
C727 C724 1.511 . S
C727 H741 0.961 . S
C727 H742 0.961 . S
C727 H743 0.961 . S
C728 C729 1.370 . S
C728 C730 1.363 . S
C728 H744 0.931 . S
C729 C728 1.370 . S
C729 C733 1.408 . S
C730 C728 1.363 . S
C730 C731 1.370 . S
C730 C734 1.524 . S
C731 C723 1.503 . S
C731 C730 1.370 . S
C731 C732 1.403 . S
C732 C731 1.403 . S
C732 C733 1.404 . S
C732 C735 1.539 . S
C733 C729 1.408 . S
C733 C732 1.404 . S
C733 H745 0.930 . S
C734 C730 1.524 . S
C734 H746 0.956 . S
C734 H747 0.961 . S
C734 H748 0.961 . S
C735 C732 1.539 . S
C735 H749 0.958 . S
C735 H750 0.961 . S
C735 H751 0.960 . S
H736 C720 0.931 . S
H737 C725 0.929 . S
H738 C726 0.960 . S
H739 C726 0.962 . S
H740 C726 0.960 . S
H741 C727 0.961 . S
H742 C727 0.961 . S
H743 C727 0.961 . S
H744 C728 0.931 . S
H745 C733 0.930 . S
H746 C734 0.956 . S
H747 C734 0.961 . S
H748 C734 0.961 . S
H749 C735 0.958 . S
H750 C735 0.961 . S
H751 C735 0.960 . S
C752 C753 1.391 . S
C752 C754 1.394 . S
C752 H768 0.931 . S
C753 C752 1.391 . S
C753 C757 1.376 . S
C754 C752 1.394 . S
C754 C755 1.369 . S
C754 C758 1.531 . S
C755 C754 1.369 . S
C755 C756 1.410 . S
C755 C763 1.503 . S
C756 C755 1.410 . S
C756 C757 1.392 . S
C756 C759 1.511 . S
C757 C753 1.376 . S
C757 C756 1.392 . S
C757 H769 0.929 . S
C758 C754 1.531 . S
C758 H770 0.960 . S
C758 H771 0.962 . S
C758 H772 0.960 . S
C759 C756 1.511 . S
C759 H773 0.961 . S
C759 H774 0.961 . S
C759 H775 0.961 . S
C760 C761 1.370 . S
C760 C762 1.363 . S
C760 H776 0.931 . S
C761 C760 1.370 . S
C761 C765 1.408 . S
C762 C760 1.363 . S
C762 C763 1.370 . S
C762 C766 1.524 . S
C763 C755 1.503 . S
C763 C762 1.370 . S
C763 C764 1.403 . S
C764 C763 1.403 . S
C764 C765 1.404 . S
C764 C767 1.539 . S
C765 C761 1.408 . S
C765 C764 1.404 . S
C765 H777 0.930 . S
C766 C762 1.524 . S
C766 H778 0.956 . S
C766 H779 0.961 . S
C766 H780 0.961 . S
C767 C764 1.539 . S
C767 H781 0.958 . S
C767 H782 0.961 . S
C767 H783 0.960 . S
H768 C752 0.931 . S
H769 C757 0.929 . S
H770 C758 0.960 . S
H771 C758 0.962 . S
H772 C758 0.960 . S
H773 C759 0.961 . S
H774 C759 0.961 . S
H775 C759 0.961 . S
H776 C760 0.931 . S
H777 C765 0.930 . S
H778 C766 0.956 . S
H779 C766 0.961 . S
H780 C766 0.961 . S
H781 C767 0.958 . S
H782 C767 0.961 . S
H783 C767 0.960 . S
C784 C785 1.391 . S
C784 C786 1.394 . S
C784 H800 0.931 . S
C785 C784 1.391 . S
C785 C789 1.376 . S
C786 C784 1.394 . S
C786 C787 1.369 . S
C786 C790 1.531 . S
C787 C786 1.369 . S
C787 C788 1.410 . S
C787 C795 1.503 . S
C788 C787 1.410 . S
C788 C789 1.392 . S
C788 C791 1.511 . S
C789 C785 1.376 . S
C789 C788 1.392 . S
C789 H801 0.929 . S
C790 C786 1.531 . S
C790 H802 0.960 . S
C790 H803 0.962 . S
C790 H804 0.960 . S
C791 C788 1.511 . S
C791 H805 0.961 . S
C791 H806 0.961 . S
C791 H807 0.961 . S
C792 C793 1.370 . S
C792 C794 1.363 . S
C792 H808 0.931 . S
C793 C792 1.370 . S
C793 C797 1.408 . S
C794 C792 1.363 . S
C794 C795 1.370 . S
C794 C798 1.524 . S
C795 C787 1.503 . S
C795 C794 1.370 . S
C795 C796 1.403 . S
C796 C795 1.403 . S
C796 C797 1.404 . S
C796 C799 1.539 . S
C797 C793 1.408 . S
C797 C796 1.404 . S
C797 H809 0.930 . S
C798 C794 1.524 . S
C798 H810 0.956 . S
C798 H811 0.961 . S
C798 H812 0.961 . S
C799 C796 1.539 . S
C799 H813 0.958 . S
C799 H814 0.961 . S
C799 H815 0.960 . S
H800 C784 0.931 . S
H801 C789 0.929 . S
H802 C790 0.960 . S
H803 C790 0.962 . S
H804 C790 0.960 . S
H805 C791 0.961 . S
H806 C791 0.961 . S
H807 C791 0.961 . S
H808 C792 0.931 . S
H809 C797 0.930 . S
H810 C798 0.956 . S
H811 C798 0.961 . S
H812 C798 0.961 . S
H813 C799 0.958 . S
H814 C799 0.961 . S
H815 C799 0.960 . S
C241 C209 1.871 1_556 S
C249 C5 1.707 . S
C273 C9 1.856 . S
C281 C45 1.691 . S
C305 C49 1.881 1_556 S
C313 C85 1.718 . S
C337 C125 1.678 . S
C345 C89 1.867 . S
C369 C165 1.672 . S
C377 C129 1.867 . S
C401 C169 1.878 1_556 S
C409 C205 1.715 . S
C433 C179 1.895 . S
C441 C15 1.899 . S
C465 C219 1.900 1_554 S
C473 C55 1.902 . S
C497 C95 1.891 . S
C505 C19 1.904 1_554 S
C529 C135 1.908 . S
C537 C59 1.910 1_554 S
C561 C175 1.898 . S
C569 C99 1.908 . S
C593 C139 1.900 1_554 S
C601 C215 1.902 . S
C625 C18 1.399 . S
C633 C8 1.455 . S
C657 C58 1.405 . S
C665 C48 1.454 . S
C689 C98 1.461 . S
C697 C88 1.431 . S
C721 C138 1.440 . S
C729 C128 1.436 . S
C753 C168 1.431 . S
C761 C178 1.444 . S
C785 C218 1.451 . S
C793 C208 1.436 . S
