# Generated by pormake.
# Topology yfb, (5)-cn, num edge types: 1
# Building blocks:
#     Node 0, Type 0, BuildingBlock: XOMCOT_clean_sbu_0, # of connection points: 5
#     Node 1, Type 0, BuildingBlock: XOMCOT_clean_sbu_0, # of connection points: 5
#     Node 2, Type 0, BuildingBlock: XOMCOT_clean_sbu_0, # of connection points: 5
#     Node 3, Type 0, BuildingBlock: XOMCOT_clean_sbu_0, # of connection points: 5
#     Node 4, Type 0, BuildingBlock: XOMCOT_clean_sbu_0, # of connection points: 5
#     Node 5, Type 0, BuildingBlock: XOMCOT_clean_sbu_0, # of connection points: 5
#     Node 6, Type 0, BuildingBlock: XOMCOT_clean_sbu_0, # of connection points: 5
#     Node 7, Type 0, BuildingBlock: XOMCOT_clean_sbu_0, # of connection points: 5
#     Node 8, Type 0, BuildingBlock: XOMCOT_clean_sbu_0, # of connection points: 5
#     Node 9, Type 0, BuildingBlock: XOMCOT_clean_sbu_0, # of connection points: 5
#     Node 10, Type 0, BuildingBlock: XOMCOT_clean_sbu_0, # of connection points: 5
#     Node 11, Type 0, BuildingBlock: XOMCOT_clean_sbu_0, # of connection points: 5
#     Node 12, Type 0, BuildingBlock: XOMCOT_clean_sbu_0, # of connection points: 5
#     Node 13, Type 0, BuildingBlock: XOMCOT_clean_sbu_0, # of connection points: 5
#     Node 14, Type 0, BuildingBlock: XOMCOT_clean_sbu_0, # of connection points: 5
#     Node 15, Type 0, BuildingBlock: XOMCOT_clean_sbu_0, # of connection points: 5
#     Edge 16, Type (0, 0), BuildingBlock: XIVTED_clean_linker_0, # of connection points: 2
#     Edge 17, Type (0, 0), BuildingBlock: XIVTED_clean_linker_0, # of connection points: 2
#     Edge 18, Type (0, 0), BuildingBlock: XIVTED_clean_linker_0, # of connection points: 2
#     Edge 19, Type (0, 0), BuildingBlock: XIVTED_clean_linker_0, # of connection points: 2
#     Edge 20, Type (0, 0), BuildingBlock: XIVTED_clean_linker_0, # of connection points: 2
#     Edge 21, Type (0, 0), BuildingBlock: XIVTED_clean_linker_0, # of connection points: 2
#     Edge 22, Type (0, 0), BuildingBlock: XIVTED_clean_linker_0, # of connection points: 2
#     Edge 23, Type (0, 0), BuildingBlock: XIVTED_clean_linker_0, # of connection points: 2
#     Edge 24, Type (0, 0), BuildingBlock: XIVTED_clean_linker_0, # of connection points: 2
#     Edge 25, Type (0, 0), BuildingBlock: XIVTED_clean_linker_0, # of connection points: 2
#     Edge 26, Type (0, 0), BuildingBlock: XIVTED_clean_linker_0, # of connection points: 2
#     Edge 27, Type (0, 0), BuildingBlock: XIVTED_clean_linker_0, # of connection points: 2
#     Edge 28, Type (0, 0), BuildingBlock: XIVTED_clean_linker_0, # of connection points: 2
#     Edge 29, Type (0, 0), BuildingBlock: XIVTED_clean_linker_0, # of connection points: 2
#     Edge 30, Type (0, 0), BuildingBlock: XIVTED_clean_linker_0, # of connection points: 2
#     Edge 31, Type (0, 0), BuildingBlock: XIVTED_clean_linker_0, # of connection points: 2
#     Edge 32, Type (0, 0), BuildingBlock: XIVTED_clean_linker_0, # of connection points: 2
#     Edge 33, Type (0, 0), BuildingBlock: XIVTED_clean_linker_0, # of connection points: 2
#     Edge 34, Type (0, 0), BuildingBlock: XIVTED_clean_linker_0, # of connection points: 2
#     Edge 35, Type (0, 0), BuildingBlock: XIVTED_clean_linker_0, # of connection points: 2
#     Edge 36, Type (0, 0), BuildingBlock: XIVTED_clean_linker_0, # of connection points: 2
#     Edge 37, Type (0, 0), BuildingBlock: XIVTED_clean_linker_0, # of connection points: 2
#     Edge 38, Type (0, 0), BuildingBlock: XIVTED_clean_linker_0, # of connection points: 2
#     Edge 39, Type (0, 0), BuildingBlock: XIVTED_clean_linker_0, # of connection points: 2
#     Edge 40, Type (0, 0), BuildingBlock: XIVTED_clean_linker_0, # of connection points: 2
#     Edge 41, Type (0, 0), BuildingBlock: XIVTED_clean_linker_0, # of connection points: 2
#     Edge 42, Type (0, 0), BuildingBlock: XIVTED_clean_linker_0, # of connection points: 2
#     Edge 43, Type (0, 0), BuildingBlock: XIVTED_clean_linker_0, # of connection points: 2
#     Edge 44, Type (0, 0), BuildingBlock: XIVTED_clean_linker_0, # of connection points: 2
#     Edge 45, Type (0, 0), BuildingBlock: XIVTED_clean_linker_0, # of connection points: 2
#     Edge 46, Type (0, 0), BuildingBlock: XIVTED_clean_linker_0, # of connection points: 2
#     Edge 47, Type (0, 0), BuildingBlock: XIVTED_clean_linker_0, # of connection points: 2
#     Edge 48, Type (0, 0), BuildingBlock: XIVTED_clean_linker_0, # of connection points: 2
#     Edge 49, Type (0, 0), BuildingBlock: XIVTED_clean_linker_0, # of connection points: 2
#     Edge 50, Type (0, 0), BuildingBlock: XIVTED_clean_linker_0, # of connection points: 2
#     Edge 51, Type (0, 0), BuildingBlock: XIVTED_clean_linker_0, # of connection points: 2
#     Edge 52, Type (0, 0), BuildingBlock: XIVTED_clean_linker_0, # of connection points: 2
#     Edge 53, Type (0, 0), BuildingBlock: XIVTED_clean_linker_0, # of connection points: 2
#     Edge 54, Type (0, 0), BuildingBlock: XIVTED_clean_linker_0, # of connection points: 2
#     Edge 55, Type (0, 0), BuildingBlock: XIVTED_clean_linker_0, # of connection points: 2
# Relax obj value: 0.751
# Max RMSD: 0.295
# Mean RMSD: 0.295
data_MOF--net-yfb--node1-XOMCOT_clean_sbu_0--edge1-XIVTED_clean_linker_0
_symmetry_space_group_name_H-M    P1
_symmetry_Int_Tables_number       1
_symmetry_cell_setting            triclinic
loop_
_symmetry_equiv_pos_as_xyz
'x, y, z'
_cell_length_a     42.746626
_cell_length_b     42.684228
_cell_length_c     43.084624
_cell_angle_alpha  89.991867
_cell_angle_beta   89.986835
_cell_angle_gamma 89.990184
loop_
_atom_site_label
_atom_site_type_symbol
_atom_site_fract_x
_atom_site_fract_y
_atom_site_fract_z
_atom_type_partial_charge
Co0 Co 0.66297 0.06538 0.10412 0.0
C1 C 0.61518 0.02415 0.07695 0.0
C2 C 0.60992 0.02726 0.12614 0.0
C3 C 0.58306 0.01431 0.11378 0.0
N4 N 0.63036 0.03336 0.10301 0.0
N5 N 0.58622 0.01296 0.08269 0.0
H6 H 0.62344 0.02891 0.05384 0.0
H7 H 0.61263 0.03509 0.14984 0.0
C8 C 0.67787 0.0298 0.16256 0.0
O9 O 0.67229 0.00355 0.14763 0.0
N10 N 0.69436 0.09806 0.10453 0.0
C11 C 0.71695 0.1024 0.08311 0.0
C12 C 0.73352 0.12889 0.09051 0.0
C13 C 0.69691 0.12254 0.12423 0.0
N14 N 0.72088 0.1416 0.11624 0.0
C15 C 0.69329 0.02771 0.05827 0.0
C16 C 0.74916 0.0218 0.08959 0.0
C17 C 0.74918 0.01847 0.05716 0.0
C18 C 0.72015 0.01908 0.04197 0.0
C19 C 0.72216 0.03201 0.10468 0.0
N20 N 0.69478 0.03625 0.08878 0.0
H21 H 0.67255 0.03187 0.04488 0.0
H22 H 0.72496 0.04042 0.12805 0.0
H23 H 0.7206 0.08795 0.06285 0.0
H24 H 0.68115 0.12671 0.14346 0.0
O25 O 0.6485 0.08093 0.06491 0.0
O26 O 0.63041 0.09656 0.11058 0.0
O27 O 0.67351 0.05606 0.14893 0.0
C28 C 0.62899 0.09821 0.0804 0.0
H29 H 0.56166 0.00957 0.12638 0.0
H30 H 0.75233 0.13903 0.077 0.0
H31 H 0.77057 0.02023 0.10289 0.0
H32 H 0.71833 0.01675 0.01705 0.0
Co33 Co 0.43759 0.66399 0.1054 0.0
C34 C 0.47889 0.61517 0.07954 0.0
C35 C 0.47514 0.61115 0.12882 0.0
C36 C 0.48836 0.58402 0.11732 0.0
N37 N 0.46931 0.631 0.10513 0.0
N38 N 0.49031 0.58642 0.08617 0.0
H39 H 0.47358 0.62239 0.05615 0.0
H40 H 0.46718 0.61448 0.1524 0.0
C41 C 0.47233 0.67924 0.1642 0.0
O42 O 0.49866 0.67337 0.14955 0.0
N43 N 0.40518 0.69573 0.10495 0.0
C44 C 0.40142 0.71814 0.08319 0.0
C45 C 0.37505 0.73513 0.08997 0.0
C46 C 0.38041 0.6988 0.12421 0.0
N47 N 0.36178 0.72294 0.11563 0.0
C48 C 0.47615 0.69357 0.05991 0.0
C49 C 0.4811 0.75001 0.09049 0.0
C50 C 0.48391 0.74979 0.058 0.0
C51 C 0.48407 0.72046 0.04321 0.0
C52 C 0.47124 0.72305 0.10591 0.0
N53 N 0.46722 0.69543 0.09029 0.0
H54 H 0.47271 0.67238 0.04693 0.0
H55 H 0.46278 0.72608 0.12922 0.0
H56 H 0.4162 0.72137 0.06311 0.0
H57 H 0.37574 0.68332 0.14356 0.0
O58 O 0.42274 0.64939 0.06603 0.0
O59 O 0.40607 0.63168 0.11149 0.0
O60 O 0.44623 0.67492 0.15033 0.0
C61 C 0.40505 0.63007 0.08128 0.0
H62 H 0.49369 0.56325 0.1307 0.0
H63 H 0.36537 0.75393 0.07609 0.0
H64 H 0.48257 0.77154 0.10364 0.0
H65 H 0.48645 0.71828 0.01832 0.0
Co66 Co 0.8372 0.43586 0.1056 0.0
C67 C 0.88598 0.47614 0.07873 0.0
C68 C 0.89076 0.47304 0.12796 0.0
C69 C 0.91797 0.48547 0.11579 0.0
N70 N 0.87041 0.46727 0.10468 0.0
N71 N 0.91509 0.4868 0.08467 0.0
H72 H 0.87785 0.47148 0.05555 0.0
H73 H 0.88773 0.4653 0.15166 0.0
C74 C 0.82278 0.47108 0.16434 0.0
O75 O 0.82843 0.49742 0.14957 0.0
N76 N 0.80522 0.40376 0.10582 0.0
C77 C 0.78253 0.39995 0.08441 0.0
C78 C 0.76563 0.37361 0.09159 0.0
C79 C 0.80236 0.37912 0.1253 0.0
N80 N 0.77814 0.36045 0.11717 0.0
C81 C 0.80774 0.47485 0.06035 0.0
C82 C 0.75172 0.48088 0.09141 0.0
C83 C 0.75196 0.48471 0.05902 0.0
C84 C 0.78111 0.48408 0.04403 0.0
C85 C 0.77849 0.47008 0.1065 0.0
N86 N 0.80591 0.46574 0.09067 0.0
H87 H 0.82854 0.47074 0.04705 0.0
H88 H 0.77548 0.46133 0.12973 0.0
H89 H 0.77908 0.41466 0.06429 0.0
H90 H 0.81812 0.37454 0.14443 0.0
O91 O 0.85117 0.42046 0.06615 0.0
O92 O 0.86922 0.40403 0.11156 0.0
O93 O 0.82699 0.4449 0.15053 0.0
C94 C 0.87047 0.40269 0.08135 0.0
H95 H 0.93934 0.48984 0.12855 0.0
H96 H 0.7467 0.36383 0.07799 0.0
H97 H 0.73026 0.48251 0.10461 0.0
H98 H 0.78318 0.48683 0.01917 0.0
Co99 Co 0.06647 0.83798 0.10468 0.0
C100 C 0.0253 0.88664 0.07828 0.0
C101 C 0.02953 0.89152 0.12744 0.0
C102 C 0.01648 0.91856 0.11558 0.0
N103 N 0.03495 0.87117 0.10407 0.0
N104 N 0.01422 0.91561 0.0845 0.0
H105 H 0.0304 0.87901 0.05498 0.0
H106 H 0.03769 0.88852 0.151 0.0
C107 C 0.03125 0.82369 0.16333 0.0
O108 O 0.00519 0.83015 0.14848 0.0
N109 N 0.09872 0.80608 0.10455 0.0
C110 C 0.10233 0.78335 0.08311 0.0
C111 C 0.12869 0.76639 0.09001 0.0
C112 C 0.12356 0.80321 0.12375 0.0
N113 N 0.14209 0.77891 0.11544 0.0
C114 C 0.02773 0.80828 0.05937 0.0
C115 C 0.02198 0.75224 0.09058 0.0
C116 C 0.01865 0.75227 0.05815 0.0
C117 C 0.01904 0.78142 0.04304 0.0
C118 C 0.0324 0.77918 0.10565 0.0
N119 N 0.0367 0.8066 0.08975 0.0
H120 H 0.0316 0.82921 0.0461 0.0
H121 H 0.04098 0.77625 0.12894 0.0
H122 H 0.08746 0.77987 0.06314 0.0
H123 H 0.12835 0.81897 0.14286 0.0
O124 O 0.0815 0.85226 0.06525 0.0
O125 O 0.09811 0.8702 0.11063 0.0
O126 O 0.05756 0.82737 0.14964 0.0
C127 C 0.09916 0.87166 0.08041 0.0
H128 H 0.01149 0.93964 0.12862 0.0
H129 H 0.13826 0.74736 0.07636 0.0
H130 H 0.0204 0.73078 0.10386 0.0
H131 H 0.01651 0.78332 0.01814 0.0
Co132 Co 0.66325 0.43766 0.40701 0.0
C133 C 0.61573 0.47914 0.43434 0.0
C134 C 0.6101 0.47567 0.38522 0.0
C135 C 0.58332 0.4887 0.39768 0.0
N136 N 0.63071 0.46976 0.40822 0.0
N137 N 0.5867 0.49027 0.42873 0.0
H138 H 0.62416 0.47454 0.45742 0.0
H139 H 0.61261 0.46764 0.36155 0.0
C140 C 0.67761 0.47297 0.34832 0.0
O141 O 0.6721 0.49925 0.36323 0.0
N142 N 0.69457 0.4049 0.40652 0.0
C143 C 0.71716 0.40052 0.42792 0.0
C144 C 0.7338 0.37409 0.42044 0.0
C145 C 0.69719 0.38049 0.38672 0.0
N146 N 0.72121 0.36145 0.39465 0.0
C147 C 0.69419 0.47529 0.45243 0.0
C148 C 0.74979 0.48062 0.42053 0.0
C149 C 0.75027 0.48352 0.453 0.0
C150 C 0.72137 0.48335 0.46849 0.0
C151 C 0.72252 0.47082 0.40569 0.0
N152 N 0.69528 0.46677 0.4219 0.0
H153 H 0.6735 0.47145 0.46599 0.0
H154 H 0.72499 0.4625 0.38226 0.0
H155 H 0.72078 0.41492 0.44822 0.0
H156 H 0.68148 0.37638 0.36745 0.0
O157 O 0.64911 0.4224 0.44645 0.0
O158 O 0.63054 0.40653 0.40107 0.0
O159 O 0.67341 0.44674 0.36205 0.0
C160 C 0.62937 0.40511 0.43127 0.0
H161 H 0.56182 0.4933 0.38521 0.0
H162 H 0.75263 0.36395 0.43391 0.0
H163 H 0.77102 0.48209 0.40694 0.0
H164 H 0.71981 0.48555 0.49344 0.0
Co165 Co 0.06697 0.66573 0.40655 0.0
C166 C 0.02601 0.61771 0.43402 0.0
C167 C 0.03055 0.61133 0.38508 0.0
C168 C 0.01801 0.5844 0.39775 0.0
N169 N 0.03548 0.63254 0.40781 0.0
N170 N 0.01576 0.58826 0.42872 0.0
H171 H 0.02998 0.62663 0.45703 0.0
H172 H 0.03898 0.61364 0.36153 0.0
C173 C 0.03183 0.67855 0.34756 0.0
O174 O 0.00579 0.67203 0.36243 0.0
N175 N 0.09921 0.69764 0.40609 0.0
C176 C 0.10267 0.7209 0.42699 0.0
C177 C 0.1292 0.73754 0.41997 0.0
C178 C 0.12429 0.69989 0.3871 0.0
N179 N 0.14285 0.7243 0.39502 0.0
C180 C 0.02833 0.69652 0.45127 0.0
C181 C 0.02202 0.75167 0.41867 0.0
C182 C 0.01879 0.75247 0.4511 0.0
C183 C 0.01944 0.72371 0.46692 0.0
C184 C 0.03261 0.72441 0.40424 0.0
N185 N 0.03715 0.69744 0.42081 0.0
H186 H 0.03252 0.67607 0.46512 0.0
H187 H 0.04107 0.7268 0.38085 0.0
H188 H 0.08764 0.72493 0.44674 0.0
H189 H 0.12924 0.6836 0.36849 0.0
O190 O 0.08193 0.65225 0.44629 0.0
O191 O 0.09861 0.63337 0.4013 0.0
O192 O 0.05812 0.67541 0.36139 0.0
C193 C 0.09954 0.63247 0.43154 0.0
H194 H 0.01423 0.56255 0.38556 0.0
H195 H 0.13872 0.75682 0.43329 0.0
H196 H 0.0202 0.77273 0.40481 0.0
H197 H 0.01702 0.72236 0.49186 0.0
Co198 Co 0.83694 0.06673 0.40558 0.0
C199 C 0.88491 0.02579 0.43286 0.0
C200 C 0.89042 0.02918 0.38373 0.0
C201 C 0.91748 0.01674 0.39622 0.0
N202 N 0.86972 0.03484 0.40674 0.0
N203 N 0.91415 0.01526 0.42728 0.0
H204 H 0.87647 0.03037 0.45594 0.0
H205 H 0.88778 0.03713 0.36005 0.0
C206 C 0.82277 0.03177 0.34673 0.0
O207 O 0.82806 0.00542 0.36162 0.0
N208 N 0.80544 0.09931 0.40517 0.0
C209 C 0.78278 0.10345 0.42656 0.0
C210 C 0.7661 0.1299 0.41925 0.0
C211 C 0.80282 0.12388 0.38557 0.0
N212 N 0.77873 0.1428 0.3936 0.0
C213 C 0.80632 0.02801 0.45031 0.0
C214 C 0.75042 0.02376 0.41878 0.0
C215 C 0.75028 0.01994 0.45116 0.0
C216 C 0.77928 0.01957 0.46639 0.0
C217 C 0.77765 0.0337 0.40391 0.0
N218 N 0.80502 0.03729 0.42001 0.0
H219 H 0.82711 0.0315 0.4638 0.0
H220 H 0.7751 0.04257 0.38067 0.0
H221 H 0.77917 0.08887 0.44674 0.0
H222 H 0.81861 0.12823 0.3664 0.0
O223 O 0.85064 0.08174 0.44525 0.0
O224 O 0.86951 0.09809 0.40014 0.0
O225 O 0.82713 0.05794 0.36051 0.0
C226 C 0.87043 0.09923 0.43038 0.0
H227 H 0.93908 0.01257 0.38376 0.0
H228 H 0.74722 0.13989 0.43277 0.0
H229 H 0.72899 0.02292 0.40546 0.0
H230 H 0.781 0.01673 0.49128 0.0
Co231 Co 0.43809 0.8414 0.40678 0.0
C232 C 0.48031 0.88954 0.43222 0.0
C233 C 0.47619 0.89358 0.38298 0.0
C234 C 0.48955 0.92067 0.39437 0.0
N235 N 0.47042 0.87377 0.40671 0.0
N236 N 0.49169 0.91829 0.42551 0.0
H237 H 0.47514 0.88233 0.45564 0.0
H238 H 0.46795 0.89033 0.35948 0.0
C239 C 0.47203 0.82547 0.34768 0.0
O240 O 0.49859 0.83083 0.36209 0.0
N241 N 0.40512 0.81028 0.4076 0.0
C242 C 0.40088 0.78839 0.42977 0.0
C243 C 0.37438 0.77158 0.42308 0.0
C244 C 0.38054 0.80709 0.38813 0.0
N245 N 0.36154 0.78336 0.39701 0.0
C246 C 0.4763 0.81098 0.45202 0.0
C247 C 0.47991 0.75453 0.42128 0.0
C248 C 0.48282 0.75458 0.45375 0.0
C249 C 0.48365 0.78386 0.46864 0.0
C250 C 0.47054 0.78172 0.40599 0.0
N251 N 0.46721 0.80939 0.42167 0.0
H252 H 0.47343 0.83223 0.46504 0.0
H253 H 0.46188 0.7789 0.38272 0.0
H254 H 0.41547 0.78536 0.45001 0.0
H255 H 0.37633 0.82216 0.36835 0.0
O256 O 0.42388 0.85638 0.44627 0.0
O257 O 0.40713 0.87429 0.40091 0.0
O258 O 0.44613 0.83028 0.36179 0.0
C259 C 0.40649 0.87604 0.43112 0.0
H260 H 0.49474 0.94145 0.38095 0.0
H261 H 0.36437 0.75315 0.43722 0.0
H262 H 0.48092 0.73303 0.40804 0.0
H263 H 0.48616 0.78589 0.49352 0.0
Co264 Co 0.33727 0.93563 0.90502 0.0
C265 C 0.38564 0.97615 0.93234 0.0
C266 C 0.39095 0.97294 0.88316 0.0
C267 C 0.41794 0.98558 0.89554 0.0
N268 N 0.37038 0.96714 0.90625 0.0
N269 N 0.41473 0.987 0.92663 0.0
H270 H 0.3773 0.9715 0.95545 0.0
H271 H 0.3882 0.96512 0.85945 0.0
C272 C 0.32333 0.97135 0.84649 0.0
O273 O 0.32925 0.99748 0.86151 0.0
N274 N 0.30538 0.90342 0.90452 0.0
C275 C 0.28252 0.89956 0.92574 0.0
C276 C 0.26573 0.87318 0.91846 0.0
C277 C 0.30276 0.87874 0.88506 0.0
N278 N 0.27849 0.86003 0.89301 0.0
C279 C 0.30729 0.97395 0.9505 0.0
C280 C 0.25158 0.98028 0.91901 0.0
C281 C 0.25141 0.98335 0.95148 0.0
C282 C 0.28043 0.98267 0.96673 0.0
C283 C 0.27856 0.96988 0.90399 0.0
N284 N 0.30582 0.96532 0.92002 0.0
H285 H 0.32798 0.96973 0.96393 0.0
H286 H 0.27579 0.96154 0.88059 0.0
H287 H 0.27886 0.91422 0.94585 0.0
H288 H 0.3187 0.87414 0.86608 0.0
O289 O 0.35115 0.92006 0.94442 0.0
O290 O 0.36945 0.90394 0.89901 0.0
O291 O 0.32719 0.945 0.8601 0.0
C292 C 0.37061 0.90248 0.92922 0.0
H293 H 0.43941 0.99007 0.88298 0.0
H294 H 0.24671 0.86338 0.93193 0.0
H295 H 0.23029 0.98213 0.90557 0.0
H296 H 0.28225 0.98496 0.99165 0.0
Co297 Co 0.5668 0.34053 0.90701 0.0
C298 C 0.52515 0.38916 0.93264 0.0
C299 C 0.52962 0.3935 0.88345 0.0
C300 C 0.51646 0.42064 0.89495 0.0
N301 N 0.53499 0.37344 0.90707 0.0
N302 N 0.5141 0.41806 0.92606 0.0
H303 H 0.53009 0.38172 0.95604 0.0
H304 H 0.53793 0.3903 0.85997 0.0
C305 C 0.53244 0.32555 0.84798 0.0
O306 O 0.50608 0.33164 0.86249 0.0
N307 N 0.59927 0.30886 0.90771 0.0
C308 C 0.60288 0.28651 0.92955 0.0
C309 C 0.62912 0.26929 0.92282 0.0
C310 C 0.62401 0.30553 0.88843 0.0
N311 N 0.64245 0.28127 0.89709 0.0
C312 C 0.52802 0.31062 0.95217 0.0
C313 C 0.52268 0.25456 0.92099 0.0
C314 C 0.51948 0.25447 0.95344 0.0
C315 C 0.51965 0.28365 0.96854 0.0
C316 C 0.53308 0.28153 0.90596 0.0
N317 N 0.53713 0.30899 0.92183 0.0
H318 H 0.53155 0.33166 0.96538 0.0
H319 H 0.54176 0.2786 0.88271 0.0
H320 H 0.58803 0.28339 0.94959 0.0
H321 H 0.62873 0.32084 0.86895 0.0
O322 O 0.58123 0.35518 0.94652 0.0
O323 O 0.59826 0.37296 0.9012 0.0
O324 O 0.5585 0.32965 0.862 0.0
C325 C 0.59885 0.37468 0.93141 0.0
H326 H 0.51151 0.44155 0.88163 0.0
H327 H 0.63862 0.25041 0.93671 0.0
H328 H 0.52096 0.23324 0.90754 0.0
H329 H 0.51704 0.28562 0.99341 0.0
Co330 Co 0.16343 0.56479 0.90765 0.0
C331 C 0.11627 0.52277 0.93471 0.0
C332 C 0.11057 0.52657 0.88562 0.0
C333 C 0.08383 0.51341 0.89803 0.0
N334 N 0.13118 0.5324 0.90864 0.0
N335 N 0.08725 0.51164 0.92908 0.0
H336 H 0.12472 0.52723 0.9578 0.0
H337 H 0.11302 0.53479 0.86201 0.0
C338 C 0.17812 0.53016 0.84864 0.0
O339 O 0.17304 0.50366 0.86335 0.0
N340 N 0.19446 0.59781 0.90739 0.0
C341 C 0.21691 0.60231 0.92891 0.0
C342 C 0.23346 0.6288 0.92147 0.0
C343 C 0.19708 0.62219 0.88756 0.0
N344 N 0.22096 0.64134 0.89559 0.0
C345 C 0.19472 0.52701 0.95273 0.0
C346 C 0.25037 0.52249 0.92081 0.0
C347 C 0.25086 0.51923 0.95325 0.0
C348 C 0.22195 0.51902 0.96873 0.0
C349 C 0.22302 0.53221 0.90605 0.0
N350 N 0.19573 0.53584 0.92228 0.0
H351 H 0.17399 0.53055 0.96632 0.0
H352 H 0.22542 0.54079 0.8827 0.0
H353 H 0.22051 0.58791 0.94921 0.0
H354 H 0.1815 0.62617 0.86815 0.0
O355 O 0.1492 0.57958 0.94724 0.0
O356 O 0.13046 0.59569 0.902 0.0
O357 O 0.17359 0.5562 0.86261 0.0
C358 C 0.1293 0.59681 0.93222 0.0
H359 H 0.06232 0.50889 0.88556 0.0
H360 H 0.2522 0.63902 0.935 0.0
H361 H 0.27161 0.52132 0.90721 0.0
H362 H 0.22039 0.51654 0.99365 0.0
Co363 Co 0.93673 0.16218 0.90674 0.0
C364 C 0.97894 0.11403 0.93225 0.0
C365 C 0.97413 0.10935 0.88312 0.0
C366 C 0.98761 0.08238 0.89469 0.0
N367 N 0.96875 0.12949 0.90668 0.0
N368 N 0.99024 0.08521 0.92575 0.0
H369 H 0.97408 0.12151 0.95565 0.0
H370 H 0.96563 0.11238 0.85968 0.0
C371 C 0.97074 0.17752 0.84751 0.0
O372 O 0.99727 0.17174 0.86181 0.0
N373 N 0.90408 0.19366 0.90758 0.0
C374 C 0.9003 0.2158 0.92959 0.0
C375 C 0.87405 0.23301 0.92289 0.0
C376 C 0.87943 0.19709 0.88822 0.0
N377 N 0.86089 0.22122 0.897 0.0
C378 C 0.97525 0.19233 0.95193 0.0
C379 C 0.97984 0.24853 0.92087 0.0
C380 C 0.98281 0.24859 0.95334 0.0
C381 C 0.98313 0.21938 0.96838 0.0
C382 C 0.97 0.22143 0.90573 0.0
N383 N 0.96622 0.19389 0.92156 0.0
H384 H 0.9719 0.17126 0.96512 0.0
H385 H 0.96138 0.22428 0.88245 0.0
H386 H 0.91505 0.21878 0.94972 0.0
H387 H 0.87485 0.18195 0.86858 0.0
O388 O 0.92242 0.14733 0.94625 0.0
O389 O 0.90544 0.12962 0.90091 0.0
O390 O 0.94483 0.17316 0.86173 0.0
C391 C 0.9048 0.12786 0.93111 0.0
H392 H 0.99264 0.06141 0.8815 0.0
H393 H 0.86443 0.25175 0.93689 0.0
H394 H 0.98117 0.26996 0.90754 0.0
H395 H 0.9856 0.21743 0.99327 0.0
Co396 Co 0.33703 0.56673 0.60579 0.0
C397 C 0.38571 0.52645 0.57865 0.0
C398 C 0.39065 0.52943 0.62787 0.0
C399 C 0.41776 0.51689 0.61561 0.0
N400 N 0.37024 0.53531 0.60467 0.0
N401 N 0.41479 0.51563 0.5845 0.0
H402 H 0.37753 0.5312 0.55551 0.0
H403 H 0.38771 0.53711 0.6516 0.0
C404 C 0.32281 0.531 0.66425 0.0
O405 O 0.32871 0.50486 0.64925 0.0
N406 N 0.30506 0.59886 0.60621 0.0
C407 C 0.2823 0.60274 0.58488 0.0
C408 C 0.2655 0.62915 0.59208 0.0
C409 C 0.30236 0.62355 0.62565 0.0
N410 N 0.27816 0.6423 0.61758 0.0
C411 C 0.30741 0.52819 0.56027 0.0
C412 C 0.25143 0.52221 0.59138 0.0
C413 C 0.25154 0.51899 0.55894 0.0
C414 C 0.28066 0.51946 0.54389 0.0
C415 C 0.27833 0.53253 0.60656 0.0
N416 N 0.30572 0.53696 0.5907 0.0
H417 H 0.32822 0.53232 0.54697 0.0
H418 H 0.27541 0.54099 0.62991 0.0
H419 H 0.27876 0.58808 0.56475 0.0
H420 H 0.31823 0.62814 0.64468 0.0
O421 O 0.351 0.58237 0.56644 0.0
O422 O 0.36907 0.59851 0.61193 0.0
O423 O 0.32681 0.55735 0.65068 0.0
C424 C 0.3703 0.60004 0.58173 0.0
H425 H 0.43915 0.51238 0.6283 0.0
H426 H 0.24659 0.63899 0.57851 0.0
H427 H 0.22995 0.52066 0.60458 0.0
H428 H 0.2826 0.51708 0.51897 0.0
Co429 Co 0.93657 0.33787 0.60523 0.0
C430 C 0.97753 0.38575 0.57769 0.0
C431 C 0.97414 0.3915 0.62679 0.0
C432 C 0.98673 0.41846 0.61419 0.0
N433 N 0.96842 0.3707 0.60388 0.0
N434 N 0.98825 0.41499 0.58313 0.0
H435 H 0.97299 0.37717 0.55465 0.0
H436 H 0.96622 0.38897 0.65049 0.0
C437 C 0.97177 0.32377 0.66403 0.0
O438 O 0.99802 0.32941 0.64917 0.0
N439 N 0.90401 0.30632 0.60581 0.0
C440 C 0.90002 0.2833 0.58475 0.0
C441 C 0.87342 0.26687 0.59198 0.0
C442 C 0.87917 0.30416 0.62511 0.0
N443 N 0.86025 0.28002 0.61723 0.0
C444 C 0.97458 0.30709 0.56002 0.0
C445 C 0.98009 0.25143 0.5919 0.0
C446 C 0.98317 0.251 0.55944 0.0
C447 C 0.98293 0.27996 0.54399 0.0
C448 C 0.97007 0.27869 0.60672 0.0
N449 N 0.96589 0.30594 0.5905 0.0
H450 H 0.97065 0.32777 0.54643 0.0
H451 H 0.96166 0.27617 0.63012 0.0
H452 H 0.91475 0.2793 0.56477 0.0
H453 H 0.87462 0.32033 0.64393 0.0
O454 O 0.92128 0.35176 0.56571 0.0
O455 O 0.90529 0.37047 0.61102 0.0
O456 O 0.9456 0.32789 0.65025 0.0
C457 C 0.90391 0.3715 0.5808 0.0
H458 H 0.99106 0.44009 0.62657 0.0
H459 H 0.86351 0.24782 0.57861 0.0
H460 H 0.98159 0.23016 0.60547 0.0
H461 H 0.98526 0.28157 0.51905 0.0
Co462 Co 0.16454 0.93805 0.60291 0.0
C463 C 0.11712 0.9795 0.5755 0.0
C464 C 0.11141 0.97617 0.62462 0.0
C465 C 0.08452 0.98887 0.61203 0.0
N466 N 0.13212 0.97029 0.60167 0.0
N467 N 0.08797 0.99032 0.58097 0.0
H468 H 0.12562 0.97485 0.55246 0.0
H469 H 0.11391 0.9682 0.64831 0.0
C470 C 0.17906 0.97288 0.66185 0.0
O471 O 0.17406 0.99936 0.64709 0.0
N472 N 0.1957 0.90516 0.60343 0.0
C473 C 0.21843 0.90078 0.58216 0.0
C474 C 0.23484 0.8742 0.58962 0.0
C475 C 0.19803 0.88064 0.62312 0.0
N476 N 0.22198 0.86149 0.61526 0.0
C477 C 0.19555 0.97622 0.55795 0.0
C478 C 0.25119 0.98117 0.58983 0.0
C479 C 0.25149 0.98516 0.55746 0.0
C480 C 0.22258 0.985 0.54204 0.0
C481 C 0.224 0.97085 0.60451 0.0
N482 N 0.19672 0.96712 0.58831 0.0
H483 H 0.17489 0.97247 0.54434 0.0
H484 H 0.22651 0.962 0.62777 0.0
H485 H 0.22229 0.9153 0.56198 0.0
H486 H 0.18215 0.87653 0.64227 0.0
O487 O 0.15056 0.92299 0.56333 0.0
O488 O 0.13168 0.90707 0.60859 0.0
O489 O 0.17448 0.94683 0.64794 0.0
C490 C 0.13066 0.90577 0.57837 0.0
H491 H 0.06292 0.99325 0.62442 0.0
H492 H 0.25372 0.86401 0.57624 0.0
H493 H 0.27249 0.98237 0.60334 0.0
H494 H 0.22096 0.98783 0.51715 0.0
Co495 Co 0.56521 0.16459 0.60502 0.0
C496 C 0.52381 0.116 0.57901 0.0
C497 C 0.52765 0.11174 0.62826 0.0
C498 C 0.51466 0.08458 0.61664 0.0
N499 N 0.53334 0.13176 0.60467 0.0
N500 N 0.5127 0.0871 0.5855 0.0
H501 H 0.52901 0.12342 0.55565 0.0
H502 H 0.53569 0.11493 0.65183 0.0
C503 C 0.53158 0.1793 0.66458 0.0
O504 O 0.50495 0.17412 0.65024 0.0
N505 N 0.59774 0.19614 0.60467 0.0
C506 C 0.60162 0.21863 0.58302 0.0
C507 C 0.62808 0.23544 0.58992 0.0
C508 C 0.62243 0.19903 0.62403 0.0
N509 N 0.64122 0.22308 0.61559 0.0
C510 C 0.52579 0.19504 0.56089 0.0
C511 C 0.52199 0.25111 0.59229 0.0
C512 C 0.51825 0.25134 0.55989 0.0
C513 C 0.51759 0.22219 0.54474 0.0
C514 C 0.53217 0.22392 0.60708 0.0
N515 N 0.53553 0.19647 0.59103 0.0
H516 H 0.52865 0.17393 0.54762 0.0
H517 H 0.54131 0.22658 0.63019 0.0
H518 H 0.58682 0.22204 0.56298 0.0
H519 H 0.6269 0.18347 0.64337 0.0
O520 O 0.57933 0.15074 0.56511 0.0
O521 O 0.59667 0.132 0.60991 0.0
O522 O 0.5574 0.17467 0.65028 0.0
C523 C 0.59713 0.13098 0.57966 0.0
H524 H 0.50958 0.06368 0.62993 0.0
H525 H 0.63787 0.25425 0.57614 0.0
H526 H 0.5209 0.27243 0.6058 0.0
H527 H 0.51448 0.22031 0.51992 0.0
H528 H 0.69963 0.97864 0.19492 0.0
H529 H 0.80212 0.08197 0.31265 0.0
H530 H 0.69996 0.07977 0.19608 0.0
H531 H 0.80019 0.98086 0.31453 0.0
H532 H 0.76591 0.08127 0.26889 0.0
H533 H 0.73617 0.97868 0.23868 0.0
C534 C 0.70703 1.00086 0.20457 0.0
C535 C 0.69659 0.02924 0.19169 0.0
C536 C 0.77351 0.0592 0.27873 0.0
C537 C 0.73893 0.02943 0.24159 0.0
C538 C 0.79443 0.05956 0.30365 0.0
C539 C 0.80433 0.03141 0.31743 0.0
C540 C 0.76224 0.03049 0.26734 0.0
C541 C 0.79331 0.00316 0.3047 0.0
C542 C 0.72809 1.00085 0.22947 0.0
C543 C 0.70724 0.05728 0.20518 0.0
N544 N 0.77279 0.00343 0.28051 0.0
N545 N 0.72787 0.05664 0.22921 0.0
H546 H 0.42135 0.80431 0.31461 0.0
H547 H 0.52336 0.70011 0.1971 0.0
H548 H 0.52232 0.80241 0.31502 0.0
H549 H 0.4224 0.70258 0.19703 0.0
H550 H 0.52355 0.73678 0.24074 0.0
H551 H 0.42144 0.76771 0.27106 0.0
C552 C 0.44359 0.79654 0.30534 0.0
C553 C 0.47189 0.80659 0.31862 0.0
C554 C 0.50135 0.72916 0.23129 0.0
C555 C 0.47212 0.76406 0.2688 0.0
C556 C 0.5012 0.70802 0.20646 0.0
C557 C 0.47282 0.69812 0.19325 0.0
C558 C 0.4729 0.74063 0.2431 0.0
C559 C 0.44488 0.70941 0.20639 0.0
C560 C 0.4436 0.77541 0.28054 0.0
C561 C 0.49991 0.79544 0.30558 0.0
N562 N 0.44565 0.73011 0.23041 0.0
N563 N 0.49931 0.77471 0.28154 0.0
H564 H 0.69889 0.52412 0.31565 0.0
H565 H 0.80214 0.42091 0.19845 0.0
H566 H 0.69987 0.42298 0.3149 0.0
H567 H 0.79978 0.52201 0.19624 0.0
H568 H 0.76574 0.42159 0.24204 0.0
H569 H 0.73538 0.52412 0.27185 0.0
C570 C 0.70642 0.5019 0.30607 0.0
C571 C 0.69619 0.47351 0.3191 0.0
C572 C 0.77329 0.44366 0.23218 0.0
C573 C 0.73849 0.47338 0.26915 0.0
C574 C 0.79431 0.44332 0.20734 0.0
C575 C 0.80416 0.47147 0.19352 0.0
C576 C 0.76185 0.47235 0.24344 0.0
C577 C 0.79296 0.49971 0.20612 0.0
C578 C 0.72746 0.50194 0.28116 0.0
C579 C 0.70698 0.44548 0.3057 0.0
N580 N 0.77233 0.49943 0.23023 0.0
N581 N 0.7276 0.44615 0.28165 0.0
H582 H 0.98029 0.69275 0.31223 0.0
H583 H 0.97976 0.80853 0.19833 0.0
H584 H 0.08011 0.70723 0.31637 0.0
H585 H 0.07976 0.79529 0.19441 0.0
H586 H 0.9773 0.77278 0.24223 0.0
H587 H 0.97754 0.72827 0.26816 0.0
C588 C 0.00169 0.70336 0.30382 0.0
C589 C 0.03043 0.697 0.31827 0.0
C590 C 0.9998 0.77718 0.23169 0.0
C591 C 0.0274 0.73916 0.26816 0.0
C592 C 0.00125 0.79813 0.20675 0.0
C593 C 0.02997 0.80494 0.19243 0.0
C594 C 0.0273 0.76252 0.24235 0.0
C595 C 0.05705 0.79082 0.20461 0.0
C596 C 1.00007 0.72418 0.27878 0.0
C597 C 0.05738 0.71136 0.30608 0.0
N598 N 0.055 0.77027 0.22871 0.0
N599 N 0.05516 0.73179 0.2819 0.0
H600 H 0.30317 0.02298 0.81388 0.0
H601 H 0.19833 0.92224 0.69605 0.0
H602 H 0.30006 0.92189 0.81297 0.0
H603 H 0.20292 0.02325 0.69399 0.0
H604 H 0.23445 0.92205 0.73986 0.0
H605 H 0.26685 0.02385 0.76997 0.0
C606 C 0.29521 1.00095 0.80426 0.0
C607 C 0.3048 0.97232 0.81726 0.0
C608 C 0.22746 0.9443 0.72998 0.0
C609 C 0.26269 0.97318 0.76717 0.0
C610 C 0.20659 0.94445 0.70502 0.0
C611 C 0.19746 0.97283 0.69117 0.0
C612 C 0.23945 0.97271 0.74135 0.0
C613 C 0.20919 1.0008 0.70388 0.0
C614 C 0.27427 1.00148 0.77927 0.0
C615 C 0.29346 0.94456 0.80379 0.0
N616 N 0.22965 1.00003 0.72811 0.0
N617 N 0.27295 0.94571 0.77967 0.0
H618 H 0.48137 0.30539 0.81477 0.0
H619 H 0.58247 0.19977 0.69777 0.0
H620 H 0.58227 0.30138 0.81556 0.0
H621 H 0.48152 0.20265 0.69737 0.0
H622 H 0.58272 0.23633 0.74137 0.0
H623 H 0.48091 0.2686 0.77126 0.0
C624 C 0.50346 0.29712 0.8056 0.0
C625 C 0.5319 0.30662 0.81896 0.0
C626 C 0.56049 0.22883 0.73189 0.0
C627 C 0.5315 0.26396 0.76925 0.0
C628 C 0.5603 0.20773 0.70707 0.0
C629 C 0.5319 0.19798 0.69375 0.0
C630 C 0.53208 0.24047 0.7436 0.0
C631 C 0.50399 0.20937 0.70682 0.0
C632 C 0.50316 0.2759 0.78083 0.0
C633 C 0.55975 0.29486 0.80605 0.0
N634 N 0.50479 0.23008 0.73086 0.0
N635 N 0.55883 0.27411 0.78208 0.0
H636 H 0.30208 0.47945 0.69663 0.0
H637 H 0.198 0.58078 0.81474 0.0
H638 H 0.2999 0.58056 0.69788 0.0
H639 H 0.2015 0.47971 0.81627 0.0
H640 H 0.2342 0.5808 0.77096 0.0
H641 H 0.26563 0.47879 0.74047 0.0
C642 C 0.29429 0.50152 0.70632 0.0
C643 C 0.30418 0.5301 0.69343 0.0
C644 C 0.22694 0.55858 0.78072 0.0
C645 C 0.26194 0.52948 0.74344 0.0
C646 C 0.20604 0.55852 0.80566 0.0
C647 C 0.19658 0.53018 0.81935 0.0
C648 C 0.23866 0.53009 0.76922 0.0
C649 C 0.20803 0.50214 0.80651 0.0
C650 C 0.27328 0.50111 0.73126 0.0
C651 C 0.29306 0.55793 0.70697 0.0
N652 N 0.22854 0.50282 0.78231 0.0
N653 N 0.27249 0.5569 0.73105 0.0
H654 H 0.92023 0.1994 0.81466 0.0
H655 H 0.02287 0.3022 0.69648 0.0
H656 H 0.02122 0.20002 0.81471 0.0
H657 H 0.92189 0.30154 0.69762 0.0
H658 H 0.02294 0.26556 0.74018 0.0
H659 H 0.92061 0.23611 0.77122 0.0
C660 C 0.94253 0.20691 0.80533 0.0
C661 C 0.97076 0.19647 0.81849 0.0
C662 C 1.00077 0.27358 0.73099 0.0
C663 C 0.97132 0.23913 0.76877 0.0
C664 C 1.0007 0.29472 0.70612 0.0
C665 C 0.97234 0.30509 0.69322 0.0
C666 C 0.97226 0.2626 0.74311 0.0
C667 C 0.94437 0.29432 0.70672 0.0
C668 C 0.94272 0.22811 0.78059 0.0
C669 C 0.99887 0.2073 0.80536 0.0
N670 N 0.94506 0.27363 0.73074 0.0
N671 N 0.99843 0.2281 0.78138 0.0
H672 H 0.46614 0.02406 0.92117 0.0
H673 H 0.53498 0.9756 0.08812 0.0
H674 H 0.42038 0.95971 0.98367 0.0
H675 H 0.58039 0.04026 0.02567 0.0
H676 H 0.49266 0.96939 0.05018 0.0
H677 H 0.50846 0.03013 0.95911 0.0
C678 C 0.46492 0.01129 0.94285 0.0
C679 C 0.43938 0.99165 0.94922 0.0
C680 C 0.512 0.98483 0.04476 0.0
C681 C 0.48781 0.99837 0.99286 0.0
C682 C 0.53613 0.9884 0.06646 0.0
C683 C 0.56158 0.00818 0.06011 0.0
C684 C 0.51315 1.0013 0.01647 0.0
C685 C 0.5618 0.02417 0.0315 0.0
C686 C 0.48905 0.01478 0.96456 0.0
C687 C 0.43907 0.9757 0.97784 0.0
N688 N 0.53803 0.0204 0.01088 0.0
N689 N 0.46285 0.97939 0.99848 0.0
H690 H 0.52108 0.48112 0.9174 0.0
H691 H 0.48381 0.52335 0.09503 0.0
H692 H 0.49554 0.41224 0.98622 0.0
H693 H 0.50869 0.59223 0.02599 0.0
H694 H 0.48898 0.48235 0.05587 0.0
H695 H 0.51604 0.52205 0.95661 0.0
C696 C 0.51403 0.47452 0.9406 0.0
C697 C 0.50874 0.44295 0.94835 0.0
C698 C 0.49341 0.50642 0.04929 0.0
C699 C 0.50349 0.49003 0.9938 0.0
C700 C 0.49074 0.52993 0.07179 0.0
C701 C 0.49579 0.56151 0.06395 0.0
C702 C 0.50121 0.51438 0.01858 0.0
C703 C 0.50421 0.56835 0.03312 0.0
C704 C 0.51144 0.49799 0.96314 0.0
C705 C 0.50021 0.4361 0.97915 0.0
N706 N 0.50658 0.54507 0.01164 0.0
N707 N 0.49792 0.45935 1.00068 0.0
H708 H 0.03567 0.47479 0.92349 0.0
H709 H 0.96682 0.52339 0.0904 0.0
H710 H 0.08199 0.53817 0.98652 0.0
H711 H 0.92099 0.45922 0.0278 0.0
H712 H 0.00945 0.52902 0.05269 0.0
H713 H 0.99331 0.46875 0.9614 0.0
C714 C 0.03702 0.48734 0.94527 0.0
C715 C 0.06271 0.50675 0.95176 0.0
C716 C 0.98996 0.51381 0.04718 0.0
C717 C 0.01422 0.50007 0.99538 0.0
C718 C 0.96565 0.51057 0.06875 0.0
C719 C 0.93999 0.49114 0.06227 0.0
C720 C 0.98876 0.49735 0.0189 0.0
C721 C 0.93976 0.47509 0.03371 0.0
C722 C 0.01286 0.48386 0.96697 0.0
C723 C 0.06318 0.5224 0.98054 0.0
N724 N 0.96369 0.47854 0.0132 0.0
N725 N 0.03935 0.51876 1.00115 0.0
H726 H 0.01035 0.09188 0.98522 0.0
H727 H 0.99474 0.9088 0.02483 0.0
H728 H 0.98284 0.02207 0.91817 0.0
H729 H 0.02182 0.97873 0.09193 0.0
H730 H 0.99019 0.94988 0.98552 0.0
H731 H 0.01519 0.05074 0.02441 0.0
C732 C 0.00541 0.06791 0.97866 0.0
C733 C 0.99609 0.06062 0.94822 0.0
C734 C 0.99702 0.95627 0.00887 0.0
C735 C 0.00161 0.01313 0.9932 0.0
C736 C 0.99965 0.93277 0.03137 0.0
C737 C 0.00874 0.94013 0.06187 0.0
C738 C 0.00353 0.98754 0.01676 0.0
C739 C 0.0144 0.9718 0.06895 0.0
C740 C 0.00821 0.04438 1.00109 0.0
C741 C 0.99041 0.02895 0.94111 0.0
N742 N 0.01183 0.99422 0.04659 0.0
N743 N 0.99313 0.00649 0.96341 0.0
H744 H 0.46628 0.47866 0.59008 0.0
H745 H 0.53537 0.52747 0.42332 0.0
H746 H 0.42073 0.54322 0.52764 0.0
H747 H 0.58118 0.46327 0.48593 0.0
H748 H 0.49303 0.53358 0.46126 0.0
H749 H 0.50882 0.47282 0.5523 0.0
C750 C 0.46515 0.49152 0.56845 0.0
C751 C 0.4396 0.51114 0.56204 0.0
C752 C 0.51246 0.51827 0.46673 0.0
C753 C 0.48827 0.50469 0.51859 0.0
C754 C 0.53661 0.51476 0.44503 0.0
C755 C 0.56216 0.49511 0.45141 0.0
C756 C 0.51369 0.50187 0.49504 0.0
C757 C 0.56249 0.47924 0.48007 0.0
C758 C 0.48941 0.48817 0.54684 0.0
C759 C 0.43941 0.52723 0.53349 0.0
N760 N 0.53868 0.48294 0.5007 0.0
N761 N 0.4633 0.52366 0.51294 0.0
H762 H 0.96143 0.41963 0.52576 0.0
H763 H 0.04142 0.58448 0.48668 0.0
H764 H 0.02427 0.46733 0.58829 0.0
H765 H 0.98036 0.53556 0.42336 0.0
H766 H 0.03476 0.54246 0.52425 0.0
H767 H 0.96805 0.46171 0.4883 0.0
C768 C 0.97703 0.43867 0.53157 0.0
C769 C 0.99268 0.43955 0.56031 0.0
C770 C 0.02267 0.54092 0.50222 0.0
C771 C 0.99981 0.48859 0.51726 0.0
C772 C 0.02622 0.56517 0.48071 0.0
C773 C 0.01112 0.5639 0.4517 0.0
C774 C 0.00388 0.515 0.4949 0.0
C775 C 0.99249 0.53757 0.4453 0.0
C776 C 0.98055 0.46297 0.51012 0.0
C777 C 0.01173 0.46561 0.56655 0.0
N778 N 0.98937 0.51425 0.46669 0.0
N779 N 0.01479 0.48902 0.54524 0.0
H780 H 0.91912 0.04324 0.48405 0.0
H781 H 0.08305 0.96245 0.52414 0.0
H782 H 0.96634 0.97908 0.42242 0.0
H783 H 0.03595 0.02677 0.5857 0.0
H784 H 0.04096 0.9686 0.48672 0.0
H785 H 0.96132 0.03726 0.5214 0.0
C786 C 0.93809 0.02748 0.47843 0.0
C787 C 0.9388 0.01125 0.45 0.0
C788 C 0.03983 0.98153 0.50831 0.0
C789 C 0.98794 0.00484 0.49289 0.0
C790 C 0.06413 0.97829 0.52972 0.0
C791 C 0.06342 0.9945 0.55817 0.0
C792 C 0.01438 1.00109 0.51519 0.0
C793 C 0.03753 0.01382 0.56417 0.0
C794 C 0.96244 0.02433 0.4998 0.0
C795 C 0.96476 0.99203 0.44394 0.0
N796 N 0.01411 0.01661 0.54289 0.0
N797 N 0.98822 0.98932 0.46519 0.0
H798 H 0.48476 0.9813 0.41647 0.0
H799 H 0.51994 0.0241 0.59435 0.0
H800 H 0.50993 0.91277 0.48576 0.0
H801 H 0.49489 0.09272 0.52511 0.0
H802 H 0.51568 0.98308 0.55515 0.0
H803 H 0.4893 0.02241 0.45558 0.0
C804 C 0.49164 0.97482 0.43976 0.0
C805 C 0.49694 0.9433 0.44768 0.0
C806 C 0.51102 0.0071 0.54853 0.0
C807 C 0.50161 0.99056 0.49299 0.0
C808 C 0.51315 0.03062 0.57105 0.0
C809 C 0.50777 0.06215 0.56319 0.0
C810 C 0.50342 0.01497 0.51776 0.0
C811 C 0.4996 0.0689 0.53227 0.0
C812 C 0.49394 0.99839 0.46223 0.0
C813 C 0.50527 0.9366 0.47856 0.0
N814 N 0.49775 0.0456 0.51076 0.0
N815 N 0.50725 0.95993 0.50002 0.0
H816 H 0.54754 0.19936 0.93429 0.0
H817 H 0.59018 0.14448 0.10335 0.0
H818 H 0.50268 0.24052 0.01475 0.0
H819 H 0.6139 0.09436 0.0196 0.0
H820 H 0.55412 0.17743 0.07295 0.0
H821 H 0.56579 0.15732 0.96594 0.0
C822 C 0.54056 0.19958 0.95838 0.0
C823 C 0.52377 0.22471 0.97152 0.0
C824 C 0.56695 0.15891 0.06142 0.0
C825 C 0.54689 0.17614 0.00892 0.0
C826 C 0.5876 0.14027 0.07869 0.0
C827 C 0.60553 0.11718 0.06381 0.0
C828 C 0.56438 0.15421 0.02921 0.0
C829 C 0.6011 0.11236 0.03194 0.0
C830 C 0.55164 0.17532 0.97676 0.0
C831 C 0.51657 0.22272 1.00344 0.0
N832 N 0.58123 0.13084 0.01575 0.0
N833 N 0.52884 0.19933 0.0212 0.0
H834 H 0.30446 0.54976 0.93424 0.0
H835 H 0.35875 0.59088 0.10355 0.0
H836 H 0.26599 0.50102 0.01376 0.0
H837 H 0.40971 0.61523 0.02047 0.0
H838 H 0.32648 0.55469 0.07261 0.0
H839 H 0.34617 0.5687 0.96605 0.0
C840 C 0.30487 0.54207 0.95813 0.0
C841 C 0.28061 0.52396 0.97105 0.0
C842 C 0.34504 0.56769 0.06136 0.0
C843 C 0.3286 0.54773 0.00861 0.0
C844 C 0.36328 0.58843 0.07893 0.0
C845 C 0.38639 0.60657 0.06439 0.0
C846 C 0.35013 0.5653 0.02919 0.0
C847 C 0.39165 0.60228 0.03256 0.0
C848 C 0.32888 0.55351 0.9766 0.0
C849 C 0.28318 0.51588 1.00271 0.0
N850 N 0.37351 0.58236 0.01606 0.0
N851 N 0.30626 0.52847 0.02059 0.0
H852 H 0.95265 0.30254 0.93438 0.0
H853 H 0.91022 0.35699 0.10389 0.0
H854 H 0.99941 0.26298 0.01454 0.0
H855 H 0.88413 0.406 0.02017 0.0
H856 H 0.94644 0.32456 0.07313 0.0
H857 H 0.93308 0.34392 0.96617 0.0
C858 C 0.95978 0.3026 0.95843 0.0
C859 C 0.97757 0.27814 0.97146 0.0
C860 C 0.93301 0.34271 0.06168 0.0
C861 C 0.95297 0.32582 0.00901 0.0
C862 C 0.91226 0.36103 0.07916 0.0
C863 C 0.89369 0.3837 0.06442 0.0
C864 C 0.93504 0.34728 0.02941 0.0
C865 C 0.89746 0.38833 0.03244 0.0
C866 C 0.94793 0.32644 0.97689 0.0
C867 C 0.98485 0.28033 1.00334 0.0
N868 N 0.91746 0.37017 0.01606 0.0
N869 N 0.9719 0.30328 0.02118 0.0
H870 H 0.19683 0.95444 0.93263 0.0
H871 H 0.14527 0.91119 0.10244 0.0
H872 H 0.23726 1.00119 0.01233 0.0
H873 H 0.09401 0.88656 0.01967 0.0
H874 H 0.17682 0.94795 0.07141 0.0
H875 H 0.15544 0.93543 0.96482 0.0
C876 C 0.19694 0.96167 0.95666 0.0
C877 C 0.22171 0.97912 0.96951 0.0
C878 C 0.15836 0.93474 0.06025 0.0
C879 C 0.17408 0.95525 0.00746 0.0
C880 C 0.14054 0.91368 0.07787 0.0
C881 C 0.11755 0.89531 0.06343 0.0
C882 C 0.15296 0.93727 0.02813 0.0
C883 C 0.112 0.89967 0.03166 0.0
C884 C 0.17311 0.95017 0.97534 0.0
C885 C 0.21971 0.98675 1.00132 0.0
N886 N 0.12973 0.91994 0.01511 0.0
N887 N 0.19681 0.97407 0.01938 0.0
H888 H 0.58938 0.35953 0.40896 0.0
H889 H 0.54774 0.30582 0.57867 0.0
H890 H 0.61533 0.4092 0.49232 0.0
H891 H 0.50079 0.26574 0.49887 0.0
H892 H 0.56656 0.34738 0.54672 0.0
H893 H 0.55304 0.32742 0.43991 0.0
C894 C 0.58726 0.36381 0.43365 0.0
C895 C 0.60587 0.38652 0.44824 0.0
C896 C 0.55184 0.32973 0.53611 0.0
C897 C 0.56439 0.35046 0.48347 0.0
C898 C 0.54042 0.30575 0.55468 0.0
C899 C 0.52288 0.28103 0.54178 0.0
C900 C 0.54664 0.329 0.50403 0.0
C901 C 0.51527 0.2832 0.50997 0.0
C902 C 0.56644 0.34566 0.45123 0.0
C903 C 0.60199 0.39147 0.48017 0.0
N904 N 0.52785 0.30627 0.49202 0.0
N905 N 0.58194 0.37345 0.49666 0.0
H906 H 0.09314 0.61804 0.49228 0.0
H907 H 0.23727 0.49966 0.49865 0.0
H908 H 0.14569 0.59232 0.4106 0.0
H909 H 0.19795 0.55 0.57671 0.0
H910 H 0.19598 0.52153 0.46577 0.0
H911 H 0.12336 0.58093 0.52252 0.0
C912 C 0.11116 0.60458 0.48066 0.0
C913 C 0.11744 0.60879 0.449 0.0
C914 C 0.19629 0.52711 0.49029 0.0
C915 C 0.15237 0.5661 0.48374 0.0
C916 C 0.21992 0.51476 0.50917 0.0
C917 C 0.22209 0.52348 0.54068 0.0
C918 C 0.17431 0.54777 0.50313 0.0
C919 C 0.19788 0.54216 0.55288 0.0
C920 C 0.12832 0.58323 0.49797 0.0
C921 C 0.14051 0.59008 0.43509 0.0
N922 N 0.17542 0.55387 0.53405 0.0
N923 N 0.15756 0.56975 0.4527 0.0
H924 H 0.91194 0.14363 0.40844 0.0
H925 H 0.95311 0.19711 0.57856 0.0
H926 H 0.88284 0.0957 0.49182 0.0
H927 H 0.0011 0.23601 0.49883 0.0
H928 H 0.93357 0.15572 0.54661 0.0
H929 H 0.94868 0.17489 0.43973 0.0
C930 C 0.91342 0.13958 0.43322 0.0
C931 C 0.89387 0.11757 0.44768 0.0
C932 C 0.94869 0.17306 0.53603 0.0
C933 C 0.93582 0.15265 0.48331 0.0
C934 C 0.9605 0.19686 0.55457 0.0
C935 C 0.97849 0.22121 0.54163 0.0
C936 C 0.95401 0.17364 0.50394 0.0
C937 C 0.98628 0.21879 0.50989 0.0
C938 C 0.93447 0.15723 0.451 0.0
C939 C 0.89695 0.11289 0.47974 0.0
N940 N 0.97333 0.19594 0.49195 0.0
N941 N 0.91727 0.1304 0.49641 0.0
H942 H 0.41473 0.89347 0.49085 0.0
H943 H 0.26617 0.00616 0.49781 0.0
H944 H 0.35875 0.91411 0.41003 0.0
H945 H 0.30548 0.95469 0.57516 0.0
H946 H 0.30839 0.98604 0.465 0.0
H947 H 0.38345 0.93 0.52091 0.0
C948 C 0.39579 0.90574 0.47939 0.0
C949 C 0.38873 0.90014 0.4481 0.0
C950 C 0.30785 0.97985 0.48937 0.0
C951 C 0.35279 0.94219 0.48254 0.0
C952 C 0.28367 0.99117 0.50821 0.0
C953 C 0.28125 0.98159 0.53946 0.0
C954 C 0.33017 0.95948 0.50204 0.0
C955 C 0.30571 0.96315 0.55155 0.0
C956 C 0.37805 0.92675 0.49656 0.0
C957 C 0.36455 0.91744 0.43426 0.0
N958 N 0.32876 0.95252 0.53277 0.0
N959 N 0.34702 0.93745 0.45175 0.0
H960 H 0.4541 0.80405 0.07667 0.0
H961 H 0.41064 0.85692 0.9068 0.0
H962 H 0.50014 0.76358 0.99654 0.0
H963 H 0.38429 0.90607 0.99035 0.0
H964 H 0.44714 0.82488 0.93765 0.0
H965 H 0.4343 0.8451 0.04459 0.0
C966 C 0.46102 0.80384 0.05256 0.0
C967 C 0.47865 0.77919 0.03964 0.0
C968 C 0.43359 0.84297 0.94904 0.0
C969 C 0.45377 0.8265 1.00177 0.0
C970 C 0.41268 0.86107 0.93151 0.0
C971 C 0.39395 0.88367 0.94618 0.0
C972 C 0.43563 0.84771 0.98129 0.0
C973 C 0.39773 0.88845 0.97814 0.0
C974 C 0.44904 0.82749 0.03393 0.0
C975 C 0.48569 0.78105 0.00768 0.0
N976 N 0.41789 0.87051 0.99456 0.0
N977 N 0.47259 0.80381 0.9897 0.0
H978 H 0.7385 0.50506 0.99883 0.0
H979 H 0.58986 0.39262 0.99087 0.0
H980 H 0.69726 0.45521 0.07626 0.0
H981 H 0.64706 0.41238 0.91065 0.0
H982 H 0.62063 0.4295 0.02097 0.0
H983 H 0.69683 0.48465 0.96555 0.0
C984 C 0.7207 0.49036 0.00915 0.0
C985 C 0.72245 0.48127 0.04059 0.0
C986 C 0.62643 0.42597 0.99675 0.0
C987 C 0.67415 0.45885 1.00259 0.0
C988 C 0.60899 0.40475 0.97955 0.0
C989 C 0.61652 0.39881 0.94844 0.0
C990 C 0.65188 0.44128 0.98293 0.0
C991 C 0.64091 0.41595 0.93477 0.0
C992 C 0.69683 0.47888 0.99003 0.0
C993 C 0.6976 0.46326 0.05251 0.0
N994 N 0.65815 0.43617 0.95229 0.0
N995 N 0.67487 0.45245 0.03346 0.0
H996 H 0.99928 0.7379 0.99787 0.0
H997 H 0.11408 0.59072 0.99281 0.0
H998 H 0.0491 0.69834 0.07613 0.0
H999 H 0.08998 0.64338 0.91069 0.0
H1000 H 0.07759 0.62207 0.0227 0.0
H1001 H 0.02016 0.69576 0.96535 0.0
C1002 C 0.01406 0.72036 0.00852 0.0
C1003 C 0.02286 0.72265 0.03999 0.0
C1004 C 0.08009 0.62678 0.99812 0.0
C1005 C 0.04599 0.67388 1.00285 0.0
C1006 C 0.10106 0.60896 0.98102 0.0
C1007 C 0.10559 0.61496 0.94936 0.0
C1008 C 0.06367 0.65121 0.98367 0.0
C1009 C 0.08747 0.63837 0.9352 0.0
C1010 C 0.02583 0.69622 0.98984 0.0
C1011 C 0.04115 0.6982 0.05234 0.0
N1012 N 0.06753 0.65607 0.9526 0.0
N1013 N 0.05227 0.67524 0.03372 0.0
H1014 H 0.76341 0.99845 0.99708 0.0
H1015 H 0.91242 0.11063 0.99101 0.0
H1016 H 0.80326 0.04862 0.07496 0.0
H1017 H 0.85695 0.09007 0.90983 0.0
H1018 H 0.8808 0.07427 0.02091 0.0
H1019 H 0.80561 0.01881 0.96437 0.0
C1020 C 0.78103 0.0132 0.00761 0.0
C1021 C 0.77881 0.0223 0.03901 0.0
C1022 C 0.87557 0.07751 0.99652 0.0
C1023 C 0.82766 0.04475 1.00169 0.0
C1024 C 0.89351 0.09842 0.97943 0.0
C1025 C 0.88673 0.10397 0.94808 0.0
C1026 C 0.85038 0.06212 0.98234 0.0
C1027 C 0.86255 0.08678 0.93411 0.0
C1028 C 0.80519 0.02467 0.98883 0.0
C1029 C 0.80337 0.0405 0.05123 0.0
N1030 N 0.84483 0.06686 0.9515 0.0
N1031 N 0.82639 0.0513 0.03251 0.0
H1032 H 0.4519 0.70102 0.43497 0.0
H1033 H 0.40972 0.64598 0.60439 0.0
H1034 H 0.49909 0.74018 0.51506 0.0
H1035 H 0.3841 0.59689 0.52059 0.0
H1036 H 0.44572 0.67873 0.57368 0.0
H1037 H 0.43217 0.65973 0.46675 0.0
C1038 C 0.4591 0.70088 0.459 0.0
C1039 C 0.47714 0.72518 0.47199 0.0
C1040 C 0.43244 0.6605 0.56221 0.0
C1041 C 0.45233 0.67758 0.50955 0.0
C1042 C 0.41182 0.64198 0.57965 0.0
C1043 C 0.39344 0.61919 0.56487 0.0
C1044 C 0.43452 0.65599 0.52993 0.0
C1045 C 0.39727 0.61464 0.53289 0.0
C1046 C 0.44716 0.67709 0.47746 0.0
C1047 C 0.48441 0.72294 0.50387 0.0
N1048 N 0.41714 0.63299 0.51654 0.0
N1049 N 0.47138 0.70002 0.52171 0.0
H1050 H 0.80393 0.45331 0.43365 0.0
H1051 H 0.85892 0.41211 0.60315 0.0
H1052 H 0.76542 0.50119 0.51364 0.0
H1053 H 0.90736 0.38476 0.51952 0.0
H1054 H 0.82695 0.44855 0.57221 0.0
H1055 H 0.84562 0.43398 0.46529 0.0
C1056 C 0.80433 0.46072 0.45762 0.0
C1057 C 0.78005 0.47869 0.47073 0.0
C1058 C 0.84488 0.43481 0.56082 0.0
C1059 C 0.82799 0.45445 0.50807 0.0
C1060 C 0.86295 0.41393 0.5784 0.0
C1061 C 0.88529 0.39492 0.56374 0.0
C1062 C 0.84938 0.43653 0.52852 0.0
C1063 C 0.88992 0.39842 0.53173 0.0
C1064 C 0.82831 0.44905 0.47599 0.0
C1065 C 0.78262 0.48645 0.50246 0.0
N1066 N 0.87199 0.41855 0.51523 0.0
N1067 N 0.80567 0.47364 0.52022 0.0
H1068 H 0.04774 0.80677 0.43131 0.0
H1069 H 0.08929 0.86153 0.60077 0.0
H1070 H 1.00064 0.76785 0.51157 0.0
H1071 H 0.11771 0.90917 0.51701 0.0
H1072 H 0.05243 0.83005 0.56989 0.0
H1073 H 0.06675 0.84872 0.46282 0.0
C1074 C 0.04044 0.8071 0.45532 0.0
C1075 C 0.02292 0.78256 0.46856 0.0
C1076 C 0.06649 0.84771 0.55844 0.0
C1077 C 0.0468 0.83084 0.50573 0.0
C1078 C 0.08762 0.86549 0.57599 0.0
C1079 C 0.10704 0.88745 0.56129 0.0
C1080 C 0.06493 0.85211 0.52612 0.0
C1081 C 0.10372 0.89201 0.52925 0.0
C1082 C 0.05195 0.83125 0.47361 0.0
C1083 C 0.01516 0.78519 0.50029 0.0
N1084 N 0.08333 0.87436 0.51279 0.0
N1085 N 0.02785 0.80838 0.51797 0.0
H1086 H 0.59019 0.11651 0.51898 0.0
H1087 H 0.73524 0.99927 0.5108 0.0
H1088 H 0.64392 0.09134 0.60006 0.0
H1089 H 0.69746 0.05247 0.43387 0.0
H1090 H 0.69377 0.02055 0.54386 0.0
H1091 H 0.6211 0.08034 0.48821 0.0
C1092 C 0.60859 0.10334 0.53036 0.0
C1093 C 0.61505 0.10749 0.56199 0.0
C1094 C 0.69446 0.0269 0.51953 0.0
C1095 C 0.65059 0.0658 0.52669 0.0
C1096 C 0.71819 0.01488 0.50055 0.0
C1097 C 0.72078 0.02448 0.46933 0.0
C1098 C 0.67279 0.04809 0.50705 0.0
C1099 C 0.69698 0.04388 0.45745 0.0
C1100 C 0.62612 0.08254 0.51275 0.0
C1101 C 0.63858 0.08913 0.5756 0.0
N1102 N 0.67437 0.05521 0.47636 0.0
N1103 N 0.6559 0.06928 0.55773 0.0
H1104 H 0.81744 0.31525 0.13807 0.0
H1105 H 0.68118 0.18659 0.13681 0.0
H1106 H 0.72007 0.33638 0.12298 0.0
H1107 H 0.77879 0.16566 0.12307 0.0
H1108 H 0.69507 0.24136 0.14763 0.0
H1109 H 0.80331 0.26049 0.14849 0.0
C1110 C 0.79303 0.3085 0.13777 0.0
C1111 C 0.76988 0.33015 0.12929 0.0
C1112 C 0.7135 0.22462 0.14284 0.0
C1113 C 0.75358 0.26779 0.1409 0.0
C1114 C 0.70558 0.19339 0.13692 0.0
C1115 C 0.72889 0.17181 0.12871 0.0
C1116 C 0.74493 0.23413 0.14078 0.0
C1117 C 0.76016 0.1818 0.12888 0.0
C1118 C 0.78499 0.27726 0.14347 0.0
C1119 C 0.7386 0.32019 0.12897 0.0
N1120 N 0.76727 0.21229 0.13449 0.0
N1121 N 0.73137 0.28968 0.13436 0.0
H1122 H 0.16504 0.72051 0.12239 0.0
H1123 H 0.33886 0.78139 0.12209 0.0
H1124 H 0.18838 0.81788 0.13446 0.0
H1125 H 0.31553 0.68414 0.13511 0.0
H1126 H 0.28431 0.79551 0.13211 0.0
H1127 H 0.2196 0.70648 0.13253 0.0
C1128 C 0.18167 0.73886 0.12776 0.0
C1129 C 0.17237 0.77038 0.12734 0.0
C1130 C 0.29113 0.77112 0.13341 0.0
C1131 C 0.23494 0.75468 0.1384 0.0
C1132 C 0.32224 0.76309 0.12766 0.0
C1133 C 0.33153 0.73158 0.12753 0.0
C1134 C 0.26896 0.74738 0.13845 0.0
C1135 C 0.30926 0.7087 0.13506 0.0
C1136 C 0.21277 0.73089 0.13359 0.0
C1137 C 0.19465 0.79332 0.13465 0.0
N1138 N 0.27884 0.71699 0.13962 0.0
N1139 N 0.22506 0.78507 0.13929 0.0
H1140 H 0.68175 0.31648 0.3736 0.0
H1141 H 0.81823 0.188 0.37307 0.0
H1142 H 0.77922 0.33754 0.38797 0.0
H1143 H 0.72072 0.16676 0.38703 0.0
H1144 H 0.80415 0.24278 0.36259 0.0
H1145 H 0.69583 0.2618 0.3626 0.0
C1146 C 0.70617 0.30974 0.3736 0.0
C1147 C 0.72937 0.33132 0.38205 0.0
C1148 C 0.78579 0.22598 0.36736 0.0
C1149 C 0.74563 0.26908 0.36978 0.0
C1150 C 0.79381 0.19473 0.37309 0.0
C1151 C 0.77059 0.17305 0.38127 0.0
C1152 C 0.75434 0.23542 0.36961 0.0
C1153 C 0.73929 0.18297 0.38125 0.0
C1154 C 0.71419 0.27855 0.36757 0.0
C1155 C 0.76066 0.32139 0.38199 0.0
N1156 N 0.73209 0.21349 0.37586 0.0
N1157 N 0.76788 0.29094 0.37629 0.0
H1158 H 0.31636 0.82198 0.37485 0.0
H1159 H 0.18877 0.68451 0.3767 0.0
H1160 H 0.33787 0.72498 0.39233 0.0
H1161 H 0.16669 0.78235 0.38769 0.0
H1162 H 0.24361 0.69867 0.36704 0.0
H1163 H 0.26185 0.80724 0.36417 0.0
C1164 C 0.30975 0.79751 0.37563 0.0
C1165 C 0.33143 0.77467 0.38481 0.0
C1166 C 0.22663 0.71707 0.371 0.0
C1167 C 0.26937 0.75766 0.3729 0.0
C1168 C 0.19535 0.70899 0.37625 0.0
C1169 C 0.17337 0.73231 0.38332 0.0
C1170 C 0.23582 0.74868 0.37258 0.0
C1171 C 0.18311 0.7637 0.38275 0.0
C1172 C 0.27866 0.78912 0.36979 0.0
C1173 C 0.32166 0.74329 0.38575 0.0
N1174 N 0.21365 0.77097 0.37779 0.0
N1175 N 0.29131 0.73572 0.38018 0.0
H1176 H 0.31804 0.81461 0.87304 0.0
H1177 H 0.18157 0.68617 0.8741 0.0
H1178 H 0.22049 0.83605 0.88642 0.0
H1179 H 0.27899 0.66524 0.88904 0.0
H1180 H 0.19567 0.74078 0.86275 0.0
H1181 H 0.30399 0.75976 0.863 0.0
C1182 C 0.29362 0.8079 0.87302 0.0
C1183 C 0.27038 0.82967 0.88092 0.0
C1184 C 0.21401 0.72407 0.86793 0.0
C1185 C 0.25415 0.76721 0.86976 0.0
C1186 C 0.20598 0.69292 0.87416 0.0
C1187 C 0.22915 0.67141 0.88286 0.0
C1188 C 0.24544 0.73356 0.8702 0.0
C1189 C 0.26044 0.68134 0.88287 0.0
C1190 C 0.28561 0.77661 0.86755 0.0
C1191 C 0.23907 0.81977 0.88087 0.0
N1192 N 0.26767 0.71176 0.87697 0.0
N1193 N 0.23188 0.78921 0.87572 0.0
H1194 H 0.83908 0.28006 0.89042 0.0
H1195 H 0.6643 0.22245 0.89037 0.0
H1196 H 0.81408 0.18327 0.87727 0.0
H1197 H 0.68931 0.3193 0.87757 0.0
H1198 H 0.71856 0.20738 0.88013 0.0
H1199 H 0.78482 0.29518 0.88024 0.0
C1200 C 0.82215 0.26207 0.88477 0.0
C1201 C 0.83088 0.2304 0.88491 0.0
C1202 C 0.71217 0.2319 0.87891 0.0
C1203 C 0.76864 0.24733 0.87385 0.0
C1204 C 0.68123 0.24047 0.8848 0.0
C1205 C 0.6725 0.27214 0.88505 0.0
C1206 C 0.73474 0.25525 0.87389 0.0
C1207 C 0.69515 0.29464 0.87751 0.0
C1208 C 0.79122 0.27067 0.87893 0.0
C1209 C 0.80823 0.20793 0.8773 0.0
N1210 N 0.7254 0.28581 0.87284 0.0
N1211 N 0.77798 0.21677 0.87268 0.0
H1212 H 0.31777 0.68746 0.63797 0.0
H1213 H 0.18209 0.81677 0.63607 0.0
H1214 H 0.22023 0.66666 0.6236 0.0
H1215 H 0.27979 0.83714 0.62214 0.0
H1216 H 0.19575 0.76202 0.64726 0.0
H1217 H 0.30394 0.74237 0.64799 0.0
C1218 C 0.29338 0.69431 0.63775 0.0
C1219 C 0.2701 0.67271 0.62959 0.0
C1220 C 0.21424 0.77863 0.64233 0.0
C1221 C 0.25414 0.73525 0.64072 0.0
C1222 C 0.20646 0.80986 0.6362 0.0
C1223 C 0.22986 0.83127 0.62783 0.0
C1224 C 0.24563 0.76895 0.64033 0.0
C1225 C 0.26108 0.82113 0.62805 0.0
C1226 C 0.28551 0.72564 0.64322 0.0
C1227 C 0.23886 0.68281 0.62936 0.0
N1228 N 0.26806 0.79064 0.63387 0.0
N1229 N 0.23179 0.7134 0.6345 0.0
H1230 H 0.81492 0.32023 0.63601 0.0
H1231 H 0.68612 0.18399 0.6375 0.0
H1232 H 0.83596 0.2222 0.62467 0.0
H1233 H 0.66542 0.28128 0.62052 0.0
H1234 H 0.74069 0.1982 0.64833 0.0
H1235 H 0.75997 0.3066 0.64588 0.0
C1236 C 0.80809 0.29581 0.63645 0.0
C1237 C 0.82979 0.27229 0.6292 0.0
C1238 C 0.72406 0.2165 0.64278 0.0
C1239 C 0.76724 0.25653 0.64017 0.0
C1240 C 0.69292 0.20841 0.63683 0.0
C1241 C 0.67144 0.23148 0.62773 0.0
C1242 C 0.73362 0.24789 0.63983 0.0
C1243 C 0.68147 0.26278 0.62698 0.0
C1244 C 0.77676 0.28804 0.64181 0.0
C1245 C 0.81975 0.24099 0.62975 0.0
N1246 N 0.71188 0.27006 0.63263 0.0
N1247 N 0.78917 0.23402 0.63481 0.0
loop_
_geom_bond_atom_site_label_1
_geom_bond_atom_site_label_2
_geom_bond_distance
_geom_bond_site_symmetry_2
_ccdc_geom_bond_type
Co0 N4 2.148 . S
Co0 N10 2.128 . S
Co0 N20 2.194 . S
Co0 O25 2.351 . S
Co0 O26 2.155 . S
Co0 O27 2.096 . S
C1 N4 1.301 . S
C1 N5 1.328 . S
C1 H6 0.930 . S
C2 C3 1.333 . S
C2 N4 1.317 . S
C2 H7 0.930 . S
C3 C2 1.333 . S
C3 N5 1.350 . S
C3 H29 0.931 1_545 S
N4 Co0 2.148 . S
N4 C1 1.301 . S
N4 C2 1.317 . S
N5 C1 1.328 . S
N5 C3 1.350 . S
H6 C1 0.930 . S
H7 C2 0.930 . S
C8 O9 1.224 . S
C8 O27 1.247 . S
O9 C8 1.224 . S
N10 Co0 2.128 . S
N10 C11 1.355 . S
N10 C13 1.311 . S
C11 N10 1.355 . S
C11 C12 1.363 . S
C11 H23 0.929 . S
C12 C11 1.363 . S
C12 N14 1.375 . S
C12 H30 0.931 . S
C13 N10 1.311 . S
C13 N14 1.347 . S
C13 H24 0.929 . S
N14 C12 1.375 . S
N14 C13 1.347 . S
C15 C18 1.365 . S
C15 N20 1.328 . S
C15 H21 0.929 . S
C16 C17 1.362 . S
C16 C19 1.378 . S
C16 H31 0.929 . S
C17 C16 1.362 . S
C17 C18 1.366 . S
C18 C15 1.365 . S
C18 C17 1.366 . S
C18 H32 0.930 . S
C19 C16 1.378 . S
C19 N20 1.315 . S
C19 H22 0.930 . S
N20 Co0 2.194 . S
N20 C15 1.328 . S
N20 C19 1.315 . S
H21 C15 0.929 . S
H22 C19 0.930 . S
H23 C11 0.929 . S
H24 C13 0.929 . S
O25 Co0 2.351 . S
O25 C28 1.244 . S
O26 Co0 2.155 . S
O26 C28 1.240 . S
O27 Co0 2.096 . S
O27 C8 1.247 . S
C28 O25 1.244 . S
C28 O26 1.240 . S
H29 C3 0.931 1_565 S
H30 C12 0.931 . S
H31 C16 0.929 . S
H32 C18 0.930 . S
Co33 N37 2.148 . S
Co33 N43 2.128 . S
Co33 N53 2.194 . S
Co33 O58 2.351 . S
Co33 O59 2.155 . S
Co33 O60 2.096 . S
C34 N37 1.301 . S
C34 N38 1.328 . S
C34 H39 0.930 . S
C35 C36 1.333 . S
C35 N37 1.317 . S
C35 H40 0.930 . S
C36 C35 1.333 . S
C36 N38 1.350 . S
C36 H62 0.931 . S
N37 Co33 2.148 . S
N37 C34 1.301 . S
N37 C35 1.317 . S
N38 C34 1.328 . S
N38 C36 1.350 . S
H39 C34 0.930 . S
H40 C35 0.930 . S
C41 O42 1.224 . S
C41 O60 1.247 . S
O42 C41 1.224 . S
N43 Co33 2.128 . S
N43 C44 1.355 . S
N43 C46 1.311 . S
C44 N43 1.355 . S
C44 C45 1.363 . S
C44 H56 0.929 . S
C45 C44 1.363 . S
C45 N47 1.375 . S
C45 H63 0.931 . S
C46 N43 1.311 . S
C46 N47 1.347 . S
C46 H57 0.929 . S
N47 C45 1.375 . S
N47 C46 1.347 . S
C48 C51 1.365 . S
C48 N53 1.328 . S
C48 H54 0.929 . S
C49 C50 1.362 . S
C49 C52 1.378 . S
C49 H64 0.929 . S
C50 C49 1.362 . S
C50 C51 1.366 . S
C51 C48 1.365 . S
C51 C50 1.366 . S
C51 H65 0.930 . S
C52 C49 1.378 . S
C52 N53 1.315 . S
C52 H55 0.930 . S
N53 Co33 2.194 . S
N53 C48 1.328 . S
N53 C52 1.315 . S
H54 C48 0.929 . S
H55 C52 0.930 . S
H56 C44 0.929 . S
H57 C46 0.929 . S
O58 Co33 2.351 . S
O58 C61 1.244 . S
O59 Co33 2.155 . S
O59 C61 1.240 . S
O60 Co33 2.096 . S
O60 C41 1.247 . S
C61 O58 1.244 . S
C61 O59 1.240 . S
H62 C36 0.931 . S
H63 C45 0.931 . S
H64 C49 0.929 . S
H65 C51 0.930 . S
Co66 N70 2.148 . S
Co66 N76 2.128 . S
Co66 N86 2.194 . S
Co66 O91 2.351 . S
Co66 O92 2.155 . S
Co66 O93 2.096 . S
C67 N70 1.301 . S
C67 N71 1.328 . S
C67 H72 0.930 . S
C68 C69 1.333 . S
C68 N70 1.317 . S
C68 H73 0.930 . S
C69 C68 1.333 . S
C69 N71 1.350 . S
C69 H95 0.931 . S
N70 Co66 2.148 . S
N70 C67 1.301 . S
N70 C68 1.317 . S
N71 C67 1.328 . S
N71 C69 1.350 . S
H72 C67 0.930 . S
H73 C68 0.930 . S
C74 O75 1.224 . S
C74 O93 1.247 . S
O75 C74 1.224 . S
N76 Co66 2.128 . S
N76 C77 1.355 . S
N76 C79 1.311 . S
C77 N76 1.355 . S
C77 C78 1.363 . S
C77 H89 0.929 . S
C78 C77 1.363 . S
C78 N80 1.375 . S
C78 H96 0.931 . S
C79 N76 1.311 . S
C79 N80 1.347 . S
C79 H90 0.929 . S
N80 C78 1.375 . S
N80 C79 1.347 . S
C81 C84 1.365 . S
C81 N86 1.328 . S
C81 H87 0.929 . S
C82 C83 1.362 . S
C82 C85 1.378 . S
C82 H97 0.929 . S
C83 C82 1.362 . S
C83 C84 1.366 . S
C84 C81 1.365 . S
C84 C83 1.366 . S
C84 H98 0.930 . S
C85 C82 1.378 . S
C85 N86 1.315 . S
C85 H88 0.930 . S
N86 Co66 2.194 . S
N86 C81 1.328 . S
N86 C85 1.315 . S
H87 C81 0.929 . S
H88 C85 0.930 . S
H89 C77 0.929 . S
H90 C79 0.929 . S
O91 Co66 2.351 . S
O91 C94 1.244 . S
O92 Co66 2.155 . S
O92 C94 1.240 . S
O93 Co66 2.096 . S
O93 C74 1.247 . S
C94 O91 1.244 . S
C94 O92 1.240 . S
H95 C69 0.931 . S
H96 C78 0.931 . S
H97 C82 0.929 . S
H98 C84 0.930 . S
Co99 N103 2.148 . S
Co99 N109 2.128 . S
Co99 N119 2.194 . S
Co99 O124 2.351 . S
Co99 O125 2.155 . S
Co99 O126 2.096 . S
C100 N103 1.301 . S
C100 N104 1.328 . S
C100 H105 0.930 . S
C101 C102 1.333 . S
C101 N103 1.317 . S
C101 H106 0.930 . S
C102 C101 1.333 . S
C102 N104 1.350 . S
C102 H128 0.931 1_455 S
N103 Co99 2.148 . S
N103 C100 1.301 . S
N103 C101 1.317 . S
N104 C100 1.328 . S
N104 C102 1.350 . S
H105 C100 0.930 . S
H106 C101 0.930 . S
C107 O108 1.224 . S
C107 O126 1.247 . S
O108 C107 1.224 . S
N109 Co99 2.128 . S
N109 C110 1.355 . S
N109 C112 1.311 . S
C110 N109 1.355 . S
C110 C111 1.363 . S
C110 H122 0.929 . S
C111 C110 1.363 . S
C111 N113 1.375 . S
C111 H129 0.931 . S
C112 N109 1.311 . S
C112 N113 1.347 . S
C112 H123 0.929 . S
N113 C111 1.375 . S
N113 C112 1.347 . S
C114 C117 1.365 . S
C114 N119 1.328 . S
C114 H120 0.929 . S
C115 C116 1.362 . S
C115 C118 1.378 . S
C115 H130 0.929 . S
C116 C115 1.362 . S
C116 C117 1.366 . S
C117 C114 1.365 . S
C117 C116 1.366 . S
C117 H131 0.930 . S
C118 C115 1.378 . S
C118 N119 1.315 . S
C118 H121 0.930 . S
N119 Co99 2.194 . S
N119 C114 1.328 . S
N119 C118 1.315 . S
H120 C114 0.929 . S
H121 C118 0.930 . S
H122 C110 0.929 . S
H123 C112 0.929 . S
O124 Co99 2.351 . S
O124 C127 1.244 . S
O125 Co99 2.155 . S
O125 C127 1.240 . S
O126 Co99 2.096 . S
O126 C107 1.247 . S
C127 O124 1.244 . S
C127 O125 1.240 . S
H128 C102 0.931 1_655 S
H129 C111 0.931 . S
H130 C115 0.929 . S
H131 C117 0.930 . S
Co132 N136 2.148 . S
Co132 N142 2.128 . S
Co132 N152 2.194 . S
Co132 O157 2.351 . S
Co132 O158 2.155 . S
Co132 O159 2.096 . S
C133 N136 1.301 . S
C133 N137 1.328 . S
C133 H138 0.930 . S
C134 C135 1.333 . S
C134 N136 1.317 . S
C134 H139 0.930 . S
C135 C134 1.333 . S
C135 N137 1.350 . S
C135 H161 0.931 . S
N136 Co132 2.148 . S
N136 C133 1.301 . S
N136 C134 1.317 . S
N137 C133 1.328 . S
N137 C135 1.350 . S
H138 C133 0.930 . S
H139 C134 0.930 . S
C140 O141 1.224 . S
C140 O159 1.247 . S
O141 C140 1.224 . S
N142 Co132 2.128 . S
N142 C143 1.355 . S
N142 C145 1.311 . S
C143 N142 1.355 . S
C143 C144 1.363 . S
C143 H155 0.929 . S
C144 C143 1.363 . S
C144 N146 1.375 . S
C144 H162 0.931 . S
C145 N142 1.311 . S
C145 N146 1.347 . S
C145 H156 0.929 . S
N146 C144 1.375 . S
N146 C145 1.347 . S
C147 C150 1.365 . S
C147 N152 1.328 . S
C147 H153 0.929 . S
C148 C149 1.362 . S
C148 C151 1.378 . S
C148 H163 0.929 . S
C149 C148 1.362 . S
C149 C150 1.366 . S
C150 C147 1.365 . S
C150 C149 1.366 . S
C150 H164 0.930 . S
C151 C148 1.378 . S
C151 N152 1.315 . S
C151 H154 0.930 . S
N152 Co132 2.194 . S
N152 C147 1.328 . S
N152 C151 1.315 . S
H153 C147 0.929 . S
H154 C151 0.930 . S
H155 C143 0.929 . S
H156 C145 0.929 . S
O157 Co132 2.351 . S
O157 C160 1.244 . S
O158 Co132 2.155 . S
O158 C160 1.240 . S
O159 Co132 2.096 . S
O159 C140 1.247 . S
C160 O157 1.244 . S
C160 O158 1.240 . S
H161 C135 0.931 . S
H162 C144 0.931 . S
H163 C148 0.929 . S
H164 C150 0.930 . S
Co165 N169 2.148 . S
Co165 N175 2.128 . S
Co165 N185 2.194 . S
Co165 O190 2.351 . S
Co165 O191 2.155 . S
Co165 O192 2.096 . S
C166 N169 1.301 . S
C166 N170 1.328 . S
C166 H171 0.930 . S
C167 C168 1.333 . S
C167 N169 1.317 . S
C167 H172 0.930 . S
C168 C167 1.333 . S
C168 N170 1.350 . S
C168 H194 0.931 1_455 S
N169 Co165 2.148 . S
N169 C166 1.301 . S
N169 C167 1.317 . S
N170 C166 1.328 . S
N170 C168 1.350 . S
H171 C166 0.930 . S
H172 C167 0.930 . S
C173 O174 1.224 . S
C173 O192 1.247 . S
O174 C173 1.224 . S
N175 Co165 2.128 . S
N175 C176 1.355 . S
N175 C178 1.311 . S
C176 N175 1.355 . S
C176 C177 1.363 . S
C176 H188 0.929 . S
C177 C176 1.363 . S
C177 N179 1.375 . S
C177 H195 0.931 . S
C178 N175 1.311 . S
C178 N179 1.347 . S
C178 H189 0.929 . S
N179 C177 1.375 . S
N179 C178 1.347 . S
C180 C183 1.365 . S
C180 N185 1.328 . S
C180 H186 0.929 . S
C181 C182 1.362 . S
C181 C184 1.378 . S
C181 H196 0.929 . S
C182 C181 1.362 . S
C182 C183 1.366 . S
C183 C180 1.365 . S
C183 C182 1.366 . S
C183 H197 0.930 . S
C184 C181 1.378 . S
C184 N185 1.315 . S
C184 H187 0.930 . S
N185 Co165 2.194 . S
N185 C180 1.328 . S
N185 C184 1.315 . S
H186 C180 0.929 . S
H187 C184 0.930 . S
H188 C176 0.929 . S
H189 C178 0.929 . S
O190 Co165 2.351 . S
O190 C193 1.244 . S
O191 Co165 2.155 . S
O191 C193 1.240 . S
O192 Co165 2.096 . S
O192 C173 1.247 . S
C193 O190 1.244 . S
C193 O191 1.240 . S
H194 C168 0.931 1_655 S
H195 C177 0.931 . S
H196 C181 0.929 . S
H197 C183 0.930 . S
Co198 N202 2.148 . S
Co198 N208 2.128 . S
Co198 N218 2.194 . S
Co198 O223 2.351 . S
Co198 O224 2.155 . S
Co198 O225 2.096 . S
C199 N202 1.301 . S
C199 N203 1.328 . S
C199 H204 0.930 . S
C200 C201 1.333 . S
C200 N202 1.317 . S
C200 H205 0.930 . S
C201 C200 1.333 . S
C201 N203 1.350 . S
C201 H227 0.931 1_545 S
N202 Co198 2.148 . S
N202 C199 1.301 . S
N202 C200 1.317 . S
N203 C199 1.328 . S
N203 C201 1.350 . S
H204 C199 0.930 . S
H205 C200 0.930 . S
C206 O207 1.224 . S
C206 O225 1.247 . S
O207 C206 1.224 . S
N208 Co198 2.128 . S
N208 C209 1.355 . S
N208 C211 1.311 . S
C209 N208 1.355 . S
C209 C210 1.363 . S
C209 H221 0.929 . S
C210 C209 1.363 . S
C210 N212 1.375 . S
C210 H228 0.931 . S
C211 N208 1.311 . S
C211 N212 1.347 . S
C211 H222 0.929 . S
N212 C210 1.375 . S
N212 C211 1.347 . S
C213 C216 1.365 . S
C213 N218 1.328 . S
C213 H219 0.929 . S
C214 C215 1.362 . S
C214 C217 1.378 . S
C214 H229 0.929 . S
C215 C214 1.362 . S
C215 C216 1.366 . S
C216 C213 1.365 . S
C216 C215 1.366 . S
C216 H230 0.930 . S
C217 C214 1.378 . S
C217 N218 1.315 . S
C217 H220 0.930 . S
N218 Co198 2.194 . S
N218 C213 1.328 . S
N218 C217 1.315 . S
H219 C213 0.929 . S
H220 C217 0.930 . S
H221 C209 0.929 . S
H222 C211 0.929 . S
O223 Co198 2.351 . S
O223 C226 1.244 . S
O224 Co198 2.155 . S
O224 C226 1.240 . S
O225 Co198 2.096 . S
O225 C206 1.247 . S
C226 O223 1.244 . S
C226 O224 1.240 . S
H227 C201 0.931 1_565 S
H228 C210 0.931 . S
H229 C214 0.929 . S
H230 C216 0.930 . S
Co231 N235 2.148 . S
Co231 N241 2.128 . S
Co231 N251 2.194 . S
Co231 O256 2.351 . S
Co231 O257 2.155 . S
Co231 O258 2.096 . S
C232 N235 1.301 . S
C232 N236 1.328 . S
C232 H237 0.930 . S
C233 C234 1.333 . S
C233 N235 1.317 . S
C233 H238 0.930 . S
C234 C233 1.333 . S
C234 N236 1.350 . S
C234 H260 0.931 . S
N235 Co231 2.148 . S
N235 C232 1.301 . S
N235 C233 1.317 . S
N236 C232 1.328 . S
N236 C234 1.350 . S
H237 C232 0.930 . S
H238 C233 0.930 . S
C239 O240 1.224 . S
C239 O258 1.247 . S
O240 C239 1.224 . S
N241 Co231 2.128 . S
N241 C242 1.355 . S
N241 C244 1.311 . S
C242 N241 1.355 . S
C242 C243 1.363 . S
C242 H254 0.929 . S
C243 C242 1.363 . S
C243 N245 1.375 . S
C243 H261 0.931 . S
C244 N241 1.311 . S
C244 N245 1.347 . S
C244 H255 0.929 . S
N245 C243 1.375 . S
N245 C244 1.347 . S
C246 C249 1.365 . S
C246 N251 1.328 . S
C246 H252 0.929 . S
C247 C248 1.362 . S
C247 C250 1.378 . S
C247 H262 0.929 . S
C248 C247 1.362 . S
C248 C249 1.366 . S
C249 C246 1.365 . S
C249 C248 1.366 . S
C249 H263 0.930 . S
C250 C247 1.378 . S
C250 N251 1.315 . S
C250 H253 0.930 . S
N251 Co231 2.194 . S
N251 C246 1.328 . S
N251 C250 1.315 . S
H252 C246 0.929 . S
H253 C250 0.930 . S
H254 C242 0.929 . S
H255 C244 0.929 . S
O256 Co231 2.351 . S
O256 C259 1.244 . S
O257 Co231 2.155 . S
O257 C259 1.240 . S
O258 Co231 2.096 . S
O258 C239 1.247 . S
C259 O256 1.244 . S
C259 O257 1.240 . S
H260 C234 0.931 . S
H261 C243 0.931 . S
H262 C247 0.929 . S
H263 C249 0.930 . S
Co264 N268 2.148 . S
Co264 N274 2.128 . S
Co264 N284 2.194 . S
Co264 O289 2.351 . S
Co264 O290 2.155 . S
Co264 O291 2.096 . S
C265 N268 1.301 . S
C265 N269 1.328 . S
C265 H270 0.930 . S
C266 C267 1.333 . S
C266 N268 1.317 . S
C266 H271 0.930 . S
C267 C266 1.333 . S
C267 N269 1.350 . S
C267 H293 0.931 1_565 S
N268 Co264 2.148 . S
N268 C265 1.301 . S
N268 C266 1.317 . S
N269 C265 1.328 . S
N269 C267 1.350 . S
H270 C265 0.930 . S
H271 C266 0.930 . S
C272 O273 1.224 . S
C272 O291 1.247 . S
O273 C272 1.224 . S
N274 Co264 2.128 . S
N274 C275 1.355 . S
N274 C277 1.311 . S
C275 N274 1.355 . S
C275 C276 1.363 . S
C275 H287 0.929 . S
C276 C275 1.363 . S
C276 N278 1.375 . S
C276 H294 0.931 . S
C277 N274 1.311 . S
C277 N278 1.347 . S
C277 H288 0.929 . S
N278 C276 1.375 . S
N278 C277 1.347 . S
C279 C282 1.365 . S
C279 N284 1.328 . S
C279 H285 0.929 . S
C280 C281 1.362 . S
C280 C283 1.378 . S
C280 H295 0.929 . S
C281 C280 1.362 . S
C281 C282 1.366 . S
C282 C279 1.365 . S
C282 C281 1.366 . S
C282 H296 0.930 . S
C283 C280 1.378 . S
C283 N284 1.315 . S
C283 H286 0.930 . S
N284 Co264 2.194 . S
N284 C279 1.328 . S
N284 C283 1.315 . S
H285 C279 0.929 . S
H286 C283 0.930 . S
H287 C275 0.929 . S
H288 C277 0.929 . S
O289 Co264 2.351 . S
O289 C292 1.244 . S
O290 Co264 2.155 . S
O290 C292 1.240 . S
O291 Co264 2.096 . S
O291 C272 1.247 . S
C292 O289 1.244 . S
C292 O290 1.240 . S
H293 C267 0.931 1_545 S
H294 C276 0.931 . S
H295 C280 0.929 . S
H296 C282 0.930 . S
Co297 N301 2.148 . S
Co297 N307 2.128 . S
Co297 N317 2.194 . S
Co297 O322 2.351 . S
Co297 O323 2.155 . S
Co297 O324 2.096 . S
C298 N301 1.301 . S
C298 N302 1.328 . S
C298 H303 0.930 . S
C299 C300 1.333 . S
C299 N301 1.317 . S
C299 H304 0.930 . S
C300 C299 1.333 . S
C300 N302 1.350 . S
C300 H326 0.931 . S
N301 Co297 2.148 . S
N301 C298 1.301 . S
N301 C299 1.317 . S
N302 C298 1.328 . S
N302 C300 1.350 . S
H303 C298 0.930 . S
H304 C299 0.930 . S
C305 O306 1.224 . S
C305 O324 1.247 . S
O306 C305 1.224 . S
N307 Co297 2.128 . S
N307 C308 1.355 . S
N307 C310 1.311 . S
C308 N307 1.355 . S
C308 C309 1.363 . S
C308 H320 0.929 . S
C309 C308 1.363 . S
C309 N311 1.375 . S
C309 H327 0.931 . S
C310 N307 1.311 . S
C310 N311 1.347 . S
C310 H321 0.929 . S
N311 C309 1.375 . S
N311 C310 1.347 . S
C312 C315 1.365 . S
C312 N317 1.328 . S
C312 H318 0.929 . S
C313 C314 1.362 . S
C313 C316 1.378 . S
C313 H328 0.929 . S
C314 C313 1.362 . S
C314 C315 1.366 . S
C315 C312 1.365 . S
C315 C314 1.366 . S
C315 H329 0.930 . S
C316 C313 1.378 . S
C316 N317 1.315 . S
C316 H319 0.930 . S
N317 Co297 2.194 . S
N317 C312 1.328 . S
N317 C316 1.315 . S
H318 C312 0.929 . S
H319 C316 0.930 . S
H320 C308 0.929 . S
H321 C310 0.929 . S
O322 Co297 2.351 . S
O322 C325 1.244 . S
O323 Co297 2.155 . S
O323 C325 1.240 . S
O324 Co297 2.096 . S
O324 C305 1.247 . S
C325 O322 1.244 . S
C325 O323 1.240 . S
H326 C300 0.931 . S
H327 C309 0.931 . S
H328 C313 0.929 . S
H329 C315 0.930 . S
Co330 N334 2.148 . S
Co330 N340 2.128 . S
Co330 N350 2.194 . S
Co330 O355 2.351 . S
Co330 O356 2.155 . S
Co330 O357 2.096 . S
C331 N334 1.301 . S
C331 N335 1.328 . S
C331 H336 0.930 . S
C332 C333 1.333 . S
C332 N334 1.317 . S
C332 H337 0.930 . S
C333 C332 1.333 . S
C333 N335 1.350 . S
C333 H359 0.931 . S
N334 Co330 2.148 . S
N334 C331 1.301 . S
N334 C332 1.317 . S
N335 C331 1.328 . S
N335 C333 1.350 . S
H336 C331 0.930 . S
H337 C332 0.930 . S
C338 O339 1.224 . S
C338 O357 1.247 . S
O339 C338 1.224 . S
N340 Co330 2.128 . S
N340 C341 1.355 . S
N340 C343 1.311 . S
C341 N340 1.355 . S
C341 C342 1.363 . S
C341 H353 0.929 . S
C342 C341 1.363 . S
C342 N344 1.375 . S
C342 H360 0.931 . S
C343 N340 1.311 . S
C343 N344 1.347 . S
C343 H354 0.929 . S
N344 C342 1.375 . S
N344 C343 1.347 . S
C345 C348 1.365 . S
C345 N350 1.328 . S
C345 H351 0.929 . S
C346 C347 1.362 . S
C346 C349 1.378 . S
C346 H361 0.929 . S
C347 C346 1.362 . S
C347 C348 1.366 . S
C348 C345 1.365 . S
C348 C347 1.366 . S
C348 H362 0.930 . S
C349 C346 1.378 . S
C349 N350 1.315 . S
C349 H352 0.930 . S
N350 Co330 2.194 . S
N350 C345 1.328 . S
N350 C349 1.315 . S
H351 C345 0.929 . S
H352 C349 0.930 . S
H353 C341 0.929 . S
H354 C343 0.929 . S
O355 Co330 2.351 . S
O355 C358 1.244 . S
O356 Co330 2.155 . S
O356 C358 1.240 . S
O357 Co330 2.096 . S
O357 C338 1.247 . S
C358 O355 1.244 . S
C358 O356 1.240 . S
H359 C333 0.931 . S
H360 C342 0.931 . S
H361 C346 0.929 . S
H362 C348 0.930 . S
Co363 N367 2.148 . S
Co363 N373 2.128 . S
Co363 N383 2.194 . S
Co363 O388 2.351 . S
Co363 O389 2.155 . S
Co363 O390 2.096 . S
C364 N367 1.301 . S
C364 N368 1.328 . S
C364 H369 0.930 . S
C365 C366 1.333 . S
C365 N367 1.317 . S
C365 H370 0.930 . S
C366 C365 1.333 . S
C366 N368 1.350 . S
C366 H392 0.931 1_655 S
N367 Co363 2.148 . S
N367 C364 1.301 . S
N367 C365 1.317 . S
N368 C364 1.328 . S
N368 C366 1.350 . S
H369 C364 0.930 . S
H370 C365 0.930 . S
C371 O372 1.224 . S
C371 O390 1.247 . S
O372 C371 1.224 . S
N373 Co363 2.128 . S
N373 C374 1.355 . S
N373 C376 1.311 . S
C374 N373 1.355 . S
C374 C375 1.363 . S
C374 H386 0.929 . S
C375 C374 1.363 . S
C375 N377 1.375 . S
C375 H393 0.931 . S
C376 N373 1.311 . S
C376 N377 1.347 . S
C376 H387 0.929 . S
N377 C375 1.375 . S
N377 C376 1.347 . S
C378 C381 1.365 . S
C378 N383 1.328 . S
C378 H384 0.929 . S
C379 C380 1.362 . S
C379 C382 1.378 . S
C379 H394 0.929 . S
C380 C379 1.362 . S
C380 C381 1.366 . S
C381 C378 1.365 . S
C381 C380 1.366 . S
C381 H395 0.930 . S
C382 C379 1.378 . S
C382 N383 1.315 . S
C382 H385 0.930 . S
N383 Co363 2.194 . S
N383 C378 1.328 . S
N383 C382 1.315 . S
H384 C378 0.929 . S
H385 C382 0.930 . S
H386 C374 0.929 . S
H387 C376 0.929 . S
O388 Co363 2.351 . S
O388 C391 1.244 . S
O389 Co363 2.155 . S
O389 C391 1.240 . S
O390 Co363 2.096 . S
O390 C371 1.247 . S
C391 O388 1.244 . S
C391 O389 1.240 . S
H392 C366 0.931 1_455 S
H393 C375 0.931 . S
H394 C379 0.929 . S
H395 C381 0.930 . S
Co396 N400 2.148 . S
Co396 N406 2.128 . S
Co396 N416 2.194 . S
Co396 O421 2.351 . S
Co396 O422 2.155 . S
Co396 O423 2.096 . S
C397 N400 1.301 . S
C397 N401 1.328 . S
C397 H402 0.930 . S
C398 C399 1.333 . S
C398 N400 1.317 . S
C398 H403 0.930 . S
C399 C398 1.333 . S
C399 N401 1.350 . S
C399 H425 0.931 . S
N400 Co396 2.148 . S
N400 C397 1.301 . S
N400 C398 1.317 . S
N401 C397 1.328 . S
N401 C399 1.350 . S
H402 C397 0.930 . S
H403 C398 0.930 . S
C404 O405 1.224 . S
C404 O423 1.247 . S
O405 C404 1.224 . S
N406 Co396 2.128 . S
N406 C407 1.355 . S
N406 C409 1.311 . S
C407 N406 1.355 . S
C407 C408 1.363 . S
C407 H419 0.929 . S
C408 C407 1.363 . S
C408 N410 1.375 . S
C408 H426 0.931 . S
C409 N406 1.311 . S
C409 N410 1.347 . S
C409 H420 0.929 . S
N410 C408 1.375 . S
N410 C409 1.347 . S
C411 C414 1.365 . S
C411 N416 1.328 . S
C411 H417 0.929 . S
C412 C413 1.362 . S
C412 C415 1.378 . S
C412 H427 0.929 . S
C413 C412 1.362 . S
C413 C414 1.366 . S
C414 C411 1.365 . S
C414 C413 1.366 . S
C414 H428 0.930 . S
C415 C412 1.378 . S
C415 N416 1.315 . S
C415 H418 0.930 . S
N416 Co396 2.194 . S
N416 C411 1.328 . S
N416 C415 1.315 . S
H417 C411 0.929 . S
H418 C415 0.930 . S
H419 C407 0.929 . S
H420 C409 0.929 . S
O421 Co396 2.351 . S
O421 C424 1.244 . S
O422 Co396 2.155 . S
O422 C424 1.240 . S
O423 Co396 2.096 . S
O423 C404 1.247 . S
C424 O421 1.244 . S
C424 O422 1.240 . S
H425 C399 0.931 . S
H426 C408 0.931 . S
H427 C412 0.929 . S
H428 C414 0.930 . S
Co429 N433 2.148 . S
Co429 N439 2.128 . S
Co429 N449 2.194 . S
Co429 O454 2.351 . S
Co429 O455 2.155 . S
Co429 O456 2.096 . S
C430 N433 1.301 . S
C430 N434 1.328 . S
C430 H435 0.930 . S
C431 C432 1.333 . S
C431 N433 1.317 . S
C431 H436 0.930 . S
C432 C431 1.333 . S
C432 N434 1.350 . S
C432 H458 0.931 1_655 S
N433 Co429 2.148 . S
N433 C430 1.301 . S
N433 C431 1.317 . S
N434 C430 1.328 . S
N434 C432 1.350 . S
H435 C430 0.930 . S
H436 C431 0.930 . S
C437 O438 1.224 . S
C437 O456 1.247 . S
O438 C437 1.224 . S
N439 Co429 2.128 . S
N439 C440 1.355 . S
N439 C442 1.311 . S
C440 N439 1.355 . S
C440 C441 1.363 . S
C440 H452 0.929 . S
C441 C440 1.363 . S
C441 N443 1.375 . S
C441 H459 0.931 . S
C442 N439 1.311 . S
C442 N443 1.347 . S
C442 H453 0.929 . S
N443 C441 1.375 . S
N443 C442 1.347 . S
C444 C447 1.365 . S
C444 N449 1.328 . S
C444 H450 0.929 . S
C445 C446 1.362 . S
C445 C448 1.378 . S
C445 H460 0.929 . S
C446 C445 1.362 . S
C446 C447 1.366 . S
C447 C444 1.365 . S
C447 C446 1.366 . S
C447 H461 0.930 . S
C448 C445 1.378 . S
C448 N449 1.315 . S
C448 H451 0.930 . S
N449 Co429 2.194 . S
N449 C444 1.328 . S
N449 C448 1.315 . S
H450 C444 0.929 . S
H451 C448 0.930 . S
H452 C440 0.929 . S
H453 C442 0.929 . S
O454 Co429 2.351 . S
O454 C457 1.244 . S
O455 Co429 2.155 . S
O455 C457 1.240 . S
O456 Co429 2.096 . S
O456 C437 1.247 . S
C457 O454 1.244 . S
C457 O455 1.240 . S
H458 C432 0.931 1_455 S
H459 C441 0.931 . S
H460 C445 0.929 . S
H461 C447 0.930 . S
Co462 N466 2.148 . S
Co462 N472 2.128 . S
Co462 N482 2.194 . S
Co462 O487 2.351 . S
Co462 O488 2.155 . S
Co462 O489 2.096 . S
C463 N466 1.301 . S
C463 N467 1.328 . S
C463 H468 0.930 . S
C464 C465 1.333 . S
C464 N466 1.317 . S
C464 H469 0.930 . S
C465 C464 1.333 . S
C465 N467 1.350 . S
C465 H491 0.931 1_565 S
N466 Co462 2.148 . S
N466 C463 1.301 . S
N466 C464 1.317 . S
N467 C463 1.328 . S
N467 C465 1.350 . S
H468 C463 0.930 . S
H469 C464 0.930 . S
C470 O471 1.224 . S
C470 O489 1.247 . S
O471 C470 1.224 . S
N472 Co462 2.128 . S
N472 C473 1.355 . S
N472 C475 1.311 . S
C473 N472 1.355 . S
C473 C474 1.363 . S
C473 H485 0.929 . S
C474 C473 1.363 . S
C474 N476 1.375 . S
C474 H492 0.931 . S
C475 N472 1.311 . S
C475 N476 1.347 . S
C475 H486 0.929 . S
N476 C474 1.375 . S
N476 C475 1.347 . S
C477 C480 1.365 . S
C477 N482 1.328 . S
C477 H483 0.929 . S
C478 C479 1.362 . S
C478 C481 1.378 . S
C478 H493 0.929 . S
C479 C478 1.362 . S
C479 C480 1.366 . S
C480 C477 1.365 . S
C480 C479 1.366 . S
C480 H494 0.930 . S
C481 C478 1.378 . S
C481 N482 1.315 . S
C481 H484 0.930 . S
N482 Co462 2.194 . S
N482 C477 1.328 . S
N482 C481 1.315 . S
H483 C477 0.929 . S
H484 C481 0.930 . S
H485 C473 0.929 . S
H486 C475 0.929 . S
O487 Co462 2.351 . S
O487 C490 1.244 . S
O488 Co462 2.155 . S
O488 C490 1.240 . S
O489 Co462 2.096 . S
O489 C470 1.247 . S
C490 O487 1.244 . S
C490 O488 1.240 . S
H491 C465 0.931 1_545 S
H492 C474 0.931 . S
H493 C478 0.929 . S
H494 C480 0.930 . S
Co495 N499 2.148 . S
Co495 N505 2.128 . S
Co495 N515 2.194 . S
Co495 O520 2.351 . S
Co495 O521 2.155 . S
Co495 O522 2.096 . S
C496 N499 1.301 . S
C496 N500 1.328 . S
C496 H501 0.930 . S
C497 C498 1.333 . S
C497 N499 1.317 . S
C497 H502 0.930 . S
C498 C497 1.333 . S
C498 N500 1.350 . S
C498 H524 0.931 . S
N499 Co495 2.148 . S
N499 C496 1.301 . S
N499 C497 1.317 . S
N500 C496 1.328 . S
N500 C498 1.350 . S
H501 C496 0.930 . S
H502 C497 0.930 . S
C503 O504 1.224 . S
C503 O522 1.247 . S
O504 C503 1.224 . S
N505 Co495 2.128 . S
N505 C506 1.355 . S
N505 C508 1.311 . S
C506 N505 1.355 . S
C506 C507 1.363 . S
C506 H518 0.929 . S
C507 C506 1.363 . S
C507 N509 1.375 . S
C507 H525 0.931 . S
C508 N505 1.311 . S
C508 N509 1.347 . S
C508 H519 0.929 . S
N509 C507 1.375 . S
N509 C508 1.347 . S
C510 C513 1.365 . S
C510 N515 1.328 . S
C510 H516 0.929 . S
C511 C512 1.362 . S
C511 C514 1.378 . S
C511 H526 0.929 . S
C512 C511 1.362 . S
C512 C513 1.366 . S
C513 C510 1.365 . S
C513 C512 1.366 . S
C513 H527 0.930 . S
C514 C511 1.378 . S
C514 N515 1.315 . S
C514 H517 0.930 . S
N515 Co495 2.194 . S
N515 C510 1.328 . S
N515 C514 1.315 . S
H516 C510 0.929 . S
H517 C514 0.930 . S
H518 C506 0.929 . S
H519 C508 0.929 . S
O520 Co495 2.351 . S
O520 C523 1.244 . S
O521 Co495 2.155 . S
O521 C523 1.240 . S
O522 Co495 2.096 . S
O522 C503 1.247 . S
C523 O520 1.244 . S
C523 O521 1.240 . S
H524 C498 0.931 . S
H525 C507 0.931 . S
H526 C511 0.929 . S
H527 C513 0.930 . S
H528 C534 0.930 . S
H529 C538 0.930 . S
H530 C543 0.929 . S
H531 C541 0.929 . S
H532 C536 0.929 . S
H533 C542 0.929 . S
C534 H528 0.930 . S
C534 C535 1.367 . S
C534 C542 1.378 . S
C535 C534 1.367 . S
C535 C543 1.433 . S
C536 H532 0.929 . S
C536 C538 1.378 . S
C536 C540 1.350 . S
C537 C540 1.463 . S
C537 C542 1.350 . S
C537 N545 1.427 . S
C538 H529 0.930 . S
C538 C536 1.378 . S
C538 C539 1.367 . S
C539 C538 1.367 . S
C539 C541 1.433 . S
C540 C536 1.350 . S
C540 C537 1.463 . S
C540 N544 1.427 . S
C541 H531 0.929 . S
C541 C539 1.433 . S
C541 N544 1.384 . S
C542 H533 0.929 . S
C542 C534 1.378 . S
C542 C537 1.350 . S
C543 H530 0.929 . S
C543 C535 1.433 . S
C543 N545 1.384 . S
N544 C540 1.427 . S
N544 C541 1.384 . S
N545 C537 1.427 . S
N545 C543 1.384 . S
H546 C552 0.930 . S
H547 C556 0.930 . S
H548 C561 0.929 . S
H549 C559 0.929 . S
H550 C554 0.929 . S
H551 C560 0.929 . S
C552 H546 0.930 . S
C552 C553 1.367 . S
C552 C560 1.378 . S
C553 C552 1.367 . S
C553 C561 1.433 . S
C554 H550 0.929 . S
C554 C556 1.378 . S
C554 C558 1.350 . S
C555 C558 1.463 . S
C555 C560 1.350 . S
C555 N563 1.427 . S
C556 H547 0.930 . S
C556 C554 1.378 . S
C556 C557 1.367 . S
C557 C556 1.367 . S
C557 C559 1.433 . S
C558 C554 1.350 . S
C558 C555 1.463 . S
C558 N562 1.427 . S
C559 H549 0.929 . S
C559 C557 1.433 . S
C559 N562 1.384 . S
C560 H551 0.929 . S
C560 C552 1.378 . S
C560 C555 1.350 . S
C561 H548 0.929 . S
C561 C553 1.433 . S
C561 N563 1.384 . S
N562 C558 1.427 . S
N562 C559 1.384 . S
N563 C555 1.427 . S
N563 C561 1.384 . S
H564 C570 0.930 . S
H565 C574 0.930 . S
H566 C579 0.929 . S
H567 C577 0.929 . S
H568 C572 0.929 . S
H569 C578 0.929 . S
C570 H564 0.930 . S
C570 C571 1.367 . S
C570 C578 1.378 . S
C571 C570 1.367 . S
C571 C579 1.433 . S
C572 H568 0.929 . S
C572 C574 1.378 . S
C572 C576 1.350 . S
C573 C576 1.463 . S
C573 C578 1.350 . S
C573 N581 1.427 . S
C574 H565 0.930 . S
C574 C572 1.378 . S
C574 C575 1.367 . S
C575 C574 1.367 . S
C575 C577 1.433 . S
C576 C572 1.350 . S
C576 C573 1.463 . S
C576 N580 1.427 . S
C577 H567 0.929 . S
C577 C575 1.433 . S
C577 N580 1.384 . S
C578 H569 0.929 . S
C578 C570 1.378 . S
C578 C573 1.350 . S
C579 H566 0.929 . S
C579 C571 1.433 . S
C579 N581 1.384 . S
N580 C576 1.427 . S
N580 C577 1.384 . S
N581 C573 1.427 . S
N581 C579 1.384 . S
H582 C588 0.930 . S
H583 C592 0.930 . S
H584 C597 0.929 . S
H585 C595 0.929 . S
H586 C590 0.929 . S
H587 C596 0.929 . S
C588 H582 0.930 . S
C588 C589 1.367 . S
C588 C596 1.378 . S
C589 C588 1.367 . S
C589 C597 1.433 . S
C590 H586 0.929 . S
C590 C592 1.378 . S
C590 C594 1.350 . S
C591 C594 1.463 . S
C591 C596 1.350 . S
C591 N599 1.427 . S
C592 H583 0.930 . S
C592 C590 1.378 . S
C592 C593 1.367 . S
C593 C592 1.367 . S
C593 C595 1.433 . S
C594 C590 1.350 . S
C594 C591 1.463 . S
C594 N598 1.427 . S
C595 H585 0.929 . S
C595 C593 1.433 . S
C595 N598 1.384 . S
C596 H587 0.929 . S
C596 C588 1.378 . S
C596 C591 1.350 . S
C597 H584 0.929 . S
C597 C589 1.433 . S
C597 N599 1.384 . S
N598 C594 1.427 . S
N598 C595 1.384 . S
N599 C591 1.427 . S
N599 C597 1.384 . S
H600 C606 0.930 . S
H601 C610 0.930 . S
H602 C615 0.929 . S
H603 C613 0.929 . S
H604 C608 0.929 . S
H605 C614 0.929 . S
C606 H600 0.930 . S
C606 C607 1.367 . S
C606 C614 1.378 . S
C607 C606 1.367 . S
C607 C615 1.433 . S
C608 H604 0.929 . S
C608 C610 1.378 . S
C608 C612 1.350 . S
C609 C612 1.463 . S
C609 C614 1.350 . S
C609 N617 1.427 . S
C610 H601 0.930 . S
C610 C608 1.378 . S
C610 C611 1.367 . S
C611 C610 1.367 . S
C611 C613 1.433 . S
C612 C608 1.350 . S
C612 C609 1.463 . S
C612 N616 1.427 . S
C613 H603 0.929 . S
C613 C611 1.433 . S
C613 N616 1.384 . S
C614 H605 0.929 . S
C614 C606 1.378 . S
C614 C609 1.350 . S
C615 H602 0.929 . S
C615 C607 1.433 . S
C615 N617 1.384 . S
N616 C612 1.427 . S
N616 C613 1.384 . S
N617 C609 1.427 . S
N617 C615 1.384 . S
H618 C624 0.930 . S
H619 C628 0.930 . S
H620 C633 0.929 . S
H621 C631 0.929 . S
H622 C626 0.929 . S
H623 C632 0.929 . S
C624 H618 0.930 . S
C624 C625 1.367 . S
C624 C632 1.378 . S
C625 C624 1.367 . S
C625 C633 1.433 . S
C626 H622 0.929 . S
C626 C628 1.378 . S
C626 C630 1.350 . S
C627 C630 1.463 . S
C627 C632 1.350 . S
C627 N635 1.427 . S
C628 H619 0.930 . S
C628 C626 1.378 . S
C628 C629 1.367 . S
C629 C628 1.367 . S
C629 C631 1.433 . S
C630 C626 1.350 . S
C630 C627 1.463 . S
C630 N634 1.427 . S
C631 H621 0.929 . S
C631 C629 1.433 . S
C631 N634 1.384 . S
C632 H623 0.929 . S
C632 C624 1.378 . S
C632 C627 1.350 . S
C633 H620 0.929 . S
C633 C625 1.433 . S
C633 N635 1.384 . S
N634 C630 1.427 . S
N634 C631 1.384 . S
N635 C627 1.427 . S
N635 C633 1.384 . S
H636 C642 0.930 . S
H637 C646 0.930 . S
H638 C651 0.929 . S
H639 C649 0.929 . S
H640 C644 0.929 . S
H641 C650 0.929 . S
C642 H636 0.930 . S
C642 C643 1.367 . S
C642 C650 1.378 . S
C643 C642 1.367 . S
C643 C651 1.433 . S
C644 H640 0.929 . S
C644 C646 1.378 . S
C644 C648 1.350 . S
C645 C648 1.463 . S
C645 C650 1.350 . S
C645 N653 1.427 . S
C646 H637 0.930 . S
C646 C644 1.378 . S
C646 C647 1.367 . S
C647 C646 1.367 . S
C647 C649 1.433 . S
C648 C644 1.350 . S
C648 C645 1.463 . S
C648 N652 1.427 . S
C649 H639 0.929 . S
C649 C647 1.433 . S
C649 N652 1.384 . S
C650 H641 0.929 . S
C650 C642 1.378 . S
C650 C645 1.350 . S
C651 H638 0.929 . S
C651 C643 1.433 . S
C651 N653 1.384 . S
N652 C648 1.427 . S
N652 C649 1.384 . S
N653 C645 1.427 . S
N653 C651 1.384 . S
H654 C660 0.930 . S
H655 C664 0.930 . S
H656 C669 0.929 . S
H657 C667 0.929 . S
H658 C662 0.929 . S
H659 C668 0.929 . S
C660 H654 0.930 . S
C660 C661 1.367 . S
C660 C668 1.378 . S
C661 C660 1.367 . S
C661 C669 1.433 . S
C662 H658 0.929 . S
C662 C664 1.378 . S
C662 C666 1.350 . S
C663 C666 1.463 . S
C663 C668 1.350 . S
C663 N671 1.427 . S
C664 H655 0.930 . S
C664 C662 1.378 . S
C664 C665 1.367 . S
C665 C664 1.367 . S
C665 C667 1.433 . S
C666 C662 1.350 . S
C666 C663 1.463 . S
C666 N670 1.427 . S
C667 H657 0.929 . S
C667 C665 1.433 . S
C667 N670 1.384 . S
C668 H659 0.929 . S
C668 C660 1.378 . S
C668 C663 1.350 . S
C669 H656 0.929 . S
C669 C661 1.433 . S
C669 N671 1.384 . S
N670 C666 1.427 . S
N670 C667 1.384 . S
N671 C663 1.427 . S
N671 C669 1.384 . S
H672 C678 0.930 . S
H673 C682 0.930 . S
H674 C687 0.929 . S
H675 C685 0.929 . S
H676 C680 0.929 . S
H677 C686 0.929 . S
C678 H672 0.930 . S
C678 C679 1.367 1_545 S
C678 C686 1.378 . S
C679 C678 1.367 1_565 S
C679 C687 1.433 . S
C680 H676 0.929 . S
C680 C682 1.378 . S
C680 C684 1.334 1_565 S
C681 C684 1.462 1_566 S
C681 C686 1.334 1_565 S
C681 N689 1.445 . S
C682 H673 0.930 . S
C682 C680 1.378 . S
C682 C683 1.367 1_565 S
C683 C682 1.367 1_545 S
C683 C685 1.433 . S
C684 C680 1.334 1_545 S
C684 C681 1.462 1_544 S
C684 N688 1.445 . S
C685 H675 0.929 . S
C685 C683 1.433 . S
C685 N688 1.384 . S
C686 H677 0.929 . S
C686 C678 1.378 . S
C686 C681 1.334 1_545 S
C687 H674 0.929 . S
C687 C679 1.433 . S
C687 N689 1.384 . S
N688 C684 1.445 . S
N688 C685 1.384 . S
N689 C681 1.445 . S
N689 C687 1.384 . S
H690 C696 0.930 . S
H691 C700 0.930 . S
H692 C705 0.929 . S
H693 C703 0.929 . S
H694 C698 0.929 . S
H695 C704 0.929 . S
C696 H690 0.930 . S
C696 C697 1.367 . S
C696 C704 1.378 . S
C697 C696 1.367 . S
C697 C705 1.433 . S
C698 H694 0.929 . S
C698 C700 1.378 . S
C698 C702 1.350 . S
C699 C702 1.463 1_556 S
C699 C704 1.350 . S
C699 N707 1.415 1_556 S
C700 H691 0.930 . S
C700 C698 1.378 . S
C700 C701 1.367 . S
C701 C700 1.367 . S
C701 C703 1.433 . S
C702 C698 1.350 . S
C702 C699 1.463 1_554 S
C702 N706 1.415 1_554 S
C703 H693 0.929 . S
C703 C701 1.433 . S
C703 N706 1.363 1_554 S
C704 H695 0.929 . S
C704 C696 1.378 . S
C704 C699 1.350 . S
C705 H692 0.929 . S
C705 C697 1.433 . S
C705 N707 1.363 1_556 S
N706 C702 1.415 1_556 S
N706 C703 1.363 1_556 S
N707 C699 1.415 1_554 S
N707 C705 1.363 1_554 S
H708 C714 0.930 . S
H709 C718 0.930 . S
H710 C723 0.929 . S
H711 C721 0.929 . S
H712 C716 0.929 . S
H713 C722 0.929 . S
C714 H708 0.930 . S
C714 C715 1.367 . S
C714 C722 1.378 . S
C715 C714 1.367 . S
C715 C723 1.433 . S
C716 H712 0.929 . S
C716 C718 1.378 . S
C716 C720 1.350 . S
C717 C720 1.463 1_456 S
C717 C722 1.350 . S
C717 N725 1.427 . S
C718 H709 0.930 . S
C718 C716 1.378 . S
C718 C719 1.367 . S
C719 C718 1.367 . S
C719 C721 1.433 . S
C720 C716 1.350 . S
C720 C717 1.463 1_654 S
C720 N724 1.427 . S
C721 H711 0.929 . S
C721 C719 1.433 . S
C721 N724 1.384 . S
C722 H713 0.929 . S
C722 C714 1.378 . S
C722 C717 1.350 . S
C723 H710 0.929 . S
C723 C715 1.433 . S
C723 N725 1.384 . S
N724 C720 1.427 . S
N724 C721 1.384 . S
N725 C717 1.427 . S
N725 C723 1.384 . S
H726 C732 0.930 . S
H727 C736 0.930 . S
H728 C741 0.929 . S
H729 C739 0.929 . S
H730 C734 0.947 . S
H731 C740 0.947 . S
C732 H726 0.930 . S
C732 C733 1.367 . S
C732 C740 1.366 1_556 S
C733 C732 1.367 . S
C733 C741 1.433 1_655 S
C734 H730 0.947 . S
C734 C736 1.366 1_556 S
C734 C738 1.343 1_556 S
C735 C738 1.463 1_646 S
C735 C740 1.343 1_556 S
C735 N743 1.427 1_655 S
C736 H727 0.930 . S
C736 C734 1.366 1_554 S
C736 C737 1.367 . S
C737 C736 1.367 . S
C737 C739 1.433 1_455 S
C738 C734 1.343 1_554 S
C738 C735 1.463 1_464 S
C738 N742 1.427 1_455 S
C739 H729 0.929 . S
C739 C737 1.433 1_655 S
C739 N742 1.384 . S
C740 H731 0.947 . S
C740 C732 1.366 1_554 S
C740 C735 1.343 1_554 S
C741 H728 0.929 . S
C741 C733 1.433 1_455 S
C741 N743 1.384 . S
N742 C738 1.427 1_655 S
N742 C739 1.384 . S
N743 C735 1.427 1_455 S
N743 C741 1.384 . S
H744 C750 0.930 . S
H745 C754 0.930 . S
H746 C759 0.929 . S
H747 C757 0.929 . S
H748 C752 0.929 . S
H749 C758 0.929 . S
C750 H744 0.930 . S
C750 C751 1.367 . S
C750 C758 1.378 . S
C751 C750 1.367 . S
C751 C759 1.433 . S
C752 H748 0.929 . S
C752 C754 1.378 . S
C752 C756 1.350 . S
C753 C756 1.463 . S
C753 C758 1.350 . S
C753 N761 1.427 . S
C754 H745 0.930 . S
C754 C752 1.378 . S
C754 C755 1.367 . S
C755 C754 1.367 . S
C755 C757 1.433 . S
C756 C752 1.350 . S
C756 C753 1.463 . S
C756 N760 1.427 . S
C757 H747 0.929 . S
C757 C755 1.433 . S
C757 N760 1.384 . S
C758 H749 0.929 . S
C758 C750 1.378 . S
C758 C753 1.350 . S
C759 H746 0.929 . S
C759 C751 1.433 . S
C759 N761 1.384 . S
N760 C756 1.427 . S
N760 C757 1.384 . S
N761 C753 1.427 . S
N761 C759 1.384 . S
H762 C768 0.930 . S
H763 C772 0.930 . S
H764 C777 0.929 . S
H765 C775 0.929 . S
H766 C770 0.929 . S
H767 C776 0.929 . S
C768 H762 0.930 . S
C768 C769 1.367 . S
C768 C776 1.378 . S
C769 C768 1.367 . S
C769 C777 1.433 1_655 S
C770 H766 0.929 . S
C770 C772 1.378 . S
C770 C774 1.350 . S
C771 C774 1.463 1_655 S
C771 C776 1.350 . S
C771 N779 1.427 1_655 S
C772 H763 0.930 . S
C772 C770 1.378 . S
C772 C773 1.367 . S
C773 C772 1.367 . S
C773 C775 1.433 1_455 S
C774 C770 1.350 . S
C774 C771 1.463 1_455 S
C774 N778 1.427 1_455 S
C775 H765 0.929 . S
C775 C773 1.433 1_655 S
C775 N778 1.384 . S
C776 H767 0.929 . S
C776 C768 1.378 . S
C776 C771 1.350 . S
C777 H764 0.929 . S
C777 C769 1.433 1_455 S
C777 N779 1.384 . S
N778 C774 1.427 1_655 S
N778 C775 1.384 . S
N779 C771 1.427 1_455 S
N779 C777 1.384 . S
H780 C786 0.930 . S
H781 C790 0.930 . S
H782 C795 0.929 . S
H783 C793 0.929 . S
H784 C788 0.929 . S
H785 C794 0.929 . S
C786 H780 0.930 . S
C786 C787 1.367 . S
C786 C794 1.378 . S
C787 C786 1.367 . S
C787 C795 1.433 1_545 S
C788 H784 0.929 . S
C788 C790 1.378 . S
C788 C792 1.350 . S
C789 C792 1.463 1_645 S
C789 C794 1.350 . S
C789 N797 1.427 1_545 S
C790 H781 0.930 . S
C790 C788 1.378 . S
C790 C791 1.367 . S
C791 C790 1.367 . S
C791 C793 1.433 1_565 S
C792 C788 1.350 . S
C792 C789 1.463 1_465 S
C792 N796 1.427 1_565 S
C793 H783 0.929 . S
C793 C791 1.433 1_545 S
C793 N796 1.384 . S
C794 H785 0.929 . S
C794 C786 1.378 . S
C794 C789 1.350 . S
C795 H782 0.929 . S
C795 C787 1.433 1_565 S
C795 N797 1.384 . S
N796 C792 1.427 1_545 S
N796 C793 1.384 . S
N797 C789 1.427 1_565 S
N797 C795 1.384 . S
H798 C804 0.930 . S
H799 C808 0.930 . S
H800 C813 0.929 . S
H801 C811 0.929 . S
H802 C806 0.929 1_565 S
H803 C812 0.929 1_545 S
C804 H798 0.930 . S
C804 C805 1.367 . S
C804 C812 1.378 . S
C805 C804 1.367 . S
C805 C813 1.433 . S
C806 H802 0.929 1_545 S
C806 C808 1.378 . S
C806 C810 1.350 . S
C807 C810 1.463 1_565 S
C807 C812 1.350 . S
C807 N815 1.427 . S
C808 H799 0.930 . S
C808 C806 1.378 . S
C808 C809 1.367 . S
C809 C808 1.367 . S
C809 C811 1.433 . S
C810 C806 1.350 . S
C810 C807 1.463 1_545 S
C810 N814 1.427 . S
C811 H801 0.929 . S
C811 C809 1.433 . S
C811 N814 1.384 . S
C812 H803 0.929 1_565 S
C812 C804 1.378 . S
C812 C807 1.350 . S
C813 H800 0.929 . S
C813 C805 1.433 . S
C813 N815 1.384 . S
N814 C810 1.427 . S
N814 C811 1.384 . S
N815 C807 1.427 . S
N815 C813 1.384 . S
H816 C822 0.930 . S
H817 C826 0.930 . S
H818 C831 0.929 1_554 S
H819 C829 0.929 . S
H820 C824 0.929 . S
H821 C830 0.929 . S
C822 H816 0.930 . S
C822 C823 1.367 . S
C822 C830 1.378 . S
C823 C822 1.367 . S
C823 C831 1.432 . S
C824 H820 0.929 . S
C824 C826 1.378 . S
C824 C828 1.350 . S
C825 C828 1.463 . S
C825 C830 1.350 1_554 S
C825 N833 1.427 . S
C826 H817 0.930 . S
C826 C824 1.378 . S
C826 C827 1.367 . S
C827 C826 1.367 . S
C827 C829 1.433 . S
C828 C824 1.350 . S
C828 C825 1.463 . S
C828 N832 1.427 . S
C829 H819 0.929 . S
C829 C827 1.433 . S
C829 N832 1.384 . S
C830 H821 0.929 . S
C830 C822 1.378 . S
C830 C825 1.350 1_556 S
C831 H818 0.929 1_556 S
C831 C823 1.432 . S
C831 N833 1.384 1_556 S
N832 C828 1.427 . S
N832 C829 1.384 . S
N833 C825 1.427 . S
N833 C831 1.384 1_554 S
H834 C840 0.930 . S
H835 C844 0.930 . S
H836 C849 0.929 . S
H837 C847 0.929 . S
H838 C842 0.929 . S
H839 C848 0.929 1_554 S
C840 H834 0.930 . S
C840 C841 1.367 . S
C840 C848 1.378 . S
C841 C840 1.367 . S
C841 C849 1.433 . S
C842 H838 0.929 . S
C842 C844 1.378 . S
C842 C846 1.350 . S
C843 C846 1.463 . S
C843 C848 1.350 1_554 S
C843 N851 1.437 . S
C844 H835 0.930 . S
C844 C842 1.378 . S
C844 C845 1.367 . S
C845 C844 1.367 . S
C845 C847 1.433 . S
C846 C842 1.350 . S
C846 C843 1.463 . S
C846 N850 1.427 . S
C847 H837 0.929 . S
C847 C845 1.433 . S
C847 N850 1.384 . S
C848 H839 0.929 1_556 S
C848 C840 1.378 . S
C848 C843 1.350 1_556 S
C849 H836 0.929 . S
C849 C841 1.433 . S
C849 N851 1.360 1_556 S
N850 C846 1.427 . S
N850 C847 1.384 . S
N851 C843 1.437 . S
N851 C849 1.360 1_554 S
H852 C858 0.930 . S
H853 C862 0.930 . S
H854 C867 0.929 . S
H855 C865 0.929 . S
H856 C860 0.929 . S
H857 C866 0.929 . S
C858 H852 0.930 . S
C858 C859 1.367 . S
C858 C866 1.378 . S
C859 C858 1.367 . S
C859 C867 1.433 . S
C860 H856 0.929 . S
C860 C862 1.378 . S
C860 C864 1.350 . S
C861 C864 1.463 . S
C861 C866 1.350 1_554 S
C861 N869 1.427 . S
C862 H853 0.930 . S
C862 C860 1.378 . S
C862 C863 1.367 . S
C863 C862 1.367 . S
C863 C865 1.433 . S
C864 C860 1.350 . S
C864 C861 1.463 . S
C864 N868 1.427 . S
C865 H855 0.929 . S
C865 C863 1.433 . S
C865 N868 1.384 . S
C866 H857 0.929 . S
C866 C858 1.378 . S
C866 C861 1.350 1_556 S
C867 H854 0.929 . S
C867 C859 1.433 . S
C867 N869 1.384 1_556 S
N868 C864 1.427 . S
N868 C865 1.384 . S
N869 C861 1.427 . S
N869 C867 1.384 1_554 S
H870 C876 0.930 . S
H871 C880 0.930 . S
H872 C885 0.929 . S
H873 C883 0.929 . S
H874 C878 0.929 . S
H875 C884 0.929 . S
C876 H870 0.930 . S
C876 C877 1.367 . S
C876 C884 1.378 . S
C877 C876 1.367 . S
C877 C885 1.433 . S
C878 H874 0.929 . S
C878 C880 1.378 . S
C878 C882 1.350 . S
C879 C882 1.463 . S
C879 C884 1.350 1_554 S
C879 N887 1.427 . S
C880 H871 0.930 . S
C880 C878 1.378 . S
C880 C881 1.367 . S
C881 C880 1.367 . S
C881 C883 1.433 . S
C882 C878 1.350 . S
C882 C879 1.463 . S
C882 N886 1.427 . S
C883 H873 0.929 . S
C883 C881 1.433 . S
C883 N886 1.384 . S
C884 H875 0.929 . S
C884 C876 1.378 . S
C884 C879 1.350 1_556 S
C885 H872 0.929 . S
C885 C877 1.433 . S
C885 N887 1.384 1_556 S
N886 C882 1.427 . S
N886 C883 1.384 . S
N887 C879 1.427 . S
N887 C885 1.384 1_554 S
H888 C894 0.930 . S
H889 C898 0.930 . S
H890 C903 0.929 . S
H891 C901 0.929 . S
H892 C896 0.929 . S
H893 C902 0.929 . S
C894 H888 0.930 . S
C894 C895 1.367 . S
C894 C902 1.378 . S
C895 C894 1.367 . S
C895 C903 1.433 . S
C896 H892 0.929 . S
C896 C898 1.378 . S
C896 C900 1.350 . S
C897 C900 1.463 . S
C897 C902 1.350 . S
C897 N905 1.427 . S
C898 H889 0.930 . S
C898 C896 1.378 . S
C898 C899 1.367 . S
C899 C898 1.367 . S
C899 C901 1.433 . S
C900 C896 1.350 . S
C900 C897 1.463 . S
C900 N904 1.427 . S
C901 H891 0.929 . S
C901 C899 1.433 . S
C901 N904 1.384 . S
C902 H893 0.929 . S
C902 C894 1.378 . S
C902 C897 1.350 . S
C903 H890 0.929 . S
C903 C895 1.433 . S
C903 N905 1.384 . S
N904 C900 1.427 . S
N904 C901 1.384 . S
N905 C897 1.427 . S
N905 C903 1.384 . S
H906 C912 0.930 . S
H907 C916 0.930 . S
H908 C921 0.929 . S
H909 C919 0.929 . S
H910 C914 0.929 . S
H911 C920 0.929 . S
C912 H906 0.930 . S
C912 C913 1.367 . S
C912 C920 1.378 . S
C913 C912 1.367 . S
C913 C921 1.433 . S
C914 H910 0.929 . S
C914 C916 1.378 . S
C914 C918 1.350 . S
C915 C918 1.463 . S
C915 C920 1.350 . S
C915 N923 1.427 . S
C916 H907 0.930 . S
C916 C914 1.378 . S
C916 C917 1.367 . S
C917 C916 1.367 . S
C917 C919 1.433 . S
C918 C914 1.350 . S
C918 C915 1.463 . S
C918 N922 1.427 . S
C919 H909 0.929 . S
C919 C917 1.433 . S
C919 N922 1.384 . S
C920 H911 0.929 . S
C920 C912 1.378 . S
C920 C915 1.350 . S
C921 H908 0.929 . S
C921 C913 1.433 . S
C921 N923 1.384 . S
N922 C918 1.427 . S
N922 C919 1.384 . S
N923 C915 1.427 . S
N923 C921 1.384 . S
H924 C930 0.930 . S
H925 C934 0.930 . S
H926 C939 0.929 . S
H927 C937 0.929 . S
H928 C932 0.929 . S
H929 C938 0.929 . S
C930 H924 0.930 . S
C930 C931 1.367 . S
C930 C938 1.378 . S
C931 C930 1.367 . S
C931 C939 1.433 . S
C932 H928 0.929 . S
C932 C934 1.378 . S
C932 C936 1.350 . S
C933 C936 1.463 . S
C933 C938 1.350 . S
C933 N941 1.427 . S
C934 H925 0.930 . S
C934 C932 1.378 . S
C934 C935 1.367 . S
C935 C934 1.367 . S
C935 C937 1.433 . S
C936 C932 1.350 . S
C936 C933 1.463 . S
C936 N940 1.427 . S
C937 H927 0.929 . S
C937 C935 1.433 . S
C937 N940 1.384 . S
C938 H929 0.929 . S
C938 C930 1.378 . S
C938 C933 1.350 . S
C939 H926 0.929 . S
C939 C931 1.433 . S
C939 N941 1.384 . S
N940 C936 1.427 . S
N940 C937 1.384 . S
N941 C933 1.427 . S
N941 C939 1.384 . S
H942 C948 0.930 . S
H943 C952 0.930 . S
H944 C957 0.929 . S
H945 C955 0.929 . S
H946 C950 0.929 . S
H947 C956 0.929 . S
C948 H942 0.930 . S
C948 C949 1.367 . S
C948 C956 1.378 . S
C949 C948 1.367 . S
C949 C957 1.433 . S
C950 H946 0.929 . S
C950 C952 1.378 . S
C950 C954 1.350 . S
C951 C954 1.463 . S
C951 C956 1.350 . S
C951 N959 1.427 . S
C952 H943 0.930 . S
C952 C950 1.378 . S
C952 C953 1.367 . S
C953 C952 1.367 . S
C953 C955 1.433 . S
C954 C950 1.350 . S
C954 C951 1.463 . S
C954 N958 1.427 . S
C955 H945 0.929 . S
C955 C953 1.433 . S
C955 N958 1.384 . S
C956 H947 0.929 . S
C956 C948 1.378 . S
C956 C951 1.350 . S
C957 H944 0.929 . S
C957 C949 1.433 . S
C957 N959 1.384 . S
N958 C954 1.427 . S
N958 C955 1.384 . S
N959 C951 1.427 . S
N959 C957 1.384 . S
H960 C966 0.930 . S
H961 C970 0.930 . S
H962 C975 0.929 . S
H963 C973 0.929 . S
H964 C968 0.929 . S
H965 C974 0.929 . S
C966 H960 0.930 . S
C966 C967 1.367 . S
C966 C974 1.378 . S
C967 C966 1.367 . S
C967 C975 1.433 . S
C968 H964 0.929 . S
C968 C970 1.378 . S
C968 C972 1.350 . S
C969 C972 1.463 . S
C969 C974 1.350 1_556 S
C969 N977 1.427 . S
C970 H961 0.930 . S
C970 C968 1.378 . S
C970 C971 1.367 . S
C971 C970 1.367 . S
C971 C973 1.433 . S
C972 C968 1.350 . S
C972 C969 1.463 . S
C972 N976 1.427 . S
C973 H963 0.929 . S
C973 C971 1.433 . S
C973 N976 1.384 . S
C974 H965 0.929 . S
C974 C966 1.378 . S
C974 C969 1.350 1_554 S
C975 H962 0.929 . S
C975 C967 1.433 . S
C975 N977 1.384 1_554 S
N976 C972 1.427 . S
N976 C973 1.384 . S
N977 C969 1.427 . S
N977 C975 1.384 1_556 S
H978 C984 0.925 1_556 S
H979 C988 0.930 . S
H980 C993 0.929 . S
H981 C991 0.929 . S
H982 C986 0.929 1_554 S
H983 C992 0.929 . S
C984 H978 0.925 1_554 S
C984 C985 1.385 . S
C984 C992 1.366 1_554 S
C985 C984 1.385 . S
C985 C993 1.433 . S
C986 H982 0.929 1_556 S
C986 C988 1.378 . S
C986 C990 1.350 . S
C987 C990 1.463 . S
C987 C992 1.350 . S
C987 N995 1.427 1_556 S
C988 H979 0.930 . S
C988 C986 1.378 . S
C988 C989 1.367 . S
C989 C988 1.367 . S
C989 C991 1.433 . S
C990 C986 1.350 . S
C990 C987 1.463 . S
C990 N994 1.427 . S
C991 H981 0.929 . S
C991 C989 1.433 . S
C991 N994 1.384 . S
C992 H983 0.929 . S
C992 C984 1.366 1_556 S
C992 C987 1.350 . S
C993 H980 0.929 . S
C993 C985 1.433 . S
C993 N995 1.384 . S
N994 C990 1.427 . S
N994 C991 1.384 . S
N995 C987 1.427 1_554 S
N995 C993 1.384 . S
H996 C1002 0.930 1_556 S
H997 C1006 0.930 . S
H998 C1011 0.929 . S
H999 C1009 0.929 . S
H1000 C1004 0.937 . S
H1001 C1010 0.929 . S
C1002 H996 0.930 1_554 S
C1002 C1003 1.367 . S
C1002 C1010 1.378 1_554 S
C1003 C1002 1.367 . S
C1003 C1011 1.433 . S
C1004 H1000 0.937 . S
C1004 C1006 1.378 . S
C1004 C1008 1.350 . S
C1005 C1008 1.463 . S
C1005 C1010 1.350 . S
C1005 N1013 1.427 1_556 S
C1006 H997 0.930 . S
C1006 C1004 1.378 . S
C1006 C1007 1.367 . S
C1007 C1006 1.367 . S
C1007 C1009 1.433 . S
C1008 C1004 1.350 . S
C1008 C1005 1.463 . S
C1008 N1012 1.427 . S
C1009 H999 0.929 . S
C1009 C1007 1.433 . S
C1009 N1012 1.384 . S
C1010 H1001 0.929 . S
C1010 C1002 1.378 1_556 S
C1010 C1005 1.350 . S
C1011 H998 0.929 . S
C1011 C1003 1.433 . S
C1011 N1013 1.384 . S
N1012 C1008 1.427 . S
N1012 C1009 1.384 . S
N1013 C1005 1.427 1_554 S
N1013 C1011 1.384 . S
H1014 C1020 0.930 1_556 S
H1015 C1024 0.930 . S
H1016 C1029 0.929 . S
H1017 C1027 0.929 . S
H1018 C1022 0.933 1_554 S
H1019 C1028 0.929 . S
C1020 H1014 0.930 1_554 S
C1020 C1021 1.367 . S
C1020 C1028 1.378 1_554 S
C1021 C1020 1.367 . S
C1021 C1029 1.433 . S
C1022 H1018 0.933 1_556 S
C1022 C1024 1.378 . S
C1022 C1026 1.350 . S
C1023 C1026 1.463 . S
C1023 C1028 1.350 . S
C1023 N1031 1.427 1_556 S
C1024 H1015 0.930 . S
C1024 C1022 1.378 . S
C1024 C1025 1.367 . S
C1025 C1024 1.367 . S
C1025 C1027 1.433 . S
C1026 C1022 1.350 . S
C1026 C1023 1.463 . S
C1026 N1030 1.427 . S
C1027 H1017 0.929 . S
C1027 C1025 1.433 . S
C1027 N1030 1.384 . S
C1028 H1019 0.929 . S
C1028 C1020 1.378 1_556 S
C1028 C1023 1.350 . S
C1029 H1016 0.929 . S
C1029 C1021 1.433 . S
C1029 N1031 1.384 . S
N1030 C1026 1.427 . S
N1030 C1027 1.384 . S
N1031 C1023 1.427 1_554 S
N1031 C1029 1.384 . S
H1032 C1038 0.930 . S
H1033 C1042 0.930 . S
H1034 C1047 0.929 . S
H1035 C1045 0.929 . S
H1036 C1040 0.929 . S
H1037 C1046 0.929 . S
C1038 H1032 0.930 . S
C1038 C1039 1.367 . S
C1038 C1046 1.378 . S
C1039 C1038 1.367 . S
C1039 C1047 1.433 . S
C1040 H1036 0.929 . S
C1040 C1042 1.378 . S
C1040 C1044 1.350 . S
C1041 C1044 1.463 . S
C1041 C1046 1.350 . S
C1041 N1049 1.427 . S
C1042 H1033 0.930 . S
C1042 C1040 1.378 . S
C1042 C1043 1.367 . S
C1043 C1042 1.367 . S
C1043 C1045 1.433 . S
C1044 C1040 1.350 . S
C1044 C1041 1.463 . S
C1044 N1048 1.427 . S
C1045 H1035 0.929 . S
C1045 C1043 1.433 . S
C1045 N1048 1.384 . S
C1046 H1037 0.929 . S
C1046 C1038 1.378 . S
C1046 C1041 1.350 . S
C1047 H1034 0.929 . S
C1047 C1039 1.433 . S
C1047 N1049 1.384 . S
N1048 C1044 1.427 . S
N1048 C1045 1.384 . S
N1049 C1041 1.427 . S
N1049 C1047 1.384 . S
H1050 C1056 0.930 . S
H1051 C1060 0.930 . S
H1052 C1065 0.929 . S
H1053 C1063 0.929 . S
H1054 C1058 0.929 . S
H1055 C1064 0.929 . S
C1056 H1050 0.930 . S
C1056 C1057 1.367 . S
C1056 C1064 1.378 . S
C1057 C1056 1.367 . S
C1057 C1065 1.433 . S
C1058 H1054 0.929 . S
C1058 C1060 1.378 . S
C1058 C1062 1.350 . S
C1059 C1062 1.463 . S
C1059 C1064 1.350 . S
C1059 N1067 1.427 . S
C1060 H1051 0.930 . S
C1060 C1058 1.378 . S
C1060 C1061 1.367 . S
C1061 C1060 1.367 . S
C1061 C1063 1.433 . S
C1062 C1058 1.350 . S
C1062 C1059 1.463 . S
C1062 N1066 1.427 . S
C1063 H1053 0.929 . S
C1063 C1061 1.433 . S
C1063 N1066 1.384 . S
C1064 H1055 0.929 . S
C1064 C1056 1.378 . S
C1064 C1059 1.350 . S
C1065 H1052 0.929 . S
C1065 C1057 1.433 . S
C1065 N1067 1.384 . S
N1066 C1062 1.427 . S
N1066 C1063 1.384 . S
N1067 C1059 1.427 . S
N1067 C1065 1.384 . S
H1068 C1074 0.930 . S
H1069 C1078 0.930 . S
H1070 C1083 0.929 . S
H1071 C1081 0.929 . S
H1072 C1076 0.929 . S
H1073 C1082 0.929 . S
C1074 H1068 0.930 . S
C1074 C1075 1.367 . S
C1074 C1082 1.378 . S
C1075 C1074 1.367 . S
C1075 C1083 1.433 . S
C1076 H1072 0.929 . S
C1076 C1078 1.378 . S
C1076 C1080 1.350 . S
C1077 C1080 1.463 . S
C1077 C1082 1.350 . S
C1077 N1085 1.427 . S
C1078 H1069 0.930 . S
C1078 C1076 1.378 . S
C1078 C1079 1.367 . S
C1079 C1078 1.367 . S
C1079 C1081 1.433 . S
C1080 C1076 1.350 . S
C1080 C1077 1.463 . S
C1080 N1084 1.427 . S
C1081 H1071 0.929 . S
C1081 C1079 1.433 . S
C1081 N1084 1.384 . S
C1082 H1073 0.929 . S
C1082 C1074 1.378 . S
C1082 C1077 1.350 . S
C1083 H1070 0.929 . S
C1083 C1075 1.433 . S
C1083 N1085 1.384 . S
N1084 C1080 1.427 . S
N1084 C1081 1.384 . S
N1085 C1077 1.427 . S
N1085 C1083 1.384 . S
H1086 C1092 0.930 . S
H1087 C1096 0.930 . S
H1088 C1101 0.929 . S
H1089 C1099 0.929 . S
H1090 C1094 0.929 . S
H1091 C1100 0.929 . S
C1092 H1086 0.930 . S
C1092 C1093 1.367 . S
C1092 C1100 1.378 . S
C1093 C1092 1.367 . S
C1093 C1101 1.433 . S
C1094 H1090 0.929 . S
C1094 C1096 1.378 . S
C1094 C1098 1.350 . S
C1095 C1098 1.463 . S
C1095 C1100 1.350 . S
C1095 N1103 1.427 . S
C1096 H1087 0.930 . S
C1096 C1094 1.378 . S
C1096 C1097 1.367 . S
C1097 C1096 1.367 . S
C1097 C1099 1.433 . S
C1098 C1094 1.350 . S
C1098 C1095 1.463 . S
C1098 N1102 1.427 . S
C1099 H1089 0.929 . S
C1099 C1097 1.433 . S
C1099 N1102 1.384 . S
C1100 H1091 0.929 . S
C1100 C1092 1.378 . S
C1100 C1095 1.350 . S
C1101 H1088 0.929 . S
C1101 C1093 1.433 . S
C1101 N1103 1.384 . S
N1102 C1098 1.427 . S
N1102 C1099 1.384 . S
N1103 C1095 1.427 . S
N1103 C1101 1.384 . S
H1104 C1110 0.930 . S
H1105 C1114 0.930 . S
H1106 C1119 0.929 . S
H1107 C1117 0.929 . S
H1108 C1112 0.929 . S
H1109 C1118 0.929 . S
C1110 H1104 0.930 . S
C1110 C1111 1.367 . S
C1110 C1118 1.378 . S
C1111 C1110 1.367 . S
C1111 C1119 1.433 . S
C1112 H1108 0.929 . S
C1112 C1114 1.378 . S
C1112 C1116 1.350 . S
C1113 C1116 1.463 . S
C1113 C1118 1.350 . S
C1113 N1121 1.427 . S
C1114 H1105 0.930 . S
C1114 C1112 1.378 . S
C1114 C1115 1.367 . S
C1115 C1114 1.367 . S
C1115 C1117 1.433 . S
C1116 C1112 1.350 . S
C1116 C1113 1.463 . S
C1116 N1120 1.427 . S
C1117 H1107 0.929 . S
C1117 C1115 1.433 . S
C1117 N1120 1.384 . S
C1118 H1109 0.929 . S
C1118 C1110 1.378 . S
C1118 C1113 1.350 . S
C1119 H1106 0.929 . S
C1119 C1111 1.433 . S
C1119 N1121 1.384 . S
N1120 C1116 1.427 . S
N1120 C1117 1.384 . S
N1121 C1113 1.427 . S
N1121 C1119 1.384 . S
H1122 C1128 0.930 . S
H1123 C1132 0.930 . S
H1124 C1137 0.929 . S
H1125 C1135 0.929 . S
H1126 C1130 0.929 . S
H1127 C1136 0.929 . S
C1128 H1122 0.930 . S
C1128 C1129 1.367 . S
C1128 C1136 1.378 . S
C1129 C1128 1.367 . S
C1129 C1137 1.433 . S
C1130 H1126 0.929 . S
C1130 C1132 1.378 . S
C1130 C1134 1.350 . S
C1131 C1134 1.463 . S
C1131 C1136 1.350 . S
C1131 N1139 1.427 . S
C1132 H1123 0.930 . S
C1132 C1130 1.378 . S
C1132 C1133 1.367 . S
C1133 C1132 1.367 . S
C1133 C1135 1.433 . S
C1134 C1130 1.350 . S
C1134 C1131 1.463 . S
C1134 N1138 1.427 . S
C1135 H1125 0.929 . S
C1135 C1133 1.433 . S
C1135 N1138 1.384 . S
C1136 H1127 0.929 . S
C1136 C1128 1.378 . S
C1136 C1131 1.350 . S
C1137 H1124 0.929 . S
C1137 C1129 1.433 . S
C1137 N1139 1.384 . S
N1138 C1134 1.427 . S
N1138 C1135 1.384 . S
N1139 C1131 1.427 . S
N1139 C1137 1.384 . S
H1140 C1146 0.930 . S
H1141 C1150 0.930 . S
H1142 C1155 0.929 . S
H1143 C1153 0.929 . S
H1144 C1148 0.929 . S
H1145 C1154 0.929 . S
C1146 H1140 0.930 . S
C1146 C1147 1.367 . S
C1146 C1154 1.378 . S
C1147 C1146 1.367 . S
C1147 C1155 1.433 . S
C1148 H1144 0.929 . S
C1148 C1150 1.378 . S
C1148 C1152 1.350 . S
C1149 C1152 1.463 . S
C1149 C1154 1.350 . S
C1149 N1157 1.427 . S
C1150 H1141 0.930 . S
C1150 C1148 1.378 . S
C1150 C1151 1.367 . S
C1151 C1150 1.367 . S
C1151 C1153 1.433 . S
C1152 C1148 1.350 . S
C1152 C1149 1.463 . S
C1152 N1156 1.427 . S
C1153 H1143 0.929 . S
C1153 C1151 1.433 . S
C1153 N1156 1.384 . S
C1154 H1145 0.929 . S
C1154 C1146 1.378 . S
C1154 C1149 1.350 . S
C1155 H1142 0.929 . S
C1155 C1147 1.433 . S
C1155 N1157 1.384 . S
N1156 C1152 1.427 . S
N1156 C1153 1.384 . S
N1157 C1149 1.427 . S
N1157 C1155 1.384 . S
H1158 C1164 0.930 . S
H1159 C1168 0.930 . S
H1160 C1173 0.929 . S
H1161 C1171 0.929 . S
H1162 C1166 0.929 . S
H1163 C1172 0.929 . S
C1164 H1158 0.930 . S
C1164 C1165 1.367 . S
C1164 C1172 1.378 . S
C1165 C1164 1.367 . S
C1165 C1173 1.433 . S
C1166 H1162 0.929 . S
C1166 C1168 1.378 . S
C1166 C1170 1.350 . S
C1167 C1170 1.463 . S
C1167 C1172 1.350 . S
C1167 N1175 1.427 . S
C1168 H1159 0.930 . S
C1168 C1166 1.378 . S
C1168 C1169 1.367 . S
C1169 C1168 1.367 . S
C1169 C1171 1.433 . S
C1170 C1166 1.350 . S
C1170 C1167 1.463 . S
C1170 N1174 1.427 . S
C1171 H1161 0.929 . S
C1171 C1169 1.433 . S
C1171 N1174 1.384 . S
C1172 H1163 0.929 . S
C1172 C1164 1.378 . S
C1172 C1167 1.350 . S
C1173 H1160 0.929 . S
C1173 C1165 1.433 . S
C1173 N1175 1.384 . S
N1174 C1170 1.427 . S
N1174 C1171 1.384 . S
N1175 C1167 1.427 . S
N1175 C1173 1.384 . S
H1176 C1182 0.930 . S
H1177 C1186 0.930 . S
H1178 C1191 0.929 . S
H1179 C1189 0.929 . S
H1180 C1184 0.929 . S
H1181 C1190 0.929 . S
C1182 H1176 0.930 . S
C1182 C1183 1.367 . S
C1182 C1190 1.378 . S
C1183 C1182 1.367 . S
C1183 C1191 1.433 . S
C1184 H1180 0.929 . S
C1184 C1186 1.378 . S
C1184 C1188 1.350 . S
C1185 C1188 1.463 . S
C1185 C1190 1.350 . S
C1185 N1193 1.427 . S
C1186 H1177 0.930 . S
C1186 C1184 1.378 . S
C1186 C1187 1.367 . S
C1187 C1186 1.367 . S
C1187 C1189 1.433 . S
C1188 C1184 1.350 . S
C1188 C1185 1.463 . S
C1188 N1192 1.427 . S
C1189 H1179 0.929 . S
C1189 C1187 1.433 . S
C1189 N1192 1.384 . S
C1190 H1181 0.929 . S
C1190 C1182 1.378 . S
C1190 C1185 1.350 . S
C1191 H1178 0.929 . S
C1191 C1183 1.433 . S
C1191 N1193 1.384 . S
N1192 C1188 1.427 . S
N1192 C1189 1.384 . S
N1193 C1185 1.427 . S
N1193 C1191 1.384 . S
H1194 C1200 0.930 . S
H1195 C1204 0.930 . S
H1196 C1209 0.929 . S
H1197 C1207 0.929 . S
H1198 C1202 0.929 . S
H1199 C1208 0.929 . S
C1200 H1194 0.930 . S
C1200 C1201 1.367 . S
C1200 C1208 1.378 . S
C1201 C1200 1.367 . S
C1201 C1209 1.433 . S
C1202 H1198 0.929 . S
C1202 C1204 1.378 . S
C1202 C1206 1.350 . S
C1203 C1206 1.463 . S
C1203 C1208 1.350 . S
C1203 N1211 1.427 . S
C1204 H1195 0.930 . S
C1204 C1202 1.378 . S
C1204 C1205 1.367 . S
C1205 C1204 1.367 . S
C1205 C1207 1.433 . S
C1206 C1202 1.350 . S
C1206 C1203 1.463 . S
C1206 N1210 1.427 . S
C1207 H1197 0.929 . S
C1207 C1205 1.433 . S
C1207 N1210 1.384 . S
C1208 H1199 0.929 . S
C1208 C1200 1.378 . S
C1208 C1203 1.350 . S
C1209 H1196 0.929 . S
C1209 C1201 1.433 . S
C1209 N1211 1.384 . S
N1210 C1206 1.427 . S
N1210 C1207 1.384 . S
N1211 C1203 1.427 . S
N1211 C1209 1.384 . S
H1212 C1218 0.930 . S
H1213 C1222 0.930 . S
H1214 C1227 0.929 . S
H1215 C1225 0.929 . S
H1216 C1220 0.929 . S
H1217 C1226 0.929 . S
C1218 H1212 0.930 . S
C1218 C1219 1.367 . S
C1218 C1226 1.378 . S
C1219 C1218 1.367 . S
C1219 C1227 1.433 . S
C1220 H1216 0.929 . S
C1220 C1222 1.378 . S
C1220 C1224 1.350 . S
C1221 C1224 1.463 . S
C1221 C1226 1.350 . S
C1221 N1229 1.427 . S
C1222 H1213 0.930 . S
C1222 C1220 1.378 . S
C1222 C1223 1.367 . S
C1223 C1222 1.367 . S
C1223 C1225 1.433 . S
C1224 C1220 1.350 . S
C1224 C1221 1.463 . S
C1224 N1228 1.427 . S
C1225 H1215 0.929 . S
C1225 C1223 1.433 . S
C1225 N1228 1.384 . S
C1226 H1217 0.929 . S
C1226 C1218 1.378 . S
C1226 C1221 1.350 . S
C1227 H1214 0.929 . S
C1227 C1219 1.433 . S
C1227 N1229 1.384 . S
N1228 C1224 1.427 . S
N1228 C1225 1.384 . S
N1229 C1221 1.427 . S
N1229 C1227 1.384 . S
H1230 C1236 0.930 . S
H1231 C1240 0.930 . S
H1232 C1245 0.929 . S
H1233 C1243 0.929 . S
H1234 C1238 0.929 . S
H1235 C1244 0.929 . S
C1236 H1230 0.930 . S
C1236 C1237 1.367 . S
C1236 C1244 1.378 . S
C1237 C1236 1.367 . S
C1237 C1245 1.433 . S
C1238 H1234 0.929 . S
C1238 C1240 1.378 . S
C1238 C1242 1.350 . S
C1239 C1242 1.463 . S
C1239 C1244 1.350 . S
C1239 N1247 1.427 . S
C1240 H1231 0.930 . S
C1240 C1238 1.378 . S
C1240 C1241 1.367 . S
C1241 C1240 1.367 . S
C1241 C1243 1.433 . S
C1242 C1238 1.350 . S
C1242 C1239 1.463 . S
C1242 N1246 1.427 . S
C1243 H1233 0.929 . S
C1243 C1241 1.433 . S
C1243 N1246 1.384 . S
C1244 H1235 0.929 . S
C1244 C1236 1.378 . S
C1244 C1239 1.350 . S
C1245 H1232 0.929 . S
C1245 C1237 1.433 . S
C1245 N1247 1.384 . S
N1246 C1242 1.427 . S
N1246 C1243 1.384 . S
N1247 C1239 1.427 . S
N1247 C1245 1.384 . S
C535 C8 1.621 . S
C539 C206 1.618 . S
C553 C239 1.627 . S
C557 C41 1.632 . S
C571 C140 1.631 . S
C575 C74 1.626 . S
C589 C173 1.637 . S
C593 C107 1.637 . S
C607 C272 1.629 . S
C611 C470 1.624 . S
C625 C305 1.637 . S
C629 C503 1.636 . S
C643 C404 1.621 . S
C647 C338 1.618 . S
C661 C371 1.635 . S
C665 C437 1.637 . S
C679 N269 2.122 . S
C683 N5 2.122 . S
C697 N302 2.117 . S
C701 N38 2.117 . S
C715 N335 2.121 . S
C719 N71 2.121 . S
C733 N368 2.117 . S
C737 N104 2.117 . S
C751 N401 2.122 . S
C755 N137 2.122 . S
C769 N434 2.115 . S
C773 N170 2.115 . S
C787 N203 2.112 . S
C791 N467 2.112 . S
C805 N236 2.114 . S
C809 N500 2.114 . S
C823 C314 0.698 . S
C827 C28 0.703 . S
C841 C347 0.683 . S
C845 C61 0.710 . S
C859 C380 0.684 . S
C863 C94 0.710 . S
C877 C281 0.686 . S
C881 C127 0.710 . S
C895 C160 0.692 . S
C899 C512 0.711 . S
C913 C193 0.687 . S
C917 C413 0.708 . S
C931 C226 0.704 . S
C935 C446 0.696 . S
C949 C259 0.689 . S
C953 C479 0.706 . S
C967 C50 0.683 . S
C971 C292 0.710 . S
C985 C83 0.700 . S
C989 C325 0.693 . S
C1003 C116 0.708 . S
C1007 C358 0.687 . S
C1021 C17 0.697 . S
C1025 C391 0.695 . S
C1039 C248 0.684 . S
C1043 C424 0.710 . S
C1057 C149 0.683 . S
C1061 C457 0.710 . S
C1075 C182 0.707 . S
C1079 C490 0.696 . S
C1093 C523 0.682 . S
C1097 C215 0.719 . S
C1111 N80 0.606 . S
C1115 N14 0.624 . S
C1129 N113 0.650 . S
C1133 N47 0.604 . S
C1147 N146 0.647 . S
C1151 N212 0.600 . S
C1165 N245 0.639 . S
C1169 N179 0.599 . S
C1183 N278 0.601 . S
C1187 N344 0.633 . S
C1201 N377 0.606 . S
C1205 N311 0.650 . S
C1219 N410 0.627 . S
C1223 N476 0.604 . S
C1237 N443 0.612 . S
C1241 N509 0.617 . S
