# Generated by pormake.
# Topology mer, (4)-cn, num edge types: 1
# Building blocks:
#     Node 0, Type 0, BuildingBlock: NAHDIM_clean_sbu_0, # of connection points: 4
#     Node 1, Type 0, BuildingBlock: NAHDIM_clean_sbu_0, # of connection points: 4
#     Node 2, Type 0, BuildingBlock: NAHDIM_clean_sbu_0, # of connection points: 4
#     Node 3, Type 0, BuildingBlock: NAHDIM_clean_sbu_0, # of connection points: 4
#     Node 4, Type 0, BuildingBlock: NAHDIM_clean_sbu_0, # of connection points: 4
#     Node 5, Type 0, BuildingBlock: NAHDIM_clean_sbu_0, # of connection points: 4
#     Node 6, Type 0, BuildingBlock: NAHDIM_clean_sbu_0, # of connection points: 4
#     Node 7, Type 0, BuildingBlock: NAHDIM_clean_sbu_0, # of connection points: 4
#     Node 8, Type 0, BuildingBlock: NAHDIM_clean_sbu_0, # of connection points: 4
#     Node 9, Type 0, BuildingBlock: NAHDIM_clean_sbu_0, # of connection points: 4
#     Node 10, Type 0, BuildingBlock: NAHDIM_clean_sbu_0, # of connection points: 4
#     Node 11, Type 0, BuildingBlock: NAHDIM_clean_sbu_0, # of connection points: 4
#     Node 12, Type 0, BuildingBlock: NAHDIM_clean_sbu_0, # of connection points: 4
#     Node 13, Type 0, BuildingBlock: NAHDIM_clean_sbu_0, # of connection points: 4
#     Node 14, Type 0, BuildingBlock: NAHDIM_clean_sbu_0, # of connection points: 4
#     Node 15, Type 0, BuildingBlock: NAHDIM_clean_sbu_0, # of connection points: 4
#     Node 16, Type 0, BuildingBlock: NAHDIM_clean_sbu_0, # of connection points: 4
#     Node 17, Type 0, BuildingBlock: NAHDIM_clean_sbu_0, # of connection points: 4
#     Node 18, Type 0, BuildingBlock: NAHDIM_clean_sbu_0, # of connection points: 4
#     Node 19, Type 0, BuildingBlock: NAHDIM_clean_sbu_0, # of connection points: 4
#     Node 20, Type 0, BuildingBlock: NAHDIM_clean_sbu_0, # of connection points: 4
#     Node 21, Type 0, BuildingBlock: NAHDIM_clean_sbu_0, # of connection points: 4
#     Node 22, Type 0, BuildingBlock: NAHDIM_clean_sbu_0, # of connection points: 4
#     Node 23, Type 0, BuildingBlock: NAHDIM_clean_sbu_0, # of connection points: 4
#     Node 24, Type 0, BuildingBlock: NAHDIM_clean_sbu_0, # of connection points: 4
#     Node 25, Type 0, BuildingBlock: NAHDIM_clean_sbu_0, # of connection points: 4
#     Node 26, Type 0, BuildingBlock: NAHDIM_clean_sbu_0, # of connection points: 4
#     Node 27, Type 0, BuildingBlock: NAHDIM_clean_sbu_0, # of connection points: 4
#     Node 28, Type 0, BuildingBlock: NAHDIM_clean_sbu_0, # of connection points: 4
#     Node 29, Type 0, BuildingBlock: NAHDIM_clean_sbu_0, # of connection points: 4
#     Node 30, Type 0, BuildingBlock: NAHDIM_clean_sbu_0, # of connection points: 4
#     Node 31, Type 0, BuildingBlock: NAHDIM_clean_sbu_0, # of connection points: 4
#     Edge 32, Type (0, 0), BuildingBlock: ZUJKAS_clean_linker_0, # of connection points: 2
#     Edge 33, Type (0, 0), BuildingBlock: ZUJKAS_clean_linker_0, # of connection points: 2
#     Edge 34, Type (0, 0), BuildingBlock: ZUJKAS_clean_linker_0, # of connection points: 2
#     Edge 35, Type (0, 0), BuildingBlock: ZUJKAS_clean_linker_0, # of connection points: 2
#     Edge 36, Type (0, 0), BuildingBlock: ZUJKAS_clean_linker_0, # of connection points: 2
#     Edge 37, Type (0, 0), BuildingBlock: ZUJKAS_clean_linker_0, # of connection points: 2
#     Edge 38, Type (0, 0), BuildingBlock: ZUJKAS_clean_linker_0, # of connection points: 2
#     Edge 39, Type (0, 0), BuildingBlock: ZUJKAS_clean_linker_0, # of connection points: 2
#     Edge 40, Type (0, 0), BuildingBlock: ZUJKAS_clean_linker_0, # of connection points: 2
#     Edge 41, Type (0, 0), BuildingBlock: ZUJKAS_clean_linker_0, # of connection points: 2
#     Edge 42, Type (0, 0), BuildingBlock: ZUJKAS_clean_linker_0, # of connection points: 2
#     Edge 43, Type (0, 0), BuildingBlock: ZUJKAS_clean_linker_0, # of connection points: 2
#     Edge 44, Type (0, 0), BuildingBlock: ZUJKAS_clean_linker_0, # of connection points: 2
#     Edge 45, Type (0, 0), BuildingBlock: ZUJKAS_clean_linker_0, # of connection points: 2
#     Edge 46, Type (0, 0), BuildingBlock: ZUJKAS_clean_linker_0, # of connection points: 2
#     Edge 47, Type (0, 0), BuildingBlock: ZUJKAS_clean_linker_0, # of connection points: 2
#     Edge 48, Type (0, 0), BuildingBlock: ZUJKAS_clean_linker_0, # of connection points: 2
#     Edge 49, Type (0, 0), BuildingBlock: ZUJKAS_clean_linker_0, # of connection points: 2
#     Edge 50, Type (0, 0), BuildingBlock: ZUJKAS_clean_linker_0, # of connection points: 2
#     Edge 51, Type (0, 0), BuildingBlock: ZUJKAS_clean_linker_0, # of connection points: 2
#     Edge 52, Type (0, 0), BuildingBlock: ZUJKAS_clean_linker_0, # of connection points: 2
#     Edge 53, Type (0, 0), BuildingBlock: ZUJKAS_clean_linker_0, # of connection points: 2
#     Edge 54, Type (0, 0), BuildingBlock: ZUJKAS_clean_linker_0, # of connection points: 2
#     Edge 55, Type (0, 0), BuildingBlock: ZUJKAS_clean_linker_0, # of connection points: 2
#     Edge 56, Type (0, 0), BuildingBlock: ZUJKAS_clean_linker_0, # of connection points: 2
#     Edge 57, Type (0, 0), BuildingBlock: ZUJKAS_clean_linker_0, # of connection points: 2
#     Edge 58, Type (0, 0), BuildingBlock: ZUJKAS_clean_linker_0, # of connection points: 2
#     Edge 59, Type (0, 0), BuildingBlock: ZUJKAS_clean_linker_0, # of connection points: 2
#     Edge 60, Type (0, 0), BuildingBlock: ZUJKAS_clean_linker_0, # of connection points: 2
#     Edge 61, Type (0, 0), BuildingBlock: ZUJKAS_clean_linker_0, # of connection points: 2
#     Edge 62, Type (0, 0), BuildingBlock: ZUJKAS_clean_linker_0, # of connection points: 2
#     Edge 63, Type (0, 0), BuildingBlock: ZUJKAS_clean_linker_0, # of connection points: 2
#     Edge 64, Type (0, 0), BuildingBlock: ZUJKAS_clean_linker_0, # of connection points: 2
#     Edge 65, Type (0, 0), BuildingBlock: ZUJKAS_clean_linker_0, # of connection points: 2
#     Edge 66, Type (0, 0), BuildingBlock: ZUJKAS_clean_linker_0, # of connection points: 2
#     Edge 67, Type (0, 0), BuildingBlock: ZUJKAS_clean_linker_0, # of connection points: 2
#     Edge 68, Type (0, 0), BuildingBlock: ZUJKAS_clean_linker_0, # of connection points: 2
#     Edge 69, Type (0, 0), BuildingBlock: ZUJKAS_clean_linker_0, # of connection points: 2
#     Edge 70, Type (0, 0), BuildingBlock: ZUJKAS_clean_linker_0, # of connection points: 2
#     Edge 71, Type (0, 0), BuildingBlock: ZUJKAS_clean_linker_0, # of connection points: 2
#     Edge 72, Type (0, 0), BuildingBlock: ZUJKAS_clean_linker_0, # of connection points: 2
#     Edge 73, Type (0, 0), BuildingBlock: ZUJKAS_clean_linker_0, # of connection points: 2
#     Edge 74, Type (0, 0), BuildingBlock: ZUJKAS_clean_linker_0, # of connection points: 2
#     Edge 75, Type (0, 0), BuildingBlock: ZUJKAS_clean_linker_0, # of connection points: 2
#     Edge 76, Type (0, 0), BuildingBlock: ZUJKAS_clean_linker_0, # of connection points: 2
#     Edge 77, Type (0, 0), BuildingBlock: ZUJKAS_clean_linker_0, # of connection points: 2
#     Edge 78, Type (0, 0), BuildingBlock: ZUJKAS_clean_linker_0, # of connection points: 2
#     Edge 79, Type (0, 0), BuildingBlock: ZUJKAS_clean_linker_0, # of connection points: 2
#     Edge 80, Type (0, 0), BuildingBlock: ZUJKAS_clean_linker_0, # of connection points: 2
#     Edge 81, Type (0, 0), BuildingBlock: ZUJKAS_clean_linker_0, # of connection points: 2
#     Edge 82, Type (0, 0), BuildingBlock: ZUJKAS_clean_linker_0, # of connection points: 2
#     Edge 83, Type (0, 0), BuildingBlock: ZUJKAS_clean_linker_0, # of connection points: 2
#     Edge 84, Type (0, 0), BuildingBlock: ZUJKAS_clean_linker_0, # of connection points: 2
#     Edge 85, Type (0, 0), BuildingBlock: ZUJKAS_clean_linker_0, # of connection points: 2
#     Edge 86, Type (0, 0), BuildingBlock: ZUJKAS_clean_linker_0, # of connection points: 2
#     Edge 87, Type (0, 0), BuildingBlock: ZUJKAS_clean_linker_0, # of connection points: 2
#     Edge 88, Type (0, 0), BuildingBlock: ZUJKAS_clean_linker_0, # of connection points: 2
#     Edge 89, Type (0, 0), BuildingBlock: ZUJKAS_clean_linker_0, # of connection points: 2
#     Edge 90, Type (0, 0), BuildingBlock: ZUJKAS_clean_linker_0, # of connection points: 2
#     Edge 91, Type (0, 0), BuildingBlock: ZUJKAS_clean_linker_0, # of connection points: 2
#     Edge 92, Type (0, 0), BuildingBlock: ZUJKAS_clean_linker_0, # of connection points: 2
#     Edge 93, Type (0, 0), BuildingBlock: ZUJKAS_clean_linker_0, # of connection points: 2
#     Edge 94, Type (0, 0), BuildingBlock: ZUJKAS_clean_linker_0, # of connection points: 2
#     Edge 95, Type (0, 0), BuildingBlock: ZUJKAS_clean_linker_0, # of connection points: 2
# Relax obj value: 0.160
# Max RMSD: 0.165
# Mean RMSD: 0.152
data_MOF--net-mer--node1-NAHDIM_clean_sbu_0--edge1-ZUJKAS_clean_linker_0
_symmetry_space_group_name_H-M    P1
_symmetry_Int_Tables_number       1
_symmetry_cell_setting            triclinic
loop_
_symmetry_equiv_pos_as_xyz
'x, y, z'
_cell_length_a     89.248274
_cell_length_b     87.258608
_cell_length_c     57.242247
_cell_angle_alpha  89.992999
_cell_angle_beta   90.010473
_cell_angle_gamma 89.998012
loop_
_atom_site_label
_atom_site_type_symbol
_atom_site_fract_x
_atom_site_fract_y
_atom_site_fract_z
_atom_type_partial_charge
C0 C 0.06841 0.24526 0.29618 0.0
O1 O 0.07828 0.24522 0.27916 0.0
O2 O 0.10394 0.26518 0.30793 0.0
Zn3 Zn 0.09461 0.24781 0.32559 0.0
O4 O 0.09634 0.25151 0.3601 0.0
C5 C 0.11183 0.2259 0.2985 0.0
O6 O 0.11103 0.23644 0.28215 0.0
O7 O 0.07291 0.24611 0.31719 0.0
C8 C 0.09323 0.2404 0.3736 0.0
O9 O 0.08895 0.22731 0.36442 0.0
C10 C 0.09733 0.27796 0.30532 0.0
O11 O 0.08408 0.28004 0.31481 0.0
O12 O 0.10546 0.22825 0.31802 0.0
C13 C 0.6826 0.11911 0.32848 0.0
O14 O 0.68331 0.10422 0.3253 0.0
O15 O 0.7093 0.09236 0.34646 0.0
Zn16 Zn 0.70846 0.11404 0.35822 0.0
O17 O 0.72789 0.12439 0.35042 0.0
C18 C 0.70849 0.10284 0.40567 0.0
O19 O 0.71248 0.08999 0.39547 0.0
O20 O 0.69189 0.12554 0.34218 0.0
C21 C 0.74023 0.1192 0.35814 0.0
O22 O 0.74017 0.10701 0.3716 0.0
C23 C 0.71644 0.08902 0.32794 0.0
O24 O 0.72329 0.09993 0.31629 0.0
O25 O 0.70581 0.11457 0.39316 0.0
C26 C 0.92885 0.74935 0.31837 0.0
O27 O 0.92196 0.73673 0.32481 0.0
O28 O 0.88979 0.74402 0.30912 0.0
Zn29 Zn 0.89987 0.76097 0.32704 0.0
O30 O 0.89839 0.75716 0.36158 0.0
C31 C 0.8872 0.78446 0.29817 0.0
O32 O 0.89234 0.77561 0.28143 0.0
O33 O 0.92152 0.76183 0.31783 0.0
C34 C 0.8858 0.75764 0.37189 0.0
O35 O 0.87369 0.76069 0.35967 0.0
C36 C 0.88655 0.73106 0.31788 0.0
O37 O 0.88983 0.72826 0.33984 0.0
O38 O 0.88948 0.78069 0.31931 0.0
C39 C 0.31042 0.88231 0.31677 0.0
O40 O 0.30886 0.89691 0.31175 0.0
O41 O 0.27955 0.90683 0.32612 0.0
Zn42 Zn 0.28151 0.88576 0.33988 0.0
O43 O 0.26426 0.87293 0.32888 0.0
C44 C 0.27644 0.89866 0.38571 0.0
O45 O 0.27246 0.91073 0.37347 0.0
O46 O 0.30045 0.87561 0.32889 0.0
C47 C 0.25095 0.87574 0.33542 0.0
O48 O 0.24846 0.8873 0.34961 0.0
C49 C 0.27471 0.90901 0.3055 0.0
O50 O 0.27112 0.89716 0.29252 0.0
O51 O 0.28096 0.88673 0.3751 0.0
C52 C 0.07111 0.75039 0.70427 0.0
O53 O 0.08086 0.74506 0.71944 0.0
O54 O 0.1061 0.73343 0.69042 0.0
Zn55 Zn 0.09677 0.7511 0.67348 0.0
O56 O 0.0975 0.7471 0.63897 0.0
C57 C 0.11256 0.77357 0.701 0.0
O58 O 0.10867 0.76454 0.71834 0.0
O59 O 0.07544 0.75378 0.68376 0.0
C60 C 0.11018 0.74719 0.62887 0.0
O61 O 0.12228 0.74972 0.64139 0.0
C62 C 0.10031 0.72013 0.69009 0.0
O63 O 0.08793 0.71783 0.67816 0.0
O64 O 0.10853 0.77018 0.68035 0.0
C65 C 0.31423 0.11922 0.66896 0.0
O66 O 0.31495 0.10418 0.66913 0.0
O67 O 0.28593 0.09272 0.65302 0.0
Zn68 Zn 0.28655 0.1147 0.64276 0.0
O69 O 0.26748 0.12501 0.65252 0.0
C70 C 0.28457 0.10463 0.59502 0.0
O71 O 0.28016 0.09189 0.60511 0.0
O72 O 0.3035 0.1258 0.65836 0.0
C73 C 0.25473 0.11962 0.64706 0.0
O74 O 0.25399 0.10696 0.6347 0.0
C75 C 0.28037 0.08868 0.6725 0.0
O76 O 0.27524 0.0992 0.68683 0.0
O77 O 0.28823 0.11601 0.60767 0.0
C78 C 0.92724 0.24001 0.69867 0.0
O79 O 0.91668 0.23853 0.71451 0.0
O80 O 0.89442 0.2651 0.68584 0.0
Zn81 Zn 0.90226 0.24672 0.66877 0.0
O82 O 0.90085 0.2502 0.63419 0.0
C83 C 0.87718 0.23001 0.68719 0.0
O84 O 0.87249 0.24392 0.69198 0.0
O85 O 0.92362 0.24327 0.67779 0.0
C86 C 0.88845 0.25425 0.62517 0.0
O87 O 0.8768 0.25634 0.63882 0.0
C88 C 0.90214 0.2763 0.69334 0.0
O89 O 0.91664 0.27665 0.68942 0.0
O90 O 0.8898 0.22824 0.67726 0.0
C91 C 0.69804 0.86974 0.68421 0.0
O92 O 0.70734 0.87867 0.69568 0.0
O93 O 0.71955 0.89899 0.65949 0.0
Zn94 Zn 0.71836 0.87724 0.64834 0.0
O95 O 0.73654 0.86593 0.6598 0.0
C96 C 0.71206 0.88703 0.60091 0.0
O97 O 0.70621 0.89904 0.61132 0.0
O98 O 0.70027 0.86737 0.66259 0.0
C99 C 0.74818 0.86441 0.64726 0.0
O100 O 0.74837 0.87036 0.62617 0.0
C101 C 0.73064 0.90752 0.65463 0.0
O102 O 0.74142 0.90217 0.6413 0.0
O103 O 0.71754 0.8763 0.61325 0.0
C104 C 0.91417 0.74355 0.70058 0.0
O105 O 0.90428 0.7382 0.71548 0.0
O106 O 0.87997 0.72471 0.68328 0.0
Zn107 Zn 0.88945 0.74289 0.66766 0.0
O108 O 0.89033 0.73996 0.63289 0.0
C109 C 0.86889 0.76324 0.69173 0.0
O110 O 0.86921 0.75272 0.70815 0.0
O111 O 0.91022 0.7463 0.67967 0.0
C112 C 0.87833 0.74074 0.62099 0.0
O113 O 0.86554 0.74282 0.63189 0.0
C114 C 0.87902 0.71157 0.67385 0.0
O115 O 0.88473 0.7094 0.65296 0.0
O116 O 0.87689 0.76151 0.67357 0.0
C117 C 0.26575 0.92651 0.69085 0.0
O118 O 0.27793 0.91869 0.68591 0.0
O119 O 0.2684 0.88609 0.70127 0.0
Zn120 Zn 0.25318 0.89744 0.68194 0.0
O121 O 0.25813 0.89588 0.64776 0.0
C122 C 0.22851 0.88448 0.70765 0.0
O123 O 0.23722 0.88732 0.72565 0.0
O124 O 0.2532 0.91966 0.69077 0.0
C125 C 0.24884 0.90101 0.63288 0.0
O126 O 0.23621 0.90704 0.64027 0.0
C127 C 0.28056 0.88096 0.69278 0.0
O128 O 0.28349 0.88313 0.67053 0.0
O129 O 0.23293 0.88814 0.68731 0.0
C130 C 0.08417 0.23751 0.70399 0.0
O131 O 0.09394 0.24369 0.71833 0.0
O132 O 0.11686 0.25774 0.68574 0.0
Zn133 Zn 0.10842 0.23896 0.6703 0.0
O134 O 0.10629 0.24299 0.63577 0.0
C135 C 0.13241 0.22037 0.69008 0.0
O136 O 0.13444 0.2321 0.7041 0.0
O137 O 0.08806 0.23445 0.68316 0.0
C138 C 0.11548 0.2375 0.62101 0.0
O139 O 0.12675 0.22912 0.62842 0.0
C140 C 0.12829 0.26434 0.67718 0.0
O141 O 0.13453 0.25866 0.65828 0.0
O142 O 0.1219 0.22079 0.67513 0.0
C143 C 0.73588 0.065 0.71693 0.0
O144 O 0.72494 0.07206 0.72785 0.0
O145 O 0.72538 0.10432 0.71581 0.0
Zn146 Zn 0.74169 0.0949 0.69624 0.0
O147 O 0.7361 0.09636 0.66231 0.0
C148 C 0.76083 0.12014 0.7081 0.0
O149 O 0.74792 0.12659 0.71302 0.0
O150 O 0.74448 0.07261 0.70357 0.0
C151 C 0.73215 0.10885 0.65272 0.0
O152 O 0.73163 0.12142 0.66532 0.0
C153 C 0.7117 0.10401 0.70966 0.0
O154 O 0.7079 0.09668 0.6905 0.0
O155 O 0.76103 0.10635 0.70095 0.0
C156 C 0.91071 0.24082 0.29763 0.0
O157 O 0.90097 0.24886 0.28555 0.0
O158 O 0.87504 0.2544 0.31438 0.0
Zn159 Zn 0.88621 0.2375 0.3306 0.0
O160 O 0.8881 0.24266 0.36465 0.0
C161 C 0.86478 0.21591 0.31216 0.0
O162 O 0.8631 0.22641 0.29593 0.0
O163 O 0.90673 0.23483 0.31689 0.0
C164 C 0.87646 0.24645 0.37605 0.0
O165 O 0.86353 0.24713 0.36512 0.0
C166 C 0.87728 0.26847 0.31882 0.0
O167 O 0.88743 0.2723 0.33438 0.0
O168 O 0.87438 0.218 0.32823 0.0
C169 C 0.72695 0.928 0.30317 0.0
O170 O 0.71636 0.92056 0.31438 0.0
O171 O 0.72516 0.8864 0.28836 0.0
Zn172 Zn 0.73998 0.89881 0.30693 0.0
O173 O 0.73521 0.89767 0.34122 0.0
C174 C 0.76569 0.88726 0.28175 0.0
O175 O 0.75713 0.88949 0.26338 0.0
O176 O 0.73874 0.92083 0.29725 0.0
C177 C 0.73804 0.88585 0.35339 0.0
O178 O 0.74424 0.87389 0.34334 0.0
C179 C 0.71253 0.88248 0.29671 0.0
O180 O 0.709 0.88657 0.31809 0.0
O181 O 0.76072 0.89064 0.30189 0.0
C182 C 0.0869 0.73538 0.31551 0.0
O183 O 0.0918 0.72169 0.32128 0.0
O184 O 0.12531 0.72455 0.31691 0.0
Zn185 Zn 0.11612 0.74349 0.33086 0.0
O186 O 0.11418 0.74081 0.36569 0.0
C187 C 0.1371 0.76323 0.30628 0.0
O188 O 0.13682 0.75242 0.29031 0.0
O189 O 0.09561 0.7468 0.31766 0.0
C190 C 0.12439 0.74537 0.37953 0.0
O191 O 0.13648 0.75181 0.37088 0.0
C192 C 0.13871 0.72087 0.32185 0.0
O193 O 0.14649 0.72968 0.33597 0.0
O194 O 0.12902 0.76186 0.32442 0.0
C195 C 0.2526 0.06778 0.27639 0.0
O196 O 0.25753 0.07734 0.26042 0.0
O197 O 0.26337 0.10689 0.28526 0.0
Zn198 Zn 0.24912 0.09502 0.30546 0.0
O199 O 0.25591 0.09612 0.33889 0.0
C200 C 0.22402 0.11002 0.2839 0.0
O201 O 0.23229 0.10855 0.26505 0.0
O202 O 0.24835 0.07292 0.29606 0.0
C203 C 0.2592 0.10882 0.34845 0.0
O204 O 0.25818 0.1215 0.33616 0.0
C205 C 0.27741 0.10708 0.28885 0.0
O206 O 0.28303 0.09885 0.30595 0.0
O207 O 0.22879 0.10467 0.30315 0.0
C208 C 0.56668 0.74094 0.79715 0.0
O209 O 0.57546 0.74792 0.78212 0.0
O210 O 0.60333 0.75505 0.8061 0.0
Zn211 Zn 0.59375 0.73841 0.82496 0.0
O212 O 0.59517 0.74367 0.85902 0.0
C213 C 0.60657 0.71349 0.79888 0.0
O214 O 0.5996 0.72012 0.78136 0.0
O215 O 0.57216 0.73584 0.81611 0.0
C216 C 0.60781 0.74706 0.86782 0.0
O217 O 0.6197 0.74719 0.85429 0.0
C218 C 0.60063 0.76918 0.80937 0.0
O219 O 0.591 0.77325 0.82557 0.0
O220 O 0.60526 0.71909 0.81926 0.0
C221 C 0.17975 0.61806 0.83871 0.0
O222 O 0.17888 0.60306 0.84019 0.0
O223 O 0.2101 0.59291 0.85063 0.0
Zn224 Zn 0.20811 0.61425 0.86312 0.0
O225 O 0.22674 0.62573 0.85464 0.0
C226 C 0.20316 0.60198 0.9095 0.0
O227 O 0.20044 0.58924 0.89803 0.0
O228 O 0.19083 0.62496 0.84788 0.0
C229 C 0.23947 0.62133 0.86195 0.0
O230 O 0.2403 0.60917 0.87542 0.0
C231 C 0.21434 0.5907 0.82971 0.0
O232 O 0.21714 0.60257 0.81629 0.0
O233 O 0.20622 0.6141 0.89814 0.0
C234 C 0.42627 0.25602 0.79799 0.0
O235 O 0.41748 0.24966 0.78234 0.0
O236 O 0.39131 0.23793 0.80885 0.0
Zn237 Zn 0.39968 0.25554 0.82711 0.0
O238 O 0.39912 0.25057 0.86136 0.0
C239 C 0.37324 0.2726 0.82883 0.0
O240 O 0.36916 0.25977 0.83902 0.0
O241 O 0.42093 0.25969 0.81779 0.0
C242 C 0.40162 0.26134 0.87577 0.0
O243 O 0.40471 0.27508 0.86773 0.0
C244 C 0.39618 0.2243 0.81069 0.0
O245 O 0.40729 0.22139 0.82507 0.0
O246 O 0.38662 0.27388 0.82151 0.0
C247 C 0.80245 0.37204 0.81629 0.0
O248 O 0.78997 0.37323 0.80428 0.0
O249 O 0.78104 0.40704 0.83532 0.0
Zn250 Zn 0.78375 0.38619 0.84971 0.0
O251 O 0.76636 0.3727 0.84117 0.0
C252 C 0.77905 0.3992 0.89548 0.0
O253 O 0.77319 0.41047 0.8833 0.0
O254 O 0.80272 0.37685 0.83723 0.0
C255 C 0.75298 0.37695 0.84503 0.0
O256 O 0.75057 0.39038 0.8547 0.0
C257 C 0.77423 0.40911 0.81606 0.0
O258 O 0.76863 0.39728 0.80489 0.0
O259 O 0.78457 0.38774 0.8848 0.0
C260 C 0.56956 0.24746 0.17649 0.0
O261 O 0.57541 0.23433 0.17001 0.0
O262 O 0.60836 0.23941 0.18629 0.0
Zn263 Zn 0.59952 0.25702 0.1683 0.0
O264 O 0.60148 0.25338 0.13379 0.0
C265 C 0.61351 0.27918 0.19805 0.0
O266 O 0.60825 0.2701 0.21442 0.0
O267 O 0.57783 0.2593 0.177 0.0
C268 C 0.61442 0.25187 0.12483 0.0
O269 O 0.62625 0.25263 0.13845 0.0
C270 C 0.60951 0.22586 0.17836 0.0
O271 O 0.60488 0.22284 0.15707 0.0
O272 O 0.61087 0.27604 0.17678 0.0
C273 C 0.79927 0.62535 0.18374 0.0
O274 O 0.79056 0.61584 0.19524 0.0
O275 O 0.78024 0.5939 0.15758 0.0
Zn276 Zn 0.78034 0.61583 0.14661 0.0
O277 O 0.7613 0.62633 0.15612 0.0
C278 C 0.77927 0.60537 0.09881 0.0
O279 O 0.7751 0.59249 0.10878 0.0
O280 O 0.79728 0.6271 0.16192 0.0
C281 C 0.74908 0.62461 0.14505 0.0
O282 O 0.74873 0.6156 0.12668 0.0
C283 C 0.77076 0.58891 0.1723 0.0
O284 O 0.76067 0.5983 0.1809 0.0
O285 O 0.78233 0.61688 0.11155 0.0
C286 C 0.42627 0.74147 0.20556 0.0
O287 O 0.41654 0.74581 0.22145 0.0
O288 O 0.39162 0.76041 0.19205 0.0
Zn289 Zn 0.40068 0.74281 0.17454 0.0
O290 O 0.40006 0.74744 0.14021 0.0
C291 C 0.38333 0.72062 0.20033 0.0
O292 O 0.38582 0.73001 0.21784 0.0
O293 O 0.42194 0.73948 0.18462 0.0
C294 C 0.38752 0.75061 0.13086 0.0
O295 O 0.37546 0.75095 0.14402 0.0
C296 C 0.39838 0.77315 0.19396 0.0
O297 O 0.41165 0.77482 0.18434 0.0
O298 O 0.38869 0.72376 0.18034 0.0
C299 C 0.18141 0.3805 0.16368 0.0
O300 O 0.1811 0.39555 0.16379 0.0
O301 O 0.21307 0.4047 0.15931 0.0
Zn302 Zn 0.21095 0.38444 0.14318 0.0
O303 O 0.22864 0.3715 0.15181 0.0
C304 C 0.21408 0.39963 0.09864 0.0
O305 O 0.2181 0.41121 0.1119 0.0
O306 O 0.19267 0.37362 0.15502 0.0
C307 C 0.24195 0.37511 0.14619 0.0
O308 O 0.24428 0.38761 0.13392 0.0
C309 C 0.21639 0.40541 0.18087 0.0
O310 O 0.2182 0.39266 0.19273 0.0
O311 O 0.2103 0.38706 0.10818 0.0
C312 C 0.41172 0.24118 0.18814 0.0
O313 O 0.40654 0.22759 0.18242 0.0
O314 O 0.37323 0.23096 0.18495 0.0
Zn315 Zn 0.383 0.24975 0.17154 0.0
O316 O 0.38571 0.24693 0.13683 0.0
C317 C 0.35997 0.26888 0.19262 0.0
O318 O 0.3582 0.25724 0.2069 0.0
O319 O 0.40331 0.2528 0.18564 0.0
C320 C 0.37691 0.25318 0.12221 0.0
O321 O 0.36563 0.26144 0.1299 0.0
C322 C 0.36101 0.22614 0.17625 0.0
O323 O 0.355 0.23363 0.15867 0.0
O324 O 0.3701 0.2683 0.17707 0.0
C325 C 0.77067 0.4267 0.19612 0.0
O326 O 0.78186 0.41965 0.18578 0.0
O327 O 0.77421 0.38514 0.20975 0.0
Zn328 Zn 0.75873 0.39701 0.19202 0.0
O329 O 0.76351 0.3958 0.15778 0.0
C330 C 0.73402 0.38345 0.21739 0.0
O331 O 0.74289 0.38522 0.2355 0.0
O332 O 0.75905 0.41907 0.20145 0.0
C333 C 0.75369 0.39971 0.14287 0.0
O334 O 0.7405 0.40434 0.1502 0.0
C335 C 0.77569 0.37104 0.2048 0.0
O336 O 0.76699 0.36499 0.18873 0.0
O337 O 0.73842 0.38786 0.19739 0.0
C338 C 0.5828 0.74638 0.19684 0.0
O339 O 0.59309 0.75101 0.21166 0.0
O340 O 0.61713 0.76495 0.17973 0.0
Zn341 Zn 0.60692 0.74767 0.16295 0.0
O342 O 0.60564 0.75215 0.12862 0.0
C343 C 0.62707 0.72615 0.18484 0.0
O344 O 0.62666 0.73604 0.20214 0.0
O345 O 0.58629 0.74427 0.17557 0.0
C346 C 0.6176 0.75448 0.11711 0.0
O347 O 0.63051 0.75441 0.12817 0.0
C348 C 0.6165 0.77881 0.17302 0.0
O349 O 0.60853 0.78233 0.15448 0.0
O350 O 0.61922 0.72862 0.16671 0.0
C351 C 0.24394 0.56019 0.22709 0.0
O352 O 0.23807 0.56976 0.24224 0.0
O353 O 0.23349 0.5992 0.21729 0.0
Zn354 Zn 0.2478 0.58716 0.19749 0.0
O355 O 0.24054 0.5875 0.16429 0.0
C356 C 0.27295 0.60269 0.21786 0.0
O357 O 0.26505 0.601 0.23706 0.0
O358 O 0.24894 0.56526 0.2078 0.0
C359 C 0.23895 0.6001 0.15346 0.0
O360 O 0.24218 0.61298 0.16424 0.0
C361 C 0.21943 0.59864 0.21402 0.0
O362 O 0.21404 0.58956 0.19775 0.0
O363 O 0.26795 0.59723 0.19883 0.0
C364 C 0.40757 0.74837 0.80326 0.0
O365 O 0.39913 0.75756 0.7907 0.0
O366 O 0.3719 0.76406 0.81776 0.0
Zn367 Zn 0.38192 0.74678 0.83485 0.0
O368 O 0.38421 0.75201 0.8688 0.0
C369 C 0.3583 0.72664 0.81877 0.0
O370 O 0.35551 0.73789 0.80415 0.0
O371 O 0.40235 0.74256 0.82191 0.0
C372 C 0.37278 0.75382 0.88172 0.0
O373 O 0.35936 0.75276 0.87241 0.0
C374 C 0.37306 0.77803 0.82371 0.0
O375 O 0.38142 0.78169 0.84176 0.0
O376 O 0.36921 0.72782 0.8329 0.0
C377 C 0.22185 0.43194 0.78924 0.0
O378 O 0.20919 0.42524 0.79497 0.0
O379 O 0.21746 0.39052 0.78394 0.0
Zn380 Zn 0.23248 0.40276 0.80228 0.0
O381 O 0.22658 0.40367 0.83617 0.0
C382 C 0.2525 0.37889 0.81035 0.0
O383 O 0.24011 0.37371 0.81993 0.0
O384 O 0.23391 0.42425 0.7902 0.0
C385 C 0.23587 0.40928 0.85065 0.0
O386 O 0.24873 0.41455 0.84289 0.0
C387 C 0.20469 0.38697 0.79215 0.0
O388 O 0.20086 0.39189 0.813 0.0
O389 O 0.2523 0.39197 0.80058 0.0
C390 C 0.58556 0.248 0.80014 0.0
O391 O 0.59369 0.23983 0.78561 0.0
O392 O 0.61982 0.22899 0.8127 0.0
Zn393 Zn 0.6123 0.24784 0.82918 0.0
O394 O 0.61215 0.24451 0.86393 0.0
C395 C 0.63912 0.26389 0.81532 0.0
O396 O 0.64394 0.24994 0.81104 0.0
O397 O 0.59133 0.25265 0.81915 0.0
C398 C 0.62426 0.24285 0.87534 0.0
O399 O 0.63708 0.24291 0.86407 0.0
C400 C 0.61937 0.21571 0.82176 0.0
O401 O 0.61347 0.21393 0.84261 0.0
O402 O 0.6258 0.26578 0.82258 0.0
C403 C 0.75622 0.56766 0.77895 0.0
O404 O 0.76092 0.57675 0.76218 0.0
O405 O 0.76904 0.60618 0.78702 0.0
Zn406 Zn 0.75351 0.59559 0.80657 0.0
O407 O 0.7589 0.5972 0.84053 0.0
C408 C 0.72971 0.61104 0.78198 0.0
O409 O 0.73907 0.61019 0.76431 0.0
O410 O 0.75246 0.57334 0.79852 0.0
C411 C 0.76205 0.60988 0.85027 0.0
O412 O 0.76187 0.62251 0.83778 0.0
C413 C 0.78288 0.6057 0.79219 0.0
O414 O 0.7872 0.59795 0.81067 0.0
O415 O 0.73348 0.60541 0.80158 0.0
H416 H 0.20417 0.11472 0.3195 0.0
H417 H 0.18272 0.13209 0.31988 0.0
H418 H 0.19113 0.14386 0.24788 0.0
H419 H 0.21249 0.12632 0.2472 0.0
H420 H 0.18532 0.16312 0.31235 0.0
H421 H 0.14578 0.13748 0.24849 0.0
H422 H 0.16118 0.12686 0.26104 0.0
H423 H 0.16446 0.1401 0.23753 0.0
C424 C 0.20132 0.1208 0.30361 0.0
C425 C 0.21008 0.11919 0.28334 0.0
C426 C 0.18905 0.13071 0.30386 0.0
C427 C 0.18526 0.13915 0.28386 0.0
C428 C 0.19368 0.13722 0.26337 0.0
H429 H 0.1281 0.21785 0.25984 0.0
H430 H 0.14521 0.19605 0.2558 0.0
C431 C 0.20595 0.12726 0.26307 0.0
C432 C 0.17348 0.15105 0.28521 0.0
H433 H 0.14033 0.16286 0.2614 0.0
C434 C 0.17542 0.16299 0.30135 0.0
C435 C 0.16066 0.15091 0.27068 0.0
C436 C 0.15778 0.13808 0.25359 0.0
C437 C 0.16498 0.17491 0.30318 0.0
C438 C 0.15215 0.17476 0.28871 0.0
C439 C 0.15019 0.16287 0.27248 0.0
C440 C 0.14073 0.18698 0.29026 0.0
C441 C 0.16791 0.18775 0.32025 0.0
C442 C 0.1323 0.18879 0.31073 0.0
C443 C 0.12256 0.20121 0.31313 0.0
C444 C 0.12107 0.21201 0.29504 0.0
C445 C 0.12906 0.20978 0.27414 0.0
C446 C 0.13881 0.19733 0.27177 0.0
H447 H 0.17976 0.18792 0.32622 0.0
H448 H 0.16521 0.19903 0.31231 0.0
H449 H 0.16066 0.18622 0.33582 0.0
H450 H 0.13352 0.18078 0.32507 0.0
H451 H 0.11649 0.20251 0.32939 0.0
H452 H 0.76834 0.1127 0.3745 0.0
H453 H 0.79174 0.126 0.36506 0.0
H454 H 0.76777 0.15617 0.31857 0.0
H455 H 0.74435 0.14298 0.3278 0.0
H456 H 0.79633 0.14292 0.30088 0.0
H457 H 0.80049 0.17093 0.38813 0.0
H458 H 0.79763 0.15052 0.38764 0.0
H459 H 0.78314 0.16302 0.37724 0.0
C460 C 0.76805 0.12213 0.36221 0.0
C461 C 0.75447 0.12687 0.35203 0.0
C462 C 0.78142 0.12971 0.35688 0.0
C463 C 0.7814 0.1421 0.34127 0.0
C464 C 0.76796 0.14662 0.33067 0.0
H465 H 0.83956 0.21098 0.28617 0.0
H466 H 0.82068 0.19113 0.29205 0.0
C467 C 0.75459 0.13911 0.33605 0.0
C468 C 0.79528 0.15075 0.3365 0.0
H469 H 0.81936 0.1765 0.36089 0.0
C470 C 0.80147 0.15019 0.314 0.0
C471 C 0.80192 0.16013 0.35374 0.0
C472 C 0.79546 0.16134 0.37804 0.0
C473 C 0.81413 0.15894 0.30818 0.0
C474 C 0.82049 0.16873 0.32521 0.0
C475 C 0.81449 0.16896 0.34788 0.0
C476 C 0.83278 0.17956 0.3197 0.0
C477 C 0.82059 0.15755 0.28392 0.0
C478 C 0.84583 0.17971 0.33336 0.0
C479 C 0.85655 0.19119 0.33027 0.0
C480 C 0.8544 0.20273 0.31346 0.0
C481 C 0.8416 0.2022 0.29918 0.0
C482 C 0.83083 0.19079 0.3024 0.0
H483 H 0.81783 0.14628 0.27596 0.0
H484 H 0.8157 0.1666 0.27264 0.0
H485 H 0.83296 0.15895 0.28406 0.0
H486 H 0.84752 0.17119 0.34688 0.0
H487 H 0.86632 0.19125 0.34152 0.0
H488 H 0.87409 0.80435 0.32881 0.0
H489 H 0.85612 0.82463 0.31994 0.0
H490 H 0.86062 0.81521 0.24633 0.0
H491 H 0.87853 0.79472 0.25501 0.0
H492 H 0.85783 0.85134 0.29094 0.0
H493 H 0.81554 0.80905 0.25979 0.0
H494 H 0.83197 0.80339 0.27603 0.0
H495 H 0.83355 0.80854 0.24576 0.0
C496 C 0.87138 0.80666 0.3107 0.0
C497 C 0.87761 0.7978 0.29262 0.0
C498 C 0.86114 0.81829 0.30567 0.0
C499 C 0.8569 0.82124 0.28252 0.0
C500 C 0.86359 0.81292 0.26434 0.0
H501 H 0.77893 0.8763 0.24191 0.0
H502 H 0.80256 0.86215 0.23887 0.0
C503 C 0.87385 0.80126 0.26934 0.0
C504 C 0.84483 0.83243 0.27778 0.0
H505 H 0.8082 0.83482 0.26109 0.0
C506 C 0.84702 0.84779 0.28416 0.0
C507 C 0.83078 0.82774 0.26886 0.0
C508 C 0.82769 0.81127 0.26234 0.0
C509 C 0.83538 0.85854 0.28241 0.0
C510 C 0.82114 0.85369 0.27447 0.0
C511 C 0.81915 0.83849 0.26715 0.0
C512 C 0.80779 0.86373 0.2757 0.0
C513 C 0.83838 0.87493 0.28933 0.0
C514 C 0.80294 0.86931 0.2974 0.0
C515 C 0.78948 0.87735 0.29921 0.0
C516 C 0.78053 0.87987 0.27936 0.0
C517 C 0.78557 0.87457 0.25753 0.0
C518 C 0.79906 0.86649 0.25574 0.0
H519 H 0.85045 0.87784 0.28746 0.0
H520 H 0.83169 0.88304 0.27861 0.0
H521 H 0.83529 0.87655 0.30794 0.0
H522 H 0.80931 0.86698 0.31312 0.0
H523 H 0.78592 0.88123 0.3163 0.0
H524 H 0.15922 0.76749 0.27375 0.0
H525 H 0.17807 0.7879 0.27302 0.0
H526 H 0.15775 0.80864 0.33358 0.0
H527 H 0.13889 0.78836 0.33451 0.0
H528 H 0.16686 0.8296 0.29464 0.0
H529 H 0.21129 0.78957 0.3256 0.0
H530 H 0.20039 0.78376 0.30068 0.0
H531 H 0.19159 0.78535 0.32874 0.0
C532 C 0.15866 0.77649 0.28676 0.0
C533 C 0.14764 0.77624 0.30431 0.0
C534 C 0.16945 0.7881 0.28633 0.0
C535 C 0.16933 0.79964 0.30338 0.0
C536 C 0.158 0.79979 0.32031 0.0
H537 H 0.22209 0.87555 0.35141 0.0
H538 H 0.20212 0.85771 0.34083 0.0
C539 C 0.14727 0.78816 0.32084 0.0
C540 C 0.18148 0.81109 0.30454 0.0
H541 H 0.21814 0.81526 0.32003 0.0
C542 C 0.17812 0.82651 0.30001 0.0
C543 C 0.19611 0.80693 0.31151 0.0
C544 C 0.20014 0.79053 0.31708 0.0
C545 C 0.18906 0.83796 0.30241 0.0
C546 C 0.20359 0.83386 0.31012 0.0
C547 C 0.207 0.81838 0.31412 0.0
C548 C 0.2153 0.84543 0.31517 0.0
C549 C 0.18498 0.85429 0.29654 0.0
C550 C 0.22943 0.8443 0.30458 0.0
C551 C 0.24094 0.85433 0.31085 0.0
C552 C 0.23852 0.86569 0.32787 0.0
C553 C 0.22428 0.86699 0.33814 0.0
C554 C 0.21281 0.85687 0.33198 0.0
H555 H 0.17544 0.85478 0.28408 0.0
H556 H 0.18151 0.8603 0.31274 0.0
H557 H 0.19463 0.86053 0.28886 0.0
H558 H 0.23162 0.8355 0.29167 0.0
H559 H 0.25177 0.85306 0.30256 0.0
H560 H 0.12352 0.79368 0.66869 0.0
H561 H 0.14107 0.81472 0.67518 0.0
H562 H 0.14109 0.80512 0.74908 0.0
H563 H 0.12365 0.78386 0.74275 0.0
H564 H 0.13919 0.8412 0.704 0.0
H565 H 0.18558 0.8022 0.73043 0.0
H566 H 0.16879 0.79531 0.71635 0.0
H567 H 0.16845 0.80045 0.74672 0.0
C568 C 0.12718 0.79607 0.68636 0.0
C569 C 0.12231 0.78699 0.70519 0.0
C570 C 0.13718 0.80812 0.69003 0.0
C571 C 0.14251 0.81131 0.71255 0.0
C572 C 0.13728 0.80266 0.73151 0.0
H573 H 0.21699 0.87237 0.74796 0.0
H574 H 0.19468 0.85624 0.75199 0.0
C575 C 0.12728 0.79056 0.72786 0.0
C576 C 0.154 0.82334 0.71583 0.0
H577 H 0.1909 0.82854 0.72929 0.0
C578 C 0.15046 0.83849 0.70972 0.0
C579 C 0.16868 0.81972 0.72337 0.0
C580 C 0.17321 0.80354 0.72945 0.0
C581 C 0.16132 0.85011 0.71055 0.0
C582 C 0.17612 0.84638 0.71728 0.0
C583 C 0.17952 0.83135 0.72419 0.0
C584 C 0.18857 0.85751 0.71546 0.0
C585 C 0.15688 0.86623 0.70405 0.0
C586 C 0.19247 0.86361 0.69362 0.0
C587 C 0.20518 0.87279 0.69124 0.0
C588 C 0.21432 0.87596 0.71067 0.0
C589 C 0.21018 0.87016 0.73267 0.0
C590 C 0.19745 0.86095 0.73501 0.0
H591 H 0.14468 0.86814 0.70658 0.0
H592 H 0.16315 0.8748 0.71454 0.0
H593 H 0.15945 0.8682 0.68532 0.0
H594 H 0.18597 0.86082 0.67821 0.0
H595 H 0.20806 0.87704 0.67404 0.0
H596 H 0.22577 0.11277 0.63524 0.0
H597 H 0.20315 0.12724 0.64529 0.0
H598 H 0.22984 0.15939 0.68452 0.0
H599 H 0.25249 0.14502 0.6747 0.0
H600 H 0.20207 0.14898 0.70701 0.0
H601 H 0.19438 0.17024 0.61605 0.0
H602 H 0.19641 0.14987 0.61961 0.0
H603 H 0.21188 0.16227 0.6262 0.0
C604 C 0.22682 0.12287 0.64611 0.0
C605 C 0.24094 0.12783 0.654 0.0
C606 C 0.2139 0.13112 0.65178 0.0
C607 C 0.2149 0.14443 0.66543 0.0
C608 C 0.22889 0.14914 0.67392 0.0
H609 H 0.15908 0.21818 0.71338 0.0
H610 H 0.1781 0.19824 0.7091 0.0
C611 C 0.2418 0.14095 0.66821 0.0
C612 C 0.20149 0.15385 0.67015 0.0
H613 H 0.1766 0.17796 0.64389 0.0
C614 C 0.19641 0.15527 0.69324 0.0
C615 C 0.19419 0.16198 0.65209 0.0
C616 C 0.1995 0.16117 0.62709 0.0
C617 C 0.18416 0.16469 0.69878 0.0
C618 C 0.17708 0.17312 0.68079 0.0
C619 C 0.18202 0.17145 0.65765 0.0
C620 C 0.16494 0.18428 0.6855 0.0
C621 C 0.17887 0.16542 0.72378 0.0
C622 C 0.15127 0.18311 0.67355 0.0
C623 C 0.14046 0.19458 0.67571 0.0
C624 C 0.14314 0.20747 0.68986 0.0
C625 C 0.15664 0.20836 0.70245 0.0
C626 C 0.16749 0.19691 0.70015 0.0
H627 H 0.18216 0.15499 0.73367 0.0
H628 H 0.18409 0.17544 0.7325 0.0
H629 H 0.1665 0.16672 0.72475 0.0
H630 H 0.14911 0.17348 0.66208 0.0
H631 H 0.13017 0.19353 0.66582 0.0
H632 H 0.76405 0.14981 0.72222 0.0
H633 H 0.78678 0.16538 0.7214 0.0
H634 H 0.81201 0.12664 0.69616 0.0
H635 H 0.78926 0.11094 0.69667 0.0
H636 H 0.81528 0.16095 0.74358 0.0
H637 H 0.81884 0.16036 0.64641 0.0
H638 H 0.80212 0.15464 0.66187 0.0
H639 H 0.81799 0.14202 0.66068 0.0
C640 C 0.77444 0.14455 0.71661 0.0
C641 C 0.77482 0.12917 0.7093 0.0
C642 C 0.78741 0.15346 0.71621 0.0
C643 C 0.80099 0.14719 0.70843 0.0
C644 C 0.80156 0.13172 0.70188 0.0
H645 H 0.88239 0.19974 0.67717 0.0
H646 H 0.8656 0.17801 0.68435 0.0
C647 C 0.78857 0.12277 0.70227 0.0
C648 C 0.81433 0.15714 0.70644 0.0
H649 H 0.83682 0.17487 0.66654 0.0
C650 C 0.82011 0.1639 0.72677 0.0
C651 C 0.82061 0.16087 0.68449 0.0
C652 C 0.81456 0.15421 0.66205 0.0
C653 C 0.83181 0.1746 0.72568 0.0
C654 C 0.83766 0.17882 0.70364 0.0
C655 C 0.8323 0.17159 0.6834 0.0
C656 C 0.84837 0.19163 0.70094 0.0
C657 C 0.83771 0.1814 0.7481 0.0
C658 C 0.84418 0.20645 0.70779 0.0
C659 C 0.85369 0.21885 0.7037 0.0
C660 C 0.86754 0.21668 0.69251 0.0
C661 C 0.8718 0.20178 0.68587 0.0
C662 C 0.86225 0.18936 0.68996 0.0
H663 H 0.83564 0.17368 0.76319 0.0
H664 H 0.84991 0.18375 0.74692 0.0
H665 H 0.83184 0.19238 0.75158 0.0
H666 H 0.83336 0.20851 0.71578 0.0
H667 H 0.85003 0.23017 0.70897 0.0
H668 H 0.86556 0.78665 0.66059 0.0
H669 H 0.84597 0.80607 0.65995 0.0
H670 H 0.82822 0.78854 0.72472 0.0
H671 H 0.84775 0.76882 0.72538 0.0
H672 H 0.80711 0.79079 0.68998 0.0
H673 H 0.83863 0.8452 0.69661 0.0
H674 H 0.84595 0.83286 0.67431 0.0
H675 H 0.84672 0.82693 0.70441 0.0
C676 C 0.85766 0.78705 0.67494 0.0
C677 C 0.85817 0.77613 0.69299 0.0
C678 C 0.84653 0.79827 0.67464 0.0
C679 C 0.83577 0.79888 0.69245 0.0
C680 C 0.83651 0.78831 0.7109 0.0
H681 H 0.7513 0.85049 0.68982 0.0
H682 H 0.77256 0.83531 0.70373 0.0
C683 C 0.84767 0.77707 0.71124 0.0
C684 C 0.82289 0.80946 0.69029 0.0
H685 H 0.81378 0.84688 0.68027 0.0
C686 C 0.80851 0.80309 0.68831 0.0
C687 C 0.82478 0.82548 0.68805 0.0
C688 C 0.83984 0.83304 0.69119 0.0
C689 C 0.79605 0.81222 0.68292 0.0
C690 C 0.79805 0.82817 0.67978 0.0
C691 C 0.81233 0.83463 0.6826 0.0
C692 C 0.78559 0.83814 0.67217 0.0
C693 C 0.781 0.80466 0.67951 0.0
C694 C 0.78609 0.84507 0.65008 0.0
C695 C 0.77401 0.85377 0.64208 0.0
C696 C 0.76122 0.85573 0.65611 0.0
C697 C 0.76093 0.8491 0.67851 0.0
C698 C 0.77304 0.8404 0.68649 0.0
H699 H 0.78195 0.79199 0.67818 0.0
H700 H 0.77368 0.80737 0.69461 0.0
H701 H 0.77545 0.80904 0.66348 0.0
H702 H 0.79572 0.84346 0.63881 0.0
H703 H 0.77462 0.85878 0.6248 0.0
H704 H 0.61251 0.69886 0.75754 0.0
H705 H 0.63173 0.67931 0.75033 0.0
H706 H 0.64366 0.67986 0.82329 0.0
H707 H 0.62453 0.69926 0.83076 0.0
H708 H 0.66773 0.68582 0.78478 0.0
H709 H 0.63398 0.63228 0.77704 0.0
H710 H 0.62744 0.64968 0.76336 0.0
H711 H 0.6277 0.64827 0.79457 0.0
C712 C 0.61909 0.69467 0.7721 0.0
C713 C 0.61705 0.70066 0.79471 0.0
C714 C 0.63001 0.6835 0.76794 0.0
C715 C 0.63901 0.67821 0.78631 0.0
C716 C 0.63674 0.68383 0.80895 0.0
H717 H 0.70697 0.61263 0.81376 0.0
H718 H 0.68433 0.62831 0.81153 0.0
C719 C 0.62581 0.69491 0.81315 0.0
C720 C 0.65157 0.66764 0.78185 0.0
H721 H 0.66027 0.62985 0.77463 0.0
C722 C 0.66614 0.67361 0.78227 0.0
C723 C 0.64933 0.65176 0.77871 0.0
C724 C 0.6338 0.64498 0.77841 0.0
C725 C 0.67865 0.664 0.78012 0.0
C726 C 0.67645 0.64807 0.77737 0.0
C727 C 0.66185 0.64211 0.77656 0.0
C728 C 0.68926 0.63738 0.77724 0.0
C729 C 0.69414 0.67086 0.7817 0.0
C730 C 0.69931 0.63709 0.75842 0.0
C731 C 0.71227 0.62813 0.7596 0.0
C732 C 0.71538 0.6194 0.77968 0.0
C733 C 0.70496 0.61931 0.79811 0.0
C734 C 0.69199 0.6282 0.79685 0.0
H735 H 0.69388 0.6831 0.78705 0.0
H736 H 0.70109 0.66437 0.7944 0.0
H737 H 0.69969 0.67009 0.76439 0.0
H738 H 0.6973 0.64408 0.74309 0.0
H739 H 0.72005 0.6284 0.74508 0.0
H740 H 0.24174 0.64521 0.83137 0.0
H741 H 0.26402 0.66026 0.82208 0.0
H742 H 0.29029 0.6323 0.8688 0.0
H743 H 0.268 0.61715 0.87831 0.0
H744 H 0.29271 0.66467 0.87572 0.0
H745 H 0.30131 0.64848 0.78293 0.0
H746 H 0.2825 0.65417 0.78997 0.0
H747 H 0.29021 0.63712 0.80285 0.0
C748 C 0.25227 0.64216 0.83955 0.0
C749 C 0.2531 0.63 0.85561 0.0
C750 C 0.26501 0.6507 0.83407 0.0
C751 C 0.2788 0.64723 0.8445 0.0
C752 C 0.27973 0.63505 0.86043 0.0
H753 H 0.36172 0.70068 0.845 0.0
H754 H 0.34357 0.68001 0.85049 0.0
C755 C 0.26699 0.62643 0.86584 0.0
C756 C 0.29197 0.65706 0.83999 0.0
H757 H 0.31463 0.67045 0.79654 0.0
C758 C 0.29767 0.66581 0.8585 0.0
C759 C 0.29829 0.65852 0.81746 0.0
C760 C 0.29287 0.64898 0.79717 0.0
C761 C 0.30918 0.67648 0.8549 0.0
C762 C 0.31536 0.67815 0.83227 0.0
C763 C 0.30987 0.66913 0.81386 0.0
C764 C 0.327 0.68974 0.8272 0.0
C765 C 0.31415 0.68635 0.87514 0.0
C766 C 0.32397 0.70167 0.81145 0.0
C767 C 0.33438 0.71341 0.80806 0.0
C768 C 0.34799 0.71342 0.82042 0.0
C769 C 0.35127 0.7011 0.83541 0.0
C770 C 0.34089 0.68931 0.83867 0.0
H771 H 0.3059 0.6862 0.88968 0.0
H772 H 0.32495 0.68195 0.882 0.0
H773 H 0.31585 0.6984 0.86952 0.0
H774 H 0.31334 0.70215 0.80234 0.0
H775 H 0.33154 0.7227 0.79633 0.0
H776 H 0.34434 0.27344 0.84406 0.0
H777 H 0.32628 0.29423 0.83966 0.0
H778 H 0.35936 0.32131 0.80349 0.0
H779 H 0.3776 0.30046 0.80765 0.0
H780 H 0.32949 0.32527 0.85587 0.0
H781 H 0.32225 0.32123 0.75937 0.0
H782 H 0.33036 0.30589 0.77636 0.0
H783 H 0.34109 0.32281 0.77029 0.0
C784 C 0.34781 0.28379 0.8351 0.0
C785 C 0.36239 0.28528 0.82612 0.0
C786 C 0.33747 0.29566 0.83265 0.0
C787 C 0.34147 0.30921 0.82108 0.0
C788 C 0.35603 0.31083 0.81219 0.0
H789 H 0.28001 0.38568 0.79159 0.0
H790 H 0.303 0.37035 0.7943 0.0
C791 C 0.36643 0.29894 0.81467 0.0
C792 C 0.33029 0.3216 0.81869 0.0
H793 H 0.30753 0.33941 0.7792 0.0
C794 C 0.32478 0.32849 0.8391 0.0
C795 C 0.32428 0.32582 0.79676 0.0
C796 C 0.32968 0.31853 0.77439 0.0
C797 C 0.31309 0.33919 0.83822 0.0
C798 C 0.3066 0.34286 0.8164 0.0
C799 C 0.31254 0.33651 0.79588 0.0
C800 C 0.29287 0.35227 0.81477 0.0
C801 C 0.30764 0.34631 0.86068 0.0
C802 C 0.27957 0.34702 0.82505 0.0
C803 C 0.26648 0.35567 0.8235 0.0
C804 C 0.26641 0.36974 0.81154 0.0
C805 C 0.27972 0.37492 0.80099 0.0
C806 C 0.29285 0.36619 0.80251 0.0
H807 H 0.31639 0.3459 0.87449 0.0
H808 H 0.30425 0.35843 0.85796 0.0
H809 H 0.29775 0.33985 0.86708 0.0
H810 H 0.2793 0.33615 0.83417 0.0
H811 H 0.25642 0.35131 0.83172 0.0
H812 H 0.66877 0.26349 0.80341 0.0
H813 H 0.68654 0.28476 0.80528 0.0
H814 H 0.65095 0.31528 0.82601 0.0
H815 H 0.63308 0.29404 0.82449 0.0
H816 H 0.68703 0.31402 0.78279 0.0
H817 H 0.68185 0.31852 0.87943 0.0
H818 H 0.67499 0.3022 0.86329 0.0
H819 H 0.66459 0.31982 0.86338 0.0
C820 C 0.66467 0.27474 0.80819 0.0
C821 C 0.64954 0.27704 0.81406 0.0
C822 C 0.67485 0.28688 0.8092 0.0
C823 C 0.67008 0.3015 0.81616 0.0
C824 C 0.65487 0.304 0.82102 0.0
H825 H 0.72305 0.38236 0.85126 0.0
H826 H 0.70221 0.36511 0.84223 0.0
C827 C 0.64468 0.29187 0.82004 0.0
C828 C 0.68118 0.31391 0.81928 0.0
H829 H 0.69785 0.33615 0.86084 0.0
C830 C 0.68937 0.31893 0.79982 0.0
C831 C 0.68416 0.32026 0.84153 0.0
C832 C 0.67605 0.31488 0.86318 0.0
C833 C 0.70054 0.33015 0.80204 0.0
C834 C 0.70374 0.33626 0.82438 0.0
C835 C 0.69533 0.33146 0.84374 0.0
C836 C 0.71625 0.34707 0.82835 0.0
C837 C 0.70878 0.33541 0.78046 0.0
C838 C 0.73103 0.34258 0.82365 0.0
C839 C 0.74295 0.35238 0.82878 0.0
C840 C 0.74031 0.36681 0.8389 0.0
C841 C 0.72546 0.37132 0.84347 0.0
C842 C 0.71354 0.3615 0.83831 0.0
H843 H 0.70219 0.33314 0.76436 0.0
H844 H 0.71136 0.34785 0.78135 0.0
H845 H 0.71951 0.32905 0.77905 0.0
H846 H 0.73339 0.33135 0.81647 0.0
H847 H 0.75425 0.34853 0.82511 0.0
H848 H 0.6263 0.29986 0.16831 0.0
H849 H 0.64441 0.31987 0.1779 0.0
H850 H 0.64124 0.3081 0.25089 0.0
H851 H 0.62317 0.28789 0.24148 0.0
H852 H 0.64264 0.34562 0.20938 0.0
H853 H 0.68627 0.30307 0.23475 0.0
H854 H 0.6697 0.29772 0.2186 0.0
H855 H 0.66848 0.30165 0.24932 0.0
C856 C 0.62935 0.30158 0.18644 0.0
C857 C 0.62341 0.29218 0.20412 0.0
C858 C 0.63967 0.31305 0.19188 0.0
C859 C 0.64428 0.3153 0.21504 0.0
C860 C 0.63796 0.30636 0.23286 0.0
H861 H 0.72199 0.37041 0.2567 0.0
H862 H 0.69881 0.35548 0.25955 0.0
C863 C 0.62761 0.29487 0.22745 0.0
C864 C 0.65626 0.32651 0.22013 0.0
H865 H 0.69317 0.32899 0.23517 0.0
C866 C 0.65365 0.34204 0.21527 0.0
C867 C 0.67056 0.32177 0.22792 0.0
C868 C 0.67405 0.30514 0.23283 0.0
C869 C 0.66513 0.35294 0.21743 0.0
C870 C 0.67961 0.34808 0.22419 0.0
C871 C 0.68204 0.33266 0.23001 0.0
C872 C 0.69274 0.35843 0.22323 0.0
C873 C 0.66167 0.36951 0.21223 0.0
C874 C 0.69697 0.36503 0.20188 0.0
C875 C 0.71017 0.37352 0.20019 0.0
C876 C 0.71947 0.37548 0.21979 0.0
C877 C 0.71506 0.36913 0.24129 0.0
C878 C 0.70183 0.36061 0.24296 0.0
H879 H 0.64961 0.37209 0.215 0.0
H880 H 0.66846 0.37732 0.22331 0.0
H881 H 0.66431 0.37193 0.19364 0.0
H882 H 0.69033 0.36318 0.1863 0.0
H883 H 0.71325 0.37822 0.18334 0.0
H884 H 0.72226 0.62686 0.12214 0.0
H885 H 0.70056 0.64237 0.13329 0.0
H886 H 0.72346 0.65671 0.19593 0.0
H887 H 0.7453 0.64152 0.18475 0.0
H888 H 0.68225 0.64225 0.17319 0.0
H889 H 0.71318 0.69722 0.164 0.0
H890 H 0.72043 0.6793 0.15307 0.0
H891 H 0.72166 0.68374 0.18368 0.0
C892 C 0.72266 0.63327 0.13833 0.0
C893 C 0.73557 0.63312 0.15241 0.0
C894 C 0.71024 0.64209 0.14469 0.0
C895 C 0.71053 0.65088 0.16521 0.0
C896 C 0.72315 0.65027 0.17976 0.0
H897 H 0.64851 0.71988 0.21765 0.0
H898 H 0.66797 0.70016 0.21568 0.0
C899 C 0.7356 0.64154 0.17337 0.0
C900 C 0.69781 0.66107 0.17097 0.0
H901 H 0.68842 0.69867 0.1782 0.0
C902 C 0.68358 0.65459 0.17435 0.0
C903 C 0.69962 0.67715 0.17244 0.0
C904 C 0.71451 0.68482 0.16791 0.0
C905 C 0.67107 0.6638 0.1792 0.0
C906 C 0.67287 0.67987 0.18041 0.0
C907 C 0.68714 0.68632 0.17742 0.0
C908 C 0.66002 0.69039 0.18323 0.0
C909 C 0.65605 0.6563 0.18303 0.0
C910 C 0.64906 0.6913 0.16574 0.0
C911 C 0.63798 0.70257 0.16675 0.0
C912 C 0.63771 0.71318 0.18524 0.0
C913 C 0.64839 0.71188 0.20319 0.0
C914 C 0.65952 0.70063 0.2021 0.0
H915 H 0.65725 0.64403 0.18789 0.0
H916 H 0.64963 0.66228 0.19692 0.0
H917 H 0.64945 0.65689 0.16662 0.0
H918 H 0.64942 0.68369 0.1508 0.0
H919 H 0.62991 0.70325 0.15264 0.0
H920 H 0.29164 0.60847 0.18113 0.0
H921 H 0.31254 0.62652 0.17988 0.0
H922 H 0.30584 0.63702 0.25275 0.0
H923 H 0.28501 0.61883 0.25429 0.0
H924 H 0.30914 0.65756 0.18909 0.0
H925 H 0.35141 0.6317 0.2484 0.0
H926 H 0.336 0.62087 0.23632 0.0
H927 H 0.33297 0.63346 0.2607 0.0
C928 C 0.29475 0.61442 0.19701 0.0
C929 C 0.28662 0.61227 0.2178 0.0
C930 C 0.3067 0.62472 0.19626 0.0
C931 C 0.3108 0.63299 0.21626 0.0
C932 C 0.30303 0.63053 0.23723 0.0
H933 H 0.36867 0.71136 0.23991 0.0
H934 H 0.35152 0.68961 0.24404 0.0
C935 C 0.29107 0.62019 0.23803 0.0
C936 C 0.32221 0.64524 0.21453 0.0
H937 H 0.35591 0.65732 0.23596 0.0
C938 C 0.31942 0.65745 0.19921 0.0
C939 C 0.33552 0.64511 0.22793 0.0
C940 C 0.33926 0.63202 0.24413 0.0
C941 C 0.32951 0.66967 0.19708 0.0
C942 C 0.34287 0.66951 0.21035 0.0
C943 C 0.34566 0.65735 0.22579 0.0
C944 C 0.35403 0.68195 0.20832 0.0
C945 C 0.32563 0.6828 0.181 0.0
C946 C 0.36134 0.68458 0.18702 0.0
C947 C 0.37108 0.69699 0.18456 0.0
C948 C 0.37374 0.70695 0.20343 0.0
C949 C 0.3668 0.70395 0.22501 0.0
C950 C 0.35703 0.69152 0.22743 0.0
H951 H 0.31351 0.68299 0.1766 0.0
H952 H 0.32869 0.69396 0.18901 0.0
H953 H 0.33201 0.68157 0.16447 0.0
H954 H 0.35935 0.67715 0.17218 0.0
H955 H 0.37635 0.69889 0.16776 0.0
H956 H 0.2713 0.3771 0.13259 0.0
H957 H 0.29191 0.35999 0.14352 0.0
H958 H 0.26189 0.33408 0.1874 0.0
H959 H 0.2412 0.35085 0.17623 0.0
H960 H 0.30423 0.35279 0.18676 0.0
H961 H 0.2794 0.30128 0.14507 0.0
H962 H 0.27243 0.32037 0.13971 0.0
H963 H 0.26726 0.3103 0.16593 0.0
C964 C 0.26909 0.36775 0.14456 0.0
C965 C 0.25459 0.36522 0.15333 0.0
C966 C 0.28087 0.35802 0.15081 0.0
C967 C 0.27834 0.34562 0.16593 0.0
C968 C 0.26399 0.34337 0.17527 0.0
H969 H 0.33388 0.27125 0.21742 0.0
H970 H 0.31453 0.29095 0.21337 0.0
C971 C 0.2522 0.353 0.16892 0.0
C972 C 0.29066 0.33491 0.17172 0.0
H973 H 0.30096 0.29731 0.16846 0.0
C974 C 0.30355 0.34067 0.18272 0.0
C975 C 0.28973 0.31911 0.16636 0.0
C976 C 0.27653 0.31239 0.15342 0.0
C977 C 0.31548 0.33096 0.18879 0.0
C978 C 0.31448 0.31517 0.18356 0.0
C979 C 0.30159 0.30942 0.17264 0.0
C980 C 0.32691 0.30443 0.18822 0.0
C981 C 0.32901 0.33759 0.20093 0.0
C982 C 0.34031 0.30563 0.17559 0.0
C983 C 0.35134 0.29437 0.17774 0.0
C984 C 0.34914 0.28171 0.19257 0.0
C985 C 0.33593 0.28087 0.20589 0.0
C986 C 0.32486 0.29209 0.2036 0.0
H987 H 0.32665 0.34908 0.20842 0.0
H988 H 0.33288 0.32987 0.21514 0.0
H989 H 0.33828 0.33877 0.18815 0.0
H990 H 0.34199 0.31494 0.16336 0.0
H991 H 0.36139 0.29535 0.16723 0.0
H992 H 0.92448 0.25683 0.26255 0.0
H993 H 0.95126 0.25708 0.25309 0.0
H994 H 0.95935 0.22314 0.3064 0.0
H995 H 0.93272 0.22277 0.31592 0.0
H996 H 0.97324 0.26529 0.28571 0.0
H997 H 0.98391 0.20716 0.25074 0.0
H998 H 0.96538 0.21549 0.25195 0.0
H999 H 0.9735 0.2069 0.27757 0.0
C1000 C 0.93192 0.24921 0.27196 0.0
C1001 C 0.9265 0.23983 0.29006 0.0
C1002 C 0.9472 0.24937 0.26652 0.0
C1003 C 0.95722 0.23999 0.27884 0.0
C1004 C 0.95175 0.23024 0.29636 0.0
H1005 H 0.04541 0.24783 0.32724 0.0
H1006 H 0.01861 0.24742 0.31903 0.0
C1007 C 0.93654 0.23014 0.30191 0.0
C1008 C 0.97356 0.24153 0.27545 0.0
H1009 H 0.00533 0.22061 0.26637 0.0
C1010 C 0.98025 0.25561 0.281 0.0
C1011 C 0.98266 0.22894 0.26909 0.0
C1012 C 0.97599 0.2138 0.26176 0.0
C1013 C 0.99587 0.25715 0.28185 0.0
C1014 C 0.00495 0.24424 0.27723 0.0
C1015 C -0.0017 0.23044 0.27015 0.0
C1016 C 0.02123 0.2445 0.28173 0.0
C1017 C 0.00254 0.27244 0.28842 0.0
C1018 C 0.03154 0.24267 0.26347 0.0
C1019 C 0.04693 0.24291 0.26809 0.0
C1020 C 0.05219 0.2448 0.29108 0.0
C1021 C 0.04176 0.2464 0.30933 0.0
C1022 C 0.02643 0.24624 0.30467 0.0
H1023 H 0.99457 0.28198 0.28514 0.0
H1024 H 0.0053 0.27241 0.30733 0.0
H1025 H 0.01302 0.27465 0.27853 0.0
H1026 H 0.02767 0.2412 0.24567 0.0
H1027 H 0.05469 0.2416 0.25368 0.0
H1028 H 0.73478 0.07697 0.29437 0.0
H1029 H 0.73682 0.05004 0.28257 0.0
H1030 H 0.70205 0.03798 0.33151 0.0
H1031 H 0.69998 0.06476 0.34354 0.0
H1032 H 0.74317 0.02503 0.31613 0.0
H1033 H 0.6898 0.01749 0.26763 0.0
H1034 H 0.69845 0.036 0.27199 0.0
H1035 H 0.68815 0.02711 0.29529 0.0
C1036 C 0.72747 0.0686 0.30245 0.0
C1037 C 0.71724 0.07297 0.31991 0.0
C1038 C 0.72865 0.05326 0.29568 0.0
C1039 C 0.71945 0.04214 0.30599 0.0
C1040 C 0.70908 0.04649 0.32313 0.0
H1041 H 0.70527 0.94709 0.31971 0.0
H1042 H 0.70428 0.97494 0.3166 0.0
C1043 C 0.70799 0.06176 0.33007 0.0
C1044 C 0.72134 0.02578 0.30024 0.0
H1045 H 0.70245 0.99468 0.27948 0.0
C1046 C 0.73442 0.01837 0.30774 0.0
C1047 C 0.70985 0.01726 0.28937 0.0
C1048 C 0.6958 0.02486 0.2804 0.0
C1049 C 0.73595 0.00242 0.30591 0.0
C1050 C 0.72421 0.99378 0.29571 0.0
C1051 C 0.71142 0.00133 0.28727 0.0
C1052 C 0.72439 0.97683 0.29567 0.0
C1053 C 0.74971 0.99491 0.31613 0.0
C1054 C 0.73583 0.96863 0.28442 0.0
C1055 C 0.73653 0.95267 0.28638 0.0
C1056 C 0.72567 0.94468 0.29937 0.0
C1057 C 0.71385 0.9529 0.30966 0.0
C1058 C 0.71324 0.96882 0.30786 0.0
H1059 H 0.75602 0.0028 0.32776 0.0
H1060 H 0.74664 0.98453 0.32627 0.0
H1061 H 0.7573 0.99137 0.30176 0.0
H1062 H 0.74435 0.97458 0.27447 0.0
H1063 H 0.74568 0.94664 0.27804 0.0
H1064 H 0.06492 0.71371 0.31233 0.0
H1065 H 0.03822 0.71793 0.30575 0.0
H1066 H 0.04624 0.76634 0.29707 0.0
H1067 H 0.07299 0.76227 0.30399 0.0
H1068 H 0.02467 0.75992 0.3297 0.0
H1069 H 0.01317 0.72778 0.24826 0.0
H1070 H 0.02298 0.71654 0.2696 0.0
H1071 H 0.03189 0.73312 0.2571 0.0
C1072 C 0.06106 0.72522 0.30864 0.0
C1073 C 0.07106 0.73767 0.30882 0.0
C1074 C 0.0458 0.7276 0.30469 0.0
C1075 C 0.04029 0.74242 0.30062 0.0
C1076 C 0.05031 0.7548 0.30003 0.0
H1077 H 0.94671 0.77339 0.30525 0.0
H1078 H 0.97376 0.77291 0.29813 0.0
C1079 C 0.06558 0.75245 0.30401 0.0
C1080 C 0.02395 0.74514 0.29959 0.0
H1081 H 0.99185 0.73368 0.27232 0.0
C1082 C 0.0175 0.75441 0.3169 0.0
C1083 C 0.01466 0.73789 0.28292 0.0
C1084 C 0.02104 0.72839 0.26328 0.0
C1085 C 0.00192 0.75605 0.3187 0.0
C1086 C 0.9926 0.74839 0.3025 0.0
C1087 C -0.00094 0.73951 0.28472 0.0
C1088 C 0.97612 0.74862 0.3048 0.0
C1089 C 0.99554 0.76535 0.33859 0.0
C1090 C 0.96848 0.73504 0.31019 0.0
C1091 C 0.95306 0.73525 0.31419 0.0
C1092 C 0.94501 0.74906 0.3128 0.0
C1093 C 0.95262 0.76259 0.30664 0.0
C1094 C 0.96807 0.76235 0.30262 0.0
H1095 H 0.00411 0.768 0.35208 0.0
H1096 H 0.99115 0.77636 0.33169 0.0
H1097 H 0.98612 0.75917 0.34705 0.0
H1098 H 0.97453 0.72433 0.3119 0.0
H1099 H 0.94753 0.72462 0.31877 0.0
H1100 H 0.28136 0.93569 0.328 0.0
H1101 H 0.27715 0.96178 0.31428 0.0
H1102 H 0.25962 0.94438 0.24928 0.0
H1103 H 0.26365 0.91807 0.26298 0.0
H1104 H 0.28833 0.97668 0.2736 0.0
H1105 H 0.22602 0.97263 0.27481 0.0
H1106 H 0.23779 0.95881 0.28944 0.0
H1107 H 0.23603 0.95842 0.25822 0.0
C1108 C 0.27664 0.93736 0.31075 0.0
C1109 C 0.27275 0.92479 0.29663 0.0
C1110 C 0.27428 0.95229 0.30292 0.0
C1111 C 0.26795 0.95497 0.28088 0.0
C1112 C 0.26434 0.94251 0.26647 0.0
H1113 H 0.26394 0.0523 0.23857 0.0
H1114 H 0.26692 0.02448 0.2344 0.0
C1115 C 0.2667 0.92751 0.2743 0.0
C1116 C 0.2649 0.97091 0.27357 0.0
H1117 H 0.2365 0.99671 0.26668 0.0
C1118 C 0.27702 0.98106 0.27166 0.0
C1119 C 0.25011 0.9765 0.27119 0.0
C1120 C 0.23669 0.96611 0.27363 0.0
C1121 C 0.27474 0.99683 0.26853 0.0
C1122 C 0.25993 0.0025 0.26695 0.0
C1123 C 0.24782 0.99225 0.26776 0.0
C1124 C 0.25676 0.01913 0.26773 0.0
C1125 C 0.28814 0.00739 0.26841 0.0
C1126 C 0.24957 0.02522 0.28742 0.0
C1127 C 0.2478 0.041 0.28982 0.0
C1128 C 0.25318 0.05103 0.27251 0.0
C1129 C 0.25978 0.04487 0.25227 0.0
C1130 C 0.26154 0.02901 0.24989 0.0
H1131 H 0.29863 0.00137 0.27341 0.0
H1132 H 0.28966 0.01218 0.25061 0.0
H1133 H 0.28637 0.01711 0.28062 0.0
H1134 H 0.24578 0.01776 0.30136 0.0
H1135 H 0.24257 0.04534 0.30555 0.0
H1136 H 0.0487 0.76294 0.67818 0.0
H1137 H 0.02203 0.76374 0.68729 0.0
H1138 H 0.03047 0.74172 0.75346 0.0
H1139 H 0.05731 0.74077 0.74442 0.0
H1140 H 0.00805 0.72775 0.72675 0.0
H1141 H -0.00184 0.79015 0.73324 0.0
H1142 H 0.00827 0.78511 0.70726 0.0
H1143 H 0.01663 0.78179 0.73544 0.0
C1144 C 0.04494 0.75842 0.6948 0.0
C1145 C 0.05512 0.75177 0.71057 0.0
C1146 C 0.02971 0.75901 0.70007 0.0
C1147 C 0.02434 0.75303 0.72122 0.0
C1148 C 0.03445 0.74654 0.73715 0.0
H1149 H 0.92746 0.73644 0.74246 0.0
H1150 H 0.95401 0.73929 0.7528 0.0
C1151 C 0.04975 0.746 0.73194 0.0
C1152 C 0.00802 0.7524 0.72544 0.0
H1153 H 0.97657 0.77457 0.72376 0.0
C1154 C 0.00113 0.73797 0.72671 0.0
C1155 C -0.0009 0.76578 0.72549 0.0
C1156 C 0.00593 0.78159 0.72553 0.0
C1157 C 0.98548 0.73653 0.72613 0.0
C1158 C 0.97659 0.74989 0.72457 0.0
C1159 C 0.98346 0.76435 0.72485 0.0
C1160 C 0.96038 0.74905 0.71951 0.0
C1161 C 0.97861 0.72073 0.72557 0.0
C1162 C 0.95521 0.75394 0.69763 0.0
C1163 C 0.94015 0.75235 0.6917 0.0
C1164 C 0.92994 0.74589 0.70759 0.0
C1165 C 0.93507 0.74139 0.7298 0.0
C1166 C 0.95021 0.74296 0.73572 0.0
H1167 H 0.9872 0.71157 0.72394 0.0
H1168 H 0.97224 0.71876 0.74194 0.0
H1169 H 0.97065 0.71973 0.71074 0.0
H1170 H 0.96291 0.75867 0.6849 0.0
H1171 H 0.93658 0.75602 0.6745 0.0
H1172 H 0.24265 0.94634 0.69971 0.0
H1173 H 0.2439 0.97433 0.70199 0.0
H1174 H 0.29177 0.97253 0.69209 0.0
H1175 H 0.29069 0.94459 0.69011 0.0
H1176 H 0.28224 0.99409 0.72634 0.0
H1177 H 0.25135 -0.00029 0.64228 0.0
H1178 H 0.24206 0.98888 0.66471 0.0
H1179 H 0.25911 0.98173 0.65211 0.0
C1180 C 0.25346 0.95189 0.69826 0.0
C1181 C 0.26655 0.94326 0.69445 0.0
C1182 C 0.25414 0.96787 0.69951 0.0
C1183 C 0.26789 0.97545 0.69685 0.0
C1184 C 0.28104 0.96685 0.69411 0.0
H1185 H 0.29012 0.0644 0.64667 0.0
H1186 H 0.28672 0.0372 0.65493 0.0
C1187 C 0.28039 0.9509 0.6929 0.0
C1188 C 0.26858 0.99235 0.69546 0.0
H1189 H 0.25883 0.02252 0.66074 0.0
C1190 C 0.27703 0.00036 0.71214 0.0
C1191 C 0.26189 0.0004 0.67673 0.0
C1192 C 0.25318 0.99228 0.65779 0.0
C1193 C 0.27914 0.01627 0.7104 0.0
C1194 C 0.2725 0.02428 0.6916 0.0
C1195 C 0.26384 0.0163 0.67517 0.0
C1196 C 0.27514 0.0408 0.68767 0.0
C1197 C 0.28888 0.02429 0.72813 0.0
C1198 C 0.26979 0.05182 0.70344 0.0
C1199 C 0.27174 0.06743 0.6988 0.0
C1200 C 0.279 0.07223 0.67824 0.0
C1201 C 0.28448 0.06111 0.66266 0.0
C1202 C 0.28254 0.04556 0.66732 0.0
H1203 H 0.29543 0.01606 0.73887 0.0
H1204 H 0.29678 0.03227 0.71935 0.0
H1205 H 0.2817 0.03113 0.74002 0.0
H1206 H 0.26385 0.04836 0.71907 0.0
H1207 H 0.26734 0.07572 0.7111 0.0
H1208 H 0.06208 0.22315 0.67955 0.0
H1209 H 0.03545 0.2222 0.68884 0.0
H1210 H 0.04373 0.24586 0.75371 0.0
H1211 H 0.07054 0.24701 0.74445 0.0
H1212 H 0.01885 0.21071 0.72838 0.0
H1213 H 0.01462 0.27402 0.71653 0.0
H1214 H 0.0308 0.26332 0.70697 0.0
H1215 H 0.02797 0.26697 0.7375 0.0
C1216 C 0.05831 0.22802 0.69593 0.0
C1217 C 0.06839 0.23535 0.71111 0.0
C1218 C 0.04309 0.22739 0.70126 0.0
C1219 C 0.03765 0.2341 0.72181 0.0
C1220 C 0.04774 0.24076 0.73763 0.0
H1221 H 0.93917 0.23243 0.74133 0.0
H1222 H 0.96582 0.23076 0.7517 0.0
C1223 C 0.06303 0.24137 0.73233 0.0
C1224 C 0.02128 0.23517 0.72528 0.0
H1225 H 0.99221 0.26031 0.71993 0.0
C1226 C 0.01297 0.22156 0.72709 0.0
C1227 C 0.01375 0.24937 0.72338 0.0
C1228 C 0.02216 0.26429 0.72085 0.0
C1229 C 0.99727 0.22173 0.7259 0.0
C1230 C 0.9898 0.23586 0.72289 0.0
C1231 C -0.00194 0.24952 0.72232 0.0
C1232 C 0.97372 0.23658 0.71711 0.0
C1233 C 0.98878 0.20679 0.72636 0.0
C1234 C 0.96946 0.24044 0.6943 0.0
C1235 C 0.95436 0.24137 0.68831 0.0
C1236 C 0.94321 0.23855 0.7051 0.0
C1237 C 0.94751 0.23465 0.728 0.0
C1238 C 0.96269 0.23366 0.73396 0.0
H1239 H 0.99636 0.19671 0.72727 0.0
H1240 H 0.98124 0.20657 0.74177 0.0
H1241 H 0.98168 0.20577 0.7105 0.0
H1242 H 0.97786 0.24272 0.68108 0.0
H1243 H 0.95145 0.24443 0.67054 0.0
H1244 H 0.71669 0.0447 0.73771 0.0
H1245 H 0.71659 0.01679 0.73342 0.0
H1246 H 0.75705 0.01928 0.69241 0.0
H1247 H 0.75735 0.04707 0.69677 0.0
H1248 H 0.71446 0.00307 0.68961 0.0
H1249 H 0.76537 0.98305 0.73593 0.0
H1250 H 0.75711 0.00165 0.7411 0.0
H1251 H 0.76886 -0.00145 0.71603 0.0
C1252 C 0.72575 0.03928 0.72823 0.0
C1253 C 0.73697 0.04811 0.71744 0.0
C1254 C 0.72567 0.02335 0.72579 0.0
C1255 C 0.73688 0.01599 0.71278 0.0
C1256 C 0.74846 0.02471 0.70291 0.0
H1257 H 0.75191 0.92935 0.64597 0.0
H1258 H 0.753 0.9554 0.66169 0.0
C1259 C 0.74854 0.04062 0.70528 0.0
C1260 C 0.73555 -0.00047 0.70707 0.0
H1261 H 0.75438 0.96551 0.70864 0.0
C1262 C 0.72306 0.99478 0.69406 0.0
C1263 C 0.74687 0.98884 0.71275 0.0
C1264 C 0.76025 0.99323 0.72741 0.0
C1265 C 0.72184 0.97972 0.68582 0.0
C1266 C 0.73329 0.96908 0.69114 0.0
C1267 C 0.74564 0.97374 0.70457 0.0
C1268 C 0.73282 0.95317 0.68235 0.0
C1269 C 0.7086 0.97549 0.67071 0.0
C1270 C 0.72121 0.94327 0.68901 0.0
C1271 C 0.72049 0.92845 0.67995 0.0
C1272 C 0.73146 0.92321 0.66423 0.0
C1273 C 0.74326 0.93306 0.65796 0.0
C1274 C 0.74393 0.94792 0.66698 0.0
H1275 H 0.70279 0.98578 0.66374 0.0
H1276 H 0.71215 0.96821 0.65579 0.0
H1277 H 0.70043 0.96888 0.68128 0.0
H1278 H 0.71268 0.94704 0.70119 0.0
H1279 H 0.71133 0.92109 0.68532 0.0
H1280 H 0.55037 0.755 0.76272 0.0
H1281 H 0.52301 0.75571 0.75894 0.0
H1282 H 0.51885 0.72566 0.81839 0.0
H1283 H 0.54605 0.72502 0.82253 0.0
H1284 H 0.50061 0.73201 0.75423 0.0
H1285 H 0.49549 0.76463 0.83704 0.0
H1286 H 0.51308 0.76242 0.82184 0.0
H1287 H 0.50599 0.74718 0.83988 0.0
C1288 C 0.54363 0.74842 0.77484 0.0
C1289 C 0.55035 0.74013 0.79313 0.0
C1290 C 0.52802 0.74883 0.77263 0.0
C1291 C 0.51897 0.74096 0.78865 0.0
C1292 C 0.52568 0.73204 0.80613 0.0
H1293 H 0.42735 0.72922 0.82473 0.0
H1294 H 0.45424 0.72722 0.81791 0.0
C1295 C 0.54122 0.73168 0.80843 0.0
C1296 C 0.50251 0.74264 0.78804 0.0
H1297 H 0.47296 0.75442 0.82123 0.0
C1298 C 0.49452 0.73703 0.76873 0.0
C1299 C 0.49469 0.74937 0.80691 0.0
C1300 C 0.50274 0.75639 0.8275 0.0
C1301 C 0.47878 0.73735 0.76833 0.0
C1302 C 0.471 0.74352 0.78764 0.0
C1303 C 0.47902 0.74956 0.80656 0.0
C1304 C 0.4545 0.74337 0.78926 0.0
C1305 C 0.47054 0.73065 0.74773 0.0
C1306 C 0.44574 0.75296 0.77511 0.0
C1307 C 0.43031 0.75418 0.77899 0.0
C1308 C 0.42348 0.74588 0.79718 0.0
C1309 C 0.43226 0.73584 0.81067 0.0
C1310 C 0.44762 0.73464 0.80678 0.0
H1311 H 0.47814 0.72433 0.73577 0.0
H1312 H 0.46158 0.72276 0.75378 0.0
H1313 H 0.4651 0.74003 0.73773 0.0
H1314 H 0.45092 0.75994 0.76171 0.0
H1315 H 0.42385 0.76201 0.76831 0.0
H1316 H 0.19847 0.45204 0.79067 0.0
H1317 H 0.19969 0.4799 0.78898 0.0
H1318 H 0.24723 0.47758 0.77583 0.0
H1319 H 0.24618 0.4496 0.77803 0.0
H1320 H 0.24103 0.49573 0.81196 0.0
H1321 H 0.20404 0.51181 0.73865 0.0
H1322 H 0.19471 0.4989 0.75818 0.0
H1323 H 0.21105 0.49255 0.74244 0.0
C1324 C 0.20915 0.45741 0.78694 0.0
C1325 C 0.22226 0.44861 0.78467 0.0
C1326 C 0.2098 0.47337 0.78576 0.0
C1327 C 0.22351 0.48083 0.78196 0.0
C1328 C 0.23651 0.47204 0.77863 0.0
H1329 H 0.2239 0.58177 0.78631 0.0
H1330 H 0.22789 0.55552 0.77234 0.0
C1331 C 0.23589 0.45606 0.77992 0.0
C1332 C 0.2245 0.49767 0.78463 0.0
H1333 H 0.20738 0.53109 0.76889 0.0
C1334 C 0.23389 0.50349 0.80219 0.0
C1335 C 0.21536 0.50785 0.77169 0.0
C1336 C 0.20585 0.50246 0.75152 0.0
C1337 C 0.23367 0.51905 0.80817 0.0
C1338 C 0.22358 0.52896 0.79661 0.0
C1339 C 0.21492 0.52339 0.778 0.0
C1340 C 0.22112 0.54483 0.80476 0.0
C1341 C 0.24401 0.52467 0.8272 0.0
C1342 C 0.21572 0.54744 0.82742 0.0
C1343 C 0.21343 0.56234 0.83544 0.0
C1344 C 0.21641 0.57494 0.82087 0.0
C1345 C 0.22155 0.5723 0.79798 0.0
C1346 C 0.22384 0.55734 0.78996 0.0
H1347 H 0.25398 0.51712 0.82902 0.0
H1348 H 0.24787 0.53655 0.82369 0.0
H1349 H 0.23794 0.52459 0.84411 0.0
H1350 H 0.21323 0.53791 0.83891 0.0
H1351 H 0.20937 0.56396 0.85309 0.0
H1352 H 0.44687 0.27046 0.82538 0.0
H1353 H 0.47403 0.27062 0.82062 0.0
H1354 H 0.46975 0.24492 0.75663 0.0
H1355 H 0.44245 0.24486 0.76105 0.0
H1356 H 0.49069 0.24346 0.81934 0.0
H1357 H 0.5003 0.27864 0.73967 0.0
H1358 H 0.48299 0.27934 0.75599 0.0
H1359 H 0.48678 0.26346 0.73694 0.0
C1360 C 0.45166 0.26504 0.81008 0.0
C1361 C 0.44251 0.25757 0.79365 0.0
C1362 C 0.46718 0.26517 0.80738 0.0
C1363 C 0.47386 0.25787 0.78821 0.0
C1364 C 0.46478 0.25084 0.77133 0.0
H1365 H 0.56839 0.23655 0.76443 0.0
H1366 H 0.54119 0.23912 0.7596 0.0
C1367 C 0.44919 0.25075 0.77397 0.0
C1368 C 0.49035 0.2564 0.78731 0.0
H1369 H 0.52154 0.26655 0.75639 0.0
C1370 C 0.49743 0.24852 0.80558 0.0
C1371 C 0.49906 0.26286 0.76917 0.0
C1372 C 0.49196 0.27166 0.74938 0.0
C1373 C 0.51303 0.24706 0.8064 0.0
C1374 C 0.52179 0.25387 0.78864 0.0
C1375 C 0.51473 0.26142 0.77 0.0
C1376 C 0.5383 0.25366 0.78986 0.0
C1377 C 0.52004 0.23822 0.82627 0.0
C1378 C 0.54563 0.26136 0.80805 0.0
C1379 C 0.56107 0.2599 0.81091 0.0
C1380 C 0.56948 0.25074 0.79554 0.0
C1381 C 0.56221 0.24363 0.77662 0.0
C1382 C 0.5467 0.24509 0.7738 0.0
H1383 H 0.5118 0.23061 0.83505 0.0
H1384 H 0.52957 0.23114 0.81998 0.0
H1385 H 0.52441 0.2464 0.83946 0.0
H1386 H 0.53931 0.2682 0.82041 0.0
H1387 H 0.56634 0.26566 0.82552 0.0
H1388 H 0.78281 0.43601 0.83628 0.0
H1389 H 0.77907 0.46192 0.82136 0.0
H1390 H 0.75808 0.44365 0.75947 0.0
H1391 H 0.76156 0.41759 0.77444 0.0
H1392 H 0.78911 0.47536 0.77957 0.0
H1393 H 0.72681 0.47387 0.78527 0.0
H1394 H 0.73848 0.45975 0.79941 0.0
H1395 H 0.73559 0.459 0.76839 0.0
C1396 C 0.77741 0.43747 0.81948 0.0
C1397 C 0.77238 0.42475 0.80662 0.0
C1398 C 0.77532 0.45228 0.81095 0.0
C1399 C 0.76817 0.45467 0.78945 0.0
C1400 C 0.76342 0.44202 0.77628 0.0
H1401 H 0.76644 0.551 0.7415 0.0
H1402 H 0.76853 0.52302 0.73872 0.0
C1403 C 0.76546 0.42716 0.78484 0.0
C1404 C 0.7655 0.47052 0.78135 0.0
H1405 H 0.73789 0.49715 0.77424 0.0
C1406 C 0.77792 0.48012 0.77801 0.0
C1407 C 0.75087 0.4766 0.77943 0.0
C1408 C 0.73713 0.46685 0.78344 0.0
C1409 C 0.77613 0.49585 0.77393 0.0
C1410 C 0.7615 0.50204 0.77279 0.0
C1411 C 0.74907 0.4923 0.77498 0.0
C1412 C 0.75892 0.51877 0.77282 0.0
C1413 C 0.78988 0.50588 0.77233 0.0
C1414 C 0.75235 0.52553 0.79251 0.0
C1415 C 0.75108 0.54139 0.79411 0.0
C1416 C 0.75635 0.55084 0.776 0.0
C1417 C 0.76237 0.54403 0.7558 0.0
C1418 C 0.76363 0.52807 0.75421 0.0
H1419 H 0.80027 0.4996 0.77709 0.0
H1420 H 0.79111 0.51013 0.75417 0.0
H1421 H 0.78876 0.51598 0.78401 0.0
H1422 H 0.74863 0.51853 0.80703 0.0
H1423 H 0.74628 0.54625 0.80984 0.0
H1424 H 0.43307 0.21893 0.19207 0.0
H1425 H 0.45993 0.22249 0.19769 0.0
H1426 H 0.45335 0.27125 0.20455 0.0
H1427 H 0.42641 0.26784 0.19858 0.0
H1428 H 0.47408 0.26378 0.17142 0.0
H1429 H 0.48647 0.2325 0.25323 0.0
H1430 H 0.47591 0.22111 0.23299 0.0
H1431 H 0.46771 0.23819 0.24515 0.0
C1432 C 0.43727 0.23039 0.19521 0.0
C1433 C 0.42762 0.24312 0.19471 0.0
C1434 C 0.45263 0.23239 0.19862 0.0
C1435 C 0.4586 0.24711 0.20183 0.0
C1436 C 0.44893 0.25979 0.20225 0.0
H1437 H 0.55364 0.27285 0.18987 0.0
H1438 H 0.52684 0.2743 0.19886 0.0
C1439 C 0.43356 0.25781 0.19881 0.0
C1440 C 0.47503 0.24936 0.20192 0.0
H1441 H 0.50736 0.23673 0.22726 0.0
C1442 C 0.48137 0.25813 0.1839 0.0
C1443 C 0.48448 0.24194 0.21821 0.0
C1444 C 0.47829 0.23303 0.23862 0.0
C1445 C 0.49693 0.25899 0.18094 0.0
C1446 C 0.50637 0.25104 0.19665 0.0
C1447 C 0.50006 0.24277 0.21523 0.0
C1448 C 0.52272 0.25018 0.1929 0.0
C1449 C 0.50314 0.26772 0.16033 0.0
C1450 C 0.52927 0.23608 0.18717 0.0
C1451 C 0.54453 0.2352 0.18208 0.0
C1452 C 0.55352 0.24841 0.18271 0.0
C1453 C 0.54699 0.26248 0.18906 0.0
C1454 C 0.53169 0.26335 0.19416 0.0
H1455 H 0.49427 0.27089 0.14759 0.0
H1456 H 0.50851 0.27843 0.1666 0.0
H1457 H 0.5118 0.26084 0.15116 0.0
H1458 H 0.5225 0.22579 0.18614 0.0
H1459 H 0.54922 0.22417 0.17738 0.0
H1460 H 0.7505 0.57385 0.19983 0.0
H1461 H 0.75039 0.54661 0.21013 0.0
H1462 H 0.79112 0.53995 0.17093 0.0
H1463 H 0.79138 0.56711 0.16056 0.0
H1464 H 0.7498 0.52218 0.17681 0.0
H1465 H 0.7996 0.51904 0.23467 0.0
H1466 H 0.79009 0.53683 0.22821 0.0
H1467 H 0.80283 0.52865 0.20736 0.0
C1468 C 0.75952 0.56662 0.19358 0.0
C1469 C 0.77096 0.57263 0.17937 0.0
C1470 C 0.75943 0.55109 0.1995 0.0
C1471 C 0.77086 0.54138 0.19156 0.0
C1472 C 0.78236 0.54736 0.1776 0.0
H1473 H 0.79228 0.44665 0.18158 0.0
H1474 H 0.79167 0.47459 0.18345 0.0
C1475 C 0.78243 0.56285 0.17156 0.0
C1476 C 0.77024 0.52477 0.19636 0.0
H1477 H 0.79001 0.49526 0.22042 0.0
C1478 C 0.75845 0.51628 0.18663 0.0
C1479 C 0.78159 0.51719 0.20912 0.0
C1480 C 0.79419 0.52589 0.22064 0.0
C1481 C 0.75807 0.50026 0.18838 0.0
C1482 C 0.76962 0.49262 0.20068 0.0
C1483 C 0.78117 0.50117 0.21102 0.0
C1484 C 0.77043 0.47571 0.2016 0.0
C1485 C 0.74571 0.49163 0.17609 0.0
C1486 C 0.75889 0.46709 0.21179 0.0
C1487 C 0.75914 0.4511 0.2106 0.0
C1488 C 0.77103 0.44349 0.1994 0.0
C1489 C 0.78292 0.45216 0.19023 0.0
C1490 C 0.78262 0.46813 0.19131 0.0
H1491 H 0.73974 0.49892 0.16318 0.0
H1492 H 0.75021 0.48141 0.1669 0.0
H1493 H 0.7374 0.48765 0.18917 0.0
H1494 H 0.74955 0.47274 0.22026 0.0
H1495 H 0.74988 0.44473 0.21804 0.0
H1496 H 0.44839 0.72981 0.17802 0.0
H1497 H 0.47507 0.72827 0.1867 0.0
H1498 H 0.46725 0.74741 0.25507 0.0
H1499 H 0.44036 0.74908 0.24649 0.0
H1500 H 0.48971 0.76231 0.22923 0.0
H1501 H 0.49894 0.69967 0.22966 0.0
H1502 H 0.48857 0.70581 0.20449 0.0
H1503 H 0.48059 0.70813 0.23316 0.0
C1504 C 0.45228 0.73354 0.19503 0.0
C1505 C 0.44227 0.73959 0.21156 0.0
C1506 C 0.46753 0.73252 0.20003 0.0
C1507 C 0.47307 0.73748 0.22166 0.0
C1508 C 0.46312 0.74337 0.23837 0.0
H1509 H 0.57056 0.75204 0.23999 0.0
H1510 H 0.54422 0.74915 0.25153 0.0
C1511 C 0.4478 0.74432 0.23342 0.0
C1512 C 0.48943 0.73775 0.22564 0.0
H1513 H 0.52057 0.71535 0.22063 0.0
C1514 C 0.4965 0.75203 0.22799 0.0
C1515 C 0.4982 0.7243 0.22414 0.0
C1516 C 0.49117 0.7086 0.22297 0.0
C1517 C 0.51216 0.75332 0.22689 0.0
C1518 C 0.52086 0.73995 0.22367 0.0
C1519 C 0.51383 0.72558 0.22298 0.0
C1520 C 0.53695 0.74083 0.21778 0.0
C1521 C 0.5192 0.76904 0.22749 0.0
C1522 C 0.54155 0.73678 0.19521 0.0
C1523 C 0.55648 0.73839 0.18859 0.0
C1524 C 0.56715 0.74405 0.20447 0.0
C1525 C 0.56259 0.74772 0.22733 0.0
C1526 C 0.54757 0.74612 0.23394 0.0
H1527 H 0.5107 0.77834 0.22726 0.0
H1528 H 0.52599 0.77024 0.24363 0.0
H1529 H 0.52682 0.77058 0.21233 0.0
H1530 H 0.53349 0.73267 0.18251 0.0
H1531 H 0.55961 0.73537 0.17089 0.0
H1532 H 0.21329 0.43363 0.16105 0.0
H1533 H 0.2181 0.4585 0.17893 0.0
H1534 H 0.22932 0.43638 0.244 0.0
H1535 H 0.22466 0.41128 0.22614 0.0
H1536 H 0.20474 0.47186 0.21932 0.0
H1537 H 0.26635 0.46337 0.2286 0.0
H1538 H 0.25502 0.45131 0.21004 0.0
H1539 H 0.25421 0.44913 0.24118 0.0
C1540 C 0.21674 0.434 0.17919 0.0
C1541 C 0.21869 0.42047 0.19214 0.0
C1542 C 0.21945 0.44823 0.18939 0.0
C1543 C 0.22419 0.44923 0.21269 0.0
C1544 C 0.22585 0.4358 0.22589 0.0
H1545 H 0.23018 0.54474 0.26295 0.0
H1546 H 0.22607 0.51701 0.26581 0.0
C1547 C 0.22314 0.4215 0.21568 0.0
C1548 C 0.22762 0.46446 0.22262 0.0
H1549 H 0.25687 0.48783 0.23695 0.0
C1550 C 0.21607 0.47533 0.22365 0.0
C1551 C 0.24245 0.46886 0.22816 0.0
C1552 C 0.25529 0.45764 0.22687 0.0
C1553 C 0.21907 0.49074 0.22877 0.0
C1554 C 0.23401 0.49529 0.23334 0.0
C1555 C 0.24543 0.48424 0.23359 0.0
C1556 C 0.23825 0.51166 0.23416 0.0
C1557 C 0.20641 0.5022 0.22764 0.0
C1558 C 0.24702 0.51768 0.21605 0.0
C1559 C 0.24944 0.53341 0.21442 0.0
C1560 C 0.24313 0.54345 0.23091 0.0
C1561 C 0.23509 0.53732 0.24987 0.0
C1562 C 0.23268 0.5215 0.25149 0.0
H1563 H 0.19596 0.49709 0.22052 0.0
H1564 H 0.204 0.50653 0.24547 0.0
H1565 H 0.20958 0.51213 0.21658 0.0
H1566 H 0.25144 0.51026 0.20252 0.0
H1567 H 0.25581 0.53774 0.19972 0.0
H1568 H 0.08962 0.21817 0.40663 0.0
H1569 H 0.09263 0.22057 0.44882 0.0
H1570 H 0.10299 0.26857 0.44096 0.0
H1571 H 0.10029 0.26622 0.39853 0.0
H1572 H 0.1226 0.254 0.46991 0.0
H1573 H 0.06439 0.24011 0.49557 0.0
H1574 H 0.07243 0.22565 0.47715 0.0
H1575 H 0.06953 0.24469 0.46587 0.0
C1576 C 0.09244 0.22927 0.41384 0.0
C1577 C 0.09467 0.24202 0.39922 0.0
C1578 C 0.09406 0.23064 0.438 0.0
C1579 C 0.09775 0.24481 0.44806 0.0
C1580 C 0.10003 0.25756 0.43354 0.0
H1581 H 0.09467 0.25593 0.59988 0.0
H1582 H 0.09071 0.25965 0.55797 0.0
C1583 C 0.09847 0.25619 0.40932 0.0
C1584 C 0.09987 0.24608 0.47365 0.0
H1585 H 0.08293 0.23849 0.52581 0.0
C1586 C 0.11388 0.25078 0.48216 0.0
C1587 C 0.08839 0.24215 0.48961 0.0
C1588 C 0.07279 0.23802 0.4816 0.0
C1589 C 0.11693 0.25103 0.50621 0.0
C1590 C 0.10576 0.24612 0.52208 0.0
C1591 C 0.09155 0.24206 0.51361 0.0
C1592 C 0.10872 0.24456 0.54743 0.0
C1593 C 0.13208 0.25655 0.51435 0.0
C1594 C 0.12011 0.23478 0.55541 0.0
C1595 C 0.12246 0.23269 0.57931 0.0
C1596 C 0.11332 0.24018 0.59572 0.0
C1597 C 0.10191 0.24998 0.58769 0.0
C1598 C 0.09963 0.25213 0.56376 0.0
H1599 H 0.13731 0.26433 0.50133 0.0
H1600 H 0.13125 0.26267 0.53131 0.0
H1601 H 0.13962 0.24655 0.51664 0.0
H1602 H 0.12701 0.22851 0.54313 0.0
H1603 H 0.13127 0.22498 0.5849 0.0
H1604 H 0.73267 0.08497 0.6219 0.0
H1605 H 0.72652 0.08547 0.58034 0.0
H1606 H 0.71614 0.13363 0.58517 0.0
H1607 H 0.72248 0.13332 0.62679 0.0
H1608 H 0.69954 0.09369 0.55835 0.0
H1609 H 0.74658 0.13162 0.5315 0.0
H1610 H 0.74595 0.12237 0.55969 0.0
H1611 H 0.73471 0.13907 0.55417 0.0
C1612 C 0.72911 0.0957 0.61416 0.0
C1613 C 0.72817 0.10914 0.62763 0.0
C1614 C 0.72557 0.09594 0.59041 0.0
C1615 C 0.72107 0.10962 0.57965 0.0
C1616 C 0.71986 0.12302 0.59308 0.0
H1617 H 0.70286 0.12822 0.43241 0.0
H1618 H 0.70421 0.1303 0.475 0.0
C1619 C 0.72343 0.1228 0.61687 0.0
C1620 C 0.71768 0.10975 0.55434 0.0
H1621 H 0.72963 0.12406 0.50208 0.0
C1622 C 0.70607 0.10037 0.54603 0.0
C1623 C 0.72621 0.11851 0.53837 0.0
C1624 C 0.73914 0.12838 0.54627 0.0
C1625 C 0.70282 0.09943 0.52209 0.0
C1626 C 0.71156 0.10793 0.50608 0.0
C1627 C 0.72294 0.11758 0.51444 0.0
C1628 C 0.70963 0.10641 0.48051 0.0
C1629 C 0.69004 0.08939 0.51413 0.0
C1630 C 0.71224 0.09228 0.46955 0.0
C1631 C 0.7115 0.09104 0.44525 0.0
C1632 C 0.70822 0.10395 0.43146 0.0
C1633 C 0.70538 0.11805 0.44253 0.0
C1634 C 0.70616 0.11927 0.46685 0.0
H1635 H 0.68193 0.08722 0.52849 0.0
H1636 H 0.68397 0.09466 0.49922 0.0
H1637 H 0.69455 0.07817 0.50834 0.0
H1638 H 0.71524 0.08229 0.47975 0.0
H1639 H 0.71379 0.08003 0.43729 0.0
H1640 H 0.90867 0.75095 0.40198 0.0
H1641 H 0.90704 0.74642 0.44404 0.0
H1642 H 0.85923 0.75335 0.44148 0.0
H1643 H 0.8607 0.75775 0.39933 0.0
H1644 H 0.89615 0.76688 0.47777 0.0
H1645 H 0.86347 0.7127 0.47719 0.0
H1646 H 0.87281 0.72003 0.45152 0.0
H1647 H 0.85525 0.72809 0.46074 0.0
C1648 C 0.89778 0.75143 0.41031 0.0
C1649 C 0.8848 0.75469 0.39729 0.0
C1650 C 0.89689 0.74883 0.43434 0.0
C1651 C 0.883 0.74934 0.44578 0.0
C1652 C 0.87002 0.7526 0.43288 0.0
H1653 H 0.85504 0.74408 0.59038 0.0
H1654 H 0.85635 0.74566 0.54775 0.0
C1655 C 0.8709 0.75521 0.40883 0.0
C1656 C 0.88223 0.74717 0.47139 0.0
H1657 H 0.86721 0.72456 0.51409 0.0
C1658 C 0.8899 0.75758 0.48573 0.0
C1659 C 0.87401 0.73505 0.48166 0.0
C1660 C 0.86601 0.72323 0.46702 0.0
C1661 C 0.88937 0.75637 0.51014 0.0
C1662 C 0.88118 0.74424 0.52043 0.0
C1663 C 0.8735 0.73382 0.5061 0.0
C1664 C 0.88034 0.74233 0.54608 0.0
C1665 C 0.89729 0.76829 0.52472 0.0
C1666 C 0.89335 0.73954 0.55915 0.0
C1667 C 0.89266 0.73867 0.58349 0.0
C1668 C 0.87891 0.74048 0.59517 0.0
C1669 C 0.86581 0.74271 0.58193 0.0
C1670 C 0.86653 0.7436 0.55758 0.0
H1671 H 0.89986 0.77877 0.51446 0.0
H1672 H 0.89042 0.77158 0.54009 0.0
H1673 H 0.90803 0.7635 0.53119 0.0
H1674 H 0.90408 0.73823 0.55053 0.0
H1675 H 0.90294 0.73682 0.59315 0.0
H1676 H 0.27454 0.8908 0.61193 0.0
H1677 H 0.28016 0.89003 0.57009 0.0
H1678 H 0.23661 0.90896 0.55487 0.0
H1679 H 0.23084 0.90971 0.59662 0.0
H1680 H 0.24475 0.88288 0.52736 0.0
H1681 H 0.28892 0.92783 0.52816 0.0
H1682 H 0.29135 0.91254 0.54887 0.0
H1683 H 0.27575 0.92539 0.55182 0.0
C1684 C 0.26616 0.89482 0.59969 0.0
C1685 C 0.25226 0.90037 0.6076 0.0
C1686 C 0.26942 0.89443 0.57581 0.0
C1687 C 0.25886 0.89961 0.55947 0.0
C1688 C 0.24492 0.90497 0.56726 0.0
H1689 H 0.26789 0.92251 0.41361 0.0
H1690 H 0.26409 0.92225 0.4559 0.0
C1691 C 0.24166 0.90541 0.59112 0.0
C1692 C 0.26223 0.89927 0.53417 0.0
H1693 H 0.28491 0.91484 0.49241 0.0
C1694 C 0.25355 0.88983 0.51968 0.0
C1695 C 0.27362 0.90848 0.52428 0.0
C1696 C 0.2829 0.91924 0.53899 0.0
C1697 C 0.25599 0.8893 0.49548 0.0
C1698 C 0.26753 0.89833 0.48563 0.0
C1699 C 0.27617 0.90784 0.5001 0.0
C1700 C 0.27042 0.89849 0.46019 0.0
C1701 C 0.24601 0.87934 0.48057 0.0
C1702 C 0.27549 0.88527 0.44871 0.0
C1703 C 0.27769 0.88537 0.42453 0.0
C1704 C 0.27488 0.89871 0.41144 0.0
C1705 C 0.27011 0.91202 0.42313 0.0
C1706 C 0.26795 0.91192 0.4473 0.0
H1707 H 0.23577 0.87567 0.49009 0.0
H1708 H 0.24259 0.88549 0.46444 0.0
H1709 H 0.25227 0.86891 0.4753 0.0
H1710 H 0.27767 0.87486 0.45844 0.0
H1711 H 0.28143 0.87494 0.41608 0.0
H1712 H 0.09976 0.73511 0.40338 0.0
H1713 H 0.09652 0.73347 0.44578 0.0
H1714 H 0.1414 0.7505 0.45586 0.0
H1715 H 0.1448 0.75217 0.41354 0.0
H1716 H 0.13277 0.72348 0.48366 0.0
H1717 H 0.09232 0.77193 0.48926 0.0
H1718 H 0.08825 0.75721 0.46817 0.0
H1719 H 0.10444 0.76915 0.46435 0.0
C1720 C 0.10896 0.73848 0.4146 0.0
C1721 C 0.12251 0.74386 0.40509 0.0
C1722 C 0.10706 0.73757 0.4388 0.0
C1723 C 0.11867 0.74202 0.45386 0.0
C1724 C 0.13231 0.74707 0.44446 0.0
H1725 H 0.13517 0.74955 0.60159 0.0
H1726 H 0.13681 0.74709 0.55919 0.0
C1727 C 0.1342 0.74805 0.42029 0.0
C1728 C 0.1166 0.74157 0.47946 0.0
H1729 H 0.09805 0.75902 0.52425 0.0
C1730 C 0.12515 0.7312 0.49259 0.0
C1731 C 0.1066 0.75162 0.49092 0.0
C1732 C 0.09742 0.76321 0.47756 0.0
C1733 C 0.12397 0.73061 0.51702 0.0
C1734 C 0.11424 0.74093 0.52857 0.0
C1735 C 0.1055 0.75112 0.51535 0.0
C1736 C 0.11332 0.74177 0.55438 0.0
C1737 C 0.13302 0.71883 0.53018 0.0
C1738 C 0.0995 0.73994 0.56573 0.0
C1739 C 0.09849 0.74152 0.58998 0.0
C1740 C 0.11128 0.74501 0.6033 0.0
C1741 C 0.12512 0.74675 0.59188 0.0
C1742 C 0.12611 0.74525 0.56764 0.0
H1743 H 0.13612 0.70901 0.51881 0.0
H1744 H 0.14355 0.72419 0.53649 0.0
H1745 H 0.12677 0.7144 0.54553 0.0
H1746 H 0.08948 0.73736 0.5558 0.0
H1747 H 0.08766 0.74011 0.59825 0.0
H1748 H 0.26752 0.13389 0.37415 0.0
H1749 H 0.27471 0.13457 0.41542 0.0
H1750 H 0.26832 0.08568 0.42013 0.0
H1751 H 0.26137 0.08483 0.37892 0.0
H1752 H 0.25758 0.12599 0.45321 0.0
H1753 H 0.30941 0.09116 0.44965 0.0
H1754 H 0.30074 0.09908 0.42383 0.0
H1755 H 0.29363 0.0817 0.43663 0.0
C1756 C 0.26777 0.12326 0.38392 0.0
C1757 C 0.26391 0.10929 0.37323 0.0
C1758 C 0.27189 0.12368 0.40748 0.0
C1759 C 0.2723 0.11015 0.42072 0.0
C1760 C 0.26844 0.09621 0.4101 0.0
H1761 H 0.27823 0.0822 0.56331 0.0
H1762 H 0.27639 0.08469 0.52089 0.0
C1763 C 0.26436 0.09576 0.38656 0.0
C1764 C 0.2759 0.11065 0.44597 0.0
H1765 H 0.29862 0.09494 0.48756 0.0
C1766 C 0.26669 0.11939 0.46071 0.0
C1767 C 0.28779 0.10203 0.45567 0.0
C1768 C 0.29855 0.09308 0.4406 0.0
C1769 C 0.26865 0.11921 0.48503 0.0
C1770 C 0.28025 0.11021 0.49476 0.0
C1771 C 0.28971 0.10179 0.48 0.0
C1772 C 0.28221 0.10874 0.52032 0.0
C1773 C 0.25794 0.12816 0.50021 0.0
C1774 C 0.28638 0.1214 0.53396 0.0
C1775 C 0.28746 0.12003 0.55824 0.0
C1776 C 0.28439 0.10595 0.56925 0.0
C1777 C 0.2806 0.09321 0.55541 0.0
C1778 C 0.27957 0.09459 0.53117 0.0
H1779 H 0.24798 0.13218 0.49029 0.0
H1780 H 0.25408 0.12107 0.51515 0.0
H1781 H 0.26378 0.13835 0.50738 0.0
H1782 H 0.28867 0.13236 0.52583 0.0
H1783 H 0.29046 0.13004 0.56839 0.0
H1784 H 0.90113 0.24447 0.40424 0.0
H1785 H 0.90224 0.24803 0.44657 0.0
H1786 H 0.85512 0.25896 0.44763 0.0
H1787 H 0.85382 0.25521 0.40534 0.0
H1788 H 0.89504 0.27365 0.47443 0.0
H1789 H 0.8587 0.2236 0.49456 0.0
H1790 H 0.86685 0.22662 0.46608 0.0
H1791 H 0.85067 0.23741 0.47494 0.0
C1792 C 0.891 0.24766 0.41345 0.0
C1793 C 0.87735 0.24941 0.40145 0.0
C1794 C 0.89167 0.24972 0.43763 0.0
C1795 C 0.87872 0.25352 0.45024 0.0
C1796 C 0.86518 0.25573 0.43825 0.0
H1797 H 0.86327 0.26131 0.60013 0.0
H1798 H 0.8607 0.26272 0.55762 0.0
C1799 C 0.86448 0.25364 0.41407 0.0
C1800 C 0.87939 0.2549 0.47598 0.0
H1801 H 0.86651 0.23876 0.52645 0.0
C1802 C 0.88879 0.26605 0.48583 0.0
C1803 C 0.8712 0.24496 0.49076 0.0
C1804 C 0.86137 0.23238 0.48113 0.0
C1805 C 0.89021 0.26756 0.51015 0.0
C1806 C 0.88218 0.25748 0.5249 0.0
C1807 C 0.87261 0.24649 0.51505 0.0
C1808 C 0.884 0.25768 0.5506 0.0
C1809 C 0.90018 0.27999 0.51983 0.0
C1810 C 0.89795 0.25434 0.56068 0.0
C1811 C 0.89946 0.2535 0.58493 0.0
C1812 C 0.88701 0.2559 0.59954 0.0
C1813 C 0.87308 0.25942 0.58938 0.0
C1814 C 0.87158 0.26023 0.56511 0.0
H1815 H 0.90213 0.28924 0.50684 0.0
H1816 H 0.89526 0.28512 0.53584 0.0
H1817 H 0.91121 0.27498 0.52449 0.0
H1818 H 0.9076 0.25202 0.54976 0.0
H1819 H 0.91034 0.25072 0.59218 0.0
H1820 H 0.70314 0.90872 0.56931 0.0
H1821 H 0.70609 0.90804 0.5268 0.0
H1822 H 0.72651 0.86337 0.53176 0.0
H1823 H 0.72352 0.86387 0.57417 0.0
H1824 H 0.73355 0.90516 0.50272 0.0
H1825 H 0.69461 0.8577 0.4806 0.0
H1826 H 0.69403 0.8676 0.50829 0.0
H1827 H 0.70801 0.85318 0.50299 0.0
C1828 C 0.70811 0.89868 0.56135 0.0
C1829 C 0.71307 0.88634 0.57513 0.0
C1830 C 0.7098 0.89832 0.53707 0.0
C1831 C 0.71634 0.88558 0.52616 0.0
C1832 C 0.72117 0.87319 0.53982 0.0
H1833 H 0.74371 0.86306 0.38506 0.0
H1834 H 0.73831 0.86321 0.427 0.0
C1835 C 0.71952 0.87354 0.56407 0.0
C1836 C 0.71891 0.8856 0.50061 0.0
H1837 H 0.7107 0.86639 0.45026 0.0
C1838 C 0.72848 0.89676 0.4912 0.0
C1839 C 0.71233 0.87457 0.48572 0.0
C1840 C 0.70156 0.86265 0.49482 0.0
C1841 C 0.7319 0.897 0.46729 0.0
C1842 C 0.72533 0.88596 0.45237 0.0
C1843 C 0.71572 0.87482 0.46177 0.0
C1844 C 0.72831 0.8858 0.42693 0.0
C1845 C 0.74281 0.90883 0.45831 0.0
C1846 C 0.72424 0.89835 0.41299 0.0
C1847 C 0.72735 0.89832 0.38908 0.0
C1848 C 0.73448 0.88568 0.37863 0.0
C1849 C 0.73826 0.87299 0.39258 0.0
C1850 C 0.73517 0.87304 0.41652 0.0
H1851 H 0.74971 0.91376 0.47261 0.0
H1852 H 0.75041 0.90381 0.44499 0.0
H1853 H 0.73649 0.91834 0.45001 0.0
H1854 H 0.71866 0.90817 0.42061 0.0
H1855 H 0.72417 0.90823 0.37881 0.0
H1856 H 0.59295 0.75349 0.08877 0.0
H1857 H 0.59235 0.75452 0.0461 0.0
H1858 H 0.64027 0.76075 0.04462 0.0
H1859 H 0.64104 0.75951 0.0873 0.0
H1860 H 0.60205 0.77726 0.01445 0.0
H1861 H 0.63358 0.72276 0.00362 0.0
H1862 H 0.62559 0.72855 0.0312 0.0
H1863 H 0.64277 0.73701 0.02114 0.0
C1864 C 0.60337 0.75515 0.0794 0.0
C1865 C 0.61707 0.75626 0.09142 0.0
C1866 C 0.60299 0.75576 0.05502 0.0
C1867 C 0.61629 0.75746 0.04224 0.0
C1868 C 0.62992 0.75913 0.05418 0.0
H1869 H 0.63334 0.75328 0.8925 0.0
H1870 H 0.6357 0.75732 0.93464 0.0
C1871 C 0.63032 0.75849 0.07857 0.0
C1872 C 0.61588 0.75708 0.0164 0.0
H1873 H 0.62742 0.73627 0.96923 0.0
C1874 C 0.60761 0.76833 0.00452 0.0
C1875 C 0.62315 0.74539 0.00356 0.0
C1876 C 0.63167 0.73265 0.01547 0.0
C1877 C 0.60647 0.76823 0.98006 0.0
C1878 C 0.61358 0.75644 0.96727 0.0
C1879 C 0.62202 0.74532 0.97913 0.0
C1880 C 0.61199 0.75502 0.94163 0.0
C1881 C 0.59775 0.78081 0.96812 0.0
C1882 C 0.59787 0.75235 0.93165 0.0
C1883 C 0.59648 0.75001 0.90761 0.0
C1884 C 0.6092 0.75022 0.89312 0.0
C1885 C 0.62332 0.75306 0.90316 0.0
C1886 C 0.62469 0.75537 0.92722 0.0
H1887 H 0.59656 0.79105 0.97949 0.0
H1888 H 0.60325 0.7843 0.95155 0.0
H1889 H 0.58635 0.77656 0.9639 0.0
H1890 H 0.58796 0.75172 0.94254 0.0
H1891 H 0.58545 0.74781 0.90045 0.0
H1892 H 0.20009 0.5775 0.93896 0.0
H1893 H 0.20382 0.57711 0.9813 0.0
H1894 H 0.21235 0.62574 0.9807 0.0
H1895 H 0.20856 0.6263 0.93844 0.0
H1896 H 0.23074 0.58607 0.00344 0.0
H1897 H 0.18241 0.6204 0.0349 0.0
H1898 H 0.18299 0.61192 0.00612 0.0
H1899 H 0.19313 0.62928 0.01205 0.0
C1900 C 0.20254 0.58816 0.94786 0.0
C1901 C 0.20405 0.60193 0.93531 0.0
C1902 C 0.20468 0.5879 0.97204 0.0
C1903 C 0.2082 0.60141 0.98412 0.0
C1904 C 0.20937 0.61524 0.97175 0.0
H1905 H 0.23624 0.62476 0.12424 0.0
H1906 H 0.22842 0.62469 0.08325 0.0
C1907 C 0.20728 0.61551 0.94757 0.0
C1908 C 0.21182 0.60087 0.00934 0.0
H1909 H 0.20159 0.615 0.0626 0.0
C1910 C 0.2243 0.59227 0.01643 0.0
C1911 C 0.20344 0.60908 0.02614 0.0
C1912 C 0.18966 0.6181 0.01952 0.0
C1913 C 0.22886 0.59194 0.03987 0.0
C1914 C 0.2205 0.60018 0.05671 0.0
C1915 C 0.20796 0.6087 0.04963 0.0
C1916 C 0.22474 0.60021 0.08172 0.0
C1917 C 0.24284 0.58315 0.04627 0.0
C1918 C 0.225 0.5865 0.0945 0.0
C1919 C 0.22954 0.58648 0.11786 0.0
C1920 C 0.23377 0.60021 0.12892 0.0
C1921 C 0.23312 0.61399 0.11621 0.0
C1922 C 0.22863 0.61398 0.09282 0.0
H1923 H 0.24998 0.58086 0.03076 0.0
H1924 H 0.24958 0.58949 0.05941 0.0
H1925 H 0.23961 0.57195 0.05394 0.0
H1926 H 0.22174 0.57579 0.08639 0.0
H1927 H 0.22977 0.57569 0.1272 0.0
H1928 H 0.36139 0.26675 0.08669 0.0
H1929 H 0.36648 0.26516 0.04489 0.0
H1930 H 0.40346 0.23457 0.05827 0.0
H1931 H 0.39862 0.23631 0.10028 0.0
H1932 H 0.41096 0.2577 0.02841 0.0
H1933 H 0.35809 0.23045 -0.00041 0.0
H1934 H 0.3549 0.24739 0.01663 0.0
H1935 H 0.36377 0.23102 0.02985 0.0
C1936 C 0.37053 0.25957 0.08078 0.0
C1937 C 0.37959 0.25164 0.09682 0.0
C1938 C 0.37336 0.2586 0.05684 0.0
C1939 C 0.38518 0.24954 0.04845 0.0
C1940 C 0.39421 0.24154 0.06439 0.0
H1941 H 0.39619 0.23421 0.89829 0.0
H1942 H 0.39352 0.23006 0.94039 0.0
C1943 C 0.39143 0.24255 0.08837 0.0
C1944 C 0.38857 0.24913 0.02313 0.0
H1945 H 0.3728 0.24256 0.96976 0.0
C1946 C 0.40268 0.25421 0.01558 0.0
C1947 C 0.37785 0.24435 0.00645 0.0
C1948 C 0.36286 0.23784 0.01353 0.0
C1949 C 0.40614 0.25525 0.99173 0.0
C1950 C 0.39508 0.2514 0.97503 0.0
C1951 C 0.3812 0.24569 0.98259 0.0
C1952 C 0.39745 0.25375 0.94968 0.0
C1953 C 0.42161 0.26049 0.98467 0.0
C1954 C 0.40045 0.26847 0.94097 0.0
C1955 C 0.40204 0.27087 0.91698 0.0
C1956 C 0.40049 0.25862 0.90122 0.0
C1957 C 0.39747 0.24388 0.90998 0.0
C1958 C 0.39594 0.24148 0.93401 0.0
H1959 H 0.42992 0.25834 0.99874 0.0
H1960 H 0.42541 0.25461 0.96852 0.0
H1961 H 0.42138 0.27301 0.98128 0.0
H1962 H 0.40129 0.27817 0.9527 0.0
H1963 H 0.40425 0.28238 0.91081 0.0
H1964 H 0.73463 0.40527 0.10647 0.0
H1965 H 0.74037 0.40455 0.06471 0.0
H1966 H 0.7861 0.39232 0.08022 0.0
H1967 H 0.78052 0.39305 0.12208 0.0
H1968 H 0.7824 0.4168 0.04688 0.0
H1969 H 0.74845 0.36534 0.0253 0.0
H1970 H 0.73867 0.37995 0.04135 0.0
H1971 H 0.75403 0.36999 0.0548 0.0
C1972 C 0.74591 0.40239 0.10103 0.0
C1973 C 0.75711 0.39916 0.1176 0.0
C1974 C 0.74914 0.40191 0.07716 0.0
C1975 C 0.7636 0.39821 0.06945 0.0
C1976 C 0.77485 0.39513 0.08589 0.0
H1977 H 0.78785 0.37668 0.92583 0.0
H1978 H 0.78532 0.37655 0.9684 0.0
C1979 C 0.77162 0.39553 0.10977 0.0
C1980 C 0.76704 0.39785 0.04419 0.0
H1981 H 0.75809 0.37962 0.99333 0.0
C1982 C 0.77716 0.40863 0.03515 0.0
C1983 C 0.76031 0.38705 0.02907 0.0
C1984 C 0.74985 0.37482 0.03807 0.0
C1985 C 0.78043 0.40916 0.01118 0.0
C1986 C 0.77328 0.39872 0.99594 0.0
C1987 C 0.76347 0.38768 0.00508 0.0
C1988 C 0.77558 0.39921 0.97036 0.0
C1989 C 0.79154 0.42084 0.00236 0.0
C1990 C 0.77093 0.41201 0.95742 0.0
C1991 C 0.77232 0.41212 0.93311 0.0
C1992 C 0.77836 0.39941 0.92131 0.0
C1993 C 0.78318 0.38668 0.93438 0.0
C1994 C 0.78174 0.38656 0.95869 0.0
H1995 H 0.79876 0.42528 0.01666 0.0
H1996 H 0.7988 0.41585 0.98856 0.0
H1997 H 0.78538 0.43067 0.99469 0.0
H1998 H 0.76591 0.42178 0.96608 0.0
H1999 H 0.76846 0.42209 0.92357 0.0
H2000 H 0.64042 0.24799 0.10024 0.0
H2001 H 0.64321 0.24463 0.05804 0.0
H2002 H 0.59526 0.24708 0.04966 0.0
H2003 H 0.59231 0.25025 0.09185 0.0
H2004 H 0.60895 0.22305 0.02432 0.0
H2005 H 0.63748 0.27887 0.00955 0.0
H2006 H 0.64604 0.26676 0.03114 0.0
H2007 H 0.62768 0.27447 0.0363 0.0
C2008 C 0.63046 0.24781 0.08943 0.0
C2009 C 0.61614 0.2495 0.09938 0.0
C2010 C 0.63209 0.24595 0.06532 0.0
C2011 C 0.61946 0.24584 0.05074 0.0
C2012 C 0.60515 0.2472 0.06064 0.0
H2013 H 0.59965 0.24233 0.90373 0.0
H2014 H 0.59912 0.24178 0.94637 0.0
C2015 C 0.60349 0.24905 0.08474 0.0
C2016 C 0.6211 0.24436 0.02511 0.0
H2017 H 0.63504 0.26249 0.97695 0.0
C2018 C 0.61467 0.23165 0.01394 0.0
C2019 C 0.6286 0.2556 0.01167 0.0
C2020 C 0.63525 0.26977 0.02268 0.0
C2021 C 0.61555 0.22986 0.98961 0.0
C2022 C 0.62285 0.24121 0.97615 0.0
C2023 C 0.62949 0.25379 0.98736 0.0
C2024 C 0.62321 0.24062 0.95032 0.0
C2025 C 0.60878 0.21577 0.97856 0.0
C2026 C 0.63695 0.24038 0.93841 0.0
C2027 C 0.6373 0.24078 0.914 0.0
C2028 C 0.62391 0.24157 0.9011 0.0
C2029 C 0.61016 0.24167 0.91312 0.0
C2030 C 0.60983 0.24125 0.9375 0.0
H2031 H 0.60746 0.20633 0.99142 0.0
H2032 H 0.5975 0.21865 0.97166 0.0
H2033 H 0.61576 0.21162 0.9638 0.0
H2034 H 0.6474 0.23999 0.94802 0.0
H2035 H 0.64807 0.24072 0.90529 0.0
H2036 H 0.78531 0.63085 0.07249 0.0
H2037 H 0.78454 0.63313 0.02988 0.0
H2038 H 0.773 0.58529 0.02428 0.0
H2039 H 0.77382 0.58284 0.06679 0.0
H2040 H 0.79599 0.59565 0.99262 0.0
H2041 H 0.74516 0.63261 0.99127 0.0
H2042 H 0.76034 0.63901 0.00947 0.0
H2043 H 0.75058 0.62165 0.01667 0.0
C2044 C 0.78266 0.62079 0.0622 0.0
C2045 C 0.77954 0.60668 0.07304 0.0
C2046 C 0.78217 0.62214 0.03787 0.0
C2047 C 0.77852 0.60942 0.02402 0.0
C2048 C 0.77578 0.59525 0.03472 0.0
H2049 H 0.76273 0.58588 0.88086 0.0
H2050 H 0.76799 0.58663 0.92265 0.0
C2051 C 0.77623 0.59389 0.05902 0.0
C2052 C 0.77736 0.61085 0.99833 0.0
H2053 H 0.75618 0.62675 0.95499 0.0
C2054 C 0.78734 0.60249 0.98435 0.0
C2055 C 0.76609 0.61986 0.98768 0.0
C2056 C 0.75483 0.62873 0.00196 0.0
C2057 C 0.7863 0.60281 0.95989 0.0
C2058 C 0.77476 0.61147 0.94924 0.0
C2059 C 0.76501 0.62013 0.96323 0.0
C2060 C 0.77211 0.61107 0.92371 0.0
C2061 C 0.79758 0.59393 0.9457 0.0
C2062 C 0.77233 0.62462 0.91052 0.0
C2063 C 0.76919 0.62426 0.88658 0.0
C2064 C 0.76568 0.61033 0.87549 0.0
C2065 C 0.76546 0.59679 0.88881 0.0
C2066 C 0.76858 0.59717 0.91269 0.0
H2067 H 0.80807 0.59191 0.9557 0.0
H2068 H 0.79279 0.58259 0.9411 0.0
H2069 H 0.80041 0.60002 0.92925 0.0
H2070 H 0.77491 0.63548 0.91876 0.0
H2071 H 0.76943 0.63489 0.87683 0.0
H2072 H 0.39894 0.75578 0.90641 0.0
H2073 H 0.40192 0.75738 0.94878 0.0
H2074 H 0.35392 0.75817 0.95717 0.0
H2075 H 0.35078 0.7567 0.91474 0.0
H2076 H 0.37024 0.77983 0.98575 0.0
H2077 H 0.39261 0.7205 0.99204 0.0
H2078 H 0.40211 0.73276 0.97163 0.0
H2079 H 0.38295 0.72747 0.96645 0.0
C2080 C 0.389 0.75639 0.91722 0.0
C2081 C 0.37461 0.75596 0.9072 0.0
C2082 C 0.39074 0.75725 0.94143 0.0
C2083 C 0.37814 0.75764 0.95605 0.0
C2084 C 0.36378 0.7578 0.94612 0.0
H2085 H 0.36223 0.75592 0.10516 0.0
H2086 H 0.36027 0.75875 0.06281 0.0
C2087 C 0.36201 0.75693 0.92189 0.0
C2088 C 0.37996 0.75741 0.98172 0.0
H2089 H 0.39249 0.73516 0.02668 0.0
C2090 C 0.37509 0.77008 0.99475 0.0
C2091 C 0.38629 0.74465 0.99333 0.0
C2092 C 0.39119 0.7305 0.98023 0.0
C2093 C 0.37658 0.77042 0.01917 0.0
C2094 C 0.38284 0.75761 0.03079 0.0
C2095 C 0.38775 0.74498 0.01771 0.0
C2096 C 0.38411 0.75685 0.05656 0.0
C2097 C 0.37169 0.78456 0.03226 0.0
C2098 C 0.39815 0.7546 0.06706 0.0
C2099 C 0.3993 0.75284 0.09126 0.0
C2100 C 0.38641 0.75321 0.10538 0.0
C2101 C 0.37238 0.75564 0.09481 0.0
C2102 C 0.37125 0.75737 0.07061 0.0
H2103 H 0.37115 0.79474 0.02063 0.0
H2104 H 0.36032 0.78264 0.03956 0.0
H2105 H 0.37941 0.7871 0.04697 0.0
H2106 H 0.40821 0.75407 0.05649 0.0
H2107 H 0.41027 0.75099 0.09884 0.0
H2108 H 0.21027 0.39958 0.87248 0.0
H2109 H 0.20538 0.39858 0.91454 0.0
H2110 H 0.24903 0.41781 0.9281 0.0
H2111 H 0.25407 0.41878 0.88615 0.0
H2112 H 0.24222 0.39103 0.9542 0.0
H2113 H 0.19699 0.43467 0.95979 0.0
H2114 H 0.19425 0.41998 0.93818 0.0
H2115 H 0.20947 0.43328 0.93504 0.0
C2116 C 0.21879 0.4037 0.8844 0.0
C2117 C 0.23256 0.40927 0.87597 0.0
C2118 C 0.21594 0.40319 0.9084 0.0
C2119 C 0.22679 0.40827 0.92436 0.0
C2120 C 0.2405 0.41389 0.91602 0.0
H2121 H 0.2211 0.42501 0.07289 0.0
H2122 H 0.22364 0.42685 0.03044 0.0
C2123 C 0.24335 0.41445 0.89205 0.0
C2124 C 0.22415 0.40711 0.94981 0.0
H2125 H 0.20212 0.42043 0.99415 0.0
C2126 C 0.23346 0.39744 0.96296 0.0
C2127 C 0.21279 0.41561 0.96114 0.0
C2128 C 0.20285 0.42658 0.94791 0.0
C2129 C 0.23164 0.39595 0.98719 0.0
C2130 C 0.2201 0.40422 0.99846 0.0
C2131 C 0.21086 0.414 0.98536 0.0
C2132 C 0.21776 0.40318 0.02399 0.0
C2133 C 0.24226 0.38576 0.00061 0.0
C2134 C 0.21334 0.38933 0.03432 0.0
C2135 C 0.21187 0.38822 0.05857 0.0
C2136 C 0.21478 0.40098 0.07289 0.0
C2137 C 0.21883 0.41495 0.06238 0.0
C2138 C 0.22026 0.41605 0.03814 0.0
H2139 H 0.25239 0.38285 0.99024 0.0
H2140 H 0.24583 0.39135 0.01712 0.0
H2141 H 0.23646 0.37492 0.00518 0.0
H2142 H 0.21115 0.37933 0.02362 0.0
H2143 H 0.20866 0.37731 0.06609 0.0
H2144 H 0.1794 0.34941 0.16738 0.0
H2145 H 0.16215 0.33472 0.19173 0.0
H2146 H 0.13999 0.37639 0.21267 0.0
H2147 H 0.15728 0.39134 0.18833 0.0
H2148 H 0.15879 0.34485 0.24551 0.0
H2149 H 0.10713 0.34069 0.19104 0.0
H2150 H 0.12541 0.34179 0.17758 0.0
H2151 H 0.11784 0.35824 0.19207 0.0
C2152 C 0.17074 0.35549 0.17687 0.0
C2153 C 0.16978 0.37157 0.17604 0.0
C2154 C 0.1609 0.34706 0.19074 0.0
C2155 C 0.14987 0.35452 0.20388 0.0
C2156 C 0.14843 0.37049 0.20248 0.0
H2157 H 0.08673 0.3069 0.29662 0.0
H2158 H 0.09883 0.32707 0.2735 0.0
C2159 C 0.15831 0.37897 0.1886 0.0
C2160 C 0.1408 0.34557 0.22051 0.0
H2161 H 0.10767 0.32646 0.22608 0.0
C2162 C 0.14754 0.34095 0.24146 0.0
C2163 C 0.12613 0.34072 0.21512 0.0
C2164 C 0.11858 0.34555 0.19275 0.0
C2165 C 0.14013 0.33112 0.25695 0.0
C2166 C 0.12575 0.32553 0.251 0.0
C2167 C 0.11873 0.33071 0.2305 0.0
C2168 C 0.11835 0.31347 0.265 0.0
C2169 C 0.14783 0.32666 0.27942 0.0
C2170 C 0.12524 0.29913 0.26753 0.0
C2171 C 0.11841 0.28764 0.28069 0.0
C2172 C 0.10449 0.29024 0.29146 0.0
C2173 C 0.09749 0.30457 0.28863 0.0
C2174 C 0.10436 0.31609 0.27543 0.0
H2175 H 0.15631 0.33532 0.28467 0.0
H2176 H 0.13963 0.32528 0.29386 0.0
H2177 H 0.1537 0.31558 0.27689 0.0
H2178 H 0.13588 0.29678 0.25918 0.0
H2179 H 0.12405 0.2767 0.28233 0.0
H2180 H 0.62239 0.22888 0.22133 0.0
H2181 H 0.63249 0.20863 0.24619 0.0
H2182 H 0.62023 0.17481 0.19466 0.0
H2183 H 0.61036 0.19506 0.16938 0.0
H2184 H 0.61819 0.1835 0.26528 0.0
H2185 H 0.66433 0.16549 0.20603 0.0
H2186 H 0.654 0.18304 0.20178 0.0
H2187 H 0.64594 0.165 0.19332 0.0
C2188 C 0.62188 0.21714 0.21521 0.0
C2189 C 0.61566 0.21358 0.19331 0.0
C2190 C 0.62763 0.20559 0.22947 0.0
C2191 C 0.62727 0.19026 0.22213 0.0
C2192 C 0.62089 0.18661 0.20043 0.0
H2193 H 0.66487 0.10987 0.29215 0.0
H2194 H 0.64946 0.12606 0.26677 0.0
C2195 C 0.61521 0.19819 0.18606 0.0
C2196 C 0.63355 0.17819 0.2374 0.0
H2197 H 0.66145 0.15155 0.24103 0.0
C2198 C 0.6276 0.17646 0.25996 0.0
C2199 C 0.6458 0.169 0.23034 0.0
C2200 C 0.65301 0.17076 0.20664 0.0
C2201 C 0.63374 0.16592 0.27579 0.0
C2202 C 0.64619 0.15702 0.26891 0.0
C2203 C 0.65185 0.1584 0.24615 0.0
C2204 C 0.65422 0.14701 0.28552 0.0
C2205 C 0.62692 0.16445 0.29981 0.0
C2206 C 0.66191 0.15348 0.30447 0.0
C2207 C 0.67077 0.14432 0.3189 0.0
C2208 C 0.67211 0.12851 0.31459 0.0
C2209 C 0.66404 0.122 0.29597 0.0
C2210 C 0.65525 0.13121 0.28144 0.0
H2211 H 0.61527 0.16893 0.30027 0.0
H2212 H 0.62686 0.15231 0.30565 0.0
H2213 H 0.63371 0.17116 0.31242 0.0
H2214 H 0.66144 0.16571 0.30764 0.0
H2215 H 0.67684 0.14969 0.33309 0.0
H2216 H 0.80661 0.62393 0.23001 0.0
H2217 H 0.82327 0.6411 0.2516 0.0
H2218 H 0.83361 0.66528 0.18792 0.0
H2219 H 0.81693 0.64822 0.16613 0.0
H2220 H 0.85513 0.64871 0.24363 0.0
H2221 H 0.81613 0.69809 0.23404 0.0
H2222 H 0.81028 0.67851 0.22941 0.0
H2223 H 0.82111 0.68825 0.20756 0.0
C2224 C 0.81251 0.63282 0.22054 0.0
C2225 C 0.81034 0.63481 0.19639 0.0
C2226 C 0.82204 0.64258 0.2329 0.0
C2227 C 0.82947 0.65453 0.22135 0.0
C2228 C 0.82779 0.65622 0.19714 0.0
H2229 H 0.88061 0.73227 0.27113 0.0
H2230 H 0.8678 0.71307 0.24736 0.0
C2231 C 0.8183 0.64643 0.18473 0.0
C2232 C 0.83849 0.66561 0.23483 0.0
H2233 H 0.83915 0.70285 0.25282 0.0
C2234 C 0.85169 0.66056 0.24567 0.0
C2235 C 0.83389 0.68101 0.23739 0.0
C2236 C 0.81953 0.68684 0.22666 0.0
C2237 C 0.86057 0.67064 0.25884 0.0
C2238 C 0.8559 0.68603 0.26158 0.0
C2239 C 0.84271 0.69105 0.25064 0.0
C2240 C 0.86439 0.69717 0.27588 0.0
C2241 C 0.875 0.66479 0.26932 0.0
C2242 C 0.86666 0.6946 0.29982 0.0
C2243 C 0.87403 0.70553 0.31346 0.0
C2244 C 0.87911 0.71929 0.30342 0.0
C2245 C 0.87682 0.7218 0.27941 0.0
C2246 C 0.86952 0.71084 0.26579 0.0
H2247 H 0.87902 0.65431 0.26028 0.0
H2248 H 0.88393 0.67364 0.2685 0.0
H2249 H 0.87308 0.66185 0.28794 0.0
H2250 H 0.86246 0.68429 0.30806 0.0
H2251 H 0.87554 0.7033 0.33192 0.0
H2252 H 0.41056 0.80108 0.20484 0.0
H2253 H 0.39857 0.82215 0.22618 0.0
H2254 H 0.35839 0.79515 0.23346 0.0
H2255 H 0.37019 0.77408 0.21226 0.0
H2256 H 0.35508 0.82693 0.21555 0.0
H2257 H 0.38753 0.82187 0.29841 0.0
H2258 H 0.39773 0.82212 0.27125 0.0
H2259 H 0.38587 0.80615 0.27803 0.0
C2260 C 0.39918 0.79963 0.21103 0.0
C2261 C 0.39133 0.78591 0.20689 0.0
C2262 C 0.3924 0.81164 0.22326 0.0
C2263 C 0.37767 0.8101 0.23146 0.0
C2264 C 0.36979 0.79649 0.22727 0.0
H2265 H 0.31773 0.85251 0.32569 0.0
H2266 H 0.33602 0.83669 0.30505 0.0
C2267 C 0.37657 0.78447 0.21519 0.0
C2268 C 0.37021 0.82272 0.24408 0.0
H2269 H 0.36848 0.84053 0.2971 0.0
C2270 C 0.3581 0.83008 0.23326 0.0
C2271 C 0.3742 0.82664 0.26721 0.0
C2272 C 0.38699 0.81878 0.2796 0.0
C2273 C 0.34958 0.84106 0.24521 0.0
C2274 C 0.35339 0.8448 0.2685 0.0
C2275 C 0.36572 0.83769 0.27916 0.0
C2276 C 0.34379 0.85499 0.28264 0.0
C2277 C 0.33617 0.8481 0.23323 0.0
C2278 C 0.34246 0.87061 0.27725 0.0
C2279 C 0.33201 0.87971 0.28903 0.0
C2280 C 0.32273 0.87328 0.30631 0.0
C2281 C 0.32463 0.85779 0.31236 0.0
C2282 C 0.3351 0.84874 0.30066 0.0
H2283 H 0.33348 0.84228 0.21648 0.0
H2284 H 0.32618 0.84757 0.24476 0.0
H2285 H 0.3385 0.86034 0.22947 0.0
H2286 H 0.34919 0.87564 0.2635 0.0
H2287 H 0.33086 0.89162 0.28403 0.0
H2288 H 0.1793 0.64889 0.83108 0.0
H2289 H 0.1632 0.66307 0.80429 0.0
H2290 H 0.13977 0.62146 0.78667 0.0
H2291 H 0.1559 0.60701 0.81354 0.0
H2292 H 0.16077 0.65338 0.75304 0.0
H2293 H 0.10692 0.65629 0.8023 0.0
H2294 H 0.12467 0.65431 0.81719 0.0
H2295 H 0.11715 0.63848 0.80108 0.0
C2296 C 0.17062 0.64272 0.82177 0.0
C2297 C 0.16893 0.62679 0.82436 0.0
C2298 C 0.16145 0.65086 0.80646 0.0
C2299 C 0.15034 0.64328 0.79361 0.0
C2300 C 0.14825 0.62748 0.79662 0.0
H2301 H 0.09026 0.69062 0.69532 0.0
H2302 H 0.10184 0.6701 0.71839 0.0
C2303 C 0.15748 0.61927 0.81194 0.0
C2304 C 0.14173 0.65192 0.77601 0.0
H2305 H 0.10838 0.67008 0.76701 0.0
C2306 C 0.14925 0.65689 0.7559 0.0
C2307 C 0.1267 0.65628 0.77979 0.0
C2308 C 0.11829 0.65115 0.80125 0.0
C2309 C 0.14227 0.66662 0.73978 0.0
C2310 C 0.12752 0.67175 0.74422 0.0
C2311 C 0.11973 0.66616 0.76375 0.0
C2312 C 0.12055 0.68392 0.72993 0.0
C2313 C 0.15084 0.67154 0.71832 0.0
C2314 C 0.12716 0.69849 0.72908 0.0
C2315 C 0.12062 0.71018 0.716 0.0
C2316 C 0.10726 0.70757 0.7036 0.0
C2317 C 0.10059 0.69298 0.70459 0.0
C2318 C 0.10716 0.68125 0.71777 0.0
H2319 H 0.15976 0.66316 0.71381 0.0
H2320 H 0.14327 0.67288 0.70306 0.0
H2321 H 0.1563 0.68274 0.72176 0.0
H2322 H 0.13733 0.70086 0.73875 0.0
H2323 H 0.12601 0.7213 0.71574 0.0
H2324 H 0.31531 0.15035 0.67263 0.0
H2325 H 0.33145 0.16561 0.69794 0.0
H2326 H 0.35336 0.12454 0.72216 0.0
H2327 H 0.33724 0.10905 0.69673 0.0
H2328 H 0.33264 0.16104 0.74842 0.0
H2329 H 0.38816 0.15498 0.7048 0.0
H2330 H 0.37075 0.15168 0.68948 0.0
H2331 H 0.37745 0.13784 0.71014 0.0
C2332 C 0.32366 0.14453 0.6831 0.0
C2333 C 0.32495 0.12847 0.68272 0.0
C2334 C 0.33287 0.15328 0.69756 0.0
C2335 C 0.3436 0.14619 0.71178 0.0
C2336 C 0.34523 0.13021 0.71107 0.0
H2337 H 0.40328 0.1937 0.81042 0.0
H2338 H 0.39096 0.17328 0.78803 0.0
C2339 C 0.33599 0.1214 0.69659 0.0
C2340 C 0.35233 0.15559 0.72835 0.0
H2341 H 0.38707 0.17058 0.73837 0.0
C2342 C 0.34456 0.16304 0.74636 0.0
C2343 C 0.36789 0.15799 0.72571 0.0
C2344 C 0.37663 0.1503 0.70645 0.0
C2345 C 0.35188 0.1732 0.76146 0.0
C2346 C 0.36729 0.17621 0.75812 0.0
C2347 C 0.37522 0.16827 0.74075 0.0
C2348 C 0.37502 0.18841 0.77136 0.0
C2349 C 0.343 0.18078 0.7807 0.0
C2350 C 0.37028 0.20365 0.769 0.0
C2351 C 0.37723 0.21528 0.78168 0.0
C2352 C 0.38914 0.21191 0.79691 0.0
C2353 C 0.39409 0.19665 0.79891 0.0
C2354 C 0.3871 0.18499 0.78614 0.0
H2355 H 0.33285 0.17403 0.78524 0.0
H2356 H 0.34991 0.18226 0.79668 0.0
H2357 H 0.33929 0.19227 0.77475 0.0
H2358 H 0.36116 0.20655 0.75731 0.0
H2359 H 0.3732 0.22691 0.77959 0.0
H2360 H 0.87267 0.27801 0.70514 0.0
H2361 H 0.86038 0.29728 0.72917 0.0
H2362 H 0.90232 0.32116 0.73762 0.0
H2363 H 0.91487 0.30181 0.71333 0.0
H2364 H 0.86897 0.30538 0.7771 0.0
H2365 H 0.87096 0.35401 0.71394 0.0
H2366 H 0.87299 0.33436 0.70456 0.0
H2367 H 0.88795 0.34358 0.72001 0.0
C2368 C 0.87933 0.28737 0.71198 0.0
C2369 C 0.89477 0.28838 0.7073 0.0
C2370 C 0.87228 0.29834 0.72577 0.0
C2371 C 0.88045 0.3106 0.73508 0.0
C2372 C 0.89584 0.3118 0.7304 0.0
H2373 H 0.83004 0.36716 0.83615 0.0
H2374 H 0.85161 0.35416 0.81847 0.0
C2375 C 0.90296 0.30074 0.71658 0.0
C2376 C 0.8726 0.32192 0.74981 0.0
H2377 H 0.85662 0.3574 0.74794 0.0
C2378 C 0.86649 0.31689 0.77104 0.0
C2379 C 0.86941 0.33684 0.74166 0.0
C2380 C 0.87558 0.34261 0.71876 0.0
C2381 C 0.85658 0.32611 0.7838 0.0
C2382 C 0.85286 0.3408 0.77514 0.0
C2383 C 0.85959 0.34614 0.75451 0.0
C2384 C 0.84055 0.34987 0.78548 0.0
C2385 C 0.84941 0.31969 0.80559 0.0
C2386 C 0.82739 0.35207 0.77255 0.0
C2387 C 0.81512 0.35948 0.7825 0.0
C2388 C 0.81579 0.36486 0.80562 0.0
C2389 C 0.82915 0.36304 0.81836 0.0
C2390 C 0.84147 0.35561 0.80833 0.0
H2391 H 0.85184 0.3073 0.80794 0.0
H2392 H 0.85374 0.32591 0.82108 0.0
H2393 H 0.83707 0.32129 0.80503 0.0
H2394 H 0.82647 0.34769 0.75489 0.0
H2395 H 0.80504 0.36076 0.77216 0.0
H2396 H 0.69096 0.87178 0.7305 0.0
H2397 H 0.6724 0.85671 0.75191 0.0
H2398 H 0.65924 0.83431 0.68799 0.0
H2399 H 0.6777 0.84941 0.66631 0.0
H2400 H 0.63474 0.84332 0.71897 0.0
H2401 H 0.67987 0.81012 0.76304 0.0
H2402 H 0.68118 0.83061 0.76555 0.0
H2403 H 0.68327 0.82171 0.73746 0.0
C2404 C 0.68403 0.86376 0.72093 0.0
C2405 C 0.68591 0.86166 0.69674 0.0
C2406 C 0.67346 0.85515 0.73321 0.0
C2407 C 0.66464 0.84429 0.72153 0.0
C2408 C 0.666 0.84263 0.69727 0.0
H2409 H 0.62091 0.7642 0.7746 0.0
H2410 H 0.63538 0.78324 0.75309 0.0
C2411 C 0.67658 0.85123 0.68495 0.0
C2412 C 0.65464 0.83401 0.73481 0.0
H2413 H 0.65501 0.80464 0.77413 0.0
C2414 C 0.63912 0.83489 0.73111 0.0
C2415 C 0.66047 0.82295 0.75039 0.0
C2416 C 0.67711 0.82113 0.75429 0.0
C2417 C 0.62923 0.82495 0.74272 0.0
C2418 C 0.63508 0.81398 0.75844 0.0
C2419 C 0.65059 0.81315 0.76213 0.0
C2420 C 0.62545 0.80274 0.77053 0.0
C2421 C 0.61267 0.82596 0.73767 0.0
C2422 C 0.61503 0.80744 0.78742 0.0
C2423 C 0.60671 0.79656 0.79982 0.0
C2424 C 0.60876 0.78082 0.79556 0.0
C2425 C 0.61907 0.77622 0.77836 0.0
C2426 C 0.62735 0.78708 0.76602 0.0
H2427 H 0.6103 0.83294 0.72186 0.0
H2428 H 0.60783 0.81435 0.73519 0.0
H2429 H 0.60692 0.83136 0.75274 0.0
H2430 H 0.61358 0.81949 0.79137 0.0
H2431 H 0.59889 0.80047 0.813 0.0
H2432 H 0.87091 0.68361 0.65621 0.0
H2433 H 0.85539 0.66408 0.67515 0.0
H2434 H 0.85314 0.69184 0.73739 0.0
H2435 H 0.86835 0.71152 0.71851 0.0
H2436 H 0.85891 0.64718 0.71608 0.0
H2437 H 0.80915 0.68511 0.72101 0.0
H2438 H 0.82536 0.68972 0.70355 0.0
H2439 H 0.8255 0.69315 0.73454 0.0
C2440 C 0.86717 0.68552 0.67396 0.0
C2441 C 0.8707 0.69919 0.68576 0.0
C2442 C 0.85833 0.67435 0.68475 0.0
C2443 C 0.85289 0.67667 0.70747 0.0
C2444 C 0.85693 0.69 0.71963 0.0
H2445 H 0.81211 0.61195 0.80284 0.0
H2446 H 0.82951 0.62816 0.78096 0.0
C2447 C 0.86568 0.7012 0.70884 0.0
C2448 C 0.84267 0.66538 0.71831 0.0
H2449 H 0.80786 0.66174 0.74222 0.0
C2450 C 0.84771 0.6503 0.7217 0.0
C2451 C 0.82798 0.66944 0.72522 0.0
C2452 C 0.8216 0.68519 0.7207 0.0
C2453 C 0.83855 0.63926 0.73239 0.0
C2454 C 0.82411 0.64353 0.74025 0.0
C2455 C 0.81898 0.65852 0.73636 0.0
C2456 C 0.81405 0.63275 0.75265 0.0
C2457 C 0.84434 0.6231 0.73488 0.0
C2458 C 0.79952 0.63013 0.74419 0.0
C2459 C 0.78949 0.62109 0.75682 0.0
C2460 C 0.79382 0.61446 0.77817 0.0
C2461 C 0.80848 0.61682 0.78638 0.0
C2462 C 0.81848 0.62599 0.77381 0.0
H2463 H 0.85338 0.62064 0.72207 0.0
H2464 H 0.84908 0.62158 0.75265 0.0
H2465 H 0.83522 0.61459 0.73246 0.0
H2466 H 0.79586 0.63529 0.72794 0.0
H2467 H 0.77829 0.61945 0.74998 0.0
H2468 H 0.37082 0.80865 0.8338 0.0
H2469 H 0.35559 0.82784 0.81345 0.0
H2470 H 0.3411 0.79348 0.76425 0.0
H2471 H 0.35605 0.77422 0.78455 0.0
H2472 H 0.35618 0.83776 0.76684 0.0
H2473 H 0.30168 0.81103 0.78916 0.0
H2474 H 0.31895 0.80584 0.80355 0.0
H2475 H 0.31448 0.79803 0.77531 0.0
C2476 C 0.36441 0.80519 0.81863 0.0
C2477 C 0.36453 0.78988 0.81092 0.0
C2478 C 0.35573 0.81616 0.80704 0.0
C2479 C 0.34703 0.81199 0.78764 0.0
C2480 C 0.34748 0.79684 0.77951 0.0
H2481 H 0.30618 0.86618 0.67944 0.0
H2482 H 0.32279 0.85069 0.7038 0.0
C2483 C 0.3561 0.78587 0.79109 0.0
C2484 C 0.33741 0.82341 0.77581 0.0
H2485 H 0.30126 0.83031 0.75964 0.0
C2486 C 0.34415 0.83623 0.7654 0.0
C2487 C 0.32171 0.82149 0.77434 0.0
C2488 C 0.31374 0.80844 0.78638 0.0
C2489 C 0.33563 0.84694 0.75281 0.0
C2490 C 0.32003 0.84456 0.75029 0.0
C2491 C 0.31324 0.83202 0.76139 0.0
C2492 C 0.31051 0.85472 0.73583 0.0
C2493 C 0.34339 0.86071 0.74243 0.0
C2494 C 0.29794 0.8619 0.74566 0.0
C2495 C 0.28832 0.87061 0.73174 0.0
C2496 C 0.29108 0.87226 0.70768 0.0
C2497 C 0.30378 0.8652 0.69793 0.0
C2498 C 0.31336 0.85643 0.71186 0.0
H2499 H 0.35407 0.86325 0.75162 0.0
H2500 H 0.34607 0.85834 0.72385 0.0
H2501 H 0.33611 0.87102 0.74317 0.0
H2502 H 0.2955 0.86064 0.7641 0.0
H2503 H 0.27864 0.87591 0.73981 0.0
H2504 H 0.153 0.2807 0.66402 0.0
H2505 H 0.16391 0.30296 0.68363 0.0
H2506 H 0.12886 0.30146 0.73543 0.0
H2507 H 0.11796 0.27907 0.71616 0.0
H2508 H 0.15087 0.33186 0.69385 0.0
H2509 H 0.16764 0.30043 0.77424 0.0
H2510 H 0.16238 0.29073 0.74763 0.0
H2511 H 0.14823 0.29872 0.76634 0.0
C2512 C 0.1476 0.28509 0.67959 0.0
C2513 C 0.13468 0.27805 0.68863 0.0
C2514 C 0.15383 0.29782 0.69072 0.0
C2515 C 0.14729 0.30369 0.71111 0.0
C2516 C 0.13422 0.29691 0.71993 0.0
H2517 H 0.17751 0.37557 0.80577 0.0
H2518 H 0.16216 0.35655 0.78542 0.0
C2519 C 0.12798 0.28416 0.70884 0.0
C2520 C 0.15427 0.31684 0.72323 0.0
H2521 H 0.17179 0.32712 0.77384 0.0
C2522 C 0.15542 0.33086 0.71135 0.0
C2523 C 0.16015 0.31547 0.74608 0.0
C2524 C 0.15968 0.30051 0.75931 0.0
C2525 C 0.16233 0.34359 0.72176 0.0
C2526 C 0.16843 0.34213 0.74444 0.0
C2527 C 0.16704 0.32819 0.75646 0.0
C2528 C 0.17698 0.35465 0.75567 0.0
C2529 C 0.16297 0.3585 0.70845 0.0
C2530 C 0.19036 0.35988 0.7456 0.0
C2531 C 0.19916 0.37073 0.75716 0.0
C2532 C 0.19477 0.37645 0.77908 0.0
C2533 C 0.1812 0.3714 0.7889 0.0
C2534 C 0.17241 0.36054 0.77732 0.0
H2535 H 0.15423 0.35902 0.69464 0.0
H2536 H 0.16152 0.36845 0.72034 0.0
H2537 H 0.17406 0.35955 0.69985 0.0
H2538 H 0.19424 0.35524 0.72913 0.0
H2539 H 0.20957 0.37433 0.74914 0.0
H2540 H 0.68283 0.11046 0.69697 0.0
H2541 H 0.66542 0.12794 0.71649 0.0
H2542 H 0.6977 0.1353 0.77143 0.0
H2543 H 0.71529 0.11813 0.75184 0.0
H2544 H 0.65252 0.12882 0.76096 0.0
H2545 H 0.69028 0.17839 0.74611 0.0
H2546 H 0.69302 0.16014 0.73196 0.0
H2547 H 0.69896 0.16291 0.76169 0.0
C2548 C 0.68617 0.11568 0.71332 0.0
C2549 C 0.70051 0.11308 0.72271 0.0
C2550 C 0.67621 0.12565 0.72445 0.0
C2551 C 0.68041 0.13313 0.74512 0.0
C2552 C 0.69439 0.1299 0.75519 0.0
H2553 H 0.62559 0.18724 0.83929 0.0
H2554 H 0.63928 0.16654 0.81998 0.0
C2555 C 0.70439 0.12004 0.74402 0.0
C2556 C 0.67051 0.14487 0.75556 0.0
H2557 H 0.6692 0.1827 0.7704 0.0
C2558 C 0.65611 0.14062 0.76299 0.0
C2559 C 0.67516 0.1603 0.75775 0.0
C2560 C 0.69013 0.16578 0.74876 0.0
C2561 C 0.64632 0.15137 0.77301 0.0
C2562 C 0.6512 0.16667 0.77601 0.0
C2563 C 0.66551 0.17093 0.76823 0.0
C2564 C 0.64175 0.17856 0.78712 0.0
C2565 C 0.63077 0.14631 0.77991 0.0
C2566 C 0.63873 0.19226 0.77516 0.0
C2567 C 0.63113 0.20418 0.78625 0.0
C2568 C 0.62637 0.20263 0.80953 0.0
C2569 C 0.62904 0.18875 0.8213 0.0
C2570 C 0.63677 0.17686 0.81023 0.0
H2571 H 0.62735 0.13576 0.77044 0.0
H2572 H 0.63061 0.14373 0.79889 0.0
H2573 H 0.6224 0.15543 0.7764 0.0
H2574 H 0.64251 0.19382 0.75733 0.0
H2575 H 0.62919 0.21471 0.77667 0.0
H2576 H 0.79581 0.38009 0.23818 0.0
H2577 H 0.81491 0.36437 0.25739 0.0
H2578 H 0.80039 0.32501 0.21784 0.0
H2579 H 0.78143 0.34061 0.19836 0.0
H2580 H 0.81084 0.33803 0.28441 0.0
H2581 H 0.84565 0.32571 0.20646 0.0
H2582 H 0.83176 0.34075 0.20695 0.0
H2583 H 0.82621 0.32116 0.20243 0.0
C2584 C 0.79672 0.3681 0.2335 0.0
C2585 C 0.78715 0.36161 0.21666 0.0
C2586 C 0.80764 0.35915 0.24448 0.0
C2587 C 0.80922 0.34362 0.23871 0.0
C2588 C 0.79957 0.33707 0.22214 0.0
H2589 H 0.85635 0.2642 0.28471 0.0
H2590 H 0.84074 0.28359 0.2659 0.0
C2591 C 0.78867 0.34599 0.21114 0.0
C2592 C 0.82059 0.33405 0.25055 0.0
H2593 H 0.85017 0.31021 0.24018 0.0
C2594 C 0.81957 0.33209 0.27483 0.0
C2595 C 0.83198 0.32639 0.23795 0.0
C2596 C 0.83409 0.3287 0.21204 0.0
C2597 C 0.82925 0.32211 0.28674 0.0
C2598 C 0.84033 0.31408 0.274 0.0
C2599 C 0.84161 0.31637 0.24984 0.0
C2600 C 0.85014 0.3026 0.28522 0.0
C2601 C 0.8272 0.31975 0.31265 0.0
C2602 C 0.86072 0.30695 0.30208 0.0
C2603 C 0.86969 0.29588 0.31289 0.0
C2604 C 0.86821 0.28032 0.30695 0.0
C2605 C 0.85774 0.27608 0.28976 0.0
C2606 C 0.84883 0.28713 0.27895 0.0
H2607 H 0.81644 0.32461 0.31902 0.0
H2608 H 0.82754 0.30736 0.31705 0.0
H2609 H 0.83647 0.32548 0.32216 0.0
H2610 H 0.86203 0.31888 0.30688 0.0
H2611 H 0.87769 0.29952 0.32601 0.0
H2612 H 0.62072 0.80879 0.16041 0.0
H2613 H 0.63675 0.82775 0.17971 0.0
H2614 H 0.64805 0.79462 0.23278 0.0
H2615 H 0.63233 0.77556 0.2135 0.0
H2616 H 0.63608 0.83979 0.22467 0.0
H2617 H 0.68898 0.80821 0.20868 0.0
H2618 H 0.67168 0.80348 0.19403 0.0
H2619 H 0.67508 0.79688 0.22334 0.0
C2620 C 0.62659 0.80555 0.17622 0.0
C2621 C 0.62537 0.79063 0.1853 0.0
C2622 C 0.63573 0.8164 0.18721 0.0
C2623 C 0.6438 0.81247 0.20738 0.0
C2624 C 0.6422 0.79776 0.2169 0.0
H2625 H 0.68597 0.86989 0.31064 0.0
H2626 H 0.66902 0.8539 0.28767 0.0
C2627 C 0.63314 0.78691 0.20591 0.0
C2628 C 0.65395 0.82371 0.21853 0.0
H2629 H 0.69016 0.82887 0.23587 0.0
C2630 C 0.64793 0.83749 0.22698 0.0
C2631 C 0.66944 0.82077 0.22113 0.0
C2632 C 0.67673 0.80661 0.21111 0.0
C2633 C 0.65693 0.84821 0.23869 0.0
C2634 C 0.67227 0.84488 0.24237 0.0
C2635 C 0.67836 0.83132 0.23325 0.0
C2636 C 0.6822 0.85514 0.25598 0.0
C2637 C 0.64996 0.86303 0.24683 0.0
C2638 C 0.69541 0.86085 0.24594 0.0
C2639 C 0.70522 0.86984 0.25912 0.0
C2640 C 0.70201 0.87325 0.2826 0.0
C2641 C 0.68872 0.86756 0.29256 0.0
C2642 C 0.67896 0.85851 0.2794 0.0
H2643 H 0.63968 0.86581 0.23673 0.0
H2644 H 0.64673 0.8619 0.26547 0.0
H2645 H 0.65796 0.87272 0.24522 0.0
H2646 H 0.69816 0.85829 0.22793 0.0
H2647 H 0.71536 0.87404 0.25092 0.0
H2648 H 0.16728 0.71039 0.32779 0.0
H2649 H 0.17874 0.68773 0.31019 0.0
H2650 H 0.13711 0.67712 0.27551 0.0
H2651 H 0.12558 0.69989 0.29279 0.0
H2652 H 0.17 0.65662 0.31364 0.0
H2653 H 0.16789 0.67789 0.22206 0.0
H2654 H 0.16517 0.69034 0.24688 0.0
H2655 H 0.15034 0.67789 0.23742 0.0
C2656 C 0.16055 0.70326 0.31641 0.0
C2657 C 0.14555 0.707 0.31156 0.0
C2658 C 0.16711 0.6903 0.30641 0.0
C2659 C 0.15882 0.68089 0.29135 0.0
C2660 C 0.14377 0.68441 0.28678 0.0
H2661 H 0.18921 0.60266 0.20845 0.0
H2662 H 0.17315 0.62122 0.22854 0.0
C2663 C 0.13719 0.69739 0.29674 0.0
C2664 C 0.16603 0.66743 0.28039 0.0
H2665 H 0.17744 0.65301 0.22793 0.0
C2666 C 0.17158 0.65578 0.2949 0.0
C2667 C 0.16799 0.66638 0.25593 0.0
C2668 C 0.16266 0.67882 0.23961 0.0
C2669 C 0.17921 0.64312 0.28558 0.0
C2670 C 0.18151 0.64227 0.26118 0.0
C2671 C 0.17561 0.65371 0.24663 0.0
C2672 C 0.19085 0.63016 0.25048 0.0
C2673 C 0.18473 0.63078 0.30191 0.0
C2674 C 0.20609 0.62907 0.25621 0.0
C2675 C 0.21528 0.61853 0.24478 0.0
C2676 C 0.20941 0.60894 0.22729 0.0
C2677 C 0.19407 0.60986 0.22188 0.0
C2678 C 0.18488 0.62045 0.23331 0.0
H2679 H 0.17838 0.63076 0.3186 0.0
H2680 H 0.18381 0.61927 0.29376 0.0
H2681 H 0.1967 0.6329 0.30607 0.0
H2682 H 0.21098 0.63668 0.26907 0.0
H2683 H 0.22706 0.61815 0.24933 0.0
H2684 H 0.30692 0.11412 0.29641 0.0
H2685 H 0.32198 0.13332 0.27585 0.0
H2686 H 0.28487 0.14266 0.22973 0.0
H2687 H 0.26966 0.12373 0.25035 0.0
H2688 H 0.33034 0.13652 0.22869 0.0
H2689 H 0.29425 0.18463 0.258 0.0
H2690 H 0.29313 0.16573 0.27066 0.0
H2691 H 0.28425 0.16969 0.24311 0.0
C2692 C 0.302 0.12018 0.28179 0.0
C2693 C 0.28704 0.11755 0.27518 0.0
C2694 C 0.31062 0.13113 0.27007 0.0
C2695 C 0.30442 0.1396 0.25161 0.0
C2696 C 0.28974 0.13648 0.2443 0.0
H2697 H 0.33386 0.21424 0.16378 0.0
H2698 H 0.32081 0.1925 0.18142 0.0
C2699 C 0.28109 0.12562 0.25605 0.0
C2700 C 0.31312 0.15201 0.2404 0.0
H2701 H 0.31279 0.19048 0.22971 0.0
C2702 C 0.32656 0.14833 0.22897 0.0
C2703 C 0.30817 0.16741 0.24094 0.0
C2704 C 0.29424 0.17217 0.25402 0.0
C2705 C 0.33502 0.15965 0.21756 0.0
C2706 C 0.32994 0.17499 0.21786 0.0
C2707 C 0.31657 0.17867 0.22941 0.0
C2708 C 0.33833 0.18751 0.2064 0.0
C2709 C 0.34915 0.15509 0.20488 0.0
C2710 C 0.35248 0.19189 0.2147 0.0
C2711 C 0.35996 0.20435 0.20472 0.0
C2712 C 0.35337 0.21264 0.1863 0.0
C2713 C 0.33925 0.2081 0.1779 0.0
C2714 C 0.33177 0.19568 0.18795 0.0
H2715 H 0.34974 0.14252 0.20193 0.0
H2716 H 0.34993 0.16102 0.18776 0.0
H2717 H 0.35901 0.15851 0.21548 0.0
H2718 H 0.3576 0.18588 0.2292 0.0
H2719 H 0.37081 0.20757 0.21161 0.0
loop_
_geom_bond_atom_site_label_1
_geom_bond_atom_site_label_2
_geom_bond_distance
_geom_bond_site_symmetry_2
_ccdc_geom_bond_type
C0 O1 1.160 . S
C0 O7 1.185 . S
O1 C0 1.160 . S
O2 Zn3 1.899 . S
O2 C10 1.284 . S
Zn3 O2 1.899 . S
Zn3 O4 2.032 . S
Zn3 O7 2.086 . S
Zn3 O12 1.977 . S
O4 Zn3 2.032 . S
O4 C8 1.278 . S
C5 O6 1.203 . S
C5 O12 1.267 . S
O6 C5 1.203 . S
O7 C0 1.185 . S
O7 Zn3 2.086 . S
C8 O4 1.278 . S
C8 O9 1.211 . S
O9 C8 1.211 . S
C10 O2 1.284 . S
C10 O11 1.273 . S
O11 C10 1.273 . S
O12 Zn3 1.977 . S
O12 C5 1.267 . S
C13 O14 1.160 . S
C13 O20 1.185 . S
O14 C13 1.160 . S
O15 Zn16 1.899 . S
O15 C23 1.284 . S
Zn16 O15 1.899 . S
Zn16 O17 2.032 . S
Zn16 O20 2.086 . S
Zn16 O25 1.977 . S
O17 Zn16 2.032 . S
O17 C21 1.278 . S
C18 O19 1.203 . S
C18 O25 1.267 . S
O19 C18 1.203 . S
O20 C13 1.185 . S
O20 Zn16 2.086 . S
C21 O17 1.278 . S
C21 O22 1.211 . S
O22 C21 1.211 . S
C23 O15 1.284 . S
C23 O24 1.273 . S
O24 C23 1.273 . S
O25 Zn16 1.977 . S
O25 C18 1.267 . S
C26 O27 1.160 . S
C26 O33 1.185 . S
O27 C26 1.160 . S
O28 Zn29 1.899 . S
O28 C36 1.284 . S
Zn29 O28 1.899 . S
Zn29 O30 2.032 . S
Zn29 O33 2.086 . S
Zn29 O38 1.977 . S
O30 Zn29 2.032 . S
O30 C34 1.278 . S
C31 O32 1.203 . S
C31 O38 1.267 . S
O32 C31 1.203 . S
O33 C26 1.185 . S
O33 Zn29 2.086 . S
C34 O30 1.278 . S
C34 O35 1.211 . S
O35 C34 1.211 . S
C36 O28 1.284 . S
C36 O37 1.273 . S
O37 C36 1.273 . S
O38 Zn29 1.977 . S
O38 C31 1.267 . S
C39 O40 1.160 . S
C39 O46 1.185 . S
O40 C39 1.160 . S
O41 Zn42 1.899 . S
O41 C49 1.284 . S
Zn42 O41 1.899 . S
Zn42 O43 2.032 . S
Zn42 O46 2.086 . S
Zn42 O51 1.977 . S
O43 Zn42 2.032 . S
O43 C47 1.278 . S
C44 O45 1.203 . S
C44 O51 1.267 . S
O45 C44 1.203 . S
O46 C39 1.185 . S
O46 Zn42 2.086 . S
C47 O43 1.278 . S
C47 O48 1.211 . S
O48 C47 1.211 . S
C49 O41 1.284 . S
C49 O50 1.273 . S
O50 C49 1.273 . S
O51 Zn42 1.977 . S
O51 C44 1.267 . S
C52 O53 1.160 . S
C52 O59 1.185 . S
O53 C52 1.160 . S
O54 Zn55 1.899 . S
O54 C62 1.284 . S
Zn55 O54 1.899 . S
Zn55 O56 2.032 . S
Zn55 O59 2.086 . S
Zn55 O64 1.977 . S
O56 Zn55 2.032 . S
O56 C60 1.278 . S
C57 O58 1.203 . S
C57 O64 1.267 . S
O58 C57 1.203 . S
O59 C52 1.185 . S
O59 Zn55 2.086 . S
C60 O56 1.278 . S
C60 O61 1.211 . S
O61 C60 1.211 . S
C62 O54 1.284 . S
C62 O63 1.273 . S
O63 C62 1.273 . S
O64 Zn55 1.977 . S
O64 C57 1.267 . S
C65 O66 1.160 . S
C65 O72 1.185 . S
O66 C65 1.160 . S
O67 Zn68 1.899 . S
O67 C75 1.284 . S
Zn68 O67 1.899 . S
Zn68 O69 2.032 . S
Zn68 O72 2.086 . S
Zn68 O77 1.977 . S
O69 Zn68 2.032 . S
O69 C73 1.278 . S
C70 O71 1.203 . S
C70 O77 1.267 . S
O71 C70 1.203 . S
O72 C65 1.185 . S
O72 Zn68 2.086 . S
C73 O69 1.278 . S
C73 O74 1.211 . S
O74 C73 1.211 . S
C75 O67 1.284 . S
C75 O76 1.273 . S
O76 C75 1.273 . S
O77 Zn68 1.977 . S
O77 C70 1.267 . S
C78 O79 1.160 . S
C78 O85 1.185 . S
O79 C78 1.160 . S
O80 Zn81 1.899 . S
O80 C88 1.284 . S
Zn81 O80 1.899 . S
Zn81 O82 2.032 . S
Zn81 O85 2.086 . S
Zn81 O90 1.977 . S
O82 Zn81 2.032 . S
O82 C86 1.278 . S
C83 O84 1.203 . S
C83 O90 1.267 . S
O84 C83 1.203 . S
O85 C78 1.185 . S
O85 Zn81 2.086 . S
C86 O82 1.278 . S
C86 O87 1.211 . S
O87 C86 1.211 . S
C88 O80 1.284 . S
C88 O89 1.273 . S
O89 C88 1.273 . S
O90 Zn81 1.977 . S
O90 C83 1.267 . S
C91 O92 1.160 . S
C91 O98 1.185 . S
O92 C91 1.160 . S
O93 Zn94 1.899 . S
O93 C101 1.284 . S
Zn94 O93 1.899 . S
Zn94 O95 2.032 . S
Zn94 O98 2.086 . S
Zn94 O103 1.977 . S
O95 Zn94 2.032 . S
O95 C99 1.278 . S
C96 O97 1.203 . S
C96 O103 1.267 . S
O97 C96 1.203 . S
O98 C91 1.185 . S
O98 Zn94 2.086 . S
C99 O95 1.278 . S
C99 O100 1.211 . S
O100 C99 1.211 . S
C101 O93 1.284 . S
C101 O102 1.273 . S
O102 C101 1.273 . S
O103 Zn94 1.977 . S
O103 C96 1.267 . S
C104 O105 1.160 . S
C104 O111 1.185 . S
O105 C104 1.160 . S
O106 Zn107 1.899 . S
O106 C114 1.284 . S
Zn107 O106 1.899 . S
Zn107 O108 2.032 . S
Zn107 O111 2.086 . S
Zn107 O116 1.977 . S
O108 Zn107 2.032 . S
O108 C112 1.278 . S
C109 O110 1.203 . S
C109 O116 1.267 . S
O110 C109 1.203 . S
O111 C104 1.185 . S
O111 Zn107 2.086 . S
C112 O108 1.278 . S
C112 O113 1.211 . S
O113 C112 1.211 . S
C114 O106 1.284 . S
C114 O115 1.273 . S
O115 C114 1.273 . S
O116 Zn107 1.977 . S
O116 C109 1.267 . S
C117 O118 1.160 . S
C117 O124 1.185 . S
O118 C117 1.160 . S
O119 Zn120 1.899 . S
O119 C127 1.284 . S
Zn120 O119 1.899 . S
Zn120 O121 2.032 . S
Zn120 O124 2.086 . S
Zn120 O129 1.977 . S
O121 Zn120 2.032 . S
O121 C125 1.278 . S
C122 O123 1.203 . S
C122 O129 1.267 . S
O123 C122 1.203 . S
O124 C117 1.185 . S
O124 Zn120 2.086 . S
C125 O121 1.278 . S
C125 O126 1.211 . S
O126 C125 1.211 . S
C127 O119 1.284 . S
C127 O128 1.273 . S
O128 C127 1.273 . S
O129 Zn120 1.977 . S
O129 C122 1.267 . S
C130 O131 1.160 . S
C130 O137 1.185 . S
O131 C130 1.160 . S
O132 Zn133 1.899 . S
O132 C140 1.284 . S
Zn133 O132 1.899 . S
Zn133 O134 2.032 . S
Zn133 O137 2.086 . S
Zn133 O142 1.977 . S
O134 Zn133 2.032 . S
O134 C138 1.278 . S
C135 O136 1.203 . S
C135 O142 1.267 . S
O136 C135 1.203 . S
O137 C130 1.185 . S
O137 Zn133 2.086 . S
C138 O134 1.278 . S
C138 O139 1.211 . S
O139 C138 1.211 . S
C140 O132 1.284 . S
C140 O141 1.273 . S
O141 C140 1.273 . S
O142 Zn133 1.977 . S
O142 C135 1.267 . S
C143 O144 1.160 . S
C143 O150 1.185 . S
O144 C143 1.160 . S
O145 Zn146 1.899 . S
O145 C153 1.284 . S
Zn146 O145 1.899 . S
Zn146 O147 2.032 . S
Zn146 O150 2.086 . S
Zn146 O155 1.977 . S
O147 Zn146 2.032 . S
O147 C151 1.278 . S
C148 O149 1.203 . S
C148 O155 1.267 . S
O149 C148 1.203 . S
O150 C143 1.185 . S
O150 Zn146 2.086 . S
C151 O147 1.278 . S
C151 O152 1.211 . S
O152 C151 1.211 . S
C153 O145 1.284 . S
C153 O154 1.273 . S
O154 C153 1.273 . S
O155 Zn146 1.977 . S
O155 C148 1.267 . S
C156 O157 1.160 . S
C156 O163 1.185 . S
O157 C156 1.160 . S
O158 Zn159 1.899 . S
O158 C166 1.284 . S
Zn159 O158 1.899 . S
Zn159 O160 2.032 . S
Zn159 O163 2.086 . S
Zn159 O168 1.977 . S
O160 Zn159 2.032 . S
O160 C164 1.278 . S
C161 O162 1.203 . S
C161 O168 1.267 . S
O162 C161 1.203 . S
O163 C156 1.185 . S
O163 Zn159 2.086 . S
C164 O160 1.278 . S
C164 O165 1.211 . S
O165 C164 1.211 . S
C166 O158 1.284 . S
C166 O167 1.273 . S
O167 C166 1.273 . S
O168 Zn159 1.977 . S
O168 C161 1.267 . S
C169 O170 1.160 . S
C169 O176 1.185 . S
O170 C169 1.160 . S
O171 Zn172 1.899 . S
O171 C179 1.284 . S
Zn172 O171 1.899 . S
Zn172 O173 2.032 . S
Zn172 O176 2.086 . S
Zn172 O181 1.977 . S
O173 Zn172 2.032 . S
O173 C177 1.278 . S
C174 O175 1.203 . S
C174 O181 1.267 . S
O175 C174 1.203 . S
O176 C169 1.185 . S
O176 Zn172 2.086 . S
C177 O173 1.278 . S
C177 O178 1.211 . S
O178 C177 1.211 . S
C179 O171 1.284 . S
C179 O180 1.273 . S
O180 C179 1.273 . S
O181 Zn172 1.977 . S
O181 C174 1.267 . S
C182 O183 1.160 . S
C182 O189 1.185 . S
O183 C182 1.160 . S
O184 Zn185 1.899 . S
O184 C192 1.284 . S
Zn185 O184 1.899 . S
Zn185 O186 2.032 . S
Zn185 O189 2.086 . S
Zn185 O194 1.977 . S
O186 Zn185 2.032 . S
O186 C190 1.278 . S
C187 O188 1.203 . S
C187 O194 1.267 . S
O188 C187 1.203 . S
O189 C182 1.185 . S
O189 Zn185 2.086 . S
C190 O186 1.278 . S
C190 O191 1.211 . S
O191 C190 1.211 . S
C192 O184 1.284 . S
C192 O193 1.273 . S
O193 C192 1.273 . S
O194 Zn185 1.977 . S
O194 C187 1.267 . S
C195 O196 1.160 . S
C195 O202 1.185 . S
O196 C195 1.160 . S
O197 Zn198 1.899 . S
O197 C205 1.284 . S
Zn198 O197 1.899 . S
Zn198 O199 2.032 . S
Zn198 O202 2.086 . S
Zn198 O207 1.977 . S
O199 Zn198 2.032 . S
O199 C203 1.278 . S
C200 O201 1.203 . S
C200 O207 1.267 . S
O201 C200 1.203 . S
O202 C195 1.185 . S
O202 Zn198 2.086 . S
C203 O199 1.278 . S
C203 O204 1.211 . S
O204 C203 1.211 . S
C205 O197 1.284 . S
C205 O206 1.273 . S
O206 C205 1.273 . S
O207 Zn198 1.977 . S
O207 C200 1.267 . S
C208 O209 1.160 . S
C208 O215 1.185 . S
O209 C208 1.160 . S
O210 Zn211 1.899 . S
O210 C218 1.284 . S
Zn211 O210 1.899 . S
Zn211 O212 2.032 . S
Zn211 O215 2.086 . S
Zn211 O220 1.977 . S
O212 Zn211 2.032 . S
O212 C216 1.278 . S
C213 O214 1.203 . S
C213 O220 1.267 . S
O214 C213 1.203 . S
O215 C208 1.185 . S
O215 Zn211 2.086 . S
C216 O212 1.278 . S
C216 O217 1.211 . S
O217 C216 1.211 . S
C218 O210 1.284 . S
C218 O219 1.273 . S
O219 C218 1.273 . S
O220 Zn211 1.977 . S
O220 C213 1.267 . S
C221 O222 1.160 . S
C221 O228 1.185 . S
O222 C221 1.160 . S
O223 Zn224 1.899 . S
O223 C231 1.284 . S
Zn224 O223 1.899 . S
Zn224 O225 2.032 . S
Zn224 O228 2.086 . S
Zn224 O233 1.977 . S
O225 Zn224 2.032 . S
O225 C229 1.278 . S
C226 O227 1.203 . S
C226 O233 1.267 . S
O227 C226 1.203 . S
O228 C221 1.185 . S
O228 Zn224 2.086 . S
C229 O225 1.278 . S
C229 O230 1.211 . S
O230 C229 1.211 . S
C231 O223 1.284 . S
C231 O232 1.273 . S
O232 C231 1.273 . S
O233 Zn224 1.977 . S
O233 C226 1.267 . S
C234 O235 1.160 . S
C234 O241 1.185 . S
O235 C234 1.160 . S
O236 Zn237 1.899 . S
O236 C244 1.284 . S
Zn237 O236 1.899 . S
Zn237 O238 2.032 . S
Zn237 O241 2.086 . S
Zn237 O246 1.977 . S
O238 Zn237 2.032 . S
O238 C242 1.278 . S
C239 O240 1.203 . S
C239 O246 1.267 . S
O240 C239 1.203 . S
O241 C234 1.185 . S
O241 Zn237 2.086 . S
C242 O238 1.278 . S
C242 O243 1.211 . S
O243 C242 1.211 . S
C244 O236 1.284 . S
C244 O245 1.273 . S
O245 C244 1.273 . S
O246 Zn237 1.977 . S
O246 C239 1.267 . S
C247 O248 1.160 . S
C247 O254 1.185 . S
O248 C247 1.160 . S
O249 Zn250 1.899 . S
O249 C257 1.284 . S
Zn250 O249 1.899 . S
Zn250 O251 2.032 . S
Zn250 O254 2.086 . S
Zn250 O259 1.977 . S
O251 Zn250 2.032 . S
O251 C255 1.278 . S
C252 O253 1.203 . S
C252 O259 1.267 . S
O253 C252 1.203 . S
O254 C247 1.185 . S
O254 Zn250 2.086 . S
C255 O251 1.278 . S
C255 O256 1.211 . S
O256 C255 1.211 . S
C257 O249 1.284 . S
C257 O258 1.273 . S
O258 C257 1.273 . S
O259 Zn250 1.977 . S
O259 C252 1.267 . S
C260 O261 1.160 . S
C260 O267 1.185 . S
O261 C260 1.160 . S
O262 Zn263 1.899 . S
O262 C270 1.284 . S
Zn263 O262 1.899 . S
Zn263 O264 2.032 . S
Zn263 O267 2.086 . S
Zn263 O272 1.977 . S
O264 Zn263 2.032 . S
O264 C268 1.278 . S
C265 O266 1.203 . S
C265 O272 1.267 . S
O266 C265 1.203 . S
O267 C260 1.185 . S
O267 Zn263 2.086 . S
C268 O264 1.278 . S
C268 O269 1.211 . S
O269 C268 1.211 . S
C270 O262 1.284 . S
C270 O271 1.273 . S
O271 C270 1.273 . S
O272 Zn263 1.977 . S
O272 C265 1.267 . S
C273 O274 1.160 . S
C273 O280 1.185 . S
O274 C273 1.160 . S
O275 Zn276 1.899 . S
O275 C283 1.284 . S
Zn276 O275 1.899 . S
Zn276 O277 2.032 . S
Zn276 O280 2.086 . S
Zn276 O285 1.977 . S
O277 Zn276 2.032 . S
O277 C281 1.278 . S
C278 O279 1.203 . S
C278 O285 1.267 . S
O279 C278 1.203 . S
O280 C273 1.185 . S
O280 Zn276 2.086 . S
C281 O277 1.278 . S
C281 O282 1.211 . S
O282 C281 1.211 . S
C283 O275 1.284 . S
C283 O284 1.273 . S
O284 C283 1.273 . S
O285 Zn276 1.977 . S
O285 C278 1.267 . S
C286 O287 1.160 . S
C286 O293 1.185 . S
O287 C286 1.160 . S
O288 Zn289 1.899 . S
O288 C296 1.284 . S
Zn289 O288 1.899 . S
Zn289 O290 2.032 . S
Zn289 O293 2.086 . S
Zn289 O298 1.977 . S
O290 Zn289 2.032 . S
O290 C294 1.278 . S
C291 O292 1.203 . S
C291 O298 1.267 . S
O292 C291 1.203 . S
O293 C286 1.185 . S
O293 Zn289 2.086 . S
C294 O290 1.278 . S
C294 O295 1.211 . S
O295 C294 1.211 . S
C296 O288 1.284 . S
C296 O297 1.273 . S
O297 C296 1.273 . S
O298 Zn289 1.977 . S
O298 C291 1.267 . S
C299 O300 1.160 . S
C299 O306 1.185 . S
O300 C299 1.160 . S
O301 Zn302 1.899 . S
O301 C309 1.284 . S
Zn302 O301 1.899 . S
Zn302 O303 2.032 . S
Zn302 O306 2.086 . S
Zn302 O311 1.977 . S
O303 Zn302 2.032 . S
O303 C307 1.278 . S
C304 O305 1.203 . S
C304 O311 1.267 . S
O305 C304 1.203 . S
O306 C299 1.185 . S
O306 Zn302 2.086 . S
C307 O303 1.278 . S
C307 O308 1.211 . S
O308 C307 1.211 . S
C309 O301 1.284 . S
C309 O310 1.273 . S
O310 C309 1.273 . S
O311 Zn302 1.977 . S
O311 C304 1.267 . S
C312 O313 1.160 . S
C312 O319 1.185 . S
O313 C312 1.160 . S
O314 Zn315 1.899 . S
O314 C322 1.284 . S
Zn315 O314 1.899 . S
Zn315 O316 2.032 . S
Zn315 O319 2.086 . S
Zn315 O324 1.977 . S
O316 Zn315 2.032 . S
O316 C320 1.278 . S
C317 O318 1.203 . S
C317 O324 1.267 . S
O318 C317 1.203 . S
O319 C312 1.185 . S
O319 Zn315 2.086 . S
C320 O316 1.278 . S
C320 O321 1.211 . S
O321 C320 1.211 . S
C322 O314 1.284 . S
C322 O323 1.273 . S
O323 C322 1.273 . S
O324 Zn315 1.977 . S
O324 C317 1.267 . S
C325 O326 1.160 . S
C325 O332 1.185 . S
O326 C325 1.160 . S
O327 Zn328 1.899 . S
O327 C335 1.284 . S
Zn328 O327 1.899 . S
Zn328 O329 2.032 . S
Zn328 O332 2.086 . S
Zn328 O337 1.977 . S
O329 Zn328 2.032 . S
O329 C333 1.278 . S
C330 O331 1.203 . S
C330 O337 1.267 . S
O331 C330 1.203 . S
O332 C325 1.185 . S
O332 Zn328 2.086 . S
C333 O329 1.278 . S
C333 O334 1.211 . S
O334 C333 1.211 . S
C335 O327 1.284 . S
C335 O336 1.273 . S
O336 C335 1.273 . S
O337 Zn328 1.977 . S
O337 C330 1.267 . S
C338 O339 1.160 . S
C338 O345 1.185 . S
O339 C338 1.160 . S
O340 Zn341 1.899 . S
O340 C348 1.284 . S
Zn341 O340 1.899 . S
Zn341 O342 2.032 . S
Zn341 O345 2.086 . S
Zn341 O350 1.977 . S
O342 Zn341 2.032 . S
O342 C346 1.278 . S
C343 O344 1.203 . S
C343 O350 1.267 . S
O344 C343 1.203 . S
O345 C338 1.185 . S
O345 Zn341 2.086 . S
C346 O342 1.278 . S
C346 O347 1.211 . S
O347 C346 1.211 . S
C348 O340 1.284 . S
C348 O349 1.273 . S
O349 C348 1.273 . S
O350 Zn341 1.977 . S
O350 C343 1.267 . S
C351 O352 1.160 . S
C351 O358 1.185 . S
O352 C351 1.160 . S
O353 Zn354 1.899 . S
O353 C361 1.284 . S
Zn354 O353 1.899 . S
Zn354 O355 2.032 . S
Zn354 O358 2.086 . S
Zn354 O363 1.977 . S
O355 Zn354 2.032 . S
O355 C359 1.278 . S
C356 O357 1.203 . S
C356 O363 1.267 . S
O357 C356 1.203 . S
O358 C351 1.185 . S
O358 Zn354 2.086 . S
C359 O355 1.278 . S
C359 O360 1.211 . S
O360 C359 1.211 . S
C361 O353 1.284 . S
C361 O362 1.273 . S
O362 C361 1.273 . S
O363 Zn354 1.977 . S
O363 C356 1.267 . S
C364 O365 1.160 . S
C364 O371 1.185 . S
O365 C364 1.160 . S
O366 Zn367 1.899 . S
O366 C374 1.284 . S
Zn367 O366 1.899 . S
Zn367 O368 2.032 . S
Zn367 O371 2.086 . S
Zn367 O376 1.977 . S
O368 Zn367 2.032 . S
O368 C372 1.278 . S
C369 O370 1.203 . S
C369 O376 1.267 . S
O370 C369 1.203 . S
O371 C364 1.185 . S
O371 Zn367 2.086 . S
C372 O368 1.278 . S
C372 O373 1.211 . S
O373 C372 1.211 . S
C374 O366 1.284 . S
C374 O375 1.273 . S
O375 C374 1.273 . S
O376 Zn367 1.977 . S
O376 C369 1.267 . S
C377 O378 1.160 . S
C377 O384 1.185 . S
O378 C377 1.160 . S
O379 Zn380 1.899 . S
O379 C387 1.284 . S
Zn380 O379 1.899 . S
Zn380 O381 2.032 . S
Zn380 O384 2.086 . S
Zn380 O389 1.977 . S
O381 Zn380 2.032 . S
O381 C385 1.278 . S
C382 O383 1.203 . S
C382 O389 1.267 . S
O383 C382 1.203 . S
O384 C377 1.185 . S
O384 Zn380 2.086 . S
C385 O381 1.278 . S
C385 O386 1.211 . S
O386 C385 1.211 . S
C387 O379 1.284 . S
C387 O388 1.273 . S
O388 C387 1.273 . S
O389 Zn380 1.977 . S
O389 C382 1.267 . S
C390 O391 1.160 . S
C390 O397 1.185 . S
O391 C390 1.160 . S
O392 Zn393 1.899 . S
O392 C400 1.284 . S
Zn393 O392 1.899 . S
Zn393 O394 2.032 . S
Zn393 O397 2.086 . S
Zn393 O402 1.977 . S
O394 Zn393 2.032 . S
O394 C398 1.278 . S
C395 O396 1.203 . S
C395 O402 1.267 . S
O396 C395 1.203 . S
O397 C390 1.185 . S
O397 Zn393 2.086 . S
C398 O394 1.278 . S
C398 O399 1.211 . S
O399 C398 1.211 . S
C400 O392 1.284 . S
C400 O401 1.273 . S
O401 C400 1.273 . S
O402 Zn393 1.977 . S
O402 C395 1.267 . S
C403 O404 1.160 . S
C403 O410 1.185 . S
O404 C403 1.160 . S
O405 Zn406 1.899 . S
O405 C413 1.284 . S
Zn406 O405 1.899 . S
Zn406 O407 2.032 . S
Zn406 O410 2.086 . S
Zn406 O415 1.977 . S
O407 Zn406 2.032 . S
O407 C411 1.278 . S
C408 O409 1.203 . S
C408 O415 1.267 . S
O409 C408 1.203 . S
O410 C403 1.185 . S
O410 Zn406 2.086 . S
C411 O407 1.278 . S
C411 O412 1.211 . S
O412 C411 1.211 . S
C413 O405 1.284 . S
C413 O414 1.273 . S
O414 C413 1.273 . S
O415 Zn406 1.977 . S
O415 C408 1.267 . S
H416 C424 0.929 . S
H417 C426 0.930 . S
H418 C428 0.930 . S
H419 C431 0.929 . S
H420 C434 0.930 . S
H421 C436 0.960 . S
H422 C436 0.960 . S
H423 C436 0.960 . S
C424 H416 0.929 . S
C424 C425 1.377 . S
C424 C426 1.384 . S
C425 C424 1.377 . S
C425 C431 1.390 . S
C426 H417 0.930 . S
C426 C424 1.384 . S
C426 C427 1.372 . S
C427 C426 1.372 . S
C427 C428 1.400 . S
C427 C432 1.490 . S
C428 H418 0.930 . S
C428 C427 1.400 . S
C428 C431 1.386 . S
H429 C445 0.930 . S
H430 C446 0.931 . S
C431 H419 0.929 . S
C431 C425 1.390 . S
C431 C428 1.386 . S
C432 C427 1.490 . S
C432 C434 1.395 . S
C432 C435 1.403 . S
H433 C439 0.930 . S
C434 H420 0.930 . S
C434 C432 1.395 . S
C434 C437 1.403 . S
C435 C432 1.403 . S
C435 C436 1.524 . S
C435 C439 1.400 . S
C436 H421 0.960 . S
C436 H422 0.960 . S
C436 H423 0.960 . S
C436 C435 1.524 . S
C437 C434 1.403 . S
C437 C438 1.392 . S
C437 C441 1.495 . S
C438 C437 1.392 . S
C438 C439 1.385 . S
C438 C440 1.478 . S
C439 H433 0.930 . S
C439 C435 1.400 . S
C439 C438 1.385 . S
C440 C438 1.478 . S
C440 C442 1.381 . S
C440 C446 1.383 . S
C441 C437 1.495 . S
C441 H447 0.959 . S
C441 H448 0.961 . S
C441 H449 0.960 . S
C442 C440 1.381 . S
C442 C443 1.394 . S
C442 H450 0.930 . S
C443 C442 1.394 . S
C443 C444 1.383 . S
C443 H451 0.929 . S
C444 C443 1.383 . S
C444 C445 1.377 . S
C445 H429 0.930 . S
C445 C444 1.377 . S
C445 C446 1.379 . S
C446 H430 0.931 . S
C446 C440 1.383 . S
C446 C445 1.379 . S
H447 C441 0.959 . S
H448 C441 0.961 . S
H449 C441 0.960 . S
H450 C442 0.930 . S
H451 C443 0.929 . S
H452 C460 0.929 . S
H453 C462 0.930 . S
H454 C464 0.930 . S
H455 C467 0.929 . S
H456 C470 0.930 . S
H457 C472 0.960 . S
H458 C472 0.960 . S
H459 C472 0.960 . S
C460 H452 0.929 . S
C460 C461 1.377 . S
C460 C462 1.384 . S
C461 C460 1.377 . S
C461 C467 1.390 . S
C462 H453 0.930 . S
C462 C460 1.384 . S
C462 C463 1.372 . S
C463 C462 1.372 . S
C463 C464 1.400 . S
C463 C468 1.490 . S
C464 H454 0.930 . S
C464 C463 1.400 . S
C464 C467 1.386 . S
H465 C481 0.930 . S
H466 C482 0.931 . S
C467 H455 0.929 . S
C467 C461 1.390 . S
C467 C464 1.386 . S
C468 C463 1.490 . S
C468 C470 1.395 . S
C468 C471 1.403 . S
H469 C475 0.930 . S
C470 H456 0.930 . S
C470 C468 1.395 . S
C470 C473 1.403 . S
C471 C468 1.403 . S
C471 C472 1.524 . S
C471 C475 1.400 . S
C472 H457 0.960 . S
C472 H458 0.960 . S
C472 H459 0.960 . S
C472 C471 1.524 . S
C473 C470 1.403 . S
C473 C474 1.392 . S
C473 C477 1.495 . S
C474 C473 1.392 . S
C474 C475 1.385 . S
C474 C476 1.478 . S
C475 H469 0.930 . S
C475 C471 1.400 . S
C475 C474 1.385 . S
C476 C474 1.478 . S
C476 C478 1.381 . S
C476 C482 1.383 . S
C477 C473 1.495 . S
C477 H483 0.959 . S
C477 H484 0.961 . S
C477 H485 0.960 . S
C478 C476 1.381 . S
C478 C479 1.394 . S
C478 H486 0.930 . S
C479 C478 1.394 . S
C479 C480 1.383 . S
C479 H487 0.929 . S
C480 C479 1.383 . S
C480 C481 1.377 . S
C481 H465 0.930 . S
C481 C480 1.377 . S
C481 C482 1.379 . S
C482 H466 0.931 . S
C482 C476 1.383 . S
C482 C481 1.379 . S
H483 C477 0.959 . S
H484 C477 0.961 . S
H485 C477 0.960 . S
H486 C478 0.930 . S
H487 C479 0.929 . S
H488 C496 0.929 . S
H489 C498 0.930 . S
H490 C500 0.930 . S
H491 C503 0.929 . S
H492 C506 0.930 . S
H493 C508 0.960 . S
H494 C508 0.960 . S
H495 C508 0.960 . S
C496 H488 0.929 . S
C496 C497 1.377 . S
C496 C498 1.384 . S
C497 C496 1.377 . S
C497 C503 1.390 . S
C498 H489 0.930 . S
C498 C496 1.384 . S
C498 C499 1.372 . S
C499 C498 1.372 . S
C499 C500 1.400 . S
C499 C504 1.490 . S
C500 H490 0.930 . S
C500 C499 1.400 . S
C500 C503 1.386 . S
H501 C517 0.930 . S
H502 C518 0.931 . S
C503 H491 0.929 . S
C503 C497 1.390 . S
C503 C500 1.386 . S
C504 C499 1.490 . S
C504 C506 1.395 . S
C504 C507 1.403 . S
H505 C511 0.930 . S
C506 H492 0.930 . S
C506 C504 1.395 . S
C506 C509 1.403 . S
C507 C504 1.403 . S
C507 C508 1.524 . S
C507 C511 1.400 . S
C508 H493 0.960 . S
C508 H494 0.960 . S
C508 H495 0.960 . S
C508 C507 1.524 . S
C509 C506 1.403 . S
C509 C510 1.392 . S
C509 C513 1.495 . S
C510 C509 1.392 . S
C510 C511 1.385 . S
C510 C512 1.478 . S
C511 H505 0.930 . S
C511 C507 1.400 . S
C511 C510 1.385 . S
C512 C510 1.478 . S
C512 C514 1.381 . S
C512 C518 1.383 . S
C513 C509 1.495 . S
C513 H519 0.959 . S
C513 H520 0.961 . S
C513 H521 0.960 . S
C514 C512 1.381 . S
C514 C515 1.394 . S
C514 H522 0.930 . S
C515 C514 1.394 . S
C515 C516 1.383 . S
C515 H523 0.929 . S
C516 C515 1.383 . S
C516 C517 1.377 . S
C517 H501 0.930 . S
C517 C516 1.377 . S
C517 C518 1.379 . S
C518 H502 0.931 . S
C518 C512 1.383 . S
C518 C517 1.379 . S
H519 C513 0.959 . S
H520 C513 0.961 . S
H521 C513 0.960 . S
H522 C514 0.930 . S
H523 C515 0.929 . S
H524 C532 0.929 . S
H525 C534 0.930 . S
H526 C536 0.930 . S
H527 C539 0.929 . S
H528 C542 0.930 . S
H529 C544 0.960 . S
H530 C544 0.960 . S
H531 C544 0.960 . S
C532 H524 0.929 . S
C532 C533 1.377 . S
C532 C534 1.384 . S
C533 C532 1.377 . S
C533 C539 1.390 . S
C534 H525 0.930 . S
C534 C532 1.384 . S
C534 C535 1.372 . S
C535 C534 1.372 . S
C535 C536 1.400 . S
C535 C540 1.490 . S
C536 H526 0.930 . S
C536 C535 1.400 . S
C536 C539 1.386 . S
H537 C553 0.930 . S
H538 C554 0.931 . S
C539 H527 0.929 . S
C539 C533 1.390 . S
C539 C536 1.386 . S
C540 C535 1.490 . S
C540 C542 1.395 . S
C540 C543 1.403 . S
H541 C547 0.930 . S
C542 H528 0.930 . S
C542 C540 1.395 . S
C542 C545 1.403 . S
C543 C540 1.403 . S
C543 C544 1.524 . S
C543 C547 1.400 . S
C544 H529 0.960 . S
C544 H530 0.960 . S
C544 H531 0.960 . S
C544 C543 1.524 . S
C545 C542 1.403 . S
C545 C546 1.392 . S
C545 C549 1.495 . S
C546 C545 1.392 . S
C546 C547 1.385 . S
C546 C548 1.478 . S
C547 H541 0.930 . S
C547 C543 1.400 . S
C547 C546 1.385 . S
C548 C546 1.478 . S
C548 C550 1.381 . S
C548 C554 1.383 . S
C549 C545 1.495 . S
C549 H555 0.959 . S
C549 H556 0.961 . S
C549 H557 0.960 . S
C550 C548 1.381 . S
C550 C551 1.394 . S
C550 H558 0.930 . S
C551 C550 1.394 . S
C551 C552 1.383 . S
C551 H559 0.929 . S
C552 C551 1.383 . S
C552 C553 1.377 . S
C553 H537 0.930 . S
C553 C552 1.377 . S
C553 C554 1.379 . S
C554 H538 0.931 . S
C554 C548 1.383 . S
C554 C553 1.379 . S
H555 C549 0.959 . S
H556 C549 0.961 . S
H557 C549 0.960 . S
H558 C550 0.930 . S
H559 C551 0.929 . S
H560 C568 0.929 . S
H561 C570 0.930 . S
H562 C572 0.930 . S
H563 C575 0.929 . S
H564 C578 0.930 . S
H565 C580 0.960 . S
H566 C580 0.960 . S
H567 C580 0.960 . S
C568 H560 0.929 . S
C568 C569 1.377 . S
C568 C570 1.384 . S
C569 C568 1.377 . S
C569 C575 1.390 . S
C570 H561 0.930 . S
C570 C568 1.384 . S
C570 C571 1.372 . S
C571 C570 1.372 . S
C571 C572 1.400 . S
C571 C576 1.490 . S
C572 H562 0.930 . S
C572 C571 1.400 . S
C572 C575 1.386 . S
H573 C589 0.930 . S
H574 C590 0.931 . S
C575 H563 0.929 . S
C575 C569 1.390 . S
C575 C572 1.386 . S
C576 C571 1.490 . S
C576 C578 1.395 . S
C576 C579 1.403 . S
H577 C583 0.930 . S
C578 H564 0.930 . S
C578 C576 1.395 . S
C578 C581 1.403 . S
C579 C576 1.403 . S
C579 C580 1.524 . S
C579 C583 1.400 . S
C580 H565 0.960 . S
C580 H566 0.960 . S
C580 H567 0.960 . S
C580 C579 1.524 . S
C581 C578 1.403 . S
C581 C582 1.392 . S
C581 C585 1.495 . S
C582 C581 1.392 . S
C582 C583 1.385 . S
C582 C584 1.478 . S
C583 H577 0.930 . S
C583 C579 1.400 . S
C583 C582 1.385 . S
C584 C582 1.478 . S
C584 C586 1.381 . S
C584 C590 1.383 . S
C585 C581 1.495 . S
C585 H591 0.959 . S
C585 H592 0.961 . S
C585 H593 0.960 . S
C586 C584 1.381 . S
C586 C587 1.394 . S
C586 H594 0.930 . S
C587 C586 1.394 . S
C587 C588 1.383 . S
C587 H595 0.929 . S
C588 C587 1.383 . S
C588 C589 1.377 . S
C589 H573 0.930 . S
C589 C588 1.377 . S
C589 C590 1.379 . S
C590 H574 0.931 . S
C590 C584 1.383 . S
C590 C589 1.379 . S
H591 C585 0.959 . S
H592 C585 0.961 . S
H593 C585 0.960 . S
H594 C586 0.930 . S
H595 C587 0.929 . S
H596 C604 0.929 . S
H597 C606 0.930 . S
H598 C608 0.930 . S
H599 C611 0.929 . S
H600 C614 0.930 . S
H601 C616 0.960 . S
H602 C616 0.960 . S
H603 C616 0.960 . S
C604 H596 0.929 . S
C604 C605 1.377 . S
C604 C606 1.384 . S
C605 C604 1.377 . S
C605 C611 1.390 . S
C606 H597 0.930 . S
C606 C604 1.384 . S
C606 C607 1.372 . S
C607 C606 1.372 . S
C607 C608 1.400 . S
C607 C612 1.490 . S
C608 H598 0.930 . S
C608 C607 1.400 . S
C608 C611 1.386 . S
H609 C625 0.930 . S
H610 C626 0.931 . S
C611 H599 0.929 . S
C611 C605 1.390 . S
C611 C608 1.386 . S
C612 C607 1.490 . S
C612 C614 1.395 . S
C612 C615 1.403 . S
H613 C619 0.930 . S
C614 H600 0.930 . S
C614 C612 1.395 . S
C614 C617 1.403 . S
C615 C612 1.403 . S
C615 C616 1.524 . S
C615 C619 1.400 . S
C616 H601 0.960 . S
C616 H602 0.960 . S
C616 H603 0.960 . S
C616 C615 1.524 . S
C617 C614 1.403 . S
C617 C618 1.392 . S
C617 C621 1.495 . S
C618 C617 1.392 . S
C618 C619 1.385 . S
C618 C620 1.478 . S
C619 H613 0.930 . S
C619 C615 1.400 . S
C619 C618 1.385 . S
C620 C618 1.478 . S
C620 C622 1.381 . S
C620 C626 1.383 . S
C621 C617 1.495 . S
C621 H627 0.959 . S
C621 H628 0.961 . S
C621 H629 0.960 . S
C622 C620 1.381 . S
C622 C623 1.394 . S
C622 H630 0.930 . S
C623 C622 1.394 . S
C623 C624 1.383 . S
C623 H631 0.929 . S
C624 C623 1.383 . S
C624 C625 1.377 . S
C625 H609 0.930 . S
C625 C624 1.377 . S
C625 C626 1.379 . S
C626 H610 0.931 . S
C626 C620 1.383 . S
C626 C625 1.379 . S
H627 C621 0.959 . S
H628 C621 0.961 . S
H629 C621 0.960 . S
H630 C622 0.930 . S
H631 C623 0.929 . S
H632 C640 0.929 . S
H633 C642 0.930 . S
H634 C644 0.930 . S
H635 C647 0.929 . S
H636 C650 0.930 . S
H637 C652 0.960 . S
H638 C652 0.960 . S
H639 C652 0.960 . S
C640 H632 0.929 . S
C640 C641 1.377 . S
C640 C642 1.384 . S
C641 C640 1.377 . S
C641 C647 1.390 . S
C642 H633 0.930 . S
C642 C640 1.384 . S
C642 C643 1.372 . S
C643 C642 1.372 . S
C643 C644 1.400 . S
C643 C648 1.490 . S
C644 H634 0.930 . S
C644 C643 1.400 . S
C644 C647 1.386 . S
H645 C661 0.930 . S
H646 C662 0.931 . S
C647 H635 0.929 . S
C647 C641 1.390 . S
C647 C644 1.386 . S
C648 C643 1.490 . S
C648 C650 1.395 . S
C648 C651 1.403 . S
H649 C655 0.930 . S
C650 H636 0.930 . S
C650 C648 1.395 . S
C650 C653 1.403 . S
C651 C648 1.403 . S
C651 C652 1.524 . S
C651 C655 1.400 . S
C652 H637 0.960 . S
C652 H638 0.960 . S
C652 H639 0.960 . S
C652 C651 1.524 . S
C653 C650 1.403 . S
C653 C654 1.392 . S
C653 C657 1.495 . S
C654 C653 1.392 . S
C654 C655 1.385 . S
C654 C656 1.478 . S
C655 H649 0.930 . S
C655 C651 1.400 . S
C655 C654 1.385 . S
C656 C654 1.478 . S
C656 C658 1.381 . S
C656 C662 1.383 . S
C657 C653 1.495 . S
C657 H663 0.959 . S
C657 H664 0.961 . S
C657 H665 0.960 . S
C658 C656 1.381 . S
C658 C659 1.394 . S
C658 H666 0.930 . S
C659 C658 1.394 . S
C659 C660 1.383 . S
C659 H667 0.929 . S
C660 C659 1.383 . S
C660 C661 1.377 . S
C661 H645 0.930 . S
C661 C660 1.377 . S
C661 C662 1.379 . S
C662 H646 0.931 . S
C662 C656 1.383 . S
C662 C661 1.379 . S
H663 C657 0.959 . S
H664 C657 0.961 . S
H665 C657 0.960 . S
H666 C658 0.930 . S
H667 C659 0.929 . S
H668 C676 0.929 . S
H669 C678 0.930 . S
H670 C680 0.930 . S
H671 C683 0.929 . S
H672 C686 0.930 . S
H673 C688 0.960 . S
H674 C688 0.960 . S
H675 C688 0.960 . S
C676 H668 0.929 . S
C676 C677 1.377 . S
C676 C678 1.384 . S
C677 C676 1.377 . S
C677 C683 1.390 . S
C678 H669 0.930 . S
C678 C676 1.384 . S
C678 C679 1.372 . S
C679 C678 1.372 . S
C679 C680 1.400 . S
C679 C684 1.490 . S
C680 H670 0.930 . S
C680 C679 1.400 . S
C680 C683 1.386 . S
H681 C697 0.930 . S
H682 C698 0.931 . S
C683 H671 0.929 . S
C683 C677 1.390 . S
C683 C680 1.386 . S
C684 C679 1.490 . S
C684 C686 1.395 . S
C684 C687 1.403 . S
H685 C691 0.930 . S
C686 H672 0.930 . S
C686 C684 1.395 . S
C686 C689 1.403 . S
C687 C684 1.403 . S
C687 C688 1.524 . S
C687 C691 1.400 . S
C688 H673 0.960 . S
C688 H674 0.960 . S
C688 H675 0.960 . S
C688 C687 1.524 . S
C689 C686 1.403 . S
C689 C690 1.392 . S
C689 C693 1.495 . S
C690 C689 1.392 . S
C690 C691 1.385 . S
C690 C692 1.478 . S
C691 H685 0.930 . S
C691 C687 1.400 . S
C691 C690 1.385 . S
C692 C690 1.478 . S
C692 C694 1.381 . S
C692 C698 1.383 . S
C693 C689 1.495 . S
C693 H699 0.959 . S
C693 H700 0.961 . S
C693 H701 0.960 . S
C694 C692 1.381 . S
C694 C695 1.394 . S
C694 H702 0.930 . S
C695 C694 1.394 . S
C695 C696 1.383 . S
C695 H703 0.929 . S
C696 C695 1.383 . S
C696 C697 1.377 . S
C697 H681 0.930 . S
C697 C696 1.377 . S
C697 C698 1.379 . S
C698 H682 0.931 . S
C698 C692 1.383 . S
C698 C697 1.379 . S
H699 C693 0.959 . S
H700 C693 0.961 . S
H701 C693 0.960 . S
H702 C694 0.930 . S
H703 C695 0.929 . S
H704 C712 0.929 . S
H705 C714 0.930 . S
H706 C716 0.930 . S
H707 C719 0.929 . S
H708 C722 0.930 . S
H709 C724 0.960 . S
H710 C724 0.960 . S
H711 C724 0.960 . S
C712 H704 0.929 . S
C712 C713 1.377 . S
C712 C714 1.384 . S
C713 C712 1.377 . S
C713 C719 1.390 . S
C714 H705 0.930 . S
C714 C712 1.384 . S
C714 C715 1.372 . S
C715 C714 1.372 . S
C715 C716 1.400 . S
C715 C720 1.490 . S
C716 H706 0.930 . S
C716 C715 1.400 . S
C716 C719 1.386 . S
H717 C733 0.930 . S
H718 C734 0.931 . S
C719 H707 0.929 . S
C719 C713 1.390 . S
C719 C716 1.386 . S
C720 C715 1.490 . S
C720 C722 1.395 . S
C720 C723 1.403 . S
H721 C727 0.930 . S
C722 H708 0.930 . S
C722 C720 1.395 . S
C722 C725 1.403 . S
C723 C720 1.403 . S
C723 C724 1.524 . S
C723 C727 1.400 . S
C724 H709 0.960 . S
C724 H710 0.960 . S
C724 H711 0.960 . S
C724 C723 1.524 . S
C725 C722 1.403 . S
C725 C726 1.392 . S
C725 C729 1.495 . S
C726 C725 1.392 . S
C726 C727 1.385 . S
C726 C728 1.478 . S
C727 H721 0.930 . S
C727 C723 1.400 . S
C727 C726 1.385 . S
C728 C726 1.478 . S
C728 C730 1.381 . S
C728 C734 1.383 . S
C729 C725 1.495 . S
C729 H735 0.959 . S
C729 H736 0.961 . S
C729 H737 0.960 . S
C730 C728 1.381 . S
C730 C731 1.394 . S
C730 H738 0.930 . S
C731 C730 1.394 . S
C731 C732 1.383 . S
C731 H739 0.929 . S
C732 C731 1.383 . S
C732 C733 1.377 . S
C733 H717 0.930 . S
C733 C732 1.377 . S
C733 C734 1.379 . S
C734 H718 0.931 . S
C734 C728 1.383 . S
C734 C733 1.379 . S
H735 C729 0.959 . S
H736 C729 0.961 . S
H737 C729 0.960 . S
H738 C730 0.930 . S
H739 C731 0.929 . S
H740 C748 0.929 . S
H741 C750 0.930 . S
H742 C752 0.930 . S
H743 C755 0.929 . S
H744 C758 0.930 . S
H745 C760 0.960 . S
H746 C760 0.960 . S
H747 C760 0.960 . S
C748 H740 0.929 . S
C748 C749 1.377 . S
C748 C750 1.384 . S
C749 C748 1.377 . S
C749 C755 1.390 . S
C750 H741 0.930 . S
C750 C748 1.384 . S
C750 C751 1.372 . S
C751 C750 1.372 . S
C751 C752 1.400 . S
C751 C756 1.490 . S
C752 H742 0.930 . S
C752 C751 1.400 . S
C752 C755 1.386 . S
H753 C769 0.930 . S
H754 C770 0.931 . S
C755 H743 0.929 . S
C755 C749 1.390 . S
C755 C752 1.386 . S
C756 C751 1.490 . S
C756 C758 1.395 . S
C756 C759 1.403 . S
H757 C763 0.930 . S
C758 H744 0.930 . S
C758 C756 1.395 . S
C758 C761 1.403 . S
C759 C756 1.403 . S
C759 C760 1.524 . S
C759 C763 1.400 . S
C760 H745 0.960 . S
C760 H746 0.960 . S
C760 H747 0.960 . S
C760 C759 1.524 . S
C761 C758 1.403 . S
C761 C762 1.392 . S
C761 C765 1.495 . S
C762 C761 1.392 . S
C762 C763 1.385 . S
C762 C764 1.478 . S
C763 H757 0.930 . S
C763 C759 1.400 . S
C763 C762 1.385 . S
C764 C762 1.478 . S
C764 C766 1.381 . S
C764 C770 1.383 . S
C765 C761 1.495 . S
C765 H771 0.959 . S
C765 H772 0.961 . S
C765 H773 0.960 . S
C766 C764 1.381 . S
C766 C767 1.394 . S
C766 H774 0.930 . S
C767 C766 1.394 . S
C767 C768 1.383 . S
C767 H775 0.929 . S
C768 C767 1.383 . S
C768 C769 1.377 . S
C769 H753 0.930 . S
C769 C768 1.377 . S
C769 C770 1.379 . S
C770 H754 0.931 . S
C770 C764 1.383 . S
C770 C769 1.379 . S
H771 C765 0.959 . S
H772 C765 0.961 . S
H773 C765 0.960 . S
H774 C766 0.930 . S
H775 C767 0.929 . S
H776 C784 0.929 . S
H777 C786 0.930 . S
H778 C788 0.930 . S
H779 C791 0.929 . S
H780 C794 0.930 . S
H781 C796 0.960 . S
H782 C796 0.960 . S
H783 C796 0.960 . S
C784 H776 0.929 . S
C784 C785 1.377 . S
C784 C786 1.384 . S
C785 C784 1.377 . S
C785 C791 1.390 . S
C786 H777 0.930 . S
C786 C784 1.384 . S
C786 C787 1.372 . S
C787 C786 1.372 . S
C787 C788 1.400 . S
C787 C792 1.490 . S
C788 H778 0.930 . S
C788 C787 1.400 . S
C788 C791 1.386 . S
H789 C805 0.930 . S
H790 C806 0.931 . S
C791 H779 0.929 . S
C791 C785 1.390 . S
C791 C788 1.386 . S
C792 C787 1.490 . S
C792 C794 1.395 . S
C792 C795 1.403 . S
H793 C799 0.930 . S
C794 H780 0.930 . S
C794 C792 1.395 . S
C794 C797 1.403 . S
C795 C792 1.403 . S
C795 C796 1.524 . S
C795 C799 1.400 . S
C796 H781 0.960 . S
C796 H782 0.960 . S
C796 H783 0.960 . S
C796 C795 1.524 . S
C797 C794 1.403 . S
C797 C798 1.392 . S
C797 C801 1.495 . S
C798 C797 1.392 . S
C798 C799 1.385 . S
C798 C800 1.478 . S
C799 H793 0.930 . S
C799 C795 1.400 . S
C799 C798 1.385 . S
C800 C798 1.478 . S
C800 C802 1.381 . S
C800 C806 1.383 . S
C801 C797 1.495 . S
C801 H807 0.959 . S
C801 H808 0.961 . S
C801 H809 0.960 . S
C802 C800 1.381 . S
C802 C803 1.394 . S
C802 H810 0.930 . S
C803 C802 1.394 . S
C803 C804 1.383 . S
C803 H811 0.929 . S
C804 C803 1.383 . S
C804 C805 1.377 . S
C805 H789 0.930 . S
C805 C804 1.377 . S
C805 C806 1.379 . S
C806 H790 0.931 . S
C806 C800 1.383 . S
C806 C805 1.379 . S
H807 C801 0.959 . S
H808 C801 0.961 . S
H809 C801 0.960 . S
H810 C802 0.930 . S
H811 C803 0.929 . S
H812 C820 0.929 . S
H813 C822 0.930 . S
H814 C824 0.930 . S
H815 C827 0.929 . S
H816 C830 0.930 . S
H817 C832 0.960 . S
H818 C832 0.960 . S
H819 C832 0.960 . S
C820 H812 0.929 . S
C820 C821 1.377 . S
C820 C822 1.384 . S
C821 C820 1.377 . S
C821 C827 1.390 . S
C822 H813 0.930 . S
C822 C820 1.384 . S
C822 C823 1.372 . S
C823 C822 1.372 . S
C823 C824 1.400 . S
C823 C828 1.490 . S
C824 H814 0.930 . S
C824 C823 1.400 . S
C824 C827 1.386 . S
H825 C841 0.930 . S
H826 C842 0.931 . S
C827 H815 0.929 . S
C827 C821 1.390 . S
C827 C824 1.386 . S
C828 C823 1.490 . S
C828 C830 1.395 . S
C828 C831 1.403 . S
H829 C835 0.930 . S
C830 H816 0.930 . S
C830 C828 1.395 . S
C830 C833 1.403 . S
C831 C828 1.403 . S
C831 C832 1.524 . S
C831 C835 1.400 . S
C832 H817 0.960 . S
C832 H818 0.960 . S
C832 H819 0.960 . S
C832 C831 1.524 . S
C833 C830 1.403 . S
C833 C834 1.392 . S
C833 C837 1.495 . S
C834 C833 1.392 . S
C834 C835 1.385 . S
C834 C836 1.478 . S
C835 H829 0.930 . S
C835 C831 1.400 . S
C835 C834 1.385 . S
C836 C834 1.478 . S
C836 C838 1.381 . S
C836 C842 1.383 . S
C837 C833 1.495 . S
C837 H843 0.959 . S
C837 H844 0.961 . S
C837 H845 0.960 . S
C838 C836 1.381 . S
C838 C839 1.394 . S
C838 H846 0.930 . S
C839 C838 1.394 . S
C839 C840 1.383 . S
C839 H847 0.929 . S
C840 C839 1.383 . S
C840 C841 1.377 . S
C841 H825 0.930 . S
C841 C840 1.377 . S
C841 C842 1.379 . S
C842 H826 0.931 . S
C842 C836 1.383 . S
C842 C841 1.379 . S
H843 C837 0.959 . S
H844 C837 0.961 . S
H845 C837 0.960 . S
H846 C838 0.930 . S
H847 C839 0.929 . S
H848 C856 0.929 . S
H849 C858 0.930 . S
H850 C860 0.930 . S
H851 C863 0.929 . S
H852 C866 0.930 . S
H853 C868 0.960 . S
H854 C868 0.960 . S
H855 C868 0.960 . S
C856 H848 0.929 . S
C856 C857 1.377 . S
C856 C858 1.384 . S
C857 C856 1.377 . S
C857 C863 1.390 . S
C858 H849 0.930 . S
C858 C856 1.384 . S
C858 C859 1.372 . S
C859 C858 1.372 . S
C859 C860 1.400 . S
C859 C864 1.490 . S
C860 H850 0.930 . S
C860 C859 1.400 . S
C860 C863 1.386 . S
H861 C877 0.930 . S
H862 C878 0.931 . S
C863 H851 0.929 . S
C863 C857 1.390 . S
C863 C860 1.386 . S
C864 C859 1.490 . S
C864 C866 1.395 . S
C864 C867 1.403 . S
H865 C871 0.930 . S
C866 H852 0.930 . S
C866 C864 1.395 . S
C866 C869 1.403 . S
C867 C864 1.403 . S
C867 C868 1.524 . S
C867 C871 1.400 . S
C868 H853 0.960 . S
C868 H854 0.960 . S
C868 H855 0.960 . S
C868 C867 1.524 . S
C869 C866 1.403 . S
C869 C870 1.392 . S
C869 C873 1.495 . S
C870 C869 1.392 . S
C870 C871 1.385 . S
C870 C872 1.478 . S
C871 H865 0.930 . S
C871 C867 1.400 . S
C871 C870 1.385 . S
C872 C870 1.478 . S
C872 C874 1.381 . S
C872 C878 1.383 . S
C873 C869 1.495 . S
C873 H879 0.959 . S
C873 H880 0.961 . S
C873 H881 0.960 . S
C874 C872 1.381 . S
C874 C875 1.394 . S
C874 H882 0.930 . S
C875 C874 1.394 . S
C875 C876 1.383 . S
C875 H883 0.929 . S
C876 C875 1.383 . S
C876 C877 1.377 . S
C877 H861 0.930 . S
C877 C876 1.377 . S
C877 C878 1.379 . S
C878 H862 0.931 . S
C878 C872 1.383 . S
C878 C877 1.379 . S
H879 C873 0.959 . S
H880 C873 0.961 . S
H881 C873 0.960 . S
H882 C874 0.930 . S
H883 C875 0.929 . S
H884 C892 0.929 . S
H885 C894 0.930 . S
H886 C896 0.930 . S
H887 C899 0.929 . S
H888 C902 0.930 . S
H889 C904 0.960 . S
H890 C904 0.960 . S
H891 C904 0.960 . S
C892 H884 0.929 . S
C892 C893 1.377 . S
C892 C894 1.384 . S
C893 C892 1.377 . S
C893 C899 1.390 . S
C894 H885 0.930 . S
C894 C892 1.384 . S
C894 C895 1.372 . S
C895 C894 1.372 . S
C895 C896 1.400 . S
C895 C900 1.490 . S
C896 H886 0.930 . S
C896 C895 1.400 . S
C896 C899 1.386 . S
H897 C913 0.930 . S
H898 C914 0.931 . S
C899 H887 0.929 . S
C899 C893 1.390 . S
C899 C896 1.386 . S
C900 C895 1.490 . S
C900 C902 1.395 . S
C900 C903 1.403 . S
H901 C907 0.930 . S
C902 H888 0.930 . S
C902 C900 1.395 . S
C902 C905 1.403 . S
C903 C900 1.403 . S
C903 C904 1.524 . S
C903 C907 1.400 . S
C904 H889 0.960 . S
C904 H890 0.960 . S
C904 H891 0.960 . S
C904 C903 1.524 . S
C905 C902 1.403 . S
C905 C906 1.392 . S
C905 C909 1.495 . S
C906 C905 1.392 . S
C906 C907 1.385 . S
C906 C908 1.478 . S
C907 H901 0.930 . S
C907 C903 1.400 . S
C907 C906 1.385 . S
C908 C906 1.478 . S
C908 C910 1.381 . S
C908 C914 1.383 . S
C909 C905 1.495 . S
C909 H915 0.959 . S
C909 H916 0.961 . S
C909 H917 0.960 . S
C910 C908 1.381 . S
C910 C911 1.394 . S
C910 H918 0.930 . S
C911 C910 1.394 . S
C911 C912 1.383 . S
C911 H919 0.929 . S
C912 C911 1.383 . S
C912 C913 1.377 . S
C913 H897 0.930 . S
C913 C912 1.377 . S
C913 C914 1.379 . S
C914 H898 0.931 . S
C914 C908 1.383 . S
C914 C913 1.379 . S
H915 C909 0.959 . S
H916 C909 0.961 . S
H917 C909 0.960 . S
H918 C910 0.930 . S
H919 C911 0.929 . S
H920 C928 0.929 . S
H921 C930 0.930 . S
H922 C932 0.930 . S
H923 C935 0.929 . S
H924 C938 0.930 . S
H925 C940 0.960 . S
H926 C940 0.960 . S
H927 C940 0.960 . S
C928 H920 0.929 . S
C928 C929 1.377 . S
C928 C930 1.384 . S
C929 C928 1.377 . S
C929 C935 1.390 . S
C930 H921 0.930 . S
C930 C928 1.384 . S
C930 C931 1.372 . S
C931 C930 1.372 . S
C931 C932 1.400 . S
C931 C936 1.490 . S
C932 H922 0.930 . S
C932 C931 1.400 . S
C932 C935 1.386 . S
H933 C949 0.930 . S
H934 C950 0.931 . S
C935 H923 0.929 . S
C935 C929 1.390 . S
C935 C932 1.386 . S
C936 C931 1.490 . S
C936 C938 1.395 . S
C936 C939 1.403 . S
H937 C943 0.930 . S
C938 H924 0.930 . S
C938 C936 1.395 . S
C938 C941 1.403 . S
C939 C936 1.403 . S
C939 C940 1.524 . S
C939 C943 1.400 . S
C940 H925 0.960 . S
C940 H926 0.960 . S
C940 H927 0.960 . S
C940 C939 1.524 . S
C941 C938 1.403 . S
C941 C942 1.392 . S
C941 C945 1.495 . S
C942 C941 1.392 . S
C942 C943 1.385 . S
C942 C944 1.478 . S
C943 H937 0.930 . S
C943 C939 1.400 . S
C943 C942 1.385 . S
C944 C942 1.478 . S
C944 C946 1.381 . S
C944 C950 1.383 . S
C945 C941 1.495 . S
C945 H951 0.959 . S
C945 H952 0.961 . S
C945 H953 0.960 . S
C946 C944 1.381 . S
C946 C947 1.394 . S
C946 H954 0.930 . S
C947 C946 1.394 . S
C947 C948 1.383 . S
C947 H955 0.929 . S
C948 C947 1.383 . S
C948 C949 1.377 . S
C949 H933 0.930 . S
C949 C948 1.377 . S
C949 C950 1.379 . S
C950 H934 0.931 . S
C950 C944 1.383 . S
C950 C949 1.379 . S
H951 C945 0.959 . S
H952 C945 0.961 . S
H953 C945 0.960 . S
H954 C946 0.930 . S
H955 C947 0.929 . S
H956 C964 0.929 . S
H957 C966 0.930 . S
H958 C968 0.930 . S
H959 C971 0.929 . S
H960 C974 0.930 . S
H961 C976 0.960 . S
H962 C976 0.960 . S
H963 C976 0.960 . S
C964 H956 0.929 . S
C964 C965 1.377 . S
C964 C966 1.384 . S
C965 C964 1.377 . S
C965 C971 1.390 . S
C966 H957 0.930 . S
C966 C964 1.384 . S
C966 C967 1.372 . S
C967 C966 1.372 . S
C967 C968 1.400 . S
C967 C972 1.490 . S
C968 H958 0.930 . S
C968 C967 1.400 . S
C968 C971 1.386 . S
H969 C985 0.930 . S
H970 C986 0.931 . S
C971 H959 0.929 . S
C971 C965 1.390 . S
C971 C968 1.386 . S
C972 C967 1.490 . S
C972 C974 1.395 . S
C972 C975 1.403 . S
H973 C979 0.930 . S
C974 H960 0.930 . S
C974 C972 1.395 . S
C974 C977 1.403 . S
C975 C972 1.403 . S
C975 C976 1.524 . S
C975 C979 1.400 . S
C976 H961 0.960 . S
C976 H962 0.960 . S
C976 H963 0.960 . S
C976 C975 1.524 . S
C977 C974 1.403 . S
C977 C978 1.392 . S
C977 C981 1.495 . S
C978 C977 1.392 . S
C978 C979 1.385 . S
C978 C980 1.478 . S
C979 H973 0.930 . S
C979 C975 1.400 . S
C979 C978 1.385 . S
C980 C978 1.478 . S
C980 C982 1.381 . S
C980 C986 1.383 . S
C981 C977 1.495 . S
C981 H987 0.959 . S
C981 H988 0.961 . S
C981 H989 0.960 . S
C982 C980 1.381 . S
C982 C983 1.394 . S
C982 H990 0.930 . S
C983 C982 1.394 . S
C983 C984 1.383 . S
C983 H991 0.929 . S
C984 C983 1.383 . S
C984 C985 1.377 . S
C985 H969 0.930 . S
C985 C984 1.377 . S
C985 C986 1.379 . S
C986 H970 0.931 . S
C986 C980 1.383 . S
C986 C985 1.379 . S
H987 C981 0.959 . S
H988 C981 0.961 . S
H989 C981 0.960 . S
H990 C982 0.930 . S
H991 C983 0.929 . S
H992 C1000 0.929 . S
H993 C1002 0.930 . S
H994 C1004 0.930 . S
H995 C1007 0.929 . S
H996 C1010 0.930 . S
H997 C1012 0.960 . S
H998 C1012 0.960 . S
H999 C1012 0.960 . S
C1000 H992 0.929 . S
C1000 C1001 1.377 . S
C1000 C1002 1.384 . S
C1001 C1000 1.377 . S
C1001 C1007 1.390 . S
C1002 H993 0.930 . S
C1002 C1000 1.384 . S
C1002 C1003 1.372 . S
C1003 C1002 1.372 . S
C1003 C1004 1.400 . S
C1003 C1008 1.490 . S
C1004 H994 0.930 . S
C1004 C1003 1.400 . S
C1004 C1007 1.386 . S
H1005 C1021 0.930 . S
H1006 C1022 0.931 . S
C1007 H995 0.929 . S
C1007 C1001 1.390 . S
C1007 C1004 1.386 . S
C1008 C1003 1.490 . S
C1008 C1010 1.395 . S
C1008 C1011 1.403 . S
H1009 C1015 0.930 . S
C1010 H996 0.930 . S
C1010 C1008 1.395 . S
C1010 C1013 1.403 1_655 S
C1011 C1008 1.403 . S
C1011 C1012 1.524 . S
C1011 C1015 1.400 1_655 S
C1012 H997 0.960 . S
C1012 H998 0.960 . S
C1012 H999 0.960 . S
C1012 C1011 1.524 . S
C1013 C1010 1.403 1_455 S
C1013 C1014 1.392 . S
C1013 C1017 1.495 . S
C1014 C1013 1.392 . S
C1014 C1015 1.385 . S
C1014 C1016 1.478 . S
C1015 H1009 0.930 . S
C1015 C1011 1.400 1_455 S
C1015 C1014 1.385 . S
C1016 C1014 1.478 . S
C1016 C1018 1.381 . S
C1016 C1022 1.383 . S
C1017 C1013 1.495 . S
C1017 H1023 0.959 . S
C1017 H1024 0.961 . S
C1017 H1025 0.960 . S
C1018 C1016 1.381 . S
C1018 C1019 1.394 . S
C1018 H1026 0.930 . S
C1019 C1018 1.394 . S
C1019 C1020 1.383 . S
C1019 H1027 0.929 . S
C1020 C1019 1.383 . S
C1020 C1021 1.377 . S
C1021 H1005 0.930 . S
C1021 C1020 1.377 . S
C1021 C1022 1.379 . S
C1022 H1006 0.931 . S
C1022 C1016 1.383 . S
C1022 C1021 1.379 . S
H1023 C1017 0.959 . S
H1024 C1017 0.961 . S
H1025 C1017 0.960 . S
H1026 C1018 0.930 . S
H1027 C1019 0.929 . S
H1028 C1036 0.929 . S
H1029 C1038 0.930 . S
H1030 C1040 0.930 . S
H1031 C1043 0.929 . S
H1032 C1046 0.930 . S
H1033 C1048 0.960 . S
H1034 C1048 0.960 . S
H1035 C1048 0.960 . S
C1036 H1028 0.929 . S
C1036 C1037 1.377 . S
C1036 C1038 1.384 . S
C1037 C1036 1.377 . S
C1037 C1043 1.390 . S
C1038 H1029 0.930 . S
C1038 C1036 1.384 . S
C1038 C1039 1.372 . S
C1039 C1038 1.372 . S
C1039 C1040 1.400 . S
C1039 C1044 1.490 . S
C1040 H1030 0.930 . S
C1040 C1039 1.400 . S
C1040 C1043 1.386 . S
H1041 C1057 0.930 . S
H1042 C1058 0.931 . S
C1043 H1031 0.929 . S
C1043 C1037 1.390 . S
C1043 C1040 1.386 . S
C1044 C1039 1.490 . S
C1044 C1046 1.395 . S
C1044 C1047 1.403 . S
H1045 C1051 0.930 . S
C1046 H1032 0.930 . S
C1046 C1044 1.395 . S
C1046 C1049 1.456 . S
C1047 C1044 1.403 . S
C1047 C1048 1.524 . S
C1047 C1051 1.400 1_545 S
C1048 H1033 0.960 . S
C1048 H1034 0.960 . S
C1048 H1035 0.960 . S
C1048 C1047 1.524 . S
C1049 C1046 1.456 . S
C1049 C1050 1.361 1_545 S
C1049 C1053 1.477 1_545 S
C1050 C1049 1.361 1_565 S
C1050 C1051 1.385 . S
C1050 C1052 1.478 . S
C1051 H1045 0.930 . S
C1051 C1047 1.400 1_565 S
C1051 C1050 1.385 . S
C1052 C1050 1.478 . S
C1052 C1054 1.381 . S
C1052 C1058 1.383 . S
C1053 C1049 1.477 1_565 S
C1053 H1059 0.959 1_565 S
C1053 H1060 0.961 . S
C1053 H1061 0.960 . S
C1054 C1052 1.381 . S
C1054 C1055 1.394 . S
C1054 H1062 0.930 . S
C1055 C1054 1.394 . S
C1055 C1056 1.383 . S
C1055 H1063 0.929 . S
C1056 C1055 1.383 . S
C1056 C1057 1.377 . S
C1057 H1041 0.930 . S
C1057 C1056 1.377 . S
C1057 C1058 1.379 . S
C1058 H1042 0.931 . S
C1058 C1052 1.383 . S
C1058 C1057 1.379 . S
H1059 C1053 0.959 1_545 S
H1060 C1053 0.961 . S
H1061 C1053 0.960 . S
H1062 C1054 0.930 . S
H1063 C1055 0.929 . S
H1064 C1072 0.929 . S
H1065 C1074 0.930 . S
H1066 C1076 0.930 . S
H1067 C1079 0.929 . S
H1068 C1082 0.930 . S
H1069 C1084 0.960 . S
H1070 C1084 0.960 . S
H1071 C1084 0.960 . S
C1072 H1064 0.929 . S
C1072 C1073 1.377 . S
C1072 C1074 1.384 . S
C1073 C1072 1.377 . S
C1073 C1079 1.390 . S
C1074 H1065 0.930 . S
C1074 C1072 1.384 . S
C1074 C1075 1.372 . S
C1075 C1074 1.372 . S
C1075 C1076 1.400 . S
C1075 C1080 1.490 . S
C1076 H1066 0.930 . S
C1076 C1075 1.400 . S
C1076 C1079 1.386 . S
H1077 C1093 0.930 . S
H1078 C1094 0.931 . S
C1079 H1067 0.929 . S
C1079 C1073 1.390 . S
C1079 C1076 1.386 . S
C1080 C1075 1.490 . S
C1080 C1082 1.395 . S
C1080 C1083 1.403 . S
H1081 C1087 0.930 . S
C1082 H1068 0.930 . S
C1082 C1080 1.395 . S
C1082 C1085 1.403 1_455 S
C1083 C1080 1.403 . S
C1083 C1084 1.524 . S
C1083 C1087 1.400 1_455 S
C1084 H1069 0.960 . S
C1084 H1070 0.960 . S
C1084 H1071 0.960 . S
C1084 C1083 1.524 . S
C1085 C1082 1.403 1_655 S
C1085 C1086 1.392 . S
C1085 C1089 1.495 . S
C1086 C1085 1.392 . S
C1086 C1087 1.385 . S
C1086 C1088 1.478 . S
C1087 H1081 0.930 . S
C1087 C1083 1.400 1_655 S
C1087 C1086 1.385 . S
C1088 C1086 1.478 . S
C1088 C1090 1.381 . S
C1088 C1094 1.383 . S
C1089 C1085 1.495 . S
C1089 H1095 0.959 . S
C1089 H1096 0.961 . S
C1089 H1097 0.960 . S
C1090 C1088 1.381 . S
C1090 C1091 1.394 . S
C1090 H1098 0.930 . S
C1091 C1090 1.394 . S
C1091 C1092 1.383 . S
C1091 H1099 0.929 . S
C1092 C1091 1.383 . S
C1092 C1093 1.377 . S
C1093 H1077 0.930 . S
C1093 C1092 1.377 . S
C1093 C1094 1.379 . S
C1094 H1078 0.931 . S
C1094 C1088 1.383 . S
C1094 C1093 1.379 . S
H1095 C1089 0.959 . S
H1096 C1089 0.961 . S
H1097 C1089 0.960 . S
H1098 C1090 0.930 . S
H1099 C1091 0.929 . S
H1100 C1108 0.929 . S
H1101 C1110 0.930 . S
H1102 C1112 0.930 . S
H1103 C1115 0.929 . S
H1104 C1118 0.930 . S
H1105 C1120 0.960 . S
H1106 C1120 0.960 . S
H1107 C1120 0.960 . S
C1108 H1100 0.929 . S
C1108 C1109 1.377 . S
C1108 C1110 1.384 . S
C1109 C1108 1.377 . S
C1109 C1115 1.390 . S
C1110 H1101 0.930 . S
C1110 C1108 1.384 . S
C1110 C1111 1.372 . S
C1111 C1110 1.372 . S
C1111 C1112 1.400 . S
C1111 C1116 1.490 . S
C1112 H1102 0.930 . S
C1112 C1111 1.400 . S
C1112 C1115 1.386 . S
H1113 C1129 0.930 . S
H1114 C1130 0.931 . S
C1115 H1103 0.929 . S
C1115 C1109 1.390 . S
C1115 C1112 1.386 . S
C1116 C1111 1.490 . S
C1116 C1118 1.395 . S
C1116 C1119 1.403 . S
H1117 C1123 0.957 . S
C1118 H1104 0.930 . S
C1118 C1116 1.395 . S
C1118 C1121 1.403 1_565 S
C1119 C1116 1.403 . S
C1119 C1120 1.524 . S
C1119 C1123 1.347 1_565 S
C1120 H1105 0.960 . S
C1120 H1106 0.960 . S
C1120 H1107 0.960 . S
C1120 C1119 1.524 . S
C1121 C1118 1.403 1_545 S
C1121 C1122 1.392 . S
C1121 C1125 1.495 . S
C1122 C1121 1.392 . S
C1122 C1123 1.414 . S
C1122 C1124 1.478 . S
C1123 H1117 0.957 . S
C1123 C1119 1.347 1_545 S
C1123 C1122 1.414 . S
C1124 C1122 1.478 . S
C1124 C1126 1.381 . S
C1124 C1130 1.383 . S
C1125 C1121 1.495 . S
C1125 H1131 0.959 . S
C1125 H1132 0.961 . S
C1125 H1133 0.960 . S
C1126 C1124 1.381 . S
C1126 C1127 1.394 . S
C1126 H1134 0.930 . S
C1127 C1126 1.394 . S
C1127 C1128 1.383 . S
C1127 H1135 0.929 . S
C1128 C1127 1.383 . S
C1128 C1129 1.377 . S
C1129 H1113 0.930 . S
C1129 C1128 1.377 . S
C1129 C1130 1.379 . S
C1130 H1114 0.931 . S
C1130 C1124 1.383 . S
C1130 C1129 1.379 . S
H1131 C1125 0.959 . S
H1132 C1125 0.961 . S
H1133 C1125 0.960 . S
H1134 C1126 0.930 . S
H1135 C1127 0.929 . S
H1136 C1144 0.929 . S
H1137 C1146 0.930 . S
H1138 C1148 0.930 . S
H1139 C1151 0.929 . S
H1140 C1154 0.930 . S
H1141 C1156 1.012 . S
H1142 C1156 0.960 . S
H1143 C1156 0.960 . S
C1144 H1136 0.929 . S
C1144 C1145 1.377 . S
C1144 C1146 1.384 . S
C1145 C1144 1.377 . S
C1145 C1151 1.390 . S
C1146 H1137 0.930 . S
C1146 C1144 1.384 . S
C1146 C1147 1.372 . S
C1147 C1146 1.372 . S
C1147 C1148 1.400 . S
C1147 C1152 1.490 . S
C1148 H1138 0.930 . S
C1148 C1147 1.400 . S
C1148 C1151 1.386 . S
H1149 C1165 0.930 . S
H1150 C1166 0.931 . S
C1151 H1139 0.929 . S
C1151 C1145 1.390 . S
C1151 C1148 1.386 . S
C1152 C1147 1.490 . S
C1152 C1154 1.395 . S
C1152 C1155 1.403 . S
H1153 C1159 0.930 . S
C1154 H1140 0.930 . S
C1154 C1152 1.395 . S
C1154 C1157 1.403 1_455 S
C1155 C1152 1.403 . S
C1155 C1156 1.524 . S
C1155 C1159 1.400 1_455 S
C1156 H1141 1.012 . S
C1156 H1142 0.960 . S
C1156 H1143 0.960 . S
C1156 C1155 1.524 . S
C1157 C1154 1.403 1_655 S
C1157 C1158 1.392 . S
C1157 C1161 1.495 . S
C1158 C1157 1.392 . S
C1158 C1159 1.385 . S
C1158 C1160 1.478 . S
C1159 H1153 0.930 . S
C1159 C1155 1.400 1_655 S
C1159 C1158 1.385 . S
C1160 C1158 1.478 . S
C1160 C1162 1.381 . S
C1160 C1166 1.383 . S
C1161 C1157 1.495 . S
C1161 H1167 0.959 . S
C1161 H1168 0.961 . S
C1161 H1169 0.960 . S
C1162 C1160 1.381 . S
C1162 C1163 1.394 . S
C1162 H1170 0.930 . S
C1163 C1162 1.394 . S
C1163 C1164 1.383 . S
C1163 H1171 0.929 . S
C1164 C1163 1.383 . S
C1164 C1165 1.377 . S
C1165 H1149 0.930 . S
C1165 C1164 1.377 . S
C1165 C1166 1.379 . S
C1166 H1150 0.931 . S
C1166 C1160 1.383 . S
C1166 C1165 1.379 . S
H1167 C1161 0.959 . S
H1168 C1161 0.961 . S
H1169 C1161 0.960 . S
H1170 C1162 0.930 . S
H1171 C1163 0.929 . S
H1172 C1180 0.929 . S
H1173 C1182 0.930 . S
H1174 C1184 0.930 . S
H1175 C1187 0.929 . S
H1176 C1190 0.932 1_565 S
H1177 C1192 0.960 . S
H1178 C1192 0.960 . S
H1179 C1192 0.960 . S
C1180 H1172 0.929 . S
C1180 C1181 1.377 . S
C1180 C1182 1.384 . S
C1181 C1180 1.377 . S
C1181 C1187 1.390 . S
C1182 H1173 0.930 . S
C1182 C1180 1.384 . S
C1182 C1183 1.372 . S
C1183 C1182 1.372 . S
C1183 C1184 1.400 . S
C1183 C1188 1.490 . S
C1184 H1174 0.930 . S
C1184 C1183 1.400 . S
C1184 C1187 1.386 . S
H1185 C1201 0.930 . S
H1186 C1202 0.931 . S
C1187 H1175 0.929 . S
C1187 C1181 1.390 . S
C1187 C1184 1.386 . S
C1188 C1183 1.490 . S
C1188 C1190 1.397 1_565 S
C1188 C1191 1.403 . S
H1189 C1195 0.930 . S
C1190 H1176 0.932 1_545 S
C1190 C1188 1.397 1_545 S
C1190 C1193 1.399 . S
C1191 C1188 1.403 . S
C1191 C1192 1.524 . S
C1191 C1195 1.400 1_565 S
C1192 H1177 0.960 . S
C1192 H1178 0.960 . S
C1192 H1179 0.960 . S
C1192 C1191 1.524 . S
C1193 C1190 1.399 . S
C1193 C1194 1.392 . S
C1193 C1197 1.495 . S
C1194 C1193 1.392 . S
C1194 C1195 1.385 . S
C1194 C1196 1.478 . S
C1195 H1189 0.930 . S
C1195 C1191 1.400 1_545 S
C1195 C1194 1.385 . S
C1196 C1194 1.478 . S
C1196 C1198 1.381 . S
C1196 C1202 1.383 . S
C1197 C1193 1.495 . S
C1197 H1203 0.959 . S
C1197 H1204 0.961 . S
C1197 H1205 0.960 . S
C1198 C1196 1.381 . S
C1198 C1199 1.394 . S
C1198 H1206 0.930 . S
C1199 C1198 1.394 . S
C1199 C1200 1.383 . S
C1199 H1207 0.929 . S
C1200 C1199 1.383 . S
C1200 C1201 1.377 . S
C1201 H1185 0.930 . S
C1201 C1200 1.377 . S
C1201 C1202 1.379 . S
C1202 H1186 0.931 . S
C1202 C1196 1.383 . S
C1202 C1201 1.379 . S
H1203 C1197 0.959 . S
H1204 C1197 0.961 . S
H1205 C1197 0.960 . S
H1206 C1198 0.930 . S
H1207 C1199 0.929 . S
H1208 C1216 0.929 . S
H1209 C1218 0.930 . S
H1210 C1220 0.930 . S
H1211 C1223 0.929 . S
H1212 C1226 0.930 . S
H1213 C1228 0.960 . S
H1214 C1228 0.960 . S
H1215 C1228 0.960 . S
C1216 H1208 0.929 . S
C1216 C1217 1.377 . S
C1216 C1218 1.384 . S
C1217 C1216 1.377 . S
C1217 C1223 1.390 . S
C1218 H1209 0.930 . S
C1218 C1216 1.384 . S
C1218 C1219 1.372 . S
C1219 C1218 1.372 . S
C1219 C1220 1.400 . S
C1219 C1224 1.490 . S
C1220 H1210 0.930 . S
C1220 C1219 1.400 . S
C1220 C1223 1.386 . S
H1221 C1237 0.930 . S
H1222 C1238 0.931 . S
C1223 H1211 0.929 . S
C1223 C1217 1.390 . S
C1223 C1220 1.386 . S
C1224 C1219 1.490 . S
C1224 C1226 1.395 . S
C1224 C1227 1.403 . S
H1225 C1231 0.930 . S
C1226 H1212 0.930 . S
C1226 C1224 1.395 . S
C1226 C1229 1.403 1_455 S
C1227 C1224 1.403 . S
C1227 C1228 1.524 . S
C1227 C1231 1.400 1_455 S
C1228 H1213 0.960 . S
C1228 H1214 0.960 . S
C1228 H1215 0.960 . S
C1228 C1227 1.524 . S
C1229 C1226 1.403 1_655 S
C1229 C1230 1.392 . S
C1229 C1233 1.495 . S
C1230 C1229 1.392 . S
C1230 C1231 1.385 . S
C1230 C1232 1.478 . S
C1231 H1225 0.930 . S
C1231 C1227 1.400 1_655 S
C1231 C1230 1.385 . S
C1232 C1230 1.478 . S
C1232 C1234 1.381 . S
C1232 C1238 1.383 . S
C1233 C1229 1.495 . S
C1233 H1239 0.959 . S
C1233 H1240 0.961 . S
C1233 H1241 0.960 . S
C1234 C1232 1.381 . S
C1234 C1235 1.394 . S
C1234 H1242 0.930 . S
C1235 C1234 1.394 . S
C1235 C1236 1.383 . S
C1235 H1243 0.929 . S
C1236 C1235 1.383 . S
C1236 C1237 1.377 . S
C1237 H1221 0.930 . S
C1237 C1236 1.377 . S
C1237 C1238 1.379 . S
C1238 H1222 0.931 . S
C1238 C1232 1.383 . S
C1238 C1237 1.379 . S
H1239 C1233 0.959 . S
H1240 C1233 0.961 . S
H1241 C1233 0.960 . S
H1242 C1234 0.930 . S
H1243 C1235 0.929 . S
H1244 C1252 0.929 . S
H1245 C1254 0.930 . S
H1246 C1256 0.930 . S
H1247 C1259 0.929 . S
H1248 C1262 0.930 . S
H1249 C1264 0.960 1_565 S
H1250 C1264 0.960 . S
H1251 C1264 0.960 . S
C1252 H1244 0.929 . S
C1252 C1253 1.377 . S
C1252 C1254 1.384 . S
C1253 C1252 1.377 . S
C1253 C1259 1.390 . S
C1254 H1245 0.930 . S
C1254 C1252 1.384 . S
C1254 C1255 1.372 . S
C1255 C1254 1.372 . S
C1255 C1256 1.400 . S
C1255 C1260 1.490 . S
C1256 H1246 0.930 . S
C1256 C1255 1.400 . S
C1256 C1259 1.386 . S
H1257 C1273 0.930 . S
H1258 C1274 0.931 . S
C1259 H1247 0.929 . S
C1259 C1253 1.390 . S
C1259 C1256 1.386 . S
C1260 C1255 1.490 . S
C1260 C1262 1.395 . S
C1260 C1263 1.403 1_545 S
H1261 C1267 0.930 . S
C1262 H1248 0.930 . S
C1262 C1260 1.395 . S
C1262 C1265 1.403 1_545 S
C1263 C1260 1.403 1_565 S
C1263 C1264 1.524 1_565 S
C1263 C1267 1.400 . S
C1264 H1249 0.960 1_545 S
C1264 H1250 0.960 . S
C1264 H1251 0.960 . S
C1264 C1263 1.524 1_545 S
C1265 C1262 1.403 1_565 S
C1265 C1266 1.392 . S
C1265 C1269 1.495 . S
C1266 C1265 1.392 . S
C1266 C1267 1.385 . S
C1266 C1268 1.478 . S
C1267 H1261 0.930 . S
C1267 C1263 1.400 . S
C1267 C1266 1.385 . S
C1268 C1266 1.478 . S
C1268 C1270 1.381 . S
C1268 C1274 1.383 . S
C1269 C1265 1.495 . S
C1269 H1275 0.959 . S
C1269 H1276 0.961 . S
C1269 H1277 0.960 . S
C1270 C1268 1.381 . S
C1270 C1271 1.394 . S
C1270 H1278 0.930 . S
C1271 C1270 1.394 . S
C1271 C1272 1.383 . S
C1271 H1279 0.929 . S
C1272 C1271 1.383 . S
C1272 C1273 1.377 . S
C1273 H1257 0.930 . S
C1273 C1272 1.377 . S
C1273 C1274 1.379 . S
C1274 H1258 0.931 . S
C1274 C1268 1.383 . S
C1274 C1273 1.379 . S
H1275 C1269 0.959 . S
H1276 C1269 0.961 . S
H1277 C1269 0.960 . S
H1278 C1270 0.930 . S
H1279 C1271 0.929 . S
H1280 C1288 0.929 . S
H1281 C1290 0.930 . S
H1282 C1292 0.930 . S
H1283 C1295 0.929 . S
H1284 C1298 0.930 . S
H1285 C1300 0.960 . S
H1286 C1300 0.960 . S
H1287 C1300 0.960 . S
C1288 H1280 0.929 . S
C1288 C1289 1.377 . S
C1288 C1290 1.384 . S
C1289 C1288 1.377 . S
C1289 C1295 1.390 . S
C1290 H1281 0.930 . S
C1290 C1288 1.384 . S
C1290 C1291 1.372 . S
C1291 C1290 1.372 . S
C1291 C1292 1.400 . S
C1291 C1296 1.490 . S
C1292 H1282 0.930 . S
C1292 C1291 1.400 . S
C1292 C1295 1.386 . S
H1293 C1309 0.930 . S
H1294 C1310 0.931 . S
C1295 H1283 0.929 . S
C1295 C1289 1.390 . S
C1295 C1292 1.386 . S
C1296 C1291 1.490 . S
C1296 C1298 1.395 . S
C1296 C1299 1.403 . S
H1297 C1303 0.930 . S
C1298 H1284 0.930 . S
C1298 C1296 1.395 . S
C1298 C1301 1.403 . S
C1299 C1296 1.403 . S
C1299 C1300 1.524 . S
C1299 C1303 1.400 . S
C1300 H1285 0.960 . S
C1300 H1286 0.960 . S
C1300 H1287 0.960 . S
C1300 C1299 1.524 . S
C1301 C1298 1.403 . S
C1301 C1302 1.392 . S
C1301 C1305 1.495 . S
C1302 C1301 1.392 . S
C1302 C1303 1.385 . S
C1302 C1304 1.478 . S
C1303 H1297 0.930 . S
C1303 C1299 1.400 . S
C1303 C1302 1.385 . S
C1304 C1302 1.478 . S
C1304 C1306 1.381 . S
C1304 C1310 1.383 . S
C1305 C1301 1.495 . S
C1305 H1311 0.959 . S
C1305 H1312 0.961 . S
C1305 H1313 0.960 . S
C1306 C1304 1.381 . S
C1306 C1307 1.394 . S
C1306 H1314 0.930 . S
C1307 C1306 1.394 . S
C1307 C1308 1.383 . S
C1307 H1315 0.929 . S
C1308 C1307 1.383 . S
C1308 C1309 1.377 . S
C1309 H1293 0.930 . S
C1309 C1308 1.377 . S
C1309 C1310 1.379 . S
C1310 H1294 0.931 . S
C1310 C1304 1.383 . S
C1310 C1309 1.379 . S
H1311 C1305 0.959 . S
H1312 C1305 0.961 . S
H1313 C1305 0.960 . S
H1314 C1306 0.930 . S
H1315 C1307 0.929 . S
H1316 C1324 0.929 . S
H1317 C1326 0.930 . S
H1318 C1328 0.930 . S
H1319 C1331 0.929 . S
H1320 C1334 0.930 . S
H1321 C1336 0.960 . S
H1322 C1336 0.960 . S
H1323 C1336 0.960 . S
C1324 H1316 0.929 . S
C1324 C1325 1.377 . S
C1324 C1326 1.384 . S
C1325 C1324 1.377 . S
C1325 C1331 1.390 . S
C1326 H1317 0.930 . S
C1326 C1324 1.384 . S
C1326 C1327 1.372 . S
C1327 C1326 1.372 . S
C1327 C1328 1.400 . S
C1327 C1332 1.490 . S
C1328 H1318 0.930 . S
C1328 C1327 1.400 . S
C1328 C1331 1.386 . S
H1329 C1345 0.930 . S
H1330 C1346 0.931 . S
C1331 H1319 0.929 . S
C1331 C1325 1.390 . S
C1331 C1328 1.386 . S
C1332 C1327 1.490 . S
C1332 C1334 1.395 . S
C1332 C1335 1.403 . S
H1333 C1339 0.930 . S
C1334 H1320 0.930 . S
C1334 C1332 1.395 . S
C1334 C1337 1.403 . S
C1335 C1332 1.403 . S
C1335 C1336 1.524 . S
C1335 C1339 1.400 . S
C1336 H1321 0.960 . S
C1336 H1322 0.960 . S
C1336 H1323 0.960 . S
C1336 C1335 1.524 . S
C1337 C1334 1.403 . S
C1337 C1338 1.392 . S
C1337 C1341 1.495 . S
C1338 C1337 1.392 . S
C1338 C1339 1.385 . S
C1338 C1340 1.478 . S
C1339 H1333 0.930 . S
C1339 C1335 1.400 . S
C1339 C1338 1.385 . S
C1340 C1338 1.478 . S
C1340 C1342 1.381 . S
C1340 C1346 1.383 . S
C1341 C1337 1.495 . S
C1341 H1347 0.959 . S
C1341 H1348 0.961 . S
C1341 H1349 0.960 . S
C1342 C1340 1.381 . S
C1342 C1343 1.394 . S
C1342 H1350 0.930 . S
C1343 C1342 1.394 . S
C1343 C1344 1.383 . S
C1343 H1351 0.929 . S
C1344 C1343 1.383 . S
C1344 C1345 1.377 . S
C1345 H1329 0.930 . S
C1345 C1344 1.377 . S
C1345 C1346 1.379 . S
C1346 H1330 0.931 . S
C1346 C1340 1.383 . S
C1346 C1345 1.379 . S
H1347 C1341 0.959 . S
H1348 C1341 0.961 . S
H1349 C1341 0.960 . S
H1350 C1342 0.930 . S
H1351 C1343 0.929 . S
H1352 C1360 0.929 . S
H1353 C1362 0.930 . S
H1354 C1364 0.930 . S
H1355 C1367 0.929 . S
H1356 C1370 0.930 . S
H1357 C1372 0.960 . S
H1358 C1372 0.960 . S
H1359 C1372 0.960 . S
C1360 H1352 0.929 . S
C1360 C1361 1.377 . S
C1360 C1362 1.384 . S
C1361 C1360 1.377 . S
C1361 C1367 1.390 . S
C1362 H1353 0.930 . S
C1362 C1360 1.384 . S
C1362 C1363 1.372 . S
C1363 C1362 1.372 . S
C1363 C1364 1.400 . S
C1363 C1368 1.490 . S
C1364 H1354 0.930 . S
C1364 C1363 1.400 . S
C1364 C1367 1.386 . S
H1365 C1381 0.930 . S
H1366 C1382 0.931 . S
C1367 H1355 0.929 . S
C1367 C1361 1.390 . S
C1367 C1364 1.386 . S
C1368 C1363 1.490 . S
C1368 C1370 1.395 . S
C1368 C1371 1.403 . S
H1369 C1375 0.930 . S
C1370 H1356 0.930 . S
C1370 C1368 1.395 . S
C1370 C1373 1.403 . S
C1371 C1368 1.403 . S
C1371 C1372 1.524 . S
C1371 C1375 1.400 . S
C1372 H1357 0.960 . S
C1372 H1358 0.960 . S
C1372 H1359 0.960 . S
C1372 C1371 1.524 . S
C1373 C1370 1.403 . S
C1373 C1374 1.392 . S
C1373 C1377 1.495 . S
C1374 C1373 1.392 . S
C1374 C1375 1.385 . S
C1374 C1376 1.478 . S
C1375 H1369 0.930 . S
C1375 C1371 1.400 . S
C1375 C1374 1.385 . S
C1376 C1374 1.478 . S
C1376 C1378 1.381 . S
C1376 C1382 1.383 . S
C1377 C1373 1.495 . S
C1377 H1383 0.959 . S
C1377 H1384 0.961 . S
C1377 H1385 0.960 . S
C1378 C1376 1.381 . S
C1378 C1379 1.394 . S
C1378 H1386 0.930 . S
C1379 C1378 1.394 . S
C1379 C1380 1.383 . S
C1379 H1387 0.929 . S
C1380 C1379 1.383 . S
C1380 C1381 1.377 . S
C1381 H1365 0.930 . S
C1381 C1380 1.377 . S
C1381 C1382 1.379 . S
C1382 H1366 0.931 . S
C1382 C1376 1.383 . S
C1382 C1381 1.379 . S
H1383 C1377 0.959 . S
H1384 C1377 0.961 . S
H1385 C1377 0.960 . S
H1386 C1378 0.930 . S
H1387 C1379 0.929 . S
H1388 C1396 0.929 . S
H1389 C1398 0.930 . S
H1390 C1400 0.930 . S
H1391 C1403 0.929 . S
H1392 C1406 0.930 . S
H1393 C1408 0.960 . S
H1394 C1408 0.960 . S
H1395 C1408 0.960 . S
C1396 H1388 0.929 . S
C1396 C1397 1.377 . S
C1396 C1398 1.384 . S
C1397 C1396 1.377 . S
C1397 C1403 1.390 . S
C1398 H1389 0.930 . S
C1398 C1396 1.384 . S
C1398 C1399 1.372 . S
C1399 C1398 1.372 . S
C1399 C1400 1.400 . S
C1399 C1404 1.490 . S
C1400 H1390 0.930 . S
C1400 C1399 1.400 . S
C1400 C1403 1.386 . S
H1401 C1417 0.930 . S
H1402 C1418 0.931 . S
C1403 H1391 0.929 . S
C1403 C1397 1.390 . S
C1403 C1400 1.386 . S
C1404 C1399 1.490 . S
C1404 C1406 1.395 . S
C1404 C1407 1.403 . S
H1405 C1411 0.930 . S
C1406 H1392 0.930 . S
C1406 C1404 1.395 . S
C1406 C1409 1.403 . S
C1407 C1404 1.403 . S
C1407 C1408 1.524 . S
C1407 C1411 1.400 . S
C1408 H1393 0.960 . S
C1408 H1394 0.960 . S
C1408 H1395 0.960 . S
C1408 C1407 1.524 . S
C1409 C1406 1.403 . S
C1409 C1410 1.392 . S
C1409 C1413 1.495 . S
C1410 C1409 1.392 . S
C1410 C1411 1.385 . S
C1410 C1412 1.478 . S
C1411 H1405 0.930 . S
C1411 C1407 1.400 . S
C1411 C1410 1.385 . S
C1412 C1410 1.478 . S
C1412 C1414 1.381 . S
C1412 C1418 1.383 . S
C1413 C1409 1.495 . S
C1413 H1419 0.959 . S
C1413 H1420 0.961 . S
C1413 H1421 0.960 . S
C1414 C1412 1.381 . S
C1414 C1415 1.394 . S
C1414 H1422 0.930 . S
C1415 C1414 1.394 . S
C1415 C1416 1.383 . S
C1415 H1423 0.929 . S
C1416 C1415 1.383 . S
C1416 C1417 1.377 . S
C1417 H1401 0.930 . S
C1417 C1416 1.377 . S
C1417 C1418 1.379 . S
C1418 H1402 0.931 . S
C1418 C1412 1.383 . S
C1418 C1417 1.379 . S
H1419 C1413 0.959 . S
H1420 C1413 0.961 . S
H1421 C1413 0.960 . S
H1422 C1414 0.930 . S
H1423 C1415 0.929 . S
H1424 C1432 0.929 . S
H1425 C1434 0.930 . S
H1426 C1436 0.930 . S
H1427 C1439 0.929 . S
H1428 C1442 0.930 . S
H1429 C1444 0.960 . S
H1430 C1444 0.960 . S
H1431 C1444 0.960 . S
C1432 H1424 0.929 . S
C1432 C1433 1.377 . S
C1432 C1434 1.384 . S
C1433 C1432 1.377 . S
C1433 C1439 1.390 . S
C1434 H1425 0.930 . S
C1434 C1432 1.384 . S
C1434 C1435 1.372 . S
C1435 C1434 1.372 . S
C1435 C1436 1.400 . S
C1435 C1440 1.490 . S
C1436 H1426 0.930 . S
C1436 C1435 1.400 . S
C1436 C1439 1.386 . S
H1437 C1453 0.930 . S
H1438 C1454 0.931 . S
C1439 H1427 0.929 . S
C1439 C1433 1.390 . S
C1439 C1436 1.386 . S
C1440 C1435 1.490 . S
C1440 C1442 1.395 . S
C1440 C1443 1.403 . S
H1441 C1447 0.930 . S
C1442 H1428 0.930 . S
C1442 C1440 1.395 . S
C1442 C1445 1.403 . S
C1443 C1440 1.403 . S
C1443 C1444 1.524 . S
C1443 C1447 1.400 . S
C1444 H1429 0.960 . S
C1444 H1430 0.960 . S
C1444 H1431 0.960 . S
C1444 C1443 1.524 . S
C1445 C1442 1.403 . S
C1445 C1446 1.392 . S
C1445 C1449 1.495 . S
C1446 C1445 1.392 . S
C1446 C1447 1.385 . S
C1446 C1448 1.478 . S
C1447 H1441 0.930 . S
C1447 C1443 1.400 . S
C1447 C1446 1.385 . S
C1448 C1446 1.478 . S
C1448 C1450 1.381 . S
C1448 C1454 1.383 . S
C1449 C1445 1.495 . S
C1449 H1455 0.959 . S
C1449 H1456 0.961 . S
C1449 H1457 0.960 . S
C1450 C1448 1.381 . S
C1450 C1451 1.394 . S
C1450 H1458 0.930 . S
C1451 C1450 1.394 . S
C1451 C1452 1.383 . S
C1451 H1459 0.929 . S
C1452 C1451 1.383 . S
C1452 C1453 1.377 . S
C1453 H1437 0.930 . S
C1453 C1452 1.377 . S
C1453 C1454 1.379 . S
C1454 H1438 0.931 . S
C1454 C1448 1.383 . S
C1454 C1453 1.379 . S
H1455 C1449 0.959 . S
H1456 C1449 0.961 . S
H1457 C1449 0.960 . S
H1458 C1450 0.930 . S
H1459 C1451 0.929 . S
H1460 C1468 0.929 . S
H1461 C1470 0.930 . S
H1462 C1472 0.930 . S
H1463 C1475 0.929 . S
H1464 C1478 0.930 . S
H1465 C1480 0.960 . S
H1466 C1480 0.960 . S
H1467 C1480 0.960 . S
C1468 H1460 0.929 . S
C1468 C1469 1.377 . S
C1468 C1470 1.384 . S
C1469 C1468 1.377 . S
C1469 C1475 1.390 . S
C1470 H1461 0.930 . S
C1470 C1468 1.384 . S
C1470 C1471 1.372 . S
C1471 C1470 1.372 . S
C1471 C1472 1.400 . S
C1471 C1476 1.490 . S
C1472 H1462 0.930 . S
C1472 C1471 1.400 . S
C1472 C1475 1.386 . S
H1473 C1489 0.930 . S
H1474 C1490 0.931 . S
C1475 H1463 0.929 . S
C1475 C1469 1.390 . S
C1475 C1472 1.386 . S
C1476 C1471 1.490 . S
C1476 C1478 1.395 . S
C1476 C1479 1.403 . S
H1477 C1483 0.930 . S
C1478 H1464 0.930 . S
C1478 C1476 1.395 . S
C1478 C1481 1.403 . S
C1479 C1476 1.403 . S
C1479 C1480 1.524 . S
C1479 C1483 1.400 . S
C1480 H1465 0.960 . S
C1480 H1466 0.960 . S
C1480 H1467 0.960 . S
C1480 C1479 1.524 . S
C1481 C1478 1.403 . S
C1481 C1482 1.392 . S
C1481 C1485 1.495 . S
C1482 C1481 1.392 . S
C1482 C1483 1.385 . S
C1482 C1484 1.478 . S
C1483 H1477 0.930 . S
C1483 C1479 1.400 . S
C1483 C1482 1.385 . S
C1484 C1482 1.478 . S
C1484 C1486 1.381 . S
C1484 C1490 1.383 . S
C1485 C1481 1.495 . S
C1485 H1491 0.959 . S
C1485 H1492 0.961 . S
C1485 H1493 0.960 . S
C1486 C1484 1.381 . S
C1486 C1487 1.394 . S
C1486 H1494 0.930 . S
C1487 C1486 1.394 . S
C1487 C1488 1.383 . S
C1487 H1495 0.929 . S
C1488 C1487 1.383 . S
C1488 C1489 1.377 . S
C1489 H1473 0.930 . S
C1489 C1488 1.377 . S
C1489 C1490 1.379 . S
C1490 H1474 0.931 . S
C1490 C1484 1.383 . S
C1490 C1489 1.379 . S
H1491 C1485 0.959 . S
H1492 C1485 0.961 . S
H1493 C1485 0.960 . S
H1494 C1486 0.930 . S
H1495 C1487 0.929 . S
H1496 C1504 0.929 . S
H1497 C1506 0.930 . S
H1498 C1508 0.930 . S
H1499 C1511 0.929 . S
H1500 C1514 0.930 . S
H1501 C1516 0.960 . S
H1502 C1516 0.960 . S
H1503 C1516 0.960 . S
C1504 H1496 0.929 . S
C1504 C1505 1.377 . S
C1504 C1506 1.384 . S
C1505 C1504 1.377 . S
C1505 C1511 1.390 . S
C1506 H1497 0.930 . S
C1506 C1504 1.384 . S
C1506 C1507 1.372 . S
C1507 C1506 1.372 . S
C1507 C1508 1.400 . S
C1507 C1512 1.490 . S
C1508 H1498 0.930 . S
C1508 C1507 1.400 . S
C1508 C1511 1.386 . S
H1509 C1525 0.930 . S
H1510 C1526 0.931 . S
C1511 H1499 0.929 . S
C1511 C1505 1.390 . S
C1511 C1508 1.386 . S
C1512 C1507 1.490 . S
C1512 C1514 1.395 . S
C1512 C1515 1.403 . S
H1513 C1519 0.930 . S
C1514 H1500 0.930 . S
C1514 C1512 1.395 . S
C1514 C1517 1.403 . S
C1515 C1512 1.403 . S
C1515 C1516 1.524 . S
C1515 C1519 1.400 . S
C1516 H1501 0.960 . S
C1516 H1502 0.960 . S
C1516 H1503 0.960 . S
C1516 C1515 1.524 . S
C1517 C1514 1.403 . S
C1517 C1518 1.392 . S
C1517 C1521 1.495 . S
C1518 C1517 1.392 . S
C1518 C1519 1.385 . S
C1518 C1520 1.478 . S
C1519 H1513 0.930 . S
C1519 C1515 1.400 . S
C1519 C1518 1.385 . S
C1520 C1518 1.478 . S
C1520 C1522 1.381 . S
C1520 C1526 1.383 . S
C1521 C1517 1.495 . S
C1521 H1527 0.959 . S
C1521 H1528 0.961 . S
C1521 H1529 0.960 . S
C1522 C1520 1.381 . S
C1522 C1523 1.394 . S
C1522 H1530 0.930 . S
C1523 C1522 1.394 . S
C1523 C1524 1.383 . S
C1523 H1531 0.929 . S
C1524 C1523 1.383 . S
C1524 C1525 1.377 . S
C1525 H1509 0.930 . S
C1525 C1524 1.377 . S
C1525 C1526 1.379 . S
C1526 H1510 0.931 . S
C1526 C1520 1.383 . S
C1526 C1525 1.379 . S
H1527 C1521 0.959 . S
H1528 C1521 0.961 . S
H1529 C1521 0.960 . S
H1530 C1522 0.930 . S
H1531 C1523 0.929 . S
H1532 C1540 0.929 . S
H1533 C1542 0.930 . S
H1534 C1544 0.930 . S
H1535 C1547 0.929 . S
H1536 C1550 0.930 . S
H1537 C1552 0.960 . S
H1538 C1552 0.960 . S
H1539 C1552 0.960 . S
C1540 H1532 0.929 . S
C1540 C1541 1.377 . S
C1540 C1542 1.384 . S
C1541 C1540 1.377 . S
C1541 C1547 1.390 . S
C1542 H1533 0.930 . S
C1542 C1540 1.384 . S
C1542 C1543 1.372 . S
C1543 C1542 1.372 . S
C1543 C1544 1.400 . S
C1543 C1548 1.490 . S
C1544 H1534 0.930 . S
C1544 C1543 1.400 . S
C1544 C1547 1.386 . S
H1545 C1561 0.930 . S
H1546 C1562 0.931 . S
C1547 H1535 0.929 . S
C1547 C1541 1.390 . S
C1547 C1544 1.386 . S
C1548 C1543 1.490 . S
C1548 C1550 1.395 . S
C1548 C1551 1.403 . S
H1549 C1555 0.930 . S
C1550 H1536 0.930 . S
C1550 C1548 1.395 . S
C1550 C1553 1.403 . S
C1551 C1548 1.403 . S
C1551 C1552 1.524 . S
C1551 C1555 1.400 . S
C1552 H1537 0.960 . S
C1552 H1538 0.960 . S
C1552 H1539 0.960 . S
C1552 C1551 1.524 . S
C1553 C1550 1.403 . S
C1553 C1554 1.392 . S
C1553 C1557 1.495 . S
C1554 C1553 1.392 . S
C1554 C1555 1.385 . S
C1554 C1556 1.478 . S
C1555 H1549 0.930 . S
C1555 C1551 1.400 . S
C1555 C1554 1.385 . S
C1556 C1554 1.478 . S
C1556 C1558 1.381 . S
C1556 C1562 1.383 . S
C1557 C1553 1.495 . S
C1557 H1563 0.959 . S
C1557 H1564 0.961 . S
C1557 H1565 0.960 . S
C1558 C1556 1.381 . S
C1558 C1559 1.394 . S
C1558 H1566 0.930 . S
C1559 C1558 1.394 . S
C1559 C1560 1.383 . S
C1559 H1567 0.929 . S
C1560 C1559 1.383 . S
C1560 C1561 1.377 . S
C1561 H1545 0.930 . S
C1561 C1560 1.377 . S
C1561 C1562 1.379 . S
C1562 H1546 0.931 . S
C1562 C1556 1.383 . S
C1562 C1561 1.379 . S
H1563 C1557 0.959 . S
H1564 C1557 0.961 . S
H1565 C1557 0.960 . S
H1566 C1558 0.930 . S
H1567 C1559 0.929 . S
H1568 C1576 0.929 . S
H1569 C1578 0.930 . S
H1570 C1580 0.930 . S
H1571 C1583 0.929 . S
H1572 C1586 0.930 . S
H1573 C1588 0.960 . S
H1574 C1588 0.960 . S
H1575 C1588 0.960 . S
C1576 H1568 0.929 . S
C1576 C1577 1.377 . S
C1576 C1578 1.384 . S
C1577 C1576 1.377 . S
C1577 C1583 1.390 . S
C1578 H1569 0.930 . S
C1578 C1576 1.384 . S
C1578 C1579 1.372 . S
C1579 C1578 1.372 . S
C1579 C1580 1.400 . S
C1579 C1584 1.490 . S
C1580 H1570 0.930 . S
C1580 C1579 1.400 . S
C1580 C1583 1.386 . S
H1581 C1597 0.930 . S
H1582 C1598 0.931 . S
C1583 H1571 0.929 . S
C1583 C1577 1.390 . S
C1583 C1580 1.386 . S
C1584 C1579 1.490 . S
C1584 C1586 1.395 . S
C1584 C1587 1.403 . S
H1585 C1591 0.930 . S
C1586 H1572 0.930 . S
C1586 C1584 1.395 . S
C1586 C1589 1.403 . S
C1587 C1584 1.403 . S
C1587 C1588 1.524 . S
C1587 C1591 1.400 . S
C1588 H1573 0.960 . S
C1588 H1574 0.960 . S
C1588 H1575 0.960 . S
C1588 C1587 1.524 . S
C1589 C1586 1.403 . S
C1589 C1590 1.392 . S
C1589 C1593 1.495 . S
C1590 C1589 1.392 . S
C1590 C1591 1.385 . S
C1590 C1592 1.478 . S
C1591 H1585 0.930 . S
C1591 C1587 1.400 . S
C1591 C1590 1.385 . S
C1592 C1590 1.478 . S
C1592 C1594 1.381 . S
C1592 C1598 1.383 . S
C1593 C1589 1.495 . S
C1593 H1599 0.959 . S
C1593 H1600 0.961 . S
C1593 H1601 0.960 . S
C1594 C1592 1.381 . S
C1594 C1595 1.394 . S
C1594 H1602 0.930 . S
C1595 C1594 1.394 . S
C1595 C1596 1.383 . S
C1595 H1603 0.929 . S
C1596 C1595 1.383 . S
C1596 C1597 1.377 . S
C1597 H1581 0.930 . S
C1597 C1596 1.377 . S
C1597 C1598 1.379 . S
C1598 H1582 0.931 . S
C1598 C1592 1.383 . S
C1598 C1597 1.379 . S
H1599 C1593 0.959 . S
H1600 C1593 0.961 . S
H1601 C1593 0.960 . S
H1602 C1594 0.930 . S
H1603 C1595 0.929 . S
H1604 C1612 0.929 . S
H1605 C1614 0.930 . S
H1606 C1616 0.930 . S
H1607 C1619 0.929 . S
H1608 C1622 0.930 . S
H1609 C1624 0.960 . S
H1610 C1624 0.960 . S
H1611 C1624 0.960 . S
C1612 H1604 0.929 . S
C1612 C1613 1.377 . S
C1612 C1614 1.384 . S
C1613 C1612 1.377 . S
C1613 C1619 1.390 . S
C1614 H1605 0.930 . S
C1614 C1612 1.384 . S
C1614 C1615 1.372 . S
C1615 C1614 1.372 . S
C1615 C1616 1.400 . S
C1615 C1620 1.490 . S
C1616 H1606 0.930 . S
C1616 C1615 1.400 . S
C1616 C1619 1.386 . S
H1617 C1633 0.930 . S
H1618 C1634 0.931 . S
C1619 H1607 0.929 . S
C1619 C1613 1.390 . S
C1619 C1616 1.386 . S
C1620 C1615 1.490 . S
C1620 C1622 1.395 . S
C1620 C1623 1.403 . S
H1621 C1627 0.930 . S
C1622 H1608 0.930 . S
C1622 C1620 1.395 . S
C1622 C1625 1.403 . S
C1623 C1620 1.403 . S
C1623 C1624 1.524 . S
C1623 C1627 1.400 . S
C1624 H1609 0.960 . S
C1624 H1610 0.960 . S
C1624 H1611 0.960 . S
C1624 C1623 1.524 . S
C1625 C1622 1.403 . S
C1625 C1626 1.392 . S
C1625 C1629 1.495 . S
C1626 C1625 1.392 . S
C1626 C1627 1.385 . S
C1626 C1628 1.478 . S
C1627 H1621 0.930 . S
C1627 C1623 1.400 . S
C1627 C1626 1.385 . S
C1628 C1626 1.478 . S
C1628 C1630 1.381 . S
C1628 C1634 1.383 . S
C1629 C1625 1.495 . S
C1629 H1635 0.959 . S
C1629 H1636 0.961 . S
C1629 H1637 0.960 . S
C1630 C1628 1.381 . S
C1630 C1631 1.394 . S
C1630 H1638 0.930 . S
C1631 C1630 1.394 . S
C1631 C1632 1.383 . S
C1631 H1639 0.929 . S
C1632 C1631 1.383 . S
C1632 C1633 1.377 . S
C1633 H1617 0.930 . S
C1633 C1632 1.377 . S
C1633 C1634 1.379 . S
C1634 H1618 0.931 . S
C1634 C1628 1.383 . S
C1634 C1633 1.379 . S
H1635 C1629 0.959 . S
H1636 C1629 0.961 . S
H1637 C1629 0.960 . S
H1638 C1630 0.930 . S
H1639 C1631 0.929 . S
H1640 C1648 0.929 . S
H1641 C1650 0.930 . S
H1642 C1652 0.930 . S
H1643 C1655 0.929 . S
H1644 C1658 0.930 . S
H1645 C1660 0.960 . S
H1646 C1660 0.960 . S
H1647 C1660 0.960 . S
C1648 H1640 0.929 . S
C1648 C1649 1.377 . S
C1648 C1650 1.384 . S
C1649 C1648 1.377 . S
C1649 C1655 1.390 . S
C1650 H1641 0.930 . S
C1650 C1648 1.384 . S
C1650 C1651 1.372 . S
C1651 C1650 1.372 . S
C1651 C1652 1.400 . S
C1651 C1656 1.490 . S
C1652 H1642 0.930 . S
C1652 C1651 1.400 . S
C1652 C1655 1.386 . S
H1653 C1669 0.930 . S
H1654 C1670 0.931 . S
C1655 H1643 0.929 . S
C1655 C1649 1.390 . S
C1655 C1652 1.386 . S
C1656 C1651 1.490 . S
C1656 C1658 1.395 . S
C1656 C1659 1.403 . S
H1657 C1663 0.930 . S
C1658 H1644 0.930 . S
C1658 C1656 1.395 . S
C1658 C1661 1.403 . S
C1659 C1656 1.403 . S
C1659 C1660 1.524 . S
C1659 C1663 1.400 . S
C1660 H1645 0.960 . S
C1660 H1646 0.960 . S
C1660 H1647 0.960 . S
C1660 C1659 1.524 . S
C1661 C1658 1.403 . S
C1661 C1662 1.392 . S
C1661 C1665 1.495 . S
C1662 C1661 1.392 . S
C1662 C1663 1.385 . S
C1662 C1664 1.478 . S
C1663 H1657 0.930 . S
C1663 C1659 1.400 . S
C1663 C1662 1.385 . S
C1664 C1662 1.478 . S
C1664 C1666 1.381 . S
C1664 C1670 1.383 . S
C1665 C1661 1.495 . S
C1665 H1671 0.959 . S
C1665 H1672 0.961 . S
C1665 H1673 0.960 . S
C1666 C1664 1.381 . S
C1666 C1667 1.394 . S
C1666 H1674 0.930 . S
C1667 C1666 1.394 . S
C1667 C1668 1.383 . S
C1667 H1675 0.929 . S
C1668 C1667 1.383 . S
C1668 C1669 1.377 . S
C1669 H1653 0.930 . S
C1669 C1668 1.377 . S
C1669 C1670 1.379 . S
C1670 H1654 0.931 . S
C1670 C1664 1.383 . S
C1670 C1669 1.379 . S
H1671 C1665 0.959 . S
H1672 C1665 0.961 . S
H1673 C1665 0.960 . S
H1674 C1666 0.930 . S
H1675 C1667 0.929 . S
H1676 C1684 0.929 . S
H1677 C1686 0.930 . S
H1678 C1688 0.930 . S
H1679 C1691 0.929 . S
H1680 C1694 0.930 . S
H1681 C1696 0.960 . S
H1682 C1696 0.960 . S
H1683 C1696 0.960 . S
C1684 H1676 0.929 . S
C1684 C1685 1.377 . S
C1684 C1686 1.384 . S
C1685 C1684 1.377 . S
C1685 C1691 1.390 . S
C1686 H1677 0.930 . S
C1686 C1684 1.384 . S
C1686 C1687 1.372 . S
C1687 C1686 1.372 . S
C1687 C1688 1.400 . S
C1687 C1692 1.490 . S
C1688 H1678 0.930 . S
C1688 C1687 1.400 . S
C1688 C1691 1.386 . S
H1689 C1705 0.930 . S
H1690 C1706 0.931 . S
C1691 H1679 0.929 . S
C1691 C1685 1.390 . S
C1691 C1688 1.386 . S
C1692 C1687 1.490 . S
C1692 C1694 1.395 . S
C1692 C1695 1.403 . S
H1693 C1699 0.930 . S
C1694 H1680 0.930 . S
C1694 C1692 1.395 . S
C1694 C1697 1.403 . S
C1695 C1692 1.403 . S
C1695 C1696 1.524 . S
C1695 C1699 1.400 . S
C1696 H1681 0.960 . S
C1696 H1682 0.960 . S
C1696 H1683 0.960 . S
C1696 C1695 1.524 . S
C1697 C1694 1.403 . S
C1697 C1698 1.392 . S
C1697 C1701 1.495 . S
C1698 C1697 1.392 . S
C1698 C1699 1.385 . S
C1698 C1700 1.478 . S
C1699 H1693 0.930 . S
C1699 C1695 1.400 . S
C1699 C1698 1.385 . S
C1700 C1698 1.478 . S
C1700 C1702 1.381 . S
C1700 C1706 1.383 . S
C1701 C1697 1.495 . S
C1701 H1707 0.959 . S
C1701 H1708 0.961 . S
C1701 H1709 0.960 . S
C1702 C1700 1.381 . S
C1702 C1703 1.394 . S
C1702 H1710 0.930 . S
C1703 C1702 1.394 . S
C1703 C1704 1.383 . S
C1703 H1711 0.929 . S
C1704 C1703 1.383 . S
C1704 C1705 1.377 . S
C1705 H1689 0.930 . S
C1705 C1704 1.377 . S
C1705 C1706 1.379 . S
C1706 H1690 0.931 . S
C1706 C1700 1.383 . S
C1706 C1705 1.379 . S
H1707 C1701 0.959 . S
H1708 C1701 0.961 . S
H1709 C1701 0.960 . S
H1710 C1702 0.930 . S
H1711 C1703 0.929 . S
H1712 C1720 0.929 . S
H1713 C1722 0.930 . S
H1714 C1724 0.930 . S
H1715 C1727 0.929 . S
H1716 C1730 0.930 . S
H1717 C1732 0.960 . S
H1718 C1732 0.960 . S
H1719 C1732 0.960 . S
C1720 H1712 0.929 . S
C1720 C1721 1.377 . S
C1720 C1722 1.384 . S
C1721 C1720 1.377 . S
C1721 C1727 1.390 . S
C1722 H1713 0.930 . S
C1722 C1720 1.384 . S
C1722 C1723 1.372 . S
C1723 C1722 1.372 . S
C1723 C1724 1.400 . S
C1723 C1728 1.490 . S
C1724 H1714 0.930 . S
C1724 C1723 1.400 . S
C1724 C1727 1.386 . S
H1725 C1741 0.930 . S
H1726 C1742 0.931 . S
C1727 H1715 0.929 . S
C1727 C1721 1.390 . S
C1727 C1724 1.386 . S
C1728 C1723 1.490 . S
C1728 C1730 1.395 . S
C1728 C1731 1.403 . S
H1729 C1735 0.930 . S
C1730 H1716 0.930 . S
C1730 C1728 1.395 . S
C1730 C1733 1.403 . S
C1731 C1728 1.403 . S
C1731 C1732 1.524 . S
C1731 C1735 1.400 . S
C1732 H1717 0.960 . S
C1732 H1718 0.960 . S
C1732 H1719 0.960 . S
C1732 C1731 1.524 . S
C1733 C1730 1.403 . S
C1733 C1734 1.392 . S
C1733 C1737 1.495 . S
C1734 C1733 1.392 . S
C1734 C1735 1.385 . S
C1734 C1736 1.478 . S
C1735 H1729 0.930 . S
C1735 C1731 1.400 . S
C1735 C1734 1.385 . S
C1736 C1734 1.478 . S
C1736 C1738 1.381 . S
C1736 C1742 1.383 . S
C1737 C1733 1.495 . S
C1737 H1743 0.959 . S
C1737 H1744 0.961 . S
C1737 H1745 0.960 . S
C1738 C1736 1.381 . S
C1738 C1739 1.394 . S
C1738 H1746 0.930 . S
C1739 C1738 1.394 . S
C1739 C1740 1.383 . S
C1739 H1747 0.929 . S
C1740 C1739 1.383 . S
C1740 C1741 1.377 . S
C1741 H1725 0.930 . S
C1741 C1740 1.377 . S
C1741 C1742 1.379 . S
C1742 H1726 0.931 . S
C1742 C1736 1.383 . S
C1742 C1741 1.379 . S
H1743 C1737 0.959 . S
H1744 C1737 0.961 . S
H1745 C1737 0.960 . S
H1746 C1738 0.930 . S
H1747 C1739 0.929 . S
H1748 C1756 0.929 . S
H1749 C1758 0.930 . S
H1750 C1760 0.930 . S
H1751 C1763 0.929 . S
H1752 C1766 0.930 . S
H1753 C1768 0.960 . S
H1754 C1768 0.960 . S
H1755 C1768 0.960 . S
C1756 H1748 0.929 . S
C1756 C1757 1.377 . S
C1756 C1758 1.384 . S
C1757 C1756 1.377 . S
C1757 C1763 1.390 . S
C1758 H1749 0.930 . S
C1758 C1756 1.384 . S
C1758 C1759 1.372 . S
C1759 C1758 1.372 . S
C1759 C1760 1.400 . S
C1759 C1764 1.490 . S
C1760 H1750 0.930 . S
C1760 C1759 1.400 . S
C1760 C1763 1.386 . S
H1761 C1777 0.930 . S
H1762 C1778 0.931 . S
C1763 H1751 0.929 . S
C1763 C1757 1.390 . S
C1763 C1760 1.386 . S
C1764 C1759 1.490 . S
C1764 C1766 1.395 . S
C1764 C1767 1.403 . S
H1765 C1771 0.930 . S
C1766 H1752 0.930 . S
C1766 C1764 1.395 . S
C1766 C1769 1.403 . S
C1767 C1764 1.403 . S
C1767 C1768 1.524 . S
C1767 C1771 1.400 . S
C1768 H1753 0.960 . S
C1768 H1754 0.960 . S
C1768 H1755 0.960 . S
C1768 C1767 1.524 . S
C1769 C1766 1.403 . S
C1769 C1770 1.392 . S
C1769 C1773 1.495 . S
C1770 C1769 1.392 . S
C1770 C1771 1.385 . S
C1770 C1772 1.478 . S
C1771 H1765 0.930 . S
C1771 C1767 1.400 . S
C1771 C1770 1.385 . S
C1772 C1770 1.478 . S
C1772 C1774 1.381 . S
C1772 C1778 1.383 . S
C1773 C1769 1.495 . S
C1773 H1779 0.959 . S
C1773 H1780 0.961 . S
C1773 H1781 0.960 . S
C1774 C1772 1.381 . S
C1774 C1775 1.394 . S
C1774 H1782 0.930 . S
C1775 C1774 1.394 . S
C1775 C1776 1.383 . S
C1775 H1783 0.929 . S
C1776 C1775 1.383 . S
C1776 C1777 1.377 . S
C1777 H1761 0.930 . S
C1777 C1776 1.377 . S
C1777 C1778 1.379 . S
C1778 H1762 0.931 . S
C1778 C1772 1.383 . S
C1778 C1777 1.379 . S
H1779 C1773 0.959 . S
H1780 C1773 0.961 . S
H1781 C1773 0.960 . S
H1782 C1774 0.930 . S
H1783 C1775 0.929 . S
H1784 C1792 0.929 . S
H1785 C1794 0.930 . S
H1786 C1796 0.930 . S
H1787 C1799 0.929 . S
H1788 C1802 0.930 . S
H1789 C1804 0.960 . S
H1790 C1804 0.960 . S
H1791 C1804 0.960 . S
C1792 H1784 0.929 . S
C1792 C1793 1.377 . S
C1792 C1794 1.384 . S
C1793 C1792 1.377 . S
C1793 C1799 1.390 . S
C1794 H1785 0.930 . S
C1794 C1792 1.384 . S
C1794 C1795 1.372 . S
C1795 C1794 1.372 . S
C1795 C1796 1.400 . S
C1795 C1800 1.490 . S
C1796 H1786 0.930 . S
C1796 C1795 1.400 . S
C1796 C1799 1.386 . S
H1797 C1813 0.930 . S
H1798 C1814 0.931 . S
C1799 H1787 0.929 . S
C1799 C1793 1.390 . S
C1799 C1796 1.386 . S
C1800 C1795 1.490 . S
C1800 C1802 1.395 . S
C1800 C1803 1.403 . S
H1801 C1807 0.930 . S
C1802 H1788 0.930 . S
C1802 C1800 1.395 . S
C1802 C1805 1.403 . S
C1803 C1800 1.403 . S
C1803 C1804 1.524 . S
C1803 C1807 1.400 . S
C1804 H1789 0.960 . S
C1804 H1790 0.960 . S
C1804 H1791 0.960 . S
C1804 C1803 1.524 . S
C1805 C1802 1.403 . S
C1805 C1806 1.392 . S
C1805 C1809 1.495 . S
C1806 C1805 1.392 . S
C1806 C1807 1.385 . S
C1806 C1808 1.478 . S
C1807 H1801 0.930 . S
C1807 C1803 1.400 . S
C1807 C1806 1.385 . S
C1808 C1806 1.478 . S
C1808 C1810 1.381 . S
C1808 C1814 1.383 . S
C1809 C1805 1.495 . S
C1809 H1815 0.959 . S
C1809 H1816 0.961 . S
C1809 H1817 0.960 . S
C1810 C1808 1.381 . S
C1810 C1811 1.394 . S
C1810 H1818 0.930 . S
C1811 C1810 1.394 . S
C1811 C1812 1.383 . S
C1811 H1819 0.929 . S
C1812 C1811 1.383 . S
C1812 C1813 1.377 . S
C1813 H1797 0.930 . S
C1813 C1812 1.377 . S
C1813 C1814 1.379 . S
C1814 H1798 0.931 . S
C1814 C1808 1.383 . S
C1814 C1813 1.379 . S
H1815 C1809 0.959 . S
H1816 C1809 0.961 . S
H1817 C1809 0.960 . S
H1818 C1810 0.930 . S
H1819 C1811 0.929 . S
H1820 C1828 0.929 . S
H1821 C1830 0.930 . S
H1822 C1832 0.930 . S
H1823 C1835 0.929 . S
H1824 C1838 0.930 . S
H1825 C1840 0.960 . S
H1826 C1840 0.960 . S
H1827 C1840 0.960 . S
C1828 H1820 0.929 . S
C1828 C1829 1.377 . S
C1828 C1830 1.384 . S
C1829 C1828 1.377 . S
C1829 C1835 1.390 . S
C1830 H1821 0.930 . S
C1830 C1828 1.384 . S
C1830 C1831 1.372 . S
C1831 C1830 1.372 . S
C1831 C1832 1.400 . S
C1831 C1836 1.490 . S
C1832 H1822 0.930 . S
C1832 C1831 1.400 . S
C1832 C1835 1.386 . S
H1833 C1849 0.930 . S
H1834 C1850 0.931 . S
C1835 H1823 0.929 . S
C1835 C1829 1.390 . S
C1835 C1832 1.386 . S
C1836 C1831 1.490 . S
C1836 C1838 1.395 . S
C1836 C1839 1.403 . S
H1837 C1843 0.930 . S
C1838 H1824 0.930 . S
C1838 C1836 1.395 . S
C1838 C1841 1.403 . S
C1839 C1836 1.403 . S
C1839 C1840 1.524 . S
C1839 C1843 1.400 . S
C1840 H1825 0.960 . S
C1840 H1826 0.960 . S
C1840 H1827 0.960 . S
C1840 C1839 1.524 . S
C1841 C1838 1.403 . S
C1841 C1842 1.392 . S
C1841 C1845 1.495 . S
C1842 C1841 1.392 . S
C1842 C1843 1.385 . S
C1842 C1844 1.478 . S
C1843 H1837 0.930 . S
C1843 C1839 1.400 . S
C1843 C1842 1.385 . S
C1844 C1842 1.478 . S
C1844 C1846 1.381 . S
C1844 C1850 1.383 . S
C1845 C1841 1.495 . S
C1845 H1851 0.959 . S
C1845 H1852 0.961 . S
C1845 H1853 0.960 . S
C1846 C1844 1.381 . S
C1846 C1847 1.394 . S
C1846 H1854 0.930 . S
C1847 C1846 1.394 . S
C1847 C1848 1.383 . S
C1847 H1855 0.929 . S
C1848 C1847 1.383 . S
C1848 C1849 1.377 . S
C1849 H1833 0.930 . S
C1849 C1848 1.377 . S
C1849 C1850 1.379 . S
C1850 H1834 0.931 . S
C1850 C1844 1.383 . S
C1850 C1849 1.379 . S
H1851 C1845 0.959 . S
H1852 C1845 0.961 . S
H1853 C1845 0.960 . S
H1854 C1846 0.930 . S
H1855 C1847 0.929 . S
H1856 C1864 0.929 . S
H1857 C1866 0.930 . S
H1858 C1868 0.930 . S
H1859 C1871 0.929 . S
H1860 C1874 0.930 . S
H1861 C1876 0.960 . S
H1862 C1876 0.960 . S
H1863 C1876 0.960 . S
C1864 H1856 0.929 . S
C1864 C1865 1.377 . S
C1864 C1866 1.384 . S
C1865 C1864 1.377 . S
C1865 C1871 1.390 . S
C1866 H1857 0.930 . S
C1866 C1864 1.384 . S
C1866 C1867 1.372 . S
C1867 C1866 1.372 . S
C1867 C1868 1.400 . S
C1867 C1872 1.490 . S
C1868 H1858 0.930 . S
C1868 C1867 1.400 . S
C1868 C1871 1.386 . S
H1869 C1885 0.930 . S
H1870 C1886 0.931 . S
C1871 H1859 0.929 . S
C1871 C1865 1.390 . S
C1871 C1868 1.386 . S
C1872 C1867 1.490 . S
C1872 C1874 1.395 . S
C1872 C1875 1.403 . S
H1873 C1879 0.930 . S
C1874 H1860 0.930 . S
C1874 C1872 1.395 . S
C1874 C1877 1.403 1_554 S
C1875 C1872 1.403 . S
C1875 C1876 1.524 . S
C1875 C1879 1.400 1_554 S
C1876 H1861 0.960 . S
C1876 H1862 0.960 . S
C1876 H1863 0.960 . S
C1876 C1875 1.524 . S
C1877 C1874 1.403 1_556 S
C1877 C1878 1.392 . S
C1877 C1881 1.495 . S
C1878 C1877 1.392 . S
C1878 C1879 1.385 . S
C1878 C1880 1.478 . S
C1879 H1873 0.930 . S
C1879 C1875 1.400 1_556 S
C1879 C1878 1.385 . S
C1880 C1878 1.478 . S
C1880 C1882 1.381 . S
C1880 C1886 1.383 . S
C1881 C1877 1.495 . S
C1881 H1887 0.959 . S
C1881 H1888 0.961 . S
C1881 H1889 0.960 . S
C1882 C1880 1.381 . S
C1882 C1883 1.394 . S
C1882 H1890 0.930 . S
C1883 C1882 1.394 . S
C1883 C1884 1.383 . S
C1883 H1891 0.929 . S
C1884 C1883 1.383 . S
C1884 C1885 1.377 . S
C1885 H1869 0.930 . S
C1885 C1884 1.377 . S
C1885 C1886 1.379 . S
C1886 H1870 0.931 . S
C1886 C1880 1.383 . S
C1886 C1885 1.379 . S
H1887 C1881 0.959 . S
H1888 C1881 0.961 . S
H1889 C1881 0.960 . S
H1890 C1882 0.930 . S
H1891 C1883 0.929 . S
H1892 C1900 0.929 . S
H1893 C1902 0.930 . S
H1894 C1904 0.930 . S
H1895 C1907 0.929 . S
H1896 C1910 0.930 . S
H1897 C1912 0.960 1_554 S
H1898 C1912 0.960 . S
H1899 C1912 0.960 . S
C1900 H1892 0.929 . S
C1900 C1901 1.377 . S
C1900 C1902 1.384 . S
C1901 C1900 1.377 . S
C1901 C1907 1.390 . S
C1902 H1893 0.930 . S
C1902 C1900 1.384 . S
C1902 C1903 1.372 . S
C1903 C1902 1.372 . S
C1903 C1904 1.400 . S
C1903 C1908 1.490 . S
C1904 H1894 0.930 . S
C1904 C1903 1.400 . S
C1904 C1907 1.386 . S
H1905 C1921 0.930 . S
H1906 C1922 0.931 . S
C1907 H1895 0.929 . S
C1907 C1901 1.390 . S
C1907 C1904 1.386 . S
C1908 C1903 1.490 . S
C1908 C1910 1.395 . S
C1908 C1911 1.403 1_556 S
H1909 C1915 0.930 . S
C1910 H1896 0.930 . S
C1910 C1908 1.395 . S
C1910 C1913 1.403 1_556 S
C1911 C1908 1.403 1_554 S
C1911 C1912 1.524 1_554 S
C1911 C1915 1.400 . S
C1912 H1897 0.960 1_556 S
C1912 H1898 0.960 . S
C1912 H1899 0.960 . S
C1912 C1911 1.524 1_556 S
C1913 C1910 1.403 1_554 S
C1913 C1914 1.392 . S
C1913 C1917 1.495 . S
C1914 C1913 1.392 . S
C1914 C1915 1.385 . S
C1914 C1916 1.478 . S
C1915 H1909 0.930 . S
C1915 C1911 1.400 . S
C1915 C1914 1.385 . S
C1916 C1914 1.478 . S
C1916 C1918 1.381 . S
C1916 C1922 1.383 . S
C1917 C1913 1.495 . S
C1917 H1923 0.959 . S
C1917 H1924 0.961 . S
C1917 H1925 0.960 . S
C1918 C1916 1.381 . S
C1918 C1919 1.394 . S
C1918 H1926 0.930 . S
C1919 C1918 1.394 . S
C1919 C1920 1.383 . S
C1919 H1927 0.929 . S
C1920 C1919 1.383 . S
C1920 C1921 1.377 . S
C1921 H1905 0.930 . S
C1921 C1920 1.377 . S
C1921 C1922 1.379 . S
C1922 H1906 0.931 . S
C1922 C1916 1.383 . S
C1922 C1921 1.379 . S
H1923 C1917 0.959 . S
H1924 C1917 0.961 . S
H1925 C1917 0.960 . S
H1926 C1918 0.930 . S
H1927 C1919 0.929 . S
H1928 C1936 0.929 . S
H1929 C1938 0.930 . S
H1930 C1940 0.930 . S
H1931 C1943 0.929 . S
H1932 C1946 0.930 . S
H1933 C1948 0.960 . S
H1934 C1948 0.960 . S
H1935 C1948 0.960 . S
C1936 H1928 0.929 . S
C1936 C1937 1.377 . S
C1936 C1938 1.384 . S
C1937 C1936 1.377 . S
C1937 C1943 1.390 . S
C1938 H1929 0.930 . S
C1938 C1936 1.384 . S
C1938 C1939 1.372 . S
C1939 C1938 1.372 . S
C1939 C1940 1.400 . S
C1939 C1944 1.490 . S
C1940 H1930 0.930 . S
C1940 C1939 1.400 . S
C1940 C1943 1.386 . S
H1941 C1957 0.930 . S
H1942 C1958 0.931 . S
C1943 H1931 0.929 . S
C1943 C1937 1.390 . S
C1943 C1940 1.386 . S
C1944 C1939 1.490 . S
C1944 C1946 1.395 . S
C1944 C1947 1.403 . S
H1945 C1951 0.930 . S
C1946 H1932 0.930 . S
C1946 C1944 1.395 . S
C1946 C1949 1.403 1_554 S
C1947 C1944 1.403 . S
C1947 C1948 1.524 . S
C1947 C1951 1.400 1_554 S
C1948 H1933 0.960 . S
C1948 H1934 0.960 . S
C1948 H1935 0.960 . S
C1948 C1947 1.524 . S
C1949 C1946 1.403 1_556 S
C1949 C1950 1.392 . S
C1949 C1953 1.495 . S
C1950 C1949 1.392 . S
C1950 C1951 1.385 . S
C1950 C1952 1.478 . S
C1951 H1945 0.930 . S
C1951 C1947 1.400 1_556 S
C1951 C1950 1.385 . S
C1952 C1950 1.478 . S
C1952 C1954 1.381 . S
C1952 C1958 1.383 . S
C1953 C1949 1.495 . S
C1953 H1959 0.959 . S
C1953 H1960 0.961 . S
C1953 H1961 0.960 . S
C1954 C1952 1.381 . S
C1954 C1955 1.394 . S
C1954 H1962 0.930 . S
C1955 C1954 1.394 . S
C1955 C1956 1.383 . S
C1955 H1963 0.929 . S
C1956 C1955 1.383 . S
C1956 C1957 1.377 . S
C1957 H1941 0.930 . S
C1957 C1956 1.377 . S
C1957 C1958 1.379 . S
C1958 H1942 0.931 . S
C1958 C1952 1.383 . S
C1958 C1957 1.379 . S
H1959 C1953 0.959 . S
H1960 C1953 0.961 . S
H1961 C1953 0.960 . S
H1962 C1954 0.930 . S
H1963 C1955 0.929 . S
H1964 C1972 0.929 . S
H1965 C1974 0.930 . S
H1966 C1976 0.930 . S
H1967 C1979 0.929 . S
H1968 C1982 0.930 . S
H1969 C1984 0.960 . S
H1970 C1984 0.960 . S
H1971 C1984 0.960 . S
C1972 H1964 0.929 . S
C1972 C1973 1.377 . S
C1972 C1974 1.384 . S
C1973 C1972 1.377 . S
C1973 C1979 1.390 . S
C1974 H1965 0.930 . S
C1974 C1972 1.384 . S
C1974 C1975 1.372 . S
C1975 C1974 1.372 . S
C1975 C1976 1.400 . S
C1975 C1980 1.490 . S
C1976 H1966 0.930 . S
C1976 C1975 1.400 . S
C1976 C1979 1.386 . S
H1977 C1993 0.930 . S
H1978 C1994 0.931 . S
C1979 H1967 0.929 . S
C1979 C1973 1.390 . S
C1979 C1976 1.386 . S
C1980 C1975 1.490 . S
C1980 C1982 1.395 . S
C1980 C1983 1.403 . S
H1981 C1987 0.942 . S
C1982 H1968 0.930 . S
C1982 C1980 1.395 . S
C1982 C1985 1.406 1_554 S
C1983 C1980 1.403 . S
C1983 C1984 1.524 . S
C1983 C1987 1.378 1_554 S
C1984 H1969 0.960 . S
C1984 H1970 0.960 . S
C1984 H1971 0.960 . S
C1984 C1983 1.524 . S
C1985 C1982 1.406 1_556 S
C1985 C1986 1.391 . S
C1985 C1989 1.494 . S
C1986 C1985 1.391 . S
C1986 C1987 1.396 . S
C1986 C1988 1.478 . S
C1987 H1981 0.942 . S
C1987 C1983 1.378 1_556 S
C1987 C1986 1.396 . S
C1988 C1986 1.478 . S
C1988 C1990 1.381 . S
C1988 C1994 1.383 . S
C1989 C1985 1.494 . S
C1989 H1995 0.970 . S
C1989 H1996 0.961 . S
C1989 H1997 0.960 . S
C1990 C1988 1.381 . S
C1990 C1991 1.394 . S
C1990 H1998 0.930 . S
C1991 C1990 1.394 . S
C1991 C1992 1.383 . S
C1991 H1999 0.929 . S
C1992 C1991 1.383 . S
C1992 C1993 1.377 . S
C1993 H1977 0.930 . S
C1993 C1992 1.377 . S
C1993 C1994 1.379 . S
C1994 H1978 0.931 . S
C1994 C1988 1.383 . S
C1994 C1993 1.379 . S
H1995 C1989 0.970 . S
H1996 C1989 0.961 . S
H1997 C1989 0.960 . S
H1998 C1990 0.930 . S
H1999 C1991 0.929 . S
H2000 C2008 0.929 . S
H2001 C2010 0.930 . S
H2002 C2012 0.930 . S
H2003 C2015 0.929 . S
H2004 C2018 0.930 . S
H2005 C2020 0.960 . S
H2006 C2020 0.960 . S
H2007 C2020 0.960 . S
C2008 H2000 0.929 . S
C2008 C2009 1.377 . S
C2008 C2010 1.384 . S
C2009 C2008 1.377 . S
C2009 C2015 1.390 . S
C2010 H2001 0.930 . S
C2010 C2008 1.384 . S
C2010 C2011 1.372 . S
C2011 C2010 1.372 . S
C2011 C2012 1.400 . S
C2011 C2016 1.490 . S
C2012 H2002 0.930 . S
C2012 C2011 1.400 . S
C2012 C2015 1.386 . S
H2013 C2029 0.930 . S
H2014 C2030 0.931 . S
C2015 H2003 0.929 . S
C2015 C2009 1.390 . S
C2015 C2012 1.386 . S
C2016 C2011 1.490 . S
C2016 C2018 1.395 . S
C2016 C2019 1.403 . S
H2017 C2023 0.930 . S
C2018 H2004 0.930 . S
C2018 C2016 1.395 . S
C2018 C2021 1.403 1_554 S
C2019 C2016 1.403 . S
C2019 C2020 1.524 . S
C2019 C2023 1.400 1_554 S
C2020 H2005 0.960 . S
C2020 H2006 0.960 . S
C2020 H2007 0.960 . S
C2020 C2019 1.524 . S
C2021 C2018 1.403 1_556 S
C2021 C2022 1.392 . S
C2021 C2025 1.495 . S
C2022 C2021 1.392 . S
C2022 C2023 1.385 . S
C2022 C2024 1.478 . S
C2023 H2017 0.930 . S
C2023 C2019 1.400 1_556 S
C2023 C2022 1.385 . S
C2024 C2022 1.478 . S
C2024 C2026 1.381 . S
C2024 C2030 1.383 . S
C2025 C2021 1.495 . S
C2025 H2031 0.959 . S
C2025 H2032 0.961 . S
C2025 H2033 0.960 . S
C2026 C2024 1.381 . S
C2026 C2027 1.394 . S
C2026 H2034 0.930 . S
C2027 C2026 1.394 . S
C2027 C2028 1.383 . S
C2027 H2035 0.929 . S
C2028 C2027 1.383 . S
C2028 C2029 1.377 . S
C2029 H2013 0.930 . S
C2029 C2028 1.377 . S
C2029 C2030 1.379 . S
C2030 H2014 0.931 . S
C2030 C2024 1.383 . S
C2030 C2029 1.379 . S
H2031 C2025 0.959 . S
H2032 C2025 0.961 . S
H2033 C2025 0.960 . S
H2034 C2026 0.930 . S
H2035 C2027 0.929 . S
H2036 C2044 0.929 . S
H2037 C2046 0.930 . S
H2038 C2048 0.930 . S
H2039 C2051 0.929 . S
H2040 C2054 0.931 1_554 S
H2041 C2056 0.960 1_556 S
H2042 C2056 0.960 . S
H2043 C2056 0.960 . S
C2044 H2036 0.929 . S
C2044 C2045 1.377 . S
C2044 C2046 1.384 . S
C2045 C2044 1.377 . S
C2045 C2051 1.390 . S
C2046 H2037 0.930 . S
C2046 C2044 1.384 . S
C2046 C2047 1.372 . S
C2047 C2046 1.372 . S
C2047 C2048 1.400 . S
C2047 C2052 1.490 . S
C2048 H2038 0.930 . S
C2048 C2047 1.400 . S
C2048 C2051 1.386 . S
H2049 C2065 0.930 . S
H2050 C2066 0.931 . S
C2051 H2039 0.929 . S
C2051 C2045 1.390 . S
C2051 C2048 1.386 . S
C2052 C2047 1.490 . S
C2052 C2054 1.396 1_554 S
C2052 C2055 1.403 1_554 S
H2053 C2059 0.930 . S
C2054 H2040 0.931 1_556 S
C2054 C2052 1.396 1_556 S
C2054 C2057 1.401 . S
C2055 C2052 1.403 1_556 S
C2055 C2056 1.524 1_556 S
C2055 C2059 1.400 . S
C2056 H2041 0.960 1_554 S
C2056 H2042 0.960 . S
C2056 H2043 0.960 . S
C2056 C2055 1.524 1_554 S
C2057 C2054 1.401 . S
C2057 C2058 1.392 . S
C2057 C2061 1.495 . S
C2058 C2057 1.392 . S
C2058 C2059 1.385 . S
C2058 C2060 1.478 . S
C2059 H2053 0.930 . S
C2059 C2055 1.400 . S
C2059 C2058 1.385 . S
C2060 C2058 1.478 . S
C2060 C2062 1.381 . S
C2060 C2066 1.383 . S
C2061 C2057 1.495 . S
C2061 H2067 0.959 . S
C2061 H2068 0.961 . S
C2061 H2069 0.960 . S
C2062 C2060 1.381 . S
C2062 C2063 1.394 . S
C2062 H2070 0.930 . S
C2063 C2062 1.394 . S
C2063 C2064 1.383 . S
C2063 H2071 0.929 . S
C2064 C2063 1.383 . S
C2064 C2065 1.377 . S
C2065 H2049 0.930 . S
C2065 C2064 1.377 . S
C2065 C2066 1.379 . S
C2066 H2050 0.931 . S
C2066 C2060 1.383 . S
C2066 C2065 1.379 . S
H2067 C2061 0.959 . S
H2068 C2061 0.961 . S
H2069 C2061 0.960 . S
H2070 C2062 0.930 . S
H2071 C2063 0.929 . S
H2072 C2080 0.929 . S
H2073 C2082 0.930 . S
H2074 C2084 0.930 . S
H2075 C2087 0.929 . S
H2076 C2090 0.930 . S
H2077 C2092 0.960 . S
H2078 C2092 0.960 . S
H2079 C2092 0.960 . S
C2080 H2072 0.929 . S
C2080 C2081 1.377 . S
C2080 C2082 1.384 . S
C2081 C2080 1.377 . S
C2081 C2087 1.390 . S
C2082 H2073 0.930 . S
C2082 C2080 1.384 . S
C2082 C2083 1.372 . S
C2083 C2082 1.372 . S
C2083 C2084 1.400 . S
C2083 C2088 1.490 . S
C2084 H2074 0.930 . S
C2084 C2083 1.400 . S
C2084 C2087 1.386 . S
H2085 C2101 0.930 . S
H2086 C2102 0.931 . S
C2087 H2075 0.929 . S
C2087 C2081 1.390 . S
C2087 C2084 1.386 . S
C2088 C2083 1.490 . S
C2088 C2090 1.395 . S
C2088 C2091 1.403 . S
H2089 C2095 0.930 . S
C2090 H2076 0.930 . S
C2090 C2088 1.395 . S
C2090 C2093 1.403 1_556 S
C2091 C2088 1.403 . S
C2091 C2092 1.524 . S
C2091 C2095 1.400 1_556 S
C2092 H2077 0.960 . S
C2092 H2078 0.960 . S
C2092 H2079 0.960 . S
C2092 C2091 1.524 . S
C2093 C2090 1.403 1_554 S
C2093 C2094 1.392 . S
C2093 C2097 1.495 . S
C2094 C2093 1.392 . S
C2094 C2095 1.385 . S
C2094 C2096 1.478 . S
C2095 H2089 0.930 . S
C2095 C2091 1.400 1_554 S
C2095 C2094 1.385 . S
C2096 C2094 1.478 . S
C2096 C2098 1.381 . S
C2096 C2102 1.383 . S
C2097 C2093 1.495 . S
C2097 H2103 0.959 . S
C2097 H2104 0.961 . S
C2097 H2105 0.960 . S
C2098 C2096 1.381 . S
C2098 C2099 1.394 . S
C2098 H2106 0.930 . S
C2099 C2098 1.394 . S
C2099 C2100 1.383 . S
C2099 H2107 0.929 . S
C2100 C2099 1.383 . S
C2100 C2101 1.377 . S
C2101 H2085 0.930 . S
C2101 C2100 1.377 . S
C2101 C2102 1.379 . S
C2102 H2086 0.931 . S
C2102 C2096 1.383 . S
C2102 C2101 1.379 . S
H2103 C2097 0.959 . S
H2104 C2097 0.961 . S
H2105 C2097 0.960 . S
H2106 C2098 0.930 . S
H2107 C2099 0.929 . S
H2108 C2116 0.929 . S
H2109 C2118 0.930 . S
H2110 C2120 0.930 . S
H2111 C2123 0.929 . S
H2112 C2126 0.930 . S
H2113 C2128 0.960 . S
H2114 C2128 0.960 . S
H2115 C2128 0.960 . S
C2116 H2108 0.929 . S
C2116 C2117 1.377 . S
C2116 C2118 1.384 . S
C2117 C2116 1.377 . S
C2117 C2123 1.390 . S
C2118 H2109 0.930 . S
C2118 C2116 1.384 . S
C2118 C2119 1.372 . S
C2119 C2118 1.372 . S
C2119 C2120 1.400 . S
C2119 C2124 1.490 . S
C2120 H2110 0.930 . S
C2120 C2119 1.400 . S
C2120 C2123 1.386 . S
H2121 C2137 0.930 . S
H2122 C2138 0.931 . S
C2123 H2111 0.929 . S
C2123 C2117 1.390 . S
C2123 C2120 1.386 . S
C2124 C2119 1.490 . S
C2124 C2126 1.395 . S
C2124 C2127 1.403 . S
H2125 C2131 0.930 . S
C2126 H2112 0.930 . S
C2126 C2124 1.395 . S
C2126 C2129 1.403 . S
C2127 C2124 1.403 . S
C2127 C2128 1.524 . S
C2127 C2131 1.400 1_556 S
C2128 H2113 0.960 . S
C2128 H2114 0.960 . S
C2128 H2115 0.960 . S
C2128 C2127 1.524 . S
C2129 C2126 1.403 . S
C2129 C2130 1.392 1_556 S
C2129 C2133 1.495 1_556 S
C2130 C2129 1.392 1_554 S
C2130 C2131 1.385 . S
C2130 C2132 1.478 . S
C2131 H2125 0.930 . S
C2131 C2127 1.400 1_554 S
C2131 C2130 1.385 . S
C2132 C2130 1.478 . S
C2132 C2134 1.381 . S
C2132 C2138 1.383 . S
C2133 C2129 1.495 1_554 S
C2133 H2139 0.959 1_554 S
C2133 H2140 0.961 . S
C2133 H2141 0.960 . S
C2134 C2132 1.381 . S
C2134 C2135 1.394 . S
C2134 H2142 0.930 . S
C2135 C2134 1.394 . S
C2135 C2136 1.383 . S
C2135 H2143 0.929 . S
C2136 C2135 1.383 . S
C2136 C2137 1.377 . S
C2137 H2121 0.930 . S
C2137 C2136 1.377 . S
C2137 C2138 1.379 . S
C2138 H2122 0.931 . S
C2138 C2132 1.383 . S
C2138 C2137 1.379 . S
H2139 C2133 0.959 1_556 S
H2140 C2133 0.961 . S
H2141 C2133 0.960 . S
H2142 C2134 0.930 . S
H2143 C2135 0.929 . S
H2144 C2152 0.929 . S
H2145 C2154 0.930 . S
H2146 C2156 0.930 . S
H2147 C2159 0.929 . S
H2148 C2162 0.930 . S
H2149 C2164 0.960 . S
H2150 C2164 0.960 . S
H2151 C2164 0.960 . S
C2152 H2144 0.929 . S
C2152 C2153 1.377 . S
C2152 C2154 1.384 . S
C2153 C2152 1.377 . S
C2153 C2159 1.390 . S
C2154 H2145 0.930 . S
C2154 C2152 1.384 . S
C2154 C2155 1.372 . S
C2155 C2154 1.372 . S
C2155 C2156 1.400 . S
C2155 C2160 1.490 . S
C2156 H2146 0.930 . S
C2156 C2155 1.400 . S
C2156 C2159 1.386 . S
H2157 C2173 0.930 . S
H2158 C2174 0.931 . S
C2159 H2147 0.929 . S
C2159 C2153 1.390 . S
C2159 C2156 1.386 . S
C2160 C2155 1.490 . S
C2160 C2162 1.395 . S
C2160 C2163 1.403 . S
H2161 C2167 0.930 . S
C2162 H2148 0.930 . S
C2162 C2160 1.395 . S
C2162 C2165 1.403 . S
C2163 C2160 1.403 . S
C2163 C2164 1.524 . S
C2163 C2167 1.400 . S
C2164 H2149 0.960 . S
C2164 H2150 0.960 . S
C2164 H2151 0.960 . S
C2164 C2163 1.524 . S
C2165 C2162 1.403 . S
C2165 C2166 1.392 . S
C2165 C2169 1.495 . S
C2166 C2165 1.392 . S
C2166 C2167 1.385 . S
C2166 C2168 1.478 . S
C2167 H2161 0.930 . S
C2167 C2163 1.400 . S
C2167 C2166 1.385 . S
C2168 C2166 1.478 . S
C2168 C2170 1.381 . S
C2168 C2174 1.383 . S
C2169 C2165 1.495 . S
C2169 H2175 0.959 . S
C2169 H2176 0.961 . S
C2169 H2177 0.960 . S
C2170 C2168 1.381 . S
C2170 C2171 1.394 . S
C2170 H2178 0.930 . S
C2171 C2170 1.394 . S
C2171 C2172 1.383 . S
C2171 H2179 0.929 . S
C2172 C2171 1.383 . S
C2172 C2173 1.377 . S
C2173 H2157 0.930 . S
C2173 C2172 1.377 . S
C2173 C2174 1.379 . S
C2174 H2158 0.931 . S
C2174 C2168 1.383 . S
C2174 C2173 1.379 . S
H2175 C2169 0.959 . S
H2176 C2169 0.961 . S
H2177 C2169 0.960 . S
H2178 C2170 0.930 . S
H2179 C2171 0.929 . S
H2180 C2188 0.929 . S
H2181 C2190 0.930 . S
H2182 C2192 0.930 . S
H2183 C2195 0.929 . S
H2184 C2198 0.930 . S
H2185 C2200 0.960 . S
H2186 C2200 0.960 . S
H2187 C2200 0.960 . S
C2188 H2180 0.929 . S
C2188 C2189 1.377 . S
C2188 C2190 1.384 . S
C2189 C2188 1.377 . S
C2189 C2195 1.390 . S
C2190 H2181 0.930 . S
C2190 C2188 1.384 . S
C2190 C2191 1.372 . S
C2191 C2190 1.372 . S
C2191 C2192 1.400 . S
C2191 C2196 1.490 . S
C2192 H2182 0.930 . S
C2192 C2191 1.400 . S
C2192 C2195 1.386 . S
H2193 C2209 0.930 . S
H2194 C2210 0.931 . S
C2195 H2183 0.929 . S
C2195 C2189 1.390 . S
C2195 C2192 1.386 . S
C2196 C2191 1.490 . S
C2196 C2198 1.395 . S
C2196 C2199 1.403 . S
H2197 C2203 0.930 . S
C2198 H2184 0.930 . S
C2198 C2196 1.395 . S
C2198 C2201 1.403 . S
C2199 C2196 1.403 . S
C2199 C2200 1.524 . S
C2199 C2203 1.400 . S
C2200 H2185 0.960 . S
C2200 H2186 0.960 . S
C2200 H2187 0.960 . S
C2200 C2199 1.524 . S
C2201 C2198 1.403 . S
C2201 C2202 1.392 . S
C2201 C2205 1.495 . S
C2202 C2201 1.392 . S
C2202 C2203 1.385 . S
C2202 C2204 1.478 . S
C2203 H2197 0.930 . S
C2203 C2199 1.400 . S
C2203 C2202 1.385 . S
C2204 C2202 1.478 . S
C2204 C2206 1.381 . S
C2204 C2210 1.383 . S
C2205 C2201 1.495 . S
C2205 H2211 0.959 . S
C2205 H2212 0.961 . S
C2205 H2213 0.960 . S
C2206 C2204 1.381 . S
C2206 C2207 1.394 . S
C2206 H2214 0.930 . S
C2207 C2206 1.394 . S
C2207 C2208 1.383 . S
C2207 H2215 0.929 . S
C2208 C2207 1.383 . S
C2208 C2209 1.377 . S
C2209 H2193 0.930 . S
C2209 C2208 1.377 . S
C2209 C2210 1.379 . S
C2210 H2194 0.931 . S
C2210 C2204 1.383 . S
C2210 C2209 1.379 . S
H2211 C2205 0.959 . S
H2212 C2205 0.961 . S
H2213 C2205 0.960 . S
H2214 C2206 0.930 . S
H2215 C2207 0.929 . S
H2216 C2224 0.929 . S
H2217 C2226 0.930 . S
H2218 C2228 0.930 . S
H2219 C2231 0.929 . S
H2220 C2234 0.930 . S
H2221 C2236 0.960 . S
H2222 C2236 0.960 . S
H2223 C2236 0.960 . S
C2224 H2216 0.929 . S
C2224 C2225 1.377 . S
C2224 C2226 1.384 . S
C2225 C2224 1.377 . S
C2225 C2231 1.390 . S
C2226 H2217 0.930 . S
C2226 C2224 1.384 . S
C2226 C2227 1.372 . S
C2227 C2226 1.372 . S
C2227 C2228 1.400 . S
C2227 C2232 1.490 . S
C2228 H2218 0.930 . S
C2228 C2227 1.400 . S
C2228 C2231 1.386 . S
H2229 C2245 0.930 . S
H2230 C2246 0.931 . S
C2231 H2219 0.929 . S
C2231 C2225 1.390 . S
C2231 C2228 1.386 . S
C2232 C2227 1.490 . S
C2232 C2234 1.395 . S
C2232 C2235 1.403 . S
H2233 C2239 0.930 . S
C2234 H2220 0.930 . S
C2234 C2232 1.395 . S
C2234 C2237 1.403 . S
C2235 C2232 1.403 . S
C2235 C2236 1.524 . S
C2235 C2239 1.400 . S
C2236 H2221 0.960 . S
C2236 H2222 0.960 . S
C2236 H2223 0.960 . S
C2236 C2235 1.524 . S
C2237 C2234 1.403 . S
C2237 C2238 1.392 . S
C2237 C2241 1.495 . S
C2238 C2237 1.392 . S
C2238 C2239 1.385 . S
C2238 C2240 1.478 . S
C2239 H2233 0.930 . S
C2239 C2235 1.400 . S
C2239 C2238 1.385 . S
C2240 C2238 1.478 . S
C2240 C2242 1.381 . S
C2240 C2246 1.383 . S
C2241 C2237 1.495 . S
C2241 H2247 0.959 . S
C2241 H2248 0.961 . S
C2241 H2249 0.960 . S
C2242 C2240 1.381 . S
C2242 C2243 1.394 . S
C2242 H2250 0.930 . S
C2243 C2242 1.394 . S
C2243 C2244 1.383 . S
C2243 H2251 0.929 . S
C2244 C2243 1.383 . S
C2244 C2245 1.377 . S
C2245 H2229 0.930 . S
C2245 C2244 1.377 . S
C2245 C2246 1.379 . S
C2246 H2230 0.931 . S
C2246 C2240 1.383 . S
C2246 C2245 1.379 . S
H2247 C2241 0.959 . S
H2248 C2241 0.961 . S
H2249 C2241 0.960 . S
H2250 C2242 0.930 . S
H2251 C2243 0.929 . S
H2252 C2260 0.929 . S
H2253 C2262 0.930 . S
H2254 C2264 0.930 . S
H2255 C2267 0.929 . S
H2256 C2270 0.930 . S
H2257 C2272 0.960 . S
H2258 C2272 0.960 . S
H2259 C2272 0.960 . S
C2260 H2252 0.929 . S
C2260 C2261 1.377 . S
C2260 C2262 1.384 . S
C2261 C2260 1.377 . S
C2261 C2267 1.390 . S
C2262 H2253 0.930 . S
C2262 C2260 1.384 . S
C2262 C2263 1.372 . S
C2263 C2262 1.372 . S
C2263 C2264 1.400 . S
C2263 C2268 1.490 . S
C2264 H2254 0.930 . S
C2264 C2263 1.400 . S
C2264 C2267 1.386 . S
H2265 C2281 0.930 . S
H2266 C2282 0.931 . S
C2267 H2255 0.929 . S
C2267 C2261 1.390 . S
C2267 C2264 1.386 . S
C2268 C2263 1.490 . S
C2268 C2270 1.395 . S
C2268 C2271 1.403 . S
H2269 C2275 0.930 . S
C2270 H2256 0.930 . S
C2270 C2268 1.395 . S
C2270 C2273 1.403 . S
C2271 C2268 1.403 . S
C2271 C2272 1.524 . S
C2271 C2275 1.400 . S
C2272 H2257 0.960 . S
C2272 H2258 0.960 . S
C2272 H2259 0.960 . S
C2272 C2271 1.524 . S
C2273 C2270 1.403 . S
C2273 C2274 1.392 . S
C2273 C2277 1.495 . S
C2274 C2273 1.392 . S
C2274 C2275 1.385 . S
C2274 C2276 1.478 . S
C2275 H2269 0.930 . S
C2275 C2271 1.400 . S
C2275 C2274 1.385 . S
C2276 C2274 1.478 . S
C2276 C2278 1.381 . S
C2276 C2282 1.383 . S
C2277 C2273 1.495 . S
C2277 H2283 0.959 . S
C2277 H2284 0.961 . S
C2277 H2285 0.960 . S
C2278 C2276 1.381 . S
C2278 C2279 1.394 . S
C2278 H2286 0.930 . S
C2279 C2278 1.394 . S
C2279 C2280 1.383 . S
C2279 H2287 0.929 . S
C2280 C2279 1.383 . S
C2280 C2281 1.377 . S
C2281 H2265 0.930 . S
C2281 C2280 1.377 . S
C2281 C2282 1.379 . S
C2282 H2266 0.931 . S
C2282 C2276 1.383 . S
C2282 C2281 1.379 . S
H2283 C2277 0.959 . S
H2284 C2277 0.961 . S
H2285 C2277 0.960 . S
H2286 C2278 0.930 . S
H2287 C2279 0.929 . S
H2288 C2296 0.929 . S
H2289 C2298 0.930 . S
H2290 C2300 0.930 . S
H2291 C2303 0.929 . S
H2292 C2306 0.930 . S
H2293 C2308 0.960 . S
H2294 C2308 0.960 . S
H2295 C2308 0.960 . S
C2296 H2288 0.929 . S
C2296 C2297 1.377 . S
C2296 C2298 1.384 . S
C2297 C2296 1.377 . S
C2297 C2303 1.390 . S
C2298 H2289 0.930 . S
C2298 C2296 1.384 . S
C2298 C2299 1.372 . S
C2299 C2298 1.372 . S
C2299 C2300 1.400 . S
C2299 C2304 1.490 . S
C2300 H2290 0.930 . S
C2300 C2299 1.400 . S
C2300 C2303 1.386 . S
H2301 C2317 0.930 . S
H2302 C2318 0.931 . S
C2303 H2291 0.929 . S
C2303 C2297 1.390 . S
C2303 C2300 1.386 . S
C2304 C2299 1.490 . S
C2304 C2306 1.395 . S
C2304 C2307 1.403 . S
H2305 C2311 0.930 . S
C2306 H2292 0.930 . S
C2306 C2304 1.395 . S
C2306 C2309 1.403 . S
C2307 C2304 1.403 . S
C2307 C2308 1.524 . S
C2307 C2311 1.400 . S
C2308 H2293 0.960 . S
C2308 H2294 0.960 . S
C2308 H2295 0.960 . S
C2308 C2307 1.524 . S
C2309 C2306 1.403 . S
C2309 C2310 1.392 . S
C2309 C2313 1.495 . S
C2310 C2309 1.392 . S
C2310 C2311 1.385 . S
C2310 C2312 1.478 . S
C2311 H2305 0.930 . S
C2311 C2307 1.400 . S
C2311 C2310 1.385 . S
C2312 C2310 1.478 . S
C2312 C2314 1.381 . S
C2312 C2318 1.383 . S
C2313 C2309 1.495 . S
C2313 H2319 0.959 . S
C2313 H2320 0.961 . S
C2313 H2321 0.960 . S
C2314 C2312 1.381 . S
C2314 C2315 1.394 . S
C2314 H2322 0.930 . S
C2315 C2314 1.394 . S
C2315 C2316 1.383 . S
C2315 H2323 0.929 . S
C2316 C2315 1.383 . S
C2316 C2317 1.377 . S
C2317 H2301 0.930 . S
C2317 C2316 1.377 . S
C2317 C2318 1.379 . S
C2318 H2302 0.931 . S
C2318 C2312 1.383 . S
C2318 C2317 1.379 . S
H2319 C2313 0.959 . S
H2320 C2313 0.961 . S
H2321 C2313 0.960 . S
H2322 C2314 0.930 . S
H2323 C2315 0.929 . S
H2324 C2332 0.929 . S
H2325 C2334 0.930 . S
H2326 C2336 0.930 . S
H2327 C2339 0.929 . S
H2328 C2342 0.930 . S
H2329 C2344 0.960 . S
H2330 C2344 0.960 . S
H2331 C2344 0.960 . S
C2332 H2324 0.929 . S
C2332 C2333 1.377 . S
C2332 C2334 1.384 . S
C2333 C2332 1.377 . S
C2333 C2339 1.390 . S
C2334 H2325 0.930 . S
C2334 C2332 1.384 . S
C2334 C2335 1.372 . S
C2335 C2334 1.372 . S
C2335 C2336 1.400 . S
C2335 C2340 1.490 . S
C2336 H2326 0.930 . S
C2336 C2335 1.400 . S
C2336 C2339 1.386 . S
H2337 C2353 0.930 . S
H2338 C2354 0.931 . S
C2339 H2327 0.929 . S
C2339 C2333 1.390 . S
C2339 C2336 1.386 . S
C2340 C2335 1.490 . S
C2340 C2342 1.395 . S
C2340 C2343 1.403 . S
H2341 C2347 0.930 . S
C2342 H2328 0.930 . S
C2342 C2340 1.395 . S
C2342 C2345 1.403 . S
C2343 C2340 1.403 . S
C2343 C2344 1.524 . S
C2343 C2347 1.400 . S
C2344 H2329 0.960 . S
C2344 H2330 0.960 . S
C2344 H2331 0.960 . S
C2344 C2343 1.524 . S
C2345 C2342 1.403 . S
C2345 C2346 1.392 . S
C2345 C2349 1.495 . S
C2346 C2345 1.392 . S
C2346 C2347 1.385 . S
C2346 C2348 1.478 . S
C2347 H2341 0.930 . S
C2347 C2343 1.400 . S
C2347 C2346 1.385 . S
C2348 C2346 1.478 . S
C2348 C2350 1.381 . S
C2348 C2354 1.383 . S
C2349 C2345 1.495 . S
C2349 H2355 0.959 . S
C2349 H2356 0.961 . S
C2349 H2357 0.960 . S
C2350 C2348 1.381 . S
C2350 C2351 1.394 . S
C2350 H2358 0.930 . S
C2351 C2350 1.394 . S
C2351 C2352 1.383 . S
C2351 H2359 0.929 . S
C2352 C2351 1.383 . S
C2352 C2353 1.377 . S
C2353 H2337 0.930 . S
C2353 C2352 1.377 . S
C2353 C2354 1.379 . S
C2354 H2338 0.931 . S
C2354 C2348 1.383 . S
C2354 C2353 1.379 . S
H2355 C2349 0.959 . S
H2356 C2349 0.961 . S
H2357 C2349 0.960 . S
H2358 C2350 0.930 . S
H2359 C2351 0.929 . S
H2360 C2368 0.929 . S
H2361 C2370 0.930 . S
H2362 C2372 0.930 . S
H2363 C2375 0.929 . S
H2364 C2378 0.930 . S
H2365 C2380 0.960 . S
H2366 C2380 0.960 . S
H2367 C2380 0.960 . S
C2368 H2360 0.929 . S
C2368 C2369 1.377 . S
C2368 C2370 1.384 . S
C2369 C2368 1.377 . S
C2369 C2375 1.390 . S
C2370 H2361 0.930 . S
C2370 C2368 1.384 . S
C2370 C2371 1.372 . S
C2371 C2370 1.372 . S
C2371 C2372 1.400 . S
C2371 C2376 1.490 . S
C2372 H2362 0.930 . S
C2372 C2371 1.400 . S
C2372 C2375 1.386 . S
H2373 C2389 0.930 . S
H2374 C2390 0.931 . S
C2375 H2363 0.929 . S
C2375 C2369 1.390 . S
C2375 C2372 1.386 . S
C2376 C2371 1.490 . S
C2376 C2378 1.395 . S
C2376 C2379 1.403 . S
H2377 C2383 0.930 . S
C2378 H2364 0.930 . S
C2378 C2376 1.395 . S
C2378 C2381 1.403 . S
C2379 C2376 1.403 . S
C2379 C2380 1.524 . S
C2379 C2383 1.400 . S
C2380 H2365 0.960 . S
C2380 H2366 0.960 . S
C2380 H2367 0.960 . S
C2380 C2379 1.524 . S
C2381 C2378 1.403 . S
C2381 C2382 1.392 . S
C2381 C2385 1.495 . S
C2382 C2381 1.392 . S
C2382 C2383 1.385 . S
C2382 C2384 1.478 . S
C2383 H2377 0.930 . S
C2383 C2379 1.400 . S
C2383 C2382 1.385 . S
C2384 C2382 1.478 . S
C2384 C2386 1.381 . S
C2384 C2390 1.383 . S
C2385 C2381 1.495 . S
C2385 H2391 0.959 . S
C2385 H2392 0.961 . S
C2385 H2393 0.960 . S
C2386 C2384 1.381 . S
C2386 C2387 1.394 . S
C2386 H2394 0.930 . S
C2387 C2386 1.394 . S
C2387 C2388 1.383 . S
C2387 H2395 0.929 . S
C2388 C2387 1.383 . S
C2388 C2389 1.377 . S
C2389 H2373 0.930 . S
C2389 C2388 1.377 . S
C2389 C2390 1.379 . S
C2390 H2374 0.931 . S
C2390 C2384 1.383 . S
C2390 C2389 1.379 . S
H2391 C2385 0.959 . S
H2392 C2385 0.961 . S
H2393 C2385 0.960 . S
H2394 C2386 0.930 . S
H2395 C2387 0.929 . S
H2396 C2404 0.929 . S
H2397 C2406 0.930 . S
H2398 C2408 0.930 . S
H2399 C2411 0.929 . S
H2400 C2414 0.930 . S
H2401 C2416 0.960 . S
H2402 C2416 0.960 . S
H2403 C2416 0.960 . S
C2404 H2396 0.929 . S
C2404 C2405 1.377 . S
C2404 C2406 1.384 . S
C2405 C2404 1.377 . S
C2405 C2411 1.390 . S
C2406 H2397 0.930 . S
C2406 C2404 1.384 . S
C2406 C2407 1.372 . S
C2407 C2406 1.372 . S
C2407 C2408 1.400 . S
C2407 C2412 1.490 . S
C2408 H2398 0.930 . S
C2408 C2407 1.400 . S
C2408 C2411 1.386 . S
H2409 C2425 0.930 . S
H2410 C2426 0.931 . S
C2411 H2399 0.929 . S
C2411 C2405 1.390 . S
C2411 C2408 1.386 . S
C2412 C2407 1.490 . S
C2412 C2414 1.395 . S
C2412 C2415 1.403 . S
H2413 C2419 0.930 . S
C2414 H2400 0.930 . S
C2414 C2412 1.395 . S
C2414 C2417 1.403 . S
C2415 C2412 1.403 . S
C2415 C2416 1.524 . S
C2415 C2419 1.400 . S
C2416 H2401 0.960 . S
C2416 H2402 0.960 . S
C2416 H2403 0.960 . S
C2416 C2415 1.524 . S
C2417 C2414 1.403 . S
C2417 C2418 1.392 . S
C2417 C2421 1.495 . S
C2418 C2417 1.392 . S
C2418 C2419 1.385 . S
C2418 C2420 1.478 . S
C2419 H2413 0.930 . S
C2419 C2415 1.400 . S
C2419 C2418 1.385 . S
C2420 C2418 1.478 . S
C2420 C2422 1.381 . S
C2420 C2426 1.383 . S
C2421 C2417 1.495 . S
C2421 H2427 0.959 . S
C2421 H2428 0.961 . S
C2421 H2429 0.960 . S
C2422 C2420 1.381 . S
C2422 C2423 1.394 . S
C2422 H2430 0.930 . S
C2423 C2422 1.394 . S
C2423 C2424 1.383 . S
C2423 H2431 0.929 . S
C2424 C2423 1.383 . S
C2424 C2425 1.377 . S
C2425 H2409 0.930 . S
C2425 C2424 1.377 . S
C2425 C2426 1.379 . S
C2426 H2410 0.931 . S
C2426 C2420 1.383 . S
C2426 C2425 1.379 . S
H2427 C2421 0.959 . S
H2428 C2421 0.961 . S
H2429 C2421 0.960 . S
H2430 C2422 0.930 . S
H2431 C2423 0.929 . S
H2432 C2440 0.929 . S
H2433 C2442 0.930 . S
H2434 C2444 0.930 . S
H2435 C2447 0.929 . S
H2436 C2450 0.930 . S
H2437 C2452 0.960 . S
H2438 C2452 0.960 . S
H2439 C2452 0.960 . S
C2440 H2432 0.929 . S
C2440 C2441 1.377 . S
C2440 C2442 1.384 . S
C2441 C2440 1.377 . S
C2441 C2447 1.390 . S
C2442 H2433 0.930 . S
C2442 C2440 1.384 . S
C2442 C2443 1.372 . S
C2443 C2442 1.372 . S
C2443 C2444 1.400 . S
C2443 C2448 1.490 . S
C2444 H2434 0.930 . S
C2444 C2443 1.400 . S
C2444 C2447 1.386 . S
H2445 C2461 0.930 . S
H2446 C2462 0.931 . S
C2447 H2435 0.929 . S
C2447 C2441 1.390 . S
C2447 C2444 1.386 . S
C2448 C2443 1.490 . S
C2448 C2450 1.395 . S
C2448 C2451 1.403 . S
H2449 C2455 0.930 . S
C2450 H2436 0.930 . S
C2450 C2448 1.395 . S
C2450 C2453 1.403 . S
C2451 C2448 1.403 . S
C2451 C2452 1.524 . S
C2451 C2455 1.400 . S
C2452 H2437 0.960 . S
C2452 H2438 0.960 . S
C2452 H2439 0.960 . S
C2452 C2451 1.524 . S
C2453 C2450 1.403 . S
C2453 C2454 1.392 . S
C2453 C2457 1.495 . S
C2454 C2453 1.392 . S
C2454 C2455 1.385 . S
C2454 C2456 1.478 . S
C2455 H2449 0.930 . S
C2455 C2451 1.400 . S
C2455 C2454 1.385 . S
C2456 C2454 1.478 . S
C2456 C2458 1.381 . S
C2456 C2462 1.383 . S
C2457 C2453 1.495 . S
C2457 H2463 0.959 . S
C2457 H2464 0.961 . S
C2457 H2465 0.960 . S
C2458 C2456 1.381 . S
C2458 C2459 1.394 . S
C2458 H2466 0.930 . S
C2459 C2458 1.394 . S
C2459 C2460 1.383 . S
C2459 H2467 0.929 . S
C2460 C2459 1.383 . S
C2460 C2461 1.377 . S
C2461 H2445 0.930 . S
C2461 C2460 1.377 . S
C2461 C2462 1.379 . S
C2462 H2446 0.931 . S
C2462 C2456 1.383 . S
C2462 C2461 1.379 . S
H2463 C2457 0.959 . S
H2464 C2457 0.961 . S
H2465 C2457 0.960 . S
H2466 C2458 0.930 . S
H2467 C2459 0.929 . S
H2468 C2476 0.929 . S
H2469 C2478 0.930 . S
H2470 C2480 0.930 . S
H2471 C2483 0.929 . S
H2472 C2486 0.930 . S
H2473 C2488 0.960 . S
H2474 C2488 0.960 . S
H2475 C2488 0.960 . S
C2476 H2468 0.929 . S
C2476 C2477 1.377 . S
C2476 C2478 1.384 . S
C2477 C2476 1.377 . S
C2477 C2483 1.390 . S
C2478 H2469 0.930 . S
C2478 C2476 1.384 . S
C2478 C2479 1.372 . S
C2479 C2478 1.372 . S
C2479 C2480 1.400 . S
C2479 C2484 1.490 . S
C2480 H2470 0.930 . S
C2480 C2479 1.400 . S
C2480 C2483 1.386 . S
H2481 C2497 0.930 . S
H2482 C2498 0.931 . S
C2483 H2471 0.929 . S
C2483 C2477 1.390 . S
C2483 C2480 1.386 . S
C2484 C2479 1.490 . S
C2484 C2486 1.395 . S
C2484 C2487 1.403 . S
H2485 C2491 0.930 . S
C2486 H2472 0.930 . S
C2486 C2484 1.395 . S
C2486 C2489 1.403 . S
C2487 C2484 1.403 . S
C2487 C2488 1.524 . S
C2487 C2491 1.400 . S
C2488 H2473 0.960 . S
C2488 H2474 0.960 . S
C2488 H2475 0.960 . S
C2488 C2487 1.524 . S
C2489 C2486 1.403 . S
C2489 C2490 1.392 . S
C2489 C2493 1.495 . S
C2490 C2489 1.392 . S
C2490 C2491 1.385 . S
C2490 C2492 1.478 . S
C2491 H2485 0.930 . S
C2491 C2487 1.400 . S
C2491 C2490 1.385 . S
C2492 C2490 1.478 . S
C2492 C2494 1.381 . S
C2492 C2498 1.383 . S
C2493 C2489 1.495 . S
C2493 H2499 0.959 . S
C2493 H2500 0.961 . S
C2493 H2501 0.960 . S
C2494 C2492 1.381 . S
C2494 C2495 1.394 . S
C2494 H2502 0.930 . S
C2495 C2494 1.394 . S
C2495 C2496 1.383 . S
C2495 H2503 0.929 . S
C2496 C2495 1.383 . S
C2496 C2497 1.377 . S
C2497 H2481 0.930 . S
C2497 C2496 1.377 . S
C2497 C2498 1.379 . S
C2498 H2482 0.931 . S
C2498 C2492 1.383 . S
C2498 C2497 1.379 . S
H2499 C2493 0.959 . S
H2500 C2493 0.961 . S
H2501 C2493 0.960 . S
H2502 C2494 0.930 . S
H2503 C2495 0.929 . S
H2504 C2512 0.929 . S
H2505 C2514 0.930 . S
H2506 C2516 0.930 . S
H2507 C2519 0.929 . S
H2508 C2522 0.930 . S
H2509 C2524 0.960 . S
H2510 C2524 0.960 . S
H2511 C2524 0.960 . S
C2512 H2504 0.929 . S
C2512 C2513 1.377 . S
C2512 C2514 1.384 . S
C2513 C2512 1.377 . S
C2513 C2519 1.390 . S
C2514 H2505 0.930 . S
C2514 C2512 1.384 . S
C2514 C2515 1.372 . S
C2515 C2514 1.372 . S
C2515 C2516 1.400 . S
C2515 C2520 1.490 . S
C2516 H2506 0.930 . S
C2516 C2515 1.400 . S
C2516 C2519 1.386 . S
H2517 C2533 0.930 . S
H2518 C2534 0.931 . S
C2519 H2507 0.929 . S
C2519 C2513 1.390 . S
C2519 C2516 1.386 . S
C2520 C2515 1.490 . S
C2520 C2522 1.395 . S
C2520 C2523 1.403 . S
H2521 C2527 0.930 . S
C2522 H2508 0.930 . S
C2522 C2520 1.395 . S
C2522 C2525 1.403 . S
C2523 C2520 1.403 . S
C2523 C2524 1.524 . S
C2523 C2527 1.400 . S
C2524 H2509 0.960 . S
C2524 H2510 0.960 . S
C2524 H2511 0.960 . S
C2524 C2523 1.524 . S
C2525 C2522 1.403 . S
C2525 C2526 1.392 . S
C2525 C2529 1.495 . S
C2526 C2525 1.392 . S
C2526 C2527 1.385 . S
C2526 C2528 1.478 . S
C2527 H2521 0.930 . S
C2527 C2523 1.400 . S
C2527 C2526 1.385 . S
C2528 C2526 1.478 . S
C2528 C2530 1.381 . S
C2528 C2534 1.383 . S
C2529 C2525 1.495 . S
C2529 H2535 0.959 . S
C2529 H2536 0.961 . S
C2529 H2537 0.960 . S
C2530 C2528 1.381 . S
C2530 C2531 1.394 . S
C2530 H2538 0.930 . S
C2531 C2530 1.394 . S
C2531 C2532 1.383 . S
C2531 H2539 0.929 . S
C2532 C2531 1.383 . S
C2532 C2533 1.377 . S
C2533 H2517 0.930 . S
C2533 C2532 1.377 . S
C2533 C2534 1.379 . S
C2534 H2518 0.931 . S
C2534 C2528 1.383 . S
C2534 C2533 1.379 . S
H2535 C2529 0.959 . S
H2536 C2529 0.961 . S
H2537 C2529 0.960 . S
H2538 C2530 0.930 . S
H2539 C2531 0.929 . S
H2540 C2548 0.929 . S
H2541 C2550 0.930 . S
H2542 C2552 0.930 . S
H2543 C2555 0.929 . S
H2544 C2558 0.930 . S
H2545 C2560 0.960 . S
H2546 C2560 0.960 . S
H2547 C2560 0.960 . S
C2548 H2540 0.929 . S
C2548 C2549 1.377 . S
C2548 C2550 1.384 . S
C2549 C2548 1.377 . S
C2549 C2555 1.390 . S
C2550 H2541 0.930 . S
C2550 C2548 1.384 . S
C2550 C2551 1.372 . S
C2551 C2550 1.372 . S
C2551 C2552 1.400 . S
C2551 C2556 1.490 . S
C2552 H2542 0.930 . S
C2552 C2551 1.400 . S
C2552 C2555 1.386 . S
H2553 C2569 0.930 . S
H2554 C2570 0.931 . S
C2555 H2543 0.929 . S
C2555 C2549 1.390 . S
C2555 C2552 1.386 . S
C2556 C2551 1.490 . S
C2556 C2558 1.395 . S
C2556 C2559 1.403 . S
H2557 C2563 0.930 . S
C2558 H2544 0.930 . S
C2558 C2556 1.395 . S
C2558 C2561 1.403 . S
C2559 C2556 1.403 . S
C2559 C2560 1.524 . S
C2559 C2563 1.400 . S
C2560 H2545 0.960 . S
C2560 H2546 0.960 . S
C2560 H2547 0.960 . S
C2560 C2559 1.524 . S
C2561 C2558 1.403 . S
C2561 C2562 1.392 . S
C2561 C2565 1.495 . S
C2562 C2561 1.392 . S
C2562 C2563 1.385 . S
C2562 C2564 1.478 . S
C2563 H2557 0.930 . S
C2563 C2559 1.400 . S
C2563 C2562 1.385 . S
C2564 C2562 1.478 . S
C2564 C2566 1.381 . S
C2564 C2570 1.383 . S
C2565 C2561 1.495 . S
C2565 H2571 0.959 . S
C2565 H2572 0.961 . S
C2565 H2573 0.960 . S
C2566 C2564 1.381 . S
C2566 C2567 1.394 . S
C2566 H2574 0.930 . S
C2567 C2566 1.394 . S
C2567 C2568 1.383 . S
C2567 H2575 0.929 . S
C2568 C2567 1.383 . S
C2568 C2569 1.377 . S
C2569 H2553 0.930 . S
C2569 C2568 1.377 . S
C2569 C2570 1.379 . S
C2570 H2554 0.931 . S
C2570 C2564 1.383 . S
C2570 C2569 1.379 . S
H2571 C2565 0.959 . S
H2572 C2565 0.961 . S
H2573 C2565 0.960 . S
H2574 C2566 0.930 . S
H2575 C2567 0.929 . S
H2576 C2584 0.929 . S
H2577 C2586 0.930 . S
H2578 C2588 0.930 . S
H2579 C2591 0.929 . S
H2580 C2594 0.930 . S
H2581 C2596 0.960 . S
H2582 C2596 0.960 . S
H2583 C2596 0.960 . S
C2584 H2576 0.929 . S
C2584 C2585 1.377 . S
C2584 C2586 1.384 . S
C2585 C2584 1.377 . S
C2585 C2591 1.390 . S
C2586 H2577 0.930 . S
C2586 C2584 1.384 . S
C2586 C2587 1.372 . S
C2587 C2586 1.372 . S
C2587 C2588 1.400 . S
C2587 C2592 1.490 . S
C2588 H2578 0.930 . S
C2588 C2587 1.400 . S
C2588 C2591 1.386 . S
H2589 C2605 0.930 . S
H2590 C2606 0.931 . S
C2591 H2579 0.929 . S
C2591 C2585 1.390 . S
C2591 C2588 1.386 . S
C2592 C2587 1.490 . S
C2592 C2594 1.395 . S
C2592 C2595 1.403 . S
H2593 C2599 0.930 . S
C2594 H2580 0.930 . S
C2594 C2592 1.395 . S
C2594 C2597 1.403 . S
C2595 C2592 1.403 . S
C2595 C2596 1.524 . S
C2595 C2599 1.400 . S
C2596 H2581 0.960 . S
C2596 H2582 0.960 . S
C2596 H2583 0.960 . S
C2596 C2595 1.524 . S
C2597 C2594 1.403 . S
C2597 C2598 1.392 . S
C2597 C2601 1.495 . S
C2598 C2597 1.392 . S
C2598 C2599 1.385 . S
C2598 C2600 1.478 . S
C2599 H2593 0.930 . S
C2599 C2595 1.400 . S
C2599 C2598 1.385 . S
C2600 C2598 1.478 . S
C2600 C2602 1.381 . S
C2600 C2606 1.383 . S
C2601 C2597 1.495 . S
C2601 H2607 0.959 . S
C2601 H2608 0.961 . S
C2601 H2609 0.960 . S
C2602 C2600 1.381 . S
C2602 C2603 1.394 . S
C2602 H2610 0.930 . S
C2603 C2602 1.394 . S
C2603 C2604 1.383 . S
C2603 H2611 0.929 . S
C2604 C2603 1.383 . S
C2604 C2605 1.377 . S
C2605 H2589 0.930 . S
C2605 C2604 1.377 . S
C2605 C2606 1.379 . S
C2606 H2590 0.931 . S
C2606 C2600 1.383 . S
C2606 C2605 1.379 . S
H2607 C2601 0.959 . S
H2608 C2601 0.961 . S
H2609 C2601 0.960 . S
H2610 C2602 0.930 . S
H2611 C2603 0.929 . S
H2612 C2620 0.929 . S
H2613 C2622 0.930 . S
H2614 C2624 0.930 . S
H2615 C2627 0.929 . S
H2616 C2630 0.930 . S
H2617 C2632 0.960 . S
H2618 C2632 0.960 . S
H2619 C2632 0.960 . S
C2620 H2612 0.929 . S
C2620 C2621 1.377 . S
C2620 C2622 1.384 . S
C2621 C2620 1.377 . S
C2621 C2627 1.390 . S
C2622 H2613 0.930 . S
C2622 C2620 1.384 . S
C2622 C2623 1.372 . S
C2623 C2622 1.372 . S
C2623 C2624 1.400 . S
C2623 C2628 1.490 . S
C2624 H2614 0.930 . S
C2624 C2623 1.400 . S
C2624 C2627 1.386 . S
H2625 C2641 0.930 . S
H2626 C2642 0.931 . S
C2627 H2615 0.929 . S
C2627 C2621 1.390 . S
C2627 C2624 1.386 . S
C2628 C2623 1.490 . S
C2628 C2630 1.395 . S
C2628 C2631 1.403 . S
H2629 C2635 0.930 . S
C2630 H2616 0.930 . S
C2630 C2628 1.395 . S
C2630 C2633 1.403 . S
C2631 C2628 1.403 . S
C2631 C2632 1.524 . S
C2631 C2635 1.400 . S
C2632 H2617 0.960 . S
C2632 H2618 0.960 . S
C2632 H2619 0.960 . S
C2632 C2631 1.524 . S
C2633 C2630 1.403 . S
C2633 C2634 1.392 . S
C2633 C2637 1.495 . S
C2634 C2633 1.392 . S
C2634 C2635 1.385 . S
C2634 C2636 1.478 . S
C2635 H2629 0.930 . S
C2635 C2631 1.400 . S
C2635 C2634 1.385 . S
C2636 C2634 1.478 . S
C2636 C2638 1.381 . S
C2636 C2642 1.383 . S
C2637 C2633 1.495 . S
C2637 H2643 0.959 . S
C2637 H2644 0.961 . S
C2637 H2645 0.960 . S
C2638 C2636 1.381 . S
C2638 C2639 1.394 . S
C2638 H2646 0.930 . S
C2639 C2638 1.394 . S
C2639 C2640 1.383 . S
C2639 H2647 0.929 . S
C2640 C2639 1.383 . S
C2640 C2641 1.377 . S
C2641 H2625 0.930 . S
C2641 C2640 1.377 . S
C2641 C2642 1.379 . S
C2642 H2626 0.931 . S
C2642 C2636 1.383 . S
C2642 C2641 1.379 . S
H2643 C2637 0.959 . S
H2644 C2637 0.961 . S
H2645 C2637 0.960 . S
H2646 C2638 0.930 . S
H2647 C2639 0.929 . S
H2648 C2656 0.929 . S
H2649 C2658 0.930 . S
H2650 C2660 0.930 . S
H2651 C2663 0.929 . S
H2652 C2666 0.930 . S
H2653 C2668 0.960 . S
H2654 C2668 0.960 . S
H2655 C2668 0.960 . S
C2656 H2648 0.929 . S
C2656 C2657 1.377 . S
C2656 C2658 1.384 . S
C2657 C2656 1.377 . S
C2657 C2663 1.390 . S
C2658 H2649 0.930 . S
C2658 C2656 1.384 . S
C2658 C2659 1.372 . S
C2659 C2658 1.372 . S
C2659 C2660 1.400 . S
C2659 C2664 1.490 . S
C2660 H2650 0.930 . S
C2660 C2659 1.400 . S
C2660 C2663 1.386 . S
H2661 C2677 0.930 . S
H2662 C2678 0.931 . S
C2663 H2651 0.929 . S
C2663 C2657 1.390 . S
C2663 C2660 1.386 . S
C2664 C2659 1.490 . S
C2664 C2666 1.395 . S
C2664 C2667 1.403 . S
H2665 C2671 0.930 . S
C2666 H2652 0.930 . S
C2666 C2664 1.395 . S
C2666 C2669 1.403 . S
C2667 C2664 1.403 . S
C2667 C2668 1.524 . S
C2667 C2671 1.400 . S
C2668 H2653 0.960 . S
C2668 H2654 0.960 . S
C2668 H2655 0.960 . S
C2668 C2667 1.524 . S
C2669 C2666 1.403 . S
C2669 C2670 1.392 . S
C2669 C2673 1.495 . S
C2670 C2669 1.392 . S
C2670 C2671 1.385 . S
C2670 C2672 1.478 . S
C2671 H2665 0.930 . S
C2671 C2667 1.400 . S
C2671 C2670 1.385 . S
C2672 C2670 1.478 . S
C2672 C2674 1.381 . S
C2672 C2678 1.383 . S
C2673 C2669 1.495 . S
C2673 H2679 0.959 . S
C2673 H2680 0.961 . S
C2673 H2681 0.960 . S
C2674 C2672 1.381 . S
C2674 C2675 1.394 . S
C2674 H2682 0.930 . S
C2675 C2674 1.394 . S
C2675 C2676 1.383 . S
C2675 H2683 0.929 . S
C2676 C2675 1.383 . S
C2676 C2677 1.377 . S
C2677 H2661 0.930 . S
C2677 C2676 1.377 . S
C2677 C2678 1.379 . S
C2678 H2662 0.931 . S
C2678 C2672 1.383 . S
C2678 C2677 1.379 . S
H2679 C2673 0.959 . S
H2680 C2673 0.961 . S
H2681 C2673 0.960 . S
H2682 C2674 0.930 . S
H2683 C2675 0.929 . S
H2684 C2692 0.929 . S
H2685 C2694 0.930 . S
H2686 C2696 0.930 . S
H2687 C2699 0.929 . S
H2688 C2702 0.930 . S
H2689 C2704 0.960 . S
H2690 C2704 0.960 . S
H2691 C2704 0.960 . S
C2692 H2684 0.929 . S
C2692 C2693 1.377 . S
C2692 C2694 1.384 . S
C2693 C2692 1.377 . S
C2693 C2699 1.390 . S
C2694 H2685 0.930 . S
C2694 C2692 1.384 . S
C2694 C2695 1.372 . S
C2695 C2694 1.372 . S
C2695 C2696 1.400 . S
C2695 C2700 1.490 . S
C2696 H2686 0.930 . S
C2696 C2695 1.400 . S
C2696 C2699 1.386 . S
H2697 C2713 0.930 . S
H2698 C2714 0.931 . S
C2699 H2687 0.929 . S
C2699 C2693 1.390 . S
C2699 C2696 1.386 . S
C2700 C2695 1.490 . S
C2700 C2702 1.395 . S
C2700 C2703 1.403 . S
H2701 C2707 0.930 . S
C2702 H2688 0.930 . S
C2702 C2700 1.395 . S
C2702 C2705 1.403 . S
C2703 C2700 1.403 . S
C2703 C2704 1.524 . S
C2703 C2707 1.400 . S
C2704 H2689 0.960 . S
C2704 H2690 0.960 . S
C2704 H2691 0.960 . S
C2704 C2703 1.524 . S
C2705 C2702 1.403 . S
C2705 C2706 1.392 . S
C2705 C2709 1.495 . S
C2706 C2705 1.392 . S
C2706 C2707 1.385 . S
C2706 C2708 1.478 . S
C2707 H2701 0.930 . S
C2707 C2703 1.400 . S
C2707 C2706 1.385 . S
C2708 C2706 1.478 . S
C2708 C2710 1.381 . S
C2708 C2714 1.383 . S
C2709 C2705 1.495 . S
C2709 H2715 0.959 . S
C2709 H2716 0.961 . S
C2709 H2717 0.960 . S
C2710 C2708 1.381 . S
C2710 C2711 1.394 . S
C2710 H2718 0.930 . S
C2711 C2710 1.394 . S
C2711 C2712 1.383 . S
C2711 H2719 0.929 . S
C2712 C2711 1.383 . S
C2712 C2713 1.377 . S
C2713 H2697 0.930 . S
C2713 C2712 1.377 . S
C2713 C2714 1.379 . S
C2714 H2698 0.931 . S
C2714 C2708 1.383 . S
C2714 C2713 1.379 . S
H2715 C2709 0.959 . S
H2716 C2709 0.961 . S
H2717 C2709 0.960 . S
H2718 C2710 0.930 . S
H2719 C2711 0.929 . S
C425 C200 1.229 . S
C444 C5 1.191 . S
C461 C21 1.254 . S
C480 C161 1.257 . S
C497 C31 1.216 . S
C516 C174 1.247 . S
C533 C187 1.248 . S
C552 C47 1.265 . S
C569 C57 1.217 . S
C588 C122 1.249 . S
C605 C73 1.252 . S
C624 C135 1.264 . S
C641 C148 1.224 . S
C660 C83 1.189 . S
C677 C109 1.253 . S
C696 C99 1.239 . S
C713 C213 1.224 . S
C732 C408 1.188 . S
C749 C229 1.254 . S
C768 C369 1.253 . S
C785 C239 1.216 . S
C804 C382 1.229 . S
C821 C395 1.249 . S
C840 C255 1.259 . S
C857 C265 1.217 . S
C876 C330 1.249 . S
C893 C281 1.250 . S
C912 C343 1.276 . S
C929 C356 1.229 . S
C948 C291 1.190 . S
C965 C307 1.249 . S
C984 C317 1.280 . S
C1001 C156 0.983 . S
C1020 C0 1.001 . S
C1037 C23 0.951 . S
C1056 C169 0.968 . S
C1073 C182 0.983 . S
C1092 C26 0.994 . S
C1109 C49 0.944 . S
C1128 C195 0.922 . S
C1145 C52 0.993 . S
C1164 C104 0.971 . S
C1181 C117 0.946 . S
C1200 C75 0.945 . S
C1217 C130 0.991 . S
C1236 C78 0.995 . S
C1253 C143 0.942 . S
C1272 C101 0.947 . S
C1289 C208 0.989 . S
C1308 C364 0.964 . S
C1325 C377 0.939 . S
C1344 C231 0.927 . S
C1361 C234 0.987 . S
C1380 C390 1.010 . S
C1397 C257 0.943 . S
C1416 C403 0.918 . S
C1433 C312 0.983 . S
C1452 C260 1.009 . S
C1469 C283 0.951 . S
C1488 C325 0.968 . S
C1505 C286 0.993 . S
C1524 C338 0.966 . S
C1541 C309 0.943 . S
C1560 C351 0.917 . S
C1577 C8 1.403 . S
C1596 C138 1.384 . S
C1613 C151 1.401 . S
C1632 C18 1.422 . S
C1649 C34 1.407 . S
C1668 C112 1.417 . S
C1685 C125 1.405 . S
C1704 C44 1.422 . S
C1721 C190 1.409 . S
C1740 C60 1.411 . S
C1757 C203 1.404 . S
C1776 C70 1.404 . S
C1793 C164 1.400 . S
C1812 C86 1.418 . S
C1829 C96 1.408 . S
C1848 C177 1.405 . S
C1865 C346 1.401 . S
C1884 C216 1.426 . S
C1901 C226 1.406 . S
C1920 C359 1.385 . S
C1937 C320 1.401 . S
C1956 C242 1.401 . S
C1973 C333 1.394 . S
C1992 C252 1.384 . S
C2009 C268 1.403 . S
C2028 C398 1.428 . S
C2045 C278 1.408 . S
C2064 C411 1.422 . S
C2081 C372 1.407 . S
C2100 C294 1.419 . S
C2117 C385 1.405 . S
C2136 C304 1.418 . S
C2153 C299 1.048 . S
C2172 C10 1.039 . S
C2189 C270 1.043 . S
C2208 C13 1.045 . S
C2225 C273 1.050 . S
C2244 C36 1.021 . S
C2261 C296 1.039 . S
C2280 C39 1.053 . S
C2297 C221 1.050 . S
C2316 C62 1.024 . S
C2333 C65 1.050 . S
C2352 C244 1.025 . S
C2369 C88 1.038 . S
C2388 C247 1.061 . S
C2405 C91 1.044 . S
C2424 C218 1.059 . S
C2441 C114 1.255 . S
C2460 C413 1.262 . S
C2477 C374 1.256 . S
C2496 C127 1.242 . S
C2513 C140 1.255 . S
C2532 C387 1.264 . S
C2549 C153 1.248 . S
C2568 C400 1.256 . S
C2585 C335 1.253 . S
C2604 C166 1.237 . S
C2621 C348 1.257 . S
C2640 C179 1.272 . S
C2657 C192 1.259 . S
C2676 C361 1.270 . S
C2693 C205 1.248 . S
C2712 C322 1.256 . S
