# Generated by pormake.
# Topology uox, (4)-cn, num edge types: 1
# Building blocks:
#     Node 0, Type 0, BuildingBlock: QUQFOY_clean_sbu_1, # of connection points: 4
#     Node 1, Type 0, BuildingBlock: QUQFOY_clean_sbu_1, # of connection points: 4
#     Node 2, Type 0, BuildingBlock: QUQFOY_clean_sbu_1, # of connection points: 4
#     Node 3, Type 0, BuildingBlock: QUQFOY_clean_sbu_1, # of connection points: 4
#     Node 4, Type 0, BuildingBlock: QUQFOY_clean_sbu_1, # of connection points: 4
#     Node 5, Type 0, BuildingBlock: QUQFOY_clean_sbu_1, # of connection points: 4
#     Node 6, Type 0, BuildingBlock: QUQFOY_clean_sbu_1, # of connection points: 4
#     Node 7, Type 0, BuildingBlock: QUQFOY_clean_sbu_1, # of connection points: 4
#     Node 8, Type 0, BuildingBlock: QUQFOY_clean_sbu_1, # of connection points: 4
#     Node 9, Type 0, BuildingBlock: QUQFOY_clean_sbu_1, # of connection points: 4
#     Node 10, Type 0, BuildingBlock: QUQFOY_clean_sbu_1, # of connection points: 4
#     Node 11, Type 0, BuildingBlock: QUQFOY_clean_sbu_1, # of connection points: 4
#     Node 12, Type 0, BuildingBlock: QUQFOY_clean_sbu_1, # of connection points: 4
#     Node 13, Type 0, BuildingBlock: QUQFOY_clean_sbu_1, # of connection points: 4
#     Node 14, Type 0, BuildingBlock: QUQFOY_clean_sbu_1, # of connection points: 4
#     Node 15, Type 0, BuildingBlock: QUQFOY_clean_sbu_1, # of connection points: 4
#     Node 16, Type 0, BuildingBlock: QUQFOY_clean_sbu_1, # of connection points: 4
#     Node 17, Type 0, BuildingBlock: QUQFOY_clean_sbu_1, # of connection points: 4
#     Node 18, Type 0, BuildingBlock: QUQFOY_clean_sbu_1, # of connection points: 4
#     Node 19, Type 0, BuildingBlock: QUQFOY_clean_sbu_1, # of connection points: 4
#     Node 20, Type 0, BuildingBlock: QUQFOY_clean_sbu_1, # of connection points: 4
#     Node 21, Type 0, BuildingBlock: QUQFOY_clean_sbu_1, # of connection points: 4
#     Node 22, Type 0, BuildingBlock: QUQFOY_clean_sbu_1, # of connection points: 4
#     Node 23, Type 0, BuildingBlock: QUQFOY_clean_sbu_1, # of connection points: 4
#     Node 24, Type 0, BuildingBlock: QUQFOY_clean_sbu_1, # of connection points: 4
#     Node 25, Type 0, BuildingBlock: QUQFOY_clean_sbu_1, # of connection points: 4
#     Node 26, Type 0, BuildingBlock: QUQFOY_clean_sbu_1, # of connection points: 4
#     Node 27, Type 0, BuildingBlock: QUQFOY_clean_sbu_1, # of connection points: 4
#     Node 28, Type 0, BuildingBlock: QUQFOY_clean_sbu_1, # of connection points: 4
#     Node 29, Type 0, BuildingBlock: QUQFOY_clean_sbu_1, # of connection points: 4
#     Node 30, Type 0, BuildingBlock: QUQFOY_clean_sbu_1, # of connection points: 4
#     Node 31, Type 0, BuildingBlock: QUQFOY_clean_sbu_1, # of connection points: 4
#     Edge 32, Type (0, 0), BuildingBlock: MIFKUJ_clean_linker_0, # of connection points: 2
#     Edge 33, Type (0, 0), BuildingBlock: MIFKUJ_clean_linker_0, # of connection points: 2
#     Edge 34, Type (0, 0), BuildingBlock: MIFKUJ_clean_linker_0, # of connection points: 2
#     Edge 35, Type (0, 0), BuildingBlock: MIFKUJ_clean_linker_0, # of connection points: 2
#     Edge 36, Type (0, 0), BuildingBlock: MIFKUJ_clean_linker_0, # of connection points: 2
#     Edge 37, Type (0, 0), BuildingBlock: MIFKUJ_clean_linker_0, # of connection points: 2
#     Edge 38, Type (0, 0), BuildingBlock: MIFKUJ_clean_linker_0, # of connection points: 2
#     Edge 39, Type (0, 0), BuildingBlock: MIFKUJ_clean_linker_0, # of connection points: 2
#     Edge 40, Type (0, 0), BuildingBlock: MIFKUJ_clean_linker_0, # of connection points: 2
#     Edge 41, Type (0, 0), BuildingBlock: MIFKUJ_clean_linker_0, # of connection points: 2
#     Edge 42, Type (0, 0), BuildingBlock: MIFKUJ_clean_linker_0, # of connection points: 2
#     Edge 43, Type (0, 0), BuildingBlock: MIFKUJ_clean_linker_0, # of connection points: 2
#     Edge 44, Type (0, 0), BuildingBlock: MIFKUJ_clean_linker_0, # of connection points: 2
#     Edge 45, Type (0, 0), BuildingBlock: MIFKUJ_clean_linker_0, # of connection points: 2
#     Edge 46, Type (0, 0), BuildingBlock: MIFKUJ_clean_linker_0, # of connection points: 2
#     Edge 47, Type (0, 0), BuildingBlock: MIFKUJ_clean_linker_0, # of connection points: 2
#     Edge 48, Type (0, 0), BuildingBlock: MIFKUJ_clean_linker_0, # of connection points: 2
#     Edge 49, Type (0, 0), BuildingBlock: MIFKUJ_clean_linker_0, # of connection points: 2
#     Edge 50, Type (0, 0), BuildingBlock: MIFKUJ_clean_linker_0, # of connection points: 2
#     Edge 51, Type (0, 0), BuildingBlock: MIFKUJ_clean_linker_0, # of connection points: 2
#     Edge 52, Type (0, 0), BuildingBlock: MIFKUJ_clean_linker_0, # of connection points: 2
#     Edge 53, Type (0, 0), BuildingBlock: MIFKUJ_clean_linker_0, # of connection points: 2
#     Edge 54, Type (0, 0), BuildingBlock: MIFKUJ_clean_linker_0, # of connection points: 2
#     Edge 55, Type (0, 0), BuildingBlock: MIFKUJ_clean_linker_0, # of connection points: 2
#     Edge 56, Type (0, 0), BuildingBlock: MIFKUJ_clean_linker_0, # of connection points: 2
#     Edge 57, Type (0, 0), BuildingBlock: MIFKUJ_clean_linker_0, # of connection points: 2
#     Edge 58, Type (0, 0), BuildingBlock: MIFKUJ_clean_linker_0, # of connection points: 2
#     Edge 59, Type (0, 0), BuildingBlock: MIFKUJ_clean_linker_0, # of connection points: 2
#     Edge 60, Type (0, 0), BuildingBlock: MIFKUJ_clean_linker_0, # of connection points: 2
#     Edge 61, Type (0, 0), BuildingBlock: MIFKUJ_clean_linker_0, # of connection points: 2
#     Edge 62, Type (0, 0), BuildingBlock: MIFKUJ_clean_linker_0, # of connection points: 2
#     Edge 63, Type (0, 0), BuildingBlock: MIFKUJ_clean_linker_0, # of connection points: 2
#     Edge 64, Type (0, 0), BuildingBlock: MIFKUJ_clean_linker_0, # of connection points: 2
#     Edge 65, Type (0, 0), BuildingBlock: MIFKUJ_clean_linker_0, # of connection points: 2
#     Edge 66, Type (0, 0), BuildingBlock: MIFKUJ_clean_linker_0, # of connection points: 2
#     Edge 67, Type (0, 0), BuildingBlock: MIFKUJ_clean_linker_0, # of connection points: 2
#     Edge 68, Type (0, 0), BuildingBlock: MIFKUJ_clean_linker_0, # of connection points: 2
#     Edge 69, Type (0, 0), BuildingBlock: MIFKUJ_clean_linker_0, # of connection points: 2
#     Edge 70, Type (0, 0), BuildingBlock: MIFKUJ_clean_linker_0, # of connection points: 2
#     Edge 71, Type (0, 0), BuildingBlock: MIFKUJ_clean_linker_0, # of connection points: 2
#     Edge 72, Type (0, 0), BuildingBlock: MIFKUJ_clean_linker_0, # of connection points: 2
#     Edge 73, Type (0, 0), BuildingBlock: MIFKUJ_clean_linker_0, # of connection points: 2
#     Edge 74, Type (0, 0), BuildingBlock: MIFKUJ_clean_linker_0, # of connection points: 2
#     Edge 75, Type (0, 0), BuildingBlock: MIFKUJ_clean_linker_0, # of connection points: 2
#     Edge 76, Type (0, 0), BuildingBlock: MIFKUJ_clean_linker_0, # of connection points: 2
#     Edge 77, Type (0, 0), BuildingBlock: MIFKUJ_clean_linker_0, # of connection points: 2
#     Edge 78, Type (0, 0), BuildingBlock: MIFKUJ_clean_linker_0, # of connection points: 2
#     Edge 79, Type (0, 0), BuildingBlock: MIFKUJ_clean_linker_0, # of connection points: 2
#     Edge 80, Type (0, 0), BuildingBlock: MIFKUJ_clean_linker_0, # of connection points: 2
#     Edge 81, Type (0, 0), BuildingBlock: MIFKUJ_clean_linker_0, # of connection points: 2
#     Edge 82, Type (0, 0), BuildingBlock: MIFKUJ_clean_linker_0, # of connection points: 2
#     Edge 83, Type (0, 0), BuildingBlock: MIFKUJ_clean_linker_0, # of connection points: 2
#     Edge 84, Type (0, 0), BuildingBlock: MIFKUJ_clean_linker_0, # of connection points: 2
#     Edge 85, Type (0, 0), BuildingBlock: MIFKUJ_clean_linker_0, # of connection points: 2
#     Edge 86, Type (0, 0), BuildingBlock: MIFKUJ_clean_linker_0, # of connection points: 2
#     Edge 87, Type (0, 0), BuildingBlock: MIFKUJ_clean_linker_0, # of connection points: 2
#     Edge 88, Type (0, 0), BuildingBlock: MIFKUJ_clean_linker_0, # of connection points: 2
#     Edge 89, Type (0, 0), BuildingBlock: MIFKUJ_clean_linker_0, # of connection points: 2
#     Edge 90, Type (0, 0), BuildingBlock: MIFKUJ_clean_linker_0, # of connection points: 2
#     Edge 91, Type (0, 0), BuildingBlock: MIFKUJ_clean_linker_0, # of connection points: 2
#     Edge 92, Type (0, 0), BuildingBlock: MIFKUJ_clean_linker_0, # of connection points: 2
#     Edge 93, Type (0, 0), BuildingBlock: MIFKUJ_clean_linker_0, # of connection points: 2
#     Edge 94, Type (0, 0), BuildingBlock: MIFKUJ_clean_linker_0, # of connection points: 2
#     Edge 95, Type (0, 0), BuildingBlock: MIFKUJ_clean_linker_0, # of connection points: 2
# Relax obj value: 0.072
# Max RMSD: 0.134
# Mean RMSD: 0.134
data_MOF--net-uox--node1-QUQFOY_clean_sbu_1--edge1-MIFKUJ_clean_linker_0
_symmetry_space_group_name_H-M    P1
_symmetry_Int_Tables_number       1
_symmetry_cell_setting            triclinic
loop_
_symmetry_equiv_pos_as_xyz
'x, y, z'
_cell_length_a     60.322525
_cell_length_b     60.325423
_cell_length_c     110.52043
_cell_angle_alpha  90.009233
_cell_angle_beta   89.993132
_cell_angle_gamma 89.992876
loop_
_atom_site_label
_atom_site_type_symbol
_atom_site_fract_x
_atom_site_fract_y
_atom_site_fract_z
_atom_type_partial_charge
O0 O 0.38723 0.01585 0.1622 0.0
Cd1 Cd 0.39884 0.04291 0.1715 0.0
Cd2 Cd 0.42688 0.04476 0.15077 0.0
O3 O 0.41243 0.01405 0.14774 0.0
O4 O 0.38594 0.0389 0.18794 0.0
O5 O 0.422 0.03821 0.18446 0.0
C6 C 0.40576 0.03614 0.19201 0.0
C7 C 0.46381 0.04999 0.14482 0.0
C8 C 0.39557 0.00608 0.1531 0.0
C9 C 0.39393 0.08243 0.15559 0.0
O10 O 0.40803 0.07318 0.14869 0.0
O11 O 0.38841 0.07358 0.16558 0.0
O12 O 0.4481 0.04768 0.13704 0.0
O13 O 0.45874 0.04846 0.15614 0.0
O14 O 0.23 0.13915 0.4106 0.0
Cd15 Cd 0.20287 0.15261 0.41925 0.0
Cd16 Cd 0.20378 0.17842 0.39815 0.0
O17 O 0.23476 0.16424 0.39631 0.0
O18 O 0.20528 0.13986 0.43583 0.0
O19 O 0.2079 0.17576 0.43222 0.0
C20 C 0.20876 0.15958 0.43986 0.0
C21 C 0.19846 0.21524 0.39213 0.0
C22 C 0.24128 0.14702 0.40189 0.0
C23 C 0.16521 0.14671 0.40216 0.0
O24 O 0.17632 0.15883 0.39496 0.0
O25 O 0.17198 0.1434 0.4129 0.0
O26 O 0.2023 0.19973 0.38441 0.0
O27 O 0.19856 0.21005 0.40347 0.0
O28 O 0.11134 0.97805 0.66314 0.0
Cd29 Cd 0.09625 0.95109 0.67124 0.0
Cd30 Cd 0.07295 0.95228 0.64917 0.0
O31 O 0.08887 0.98236 0.64753 0.0
O32 O 0.10606 0.95213 0.68848 0.0
O33 O 0.0713 0.95776 0.68289 0.0
C34 C 0.08597 0.95699 0.6914 0.0
C35 C 0.03693 0.94799 0.64165 0.0
C36 C 0.10515 0.98897 0.65388 0.0
C37 C 0.10286 0.91285 0.6545 0.0
O38 O 0.09173 0.92409 0.64693 0.0
O39 O 0.10531 0.91977 0.66529 0.0
O40 O 0.05372 0.95019 0.63457 0.0
O41 O 0.04032 0.9494 0.65316 0.0
O42 O 0.26471 0.85769 0.90934 0.0
Cd43 Cd 0.29302 0.84669 0.91802 0.0
Cd44 Cd 0.29521 0.8216 0.89629 0.0
O45 O 0.26501 0.8363 0.89312 0.0
O46 O 0.29003 0.86007 0.93445 0.0
O47 O 0.28979 0.82392 0.93139 0.0
C48 C 0.28817 0.84038 0.93882 0.0
C49 C 0.30048 0.78443 0.89105 0.0
C50 C 0.25591 0.85127 0.8995 0.0
C51 C 0.33207 0.85432 0.90147 0.0
O52 O 0.32287 0.84101 0.89412 0.0
O53 O 0.32347 0.85808 0.91178 0.0
O54 O 0.2982 0.79962 0.88296 0.0
O55 O 0.29901 0.79022 0.90227 0.0
O56 O 0.38711 0.98222 0.34347 0.0
Cd57 Cd 0.39989 0.95438 0.33515 0.0
Cd58 Cd 0.42572 0.95552 0.35595 0.0
O59 O 0.41214 0.98671 0.35781 0.0
O60 O 0.38696 0.95605 0.31858 0.0
O61 O 0.42294 0.95832 0.32202 0.0
C62 C 0.4067 0.9589 0.31441 0.0
C63 C 0.46301 0.94953 0.36069 0.0
C64 C 0.39511 0.9935 0.35215 0.0
C65 C 0.39347 0.91747 0.35273 0.0
O66 O 0.40578 0.92865 0.35979 0.0
O67 O 0.39027 0.92387 0.34191 0.0
O68 O 0.44854 0.95381 0.36893 0.0
O69 O 0.45649 0.9496 0.34956 0.0
O70 O 0.2638 0.1378 0.59245 0.0
Cd71 Cd 0.29073 0.14974 0.5831 0.0
Cd72 Cd 0.29342 0.17694 0.60387 0.0
O73 O 0.26392 0.16103 0.60789 0.0
O74 O 0.2869 0.13718 0.56655 0.0
O75 O 0.2861 0.17315 0.57024 0.0
C76 C 0.28434 0.15708 0.56256 0.0
C77 C 0.2974 0.21441 0.60892 0.0
C78 C 0.25524 0.14486 0.60223 0.0
C79 C 0.33126 0.14499 0.59856 0.0
O80 O 0.32254 0.15926 0.60556 0.0
O81 O 0.3216 0.13917 0.58884 0.0
O82 O 0.29616 0.19925 0.61708 0.0
O83 O 0.29552 0.20844 0.59775 0.0
O84 O 0.10762 0.01508 0.8421 0.0
Cd85 Cd 0.09481 0.0428 0.83359 0.0
Cd86 Cd 0.06931 0.04379 0.85476 0.0
O87 O 0.08437 0.01362 0.85753 0.0
O88 O 0.1059 0.04125 0.81659 0.0
O89 O 0.07045 0.03767 0.82135 0.0
C90 C 0.08579 0.03769 0.81319 0.0
C91 C 0.03214 0.04857 0.86023 0.0
C92 C 0.10047 0.0055 0.85158 0.0
C93 C 0.1012 0.08158 0.85029 0.0
O94 O 0.08834 0.07154 0.85755 0.0
O95 O 0.10495 0.07368 0.83981 0.0
O96 O 0.04743 0.04584 0.86821 0.0
O97 O 0.0378 0.04771 0.84897 0.0
O98 O 0.237 0.86226 0.09223 0.0
Cd99 Cd 0.20968 0.85164 0.08278 0.0
Cd100 Cd 0.20653 0.82354 0.10371 0.0
O101 O 0.23713 0.83791 0.10714 0.0
O102 O 0.21428 0.86467 0.0664 0.0
O103 O 0.21349 0.82856 0.06967 0.0
C104 C 0.2162 0.84483 0.06221 0.0
C105 C 0.20097 0.78682 0.10999 0.0
C106 C 0.24595 0.85419 0.10165 0.0
C107 C 0.16972 0.85727 0.09846 0.0
O108 O 0.17818 0.84262 0.10532 0.0
O109 O 0.17926 0.86301 0.0887 0.0
O110 O 0.20305 0.80279 0.11762 0.0
O111 O 0.20282 0.79151 0.09863 0.0
O112 O 0.61112 0.98607 0.84309 0.0
Cd113 Cd 0.59843 0.95856 0.8344 0.0
Cd114 Cd 0.5721 0.95903 0.85514 0.0
O115 O 0.58507 0.99046 0.85689 0.0
O116 O 0.61157 0.96086 0.8179 0.0
O117 O 0.57556 0.96325 0.82126 0.0
C118 C 0.59191 0.96413 0.81372 0.0
C119 C 0.53504 0.95299 0.86041 0.0
C120 C 0.60243 0.99733 0.85158 0.0
C121 C 0.60477 0.92135 0.85176 0.0
O122 O 0.59255 0.93247 0.8589 0.0
O123 O 0.60774 0.92777 0.84092 0.0
O124 O 0.54986 0.95748 0.86843 0.0
O125 O 0.54109 0.95263 0.8492 0.0
O126 O 0.76566 0.8613 0.58957 0.0
Cd127 Cd 0.79327 0.84961 0.58066 0.0
Cd128 Cd 0.79643 0.82259 0.60157 0.0
O129 O 0.76671 0.8384 0.60516 0.0
O130 O 0.79044 0.86009 0.56361 0.0
O131 O 0.78863 0.82467 0.56873 0.0
C132 C 0.78757 0.83973 0.56044 0.0
C133 C 0.80041 0.78561 0.60767 0.0
C134 C 0.7574 0.85409 0.59939 0.0
C135 C 0.8337 0.85507 0.59626 0.0
O136 O 0.82532 0.84055 0.60321 0.0
O137 O 0.82387 0.86084 0.58658 0.0
O138 O 0.79884 0.8015 0.61539 0.0
O139 O 0.79897 0.79055 0.59633 0.0
O140 O 0.88738 0.01663 0.34146 0.0
Cd141 Cd 0.90183 0.04382 0.33323 0.0
Cd142 Cd 0.92681 0.04252 0.35393 0.0
O143 O 0.91211 0.01195 0.35592 0.0
O144 O 0.89199 0.04256 0.31601 0.0
O145 O 0.92695 0.03824 0.32156 0.0
C146 C 0.91227 0.03853 0.31304 0.0
C147 C 0.96418 0.04745 0.35876 0.0
C148 C 0.89494 0.00545 0.3503 0.0
C149 C 0.8961 0.08144 0.35045 0.0
O150 O 0.90775 0.06996 0.35768 0.0
O151 O 0.89308 0.07495 0.33962 0.0
O152 O 0.94957 0.04339 0.36696 0.0
O153 O 0.95774 0.04772 0.34761 0.0
O154 O 0.73394 0.13726 0.09374 0.0
Cd155 Cd 0.7062 0.14972 0.08511 0.0
Cd156 Cd 0.70634 0.17558 0.10611 0.0
O157 O 0.73779 0.16272 0.10792 0.0
O158 O 0.7084 0.13655 0.06858 0.0
O159 O 0.71039 0.17258 0.07189 0.0
C160 C 0.71123 0.15624 0.06434 0.0
C161 C 0.69977 0.21266 0.11113 0.0
C162 C 0.74495 0.14568 0.10241 0.0
C163 C 0.66889 0.1429 0.10249 0.0
O164 O 0.67988 0.15496 0.10976 0.0
O165 O 0.67546 0.14019 0.09165 0.0
O166 O 0.70432 0.19807 0.11927 0.0
O167 O 0.69974 0.20637 0.09996 0.0
O168 O 0.60887 0.01353 0.66008 0.0
Cd169 Cd 0.59914 0.04177 0.66932 0.0
Cd170 Cd 0.57354 0.04545 0.64726 0.0
O171 O 0.58797 0.01528 0.64366 0.0
O172 O 0.61273 0.0373 0.6856 0.0
O173 O 0.57655 0.0389 0.68281 0.0
C174 C 0.59307 0.03617 0.69009 0.0
C175 C 0.53742 0.0523 0.64046 0.0
C176 C 0.60249 0.00545 0.65003 0.0
C177 C 0.60747 0.08131 0.65337 0.0
O178 O 0.59364 0.07278 0.64608 0.0
O179 O 0.61146 0.07218 0.66352 0.0
O180 O 0.55388 0.05088 0.6331 0.0
O181 O 0.54119 0.04885 0.65181 0.0
O182 O 0.73058 0.8575 0.4101 0.0
Cd183 Cd 0.70359 0.84227 0.41809 0.0
Cd184 Cd 0.7051 0.81865 0.39661 0.0
O185 O 0.73527 0.83431 0.39486 0.0
O186 O 0.70374 0.85267 0.43524 0.0
O187 O 0.71015 0.81782 0.43008 0.0
C188 C 0.70872 0.83275 0.43842 0.0
C189 C 0.70116 0.78136 0.39123 0.0
C190 C 0.74167 0.85096 0.40098 0.0
C191 C 0.66575 0.84847 0.40089 0.0
O192 O 0.67719 0.83738 0.39338 0.0
O193 O 0.67239 0.85086 0.41173 0.0
O194 O 0.70441 0.79653 0.38323 0.0
O195 O 0.70109 0.78723 0.40248 0.0
O196 O 0.89108 0.98495 0.16229 0.0
Cd197 Cd 0.90456 0.95781 0.17103 0.0
Cd198 Cd 0.92997 0.95766 0.14974 0.0
O199 O 0.91571 0.98848 0.14762 0.0
O200 O 0.89411 0.96022 0.18811 0.0
O201 O 0.92938 0.96322 0.18293 0.0
C202 C 0.91437 0.96375 0.19127 0.0
C203 C 0.96615 0.95178 0.14275 0.0
C204 C 0.89881 0.9956 0.1533 0.0
C205 C 0.89774 0.91964 0.15447 0.0
O206 O 0.91002 0.9303 0.14717 0.0
O207 O 0.89465 0.92677 0.16515 0.0
O208 O 0.94981 0.95455 0.13544 0.0
O209 O 0.96226 0.9534 0.15421 0.0
O210 O 0.76433 0.13981 0.91134 0.0
Cd211 Cd 0.79182 0.1517 0.92039 0.0
Cd212 Cd 0.79247 0.17836 0.89957 0.0
O213 O 0.76103 0.16569 0.89736 0.0
O214 O 0.78859 0.13815 0.93676 0.0
O215 O 0.78725 0.17429 0.9337 0.0
C216 C 0.78567 0.15776 0.94109 0.0
C217 C 0.7992 0.21528 0.89416 0.0
C218 C 0.75363 0.14854 0.90265 0.0
C219 C 0.82948 0.1449 0.90336 0.0
O220 O 0.8189 0.15755 0.89621 0.0
O221 O 0.82261 0.14177 0.91411 0.0
O222 O 0.79512 0.20029 0.88617 0.0
O223 O 0.79875 0.20948 0.90541 0.0
O224 O 0.88917 0.51916 0.66203 0.0
Cd225 Cd 0.90148 0.54678 0.67075 0.0
Cd226 Cd 0.92796 0.54671 0.64984 0.0
O227 O 0.91424 0.51565 0.64762 0.0
O228 O 0.88808 0.54434 0.68719 0.0
O229 O 0.92417 0.54259 0.68405 0.0
C230 C 0.90771 0.54154 0.69151 0.0
C231 C 0.96516 0.55221 0.64459 0.0
C232 C 0.89729 0.50842 0.65319 0.0
C233 C 0.89519 0.58442 0.65356 0.0
O234 O 0.90804 0.57386 0.6465 0.0
O235 O 0.89157 0.57736 0.66422 0.0
O236 O 0.95016 0.5487 0.63653 0.0
O237 O 0.95918 0.55186 0.65582 0.0
O238 O 0.73196 0.64214 0.91231 0.0
Cd239 Cd 0.70409 0.65519 0.9206 0.0
Cd240 Cd 0.70345 0.67972 0.89921 0.0
O241 O 0.73354 0.66454 0.89651 0.0
O242 O 0.70558 0.6446 0.93769 0.0
O243 O 0.70936 0.67988 0.93262 0.0
C244 C 0.70936 0.66478 0.94091 0.0
C245 C 0.69871 0.71702 0.89407 0.0
C246 C 0.74161 0.64879 0.90274 0.0
C247 C 0.66554 0.64818 0.90378 0.0
O248 O 0.67579 0.66063 0.8964 0.0
O249 O 0.67316 0.64495 0.91437 0.0
O250 O 0.70143 0.70196 0.88595 0.0
O251 O 0.69954 0.71103 0.90528 0.0
O252 O 0.60746 0.48485 0.15801 0.0
Cd253 Cd 0.59528 0.45719 0.16684 0.0
Cd254 Cd 0.57046 0.45556 0.14456 0.0
O255 O 0.58658 0.48508 0.14159 0.0
O256 O 0.60848 0.46046 0.1833 0.0
O257 O 0.57242 0.46175 0.18005 0.0
C258 C 0.5888 0.46332 0.18753 0.0
C259 C 0.53384 0.45192 0.13786 0.0
C260 C 0.60165 0.49372 0.14807 0.0
C261 C 0.60153 0.41741 0.15059 0.0
O262 O 0.58881 0.42701 0.14308 0.0
O263 O 0.60549 0.4261 0.16087 0.0
O264 O 0.55015 0.45336 0.1304 0.0
O265 O 0.53819 0.4532 0.14929 0.0
O266 O 0.76253 0.35904 0.41023 0.0
Cd267 Cd 0.79039 0.35142 0.42017 0.0
Cd268 Cd 0.79782 0.32354 0.39941 0.0
O269 O 0.76759 0.33697 0.39453 0.0
O270 O 0.78388 0.36475 0.4363 0.0
O271 O 0.78806 0.32872 0.4336 0.0
C272 C 0.78363 0.34504 0.44078 0.0
C273 C 0.80498 0.28679 0.39371 0.0
C274 C 0.75614 0.35141 0.4001 0.0
C275 C 0.83159 0.35952 0.40548 0.0
O276 O 0.82536 0.34366 0.39872 0.0
O277 O 0.82016 0.3653 0.41463 0.0
O278 O 0.80366 0.3025 0.38587 0.0
O279 O 0.80166 0.29178 0.40493 0.0
O280 O 0.88804 0.48613 0.844 0.0
Cd281 Cd 0.89936 0.45844 0.83483 0.0
Cd282 Cd 0.9263 0.45668 0.85537 0.0
O283 O 0.91268 0.48727 0.85874 0.0
O284 O 0.88626 0.46209 0.81839 0.0
O285 O 0.92236 0.46278 0.82173 0.0
C286 C 0.90604 0.4647 0.81422 0.0
C287 C 0.96357 0.45032 0.86008 0.0
C288 C 0.89617 0.49562 0.85327 0.0
C289 C 0.89315 0.4197 0.85141 0.0
O290 O 0.90645 0.42963 0.85848 0.0
O291 O 0.88909 0.4275 0.84095 0.0
O292 O 0.94891 0.45355 0.86835 0.0
O293 O 0.95725 0.45156 0.84893 0.0
O294 O 0.76675 0.64283 0.09183 0.0
Cd295 Cd 0.7943 0.65617 0.08338 0.0
Cd296 Cd 0.79472 0.6814 0.10471 0.0
O297 O 0.76463 0.66607 0.10724 0.0
O298 O 0.79302 0.6452 0.06634 0.0
O299 O 0.78872 0.68052 0.07119 0.0
C300 C 0.78906 0.66526 0.06299 0.0
C301 C 0.7993 0.71843 0.11052 0.0
C302 C 0.75688 0.64983 0.10125 0.0
C303 C 0.83295 0.65004 0.10018 0.0
O304 O 0.82256 0.6625 0.1075 0.0
O305 O 0.82533 0.64651 0.08962 0.0
O306 O 0.79639 0.70292 0.11836 0.0
O307 O 0.79868 0.71308 0.09921 0.0
O308 O 0.60852 0.51103 0.33993 0.0
Cd309 Cd 0.59732 0.53984 0.33182 0.0
Cd310 Cd 0.57257 0.54046 0.35368 0.0
O311 O 0.58649 0.50958 0.35587 0.0
O312 O 0.61026 0.53763 0.31524 0.0
O313 O 0.5742 0.53717 0.31859 0.0
C314 C 0.59045 0.5358 0.31101 0.0
C315 C 0.53562 0.54642 0.35925 0.0
C316 C 0.60172 0.50116 0.34939 0.0
C317 C 0.60562 0.57739 0.34922 0.0
O318 O 0.59282 0.56735 0.35651 0.0
O319 O 0.60865 0.56999 0.33856 0.0
O320 O 0.5508 0.54275 0.36719 0.0
O321 O 0.54125 0.54592 0.34797 0.0
O322 O 0.73547 0.36069 0.59345 0.0
Cd323 Cd 0.70803 0.34703 0.58516 0.0
Cd324 Cd 0.7099 0.32125 0.60625 0.0
O325 O 0.7407 0.33583 0.60781 0.0
O326 O 0.7091 0.36003 0.56858 0.0
O327 O 0.71269 0.32415 0.572 0.0
C328 C 0.71259 0.34041 0.56439 0.0
C329 C 0.70537 0.28406 0.6117 0.0
C330 C 0.74699 0.353 0.60211 0.0
C331 C 0.67087 0.35238 0.60278 0.0
O332 O 0.68233 0.34041 0.60989 0.0
O333 O 0.67728 0.35574 0.59197 0.0
O334 O 0.70927 0.29915 0.61965 0.0
O335 O 0.70492 0.28992 0.60046 0.0
O336 O 0.1087 0.48222 0.34077 0.0
Cd337 Cd 0.09342 0.45557 0.33248 0.0
Cd338 Cd 0.07004 0.45621 0.35453 0.0
O339 O 0.08672 0.48575 0.35664 0.0
O340 O 0.10363 0.45655 0.3153 0.0
O341 O 0.06878 0.46241 0.32064 0.0
C342 C 0.08362 0.46142 0.31223 0.0
C343 C 0.0336 0.45307 0.36161 0.0
C344 C 0.10289 0.49259 0.35028 0.0
C345 C 0.0995 0.41667 0.34894 0.0
O346 O 0.08815 0.42754 0.35658 0.0
O347 O 0.10231 0.42412 0.33829 0.0
O348 O 0.0502 0.45429 0.3689 0.0
O349 O 0.03751 0.4546 0.35015 0.0
O350 O 0.26141 0.35808 0.09273 0.0
Cd351 Cd 0.28879 0.34803 0.08284 0.0
Cd352 Cd 0.29474 0.32382 0.10514 0.0
O353 O 0.26487 0.33819 0.10942 0.0
O354 O 0.28246 0.36105 0.06661 0.0
O355 O 0.28488 0.32499 0.06965 0.0
C356 C 0.28112 0.34125 0.06232 0.0
C357 C 0.30221 0.28795 0.11214 0.0
C358 C 0.25435 0.35228 0.1031 0.0
C359 C 0.32963 0.35767 0.09751 0.0
O360 O 0.32196 0.34421 0.10528 0.0
O361 O 0.31954 0.36093 0.08756 0.0
O362 O 0.30159 0.30469 0.11934 0.0
O363 O 0.29773 0.29132 0.10086 0.0
O364 O 0.38934 0.51395 0.84259 0.0
Cd365 Cd 0.40204 0.54112 0.83359 0.0
Cd366 Cd 0.42786 0.54161 0.85474 0.0
O367 O 0.41457 0.5104 0.8569 0.0
O368 O 0.38889 0.53795 0.81713 0.0
O369 O 0.42491 0.53592 0.82049 0.0
C370 C 0.40855 0.53457 0.81297 0.0
C371 C 0.46467 0.54799 0.86046 0.0
C372 C 0.39752 0.50322 0.85141 0.0
C373 C 0.39528 0.57916 0.85038 0.0
O374 O 0.4074 0.56845 0.85775 0.0
O375 O 0.39245 0.57216 0.83964 0.0
O376 O 0.44943 0.54407 0.86833 0.0
O377 O 0.4592 0.54747 0.84917 0.0
O378 O 0.23616 0.63574 0.59358 0.0
Cd379 Cd 0.20876 0.64856 0.58482 0.0
Cd380 Cd 0.2093 0.67457 0.6058 0.0
O381 O 0.24079 0.66162 0.60745 0.0
O382 O 0.21131 0.63542 0.56832 0.0
O383 O 0.21361 0.67143 0.57167 0.0
C384 C 0.21464 0.65508 0.56414 0.0
C385 C 0.20267 0.7114 0.6114 0.0
C386 C 0.24752 0.64427 0.60207 0.0
C387 C 0.17149 0.64206 0.6021 0.0
O388 O 0.18276 0.65397 0.60932 0.0
O389 O 0.17784 0.63935 0.59122 0.0
O390 O 0.20726 0.69639 0.61929 0.0
O391 O 0.20274 0.70571 0.60013 0.0
O392 O 0.10977 0.51856 0.16194 0.0
Cd393 Cd 0.09625 0.54634 0.1701 0.0
Cd394 Cd 0.07222 0.54676 0.14868 0.0
O395 O 0.08649 0.51606 0.14659 0.0
O396 O 0.10641 0.54497 0.18727 0.0
O397 O 0.07127 0.54107 0.18195 0.0
C398 C 0.08616 0.54117 0.19035 0.0
C399 C 0.03522 0.55219 0.14314 0.0
C400 C 0.10262 0.50833 0.15267 0.0
C401 C 0.10397 0.58445 0.15318 0.0
O402 O 0.09209 0.57388 0.14565 0.0
O403 O 0.10639 0.57725 0.16392 0.0
O404 O 0.0504 0.54855 0.13519 0.0
O405 O 0.04089 0.55193 0.15441 0.0
O406 O 0.23227 0.36015 0.90967 0.0
Cd407 Cd 0.20485 0.34672 0.91814 0.0
Cd408 Cd 0.20585 0.32099 0.89725 0.0
O409 O 0.23697 0.33473 0.89555 0.0
O410 O 0.20633 0.35936 0.93479 0.0
O411 O 0.2096 0.32353 0.9311 0.0
C412 C 0.20971 0.33961 0.93883 0.0
C413 C 0.20046 0.28375 0.89223 0.0
C414 C 0.2436 0.35198 0.90106 0.0
C415 C 0.16742 0.35255 0.90077 0.0
O416 O 0.17873 0.34071 0.89353 0.0
O417 O 0.17396 0.35554 0.91158 0.0
O418 O 0.20465 0.29845 0.88411 0.0
O419 O 0.20016 0.29003 0.90341 0.0
O420 O 0.39032 0.48162 0.66078 0.0
Cd421 Cd 0.40162 0.45343 0.66938 0.0
Cd422 Cd 0.4287 0.45315 0.64892 0.0
O423 O 0.41607 0.48466 0.6467 0.0
O424 O 0.38819 0.45586 0.68582 0.0
O425 O 0.42434 0.45669 0.68273 0.0
C426 C 0.40788 0.45803 0.69018 0.0
C427 C 0.46609 0.44654 0.64458 0.0
C428 C 0.39911 0.4923 0.6521 0.0
C429 C 0.39489 0.41632 0.65187 0.0
O430 O 0.40817 0.42675 0.64499 0.0
O431 O 0.39117 0.4232 0.66256 0.0
O432 O 0.45196 0.45091 0.63618 0.0
O433 O 0.45915 0.44664 0.65564 0.0
O434 O 0.26772 0.63613 0.41149 0.0
Cd435 Cd 0.29518 0.64856 0.42036 0.0
Cd436 Cd 0.29538 0.67532 0.3997 0.0
O437 O 0.26492 0.66083 0.39686 0.0
O438 O 0.29256 0.63538 0.43685 0.0
O439 O 0.29074 0.67143 0.43355 0.0
C440 C 0.28967 0.65507 0.44108 0.0
C441 C 0.30024 0.7128 0.39496 0.0
C442 C 0.25747 0.64395 0.40239 0.0
C443 C 0.33345 0.64314 0.40341 0.0
O444 O 0.32301 0.65617 0.3964 0.0
O445 O 0.32603 0.63896 0.41394 0.0
O446 O 0.29722 0.69807 0.38669 0.0
O447 O 0.29974 0.70638 0.4061 0.0
H448 H 0.44593 0.96688 0.30246 0.0
H449 H 0.45065 0.978 0.28126 0.0
H450 H 0.37987 0.97428 0.27601 0.0
H451 H 0.37512 0.96271 0.29694 0.0
H452 H 0.39995 0.95763 0.25713 0.0
H453 H 0.40796 0.02427 0.28117 0.0
H454 H 0.42485 0.04782 0.29691 0.0
H455 H 0.4878 0.04369 0.2789 0.0
H456 H 0.47132 0.01987 0.26312 0.0
H457 H 0.37428 0.02812 0.20911 0.0
H458 H 0.37949 0.01343 0.22944 0.0
H459 H 0.45033 0.01359 0.22427 0.0
H460 H 0.44527 0.02834 0.20372 0.0
H461 H 0.43628 0.02928 0.24749 0.0
H462 H 0.42568 0.96633 0.22182 0.0
H463 H 0.40715 0.94443 0.20592 0.0
H464 H 0.34745 0.94277 0.22706 0.0
H465 H 0.36552 0.96496 0.24301 0.0
C466 C 0.43142 0.96822 0.29674 0.0
C467 C 0.41015 0.96398 0.30141 0.0
C468 C 0.43412 0.9747 0.28464 0.0
C469 C 0.41558 0.97728 0.27705 0.0
C470 C 0.39444 0.97242 0.28165 0.0
C471 C 0.39175 0.96584 0.29366 0.0
C472 C 0.41778 0.98555 0.26441 0.0
C473 C 0.40783 0.97333 0.25505 0.0
C474 C 0.42858 0.00578 0.26159 0.0
C475 C 0.43848 0.02007 0.27106 0.0
C476 C 0.42545 0.02824 0.28062 0.0
C477 C 0.43494 0.04166 0.28954 0.0
C478 C 0.4574 0.04718 0.28893 0.0
C479 C 0.47041 0.03935 0.27938 0.0
C480 C 0.46101 0.0259 0.27045 0.0
C481 C 0.39102 0.02525 0.21228 0.0
C482 C 0.40937 0.0293 0.20475 0.0
C483 C 0.39395 0.01676 0.22391 0.0
C484 C 0.41527 0.01212 0.22829 0.0
C485 C 0.43373 0.01696 0.22102 0.0
C486 C 0.4308 0.02538 0.2093 0.0
C487 C 0.41791 0.00164 0.24036 0.0
C488 C 0.42876 0.0134 0.24956 0.0
C489 C 0.40778 0.98107 0.24308 0.0
C490 C 0.39693 0.96744 0.23358 0.0
C491 C 0.40856 0.96142 0.22304 0.0
C492 C 0.39814 0.94894 0.21403 0.0
C493 C 0.37612 0.94225 0.21547 0.0
C494 C 0.3645 0.94797 0.22595 0.0
C495 C 0.37483 0.96048 0.23499 0.0
H496 H 0.36808 0.9326 0.20847 0.0
H497 H 0.46472 0.05758 0.29584 0.0
H498 H 0.2751 0.19666 0.55124 0.0
H499 H 0.2635 0.20214 0.53017 0.0
H500 H 0.26845 0.13172 0.52391 0.0
H501 H 0.28033 0.1262 0.54474 0.0
H502 H 0.28549 0.15359 0.50545 0.0
H503 H 0.21822 0.15791 0.52916 0.0
H504 H 0.19375 0.17302 0.54503 0.0
H505 H 0.19583 0.23705 0.5281 0.0
H506 H 0.22056 0.22237 0.51221 0.0
H507 H 0.21624 0.12791 0.45691 0.0
H508 H 0.23014 0.13287 0.47743 0.0
H509 H 0.2298 0.20377 0.47262 0.0
H510 H 0.21597 0.19897 0.45185 0.0
H511 H 0.21286 0.18804 0.49589 0.0
H512 H 0.27689 0.18131 0.47062 0.0
H513 H 0.30004 0.16466 0.45464 0.0
H514 H 0.30313 0.10368 0.4746 0.0
H515 H 0.27969 0.11985 0.49063 0.0
C516 C 0.27388 0.18239 0.54533 0.0
C517 C 0.2786 0.16098 0.54969 0.0
C518 C 0.26713 0.18553 0.53331 0.0
C519 C 0.26486 0.16731 0.52547 0.0
C520 C 0.27007 0.14605 0.52976 0.0
C521 C 0.27683 0.14291 0.54171 0.0
C522 C 0.25679 0.17 0.51282 0.0
C523 C 0.26958 0.16107 0.50339 0.0
C524 C 0.23628 0.18029 0.51004 0.0
C525 C 0.22146 0.18912 0.51959 0.0
C526 C 0.21361 0.17526 0.52888 0.0
C527 C 0.19967 0.18373 0.53787 0.0
C528 C 0.19331 0.206 0.5376 0.0
C529 C 0.20082 0.21982 0.52832 0.0
C530 C 0.21479 0.21144 0.51932 0.0
C531 C 0.21888 0.14461 0.4602 0.0
C532 C 0.21508 0.16306 0.4527 0.0
C533 C 0.22691 0.14739 0.47194 0.0
C534 C 0.23123 0.16866 0.47649 0.0
C535 C 0.22662 0.18722 0.46924 0.0
C536 C 0.21875 0.18444 0.45739 0.0
C537 C 0.24132 0.17109 0.48866 0.0
C538 C 0.22895 0.18095 0.49797 0.0
C539 C 0.26215 0.16152 0.49137 0.0
C540 C 0.27639 0.15176 0.48179 0.0
C541 C 0.28236 0.16429 0.47156 0.0
C542 C 0.29556 0.15495 0.4625 0.0
C543 C 0.30302 0.13312 0.46359 0.0
C544 C 0.29733 0.12059 0.47376 0.0
C545 C 0.28411 0.12985 0.48285 0.0
H546 H 0.31324 0.12591 0.45657 0.0
H547 H 0.1825 0.21253 0.54456 0.0
H548 H 0.10641 0.05425 0.79331 0.0
H549 H 0.10168 0.04271 0.7723 0.0
H550 H 0.05134 0.99599 0.78337 0.0
H551 H 0.055 0.0088 0.80429 0.0
H552 H 0.11111 0.00781 0.76243 0.0
H553 H 0.01877 0.97961 0.76038 0.0
H554 H 0.98248 0.99098 0.76859 0.0
H555 H 0.00637 0.05749 0.77321 0.0
H556 H 0.0427 0.0466 0.76488 0.0
H557 H 0.10389 0.93996 0.71195 0.0
H558 H 0.0992 0.95357 0.73261 0.0
H559 H 0.05292 0.00289 0.71982 0.0
H560 H 0.05647 0.98817 0.69923 0.0
H561 H 0.0407 0.99218 0.74091 0.0
H562 H 0.11052 0.0139 0.72476 0.0
H563 H 0.147 0.00912 0.71502 0.0
H564 H 0.1683 0.9677 0.7444 0.0
H565 H 0.13183 0.972 0.75424 0.0
C566 C 0.09398 0.04188 0.79119 0.0
C567 C 0.08099 0.03249 0.80039 0.0
C568 C 0.09135 0.03516 0.77918 0.0
C569 C 0.07611 0.01842 0.77611 0.0
C570 C 0.06284 0.00929 0.78534 0.0
C571 C 0.065 0.01654 0.79733 0.0
C572 C 0.07544 0.00951 0.76349 0.0
C573 C 0.09564 0.00454 0.75776 0.0
C574 C 0.05538 0.00548 0.75717 0.0
C575 C 0.03353 0.01221 0.76212 0.0
C576 C 0.01625 0.99668 0.76311 0.0
C577 C 0.99568 0.00303 0.76779 0.0
C578 C 0.99215 0.02492 0.77146 0.0
C579 C 0.00916 0.04052 0.77041 0.0
C580 C 0.02975 0.03425 0.76572 0.0
C581 C 0.09238 0.95341 0.71361 0.0
C582 C 0.08064 0.96312 0.70401 0.0
C583 C 0.08984 0.96134 0.72541 0.0
C584 C 0.07627 0.97979 0.72778 0.0
C585 C 0.06361 0.98874 0.71827 0.0
C586 C 0.06564 0.98033 0.7065 0.0
C587 C 0.07633 0.99046 0.73998 0.0
C588 C 0.05609 0.99562 0.74562 0.0
C589 C 0.09638 0.9957 0.74603 0.0
C590 C 0.11838 0.99311 0.74017 0.0
C591 C 0.12294 0.00366 0.7291 0.0
C592 C 0.14362 0.00105 0.72357 0.0
C593 C 0.15994 0.98807 0.72907 0.0
C594 C 0.15563 0.97772 0.74014 0.0
C595 C 0.13497 0.98025 0.7457 0.0
H596 H 0.17594 0.98607 0.72478 0.0
H597 H 0.97621 0.0298 0.77508 0.0
H598 H 0.28603 0.8721 0.9563 0.0
H599 H 0.27551 0.86774 0.97741 0.0
H600 H 0.26843 0.79723 0.97221 0.0
H601 H 0.27875 0.80153 0.95083 0.0
H602 H 0.23361 0.81407 0.98464 0.0
H603 H 0.31192 0.8172 0.9883 0.0
H604 H 0.34973 0.83134 0.98484 0.0
H605 H 0.3322 0.8931 0.00163 0.0
H606 H 0.29417 0.87946 0.00504 0.0
H607 H 0.21999 0.80533 0.04989 0.0
H608 H 0.23325 0.79988 0.02908 0.0
H609 H 0.24064 0.87058 0.02497 0.0
H610 H 0.22739 0.87616 0.04557 0.0
H611 H 0.27796 0.84721 0.01783 0.0
H612 H 0.1984 0.84479 0.01183 0.0
H613 H 0.16072 0.83024 0.01524 0.0
H614 H 0.18148 0.7659 0.00306 0.0
H615 H 0.21939 0.78002 0.99973 0.0
C616 C 0.28244 0.85559 0.95962 0.0
C617 C 0.28331 0.83714 0.95186 0.0
C618 C 0.2765 0.85312 0.97175 0.0
C619 C 0.27142 0.83212 0.97646 0.0
C620 C 0.27236 0.81358 0.96878 0.0
C621 C 0.27836 0.81605 0.95658 0.0
C622 C 0.26443 0.82997 0.98932 0.0
C623 C 0.24353 0.82087 0.99194 0.0
C624 C 0.27723 0.83904 0.99885 0.0
C625 C 0.30013 0.84734 0.99686 0.0
C626 C 0.31607 0.83386 0.99118 0.0
C627 C 0.33756 0.84178 0.98924 0.0
C628 C 0.34335 0.86312 0.993 0.0
C629 C 0.32768 0.87657 0.99872 0.0
C630 C 0.30617 0.86874 1.00068 0.0
C631 C 0.22425 0.81971 0.0445 0.0
C632 C 0.22262 0.84118 0.0494 0.0
C633 C 0.23182 0.81656 0.03262 0.0
C634 C 0.23798 0.83483 0.02548 0.0
C635 C 0.23608 0.85624 0.03032 0.0
C636 C 0.22838 0.8594 0.04211 0.0
C637 C 0.24692 0.83194 0.01306 0.0
C638 C 0.26823 0.84007 0.01055 0.0
C639 C 0.23455 0.82186 0.00367 0.0
C640 C 0.21179 0.81338 0.00568 0.0
C641 C 0.19499 0.82748 0.00999 0.0
C642 C 0.17357 0.81933 0.01189 0.0
C643 C 0.16873 0.79714 0.00941 0.0
C644 C 0.18527 0.78307 0.005 0.0
C645 C 0.20672 0.79115 0.0031 0.0
H646 H 0.15214 0.79086 0.01088 0.0
H647 H 0.36 0.86922 0.99149 0.0
H648 H 0.62373 0.96873 0.79642 0.0
H649 H 0.61937 0.98226 0.77579 0.0
H650 H 0.54871 0.98722 0.78101 0.0
H651 H 0.55292 0.9736 0.80184 0.0
H652 H 0.56098 0.96953 0.75814 0.0
H653 H 0.57712 0.03288 0.78258 0.0
H654 H 0.59759 0.05435 0.79792 0.0
H655 H 0.65677 0.05014 0.77646 0.0
H656 H 0.63675 0.02834 0.76106 0.0
H657 H 0.55394 0.03119 0.70263 0.0
H658 H 0.5494 0.02057 0.72392 0.0
H659 H 0.62048 0.01811 0.72805 0.0
H660 H 0.6251 0.02907 0.707 0.0
H661 H 0.60262 0.03748 0.74702 0.0
H662 H 0.58826 0.97076 0.724 0.0
H663 H 0.56885 0.948 0.70878 0.0
H664 H 0.50727 0.9578 0.72754 0.0
H665 H 0.5263 0.98086 0.74279 0.0
C666 C 0.60719 0.97248 0.79319 0.0
C667 C 0.58867 0.9702 0.80083 0.0
C668 C 0.60475 0.98031 0.78139 0.0
C669 C 0.58376 0.98607 0.77692 0.0
C670 C 0.56507 0.98296 0.78431 0.0
C671 C 0.56751 0.97519 0.7962 0.0
C672 C 0.58174 0.99597 0.76467 0.0
C673 C 0.5697 0.98463 0.75574 0.0
C674 C 0.59338 0.0155 0.76151 0.0
C675 C 0.60545 0.02883 0.7707 0.0
C676 C 0.59454 0.0364 0.78116 0.0
C677 C 0.60606 0.04865 0.78987 0.0
C678 C 0.62848 0.05358 0.78818 0.0
C679 C 0.63941 0.04631 0.77776 0.0
C680 C 0.62797 0.03402 0.76903 0.0
C681 C 0.56858 0.02854 0.70811 0.0
C682 C 0.58988 0.03094 0.7031 0.0
C683 C 0.56597 0.02235 0.72027 0.0
C684 C 0.58461 0.01829 0.72758 0.0
C685 C 0.60584 0.02116 0.72262 0.0
C686 C 0.60845 0.02739 0.71055 0.0
C687 C 0.58236 0.01073 0.74035 0.0
C688 C 0.59359 0.02256 0.74941 0.0
C689 C 0.57007 0.9916 0.74359 0.0
C690 C 0.55864 0.97775 0.73444 0.0
C691 C 0.57055 0.9682 0.72482 0.0
C692 C 0.55963 0.95523 0.7162 0.0
C693 C 0.53683 0.95152 0.71717 0.0
C694 C 0.52492 0.96073 0.72678 0.0
C695 C 0.53576 0.97374 0.73542 0.0
H696 H 0.5284 0.94146 0.71049 0.0
H697 H 0.63737 0.06305 0.79494 0.0
H698 H 0.74194 0.80662 0.44713 0.0
H699 H 0.75451 0.80388 0.46813 0.0
H700 H 0.69933 0.84457 0.47947 0.0
H701 H 0.68796 0.84872 0.45838 0.0
H702 H 0.73137 0.85933 0.48995 0.0
H703 H 0.70623 0.78504 0.48596 0.0
H704 H 0.70254 0.74784 0.47693 0.0
H705 H 0.77227 0.73658 0.48173 0.0
H706 H 0.77644 0.77384 0.49066 0.0
H707 H 0.76147 0.80585 0.55226 0.0
H708 H 0.74707 0.80087 0.53169 0.0
H709 H 0.78703 0.85584 0.51947 0.0
H710 H 0.80027 0.86166 0.54011 0.0
H711 H 0.75979 0.79185 0.51032 0.0
H712 H 0.76231 0.88596 0.49865 0.0
H713 H 0.75961 0.92194 0.50917 0.0
H714 H 0.72324 0.89128 0.53807 0.0
H715 H 0.72547 0.85519 0.52765 0.0
C716 C 0.73233 0.81462 0.45417 0.0
C717 C 0.71399 0.82785 0.45118 0.0
C718 C 0.73945 0.81298 0.46621 0.0
C719 C 0.72784 0.82386 0.47554 0.0
C720 C 0.7088 0.83615 0.47252 0.0
C721 C 0.70217 0.83841 0.46047 0.0
C722 C 0.73642 0.82406 0.48824 0.0
C723 C 0.73742 0.84446 0.49436 0.0
C724 C 0.74408 0.80473 0.49425 0.0
C725 C 0.74167 0.78232 0.48888 0.0
C726 C 0.7208 0.7747 0.48501 0.0
C727 C 0.71862 0.75359 0.47992 0.0
C728 C 0.73717 0.73988 0.47873 0.0
C729 C 0.75792 0.74723 0.48265 0.0
C730 C 0.7602 0.76833 0.48774 0.0
C731 C 0.76733 0.81668 0.54513 0.0
C732 C 0.78176 0.83431 0.54778 0.0
C733 C 0.75911 0.81383 0.53337 0.0
C734 C 0.76545 0.82835 0.52403 0.0
C735 C 0.78124 0.84488 0.52655 0.0
C736 C 0.78896 0.8481 0.53834 0.0
C737 C 0.75479 0.82708 0.51186 0.0
C738 C 0.75353 0.80658 0.50586 0.0
C739 C 0.74588 0.84613 0.50615 0.0
C740 C 0.74426 0.86784 0.51242 0.0
C741 C 0.75366 0.88692 0.50722 0.0
C742 C 0.75223 0.90733 0.51317 0.0
C743 C 0.74132 0.90888 0.5243 0.0
C744 C 0.73175 0.89004 0.52947 0.0
C745 C 0.73311 0.86961 0.52355 0.0
H746 H 0.74025 0.92469 0.52889 0.0
H747 H 0.73544 0.72355 0.47479 0.0
H748 H 0.94996 0.01852 0.30446 0.0
H749 H 0.95736 0.00636 0.28364 0.0
H750 H 0.89483 0.03394 0.2722 0.0
H751 H 0.88725 0.04592 0.29291 0.0
H752 H 0.93161 0.97685 0.27004 0.0
H753 H 0.90127 0.05393 0.24346 0.0
H754 H 0.90054 0.0946 0.24575 0.0
H755 H 0.95741 0.0916 0.26906 0.0
H756 H 0.95868 0.05096 0.26677 0.0
H757 H 0.88922 0.95596 0.21128 0.0
H758 H 0.89619 0.96829 0.232 0.0
H759 H 0.95812 0.99742 0.22075 0.0
H760 H 0.9514 0.98477 0.19994 0.0
H761 H 0.93017 0.02641 0.23421 0.0
H762 H 0.96158 0.95405 0.23751 0.0
H763 H 0.96272 0.91342 0.23521 0.0
H764 H 0.90605 0.90705 0.25846 0.0
H765 H 0.90435 0.94768 0.26076 0.0
C766 C 0.93795 0.02226 0.29747 0.0
C767 C 0.91801 0.03317 0.30033 0.0
C768 C 0.94215 0.0152 0.2856 0.0
C769 C 0.92669 0.01933 0.27637 0.0
C770 C 0.90709 0.03077 0.27916 0.0
C771 C 0.90276 0.03756 0.29101 0.0
C772 C 0.93028 0.01071 0.26393 0.0
C773 C 0.9315 0.98769 0.26221 0.0
C774 C 0.93039 0.02488 0.25372 0.0
C775 C 0.92996 0.04936 0.25501 0.0
C776 C 0.9137 0.06196 0.24902 0.0
C777 C 0.91317 0.085 0.25033 0.0
C778 C 0.92889 0.09567 0.25757 0.0
C779 C 0.9452 0.08331 0.26349 0.0
C780 C 0.94581 0.06026 0.2622 0.0
C781 C 0.90447 0.96474 0.21323 0.0
C782 C 0.91977 0.96938 0.20398 0.0
C783 C 0.90845 0.97173 0.22509 0.0
C784 C 0.92769 0.98373 0.22792 0.0
C785 C 0.94319 0.98814 0.21875 0.0
C786 C 0.93938 0.98082 0.20689 0.0
C787 C 0.93083 0.99254 0.24034 0.0
C788 C 0.93069 0.01559 0.24205 0.0
C789 C 0.93176 0.97841 0.25055 0.0
C790 C 0.93276 0.95394 0.24924 0.0
C791 C 0.94925 0.94401 0.24206 0.0
C792 C 0.95002 0.92096 0.24077 0.0
C793 C 0.93445 0.90766 0.24667 0.0
C794 C 0.9181 0.91737 0.2539 0.0
C795 C 0.91725 0.94041 0.25521 0.0
H796 H 0.93507 0.88982 0.24566 0.0
H797 H 0.92844 0.11351 0.25858 0.0
H798 H 0.77846 0.12553 0.95788 0.0
H799 H 0.76455 0.12979 0.97845 0.0
H800 H 0.76404 0.20082 0.97416 0.0
H801 H 0.778 0.19671 0.95339 0.0
H802 H 0.78068 0.18619 0.99697 0.0
H803 H 0.71682 0.17556 0.97196 0.0
H804 H 0.6944 0.15722 0.95622 0.0
H805 H 0.6942 0.097 0.97692 0.0
H806 H 0.71692 0.11488 0.99271 0.0
H807 H 0.71918 0.19537 0.05229 0.0
H808 H 0.73021 0.19995 0.03107 0.0
H809 H 0.72683 0.12912 0.02599 0.0
H810 H 0.71539 0.12449 0.04696 0.0
H811 H 0.70969 0.14903 0.00714 0.0
H812 H 0.77672 0.15735 0.03068 0.0
H813 H 0.80059 0.17421 0.04629 0.0
H814 H 0.79588 0.23725 0.02843 0.0
H815 H 0.77174 0.2208 0.01279 0.0
C816 C 0.7756 0.14211 0.9613 0.0
C817 C 0.77925 0.16079 0.95395 0.0
C818 C 0.76755 0.1445 0.97307 0.0
C819 C 0.76296 0.1656 0.97778 0.0
C820 C 0.76739 0.18438 0.97067 0.0
C821 C 0.77535 0.182 0.95881 0.0
C822 C 0.75297 0.1677 0.99001 0.0
C823 C 0.76494 0.17847 0.99917 0.0
C824 C 0.73261 0.15729 0.9929 0.0
C825 C 0.71872 0.14654 0.98348 0.0
C826 C 0.71213 0.15837 0.97312 0.0
C827 C 0.69935 0.14806 0.9642 0.0
C828 C 0.69292 0.12595 0.96556 0.0
C829 C 0.6992 0.11412 0.97588 0.0
C830 C 0.71201 0.12435 0.98482 0.0
C831 C 0.7206 0.18081 0.04661 0.0
C832 C 0.71645 0.15956 0.05134 0.0
C833 C 0.72703 0.18344 0.03449 0.0
C834 C 0.72964 0.16485 0.02694 0.0
C835 C 0.72494 0.14373 0.0316 0.0
C836 C 0.71843 0.14111 0.04364 0.0
C837 C 0.73766 0.16704 0.01424 0.0
C838 C 0.72527 0.15707 0.00495 0.0
C839 C 0.75772 0.17802 0.01127 0.0
C840 C 0.77221 0.18792 0.02066 0.0
C841 C 0.78063 0.17485 0.03014 0.0
C842 C 0.79423 0.18432 0.03898 0.0
C843 C 0.79968 0.2068 0.03837 0.0
C844 C 0.7916 0.21985 0.0289 0.0
C845 C 0.77796 0.21046 0.02005 0.0
H846 H 0.81022 0.21411 0.04522 0.0
H847 H 0.68303 0.11799 0.95863 0.0
H848 H 0.94667 0.53351 0.70372 0.0
H849 H 0.9509 0.52194 0.72488 0.0
H850 H 0.87994 0.52482 0.72956 0.0
H851 H 0.87567 0.53681 0.70867 0.0
H852 H 0.89934 0.54167 0.74859 0.0
H853 H 0.90874 0.47518 0.72464 0.0
H854 H 0.92628 0.45182 0.70902 0.0
H855 H 0.98871 0.45656 0.7275 0.0
H856 H 0.97159 0.48019 0.74316 0.0
H857 H 0.87439 0.47194 0.7971 0.0
H858 H 0.87936 0.48609 0.77663 0.0
H859 H 0.95022 0.48669 0.78168 0.0
H860 H 0.9454 0.47246 0.80235 0.0
H861 H 0.93648 0.47058 0.75858 0.0
H862 H 0.92479 0.53382 0.78394 0.0
H863 H 0.90586 0.55585 0.79964 0.0
H864 H 0.84629 0.55624 0.77837 0.0
H865 H 0.86477 0.53391 0.76262 0.0
C866 C 0.93201 0.53187 0.70931 0.0
C867 C 0.91083 0.53604 0.70448 0.0
C868 C 0.93443 0.52512 0.72138 0.0
C869 C 0.91571 0.52222 0.7288 0.0
C870 C 0.89465 0.52693 0.72405 0.0
C871 C 0.89224 0.53376 0.71206 0.0
C872 C 0.91767 0.51394 0.74146 0.0
C873 C 0.90738 0.52607 0.75074 0.0
C874 C 0.92867 0.49386 0.74438 0.0
C875 C 0.93896 0.47967 0.73498 0.0
C876 C 0.92625 0.47139 0.72532 0.0
C877 C 0.93611 0.45807 0.71647 0.0
C878 C 0.95861 0.45277 0.71724 0.0
C879 C 0.97129 0.46072 0.72689 0.0
C880 C 0.96152 0.47407 0.73576 0.0
C881 C 0.89109 0.47486 0.79387 0.0
C882 C 0.90951 0.47118 0.80141 0.0
C883 C 0.89388 0.48304 0.78216 0.0
C884 C 0.91513 0.48775 0.7777 0.0
C885 C 0.93367 0.48325 0.78498 0.0
C886 C 0.93088 0.47514 0.79678 0.0
C887 C 0.91763 0.49804 0.76556 0.0
C888 C 0.92875 0.48633 0.75642 0.0
C889 C 0.90725 0.51843 0.76273 0.0
C890 C 0.89613 0.53205 0.77213 0.0
C891 C 0.90761 0.53847 0.78265 0.0
C892 C 0.89697 0.55103 0.79155 0.0
C893 C 0.87488 0.55741 0.79001 0.0
C894 C 0.8634 0.55128 0.77955 0.0
C895 C 0.87396 0.53869 0.77063 0.0
H896 H 0.86667 0.56713 0.79692 0.0
H897 H 0.96621 0.44246 0.71038 0.0
H898 H 0.80673 0.64583 0.04304 0.0
H899 H 0.7952 0.65048 0.02201 0.0
H900 H 0.746 0.69827 0.03329 0.0
H901 H 0.75882 0.6948 0.05421 0.0
H902 H 0.76113 0.6397 0.01186 0.0
H903 H 0.72805 0.73047 0.01056 0.0
H904 H 0.7374 0.76706 0.01912 0.0
H905 H 0.80505 0.74657 0.02372 0.0
H906 H 0.79617 0.70997 0.01504 0.0
H907 H 0.69344 0.64492 0.9612 0.0
H908 H 0.70671 0.64947 0.98194 0.0
H909 H 0.7533 0.69906 0.96981 0.0
H910 H 0.73884 0.69559 0.94917 0.0
H911 H 0.74191 0.70982 0.99095 0.0
H912 H 0.76759 0.6419 0.9742 0.0
H913 H 0.76501 0.60554 0.9641 0.0
H914 H 0.7246 0.58094 0.99313 0.0
H915 H 0.72671 0.61726 0.00333 0.0
C916 C 0.79382 0.65771 0.04095 0.0
C917 C 0.78375 0.67006 0.05021 0.0
C918 C 0.78709 0.66028 0.02894 0.0
C919 C 0.76968 0.67478 0.02592 0.0
C920 C 0.75983 0.68739 0.0352 0.0
C921 C 0.76708 0.68533 0.0472 0.0
C922 C 0.76089 0.67536 0.01326 0.0
C923 C 0.75708 0.65511 0.00732 0.0
C924 C 0.75585 0.69537 0.00711 0.0
C925 C 0.76137 0.7174 0.01226 0.0
C926 C 0.74493 0.7338 0.01336 0.0
C927 C 0.75015 0.75454 0.01824 0.0
C928 C 0.77179 0.75911 0.022 0.0
C929 C 0.78827 0.74298 0.02085 0.0
C930 C 0.78315 0.72222 0.01596 0.0
C931 C 0.70621 0.6571 0.96303 0.0
C932 C 0.71522 0.66982 0.9536 0.0
C933 C 0.71396 0.65956 0.97487 0.0
C934 C 0.73158 0.67408 0.97745 0.0
C935 C 0.73981 0.68763 0.96811 0.0
C936 C 0.73155 0.68566 0.9563 0.0
C937 C 0.74214 0.67419 0.98967 0.0
C938 C 0.74614 0.69449 0.99552 0.0
C939 C 0.74842 0.65427 0.99555 0.0
C940 C 0.74714 0.63236 0.98947 0.0
C941 C 0.75804 0.62878 0.97839 0.0
C942 C 0.75668 0.60817 0.97265 0.0
C943 C 0.7446 0.59096 0.97795 0.0
C944 C 0.73392 0.5943 0.98902 0.0
C945 C 0.73521 0.61488 0.9948 0.0
H946 H 0.74356 0.57501 0.97349 0.0
H947 H 0.77579 0.77517 0.02578 0.0
H948 H 0.55106 0.52852 0.29907 0.0
H949 H 0.54609 0.51788 0.27781 0.0
H950 H 0.61687 0.52088 0.27245 0.0
H951 H 0.62188 0.53188 0.29346 0.0
H952 H 0.59663 0.53863 0.2538 0.0
H953 H 0.58853 0.47118 0.27706 0.0
H954 H 0.57172 0.44712 0.2926 0.0
H955 H 0.50859 0.45216 0.27486 0.0
H956 H 0.52499 0.4765 0.25929 0.0
H957 H 0.62074 0.47045 0.2045 0.0
H958 H 0.61613 0.48411 0.22509 0.0
H959 H 0.54517 0.48453 0.22049 0.0
H960 H 0.54962 0.47082 0.19968 0.0
H961 H 0.55964 0.46767 0.24339 0.0
H962 H 0.57003 0.53182 0.21861 0.0
H963 H 0.58824 0.55459 0.20298 0.0
H964 H 0.64847 0.55481 0.22368 0.0
H965 H 0.63072 0.53175 0.23936 0.0
C966 C 0.56552 0.52712 0.29332 0.0
C967 C 0.58687 0.531 0.29799 0.0
C968 C 0.56267 0.5209 0.28118 0.0
C969 C 0.58114 0.51829 0.27354 0.0
C970 C 0.60236 0.52277 0.27813 0.0
C971 C 0.6052 0.52903 0.29019 0.0
C972 C 0.57874 0.51051 0.26081 0.0
C973 C 0.58861 0.52306 0.25156 0.0
C974 C 0.56777 0.49049 0.25777 0.0
C975 C 0.55791 0.47587 0.26711 0.0
C976 C 0.57103 0.4673 0.27653 0.0
C977 C 0.56158 0.45359 0.28533 0.0
C978 C 0.53909 0.44817 0.28474 0.0
C979 C 0.526 0.45641 0.27532 0.0
C980 C 0.53536 0.47015 0.26651 0.0
C981 C 0.60409 0.47324 0.20785 0.0
C982 C 0.58554 0.46964 0.20039 0.0
C983 C 0.60151 0.48114 0.21964 0.0
C984 C 0.58033 0.48563 0.22427 0.0
C985 C 0.56166 0.48125 0.21706 0.0
C986 C 0.56425 0.47344 0.20518 0.0
C987 C 0.57806 0.49551 0.23652 0.0
C988 C 0.56732 0.4834 0.24564 0.0
C989 C 0.58838 0.51587 0.23948 0.0
C990 C 0.59907 0.52992 0.23012 0.0
C991 C 0.58721 0.53659 0.21979 0.0
C992 C 0.59744 0.54957 0.21092 0.0
C993 C 0.61951 0.55611 0.21232 0.0
C994 C 0.63138 0.54972 0.2226 0.0
C995 C 0.62123 0.53672 0.23149 0.0
H996 H 0.62741 0.56615 0.20545 0.0
H997 H 0.53181 0.43755 0.29155 0.0
H998 H 0.71282 0.37179 0.54669 0.0
H999 H 0.72337 0.36751 0.52557 0.0
H1000 H 0.73412 0.29757 0.5312 0.0
H1001 H 0.72386 0.30183 0.55259 0.0
H1002 H 0.76772 0.31546 0.51856 0.0
H1003 H 0.68928 0.31553 0.51505 0.0
H1004 H 0.65099 0.32834 0.51852 0.0
H1005 H 0.6661 0.39037 0.50135 0.0
H1006 H 0.70458 0.37807 0.49792 0.0
H1007 H 0.78191 0.30581 0.45348 0.0
H1008 H 0.76887 0.30034 0.47433 0.0
H1009 H 0.75758 0.37066 0.47773 0.0
H1010 H 0.77052 0.37625 0.45707 0.0
H1011 H 0.72186 0.34612 0.48527 0.0
H1012 H 0.80153 0.34684 0.49108 0.0
H1013 H 0.8397 0.33361 0.48766 0.0
H1014 H 0.82145 0.26884 0.50032 0.0
H1015 H 0.78307 0.28163 0.50367 0.0
C1016 C 0.71721 0.35541 0.54346 0.0
C1017 C 0.71741 0.33713 0.55134 0.0
C1018 C 0.72317 0.35298 0.53133 0.0
C1019 C 0.72928 0.33216 0.52673 0.0
C1020 C 0.72939 0.31378 0.53454 0.0
C1021 C 0.72342 0.31622 0.54674 0.0
C1022 C 0.73627 0.33007 0.51386 0.0
C1023 C 0.75749 0.32172 0.51125 0.0
C1024 C 0.72305 0.33843 0.5043 0.0
C1025 C 0.69988 0.34591 0.50629 0.0
C1026 C 0.68449 0.33196 0.51208 0.0
C1027 C 0.66274 0.33913 0.51403 0.0
C1028 C 0.65613 0.36017 0.51017 0.0
C1029 C 0.67125 0.37407 0.50433 0.0
C1030 C 0.69302 0.367 0.50237 0.0
C1031 C 0.77682 0.32011 0.45872 0.0
C1032 C 0.77726 0.34147 0.4536 0.0
C1033 C 0.76939 0.31696 0.47063 0.0
C1034 C 0.76223 0.3351 0.47758 0.0
C1035 C 0.76292 0.35641 0.47252 0.0
C1036 C 0.77044 0.35958 0.4607 0.0
C1037 C 0.7535 0.33216 0.49006 0.0
C1038 C 0.73192 0.33953 0.49257 0.0
C1039 C 0.76632 0.32278 0.49948 0.0
C1040 C 0.78938 0.31511 0.49748 0.0
C1041 C 0.80561 0.32972 0.49303 0.0
C1042 C 0.82729 0.32231 0.49112 0.0
C1043 C 0.83298 0.30037 0.49373 0.0
C1044 C 0.81701 0.28581 0.49828 0.0
C1045 C 0.79529 0.29313 0.50019 0.0
H1046 H 0.84978 0.29467 0.49226 0.0
H1047 H 0.63928 0.36568 0.51169 0.0
H1048 H 0.05585 0.4936 0.30379 0.0
H1049 H 0.05232 0.50649 0.28288 0.0
H1050 H 0.09578 0.4538 0.2711 0.0
H1051 H 0.1006 0.44212 0.29209 0.0
H1052 H 0.10878 0.487 0.26087 0.0
H1053 H 0.03609 0.45742 0.26483 0.0
H1054 H 0.99924 0.45146 0.27392 0.0
H1055 H 0.98393 0.52048 0.26941 0.0
H1056 H 0.02081 0.52691 0.26043 0.0
H1057 H 0.0537 0.51339 0.19859 0.0
H1058 H 0.04942 0.49907 0.21922 0.0
H1059 H 0.10172 0.54255 0.23137 0.0
H1060 H 0.1069 0.55578 0.21068 0.0
H1061 H 0.03962 0.51145 0.24063 0.0
H1062 H 0.13341 0.5197 0.25218 0.0
H1063 H 0.16947 0.51925 0.24164 0.0
H1064 H 0.14105 0.48104 0.21276 0.0
H1065 H 0.10492 0.48102 0.2232 0.0
C1066 C 0.06432 0.4846 0.29668 0.0
C1067 C 0.0785 0.46689 0.29951 0.0
C1068 C 0.06223 0.4919 0.28469 0.0
C1069 C 0.07365 0.48109 0.27526 0.0
C1070 C 0.08694 0.46265 0.27813 0.0
C1071 C 0.08959 0.45585 0.29012 0.0
C1072 C 0.07328 0.4899 0.26262 0.0
C1073 C 0.09356 0.4922 0.25648 0.0
C1074 C 0.0535 0.49645 0.25666 0.0
C1075 C 0.0313 0.49268 0.26206 0.0
C1076 C 0.02493 0.47136 0.26585 0.0
C1077 C 0.00402 0.46789 0.27098 0.0
C1078 C 0.98927 0.48559 0.27227 0.0
C1079 C 0.99538 0.50679 0.26842 0.0
C1080 C 0.01628 0.51035 0.2633 0.0
C1081 C 0.06406 0.52006 0.20572 0.0
C1082 C 0.08081 0.53548 0.20303 0.0
C1083 C 0.06161 0.51188 0.21752 0.0
C1084 C 0.07566 0.51925 0.22685 0.0
C1085 C 0.09117 0.53601 0.2243 0.0
C1086 C 0.09402 0.54371 0.21248 0.0
C1087 C 0.07509 0.50858 0.23903 0.0
C1088 C 0.05473 0.50607 0.24506 0.0
C1089 C 0.09467 0.50082 0.24472 0.0
C1090 C 0.11642 0.50056 0.23843 0.0
C1091 C 0.13489 0.51114 0.24361 0.0
C1092 C 0.15533 0.51098 0.23764 0.0
C1093 C 0.15753 0.50019 0.22651 0.0
C1094 C 0.13931 0.48946 0.22135 0.0
C1095 C 0.11884 0.48954 0.22729 0.0
H1096 H 0.17336 0.5001 0.22191 0.0
H1097 H 0.97309 0.48288 0.27624 0.0
H1098 H 0.26827 0.37248 0.04601 0.0
H1099 H 0.25487 0.36688 0.02544 0.0
H1100 H 0.26506 0.29644 0.02897 0.0
H1101 H 0.27851 0.30189 0.04976 0.0
H1102 H 0.27985 0.3146 0.00642 0.0
H1103 H 0.21456 0.3137 0.03088 0.0
H1104 H 0.18899 0.32718 0.04665 0.0
H1105 H 0.17984 0.38795 0.02705 0.0
H1106 H 0.20563 0.37497 0.01124 0.0
H1107 H 0.22167 0.30084 0.9502 0.0
H1108 H 0.23236 0.29607 0.97147 0.0
H1109 H 0.22013 0.36552 0.97794 0.0
H1110 H 0.2092 0.37032 0.95689 0.0
H1111 H 0.20441 0.34142 0.9961 0.0
H1112 H 0.27279 0.34506 0.97336 0.0
H1113 H 0.29942 0.33319 0.95772 0.0
H1114 H 0.30344 0.26872 0.97405 0.0
H1115 H 0.27659 0.28016 0.98971 0.0
C1116 C 0.26781 0.35577 0.04244 0.0
C1117 C 0.27439 0.33761 0.04957 0.0
C1118 C 0.26006 0.3526 0.03067 0.0
C1119 C 0.25871 0.33123 0.02573 0.0
C1120 C 0.26589 0.31307 0.03264 0.0
C1121 C 0.27353 0.31621 0.04451 0.0
C1122 C 0.24943 0.32819 0.01339 0.0
C1123 C 0.26319 0.31999 0.00419 0.0
C1124 C 0.22782 0.33558 0.01046 0.0
C1125 C 0.21216 0.34341 0.01991 0.0
C1126 C 0.20723 0.33 0.02997 0.0
C1127 C 0.19267 0.33755 0.03891 0.0
C1128 C 0.18283 0.35843 0.03786 0.0
C1129 C 0.18748 0.37179 0.02786 0.0
C1130 C 0.20205 0.36433 0.01889 0.0
C1131 C 0.22106 0.31502 0.95619 0.0
C1132 C 0.21465 0.33597 0.95183 0.0
C1133 C 0.22729 0.3123 0.96833 0.0
C1134 C 0.22728 0.33049 0.97629 0.0
C1135 C 0.22027 0.35123 0.972 0.0
C1136 C 0.21407 0.35396 0.95992 0.0
C1137 C 0.23501 0.32836 0.98902 0.0
C1138 C 0.22093 0.33562 0.99833 0.0
C1139 C 0.25637 0.32025 0.99201 0.0
C1140 C 0.27248 0.31337 0.98261 0.0
C1141 C 0.27921 0.3283 0.97355 0.0
C1142 C 0.29437 0.32166 0.9647 0.0
C1143 C 0.30305 0.30019 0.96486 0.0
C1144 C 0.29665 0.28533 0.97391 0.0
C1145 C 0.28147 0.29188 0.98279 0.0
H1146 H 0.3148 0.29508 0.958 0.0
H1147 H 0.17156 0.36424 0.0448 0.0
H1148 H 0.37665 0.52819 0.79589 0.0
H1149 H 0.38112 0.51371 0.77545 0.0
H1150 H 0.45194 0.51087 0.78046 0.0
H1151 H 0.44763 0.52542 0.8011 0.0
H1152 H 0.43866 0.5274 0.75739 0.0
H1153 H 0.42497 0.46459 0.78274 0.0
H1154 H 0.40535 0.4432 0.79845 0.0
H1155 H 0.34582 0.44462 0.77717 0.0
H1156 H 0.36499 0.46632 0.76141 0.0
H1157 H 0.447 0.46461 0.70248 0.0
H1158 H 0.4515 0.47575 0.72369 0.0
H1159 H 0.38047 0.475 0.72829 0.0
H1160 H 0.37592 0.46343 0.70734 0.0
H1161 H 0.39927 0.45756 0.74736 0.0
H1162 H 0.4107 0.52378 0.72349 0.0
H1163 H 0.4289 0.54664 0.70788 0.0
H1164 H 0.49122 0.5399 0.72629 0.0
H1165 H 0.47342 0.51675 0.74194 0.0
C1166 C 0.39324 0.5247 0.79266 0.0
C1167 C 0.41179 0.52786 0.80018 0.0
C1168 C 0.39574 0.51633 0.78097 0.0
C1169 C 0.41682 0.5109 0.7765 0.0
C1170 C 0.43551 0.51486 0.78376 0.0
C1171 C 0.43301 0.52316 0.79555 0.0
C1172 C 0.41897 0.50054 0.76436 0.0
C1173 C 0.43044 0.5119 0.75523 0.0
C1174 C 0.40793 0.4805 0.76152 0.0
C1175 C 0.3964 0.46722 0.77093 0.0
C1176 C 0.40766 0.46048 0.78145 0.0
C1177 C 0.39662 0.44828 0.79036 0.0
C1178 C 0.37434 0.44259 0.78882 0.0
C1179 C 0.36308 0.44905 0.77835 0.0
C1180 C 0.37403 0.46127 0.76942 0.0
C1181 C 0.43238 0.46662 0.70806 0.0
C1182 C 0.4111 0.46318 0.70319 0.0
C1183 C 0.43496 0.47312 0.72016 0.0
C1184 C 0.4163 0.47652 0.72758 0.0
C1185 C 0.39513 0.47249 0.72279 0.0
C1186 C 0.39255 0.46591 0.71076 0.0
C1187 C 0.41848 0.4847 0.74024 0.0
C1188 C 0.40781 0.47289 0.74952 0.0
C1189 C 0.4301 0.50441 0.74318 0.0
C1190 C 0.4408 0.51832 0.73379 0.0
C1191 C 0.42832 0.52703 0.72415 0.0
C1192 C 0.43855 0.54006 0.71531 0.0
C1193 C 0.46121 0.54466 0.71607 0.0
C1194 C 0.47368 0.53628 0.7257 0.0
C1195 C 0.46353 0.52322 0.73455 0.0
H1196 H 0.4691 0.55476 0.70922 0.0
H1197 H 0.36583 0.43316 0.79574 0.0
H1198 H 0.22232 0.69421 0.552 0.0
H1199 H 0.23593 0.69861 0.53118 0.0
H1200 H 0.23533 0.62763 0.52658 0.0
H1201 H 0.22172 0.62309 0.54719 0.0
H1202 H 0.27521 0.64689 0.51984 0.0
H1203 H 0.19649 0.65847 0.51345 0.0
H1204 H 0.16071 0.67727 0.51679 0.0
H1205 H 0.18903 0.73896 0.50509 0.0
H1206 H 0.22509 0.72056 0.50184 0.0
H1207 H 0.28421 0.62323 0.45827 0.0
H1208 H 0.27292 0.62788 0.47924 0.0
H1209 H 0.27128 0.69884 0.47448 0.0
H1210 H 0.28216 0.69424 0.45321 0.0
H1211 H 0.23559 0.68546 0.48662 0.0
H1212 H 0.31301 0.67393 0.49091 0.0
H1213 H 0.34924 0.65599 0.48765 0.0
H1214 H 0.32479 0.59594 0.50365 0.0
H1215 H 0.28829 0.6134 0.50687 0.0
C1216 C 0.22485 0.67957 0.54649 0.0
C1217 C 0.22094 0.6583 0.55127 0.0
C1218 C 0.23262 0.68211 0.53461 0.0
C1219 C 0.2367 0.66343 0.52734 0.0
C1220 C 0.23241 0.64227 0.53204 0.0
C1221 C 0.22451 0.63972 0.54383 0.0
C1222 C 0.24615 0.66556 0.51498 0.0
C1223 C 0.2665 0.6552 0.51255 0.0
C1224 C 0.23521 0.67717 0.5056 0.0
C1225 C 0.21355 0.6882 0.50755 0.0
C1226 C 0.19514 0.67609 0.5117 0.0
C1227 C 0.1748 0.68666 0.51355 0.0
C1228 C 0.17262 0.70931 0.5112 0.0
C1229 C 0.19076 0.72142 0.50694 0.0
C1230 C 0.21115 0.71093 0.50508 0.0
C1231 C 0.28166 0.63988 0.46166 0.0
C1232 C 0.28422 0.65838 0.45405 0.0
C1233 C 0.27527 0.64252 0.47371 0.0
C1234 C 0.27157 0.66374 0.47854 0.0
C1235 C 0.27413 0.68231 0.47098 0.0
C1236 C 0.28045 0.67966 0.45885 0.0
C1237 C 0.26438 0.66616 0.49137 0.0
C1238 C 0.24452 0.67742 0.49392 0.0
C1239 C 0.27588 0.65555 0.50093 0.0
C1240 C 0.29785 0.64496 0.49906 0.0
C1241 C 0.3153 0.65685 0.49367 0.0
C1242 C 0.3359 0.64677 0.49183 0.0
C1243 C 0.33931 0.62483 0.49542 0.0
C1244 C 0.32213 0.61293 0.50088 0.0
C1245 C 0.30149 0.62293 0.50272 0.0
H1246 H 0.35526 0.61705 0.49399 0.0
H1247 H 0.15685 0.71747 0.51263 0.0
H1248 H 0.35339 0.99234 0.15735 0.0
H1249 H 0.33459 0.96018 0.14901 0.0
H1250 H 0.39451 0.94103 0.13037 0.0
H1251 H 0.41321 0.9741 0.13827 0.0
H1252 H 0.3629 0.93601 0.11588 0.0
H1253 H 0.3734 0.91123 0.15569 0.0
H1254 H 0.37407 0.91272 0.17798 0.0
H1255 H 0.3033 0.9202 0.17868 0.0
H1256 H 0.30221 0.91912 0.15639 0.0
H1257 H 0.27497 0.83775 0.11858 0.0
H1258 H 0.30742 0.85648 0.12717 0.0
H1259 H 0.29398 0.91372 0.10491 0.0
H1260 H 0.26243 0.89485 0.09598 0.0
H1261 H 0.31119 0.89043 0.14036 0.0
H1262 H 0.33748 0.94301 0.09803 0.0
H1263 H 0.34055 0.93798 0.07595 0.0
H1264 H 0.34513 0.86749 0.0807 0.0
H1265 H 0.34242 0.87209 0.10281 0.0
C1266 C 0.36268 0.9812 0.15157 0.0
C1267 C 0.38481 0.98574 0.14849 0.0
C1268 C 0.35193 0.96265 0.14687 0.0
C1269 C 0.36322 0.9478 0.13927 0.0
C1270 C 0.38545 0.95216 0.13627 0.0
C1271 C 0.39613 0.97104 0.14079 0.0
C1272 C 0.35115 0.92871 0.13386 0.0
C1273 C 0.35179 0.92587 0.12126 0.0
C1274 C 0.33729 0.91476 0.14089 0.0
C1275 C 0.33775 0.91517 0.15433 0.0
C1276 C 0.35798 0.9133 0.16059 0.0
C1277 C 0.35844 0.91407 0.17323 0.0
C1278 C 0.33874 0.91657 0.17974 0.0
C1279 C 0.31854 0.91825 0.17362 0.0
C1280 C 0.31799 0.91752 0.16098 0.0
C1281 C 0.27918 0.85421 0.11542 0.0
C1282 C 0.2662 0.86476 0.10655 0.0
C1283 C 0.2977 0.86491 0.12034 0.0
C1284 C 0.30346 0.8864 0.11656 0.0
C1285 C 0.29041 0.8969 0.10773 0.0
C1286 C 0.2722 0.88612 0.10268 0.0
C1287 C 0.32205 0.89868 0.12234 0.0
C1288 C 0.32266 0.9002 0.13501 0.0
C1289 C 0.3377 0.91076 0.11542 0.0
C1290 C 0.33963 0.90791 0.1021 0.0
C1291 C 0.3393 0.92644 0.09438 0.0
C1292 C 0.34094 0.92366 0.08185 0.0
C1293 C 0.343 0.90243 0.07693 0.0
C1294 C 0.34348 0.88393 0.08452 0.0
C1295 C 0.34186 0.88661 0.09706 0.0
H1296 H 0.34424 0.90031 0.06723 0.0
H1297 H 0.33914 0.91719 0.18953 0.0
H1298 H 0.27499 0.16246 0.3875 0.0
H1299 H 0.30641 0.14131 0.3795 0.0
H1300 H 0.28317 0.08306 0.39832 0.0
H1301 H 0.25257 0.10429 0.40676 0.0
H1302 H 0.32508 0.08298 0.39934 0.0
H1303 H 0.27214 0.09441 0.3671 0.0
H1304 H 0.24905 0.11665 0.35323 0.0
H1305 H 0.30734 0.14837 0.33917 0.0
H1306 H 0.33075 0.12647 0.35306 0.0
H1307 H 0.35389 0.00749 0.34554 0.0
H1308 H 0.33271 0.03813 0.35398 0.0
H1309 H 0.38863 0.05655 0.37618 0.0
H1310 H 0.40973 0.02521 0.36808 0.0
H1311 H 0.33462 0.08055 0.35478 0.0
H1312 H 0.37017 0.07632 0.40315 0.0
H1313 H 0.38839 0.04952 0.41679 0.0
H1314 H 0.35673 0.99566 0.39817 0.0
H1315 H 0.33814 0.02215 0.38453 0.0
C1316 C 0.27677 0.14521 0.39002 0.0
C1317 C 0.26123 0.135 0.3977 0.0
C1318 C 0.29467 0.1331 0.38541 0.0
C1319 C 0.29699 0.11045 0.38812 0.0
C1320 C 0.28184 0.1005 0.3961 0.0
C1321 C 0.26426 0.11267 0.40089 0.0
C1322 C 0.31438 0.09662 0.38229 0.0
C1323 C 0.32729 0.08262 0.3896 0.0
C1324 C 0.31718 0.09589 0.36956 0.0
C1325 C 0.30315 0.10902 0.36121 0.0
C1326 C 0.28001 0.10624 0.3611 0.0
C1327 C 0.26687 0.11876 0.35324 0.0
C1328 C 0.27672 0.13396 0.34536 0.0
C1329 C 0.29973 0.13662 0.3453 0.0
C1330 C 0.31294 0.12416 0.35316 0.0
C1331 C 0.36182 0.01816 0.35213 0.0
C1332 C 0.38342 0.01374 0.35624 0.0
C1333 C 0.34968 0.03577 0.35693 0.0
C1334 C 0.35892 0.04949 0.36586 0.0
C1335 C 0.38097 0.04591 0.36948 0.0
C1336 C 0.39304 0.02804 0.36481 0.0
C1337 C 0.34485 0.06652 0.37181 0.0
C1338 C 0.33269 0.08122 0.36453 0.0
C1339 C 0.34207 0.06726 0.38453 0.0
C1340 C 0.35304 0.0512 0.39273 0.0
C1341 C 0.36709 0.05876 0.40199 0.0
C1342 C 0.37747 0.04362 0.40972 0.0
C1343 C 0.37379 0.02089 0.40831 0.0
C1344 C 0.35964 0.01325 0.39921 0.0
C1345 C 0.3492 0.02832 0.39148 0.0
H1346 H 0.38186 0.00921 0.4143 0.0
H1347 H 0.26652 0.14364 0.33927 0.0
H1348 H 0.14176 0.00683 0.66475 0.0
H1349 H 0.16461 0.03749 0.65752 0.0
H1350 H 0.12057 0.04652 0.62717 0.0
H1351 H 0.09747 0.01599 0.63439 0.0
H1352 H 0.18695 0.03855 0.63671 0.0
H1353 H 0.12214 0.10128 0.61849 0.0
H1354 H 0.08433 0.11413 0.62332 0.0
H1355 H 0.09348 0.09543 0.66047 0.0
H1356 H 0.13143 0.08276 0.65591 0.0
H1357 H 0.23484 0.10783 0.59339 0.0
H1358 H 0.20672 0.08525 0.60334 0.0
H1359 H 0.20415 0.13163 0.63298 0.0
H1360 H 0.23245 0.15448 0.6231 0.0
H1361 H 0.1617 0.11434 0.62594 0.0
H1362 H 0.23448 0.08909 0.63706 0.0
H1363 H 0.27284 0.07697 0.63308 0.0
H1364 H 0.24859 0.02181 0.61239 0.0
H1365 H 0.21007 0.03381 0.6161 0.0
C1366 C 0.13674 0.01549 0.65662 0.0
C1367 C 0.11783 0.00884 0.65011 0.0
C1368 C 0.14985 0.033 0.65249 0.0
C1369 C 0.14426 0.04433 0.64184 0.0
C1370 C 0.12504 0.0382 0.63551 0.0
C1371 C 0.11192 0.02065 0.63962 0.0
C1372 C 0.15945 0.06136 0.63685 0.0
C1373 C 0.18141 0.05514 0.63441 0.0
C1374 C 0.15229 0.08307 0.63395 0.0
C1375 C 0.12957 0.09088 0.63682 0.0
C1376 C 0.11612 0.1 0.6277 0.0
C1377 C 0.09465 0.10723 0.63039 0.0
C1378 C 0.08649 0.10554 0.64219 0.0
C1379 C 0.09979 0.09666 0.65133 0.0
C1380 C 0.12127 0.08941 0.64869 0.0
C1381 C 0.22812 0.11348 0.60194 0.0
C1382 C 0.23611 0.13287 0.60752 0.0
C1383 C 0.21204 0.10051 0.60761 0.0
C1384 C 0.20359 0.10667 0.61894 0.0
C1385 C 0.21053 0.12663 0.62423 0.0
C1386 C 0.22675 0.1396 0.61859 0.0
C1387 C 0.18892 0.09128 0.62562 0.0
C1388 C 0.16715 0.09777 0.62832 0.0
C1389 C 0.19627 0.06985 0.62892 0.0
C1390 C 0.21941 0.06246 0.62677 0.0
C1391 C 0.23733 0.07447 0.63158 0.0
C1392 C 0.2591 0.06761 0.62939 0.0
C1393 C 0.26315 0.04866 0.62246 0.0
C1394 C 0.24543 0.0365 0.61775 0.0
C1395 C 0.22363 0.04331 0.6199 0.0
H1396 H 0.28001 0.04337 0.62077 0.0
H1397 H 0.06986 0.11114 0.64425 0.0
H1398 H 0.1291 0.97814 0.83947 0.0
H1399 H 0.15114 0.94776 0.84797 0.0
H1400 H 0.12077 0.95824 0.88281 0.0
H1401 H 0.0984 0.98832 0.87439 0.0
H1402 H 0.16885 0.95932 0.88213 0.0
H1403 H 0.10737 0.914 0.86951 0.0
H1404 H 0.08008 0.89954 0.8549 0.0
H1405 H 0.13279 0.87475 0.83257 0.0
H1406 H 0.16042 0.88936 0.84696 0.0
H1407 H 0.22568 0.87496 0.91257 0.0
H1408 H 0.19499 0.89721 0.90479 0.0
H1409 H 0.21085 0.87649 0.86842 0.0
H1410 H 0.24092 0.85342 0.87622 0.0
H1411 H 0.16819 0.87998 0.87028 0.0
H1412 H 0.22945 0.92678 0.88059 0.0
H1413 H 0.25857 0.94257 0.89367 0.0
H1414 H 0.209 0.96643 0.91833 0.0
H1415 H 0.17957 0.95051 0.90547 0.0
C1416 C 0.12688 0.97375 0.8489 0.0
C1417 C 0.11207 0.98568 0.85627 0.0
C1418 C 0.13941 0.95637 0.85371 0.0
C1419 C 0.13751 0.95082 0.866 0.0
C1420 C 0.12238 0.9623 0.8733 0.0
C1421 C 0.10959 0.97942 0.86846 0.0
C1422 C 0.15263 0.93432 0.87144 0.0
C1423 C 0.16849 0.94188 0.87973 0.0
C1424 C 0.15256 0.91181 0.86791 0.0
C1425 C 0.13597 0.90297 0.85926 0.0
C1426 C 0.11315 0.90565 0.86143 0.0
C1427 C 0.09762 0.89738 0.8532 0.0
C1428 C 0.1047 0.88628 0.8428 0.0
C1429 C 0.12733 0.88337 0.84062 0.0
C1430 C 0.14293 0.89163 0.84882 0.0
C1431 C 0.22242 0.87491 0.90294 0.0
C1432 C 0.23584 0.86264 0.89499 0.0
C1433 C 0.20494 0.88771 0.89848 0.0
C1434 C 0.20096 0.88899 0.88598 0.0
C1435 C 0.21365 0.87586 0.87809 0.0
C1436 C 0.23087 0.86271 0.88256 0.0
C1437 C 0.18449 0.90493 0.88106 0.0
C1438 C 0.16847 0.89736 0.87281 0.0
C1439 C 0.18469 0.92762 0.8844 0.0
C1440 C 0.20233 0.93724 0.89214 0.0
C1441 C 0.22477 0.93525 0.88885 0.0
C1442 C 0.24133 0.94424 0.89621 0.0
C1443 C 0.23564 0.95544 0.90684 0.0
C1444 C 0.21338 0.95771 0.91011 0.0
C1445 C 0.19675 0.94872 0.90278 0.0
H1446 H 0.24849 0.96239 0.91253 0.0
H1447 H 0.09264 0.87989 0.83644 0.0
H1448 H 0.72269 0.16527 0.88693 0.0
H1449 H 0.69039 0.14607 0.87855 0.0
H1450 H 0.70705 0.08782 0.89934 0.0
H1451 H 0.73862 0.10711 0.90806 0.0
H1452 H 0.68796 0.11249 0.86465 0.0
H1453 H 0.66414 0.05685 0.90608 0.0
H1454 H 0.66244 0.06014 0.92829 0.0
H1455 H 0.65639 0.13083 0.92527 0.0
H1456 H 0.65771 0.12797 0.90303 0.0
H1457 H 0.64455 0.0109 0.84667 0.0
H1458 H 0.66405 0.04264 0.85507 0.0
H1459 H 0.60488 0.06229 0.87425 0.0
H1460 H 0.58546 0.02982 0.86624 0.0
H1461 H 0.63735 0.06507 0.88876 0.0
H1462 H 0.62571 0.09255 0.84937 0.0
H1463 H 0.62465 0.09213 0.82707 0.0
H1464 H 0.69533 0.0841 0.82589 0.0
H1465 H 0.69681 0.08412 0.84819 0.0
C1466 C 0.71923 0.14848 0.88985 0.0
C1467 C 0.73318 0.13774 0.89819 0.0
C1468 C 0.7008 0.13751 0.88503 0.0
C1469 C 0.69607 0.11557 0.88842 0.0
C1470 C 0.70992 0.10493 0.89681 0.0
C1471 C 0.72811 0.11596 0.90175 0.0
C1472 C 0.67766 0.10312 0.88261 0.0
C1473 C 0.67672 0.10231 0.86992 0.0
C1474 C 0.66245 0.09039 0.88947 0.0
C1475 C 0.66115 0.09219 0.90286 0.0
C1476 C 0.66228 0.07309 0.91014 0.0
C1477 C 0.66142 0.07488 0.92274 0.0
C1478 C 0.65935 0.09568 0.92819 0.0
C1479 C 0.65805 0.11474 0.92104 0.0
C1480 C 0.65888 0.11304 0.90843 0.0
C1481 C 0.63556 0.0221 0.85255 0.0
C1482 C 0.61345 0.01783 0.85579 0.0
C1483 C 0.64672 0.04039 0.8573 0.0
C1484 C 0.63587 0.05514 0.86516 0.0
C1485 C 0.61361 0.05119 0.8682 0.0
C1486 C 0.60251 0.03265 0.86359 0.0
C1487 C 0.64839 0.07366 0.87081 0.0
C1488 C 0.64823 0.07561 0.88347 0.0
C1489 C 0.66205 0.08799 0.86392 0.0
C1490 C 0.66135 0.08825 0.85048 0.0
C1491 C 0.64102 0.09059 0.84436 0.0
C1492 C 0.64035 0.09042 0.83172 0.0
C1493 C 0.65991 0.08807 0.82507 0.0
C1494 C 0.68019 0.08593 0.83105 0.0
C1495 C 0.68097 0.08606 0.8437 0.0
H1496 H 0.65934 0.08791 0.81528 0.0
H1497 H 0.65875 0.09704 0.93795 0.0
H1498 H 0.62375 0.97315 0.66286 0.0
H1499 H 0.6457 0.94243 0.65482 0.0
H1500 H 0.62918 0.96254 0.61844 0.0
H1501 H 0.60632 0.99257 0.62646 0.0
H1502 H 0.63139 0.91984 0.61898 0.0
H1503 H 0.67881 0.97842 0.63305 0.0
H1504 H 0.69383 0.00515 0.64782 0.0
H1505 H 0.71329 0.95159 0.6711 0.0
H1506 H 0.69813 0.92454 0.65653 0.0
H1507 H 0.72928 0.8832 0.5882 0.0
H1508 H 0.69871 0.9039 0.59735 0.0
H1509 H 0.71023 0.87083 0.63136 0.0
H1510 H 0.74073 0.84991 0.62229 0.0
H1511 H 0.70953 0.9172 0.63291 0.0
H1512 H 0.66496 0.85862 0.61638 0.0
H1513 H 0.65138 0.83375 0.60031 0.0
H1514 H 0.62841 0.88984 0.57995 0.0
H1515 H 0.64215 0.91509 0.59583 0.0
C1516 C 0.62454 0.97079 0.65316 0.0
C1517 C 0.61352 0.98538 0.64528 0.0
C1518 C 0.63718 0.9533 0.64856 0.0
C1519 C 0.6396 0.95051 0.63601 0.0
C1520 C 0.62767 0.96439 0.62815 0.0
C1521 C 0.61463 0.98158 0.63275 0.0
C1522 C 0.65559 0.93411 0.63103 0.0
C1523 C 0.64851 0.91938 0.62197 0.0
C1524 C 0.67792 0.93326 0.63502 0.0
C1525 C 0.68712 0.94948 0.64377 0.0
C1526 C 0.68616 0.97236 0.64136 0.0
C1527 C 0.69471 0.98756 0.64969 0.0
C1528 C 0.70445 0.98007 0.66041 0.0
C1529 C 0.70571 0.95736 0.66281 0.0
C1530 C 0.69715 0.94209 0.65451 0.0
C1531 C 0.72514 0.8801 0.59759 0.0
C1532 C 0.73752 0.86498 0.60453 0.0
C1533 C 0.7076 0.89187 0.60278 0.0
C1534 C 0.7022 0.88882 0.61502 0.0
C1535 C 0.71414 0.87336 0.62189 0.0
C1536 C 0.73152 0.8614 0.61668 0.0
C1537 C 0.68533 0.90308 0.62086 0.0
C1538 C 0.69233 0.91749 0.63004 0.0
C1539 C 0.66312 0.90391 0.6168 0.0
C1540 C 0.65476 0.88876 0.60726 0.0
C1541 C 0.65718 0.86567 0.60844 0.0
C1542 C 0.64942 0.8515 0.59937 0.0
C1543 C 0.63908 0.86021 0.5891 0.0
C1544 C 0.63644 0.88312 0.5879 0.0
C1545 C 0.64418 0.89736 0.59694 0.0
H1546 H 0.63309 0.84921 0.58209 0.0
H1547 H 0.71106 0.99187 0.66685 0.0
H1548 H 0.76749 0.84387 0.38095 0.0
H1549 H 0.79707 0.86758 0.37318 0.0
H1550 H 0.78981 0.91081 0.40403 0.0
H1551 H 0.76002 0.8874 0.41179 0.0
H1552 H 0.7892 0.93385 0.38371 0.0
H1553 H 0.83549 0.8778 0.40082 0.0
H1554 H 0.84895 0.83981 0.40451 0.0
H1555 H 0.86425 0.83252 0.36677 0.0
H1556 H 0.85059 0.87038 0.36283 0.0
H1557 H 0.90549 0.97832 0.36933 0.0
H1558 H 0.88246 0.94924 0.37825 0.0
H1559 H 0.83349 0.95908 0.35034 0.0
H1560 H 0.85625 0.98828 0.3414 0.0
H1561 H 0.86411 0.90972 0.37061 0.0
H1562 H 0.78282 0.95886 0.36381 0.0
H1563 H 0.77051 0.99767 0.36161 0.0
H1564 H 0.82715 0.01988 0.38177 0.0
H1565 H 0.83962 0.98121 0.38424 0.0
C1566 C 0.77237 0.85826 0.38618 0.0
C1567 C 0.76127 0.86381 0.39696 0.0
C1568 C 0.78937 0.87174 0.38174 0.0
C1569 C 0.79569 0.89093 0.38804 0.0
C1570 C 0.78515 0.89611 0.399 0.0
C1571 C 0.76814 0.88267 0.40344 0.0
C1572 C 0.81211 0.90648 0.38277 0.0
C1573 C 0.80558 0.92853 0.38088 0.0
C1574 C 0.83358 0.89964 0.37918 0.0
C1575 C 0.84183 0.87687 0.38151 0.0
C1576 C 0.84155 0.86804 0.39329 0.0
C1577 C 0.84925 0.84653 0.39543 0.0
C1578 C 0.8574 0.83374 0.38588 0.0
C1579 C 0.85791 0.84244 0.37416 0.0
C1580 C 0.85022 0.86393 0.37197 0.0
C1581 C 0.88996 0.9741 0.36497 0.0
C1582 C 0.88258 0.98584 0.35473 0.0
C1583 C 0.87687 0.95742 0.37007 0.0
C1584 C 0.85616 0.95226 0.36505 0.0
C1585 C 0.84932 0.96305 0.35444 0.0
C1586 C 0.86238 0.97971 0.34933 0.0
C1587 C 0.84097 0.93686 0.37139 0.0
C1588 C 0.8477 0.91492 0.37346 0.0
C1589 C 0.81979 0.94386 0.37536 0.0
C1590 C 0.81225 0.96716 0.3741 0.0
C1591 C 0.79259 0.97203 0.36781 0.0
C1592 C 0.78559 0.994 0.36651 0.0
C1593 C 0.79808 0.01123 0.37151 0.0
C1594 C 0.81754 0.00652 0.37786 0.0
C1595 C 0.82459 0.98459 0.3792 0.0
H1596 H 0.79265 0.02823 0.37048 0.0
H1597 H 0.86336 0.81709 0.38755 0.0
H1598 H 0.77675 0.16212 0.11768 0.0
H1599 H 0.80903 0.14253 0.12578 0.0
H1600 H 0.79079 0.08429 0.10538 0.0
H1601 H 0.7592 0.10399 0.09691 0.0
H1602 H 0.81137 0.1094 0.1398 0.0
H1603 H 0.83309 0.05211 0.09873 0.0
H1604 H 0.83445 0.05456 0.07647 0.0
H1605 H 0.84161 0.12525 0.07871 0.0
H1606 H 0.84062 0.12322 0.10098 0.0
H1607 H 0.85681 0.00891 0.15879 0.0
H1608 H 0.83633 0.03991 0.15021 0.0
H1609 H 0.89398 0.05913 0.12958 0.0
H1610 H 0.91434 0.0274 0.13777 0.0
H1611 H 0.86079 0.0608 0.11566 0.0
H1612 H 0.87417 0.09049 0.15445 0.0
H1613 H 0.87622 0.09163 0.17672 0.0
H1614 H 0.80569 0.08306 0.17901 0.0
H1615 H 0.80323 0.08155 0.15676 0.0
C1616 C 0.77985 0.14525 0.11478 0.0
C1617 C 0.76544 0.13462 0.10663 0.0
C1618 C 0.79828 0.13405 0.11944 0.0
C1619 C 0.80255 0.11199 0.1161 0.0
C1620 C 0.78826 0.10148 0.10787 0.0
C1621 C 0.77008 0.11274 0.10307 0.0
C1622 C 0.82091 0.09932 0.12183 0.0
C1623 C 0.82232 0.09894 0.13451 0.0
C1624 C 0.83575 0.08618 0.11496 0.0
C1625 C 0.83664 0.0875 0.10154 0.0
C1626 C 0.8351 0.06816 0.09448 0.0
C1627 C 0.83577 0.06948 0.08186 0.0
C1628 C 0.83807 0.09005 0.07618 0.0
C1629 C 0.83976 0.10934 0.08312 0.0
C1630 C 0.83911 0.10811 0.09574 0.0
C1631 C 0.86525 0.01988 0.15254 0.0
C1632 C 0.88721 0.01568 0.14895 0.0
C1633 C 0.85354 0.03773 0.14769 0.0
C1634 C 0.86367 0.05214 0.13937 0.0
C1635 C 0.88579 0.04828 0.13598 0.0
C1636 C 0.89742 0.03017 0.14069 0.0
C1637 C 0.85059 0.07021 0.13363 0.0
C1638 C 0.85015 0.07157 0.12095 0.0
C1639 C 0.83721 0.08482 0.14051 0.0
C1640 C 0.83854 0.08579 0.15392 0.0
C1641 C 0.85911 0.08871 0.1597 0.0
C1642 C 0.86034 0.08944 0.17233 0.0
C1643 C 0.8411 0.08739 0.17928 0.0
C1644 C 0.82058 0.08465 0.17361 0.0
C1645 C 0.81925 0.08389 0.16099 0.0
H1646 H 0.8421 0.08796 0.18905 0.0
H1647 H 0.83857 0.09103 0.0664 0.0
H1648 H 0.78043 0.33826 0.61688 0.0
H1649 H 0.81137 0.35992 0.62498 0.0
H1650 H 0.78869 0.41719 0.60511 0.0
H1651 H 0.7585 0.39546 0.59659 0.0
H1652 H 0.8309 0.41754 0.60493 0.0
H1653 H 0.77556 0.4073 0.63599 0.0
H1654 H 0.75137 0.38565 0.64956 0.0
H1655 H 0.80847 0.35469 0.66547 0.0
H1656 H 0.83299 0.37599 0.65187 0.0
H1657 H 0.85559 0.49462 0.65886 0.0
H1658 H 0.83502 0.46393 0.65004 0.0
H1659 H 0.89251 0.44528 0.62912 0.0
H1660 H 0.91298 0.47673 0.63757 0.0
H1661 H 0.83699 0.42176 0.64963 0.0
H1662 H 0.87623 0.42411 0.60208 0.0
H1663 H 0.89552 0.45035 0.58856 0.0
H1664 H 0.86245 0.50495 0.60578 0.0
H1665 H 0.8428 0.47901 0.61929 0.0
C1666 C 0.78224 0.35539 0.61413 0.0
C1667 C 0.76691 0.3652 0.60618 0.0
C1668 C 0.79988 0.36778 0.6188 0.0
C1669 C 0.80215 0.39033 0.61585 0.0
C1670 C 0.78735 0.39984 0.60753 0.0
C1671 C 0.77001 0.38738 0.60269 0.0
C1672 C 0.81897 0.40454 0.62188 0.0
C1673 C 0.83237 0.4183 0.6147 0.0
C1674 C 0.82075 0.40581 0.63464 0.0
C1675 C 0.80607 0.39302 0.64282 0.0
C1676 C 0.78293 0.39576 0.64233 0.0
C1677 C 0.76917 0.38357 0.65003 0.0
C1678 C 0.77838 0.36875 0.65834 0.0
C1679 C 0.80137 0.36614 0.659 0.0
C1680 C 0.8152 0.37826 0.6513 0.0
C1681 C 0.86396 0.4839 0.65246 0.0
C1682 C 0.88585 0.48826 0.64881 0.0
C1683 C 0.85218 0.46627 0.64745 0.0
C1684 C 0.86207 0.45243 0.63877 0.0
C1685 C 0.88435 0.456 0.6356 0.0
C1686 C 0.89606 0.47392 0.64047 0.0
C1687 C 0.84849 0.43516 0.63268 0.0
C1688 C 0.83583 0.42071 0.63985 0.0
C1689 C 0.8467 0.43391 0.61992 0.0
C1690 C 0.8583 0.44964 0.61179 0.0
C1691 C 0.87307 0.44171 0.60296 0.0
C1692 C 0.88406 0.45653 0.5953 0.0
C1693 C 0.88028 0.47931 0.59634 0.0
C1694 C 0.86543 0.48731 0.60501 0.0
C1695 C 0.85438 0.47256 0.61268 0.0
H1696 H 0.88882 0.49075 0.59041 0.0
H1697 H 0.7677 0.35933 0.6643 0.0
H1698 H 0.86631 0.52285 0.84204 0.0
H1699 H 0.84496 0.55302 0.85118 0.0
H1700 H 0.87909 0.54306 0.88502 0.0
H1701 H 0.90075 0.51307 0.87594 0.0
H1702 H 0.83168 0.54172 0.88626 0.0
H1703 H 0.88999 0.58805 0.87068 0.0
H1704 H 0.91496 0.60237 0.85484 0.0
H1705 H 0.85889 0.62445 0.83417 0.0
H1706 H 0.83355 0.60997 0.84981 0.0
H1707 H 0.77206 0.62577 0.91604 0.0
H1708 H 0.80321 0.60384 0.90843 0.0
H1709 H 0.78617 0.62224 0.87184 0.0
H1710 H 0.75593 0.64519 0.87947 0.0
H1711 H 0.82809 0.62024 0.87305 0.0
H1712 H 0.76986 0.57115 0.88577 0.0
H1713 H 0.74271 0.55496 0.89993 0.0
H1714 H 0.79544 0.53576 0.92383 0.0
H1715 H 0.82289 0.55209 0.90987 0.0
C1716 C 0.86953 0.5273 0.85137 0.0
C1717 C 0.88515 0.51551 0.85828 0.0
C1718 C 0.85738 0.54459 0.85656 0.0
C1719 C 0.86051 0.55022 0.86875 0.0
C1720 C 0.87651 0.53894 0.87558 0.0
C1721 C 0.8889 0.52186 0.87036 0.0
C1722 C 0.84577 0.5666 0.87462 0.0
C1723 C 0.83115 0.55902 0.88356 0.0
C1724 C 0.84465 0.58889 0.87075 0.0
C1725 C 0.85987 0.59776 0.86138 0.0
C1726 C 0.88297 0.5958 0.86272 0.0
C1727 C 0.89719 0.60398 0.85378 0.0
C1728 C 0.88851 0.61427 0.8435 0.0
C1729 C 0.86559 0.61646 0.84214 0.0
C1730 C 0.85129 0.6083 0.85104 0.0
C1731 C 0.77517 0.62532 0.90639 0.0
C1732 C 0.76149 0.63703 0.89833 0.0
C1733 C 0.79289 0.61269 0.90204 0.0
C1734 C 0.79674 0.61089 0.88952 0.0
C1735 C 0.78356 0.62328 0.88152 0.0
C1736 C 0.76623 0.63636 0.88589 0.0
C1737 C 0.81374 0.59537 0.88469 0.0
C1738 C 0.82874 0.60304 0.8759 0.0
C1739 C 0.81486 0.57293 0.88846 0.0
C1740 C 0.79839 0.56307 0.89685 0.0
C1741 C 0.77564 0.56361 0.89409 0.0
C1742 C 0.7602 0.55439 0.90207 0.0
C1743 C 0.76734 0.5444 0.91279 0.0
C1744 C 0.78994 0.54355 0.91553 0.0
C1745 C 0.80544 0.55277 0.90759 0.0
H1746 H 0.75536 0.53727 0.91895 0.0
H1747 H 0.89955 0.62059 0.83659 0.0
H1748 H 0.73029 0.62067 0.08902 0.0
H1749 H 0.70004 0.59825 0.09734 0.0
H1750 H 0.70921 0.62899 0.1322 0.0
H1751 H 0.73916 0.65174 0.12395 0.0
H1752 H 0.71067 0.58103 0.13176 0.0
H1753 H 0.66516 0.64182 0.11836 0.0
H1754 H 0.65097 0.66875 0.10348 0.0
H1755 H 0.62767 0.61548 0.08107 0.0
H1756 H 0.64202 0.5882 0.09574 0.0
H1757 H 0.62532 0.52367 0.16135 0.0
H1758 H 0.64802 0.55421 0.15377 0.0
H1759 H 0.62874 0.53815 0.11719 0.0
H1760 H 0.6052 0.50828 0.12477 0.0
H1761 H 0.63182 0.58065 0.11898 0.0
H1762 H 0.67893 0.52004 0.13012 0.0
H1763 H 0.69449 0.49132 0.14355 0.0
H1764 H 0.71665 0.54158 0.16826 0.0
H1765 H 0.70096 0.5706 0.15505 0.0
C1766 C 0.72565 0.62289 0.09841 0.0
C1767 C 0.73716 0.63792 0.10584 0.0
C1768 C 0.70834 0.61013 0.10313 0.0
C1769 C 0.70246 0.61203 0.11536 0.0
C1770 C 0.71353 0.62737 0.12272 0.0
C1771 C 0.73059 0.64037 0.11798 0.0
C1772 C 0.68592 0.59681 0.1207 0.0
C1773 C 0.69332 0.58116 0.12915 0.0
C1774 C 0.66355 0.59659 0.11692 0.0
C1775 C 0.65486 0.61296 0.1081 0.0
C1776 C 0.6572 0.63584 0.11021 0.0
C1777 C 0.64908 0.65117 0.10182 0.0
C1778 C 0.63847 0.64383 0.09132 0.0
C1779 C 0.63591 0.62114 0.0892 0.0
C1780 C 0.64401 0.60574 0.09756 0.0
C1781 C 0.62573 0.52683 0.1517 0.0
C1782 C 0.61366 0.51346 0.14364 0.0
C1783 C 0.63879 0.54422 0.14737 0.0
C1784 C 0.64055 0.54815 0.13487 0.0
C1785 C 0.62774 0.53542 0.12686 0.0
C1786 C 0.61431 0.51831 0.13121 0.0
C1787 C 0.65651 0.56475 0.1301 0.0
C1788 C 0.64909 0.58059 0.12171 0.0
C1789 C 0.67906 0.56487 0.13372 0.0
C1790 C 0.68856 0.54746 0.14167 0.0
C1791 C 0.68698 0.52495 0.13847 0.0
C1792 C 0.69584 0.50863 0.14603 0.0
C1793 C 0.70649 0.51462 0.15677 0.0
C1794 C 0.70836 0.53696 0.15995 0.0
C1795 C 0.6995 0.55335 0.15243 0.0
H1796 H 0.71334 0.50195 0.16261 0.0
H1797 H 0.6322 0.65573 0.08484 0.0
H1798 H 0.74332 0.34811 0.37642 0.0
H1799 H 0.71288 0.36787 0.36651 0.0
H1800 H 0.6932 0.3957 0.4008 0.0
H1801 H 0.72365 0.37617 0.41079 0.0
H1802 H 0.65682 0.38248 0.38545 0.0
H1803 H 0.72511 0.42532 0.38425 0.0
H1804 H 0.76465 0.43076 0.37938 0.0
H1805 H 0.75123 0.41825 0.34184 0.0
H1806 H 0.71164 0.41242 0.34652 0.0
H1807 H 0.60167 0.48279 0.37197 0.0
H1808 H 0.62396 0.45173 0.37911 0.0
H1809 H 0.64895 0.44153 0.34294 0.0
H1810 H 0.62738 0.47326 0.33584 0.0
H1811 H 0.68157 0.44183 0.35746 0.0
H1812 H 0.6126 0.40372 0.35777 0.0
H1813 H 0.57304 0.39749 0.36222 0.0
H1814 H 0.58672 0.39948 0.40033 0.0
H1815 H 0.62633 0.40604 0.39611 0.0
C1816 C 0.73228 0.35811 0.38189 0.0
C1817 C 0.73604 0.36077 0.39437 0.0
C1818 C 0.71492 0.36939 0.37621 0.0
C1819 C 0.70095 0.38334 0.38293 0.0
C1820 C 0.70382 0.38497 0.39548 0.0
C1821 C 0.7213 0.37391 0.40115 0.0
C1822 C 0.68476 0.3979 0.37677 0.0
C1823 C 0.66212 0.39554 0.37935 0.0
C1824 C 0.69175 0.41449 0.36858 0.0
C1825 C 0.71549 0.41817 0.36575 0.0
C1826 C 0.73064 0.42355 0.37497 0.0
C1827 C 0.75304 0.42673 0.37225 0.0
C1828 C 0.76046 0.42478 0.36031 0.0
C1829 C 0.74547 0.41971 0.35108 0.0
C1830 C 0.72305 0.41647 0.35376 0.0
C1831 C 0.61162 0.47371 0.36549 0.0
C1832 C 0.61285 0.48055 0.35335 0.0
C1833 C 0.62429 0.45582 0.36958 0.0
C1834 C 0.63802 0.44406 0.36155 0.0
C1835 C 0.63854 0.45033 0.34931 0.0
C1836 C 0.62617 0.46846 0.34526 0.0
C1837 C 0.65334 0.42667 0.36615 0.0
C1838 C 0.67598 0.42856 0.36334 0.0
C1839 C 0.64625 0.40953 0.37402 0.0
C1840 C 0.62243 0.40553 0.37662 0.0
C1841 C 0.60716 0.40299 0.3671 0.0
C1842 C 0.58472 0.39937 0.36958 0.0
C1843 C 0.57736 0.39813 0.38155 0.0
C1844 C 0.59244 0.40046 0.39106 0.0
C1845 C 0.61489 0.40409 0.38863 0.0
H1846 H 0.55999 0.39533 0.38345 0.0
H1847 H 0.77781 0.42725 0.35822 0.0
H1848 H 0.09605 0.51827 0.3704 0.0
H1849 H 0.11989 0.54774 0.37818 0.0
H1850 H 0.16319 0.54023 0.34739 0.0
H1851 H 0.1396 0.51062 0.33958 0.0
H1852 H 0.18601 0.53942 0.36802 0.0
H1853 H 0.13078 0.58585 0.35023 0.0
H1854 H 0.09296 0.59948 0.3462 0.0
H1855 H 0.08488 0.61554 0.38379 0.0
H1856 H 0.12255 0.60171 0.38808 0.0
H1857 H 0.23204 0.65486 0.38271 0.0
H1858 H 0.20299 0.6324 0.37329 0.0
H1859 H 0.2095 0.58382 0.40169 0.0
H1860 H 0.23855 0.60601 0.41114 0.0
H1861 H 0.16219 0.61477 0.38056 0.0
H1862 H 0.21008 0.53306 0.38824 0.0
H1863 H 0.24863 0.52041 0.39109 0.0
H1864 H 0.27244 0.57656 0.37107 0.0
H1865 H 0.23403 0.58936 0.36794 0.0
C1866 C 0.11049 0.52306 0.36519 0.0
C1867 C 0.11598 0.51197 0.35439 0.0
C1868 C 0.12405 0.53998 0.36964 0.0
C1869 C 0.14327 0.54622 0.36335 0.0
C1870 C 0.14844 0.53564 0.3524 0.0
C1871 C 0.1349 0.51874 0.34793 0.0
C1872 C 0.15884 0.5626 0.36862 0.0
C1873 C 0.18077 0.55591 0.37072 0.0
C1874 C 0.15208 0.58419 0.37204 0.0
C1875 C 0.12943 0.59256 0.36949 0.0
C1876 C 0.12088 0.59212 0.35765 0.0
C1877 C 0.09948 0.59991 0.35532 0.0
C1878 C 0.08651 0.60832 0.36473 0.0
C1879 C 0.09493 0.609 0.3765 0.0
C1880 C 0.11632 0.60121 0.37889 0.0
C1881 C 0.22707 0.63957 0.38706 0.0
C1882 C 0.23783 0.6321 0.3976 0.0
C1883 C 0.21041 0.6268 0.38168 0.0
C1884 C 0.20436 0.60634 0.38671 0.0
C1885 C 0.21416 0.59946 0.39759 0.0
C1886 C 0.23075 0.6122 0.40298 0.0
C1887 C 0.18911 0.59135 0.38014 0.0
C1888 C 0.16732 0.59828 0.37782 0.0
C1889 C 0.19604 0.57005 0.37634 0.0
C1890 C 0.21919 0.56227 0.37797 0.0
C1891 C 0.22354 0.54265 0.3844 0.0
C1892 C 0.24537 0.53546 0.38607 0.0
C1893 C 0.26298 0.54771 0.3813 0.0
C1894 C 0.25879 0.56713 0.3748 0.0
C1895 C 0.237 0.57437 0.37308 0.0
H1896 H 0.27986 0.54214 0.38262 0.0
H1897 H 0.06994 0.61435 0.36291 0.0
H1898 H 0.24281 0.35616 0.12689 0.0
H1899 H 0.21317 0.37882 0.13542 0.0
H1900 H 0.19139 0.39595 0.0994 0.0
H1901 H 0.22167 0.37409 0.09084 0.0
H1902 H 0.19435 0.43131 0.11178 0.0
H1903 H 0.16076 0.36106 0.11943 0.0
H1904 H 0.15837 0.32262 0.12689 0.0
H1905 H 0.16956 0.34519 0.16323 0.0
H1906 H 0.17233 0.38375 0.15597 0.0
H1907 H 0.09798 0.48773 0.13081 0.0
H1908 H 0.12015 0.45721 0.12277 0.0
H1909 H 0.15554 0.45268 0.15657 0.0
H1910 H 0.13358 0.48344 0.1647 0.0
H1911 H 0.14355 0.41009 0.14514 0.0
H1912 H 0.17946 0.4802 0.13649 0.0
H1913 H 0.18058 0.51844 0.12862 0.0
H1914 H 0.16312 0.49483 0.09322 0.0
H1915 H 0.16157 0.45647 0.10094 0.0
C1916 C 0.23148 0.36445 0.12079 0.0
C1917 C 0.23462 0.36342 0.1082 0.0
C1918 C 0.21443 0.37734 0.12568 0.0
C1919 C 0.19986 0.38899 0.11807 0.0
C1920 C 0.20244 0.38719 0.10547 0.0
C1921 C 0.21973 0.37465 0.10058 0.0
C1922 C 0.18319 0.40453 0.12321 0.0
C1923 C 0.18298 0.42644 0.1189 0.0
C1924 C 0.16864 0.39846 0.13272 0.0
C1925 C 0.16694 0.37529 0.13713 0.0
C1926 C 0.16288 0.35781 0.129 0.0
C1927 C 0.16143 0.336 0.1332 0.0
C1928 C 0.16386 0.33146 0.14552 0.0
C1929 C 0.1677 0.34873 0.15368 0.0
C1930 C 0.16918 0.37057 0.14953 0.0
C1931 C 0.11023 0.48006 0.13662 0.0
C1932 C 0.11416 0.48816 0.14837 0.0
C1933 C 0.12288 0.46263 0.132 0.0
C1934 C 0.13952 0.45286 0.13906 0.0
C1935 C 0.14271 0.46004 0.151 0.0
C1936 C 0.13024 0.47768 0.1556 0.0
C1937 C 0.15482 0.43652 0.13362 0.0
C1938 C 0.15483 0.41465 0.13791 0.0
C1939 C 0.16904 0.44249 0.124 0.0
C1940 C 0.17015 0.46551 0.11933 0.0
C1941 C 0.17567 0.48319 0.12706 0.0
C1942 C 0.17642 0.50488 0.12262 0.0
C1943 C 0.17186 0.50907 0.11043 0.0
C1944 C 0.16661 0.49157 0.10266 0.0
C1945 C 0.1658 0.46985 0.10706 0.0
H1946 H 0.17245 0.52587 0.10701 0.0
H1947 H 0.16273 0.31456 0.14875 0.0
H1948 H 0.41276 0.47261 0.86777 0.0
H1949 H 0.39266 0.44072 0.87597 0.0
H1950 H 0.33626 0.4571 0.85366 0.0
H1951 H 0.35645 0.4883 0.84514 0.0
H1952 H 0.3579 0.43926 0.88907 0.0
H1953 H 0.30556 0.41384 0.8467 0.0
H1954 H 0.31053 0.41129 0.8246 0.0
H1955 H 0.38093 0.40528 0.8293 0.0
H1956 H 0.37637 0.40745 0.85144 0.0
H1957 H 0.25584 0.39459 0.90574 0.0
H1958 H 0.28749 0.41465 0.89759 0.0
H1959 H 0.30939 0.35546 0.87916 0.0
H1960 H 0.27701 0.3355 0.88687 0.0
H1961 H 0.31255 0.38752 0.86449 0.0
H1962 H 0.33758 0.37764 0.90463 0.0
H1963 H 0.33582 0.37754 0.92692 0.0
H1964 H 0.32651 0.44811 0.92701 0.0
H1965 H 0.3279 0.44861 0.90472 0.0
C1966 C 0.3962 0.46919 0.86448 0.0
C1967 C 0.38622 0.48297 0.85578 0.0
C1968 C 0.38471 0.45099 0.8692 0.0
C1969 C 0.36302 0.4463 0.86534 0.0
C1970 C 0.35316 0.45996 0.85657 0.0
C1971 C 0.36471 0.47793 0.85175 0.0
C1972 C 0.34998 0.42821 0.87104 0.0
C1973 C 0.34816 0.42778 0.8837 0.0
C1974 C 0.33778 0.41274 0.86408 0.0
C1975 C 0.34061 0.41095 0.85075 0.0
C1976 C 0.32209 0.41181 0.84304 0.0
C1977 C 0.32484 0.41047 0.83049 0.0
C1978 C 0.34604 0.40818 0.82555 0.0
C1979 C 0.36452 0.40713 0.83314 0.0
C1980 C 0.36186 0.40843 0.84569 0.0
C1981 C 0.26752 0.38574 0.90007 0.0
C1982 C 0.26393 0.36344 0.89696 0.0
C1983 C 0.28574 0.39721 0.89546 0.0
C1984 C 0.30112 0.38651 0.88791 0.0
C1985 C 0.2978 0.36409 0.88498 0.0
C1986 C 0.27932 0.35268 0.88942 0.0
C1987 C 0.31976 0.39923 0.8825 0.0
C1988 C 0.32262 0.39867 0.86989 0.0
C1989 C 0.33345 0.41328 0.88954 0.0
C1990 C 0.33275 0.41313 0.90298 0.0
C1991 C 0.33504 0.39313 0.9094 0.0
C1992 C 0.33411 0.393 0.92204 0.0
C1993 C 0.33103 0.4128 0.92838 0.0
C1994 C 0.32891 0.43278 0.92209 0.0
C1995 C 0.3298 0.433 0.90945 0.0
H1996 H 0.33031 0.41267 0.93816 0.0
H1997 H 0.34813 0.4072 0.81584 0.0
H1998 H 0.41547 0.52244 0.63579 0.0
H1999 H 0.39642 0.55491 0.62751 0.0
H2000 H 0.33947 0.5405 0.64981 0.0
H2001 H 0.3586 0.50872 0.65839 0.0
H2002 H 0.36197 0.55732 0.61433 0.0
H2003 H 0.30981 0.58445 0.65655 0.0
H2004 H 0.31486 0.58782 0.67862 0.0
H2005 H 0.38534 0.5924 0.67382 0.0
H2006 H 0.38072 0.58939 0.65172 0.0
H2007 H 0.2602 0.60178 0.59748 0.0
H2008 H 0.29208 0.5821 0.6056 0.0
H2009 H 0.31352 0.64164 0.62385 0.0
H2010 H 0.28088 0.66123 0.61616 0.0
H2011 H 0.31707 0.60996 0.63859 0.0
H2012 H 0.3422 0.61912 0.59855 0.0
H2013 H 0.34077 0.61906 0.57626 0.0
H2014 H 0.33136 0.54852 0.57627 0.0
H2015 H 0.33242 0.54816 0.59857 0.0
C2016 C 0.39902 0.52643 0.63906 0.0
C2017 C 0.38857 0.51299 0.64776 0.0
C2018 C 0.38814 0.54497 0.63431 0.0
C2019 C 0.36658 0.55036 0.63812 0.0
C2020 C 0.35629 0.5371 0.64693 0.0
C2021 C 0.36723 0.51878 0.65178 0.0
C2022 C 0.35403 0.5687 0.6323 0.0
C2023 C 0.35234 0.56899 0.61963 0.0
C2024 C 0.34203 0.58448 0.63916 0.0
C2025 C 0.34491 0.58657 0.65246 0.0
C2026 C 0.32638 0.58632 0.66019 0.0
C2027 C 0.32917 0.58813 0.67271 0.0
C2028 C 0.35041 0.59028 0.67762 0.0
C2029 C 0.3689 0.59067 0.67001 0.0
C2030 C 0.36621 0.58888 0.65749 0.0
C2031 C 0.27182 0.6108 0.6031 0.0
C2032 C 0.26801 0.63308 0.60617 0.0
C2033 C 0.29019 0.59954 0.60768 0.0
C2034 C 0.30552 0.61044 0.61518 0.0
C2035 C 0.30199 0.63286 0.61807 0.0
C2036 C 0.28335 0.64405 0.61365 0.0
C2037 C 0.3242 0.59785 0.62065 0.0
C2038 C 0.32705 0.59863 0.63326 0.0
C2039 C 0.33784 0.58359 0.6137 0.0
C2040 C 0.3373 0.58364 0.60026 0.0
C2041 C 0.3397 0.6036 0.59381 0.0
C2042 C 0.33897 0.60364 0.58116 0.0
C2043 C 0.33595 0.5838 0.57485 0.0
C2044 C 0.33371 0.56387 0.58117 0.0
C2045 C 0.33442 0.56374 0.59382 0.0
H2046 H 0.33538 0.58387 0.56506 0.0
H2047 H 0.35253 0.59166 0.68731 0.0
H2048 H 0.41146 0.11374 0.14067 0.0
H2049 H 0.3942 0.14806 0.13375 0.0
H2050 H 0.33509 0.13207 0.15399 0.0
H2051 H 0.35289 0.09833 0.16151 0.0
H2052 H 0.36196 0.15686 0.12041 0.0
H2053 H 0.30675 0.17772 0.16187 0.0
H2054 H 0.30697 0.1731 0.18406 0.0
H2055 H 0.37807 0.1696 0.18383 0.0
H2056 H 0.37828 0.17448 0.16167 0.0
H2057 H 0.29361 0.24692 0.10245 0.0
H2058 H 0.30636 0.21094 0.1101 0.0
H2059 H 0.34063 0.24405 0.13926 0.0
H2060 H 0.32682 0.27959 0.13211 0.0
H2061 H 0.32459 0.2098 0.14801 0.0
H2062 H 0.36686 0.22356 0.11196 0.0
H2063 H 0.37281 0.23154 0.09031 0.0
H2064 H 0.33851 0.17169 0.08073 0.0
H2065 H 0.33214 0.16349 0.10233 0.0
C2066 C 0.39485 0.11767 0.14373 0.0
C2067 C 0.38357 0.10346 0.1517 0.0
C2068 C 0.38493 0.13725 0.13972 0.0
C2069 C 0.36335 0.14287 0.1434 0.0
C2070 C 0.35193 0.12847 0.15123 0.0
C2071 C 0.36208 0.10913 0.1555 0.0
C2072 C 0.35289 0.16369 0.13891 0.0
C2073 C 0.3538 0.16842 0.12647 0.0
C2074 C 0.34244 0.17902 0.14677 0.0
C2075 C 0.34249 0.17619 0.1601 0.0
C2076 C 0.32242 0.17602 0.16657 0.0
C2077 C 0.32248 0.17335 0.17913 0.0
C2078 C 0.34252 0.17097 0.18534 0.0
C2079 C 0.36256 0.17135 0.179 0.0
C2080 C 0.3626 0.17403 0.16644 0.0
C2081 C 0.30373 0.2464 0.11053 0.0
C2082 C 0.30922 0.26602 0.11668 0.0
C2083 C 0.31114 0.22586 0.11487 0.0
C2084 C 0.32481 0.22469 0.12518 0.0
C2085 C 0.33005 0.24436 0.13134 0.0
C2086 C 0.32218 0.26473 0.12722 0.0
C2087 C 0.33406 0.20321 0.12954 0.0
C2088 C 0.33272 0.19823 0.14194 0.0
C2089 C 0.34504 0.18816 0.12173 0.0
C2090 C 0.34881 0.19305 0.10875 0.0
C2091 C 0.36046 0.21219 0.10523 0.0
C2092 C 0.36392 0.21674 0.09297 0.0
C2093 C 0.35598 0.20217 0.08415 0.0
C2094 C 0.34461 0.18299 0.08757 0.0
C2095 C 0.34108 0.17837 0.09982 0.0
H2096 H 0.35868 0.20572 0.07467 0.0
H2097 H 0.34252 0.1689 0.19507 0.0
H2098 H 0.13769 0.11819 0.4144 0.0
H2099 H 0.10444 0.09972 0.40668 0.0
H2100 H 0.11313 0.13213 0.37221 0.0
H2101 H 0.14607 0.15086 0.37987 0.0
H2102 H 0.07073 0.13344 0.37907 0.0
H2103 H 0.12748 0.07776 0.3762 0.0
H2104 H 0.15756 0.05383 0.38379 0.0
H2105 H 0.11279 0.02405 0.40925 0.0
H2106 H 0.0825 0.04804 0.40192 0.0
H2107 H 0.99568 0.06825 0.34501 0.0
H2108 H 0.0312 0.08328 0.352 0.0
H2109 H 0.01957 0.05581 0.38746 0.0
H2110 H 0.98408 0.04087 0.38059 0.0
H2111 H 0.06363 0.05149 0.3799 0.0
H2112 H 0.00725 0.10741 0.3831 0.0
H2113 H 0.97699 0.13123 0.37564 0.0
H2114 H 0.02111 0.16066 0.34973 0.0
H2115 H 0.05156 0.13667 0.35688 0.0
C2116 C 0.13249 0.12145 0.40519 0.0
C2117 C 0.14462 0.13596 0.39775 0.0
C2118 C 0.11354 0.11078 0.40077 0.0
C2119 C 0.10645 0.11432 0.38881 0.0
C2120 C 0.1183 0.1291 0.38145 0.0
C2121 C 0.13719 0.13977 0.38586 0.0
C2122 C 0.08666 0.10273 0.38393 0.0
C2123 C 0.06934 0.1155 0.37909 0.0
C2124 C 0.08461 0.07934 0.38419 0.0
C2125 C 0.10278 0.06485 0.38859 0.0
C2126 C 0.12409 0.06623 0.38348 0.0
C2127 C 0.14117 0.05264 0.38772 0.0
C2128 C 0.1371 0.03747 0.39702 0.0
C2129 C 0.11592 0.03583 0.40206 0.0
C2130 C 0.09879 0.04941 0.39786 0.0
C2131 C 0.00089 0.06506 0.35423 0.0
C2132 C 0.98703 0.05351 0.36228 0.0
C2133 C 0.02111 0.07374 0.35822 0.0
C2134 C 0.02784 0.07087 0.37029 0.0
C2135 C 0.01464 0.05825 0.37813 0.0
C2136 C 0.99435 0.04978 0.37419 0.0
C2137 C 0.04787 0.08221 0.37498 0.0
C2138 C 0.06514 0.06941 0.37982 0.0
C2139 C 0.04989 0.10557 0.37473 0.0
C2140 C 0.03162 0.12005 0.37043 0.0
C2141 C 0.01045 0.1188 0.37573 0.0
C2142 C 0.99327 0.13236 0.37158 0.0
C2143 C 0.99711 0.14742 0.36221 0.0
C2144 C 0.01816 0.14896 0.35698 0.0
C2145 C 0.03538 0.13538 0.36108 0.0
H2146 H 0.98381 0.15794 0.35901 0.0
H2147 H 0.15034 0.02695 0.40029 0.0
H2148 H 0.10398 0.89602 0.63161 0.0
H2149 H 0.12235 0.86255 0.62455 0.0
H2150 H 0.14433 0.84857 0.6609 0.0
H2151 H 0.12631 0.88259 0.66806 0.0
H2152 H 0.1771 0.84172 0.6451 0.0
H2153 H 0.10118 0.81965 0.64797 0.0
H2154 H 0.06088 0.8224 0.64453 0.0
H2155 H 0.07121 0.8181 0.60616 0.0
H2156 H 0.11161 0.81563 0.60937 0.0
H2157 H 0.20451 0.72848 0.63421 0.0
H2158 H 0.18946 0.76368 0.64132 0.0
H2159 H 0.17017 0.78033 0.60485 0.0
H2160 H 0.18511 0.74491 0.59765 0.0
H2161 H 0.13631 0.78571 0.62091 0.0
H2162 H 0.21276 0.80721 0.61842 0.0
H2163 H 0.25288 0.80388 0.6223 0.0
H2164 H 0.24122 0.80825 0.66055 0.0
H2165 H 0.20098 0.8113 0.65692 0.0
C2166 C 0.11261 0.88584 0.63816 0.0
C2167 C 0.11355 0.89198 0.65044 0.0
C2168 C 0.12307 0.86661 0.63409 0.0
C2169 C 0.13446 0.85284 0.64222 0.0
C2170 C 0.13557 0.85892 0.65448 0.0
C2171 C 0.1252 0.87832 0.65856 0.0
C2172 C 0.14537 0.83228 0.6378 0.0
C2173 C 0.16811 0.82931 0.63997 0.0
C2174 C 0.13376 0.81629 0.63087 0.0
C2175 C 0.10945 0.81766 0.62891 0.0
C2176 C 0.09487 0.81946 0.6388 0.0
C2177 C 0.07201 0.82094 0.63689 0.0
C2178 C 0.0635 0.82048 0.62514 0.0
C2179 C 0.07783 0.81848 0.61526 0.0
C2180 C 0.10071 0.81701 0.61712 0.0
C2181 C 0.19735 0.73974 0.62766 0.0
C2182 C 0.19598 0.73388 0.61536 0.0
C2183 C 0.18881 0.75991 0.63174 0.0
C2184 C 0.17877 0.77469 0.62362 0.0
C2185 C 0.17786 0.76915 0.61128 0.0
C2186 C 0.1865 0.74897 0.60716 0.0
C2187 C 0.16805 0.79524 0.62814 0.0
C2188 C 0.14531 0.79815 0.62603 0.0
C2189 C 0.17963 0.81105 0.63519 0.0
C2190 C 0.20383 0.80928 0.6374 0.0
C2191 C 0.21873 0.80728 0.62767 0.0
C2192 C 0.2415 0.80548 0.62982 0.0
C2193 C 0.24959 0.8058 0.64166 0.0
C2194 C 0.23493 0.80798 0.65138 0.0
C2195 C 0.21214 0.80977 0.64928 0.0
H2196 H 0.26722 0.8044 0.64331 0.0
H2197 H 0.04579 0.82163 0.62368 0.0
H2198 H 0.5028 0.93249 0.84703 0.0
H2199 H 0.46704 0.91864 0.85425 0.0
H2200 H 0.48011 0.94635 0.88954 0.0
H2201 H 0.51609 0.95959 0.88248 0.0
H2202 H 0.46676 0.90585 0.89199 0.0
H2203 H 0.44032 0.96848 0.86974 0.0
H2204 H 0.43619 0.99313 0.85209 0.0
H2205 H 0.40771 0.93976 0.83161 0.0
H2206 H 0.41195 0.9147 0.8491 0.0
H2207 H 0.3579 0.88299 0.91473 0.0
H2208 H 0.39138 0.90248 0.90803 0.0
H2209 H 0.38611 0.8714 0.87301 0.0
H2210 H 0.35276 0.85202 0.87954 0.0
H2211 H 0.39464 0.91567 0.87113 0.0
H2212 H 0.42321 0.85287 0.89328 0.0
H2213 H 0.42724 0.82857 0.91109 0.0
H2214 H 0.45149 0.88344 0.93201 0.0
H2215 H 0.44732 0.90814 0.91436 0.0
C2216 C 0.49788 0.93592 0.85627 0.0
C2217 C 0.51227 0.94708 0.86419 0.0
C2218 C 0.4774 0.92805 0.86039 0.0
C2219 C 0.47077 0.93156 0.87244 0.0
C2220 C 0.48486 0.94336 0.88022 0.0
C2221 C 0.5054 0.95098 0.87616 0.0
C2222 C 0.44985 0.92178 0.87716 0.0
C2223 C 0.45093 0.90836 0.88754 0.0
C2224 C 0.42924 0.92462 0.87124 0.0
C2225 C 0.42663 0.93966 0.86071 0.0
C2226 C 0.43333 0.96195 0.86145 0.0
C2227 C 0.43094 0.97601 0.85148 0.0
C2228 C 0.42174 0.968 0.84073 0.0
C2229 C 0.41486 0.94593 0.83994 0.0
C2230 C 0.41722 0.9318 0.84988 0.0
C2231 C 0.36389 0.88027 0.90562 0.0
C2232 C 0.35265 0.86588 0.8977 0.0
C2233 C 0.38304 0.8914 0.90181 0.0
C2234 C 0.39126 0.88831 0.89003 0.0
C2235 C 0.38002 0.87407 0.88212 0.0
C2236 C 0.36099 0.86291 0.88591 0.0
C2237 C 0.41166 0.89977 0.88589 0.0
C2238 C 0.41048 0.91341 0.87562 0.0
C2239 C 0.43216 0.89724 0.89194 0.0
C2240 C 0.43471 0.8824 0.90254 0.0
C2241 C 0.42922 0.85979 0.90171 0.0
C2242 C 0.43157 0.84594 0.91177 0.0
C2243 C 0.43955 0.85447 0.92269 0.0
C2244 C 0.44527 0.87686 0.92355 0.0
C2245 C 0.44293 0.89079 0.91352 0.0
H2246 H 0.44136 0.84372 0.93046 0.0
H2247 H 0.41991 0.97891 0.83302 0.0
H2248 H 0.29692 0.73168 0.37264 0.0
H2249 H 0.31031 0.76807 0.36634 0.0
H2250 H 0.3295 0.78257 0.40309 0.0
H2251 H 0.31616 0.74602 0.4095 0.0
H2252 H 0.30083 0.8112 0.37268 0.0
H2253 H 0.38014 0.80919 0.40167 0.0
H2254 H 0.40497 0.78192 0.41134 0.0
H2255 H 0.38726 0.73343 0.38458 0.0
H2256 H 0.36259 0.76049 0.37467 0.0
H2257 H 0.39414 0.90129 0.37581 0.0
H2258 H 0.37571 0.8683 0.38361 0.0
H2259 H 0.35002 0.85418 0.348 0.0
H2260 H 0.36804 0.88754 0.34015 0.0
H2261 H 0.38099 0.82613 0.37862 0.0
H2262 H 0.30019 0.82797 0.3503 0.0
H2263 H 0.27539 0.85531 0.34068 0.0
H2264 H 0.29601 0.90476 0.36626 0.0
H2265 H 0.32069 0.87765 0.37613 0.0
C2266 C 0.30372 0.7427 0.37943 0.0
C2267 C 0.30565 0.7359 0.39156 0.0
C2268 C 0.31129 0.76353 0.37581 0.0
C2269 C 0.32114 0.77789 0.38421 0.0
C2270 C 0.32217 0.7716 0.39644 0.0
C2271 C 0.31446 0.75077 0.40009 0.0
C2272 C 0.33151 0.79879 0.37997 0.0
C2273 C 0.31838 0.81444 0.37389 0.0
C2274 C 0.35433 0.80314 0.38174 0.0
C2275 C 0.36932 0.78679 0.38753 0.0
C2276 C 0.3816 0.79272 0.39784 0.0
C2277 C 0.39564 0.7773 0.40336 0.0
C2278 C 0.39762 0.75593 0.39861 0.0
C2279 C 0.38564 0.74996 0.38829 0.0
C2280 C 0.3716 0.76532 0.38273 0.0
C2281 C 0.38454 0.89123 0.36961 0.0
C2282 C 0.38253 0.89713 0.35734 0.0
C2283 C 0.37403 0.87233 0.3741 0.0
C2284 C 0.36126 0.85888 0.36644 0.0
C2285 C 0.35943 0.86454 0.35415 0.0
C2286 C 0.36986 0.88355 0.34965 0.0
C2287 C 0.35033 0.83869 0.37132 0.0
C2288 C 0.36338 0.82308 0.37748 0.0
C2289 C 0.32743 0.83444 0.36965 0.0
C2290 C 0.31246 0.85082 0.36386 0.0
C2291 C 0.29937 0.84465 0.35389 0.0
C2292 C 0.28534 0.86011 0.3484 0.0
C2293 C 0.28418 0.88178 0.35283 0.0
C2294 C 0.29699 0.888 0.3628 0.0
C2295 C 0.31102 0.8726 0.36834 0.0
H2296 H 0.27333 0.89372 0.34856 0.0
H2297 H 0.40849 0.74401 0.4029 0.0
H2298 H 0.36394 0.16309 0.61234 0.0
H2299 H 0.39849 0.14577 0.61889 0.0
H2300 H 0.38027 0.08566 0.60013 0.0
H2301 H 0.34629 0.1035 0.59297 0.0
H2302 H 0.40745 0.11434 0.63272 0.0
H2303 H 0.42486 0.05585 0.59209 0.0
H2304 H 0.41906 0.05472 0.57 0.0
H2305 H 0.41704 0.12584 0.56887 0.0
H2306 H 0.4231 0.1274 0.59092 0.0
H2307 H 0.49665 0.04523 0.65084 0.0
H2308 H 0.46061 0.05819 0.64339 0.0
H2309 H 0.49307 0.08934 0.61299 0.0
H2310 H 0.52861 0.07527 0.61997 0.0
H2311 H 0.45796 0.07376 0.60511 0.0
H2312 H 0.47471 0.11815 0.63998 0.0
H2313 H 0.48403 0.12544 0.66134 0.0
H2314 H 0.42389 0.09346 0.67262 0.0
H2315 H 0.41434 0.08574 0.65132 0.0
C2316 C 0.36745 0.14626 0.60951 0.0
C2317 C 0.35253 0.13469 0.60208 0.0
C2318 C 0.38715 0.1363 0.61331 0.0
C2319 C 0.3922 0.1144 0.60996 0.0
C2320 C 0.37713 0.10273 0.60262 0.0
C2321 C 0.35765 0.11291 0.59855 0.0
C2322 C 0.41305 0.10383 0.61432 0.0
C2323 C 0.41848 0.10549 0.62665 0.0
C2324 C 0.42771 0.09247 0.60645 0.0
C2325 C 0.42417 0.09171 0.59318 0.0
C2326 C 0.42323 0.07124 0.58712 0.0
C2327 C 0.41989 0.07053 0.57461 0.0
C2328 C 0.4176 0.09019 0.56804 0.0
C2329 C 0.41872 0.11062 0.57397 0.0
C2330 C 0.42208 0.11143 0.58648 0.0
C2331 C 0.49597 0.05468 0.64252 0.0
C2332 C 0.51541 0.05924 0.63599 0.0
C2333 C 0.4754 0.06222 0.6383 0.0
C2334 C 0.47404 0.07512 0.6277 0.0
C2335 C 0.49351 0.07937 0.62114 0.0
C2336 C 0.5139 0.07135 0.62516 0.0
C2337 C 0.45259 0.08465 0.62347 0.0
C2338 C 0.44692 0.0826 0.61118 0.0
C2339 C 0.43824 0.09657 0.63126 0.0
C2340 C 0.44394 0.10115 0.64407 0.0
C2341 C 0.46355 0.11254 0.64702 0.0
C2342 C 0.46886 0.11677 0.65912 0.0
C2343 C 0.45459 0.10986 0.66834 0.0
C2344 C 0.43495 0.09876 0.66547 0.0
C2345 C 0.42957 0.09446 0.65339 0.0
H2346 H 0.45873 0.11315 0.67769 0.0
H2347 H 0.415 0.0896 0.55836 0.0
H2348 H 0.1287 0.10912 0.8373 0.0
H2349 H 0.14753 0.14258 0.84452 0.0
H2350 H 0.11822 0.13364 0.87979 0.0
H2351 H 0.09902 0.10068 0.87263 0.0
H2352 H 0.11555 0.17531 0.87348 0.0
H2353 H 0.17319 0.12037 0.87382 0.0
H2354 H 0.19725 0.09134 0.86518 0.0
H2355 H 0.22266 0.13779 0.83922 0.0
H2356 H 0.19852 0.16703 0.8476 0.0
H2357 H 0.18167 0.25125 0.90618 0.0
H2358 H 0.16711 0.2155 0.89926 0.0
H2359 H 0.19074 0.22912 0.86319 0.0
H2360 H 0.20532 0.26478 0.87001 0.0
H2361 H 0.19696 0.1851 0.8699 0.0
H2362 H 0.13864 0.23969 0.86953 0.0
H2363 H 0.11482 0.26864 0.87843 0.0
H2364 H 0.09089 0.22223 0.90484 0.0
H2365 H 0.11483 0.19307 0.89619 0.0
C2366 C 0.12622 0.11433 0.84658 0.0
C2367 C 0.11235 0.10218 0.85437 0.0
C2368 C 0.13711 0.13338 0.85072 0.0
C2369 C 0.13452 0.14048 0.86276 0.0
C2370 C 0.12049 0.12851 0.87048 0.0
C2371 C 0.10954 0.1096 0.86635 0.0
C2372 C 0.1461 0.16054 0.86735 0.0
C2373 C 0.13339 0.17726 0.87283 0.0
C2374 C 0.16934 0.16337 0.8663 0.0
C2375 C 0.18388 0.14582 0.86126 0.0
C2376 C 0.18378 0.12434 0.8662 0.0
C2377 C 0.19745 0.10786 0.86137 0.0
C2378 C 0.21143 0.1127 0.85164 0.0
C2379 C 0.2118 0.13406 0.84674 0.0
C2380 C 0.19814 0.1506 0.85154 0.0
C2381 C 0.18411 0.24645 0.89683 0.0
C2382 C 0.19448 0.26091 0.88862 0.0
C2383 C 0.1757 0.22608 0.89288 0.0
C2384 C 0.1776 0.21983 0.88068 0.0
C2385 C 0.18905 0.23366 0.87263 0.0
C2386 C 0.19731 0.25407 0.87655 0.0
C2387 C 0.1664 0.19962 0.87609 0.0
C2388 C 0.17914 0.183 0.87057 0.0
C2389 C 0.1432 0.1968 0.87714 0.0
C2390 C 0.1287 0.21427 0.8823 0.0
C2391 C 0.12843 0.23571 0.8773 0.0
C2392 C 0.11489 0.25214 0.88229 0.0
C2393 C 0.10139 0.24729 0.89222 0.0
C2394 C 0.10138 0.22597 0.89716 0.0
C2395 C 0.11492 0.20948 0.89222 0.0
H2396 H 0.09092 0.26004 0.89606 0.0
H2397 H 0.222 0.09992 0.84791 0.0
H2398 H 0.13614 0.83916 0.11155 0.0
H2399 H 0.10219 0.85717 0.11848 0.0
H2400 H 0.12318 0.91833 0.10168 0.0
H2401 H 0.15648 0.89982 0.09406 0.0
H2402 H 0.09415 0.88709 0.1332 0.0
H2403 H 0.0802 0.95128 0.09483 0.0
H2404 H 0.08649 0.95498 0.07285 0.0
H2405 H 0.08538 0.88416 0.06899 0.0
H2406 H 0.07882 0.88005 0.09091 0.0
H2407 H 0.00689 0.95641 0.15359 0.0
H2408 H 0.04276 0.94362 0.14578 0.0
H2409 H 0.01019 0.91805 0.1139 0.0
H2410 H 0.97489 0.93204 0.12127 0.0
H2411 H 0.04603 0.93318 0.10695 0.0
H2412 H 0.02671 0.88491 0.13984 0.0
H2413 H 0.01653 0.87516 0.16079 0.0
H2414 H 0.07744 0.90339 0.17372 0.0
H2415 H 0.08784 0.91354 0.15284 0.0
C2416 C 0.13334 0.85638 0.10922 0.0
C2417 C 0.14882 0.86806 0.10219 0.0
C2418 C 0.11399 0.86673 0.11324 0.0
C2419 C 0.10989 0.88914 0.11056 0.0
C2420 C 0.12555 0.9009 0.10364 0.0
C2421 C 0.14464 0.89035 0.09932 0.0
C2422 C 0.08943 0.90011 0.11521 0.0
C2423 C 0.08364 0.89715 0.12742 0.0
C2424 C 0.07545 0.91307 0.10772 0.0
C2425 C 0.07929 0.91537 0.09452 0.0
C2426 C 0.08125 0.93651 0.08928 0.0
C2427 C 0.08487 0.93868 0.07684 0.0
C2428 C 0.08642 0.91982 0.06954 0.0
C2429 C 0.08427 0.89875 0.07466 0.0
C2430 C 0.08063 0.89649 0.08709 0.0
C2431 C 0.00753 0.94826 0.14486 0.0
C2432 C 0.98812 0.94521 0.13804 0.0
C2433 C 0.02799 0.9408 0.14043 0.0
C2434 C 0.02925 0.92944 0.12931 0.0
C2435 C 0.00983 0.9268 0.12245 0.0
C2436 C 0.98958 0.93477 0.12671 0.0
C2437 C 0.05048 0.91972 0.12486 0.0
C2438 C 0.05655 0.92313 0.11272 0.0
C2439 C 0.06414 0.90625 0.13225 0.0
C2440 C 0.05792 0.90021 0.14481 0.0
C2441 C 0.03785 0.88917 0.14716 0.0
C2442 C 0.03205 0.88355 0.15902 0.0
C2443 C 0.0463 0.88871 0.16858 0.0
C2444 C 0.0664 0.89944 0.1663 0.0
C2445 C 0.07226 0.90513 0.15446 0.0
H2446 H 0.04179 0.88434 0.17776 0.0
H2447 H 0.08923 0.92153 0.05991 0.0
H2448 H 0.6989 0.73439 0.87131 0.0
H2449 H 0.6857 0.77075 0.86494 0.0
H2450 H 0.67251 0.78809 0.90211 0.0
H2451 H 0.68556 0.75147 0.9086 0.0
H2452 H 0.63724 0.79635 0.88757 0.0
H2453 H 0.71505 0.81232 0.88681 0.0
H2454 H 0.7542 0.80612 0.88137 0.0
H2455 H 0.73782 0.81109 0.84366 0.0
H2456 H 0.6985 0.81702 0.84886 0.0
H2457 H 0.608 0.9073 0.87516 0.0
H2458 H 0.62631 0.87412 0.88278 0.0
H2459 H 0.64465 0.85591 0.84638 0.0
H2460 H 0.62687 0.88957 0.83868 0.0
H2461 H 0.67823 0.84883 0.86122 0.0
H2462 H 0.60083 0.83064 0.8615 0.0
H2463 H 0.5613 0.8359 0.8664 0.0
H2464 H 0.57643 0.83388 0.90435 0.0
H2465 H 0.61611 0.8289 0.89967 0.0
C2466 C 0.6935 0.74602 0.87818 0.0
C2467 C 0.69324 0.74002 0.89047 0.0
C2468 C 0.68603 0.76686 0.8745 0.0
C2469 C 0.67824 0.7822 0.88305 0.0
C2470 C 0.67849 0.7765 0.89537 0.0
C2471 C 0.68604 0.75562 0.89907 0.0
C2472 C 0.66848 0.80353 0.87899 0.0
C2473 C 0.64634 0.80805 0.882 0.0
C2474 C 0.68012 0.8184 0.87139 0.0
C2475 C 0.70378 0.81494 0.86823 0.0
C2476 C 0.71976 0.81193 0.87735 0.0
C2477 C 0.74199 0.80849 0.87431 0.0
C2478 C 0.74849 0.80817 0.86218 0.0
C2479 C 0.73277 0.81134 0.85306 0.0
C2480 C 0.71051 0.81476 0.85605 0.0
C2481 C 0.61588 0.89624 0.86874 0.0
C2482 C 0.61583 0.90103 0.85628 0.0
C2483 C 0.6263 0.87721 0.87313 0.0
C2484 C 0.63656 0.86229 0.86515 0.0
C2485 C 0.6368 0.86715 0.85271 0.0
C2486 C 0.62656 0.88635 0.84832 0.0
C2487 C 0.64697 0.84165 0.8698 0.0
C2488 C 0.66918 0.83722 0.86686 0.0
C2489 C 0.63535 0.82673 0.8774 0.0
C2490 C 0.61147 0.82962 0.88023 0.0
C2491 C 0.59575 0.83148 0.87089 0.0
C2492 C 0.57331 0.83438 0.87363 0.0
C2493 C 0.56636 0.83528 0.88568 0.0
C2494 C 0.58184 0.83321 0.89502 0.0
C2495 C 0.6043 0.83033 0.89233 0.0
H2496 H 0.54898 0.83754 0.88778 0.0
H2497 H 0.76571 0.8055 0.85984 0.0
H2498 H 0.99584 0.95401 0.65187 0.0
H2499 H 0.96004 0.94191 0.64369 0.0
H2500 H 0.99335 0.91498 0.61236 0.0
H2501 H 0.02863 0.92834 0.62009 0.0
H2502 H 0.95793 0.93034 0.60491 0.0
H2503 H 0.97548 0.88281 0.63847 0.0
H2504 H 0.98476 0.87369 0.65963 0.0
H2505 H 0.92383 0.90327 0.6716 0.0
H2506 H 0.91431 0.91279 0.65051 0.0
H2507 H 0.86712 0.8371 0.60951 0.0
H2508 H 0.90101 0.85513 0.61647 0.0
H2509 H 0.8807 0.91588 0.59901 0.0
H2510 H 0.84739 0.89736 0.5914 0.0
H2511 H 0.90844 0.88555 0.63107 0.0
H2512 H 0.92429 0.94835 0.59225 0.0
H2513 H 0.9188 0.95139 0.57018 0.0
H2514 H 0.91952 0.88045 0.56701 0.0
H2515 H 0.92528 0.877 0.58903 0.0
C2516 C 0.99538 0.94575 0.64318 0.0
C2517 C 0.015 0.9421 0.63663 0.0
C2518 C 0.97495 0.93867 0.63853 0.0
C2519 C 0.97391 0.92708 0.62748 0.0
C2520 C 0.99354 0.92392 0.62086 0.0
C2521 C 0.01378 0.93152 0.62532 0.0
C2522 C 0.95271 0.91751 0.62289 0.0
C2523 C 0.94711 0.92058 0.61066 0.0
C2524 C 0.93864 0.90442 0.63027 0.0
C2525 C 0.94431 0.89873 0.64295 0.0
C2526 C 0.96414 0.8875 0.64563 0.0
C2527 C 0.96943 0.88224 0.65761 0.0
C2528 C 0.95492 0.88796 0.66696 0.0
C2529 C 0.93507 0.89889 0.66435 0.0
C2530 C 0.92971 0.90421 0.65239 0.0
C2531 C 0.87006 0.85422 0.60703 0.0
C2532 C 0.85473 0.86579 0.59985 0.0
C2533 C 0.88938 0.86459 0.61107 0.0
C2534 C 0.89362 0.8869 0.60824 0.0
C2535 C 0.87818 0.89853 0.60111 0.0
C2536 C 0.8591 0.88796 0.59678 0.0
C2537 C 0.91395 0.89792 0.61301 0.0
C2538 C 0.91924 0.89533 0.62531 0.0
C2539 C 0.9283 0.91054 0.60556 0.0
C2540 C 0.92494 0.91244 0.5923 0.0
C2541 C 0.92332 0.93341 0.58683 0.0
C2542 C 0.92016 0.9352 0.57434 0.0
C2543 C 0.91873 0.91612 0.56721 0.0
C2544 C 0.92054 0.89521 0.57255 0.0
C2545 C 0.92372 0.89333 0.58504 0.0
H2546 H 0.91627 0.91755 0.55754 0.0
H2547 H 0.95905 0.88387 0.67623 0.0
H2548 H 0.8054 0.27038 0.37077 0.0
H2549 H 0.8189 0.23431 0.364 0.0
H2550 H 0.83277 0.21601 0.40095 0.0
H2551 H 0.81913 0.25222 0.40784 0.0
H2552 H 0.86836 0.20881 0.3851 0.0
H2553 H 0.79058 0.19223 0.38706 0.0
H2554 H 0.7509 0.19822 0.38285 0.0
H2555 H 0.76331 0.19293 0.3447 0.0
H2556 H 0.80314 0.18721 0.34868 0.0
H2557 H 0.89537 0.09712 0.3736 0.0
H2558 H 0.87839 0.13109 0.38106 0.0
H2559 H 0.85683 0.14725 0.3449 0.0
H2560 H 0.87339 0.11282 0.33736 0.0
H2561 H 0.82467 0.15537 0.36067 0.0
H2562 H 0.90162 0.1732 0.35798 0.0
H2563 H 0.94171 0.16835 0.36139 0.0
H2564 H 0.93169 0.17286 0.39977 0.0
H2565 H 0.89146 0.17741 0.39661 0.0
C2566 C 0.81108 0.25861 0.37749 0.0
C2567 C 0.81122 0.26415 0.38985 0.0
C2568 C 0.81873 0.23797 0.37359 0.0
C2569 C 0.82675 0.22246 0.38197 0.0
C2570 C 0.82661 0.22776 0.39434 0.0
C2571 C 0.81873 0.24838 0.39827 0.0
C2572 C 0.83626 0.2012 0.37768 0.0
C2573 C 0.85873 0.1969 0.37994 0.0
C2574 C 0.82385 0.18612 0.37058 0.0
C2575 C 0.79989 0.18949 0.36817 0.0
C2576 C 0.78489 0.19253 0.37777 0.0
C2577 C 0.76235 0.19584 0.37542 0.0
C2578 C 0.75459 0.19601 0.36351 0.0
C2579 C 0.76935 0.19281 0.35392 0.0
C2580 C 0.7919 0.18951 0.35622 0.0
C2581 C 0.88707 0.10788 0.36719 0.0
C2582 C 0.88586 0.10228 0.35485 0.0
C2583 C 0.87743 0.12737 0.37149 0.0
C2584 C 0.86662 0.14192 0.36352 0.0
C2585 C 0.86514 0.1363 0.35121 0.0
C2586 C 0.87467 0.11666 0.3469 0.0
C2587 C 0.85681 0.16289 0.36811 0.0
C2588 C 0.83431 0.16719 0.36588 0.0
C2589 C 0.86927 0.17813 0.37511 0.0
C2590 C 0.89348 0.17544 0.37706 0.0
C2591 C 0.90793 0.17298 0.36716 0.0
C2592 C 0.93069 0.17031 0.36904 0.0
C2593 C 0.93924 0.17025 0.38079 0.0
C2594 C 0.92504 0.17289 0.39068 0.0
C2595 C 0.90226 0.17553 0.38884 0.0
H2596 H 0.95687 0.16824 0.38223 0.0
H2597 H 0.73714 0.19857 0.36171 0.0
H2598 H 0.63661 0.12252 0.08899 0.0
H2599 H 0.60262 0.10483 0.09636 0.0
H2600 H 0.62107 0.1203 0.1331 0.0
H2601 H 0.65493 0.13812 0.12585 0.0
H2602 H 0.60561 0.07671 0.13023 0.0
H2603 H 0.58376 0.15108 0.12045 0.0
H2604 H 0.58023 0.18409 0.10743 0.0
H2605 H 0.54223 0.14649 0.08177 0.0
H2606 H 0.54581 0.11316 0.09457 0.0
H2607 H 0.49986 0.06123 0.15869 0.0
H2608 H 0.53589 0.07469 0.15155 0.0
H2609 H 0.51487 0.06536 0.11459 0.0
H2610 H 0.47889 0.05221 0.12162 0.0
H2611 H 0.53214 0.10553 0.1176 0.0
H2612 H 0.55325 0.03115 0.12766 0.0
H2613 H 0.55696 0.99819 0.14069 0.0
H2614 H 0.59633 0.03554 0.16584 0.0
H2615 H 0.5926 0.06882 0.15303 0.0
C2616 C 0.63346 0.12212 0.09864 0.0
C2617 C 0.64844 0.13183 0.10682 0.0
C2618 C 0.61403 0.11204 0.10283 0.0
C2619 C 0.60932 0.11135 0.11527 0.0
C2620 C 0.62442 0.12064 0.12347 0.0
C2621 C 0.64371 0.13092 0.11929 0.0
C2622 C 0.58841 0.10137 0.11974 0.0
C2623 C 0.58952 0.08311 0.12759 0.0
C2624 C 0.56748 0.10954 0.1161 0.0
C2625 C 0.56527 0.12956 0.1084 0.0
C2626 C 0.57482 0.1498 0.11198 0.0
C2627 C 0.57278 0.16858 0.10465 0.0
C2628 C 0.56107 0.16737 0.09376 0.0
C2629 C 0.55133 0.14739 0.0902 0.0
C2630 C 0.55335 0.12855 0.09749 0.0
C2631 C 0.50304 0.06175 0.14905 0.0
C2632 C 0.48649 0.05571 0.14073 0.0
C2633 C 0.52365 0.06942 0.14498 0.0
C2634 C 0.5281 0.071 0.13252 0.0
C2635 C 0.51179 0.06437 0.12423 0.0
C2636 C 0.49124 0.05677 0.12828 0.0
C2637 C 0.54923 0.08066 0.12805 0.0
C2638 C 0.54819 0.09898 0.12022 0.0
C2639 C 0.5702 0.07252 0.13172 0.0
C2640 C 0.57245 0.05254 0.13944 0.0
C2641 C 0.56254 0.03239 0.13602 0.0
C2642 C 0.56468 0.01364 0.14336 0.0
C2643 C 0.57682 0.01479 0.1541 0.0
C2644 C 0.5869 0.03468 0.15752 0.0
C2645 C 0.58479 0.05349 0.15022 0.0
H2646 H 0.57846 0.00025 0.15977 0.0
H2647 H 0.5595 0.18193 0.08811 0.0
H2648 H 0.71003 0.26615 0.63421 0.0
H2649 H 0.69631 0.23038 0.64133 0.0
H2650 H 0.67393 0.2147 0.60527 0.0
H2651 H 0.68763 0.25058 0.59805 0.0
H2652 H 0.64135 0.2097 0.62251 0.0
H2653 H 0.71728 0.1875 0.61717 0.0
H2654 H 0.75774 0.19027 0.61992 0.0
H2655 H 0.74982 0.18368 0.65836 0.0
H2656 H 0.70925 0.18118 0.65586 0.0
H2657 H 0.60811 0.09996 0.63097 0.0
H2658 H 0.62717 0.13334 0.62446 0.0
H2659 H 0.65256 0.14288 0.66057 0.0
H2660 H 0.63385 0.10879 0.66717 0.0
H2661 H 0.68397 0.15153 0.6441 0.0
H2662 H 0.60892 0.17394 0.64999 0.0
H2663 H 0.56827 0.17196 0.6479 0.0
H2664 H 0.57415 0.17964 0.60941 0.0
H2665 H 0.61487 0.18135 0.61125 0.0
C2666 C 0.70252 0.25496 0.62774 0.0
C2667 C 0.69985 0.26123 0.61556 0.0
C2668 C 0.69475 0.23447 0.63183 0.0
C2669 C 0.68413 0.21987 0.62383 0.0
C2670 C 0.68208 0.22576 0.61159 0.0
C2671 C 0.69001 0.2462 0.60746 0.0
C2672 C 0.67369 0.19926 0.62844 0.0
C2673 C 0.65072 0.1968 0.62706 0.0
C2674 C 0.68581 0.18291 0.63482 0.0
C2675 C 0.7102 0.18437 0.63633 0.0
C2676 C 0.72414 0.18684 0.62622 0.0
C2677 C 0.7471 0.18831 0.62773 0.0
C2678 C 0.75634 0.18721 0.63931 0.0
C2679 C 0.74263 0.18456 0.6494 0.0
C2680 C 0.71966 0.18309 0.64794 0.0
C2681 C 0.61768 0.10911 0.63759 0.0
C2682 C 0.61925 0.10178 0.64964 0.0
C2683 C 0.62854 0.12829 0.63383 0.0
C2684 C 0.64095 0.14089 0.64207 0.0
C2685 C 0.64297 0.13347 0.65407 0.0
C2686 C 0.63222 0.11404 0.65784 0.0
C2687 C 0.65164 0.16181 0.63801 0.0
C2688 C 0.6746 0.16441 0.63955 0.0
C2689 C 0.63948 0.17848 0.63189 0.0
C2690 C 0.61497 0.17759 0.63075 0.0
C2691 C 0.60156 0.17505 0.64107 0.0
C2692 C 0.5785 0.174 0.63993 0.0
C2693 C 0.56864 0.17562 0.62853 0.0
C2694 C 0.58181 0.17836 0.61824 0.0
C2695 C 0.60488 0.1794 0.61932 0.0
H2696 H 0.55078 0.1748 0.62767 0.0
H2697 H 0.77412 0.18836 0.64046 0.0
H2698 H 0.49615 0.93379 0.34601 0.0
H2699 H 0.53206 0.91874 0.35234 0.0
H2700 H 0.51704 0.93498 0.38945 0.0
H2701 H 0.48137 0.95024 0.38322 0.0
H2702 H 0.56006 0.94339 0.38427 0.0
H2703 H 0.50851 0.88307 0.3789 0.0
H2704 H 0.4816 0.86032 0.36759 0.0
H2705 H 0.53124 0.8454 0.34095 0.0
H2706 H 0.55838 0.86833 0.35203 0.0
H2707 H 0.63521 0.8714 0.41445 0.0
H2708 H 0.60177 0.89019 0.40725 0.0
H2709 H 0.6164 0.86953 0.37074 0.0
H2710 H 0.64943 0.85028 0.37787 0.0
H2711 H 0.57414 0.8641 0.37513 0.0
H2712 H 0.62626 0.92336 0.38086 0.0
H2713 H 0.65316 0.9461 0.39218 0.0
H2714 H 0.60282 0.96311 0.41804 0.0
H2715 H 0.57568 0.94021 0.40695 0.0
C2716 C 0.50065 0.93447 0.35549 0.0
C2717 C 0.48584 0.94305 0.36412 0.0
C2718 C 0.52112 0.92576 0.3591 0.0
C2719 C 0.52706 0.92542 0.3714 0.0
C2720 C 0.51278 0.935 0.37993 0.0
C2721 C 0.49235 0.94367 0.37634 0.0
C2722 C 0.54755 0.91406 0.37551 0.0
C2723 C 0.56309 0.926 0.38236 0.0
C2724 C 0.55165 0.89148 0.37285 0.0
C2725 C 0.53539 0.8776 0.36622 0.0
C2726 C 0.51364 0.87507 0.37058 0.0
C2727 C 0.49835 0.86212 0.36422 0.0
C2728 C 0.50469 0.85147 0.35354 0.0
C2729 C 0.52635 0.85369 0.34921 0.0
C2730 C 0.54169 0.86665 0.35553 0.0
C2731 C 0.63127 0.8708 0.40489 0.0
C2732 C 0.64505 0.85936 0.39674 0.0
C2733 C 0.61221 0.88167 0.40077 0.0
C2734 C 0.60673 0.88157 0.38841 0.0
C2735 C 0.62029 0.86988 0.38031 0.0
C2736 C 0.63921 0.85889 0.38441 0.0
C2737 C 0.58677 0.89341 0.38388 0.0
C2738 C 0.57126 0.88152 0.37698 0.0
C2739 C 0.58274 0.91605 0.38649 0.0
C2740 C 0.599 0.9299 0.39314 0.0
C2741 C 0.62097 0.93182 0.38901 0.0
C2742 C 0.63625 0.94476 0.39537 0.0
C2743 C 0.62972 0.956 0.40584 0.0
C2744 C 0.60787 0.95437 0.40994 0.0
C2745 C 0.59252 0.94143 0.40361 0.0
H2746 H 0.64157 0.96601 0.41075 0.0
H2747 H 0.49284 0.84145 0.34863 0.0
H2748 H 0.81421 0.75319 0.09677 0.0
H2749 H 0.8284 0.78882 0.10408 0.0
H2750 H 0.81192 0.77033 0.14069 0.0
H2751 H 0.79761 0.73485 0.13348 0.0
H2752 H 0.80288 0.81423 0.13621 0.0
H2753 H 0.86352 0.7631 0.13079 0.0
H2754 H 0.88674 0.73681 0.11932 0.0
H2755 H 0.90265 0.78785 0.09367 0.0
H2756 H 0.87926 0.81437 0.10491 0.0
H2757 H 0.8736 0.8895 0.16771 0.0
H2758 H 0.85479 0.85621 0.16023 0.0
H2759 H 0.87707 0.87088 0.124 0.0
H2760 H 0.89633 0.90361 0.13141 0.0
H2761 H 0.88247 0.82897 0.12825 0.0
H2762 H 0.82255 0.88055 0.13375 0.0
H2763 H 0.79913 0.90691 0.14504 0.0
H2764 H 0.78159 0.85566 0.17024 0.0
H2765 H 0.80515 0.82905 0.15918 0.0
C2766 C 0.81325 0.75688 0.10634 0.0
C2767 C 0.80496 0.74113 0.11455 0.0
C2768 C 0.82146 0.77719 0.11052 0.0
C2769 C 0.8215 0.78206 0.12295 0.0
C2770 C 0.8121 0.76688 0.13107 0.0
C2771 C 0.80399 0.74657 0.12692 0.0
C2772 C 0.8326 0.80227 0.12763 0.0
C2773 C 0.82032 0.8174 0.13457 0.0
C2774 C 0.85528 0.80653 0.12533 0.0
C2775 C 0.86945 0.79064 0.11861 0.0
C2776 C 0.87183 0.76866 0.12265 0.0
C2777 C 0.88505 0.75373 0.1162 0.0
C2778 C 0.89612 0.76063 0.10576 0.0
C2779 C 0.89404 0.78251 0.10176 0.0
C2780 C 0.88082 0.7975 0.10816 0.0
C2781 C 0.87451 0.88559 0.15816 0.0
C2782 C 0.88649 0.89924 0.15018 0.0
C2783 C 0.86363 0.86664 0.15387 0.0
C2784 C 0.86426 0.86117 0.14151 0.0
C2785 C 0.87633 0.87471 0.13357 0.0
C2786 C 0.88734 0.89348 0.13784 0.0
C2787 C 0.85273 0.84118 0.13677 0.0
C2788 C 0.86498 0.82596 0.12986 0.0
C2789 C 0.83001 0.83693 0.13906 0.0
C2790 C 0.81579 0.85287 0.1457 0.0
C2791 C 0.81383 0.87495 0.14175 0.0
C2792 C 0.80051 0.88992 0.1481 0.0
C2793 C 0.78893 0.88298 0.15837 0.0
C2794 C 0.7906 0.86102 0.16229 0.0
C2795 C 0.80392 0.84598 0.15598 0.0
H2796 H 0.77862 0.8946 0.16328 0.0
H2797 H 0.90634 0.74905 0.10078 0.0
H2798 H 0.01544 0.04841 0.88314 0.0
H2799 H 0.9794 0.06192 0.88986 0.0
H2800 H 0.96102 0.07523 0.85285 0.0
H2801 H 0.99732 0.06187 0.84602 0.0
H2802 H 0.95377 0.11064 0.86746 0.0
H2803 H 0.93685 0.03298 0.86848 0.0
H2804 H 0.94276 0.99381 0.87398 0.0
H2805 H 0.93897 0.01062 0.91168 0.0
H2806 H 0.93332 0.04995 0.90641 0.0
H2807 H 0.84353 0.14115 0.88001 0.0
H2808 H 0.87645 0.12234 0.87246 0.0
H2809 H 0.89437 0.10415 0.90893 0.0
H2810 H 0.86088 0.12244 0.91656 0.0
H2811 H 0.90134 0.07041 0.89418 0.0
H2812 H 0.92024 0.14754 0.8937 0.0
H2813 H 0.91534 0.18712 0.88878 0.0
H2814 H 0.91684 0.17187 0.85084 0.0
H2815 H 0.92146 0.13215 0.85553 0.0
C2816 C 0.00364 0.0539 0.87639 0.0
C2817 C 0.00927 0.05412 0.86404 0.0
C2818 C 0.98298 0.06154 0.88026 0.0
C2819 C 0.96745 0.06947 0.87186 0.0
C2820 C 0.97276 0.06914 0.85948 0.0
C2821 C 0.99346 0.06142 0.85559 0.0
C2822 C 0.94638 0.07953 0.87611 0.0
C2823 C 0.94209 0.10171 0.87311 0.0
C2824 C 0.93156 0.06812 0.88385 0.0
C2825 C 0.93484 0.04445 0.88704 0.0
C2826 C 0.93744 0.02835 0.87794 0.0
C2827 C 0.94071 0.00612 0.88102 0.0
C2828 C 0.94129 0.99974 0.89317 0.0
C2829 C 0.93853 0.01559 0.90227 0.0
C2830 C 0.93527 0.03785 0.89924 0.0
C2831 C 0.85447 0.13321 0.88646 0.0
C2832 C 0.84965 0.13347 0.89892 0.0
C2833 C 0.87336 0.12249 0.88212 0.0
C2834 C 0.88814 0.11216 0.89013 0.0
C2835 C 0.88324 0.11208 0.90257 0.0
C2836 C 0.86415 0.1226 0.90692 0.0
C2837 C 0.9087 0.10153 0.8855 0.0
C2838 C 0.91295 0.0793 0.88846 0.0
C2839 C 0.92363 0.11295 0.87782 0.0
C2840 C 0.92098 0.13685 0.87497 0.0
C2841 C 0.91937 0.15261 0.88431 0.0
C2842 C 0.91666 0.17507 0.88156 0.0
C2843 C 0.91572 0.182 0.86951 0.0
C2844 C 0.91754 0.16648 0.86017 0.0
C2845 C 0.92022 0.14399 0.86287 0.0
H2846 H 0.91362 0.19939 0.8674 0.0
H2847 H 0.94383 0.98252 0.89553 0.0
H2848 H 0.81815 0.75129 0.59466 0.0
H2849 H 0.83118 0.71568 0.60253 0.0
H2850 H 0.80656 0.73293 0.63798 0.0
H2851 H 0.7943 0.76879 0.63025 0.0
H2852 H 0.84642 0.71879 0.6401 0.0
H2853 H 0.78222 0.69153 0.61953 0.0
H2854 H 0.75663 0.68617 0.60238 0.0
H2855 H 0.80842 0.65467 0.58201 0.0
H2856 H 0.83442 0.66011 0.59898 0.0
H2857 H 0.86745 0.61241 0.66604 0.0
H2858 H 0.84848 0.64539 0.65832 0.0
H2859 H 0.87837 0.63525 0.6233 0.0
H2860 H 0.89725 0.60229 0.63087 0.0
H2861 H 0.8342 0.64498 0.6215 0.0
H2862 H 0.89848 0.67417 0.64212 0.0
H2863 H 0.92348 0.67934 0.65955 0.0
H2864 H 0.86994 0.70698 0.68025 0.0
H2865 H 0.84454 0.7017 0.66298 0.0
C2866 C 0.81518 0.7473 0.60407 0.0
C2867 C 0.80528 0.76284 0.61185 0.0
C2868 C 0.82258 0.7269 0.60857 0.0
C2869 C 0.81978 0.72151 0.62086 0.0
C2870 C 0.80904 0.73671 0.62849 0.0
C2871 C 0.80196 0.75718 0.62405 0.0
C2872 C 0.82943 0.70083 0.626 0.0
C2873 C 0.84337 0.70261 0.63614 0.0
C2874 C 0.82593 0.67973 0.62071 0.0
C2875 C 0.81033 0.67641 0.61049 0.0
C2876 C 0.78821 0.68362 0.61136 0.0
C2877 C 0.77362 0.68054 0.60167 0.0
C2878 C 0.78091 0.67014 0.5911 0.0
C2879 C 0.8028 0.66275 0.5902 0.0
C2880 C 0.81747 0.6658 0.59985 0.0
C2881 C 0.87003 0.61721 0.6567 0.0
C2882 C 0.88396 0.60472 0.6491 0.0
C2883 C 0.85919 0.63608 0.65231 0.0
C2884 C 0.86211 0.64283 0.64025 0.0
C2885 C 0.87584 0.63031 0.63263 0.0
C2886 C 0.88672 0.61152 0.63701 0.0
C2887 C 0.85107 0.66306 0.63554 0.0
C2888 C 0.83699 0.66118 0.62548 0.0
C2889 C 0.85428 0.68407 0.64094 0.0
C2890 C 0.86956 0.68732 0.65131 0.0
C2891 C 0.892 0.68119 0.65042 0.0
C2892 C 0.90625 0.68417 0.66026 0.0
C2893 C 0.89829 0.69342 0.67101 0.0
C2894 C 0.87608 0.69978 0.67193 0.0
C2895 C 0.86175 0.69681 0.66211 0.0
H2896 H 0.90935 0.69572 0.67862 0.0
H2897 H 0.76959 0.66777 0.58362 0.0
H2898 H 0.64875 0.64687 0.8809 0.0
H2899 H 0.61558 0.62801 0.87383 0.0
H2900 H 0.60222 0.60523 0.9101 0.0
H2901 H 0.636 0.62369 0.91727 0.0
H2902 H 0.59515 0.57278 0.89424 0.0
H2903 H 0.5728 0.64853 0.89746 0.0
H2904 H 0.57532 0.68889 0.89423 0.0
H2905 H 0.57096 0.67921 0.85581 0.0
H2906 H 0.56872 0.63875 0.8588 0.0
H2907 H 0.48157 0.54599 0.88331 0.0
H2908 H 0.5169 0.56069 0.89047 0.0
H2909 H 0.53396 0.57973 0.85402 0.0
H2910 H 0.49846 0.56508 0.84676 0.0
H2911 H 0.53897 0.61372 0.87024 0.0
H2912 H 0.56059 0.53727 0.86753 0.0
H2913 H 0.55725 0.49714 0.87134 0.0
H2914 H 0.56166 0.50858 0.90961 0.0
H2915 H 0.56472 0.54883 0.90604 0.0
C2916 C 0.63877 0.63794 0.88743 0.0
C2917 C 0.64499 0.63695 0.89969 0.0
C2918 C 0.61972 0.6272 0.88336 0.0
C2919 C 0.60617 0.61551 0.89146 0.0
C2920 C 0.61239 0.61423 0.90369 0.0
C2921 C 0.63165 0.62486 0.90778 0.0
C2922 C 0.58561 0.60458 0.88705 0.0
C2923 C 0.58271 0.5818 0.88914 0.0
C2924 C 0.56956 0.61623 0.88019 0.0
C2925 C 0.57079 0.64058 0.87835 0.0
C2926 C 0.57254 0.65499 0.88832 0.0
C2927 C 0.57389 0.67789 0.88653 0.0
C2928 C 0.57335 0.68661 0.87482 0.0
C2929 C 0.5714 0.67244 0.86487 0.0
C2930 C 0.57006 0.64952 0.86661 0.0
C2931 C 0.49295 0.55301 0.87677 0.0
C2932 C 0.48719 0.55442 0.86446 0.0
C2933 C 0.51319 0.56134 0.88088 0.0
C2934 C 0.5281 0.57123 0.87278 0.0
C2935 C 0.52267 0.57214 0.86043 0.0
C2936 C 0.50245 0.56367 0.85628 0.0
C2937 C 0.54862 0.58192 0.87734 0.0
C2938 C 0.55146 0.6047 0.87531 0.0
C2939 C 0.56445 0.5703 0.88435 0.0
C2940 C 0.56268 0.54609 0.88652 0.0
C2941 C 0.56066 0.53125 0.87676 0.0
C2942 C 0.55886 0.50847 0.87888 0.0
C2943 C 0.55919 0.50032 0.89071 0.0
C2944 C 0.56138 0.51492 0.90045 0.0
C2945 C 0.56318 0.53771 0.89838 0.0
H2946 H 0.55779 0.48268 0.89233 0.0
H2947 H 0.5744 0.70434 0.87345 0.0
H2948 H 0.62889 0.39058 0.16413 0.0
H2949 H 0.64699 0.35618 0.15769 0.0
H2950 H 0.61686 0.36236 0.12245 0.0
H2951 H 0.59841 0.39625 0.12885 0.0
H2952 H 0.61407 0.32122 0.12981 0.0
H2953 H 0.67201 0.37585 0.12771 0.0
H2954 H 0.69638 0.40536 0.13555 0.0
H2955 H 0.72214 0.36073 0.16235 0.0
H2956 H 0.69769 0.33102 0.15477 0.0
H2957 H 0.6798 0.24449 0.09722 0.0
H2958 H 0.66481 0.28012 0.10407 0.0
H2959 H 0.68962 0.26756 0.14002 0.0
H2960 H 0.70457 0.23198 0.13328 0.0
H2961 H 0.69558 0.31149 0.13271 0.0
H2962 H 0.63755 0.25688 0.1345 0.0
H2963 H 0.61351 0.22742 0.12631 0.0
H2964 H 0.58812 0.27252 0.09964 0.0
H2965 H 0.61228 0.30217 0.10756 0.0
C2966 C 0.62607 0.38457 0.15503 0.0
C2967 C 0.61222 0.39624 0.14701 0.0
C2968 C 0.63653 0.36496 0.15133 0.0
C2969 C 0.63351 0.35681 0.13952 0.0
C2970 C 0.61946 0.36829 0.1316 0.0
C2971 C 0.60894 0.38775 0.13528 0.0
C2972 C 0.64484 0.3363 0.13533 0.0
C2973 C 0.63193 0.31925 0.13032 0.0
C2974 C 0.6681 0.33347 0.13621 0.0
C2975 C 0.68285 0.35128 0.14076 0.0
C2976 C 0.68275 0.37238 0.13534 0.0
C2977 C 0.69659 0.38913 0.13972 0.0
C2978 C 0.71075 0.38494 0.14947 0.0
C2979 C 0.71113 0.36396 0.15482 0.0
C2980 C 0.6973 0.34716 0.15048 0.0
C2981 C 0.68236 0.24948 0.10653 0.0
C2982 C 0.69323 0.23537 0.11473 0.0
C2983 C 0.67371 0.26978 0.11044 0.0
C2984 C 0.67589 0.27633 0.12259 0.0
C2985 C 0.68772 0.26279 0.13062 0.0
C2986 C 0.69619 0.24243 0.12675 0.0
C2987 C 0.66481 0.29666 0.12709 0.0
C2988 C 0.67774 0.31357 0.1322 0.0
C2989 C 0.64157 0.29943 0.12626 0.0
C2990 C 0.6269 0.28167 0.12154 0.0
C2991 C 0.62698 0.26046 0.12682 0.0
C2992 C 0.61331 0.24374 0.12224 0.0
C2993 C 0.59934 0.24807 0.11244 0.0
C2994 C 0.59898 0.26917 0.10722 0.0
C2995 C 0.61264 0.28595 0.11176 0.0
H2996 H 0.58877 0.2351 0.1089 0.0
H2997 H 0.72146 0.39794 0.15285 0.0
H2998 H 0.84177 0.4029 0.41031 0.0
H2999 H 0.87361 0.42398 0.40269 0.0
H3000 H 0.89938 0.36462 0.38601 0.0
H3001 H 0.86719 0.3439 0.39306 0.0
H3002 H 0.91536 0.42429 0.40535 0.0
H3003 H 0.92547 0.37398 0.36043 0.0
H3004 H 0.90166 0.3545 0.34573 0.0
H3005 H 0.84601 0.39417 0.35662 0.0
H3006 H 0.86954 0.4141 0.37126 0.0
H3007 H 0.02312 0.43495 0.38332 0.0
H3008 H 0.98675 0.42426 0.39074 0.0
H3009 H 0.95664 0.45069 0.35836 0.0
H3010 H 0.99348 0.46021 0.35053 0.0
H3011 H 0.93816 0.41479 0.36253 0.0
H3012 H 0.95163 0.47605 0.38792 0.0
H3013 H 0.97209 0.50062 0.40182 0.0
H3014 H 0.97462 0.44873 0.42837 0.0
H3015 H 0.95445 0.42373 0.41457 0.0
C3016 C 0.85433 0.39438 0.40507 0.0
C3017 C 0.8519 0.37183 0.40217 0.0
C3018 C 0.8725 0.40643 0.4007 0.0
C3019 C 0.88866 0.39606 0.39349 0.0
C3020 C 0.8868 0.37323 0.39119 0.0
C3021 C 0.86847 0.36134 0.39531 0.0
C3022 C 0.90748 0.40891 0.3883 0.0
C3023 C 0.92029 0.42232 0.39597 0.0
C3024 C 0.91346 0.40715 0.37593 0.0
C3025 C 0.89926 0.39542 0.36701 0.0
C3026 C 0.90819 0.37864 0.35964 0.0
C3027 C 0.89473 0.3675 0.35133 0.0
C3028 C 0.87233 0.37306 0.35026 0.0
C3029 C 0.86335 0.38983 0.35748 0.0
C3030 C 0.87674 0.40104 0.36579 0.0
C3031 C 0.00874 0.43873 0.37782 0.0
C3032 C 0.01114 0.4485 0.36636 0.0
C3033 C 0.98785 0.43276 0.38213 0.0
C3034 C 0.96873 0.43706 0.37527 0.0
C3035 C 0.97107 0.44721 0.36387 0.0
C3036 C 0.99211 0.45272 0.35941 0.0
C3037 C 0.94663 0.42951 0.37969 0.0
C3038 C 0.93314 0.41707 0.37187 0.0
C3039 C 0.93953 0.43299 0.39179 0.0
C3040 C 0.95162 0.44797 0.40017 0.0
C3041 C 0.95667 0.46983 0.39669 0.0
C3042 C 0.9682 0.48384 0.40456 0.0
C3043 C 0.97467 0.47623 0.41596 0.0
C3044 C 0.96959 0.4546 0.41953 0.0
C3045 C 0.95807 0.44051 0.4117 0.0
H3046 H 0.98361 0.4871 0.42204 0.0
H3047 H 0.86193 0.36439 0.34383 0.0
H3048 H 0.89156 0.40395 0.87448 0.0
H3049 H 0.87381 0.37032 0.88179 0.0
H3050 H 0.85244 0.35484 0.84551 0.0
H3051 H 0.86968 0.3891 0.83812 0.0
H3052 H 0.82017 0.34663 0.86103 0.0
H3053 H 0.89739 0.32824 0.8591 0.0
H3054 H 0.93736 0.33291 0.86306 0.0
H3055 H 0.92552 0.32876 0.90129 0.0
H3056 H 0.88543 0.32436 0.89757 0.0
H3057 H 0.7981 0.23239 0.87135 0.0
H3058 H 0.81192 0.26828 0.86457 0.0
H3059 H 0.82874 0.28536 0.90134 0.0
H3060 H 0.81504 0.24923 0.90823 0.0
H3061 H 0.8629 0.2929 0.88575 0.0
H3062 H 0.78539 0.31025 0.88736 0.0
H3063 H 0.74566 0.30481 0.88305 0.0
H3064 H 0.75845 0.30997 0.84493 0.0
H3065 H 0.79832 0.31514 0.84901 0.0
C3066 C 0.88314 0.39341 0.86801 0.0
C3067 C 0.8822 0.39914 0.85568 0.0
C3068 C 0.87305 0.3741 0.87222 0.0
C3069 C 0.86216 0.35978 0.86418 0.0
C3070 C 0.86085 0.36559 0.85188 0.0
C3071 C 0.87075 0.38513 0.84766 0.0
C3072 C 0.85209 0.33886 0.86868 0.0
C3073 C 0.8296 0.33473 0.86629 0.0
C3074 C 0.86424 0.32355 0.87579 0.0
C3075 C 0.88837 0.32615 0.87805 0.0
C3076 C 0.90329 0.32849 0.86835 0.0
C3077 C 0.92597 0.33106 0.87055 0.0
C3078 C 0.93396 0.33116 0.88242 0.0
C3079 C 0.91929 0.32868 0.89211 0.0
C3080 C 0.8966 0.32613 0.88996 0.0
C3081 C 0.80449 0.24386 0.87804 0.0
C3082 C 0.80549 0.23795 0.89034 0.0
C3083 C 0.81231 0.26443 0.87414 0.0
C3084 C 0.82124 0.27957 0.88245 0.0
C3085 C 0.82188 0.27392 0.89478 0.0
C3086 C 0.81396 0.25332 0.89871 0.0
C3087 C 0.83101 0.30072 0.87813 0.0
C3088 C 0.85347 0.30485 0.88053 0.0
C3089 C 0.81887 0.31592 0.87096 0.0
C3090 C 0.79488 0.31289 0.86849 0.0
C3091 C 0.77976 0.31005 0.87805 0.0
C3092 C 0.75721 0.30705 0.87565 0.0
C3093 C 0.74954 0.30699 0.86372 0.0
C3094 C 0.76441 0.30999 0.85417 0.0
C3095 C 0.78699 0.31299 0.85652 0.0
H3096 H 0.73207 0.30466 0.86188 0.0
H3097 H 0.95153 0.33307 0.88411 0.0
H3098 H 0.0175 0.54834 0.12055 0.0
H3099 H 0.98199 0.56277 0.11342 0.0
H3100 H 0.96619 0.58435 0.14961 0.0
H3101 H 0.00178 0.56992 0.15685 0.0
H3102 H 0.93776 0.55542 0.11942 0.0
H3103 H 0.94297 0.63638 0.14698 0.0
H3104 H 0.97126 0.66044 0.15634 0.0
H3105 H 0.01931 0.63862 0.13025 0.0
H3106 H 0.99122 0.61471 0.12064 0.0
H3107 H 0.85136 0.65155 0.1227 0.0
H3108 H 0.88448 0.63269 0.12989 0.0
H3109 H 0.89506 0.60522 0.09431 0.0
H3110 H 0.86142 0.62371 0.08706 0.0
H3111 H 0.92622 0.63642 0.12407 0.0
H3112 H 0.92059 0.55469 0.09687 0.0
H3113 H 0.89216 0.53042 0.0878 0.0
H3114 H 0.84426 0.55352 0.11363 0.0
H3115 H 0.87246 0.57768 0.12295 0.0
C3116 C 0.00635 0.55587 0.12704 0.0
C3117 C 0.01252 0.55815 0.13925 0.0
C3118 C 0.98603 0.56404 0.12294 0.0
C3119 C 0.97161 0.57487 0.13095 0.0
C3120 C 0.97722 0.57624 0.14326 0.0
C3121 C 0.99751 0.56791 0.14739 0.0
C3122 C 0.95142 0.58592 0.12624 0.0
C3123 C 0.93528 0.57316 0.12033 0.0
C3124 C 0.9481 0.60901 0.12758 0.0
C3125 C 0.96505 0.62357 0.13319 0.0
C3126 C 0.95955 0.63678 0.14322 0.0
C3127 C 0.97555 0.65039 0.14857 0.0
C3128 C 0.99709 0.65099 0.14392 0.0
C3129 C 0.00265 0.63807 0.13388 0.0
C3130 C 0.9867 0.62446 0.12848 0.0
C3131 C 0.86067 0.64151 0.11636 0.0
C3132 C 0.85365 0.63911 0.10429 0.0
C3133 C 0.87967 0.63074 0.12051 0.0
C3134 C 0.89216 0.61732 0.1127 0.0
C3135 C 0.88546 0.61516 0.10057 0.0
C3136 C 0.8663 0.62585 0.09642 0.0
C3137 C 0.9123 0.60592 0.11732 0.0
C3138 C 0.92855 0.61866 0.12318 0.0
C3139 C 0.91563 0.5828 0.11597 0.0
C3140 C 0.89858 0.56818 0.11051 0.0
C3141 C 0.904 0.55453 0.10063 0.0
C3142 C 0.88793 0.5408 0.09544 0.0
C3143 C 0.8664 0.54049 0.10011 0.0
C3144 C 0.86091 0.55384 0.10999 0.0
C3145 C 0.87693 0.56758 0.11522 0.0
H3146 H 0.85397 0.52986 0.09607 0.0
H3147 H 0.00946 0.66152 0.14809 0.0
H3148 H 0.62988 0.60718 0.33579 0.0
H3149 H 0.64855 0.64071 0.34303 0.0
H3150 H 0.62688 0.62647 0.37942 0.0
H3151 H 0.60775 0.59348 0.37224 0.0
H3152 H 0.62051 0.66813 0.37487 0.0
H3153 H 0.68157 0.61787 0.3696 0.0
H3154 H 0.70553 0.59178 0.35845 0.0
H3155 H 0.72165 0.64276 0.33281 0.0
H3156 H 0.69755 0.66909 0.34372 0.0
H3157 H 0.68688 0.74683 0.40535 0.0
H3158 H 0.67352 0.71062 0.39845 0.0
H3159 H 0.68966 0.72804 0.36164 0.0
H3160 H 0.70318 0.76409 0.36845 0.0
H3161 H 0.69961 0.68465 0.3665 0.0
H3162 H 0.63772 0.73436 0.37162 0.0
H3163 H 0.61391 0.76041 0.38289 0.0
H3164 H 0.59956 0.70984 0.40909 0.0
H3165 H 0.62355 0.68356 0.39805 0.0
C3166 C 0.62913 0.61119 0.34533 0.0
C3167 C 0.61728 0.59764 0.35342 0.0
C3168 C 0.63992 0.6303 0.34948 0.0
C3169 C 0.63935 0.63602 0.36182 0.0
C3170 C 0.62755 0.62247 0.36987 0.0
C3171 C 0.61662 0.60355 0.36573 0.0
C3172 C 0.65047 0.65639 0.36637 0.0
C3173 C 0.6379 0.67152 0.37318 0.0
C3174 C 0.67304 0.66116 0.36396 0.0
C3175 C 0.68758 0.64538 0.35741 0.0
C3176 C 0.69009 0.62347 0.36153 0.0
C3177 C 0.70372 0.60865 0.35527 0.0
C3178 C 0.71506 0.61559 0.34491 0.0
C3179 C 0.71284 0.6374 0.34082 0.0
C3180 C 0.69921 0.65228 0.34705 0.0
C3181 C 0.68793 0.7428 0.39582 0.0
C3182 C 0.69591 0.75841 0.38744 0.0
C3183 C 0.6802 0.72215 0.39188 0.0
C3184 C 0.68029 0.71678 0.37951 0.0
C3185 C 0.68938 0.73185 0.37122 0.0
C3186 C 0.69704 0.75249 0.37514 0.0
C3187 C 0.66967 0.69612 0.37507 0.0
C3188 C 0.68227 0.68108 0.36824 0.0
C3189 C 0.64714 0.69134 0.37748 0.0
C3190 C 0.63261 0.70708 0.38408 0.0
C3191 C 0.62962 0.72885 0.37984 0.0
C3192 C 0.61607 0.74365 0.38617 0.0
C3193 C 0.60528 0.7368 0.39672 0.0
C3194 C 0.60796 0.71513 0.40093 0.0
C3195 C 0.62152 0.70027 0.39463 0.0
H3196 H 0.5948 0.74828 0.40161 0.0
H3197 H 0.72561 0.60409 0.34008 0.0
H3198 H 0.65348 0.34984 0.62558 0.0
H3199 H 0.61991 0.3674 0.63325 0.0
H3200 H 0.60758 0.39591 0.5981 0.0
H3201 H 0.64149 0.37867 0.59035 0.0
H3202 H 0.60083 0.4259 0.61568 0.0
H3203 H 0.57816 0.3511 0.608 0.0
H3204 H 0.58025 0.31035 0.60932 0.0
H3205 H 0.57299 0.3138 0.64792 0.0
H3206 H 0.57116 0.35462 0.64685 0.0
H3207 H 0.48644 0.45104 0.62272 0.0
H3208 H 0.52277 0.43709 0.6167 0.0
H3209 H 0.53405 0.4134 0.653 0.0
H3210 H 0.49753 0.42737 0.65913 0.0
H3211 H 0.54202 0.38153 0.63565 0.0
H3212 H 0.56283 0.45688 0.6429 0.0
H3213 H 0.56009 0.49753 0.64111 0.0
H3214 H 0.56997 0.49289 0.60272 0.0
H3215 H 0.57246 0.45217 0.60425 0.0
C3216 C 0.64364 0.35979 0.61943 0.0
C3217 C 0.65017 0.36275 0.60731 0.0
C3218 C 0.62438 0.36977 0.62385 0.0
C3219 C 0.61108 0.38277 0.61622 0.0
C3220 C 0.61759 0.38593 0.60414 0.0
C3221 C 0.63693 0.37598 0.59972 0.0
C3222 C 0.59042 0.39311 0.6209 0.0
C3223 C 0.58784 0.41617 0.61991 0.0
C3224 C 0.57372 0.38048 0.62669 0.0
C3225 C 0.57476 0.35593 0.62736 0.0
C3226 C 0.57719 0.34318 0.61678 0.0
C3227 C 0.5783 0.32007 0.61748 0.0
C3228 C 0.57682 0.3095 0.6287 0.0
C3229 C 0.57417 0.32202 0.63924 0.0
C3230 C 0.57308 0.34514 0.63859 0.0
C3231 C 0.49674 0.44313 0.62948 0.0
C3232 C 0.48909 0.44028 0.6414 0.0
C3233 C 0.51755 0.43523 0.62603 0.0
C3234 C 0.53116 0.42429 0.63441 0.0
C3235 C 0.5238 0.42183 0.6464 0.0
C3236 C 0.503 0.42991 0.6499 0.0
C3237 C 0.55241 0.4143 0.63041 0.0
C3238 C 0.55508 0.39128 0.63149 0.0
C3239 C 0.5691 0.42695 0.62464 0.0
C3240 C 0.56763 0.45144 0.62368 0.0
C3241 C 0.56423 0.46451 0.63406 0.0
C3242 C 0.56276 0.48757 0.6331 0.0
C3243 C 0.56481 0.49778 0.62181 0.0
C3244 C 0.56837 0.48496 0.61146 0.0
C3245 C 0.56984 0.46189 0.61237 0.0
H3246 H 0.56367 0.51564 0.62108 0.0
H3247 H 0.57767 0.2916 0.62922 0.0
H3248 H 0.10101 0.39921 0.3717 0.0
H3249 H 0.12029 0.36593 0.37844 0.0
H3250 H 0.14205 0.35335 0.34191 0.0
H3251 H 0.12274 0.38685 0.33502 0.0
H3252 H 0.12577 0.31564 0.35366 0.0
H3253 H 0.17808 0.37371 0.36128 0.0
H3254 H 0.19076 0.40967 0.3693 0.0
H3255 H 0.17595 0.38826 0.40546 0.0
H3256 H 0.16286 0.35226 0.39763 0.0
H3257 H 0.20104 0.23137 0.36915 0.0
H3258 H 0.18671 0.26653 0.36157 0.0
H3259 H 0.16719 0.28497 0.39774 0.0
H3260 H 0.1819 0.24984 0.40547 0.0
H3261 H 0.18364 0.32016 0.3855 0.0
H3262 H 0.12964 0.26334 0.37818 0.0
H3263 H 0.116 0.22745 0.37053 0.0
H3264 H 0.1328 0.24661 0.33425 0.0
H3265 H 0.14685 0.28252 0.34172 0.0
C3266 C 0.1098 0.38938 0.36505 0.0
C3267 C 0.11036 0.39577 0.3528 0.0
C3268 C 0.12092 0.3704 0.36895 0.0
C3269 C 0.13283 0.35735 0.36071 0.0
C3270 C 0.13302 0.3633 0.34842 0.0
C3271 C 0.122 0.38243 0.34451 0.0
C3272 C 0.14492 0.33744 0.36499 0.0
C3273 C 0.1387 0.31664 0.36046 0.0
C3274 C 0.16136 0.33875 0.37411 0.0
C3275 C 0.1693 0.36035 0.37885 0.0
C3276 C 0.17735 0.37673 0.37093 0.0
C3277 C 0.18464 0.39711 0.37544 0.0
C3278 C 0.18411 0.40127 0.38788 0.0
C3279 C 0.17633 0.38502 0.39583 0.0
C3280 C 0.16899 0.36462 0.39136 0.0
C3281 C 0.19396 0.243 0.37554 0.0
C3282 C 0.19242 0.23773 0.3879 0.0
C3283 C 0.18568 0.26307 0.37117 0.0
C3284 C 0.17545 0.27818 0.37904 0.0
C3285 C 0.17491 0.27349 0.39149 0.0
C3286 C 0.18332 0.25341 0.39589 0.0
C3287 C 0.16446 0.29833 0.37419 0.0
C3288 C 0.17083 0.31916 0.37864 0.0
C3289 C 0.14803 0.29706 0.36505 0.0
C3290 C 0.13951 0.27552 0.36053 0.0
C3291 C 0.13059 0.25983 0.36858 0.0
C3292 C 0.12276 0.2395 0.36428 0.0
C3293 C 0.12359 0.23473 0.35192 0.0
C3294 C 0.1322 0.25031 0.34383 0.0
C3295 C 0.14009 0.27066 0.34809 0.0
H3296 H 0.11752 0.21898 0.3486 0.0
H3297 H 0.18977 0.41706 0.39136 0.0
H3298 H 0.34926 0.36139 0.11958 0.0
H3299 H 0.3825 0.38204 0.12491 0.0
H3300 H 0.38991 0.40293 0.08783 0.0
H3301 H 0.35622 0.3823 0.08234 0.0
H3302 H 0.42941 0.38603 0.09884 0.0
H3303 H 0.37326 0.43998 0.10677 0.0
H3304 H 0.33809 0.45394 0.1152 0.0
H3305 H 0.36123 0.44044 0.15119 0.0
H3306 H 0.39644 0.42608 0.14297 0.0
H3307 H 0.51909 0.45504 0.11463 0.0
H3308 H 0.48315 0.44358 0.10666 0.0
H3309 H 0.46167 0.42643 0.1427 0.0
H3310 H 0.4975 0.43846 0.1508 0.0
H3311 H 0.42845 0.44468 0.13035 0.0
H3312 H 0.48185 0.38702 0.12294 0.0
H3313 H 0.51676 0.37118 0.11518 0.0
H3314 H 0.49855 0.38959 0.07899 0.0
H3315 H 0.46364 0.40582 0.08657 0.0
C3316 C 0.35788 0.37034 0.11251 0.0
C3317 C 0.35007 0.37016 0.10051 0.0
C3318 C 0.37684 0.38225 0.11561 0.0
C3319 C 0.38851 0.39418 0.10679 0.0
C3320 C 0.38101 0.3939 0.09476 0.0
C3321 C 0.36179 0.38214 0.09165 0.0
C3322 C 0.40887 0.40634 0.11026 0.0
C3323 C 0.4292 0.39921 0.10552 0.0
C3324 C 0.40856 0.42307 0.11924 0.0
C3325 C 0.38744 0.4318 0.12424 0.0
C3326 C 0.37079 0.43982 0.11648 0.0
C3327 C 0.35085 0.44784 0.12122 0.0
C3328 C 0.34741 0.44804 0.13372 0.0
C3329 C 0.36392 0.44026 0.14151 0.0
C3330 C 0.38388 0.43221 0.13681 0.0
C3331 C 0.50663 0.44909 0.12089 0.0
C3332 C 0.5112 0.44745 0.13334 0.0
C3333 C 0.48611 0.44245 0.1163 0.0
C3334 C 0.46988 0.43369 0.12404 0.0
C3335 C 0.47399 0.43305 0.13655 0.0
C3336 C 0.49447 0.43991 0.14117 0.0
C3337 C 0.44908 0.4242 0.11903 0.0
C3338 C 0.42868 0.43176 0.12352 0.0
C3339 C 0.44933 0.40766 0.10991 0.0
C3340 C 0.47027 0.39786 0.10533 0.0
C3341 C 0.48538 0.38785 0.11334 0.0
C3342 C 0.50514 0.37877 0.10897 0.0
C3343 C 0.5099 0.37943 0.09661 0.0
C3344 C 0.49486 0.38912 0.08857 0.0
C3345 C 0.47508 0.39826 0.09289 0.0
H3346 H 0.52521 0.37239 0.09324 0.0
H3347 H 0.33196 0.45425 0.13737 0.0
H3348 H 0.31352 0.74994 0.90556 0.0
H3349 H 0.32705 0.71353 0.89904 0.0
H3350 H 0.31415 0.73092 0.86185 0.0
H3351 H 0.30051 0.76716 0.86826 0.0
H3352 H 0.30276 0.68784 0.86668 0.0
H3353 H 0.3653 0.73634 0.87298 0.0
H3354 H 0.38885 0.76191 0.88471 0.0
H3355 H 0.40038 0.7111 0.91118 0.0
H3356 H 0.37662 0.68531 0.89968 0.0
H3357 H 0.3726 0.6099 0.83683 0.0
H3358 H 0.35433 0.64365 0.84403 0.0
H3359 H 0.3738 0.6281 0.88063 0.0
H3360 H 0.39258 0.59483 0.87349 0.0
H3361 H 0.38097 0.66983 0.87651 0.0
H3362 H 0.31954 0.62067 0.86997 0.0
H3363 H 0.29583 0.59506 0.85835 0.0
H3364 H 0.28191 0.64653 0.83262 0.0
H3365 H 0.30578 0.67238 0.844 0.0
C3366 C 0.31326 0.74587 0.89602 0.0
C3367 C 0.30612 0.76149 0.88742 0.0
C3368 C 0.32108 0.72511 0.8923 0.0
C3369 C 0.32188 0.71966 0.87995 0.0
C3370 C 0.31372 0.7348 0.87142 0.0
C3371 C 0.306 0.75555 0.87511 0.0
C3372 C 0.33236 0.69875 0.87579 0.0
C3373 C 0.31991 0.68394 0.86874 0.0
C3374 C 0.35462 0.69353 0.87865 0.0
C3375 C 0.36899 0.70898 0.88554 0.0
C3376 C 0.37271 0.73068 0.88135 0.0
C3377 C 0.38612 0.7452 0.88795 0.0
C3378 C 0.39605 0.73816 0.89871 0.0
C3379 C 0.39264 0.71655 0.90286 0.0
C3380 C 0.37922 0.70197 0.8963 0.0
C3381 C 0.37298 0.61367 0.84641 0.0
C3382 C 0.38407 0.59965 0.85457 0.0
C3383 C 0.36241 0.63291 0.85053 0.0
C3384 C 0.36242 0.6383 0.86291 0.0
C3385 C 0.37354 0.62433 0.87104 0.0
C3386 C 0.38427 0.60527 0.86693 0.0
C3387 C 0.35136 0.65872 0.86742 0.0
C3388 C 0.36375 0.67355 0.8745 0.0
C3389 C 0.32903 0.66388 0.86462 0.0
C3390 C 0.31462 0.64839 0.85778 0.0
C3391 C 0.31155 0.62648 0.86179 0.0
C3392 C 0.29806 0.61192 0.85525 0.0
C3393 C 0.28741 0.61914 0.84474 0.0
C3394 C 0.29019 0.64095 0.84076 0.0
C3395 C 0.30368 0.65556 0.84725 0.0
H3396 H 0.27698 0.60785 0.83969 0.0
H3397 H 0.40643 0.74942 0.9038 0.0
H3398 H 0.98229 0.55179 0.62178 0.0
H3399 H 0.01872 0.56452 0.61525 0.0
H3400 H 0.03644 0.57826 0.65231 0.0
H3401 H 0.99973 0.56572 0.65895 0.0
H3402 H 0.04556 0.61292 0.63759 0.0
H3403 H 0.05963 0.53472 0.63718 0.0
H3404 H 0.05247 0.49564 0.63192 0.0
H3405 H 0.05772 0.51133 0.59414 0.0
H3406 H 0.06462 0.55057 0.59916 0.0
H3407 H 0.1573 0.63878 0.62547 0.0
H3408 H 0.12361 0.62131 0.63299 0.0
H3409 H 0.10523 0.60361 0.59652 0.0
H3410 H 0.1394 0.6206 0.58891 0.0
H3411 H 0.09702 0.57018 0.61146 0.0
H3412 H 0.08108 0.64804 0.61144 0.0
H3413 H 0.08749 0.68746 0.61622 0.0
H3414 H 0.08469 0.67285 0.65421 0.0
H3415 H 0.07855 0.63328 0.64966 0.0
C3416 C 0.994 0.55726 0.62858 0.0
C3417 C 0.98809 0.55777 0.64089 0.0
C3418 C 0.01489 0.56445 0.62482 0.0
C3419 C 0.03039 0.57219 0.63329 0.0
C3420 C 0.02473 0.5723 0.64562 0.0
C3421 C 0.0038 0.56505 0.64941 0.0
C3422 C 0.05192 0.58139 0.62914 0.0
C3423 C 0.05702 0.60344 0.63206 0.0
C3424 C 0.06651 0.56925 0.6216 0.0
C3425 C 0.06247 0.54563 0.61855 0.0
C3426 C 0.0591 0.52987 0.62775 0.0
C3427 C 0.05511 0.50768 0.62481 0.0
C3428 C 0.05459 0.50102 0.61271 0.0
C3429 C 0.05811 0.51652 0.60351 0.0
C3430 C 0.06209 0.53873 0.6064 0.0
C3431 C 0.14612 0.6312 0.61901 0.0
C3432 C 0.15099 0.63124 0.60656 0.0
C3433 C 0.12679 0.62127 0.62334 0.0
C3434 C 0.11166 0.61147 0.61531 0.0
C3435 C 0.11662 0.61113 0.60289 0.0
C3436 C 0.13612 0.6209 0.59855 0.0
C3437 C 0.09066 0.60172 0.61991 0.0
C3438 C 0.08563 0.57961 0.61705 0.0
C3439 C 0.07601 0.61385 0.62744 0.0
C3440 C 0.07957 0.63766 0.6302 0.0
C3441 C 0.08199 0.65321 0.62081 0.0
C3442 C 0.08555 0.67558 0.62348 0.0
C3443 C 0.08655 0.68264 0.63551 0.0
C3444 C 0.08393 0.66735 0.6449 0.0
C3445 C 0.08039 0.64495 0.64228 0.0
H3446 H 0.08931 0.69997 0.63756 0.0
H3447 H 0.0515 0.48383 0.61045 0.0
H3448 H 0.10784 0.60016 0.13013 0.0
H3449 H 0.12708 0.63344 0.12331 0.0
H3450 H 0.14535 0.64853 0.16011 0.0
H3451 H 0.12613 0.61504 0.16709 0.0
H3452 H 0.12821 0.68493 0.14734 0.0
H3453 H 0.18364 0.62881 0.14198 0.0
H3454 H 0.19828 0.593 0.13478 0.0
H3455 H 0.1859 0.61232 0.09801 0.0
H3456 H 0.17087 0.64814 0.105 0.0
H3457 H 0.20116 0.77169 0.1332 0.0
H3458 H 0.1874 0.73625 0.14068 0.0
H3459 H 0.17306 0.71569 0.10412 0.0
H3460 H 0.18727 0.75114 0.09651 0.0
H3461 H 0.18926 0.6816 0.11727 0.0
H3462 H 0.13231 0.73621 0.12212 0.0
H3463 H 0.11616 0.77173 0.12877 0.0
H3464 H 0.12967 0.75501 0.16581 0.0
H3465 H 0.14621 0.7195 0.15936 0.0
C3466 C 0.11592 0.61052 0.13681 0.0
C3467 C 0.11545 0.60491 0.14917 0.0
C3468 C 0.12702 0.62949 0.13287 0.0
C3469 C 0.13783 0.64331 0.14119 0.0
C3470 C 0.13717 0.638 0.15355 0.0
C3471 C 0.12622 0.61886 0.15751 0.0
C3472 C 0.14942 0.66352 0.13691 0.0
C3473 C 0.14183 0.68421 0.14093 0.0
C3474 C 0.16672 0.66254 0.12827 0.0
C3475 C 0.17594 0.64109 0.12403 0.0
C3476 C 0.18387 0.62536 0.13237 0.0
C3477 C 0.19227 0.60507 0.12832 0.0
C3478 C 0.19297 0.60037 0.11595 0.0
C3479 C 0.18533 0.61598 0.10759 0.0
C3480 C 0.17689 0.63629 0.11159 0.0
C3481 C 0.19532 0.75956 0.12671 0.0
C3482 C 0.19511 0.76431 0.11426 0.0
C3483 C 0.18738 0.73932 0.13102 0.0
C3484 C 0.17876 0.7235 0.12299 0.0
C3485 C 0.17952 0.72772 0.11049 0.0
C3486 C 0.18764 0.74797 0.10615 0.0
C3487 C 0.16808 0.70306 0.12771 0.0
C3488 C 0.17576 0.68234 0.12374 0.0
C3489 C 0.15069 0.70399 0.13632 0.0
C3490 C 0.14071 0.7253 0.14024 0.0
C3491 C 0.132 0.74018 0.13167 0.0
C3492 C 0.12275 0.7603 0.13541 0.0
C3493 C 0.12195 0.76565 0.1477 0.0
C3494 C 0.13034 0.75086 0.15629 0.0
C3495 C 0.13964 0.73073 0.1526 0.0
H3496 H 0.11477 0.78123 0.15058 0.0
H3497 H 0.19946 0.58464 0.11284 0.0
H3498 H 0.15158 0.35391 0.87761 0.0
H3499 H 0.11787 0.37188 0.87032 0.0
H3500 H 0.1026 0.39318 0.90662 0.0
H3501 H 0.13639 0.37523 0.91404 0.0
H3502 H 0.06637 0.37482 0.89451 0.0
H3503 H 0.12292 0.42966 0.88714 0.0
H3504 H 0.15843 0.44328 0.87896 0.0
H3505 H 0.13695 0.42767 0.84291 0.0
H3506 H 0.10142 0.41367 0.8509 0.0
H3507 H 0.98192 0.45087 0.88256 0.0
H3508 H 0.01758 0.43565 0.88875 0.0
H3509 H 0.0324 0.41905 0.85166 0.0
H3510 H 0.99666 0.43462 0.84532 0.0
H3511 H 0.06901 0.4344 0.86356 0.0
H3512 H 0.01316 0.37991 0.87011 0.0
H3513 H 0.97755 0.36527 0.87756 0.0
H3514 H 0.99756 0.37809 0.91418 0.0
H3515 H 0.03316 0.39322 0.90693 0.0
C3516 C 0.14108 0.36239 0.88407 0.0
C3517 C 0.14674 0.36317 0.89642 0.0
C3518 C 0.12185 0.37273 0.87986 0.0
C3519 C 0.10786 0.38403 0.88791 0.0
C3520 C 0.11323 0.38458 0.90026 0.0
C3521 C 0.13257 0.37436 0.90448 0.0
C3522 C 0.08753 0.39514 0.88342 0.0
C3523 C 0.06695 0.38807 0.88788 0.0
C3524 C 0.0883 0.41188 0.87446 0.0
C3525 C 0.1096 0.42042 0.86963 0.0
C3526 C 0.12584 0.42897 0.87748 0.0
C3527 C 0.14596 0.43679 0.87287 0.0
C3528 C 0.14997 0.43629 0.86042 0.0
C3529 C 0.13384 0.42802 0.85255 0.0
C3530 C 0.1137 0.42016 0.85711 0.0
C3531 C 0.99285 0.44424 0.87567 0.0
C3532 C 0.98637 0.44376 0.86345 0.0
C3533 C 0.0132 0.43547 0.87924 0.0
C3534 C 0.02743 0.4258 0.8707 0.0
C3535 C 0.02159 0.42632 0.8584 0.0
C3536 C 0.00118 0.43522 0.8548 0.0
C3537 C 0.04785 0.41428 0.87477 0.0
C3538 C 0.06842 0.42118 0.87021 0.0
C3539 C 0.04708 0.39717 0.88354 0.0
C3540 C 0.02576 0.3879 0.88797 0.0
C3541 C 0.0099 0.37977 0.87975 0.0
C3542 C 0.98972 0.37136 0.88394 0.0
C3543 C 0.98527 0.37077 0.89634 0.0
C3544 C 0.00102 0.37857 0.90458 0.0
C3545 C 0.02121 0.38707 0.90043 0.0
H3546 H 0.96963 0.36425 0.89956 0.0
H3547 H 0.16555 0.44235 0.85687 0.0
H3548 H 0.31248 0.24803 0.59442 0.0
H3549 H 0.32624 0.28436 0.60096 0.0
H3550 H 0.3082 0.26911 0.63779 0.0
H3551 H 0.29454 0.23285 0.63136 0.0
H3552 H 0.29902 0.31318 0.63138 0.0
H3553 H 0.35937 0.2606 0.62945 0.0
H3554 H 0.38312 0.23285 0.61943 0.0
H3555 H 0.40214 0.28094 0.59273 0.0
H3556 H 0.37822 0.3089 0.6025 0.0
H3557 H 0.36796 0.38743 0.66424 0.0
H3558 H 0.34893 0.35474 0.65625 0.0
H3559 H 0.37624 0.36772 0.62087 0.0
H3560 H 0.3957 0.39999 0.62882 0.0
H3561 H 0.37968 0.3256 0.62571 0.0
H3562 H 0.32115 0.37899 0.62798 0.0
H3563 H 0.29715 0.40692 0.63766 0.0
H3564 H 0.27432 0.35825 0.66312 0.0
H3565 H 0.29843 0.33008 0.65369 0.0
C3566 C 0.31107 0.25259 0.60387 0.0
C3567 C 0.3026 0.23752 0.61239 0.0
C3568 C 0.31901 0.2733 0.6076 0.0
C3569 C 0.31845 0.27929 0.61988 0.0
C3570 C 0.30881 0.2648 0.62828 0.0
C3571 C 0.30108 0.24405 0.62459 0.0
C3572 C 0.32937 0.29987 0.62417 0.0
C3573 C 0.31668 0.31589 0.63022 0.0
C3574 C 0.35233 0.30351 0.62246 0.0
C3575 C 0.36681 0.28676 0.61662 0.0
C3576 C 0.36847 0.2652 0.62138 0.0
C3577 C 0.38199 0.24944 0.61576 0.0
C3578 C 0.39408 0.25511 0.60543 0.0
C3579 C 0.39273 0.27657 0.60072 0.0
C3580 C 0.3792 0.29238 0.6063 0.0
C3581 C 0.36992 0.38332 0.65476 0.0
C3582 C 0.38337 0.39636 0.64718 0.0
C3583 C 0.35891 0.3647 0.65018 0.0
C3584 C 0.3609 0.35891 0.6379 0.0
C3585 C 0.37442 0.37183 0.63036 0.0
C3586 C 0.38553 0.39033 0.63494 0.0
C3587 C 0.34936 0.33911 0.63294 0.0
C3588 C 0.36197 0.32311 0.62679 0.0
C3589 C 0.32631 0.33559 0.63451 0.0
C3590 C 0.31176 0.35248 0.6402 0.0
C3591 C 0.31114 0.37428 0.6357 0.0
C3592 C 0.29749 0.39015 0.64113 0.0
C3593 C 0.28426 0.38438 0.65102 0.0
C3594 C 0.2846 0.3627 0.65547 0.0
C3595 C 0.29824 0.34677 0.65008 0.0
H3596 H 0.2737 0.39669 0.65521 0.0
H3597 H 0.40455 0.24289 0.60109 0.0
H3598 H 0.50223 0.56422 0.34552 0.0
H3599 H 0.46657 0.57859 0.35272 0.0
H3600 H 0.48233 0.55721 0.38894 0.0
H3601 H 0.51791 0.54286 0.38185 0.0
H3602 H 0.43823 0.54936 0.38284 0.0
H3603 H 0.49112 0.6093 0.38162 0.0
H3604 H 0.51885 0.63356 0.37194 0.0
H3605 H 0.47038 0.65476 0.34595 0.0
H3606 H 0.44244 0.63036 0.35537 0.0
H3607 H 0.36236 0.61647 0.41599 0.0
H3608 H 0.39581 0.5983 0.40828 0.0
H3609 H 0.38405 0.62667 0.37303 0.0
H3610 H 0.35109 0.64526 0.38069 0.0
H3611 H 0.42594 0.63029 0.37841 0.0
H3612 H 0.37263 0.57136 0.37958 0.0
H3613 H 0.34464 0.54695 0.3889 0.0
H3614 H 0.39299 0.52355 0.41438 0.0
H3615 H 0.42121 0.54806 0.40532 0.0
C3616 C 0.49794 0.56227 0.35498 0.0
C3617 C 0.51295 0.55255 0.36313 0.0
C3618 C 0.47762 0.57057 0.35909 0.0
C3619 C 0.47194 0.56919 0.37139 0.0
C3620 C 0.4864 0.55848 0.37942 0.0
C3621 C 0.50676 0.55035 0.37535 0.0
C3622 C 0.4516 0.58003 0.37607 0.0
C3623 C 0.43559 0.56708 0.38197 0.0
C3624 C 0.44802 0.60309 0.37475 0.0
C3625 C 0.46477 0.61783 0.36911 0.0
C3626 C 0.48643 0.619 0.37377 0.0
C3627 C 0.50217 0.6328 0.36835 0.0
C3628 C 0.4964 0.64564 0.35832 0.0
C3629 C 0.47484 0.64477 0.35371 0.0
C3630 C 0.45905 0.63097 0.35909 0.0
C3631 C 0.36693 0.61887 0.40661 0.0
C3632 C 0.354 0.63232 0.39897 0.0
C3633 C 0.38599 0.60836 0.40219 0.0
C3634 C 0.39231 0.61087 0.39002 0.0
C3635 C 0.37954 0.62446 0.38244 0.0
C3636 C 0.36063 0.63507 0.38685 0.0
C3637 C 0.41236 0.59963 0.38514 0.0
C3638 C 0.42843 0.61254 0.37924 0.0
C3639 C 0.41588 0.57652 0.3864 0.0
C3640 C 0.39897 0.56171 0.39184 0.0
C3641 C 0.37725 0.56114 0.38723 0.0
C3642 C 0.36135 0.54726 0.39245 0.0
C3643 C 0.36702 0.53375 0.40225 0.0
C3644 C 0.38862 0.53405 0.40681 0.0
C3645 C 0.40458 0.54791 0.40163 0.0
H3646 H 0.35468 0.52302 0.40628 0.0
H3647 H 0.50861 0.65632 0.35413 0.0
loop_
_geom_bond_atom_site_label_1
_geom_bond_atom_site_label_2
_geom_bond_distance
_geom_bond_site_symmetry_2
_ccdc_geom_bond_type
O0 Cd1 2.223 . S
O0 C8 1.315 . S
Cd1 O0 2.223 . S
Cd1 O4 2.297 . S
Cd1 O5 2.439 . S
Cd1 O11 2.240 . S
Cd2 O3 2.240 . S
Cd2 O10 2.223 . S
Cd2 O12 2.297 . S
Cd2 O13 2.439 . S
O3 Cd2 2.240 . S
O3 C8 1.279 . S
O4 Cd1 2.297 . S
O4 C6 1.247 . S
O5 Cd1 2.439 . S
O5 C6 1.208 . S
C6 O4 1.247 . S
C6 O5 1.208 . S
C7 O12 1.247 . S
C7 O13 1.208 . S
C8 O0 1.315 . S
C8 O3 1.279 . S
C9 O10 1.315 . S
C9 O11 1.279 . S
O10 Cd2 2.223 . S
O10 C9 1.315 . S
O11 Cd1 2.240 . S
O11 C9 1.279 . S
O12 Cd2 2.297 . S
O12 C7 1.247 . S
O13 Cd2 2.439 . S
O13 C7 1.208 . S
O14 Cd15 2.223 . S
O14 C22 1.315 . S
Cd15 O14 2.223 . S
Cd15 O18 2.297 . S
Cd15 O19 2.439 . S
Cd15 O25 2.240 . S
Cd16 O17 2.240 . S
Cd16 O24 2.223 . S
Cd16 O26 2.297 . S
Cd16 O27 2.439 . S
O17 Cd16 2.240 . S
O17 C22 1.279 . S
O18 Cd15 2.297 . S
O18 C20 1.247 . S
O19 Cd15 2.439 . S
O19 C20 1.208 . S
C20 O18 1.247 . S
C20 O19 1.208 . S
C21 O26 1.247 . S
C21 O27 1.208 . S
C22 O14 1.315 . S
C22 O17 1.279 . S
C23 O24 1.315 . S
C23 O25 1.279 . S
O24 Cd16 2.223 . S
O24 C23 1.315 . S
O25 Cd15 2.240 . S
O25 C23 1.279 . S
O26 Cd16 2.297 . S
O26 C21 1.247 . S
O27 Cd16 2.439 . S
O27 C21 1.208 . S
O28 Cd29 2.223 . S
O28 C36 1.315 . S
Cd29 O28 2.223 . S
Cd29 O32 2.297 . S
Cd29 O33 2.439 . S
Cd29 O39 2.240 . S
Cd30 O31 2.240 . S
Cd30 O38 2.223 . S
Cd30 O40 2.297 . S
Cd30 O41 2.439 . S
O31 Cd30 2.240 . S
O31 C36 1.279 . S
O32 Cd29 2.297 . S
O32 C34 1.247 . S
O33 Cd29 2.439 . S
O33 C34 1.208 . S
C34 O32 1.247 . S
C34 O33 1.208 . S
C35 O40 1.247 . S
C35 O41 1.208 . S
C36 O28 1.315 . S
C36 O31 1.279 . S
C37 O38 1.315 . S
C37 O39 1.279 . S
O38 Cd30 2.223 . S
O38 C37 1.315 . S
O39 Cd29 2.240 . S
O39 C37 1.279 . S
O40 Cd30 2.297 . S
O40 C35 1.247 . S
O41 Cd30 2.439 . S
O41 C35 1.208 . S
O42 Cd43 2.223 . S
O42 C50 1.315 . S
Cd43 O42 2.223 . S
Cd43 O46 2.297 . S
Cd43 O47 2.439 . S
Cd43 O53 2.240 . S
Cd44 O45 2.240 . S
Cd44 O52 2.223 . S
Cd44 O54 2.297 . S
Cd44 O55 2.439 . S
O45 Cd44 2.240 . S
O45 C50 1.279 . S
O46 Cd43 2.297 . S
O46 C48 1.247 . S
O47 Cd43 2.439 . S
O47 C48 1.208 . S
C48 O46 1.247 . S
C48 O47 1.208 . S
C49 O54 1.247 . S
C49 O55 1.208 . S
C50 O42 1.315 . S
C50 O45 1.279 . S
C51 O52 1.315 . S
C51 O53 1.279 . S
O52 Cd44 2.223 . S
O52 C51 1.315 . S
O53 Cd43 2.240 . S
O53 C51 1.279 . S
O54 Cd44 2.297 . S
O54 C49 1.247 . S
O55 Cd44 2.439 . S
O55 C49 1.208 . S
O56 Cd57 2.223 . S
O56 C64 1.315 . S
Cd57 O56 2.223 . S
Cd57 O60 2.297 . S
Cd57 O61 2.439 . S
Cd57 O67 2.240 . S
Cd58 O59 2.240 . S
Cd58 O66 2.223 . S
Cd58 O68 2.297 . S
Cd58 O69 2.439 . S
O59 Cd58 2.240 . S
O59 C64 1.279 . S
O60 Cd57 2.297 . S
O60 C62 1.247 . S
O61 Cd57 2.439 . S
O61 C62 1.208 . S
C62 O60 1.247 . S
C62 O61 1.208 . S
C63 O68 1.247 . S
C63 O69 1.208 . S
C64 O56 1.315 . S
C64 O59 1.279 . S
C65 O66 1.315 . S
C65 O67 1.279 . S
O66 Cd58 2.223 . S
O66 C65 1.315 . S
O67 Cd57 2.240 . S
O67 C65 1.279 . S
O68 Cd58 2.297 . S
O68 C63 1.247 . S
O69 Cd58 2.439 . S
O69 C63 1.208 . S
O70 Cd71 2.223 . S
O70 C78 1.315 . S
Cd71 O70 2.223 . S
Cd71 O74 2.297 . S
Cd71 O75 2.439 . S
Cd71 O81 2.240 . S
Cd72 O73 2.240 . S
Cd72 O80 2.223 . S
Cd72 O82 2.297 . S
Cd72 O83 2.439 . S
O73 Cd72 2.240 . S
O73 C78 1.279 . S
O74 Cd71 2.297 . S
O74 C76 1.247 . S
O75 Cd71 2.439 . S
O75 C76 1.208 . S
C76 O74 1.247 . S
C76 O75 1.208 . S
C77 O82 1.247 . S
C77 O83 1.208 . S
C78 O70 1.315 . S
C78 O73 1.279 . S
C79 O80 1.315 . S
C79 O81 1.279 . S
O80 Cd72 2.223 . S
O80 C79 1.315 . S
O81 Cd71 2.240 . S
O81 C79 1.279 . S
O82 Cd72 2.297 . S
O82 C77 1.247 . S
O83 Cd72 2.439 . S
O83 C77 1.208 . S
O84 Cd85 2.223 . S
O84 C92 1.315 . S
Cd85 O84 2.223 . S
Cd85 O88 2.297 . S
Cd85 O89 2.439 . S
Cd85 O95 2.240 . S
Cd86 O87 2.240 . S
Cd86 O94 2.223 . S
Cd86 O96 2.297 . S
Cd86 O97 2.439 . S
O87 Cd86 2.240 . S
O87 C92 1.279 . S
O88 Cd85 2.297 . S
O88 C90 1.247 . S
O89 Cd85 2.439 . S
O89 C90 1.208 . S
C90 O88 1.247 . S
C90 O89 1.208 . S
C91 O96 1.247 . S
C91 O97 1.208 . S
C92 O84 1.315 . S
C92 O87 1.279 . S
C93 O94 1.315 . S
C93 O95 1.279 . S
O94 Cd86 2.223 . S
O94 C93 1.315 . S
O95 Cd85 2.240 . S
O95 C93 1.279 . S
O96 Cd86 2.297 . S
O96 C91 1.247 . S
O97 Cd86 2.439 . S
O97 C91 1.208 . S
O98 Cd99 2.223 . S
O98 C106 1.315 . S
Cd99 O98 2.223 . S
Cd99 O102 2.297 . S
Cd99 O103 2.439 . S
Cd99 O109 2.240 . S
Cd100 O101 2.240 . S
Cd100 O108 2.223 . S
Cd100 O110 2.297 . S
Cd100 O111 2.439 . S
O101 Cd100 2.240 . S
O101 C106 1.279 . S
O102 Cd99 2.297 . S
O102 C104 1.247 . S
O103 Cd99 2.439 . S
O103 C104 1.208 . S
C104 O102 1.247 . S
C104 O103 1.208 . S
C105 O110 1.247 . S
C105 O111 1.208 . S
C106 O98 1.315 . S
C106 O101 1.279 . S
C107 O108 1.315 . S
C107 O109 1.279 . S
O108 Cd100 2.223 . S
O108 C107 1.315 . S
O109 Cd99 2.240 . S
O109 C107 1.279 . S
O110 Cd100 2.297 . S
O110 C105 1.247 . S
O111 Cd100 2.439 . S
O111 C105 1.208 . S
O112 Cd113 2.223 . S
O112 C120 1.315 . S
Cd113 O112 2.223 . S
Cd113 O116 2.297 . S
Cd113 O117 2.439 . S
Cd113 O123 2.240 . S
Cd114 O115 2.240 . S
Cd114 O122 2.223 . S
Cd114 O124 2.297 . S
Cd114 O125 2.439 . S
O115 Cd114 2.240 . S
O115 C120 1.279 . S
O116 Cd113 2.297 . S
O116 C118 1.247 . S
O117 Cd113 2.439 . S
O117 C118 1.208 . S
C118 O116 1.247 . S
C118 O117 1.208 . S
C119 O124 1.247 . S
C119 O125 1.208 . S
C120 O112 1.315 . S
C120 O115 1.279 . S
C121 O122 1.315 . S
C121 O123 1.279 . S
O122 Cd114 2.223 . S
O122 C121 1.315 . S
O123 Cd113 2.240 . S
O123 C121 1.279 . S
O124 Cd114 2.297 . S
O124 C119 1.247 . S
O125 Cd114 2.439 . S
O125 C119 1.208 . S
O126 Cd127 2.223 . S
O126 C134 1.315 . S
Cd127 O126 2.223 . S
Cd127 O130 2.297 . S
Cd127 O131 2.439 . S
Cd127 O137 2.240 . S
Cd128 O129 2.240 . S
Cd128 O136 2.223 . S
Cd128 O138 2.297 . S
Cd128 O139 2.439 . S
O129 Cd128 2.240 . S
O129 C134 1.279 . S
O130 Cd127 2.297 . S
O130 C132 1.247 . S
O131 Cd127 2.439 . S
O131 C132 1.208 . S
C132 O130 1.247 . S
C132 O131 1.208 . S
C133 O138 1.247 . S
C133 O139 1.208 . S
C134 O126 1.315 . S
C134 O129 1.279 . S
C135 O136 1.315 . S
C135 O137 1.279 . S
O136 Cd128 2.223 . S
O136 C135 1.315 . S
O137 Cd127 2.240 . S
O137 C135 1.279 . S
O138 Cd128 2.297 . S
O138 C133 1.247 . S
O139 Cd128 2.439 . S
O139 C133 1.208 . S
O140 Cd141 2.223 . S
O140 C148 1.315 . S
Cd141 O140 2.223 . S
Cd141 O144 2.297 . S
Cd141 O145 2.439 . S
Cd141 O151 2.240 . S
Cd142 O143 2.240 . S
Cd142 O150 2.223 . S
Cd142 O152 2.297 . S
Cd142 O153 2.439 . S
O143 Cd142 2.240 . S
O143 C148 1.279 . S
O144 Cd141 2.297 . S
O144 C146 1.247 . S
O145 Cd141 2.439 . S
O145 C146 1.208 . S
C146 O144 1.247 . S
C146 O145 1.208 . S
C147 O152 1.247 . S
C147 O153 1.208 . S
C148 O140 1.315 . S
C148 O143 1.279 . S
C149 O150 1.315 . S
C149 O151 1.279 . S
O150 Cd142 2.223 . S
O150 C149 1.315 . S
O151 Cd141 2.240 . S
O151 C149 1.279 . S
O152 Cd142 2.297 . S
O152 C147 1.247 . S
O153 Cd142 2.439 . S
O153 C147 1.208 . S
O154 Cd155 2.223 . S
O154 C162 1.315 . S
Cd155 O154 2.223 . S
Cd155 O158 2.297 . S
Cd155 O159 2.439 . S
Cd155 O165 2.240 . S
Cd156 O157 2.240 . S
Cd156 O164 2.223 . S
Cd156 O166 2.297 . S
Cd156 O167 2.439 . S
O157 Cd156 2.240 . S
O157 C162 1.279 . S
O158 Cd155 2.297 . S
O158 C160 1.247 . S
O159 Cd155 2.439 . S
O159 C160 1.208 . S
C160 O158 1.247 . S
C160 O159 1.208 . S
C161 O166 1.247 . S
C161 O167 1.208 . S
C162 O154 1.315 . S
C162 O157 1.279 . S
C163 O164 1.315 . S
C163 O165 1.279 . S
O164 Cd156 2.223 . S
O164 C163 1.315 . S
O165 Cd155 2.240 . S
O165 C163 1.279 . S
O166 Cd156 2.297 . S
O166 C161 1.247 . S
O167 Cd156 2.439 . S
O167 C161 1.208 . S
O168 Cd169 2.223 . S
O168 C176 1.315 . S
Cd169 O168 2.223 . S
Cd169 O172 2.297 . S
Cd169 O173 2.439 . S
Cd169 O179 2.240 . S
Cd170 O171 2.240 . S
Cd170 O178 2.223 . S
Cd170 O180 2.297 . S
Cd170 O181 2.439 . S
O171 Cd170 2.240 . S
O171 C176 1.279 . S
O172 Cd169 2.297 . S
O172 C174 1.247 . S
O173 Cd169 2.439 . S
O173 C174 1.208 . S
C174 O172 1.247 . S
C174 O173 1.208 . S
C175 O180 1.247 . S
C175 O181 1.208 . S
C176 O168 1.315 . S
C176 O171 1.279 . S
C177 O178 1.315 . S
C177 O179 1.279 . S
O178 Cd170 2.223 . S
O178 C177 1.315 . S
O179 Cd169 2.240 . S
O179 C177 1.279 . S
O180 Cd170 2.297 . S
O180 C175 1.247 . S
O181 Cd170 2.439 . S
O181 C175 1.208 . S
O182 Cd183 2.223 . S
O182 C190 1.315 . S
Cd183 O182 2.223 . S
Cd183 O186 2.297 . S
Cd183 O187 2.439 . S
Cd183 O193 2.240 . S
Cd184 O185 2.240 . S
Cd184 O192 2.223 . S
Cd184 O194 2.297 . S
Cd184 O195 2.439 . S
O185 Cd184 2.240 . S
O185 C190 1.279 . S
O186 Cd183 2.297 . S
O186 C188 1.247 . S
O187 Cd183 2.439 . S
O187 C188 1.208 . S
C188 O186 1.247 . S
C188 O187 1.208 . S
C189 O194 1.247 . S
C189 O195 1.208 . S
C190 O182 1.315 . S
C190 O185 1.279 . S
C191 O192 1.315 . S
C191 O193 1.279 . S
O192 Cd184 2.223 . S
O192 C191 1.315 . S
O193 Cd183 2.240 . S
O193 C191 1.279 . S
O194 Cd184 2.297 . S
O194 C189 1.247 . S
O195 Cd184 2.439 . S
O195 C189 1.208 . S
O196 Cd197 2.223 . S
O196 C204 1.315 . S
Cd197 O196 2.223 . S
Cd197 O200 2.297 . S
Cd197 O201 2.439 . S
Cd197 O207 2.240 . S
Cd198 O199 2.240 . S
Cd198 O206 2.223 . S
Cd198 O208 2.297 . S
Cd198 O209 2.439 . S
O199 Cd198 2.240 . S
O199 C204 1.279 . S
O200 Cd197 2.297 . S
O200 C202 1.247 . S
O201 Cd197 2.439 . S
O201 C202 1.208 . S
C202 O200 1.247 . S
C202 O201 1.208 . S
C203 O208 1.247 . S
C203 O209 1.208 . S
C204 O196 1.315 . S
C204 O199 1.279 . S
C205 O206 1.315 . S
C205 O207 1.279 . S
O206 Cd198 2.223 . S
O206 C205 1.315 . S
O207 Cd197 2.240 . S
O207 C205 1.279 . S
O208 Cd198 2.297 . S
O208 C203 1.247 . S
O209 Cd198 2.439 . S
O209 C203 1.208 . S
O210 Cd211 2.223 . S
O210 C218 1.315 . S
Cd211 O210 2.223 . S
Cd211 O214 2.297 . S
Cd211 O215 2.439 . S
Cd211 O221 2.240 . S
Cd212 O213 2.240 . S
Cd212 O220 2.223 . S
Cd212 O222 2.297 . S
Cd212 O223 2.439 . S
O213 Cd212 2.240 . S
O213 C218 1.279 . S
O214 Cd211 2.297 . S
O214 C216 1.247 . S
O215 Cd211 2.439 . S
O215 C216 1.208 . S
C216 O214 1.247 . S
C216 O215 1.208 . S
C217 O222 1.247 . S
C217 O223 1.208 . S
C218 O210 1.315 . S
C218 O213 1.279 . S
C219 O220 1.315 . S
C219 O221 1.279 . S
O220 Cd212 2.223 . S
O220 C219 1.315 . S
O221 Cd211 2.240 . S
O221 C219 1.279 . S
O222 Cd212 2.297 . S
O222 C217 1.247 . S
O223 Cd212 2.439 . S
O223 C217 1.208 . S
O224 Cd225 2.223 . S
O224 C232 1.315 . S
Cd225 O224 2.223 . S
Cd225 O228 2.297 . S
Cd225 O229 2.439 . S
Cd225 O235 2.240 . S
Cd226 O227 2.240 . S
Cd226 O234 2.223 . S
Cd226 O236 2.297 . S
Cd226 O237 2.439 . S
O227 Cd226 2.240 . S
O227 C232 1.279 . S
O228 Cd225 2.297 . S
O228 C230 1.247 . S
O229 Cd225 2.439 . S
O229 C230 1.208 . S
C230 O228 1.247 . S
C230 O229 1.208 . S
C231 O236 1.247 . S
C231 O237 1.208 . S
C232 O224 1.315 . S
C232 O227 1.279 . S
C233 O234 1.315 . S
C233 O235 1.279 . S
O234 Cd226 2.223 . S
O234 C233 1.315 . S
O235 Cd225 2.240 . S
O235 C233 1.279 . S
O236 Cd226 2.297 . S
O236 C231 1.247 . S
O237 Cd226 2.439 . S
O237 C231 1.208 . S
O238 Cd239 2.223 . S
O238 C246 1.315 . S
Cd239 O238 2.223 . S
Cd239 O242 2.297 . S
Cd239 O243 2.439 . S
Cd239 O249 2.240 . S
Cd240 O241 2.240 . S
Cd240 O248 2.223 . S
Cd240 O250 2.297 . S
Cd240 O251 2.439 . S
O241 Cd240 2.240 . S
O241 C246 1.279 . S
O242 Cd239 2.297 . S
O242 C244 1.247 . S
O243 Cd239 2.439 . S
O243 C244 1.208 . S
C244 O242 1.247 . S
C244 O243 1.208 . S
C245 O250 1.247 . S
C245 O251 1.208 . S
C246 O238 1.315 . S
C246 O241 1.279 . S
C247 O248 1.315 . S
C247 O249 1.279 . S
O248 Cd240 2.223 . S
O248 C247 1.315 . S
O249 Cd239 2.240 . S
O249 C247 1.279 . S
O250 Cd240 2.297 . S
O250 C245 1.247 . S
O251 Cd240 2.439 . S
O251 C245 1.208 . S
O252 Cd253 2.223 . S
O252 C260 1.315 . S
Cd253 O252 2.223 . S
Cd253 O256 2.297 . S
Cd253 O257 2.439 . S
Cd253 O263 2.240 . S
Cd254 O255 2.240 . S
Cd254 O262 2.223 . S
Cd254 O264 2.297 . S
Cd254 O265 2.439 . S
O255 Cd254 2.240 . S
O255 C260 1.279 . S
O256 Cd253 2.297 . S
O256 C258 1.247 . S
O257 Cd253 2.439 . S
O257 C258 1.208 . S
C258 O256 1.247 . S
C258 O257 1.208 . S
C259 O264 1.247 . S
C259 O265 1.208 . S
C260 O252 1.315 . S
C260 O255 1.279 . S
C261 O262 1.315 . S
C261 O263 1.279 . S
O262 Cd254 2.223 . S
O262 C261 1.315 . S
O263 Cd253 2.240 . S
O263 C261 1.279 . S
O264 Cd254 2.297 . S
O264 C259 1.247 . S
O265 Cd254 2.439 . S
O265 C259 1.208 . S
O266 Cd267 2.223 . S
O266 C274 1.315 . S
Cd267 O266 2.223 . S
Cd267 O270 2.297 . S
Cd267 O271 2.439 . S
Cd267 O277 2.240 . S
Cd268 O269 2.240 . S
Cd268 O276 2.223 . S
Cd268 O278 2.297 . S
Cd268 O279 2.439 . S
O269 Cd268 2.240 . S
O269 C274 1.279 . S
O270 Cd267 2.297 . S
O270 C272 1.247 . S
O271 Cd267 2.439 . S
O271 C272 1.208 . S
C272 O270 1.247 . S
C272 O271 1.208 . S
C273 O278 1.247 . S
C273 O279 1.208 . S
C274 O266 1.315 . S
C274 O269 1.279 . S
C275 O276 1.315 . S
C275 O277 1.279 . S
O276 Cd268 2.223 . S
O276 C275 1.315 . S
O277 Cd267 2.240 . S
O277 C275 1.279 . S
O278 Cd268 2.297 . S
O278 C273 1.247 . S
O279 Cd268 2.439 . S
O279 C273 1.208 . S
O280 Cd281 2.223 . S
O280 C288 1.315 . S
Cd281 O280 2.223 . S
Cd281 O284 2.297 . S
Cd281 O285 2.439 . S
Cd281 O291 2.240 . S
Cd282 O283 2.240 . S
Cd282 O290 2.223 . S
Cd282 O292 2.297 . S
Cd282 O293 2.439 . S
O283 Cd282 2.240 . S
O283 C288 1.279 . S
O284 Cd281 2.297 . S
O284 C286 1.247 . S
O285 Cd281 2.439 . S
O285 C286 1.208 . S
C286 O284 1.247 . S
C286 O285 1.208 . S
C287 O292 1.247 . S
C287 O293 1.208 . S
C288 O280 1.315 . S
C288 O283 1.279 . S
C289 O290 1.315 . S
C289 O291 1.279 . S
O290 Cd282 2.223 . S
O290 C289 1.315 . S
O291 Cd281 2.240 . S
O291 C289 1.279 . S
O292 Cd282 2.297 . S
O292 C287 1.247 . S
O293 Cd282 2.439 . S
O293 C287 1.208 . S
O294 Cd295 2.223 . S
O294 C302 1.315 . S
Cd295 O294 2.223 . S
Cd295 O298 2.297 . S
Cd295 O299 2.439 . S
Cd295 O305 2.240 . S
Cd296 O297 2.240 . S
Cd296 O304 2.223 . S
Cd296 O306 2.297 . S
Cd296 O307 2.439 . S
O297 Cd296 2.240 . S
O297 C302 1.279 . S
O298 Cd295 2.297 . S
O298 C300 1.247 . S
O299 Cd295 2.439 . S
O299 C300 1.208 . S
C300 O298 1.247 . S
C300 O299 1.208 . S
C301 O306 1.247 . S
C301 O307 1.208 . S
C302 O294 1.315 . S
C302 O297 1.279 . S
C303 O304 1.315 . S
C303 O305 1.279 . S
O304 Cd296 2.223 . S
O304 C303 1.315 . S
O305 Cd295 2.240 . S
O305 C303 1.279 . S
O306 Cd296 2.297 . S
O306 C301 1.247 . S
O307 Cd296 2.439 . S
O307 C301 1.208 . S
O308 Cd309 2.223 . S
O308 C316 1.315 . S
Cd309 O308 2.223 . S
Cd309 O312 2.297 . S
Cd309 O313 2.439 . S
Cd309 O319 2.240 . S
Cd310 O311 2.240 . S
Cd310 O318 2.223 . S
Cd310 O320 2.297 . S
Cd310 O321 2.439 . S
O311 Cd310 2.240 . S
O311 C316 1.279 . S
O312 Cd309 2.297 . S
O312 C314 1.247 . S
O313 Cd309 2.439 . S
O313 C314 1.208 . S
C314 O312 1.247 . S
C314 O313 1.208 . S
C315 O320 1.247 . S
C315 O321 1.208 . S
C316 O308 1.315 . S
C316 O311 1.279 . S
C317 O318 1.315 . S
C317 O319 1.279 . S
O318 Cd310 2.223 . S
O318 C317 1.315 . S
O319 Cd309 2.240 . S
O319 C317 1.279 . S
O320 Cd310 2.297 . S
O320 C315 1.247 . S
O321 Cd310 2.439 . S
O321 C315 1.208 . S
O322 Cd323 2.223 . S
O322 C330 1.315 . S
Cd323 O322 2.223 . S
Cd323 O326 2.297 . S
Cd323 O327 2.439 . S
Cd323 O333 2.240 . S
Cd324 O325 2.240 . S
Cd324 O332 2.223 . S
Cd324 O334 2.297 . S
Cd324 O335 2.439 . S
O325 Cd324 2.240 . S
O325 C330 1.279 . S
O326 Cd323 2.297 . S
O326 C328 1.247 . S
O327 Cd323 2.439 . S
O327 C328 1.208 . S
C328 O326 1.247 . S
C328 O327 1.208 . S
C329 O334 1.247 . S
C329 O335 1.208 . S
C330 O322 1.315 . S
C330 O325 1.279 . S
C331 O332 1.315 . S
C331 O333 1.279 . S
O332 Cd324 2.223 . S
O332 C331 1.315 . S
O333 Cd323 2.240 . S
O333 C331 1.279 . S
O334 Cd324 2.297 . S
O334 C329 1.247 . S
O335 Cd324 2.439 . S
O335 C329 1.208 . S
O336 Cd337 2.223 . S
O336 C344 1.315 . S
Cd337 O336 2.223 . S
Cd337 O340 2.297 . S
Cd337 O341 2.439 . S
Cd337 O347 2.240 . S
Cd338 O339 2.240 . S
Cd338 O346 2.223 . S
Cd338 O348 2.297 . S
Cd338 O349 2.439 . S
O339 Cd338 2.240 . S
O339 C344 1.279 . S
O340 Cd337 2.297 . S
O340 C342 1.247 . S
O341 Cd337 2.439 . S
O341 C342 1.208 . S
C342 O340 1.247 . S
C342 O341 1.208 . S
C343 O348 1.247 . S
C343 O349 1.208 . S
C344 O336 1.315 . S
C344 O339 1.279 . S
C345 O346 1.315 . S
C345 O347 1.279 . S
O346 Cd338 2.223 . S
O346 C345 1.315 . S
O347 Cd337 2.240 . S
O347 C345 1.279 . S
O348 Cd338 2.297 . S
O348 C343 1.247 . S
O349 Cd338 2.439 . S
O349 C343 1.208 . S
O350 Cd351 2.223 . S
O350 C358 1.315 . S
Cd351 O350 2.223 . S
Cd351 O354 2.297 . S
Cd351 O355 2.439 . S
Cd351 O361 2.240 . S
Cd352 O353 2.240 . S
Cd352 O360 2.223 . S
Cd352 O362 2.297 . S
Cd352 O363 2.439 . S
O353 Cd352 2.240 . S
O353 C358 1.279 . S
O354 Cd351 2.297 . S
O354 C356 1.247 . S
O355 Cd351 2.439 . S
O355 C356 1.208 . S
C356 O354 1.247 . S
C356 O355 1.208 . S
C357 O362 1.247 . S
C357 O363 1.208 . S
C358 O350 1.315 . S
C358 O353 1.279 . S
C359 O360 1.315 . S
C359 O361 1.279 . S
O360 Cd352 2.223 . S
O360 C359 1.315 . S
O361 Cd351 2.240 . S
O361 C359 1.279 . S
O362 Cd352 2.297 . S
O362 C357 1.247 . S
O363 Cd352 2.439 . S
O363 C357 1.208 . S
O364 Cd365 2.223 . S
O364 C372 1.315 . S
Cd365 O364 2.223 . S
Cd365 O368 2.297 . S
Cd365 O369 2.439 . S
Cd365 O375 2.240 . S
Cd366 O367 2.240 . S
Cd366 O374 2.223 . S
Cd366 O376 2.297 . S
Cd366 O377 2.439 . S
O367 Cd366 2.240 . S
O367 C372 1.279 . S
O368 Cd365 2.297 . S
O368 C370 1.247 . S
O369 Cd365 2.439 . S
O369 C370 1.208 . S
C370 O368 1.247 . S
C370 O369 1.208 . S
C371 O376 1.247 . S
C371 O377 1.208 . S
C372 O364 1.315 . S
C372 O367 1.279 . S
C373 O374 1.315 . S
C373 O375 1.279 . S
O374 Cd366 2.223 . S
O374 C373 1.315 . S
O375 Cd365 2.240 . S
O375 C373 1.279 . S
O376 Cd366 2.297 . S
O376 C371 1.247 . S
O377 Cd366 2.439 . S
O377 C371 1.208 . S
O378 Cd379 2.223 . S
O378 C386 1.315 . S
Cd379 O378 2.223 . S
Cd379 O382 2.297 . S
Cd379 O383 2.439 . S
Cd379 O389 2.240 . S
Cd380 O381 2.240 . S
Cd380 O388 2.223 . S
Cd380 O390 2.297 . S
Cd380 O391 2.439 . S
O381 Cd380 2.240 . S
O381 C386 1.279 . S
O382 Cd379 2.297 . S
O382 C384 1.247 . S
O383 Cd379 2.439 . S
O383 C384 1.208 . S
C384 O382 1.247 . S
C384 O383 1.208 . S
C385 O390 1.247 . S
C385 O391 1.208 . S
C386 O378 1.315 . S
C386 O381 1.279 . S
C387 O388 1.315 . S
C387 O389 1.279 . S
O388 Cd380 2.223 . S
O388 C387 1.315 . S
O389 Cd379 2.240 . S
O389 C387 1.279 . S
O390 Cd380 2.297 . S
O390 C385 1.247 . S
O391 Cd380 2.439 . S
O391 C385 1.208 . S
O392 Cd393 2.223 . S
O392 C400 1.315 . S
Cd393 O392 2.223 . S
Cd393 O396 2.297 . S
Cd393 O397 2.439 . S
Cd393 O403 2.240 . S
Cd394 O395 2.240 . S
Cd394 O402 2.223 . S
Cd394 O404 2.297 . S
Cd394 O405 2.439 . S
O395 Cd394 2.240 . S
O395 C400 1.279 . S
O396 Cd393 2.297 . S
O396 C398 1.247 . S
O397 Cd393 2.439 . S
O397 C398 1.208 . S
C398 O396 1.247 . S
C398 O397 1.208 . S
C399 O404 1.247 . S
C399 O405 1.208 . S
C400 O392 1.315 . S
C400 O395 1.279 . S
C401 O402 1.315 . S
C401 O403 1.279 . S
O402 Cd394 2.223 . S
O402 C401 1.315 . S
O403 Cd393 2.240 . S
O403 C401 1.279 . S
O404 Cd394 2.297 . S
O404 C399 1.247 . S
O405 Cd394 2.439 . S
O405 C399 1.208 . S
O406 Cd407 2.223 . S
O406 C414 1.315 . S
Cd407 O406 2.223 . S
Cd407 O410 2.297 . S
Cd407 O411 2.439 . S
Cd407 O417 2.240 . S
Cd408 O409 2.240 . S
Cd408 O416 2.223 . S
Cd408 O418 2.297 . S
Cd408 O419 2.439 . S
O409 Cd408 2.240 . S
O409 C414 1.279 . S
O410 Cd407 2.297 . S
O410 C412 1.247 . S
O411 Cd407 2.439 . S
O411 C412 1.208 . S
C412 O410 1.247 . S
C412 O411 1.208 . S
C413 O418 1.247 . S
C413 O419 1.208 . S
C414 O406 1.315 . S
C414 O409 1.279 . S
C415 O416 1.315 . S
C415 O417 1.279 . S
O416 Cd408 2.223 . S
O416 C415 1.315 . S
O417 Cd407 2.240 . S
O417 C415 1.279 . S
O418 Cd408 2.297 . S
O418 C413 1.247 . S
O419 Cd408 2.439 . S
O419 C413 1.208 . S
O420 Cd421 2.223 . S
O420 C428 1.315 . S
Cd421 O420 2.223 . S
Cd421 O424 2.297 . S
Cd421 O425 2.439 . S
Cd421 O431 2.240 . S
Cd422 O423 2.240 . S
Cd422 O430 2.223 . S
Cd422 O432 2.297 . S
Cd422 O433 2.439 . S
O423 Cd422 2.240 . S
O423 C428 1.279 . S
O424 Cd421 2.297 . S
O424 C426 1.247 . S
O425 Cd421 2.439 . S
O425 C426 1.208 . S
C426 O424 1.247 . S
C426 O425 1.208 . S
C427 O432 1.247 . S
C427 O433 1.208 . S
C428 O420 1.315 . S
C428 O423 1.279 . S
C429 O430 1.315 . S
C429 O431 1.279 . S
O430 Cd422 2.223 . S
O430 C429 1.315 . S
O431 Cd421 2.240 . S
O431 C429 1.279 . S
O432 Cd422 2.297 . S
O432 C427 1.247 . S
O433 Cd422 2.439 . S
O433 C427 1.208 . S
O434 Cd435 2.223 . S
O434 C442 1.315 . S
Cd435 O434 2.223 . S
Cd435 O438 2.297 . S
Cd435 O439 2.439 . S
Cd435 O445 2.240 . S
Cd436 O437 2.240 . S
Cd436 O444 2.223 . S
Cd436 O446 2.297 . S
Cd436 O447 2.439 . S
O437 Cd436 2.240 . S
O437 C442 1.279 . S
O438 Cd435 2.297 . S
O438 C440 1.247 . S
O439 Cd435 2.439 . S
O439 C440 1.208 . S
C440 O438 1.247 . S
C440 O439 1.208 . S
C441 O446 1.247 . S
C441 O447 1.208 . S
C442 O434 1.315 . S
C442 O437 1.279 . S
C443 O444 1.315 . S
C443 O445 1.279 . S
O444 Cd436 2.223 . S
O444 C443 1.315 . S
O445 Cd435 2.240 . S
O445 C443 1.279 . S
O446 Cd436 2.297 . S
O446 C441 1.247 . S
O447 Cd436 2.439 . S
O447 C441 1.208 . S
H448 C466 0.951 . S
H449 C468 0.951 . S
H450 C470 0.928 1_545 S
H451 C471 0.962 . S
H452 C473 0.950 . S
H453 C476 0.950 . S
H454 C477 0.950 . S
H455 C479 0.950 . S
H456 C480 0.959 . S
H457 C481 0.951 . S
H458 C483 0.951 . S
H459 C485 0.928 1_565 S
H460 C486 0.962 . S
H461 C488 0.950 . S
H462 C491 0.950 . S
H463 C492 0.950 . S
H464 C494 0.950 . S
H465 C495 0.959 . S
C466 H448 0.951 . S
C466 C467 1.366 . S
C466 C468 1.388 . S
C467 C466 1.366 . S
C467 C471 1.385 . S
C468 H449 0.951 . S
C468 C466 1.388 . S
C468 C469 1.366 . S
C469 C468 1.366 . S
C469 C470 1.429 . S
C469 C472 1.499 . S
C470 H450 0.928 1_565 S
C470 C469 1.429 . S
C470 C471 1.385 . S
C471 H451 0.962 . S
C471 C467 1.385 . S
C471 C470 1.385 . S
C472 C469 1.499 . S
C472 C473 1.373 . S
C472 C474 1.389 1_565 S
C473 H452 0.950 . S
C473 C472 1.373 . S
C473 C489 1.377 . S
C474 C472 1.389 1_545 S
C474 C475 1.524 . S
C474 C488 1.377 . S
C475 C474 1.524 . S
C475 C476 1.397 . S
C475 C480 1.363 . S
C476 H453 0.950 . S
C476 C475 1.397 . S
C476 C477 1.334 . S
C477 H454 0.950 . S
C477 C476 1.334 . S
C477 C478 1.287 . S
C478 C477 1.287 . S
C478 C479 1.524 . S
C478 H497 0.913 . S
C479 H455 0.950 . S
C479 C478 1.524 . S
C479 C480 1.415 . S
C480 H456 0.959 . S
C480 C475 1.363 . S
C480 C479 1.415 . S
C481 H457 0.951 . S
C481 C482 1.366 . S
C481 C483 1.388 . S
C482 C481 1.366 . S
C482 C486 1.385 . S
C483 H458 0.951 . S
C483 C481 1.388 . S
C483 C484 1.366 . S
C484 C483 1.366 . S
C484 C485 1.429 . S
C484 C487 1.499 . S
C485 H459 0.928 1_545 S
C485 C484 1.429 . S
C485 C486 1.385 . S
C486 H460 0.962 . S
C486 C482 1.385 . S
C486 C485 1.385 . S
C487 C484 1.499 . S
C487 C488 1.373 . S
C487 C489 1.389 1_545 S
C488 H461 0.950 . S
C488 C474 1.377 . S
C488 C487 1.373 . S
C489 C473 1.377 . S
C489 C487 1.389 1_565 S
C489 C490 1.524 . S
C490 C489 1.524 . S
C490 C491 1.397 . S
C490 C495 1.363 . S
C491 H462 0.950 . S
C491 C490 1.397 . S
C491 C492 1.334 . S
C492 H463 0.950 . S
C492 C491 1.334 . S
C492 C493 1.287 . S
C493 C492 1.287 . S
C493 C494 1.524 . S
C493 H496 0.999 . S
C494 H464 0.950 . S
C494 C493 1.524 . S
C494 C495 1.415 . S
C495 H465 0.959 . S
C495 C490 1.363 . S
C495 C494 1.415 . S
H496 C493 0.999 . S
H497 C478 0.913 . S
H498 C516 0.951 . S
H499 C518 0.951 . S
H500 C520 0.950 . S
H501 C521 0.950 . S
H502 C523 0.950 . S
H503 C526 0.950 . S
H504 C527 0.950 . S
H505 C529 0.950 . S
H506 C530 0.950 . S
H507 C531 0.951 . S
H508 C533 0.951 . S
H509 C535 0.950 . S
H510 C536 0.950 . S
H511 C538 0.950 . S
H512 C541 0.950 . S
H513 C542 0.950 . S
H514 C544 0.950 . S
H515 C545 0.950 . S
C516 H498 0.951 . S
C516 C517 1.366 . S
C516 C518 1.388 . S
C517 C516 1.366 . S
C517 C521 1.385 . S
C518 H499 0.951 . S
C518 C516 1.388 . S
C518 C519 1.366 . S
C519 C518 1.366 . S
C519 C520 1.414 . S
C519 C522 1.499 . S
C520 H500 0.950 . S
C520 C519 1.414 . S
C520 C521 1.374 . S
C521 H501 0.950 . S
C521 C517 1.385 . S
C521 C520 1.374 . S
C522 C519 1.499 . S
C522 C523 1.373 . S
C522 C524 1.389 . S
C523 H502 0.950 . S
C523 C522 1.373 . S
C523 C539 1.377 . S
C524 C522 1.389 . S
C524 C525 1.524 . S
C524 C538 1.377 . S
C525 C524 1.524 . S
C525 C526 1.397 . S
C525 C530 1.363 . S
C526 H503 0.950 . S
C526 C525 1.397 . S
C526 C527 1.334 . S
C527 H504 0.950 . S
C527 C526 1.334 . S
C527 C528 1.287 . S
C528 C527 1.287 . S
C528 C529 1.524 . S
C528 H547 0.913 . S
C529 H505 0.950 . S
C529 C528 1.524 . S
C529 C530 1.415 . S
C530 H506 0.950 . S
C530 C525 1.363 . S
C530 C529 1.415 . S
C531 H507 0.951 . S
C531 C532 1.366 . S
C531 C533 1.388 . S
C532 C531 1.366 . S
C532 C536 1.385 . S
C533 H508 0.951 . S
C533 C531 1.388 . S
C533 C534 1.366 . S
C534 C533 1.366 . S
C534 C535 1.414 . S
C534 C537 1.499 . S
C535 H509 0.950 . S
C535 C534 1.414 . S
C535 C536 1.374 . S
C536 H510 0.950 . S
C536 C532 1.385 . S
C536 C535 1.374 . S
C537 C534 1.499 . S
C537 C538 1.373 . S
C537 C539 1.389 . S
C538 H511 0.950 . S
C538 C524 1.377 . S
C538 C537 1.373 . S
C539 C523 1.377 . S
C539 C537 1.389 . S
C539 C540 1.524 . S
C540 C539 1.524 . S
C540 C541 1.397 . S
C540 C545 1.363 . S
C541 H512 0.950 . S
C541 C540 1.397 . S
C541 C542 1.334 . S
C542 H513 0.950 . S
C542 C541 1.334 . S
C542 C543 1.287 . S
C543 C542 1.287 . S
C543 C544 1.524 . S
C543 H546 0.999 . S
C544 H514 0.950 . S
C544 C543 1.524 . S
C544 C545 1.415 . S
C545 H515 0.950 . S
C545 C540 1.363 . S
C545 C544 1.415 . S
H546 C543 0.999 . S
H547 C528 0.913 . S
H548 C566 0.951 . S
H549 C568 0.951 . S
H550 C570 0.950 . S
H551 C571 0.950 . S
H552 C573 0.950 . S
H553 C576 0.950 . S
H554 C577 0.950 . S
H555 C579 0.950 . S
H556 C580 0.950 . S
H557 C581 0.951 . S
H558 C583 0.951 . S
H559 C585 0.950 . S
H560 C586 0.950 . S
H561 C588 0.950 . S
H562 C591 0.950 . S
H563 C592 0.950 . S
H564 C594 0.950 . S
H565 C595 0.950 . S
C566 H548 0.951 . S
C566 C567 1.366 . S
C566 C568 1.388 . S
C567 C566 1.366 . S
C567 C571 1.385 1_545 S
C568 H549 0.951 . S
C568 C566 1.388 . S
C568 C569 1.366 . S
C569 C568 1.366 . S
C569 C570 1.414 1_545 S
C569 C572 1.499 . S
C570 H550 0.950 . S
C570 C569 1.414 1_565 S
C570 C571 1.374 . S
C571 H551 0.950 . S
C571 C567 1.385 1_565 S
C571 C570 1.374 . S
C572 C569 1.499 . S
C572 C573 1.373 1_545 S
C572 C574 1.389 . S
C573 H552 0.950 . S
C573 C572 1.373 1_565 S
C573 C589 1.377 . S
C574 C572 1.389 . S
C574 C575 1.524 . S
C574 C588 1.377 . S
C575 C574 1.524 . S
C575 C576 1.397 . S
C575 C580 1.363 . S
C576 H553 0.950 . S
C576 C575 1.397 . S
C576 C577 1.334 . S
C577 H554 0.950 . S
C577 C576 1.334 . S
C577 C578 1.287 . S
C578 C577 1.287 . S
C578 C579 1.524 . S
C578 H597 0.913 1_455 S
C579 H555 0.950 . S
C579 C578 1.524 . S
C579 C580 1.415 . S
C580 H556 0.950 . S
C580 C575 1.363 . S
C580 C579 1.415 . S
C581 H557 0.951 . S
C581 C582 1.366 . S
C581 C583 1.388 . S
C582 C581 1.366 . S
C582 C586 1.385 1_565 S
C583 H558 0.951 . S
C583 C581 1.388 . S
C583 C584 1.366 . S
C584 C583 1.366 . S
C584 C585 1.414 1_565 S
C584 C587 1.499 . S
C585 H559 0.950 . S
C585 C584 1.414 1_545 S
C585 C586 1.374 . S
C586 H560 0.950 . S
C586 C582 1.385 1_545 S
C586 C585 1.374 . S
C587 C584 1.499 . S
C587 C588 1.373 1_565 S
C587 C589 1.389 . S
C588 H561 0.950 . S
C588 C574 1.377 . S
C588 C587 1.373 1_545 S
C589 C573 1.377 . S
C589 C587 1.389 . S
C589 C590 1.524 . S
C590 C589 1.524 . S
C590 C591 1.397 . S
C590 C595 1.363 . S
C591 H562 0.950 . S
C591 C590 1.397 . S
C591 C592 1.334 . S
C592 H563 0.950 . S
C592 C591 1.334 . S
C592 C593 1.287 . S
C593 C592 1.287 . S
C593 C594 1.524 . S
C593 H596 0.999 . S
C594 H564 0.950 . S
C594 C593 1.524 . S
C594 C595 1.415 . S
C595 H565 0.950 . S
C595 C590 1.363 . S
C595 C594 1.415 . S
H596 C593 0.999 . S
H597 C578 0.913 1_655 S
H598 C616 0.951 . S
H599 C618 0.951 . S
H600 C620 0.950 . S
H601 C621 0.950 . S
H602 C623 0.950 . S
H603 C626 0.950 . S
H604 C627 0.950 . S
H605 C629 0.950 . S
H606 C630 0.950 1_554 S
H607 C631 0.951 . S
H608 C633 0.951 . S
H609 C635 0.950 . S
H610 C636 0.950 . S
H611 C638 0.950 . S
H612 C641 0.950 . S
H613 C642 0.950 . S
H614 C644 0.950 . S
H615 C645 0.950 1_556 S
C616 H598 0.951 . S
C616 C617 1.366 . S
C616 C618 1.388 . S
C617 C616 1.366 . S
C617 C621 1.385 . S
C618 H599 0.951 . S
C618 C616 1.388 . S
C618 C619 1.366 . S
C619 C618 1.366 . S
C619 C620 1.414 . S
C619 C622 1.499 . S
C620 H600 0.950 . S
C620 C619 1.414 . S
C620 C621 1.374 . S
C621 H601 0.950 . S
C621 C617 1.385 . S
C621 C620 1.374 . S
C622 C619 1.499 . S
C622 C623 1.373 . S
C622 C624 1.389 . S
C623 H602 0.950 . S
C623 C622 1.373 . S
C623 C639 1.377 1_556 S
C624 C622 1.389 . S
C624 C625 1.524 . S
C624 C638 1.377 1_556 S
C625 C624 1.524 . S
C625 C626 1.397 . S
C625 C630 1.363 . S
C626 H603 0.950 . S
C626 C625 1.397 . S
C626 C627 1.334 . S
C627 H604 0.950 . S
C627 C626 1.334 . S
C627 C628 1.287 . S
C628 C627 1.287 . S
C628 C629 1.524 . S
C628 H647 0.913 . S
C629 H605 0.950 . S
C629 C628 1.524 . S
C629 C630 1.415 . S
C630 H606 0.950 1_556 S
C630 C625 1.363 . S
C630 C629 1.415 . S
C631 H607 0.951 . S
C631 C632 1.366 . S
C631 C633 1.388 . S
C632 C631 1.366 . S
C632 C636 1.385 . S
C633 H608 0.951 . S
C633 C631 1.388 . S
C633 C634 1.366 . S
C634 C633 1.366 . S
C634 C635 1.414 . S
C634 C637 1.499 . S
C635 H609 0.950 . S
C635 C634 1.414 . S
C635 C636 1.374 . S
C636 H610 0.950 . S
C636 C632 1.385 . S
C636 C635 1.374 . S
C637 C634 1.499 . S
C637 C638 1.373 . S
C637 C639 1.389 . S
C638 H611 0.950 . S
C638 C624 1.377 1_554 S
C638 C637 1.373 . S
C639 C623 1.377 1_554 S
C639 C637 1.389 . S
C639 C640 1.524 . S
C640 C639 1.524 . S
C640 C641 1.397 . S
C640 C645 1.363 . S
C641 H612 0.950 . S
C641 C640 1.397 . S
C641 C642 1.334 . S
C642 H613 0.950 . S
C642 C641 1.334 . S
C642 C643 1.287 . S
C643 C642 1.287 . S
C643 C644 1.524 . S
C643 H646 0.999 . S
C644 H614 0.950 . S
C644 C643 1.524 . S
C644 C645 1.415 . S
C645 H615 0.950 1_554 S
C645 C640 1.363 . S
C645 C644 1.415 . S
H646 C643 0.999 . S
H647 C628 0.913 . S
H648 C666 0.951 . S
H649 C668 0.951 . S
H650 C670 0.951 . S
H651 C671 0.950 . S
H652 C673 0.950 . S
H653 C676 0.950 . S
H654 C677 0.950 . S
H655 C679 0.950 . S
H656 C680 0.950 . S
H657 C681 0.951 . S
H658 C683 0.951 . S
H659 C685 0.952 . S
H660 C686 0.950 . S
H661 C688 0.950 . S
H662 C691 0.950 . S
H663 C692 0.950 . S
H664 C694 0.950 . S
H665 C695 0.950 . S
C666 H648 0.951 . S
C666 C667 1.366 . S
C666 C668 1.388 . S
C667 C666 1.366 . S
C667 C671 1.385 . S
C668 H649 0.951 . S
C668 C666 1.388 . S
C668 C669 1.366 . S
C669 C668 1.366 . S
C669 C670 1.414 . S
C669 C672 1.499 . S
C670 H650 0.951 . S
C670 C669 1.414 . S
C670 C671 1.374 . S
C671 H651 0.950 . S
C671 C667 1.385 . S
C671 C670 1.374 . S
C672 C669 1.499 . S
C672 C673 1.373 . S
C672 C674 1.389 1_565 S
C673 H652 0.950 . S
C673 C672 1.373 . S
C673 C689 1.377 . S
C674 C672 1.389 1_545 S
C674 C675 1.524 . S
C674 C688 1.377 . S
C675 C674 1.524 . S
C675 C676 1.397 . S
C675 C680 1.363 . S
C676 H653 0.950 . S
C676 C675 1.397 . S
C676 C677 1.334 . S
C677 H654 0.950 . S
C677 C676 1.334 . S
C677 C678 1.287 . S
C678 C677 1.287 . S
C678 C679 1.524 . S
C678 H697 0.913 . S
C679 H655 0.950 . S
C679 C678 1.524 . S
C679 C680 1.415 . S
C680 H656 0.950 . S
C680 C675 1.363 . S
C680 C679 1.415 . S
C681 H657 0.951 . S
C681 C682 1.366 . S
C681 C683 1.388 . S
C682 C681 1.366 . S
C682 C686 1.385 . S
C683 H658 0.951 . S
C683 C681 1.388 . S
C683 C684 1.366 . S
C684 C683 1.366 . S
C684 C685 1.414 . S
C684 C687 1.499 . S
C685 H659 0.952 . S
C685 C684 1.414 . S
C685 C686 1.374 . S
C686 H660 0.950 . S
C686 C682 1.385 . S
C686 C685 1.374 . S
C687 C684 1.499 . S
C687 C688 1.373 . S
C687 C689 1.389 1_545 S
C688 H661 0.950 . S
C688 C674 1.377 . S
C688 C687 1.373 . S
C689 C673 1.377 . S
C689 C687 1.389 1_565 S
C689 C690 1.524 . S
C690 C689 1.524 . S
C690 C691 1.397 . S
C690 C695 1.363 . S
C691 H662 0.950 . S
C691 C690 1.397 . S
C691 C692 1.334 . S
C692 H663 0.950 . S
C692 C691 1.334 . S
C692 C693 1.287 . S
C693 C692 1.287 . S
C693 C694 1.524 . S
C693 H696 0.999 . S
C694 H664 0.950 . S
C694 C693 1.524 . S
C694 C695 1.415 . S
C695 H665 0.950 . S
C695 C690 1.363 . S
C695 C694 1.415 . S
H696 C693 0.999 . S
H697 C678 0.913 . S
H698 C716 0.951 . S
H699 C718 0.951 . S
H700 C720 0.950 . S
H701 C721 0.950 . S
H702 C723 0.950 . S
H703 C726 0.950 . S
H704 C727 0.950 . S
H705 C729 0.950 . S
H706 C730 0.950 . S
H707 C731 0.951 . S
H708 C733 0.951 . S
H709 C735 0.950 . S
H710 C736 0.950 . S
H711 C738 0.950 . S
H712 C741 0.950 . S
H713 C742 0.950 . S
H714 C744 0.950 . S
H715 C745 0.950 . S
C716 H698 0.951 . S
C716 C717 1.366 . S
C716 C718 1.388 . S
C717 C716 1.366 . S
C717 C721 1.385 . S
C718 H699 0.951 . S
C718 C716 1.388 . S
C718 C719 1.366 . S
C719 C718 1.366 . S
C719 C720 1.414 . S
C719 C722 1.499 . S
C720 H700 0.950 . S
C720 C719 1.414 . S
C720 C721 1.374 . S
C721 H701 0.950 . S
C721 C717 1.385 . S
C721 C720 1.374 . S
C722 C719 1.499 . S
C722 C723 1.373 . S
C722 C724 1.389 . S
C723 H702 0.950 . S
C723 C722 1.373 . S
C723 C739 1.377 . S
C724 C722 1.389 . S
C724 C725 1.524 . S
C724 C738 1.377 . S
C725 C724 1.524 . S
C725 C726 1.397 . S
C725 C730 1.363 . S
C726 H703 0.950 . S
C726 C725 1.397 . S
C726 C727 1.334 . S
C727 H704 0.950 . S
C727 C726 1.334 . S
C727 C728 1.287 . S
C728 C727 1.287 . S
C728 C729 1.524 . S
C728 H747 0.913 . S
C729 H705 0.950 . S
C729 C728 1.524 . S
C729 C730 1.415 . S
C730 H706 0.950 . S
C730 C725 1.363 . S
C730 C729 1.415 . S
C731 H707 0.951 . S
C731 C732 1.366 . S
C731 C733 1.388 . S
C732 C731 1.366 . S
C732 C736 1.385 . S
C733 H708 0.951 . S
C733 C731 1.388 . S
C733 C734 1.366 . S
C734 C733 1.366 . S
C734 C735 1.414 . S
C734 C737 1.499 . S
C735 H709 0.950 . S
C735 C734 1.414 . S
C735 C736 1.374 . S
C736 H710 0.950 . S
C736 C732 1.385 . S
C736 C735 1.374 . S
C737 C734 1.499 . S
C737 C738 1.373 . S
C737 C739 1.389 . S
C738 H711 0.950 . S
C738 C724 1.377 . S
C738 C737 1.373 . S
C739 C723 1.377 . S
C739 C737 1.389 . S
C739 C740 1.524 . S
C740 C739 1.524 . S
C740 C741 1.397 . S
C740 C745 1.363 . S
C741 H712 0.950 . S
C741 C740 1.397 . S
C741 C742 1.334 . S
C742 H713 0.950 . S
C742 C741 1.334 . S
C742 C743 1.287 . S
C743 C742 1.287 . S
C743 C744 1.524 . S
C743 H746 0.999 . S
C744 H714 0.950 . S
C744 C743 1.524 . S
C744 C745 1.415 . S
C745 H715 0.950 . S
C745 C740 1.363 . S
C745 C744 1.415 . S
H746 C743 0.999 . S
H747 C728 0.913 . S
H748 C766 0.951 . S
H749 C768 0.951 . S
H750 C770 0.950 . S
H751 C771 0.950 . S
H752 C773 0.950 . S
H753 C776 0.950 . S
H754 C777 0.950 . S
H755 C779 0.950 . S
H756 C780 0.950 . S
H757 C781 0.951 . S
H758 C783 0.951 . S
H759 C785 0.950 . S
H760 C786 0.950 . S
H761 C788 0.950 . S
H762 C791 0.950 . S
H763 C792 0.950 . S
H764 C794 0.950 . S
H765 C795 0.950 . S
C766 H748 0.951 . S
C766 C767 1.366 . S
C766 C768 1.388 . S
C767 C766 1.366 . S
C767 C771 1.385 1_545 S
C768 H749 0.951 . S
C768 C766 1.388 . S
C768 C769 1.366 . S
C769 C768 1.366 . S
C769 C770 1.414 1_545 S
C769 C772 1.499 . S
C770 H750 0.950 . S
C770 C769 1.414 1_565 S
C770 C771 1.374 . S
C771 H751 0.950 . S
C771 C767 1.385 1_565 S
C771 C770 1.374 . S
C772 C769 1.499 . S
C772 C773 1.373 1_545 S
C772 C774 1.389 . S
C773 H752 0.950 . S
C773 C772 1.373 1_565 S
C773 C789 1.377 . S
C774 C772 1.389 . S
C774 C775 1.524 . S
C774 C788 1.377 . S
C775 C774 1.524 . S
C775 C776 1.397 . S
C775 C780 1.363 . S
C776 H753 0.950 . S
C776 C775 1.397 . S
C776 C777 1.334 . S
C777 H754 0.950 . S
C777 C776 1.334 . S
C777 C778 1.287 . S
C778 C777 1.287 . S
C778 C779 1.524 . S
C778 H797 0.913 . S
C779 H755 0.950 . S
C779 C778 1.524 . S
C779 C780 1.415 . S
C780 H756 0.950 . S
C780 C775 1.363 . S
C780 C779 1.415 . S
C781 H757 0.951 . S
C781 C782 1.366 . S
C781 C783 1.388 . S
C782 C781 1.366 . S
C782 C786 1.385 1_565 S
C783 H758 0.951 . S
C783 C781 1.388 . S
C783 C784 1.366 . S
C784 C783 1.366 . S
C784 C785 1.414 1_565 S
C784 C787 1.499 . S
C785 H759 0.950 . S
C785 C784 1.414 1_545 S
C785 C786 1.374 . S
C786 H760 0.950 . S
C786 C782 1.385 1_545 S
C786 C785 1.374 . S
C787 C784 1.499 . S
C787 C788 1.373 1_565 S
C787 C789 1.389 . S
C788 H761 0.950 . S
C788 C774 1.377 . S
C788 C787 1.373 1_545 S
C789 C773 1.377 . S
C789 C787 1.389 . S
C789 C790 1.524 . S
C790 C789 1.524 . S
C790 C791 1.397 . S
C790 C795 1.363 . S
C791 H762 0.950 . S
C791 C790 1.397 . S
C791 C792 1.334 . S
C792 H763 0.950 . S
C792 C791 1.334 . S
C792 C793 1.287 . S
C793 C792 1.287 . S
C793 C794 1.524 . S
C793 H796 0.999 . S
C794 H764 0.950 . S
C794 C793 1.524 . S
C794 C795 1.415 . S
C795 H765 0.950 . S
C795 C790 1.363 . S
C795 C794 1.415 . S
H796 C793 0.999 . S
H797 C778 0.913 . S
H798 C816 0.951 . S
H799 C818 0.951 . S
H800 C820 0.950 . S
H801 C821 0.950 . S
H802 C823 0.950 . S
H803 C826 0.950 . S
H804 C827 0.950 . S
H805 C829 0.950 . S
H806 C830 0.950 . S
H807 C831 0.951 . S
H808 C833 0.951 . S
H809 C835 0.950 . S
H810 C836 0.950 . S
H811 C838 0.950 . S
H812 C841 0.950 . S
H813 C842 0.950 . S
H814 C844 0.950 . S
H815 C845 0.950 . S
C816 H798 0.951 . S
C816 C817 1.366 . S
C816 C818 1.388 . S
C817 C816 1.366 . S
C817 C821 1.385 . S
C818 H799 0.951 . S
C818 C816 1.388 . S
C818 C819 1.366 . S
C819 C818 1.366 . S
C819 C820 1.414 . S
C819 C822 1.499 . S
C820 H800 0.950 . S
C820 C819 1.414 . S
C820 C821 1.374 . S
C821 H801 0.950 . S
C821 C817 1.385 . S
C821 C820 1.374 . S
C822 C819 1.499 . S
C822 C823 1.373 . S
C822 C824 1.389 . S
C823 H802 0.950 . S
C823 C822 1.373 . S
C823 C839 1.377 1_556 S
C824 C822 1.389 . S
C824 C825 1.524 . S
C824 C838 1.377 1_556 S
C825 C824 1.524 . S
C825 C826 1.397 . S
C825 C830 1.363 . S
C826 H803 0.950 . S
C826 C825 1.397 . S
C826 C827 1.334 . S
C827 H804 0.950 . S
C827 C826 1.334 . S
C827 C828 1.287 . S
C828 C827 1.287 . S
C828 C829 1.524 . S
C828 H847 0.913 . S
C829 H805 0.950 . S
C829 C828 1.524 . S
C829 C830 1.415 . S
C830 H806 0.950 . S
C830 C825 1.363 . S
C830 C829 1.415 . S
C831 H807 0.951 . S
C831 C832 1.366 . S
C831 C833 1.388 . S
C832 C831 1.366 . S
C832 C836 1.385 . S
C833 H808 0.951 . S
C833 C831 1.388 . S
C833 C834 1.366 . S
C834 C833 1.366 . S
C834 C835 1.414 . S
C834 C837 1.499 . S
C835 H809 0.950 . S
C835 C834 1.414 . S
C835 C836 1.374 . S
C836 H810 0.950 . S
C836 C832 1.385 . S
C836 C835 1.374 . S
C837 C834 1.499 . S
C837 C838 1.373 . S
C837 C839 1.389 . S
C838 H811 0.950 . S
C838 C824 1.377 1_554 S
C838 C837 1.373 . S
C839 C823 1.377 1_554 S
C839 C837 1.389 . S
C839 C840 1.524 . S
C840 C839 1.524 . S
C840 C841 1.397 . S
C840 C845 1.363 . S
C841 H812 0.950 . S
C841 C840 1.397 . S
C841 C842 1.334 . S
C842 H813 0.950 . S
C842 C841 1.334 . S
C842 C843 1.287 . S
C843 C842 1.287 . S
C843 C844 1.524 . S
C843 H846 0.999 . S
C844 H814 0.950 . S
C844 C843 1.524 . S
C844 C845 1.415 . S
C845 H815 0.950 . S
C845 C840 1.363 . S
C845 C844 1.415 . S
H846 C843 0.999 . S
H847 C828 0.913 . S
H848 C866 0.951 . S
H849 C868 0.951 . S
H850 C870 0.950 . S
H851 C871 0.950 . S
H852 C873 0.950 . S
H853 C876 0.950 . S
H854 C877 0.950 . S
H855 C879 0.950 . S
H856 C880 0.950 . S
H857 C881 0.951 . S
H858 C883 0.951 . S
H859 C885 0.950 . S
H860 C886 0.950 . S
H861 C888 0.950 . S
H862 C891 0.950 . S
H863 C892 0.950 . S
H864 C894 0.950 . S
H865 C895 0.950 . S
C866 H848 0.951 . S
C866 C867 1.366 . S
C866 C868 1.388 . S
C867 C866 1.366 . S
C867 C871 1.385 . S
C868 H849 0.951 . S
C868 C866 1.388 . S
C868 C869 1.366 . S
C869 C868 1.366 . S
C869 C870 1.414 . S
C869 C872 1.499 . S
C870 H850 0.950 . S
C870 C869 1.414 . S
C870 C871 1.374 . S
C871 H851 0.950 . S
C871 C867 1.385 . S
C871 C870 1.374 . S
C872 C869 1.499 . S
C872 C873 1.373 . S
C872 C874 1.389 . S
C873 H852 0.950 . S
C873 C872 1.373 . S
C873 C889 1.377 . S
C874 C872 1.389 . S
C874 C875 1.524 . S
C874 C888 1.377 . S
C875 C874 1.524 . S
C875 C876 1.397 . S
C875 C880 1.363 . S
C876 H853 0.950 . S
C876 C875 1.397 . S
C876 C877 1.334 . S
C877 H854 0.950 . S
C877 C876 1.334 . S
C877 C878 1.287 1_655 S
C878 C877 1.287 1_455 S
C878 C879 1.524 . S
C878 H897 0.913 . S
C879 H855 0.950 . S
C879 C878 1.524 . S
C879 C880 1.415 1_455 S
C880 H856 0.950 . S
C880 C875 1.363 . S
C880 C879 1.415 1_655 S
C881 H857 0.951 . S
C881 C882 1.366 . S
C881 C883 1.388 . S
C882 C881 1.366 . S
C882 C886 1.385 . S
C883 H858 0.951 . S
C883 C881 1.388 . S
C883 C884 1.366 . S
C884 C883 1.366 . S
C884 C885 1.414 . S
C884 C887 1.499 . S
C885 H859 0.950 . S
C885 C884 1.414 . S
C885 C886 1.374 . S
C886 H860 0.950 . S
C886 C882 1.385 . S
C886 C885 1.374 . S
C887 C884 1.499 . S
C887 C888 1.373 . S
C887 C889 1.389 . S
C888 H861 0.950 . S
C888 C874 1.377 . S
C888 C887 1.373 . S
C889 C873 1.377 . S
C889 C887 1.389 . S
C889 C890 1.524 . S
C890 C889 1.524 . S
C890 C891 1.397 . S
C890 C895 1.363 . S
C891 H862 0.950 . S
C891 C890 1.397 . S
C891 C892 1.334 . S
C892 H863 0.950 . S
C892 C891 1.334 . S
C892 C893 1.287 . S
C893 C892 1.287 . S
C893 C894 1.524 . S
C893 H896 0.999 . S
C894 H864 0.950 . S
C894 C893 1.524 . S
C894 C895 1.415 . S
C895 H865 0.950 . S
C895 C890 1.363 . S
C895 C894 1.415 . S
H896 C893 0.999 . S
H897 C878 0.913 . S
H898 C916 0.951 . S
H899 C918 0.951 . S
H900 C920 0.950 . S
H901 C921 0.950 . S
H902 C923 0.950 . S
H903 C926 0.950 . S
H904 C927 0.950 . S
H905 C929 0.950 . S
H906 C930 0.950 1_556 S
H907 C931 0.951 . S
H908 C933 0.951 . S
H909 C935 0.950 . S
H910 C936 0.950 . S
H911 C938 0.950 . S
H912 C941 0.950 . S
H913 C942 0.950 . S
H914 C944 0.950 . S
H915 C945 0.950 1_554 S
C916 H898 0.951 . S
C916 C917 1.366 . S
C916 C918 1.388 . S
C917 C916 1.366 . S
C917 C921 1.385 . S
C918 H899 0.951 . S
C918 C916 1.388 . S
C918 C919 1.366 . S
C919 C918 1.366 . S
C919 C920 1.414 . S
C919 C922 1.499 . S
C920 H900 0.950 . S
C920 C919 1.414 . S
C920 C921 1.374 . S
C921 H901 0.950 . S
C921 C917 1.385 . S
C921 C920 1.374 . S
C922 C919 1.499 . S
C922 C923 1.373 . S
C922 C924 1.389 . S
C923 H902 0.950 . S
C923 C922 1.373 . S
C923 C939 1.377 1_554 S
C924 C922 1.389 . S
C924 C925 1.524 . S
C924 C938 1.377 1_554 S
C925 C924 1.524 . S
C925 C926 1.397 . S
C925 C930 1.363 . S
C926 H903 0.950 . S
C926 C925 1.397 . S
C926 C927 1.334 . S
C927 H904 0.950 . S
C927 C926 1.334 . S
C927 C928 1.287 . S
C928 C927 1.287 . S
C928 C929 1.524 . S
C928 H947 0.913 . S
C929 H905 0.950 . S
C929 C928 1.524 . S
C929 C930 1.415 . S
C930 H906 0.950 1_554 S
C930 C925 1.363 . S
C930 C929 1.415 . S
C931 H907 0.951 . S
C931 C932 1.366 . S
C931 C933 1.388 . S
C932 C931 1.366 . S
C932 C936 1.385 . S
C933 H908 0.951 . S
C933 C931 1.388 . S
C933 C934 1.366 . S
C934 C933 1.366 . S
C934 C935 1.414 . S
C934 C937 1.499 . S
C935 H909 0.950 . S
C935 C934 1.414 . S
C935 C936 1.374 . S
C936 H910 0.950 . S
C936 C932 1.385 . S
C936 C935 1.374 . S
C937 C934 1.499 . S
C937 C938 1.373 . S
C937 C939 1.389 . S
C938 H911 0.950 . S
C938 C924 1.377 1_556 S
C938 C937 1.373 . S
C939 C923 1.377 1_556 S
C939 C937 1.389 . S
C939 C940 1.524 . S
C940 C939 1.524 . S
C940 C941 1.397 . S
C940 C945 1.363 . S
C941 H912 0.950 . S
C941 C940 1.397 . S
C941 C942 1.334 . S
C942 H913 0.950 . S
C942 C941 1.334 . S
C942 C943 1.287 . S
C943 C942 1.287 . S
C943 C944 1.524 . S
C943 H946 0.999 . S
C944 H914 0.950 . S
C944 C943 1.524 . S
C944 C945 1.415 . S
C945 H915 0.950 1_556 S
C945 C940 1.363 . S
C945 C944 1.415 . S
H946 C943 0.999 . S
H947 C928 0.913 . S
H948 C966 0.951 . S
H949 C968 0.951 . S
H950 C970 0.950 . S
H951 C971 0.950 . S
H952 C973 0.950 . S
H953 C976 0.950 . S
H954 C977 0.950 . S
H955 C979 0.950 . S
H956 C980 0.950 . S
H957 C981 0.951 . S
H958 C983 0.951 . S
H959 C985 0.950 . S
H960 C986 0.950 . S
H961 C988 0.950 . S
H962 C991 0.950 . S
H963 C992 0.950 . S
H964 C994 0.950 . S
H965 C995 0.950 . S
C966 H948 0.951 . S
C966 C967 1.366 . S
C966 C968 1.388 . S
C967 C966 1.366 . S
C967 C971 1.385 . S
C968 H949 0.951 . S
C968 C966 1.388 . S
C968 C969 1.366 . S
C969 C968 1.366 . S
C969 C970 1.414 . S
C969 C972 1.499 . S
C970 H950 0.950 . S
C970 C969 1.414 . S
C970 C971 1.374 . S
C971 H951 0.950 . S
C971 C967 1.385 . S
C971 C970 1.374 . S
C972 C969 1.499 . S
C972 C973 1.373 . S
C972 C974 1.389 . S
C973 H952 0.950 . S
C973 C972 1.373 . S
C973 C989 1.377 . S
C974 C972 1.389 . S
C974 C975 1.524 . S
C974 C988 1.377 . S
C975 C974 1.524 . S
C975 C976 1.397 . S
C975 C980 1.363 . S
C976 H953 0.950 . S
C976 C975 1.397 . S
C976 C977 1.334 . S
C977 H954 0.950 . S
C977 C976 1.334 . S
C977 C978 1.287 . S
C978 C977 1.287 . S
C978 C979 1.524 . S
C978 H997 0.913 . S
C979 H955 0.950 . S
C979 C978 1.524 . S
C979 C980 1.415 . S
C980 H956 0.950 . S
C980 C975 1.363 . S
C980 C979 1.415 . S
C981 H957 0.951 . S
C981 C982 1.366 . S
C981 C983 1.388 . S
C982 C981 1.366 . S
C982 C986 1.385 . S
C983 H958 0.951 . S
C983 C981 1.388 . S
C983 C984 1.366 . S
C984 C983 1.366 . S
C984 C985 1.414 . S
C984 C987 1.499 . S
C985 H959 0.950 . S
C985 C984 1.414 . S
C985 C986 1.374 . S
C986 H960 0.950 . S
C986 C982 1.385 . S
C986 C985 1.374 . S
C987 C984 1.499 . S
C987 C988 1.373 . S
C987 C989 1.389 . S
C988 H961 0.950 . S
C988 C974 1.377 . S
C988 C987 1.373 . S
C989 C973 1.377 . S
C989 C987 1.389 . S
C989 C990 1.524 . S
C990 C989 1.524 . S
C990 C991 1.397 . S
C990 C995 1.363 . S
C991 H962 0.950 . S
C991 C990 1.397 . S
C991 C992 1.334 . S
C992 H963 0.950 . S
C992 C991 1.334 . S
C992 C993 1.287 . S
C993 C992 1.287 . S
C993 C994 1.524 . S
C993 H996 0.999 . S
C994 H964 0.950 . S
C994 C993 1.524 . S
C994 C995 1.415 . S
C995 H965 0.950 . S
C995 C990 1.363 . S
C995 C994 1.415 . S
H996 C993 0.999 . S
H997 C978 0.913 . S
H998 C1016 0.951 . S
H999 C1018 0.951 . S
H1000 C1020 0.950 . S
H1001 C1021 0.950 . S
H1002 C1023 0.950 . S
H1003 C1026 0.950 . S
H1004 C1027 0.950 . S
H1005 C1029 0.950 . S
H1006 C1030 0.950 . S
H1007 C1031 0.951 . S
H1008 C1033 0.951 . S
H1009 C1035 0.950 . S
H1010 C1036 0.950 . S
H1011 C1038 0.950 . S
H1012 C1041 0.950 . S
H1013 C1042 0.950 . S
H1014 C1044 0.950 . S
H1015 C1045 0.950 . S
C1016 H998 0.951 . S
C1016 C1017 1.366 . S
C1016 C1018 1.388 . S
C1017 C1016 1.366 . S
C1017 C1021 1.385 . S
C1018 H999 0.951 . S
C1018 C1016 1.388 . S
C1018 C1019 1.366 . S
C1019 C1018 1.366 . S
C1019 C1020 1.414 . S
C1019 C1022 1.499 . S
C1020 H1000 0.950 . S
C1020 C1019 1.414 . S
C1020 C1021 1.374 . S
C1021 H1001 0.950 . S
C1021 C1017 1.385 . S
C1021 C1020 1.374 . S
C1022 C1019 1.499 . S
C1022 C1023 1.373 . S
C1022 C1024 1.389 . S
C1023 H1002 0.950 . S
C1023 C1022 1.373 . S
C1023 C1039 1.377 . S
C1024 C1022 1.389 . S
C1024 C1025 1.524 . S
C1024 C1038 1.377 . S
C1025 C1024 1.524 . S
C1025 C1026 1.397 . S
C1025 C1030 1.363 . S
C1026 H1003 0.950 . S
C1026 C1025 1.397 . S
C1026 C1027 1.334 . S
C1027 H1004 0.950 . S
C1027 C1026 1.334 . S
C1027 C1028 1.287 . S
C1028 C1027 1.287 . S
C1028 C1029 1.524 . S
C1028 H1047 0.913 . S
C1029 H1005 0.950 . S
C1029 C1028 1.524 . S
C1029 C1030 1.415 . S
C1030 H1006 0.950 . S
C1030 C1025 1.363 . S
C1030 C1029 1.415 . S
C1031 H1007 0.951 . S
C1031 C1032 1.366 . S
C1031 C1033 1.388 . S
C1032 C1031 1.366 . S
C1032 C1036 1.385 . S
C1033 H1008 0.951 . S
C1033 C1031 1.388 . S
C1033 C1034 1.366 . S
C1034 C1033 1.366 . S
C1034 C1035 1.414 . S
C1034 C1037 1.499 . S
C1035 H1009 0.950 . S
C1035 C1034 1.414 . S
C1035 C1036 1.374 . S
C1036 H1010 0.950 . S
C1036 C1032 1.385 . S
C1036 C1035 1.374 . S
C1037 C1034 1.499 . S
C1037 C1038 1.373 . S
C1037 C1039 1.389 . S
C1038 H1011 0.950 . S
C1038 C1024 1.377 . S
C1038 C1037 1.373 . S
C1039 C1023 1.377 . S
C1039 C1037 1.389 . S
C1039 C1040 1.524 . S
C1040 C1039 1.524 . S
C1040 C1041 1.397 . S
C1040 C1045 1.363 . S
C1041 H1012 0.950 . S
C1041 C1040 1.397 . S
C1041 C1042 1.334 . S
C1042 H1013 0.950 . S
C1042 C1041 1.334 . S
C1042 C1043 1.287 . S
C1043 C1042 1.287 . S
C1043 C1044 1.524 . S
C1043 H1046 0.999 . S
C1044 H1014 0.950 . S
C1044 C1043 1.524 . S
C1044 C1045 1.415 . S
C1045 H1015 0.950 . S
C1045 C1040 1.363 . S
C1045 C1044 1.415 . S
H1046 C1043 0.999 . S
H1047 C1028 0.913 . S
H1048 C1066 0.951 . S
H1049 C1068 0.951 . S
H1050 C1070 0.950 . S
H1051 C1071 0.950 . S
H1052 C1073 0.950 . S
H1053 C1076 0.950 . S
H1054 C1077 0.937 1_655 S
H1055 C1079 0.950 . S
H1056 C1080 0.950 . S
H1057 C1081 0.951 . S
H1058 C1083 0.951 . S
H1059 C1085 0.950 . S
H1060 C1086 0.950 . S
H1061 C1088 0.950 . S
H1062 C1091 0.950 . S
H1063 C1092 0.950 . S
H1064 C1094 0.950 . S
H1065 C1095 0.950 . S
C1066 H1048 0.951 . S
C1066 C1067 1.366 . S
C1066 C1068 1.388 . S
C1067 C1066 1.366 . S
C1067 C1071 1.385 . S
C1068 H1049 0.951 . S
C1068 C1066 1.388 . S
C1068 C1069 1.366 . S
C1069 C1068 1.366 . S
C1069 C1070 1.414 . S
C1069 C1072 1.499 . S
C1070 H1050 0.950 . S
C1070 C1069 1.414 . S
C1070 C1071 1.374 . S
C1071 H1051 0.950 . S
C1071 C1067 1.385 . S
C1071 C1070 1.374 . S
C1072 C1069 1.499 . S
C1072 C1073 1.373 . S
C1072 C1074 1.389 . S
C1073 H1052 0.950 . S
C1073 C1072 1.373 . S
C1073 C1089 1.377 . S
C1074 C1072 1.389 . S
C1074 C1075 1.524 . S
C1074 C1088 1.377 . S
C1075 C1074 1.524 . S
C1075 C1076 1.397 . S
C1075 C1080 1.363 . S
C1076 H1053 0.950 . S
C1076 C1075 1.397 . S
C1076 C1077 1.334 . S
C1077 H1054 0.937 1_455 S
C1077 C1076 1.334 . S
C1077 C1078 1.285 1_455 S
C1078 C1077 1.285 1_655 S
C1078 C1079 1.522 1_655 S
C1078 H1097 0.918 . S
C1079 H1055 0.950 . S
C1079 C1078 1.522 1_455 S
C1079 C1080 1.415 . S
C1080 H1056 0.950 . S
C1080 C1075 1.363 . S
C1080 C1079 1.415 . S
C1081 H1057 0.951 . S
C1081 C1082 1.366 . S
C1081 C1083 1.388 . S
C1082 C1081 1.366 . S
C1082 C1086 1.385 . S
C1083 H1058 0.951 . S
C1083 C1081 1.388 . S
C1083 C1084 1.366 . S
C1084 C1083 1.366 . S
C1084 C1085 1.414 . S
C1084 C1087 1.499 . S
C1085 H1059 0.950 . S
C1085 C1084 1.414 . S
C1085 C1086 1.374 . S
C1086 H1060 0.950 . S
C1086 C1082 1.385 . S
C1086 C1085 1.374 . S
C1087 C1084 1.499 . S
C1087 C1088 1.373 . S
C1087 C1089 1.389 . S
C1088 H1061 0.950 . S
C1088 C1074 1.377 . S
C1088 C1087 1.373 . S
C1089 C1073 1.377 . S
C1089 C1087 1.389 . S
C1089 C1090 1.524 . S
C1090 C1089 1.524 . S
C1090 C1091 1.397 . S
C1090 C1095 1.363 . S
C1091 H1062 0.950 . S
C1091 C1090 1.397 . S
C1091 C1092 1.334 . S
C1092 H1063 0.950 . S
C1092 C1091 1.334 . S
C1092 C1093 1.287 . S
C1093 C1092 1.287 . S
C1093 C1094 1.524 . S
C1093 H1096 0.999 . S
C1094 H1064 0.950 . S
C1094 C1093 1.524 . S
C1094 C1095 1.415 . S
C1095 H1065 0.950 . S
C1095 C1090 1.363 . S
C1095 C1094 1.415 . S
H1096 C1093 0.999 . S
H1097 C1078 0.918 . S
H1098 C1116 0.951 . S
H1099 C1118 0.951 . S
H1100 C1120 0.950 . S
H1101 C1121 0.950 . S
H1102 C1123 0.950 . S
H1103 C1126 0.950 . S
H1104 C1127 0.950 . S
H1105 C1129 0.950 . S
H1106 C1130 0.950 . S
H1107 C1131 0.951 . S
H1108 C1133 0.951 . S
H1109 C1135 0.950 . S
H1110 C1136 0.950 . S
H1111 C1138 0.950 . S
H1112 C1141 0.950 . S
H1113 C1142 0.950 . S
H1114 C1144 0.950 . S
H1115 C1145 0.950 . S
C1116 H1098 0.951 . S
C1116 C1117 1.366 . S
C1116 C1118 1.388 . S
C1117 C1116 1.366 . S
C1117 C1121 1.385 . S
C1118 H1099 0.951 . S
C1118 C1116 1.388 . S
C1118 C1119 1.366 . S
C1119 C1118 1.366 . S
C1119 C1120 1.414 . S
C1119 C1122 1.499 . S
C1120 H1100 0.950 . S
C1120 C1119 1.414 . S
C1120 C1121 1.374 . S
C1121 H1101 0.950 . S
C1121 C1117 1.385 . S
C1121 C1120 1.374 . S
C1122 C1119 1.499 . S
C1122 C1123 1.373 . S
C1122 C1124 1.389 . S
C1123 H1102 0.950 . S
C1123 C1122 1.373 . S
C1123 C1139 1.377 1_554 S
C1124 C1122 1.389 . S
C1124 C1125 1.524 . S
C1124 C1138 1.377 1_554 S
C1125 C1124 1.524 . S
C1125 C1126 1.397 . S
C1125 C1130 1.363 . S
C1126 H1103 0.950 . S
C1126 C1125 1.397 . S
C1126 C1127 1.334 . S
C1127 H1104 0.950 . S
C1127 C1126 1.334 . S
C1127 C1128 1.287 . S
C1128 C1127 1.287 . S
C1128 C1129 1.524 . S
C1128 H1147 0.913 . S
C1129 H1105 0.950 . S
C1129 C1128 1.524 . S
C1129 C1130 1.415 . S
C1130 H1106 0.950 . S
C1130 C1125 1.363 . S
C1130 C1129 1.415 . S
C1131 H1107 0.951 . S
C1131 C1132 1.366 . S
C1131 C1133 1.388 . S
C1132 C1131 1.366 . S
C1132 C1136 1.385 . S
C1133 H1108 0.951 . S
C1133 C1131 1.388 . S
C1133 C1134 1.366 . S
C1134 C1133 1.366 . S
C1134 C1135 1.414 . S
C1134 C1137 1.499 . S
C1135 H1109 0.950 . S
C1135 C1134 1.414 . S
C1135 C1136 1.374 . S
C1136 H1110 0.950 . S
C1136 C1132 1.385 . S
C1136 C1135 1.374 . S
C1137 C1134 1.499 . S
C1137 C1138 1.373 . S
C1137 C1139 1.389 . S
C1138 H1111 0.950 . S
C1138 C1124 1.377 1_556 S
C1138 C1137 1.373 . S
C1139 C1123 1.377 1_556 S
C1139 C1137 1.389 . S
C1139 C1140 1.524 . S
C1140 C1139 1.524 . S
C1140 C1141 1.397 . S
C1140 C1145 1.363 . S
C1141 H1112 0.950 . S
C1141 C1140 1.397 . S
C1141 C1142 1.334 . S
C1142 H1113 0.950 . S
C1142 C1141 1.334 . S
C1142 C1143 1.287 . S
C1143 C1142 1.287 . S
C1143 C1144 1.524 . S
C1143 H1146 0.999 . S
C1144 H1114 0.950 . S
C1144 C1143 1.524 . S
C1144 C1145 1.415 . S
C1145 H1115 0.950 . S
C1145 C1140 1.363 . S
C1145 C1144 1.415 . S
H1146 C1143 0.999 . S
H1147 C1128 0.913 . S
H1148 C1166 0.951 . S
H1149 C1168 0.951 . S
H1150 C1170 0.950 . S
H1151 C1171 0.950 . S
H1152 C1173 0.950 . S
H1153 C1176 0.950 . S
H1154 C1177 0.950 . S
H1155 C1179 0.950 . S
H1156 C1180 0.950 . S
H1157 C1181 0.951 . S
H1158 C1183 0.951 . S
H1159 C1185 0.950 . S
H1160 C1186 0.950 . S
H1161 C1188 0.950 . S
H1162 C1191 0.950 . S
H1163 C1192 0.950 . S
H1164 C1194 0.950 . S
H1165 C1195 0.950 . S
C1166 H1148 0.951 . S
C1166 C1167 1.366 . S
C1166 C1168 1.388 . S
C1167 C1166 1.366 . S
C1167 C1171 1.385 . S
C1168 H1149 0.951 . S
C1168 C1166 1.388 . S
C1168 C1169 1.366 . S
C1169 C1168 1.366 . S
C1169 C1170 1.414 . S
C1169 C1172 1.499 . S
C1170 H1150 0.950 . S
C1170 C1169 1.414 . S
C1170 C1171 1.374 . S
C1171 H1151 0.950 . S
C1171 C1167 1.385 . S
C1171 C1170 1.374 . S
C1172 C1169 1.499 . S
C1172 C1173 1.373 . S
C1172 C1174 1.389 . S
C1173 H1152 0.950 . S
C1173 C1172 1.373 . S
C1173 C1189 1.377 . S
C1174 C1172 1.389 . S
C1174 C1175 1.524 . S
C1174 C1188 1.377 . S
C1175 C1174 1.524 . S
C1175 C1176 1.397 . S
C1175 C1180 1.363 . S
C1176 H1153 0.950 . S
C1176 C1175 1.397 . S
C1176 C1177 1.334 . S
C1177 H1154 0.950 . S
C1177 C1176 1.334 . S
C1177 C1178 1.287 . S
C1178 C1177 1.287 . S
C1178 C1179 1.524 . S
C1178 H1197 0.913 . S
C1179 H1155 0.950 . S
C1179 C1178 1.524 . S
C1179 C1180 1.415 . S
C1180 H1156 0.950 . S
C1180 C1175 1.363 . S
C1180 C1179 1.415 . S
C1181 H1157 0.951 . S
C1181 C1182 1.366 . S
C1181 C1183 1.388 . S
C1182 C1181 1.366 . S
C1182 C1186 1.385 . S
C1183 H1158 0.951 . S
C1183 C1181 1.388 . S
C1183 C1184 1.366 . S
C1184 C1183 1.366 . S
C1184 C1185 1.414 . S
C1184 C1187 1.499 . S
C1185 H1159 0.950 . S
C1185 C1184 1.414 . S
C1185 C1186 1.374 . S
C1186 H1160 0.950 . S
C1186 C1182 1.385 . S
C1186 C1185 1.374 . S
C1187 C1184 1.499 . S
C1187 C1188 1.373 . S
C1187 C1189 1.389 . S
C1188 H1161 0.950 . S
C1188 C1174 1.377 . S
C1188 C1187 1.373 . S
C1189 C1173 1.377 . S
C1189 C1187 1.389 . S
C1189 C1190 1.524 . S
C1190 C1189 1.524 . S
C1190 C1191 1.397 . S
C1190 C1195 1.363 . S
C1191 H1162 0.950 . S
C1191 C1190 1.397 . S
C1191 C1192 1.334 . S
C1192 H1163 0.950 . S
C1192 C1191 1.334 . S
C1192 C1193 1.287 . S
C1193 C1192 1.287 . S
C1193 C1194 1.524 . S
C1193 H1196 0.999 . S
C1194 H1164 0.950 . S
C1194 C1193 1.524 . S
C1194 C1195 1.415 . S
C1195 H1165 0.950 . S
C1195 C1190 1.363 . S
C1195 C1194 1.415 . S
H1196 C1193 0.999 . S
H1197 C1178 0.913 . S
H1198 C1216 0.951 . S
H1199 C1218 0.951 . S
H1200 C1220 0.950 . S
H1201 C1221 0.950 . S
H1202 C1223 0.950 . S
H1203 C1226 0.950 . S
H1204 C1227 0.950 . S
H1205 C1229 0.950 . S
H1206 C1230 0.950 . S
H1207 C1231 0.951 . S
H1208 C1233 0.951 . S
H1209 C1235 0.950 . S
H1210 C1236 0.950 . S
H1211 C1238 0.950 . S
H1212 C1241 0.950 . S
H1213 C1242 0.950 . S
H1214 C1244 0.950 . S
H1215 C1245 0.950 . S
C1216 H1198 0.951 . S
C1216 C1217 1.366 . S
C1216 C1218 1.388 . S
C1217 C1216 1.366 . S
C1217 C1221 1.385 . S
C1218 H1199 0.951 . S
C1218 C1216 1.388 . S
C1218 C1219 1.366 . S
C1219 C1218 1.366 . S
C1219 C1220 1.414 . S
C1219 C1222 1.499 . S
C1220 H1200 0.950 . S
C1220 C1219 1.414 . S
C1220 C1221 1.374 . S
C1221 H1201 0.950 . S
C1221 C1217 1.385 . S
C1221 C1220 1.374 . S
C1222 C1219 1.499 . S
C1222 C1223 1.373 . S
C1222 C1224 1.389 . S
C1223 H1202 0.950 . S
C1223 C1222 1.373 . S
C1223 C1239 1.377 . S
C1224 C1222 1.389 . S
C1224 C1225 1.524 . S
C1224 C1238 1.377 . S
C1225 C1224 1.524 . S
C1225 C1226 1.397 . S
C1225 C1230 1.363 . S
C1226 H1203 0.950 . S
C1226 C1225 1.397 . S
C1226 C1227 1.334 . S
C1227 H1204 0.950 . S
C1227 C1226 1.334 . S
C1227 C1228 1.287 . S
C1228 C1227 1.287 . S
C1228 C1229 1.524 . S
C1228 H1247 0.913 . S
C1229 H1205 0.950 . S
C1229 C1228 1.524 . S
C1229 C1230 1.415 . S
C1230 H1206 0.950 . S
C1230 C1225 1.363 . S
C1230 C1229 1.415 . S
C1231 H1207 0.951 . S
C1231 C1232 1.366 . S
C1231 C1233 1.388 . S
C1232 C1231 1.366 . S
C1232 C1236 1.385 . S
C1233 H1208 0.951 . S
C1233 C1231 1.388 . S
C1233 C1234 1.366 . S
C1234 C1233 1.366 . S
C1234 C1235 1.414 . S
C1234 C1237 1.499 . S
C1235 H1209 0.950 . S
C1235 C1234 1.414 . S
C1235 C1236 1.374 . S
C1236 H1210 0.950 . S
C1236 C1232 1.385 . S
C1236 C1235 1.374 . S
C1237 C1234 1.499 . S
C1237 C1238 1.373 . S
C1237 C1239 1.389 . S
C1238 H1211 0.950 . S
C1238 C1224 1.377 . S
C1238 C1237 1.373 . S
C1239 C1223 1.377 . S
C1239 C1237 1.389 . S
C1239 C1240 1.524 . S
C1240 C1239 1.524 . S
C1240 C1241 1.397 . S
C1240 C1245 1.363 . S
C1241 H1212 0.950 . S
C1241 C1240 1.397 . S
C1241 C1242 1.334 . S
C1242 H1213 0.950 . S
C1242 C1241 1.334 . S
C1242 C1243 1.287 . S
C1243 C1242 1.287 . S
C1243 C1244 1.524 . S
C1243 H1246 0.999 . S
C1244 H1214 0.950 . S
C1244 C1243 1.524 . S
C1244 C1245 1.415 . S
C1245 H1215 0.950 . S
C1245 C1240 1.363 . S
C1245 C1244 1.415 . S
H1246 C1243 0.999 . S
H1247 C1228 0.913 . S
H1248 C1266 0.951 . S
H1249 C1268 0.951 . S
H1250 C1270 0.950 . S
H1251 C1271 0.950 . S
H1252 C1273 0.950 . S
H1253 C1276 0.950 . S
H1254 C1277 0.950 . S
H1255 C1279 0.950 . S
H1256 C1280 0.950 . S
H1257 C1281 0.951 . S
H1258 C1283 0.951 . S
H1259 C1285 0.950 . S
H1260 C1286 0.950 . S
H1261 C1288 0.950 . S
H1262 C1291 0.950 . S
H1263 C1292 0.950 . S
H1264 C1294 0.950 . S
H1265 C1295 0.950 . S
C1266 H1248 0.951 . S
C1266 C1267 1.366 . S
C1266 C1268 1.388 1_545 S
C1267 C1266 1.366 . S
C1267 C1271 1.385 1_545 S
C1268 H1249 0.951 . S
C1268 C1266 1.388 1_565 S
C1268 C1269 1.366 . S
C1269 C1268 1.366 . S
C1269 C1270 1.414 . S
C1269 C1272 1.499 . S
C1270 H1250 0.950 . S
C1270 C1269 1.414 . S
C1270 C1271 1.374 . S
C1271 H1251 0.950 . S
C1271 C1267 1.385 1_565 S
C1271 C1270 1.374 . S
C1272 C1269 1.499 . S
C1272 C1273 1.373 . S
C1272 C1274 1.389 . S
C1273 H1252 0.950 . S
C1273 C1272 1.373 . S
C1273 C1289 1.377 . S
C1274 C1272 1.389 . S
C1274 C1275 1.524 . S
C1274 C1288 1.377 . S
C1275 C1274 1.524 . S
C1275 C1276 1.397 . S
C1275 C1280 1.363 . S
C1276 H1253 0.950 . S
C1276 C1275 1.397 . S
C1276 C1277 1.334 . S
C1277 H1254 0.950 . S
C1277 C1276 1.334 . S
C1277 C1278 1.287 . S
C1278 C1277 1.287 . S
C1278 C1279 1.524 . S
C1278 H1297 0.913 . S
C1279 H1255 0.950 . S
C1279 C1278 1.524 . S
C1279 C1280 1.415 . S
C1280 H1256 0.950 . S
C1280 C1275 1.363 . S
C1280 C1279 1.415 . S
C1281 H1257 0.951 . S
C1281 C1282 1.366 . S
C1281 C1283 1.388 . S
C1282 C1281 1.366 . S
C1282 C1286 1.385 . S
C1283 H1258 0.951 . S
C1283 C1281 1.388 . S
C1283 C1284 1.366 . S
C1284 C1283 1.366 . S
C1284 C1285 1.414 . S
C1284 C1287 1.499 . S
C1285 H1259 0.950 . S
C1285 C1284 1.414 . S
C1285 C1286 1.374 . S
C1286 H1260 0.950 . S
C1286 C1282 1.385 . S
C1286 C1285 1.374 . S
C1287 C1284 1.499 . S
C1287 C1288 1.373 . S
C1287 C1289 1.389 . S
C1288 H1261 0.950 . S
C1288 C1274 1.377 . S
C1288 C1287 1.373 . S
C1289 C1273 1.377 . S
C1289 C1287 1.389 . S
C1289 C1290 1.524 . S
C1290 C1289 1.524 . S
C1290 C1291 1.397 . S
C1290 C1295 1.363 . S
C1291 H1262 0.950 . S
C1291 C1290 1.397 . S
C1291 C1292 1.334 . S
C1292 H1263 0.950 . S
C1292 C1291 1.334 . S
C1292 C1293 1.287 . S
C1293 C1292 1.287 . S
C1293 C1294 1.524 . S
C1293 H1296 0.999 . S
C1294 H1264 0.950 . S
C1294 C1293 1.524 . S
C1294 C1295 1.415 . S
C1295 H1265 0.950 . S
C1295 C1290 1.363 . S
C1295 C1294 1.415 . S
H1296 C1293 0.999 . S
H1297 C1278 0.913 . S
H1298 C1316 0.951 . S
H1299 C1318 0.951 . S
H1300 C1320 0.950 . S
H1301 C1321 0.950 . S
H1302 C1323 0.950 . S
H1303 C1326 0.950 . S
H1304 C1327 0.950 . S
H1305 C1329 0.950 . S
H1306 C1330 0.950 . S
H1307 C1331 0.951 . S
H1308 C1333 0.951 . S
H1309 C1335 0.950 . S
H1310 C1336 0.950 . S
H1311 C1338 0.950 . S
H1312 C1341 0.950 . S
H1313 C1342 0.950 . S
H1314 C1344 0.950 . S
H1315 C1345 0.950 . S
C1316 H1298 0.951 . S
C1316 C1317 1.366 . S
C1316 C1318 1.388 . S
C1317 C1316 1.366 . S
C1317 C1321 1.385 . S
C1318 H1299 0.951 . S
C1318 C1316 1.388 . S
C1318 C1319 1.366 . S
C1319 C1318 1.366 . S
C1319 C1320 1.414 . S
C1319 C1322 1.499 . S
C1320 H1300 0.950 . S
C1320 C1319 1.414 . S
C1320 C1321 1.374 . S
C1321 H1301 0.950 . S
C1321 C1317 1.385 . S
C1321 C1320 1.374 . S
C1322 C1319 1.499 . S
C1322 C1323 1.373 . S
C1322 C1324 1.389 . S
C1323 H1302 0.950 . S
C1323 C1322 1.373 . S
C1323 C1339 1.377 . S
C1324 C1322 1.389 . S
C1324 C1325 1.524 . S
C1324 C1338 1.377 . S
C1325 C1324 1.524 . S
C1325 C1326 1.397 . S
C1325 C1330 1.363 . S
C1326 H1303 0.950 . S
C1326 C1325 1.397 . S
C1326 C1327 1.334 . S
C1327 H1304 0.950 . S
C1327 C1326 1.334 . S
C1327 C1328 1.287 . S
C1328 C1327 1.287 . S
C1328 C1329 1.524 . S
C1328 H1347 0.913 . S
C1329 H1305 0.950 . S
C1329 C1328 1.524 . S
C1329 C1330 1.415 . S
C1330 H1306 0.950 . S
C1330 C1325 1.363 . S
C1330 C1329 1.415 . S
C1331 H1307 0.951 . S
C1331 C1332 1.366 . S
C1331 C1333 1.388 1_565 S
C1332 C1331 1.366 . S
C1332 C1336 1.385 1_565 S
C1333 H1308 0.951 . S
C1333 C1331 1.388 1_545 S
C1333 C1334 1.366 . S
C1334 C1333 1.366 . S
C1334 C1335 1.414 . S
C1334 C1337 1.499 . S
C1335 H1309 0.950 . S
C1335 C1334 1.414 . S
C1335 C1336 1.374 . S
C1336 H1310 0.950 . S
C1336 C1332 1.385 1_545 S
C1336 C1335 1.374 . S
C1337 C1334 1.499 . S
C1337 C1338 1.373 . S
C1337 C1339 1.389 . S
C1338 H1311 0.950 . S
C1338 C1324 1.377 . S
C1338 C1337 1.373 . S
C1339 C1323 1.377 . S
C1339 C1337 1.389 . S
C1339 C1340 1.524 . S
C1340 C1339 1.524 . S
C1340 C1341 1.397 . S
C1340 C1345 1.363 . S
C1341 H1312 0.950 . S
C1341 C1340 1.397 . S
C1341 C1342 1.334 1_545 S
C1342 H1313 0.950 . S
C1342 C1341 1.334 1_565 S
C1342 C1343 1.287 . S
C1343 C1342 1.287 . S
C1343 C1344 1.524 . S
C1343 H1346 0.999 . S
C1344 H1314 0.950 . S
C1344 C1343 1.524 . S
C1344 C1345 1.415 1_565 S
C1345 H1315 0.950 . S
C1345 C1340 1.363 . S
C1345 C1344 1.415 1_545 S
H1346 C1343 0.999 . S
H1347 C1328 0.913 . S
H1348 C1366 0.951 . S
H1349 C1368 0.951 . S
H1350 C1370 0.950 . S
H1351 C1371 0.950 . S
H1352 C1373 0.950 . S
H1353 C1376 0.950 . S
H1354 C1377 0.950 . S
H1355 C1379 0.950 . S
H1356 C1380 0.950 . S
H1357 C1381 0.951 . S
H1358 C1383 0.951 . S
H1359 C1385 0.950 . S
H1360 C1386 0.950 . S
H1361 C1388 0.950 . S
H1362 C1391 0.950 . S
H1363 C1392 0.950 . S
H1364 C1394 0.950 . S
H1365 C1395 0.950 . S
C1366 H1348 0.951 . S
C1366 C1367 1.366 1_545 S
C1366 C1368 1.388 . S
C1367 C1366 1.366 1_565 S
C1367 C1371 1.385 . S
C1368 H1349 0.951 . S
C1368 C1366 1.388 . S
C1368 C1369 1.366 . S
C1369 C1368 1.366 . S
C1369 C1370 1.414 . S
C1369 C1372 1.499 . S
C1370 H1350 0.950 . S
C1370 C1369 1.414 . S
C1370 C1371 1.374 1_545 S
C1371 H1351 0.950 . S
C1371 C1367 1.385 . S
C1371 C1370 1.374 1_565 S
C1372 C1369 1.499 . S
C1372 C1373 1.373 . S
C1372 C1374 1.389 . S
C1373 H1352 0.950 . S
C1373 C1372 1.373 . S
C1373 C1389 1.377 . S
C1374 C1372 1.389 . S
C1374 C1375 1.524 . S
C1374 C1388 1.377 . S
C1375 C1374 1.524 . S
C1375 C1376 1.397 . S
C1375 C1380 1.363 . S
C1376 H1353 0.950 . S
C1376 C1375 1.397 . S
C1376 C1377 1.334 . S
C1377 H1354 0.950 . S
C1377 C1376 1.334 . S
C1377 C1378 1.287 . S
C1378 C1377 1.287 . S
C1378 C1379 1.524 . S
C1378 H1397 0.913 . S
C1379 H1355 0.950 . S
C1379 C1378 1.524 . S
C1379 C1380 1.415 . S
C1380 H1356 0.950 . S
C1380 C1375 1.363 . S
C1380 C1379 1.415 . S
C1381 H1357 0.951 . S
C1381 C1382 1.366 . S
C1381 C1383 1.388 . S
C1382 C1381 1.366 . S
C1382 C1386 1.385 . S
C1383 H1358 0.951 . S
C1383 C1381 1.388 . S
C1383 C1384 1.366 . S
C1384 C1383 1.366 . S
C1384 C1385 1.414 . S
C1384 C1387 1.499 . S
C1385 H1359 0.950 . S
C1385 C1384 1.414 . S
C1385 C1386 1.374 . S
C1386 H1360 0.950 . S
C1386 C1382 1.385 . S
C1386 C1385 1.374 . S
C1387 C1384 1.499 . S
C1387 C1388 1.373 . S
C1387 C1389 1.389 . S
C1388 H1361 0.950 . S
C1388 C1374 1.377 . S
C1388 C1387 1.373 . S
C1389 C1373 1.377 . S
C1389 C1387 1.389 . S
C1389 C1390 1.524 . S
C1390 C1389 1.524 . S
C1390 C1391 1.397 . S
C1390 C1395 1.363 . S
C1391 H1362 0.950 . S
C1391 C1390 1.397 . S
C1391 C1392 1.334 . S
C1392 H1363 0.950 . S
C1392 C1391 1.334 . S
C1392 C1393 1.287 . S
C1393 C1392 1.287 . S
C1393 C1394 1.524 . S
C1393 H1396 0.999 . S
C1394 H1364 0.950 . S
C1394 C1393 1.524 . S
C1394 C1395 1.415 . S
C1395 H1365 0.950 . S
C1395 C1390 1.363 . S
C1395 C1394 1.415 . S
H1396 C1393 0.999 . S
H1397 C1378 0.913 . S
H1398 C1416 0.951 . S
H1399 C1418 0.951 . S
H1400 C1420 0.950 . S
H1401 C1421 0.950 . S
H1402 C1423 0.950 . S
H1403 C1426 0.950 . S
H1404 C1427 0.950 . S
H1405 C1429 0.950 . S
H1406 C1430 0.950 . S
H1407 C1431 0.951 . S
H1408 C1433 0.951 . S
H1409 C1435 0.950 . S
H1410 C1436 0.950 . S
H1411 C1438 0.950 . S
H1412 C1441 0.950 . S
H1413 C1442 0.950 . S
H1414 C1444 0.950 . S
H1415 C1445 0.950 . S
C1416 H1398 0.951 . S
C1416 C1417 1.366 1_565 S
C1416 C1418 1.388 . S
C1417 C1416 1.366 1_545 S
C1417 C1421 1.385 . S
C1418 H1399 0.951 . S
C1418 C1416 1.388 . S
C1418 C1419 1.366 . S
C1419 C1418 1.366 . S
C1419 C1420 1.414 . S
C1419 C1422 1.499 . S
C1420 H1400 0.950 . S
C1420 C1419 1.414 . S
C1420 C1421 1.374 1_565 S
C1421 H1401 0.950 . S
C1421 C1417 1.385 . S
C1421 C1420 1.374 1_545 S
C1422 C1419 1.499 . S
C1422 C1423 1.373 . S
C1422 C1424 1.389 . S
C1423 H1402 0.950 . S
C1423 C1422 1.373 . S
C1423 C1439 1.377 . S
C1424 C1422 1.389 . S
C1424 C1425 1.524 . S
C1424 C1438 1.377 . S
C1425 C1424 1.524 . S
C1425 C1426 1.397 . S
C1425 C1430 1.363 . S
C1426 H1403 0.950 . S
C1426 C1425 1.397 . S
C1426 C1427 1.334 . S
C1427 H1404 0.950 . S
C1427 C1426 1.334 . S
C1427 C1428 1.287 . S
C1428 C1427 1.287 . S
C1428 C1429 1.524 . S
C1428 H1447 0.913 . S
C1429 H1405 0.950 . S
C1429 C1428 1.524 . S
C1429 C1430 1.415 . S
C1430 H1406 0.950 . S
C1430 C1425 1.363 . S
C1430 C1429 1.415 . S
C1431 H1407 0.951 . S
C1431 C1432 1.366 . S
C1431 C1433 1.388 . S
C1432 C1431 1.366 . S
C1432 C1436 1.385 . S
C1433 H1408 0.951 . S
C1433 C1431 1.388 . S
C1433 C1434 1.366 . S
C1434 C1433 1.366 . S
C1434 C1435 1.414 . S
C1434 C1437 1.499 . S
C1435 H1409 0.950 . S
C1435 C1434 1.414 . S
C1435 C1436 1.374 . S
C1436 H1410 0.950 . S
C1436 C1432 1.385 . S
C1436 C1435 1.374 . S
C1437 C1434 1.499 . S
C1437 C1438 1.373 . S
C1437 C1439 1.389 . S
C1438 H1411 0.950 . S
C1438 C1424 1.377 . S
C1438 C1437 1.373 . S
C1439 C1423 1.377 . S
C1439 C1437 1.389 . S
C1439 C1440 1.524 . S
C1440 C1439 1.524 . S
C1440 C1441 1.397 . S
C1440 C1445 1.363 . S
C1441 H1412 0.950 . S
C1441 C1440 1.397 . S
C1441 C1442 1.334 . S
C1442 H1413 0.950 . S
C1442 C1441 1.334 . S
C1442 C1443 1.287 . S
C1443 C1442 1.287 . S
C1443 C1444 1.524 . S
C1443 H1446 0.999 . S
C1444 H1414 0.950 . S
C1444 C1443 1.524 . S
C1444 C1445 1.415 . S
C1445 H1415 0.950 . S
C1445 C1440 1.363 . S
C1445 C1444 1.415 . S
H1446 C1443 0.999 . S
H1447 C1428 0.913 . S
H1448 C1466 0.951 . S
H1449 C1468 0.951 . S
H1450 C1470 0.950 . S
H1451 C1471 0.950 . S
H1452 C1473 0.950 . S
H1453 C1476 0.950 . S
H1454 C1477 0.950 . S
H1455 C1479 0.950 . S
H1456 C1480 0.950 . S
H1457 C1481 0.951 . S
H1458 C1483 0.951 . S
H1459 C1485 0.950 . S
H1460 C1486 0.950 . S
H1461 C1488 0.950 . S
H1462 C1491 0.950 . S
H1463 C1492 0.950 . S
H1464 C1494 0.950 . S
H1465 C1495 0.950 . S
C1466 H1448 0.951 . S
C1466 C1467 1.366 . S
C1466 C1468 1.388 . S
C1467 C1466 1.366 . S
C1467 C1471 1.385 . S
C1468 H1449 0.951 . S
C1468 C1466 1.388 . S
C1468 C1469 1.366 . S
C1469 C1468 1.366 . S
C1469 C1470 1.414 . S
C1469 C1472 1.499 . S
C1470 H1450 0.950 . S
C1470 C1469 1.414 . S
C1470 C1471 1.374 . S
C1471 H1451 0.950 . S
C1471 C1467 1.385 . S
C1471 C1470 1.374 . S
C1472 C1469 1.499 . S
C1472 C1473 1.373 . S
C1472 C1474 1.389 . S
C1473 H1452 0.950 . S
C1473 C1472 1.373 . S
C1473 C1489 1.377 . S
C1474 C1472 1.389 . S
C1474 C1475 1.524 . S
C1474 C1488 1.377 . S
C1475 C1474 1.524 . S
C1475 C1476 1.397 . S
C1475 C1480 1.363 . S
C1476 H1453 0.950 . S
C1476 C1475 1.397 . S
C1476 C1477 1.334 . S
C1477 H1454 0.950 . S
C1477 C1476 1.334 . S
C1477 C1478 1.287 . S
C1478 C1477 1.287 . S
C1478 C1479 1.524 . S
C1478 H1497 0.913 . S
C1479 H1455 0.950 . S
C1479 C1478 1.524 . S
C1479 C1480 1.415 . S
C1480 H1456 0.950 . S
C1480 C1475 1.363 . S
C1480 C1479 1.415 . S
C1481 H1457 0.951 . S
C1481 C1482 1.366 . S
C1481 C1483 1.388 1_565 S
C1482 C1481 1.366 . S
C1482 C1486 1.385 1_565 S
C1483 H1458 0.951 . S
C1483 C1481 1.388 1_545 S
C1483 C1484 1.366 . S
C1484 C1483 1.366 . S
C1484 C1485 1.414 . S
C1484 C1487 1.499 . S
C1485 H1459 0.950 . S
C1485 C1484 1.414 . S
C1485 C1486 1.374 . S
C1486 H1460 0.950 . S
C1486 C1482 1.385 1_545 S
C1486 C1485 1.374 . S
C1487 C1484 1.499 . S
C1487 C1488 1.373 . S
C1487 C1489 1.389 . S
C1488 H1461 0.950 . S
C1488 C1474 1.377 . S
C1488 C1487 1.373 . S
C1489 C1473 1.377 . S
C1489 C1487 1.389 . S
C1489 C1490 1.524 . S
C1490 C1489 1.524 . S
C1490 C1491 1.397 . S
C1490 C1495 1.363 . S
C1491 H1462 0.950 . S
C1491 C1490 1.397 . S
C1491 C1492 1.334 . S
C1492 H1463 0.950 . S
C1492 C1491 1.334 . S
C1492 C1493 1.287 . S
C1493 C1492 1.287 . S
C1493 C1494 1.524 . S
C1493 H1496 0.999 . S
C1494 H1464 0.950 . S
C1494 C1493 1.524 . S
C1494 C1495 1.415 . S
C1495 H1465 0.950 . S
C1495 C1490 1.363 . S
C1495 C1494 1.415 . S
H1496 C1493 0.999 . S
H1497 C1478 0.913 . S
H1498 C1516 0.951 . S
H1499 C1518 0.951 . S
H1500 C1520 0.950 . S
H1501 C1521 0.950 . S
H1502 C1523 0.950 . S
H1503 C1526 0.950 . S
H1504 C1527 0.950 . S
H1505 C1529 0.950 . S
H1506 C1530 0.950 . S
H1507 C1531 0.951 . S
H1508 C1533 0.951 . S
H1509 C1535 0.950 . S
H1510 C1536 0.950 . S
H1511 C1538 0.950 . S
H1512 C1541 0.950 . S
H1513 C1542 0.950 . S
H1514 C1544 0.950 . S
H1515 C1545 0.950 . S
C1516 H1498 0.951 . S
C1516 C1517 1.366 1_565 S
C1516 C1518 1.388 . S
C1517 C1516 1.366 1_545 S
C1517 C1521 1.385 . S
C1518 H1499 0.951 . S
C1518 C1516 1.388 . S
C1518 C1519 1.366 . S
C1519 C1518 1.366 . S
C1519 C1520 1.414 . S
C1519 C1522 1.499 . S
C1520 H1500 0.950 . S
C1520 C1519 1.414 . S
C1520 C1521 1.374 1_565 S
C1521 H1501 0.950 . S
C1521 C1517 1.385 . S
C1521 C1520 1.374 1_545 S
C1522 C1519 1.499 . S
C1522 C1523 1.373 . S
C1522 C1524 1.389 . S
C1523 H1502 0.950 . S
C1523 C1522 1.373 . S
C1523 C1539 1.377 . S
C1524 C1522 1.389 . S
C1524 C1525 1.524 . S
C1524 C1538 1.377 . S
C1525 C1524 1.524 . S
C1525 C1526 1.397 . S
C1525 C1530 1.363 . S
C1526 H1503 0.950 . S
C1526 C1525 1.397 . S
C1526 C1527 1.334 . S
C1527 H1504 0.950 . S
C1527 C1526 1.334 . S
C1527 C1528 1.287 . S
C1528 C1527 1.287 . S
C1528 C1529 1.524 . S
C1528 H1547 0.913 . S
C1529 H1505 0.950 . S
C1529 C1528 1.524 . S
C1529 C1530 1.415 . S
C1530 H1506 0.950 . S
C1530 C1525 1.363 . S
C1530 C1529 1.415 . S
C1531 H1507 0.951 . S
C1531 C1532 1.366 . S
C1531 C1533 1.388 . S
C1532 C1531 1.366 . S
C1532 C1536 1.385 . S
C1533 H1508 0.951 . S
C1533 C1531 1.388 . S
C1533 C1534 1.366 . S
C1534 C1533 1.366 . S
C1534 C1535 1.414 . S
C1534 C1537 1.499 . S
C1535 H1509 0.950 . S
C1535 C1534 1.414 . S
C1535 C1536 1.374 . S
C1536 H1510 0.950 . S
C1536 C1532 1.385 . S
C1536 C1535 1.374 . S
C1537 C1534 1.499 . S
C1537 C1538 1.373 . S
C1537 C1539 1.389 . S
C1538 H1511 0.950 . S
C1538 C1524 1.377 . S
C1538 C1537 1.373 . S
C1539 C1523 1.377 . S
C1539 C1537 1.389 . S
C1539 C1540 1.524 . S
C1540 C1539 1.524 . S
C1540 C1541 1.397 . S
C1540 C1545 1.363 . S
C1541 H1512 0.950 . S
C1541 C1540 1.397 . S
C1541 C1542 1.334 . S
C1542 H1513 0.950 . S
C1542 C1541 1.334 . S
C1542 C1543 1.287 . S
C1543 C1542 1.287 . S
C1543 C1544 1.524 . S
C1543 H1546 0.999 . S
C1544 H1514 0.950 . S
C1544 C1543 1.524 . S
C1544 C1545 1.415 . S
C1545 H1515 0.950 . S
C1545 C1540 1.363 . S
C1545 C1544 1.415 . S
H1546 C1543 0.999 . S
H1547 C1528 0.913 . S
H1548 C1566 0.951 . S
H1549 C1568 0.951 . S
H1550 C1570 0.950 . S
H1551 C1571 0.950 . S
H1552 C1573 0.950 . S
H1553 C1576 0.950 . S
H1554 C1577 0.950 . S
H1555 C1579 0.950 . S
H1556 C1580 0.950 . S
H1557 C1581 0.951 . S
H1558 C1583 0.951 . S
H1559 C1585 0.950 . S
H1560 C1586 0.950 . S
H1561 C1588 0.950 . S
H1562 C1591 0.950 . S
H1563 C1592 0.950 . S
H1564 C1594 0.950 . S
H1565 C1595 0.950 . S
C1566 H1548 0.951 . S
C1566 C1567 1.366 . S
C1566 C1568 1.388 . S
C1567 C1566 1.366 . S
C1567 C1571 1.385 . S
C1568 H1549 0.951 . S
C1568 C1566 1.388 . S
C1568 C1569 1.366 . S
C1569 C1568 1.366 . S
C1569 C1570 1.414 . S
C1569 C1572 1.499 . S
C1570 H1550 0.950 . S
C1570 C1569 1.414 . S
C1570 C1571 1.374 . S
C1571 H1551 0.950 . S
C1571 C1567 1.385 . S
C1571 C1570 1.374 . S
C1572 C1569 1.499 . S
C1572 C1573 1.373 . S
C1572 C1574 1.389 . S
C1573 H1552 0.950 . S
C1573 C1572 1.373 . S
C1573 C1589 1.377 . S
C1574 C1572 1.389 . S
C1574 C1575 1.524 . S
C1574 C1588 1.377 . S
C1575 C1574 1.524 . S
C1575 C1576 1.397 . S
C1575 C1580 1.363 . S
C1576 H1553 0.950 . S
C1576 C1575 1.397 . S
C1576 C1577 1.334 . S
C1577 H1554 0.950 . S
C1577 C1576 1.334 . S
C1577 C1578 1.287 . S
C1578 C1577 1.287 . S
C1578 C1579 1.524 . S
C1578 H1597 0.913 . S
C1579 H1555 0.950 . S
C1579 C1578 1.524 . S
C1579 C1580 1.415 . S
C1580 H1556 0.950 . S
C1580 C1575 1.363 . S
C1580 C1579 1.415 . S
C1581 H1557 0.951 . S
C1581 C1582 1.366 . S
C1581 C1583 1.388 1_545 S
C1582 C1581 1.366 . S
C1582 C1586 1.385 1_545 S
C1583 H1558 0.951 . S
C1583 C1581 1.388 1_565 S
C1583 C1584 1.366 . S
C1584 C1583 1.366 . S
C1584 C1585 1.414 . S
C1584 C1587 1.499 . S
C1585 H1559 0.950 . S
C1585 C1584 1.414 . S
C1585 C1586 1.374 . S
C1586 H1560 0.950 . S
C1586 C1582 1.385 1_565 S
C1586 C1585 1.374 . S
C1587 C1584 1.499 . S
C1587 C1588 1.373 . S
C1587 C1589 1.389 . S
C1588 H1561 0.950 . S
C1588 C1574 1.377 . S
C1588 C1587 1.373 . S
C1589 C1573 1.377 . S
C1589 C1587 1.389 . S
C1589 C1590 1.524 . S
C1590 C1589 1.524 . S
C1590 C1591 1.397 . S
C1590 C1595 1.363 . S
C1591 H1562 0.950 . S
C1591 C1590 1.397 . S
C1591 C1592 1.334 1_565 S
C1592 H1563 0.950 . S
C1592 C1591 1.334 1_545 S
C1592 C1593 1.287 . S
C1593 C1592 1.287 . S
C1593 C1594 1.524 . S
C1593 H1596 0.999 . S
C1594 H1564 0.950 . S
C1594 C1593 1.524 . S
C1594 C1595 1.415 1_545 S
C1595 H1565 0.950 . S
C1595 C1590 1.363 . S
C1595 C1594 1.415 1_565 S
H1596 C1593 0.999 . S
H1597 C1578 0.913 . S
H1598 C1616 0.951 . S
H1599 C1618 0.951 . S
H1600 C1620 0.950 . S
H1601 C1621 0.950 . S
H1602 C1623 0.950 . S
H1603 C1626 0.950 . S
H1604 C1627 0.950 . S
H1605 C1629 0.950 . S
H1606 C1630 0.950 . S
H1607 C1631 0.951 . S
H1608 C1633 0.951 . S
H1609 C1635 0.950 . S
H1610 C1636 0.950 . S
H1611 C1638 0.950 . S
H1612 C1641 0.950 . S
H1613 C1642 0.950 . S
H1614 C1644 0.950 . S
H1615 C1645 0.950 . S
C1616 H1598 0.951 . S
C1616 C1617 1.366 . S
C1616 C1618 1.388 . S
C1617 C1616 1.366 . S
C1617 C1621 1.385 . S
C1618 H1599 0.951 . S
C1618 C1616 1.388 . S
C1618 C1619 1.366 . S
C1619 C1618 1.366 . S
C1619 C1620 1.414 . S
C1619 C1622 1.499 . S
C1620 H1600 0.950 . S
C1620 C1619 1.414 . S
C1620 C1621 1.374 . S
C1621 H1601 0.950 . S
C1621 C1617 1.385 . S
C1621 C1620 1.374 . S
C1622 C1619 1.499 . S
C1622 C1623 1.373 . S
C1622 C1624 1.389 . S
C1623 H1602 0.950 . S
C1623 C1622 1.373 . S
C1623 C1639 1.377 . S
C1624 C1622 1.389 . S
C1624 C1625 1.524 . S
C1624 C1638 1.377 . S
C1625 C1624 1.524 . S
C1625 C1626 1.397 . S
C1625 C1630 1.363 . S
C1626 H1603 0.950 . S
C1626 C1625 1.397 . S
C1626 C1627 1.334 . S
C1627 H1604 0.950 . S
C1627 C1626 1.334 . S
C1627 C1628 1.287 . S
C1628 C1627 1.287 . S
C1628 C1629 1.524 . S
C1628 H1647 0.913 . S
C1629 H1605 0.950 . S
C1629 C1628 1.524 . S
C1629 C1630 1.415 . S
C1630 H1606 0.950 . S
C1630 C1625 1.363 . S
C1630 C1629 1.415 . S
C1631 H1607 0.951 . S
C1631 C1632 1.366 . S
C1631 C1633 1.388 1_565 S
C1632 C1631 1.366 . S
C1632 C1636 1.385 1_565 S
C1633 H1608 0.951 . S
C1633 C1631 1.388 1_545 S
C1633 C1634 1.366 . S
C1634 C1633 1.366 . S
C1634 C1635 1.414 . S
C1634 C1637 1.499 . S
C1635 H1609 0.950 . S
C1635 C1634 1.414 . S
C1635 C1636 1.374 . S
C1636 H1610 0.950 . S
C1636 C1632 1.385 1_545 S
C1636 C1635 1.374 . S
C1637 C1634 1.499 . S
C1637 C1638 1.373 . S
C1637 C1639 1.389 . S
C1638 H1611 0.950 . S
C1638 C1624 1.377 . S
C1638 C1637 1.373 . S
C1639 C1623 1.377 . S
C1639 C1637 1.389 . S
C1639 C1640 1.524 . S
C1640 C1639 1.524 . S
C1640 C1641 1.397 . S
C1640 C1645 1.363 . S
C1641 H1612 0.950 . S
C1641 C1640 1.397 . S
C1641 C1642 1.334 . S
C1642 H1613 0.950 . S
C1642 C1641 1.334 . S
C1642 C1643 1.287 . S
C1643 C1642 1.287 . S
C1643 C1644 1.524 . S
C1643 H1646 0.999 . S
C1644 H1614 0.950 . S
C1644 C1643 1.524 . S
C1644 C1645 1.415 . S
C1645 H1615 0.950 . S
C1645 C1640 1.363 . S
C1645 C1644 1.415 . S
H1646 C1643 0.999 . S
H1647 C1628 0.913 . S
H1648 C1666 0.951 . S
H1649 C1668 0.951 . S
H1650 C1670 0.950 . S
H1651 C1671 0.950 . S
H1652 C1673 0.950 . S
H1653 C1676 0.950 . S
H1654 C1677 0.950 . S
H1655 C1679 0.950 . S
H1656 C1680 0.950 . S
H1657 C1681 0.951 . S
H1658 C1683 0.951 . S
H1659 C1685 0.950 . S
H1660 C1686 0.950 . S
H1661 C1688 0.950 . S
H1662 C1691 0.950 . S
H1663 C1692 0.950 . S
H1664 C1694 0.950 . S
H1665 C1695 0.950 . S
C1666 H1648 0.951 . S
C1666 C1667 1.366 . S
C1666 C1668 1.388 . S
C1667 C1666 1.366 . S
C1667 C1671 1.385 . S
C1668 H1649 0.951 . S
C1668 C1666 1.388 . S
C1668 C1669 1.366 . S
C1669 C1668 1.366 . S
C1669 C1670 1.414 . S
C1669 C1672 1.499 . S
C1670 H1650 0.950 . S
C1670 C1669 1.414 . S
C1670 C1671 1.374 . S
C1671 H1651 0.950 . S
C1671 C1667 1.385 . S
C1671 C1670 1.374 . S
C1672 C1669 1.499 . S
C1672 C1673 1.373 . S
C1672 C1674 1.389 . S
C1673 H1652 0.950 . S
C1673 C1672 1.373 . S
C1673 C1689 1.377 . S
C1674 C1672 1.389 . S
C1674 C1675 1.524 . S
C1674 C1688 1.377 . S
C1675 C1674 1.524 . S
C1675 C1676 1.397 . S
C1675 C1680 1.363 . S
C1676 H1653 0.950 . S
C1676 C1675 1.397 . S
C1676 C1677 1.334 . S
C1677 H1654 0.950 . S
C1677 C1676 1.334 . S
C1677 C1678 1.287 . S
C1678 C1677 1.287 . S
C1678 C1679 1.524 . S
C1678 H1697 0.913 . S
C1679 H1655 0.950 . S
C1679 C1678 1.524 . S
C1679 C1680 1.415 . S
C1680 H1656 0.950 . S
C1680 C1675 1.363 . S
C1680 C1679 1.415 . S
C1681 H1657 0.951 . S
C1681 C1682 1.366 . S
C1681 C1683 1.388 . S
C1682 C1681 1.366 . S
C1682 C1686 1.385 . S
C1683 H1658 0.951 . S
C1683 C1681 1.388 . S
C1683 C1684 1.366 . S
C1684 C1683 1.366 . S
C1684 C1685 1.414 . S
C1684 C1687 1.499 . S
C1685 H1659 0.950 . S
C1685 C1684 1.414 . S
C1685 C1686 1.374 . S
C1686 H1660 0.950 . S
C1686 C1682 1.385 . S
C1686 C1685 1.374 . S
C1687 C1684 1.499 . S
C1687 C1688 1.373 . S
C1687 C1689 1.389 . S
C1688 H1661 0.950 . S
C1688 C1674 1.377 . S
C1688 C1687 1.373 . S
C1689 C1673 1.377 . S
C1689 C1687 1.389 . S
C1689 C1690 1.524 . S
C1690 C1689 1.524 . S
C1690 C1691 1.397 . S
C1690 C1695 1.363 . S
C1691 H1662 0.950 . S
C1691 C1690 1.397 . S
C1691 C1692 1.334 . S
C1692 H1663 0.950 . S
C1692 C1691 1.334 . S
C1692 C1693 1.287 . S
C1693 C1692 1.287 . S
C1693 C1694 1.524 . S
C1693 H1696 0.999 . S
C1694 H1664 0.950 . S
C1694 C1693 1.524 . S
C1694 C1695 1.415 . S
C1695 H1665 0.950 . S
C1695 C1690 1.363 . S
C1695 C1694 1.415 . S
H1696 C1693 0.999 . S
H1697 C1678 0.913 . S
H1698 C1716 0.951 . S
H1699 C1718 0.951 . S
H1700 C1720 0.950 . S
H1701 C1721 0.950 . S
H1702 C1723 0.950 . S
H1703 C1726 0.950 . S
H1704 C1727 0.950 . S
H1705 C1729 0.950 . S
H1706 C1730 0.950 . S
H1707 C1731 0.951 . S
H1708 C1733 0.951 . S
H1709 C1735 0.950 . S
H1710 C1736 0.950 . S
H1711 C1738 0.950 . S
H1712 C1741 0.950 . S
H1713 C1742 0.950 . S
H1714 C1744 0.950 . S
H1715 C1745 0.950 . S
C1716 H1698 0.951 . S
C1716 C1717 1.366 . S
C1716 C1718 1.388 . S
C1717 C1716 1.366 . S
C1717 C1721 1.385 . S
C1718 H1699 0.951 . S
C1718 C1716 1.388 . S
C1718 C1719 1.366 . S
C1719 C1718 1.366 . S
C1719 C1720 1.414 . S
C1719 C1722 1.499 . S
C1720 H1700 0.950 . S
C1720 C1719 1.414 . S
C1720 C1721 1.374 . S
C1721 H1701 0.950 . S
C1721 C1717 1.385 . S
C1721 C1720 1.374 . S
C1722 C1719 1.499 . S
C1722 C1723 1.373 . S
C1722 C1724 1.389 . S
C1723 H1702 0.950 . S
C1723 C1722 1.373 . S
C1723 C1739 1.377 . S
C1724 C1722 1.389 . S
C1724 C1725 1.524 . S
C1724 C1738 1.377 . S
C1725 C1724 1.524 . S
C1725 C1726 1.397 . S
C1725 C1730 1.363 . S
C1726 H1703 0.950 . S
C1726 C1725 1.397 . S
C1726 C1727 1.334 . S
C1727 H1704 0.950 . S
C1727 C1726 1.334 . S
C1727 C1728 1.287 . S
C1728 C1727 1.287 . S
C1728 C1729 1.524 . S
C1728 H1747 0.913 . S
C1729 H1705 0.950 . S
C1729 C1728 1.524 . S
C1729 C1730 1.415 . S
C1730 H1706 0.950 . S
C1730 C1725 1.363 . S
C1730 C1729 1.415 . S
C1731 H1707 0.951 . S
C1731 C1732 1.366 . S
C1731 C1733 1.388 . S
C1732 C1731 1.366 . S
C1732 C1736 1.385 . S
C1733 H1708 0.951 . S
C1733 C1731 1.388 . S
C1733 C1734 1.366 . S
C1734 C1733 1.366 . S
C1734 C1735 1.414 . S
C1734 C1737 1.499 . S
C1735 H1709 0.950 . S
C1735 C1734 1.414 . S
C1735 C1736 1.374 . S
C1736 H1710 0.950 . S
C1736 C1732 1.385 . S
C1736 C1735 1.374 . S
C1737 C1734 1.499 . S
C1737 C1738 1.373 . S
C1737 C1739 1.389 . S
C1738 H1711 0.950 . S
C1738 C1724 1.377 . S
C1738 C1737 1.373 . S
C1739 C1723 1.377 . S
C1739 C1737 1.389 . S
C1739 C1740 1.524 . S
C1740 C1739 1.524 . S
C1740 C1741 1.397 . S
C1740 C1745 1.363 . S
C1741 H1712 0.950 . S
C1741 C1740 1.397 . S
C1741 C1742 1.334 . S
C1742 H1713 0.950 . S
C1742 C1741 1.334 . S
C1742 C1743 1.287 . S
C1743 C1742 1.287 . S
C1743 C1744 1.524 . S
C1743 H1746 0.999 . S
C1744 H1714 0.950 . S
C1744 C1743 1.524 . S
C1744 C1745 1.415 . S
C1745 H1715 0.950 . S
C1745 C1740 1.363 . S
C1745 C1744 1.415 . S
H1746 C1743 0.999 . S
H1747 C1728 0.913 . S
H1748 C1766 0.951 . S
H1749 C1768 0.951 . S
H1750 C1770 0.950 . S
H1751 C1771 0.950 . S
H1752 C1773 0.950 . S
H1753 C1776 0.950 . S
H1754 C1777 0.950 . S
H1755 C1779 0.950 . S
H1756 C1780 0.950 . S
H1757 C1781 0.951 . S
H1758 C1783 0.951 . S
H1759 C1785 0.950 . S
H1760 C1786 0.950 . S
H1761 C1788 0.950 . S
H1762 C1791 0.950 . S
H1763 C1792 0.950 . S
H1764 C1794 0.950 . S
H1765 C1795 0.950 . S
C1766 H1748 0.951 . S
C1766 C1767 1.366 . S
C1766 C1768 1.388 . S
C1767 C1766 1.366 . S
C1767 C1771 1.385 . S
C1768 H1749 0.951 . S
C1768 C1766 1.388 . S
C1768 C1769 1.366 . S
C1769 C1768 1.366 . S
C1769 C1770 1.414 . S
C1769 C1772 1.499 . S
C1770 H1750 0.950 . S
C1770 C1769 1.414 . S
C1770 C1771 1.374 . S
C1771 H1751 0.950 . S
C1771 C1767 1.385 . S
C1771 C1770 1.374 . S
C1772 C1769 1.499 . S
C1772 C1773 1.373 . S
C1772 C1774 1.389 . S
C1773 H1752 0.950 . S
C1773 C1772 1.373 . S
C1773 C1789 1.377 . S
C1774 C1772 1.389 . S
C1774 C1775 1.524 . S
C1774 C1788 1.377 . S
C1775 C1774 1.524 . S
C1775 C1776 1.397 . S
C1775 C1780 1.363 . S
C1776 H1753 0.950 . S
C1776 C1775 1.397 . S
C1776 C1777 1.334 . S
C1777 H1754 0.950 . S
C1777 C1776 1.334 . S
C1777 C1778 1.287 . S
C1778 C1777 1.287 . S
C1778 C1779 1.524 . S
C1778 H1797 0.913 . S
C1779 H1755 0.950 . S
C1779 C1778 1.524 . S
C1779 C1780 1.415 . S
C1780 H1756 0.950 . S
C1780 C1775 1.363 . S
C1780 C1779 1.415 . S
C1781 H1757 0.951 . S
C1781 C1782 1.366 . S
C1781 C1783 1.388 . S
C1782 C1781 1.366 . S
C1782 C1786 1.385 . S
C1783 H1758 0.951 . S
C1783 C1781 1.388 . S
C1783 C1784 1.366 . S
C1784 C1783 1.366 . S
C1784 C1785 1.414 . S
C1784 C1787 1.499 . S
C1785 H1759 0.950 . S
C1785 C1784 1.414 . S
C1785 C1786 1.374 . S
C1786 H1760 0.950 . S
C1786 C1782 1.385 . S
C1786 C1785 1.374 . S
C1787 C1784 1.499 . S
C1787 C1788 1.373 . S
C1787 C1789 1.389 . S
C1788 H1761 0.950 . S
C1788 C1774 1.377 . S
C1788 C1787 1.373 . S
C1789 C1773 1.377 . S
C1789 C1787 1.389 . S
C1789 C1790 1.524 . S
C1790 C1789 1.524 . S
C1790 C1791 1.397 . S
C1790 C1795 1.363 . S
C1791 H1762 0.950 . S
C1791 C1790 1.397 . S
C1791 C1792 1.334 . S
C1792 H1763 0.950 . S
C1792 C1791 1.334 . S
C1792 C1793 1.287 . S
C1793 C1792 1.287 . S
C1793 C1794 1.524 . S
C1793 H1796 0.999 . S
C1794 H1764 0.950 . S
C1794 C1793 1.524 . S
C1794 C1795 1.415 . S
C1795 H1765 0.950 . S
C1795 C1790 1.363 . S
C1795 C1794 1.415 . S
H1796 C1793 0.999 . S
H1797 C1778 0.913 . S
H1798 C1816 0.951 . S
H1799 C1818 0.951 . S
H1800 C1820 0.950 . S
H1801 C1821 0.950 . S
H1802 C1823 0.950 . S
H1803 C1826 0.950 . S
H1804 C1827 0.950 . S
H1805 C1829 0.950 . S
H1806 C1830 0.950 . S
H1807 C1831 0.951 . S
H1808 C1833 0.951 . S
H1809 C1835 0.950 . S
H1810 C1836 0.950 . S
H1811 C1838 0.950 . S
H1812 C1841 0.950 . S
H1813 C1842 0.950 . S
H1814 C1844 0.950 . S
H1815 C1845 0.950 . S
C1816 H1798 0.951 . S
C1816 C1817 1.366 . S
C1816 C1818 1.388 . S
C1817 C1816 1.366 . S
C1817 C1821 1.385 . S
C1818 H1799 0.951 . S
C1818 C1816 1.388 . S
C1818 C1819 1.366 . S
C1819 C1818 1.366 . S
C1819 C1820 1.414 . S
C1819 C1822 1.499 . S
C1820 H1800 0.950 . S
C1820 C1819 1.414 . S
C1820 C1821 1.374 . S
C1821 H1801 0.950 . S
C1821 C1817 1.385 . S
C1821 C1820 1.374 . S
C1822 C1819 1.499 . S
C1822 C1823 1.373 . S
C1822 C1824 1.389 . S
C1823 H1802 0.950 . S
C1823 C1822 1.373 . S
C1823 C1839 1.377 . S
C1824 C1822 1.389 . S
C1824 C1825 1.524 . S
C1824 C1838 1.377 . S
C1825 C1824 1.524 . S
C1825 C1826 1.397 . S
C1825 C1830 1.363 . S
C1826 H1803 0.950 . S
C1826 C1825 1.397 . S
C1826 C1827 1.334 . S
C1827 H1804 0.950 . S
C1827 C1826 1.334 . S
C1827 C1828 1.287 . S
C1828 C1827 1.287 . S
C1828 C1829 1.524 . S
C1828 H1847 0.913 . S
C1829 H1805 0.950 . S
C1829 C1828 1.524 . S
C1829 C1830 1.415 . S
C1830 H1806 0.950 . S
C1830 C1825 1.363 . S
C1830 C1829 1.415 . S
C1831 H1807 0.951 . S
C1831 C1832 1.366 . S
C1831 C1833 1.388 . S
C1832 C1831 1.366 . S
C1832 C1836 1.385 . S
C1833 H1808 0.951 . S
C1833 C1831 1.388 . S
C1833 C1834 1.366 . S
C1834 C1833 1.366 . S
C1834 C1835 1.414 . S
C1834 C1837 1.499 . S
C1835 H1809 0.950 . S
C1835 C1834 1.414 . S
C1835 C1836 1.374 . S
C1836 H1810 0.950 . S
C1836 C1832 1.385 . S
C1836 C1835 1.374 . S
C1837 C1834 1.499 . S
C1837 C1838 1.373 . S
C1837 C1839 1.389 . S
C1838 H1811 0.950 . S
C1838 C1824 1.377 . S
C1838 C1837 1.373 . S
C1839 C1823 1.377 . S
C1839 C1837 1.389 . S
C1839 C1840 1.524 . S
C1840 C1839 1.524 . S
C1840 C1841 1.397 . S
C1840 C1845 1.363 . S
C1841 H1812 0.950 . S
C1841 C1840 1.397 . S
C1841 C1842 1.334 . S
C1842 H1813 0.950 . S
C1842 C1841 1.334 . S
C1842 C1843 1.287 . S
C1843 C1842 1.287 . S
C1843 C1844 1.524 . S
C1843 H1846 0.999 . S
C1844 H1814 0.950 . S
C1844 C1843 1.524 . S
C1844 C1845 1.415 . S
C1845 H1815 0.950 . S
C1845 C1840 1.363 . S
C1845 C1844 1.415 . S
H1846 C1843 0.999 . S
H1847 C1828 0.913 . S
H1848 C1866 0.951 . S
H1849 C1868 0.951 . S
H1850 C1870 0.950 . S
H1851 C1871 0.950 . S
H1852 C1873 0.950 . S
H1853 C1876 0.950 . S
H1854 C1877 0.950 . S
H1855 C1879 0.950 . S
H1856 C1880 0.950 . S
H1857 C1881 0.951 . S
H1858 C1883 0.951 . S
H1859 C1885 0.950 . S
H1860 C1886 0.950 . S
H1861 C1888 0.950 . S
H1862 C1891 0.950 . S
H1863 C1892 0.950 . S
H1864 C1894 0.950 . S
H1865 C1895 0.950 . S
C1866 H1848 0.951 . S
C1866 C1867 1.366 . S
C1866 C1868 1.388 . S
C1867 C1866 1.366 . S
C1867 C1871 1.385 . S
C1868 H1849 0.951 . S
C1868 C1866 1.388 . S
C1868 C1869 1.366 . S
C1869 C1868 1.366 . S
C1869 C1870 1.414 . S
C1869 C1872 1.499 . S
C1870 H1850 0.950 . S
C1870 C1869 1.414 . S
C1870 C1871 1.374 . S
C1871 H1851 0.950 . S
C1871 C1867 1.385 . S
C1871 C1870 1.374 . S
C1872 C1869 1.499 . S
C1872 C1873 1.373 . S
C1872 C1874 1.389 . S
C1873 H1852 0.950 . S
C1873 C1872 1.373 . S
C1873 C1889 1.377 . S
C1874 C1872 1.389 . S
C1874 C1875 1.524 . S
C1874 C1888 1.377 . S
C1875 C1874 1.524 . S
C1875 C1876 1.397 . S
C1875 C1880 1.363 . S
C1876 H1853 0.950 . S
C1876 C1875 1.397 . S
C1876 C1877 1.334 . S
C1877 H1854 0.950 . S
C1877 C1876 1.334 . S
C1877 C1878 1.287 . S
C1878 C1877 1.287 . S
C1878 C1879 1.524 . S
C1878 H1897 0.913 . S
C1879 H1855 0.950 . S
C1879 C1878 1.524 . S
C1879 C1880 1.415 . S
C1880 H1856 0.950 . S
C1880 C1875 1.363 . S
C1880 C1879 1.415 . S
C1881 H1857 0.951 . S
C1881 C1882 1.366 . S
C1881 C1883 1.388 . S
C1882 C1881 1.366 . S
C1882 C1886 1.385 . S
C1883 H1858 0.951 . S
C1883 C1881 1.388 . S
C1883 C1884 1.366 . S
C1884 C1883 1.366 . S
C1884 C1885 1.414 . S
C1884 C1887 1.499 . S
C1885 H1859 0.950 . S
C1885 C1884 1.414 . S
C1885 C1886 1.374 . S
C1886 H1860 0.950 . S
C1886 C1882 1.385 . S
C1886 C1885 1.374 . S
C1887 C1884 1.499 . S
C1887 C1888 1.373 . S
C1887 C1889 1.389 . S
C1888 H1861 0.950 . S
C1888 C1874 1.377 . S
C1888 C1887 1.373 . S
C1889 C1873 1.377 . S
C1889 C1887 1.389 . S
C1889 C1890 1.524 . S
C1890 C1889 1.524 . S
C1890 C1891 1.397 . S
C1890 C1895 1.363 . S
C1891 H1862 0.950 . S
C1891 C1890 1.397 . S
C1891 C1892 1.334 . S
C1892 H1863 0.950 . S
C1892 C1891 1.334 . S
C1892 C1893 1.287 . S
C1893 C1892 1.287 . S
C1893 C1894 1.524 . S
C1893 H1896 0.999 . S
C1894 H1864 0.950 . S
C1894 C1893 1.524 . S
C1894 C1895 1.415 . S
C1895 H1865 0.950 . S
C1895 C1890 1.363 . S
C1895 C1894 1.415 . S
H1896 C1893 0.999 . S
H1897 C1878 0.913 . S
H1898 C1916 0.951 . S
H1899 C1918 0.951 . S
H1900 C1920 0.950 . S
H1901 C1921 0.950 . S
H1902 C1923 0.950 . S
H1903 C1926 0.950 . S
H1904 C1927 0.950 . S
H1905 C1929 0.950 . S
H1906 C1930 0.950 . S
H1907 C1931 0.951 . S
H1908 C1933 0.951 . S
H1909 C1935 0.950 . S
H1910 C1936 0.950 . S
H1911 C1938 0.950 . S
H1912 C1941 0.950 . S
H1913 C1942 0.950 . S
H1914 C1944 0.950 . S
H1915 C1945 0.950 . S
C1916 H1898 0.951 . S
C1916 C1917 1.366 . S
C1916 C1918 1.388 . S
C1917 C1916 1.366 . S
C1917 C1921 1.385 . S
C1918 H1899 0.951 . S
C1918 C1916 1.388 . S
C1918 C1919 1.366 . S
C1919 C1918 1.366 . S
C1919 C1920 1.414 . S
C1919 C1922 1.499 . S
C1920 H1900 0.950 . S
C1920 C1919 1.414 . S
C1920 C1921 1.374 . S
C1921 H1901 0.950 . S
C1921 C1917 1.385 . S
C1921 C1920 1.374 . S
C1922 C1919 1.499 . S
C1922 C1923 1.373 . S
C1922 C1924 1.389 . S
C1923 H1902 0.950 . S
C1923 C1922 1.373 . S
C1923 C1939 1.377 . S
C1924 C1922 1.389 . S
C1924 C1925 1.524 . S
C1924 C1938 1.377 . S
C1925 C1924 1.524 . S
C1925 C1926 1.397 . S
C1925 C1930 1.363 . S
C1926 H1903 0.950 . S
C1926 C1925 1.397 . S
C1926 C1927 1.334 . S
C1927 H1904 0.950 . S
C1927 C1926 1.334 . S
C1927 C1928 1.287 . S
C1928 C1927 1.287 . S
C1928 C1929 1.524 . S
C1928 H1947 0.913 . S
C1929 H1905 0.950 . S
C1929 C1928 1.524 . S
C1929 C1930 1.415 . S
C1930 H1906 0.950 . S
C1930 C1925 1.363 . S
C1930 C1929 1.415 . S
C1931 H1907 0.951 . S
C1931 C1932 1.366 . S
C1931 C1933 1.388 . S
C1932 C1931 1.366 . S
C1932 C1936 1.385 . S
C1933 H1908 0.951 . S
C1933 C1931 1.388 . S
C1933 C1934 1.366 . S
C1934 C1933 1.366 . S
C1934 C1935 1.414 . S
C1934 C1937 1.499 . S
C1935 H1909 0.950 . S
C1935 C1934 1.414 . S
C1935 C1936 1.374 . S
C1936 H1910 0.950 . S
C1936 C1932 1.385 . S
C1936 C1935 1.374 . S
C1937 C1934 1.499 . S
C1937 C1938 1.373 . S
C1937 C1939 1.389 . S
C1938 H1911 0.950 . S
C1938 C1924 1.377 . S
C1938 C1937 1.373 . S
C1939 C1923 1.377 . S
C1939 C1937 1.389 . S
C1939 C1940 1.524 . S
C1940 C1939 1.524 . S
C1940 C1941 1.397 . S
C1940 C1945 1.363 . S
C1941 H1912 0.950 . S
C1941 C1940 1.397 . S
C1941 C1942 1.334 . S
C1942 H1913 0.950 . S
C1942 C1941 1.334 . S
C1942 C1943 1.287 . S
C1943 C1942 1.287 . S
C1943 C1944 1.524 . S
C1943 H1946 0.999 . S
C1944 H1914 0.950 . S
C1944 C1943 1.524 . S
C1944 C1945 1.415 . S
C1945 H1915 0.950 . S
C1945 C1940 1.363 . S
C1945 C1944 1.415 . S
H1946 C1943 0.999 . S
H1947 C1928 0.913 . S
H1948 C1966 0.951 . S
H1949 C1968 0.951 . S
H1950 C1970 0.950 . S
H1951 C1971 0.950 . S
H1952 C1973 0.950 . S
H1953 C1976 0.950 . S
H1954 C1977 0.950 . S
H1955 C1979 0.950 . S
H1956 C1980 0.950 . S
H1957 C1981 0.951 . S
H1958 C1983 0.951 . S
H1959 C1985 0.950 . S
H1960 C1986 0.950 . S
H1961 C1988 0.950 . S
H1962 C1991 0.950 . S
H1963 C1992 0.950 . S
H1964 C1994 0.950 . S
H1965 C1995 0.950 . S
C1966 H1948 0.951 . S
C1966 C1967 1.366 . S
C1966 C1968 1.388 . S
C1967 C1966 1.366 . S
C1967 C1971 1.385 . S
C1968 H1949 0.951 . S
C1968 C1966 1.388 . S
C1968 C1969 1.366 . S
C1969 C1968 1.366 . S
C1969 C1970 1.414 . S
C1969 C1972 1.499 . S
C1970 H1950 0.950 . S
C1970 C1969 1.414 . S
C1970 C1971 1.374 . S
C1971 H1951 0.950 . S
C1971 C1967 1.385 . S
C1971 C1970 1.374 . S
C1972 C1969 1.499 . S
C1972 C1973 1.373 . S
C1972 C1974 1.389 . S
C1973 H1952 0.950 . S
C1973 C1972 1.373 . S
C1973 C1989 1.377 . S
C1974 C1972 1.389 . S
C1974 C1975 1.524 . S
C1974 C1988 1.377 . S
C1975 C1974 1.524 . S
C1975 C1976 1.397 . S
C1975 C1980 1.363 . S
C1976 H1953 0.950 . S
C1976 C1975 1.397 . S
C1976 C1977 1.334 . S
C1977 H1954 0.950 . S
C1977 C1976 1.334 . S
C1977 C1978 1.287 . S
C1978 C1977 1.287 . S
C1978 C1979 1.524 . S
C1978 H1997 0.913 . S
C1979 H1955 0.950 . S
C1979 C1978 1.524 . S
C1979 C1980 1.415 . S
C1980 H1956 0.950 . S
C1980 C1975 1.363 . S
C1980 C1979 1.415 . S
C1981 H1957 0.951 . S
C1981 C1982 1.366 . S
C1981 C1983 1.388 . S
C1982 C1981 1.366 . S
C1982 C1986 1.385 . S
C1983 H1958 0.951 . S
C1983 C1981 1.388 . S
C1983 C1984 1.366 . S
C1984 C1983 1.366 . S
C1984 C1985 1.414 . S
C1984 C1987 1.499 . S
C1985 H1959 0.950 . S
C1985 C1984 1.414 . S
C1985 C1986 1.374 . S
C1986 H1960 0.950 . S
C1986 C1982 1.385 . S
C1986 C1985 1.374 . S
C1987 C1984 1.499 . S
C1987 C1988 1.373 . S
C1987 C1989 1.389 . S
C1988 H1961 0.950 . S
C1988 C1974 1.377 . S
C1988 C1987 1.373 . S
C1989 C1973 1.377 . S
C1989 C1987 1.389 . S
C1989 C1990 1.524 . S
C1990 C1989 1.524 . S
C1990 C1991 1.397 . S
C1990 C1995 1.363 . S
C1991 H1962 0.950 . S
C1991 C1990 1.397 . S
C1991 C1992 1.334 . S
C1992 H1963 0.950 . S
C1992 C1991 1.334 . S
C1992 C1993 1.287 . S
C1993 C1992 1.287 . S
C1993 C1994 1.524 . S
C1993 H1996 0.999 . S
C1994 H1964 0.950 . S
C1994 C1993 1.524 . S
C1994 C1995 1.415 . S
C1995 H1965 0.950 . S
C1995 C1990 1.363 . S
C1995 C1994 1.415 . S
H1996 C1993 0.999 . S
H1997 C1978 0.913 . S
H1998 C2016 0.951 . S
H1999 C2018 0.951 . S
H2000 C2020 0.950 . S
H2001 C2021 0.950 . S
H2002 C2023 0.950 . S
H2003 C2026 0.950 . S
H2004 C2027 0.950 . S
H2005 C2029 0.950 . S
H2006 C2030 0.950 . S
H2007 C2031 0.951 . S
H2008 C2033 0.951 . S
H2009 C2035 0.950 . S
H2010 C2036 0.950 . S
H2011 C2038 0.950 . S
H2012 C2041 0.950 . S
H2013 C2042 0.950 . S
H2014 C2044 0.950 . S
H2015 C2045 0.950 . S
C2016 H1998 0.951 . S
C2016 C2017 1.366 . S
C2016 C2018 1.388 . S
C2017 C2016 1.366 . S
C2017 C2021 1.385 . S
C2018 H1999 0.951 . S
C2018 C2016 1.388 . S
C2018 C2019 1.366 . S
C2019 C2018 1.366 . S
C2019 C2020 1.414 . S
C2019 C2022 1.499 . S
C2020 H2000 0.950 . S
C2020 C2019 1.414 . S
C2020 C2021 1.374 . S
C2021 H2001 0.950 . S
C2021 C2017 1.385 . S
C2021 C2020 1.374 . S
C2022 C2019 1.499 . S
C2022 C2023 1.373 . S
C2022 C2024 1.389 . S
C2023 H2002 0.950 . S
C2023 C2022 1.373 . S
C2023 C2039 1.377 . S
C2024 C2022 1.389 . S
C2024 C2025 1.524 . S
C2024 C2038 1.377 . S
C2025 C2024 1.524 . S
C2025 C2026 1.397 . S
C2025 C2030 1.363 . S
C2026 H2003 0.950 . S
C2026 C2025 1.397 . S
C2026 C2027 1.334 . S
C2027 H2004 0.950 . S
C2027 C2026 1.334 . S
C2027 C2028 1.287 . S
C2028 C2027 1.287 . S
C2028 C2029 1.524 . S
C2028 H2047 0.913 . S
C2029 H2005 0.950 . S
C2029 C2028 1.524 . S
C2029 C2030 1.415 . S
C2030 H2006 0.950 . S
C2030 C2025 1.363 . S
C2030 C2029 1.415 . S
C2031 H2007 0.951 . S
C2031 C2032 1.366 . S
C2031 C2033 1.388 . S
C2032 C2031 1.366 . S
C2032 C2036 1.385 . S
C2033 H2008 0.951 . S
C2033 C2031 1.388 . S
C2033 C2034 1.366 . S
C2034 C2033 1.366 . S
C2034 C2035 1.414 . S
C2034 C2037 1.499 . S
C2035 H2009 0.950 . S
C2035 C2034 1.414 . S
C2035 C2036 1.374 . S
C2036 H2010 0.950 . S
C2036 C2032 1.385 . S
C2036 C2035 1.374 . S
C2037 C2034 1.499 . S
C2037 C2038 1.373 . S
C2037 C2039 1.389 . S
C2038 H2011 0.950 . S
C2038 C2024 1.377 . S
C2038 C2037 1.373 . S
C2039 C2023 1.377 . S
C2039 C2037 1.389 . S
C2039 C2040 1.524 . S
C2040 C2039 1.524 . S
C2040 C2041 1.397 . S
C2040 C2045 1.363 . S
C2041 H2012 0.950 . S
C2041 C2040 1.397 . S
C2041 C2042 1.334 . S
C2042 H2013 0.950 . S
C2042 C2041 1.334 . S
C2042 C2043 1.287 . S
C2043 C2042 1.287 . S
C2043 C2044 1.524 . S
C2043 H2046 0.999 . S
C2044 H2014 0.950 . S
C2044 C2043 1.524 . S
C2044 C2045 1.415 . S
C2045 H2015 0.950 . S
C2045 C2040 1.363 . S
C2045 C2044 1.415 . S
H2046 C2043 0.999 . S
H2047 C2028 0.913 . S
H2048 C2066 0.951 . S
H2049 C2068 0.951 . S
H2050 C2070 0.950 . S
H2051 C2071 0.950 . S
H2052 C2073 0.950 . S
H2053 C2076 0.950 . S
H2054 C2077 0.950 . S
H2055 C2079 0.950 . S
H2056 C2080 0.950 . S
H2057 C2081 0.951 . S
H2058 C2083 0.951 . S
H2059 C2085 0.950 . S
H2060 C2086 0.950 . S
H2061 C2088 0.950 . S
H2062 C2091 0.950 . S
H2063 C2092 0.950 . S
H2064 C2094 0.950 . S
H2065 C2095 0.950 . S
C2066 H2048 0.951 . S
C2066 C2067 1.366 . S
C2066 C2068 1.388 . S
C2067 C2066 1.366 . S
C2067 C2071 1.385 . S
C2068 H2049 0.951 . S
C2068 C2066 1.388 . S
C2068 C2069 1.366 . S
C2069 C2068 1.366 . S
C2069 C2070 1.414 . S
C2069 C2072 1.499 . S
C2070 H2050 0.950 . S
C2070 C2069 1.414 . S
C2070 C2071 1.374 . S
C2071 H2051 0.950 . S
C2071 C2067 1.385 . S
C2071 C2070 1.374 . S
C2072 C2069 1.499 . S
C2072 C2073 1.373 . S
C2072 C2074 1.389 . S
C2073 H2052 0.950 . S
C2073 C2072 1.373 . S
C2073 C2089 1.377 . S
C2074 C2072 1.389 . S
C2074 C2075 1.524 . S
C2074 C2088 1.377 . S
C2075 C2074 1.524 . S
C2075 C2076 1.397 . S
C2075 C2080 1.363 . S
C2076 H2053 0.950 . S
C2076 C2075 1.397 . S
C2076 C2077 1.334 . S
C2077 H2054 0.950 . S
C2077 C2076 1.334 . S
C2077 C2078 1.287 . S
C2078 C2077 1.287 . S
C2078 C2079 1.524 . S
C2078 H2097 0.913 . S
C2079 H2055 0.950 . S
C2079 C2078 1.524 . S
C2079 C2080 1.415 . S
C2080 H2056 0.950 . S
C2080 C2075 1.363 . S
C2080 C2079 1.415 . S
C2081 H2057 0.951 . S
C2081 C2082 1.366 . S
C2081 C2083 1.388 . S
C2082 C2081 1.366 . S
C2082 C2086 1.385 . S
C2083 H2058 0.951 . S
C2083 C2081 1.388 . S
C2083 C2084 1.366 . S
C2084 C2083 1.366 . S
C2084 C2085 1.414 . S
C2084 C2087 1.499 . S
C2085 H2059 0.950 . S
C2085 C2084 1.414 . S
C2085 C2086 1.374 . S
C2086 H2060 0.950 . S
C2086 C2082 1.385 . S
C2086 C2085 1.374 . S
C2087 C2084 1.499 . S
C2087 C2088 1.373 . S
C2087 C2089 1.389 . S
C2088 H2061 0.950 . S
C2088 C2074 1.377 . S
C2088 C2087 1.373 . S
C2089 C2073 1.377 . S
C2089 C2087 1.389 . S
C2089 C2090 1.524 . S
C2090 C2089 1.524 . S
C2090 C2091 1.397 . S
C2090 C2095 1.363 . S
C2091 H2062 0.950 . S
C2091 C2090 1.397 . S
C2091 C2092 1.334 . S
C2092 H2063 0.950 . S
C2092 C2091 1.334 . S
C2092 C2093 1.287 . S
C2093 C2092 1.287 . S
C2093 C2094 1.524 . S
C2093 H2096 0.999 . S
C2094 H2064 0.950 . S
C2094 C2093 1.524 . S
C2094 C2095 1.415 . S
C2095 H2065 0.950 . S
C2095 C2090 1.363 . S
C2095 C2094 1.415 . S
H2096 C2093 0.999 . S
H2097 C2078 0.913 . S
H2098 C2116 0.951 . S
H2099 C2118 0.951 . S
H2100 C2120 0.950 . S
H2101 C2121 0.950 . S
H2102 C2123 0.950 . S
H2103 C2126 0.950 . S
H2104 C2127 0.950 . S
H2105 C2129 0.950 . S
H2106 C2130 0.950 . S
H2107 C2131 0.951 1_655 S
H2108 C2133 0.951 . S
H2109 C2135 0.950 . S
H2110 C2136 0.950 1_655 S
H2111 C2138 0.950 . S
H2112 C2141 0.950 . S
H2113 C2142 0.950 1_655 S
H2114 C2144 0.950 . S
H2115 C2145 0.950 . S
C2116 H2098 0.951 . S
C2116 C2117 1.366 . S
C2116 C2118 1.388 . S
C2117 C2116 1.366 . S
C2117 C2121 1.385 . S
C2118 H2099 0.951 . S
C2118 C2116 1.388 . S
C2118 C2119 1.366 . S
C2119 C2118 1.366 . S
C2119 C2120 1.414 . S
C2119 C2122 1.499 . S
C2120 H2100 0.950 . S
C2120 C2119 1.414 . S
C2120 C2121 1.374 . S
C2121 H2101 0.950 . S
C2121 C2117 1.385 . S
C2121 C2120 1.374 . S
C2122 C2119 1.499 . S
C2122 C2123 1.373 . S
C2122 C2124 1.389 . S
C2123 H2102 0.950 . S
C2123 C2122 1.373 . S
C2123 C2139 1.377 . S
C2124 C2122 1.389 . S
C2124 C2125 1.524 . S
C2124 C2138 1.377 . S
C2125 C2124 1.524 . S
C2125 C2126 1.397 . S
C2125 C2130 1.363 . S
C2126 H2103 0.950 . S
C2126 C2125 1.397 . S
C2126 C2127 1.334 . S
C2127 H2104 0.950 . S
C2127 C2126 1.334 . S
C2127 C2128 1.287 . S
C2128 C2127 1.287 . S
C2128 C2129 1.524 . S
C2128 H2147 0.913 . S
C2129 H2105 0.950 . S
C2129 C2128 1.524 . S
C2129 C2130 1.415 . S
C2130 H2106 0.950 . S
C2130 C2125 1.363 . S
C2130 C2129 1.415 . S
C2131 H2107 0.951 1_455 S
C2131 C2132 1.366 1_455 S
C2131 C2133 1.388 . S
C2132 C2131 1.366 1_655 S
C2132 C2136 1.385 1_655 S
C2133 H2108 0.951 . S
C2133 C2131 1.388 . S
C2133 C2134 1.366 . S
C2134 C2133 1.366 . S
C2134 C2135 1.414 . S
C2134 C2137 1.499 . S
C2135 H2109 0.950 . S
C2135 C2134 1.414 . S
C2135 C2136 1.374 . S
C2136 H2110 0.950 1_455 S
C2136 C2132 1.385 1_455 S
C2136 C2135 1.374 . S
C2137 C2134 1.499 . S
C2137 C2138 1.373 . S
C2137 C2139 1.389 . S
C2138 H2111 0.950 . S
C2138 C2124 1.377 . S
C2138 C2137 1.373 . S
C2139 C2123 1.377 . S
C2139 C2137 1.389 . S
C2139 C2140 1.524 . S
C2140 C2139 1.524 . S
C2140 C2141 1.397 . S
C2140 C2145 1.363 . S
C2141 H2112 0.950 . S
C2141 C2140 1.397 . S
C2141 C2142 1.334 . S
C2142 H2113 0.950 1_455 S
C2142 C2141 1.334 . S
C2142 C2143 1.287 . S
C2143 C2142 1.287 . S
C2143 C2144 1.524 . S
C2143 H2146 0.999 1_455 S
C2144 H2114 0.950 . S
C2144 C2143 1.524 . S
C2144 C2145 1.415 . S
C2145 H2115 0.950 . S
C2145 C2140 1.363 . S
C2145 C2144 1.415 . S
H2146 C2143 0.999 1_655 S
H2147 C2128 0.913 . S
H2148 C2166 0.951 . S
H2149 C2168 0.951 . S
H2150 C2170 0.950 . S
H2151 C2171 0.950 . S
H2152 C2173 0.950 . S
H2153 C2176 0.950 . S
H2154 C2177 0.950 . S
H2155 C2179 0.950 . S
H2156 C2180 0.950 . S
H2157 C2181 0.951 . S
H2158 C2183 0.951 . S
H2159 C2185 0.950 . S
H2160 C2186 0.950 . S
H2161 C2188 0.950 . S
H2162 C2191 0.950 . S
H2163 C2192 0.950 . S
H2164 C2194 0.950 . S
H2165 C2195 0.950 . S
C2166 H2148 0.951 . S
C2166 C2167 1.366 . S
C2166 C2168 1.388 . S
C2167 C2166 1.366 . S
C2167 C2171 1.385 . S
C2168 H2149 0.951 . S
C2168 C2166 1.388 . S
C2168 C2169 1.366 . S
C2169 C2168 1.366 . S
C2169 C2170 1.414 . S
C2169 C2172 1.499 . S
C2170 H2150 0.950 . S
C2170 C2169 1.414 . S
C2170 C2171 1.374 . S
C2171 H2151 0.950 . S
C2171 C2167 1.385 . S
C2171 C2170 1.374 . S
C2172 C2169 1.499 . S
C2172 C2173 1.373 . S
C2172 C2174 1.389 . S
C2173 H2152 0.950 . S
C2173 C2172 1.373 . S
C2173 C2189 1.377 . S
C2174 C2172 1.389 . S
C2174 C2175 1.524 . S
C2174 C2188 1.377 . S
C2175 C2174 1.524 . S
C2175 C2176 1.397 . S
C2175 C2180 1.363 . S
C2176 H2153 0.950 . S
C2176 C2175 1.397 . S
C2176 C2177 1.334 . S
C2177 H2154 0.950 . S
C2177 C2176 1.334 . S
C2177 C2178 1.287 . S
C2178 C2177 1.287 . S
C2178 C2179 1.524 . S
C2178 H2197 0.913 . S
C2179 H2155 0.950 . S
C2179 C2178 1.524 . S
C2179 C2180 1.415 . S
C2180 H2156 0.950 . S
C2180 C2175 1.363 . S
C2180 C2179 1.415 . S
C2181 H2157 0.951 . S
C2181 C2182 1.366 . S
C2181 C2183 1.388 . S
C2182 C2181 1.366 . S
C2182 C2186 1.385 . S
C2183 H2158 0.951 . S
C2183 C2181 1.388 . S
C2183 C2184 1.366 . S
C2184 C2183 1.366 . S
C2184 C2185 1.414 . S
C2184 C2187 1.499 . S
C2185 H2159 0.950 . S
C2185 C2184 1.414 . S
C2185 C2186 1.374 . S
C2186 H2160 0.950 . S
C2186 C2182 1.385 . S
C2186 C2185 1.374 . S
C2187 C2184 1.499 . S
C2187 C2188 1.373 . S
C2187 C2189 1.389 . S
C2188 H2161 0.950 . S
C2188 C2174 1.377 . S
C2188 C2187 1.373 . S
C2189 C2173 1.377 . S
C2189 C2187 1.389 . S
C2189 C2190 1.524 . S
C2190 C2189 1.524 . S
C2190 C2191 1.397 . S
C2190 C2195 1.363 . S
C2191 H2162 0.950 . S
C2191 C2190 1.397 . S
C2191 C2192 1.334 . S
C2192 H2163 0.950 . S
C2192 C2191 1.334 . S
C2192 C2193 1.287 . S
C2193 C2192 1.287 . S
C2193 C2194 1.524 . S
C2193 H2196 0.999 . S
C2194 H2164 0.950 . S
C2194 C2193 1.524 . S
C2194 C2195 1.415 . S
C2195 H2165 0.950 . S
C2195 C2190 1.363 . S
C2195 C2194 1.415 . S
H2196 C2193 0.999 . S
H2197 C2178 0.913 . S
H2198 C2216 0.951 . S
H2199 C2218 0.951 . S
H2200 C2220 0.950 . S
H2201 C2221 0.950 . S
H2202 C2223 0.950 . S
H2203 C2226 0.950 . S
H2204 C2227 0.950 . S
H2205 C2229 0.950 . S
H2206 C2230 0.950 . S
H2207 C2231 0.951 . S
H2208 C2233 0.951 . S
H2209 C2235 0.950 . S
H2210 C2236 0.950 . S
H2211 C2238 0.950 . S
H2212 C2241 0.950 . S
H2213 C2242 0.950 . S
H2214 C2244 0.950 . S
H2215 C2245 0.950 . S
C2216 H2198 0.951 . S
C2216 C2217 1.366 . S
C2216 C2218 1.388 . S
C2217 C2216 1.366 . S
C2217 C2221 1.385 . S
C2218 H2199 0.951 . S
C2218 C2216 1.388 . S
C2218 C2219 1.366 . S
C2219 C2218 1.366 . S
C2219 C2220 1.414 . S
C2219 C2222 1.499 . S
C2220 H2200 0.950 . S
C2220 C2219 1.414 . S
C2220 C2221 1.374 . S
C2221 H2201 0.950 . S
C2221 C2217 1.385 . S
C2221 C2220 1.374 . S
C2222 C2219 1.499 . S
C2222 C2223 1.373 . S
C2222 C2224 1.389 . S
C2223 H2202 0.950 . S
C2223 C2222 1.373 . S
C2223 C2239 1.377 . S
C2224 C2222 1.389 . S
C2224 C2225 1.524 . S
C2224 C2238 1.377 . S
C2225 C2224 1.524 . S
C2225 C2226 1.397 . S
C2225 C2230 1.363 . S
C2226 H2203 0.950 . S
C2226 C2225 1.397 . S
C2226 C2227 1.334 . S
C2227 H2204 0.950 . S
C2227 C2226 1.334 . S
C2227 C2228 1.287 . S
C2228 C2227 1.287 . S
C2228 C2229 1.524 . S
C2228 H2247 0.913 . S
C2229 H2205 0.950 . S
C2229 C2228 1.524 . S
C2229 C2230 1.415 . S
C2230 H2206 0.950 . S
C2230 C2225 1.363 . S
C2230 C2229 1.415 . S
C2231 H2207 0.951 . S
C2231 C2232 1.366 . S
C2231 C2233 1.388 . S
C2232 C2231 1.366 . S
C2232 C2236 1.385 . S
C2233 H2208 0.951 . S
C2233 C2231 1.388 . S
C2233 C2234 1.366 . S
C2234 C2233 1.366 . S
C2234 C2235 1.414 . S
C2234 C2237 1.499 . S
C2235 H2209 0.950 . S
C2235 C2234 1.414 . S
C2235 C2236 1.374 . S
C2236 H2210 0.950 . S
C2236 C2232 1.385 . S
C2236 C2235 1.374 . S
C2237 C2234 1.499 . S
C2237 C2238 1.373 . S
C2237 C2239 1.389 . S
C2238 H2211 0.950 . S
C2238 C2224 1.377 . S
C2238 C2237 1.373 . S
C2239 C2223 1.377 . S
C2239 C2237 1.389 . S
C2239 C2240 1.524 . S
C2240 C2239 1.524 . S
C2240 C2241 1.397 . S
C2240 C2245 1.363 . S
C2241 H2212 0.950 . S
C2241 C2240 1.397 . S
C2241 C2242 1.334 . S
C2242 H2213 0.950 . S
C2242 C2241 1.334 . S
C2242 C2243 1.287 . S
C2243 C2242 1.287 . S
C2243 C2244 1.524 . S
C2243 H2246 0.999 . S
C2244 H2214 0.950 . S
C2244 C2243 1.524 . S
C2244 C2245 1.415 . S
C2245 H2215 0.950 . S
C2245 C2240 1.363 . S
C2245 C2244 1.415 . S
H2246 C2243 0.999 . S
H2247 C2228 0.913 . S
H2248 C2266 0.951 . S
H2249 C2268 0.951 . S
H2250 C2270 0.950 . S
H2251 C2271 0.950 . S
H2252 C2273 0.950 . S
H2253 C2276 0.950 . S
H2254 C2277 0.950 . S
H2255 C2279 0.950 . S
H2256 C2280 0.950 . S
H2257 C2281 0.951 . S
H2258 C2283 0.951 . S
H2259 C2285 0.950 . S
H2260 C2286 0.950 . S
H2261 C2288 0.950 . S
H2262 C2291 0.950 . S
H2263 C2292 0.950 . S
H2264 C2294 0.950 . S
H2265 C2295 0.950 . S
C2266 H2248 0.951 . S
C2266 C2267 1.366 . S
C2266 C2268 1.388 . S
C2267 C2266 1.366 . S
C2267 C2271 1.385 . S
C2268 H2249 0.951 . S
C2268 C2266 1.388 . S
C2268 C2269 1.366 . S
C2269 C2268 1.366 . S
C2269 C2270 1.414 . S
C2269 C2272 1.499 . S
C2270 H2250 0.950 . S
C2270 C2269 1.414 . S
C2270 C2271 1.374 . S
C2271 H2251 0.950 . S
C2271 C2267 1.385 . S
C2271 C2270 1.374 . S
C2272 C2269 1.499 . S
C2272 C2273 1.373 . S
C2272 C2274 1.389 . S
C2273 H2252 0.950 . S
C2273 C2272 1.373 . S
C2273 C2289 1.377 . S
C2274 C2272 1.389 . S
C2274 C2275 1.524 . S
C2274 C2288 1.377 . S
C2275 C2274 1.524 . S
C2275 C2276 1.397 . S
C2275 C2280 1.363 . S
C2276 H2253 0.950 . S
C2276 C2275 1.397 . S
C2276 C2277 1.334 . S
C2277 H2254 0.950 . S
C2277 C2276 1.334 . S
C2277 C2278 1.287 . S
C2278 C2277 1.287 . S
C2278 C2279 1.524 . S
C2278 H2297 0.913 . S
C2279 H2255 0.950 . S
C2279 C2278 1.524 . S
C2279 C2280 1.415 . S
C2280 H2256 0.950 . S
C2280 C2275 1.363 . S
C2280 C2279 1.415 . S
C2281 H2257 0.951 . S
C2281 C2282 1.366 . S
C2281 C2283 1.388 . S
C2282 C2281 1.366 . S
C2282 C2286 1.385 . S
C2283 H2258 0.951 . S
C2283 C2281 1.388 . S
C2283 C2284 1.366 . S
C2284 C2283 1.366 . S
C2284 C2285 1.414 . S
C2284 C2287 1.499 . S
C2285 H2259 0.950 . S
C2285 C2284 1.414 . S
C2285 C2286 1.374 . S
C2286 H2260 0.950 . S
C2286 C2282 1.385 . S
C2286 C2285 1.374 . S
C2287 C2284 1.499 . S
C2287 C2288 1.373 . S
C2287 C2289 1.389 . S
C2288 H2261 0.950 . S
C2288 C2274 1.377 . S
C2288 C2287 1.373 . S
C2289 C2273 1.377 . S
C2289 C2287 1.389 . S
C2289 C2290 1.524 . S
C2290 C2289 1.524 . S
C2290 C2291 1.397 . S
C2290 C2295 1.363 . S
C2291 H2262 0.950 . S
C2291 C2290 1.397 . S
C2291 C2292 1.334 . S
C2292 H2263 0.950 . S
C2292 C2291 1.334 . S
C2292 C2293 1.287 . S
C2293 C2292 1.287 . S
C2293 C2294 1.524 . S
C2293 H2296 0.999 . S
C2294 H2264 0.950 . S
C2294 C2293 1.524 . S
C2294 C2295 1.415 . S
C2295 H2265 0.950 . S
C2295 C2290 1.363 . S
C2295 C2294 1.415 . S
H2296 C2293 0.999 . S
H2297 C2278 0.913 . S
H2298 C2316 0.951 . S
H2299 C2318 0.951 . S
H2300 C2320 0.950 . S
H2301 C2321 0.950 . S
H2302 C2323 0.950 . S
H2303 C2326 0.950 . S
H2304 C2327 0.950 . S
H2305 C2329 0.950 . S
H2306 C2330 0.950 . S
H2307 C2331 0.951 . S
H2308 C2333 0.951 . S
H2309 C2335 0.950 . S
H2310 C2336 0.950 . S
H2311 C2338 0.950 . S
H2312 C2341 0.950 . S
H2313 C2342 0.950 . S
H2314 C2344 0.950 . S
H2315 C2345 0.950 . S
C2316 H2298 0.951 . S
C2316 C2317 1.366 . S
C2316 C2318 1.388 . S
C2317 C2316 1.366 . S
C2317 C2321 1.385 . S
C2318 H2299 0.951 . S
C2318 C2316 1.388 . S
C2318 C2319 1.366 . S
C2319 C2318 1.366 . S
C2319 C2320 1.414 . S
C2319 C2322 1.499 . S
C2320 H2300 0.950 . S
C2320 C2319 1.414 . S
C2320 C2321 1.374 . S
C2321 H2301 0.950 . S
C2321 C2317 1.385 . S
C2321 C2320 1.374 . S
C2322 C2319 1.499 . S
C2322 C2323 1.373 . S
C2322 C2324 1.389 . S
C2323 H2302 0.950 . S
C2323 C2322 1.373 . S
C2323 C2339 1.377 . S
C2324 C2322 1.389 . S
C2324 C2325 1.524 . S
C2324 C2338 1.377 . S
C2325 C2324 1.524 . S
C2325 C2326 1.397 . S
C2325 C2330 1.363 . S
C2326 H2303 0.950 . S
C2326 C2325 1.397 . S
C2326 C2327 1.334 . S
C2327 H2304 0.950 . S
C2327 C2326 1.334 . S
C2327 C2328 1.287 . S
C2328 C2327 1.287 . S
C2328 C2329 1.524 . S
C2328 H2347 0.913 . S
C2329 H2305 0.950 . S
C2329 C2328 1.524 . S
C2329 C2330 1.415 . S
C2330 H2306 0.950 . S
C2330 C2325 1.363 . S
C2330 C2329 1.415 . S
C2331 H2307 0.951 . S
C2331 C2332 1.366 . S
C2331 C2333 1.388 . S
C2332 C2331 1.366 . S
C2332 C2336 1.385 . S
C2333 H2308 0.951 . S
C2333 C2331 1.388 . S
C2333 C2334 1.366 . S
C2334 C2333 1.366 . S
C2334 C2335 1.414 . S
C2334 C2337 1.499 . S
C2335 H2309 0.950 . S
C2335 C2334 1.414 . S
C2335 C2336 1.374 . S
C2336 H2310 0.950 . S
C2336 C2332 1.385 . S
C2336 C2335 1.374 . S
C2337 C2334 1.499 . S
C2337 C2338 1.373 . S
C2337 C2339 1.389 . S
C2338 H2311 0.950 . S
C2338 C2324 1.377 . S
C2338 C2337 1.373 . S
C2339 C2323 1.377 . S
C2339 C2337 1.389 . S
C2339 C2340 1.524 . S
C2340 C2339 1.524 . S
C2340 C2341 1.397 . S
C2340 C2345 1.363 . S
C2341 H2312 0.950 . S
C2341 C2340 1.397 . S
C2341 C2342 1.334 . S
C2342 H2313 0.950 . S
C2342 C2341 1.334 . S
C2342 C2343 1.287 . S
C2343 C2342 1.287 . S
C2343 C2344 1.524 . S
C2343 H2346 0.999 . S
C2344 H2314 0.950 . S
C2344 C2343 1.524 . S
C2344 C2345 1.415 . S
C2345 H2315 0.950 . S
C2345 C2340 1.363 . S
C2345 C2344 1.415 . S
H2346 C2343 0.999 . S
H2347 C2328 0.913 . S
H2348 C2366 0.951 . S
H2349 C2368 0.951 . S
H2350 C2370 0.950 . S
H2351 C2371 0.950 . S
H2352 C2373 0.950 . S
H2353 C2376 0.950 . S
H2354 C2377 0.950 . S
H2355 C2379 0.950 . S
H2356 C2380 0.950 . S
H2357 C2381 0.951 . S
H2358 C2383 0.951 . S
H2359 C2385 0.950 . S
H2360 C2386 0.950 . S
H2361 C2388 0.950 . S
H2362 C2391 0.950 . S
H2363 C2392 0.950 . S
H2364 C2394 0.950 . S
H2365 C2395 0.950 . S
C2366 H2348 0.951 . S
C2366 C2367 1.366 . S
C2366 C2368 1.388 . S
C2367 C2366 1.366 . S
C2367 C2371 1.385 . S
C2368 H2349 0.951 . S
C2368 C2366 1.388 . S
C2368 C2369 1.366 . S
C2369 C2368 1.366 . S
C2369 C2370 1.414 . S
C2369 C2372 1.499 . S
C2370 H2350 0.950 . S
C2370 C2369 1.414 . S
C2370 C2371 1.374 . S
C2371 H2351 0.950 . S
C2371 C2367 1.385 . S
C2371 C2370 1.374 . S
C2372 C2369 1.499 . S
C2372 C2373 1.373 . S
C2372 C2374 1.389 . S
C2373 H2352 0.950 . S
C2373 C2372 1.373 . S
C2373 C2389 1.377 . S
C2374 C2372 1.389 . S
C2374 C2375 1.524 . S
C2374 C2388 1.377 . S
C2375 C2374 1.524 . S
C2375 C2376 1.397 . S
C2375 C2380 1.363 . S
C2376 H2353 0.950 . S
C2376 C2375 1.397 . S
C2376 C2377 1.334 . S
C2377 H2354 0.950 . S
C2377 C2376 1.334 . S
C2377 C2378 1.287 . S
C2378 C2377 1.287 . S
C2378 C2379 1.524 . S
C2378 H2397 0.913 . S
C2379 H2355 0.950 . S
C2379 C2378 1.524 . S
C2379 C2380 1.415 . S
C2380 H2356 0.950 . S
C2380 C2375 1.363 . S
C2380 C2379 1.415 . S
C2381 H2357 0.951 . S
C2381 C2382 1.366 . S
C2381 C2383 1.388 . S
C2382 C2381 1.366 . S
C2382 C2386 1.385 . S
C2383 H2358 0.951 . S
C2383 C2381 1.388 . S
C2383 C2384 1.366 . S
C2384 C2383 1.366 . S
C2384 C2385 1.414 . S
C2384 C2387 1.499 . S
C2385 H2359 0.950 . S
C2385 C2384 1.414 . S
C2385 C2386 1.374 . S
C2386 H2360 0.950 . S
C2386 C2382 1.385 . S
C2386 C2385 1.374 . S
C2387 C2384 1.499 . S
C2387 C2388 1.373 . S
C2387 C2389 1.389 . S
C2388 H2361 0.950 . S
C2388 C2374 1.377 . S
C2388 C2387 1.373 . S
C2389 C2373 1.377 . S
C2389 C2387 1.389 . S
C2389 C2390 1.524 . S
C2390 C2389 1.524 . S
C2390 C2391 1.397 . S
C2390 C2395 1.363 . S
C2391 H2362 0.950 . S
C2391 C2390 1.397 . S
C2391 C2392 1.334 . S
C2392 H2363 0.950 . S
C2392 C2391 1.334 . S
C2392 C2393 1.287 . S
C2393 C2392 1.287 . S
C2393 C2394 1.524 . S
C2393 H2396 0.999 . S
C2394 H2364 0.950 . S
C2394 C2393 1.524 . S
C2394 C2395 1.415 . S
C2395 H2365 0.950 . S
C2395 C2390 1.363 . S
C2395 C2394 1.415 . S
H2396 C2393 0.999 . S
H2397 C2378 0.913 . S
H2398 C2416 0.951 . S
H2399 C2418 0.951 . S
H2400 C2420 0.950 . S
H2401 C2421 0.950 . S
H2402 C2423 0.950 . S
H2403 C2426 0.950 . S
H2404 C2427 0.950 . S
H2405 C2429 0.950 . S
H2406 C2430 0.950 . S
H2407 C2431 0.951 . S
H2408 C2433 0.951 . S
H2409 C2435 0.950 . S
H2410 C2436 0.950 . S
H2411 C2438 0.950 . S
H2412 C2441 0.950 . S
H2413 C2442 0.950 . S
H2414 C2444 0.950 . S
H2415 C2445 0.950 . S
C2416 H2398 0.951 . S
C2416 C2417 1.366 . S
C2416 C2418 1.388 . S
C2417 C2416 1.366 . S
C2417 C2421 1.385 . S
C2418 H2399 0.951 . S
C2418 C2416 1.388 . S
C2418 C2419 1.366 . S
C2419 C2418 1.366 . S
C2419 C2420 1.414 . S
C2419 C2422 1.499 . S
C2420 H2400 0.950 . S
C2420 C2419 1.414 . S
C2420 C2421 1.374 . S
C2421 H2401 0.950 . S
C2421 C2417 1.385 . S
C2421 C2420 1.374 . S
C2422 C2419 1.499 . S
C2422 C2423 1.373 . S
C2422 C2424 1.389 . S
C2423 H2402 0.950 . S
C2423 C2422 1.373 . S
C2423 C2439 1.377 . S
C2424 C2422 1.389 . S
C2424 C2425 1.524 . S
C2424 C2438 1.377 . S
C2425 C2424 1.524 . S
C2425 C2426 1.397 . S
C2425 C2430 1.363 . S
C2426 H2403 0.950 . S
C2426 C2425 1.397 . S
C2426 C2427 1.334 . S
C2427 H2404 0.950 . S
C2427 C2426 1.334 . S
C2427 C2428 1.287 . S
C2428 C2427 1.287 . S
C2428 C2429 1.524 . S
C2428 H2447 0.913 . S
C2429 H2405 0.950 . S
C2429 C2428 1.524 . S
C2429 C2430 1.415 . S
C2430 H2406 0.950 . S
C2430 C2425 1.363 . S
C2430 C2429 1.415 . S
C2431 H2407 0.951 . S
C2431 C2432 1.366 1_455 S
C2431 C2433 1.388 . S
C2432 C2431 1.366 1_655 S
C2432 C2436 1.385 . S
C2433 H2408 0.951 . S
C2433 C2431 1.388 . S
C2433 C2434 1.366 . S
C2434 C2433 1.366 . S
C2434 C2435 1.414 . S
C2434 C2437 1.499 . S
C2435 H2409 0.950 . S
C2435 C2434 1.414 . S
C2435 C2436 1.374 1_455 S
C2436 H2410 0.950 . S
C2436 C2432 1.385 . S
C2436 C2435 1.374 1_655 S
C2437 C2434 1.499 . S
C2437 C2438 1.373 . S
C2437 C2439 1.389 . S
C2438 H2411 0.950 . S
C2438 C2424 1.377 . S
C2438 C2437 1.373 . S
C2439 C2423 1.377 . S
C2439 C2437 1.389 . S
C2439 C2440 1.524 . S
C2440 C2439 1.524 . S
C2440 C2441 1.397 . S
C2440 C2445 1.363 . S
C2441 H2412 0.950 . S
C2441 C2440 1.397 . S
C2441 C2442 1.334 . S
C2442 H2413 0.950 . S
C2442 C2441 1.334 . S
C2442 C2443 1.287 . S
C2443 C2442 1.287 . S
C2443 C2444 1.524 . S
C2443 H2446 0.999 . S
C2444 H2414 0.950 . S
C2444 C2443 1.524 . S
C2444 C2445 1.415 . S
C2445 H2415 0.950 . S
C2445 C2440 1.363 . S
C2445 C2444 1.415 . S
H2446 C2443 0.999 . S
H2447 C2428 0.913 . S
H2448 C2466 0.951 . S
H2449 C2468 0.951 . S
H2450 C2470 0.950 . S
H2451 C2471 0.950 . S
H2452 C2473 0.950 . S
H2453 C2476 0.950 . S
H2454 C2477 0.950 . S
H2455 C2479 0.950 . S
H2456 C2480 0.950 . S
H2457 C2481 0.951 . S
H2458 C2483 0.951 . S
H2459 C2485 0.950 . S
H2460 C2486 0.950 . S
H2461 C2488 0.950 . S
H2462 C2491 0.950 . S
H2463 C2492 0.950 . S
H2464 C2494 0.950 . S
H2465 C2495 0.950 . S
C2466 H2448 0.951 . S
C2466 C2467 1.366 . S
C2466 C2468 1.388 . S
C2467 C2466 1.366 . S
C2467 C2471 1.385 . S
C2468 H2449 0.951 . S
C2468 C2466 1.388 . S
C2468 C2469 1.366 . S
C2469 C2468 1.366 . S
C2469 C2470 1.414 . S
C2469 C2472 1.499 . S
C2470 H2450 0.950 . S
C2470 C2469 1.414 . S
C2470 C2471 1.374 . S
C2471 H2451 0.950 . S
C2471 C2467 1.385 . S
C2471 C2470 1.374 . S
C2472 C2469 1.499 . S
C2472 C2473 1.373 . S
C2472 C2474 1.389 . S
C2473 H2452 0.950 . S
C2473 C2472 1.373 . S
C2473 C2489 1.377 . S
C2474 C2472 1.389 . S
C2474 C2475 1.524 . S
C2474 C2488 1.377 . S
C2475 C2474 1.524 . S
C2475 C2476 1.397 . S
C2475 C2480 1.363 . S
C2476 H2453 0.950 . S
C2476 C2475 1.397 . S
C2476 C2477 1.334 . S
C2477 H2454 0.950 . S
C2477 C2476 1.334 . S
C2477 C2478 1.287 . S
C2478 C2477 1.287 . S
C2478 C2479 1.524 . S
C2478 H2497 0.913 . S
C2479 H2455 0.950 . S
C2479 C2478 1.524 . S
C2479 C2480 1.415 . S
C2480 H2456 0.950 . S
C2480 C2475 1.363 . S
C2480 C2479 1.415 . S
C2481 H2457 0.951 . S
C2481 C2482 1.366 . S
C2481 C2483 1.388 . S
C2482 C2481 1.366 . S
C2482 C2486 1.385 . S
C2483 H2458 0.951 . S
C2483 C2481 1.388 . S
C2483 C2484 1.366 . S
C2484 C2483 1.366 . S
C2484 C2485 1.414 . S
C2484 C2487 1.499 . S
C2485 H2459 0.950 . S
C2485 C2484 1.414 . S
C2485 C2486 1.374 . S
C2486 H2460 0.950 . S
C2486 C2482 1.385 . S
C2486 C2485 1.374 . S
C2487 C2484 1.499 . S
C2487 C2488 1.373 . S
C2487 C2489 1.389 . S
C2488 H2461 0.950 . S
C2488 C2474 1.377 . S
C2488 C2487 1.373 . S
C2489 C2473 1.377 . S
C2489 C2487 1.389 . S
C2489 C2490 1.524 . S
C2490 C2489 1.524 . S
C2490 C2491 1.397 . S
C2490 C2495 1.363 . S
C2491 H2462 0.950 . S
C2491 C2490 1.397 . S
C2491 C2492 1.334 . S
C2492 H2463 0.950 . S
C2492 C2491 1.334 . S
C2492 C2493 1.287 . S
C2493 C2492 1.287 . S
C2493 C2494 1.524 . S
C2493 H2496 0.999 . S
C2494 H2464 0.950 . S
C2494 C2493 1.524 . S
C2494 C2495 1.415 . S
C2495 H2465 0.950 . S
C2495 C2490 1.363 . S
C2495 C2494 1.415 . S
H2496 C2493 0.999 . S
H2497 C2478 0.913 . S
H2498 C2516 0.951 . S
H2499 C2518 0.951 . S
H2500 C2520 0.950 . S
H2501 C2521 0.950 . S
H2502 C2523 0.950 . S
H2503 C2526 0.950 . S
H2504 C2527 0.950 . S
H2505 C2529 0.950 . S
H2506 C2530 0.950 . S
H2507 C2531 0.951 . S
H2508 C2533 0.951 . S
H2509 C2535 0.950 . S
H2510 C2536 0.950 . S
H2511 C2538 0.950 . S
H2512 C2541 0.950 . S
H2513 C2542 0.950 . S
H2514 C2544 0.950 . S
H2515 C2545 0.950 . S
C2516 H2498 0.951 . S
C2516 C2517 1.366 1_655 S
C2516 C2518 1.388 . S
C2517 C2516 1.366 1_455 S
C2517 C2521 1.385 . S
C2518 H2499 0.951 . S
C2518 C2516 1.388 . S
C2518 C2519 1.366 . S
C2519 C2518 1.366 . S
C2519 C2520 1.414 . S
C2519 C2522 1.499 . S
C2520 H2500 0.950 . S
C2520 C2519 1.414 . S
C2520 C2521 1.374 1_655 S
C2521 H2501 0.950 . S
C2521 C2517 1.385 . S
C2521 C2520 1.374 1_455 S
C2522 C2519 1.499 . S
C2522 C2523 1.373 . S
C2522 C2524 1.389 . S
C2523 H2502 0.950 . S
C2523 C2522 1.373 . S
C2523 C2539 1.377 . S
C2524 C2522 1.389 . S
C2524 C2525 1.524 . S
C2524 C2538 1.377 . S
C2525 C2524 1.524 . S
C2525 C2526 1.397 . S
C2525 C2530 1.363 . S
C2526 H2503 0.950 . S
C2526 C2525 1.397 . S
C2526 C2527 1.334 . S
C2527 H2504 0.950 . S
C2527 C2526 1.334 . S
C2527 C2528 1.287 . S
C2528 C2527 1.287 . S
C2528 C2529 1.524 . S
C2528 H2547 0.913 . S
C2529 H2505 0.950 . S
C2529 C2528 1.524 . S
C2529 C2530 1.415 . S
C2530 H2506 0.950 . S
C2530 C2525 1.363 . S
C2530 C2529 1.415 . S
C2531 H2507 0.951 . S
C2531 C2532 1.366 . S
C2531 C2533 1.388 . S
C2532 C2531 1.366 . S
C2532 C2536 1.385 . S
C2533 H2508 0.951 . S
C2533 C2531 1.388 . S
C2533 C2534 1.366 . S
C2534 C2533 1.366 . S
C2534 C2535 1.414 . S
C2534 C2537 1.499 . S
C2535 H2509 0.950 . S
C2535 C2534 1.414 . S
C2535 C2536 1.374 . S
C2536 H2510 0.950 . S
C2536 C2532 1.385 . S
C2536 C2535 1.374 . S
C2537 C2534 1.499 . S
C2537 C2538 1.373 . S
C2537 C2539 1.389 . S
C2538 H2511 0.950 . S
C2538 C2524 1.377 . S
C2538 C2537 1.373 . S
C2539 C2523 1.377 . S
C2539 C2537 1.389 . S
C2539 C2540 1.524 . S
C2540 C2539 1.524 . S
C2540 C2541 1.397 . S
C2540 C2545 1.363 . S
C2541 H2512 0.950 . S
C2541 C2540 1.397 . S
C2541 C2542 1.334 . S
C2542 H2513 0.950 . S
C2542 C2541 1.334 . S
C2542 C2543 1.287 . S
C2543 C2542 1.287 . S
C2543 C2544 1.524 . S
C2543 H2546 0.999 . S
C2544 H2514 0.950 . S
C2544 C2543 1.524 . S
C2544 C2545 1.415 . S
C2545 H2515 0.950 . S
C2545 C2540 1.363 . S
C2545 C2544 1.415 . S
H2546 C2543 0.999 . S
H2547 C2528 0.913 . S
H2548 C2566 0.951 . S
H2549 C2568 0.951 . S
H2550 C2570 0.950 . S
H2551 C2571 0.950 . S
H2552 C2573 0.950 . S
H2553 C2576 0.950 . S
H2554 C2577 0.950 . S
H2555 C2579 0.950 . S
H2556 C2580 0.950 . S
H2557 C2581 0.951 . S
H2558 C2583 0.951 . S
H2559 C2585 0.950 . S
H2560 C2586 0.950 . S
H2561 C2588 0.950 . S
H2562 C2591 0.950 . S
H2563 C2592 0.950 . S
H2564 C2594 0.950 . S
H2565 C2595 0.950 . S
C2566 H2548 0.951 . S
C2566 C2567 1.366 . S
C2566 C2568 1.388 . S
C2567 C2566 1.366 . S
C2567 C2571 1.385 . S
C2568 H2549 0.951 . S
C2568 C2566 1.388 . S
C2568 C2569 1.366 . S
C2569 C2568 1.366 . S
C2569 C2570 1.414 . S
C2569 C2572 1.499 . S
C2570 H2550 0.950 . S
C2570 C2569 1.414 . S
C2570 C2571 1.374 . S
C2571 H2551 0.950 . S
C2571 C2567 1.385 . S
C2571 C2570 1.374 . S
C2572 C2569 1.499 . S
C2572 C2573 1.373 . S
C2572 C2574 1.389 . S
C2573 H2552 0.950 . S
C2573 C2572 1.373 . S
C2573 C2589 1.377 . S
C2574 C2572 1.389 . S
C2574 C2575 1.524 . S
C2574 C2588 1.377 . S
C2575 C2574 1.524 . S
C2575 C2576 1.397 . S
C2575 C2580 1.363 . S
C2576 H2553 0.950 . S
C2576 C2575 1.397 . S
C2576 C2577 1.334 . S
C2577 H2554 0.950 . S
C2577 C2576 1.334 . S
C2577 C2578 1.287 . S
C2578 C2577 1.287 . S
C2578 C2579 1.524 . S
C2578 H2597 0.913 . S
C2579 H2555 0.950 . S
C2579 C2578 1.524 . S
C2579 C2580 1.415 . S
C2580 H2556 0.950 . S
C2580 C2575 1.363 . S
C2580 C2579 1.415 . S
C2581 H2557 0.951 . S
C2581 C2582 1.366 . S
C2581 C2583 1.388 . S
C2582 C2581 1.366 . S
C2582 C2586 1.385 . S
C2583 H2558 0.951 . S
C2583 C2581 1.388 . S
C2583 C2584 1.366 . S
C2584 C2583 1.366 . S
C2584 C2585 1.414 . S
C2584 C2587 1.499 . S
C2585 H2559 0.950 . S
C2585 C2584 1.414 . S
C2585 C2586 1.374 . S
C2586 H2560 0.950 . S
C2586 C2582 1.385 . S
C2586 C2585 1.374 . S
C2587 C2584 1.499 . S
C2587 C2588 1.373 . S
C2587 C2589 1.389 . S
C2588 H2561 0.950 . S
C2588 C2574 1.377 . S
C2588 C2587 1.373 . S
C2589 C2573 1.377 . S
C2589 C2587 1.389 . S
C2589 C2590 1.524 . S
C2590 C2589 1.524 . S
C2590 C2591 1.397 . S
C2590 C2595 1.363 . S
C2591 H2562 0.950 . S
C2591 C2590 1.397 . S
C2591 C2592 1.334 . S
C2592 H2563 0.950 . S
C2592 C2591 1.334 . S
C2592 C2593 1.287 . S
C2593 C2592 1.287 . S
C2593 C2594 1.524 . S
C2593 H2596 0.999 . S
C2594 H2564 0.950 . S
C2594 C2593 1.524 . S
C2594 C2595 1.415 . S
C2595 H2565 0.950 . S
C2595 C2590 1.363 . S
C2595 C2594 1.415 . S
H2596 C2593 0.999 . S
H2597 C2578 0.913 . S
H2598 C2616 0.951 . S
H2599 C2618 0.951 . S
H2600 C2620 0.950 . S
H2601 C2621 0.950 . S
H2602 C2623 0.950 . S
H2603 C2626 0.950 . S
H2604 C2627 0.950 . S
H2605 C2629 0.950 . S
H2606 C2630 0.950 . S
H2607 C2631 0.951 . S
H2608 C2633 0.951 . S
H2609 C2635 0.950 . S
H2610 C2636 0.950 . S
H2611 C2638 0.950 . S
H2612 C2641 0.950 . S
H2613 C2642 0.950 . S
H2614 C2644 0.950 . S
H2615 C2645 0.950 . S
C2616 H2598 0.951 . S
C2616 C2617 1.366 . S
C2616 C2618 1.388 . S
C2617 C2616 1.366 . S
C2617 C2621 1.385 . S
C2618 H2599 0.951 . S
C2618 C2616 1.388 . S
C2618 C2619 1.366 . S
C2619 C2618 1.366 . S
C2619 C2620 1.414 . S
C2619 C2622 1.499 . S
C2620 H2600 0.950 . S
C2620 C2619 1.414 . S
C2620 C2621 1.374 . S
C2621 H2601 0.950 . S
C2621 C2617 1.385 . S
C2621 C2620 1.374 . S
C2622 C2619 1.499 . S
C2622 C2623 1.373 . S
C2622 C2624 1.389 . S
C2623 H2602 0.950 . S
C2623 C2622 1.373 . S
C2623 C2639 1.377 . S
C2624 C2622 1.389 . S
C2624 C2625 1.524 . S
C2624 C2638 1.377 . S
C2625 C2624 1.524 . S
C2625 C2626 1.397 . S
C2625 C2630 1.363 . S
C2626 H2603 0.950 . S
C2626 C2625 1.397 . S
C2626 C2627 1.334 . S
C2627 H2604 0.950 . S
C2627 C2626 1.334 . S
C2627 C2628 1.287 . S
C2628 C2627 1.287 . S
C2628 C2629 1.524 . S
C2628 H2647 0.913 . S
C2629 H2605 0.950 . S
C2629 C2628 1.524 . S
C2629 C2630 1.415 . S
C2630 H2606 0.950 . S
C2630 C2625 1.363 . S
C2630 C2629 1.415 . S
C2631 H2607 0.951 . S
C2631 C2632 1.366 . S
C2631 C2633 1.388 . S
C2632 C2631 1.366 . S
C2632 C2636 1.385 . S
C2633 H2608 0.951 . S
C2633 C2631 1.388 . S
C2633 C2634 1.366 . S
C2634 C2633 1.366 . S
C2634 C2635 1.414 . S
C2634 C2637 1.499 . S
C2635 H2609 0.950 . S
C2635 C2634 1.414 . S
C2635 C2636 1.374 . S
C2636 H2610 0.950 . S
C2636 C2632 1.385 . S
C2636 C2635 1.374 . S
C2637 C2634 1.499 . S
C2637 C2638 1.373 . S
C2637 C2639 1.389 . S
C2638 H2611 0.950 . S
C2638 C2624 1.377 . S
C2638 C2637 1.373 . S
C2639 C2623 1.377 . S
C2639 C2637 1.389 . S
C2639 C2640 1.524 . S
C2640 C2639 1.524 . S
C2640 C2641 1.397 . S
C2640 C2645 1.363 . S
C2641 H2612 0.950 . S
C2641 C2640 1.397 . S
C2641 C2642 1.334 . S
C2642 H2613 0.950 . S
C2642 C2641 1.334 . S
C2642 C2643 1.287 . S
C2643 C2642 1.287 . S
C2643 C2644 1.524 . S
C2643 H2646 0.996 1_545 S
C2644 H2614 0.950 . S
C2644 C2643 1.524 . S
C2644 C2645 1.415 . S
C2645 H2615 0.950 . S
C2645 C2640 1.363 . S
C2645 C2644 1.415 . S
H2646 C2643 0.996 1_565 S
H2647 C2628 0.913 . S
H2648 C2666 0.951 . S
H2649 C2668 0.951 . S
H2650 C2670 0.950 . S
H2651 C2671 0.950 . S
H2652 C2673 0.950 . S
H2653 C2676 0.950 . S
H2654 C2677 0.950 . S
H2655 C2679 0.950 . S
H2656 C2680 0.950 . S
H2657 C2681 0.951 . S
H2658 C2683 0.951 . S
H2659 C2685 0.950 . S
H2660 C2686 0.950 . S
H2661 C2688 0.950 . S
H2662 C2691 0.950 . S
H2663 C2692 0.950 . S
H2664 C2694 0.950 . S
H2665 C2695 0.950 . S
C2666 H2648 0.951 . S
C2666 C2667 1.366 . S
C2666 C2668 1.388 . S
C2667 C2666 1.366 . S
C2667 C2671 1.385 . S
C2668 H2649 0.951 . S
C2668 C2666 1.388 . S
C2668 C2669 1.366 . S
C2669 C2668 1.366 . S
C2669 C2670 1.414 . S
C2669 C2672 1.499 . S
C2670 H2650 0.950 . S
C2670 C2669 1.414 . S
C2670 C2671 1.374 . S
C2671 H2651 0.950 . S
C2671 C2667 1.385 . S
C2671 C2670 1.374 . S
C2672 C2669 1.499 . S
C2672 C2673 1.373 . S
C2672 C2674 1.389 . S
C2673 H2652 0.950 . S
C2673 C2672 1.373 . S
C2673 C2689 1.377 . S
C2674 C2672 1.389 . S
C2674 C2675 1.524 . S
C2674 C2688 1.377 . S
C2675 C2674 1.524 . S
C2675 C2676 1.397 . S
C2675 C2680 1.363 . S
C2676 H2653 0.950 . S
C2676 C2675 1.397 . S
C2676 C2677 1.334 . S
C2677 H2654 0.950 . S
C2677 C2676 1.334 . S
C2677 C2678 1.287 . S
C2678 C2677 1.287 . S
C2678 C2679 1.524 . S
C2678 H2697 0.913 . S
C2679 H2655 0.950 . S
C2679 C2678 1.524 . S
C2679 C2680 1.415 . S
C2680 H2656 0.950 . S
C2680 C2675 1.363 . S
C2680 C2679 1.415 . S
C2681 H2657 0.951 . S
C2681 C2682 1.366 . S
C2681 C2683 1.388 . S
C2682 C2681 1.366 . S
C2682 C2686 1.385 . S
C2683 H2658 0.951 . S
C2683 C2681 1.388 . S
C2683 C2684 1.366 . S
C2684 C2683 1.366 . S
C2684 C2685 1.414 . S
C2684 C2687 1.499 . S
C2685 H2659 0.950 . S
C2685 C2684 1.414 . S
C2685 C2686 1.374 . S
C2686 H2660 0.950 . S
C2686 C2682 1.385 . S
C2686 C2685 1.374 . S
C2687 C2684 1.499 . S
C2687 C2688 1.373 . S
C2687 C2689 1.389 . S
C2688 H2661 0.950 . S
C2688 C2674 1.377 . S
C2688 C2687 1.373 . S
C2689 C2673 1.377 . S
C2689 C2687 1.389 . S
C2689 C2690 1.524 . S
C2690 C2689 1.524 . S
C2690 C2691 1.397 . S
C2690 C2695 1.363 . S
C2691 H2662 0.950 . S
C2691 C2690 1.397 . S
C2691 C2692 1.334 . S
C2692 H2663 0.950 . S
C2692 C2691 1.334 . S
C2692 C2693 1.287 . S
C2693 C2692 1.287 . S
C2693 C2694 1.524 . S
C2693 H2696 0.999 . S
C2694 H2664 0.950 . S
C2694 C2693 1.524 . S
C2694 C2695 1.415 . S
C2695 H2665 0.950 . S
C2695 C2690 1.363 . S
C2695 C2694 1.415 . S
H2696 C2693 0.999 . S
H2697 C2678 0.913 . S
H2698 C2716 0.951 . S
H2699 C2718 0.951 . S
H2700 C2720 0.950 . S
H2701 C2721 0.950 . S
H2702 C2723 0.950 . S
H2703 C2726 0.950 . S
H2704 C2727 0.950 . S
H2705 C2729 0.950 . S
H2706 C2730 0.950 . S
H2707 C2731 0.951 . S
H2708 C2733 0.951 . S
H2709 C2735 0.950 . S
H2710 C2736 0.950 . S
H2711 C2738 0.950 . S
H2712 C2741 0.950 . S
H2713 C2742 0.950 . S
H2714 C2744 0.950 . S
H2715 C2745 0.950 . S
C2716 H2698 0.951 . S
C2716 C2717 1.366 . S
C2716 C2718 1.388 . S
C2717 C2716 1.366 . S
C2717 C2721 1.385 . S
C2718 H2699 0.951 . S
C2718 C2716 1.388 . S
C2718 C2719 1.366 . S
C2719 C2718 1.366 . S
C2719 C2720 1.414 . S
C2719 C2722 1.499 . S
C2720 H2700 0.950 . S
C2720 C2719 1.414 . S
C2720 C2721 1.374 . S
C2721 H2701 0.950 . S
C2721 C2717 1.385 . S
C2721 C2720 1.374 . S
C2722 C2719 1.499 . S
C2722 C2723 1.373 . S
C2722 C2724 1.389 . S
C2723 H2702 0.950 . S
C2723 C2722 1.373 . S
C2723 C2739 1.377 . S
C2724 C2722 1.389 . S
C2724 C2725 1.524 . S
C2724 C2738 1.377 . S
C2725 C2724 1.524 . S
C2725 C2726 1.397 . S
C2725 C2730 1.363 . S
C2726 H2703 0.950 . S
C2726 C2725 1.397 . S
C2726 C2727 1.334 . S
C2727 H2704 0.950 . S
C2727 C2726 1.334 . S
C2727 C2728 1.287 . S
C2728 C2727 1.287 . S
C2728 C2729 1.524 . S
C2728 H2747 0.913 . S
C2729 H2705 0.950 . S
C2729 C2728 1.524 . S
C2729 C2730 1.415 . S
C2730 H2706 0.950 . S
C2730 C2725 1.363 . S
C2730 C2729 1.415 . S
C2731 H2707 0.951 . S
C2731 C2732 1.366 . S
C2731 C2733 1.388 . S
C2732 C2731 1.366 . S
C2732 C2736 1.385 . S
C2733 H2708 0.951 . S
C2733 C2731 1.388 . S
C2733 C2734 1.366 . S
C2734 C2733 1.366 . S
C2734 C2735 1.414 . S
C2734 C2737 1.499 . S
C2735 H2709 0.950 . S
C2735 C2734 1.414 . S
C2735 C2736 1.374 . S
C2736 H2710 0.950 . S
C2736 C2732 1.385 . S
C2736 C2735 1.374 . S
C2737 C2734 1.499 . S
C2737 C2738 1.373 . S
C2737 C2739 1.389 . S
C2738 H2711 0.950 . S
C2738 C2724 1.377 . S
C2738 C2737 1.373 . S
C2739 C2723 1.377 . S
C2739 C2737 1.389 . S
C2739 C2740 1.524 . S
C2740 C2739 1.524 . S
C2740 C2741 1.397 . S
C2740 C2745 1.363 . S
C2741 H2712 0.950 . S
C2741 C2740 1.397 . S
C2741 C2742 1.334 . S
C2742 H2713 0.950 . S
C2742 C2741 1.334 . S
C2742 C2743 1.287 . S
C2743 C2742 1.287 . S
C2743 C2744 1.524 . S
C2743 H2746 0.999 . S
C2744 H2714 0.950 . S
C2744 C2743 1.524 . S
C2744 C2745 1.415 . S
C2745 H2715 0.950 . S
C2745 C2740 1.363 . S
C2745 C2744 1.415 . S
H2746 C2743 0.999 . S
H2747 C2728 0.913 . S
H2748 C2766 0.951 . S
H2749 C2768 0.951 . S
H2750 C2770 0.950 . S
H2751 C2771 0.950 . S
H2752 C2773 0.950 . S
H2753 C2776 0.950 . S
H2754 C2777 0.950 . S
H2755 C2779 0.950 . S
H2756 C2780 0.950 . S
H2757 C2781 0.951 . S
H2758 C2783 0.951 . S
H2759 C2785 0.950 . S
H2760 C2786 0.950 . S
H2761 C2788 0.950 . S
H2762 C2791 0.950 . S
H2763 C2792 0.950 . S
H2764 C2794 0.950 . S
H2765 C2795 0.950 . S
C2766 H2748 0.951 . S
C2766 C2767 1.366 . S
C2766 C2768 1.388 . S
C2767 C2766 1.366 . S
C2767 C2771 1.385 . S
C2768 H2749 0.951 . S
C2768 C2766 1.388 . S
C2768 C2769 1.366 . S
C2769 C2768 1.366 . S
C2769 C2770 1.414 . S
C2769 C2772 1.499 . S
C2770 H2750 0.950 . S
C2770 C2769 1.414 . S
C2770 C2771 1.374 . S
C2771 H2751 0.950 . S
C2771 C2767 1.385 . S
C2771 C2770 1.374 . S
C2772 C2769 1.499 . S
C2772 C2773 1.373 . S
C2772 C2774 1.389 . S
C2773 H2752 0.950 . S
C2773 C2772 1.373 . S
C2773 C2789 1.377 . S
C2774 C2772 1.389 . S
C2774 C2775 1.524 . S
C2774 C2788 1.377 . S
C2775 C2774 1.524 . S
C2775 C2776 1.397 . S
C2775 C2780 1.363 . S
C2776 H2753 0.950 . S
C2776 C2775 1.397 . S
C2776 C2777 1.334 . S
C2777 H2754 0.950 . S
C2777 C2776 1.334 . S
C2777 C2778 1.287 . S
C2778 C2777 1.287 . S
C2778 C2779 1.524 . S
C2778 H2797 0.913 . S
C2779 H2755 0.950 . S
C2779 C2778 1.524 . S
C2779 C2780 1.415 . S
C2780 H2756 0.950 . S
C2780 C2775 1.363 . S
C2780 C2779 1.415 . S
C2781 H2757 0.951 . S
C2781 C2782 1.366 . S
C2781 C2783 1.388 . S
C2782 C2781 1.366 . S
C2782 C2786 1.385 . S
C2783 H2758 0.951 . S
C2783 C2781 1.388 . S
C2783 C2784 1.366 . S
C2784 C2783 1.366 . S
C2784 C2785 1.414 . S
C2784 C2787 1.499 . S
C2785 H2759 0.950 . S
C2785 C2784 1.414 . S
C2785 C2786 1.374 . S
C2786 H2760 0.950 . S
C2786 C2782 1.385 . S
C2786 C2785 1.374 . S
C2787 C2784 1.499 . S
C2787 C2788 1.373 . S
C2787 C2789 1.389 . S
C2788 H2761 0.950 . S
C2788 C2774 1.377 . S
C2788 C2787 1.373 . S
C2789 C2773 1.377 . S
C2789 C2787 1.389 . S
C2789 C2790 1.524 . S
C2790 C2789 1.524 . S
C2790 C2791 1.397 . S
C2790 C2795 1.363 . S
C2791 H2762 0.950 . S
C2791 C2790 1.397 . S
C2791 C2792 1.334 . S
C2792 H2763 0.950 . S
C2792 C2791 1.334 . S
C2792 C2793 1.287 . S
C2793 C2792 1.287 . S
C2793 C2794 1.524 . S
C2793 H2796 0.999 . S
C2794 H2764 0.950 . S
C2794 C2793 1.524 . S
C2794 C2795 1.415 . S
C2795 H2765 0.950 . S
C2795 C2790 1.363 . S
C2795 C2794 1.415 . S
H2796 C2793 0.999 . S
H2797 C2778 0.913 . S
H2798 C2816 0.951 . S
H2799 C2818 0.951 . S
H2800 C2820 0.950 . S
H2801 C2821 0.950 . S
H2802 C2823 0.950 . S
H2803 C2826 0.950 . S
H2804 C2827 0.950 . S
H2805 C2829 0.950 . S
H2806 C2830 0.950 . S
H2807 C2831 0.951 . S
H2808 C2833 0.951 . S
H2809 C2835 0.950 . S
H2810 C2836 0.950 . S
H2811 C2838 0.950 . S
H2812 C2841 0.950 . S
H2813 C2842 0.950 . S
H2814 C2844 0.950 . S
H2815 C2845 0.950 . S
C2816 H2798 0.951 . S
C2816 C2817 1.366 . S
C2816 C2818 1.388 1_455 S
C2817 C2816 1.366 . S
C2817 C2821 1.385 1_455 S
C2818 H2799 0.951 . S
C2818 C2816 1.388 1_655 S
C2818 C2819 1.366 . S
C2819 C2818 1.366 . S
C2819 C2820 1.414 . S
C2819 C2822 1.499 . S
C2820 H2800 0.950 . S
C2820 C2819 1.414 . S
C2820 C2821 1.374 . S
C2821 H2801 0.950 . S
C2821 C2817 1.385 1_655 S
C2821 C2820 1.374 . S
C2822 C2819 1.499 . S
C2822 C2823 1.373 . S
C2822 C2824 1.389 . S
C2823 H2802 0.950 . S
C2823 C2822 1.373 . S
C2823 C2839 1.377 . S
C2824 C2822 1.389 . S
C2824 C2825 1.524 . S
C2824 C2838 1.377 . S
C2825 C2824 1.524 . S
C2825 C2826 1.397 . S
C2825 C2830 1.363 . S
C2826 H2803 0.950 . S
C2826 C2825 1.397 . S
C2826 C2827 1.334 . S
C2827 H2804 0.950 . S
C2827 C2826 1.334 . S
C2827 C2828 1.287 . S
C2828 C2827 1.287 . S
C2828 C2829 1.524 . S
C2828 H2847 0.913 1_655 S
C2829 H2805 0.950 . S
C2829 C2828 1.524 . S
C2829 C2830 1.415 . S
C2830 H2806 0.950 . S
C2830 C2825 1.363 . S
C2830 C2829 1.415 . S
C2831 H2807 0.951 . S
C2831 C2832 1.366 . S
C2831 C2833 1.388 . S
C2832 C2831 1.366 . S
C2832 C2836 1.385 . S
C2833 H2808 0.951 . S
C2833 C2831 1.388 . S
C2833 C2834 1.366 . S
C2834 C2833 1.366 . S
C2834 C2835 1.414 . S
C2834 C2837 1.499 . S
C2835 H2809 0.950 . S
C2835 C2834 1.414 . S
C2835 C2836 1.374 . S
C2836 H2810 0.950 . S
C2836 C2832 1.385 . S
C2836 C2835 1.374 . S
C2837 C2834 1.499 . S
C2837 C2838 1.373 . S
C2837 C2839 1.389 . S
C2838 H2811 0.950 . S
C2838 C2824 1.377 . S
C2838 C2837 1.373 . S
C2839 C2823 1.377 . S
C2839 C2837 1.389 . S
C2839 C2840 1.524 . S
C2840 C2839 1.524 . S
C2840 C2841 1.397 . S
C2840 C2845 1.363 . S
C2841 H2812 0.950 . S
C2841 C2840 1.397 . S
C2841 C2842 1.334 . S
C2842 H2813 0.950 . S
C2842 C2841 1.334 . S
C2842 C2843 1.287 . S
C2843 C2842 1.287 . S
C2843 C2844 1.524 . S
C2843 H2846 0.999 . S
C2844 H2814 0.950 . S
C2844 C2843 1.524 . S
C2844 C2845 1.415 . S
C2845 H2815 0.950 . S
C2845 C2840 1.363 . S
C2845 C2844 1.415 . S
H2846 C2843 0.999 . S
H2847 C2828 0.913 1_455 S
H2848 C2866 0.951 . S
H2849 C2868 0.951 . S
H2850 C2870 0.950 . S
H2851 C2871 0.950 . S
H2852 C2873 0.950 . S
H2853 C2876 0.950 . S
H2854 C2877 0.950 . S
H2855 C2879 0.950 . S
H2856 C2880 0.950 . S
H2857 C2881 0.951 . S
H2858 C2883 0.951 . S
H2859 C2885 0.950 . S
H2860 C2886 0.950 . S
H2861 C2888 0.950 . S
H2862 C2891 0.950 . S
H2863 C2892 0.950 . S
H2864 C2894 0.950 . S
H2865 C2895 0.950 . S
C2866 H2848 0.951 . S
C2866 C2867 1.366 . S
C2866 C2868 1.388 . S
C2867 C2866 1.366 . S
C2867 C2871 1.385 . S
C2868 H2849 0.951 . S
C2868 C2866 1.388 . S
C2868 C2869 1.366 . S
C2869 C2868 1.366 . S
C2869 C2870 1.414 . S
C2869 C2872 1.499 . S
C2870 H2850 0.950 . S
C2870 C2869 1.414 . S
C2870 C2871 1.374 . S
C2871 H2851 0.950 . S
C2871 C2867 1.385 . S
C2871 C2870 1.374 . S
C2872 C2869 1.499 . S
C2872 C2873 1.373 . S
C2872 C2874 1.389 . S
C2873 H2852 0.950 . S
C2873 C2872 1.373 . S
C2873 C2889 1.377 . S
C2874 C2872 1.389 . S
C2874 C2875 1.524 . S
C2874 C2888 1.377 . S
C2875 C2874 1.524 . S
C2875 C2876 1.397 . S
C2875 C2880 1.363 . S
C2876 H2853 0.950 . S
C2876 C2875 1.397 . S
C2876 C2877 1.334 . S
C2877 H2854 0.950 . S
C2877 C2876 1.334 . S
C2877 C2878 1.287 . S
C2878 C2877 1.287 . S
C2878 C2879 1.524 . S
C2878 H2897 0.913 . S
C2879 H2855 0.950 . S
C2879 C2878 1.524 . S
C2879 C2880 1.415 . S
C2880 H2856 0.950 . S
C2880 C2875 1.363 . S
C2880 C2879 1.415 . S
C2881 H2857 0.951 . S
C2881 C2882 1.366 . S
C2881 C2883 1.388 . S
C2882 C2881 1.366 . S
C2882 C2886 1.385 . S
C2883 H2858 0.951 . S
C2883 C2881 1.388 . S
C2883 C2884 1.366 . S
C2884 C2883 1.366 . S
C2884 C2885 1.414 . S
C2884 C2887 1.499 . S
C2885 H2859 0.950 . S
C2885 C2884 1.414 . S
C2885 C2886 1.374 . S
C2886 H2860 0.950 . S
C2886 C2882 1.385 . S
C2886 C2885 1.374 . S
C2887 C2884 1.499 . S
C2887 C2888 1.373 . S
C2887 C2889 1.389 . S
C2888 H2861 0.950 . S
C2888 C2874 1.377 . S
C2888 C2887 1.373 . S
C2889 C2873 1.377 . S
C2889 C2887 1.389 . S
C2889 C2890 1.524 . S
C2890 C2889 1.524 . S
C2890 C2891 1.397 . S
C2890 C2895 1.363 . S
C2891 H2862 0.950 . S
C2891 C2890 1.397 . S
C2891 C2892 1.334 . S
C2892 H2863 0.950 . S
C2892 C2891 1.334 . S
C2892 C2893 1.287 . S
C2893 C2892 1.287 . S
C2893 C2894 1.524 . S
C2893 H2896 0.999 . S
C2894 H2864 0.950 . S
C2894 C2893 1.524 . S
C2894 C2895 1.415 . S
C2895 H2865 0.950 . S
C2895 C2890 1.363 . S
C2895 C2894 1.415 . S
H2896 C2893 0.999 . S
H2897 C2878 0.913 . S
H2898 C2916 0.951 . S
H2899 C2918 0.951 . S
H2900 C2920 0.950 . S
H2901 C2921 0.950 . S
H2902 C2923 0.950 . S
H2903 C2926 0.950 . S
H2904 C2927 0.950 . S
H2905 C2929 0.950 . S
H2906 C2930 0.950 . S
H2907 C2931 0.951 . S
H2908 C2933 0.951 . S
H2909 C2935 0.950 . S
H2910 C2936 0.950 . S
H2911 C2938 0.950 . S
H2912 C2941 0.950 . S
H2913 C2942 0.950 . S
H2914 C2944 0.950 . S
H2915 C2945 0.950 . S
C2916 H2898 0.951 . S
C2916 C2917 1.366 . S
C2916 C2918 1.388 . S
C2917 C2916 1.366 . S
C2917 C2921 1.385 . S
C2918 H2899 0.951 . S
C2918 C2916 1.388 . S
C2918 C2919 1.366 . S
C2919 C2918 1.366 . S
C2919 C2920 1.414 . S
C2919 C2922 1.499 . S
C2920 H2900 0.950 . S
C2920 C2919 1.414 . S
C2920 C2921 1.374 . S
C2921 H2901 0.950 . S
C2921 C2917 1.385 . S
C2921 C2920 1.374 . S
C2922 C2919 1.499 . S
C2922 C2923 1.373 . S
C2922 C2924 1.389 . S
C2923 H2902 0.950 . S
C2923 C2922 1.373 . S
C2923 C2939 1.377 . S
C2924 C2922 1.389 . S
C2924 C2925 1.524 . S
C2924 C2938 1.377 . S
C2925 C2924 1.524 . S
C2925 C2926 1.397 . S
C2925 C2930 1.363 . S
C2926 H2903 0.950 . S
C2926 C2925 1.397 . S
C2926 C2927 1.334 . S
C2927 H2904 0.950 . S
C2927 C2926 1.334 . S
C2927 C2928 1.287 . S
C2928 C2927 1.287 . S
C2928 C2929 1.524 . S
C2928 H2947 0.913 . S
C2929 H2905 0.950 . S
C2929 C2928 1.524 . S
C2929 C2930 1.415 . S
C2930 H2906 0.950 . S
C2930 C2925 1.363 . S
C2930 C2929 1.415 . S
C2931 H2907 0.951 . S
C2931 C2932 1.366 . S
C2931 C2933 1.388 . S
C2932 C2931 1.366 . S
C2932 C2936 1.385 . S
C2933 H2908 0.951 . S
C2933 C2931 1.388 . S
C2933 C2934 1.366 . S
C2934 C2933 1.366 . S
C2934 C2935 1.414 . S
C2934 C2937 1.499 . S
C2935 H2909 0.950 . S
C2935 C2934 1.414 . S
C2935 C2936 1.374 . S
C2936 H2910 0.950 . S
C2936 C2932 1.385 . S
C2936 C2935 1.374 . S
C2937 C2934 1.499 . S
C2937 C2938 1.373 . S
C2937 C2939 1.389 . S
C2938 H2911 0.950 . S
C2938 C2924 1.377 . S
C2938 C2937 1.373 . S
C2939 C2923 1.377 . S
C2939 C2937 1.389 . S
C2939 C2940 1.524 . S
C2940 C2939 1.524 . S
C2940 C2941 1.397 . S
C2940 C2945 1.363 . S
C2941 H2912 0.950 . S
C2941 C2940 1.397 . S
C2941 C2942 1.334 . S
C2942 H2913 0.950 . S
C2942 C2941 1.334 . S
C2942 C2943 1.287 . S
C2943 C2942 1.287 . S
C2943 C2944 1.524 . S
C2943 H2946 0.999 . S
C2944 H2914 0.950 . S
C2944 C2943 1.524 . S
C2944 C2945 1.415 . S
C2945 H2915 0.950 . S
C2945 C2940 1.363 . S
C2945 C2944 1.415 . S
H2946 C2943 0.999 . S
H2947 C2928 0.913 . S
H2948 C2966 0.951 . S
H2949 C2968 0.951 . S
H2950 C2970 0.950 . S
H2951 C2971 0.950 . S
H2952 C2973 0.950 . S
H2953 C2976 0.950 . S
H2954 C2977 0.950 . S
H2955 C2979 0.950 . S
H2956 C2980 0.950 . S
H2957 C2981 0.951 . S
H2958 C2983 0.951 . S
H2959 C2985 0.950 . S
H2960 C2986 0.950 . S
H2961 C2988 0.950 . S
H2962 C2991 0.950 . S
H2963 C2992 0.950 . S
H2964 C2994 0.950 . S
H2965 C2995 0.950 . S
C2966 H2948 0.951 . S
C2966 C2967 1.366 . S
C2966 C2968 1.388 . S
C2967 C2966 1.366 . S
C2967 C2971 1.385 . S
C2968 H2949 0.951 . S
C2968 C2966 1.388 . S
C2968 C2969 1.366 . S
C2969 C2968 1.366 . S
C2969 C2970 1.414 . S
C2969 C2972 1.499 . S
C2970 H2950 0.950 . S
C2970 C2969 1.414 . S
C2970 C2971 1.374 . S
C2971 H2951 0.950 . S
C2971 C2967 1.385 . S
C2971 C2970 1.374 . S
C2972 C2969 1.499 . S
C2972 C2973 1.373 . S
C2972 C2974 1.389 . S
C2973 H2952 0.950 . S
C2973 C2972 1.373 . S
C2973 C2989 1.377 . S
C2974 C2972 1.389 . S
C2974 C2975 1.524 . S
C2974 C2988 1.377 . S
C2975 C2974 1.524 . S
C2975 C2976 1.397 . S
C2975 C2980 1.363 . S
C2976 H2953 0.950 . S
C2976 C2975 1.397 . S
C2976 C2977 1.334 . S
C2977 H2954 0.950 . S
C2977 C2976 1.334 . S
C2977 C2978 1.287 . S
C2978 C2977 1.287 . S
C2978 C2979 1.524 . S
C2978 H2997 0.913 . S
C2979 H2955 0.950 . S
C2979 C2978 1.524 . S
C2979 C2980 1.415 . S
C2980 H2956 0.950 . S
C2980 C2975 1.363 . S
C2980 C2979 1.415 . S
C2981 H2957 0.951 . S
C2981 C2982 1.366 . S
C2981 C2983 1.388 . S
C2982 C2981 1.366 . S
C2982 C2986 1.385 . S
C2983 H2958 0.951 . S
C2983 C2981 1.388 . S
C2983 C2984 1.366 . S
C2984 C2983 1.366 . S
C2984 C2985 1.414 . S
C2984 C2987 1.499 . S
C2985 H2959 0.950 . S
C2985 C2984 1.414 . S
C2985 C2986 1.374 . S
C2986 H2960 0.950 . S
C2986 C2982 1.385 . S
C2986 C2985 1.374 . S
C2987 C2984 1.499 . S
C2987 C2988 1.373 . S
C2987 C2989 1.389 . S
C2988 H2961 0.950 . S
C2988 C2974 1.377 . S
C2988 C2987 1.373 . S
C2989 C2973 1.377 . S
C2989 C2987 1.389 . S
C2989 C2990 1.524 . S
C2990 C2989 1.524 . S
C2990 C2991 1.397 . S
C2990 C2995 1.363 . S
C2991 H2962 0.950 . S
C2991 C2990 1.397 . S
C2991 C2992 1.334 . S
C2992 H2963 0.950 . S
C2992 C2991 1.334 . S
C2992 C2993 1.287 . S
C2993 C2992 1.287 . S
C2993 C2994 1.524 . S
C2993 H2996 0.999 . S
C2994 H2964 0.950 . S
C2994 C2993 1.524 . S
C2994 C2995 1.415 . S
C2995 H2965 0.950 . S
C2995 C2990 1.363 . S
C2995 C2994 1.415 . S
H2996 C2993 0.999 . S
H2997 C2978 0.913 . S
H2998 C3016 0.951 . S
H2999 C3018 0.951 . S
H3000 C3020 0.950 . S
H3001 C3021 0.950 . S
H3002 C3023 0.950 . S
H3003 C3026 0.950 . S
H3004 C3027 0.950 . S
H3005 C3029 0.950 . S
H3006 C3030 0.950 . S
H3007 C3031 0.951 . S
H3008 C3033 0.951 . S
H3009 C3035 0.950 . S
H3010 C3036 0.950 . S
H3011 C3038 0.950 . S
H3012 C3041 0.950 . S
H3013 C3042 0.950 . S
H3014 C3044 0.950 . S
H3015 C3045 0.950 . S
C3016 H2998 0.951 . S
C3016 C3017 1.366 . S
C3016 C3018 1.388 . S
C3017 C3016 1.366 . S
C3017 C3021 1.385 . S
C3018 H2999 0.951 . S
C3018 C3016 1.388 . S
C3018 C3019 1.366 . S
C3019 C3018 1.366 . S
C3019 C3020 1.414 . S
C3019 C3022 1.499 . S
C3020 H3000 0.950 . S
C3020 C3019 1.414 . S
C3020 C3021 1.374 . S
C3021 H3001 0.950 . S
C3021 C3017 1.385 . S
C3021 C3020 1.374 . S
C3022 C3019 1.499 . S
C3022 C3023 1.373 . S
C3022 C3024 1.389 . S
C3023 H3002 0.950 . S
C3023 C3022 1.373 . S
C3023 C3039 1.377 . S
C3024 C3022 1.389 . S
C3024 C3025 1.524 . S
C3024 C3038 1.377 . S
C3025 C3024 1.524 . S
C3025 C3026 1.397 . S
C3025 C3030 1.363 . S
C3026 H3003 0.950 . S
C3026 C3025 1.397 . S
C3026 C3027 1.334 . S
C3027 H3004 0.950 . S
C3027 C3026 1.334 . S
C3027 C3028 1.287 . S
C3028 C3027 1.287 . S
C3028 C3029 1.524 . S
C3028 H3047 0.913 . S
C3029 H3005 0.950 . S
C3029 C3028 1.524 . S
C3029 C3030 1.415 . S
C3030 H3006 0.950 . S
C3030 C3025 1.363 . S
C3030 C3029 1.415 . S
C3031 H3007 0.951 . S
C3031 C3032 1.366 . S
C3031 C3033 1.388 1_455 S
C3032 C3031 1.366 . S
C3032 C3036 1.385 1_455 S
C3033 H3008 0.951 . S
C3033 C3031 1.388 1_655 S
C3033 C3034 1.366 . S
C3034 C3033 1.366 . S
C3034 C3035 1.414 . S
C3034 C3037 1.499 . S
C3035 H3009 0.950 . S
C3035 C3034 1.414 . S
C3035 C3036 1.374 . S
C3036 H3010 0.950 . S
C3036 C3032 1.385 1_655 S
C3036 C3035 1.374 . S
C3037 C3034 1.499 . S
C3037 C3038 1.373 . S
C3037 C3039 1.389 . S
C3038 H3011 0.950 . S
C3038 C3024 1.377 . S
C3038 C3037 1.373 . S
C3039 C3023 1.377 . S
C3039 C3037 1.389 . S
C3039 C3040 1.524 . S
C3040 C3039 1.524 . S
C3040 C3041 1.397 . S
C3040 C3045 1.363 . S
C3041 H3012 0.950 . S
C3041 C3040 1.397 . S
C3041 C3042 1.334 . S
C3042 H3013 0.950 . S
C3042 C3041 1.334 . S
C3042 C3043 1.287 . S
C3043 C3042 1.287 . S
C3043 C3044 1.524 . S
C3043 H3046 0.999 1_655 S
C3044 H3014 0.950 . S
C3044 C3043 1.524 . S
C3044 C3045 1.415 . S
C3045 H3015 0.950 . S
C3045 C3040 1.363 . S
C3045 C3044 1.415 . S
H3046 C3043 0.999 1_455 S
H3047 C3028 0.913 . S
H3048 C3066 0.951 . S
H3049 C3068 0.951 . S
H3050 C3070 0.950 . S
H3051 C3071 0.950 . S
H3052 C3073 0.950 . S
H3053 C3076 0.950 . S
H3054 C3077 0.950 . S
H3055 C3079 0.950 . S
H3056 C3080 0.950 . S
H3057 C3081 0.951 . S
H3058 C3083 0.951 . S
H3059 C3085 0.950 . S
H3060 C3086 0.950 . S
H3061 C3088 0.950 . S
H3062 C3091 0.950 . S
H3063 C3092 0.950 . S
H3064 C3094 0.950 . S
H3065 C3095 0.950 . S
C3066 H3048 0.951 . S
C3066 C3067 1.366 . S
C3066 C3068 1.388 . S
C3067 C3066 1.366 . S
C3067 C3071 1.385 . S
C3068 H3049 0.951 . S
C3068 C3066 1.388 . S
C3068 C3069 1.366 . S
C3069 C3068 1.366 . S
C3069 C3070 1.414 . S
C3069 C3072 1.499 . S
C3070 H3050 0.950 . S
C3070 C3069 1.414 . S
C3070 C3071 1.374 . S
C3071 H3051 0.950 . S
C3071 C3067 1.385 . S
C3071 C3070 1.374 . S
C3072 C3069 1.499 . S
C3072 C3073 1.373 . S
C3072 C3074 1.389 . S
C3073 H3052 0.950 . S
C3073 C3072 1.373 . S
C3073 C3089 1.377 . S
C3074 C3072 1.389 . S
C3074 C3075 1.524 . S
C3074 C3088 1.377 . S
C3075 C3074 1.524 . S
C3075 C3076 1.397 . S
C3075 C3080 1.363 . S
C3076 H3053 0.950 . S
C3076 C3075 1.397 . S
C3076 C3077 1.334 . S
C3077 H3054 0.950 . S
C3077 C3076 1.334 . S
C3077 C3078 1.287 . S
C3078 C3077 1.287 . S
C3078 C3079 1.524 . S
C3078 H3097 0.913 . S
C3079 H3055 0.950 . S
C3079 C3078 1.524 . S
C3079 C3080 1.415 . S
C3080 H3056 0.950 . S
C3080 C3075 1.363 . S
C3080 C3079 1.415 . S
C3081 H3057 0.951 . S
C3081 C3082 1.366 . S
C3081 C3083 1.388 . S
C3082 C3081 1.366 . S
C3082 C3086 1.385 . S
C3083 H3058 0.951 . S
C3083 C3081 1.388 . S
C3083 C3084 1.366 . S
C3084 C3083 1.366 . S
C3084 C3085 1.414 . S
C3084 C3087 1.499 . S
C3085 H3059 0.950 . S
C3085 C3084 1.414 . S
C3085 C3086 1.374 . S
C3086 H3060 0.950 . S
C3086 C3082 1.385 . S
C3086 C3085 1.374 . S
C3087 C3084 1.499 . S
C3087 C3088 1.373 . S
C3087 C3089 1.389 . S
C3088 H3061 0.950 . S
C3088 C3074 1.377 . S
C3088 C3087 1.373 . S
C3089 C3073 1.377 . S
C3089 C3087 1.389 . S
C3089 C3090 1.524 . S
C3090 C3089 1.524 . S
C3090 C3091 1.397 . S
C3090 C3095 1.363 . S
C3091 H3062 0.950 . S
C3091 C3090 1.397 . S
C3091 C3092 1.334 . S
C3092 H3063 0.950 . S
C3092 C3091 1.334 . S
C3092 C3093 1.287 . S
C3093 C3092 1.287 . S
C3093 C3094 1.524 . S
C3093 H3096 0.999 . S
C3094 H3064 0.950 . S
C3094 C3093 1.524 . S
C3094 C3095 1.415 . S
C3095 H3065 0.950 . S
C3095 C3090 1.363 . S
C3095 C3094 1.415 . S
H3096 C3093 0.999 . S
H3097 C3078 0.913 . S
H3098 C3116 0.951 . S
H3099 C3118 0.951 . S
H3100 C3120 0.950 . S
H3101 C3121 0.950 . S
H3102 C3123 0.950 . S
H3103 C3126 0.950 . S
H3104 C3127 0.950 . S
H3105 C3129 0.950 . S
H3106 C3130 0.950 . S
H3107 C3131 0.951 . S
H3108 C3133 0.951 . S
H3109 C3135 0.950 . S
H3110 C3136 0.950 . S
H3111 C3138 0.950 . S
H3112 C3141 0.950 . S
H3113 C3142 0.950 . S
H3114 C3144 0.950 . S
H3115 C3145 0.950 . S
C3116 H3098 0.951 . S
C3116 C3117 1.366 . S
C3116 C3118 1.388 1_455 S
C3117 C3116 1.366 . S
C3117 C3121 1.385 1_455 S
C3118 H3099 0.951 . S
C3118 C3116 1.388 1_655 S
C3118 C3119 1.366 . S
C3119 C3118 1.366 . S
C3119 C3120 1.414 . S
C3119 C3122 1.499 . S
C3120 H3100 0.950 . S
C3120 C3119 1.414 . S
C3120 C3121 1.374 . S
C3121 H3101 0.950 . S
C3121 C3117 1.385 1_655 S
C3121 C3120 1.374 . S
C3122 C3119 1.499 . S
C3122 C3123 1.373 . S
C3122 C3124 1.389 . S
C3123 H3102 0.950 . S
C3123 C3122 1.373 . S
C3123 C3139 1.377 . S
C3124 C3122 1.389 . S
C3124 C3125 1.524 . S
C3124 C3138 1.377 . S
C3125 C3124 1.524 . S
C3125 C3126 1.397 . S
C3125 C3130 1.363 . S
C3126 H3103 0.950 . S
C3126 C3125 1.397 . S
C3126 C3127 1.334 . S
C3127 H3104 0.950 . S
C3127 C3126 1.334 . S
C3127 C3128 1.287 . S
C3128 C3127 1.287 . S
C3128 C3129 1.524 . S
C3128 H3147 0.913 . S
C3129 H3105 0.950 . S
C3129 C3128 1.524 . S
C3129 C3130 1.415 . S
C3130 H3106 0.950 . S
C3130 C3125 1.363 . S
C3130 C3129 1.415 . S
C3131 H3107 0.951 . S
C3131 C3132 1.366 . S
C3131 C3133 1.388 . S
C3132 C3131 1.366 . S
C3132 C3136 1.385 . S
C3133 H3108 0.951 . S
C3133 C3131 1.388 . S
C3133 C3134 1.366 . S
C3134 C3133 1.366 . S
C3134 C3135 1.414 . S
C3134 C3137 1.499 . S
C3135 H3109 0.950 . S
C3135 C3134 1.414 . S
C3135 C3136 1.374 . S
C3136 H3110 0.950 . S
C3136 C3132 1.385 . S
C3136 C3135 1.374 . S
C3137 C3134 1.499 . S
C3137 C3138 1.373 . S
C3137 C3139 1.389 . S
C3138 H3111 0.950 . S
C3138 C3124 1.377 . S
C3138 C3137 1.373 . S
C3139 C3123 1.377 . S
C3139 C3137 1.389 . S
C3139 C3140 1.524 . S
C3140 C3139 1.524 . S
C3140 C3141 1.397 . S
C3140 C3145 1.363 . S
C3141 H3112 0.950 . S
C3141 C3140 1.397 . S
C3141 C3142 1.334 . S
C3142 H3113 0.950 . S
C3142 C3141 1.334 . S
C3142 C3143 1.287 . S
C3143 C3142 1.287 . S
C3143 C3144 1.524 . S
C3143 H3146 0.999 . S
C3144 H3114 0.950 . S
C3144 C3143 1.524 . S
C3144 C3145 1.415 . S
C3145 H3115 0.950 . S
C3145 C3140 1.363 . S
C3145 C3144 1.415 . S
H3146 C3143 0.999 . S
H3147 C3128 0.913 . S
H3148 C3166 0.951 . S
H3149 C3168 0.951 . S
H3150 C3170 0.950 . S
H3151 C3171 0.950 . S
H3152 C3173 0.950 . S
H3153 C3176 0.950 . S
H3154 C3177 0.950 . S
H3155 C3179 0.950 . S
H3156 C3180 0.950 . S
H3157 C3181 0.951 . S
H3158 C3183 0.951 . S
H3159 C3185 0.950 . S
H3160 C3186 0.950 . S
H3161 C3188 0.950 . S
H3162 C3191 0.950 . S
H3163 C3192 0.950 . S
H3164 C3194 0.950 . S
H3165 C3195 0.950 . S
C3166 H3148 0.951 . S
C3166 C3167 1.366 . S
C3166 C3168 1.388 . S
C3167 C3166 1.366 . S
C3167 C3171 1.385 . S
C3168 H3149 0.951 . S
C3168 C3166 1.388 . S
C3168 C3169 1.366 . S
C3169 C3168 1.366 . S
C3169 C3170 1.414 . S
C3169 C3172 1.499 . S
C3170 H3150 0.950 . S
C3170 C3169 1.414 . S
C3170 C3171 1.374 . S
C3171 H3151 0.950 . S
C3171 C3167 1.385 . S
C3171 C3170 1.374 . S
C3172 C3169 1.499 . S
C3172 C3173 1.373 . S
C3172 C3174 1.389 . S
C3173 H3152 0.950 . S
C3173 C3172 1.373 . S
C3173 C3189 1.377 . S
C3174 C3172 1.389 . S
C3174 C3175 1.524 . S
C3174 C3188 1.377 . S
C3175 C3174 1.524 . S
C3175 C3176 1.397 . S
C3175 C3180 1.363 . S
C3176 H3153 0.950 . S
C3176 C3175 1.397 . S
C3176 C3177 1.334 . S
C3177 H3154 0.950 . S
C3177 C3176 1.334 . S
C3177 C3178 1.287 . S
C3178 C3177 1.287 . S
C3178 C3179 1.524 . S
C3178 H3197 0.913 . S
C3179 H3155 0.950 . S
C3179 C3178 1.524 . S
C3179 C3180 1.415 . S
C3180 H3156 0.950 . S
C3180 C3175 1.363 . S
C3180 C3179 1.415 . S
C3181 H3157 0.951 . S
C3181 C3182 1.366 . S
C3181 C3183 1.388 . S
C3182 C3181 1.366 . S
C3182 C3186 1.385 . S
C3183 H3158 0.951 . S
C3183 C3181 1.388 . S
C3183 C3184 1.366 . S
C3184 C3183 1.366 . S
C3184 C3185 1.414 . S
C3184 C3187 1.499 . S
C3185 H3159 0.950 . S
C3185 C3184 1.414 . S
C3185 C3186 1.374 . S
C3186 H3160 0.950 . S
C3186 C3182 1.385 . S
C3186 C3185 1.374 . S
C3187 C3184 1.499 . S
C3187 C3188 1.373 . S
C3187 C3189 1.389 . S
C3188 H3161 0.950 . S
C3188 C3174 1.377 . S
C3188 C3187 1.373 . S
C3189 C3173 1.377 . S
C3189 C3187 1.389 . S
C3189 C3190 1.524 . S
C3190 C3189 1.524 . S
C3190 C3191 1.397 . S
C3190 C3195 1.363 . S
C3191 H3162 0.950 . S
C3191 C3190 1.397 . S
C3191 C3192 1.334 . S
C3192 H3163 0.950 . S
C3192 C3191 1.334 . S
C3192 C3193 1.287 . S
C3193 C3192 1.287 . S
C3193 C3194 1.524 . S
C3193 H3196 0.999 . S
C3194 H3164 0.950 . S
C3194 C3193 1.524 . S
C3194 C3195 1.415 . S
C3195 H3165 0.950 . S
C3195 C3190 1.363 . S
C3195 C3194 1.415 . S
H3196 C3193 0.999 . S
H3197 C3178 0.913 . S
H3198 C3216 0.951 . S
H3199 C3218 0.951 . S
H3200 C3220 0.950 . S
H3201 C3221 0.950 . S
H3202 C3223 0.950 . S
H3203 C3226 0.950 . S
H3204 C3227 0.950 . S
H3205 C3229 0.950 . S
H3206 C3230 0.950 . S
H3207 C3231 0.951 . S
H3208 C3233 0.951 . S
H3209 C3235 0.950 . S
H3210 C3236 0.950 . S
H3211 C3238 0.950 . S
H3212 C3241 0.950 . S
H3213 C3242 0.950 . S
H3214 C3244 0.950 . S
H3215 C3245 0.950 . S
C3216 H3198 0.951 . S
C3216 C3217 1.366 . S
C3216 C3218 1.388 . S
C3217 C3216 1.366 . S
C3217 C3221 1.385 . S
C3218 H3199 0.951 . S
C3218 C3216 1.388 . S
C3218 C3219 1.366 . S
C3219 C3218 1.366 . S
C3219 C3220 1.414 . S
C3219 C3222 1.499 . S
C3220 H3200 0.950 . S
C3220 C3219 1.414 . S
C3220 C3221 1.374 . S
C3221 H3201 0.950 . S
C3221 C3217 1.385 . S
C3221 C3220 1.374 . S
C3222 C3219 1.499 . S
C3222 C3223 1.373 . S
C3222 C3224 1.389 . S
C3223 H3202 0.950 . S
C3223 C3222 1.373 . S
C3223 C3239 1.377 . S
C3224 C3222 1.389 . S
C3224 C3225 1.524 . S
C3224 C3238 1.377 . S
C3225 C3224 1.524 . S
C3225 C3226 1.397 . S
C3225 C3230 1.363 . S
C3226 H3203 0.950 . S
C3226 C3225 1.397 . S
C3226 C3227 1.334 . S
C3227 H3204 0.950 . S
C3227 C3226 1.334 . S
C3227 C3228 1.287 . S
C3228 C3227 1.287 . S
C3228 C3229 1.524 . S
C3228 H3247 0.913 . S
C3229 H3205 0.950 . S
C3229 C3228 1.524 . S
C3229 C3230 1.415 . S
C3230 H3206 0.950 . S
C3230 C3225 1.363 . S
C3230 C3229 1.415 . S
C3231 H3207 0.951 . S
C3231 C3232 1.366 . S
C3231 C3233 1.388 . S
C3232 C3231 1.366 . S
C3232 C3236 1.385 . S
C3233 H3208 0.951 . S
C3233 C3231 1.388 . S
C3233 C3234 1.366 . S
C3234 C3233 1.366 . S
C3234 C3235 1.414 . S
C3234 C3237 1.499 . S
C3235 H3209 0.950 . S
C3235 C3234 1.414 . S
C3235 C3236 1.374 . S
C3236 H3210 0.950 . S
C3236 C3232 1.385 . S
C3236 C3235 1.374 . S
C3237 C3234 1.499 . S
C3237 C3238 1.373 . S
C3237 C3239 1.389 . S
C3238 H3211 0.950 . S
C3238 C3224 1.377 . S
C3238 C3237 1.373 . S
C3239 C3223 1.377 . S
C3239 C3237 1.389 . S
C3239 C3240 1.524 . S
C3240 C3239 1.524 . S
C3240 C3241 1.397 . S
C3240 C3245 1.363 . S
C3241 H3212 0.950 . S
C3241 C3240 1.397 . S
C3241 C3242 1.334 . S
C3242 H3213 0.950 . S
C3242 C3241 1.334 . S
C3242 C3243 1.287 . S
C3243 C3242 1.287 . S
C3243 C3244 1.524 . S
C3243 H3246 0.999 . S
C3244 H3214 0.950 . S
C3244 C3243 1.524 . S
C3244 C3245 1.415 . S
C3245 H3215 0.950 . S
C3245 C3240 1.363 . S
C3245 C3244 1.415 . S
H3246 C3243 0.999 . S
H3247 C3228 0.913 . S
H3248 C3266 0.951 . S
H3249 C3268 0.951 . S
H3250 C3270 0.950 . S
H3251 C3271 0.950 . S
H3252 C3273 0.950 . S
H3253 C3276 0.950 . S
H3254 C3277 0.950 . S
H3255 C3279 0.950 . S
H3256 C3280 0.950 . S
H3257 C3281 0.951 . S
H3258 C3283 0.951 . S
H3259 C3285 0.950 . S
H3260 C3286 0.950 . S
H3261 C3288 0.950 . S
H3262 C3291 0.950 . S
H3263 C3292 0.950 . S
H3264 C3294 0.950 . S
H3265 C3295 0.950 . S
C3266 H3248 0.951 . S
C3266 C3267 1.366 . S
C3266 C3268 1.388 . S
C3267 C3266 1.366 . S
C3267 C3271 1.385 . S
C3268 H3249 0.951 . S
C3268 C3266 1.388 . S
C3268 C3269 1.366 . S
C3269 C3268 1.366 . S
C3269 C3270 1.414 . S
C3269 C3272 1.499 . S
C3270 H3250 0.950 . S
C3270 C3269 1.414 . S
C3270 C3271 1.374 . S
C3271 H3251 0.950 . S
C3271 C3267 1.385 . S
C3271 C3270 1.374 . S
C3272 C3269 1.499 . S
C3272 C3273 1.373 . S
C3272 C3274 1.389 . S
C3273 H3252 0.950 . S
C3273 C3272 1.373 . S
C3273 C3289 1.377 . S
C3274 C3272 1.389 . S
C3274 C3275 1.524 . S
C3274 C3288 1.377 . S
C3275 C3274 1.524 . S
C3275 C3276 1.397 . S
C3275 C3280 1.363 . S
C3276 H3253 0.950 . S
C3276 C3275 1.397 . S
C3276 C3277 1.334 . S
C3277 H3254 0.950 . S
C3277 C3276 1.334 . S
C3277 C3278 1.287 . S
C3278 C3277 1.287 . S
C3278 C3279 1.524 . S
C3278 H3297 0.913 . S
C3279 H3255 0.950 . S
C3279 C3278 1.524 . S
C3279 C3280 1.415 . S
C3280 H3256 0.950 . S
C3280 C3275 1.363 . S
C3280 C3279 1.415 . S
C3281 H3257 0.951 . S
C3281 C3282 1.366 . S
C3281 C3283 1.388 . S
C3282 C3281 1.366 . S
C3282 C3286 1.385 . S
C3283 H3258 0.951 . S
C3283 C3281 1.388 . S
C3283 C3284 1.366 . S
C3284 C3283 1.366 . S
C3284 C3285 1.414 . S
C3284 C3287 1.499 . S
C3285 H3259 0.950 . S
C3285 C3284 1.414 . S
C3285 C3286 1.374 . S
C3286 H3260 0.950 . S
C3286 C3282 1.385 . S
C3286 C3285 1.374 . S
C3287 C3284 1.499 . S
C3287 C3288 1.373 . S
C3287 C3289 1.389 . S
C3288 H3261 0.950 . S
C3288 C3274 1.377 . S
C3288 C3287 1.373 . S
C3289 C3273 1.377 . S
C3289 C3287 1.389 . S
C3289 C3290 1.524 . S
C3290 C3289 1.524 . S
C3290 C3291 1.397 . S
C3290 C3295 1.363 . S
C3291 H3262 0.950 . S
C3291 C3290 1.397 . S
C3291 C3292 1.334 . S
C3292 H3263 0.950 . S
C3292 C3291 1.334 . S
C3292 C3293 1.287 . S
C3293 C3292 1.287 . S
C3293 C3294 1.524 . S
C3293 H3296 0.999 . S
C3294 H3264 0.950 . S
C3294 C3293 1.524 . S
C3294 C3295 1.415 . S
C3295 H3265 0.950 . S
C3295 C3290 1.363 . S
C3295 C3294 1.415 . S
H3296 C3293 0.999 . S
H3297 C3278 0.913 . S
H3298 C3316 0.951 . S
H3299 C3318 0.951 . S
H3300 C3320 0.950 . S
H3301 C3321 0.950 . S
H3302 C3323 0.950 . S
H3303 C3326 0.950 . S
H3304 C3327 0.950 . S
H3305 C3329 0.950 . S
H3306 C3330 0.950 . S
H3307 C3331 0.951 . S
H3308 C3333 0.951 . S
H3309 C3335 0.950 . S
H3310 C3336 0.950 . S
H3311 C3338 0.950 . S
H3312 C3341 0.950 . S
H3313 C3342 0.950 . S
H3314 C3344 0.950 . S
H3315 C3345 0.950 . S
C3316 H3298 0.951 . S
C3316 C3317 1.366 . S
C3316 C3318 1.388 . S
C3317 C3316 1.366 . S
C3317 C3321 1.385 . S
C3318 H3299 0.951 . S
C3318 C3316 1.388 . S
C3318 C3319 1.366 . S
C3319 C3318 1.366 . S
C3319 C3320 1.414 . S
C3319 C3322 1.499 . S
C3320 H3300 0.950 . S
C3320 C3319 1.414 . S
C3320 C3321 1.374 . S
C3321 H3301 0.950 . S
C3321 C3317 1.385 . S
C3321 C3320 1.374 . S
C3322 C3319 1.499 . S
C3322 C3323 1.373 . S
C3322 C3324 1.389 . S
C3323 H3302 0.950 . S
C3323 C3322 1.373 . S
C3323 C3339 1.377 . S
C3324 C3322 1.389 . S
C3324 C3325 1.524 . S
C3324 C3338 1.377 . S
C3325 C3324 1.524 . S
C3325 C3326 1.397 . S
C3325 C3330 1.363 . S
C3326 H3303 0.950 . S
C3326 C3325 1.397 . S
C3326 C3327 1.334 . S
C3327 H3304 0.950 . S
C3327 C3326 1.334 . S
C3327 C3328 1.287 . S
C3328 C3327 1.287 . S
C3328 C3329 1.524 . S
C3328 H3347 0.913 . S
C3329 H3305 0.950 . S
C3329 C3328 1.524 . S
C3329 C3330 1.415 . S
C3330 H3306 0.950 . S
C3330 C3325 1.363 . S
C3330 C3329 1.415 . S
C3331 H3307 0.951 . S
C3331 C3332 1.366 . S
C3331 C3333 1.388 . S
C3332 C3331 1.366 . S
C3332 C3336 1.385 . S
C3333 H3308 0.951 . S
C3333 C3331 1.388 . S
C3333 C3334 1.366 . S
C3334 C3333 1.366 . S
C3334 C3335 1.414 . S
C3334 C3337 1.499 . S
C3335 H3309 0.950 . S
C3335 C3334 1.414 . S
C3335 C3336 1.374 . S
C3336 H3310 0.950 . S
C3336 C3332 1.385 . S
C3336 C3335 1.374 . S
C3337 C3334 1.499 . S
C3337 C3338 1.373 . S
C3337 C3339 1.389 . S
C3338 H3311 0.950 . S
C3338 C3324 1.377 . S
C3338 C3337 1.373 . S
C3339 C3323 1.377 . S
C3339 C3337 1.389 . S
C3339 C3340 1.524 . S
C3340 C3339 1.524 . S
C3340 C3341 1.397 . S
C3340 C3345 1.363 . S
C3341 H3312 0.950 . S
C3341 C3340 1.397 . S
C3341 C3342 1.334 . S
C3342 H3313 0.950 . S
C3342 C3341 1.334 . S
C3342 C3343 1.287 . S
C3343 C3342 1.287 . S
C3343 C3344 1.524 . S
C3343 H3346 0.999 . S
C3344 H3314 0.950 . S
C3344 C3343 1.524 . S
C3344 C3345 1.415 . S
C3345 H3315 0.950 . S
C3345 C3340 1.363 . S
C3345 C3344 1.415 . S
H3346 C3343 0.999 . S
H3347 C3328 0.913 . S
H3348 C3366 0.951 . S
H3349 C3368 0.951 . S
H3350 C3370 0.950 . S
H3351 C3371 0.950 . S
H3352 C3373 0.950 . S
H3353 C3376 0.950 . S
H3354 C3377 0.950 . S
H3355 C3379 0.950 . S
H3356 C3380 0.950 . S
H3357 C3381 0.951 . S
H3358 C3383 0.951 . S
H3359 C3385 0.950 . S
H3360 C3386 0.950 . S
H3361 C3388 0.950 . S
H3362 C3391 0.950 . S
H3363 C3392 0.950 . S
H3364 C3394 0.950 . S
H3365 C3395 0.950 . S
C3366 H3348 0.951 . S
C3366 C3367 1.366 . S
C3366 C3368 1.388 . S
C3367 C3366 1.366 . S
C3367 C3371 1.385 . S
C3368 H3349 0.951 . S
C3368 C3366 1.388 . S
C3368 C3369 1.366 . S
C3369 C3368 1.366 . S
C3369 C3370 1.414 . S
C3369 C3372 1.499 . S
C3370 H3350 0.950 . S
C3370 C3369 1.414 . S
C3370 C3371 1.374 . S
C3371 H3351 0.950 . S
C3371 C3367 1.385 . S
C3371 C3370 1.374 . S
C3372 C3369 1.499 . S
C3372 C3373 1.373 . S
C3372 C3374 1.389 . S
C3373 H3352 0.950 . S
C3373 C3372 1.373 . S
C3373 C3389 1.377 . S
C3374 C3372 1.389 . S
C3374 C3375 1.524 . S
C3374 C3388 1.377 . S
C3375 C3374 1.524 . S
C3375 C3376 1.397 . S
C3375 C3380 1.363 . S
C3376 H3353 0.950 . S
C3376 C3375 1.397 . S
C3376 C3377 1.334 . S
C3377 H3354 0.950 . S
C3377 C3376 1.334 . S
C3377 C3378 1.287 . S
C3378 C3377 1.287 . S
C3378 C3379 1.524 . S
C3378 H3397 0.913 . S
C3379 H3355 0.950 . S
C3379 C3378 1.524 . S
C3379 C3380 1.415 . S
C3380 H3356 0.950 . S
C3380 C3375 1.363 . S
C3380 C3379 1.415 . S
C3381 H3357 0.951 . S
C3381 C3382 1.366 . S
C3381 C3383 1.388 . S
C3382 C3381 1.366 . S
C3382 C3386 1.385 . S
C3383 H3358 0.951 . S
C3383 C3381 1.388 . S
C3383 C3384 1.366 . S
C3384 C3383 1.366 . S
C3384 C3385 1.414 . S
C3384 C3387 1.499 . S
C3385 H3359 0.950 . S
C3385 C3384 1.414 . S
C3385 C3386 1.374 . S
C3386 H3360 0.950 . S
C3386 C3382 1.385 . S
C3386 C3385 1.374 . S
C3387 C3384 1.499 . S
C3387 C3388 1.373 . S
C3387 C3389 1.389 . S
C3388 H3361 0.950 . S
C3388 C3374 1.377 . S
C3388 C3387 1.373 . S
C3389 C3373 1.377 . S
C3389 C3387 1.389 . S
C3389 C3390 1.524 . S
C3390 C3389 1.524 . S
C3390 C3391 1.397 . S
C3390 C3395 1.363 . S
C3391 H3362 0.950 . S
C3391 C3390 1.397 . S
C3391 C3392 1.334 . S
C3392 H3363 0.950 . S
C3392 C3391 1.334 . S
C3392 C3393 1.287 . S
C3393 C3392 1.287 . S
C3393 C3394 1.524 . S
C3393 H3396 0.999 . S
C3394 H3364 0.950 . S
C3394 C3393 1.524 . S
C3394 C3395 1.415 . S
C3395 H3365 0.950 . S
C3395 C3390 1.363 . S
C3395 C3394 1.415 . S
H3396 C3393 0.999 . S
H3397 C3378 0.913 . S
H3398 C3416 0.951 . S
H3399 C3418 0.951 . S
H3400 C3420 0.950 . S
H3401 C3421 0.950 . S
H3402 C3423 0.950 . S
H3403 C3426 0.950 . S
H3404 C3427 0.950 . S
H3405 C3429 0.950 . S
H3406 C3430 0.950 . S
H3407 C3431 0.951 . S
H3408 C3433 0.951 . S
H3409 C3435 0.950 . S
H3410 C3436 0.950 . S
H3411 C3438 0.950 . S
H3412 C3441 0.950 . S
H3413 C3442 0.950 . S
H3414 C3444 0.950 . S
H3415 C3445 0.950 . S
C3416 H3398 0.951 . S
C3416 C3417 1.366 . S
C3416 C3418 1.388 1_655 S
C3417 C3416 1.366 . S
C3417 C3421 1.385 1_655 S
C3418 H3399 0.951 . S
C3418 C3416 1.388 1_455 S
C3418 C3419 1.366 . S
C3419 C3418 1.366 . S
C3419 C3420 1.414 . S
C3419 C3422 1.499 . S
C3420 H3400 0.950 . S
C3420 C3419 1.414 . S
C3420 C3421 1.374 . S
C3421 H3401 0.950 . S
C3421 C3417 1.385 1_455 S
C3421 C3420 1.374 . S
C3422 C3419 1.499 . S
C3422 C3423 1.373 . S
C3422 C3424 1.389 . S
C3423 H3402 0.950 . S
C3423 C3422 1.373 . S
C3423 C3439 1.377 . S
C3424 C3422 1.389 . S
C3424 C3425 1.524 . S
C3424 C3438 1.377 . S
C3425 C3424 1.524 . S
C3425 C3426 1.397 . S
C3425 C3430 1.363 . S
C3426 H3403 0.950 . S
C3426 C3425 1.397 . S
C3426 C3427 1.334 . S
C3427 H3404 0.950 . S
C3427 C3426 1.334 . S
C3427 C3428 1.287 . S
C3428 C3427 1.287 . S
C3428 C3429 1.524 . S
C3428 H3447 0.924 . S
C3429 H3405 0.950 . S
C3429 C3428 1.524 . S
C3429 C3430 1.415 . S
C3430 H3406 0.950 . S
C3430 C3425 1.363 . S
C3430 C3429 1.415 . S
C3431 H3407 0.951 . S
C3431 C3432 1.366 . S
C3431 C3433 1.388 . S
C3432 C3431 1.366 . S
C3432 C3436 1.385 . S
C3433 H3408 0.951 . S
C3433 C3431 1.388 . S
C3433 C3434 1.366 . S
C3434 C3433 1.366 . S
C3434 C3435 1.414 . S
C3434 C3437 1.499 . S
C3435 H3409 0.950 . S
C3435 C3434 1.414 . S
C3435 C3436 1.374 . S
C3436 H3410 0.950 . S
C3436 C3432 1.385 . S
C3436 C3435 1.374 . S
C3437 C3434 1.499 . S
C3437 C3438 1.373 . S
C3437 C3439 1.389 . S
C3438 H3411 0.950 . S
C3438 C3424 1.377 . S
C3438 C3437 1.373 . S
C3439 C3423 1.377 . S
C3439 C3437 1.389 . S
C3439 C3440 1.524 . S
C3440 C3439 1.524 . S
C3440 C3441 1.397 . S
C3440 C3445 1.363 . S
C3441 H3412 0.950 . S
C3441 C3440 1.397 . S
C3441 C3442 1.334 . S
C3442 H3413 0.950 . S
C3442 C3441 1.334 . S
C3442 C3443 1.287 . S
C3443 C3442 1.287 . S
C3443 C3444 1.524 . S
C3443 H3446 0.999 . S
C3444 H3414 0.950 . S
C3444 C3443 1.524 . S
C3444 C3445 1.415 . S
C3445 H3415 0.950 . S
C3445 C3440 1.363 . S
C3445 C3444 1.415 . S
H3446 C3443 0.999 . S
H3447 C3428 0.924 . S
H3448 C3466 0.951 . S
H3449 C3468 0.951 . S
H3450 C3470 0.950 . S
H3451 C3471 0.950 . S
H3452 C3473 0.950 . S
H3453 C3476 0.950 . S
H3454 C3477 0.950 . S
H3455 C3479 0.950 . S
H3456 C3480 0.950 . S
H3457 C3481 0.951 . S
H3458 C3483 0.951 . S
H3459 C3485 0.950 . S
H3460 C3486 0.950 . S
H3461 C3488 0.950 . S
H3462 C3491 0.950 . S
H3463 C3492 0.950 . S
H3464 C3494 0.950 . S
H3465 C3495 0.950 . S
C3466 H3448 0.951 . S
C3466 C3467 1.366 . S
C3466 C3468 1.388 . S
C3467 C3466 1.366 . S
C3467 C3471 1.385 . S
C3468 H3449 0.951 . S
C3468 C3466 1.388 . S
C3468 C3469 1.366 . S
C3469 C3468 1.366 . S
C3469 C3470 1.414 . S
C3469 C3472 1.499 . S
C3470 H3450 0.950 . S
C3470 C3469 1.414 . S
C3470 C3471 1.374 . S
C3471 H3451 0.950 . S
C3471 C3467 1.385 . S
C3471 C3470 1.374 . S
C3472 C3469 1.499 . S
C3472 C3473 1.373 . S
C3472 C3474 1.389 . S
C3473 H3452 0.950 . S
C3473 C3472 1.373 . S
C3473 C3489 1.377 . S
C3474 C3472 1.389 . S
C3474 C3475 1.524 . S
C3474 C3488 1.377 . S
C3475 C3474 1.524 . S
C3475 C3476 1.397 . S
C3475 C3480 1.363 . S
C3476 H3453 0.950 . S
C3476 C3475 1.397 . S
C3476 C3477 1.334 . S
C3477 H3454 0.950 . S
C3477 C3476 1.334 . S
C3477 C3478 1.287 . S
C3478 C3477 1.287 . S
C3478 C3479 1.524 . S
C3478 H3497 0.913 . S
C3479 H3455 0.950 . S
C3479 C3478 1.524 . S
C3479 C3480 1.415 . S
C3480 H3456 0.950 . S
C3480 C3475 1.363 . S
C3480 C3479 1.415 . S
C3481 H3457 0.951 . S
C3481 C3482 1.366 . S
C3481 C3483 1.388 . S
C3482 C3481 1.366 . S
C3482 C3486 1.385 . S
C3483 H3458 0.951 . S
C3483 C3481 1.388 . S
C3483 C3484 1.366 . S
C3484 C3483 1.366 . S
C3484 C3485 1.414 . S
C3484 C3487 1.499 . S
C3485 H3459 0.950 . S
C3485 C3484 1.414 . S
C3485 C3486 1.374 . S
C3486 H3460 0.950 . S
C3486 C3482 1.385 . S
C3486 C3485 1.374 . S
C3487 C3484 1.499 . S
C3487 C3488 1.373 . S
C3487 C3489 1.389 . S
C3488 H3461 0.950 . S
C3488 C3474 1.377 . S
C3488 C3487 1.373 . S
C3489 C3473 1.377 . S
C3489 C3487 1.389 . S
C3489 C3490 1.524 . S
C3490 C3489 1.524 . S
C3490 C3491 1.397 . S
C3490 C3495 1.363 . S
C3491 H3462 0.950 . S
C3491 C3490 1.397 . S
C3491 C3492 1.334 . S
C3492 H3463 0.950 . S
C3492 C3491 1.334 . S
C3492 C3493 1.287 . S
C3493 C3492 1.287 . S
C3493 C3494 1.524 . S
C3493 H3496 0.999 . S
C3494 H3464 0.950 . S
C3494 C3493 1.524 . S
C3494 C3495 1.415 . S
C3495 H3465 0.950 . S
C3495 C3490 1.363 . S
C3495 C3494 1.415 . S
H3496 C3493 0.999 . S
H3497 C3478 0.913 . S
H3498 C3516 0.951 . S
H3499 C3518 0.951 . S
H3500 C3520 0.950 . S
H3501 C3521 0.950 . S
H3502 C3523 0.950 . S
H3503 C3526 0.950 . S
H3504 C3527 0.950 . S
H3505 C3529 0.950 . S
H3506 C3530 0.950 . S
H3507 C3531 0.951 . S
H3508 C3533 0.951 . S
H3509 C3535 0.950 . S
H3510 C3536 0.962 . S
H3511 C3538 0.950 . S
H3512 C3541 0.950 . S
H3513 C3542 0.950 1_655 S
H3514 C3544 0.950 . S
H3515 C3545 0.950 . S
C3516 H3498 0.951 . S
C3516 C3517 1.366 . S
C3516 C3518 1.388 . S
C3517 C3516 1.366 . S
C3517 C3521 1.385 . S
C3518 H3499 0.951 . S
C3518 C3516 1.388 . S
C3518 C3519 1.366 . S
C3519 C3518 1.366 . S
C3519 C3520 1.414 . S
C3519 C3522 1.499 . S
C3520 H3500 0.950 . S
C3520 C3519 1.414 . S
C3520 C3521 1.374 . S
C3521 H3501 0.950 . S
C3521 C3517 1.385 . S
C3521 C3520 1.374 . S
C3522 C3519 1.499 . S
C3522 C3523 1.373 . S
C3522 C3524 1.389 . S
C3523 H3502 0.950 . S
C3523 C3522 1.373 . S
C3523 C3539 1.377 . S
C3524 C3522 1.389 . S
C3524 C3525 1.524 . S
C3524 C3538 1.377 . S
C3525 C3524 1.524 . S
C3525 C3526 1.397 . S
C3525 C3530 1.363 . S
C3526 H3503 0.950 . S
C3526 C3525 1.397 . S
C3526 C3527 1.334 . S
C3527 H3504 0.950 . S
C3527 C3526 1.334 . S
C3527 C3528 1.287 . S
C3528 C3527 1.287 . S
C3528 C3529 1.524 . S
C3528 H3547 0.913 . S
C3529 H3505 0.950 . S
C3529 C3528 1.524 . S
C3529 C3530 1.415 . S
C3530 H3506 0.950 . S
C3530 C3525 1.363 . S
C3530 C3529 1.415 . S
C3531 H3507 0.951 . S
C3531 C3532 1.366 1_455 S
C3531 C3533 1.388 . S
C3532 C3531 1.366 1_655 S
C3532 C3536 1.389 . S
C3533 H3508 0.951 . S
C3533 C3531 1.388 . S
C3533 C3534 1.366 . S
C3534 C3533 1.366 . S
C3534 C3535 1.414 . S
C3534 C3537 1.499 . S
C3535 H3509 0.950 . S
C3535 C3534 1.414 . S
C3535 C3536 1.358 1_455 S
C3536 H3510 0.962 . S
C3536 C3532 1.389 . S
C3536 C3535 1.358 1_655 S
C3537 C3534 1.499 . S
C3537 C3538 1.373 . S
C3537 C3539 1.389 . S
C3538 H3511 0.950 . S
C3538 C3524 1.377 . S
C3538 C3537 1.373 . S
C3539 C3523 1.377 . S
C3539 C3537 1.389 . S
C3539 C3540 1.524 . S
C3540 C3539 1.524 . S
C3540 C3541 1.397 . S
C3540 C3545 1.363 . S
C3541 H3512 0.950 . S
C3541 C3540 1.397 . S
C3541 C3542 1.334 . S
C3542 H3513 0.950 1_455 S
C3542 C3541 1.334 . S
C3542 C3543 1.287 . S
C3543 C3542 1.287 . S
C3543 C3544 1.524 . S
C3543 H3546 0.999 . S
C3544 H3514 0.950 . S
C3544 C3543 1.524 . S
C3544 C3545 1.415 . S
C3545 H3515 0.950 . S
C3545 C3540 1.363 . S
C3545 C3544 1.415 . S
H3546 C3543 0.999 . S
H3547 C3528 0.913 . S
H3548 C3566 0.951 . S
H3549 C3568 0.951 . S
H3550 C3570 0.950 . S
H3551 C3571 0.950 . S
H3552 C3573 0.950 . S
H3553 C3576 0.950 . S
H3554 C3577 0.950 . S
H3555 C3579 0.950 . S
H3556 C3580 0.950 . S
H3557 C3581 0.951 . S
H3558 C3583 0.951 . S
H3559 C3585 0.950 . S
H3560 C3586 0.950 . S
H3561 C3588 0.950 . S
H3562 C3591 0.950 . S
H3563 C3592 0.950 . S
H3564 C3594 0.950 . S
H3565 C3595 0.950 . S
C3566 H3548 0.951 . S
C3566 C3567 1.366 . S
C3566 C3568 1.388 . S
C3567 C3566 1.366 . S
C3567 C3571 1.385 . S
C3568 H3549 0.951 . S
C3568 C3566 1.388 . S
C3568 C3569 1.366 . S
C3569 C3568 1.366 . S
C3569 C3570 1.414 . S
C3569 C3572 1.499 . S
C3570 H3550 0.950 . S
C3570 C3569 1.414 . S
C3570 C3571 1.374 . S
C3571 H3551 0.950 . S
C3571 C3567 1.385 . S
C3571 C3570 1.374 . S
C3572 C3569 1.499 . S
C3572 C3573 1.373 . S
C3572 C3574 1.389 . S
C3573 H3552 0.950 . S
C3573 C3572 1.373 . S
C3573 C3589 1.377 . S
C3574 C3572 1.389 . S
C3574 C3575 1.524 . S
C3574 C3588 1.377 . S
C3575 C3574 1.524 . S
C3575 C3576 1.397 . S
C3575 C3580 1.363 . S
C3576 H3553 0.950 . S
C3576 C3575 1.397 . S
C3576 C3577 1.334 . S
C3577 H3554 0.950 . S
C3577 C3576 1.334 . S
C3577 C3578 1.287 . S
C3578 C3577 1.287 . S
C3578 C3579 1.524 . S
C3578 H3597 0.913 . S
C3579 H3555 0.950 . S
C3579 C3578 1.524 . S
C3579 C3580 1.415 . S
C3580 H3556 0.950 . S
C3580 C3575 1.363 . S
C3580 C3579 1.415 . S
C3581 H3557 0.951 . S
C3581 C3582 1.366 . S
C3581 C3583 1.388 . S
C3582 C3581 1.366 . S
C3582 C3586 1.385 . S
C3583 H3558 0.951 . S
C3583 C3581 1.388 . S
C3583 C3584 1.366 . S
C3584 C3583 1.366 . S
C3584 C3585 1.414 . S
C3584 C3587 1.499 . S
C3585 H3559 0.950 . S
C3585 C3584 1.414 . S
C3585 C3586 1.374 . S
C3586 H3560 0.950 . S
C3586 C3582 1.385 . S
C3586 C3585 1.374 . S
C3587 C3584 1.499 . S
C3587 C3588 1.373 . S
C3587 C3589 1.389 . S
C3588 H3561 0.950 . S
C3588 C3574 1.377 . S
C3588 C3587 1.373 . S
C3589 C3573 1.377 . S
C3589 C3587 1.389 . S
C3589 C3590 1.524 . S
C3590 C3589 1.524 . S
C3590 C3591 1.397 . S
C3590 C3595 1.363 . S
C3591 H3562 0.950 . S
C3591 C3590 1.397 . S
C3591 C3592 1.334 . S
C3592 H3563 0.950 . S
C3592 C3591 1.334 . S
C3592 C3593 1.287 . S
C3593 C3592 1.287 . S
C3593 C3594 1.524 . S
C3593 H3596 0.999 . S
C3594 H3564 0.950 . S
C3594 C3593 1.524 . S
C3594 C3595 1.415 . S
C3595 H3565 0.950 . S
C3595 C3590 1.363 . S
C3595 C3594 1.415 . S
H3596 C3593 0.999 . S
H3597 C3578 0.913 . S
H3598 C3616 0.951 . S
H3599 C3618 0.951 . S
H3600 C3620 0.950 . S
H3601 C3621 0.950 . S
H3602 C3623 0.950 . S
H3603 C3626 0.950 . S
H3604 C3627 0.950 . S
H3605 C3629 0.950 . S
H3606 C3630 0.950 . S
H3607 C3631 0.951 . S
H3608 C3633 0.951 . S
H3609 C3635 0.950 . S
H3610 C3636 0.950 . S
H3611 C3638 0.950 . S
H3612 C3641 0.950 . S
H3613 C3642 0.950 . S
H3614 C3644 0.950 . S
H3615 C3645 0.950 . S
C3616 H3598 0.951 . S
C3616 C3617 1.366 . S
C3616 C3618 1.388 . S
C3617 C3616 1.366 . S
C3617 C3621 1.385 . S
C3618 H3599 0.951 . S
C3618 C3616 1.388 . S
C3618 C3619 1.366 . S
C3619 C3618 1.366 . S
C3619 C3620 1.414 . S
C3619 C3622 1.499 . S
C3620 H3600 0.950 . S
C3620 C3619 1.414 . S
C3620 C3621 1.374 . S
C3621 H3601 0.950 . S
C3621 C3617 1.385 . S
C3621 C3620 1.374 . S
C3622 C3619 1.499 . S
C3622 C3623 1.373 . S
C3622 C3624 1.389 . S
C3623 H3602 0.950 . S
C3623 C3622 1.373 . S
C3623 C3639 1.377 . S
C3624 C3622 1.389 . S
C3624 C3625 1.524 . S
C3624 C3638 1.377 . S
C3625 C3624 1.524 . S
C3625 C3626 1.397 . S
C3625 C3630 1.363 . S
C3626 H3603 0.950 . S
C3626 C3625 1.397 . S
C3626 C3627 1.334 . S
C3627 H3604 0.950 . S
C3627 C3626 1.334 . S
C3627 C3628 1.287 . S
C3628 C3627 1.287 . S
C3628 C3629 1.524 . S
C3628 H3647 0.913 . S
C3629 H3605 0.950 . S
C3629 C3628 1.524 . S
C3629 C3630 1.415 . S
C3630 H3606 0.950 . S
C3630 C3625 1.363 . S
C3630 C3629 1.415 . S
C3631 H3607 0.951 . S
C3631 C3632 1.366 . S
C3631 C3633 1.388 . S
C3632 C3631 1.366 . S
C3632 C3636 1.385 . S
C3633 H3608 0.951 . S
C3633 C3631 1.388 . S
C3633 C3634 1.366 . S
C3634 C3633 1.366 . S
C3634 C3635 1.414 . S
C3634 C3637 1.499 . S
C3635 H3609 0.950 . S
C3635 C3634 1.414 . S
C3635 C3636 1.374 . S
C3636 H3610 0.950 . S
C3636 C3632 1.385 . S
C3636 C3635 1.374 . S
C3637 C3634 1.499 . S
C3637 C3638 1.373 . S
C3637 C3639 1.389 . S
C3638 H3611 0.950 . S
C3638 C3624 1.377 . S
C3638 C3637 1.373 . S
C3639 C3623 1.377 . S
C3639 C3637 1.389 . S
C3639 C3640 1.524 . S
C3640 C3639 1.524 . S
C3640 C3641 1.397 . S
C3640 C3645 1.363 . S
C3641 H3612 0.950 . S
C3641 C3640 1.397 . S
C3641 C3642 1.334 . S
C3642 H3613 0.950 . S
C3642 C3641 1.334 . S
C3642 C3643 1.287 . S
C3643 C3642 1.287 . S
C3643 C3644 1.524 . S
C3643 H3646 0.999 . S
C3644 H3614 0.950 . S
C3644 C3643 1.524 . S
C3644 C3645 1.415 . S
C3645 H3615 0.950 . S
C3645 C3640 1.363 . S
C3645 C3644 1.415 . S
H3646 C3643 0.999 . S
H3647 C3628 0.913 . S
C467 C62 1.521 . S
C482 C6 1.522 . S
C517 C76 1.522 . S
C532 C20 1.521 . S
C567 C90 1.522 . S
C582 C34 1.523 . S
C617 C48 1.522 . S
C632 C104 1.523 . S
C667 C118 1.522 . S
C682 C174 1.521 . S
C717 C188 1.522 . S
C732 C132 1.522 . S
C767 C146 1.523 . S
C782 C202 1.522 . S
C817 C216 1.522 . S
C832 C160 1.521 . S
C867 C230 1.521 . S
C882 C286 1.522 . S
C917 C300 1.522 . S
C932 C244 1.522 . S
C967 C314 1.522 . S
C982 C258 1.522 . S
C1017 C328 1.522 . S
C1032 C272 1.522 . S
C1067 C342 1.522 . S
C1082 C398 1.522 . S
C1117 C356 1.522 . S
C1132 C412 1.522 . S
C1167 C370 1.522 . S
C1182 C426 1.522 . S
C1217 C384 1.522 . S
C1232 C440 1.522 . S
C1267 C8 1.800 . S
C1282 C106 1.800 . S
C1317 C22 1.799 . S
C1332 C64 1.800 . S
C1367 C36 1.800 . S
C1382 C78 1.800 . S
C1417 C92 1.800 . S
C1432 C50 1.800 . S
C1467 C218 1.800 . S
C1482 C120 1.800 . S
C1517 C176 1.800 . S
C1532 C134 1.800 . S
C1567 C190 1.800 . S
C1582 C148 1.800 . S
C1617 C162 1.800 . S
C1632 C204 1.800 . S
C1667 C330 1.799 . S
C1682 C232 1.799 . S
C1717 C288 1.800 . S
C1732 C246 1.800 . S
C1767 C302 1.800 . S
C1782 C260 1.800 . S
C1817 C274 1.800 . S
C1832 C316 1.800 . S
C1867 C344 1.800 . S
C1882 C442 1.800 . S
C1917 C358 1.799 . S
C1932 C400 1.800 . S
C1967 C372 1.800 . S
C1982 C414 1.800 . S
C2017 C428 1.800 . S
C2032 C386 1.800 . S
C2067 C9 1.396 . S
C2082 C357 1.390 . S
C2117 C23 1.396 . S
C2132 C147 1.391 . S
C2167 C37 1.397 . S
C2182 C385 1.391 . S
C2217 C119 1.390 . S
C2232 C51 1.396 . S
C2267 C441 1.390 . S
C2282 C65 1.396 . S
C2317 C79 1.396 . S
C2332 C175 1.390 . S
C2367 C93 1.396 . S
C2382 C413 1.390 . S
C2417 C107 1.396 . S
C2432 C203 1.390 . S
C2467 C245 1.391 . S
C2482 C121 1.397 . S
C2517 C35 1.390 . S
C2532 C135 1.396 . S
C2567 C273 1.391 . S
C2582 C149 1.397 . S
C2617 C163 1.397 . S
C2632 C7 1.391 . S
C2667 C329 1.391 . S
C2682 C177 1.397 . S
C2717 C63 1.390 . S
C2732 C191 1.396 . S
C2767 C301 1.390 . S
C2782 C205 1.396 . S
C2817 C91 1.391 . S
C2832 C219 1.397 . S
C2867 C133 1.390 . S
C2882 C233 1.396 . S
C2917 C247 1.397 . S
C2932 C371 1.391 . S
C2967 C261 1.396 . S
C2982 C161 1.390 . S
C3017 C275 1.397 . S
C3032 C343 1.391 . S
C3067 C289 1.397 . S
C3082 C217 1.391 . S
C3117 C399 1.390 . S
C3132 C303 1.396 . S
C3167 C317 1.396 . S
C3182 C189 1.390 . S
C3217 C331 1.397 . S
C3232 C427 1.390 . S
C3267 C345 1.396 . S
C3282 C21 1.390 . S
C3317 C359 1.396 . S
C3332 C259 1.390 . S
C3367 C49 1.390 . S
C3382 C373 1.396 . S
C3417 C231 1.391 . S
C3432 C387 1.397 . S
C3467 C401 1.396 . S
C3482 C105 1.390 . S
C3517 C415 1.397 . S
C3532 C287 1.391 . S
C3567 C77 1.391 . S
C3582 C429 1.396 . S
C3617 C315 1.390 . S
C3632 C443 1.396 . S
