# Generated by pormake.
# Topology yfl, (5)-cn, num edge types: 1
# Building blocks:
#     Node 0, Type 0, BuildingBlock: XOMCOT_clean_sbu_1, # of connection points: 5
#     Node 1, Type 0, BuildingBlock: XOMCOT_clean_sbu_1, # of connection points: 5
#     Node 2, Type 0, BuildingBlock: XOMCOT_clean_sbu_1, # of connection points: 5
#     Node 3, Type 0, BuildingBlock: XOMCOT_clean_sbu_1, # of connection points: 5
#     Node 4, Type 0, BuildingBlock: XOMCOT_clean_sbu_1, # of connection points: 5
#     Node 5, Type 0, BuildingBlock: XOMCOT_clean_sbu_1, # of connection points: 5
#     Node 6, Type 0, BuildingBlock: XOMCOT_clean_sbu_1, # of connection points: 5
#     Node 7, Type 0, BuildingBlock: XOMCOT_clean_sbu_1, # of connection points: 5
#     Node 8, Type 0, BuildingBlock: XOMCOT_clean_sbu_1, # of connection points: 5
#     Node 9, Type 0, BuildingBlock: XOMCOT_clean_sbu_1, # of connection points: 5
#     Node 10, Type 0, BuildingBlock: XOMCOT_clean_sbu_1, # of connection points: 5
#     Node 11, Type 0, BuildingBlock: XOMCOT_clean_sbu_1, # of connection points: 5
#     Node 12, Type 0, BuildingBlock: XOMCOT_clean_sbu_1, # of connection points: 5
#     Node 13, Type 0, BuildingBlock: XOMCOT_clean_sbu_1, # of connection points: 5
#     Node 14, Type 0, BuildingBlock: XOMCOT_clean_sbu_1, # of connection points: 5
#     Node 15, Type 0, BuildingBlock: XOMCOT_clean_sbu_1, # of connection points: 5
#     Edge 16, Type (0, 0), BuildingBlock: XIVTED_clean_linker_0, # of connection points: 2
#     Edge 17, Type (0, 0), BuildingBlock: XIVTED_clean_linker_0, # of connection points: 2
#     Edge 18, Type (0, 0), BuildingBlock: XIVTED_clean_linker_0, # of connection points: 2
#     Edge 19, Type (0, 0), BuildingBlock: XIVTED_clean_linker_0, # of connection points: 2
#     Edge 20, Type (0, 0), BuildingBlock: XIVTED_clean_linker_0, # of connection points: 2
#     Edge 21, Type (0, 0), BuildingBlock: XIVTED_clean_linker_0, # of connection points: 2
#     Edge 22, Type (0, 0), BuildingBlock: XIVTED_clean_linker_0, # of connection points: 2
#     Edge 23, Type (0, 0), BuildingBlock: XIVTED_clean_linker_0, # of connection points: 2
#     Edge 24, Type (0, 0), BuildingBlock: XIVTED_clean_linker_0, # of connection points: 2
#     Edge 25, Type (0, 0), BuildingBlock: XIVTED_clean_linker_0, # of connection points: 2
#     Edge 26, Type (0, 0), BuildingBlock: XIVTED_clean_linker_0, # of connection points: 2
#     Edge 27, Type (0, 0), BuildingBlock: XIVTED_clean_linker_0, # of connection points: 2
#     Edge 28, Type (0, 0), BuildingBlock: XIVTED_clean_linker_0, # of connection points: 2
#     Edge 29, Type (0, 0), BuildingBlock: XIVTED_clean_linker_0, # of connection points: 2
#     Edge 30, Type (0, 0), BuildingBlock: XIVTED_clean_linker_0, # of connection points: 2
#     Edge 31, Type (0, 0), BuildingBlock: XIVTED_clean_linker_0, # of connection points: 2
#     Edge 32, Type (0, 0), BuildingBlock: XIVTED_clean_linker_0, # of connection points: 2
#     Edge 33, Type (0, 0), BuildingBlock: XIVTED_clean_linker_0, # of connection points: 2
#     Edge 34, Type (0, 0), BuildingBlock: XIVTED_clean_linker_0, # of connection points: 2
#     Edge 35, Type (0, 0), BuildingBlock: XIVTED_clean_linker_0, # of connection points: 2
#     Edge 36, Type (0, 0), BuildingBlock: XIVTED_clean_linker_0, # of connection points: 2
#     Edge 37, Type (0, 0), BuildingBlock: XIVTED_clean_linker_0, # of connection points: 2
#     Edge 38, Type (0, 0), BuildingBlock: XIVTED_clean_linker_0, # of connection points: 2
#     Edge 39, Type (0, 0), BuildingBlock: XIVTED_clean_linker_0, # of connection points: 2
#     Edge 40, Type (0, 0), BuildingBlock: XIVTED_clean_linker_0, # of connection points: 2
#     Edge 41, Type (0, 0), BuildingBlock: XIVTED_clean_linker_0, # of connection points: 2
#     Edge 42, Type (0, 0), BuildingBlock: XIVTED_clean_linker_0, # of connection points: 2
#     Edge 43, Type (0, 0), BuildingBlock: XIVTED_clean_linker_0, # of connection points: 2
#     Edge 44, Type (0, 0), BuildingBlock: XIVTED_clean_linker_0, # of connection points: 2
#     Edge 45, Type (0, 0), BuildingBlock: XIVTED_clean_linker_0, # of connection points: 2
#     Edge 46, Type (0, 0), BuildingBlock: XIVTED_clean_linker_0, # of connection points: 2
#     Edge 47, Type (0, 0), BuildingBlock: XIVTED_clean_linker_0, # of connection points: 2
#     Edge 48, Type (0, 0), BuildingBlock: XIVTED_clean_linker_0, # of connection points: 2
#     Edge 49, Type (0, 0), BuildingBlock: XIVTED_clean_linker_0, # of connection points: 2
#     Edge 50, Type (0, 0), BuildingBlock: XIVTED_clean_linker_0, # of connection points: 2
#     Edge 51, Type (0, 0), BuildingBlock: XIVTED_clean_linker_0, # of connection points: 2
#     Edge 52, Type (0, 0), BuildingBlock: XIVTED_clean_linker_0, # of connection points: 2
#     Edge 53, Type (0, 0), BuildingBlock: XIVTED_clean_linker_0, # of connection points: 2
#     Edge 54, Type (0, 0), BuildingBlock: XIVTED_clean_linker_0, # of connection points: 2
#     Edge 55, Type (0, 0), BuildingBlock: XIVTED_clean_linker_0, # of connection points: 2
# Relax obj value: 0.506
# Max RMSD: 0.266
# Mean RMSD: 0.266
data_MOF--net-yfl--node1-XOMCOT_clean_sbu_1--edge1-XIVTED_clean_linker_0
_symmetry_space_group_name_H-M    P1
_symmetry_Int_Tables_number       1
_symmetry_cell_setting            triclinic
loop_
_symmetry_equiv_pos_as_xyz
'x, y, z'
_cell_length_a     28.256667
_cell_length_b     28.289284
_cell_length_c     107.03248
_cell_angle_alpha  90.026664
_cell_angle_beta   89.865171
_cell_angle_gamma 90.114355
loop_
_atom_site_label
_atom_site_type_symbol
_atom_site_fract_x
_atom_site_fract_y
_atom_site_fract_z
_atom_type_partial_charge
C0 C 0.01602 0.18317 0.28823 0.0
C1 C 0.98127 0.17886 0.27936 0.0
N2 N 0.95673 0.21966 0.27897 0.0
N3 N 0.01337 0.22632 0.29351 0.0
C4 C 0.97671 0.24758 0.28776 0.0
H5 H 0.04263 0.15701 0.29035 0.0
Co6 Co 0.05602 0.24983 0.30513 0.0
C7 C 1.00711 0.32996 0.31768 0.0
O8 O 0.01249 0.30806 0.32841 0.0
N9 N 0.09953 0.2737 0.31679 0.0
C10 C 0.14519 0.32472 0.32708 0.0
C11 C 0.11762 0.31804 0.31669 0.0
C12 C 0.11746 0.25392 0.32724 0.0
N13 N 0.14496 0.28426 0.33364 0.0
O14 O 0.02297 0.21375 0.31785 0.0
H15 H 0.11007 0.34446 0.30967 0.0
H16 H 0.10954 0.21868 0.33048 0.0
O17 O 0.01851 0.30843 0.30759 0.0
C18 C 0.04417 0.1737 0.31805 0.0
O19 O 0.08368 0.16948 0.31163 0.0
N20 N 0.0901 0.27799 0.29224 0.0
C21 C 0.14248 0.30245 0.27121 0.0
C22 C 0.09908 0.32454 0.27373 0.0
C23 C 0.07332 0.31183 0.28434 0.0
C24 C 0.1325 0.25667 0.29004 0.0
C25 C 0.15964 0.26877 0.27963 0.0
H26 H 0.03923 0.32786 0.28589 0.0
H27 H 0.1446 0.22905 0.29624 0.0
H28 H 0.96669 0.28386 0.28946 0.0
H29 H 0.97574 0.14849 0.27339 0.0
H30 H 0.1638 0.35675 0.32965 0.0
H31 H 0.08488 0.35096 0.26745 0.0
H32 H 0.19278 0.25067 0.27792 0.0
C33 C 0.18518 0.07799 0.68143 0.0
C34 C 0.20378 0.11519 0.68814 0.0
N35 N 0.2481 0.10374 0.69171 0.0
N36 N 0.21761 0.04324 0.68077 0.0
C37 C 0.25546 0.06012 0.68698 0.0
H38 H 0.14996 0.07622 0.67755 0.0
Co39 Co 0.21343 0.98367 0.67351 0.0
C40 C 0.29806 0.01116 0.65691 0.0
O41 O 0.27435 0.02976 0.64759 0.0
N42 N 0.20975 0.92488 0.66611 0.0
C43 C 0.18821 0.85196 0.66105 0.0
C44 C 0.18935 0.88507 0.6705 0.0
C45 C 0.22068 0.91545 0.65414 0.0
N46 N 0.20792 0.87146 0.65079 0.0
O47 O 0.17886 0.00959 0.65954 0.0
H48 H 0.17474 0.88109 0.67979 0.0
H49 H 0.23523 0.9413 0.64776 0.0
O50 O 0.27599 0.99388 0.66626 0.0
C51 C 0.13625 0.99755 0.66215 0.0
O52 O 0.1279 0.97679 0.67292 0.0
N53 N 0.24131 0.95648 0.6876 0.0
C54 C 0.27302 0.91441 0.70952 0.0
C55 C 0.29984 0.91137 0.6985 0.0
C56 C 0.28291 0.932 0.68754 0.0
C57 C 0.21455 0.95926 0.69817 0.0
C58 C 0.22977 0.93848 0.70927 0.0
H59 H 0.30267 0.92734 0.67898 0.0
H60 H 0.18099 0.97758 0.69795 0.0
H61 H 0.28712 0.03952 0.68843 0.0
H62 H 0.18537 0.14755 0.69041 0.0
H63 H 0.17368 0.8166 0.66164 0.0
H64 H 0.33295 0.89214 0.6983 0.0
H65 H 0.20808 0.94146 0.71759 0.0
C66 C 0.02457 0.82555 0.29311 0.0
C67 C 0.06339 0.82216 0.28541 0.0
N68 N 0.06776 0.77676 0.2818 0.0
N69 N 1.00462 0.78248 0.29437 0.0
C70 C 0.032 0.7534 0.28749 0.0
H71 H 0.01026 0.85795 0.29688 0.0
Co72 Co 0.94682 0.76975 0.30192 0.0
C73 C 0.98619 0.68813 0.31815 0.0
O74 O 0.99067 0.71138 0.32871 0.0
N75 N 0.88861 0.75767 0.30951 0.0
C76 C 0.81141 0.75571 0.31337 0.0
C77 C 0.84537 0.76133 0.30428 0.0
C78 C 0.88013 0.75023 0.32175 0.0
N79 N 0.83345 0.74913 0.32438 0.0
O80 O 0.96607 0.80835 0.31611 0.0
H81 H 0.83891 0.76989 0.29459 0.0
H82 H 0.90769 0.74808 0.32869 0.0
O83 O 0.97156 0.70964 0.30842 0.0
C84 C 0.94281 0.8472 0.31553 0.0
O85 O 0.91038 0.85145 0.30683 0.0
N86 N 0.92632 0.73778 0.2876 0.0
C87 C 0.88106 0.70181 0.26656 0.0
C88 C 0.88755 0.67358 0.2772 0.0
C89 C 0.91005 0.6923 0.28766 0.0
C90 C 0.92194 0.76518 0.2772 0.0
C91 C 0.89976 0.74773 0.2665 0.0
H92 H 0.91147 0.67117 0.29605 0.0
H93 H 0.93381 0.80155 0.2774 0.0
H94 H 0.02338 0.71663 0.28583 0.0
H95 H 0.08509 0.85129 0.28218 0.0
H96 H 0.7736 0.75926 0.3121 0.0
H97 H 0.87385 0.63782 0.27759 0.0
H98 H 0.89501 0.77085 0.25854 0.0
C99 C 0.79256 0.97266 0.68618 0.0
C100 C 0.78599 0.93868 0.69526 0.0
N101 N 0.73938 0.93563 0.69769 0.0
N102 N 0.75014 0.99073 0.6829 0.0
C103 C 0.71856 0.96658 0.6899 0.0
H104 H 0.82644 0.98589 0.68306 0.0
Co105 Co 0.73695 0.04572 0.67387 0.0
C106 C 0.65525 0.01823 0.65826 0.0
O107 O 0.6794 0.03059 0.64827 0.0
N108 N 0.72243 0.10128 0.66494 0.0
C109 C 0.68091 0.1604 0.65669 0.0
C110 C 0.68131 0.12557 0.66563 0.0
C111 C 0.74657 0.12276 0.65563 0.0
N112 N 0.72194 0.15819 0.65034 0.0
O113 O 0.76983 0.01941 0.65954 0.0
H114 H 0.65205 0.11686 0.67172 0.0
H115 H 0.78101 0.11213 0.65244 0.0
O116 O 0.6752 0.01992 0.66896 0.0
C117 C 0.81249 0.03409 0.66071 0.0
O118 O 0.82242 0.06283 0.67 0.0
N119 N 0.71205 0.07277 0.68834 0.0
C120 C 0.69371 0.11305 0.71157 0.0
C121 C 0.65811 0.0882 0.70518 0.0
C122 C 0.66792 0.06847 0.69346 0.0
C123 C 0.74671 0.097 0.6944 0.0
C124 C 0.73834 0.11754 0.706 0.0
H125 H 0.64036 0.04933 0.68866 0.0
H126 H 0.78153 0.09963 0.69025 0.0
H127 H 0.68111 0.97419 0.6901 0.0
H128 H 0.81354 0.92128 0.70054 0.0
H129 H 0.65154 0.18351 0.65456 0.0
H130 H 0.62304 0.08433 0.70916 0.0
H131 H 0.76692 0.13594 0.71067 0.0
C132 C 0.0221 0.3295 0.94412 0.0
C133 C 0.9807 0.3181 0.95022 0.0
N134 N 0.96925 0.27305 0.94737 0.0
N135 N 0.03669 0.29184 0.93748 0.0
C136 C 1.00318 0.25855 0.93935 0.0
H137 H 0.04221 0.36179 0.94522 0.0
Co138 Co 0.09591 0.286 0.93023 0.0
C139 C 0.10547 0.18698 0.92232 0.0
O140 O 0.14836 0.18956 0.92699 0.0
N141 N 0.15595 0.28102 0.92247 0.0
C142 C 0.2312 0.27817 0.91622 0.0
C143 C 0.20145 0.28411 0.92634 0.0
C144 C 0.15932 0.27372 0.91004 0.0
N145 N 0.20429 0.27194 0.906 0.0
O146 O 0.0739 0.3218 0.91609 0.0
H147 H 0.213 0.29033 0.93579 0.0
H148 H 0.12896 0.26882 0.90403 0.0
O149 O 0.07853 0.22358 0.92273 0.0
C150 C 0.09219 0.36271 0.91775 0.0
O151 O 0.11863 0.36954 0.92768 0.0
N152 N 0.11721 0.25783 0.94508 0.0
C153 C 0.14183 0.23457 0.96964 0.0
C154 C 0.112 0.20501 0.96258 0.0
C155 C 0.10005 0.21728 0.95036 0.0
C156 C 0.14363 0.28825 0.95204 0.0
C157 C 0.15769 0.27674 0.96412 0.0
H158 H 0.07531 0.195 0.94546 0.0
H159 H 0.15335 0.3223 0.94822 0.0
H160 H 1.00539 0.22312 0.93563 0.0
H161 H 0.96303 0.33984 0.95712 0.0
H162 H 0.26948 0.27933 0.91633 0.0
H163 H 0.09663 0.17326 0.96651 0.0
H164 H 0.18063 0.3011 0.96901 0.0
C165 C 0.33625 0.0475 0.04626 0.0
C166 C 0.32913 0.09194 0.04141 0.0
N167 N 0.28591 0.10713 0.04497 0.0
N168 N 0.29776 0.0347 0.05287 0.0
C169 C 0.2688 0.07249 0.05239 0.0
H170 H 0.36508 0.02405 0.0439 0.0
Co171 Co 0.28256 0.97301 0.05732 0.0
C172 C 0.19608 0.98447 0.07352 0.0
O173 O 0.21673 0.96428 0.08312 0.0
N174 N 0.26622 0.91063 0.06174 0.0
C175 C 0.22287 0.8453 0.06351 0.0
C176 C 0.22543 0.88932 0.05828 0.0
C177 C 0.28776 0.87857 0.06916 0.0
N178 N 0.26205 0.83854 0.07039 0.0
O179 O 0.31547 0.9827 0.07293 0.0
H180 H 0.1981 0.90548 0.05268 0.0
H181 H 0.32091 0.88463 0.07388 0.0
O182 O 0.21993 0.99234 0.06358 0.0
C183 C 0.35757 0.96892 0.07033 0.0
O184 O 0.36524 0.94901 0.05942 0.0
N185 N 0.25722 0.96326 0.0414 0.0
C186 C 0.22364 0.93817 0.01784 0.0
C187 C 0.20273 0.97531 0.0246 0.0
C188 C 0.21991 0.98713 0.03641 0.0
C189 C 0.2803 0.92974 0.03462 0.0
C190 C 0.26362 0.91597 0.02293 0.0
H191 H 0.20282 0.01504 0.04153 0.0
H192 H 0.3107 0.91207 0.03857 0.0
H193 H 0.23327 0.07247 0.05614 0.0
H194 H 0.35121 0.10865 0.0344 0.0
H195 H 0.19302 0.82139 0.0629 0.0
H196 H 0.17292 0.99479 0.02092 0.0
H197 H 0.28101 0.88691 0.01823 0.0
C198 C 0.02629 0.7166 0.93798 0.0
C199 C 0.05576 0.72748 0.94781 0.0
N200 N 0.06456 0.7742 0.94743 0.0
N201 N 0.01704 0.75631 0.93146 0.0
C202 C 0.04115 0.79074 0.93742 0.0
H203 H 0.01186 0.68211 0.93584 0.0
Co204 Co 0.97824 0.76007 0.91761 0.0
C205 C 0.98651 0.8576 0.90799 0.0
O206 O 0.94091 0.85503 0.90567 0.0
N207 N 0.94041 0.76209 0.90326 0.0
C208 C 0.92726 0.75967 0.88281 0.0
C209 C 0.95974 0.76965 0.89185 0.0
C210 C 0.89589 0.74714 0.90086 0.0
N211 N 0.88736 0.74509 0.88847 0.0
O212 O 0.02308 0.72237 0.90837 0.0
H213 H 0.99612 0.77987 0.89019 0.0
H214 H 0.87122 0.73503 0.90788 0.0
O215 O 1.0078 0.82147 0.91263 0.0
C216 C 1.00392 0.6814 0.90782 0.0
O217 O 0.96267 0.67495 0.91326 0.0
N218 N 0.93239 0.7907 0.92764 0.0
C219 C 0.87793 0.81323 0.94864 0.0
C220 C 0.91088 0.8455 0.94385 0.0
C221 C 0.93806 0.83348 0.93344 0.0
C222 C 0.89902 0.75972 0.93192 0.0
C223 C 0.87082 0.77055 0.94228 0.0
H224 H 0.96636 0.85718 0.931 0.0
H225 H 0.89717 0.72455 0.92801 0.0
H226 H 0.04142 0.82744 0.93462 0.0
H227 H 0.06821 0.70344 0.95494 0.0
H228 H 0.93281 0.76214 0.87282 0.0
H229 H 0.91767 0.8787 0.94858 0.0
H230 H 0.84649 0.7442 0.94588 0.0
C231 C 0.69624 0.95777 0.04165 0.0
C232 C 0.69745 0.92103 0.03321 0.0
N233 N 0.74291 0.91295 0.03006 0.0
N234 N 0.74077 0.97284 0.04386 0.0
C235 C 0.76832 0.94414 0.03687 0.0
H236 H 0.66449 0.97445 0.04512 0.0
Co237 Co 0.75959 0.02917 0.05158 0.0
C238 C 0.83902 1.00029 0.06794 0.0
O239 O 0.81534 0.01709 0.07754 0.0
N240 N 0.77951 0.08629 0.05908 0.0
C241 C 0.82697 0.1456 0.06458 0.0
C242 C 0.82359 0.10449 0.05791 0.0
C243 C 0.75672 0.11759 0.06653 0.0
N244 N 0.78486 0.1539 0.07002 0.0
O245 O 0.7245 0.01084 0.06648 0.0
H246 H 0.85241 0.08815 0.0529 0.0
H247 H 0.72043 0.11399 0.0695 0.0
O248 O 0.81927 0.9996 0.05718 0.0
C249 C 0.68361 0.02991 0.06539 0.0
O250 O 0.67608 0.05745 0.0557 0.0
N251 N 0.78678 0.04895 0.03655 0.0
C252 C 0.81331 0.08723 0.0136 0.0
C253 C 0.84511 0.05947 0.02049 0.0
C254 C 0.83113 0.04056 0.03198 0.0
C255 C 0.75516 0.07473 0.02984 0.0
C256 C 0.76761 0.09423 0.01836 0.0
H257 H 0.8562 0.01999 0.03722 0.0
H258 H 0.72 0.08048 0.03355 0.0
H259 H 0.80606 0.94896 0.0359 0.0
H260 H 0.66692 0.90386 0.02913 0.0
H261 H 0.85877 0.16646 0.06579 0.0
H262 H 0.88092 0.05356 0.01723 0.0
H263 H 0.7417 0.11475 0.01327 0.0
C264 C 0.44585 0.70564 0.795 0.0
C265 C 0.4123 0.71319 0.7859 0.0
N266 N 0.40156 0.75952 0.78583 0.0
N267 N 0.45598 0.74702 0.80068 0.0
C268 C 0.42757 0.77883 0.79506 0.0
H269 H 0.4645 0.67287 0.79655 0.0
Co270 Co 0.50793 0.76008 0.81086 0.0
C271 C 0.47827 0.84149 0.82674 0.0
O272 O 0.49243 0.81952 0.83687 0.0
N273 N 0.56062 0.77409 0.82089 0.0
C274 C 0.62304 0.81239 0.82861 0.0
C275 C 0.58593 0.81478 0.8204 0.0
C276 C 0.58281 0.74792 0.82966 0.0
N277 N 0.62046 0.77051 0.83441 0.0
O278 O 0.47915 0.72332 0.82412 0.0
H279 H 0.57817 0.84445 0.8144 0.0
H280 H 0.57301 0.71256 0.83237 0.0
O281 O 0.47938 0.81988 0.81625 0.0
C282 C 0.49572 0.6816 0.82259 0.0
O283 O 0.52755 0.67482 0.8138 0.0
N284 N 0.53768 0.78959 0.79731 0.0
C285 C 0.58637 0.82052 0.77612 0.0
C286 C 0.55095 0.84853 0.78162 0.0
C287 C 0.52729 0.83263 0.79227 0.0
C288 C 0.57168 0.76178 0.7921 0.0
C289 C 0.59678 0.77668 0.78158 0.0
H290 H 0.50047 0.85488 0.79631 0.0
H291 H 0.57938 0.72773 0.7962 0.0
H292 H 0.42851 0.8163 0.79698 0.0
H293 H 0.40046 0.68761 0.77906 0.0
H294 H 0.6501 0.83892 0.83011 0.0
H295 H 0.54088 0.8822 0.77764 0.0
H296 H 0.62426 0.75408 0.77785 0.0
C297 C 0.6701 0.48619 0.18918 0.0
C298 C 0.66712 0.52213 0.19781 0.0
N299 N 0.70751 0.54752 0.19732 0.0
N300 N 0.71217 0.48883 0.18328 0.0
C301 C 0.73367 0.5271 0.18824 0.0
H302 H 0.64444 0.45826 0.18786 0.0
Co303 Co 0.73664 0.44317 0.17254 0.0
C304 C 0.81906 0.48934 0.15999 0.0
O305 O 0.80087 0.48042 0.14894 0.0
N306 N 0.76196 0.39695 0.16169 0.0
C307 C 0.81505 0.35039 0.15245 0.0
C308 C 0.80595 0.37847 0.16263 0.0
C309 C 0.74486 0.37878 0.1509 0.0
N310 N 0.77652 0.35075 0.14513 0.0
O311 O 0.7016 0.47194 0.15916 0.0
H312 H 0.83084 0.38659 0.16999 0.0
H313 H 0.71097 0.38746 0.1469 0.0
O314 O 0.79466 0.48034 0.16978 0.0
C315 C 0.66259 0.44878 0.1594 0.0
O316 O 0.65978 0.41151 0.16671 0.0
N317 N 0.76426 0.41311 0.18617 0.0
C318 C 0.79181 0.36557 0.20766 0.0
C319 C 0.81082 0.41006 0.2048 0.0
C320 C 0.79651 0.43335 0.194 0.0
C321 C 0.74511 0.37006 0.18885 0.0
C322 C 0.75883 0.34531 0.1995 0.0
H323 H 0.81029 0.46813 0.1922 0.0
H324 H 0.71849 0.35519 0.18275 0.0
H325 H 0.76959 0.53741 0.18605 0.0
H326 H 0.63856 0.52734 0.20442 0.0
H327 H 0.84769 0.33185 0.15046 0.0
H328 H 0.83652 0.42678 0.21087 0.0
H329 H 0.74295 0.31125 0.20148 0.0
C330 C 0.55319 0.32125 0.79998 0.0
C331 C 0.59463 0.30991 0.79385 0.0
N332 N 0.5924 0.26409 0.79038 0.0
N333 N 0.52505 0.28276 0.8003 0.0
C334 C 0.5503 0.24846 0.79466 0.0
H335 H 0.54299 0.35607 0.80314 0.0
Co336 Co 0.4614 0.27826 0.80449 0.0
C337 C 0.48698 0.19753 0.82209 0.0
O338 O 0.49883 0.22466 0.83155 0.0
N339 N 0.39802 0.27281 0.80878 0.0
C340 C 0.31962 0.27663 0.80977 0.0
C341 C 0.35881 0.28457 0.80233 0.0
C342 C 0.38214 0.25794 0.81995 0.0
N343 N 0.3347 0.2596 0.82082 0.0
O344 O 0.47296 0.3137 0.81967 0.0
H345 H 0.35886 0.29905 0.79298 0.0
H346 H 0.40521 0.24868 0.8276 0.0
O347 O 0.47311 0.21614 0.81188 0.0
C348 C 0.45641 0.35477 0.81719 0.0
O349 O 0.43828 0.36205 0.80606 0.0
N350 N 0.4486 0.2502 0.78911 0.0
C351 C 0.4228 0.22167 0.76524 0.0
C352 C 0.4168 0.19115 0.77545 0.0
C353 C 0.42931 0.20643 0.78741 0.0
C354 C 0.45527 0.27997 0.77926 0.0
C355 C 0.44272 0.26637 0.76721 0.0
H356 H 0.42132 0.18414 0.79532 0.0
H357 H 0.46929 0.31507 0.78085 0.0
H358 H 0.53576 0.21395 0.79254 0.0
H359 H 0.62264 0.33436 0.7914 0.0
H360 H 0.28317 0.28378 0.80734 0.0
H361 H 0.40032 0.15682 0.77429 0.0
H362 H 0.44758 0.29093 0.75955 0.0
C363 C 0.30486 0.53425 0.19394 0.0
C364 C 0.31169 0.50176 0.20331 0.0
N365 N 0.28853 0.46166 0.20025 0.0
N366 N 0.27736 0.51489 0.18505 0.0
C367 C 0.26878 0.47048 0.18901 0.0
H368 H 0.31657 0.57067 0.19399 0.0
Co369 Co 0.25224 0.54805 0.17167 0.0
C370 C 0.17238 0.46827 0.16691 0.0
O371 O 0.185 0.42367 0.16644 0.0
N372 N 0.22731 0.58169 0.15829 0.0
C373 C 0.17715 0.61474 0.14495 0.0
C374 C 0.18116 0.59028 0.15599 0.0
C375 C 0.25066 0.60216 0.14871 0.0
N376 N 0.22102 0.6221 0.14044 0.0
O377 O 0.29699 0.51713 0.16085 0.0
H378 H 0.1523 0.57985 0.16203 0.0
H379 H 0.28863 0.6022 0.14763 0.0
O380 O 0.2039 0.49992 0.1688 0.0
C381 C 0.33486 0.54176 0.16155 0.0
O382 O 0.33386 0.5808 0.16821 0.0
N383 N 0.21348 0.58054 0.18273 0.0
C384 C 0.18335 0.62935 0.20382 0.0
C385 C 0.16736 0.58315 0.20148 0.0
C386 C 0.18309 0.55912 0.19088 0.0
C387 C 0.22695 0.62634 0.18441 0.0
C388 C 0.21209 0.65159 0.19488 0.0
H389 H 0.17404 0.52225 0.18983 0.0
H390 H 0.25239 0.6421 0.17808 0.0
H391 H 0.24651 0.44587 0.18406 0.0
H392 H 0.32903 0.5087 0.21212 0.0
H393 H 0.14469 0.62699 0.14069 0.0
H394 H 0.14472 0.56491 0.20809 0.0
H395 H 0.22569 0.68696 0.19638 0.0
C396 C 0.45927 0.81382 0.43455 0.0
C397 C 0.42121 0.80392 0.44215 0.0
N398 N 0.42489 0.75886 0.44611 0.0
N399 N 0.48693 0.77518 0.43364 0.0
C400 C 0.46444 0.74207 0.44056 0.0
H401 H 0.46772 0.84808 0.43067 0.0
Co402 Co 0.54814 0.77334 0.42697 0.0
C403 C 0.55732 0.68035 0.41308 0.0
O404 O 0.60358 0.68257 0.41382 0.0
N405 N 0.61003 0.77326 0.42033 0.0
C406 C 0.68812 0.77309 0.41756 0.0
C407 C 0.65225 0.77336 0.42626 0.0
C408 C 0.62139 0.77458 0.40807 0.0
N409 N 0.66849 0.77333 0.40612 0.0
O410 O 0.52776 0.81267 0.41313 0.0
H411 H 0.65728 0.77287 0.43624 0.0
H412 H 0.59533 0.77456 0.40067 0.0
O413 O 0.53175 0.71322 0.41795 0.0
C414 C 0.54526 0.85398 0.41474 0.0
O415 O 0.57124 0.86184 0.4247 0.0
N416 N 0.56888 0.74067 0.44123 0.0
C417 C 0.60878 0.70665 0.46328 0.0
C418 C 0.59174 0.67544 0.45412 0.0
C419 C 0.57217 0.69309 0.44314 0.0
C420 C 0.58137 0.77141 0.45047 0.0
C421 C 0.60207 0.75529 0.4615 0.0
H422 H 0.55918 0.66805 0.43645 0.0
H423 H 0.57741 0.809 0.44895 0.0
H424 H 0.47889 0.70746 0.44236 0.0
H425 H 0.39458 0.82901 0.4451 0.0
H426 H 0.72562 0.77111 0.41951 0.0
H427 H 0.59384 0.63751 0.45533 0.0
H428 H 0.61438 0.78091 0.46827 0.0
C429 C 0.84403 0.54139 0.54608 0.0
C430 C 0.82862 0.57984 0.53926 0.0
N431 N 0.78385 0.57126 0.53562 0.0
N432 N 0.80895 0.50902 0.54664 0.0
C433 C 0.77266 0.52875 0.54041 0.0
H434 H 0.87942 0.53613 0.54962 0.0
Co435 Co 0.80976 0.44692 0.55232 0.0
C436 C 0.73028 0.48152 0.56875 0.0
O437 O 0.75843 0.50801 0.57556 0.0
N438 N 0.80961 0.38534 0.55809 0.0
C439 C 0.81886 0.30808 0.56051 0.0
C440 C 0.82509 0.34561 0.55247 0.0
C441 C 0.79453 0.37152 0.56944 0.0
N442 N 0.79945 0.32467 0.57116 0.0
O443 O 0.84482 0.46614 0.56697 0.0
H444 H 0.84011 0.34417 0.54317 0.0
H445 H 0.78145 0.39579 0.57645 0.0
O446 O 0.74749 0.45678 0.55988 0.0
C447 C 0.88704 0.45212 0.56474 0.0
O448 O 0.89578 0.43175 0.55394 0.0
N449 N 0.7815 0.42656 0.53751 0.0
C450 C 0.7495 0.39418 0.51452 0.0
C451 C 0.72161 0.38862 0.52527 0.0
C452 C 0.73874 0.40428 0.53678 0.0
C453 C 0.80923 0.43182 0.52716 0.0
C454 C 0.79389 0.4158 0.51553 0.0
H455 H 0.71843 0.39709 0.5451 0.0
H456 H 0.84369 0.44822 0.528 0.0
H457 H 0.73965 0.5106 0.53853 0.0
H458 H 0.84994 0.6096 0.53625 0.0
H459 H 0.82772 0.27155 0.55865 0.0
H460 H 0.68761 0.37093 0.52483 0.0
H461 H 0.81639 0.42032 0.50741 0.0
C462 C 0.54499 0.19314 0.43623 0.0
C463 C 0.5857 0.19828 0.44315 0.0
N464 N 0.60369 0.24167 0.44096 0.0
N465 N 0.53742 0.23307 0.42969 0.0
C466 C 0.57466 0.26114 0.43241 0.0
H467 H 0.51992 0.16437 0.43702 0.0
Co468 Co 0.47975 0.25083 0.4228 0.0
C469 C 0.50687 0.33257 0.40666 0.0
O470 O 0.49418 0.31016 0.39645 0.0
N471 N 0.42143 0.26991 0.41605 0.0
C472 C 0.35986 0.31628 0.41207 0.0
C473 C 0.4022 0.31291 0.41815 0.0
C474 C 0.38976 0.24776 0.40861 0.0
N475 N 0.35196 0.27523 0.40608 0.0
O476 O 0.49638 0.21718 0.40778 0.0
H477 H 0.41828 0.34063 0.42365 0.0
H478 H 0.39407 0.21236 0.40503 0.0
O479 O 0.50573 0.31115 0.41714 0.0
C480 C 0.47863 0.17607 0.40955 0.0
O481 O 0.45239 0.16927 0.41955 0.0
N482 N 0.46253 0.27745 0.43804 0.0
C483 C 0.4292 0.30847 0.46111 0.0
C484 C 0.46775 0.331 0.4553 0.0
C485 C 0.48374 0.31509 0.44371 0.0
C486 C 0.42641 0.25393 0.44375 0.0
C487 C 0.40869 0.26923 0.45519 0.0
H488 H 0.51315 0.33304 0.43938 0.0
H489 H 0.41063 0.2236 0.43921 0.0
H490 H 0.57785 0.29728 0.42926 0.0
H491 H 0.59762 0.17437 0.45038 0.0
H492 H 0.33756 0.3473 0.41172 0.0
H493 H 0.48565 0.36059 0.45964 0.0
H494 H 0.37856 0.25094 0.45918 0.0
C495 C 0.22899 0.48089 0.5484 0.0
C496 C 0.23511 0.44721 0.53924 0.0
N497 N 0.28168 0.43791 0.53834 0.0
N498 N 0.27156 0.49246 0.55318 0.0
C499 C 0.30276 0.46501 0.54704 0.0
H500 H 0.19609 0.49805 0.55084 0.0
Co501 Co 0.28312 0.54181 0.56399 0.0
C502 C 0.38382 0.53638 0.57153 0.0
O503 O 0.38459 0.58265 0.57046 0.0
N504 N 0.29323 0.59136 0.57529 0.0
C505 C 0.30711 0.62645 0.59348 0.0
C506 C 0.30736 0.58435 0.58721 0.0
C507 C 0.28252 0.63783 0.57472 0.0
N508 N 0.29159 0.65985 0.5856 0.0
O509 O 0.24732 0.50864 0.57669 0.0
H510 H 0.31577 0.55029 0.59121 0.0
H511 H 0.26568 0.6548 0.56687 0.0
O512 O 0.34556 0.51337 0.56904 0.0
C513 C 0.20743 0.52989 0.57752 0.0
O514 O 0.20094 0.56834 0.57087 0.0
N515 N 0.31095 0.57564 0.5506 0.0
C516 C 0.32945 0.6166 0.52729 0.0
C517 C 0.36238 0.58631 0.53288 0.0
C518 C 0.35231 0.56577 0.54445 0.0
C519 C 0.27861 0.60498 0.54525 0.0
C520 C 0.28737 0.62642 0.53372 0.0
H521 H 0.37678 0.53981 0.54788 0.0
H522 H 0.24441 0.60963 0.54962 0.0
H523 H 0.34063 0.46682 0.54832 0.0
H524 H 0.20811 0.4338 0.533 0.0
H525 H 0.31422 0.63164 0.60333 0.0
H526 H 0.39518 0.57741 0.52818 0.0
H527 H 0.26032 0.64851 0.5296 0.0
H528 H 0.10817 0.30723 0.24749 0.0
H529 H 0.33726 0.43337 0.22086 0.0
H530 H 0.23695 0.32219 0.26869 0.0
H531 H 0.2127 0.40198 0.19902 0.0
H532 H 0.30702 0.38195 0.23739 0.0
H533 H 0.15064 0.33179 0.22872 0.0
C534 C 0.14551 0.31564 0.24816 0.0
C535 C 0.16896 0.31365 0.25966 0.0
C536 C 0.28677 0.38574 0.22887 0.0
C537 C 0.21792 0.34181 0.23824 0.0
C538 C 0.30393 0.41529 0.21944 0.0
C539 C 0.27688 0.42347 0.20866 0.0
C540 C 0.24217 0.36442 0.22751 0.0
C541 C 0.23472 0.39765 0.20717 0.0
C542 C 0.16988 0.32928 0.23743 0.0
C543 C 0.21758 0.32369 0.25999 0.0
N544 N 0.21831 0.37005 0.21659 0.0
N545 N 0.24036 0.33812 0.24946 0.0
H546 H 0.42917 0.84315 0.77594 0.0
H547 H 0.22404 0.85533 0.72511 0.0
H548 H 0.32451 0.73275 0.7725 0.0
H549 H 0.35983 0.92293 0.7204 0.0
H550 H 0.25279 0.81858 0.74445 0.0
H551 H 0.39574 0.88224 0.75769 0.0
C552 C 0.39854 0.82757 0.77148 0.0
C553 C 0.37927 0.78477 0.77578 0.0
C554 C 0.2762 0.84145 0.73916 0.0
C555 C 0.34129 0.82911 0.75477 0.0
C556 C 0.25982 0.86253 0.7282 0.0
C557 C 0.28974 0.89204 0.72119 0.0
C558 C 0.32246 0.85074 0.74323 0.0
C559 C 0.33585 0.90007 0.72551 0.0
C560 C 0.37985 0.84964 0.76097 0.0
C561 C 0.3403 0.76565 0.76943 0.0
N562 N 0.35073 0.87975 0.7363 0.0
N563 N 0.32242 0.78804 0.75923 0.0
H564 H 0.77558 0.61461 0.19428 0.0
H565 H 0.79709 0.65456 0.26792 0.0
H566 H 0.68022 0.55485 0.22162 0.0
H567 H 0.89722 0.71121 0.24133 0.0
H568 H 0.74912 0.62517 0.25071 0.0
H569 H 0.81489 0.65881 0.21095 0.0
C570 C 0.76256 0.61116 0.20375 0.0
C571 C 0.72498 0.5803 0.20655 0.0
C572 C 0.7815 0.6441 0.2486 0.0
C573 C 0.76977 0.63073 0.22566 0.0
C574 C 0.80915 0.66052 0.25843 0.0
C575 C 0.85164 0.68464 0.25605 0.0
C576 C 0.7964 0.65162 0.23624 0.0
C577 C 0.86477 0.69263 0.24357 0.0
C578 C 0.78499 0.63643 0.21326 0.0
C579 C 0.70893 0.57808 0.21896 0.0
N580 N 0.83743 0.67578 0.23411 0.0
N581 N 0.73177 0.60245 0.22805 0.0
H582 H 0.60404 0.16966 0.78738 0.0
H583 H 0.71901 0.20114 0.71958 0.0
H584 H 0.64367 0.30451 0.77165 0.0
H585 H 0.64888 0.07361 0.73181 0.0
H586 H 0.70484 0.23614 0.74012 0.0
H587 H 0.63522 0.13051 0.76874 0.0
C588 C 0.61991 0.19099 0.78009 0.0
C589 C 0.62032 0.24053 0.78099 0.0
C590 C 0.69271 0.20044 0.73833 0.0
C591 C 0.65606 0.196 0.75966 0.0
C592 C 0.70083 0.18042 0.72663 0.0
C593 C 0.68479 0.13453 0.72398 0.0
C594 C 0.66857 0.17434 0.7475 0.0
C595 C 0.66115 0.10937 0.73341 0.0
C596 C 0.63758 0.16863 0.76945 0.0
C597 C 0.6424 0.26633 0.7714 0.0
N598 N 0.65369 0.12965 0.74477 0.0
N599 N 0.65883 0.24379 0.76106 0.0
H600 H 0.31443 0.18825 0.03359 0.0
H601 H 0.15172 0.14547 0.9797 0.0
H602 H 0.19205 0.09929 0.03955 0.0
H603 H 0.16578 0.29343 0.98945 0.0
H604 H 0.17787 0.12471 0.00057 0.0
H605 H 0.2716 0.22814 0.0166 0.0
C606 C 0.27831 0.17797 0.03158 0.0
C607 C 0.25742 0.13956 0.03784 0.0
C608 C 0.17477 0.16171 -0.00192 0.0
C609 C 0.20918 0.18407 0.01847 0.0
C610 C 0.15952 0.1738 0.98617 0.0
C611 C 0.15634 0.22151 0.9826 0.0
C612 C 0.18843 0.19728 0.00642 0.0
C613 C 0.16876 0.25617 -0.00848 0.0
C614 C 0.254 0.20072 0.02195 0.0
C615 C 0.21019 0.12806 0.03496 0.0
N616 N 0.18513 0.24335 0.00296 0.0
N617 N 0.18824 0.14919 0.02522 0.0
H618 H 0.03652 0.85726 0.95722 0.0
H619 H 0.2684 0.89852 -0.00262 0.0
H620 H 0.14793 0.75361 0.95842 0.0
H621 H 0.12962 0.93686 0.01116 0.0
H622 H 0.23097 0.86062 0.97941 0.0
H623 H 0.07732 0.90278 0.97352 0.0
C624 C 0.06991 0.84453 0.96084 0.0
C625 C 0.08913 0.80183 0.95657 0.0
C626 C 0.20903 0.87777 0.98637 0.0
C627 C 0.13588 0.85357 0.97493 0.0
C628 C 0.23021 0.89921 -0.00332 0.0
C629 C 0.20226 0.92049 0.00601 0.0
C630 C 0.15971 0.87863 0.9852 0.0
C631 C 0.15294 0.92152 0.00424 0.0
C632 C 0.09292 0.87025 0.97013 0.0
C633 C 0.1321 0.78629 0.96159 0.0
N634 N 0.13326 0.90084 -0.00595 0.0
N635 N 0.15433 0.81236 0.9705 0.0
H636 H 0.78438 0.80382 0.95534 0.0
H637 H 0.83178 0.87928 0.02637 0.0
H638 H 0.92154 0.84054 0.97008 0.0
H639 H 0.69389 0.88691 0.0092 0.0
H640 H 0.86389 0.84834 0.00682 0.0
H641 H 0.74947 0.81912 0.97603 0.0
C642 C 0.80705 0.81497 0.96294 0.0
C643 C 0.8557 0.82172 0.96098 0.0
C644 C 0.82649 0.85642 0.00738 0.0
C645 C 0.81645 0.83838 0.98459 0.0
C646 C 0.80813 0.87411 0.01854 0.0
C647 C 0.76019 0.88668 0.01942 0.0
C648 C 0.79674 0.85094 -0.00301 0.0
C649 C 0.73102 0.87789 0.00903 0.0
C650 C 0.78721 0.82368 0.97471 0.0
C651 C 0.88369 0.83591 0.97114 0.0
N652 N 0.74986 0.86103 -0.00179 0.0
N653 N 0.86368 0.84376 0.98248 0.0
H654 H 0.86813 0.05127 -0.00536 0.0
H655 H 0.88932 0.29988 0.9596 0.0
H656 H 0.79298 0.1771 0.00587 0.0
H657 H 0.97503 0.17784 0.951 0.0
H658 H 0.84319 0.25149 0.97414 0.0
H659 H 0.89789 0.09353 0.9763 0.0
C660 C 0.85776 0.08772 -0.00677 0.0
C661 C 0.82842 0.11081 0.00187 0.0
C662 C 0.87174 0.23524 0.96893 0.0
C663 C 0.86205 0.1593 0.98088 0.0
C664 C 0.89812 0.26288 0.96064 0.0
C665 C 0.93666 0.24331 0.95418 0.0
C666 C 0.88406 0.18767 0.97078 0.0
C667 C 0.94576 0.19478 0.9557 0.0
C668 C 0.87452 0.11175 0.98272 0.0
C669 C 0.8153 0.15777 -0.00057 0.0
N670 N 0.92006 0.16887 0.96396 0.0
N671 N 0.83256 0.18058 0.98923 0.0
H672 H 0.61226 0.91116 0.76992 0.0
H673 H 0.7521 0.84827 0.70752 0.0
H674 H 0.61962 0.76743 0.75633 0.0
H675 H 0.68024 0.98068 0.71338 0.0
H676 H 0.71669 0.81815 0.72709 0.0
H677 H 0.65073 0.93789 0.75079 0.0
C678 C 0.62164 0.88514 0.76292 0.0
C679 C 0.61198 0.83692 0.76474 0.0
C680 C 0.70862 0.85368 0.724 0.0
C681 C 0.65739 0.86744 0.74293 0.0
C682 C 0.72875 0.87073 0.71292 0.0
C683 C 0.71832 0.91656 0.70881 0.0
C684 C 0.67908 0.88333 0.73109 0.0
C685 C 0.68829 0.94477 0.71612 0.0
C686 C 0.64391 0.90048 0.75203 0.0
C687 C 0.62664 0.80488 0.75544 0.0
N688 N 0.66996 0.92781 0.72694 0.0
N689 N 0.64865 0.82071 0.74493 0.0
H690 H 0.80017 0.40128 0.23128 0.0
H691 H 0.94052 0.17911 0.25625 0.0
H692 H 0.81709 0.27288 0.20999 0.0
H693 H 0.89422 0.29273 0.28032 0.0
H694 H 0.89101 0.2102 0.2397 0.0
H695 H 0.83109 0.36074 0.2497 0.0
C696 C 0.81024 0.36446 0.23052 0.0
C697 C 0.80665 0.34045 0.2191 0.0
C698 C 0.89126 0.22804 0.24865 0.0
C699 C 0.84193 0.2939 0.24007 0.0
C700 C 0.91949 0.21014 0.25818 0.0
C701 C 0.92254 0.23378 0.26971 0.0
C702 C 0.8662 0.27018 0.25056 0.0
C703 C 0.89427 0.27404 0.27151 0.0
C704 C 0.82754 0.34124 0.24104 0.0
C705 C 0.81932 0.2926 0.21864 0.0
N706 N 0.86782 0.29135 0.26198 0.0
N707 N 0.83699 0.27102 0.22894 0.0
H708 H 0.22629 0.18053 0.70615 0.0
H709 H 0.43854 0.14045 0.752 0.0
H710 H 0.34103 0.08551 0.69698 0.0
H711 H 0.36428 0.27336 0.75046 0.0
H712 H 0.40141 0.11742 0.73219 0.0
H713 H 0.27485 0.21452 0.72259 0.0
C714 C 0.26165 0.16693 0.70742 0.0
C715 C 0.27867 0.12886 0.70027 0.0
C716 C 0.39379 0.15188 0.73612 0.0
C717 C 0.33423 0.16749 0.71933 0.0
C718 C 0.41471 0.16483 0.74741 0.0
C719 C 0.40424 0.20871 0.75282 0.0
C720 C 0.36142 0.18263 0.7304 0.0
C721 C 0.37337 0.23928 0.74652 0.0
C722 C 0.2894 0.18648 0.71687 0.0
C723 C 0.32528 0.11343 0.70246 0.0
N724 N 0.35246 0.22539 0.73572 0.0
N725 N 0.35106 0.1322 0.71193 0.0
H726 H 0.18493 0.58975 0.2271 0.0
H727 H 0.10026 0.82521 0.26162 0.0
H728 H 0.16092 0.72238 0.20824 0.0
H729 H 0.1001 0.68743 0.27888 0.0
H730 H 0.13752 0.79128 0.24311 0.0
H731 H 0.16711 0.62792 0.247 0.0
C732 C 0.1755 0.62684 0.22713 0.0
C733 C 0.17333 0.65267 0.21595 0.0
C734 C 0.12984 0.76856 0.251 0.0
C735 C 0.15385 0.6968 0.23875 0.0
C736 C 0.10895 0.78799 0.26163 0.0
C737 C 0.09649 0.7589 0.27175 0.0
C738 C 0.13837 0.71974 0.25049 0.0
C739 C 0.10829 0.71084 0.27118 0.0
C740 C 0.16581 0.6487 0.23851 0.0
C741 C 0.16272 0.70106 0.21662 0.0
N742 N 0.12819 0.69264 0.26067 0.0
N743 N 0.15299 0.72149 0.22783 0.0
H744 H 0.76413 0.6646 0.533 0.0
H745 H 0.66868 0.63091 0.464 0.0
H746 H 0.74836 0.5286 0.51534 0.0
H747 H 0.61137 0.7413 0.4875 0.0
H748 H 0.71162 0.60016 0.48184 0.0
H749 H 0.72087 0.70097 0.51538 0.0
C750 C 0.75154 0.64266 0.52541 0.0
C751 C 0.75917 0.59373 0.52558 0.0
C752 C 0.68953 0.63107 0.48308 0.0
C753 C 0.71123 0.63444 0.50557 0.0
C754 C 0.66456 0.64849 0.47292 0.0
C755 C 0.63544 0.68837 0.47423 0.0
C756 C 0.68627 0.65398 0.49466 0.0
C757 C 0.63344 0.71061 0.486 0.0
C758 C 0.72688 0.66318 0.51546 0.0
C759 C 0.7425 0.5664 0.51559 0.0
N760 N 0.65861 0.69311 0.49579 0.0
N761 N 0.71962 0.58716 0.50596 0.0
H762 H 0.67931 0.20805 0.45377 0.0
H763 H 0.66782 0.41628 0.50253 0.0
H764 H 0.59617 0.33381 0.4478 0.0
H765 H 0.79328 0.33075 0.49918 0.0
H766 H 0.63854 0.38276 0.4829 0.0
H767 H 0.72099 0.24896 0.47079 0.0
C768 C 0.67046 0.24441 0.45588 0.0
C769 C 0.63415 0.26738 0.44935 0.0
C770 C 0.6727 0.37163 0.48639 0.0
C771 C 0.6807 0.31383 0.46884 0.0
C772 C 0.68917 0.39053 0.49759 0.0
C773 C 0.73281 0.37604 0.50239 0.0
C774 C 0.69961 0.33722 0.48013 0.0
C775 C 0.75946 0.34278 0.49568 0.0
C776 C 0.69419 0.2677 0.46555 0.0
C777 C 0.62406 0.31462 0.45244 0.0
N778 N 0.74214 0.3239 0.48493 0.0
N779 N 0.64664 0.33594 0.46207 0.0
H780 H 0.25807 0.35524 0.52724 0.0
H781 H 0.42322 0.40059 0.46897 0.0
H782 H 0.35718 0.47115 0.52573 0.0
H783 H 0.38962 0.25796 0.48055 0.0
H784 H 0.38944 0.4299 0.48841 0.0
H785 H 0.29615 0.32093 0.50857 0.0
C786 C 0.28803 0.37306 0.52302 0.0
C787 C 0.305 0.41557 0.52802 0.0
C788 C 0.38974 0.39216 0.48668 0.0
C789 C 0.34755 0.37773 0.50679 0.0
C790 C 0.40932 0.37528 0.47562 0.0
C791 C 0.4096 0.32658 0.47308 0.0
C792 C 0.36945 0.36033 0.49519 0.0
C793 C 0.38957 0.29582 0.48197 0.0
C794 C 0.30971 0.3536 0.51246 0.0
C795 C 0.34368 0.43784 0.52226 0.0
N796 N 0.36994 0.31325 0.49261 0.0
N797 N 0.36337 0.41889 0.51186 0.0
H798 H 0.365 0.57054 0.50678 0.0
H799 H 0.37619 0.80308 0.46478 0.0
H800 H 0.3122 0.7063 0.51874 0.0
H801 H 0.41733 0.66502 0.45144 0.0
H802 H 0.34629 0.76701 0.48384 0.0
H803 H 0.38025 0.60343 0.48605 0.0
C804 C 0.35681 0.60736 0.50506 0.0
C805 C 0.33785 0.6359 0.51457 0.0
C806 C 0.36144 0.7445 0.4767 0.0
C807 C 0.35469 0.67366 0.49078 0.0
C808 C 0.37826 0.76508 0.4657 0.0
C809 C 0.40015 0.73723 0.45648 0.0
C810 C 0.36666 0.69568 0.47857 0.0
C811 C 0.40187 0.68811 0.45838 0.0
C812 C 0.36513 0.626 0.49318 0.0
C813 C 0.32682 0.68302 0.5117 0.0
N814 N 0.38592 0.669 0.46926 0.0
N815 N 0.33574 0.7005 0.5001 0.0
H816 H 0.95054 0.14736 0.32055 0.0
H817 H 0.88324 0.91274 0.32506 0.0
H818 H 0.09273 0.09916 0.32728 0.0
H819 H 0.03167 0.88262 0.32066 0.0
H820 H 0.90239 0.99456 0.33004 0.0
H821 H 0.92176 0.06692 0.32404 0.0
C822 C 0.97544 0.12019 0.32326 0.0
C823 C 0.02403 0.13002 0.32363 0.0
C824 C 0.93105 0.97045 0.32805 0.0
C825 C 0.99173 0.03704 0.32755 0.0
C826 C 0.92011 0.92326 0.32544 0.0
C827 C 0.9559 0.8908 0.3224 0.0
C828 C 0.9783 0.98582 0.32735 0.0
C829 C 1.00298 0.90632 0.32303 0.0
C830 C 0.95911 0.07382 0.32521 0.0
C831 C 0.05491 0.09309 0.32686 0.0
N832 N 0.01274 0.95289 0.32522 0.0
N833 N 0.03841 0.04834 0.32849 0.0
H834 H 0.09704 0.07917 0.65312 0.0
H835 H 0.85824 0.09214 0.64457 0.0
H836 H 0.08111 0.92787 0.65326 0.0
H837 H 0.8592 0.95028 0.65907 0.0
H838 H 0.94114 0.08384 0.6386 0.0
H839 H 0.01447 0.08674 0.64666 0.0
C840 C 0.07678 0.04752 0.65111 0.0
C841 C 0.09583 1.00289 0.6536 0.0
C842 C 0.92332 0.05411 0.64289 0.0
C843 C 1.0007 0.01077 0.64653 0.0
C844 C 0.87545 0.05843 0.64602 0.0
C845 C 0.85171 0.02168 0.65225 0.0
C846 C 0.94796 0.01304 0.64632 0.0
C847 C 0.87601 0.9792 0.65412 0.0
C848 C 0.02925 0.05167 0.6475 0.0
C849 C 0.06761 0.96293 0.65133 0.0
N850 N 0.92305 0.97636 0.6514 0.0
N851 N 0.02131 0.96781 0.6482 0.0
H852 H 0.96382 0.61982 0.89178 0.0
H853 H 0.01055 0.38785 0.90543 0.0
H854 H 0.09301 0.64684 0.91183 0.0
H855 H 0.15443 0.43169 0.91206 0.0
H856 H 0.99289 0.467 0.89758 0.0
H857 H 0.98836 0.53809 0.88852 0.0
C858 C 0.99814 0.60866 0.89518 0.0
C859 C 0.02643 0.63981 0.90214 0.0
C860 C 0.02886 0.45912 0.90027 0.0
C861 C 0.05349 0.54555 0.89917 0.0
C862 C 0.03883 0.41364 0.90474 0.0
C863 C 0.08376 0.40358 0.90952 0.0
C864 C 0.06427 0.49444 0.90061 0.0
C865 C 0.11908 0.43839 0.90861 0.0
C866 C 0.01173 0.56169 0.89353 0.0
C867 C 0.07039 0.62391 0.90635 0.0
N868 N 0.10838 0.48242 0.90451 0.0
N869 N 0.08218 0.57753 0.90501 0.0
H870 H 0.65349 0.94376 0.07444 0.0
H871 H 0.41434 0.90356 0.08099 0.0
H872 H 0.6182 0.09168 0.0738 0.0
H873 H 0.39887 0.05348 0.07583 0.0
H874 H 0.49811 0.91475 0.08533 0.0
H875 H 0.5731 0.92578 0.0814 0.0
C876 C 0.62927 0.97259 0.07628 0.0
C877 C 0.64246 0.0192 0.07352 0.0
C878 C 0.47682 0.94563 0.08351 0.0
C879 C 0.5492 0.99926 0.08117 0.0
C880 C 0.4284 0.93921 0.08131 0.0
C881 C 0.39947 0.9777 0.07821 0.0
C882 C 0.4969 0.99097 0.08225 0.0
C883 C 0.41969 0.02294 0.07843 0.0
C884 C 0.58276 0.9624 0.08013 0.0
C885 C 0.60935 0.05517 0.07578 0.0
N886 N 0.46723 0.02818 0.08014 0.0
N887 N 0.5643 0.04443 0.07926 0.0
H888 H 0.53334 0.39113 0.82962 0.0
H889 H 0.55025 0.63083 0.83843 0.0
H890 H 0.38498 0.41374 0.82292 0.0
H891 H 0.41133 0.63499 0.8221 0.0
H892 H 0.53934 0.54722 0.8431 0.0
H893 H 0.54047 0.47294 0.83671 0.0
C894 C 0.50182 0.41276 0.83024 0.0
C895 C 0.45854 0.39574 0.82573 0.0
C896 C 0.51076 0.56611 0.83866 0.0
C897 C 0.4661 0.4902 0.83356 0.0
C898 C 0.51658 0.61439 0.83627 0.0
C899 C 0.48142 0.63997 0.82998 0.0
C900 C 0.46986 0.54284 0.83438 0.0
C901 C 0.43898 0.61676 0.82715 0.0
C902 C 0.5058 0.45996 0.8342 0.0
C903 C 0.41902 0.42563 0.82636 0.0
N904 N 0.43476 0.56936 0.82915 0.0
N905 N 0.4239 0.47145 0.82994 0.0
H906 H 0.59379 0.39256 0.1501 0.0
H907 H 0.405 0.60031 0.154 0.0
H908 H 0.63006 0.53922 0.15542 0.0
H909 H 0.36864 0.45242 0.1561 0.0
H910 H 0.48619 0.5791 0.14876 0.0
H911 H 0.51167 0.41504 0.14635 0.0
C912 C 0.58467 0.42976 0.15008 0.0
C913 C 0.61869 0.46413 0.15315 0.0
C914 C 0.46043 0.5512 0.15016 0.0
C915 C 0.52439 0.49 0.14913 0.0
C916 C 0.41397 0.56323 0.15313 0.0
C917 C 0.38019 0.52801 0.15566 0.0
C918 C 0.47355 0.50349 0.14977 0.0
C919 C 0.39361 0.48064 0.15424 0.0
C920 C 0.53767 0.44248 0.14804 0.0
C921 C 0.60503 0.51168 0.15301 0.0
N922 N 0.43956 0.46971 0.15159 0.0
N923 N 0.55867 0.52318 0.15127 0.0
H924 H 0.61102 0.90938 0.40374 0.0
H925 H 0.56577 0.14651 0.40142 0.0
H926 H 0.46038 0.8919 0.40756 0.0
H927 H 0.41824 0.10839 0.4017 0.0
H928 H 0.58597 0.06468 0.39683 0.0
H929 H 0.59901 0.98924 0.39606 0.0
C930 C 0.57516 0.9222 0.40259 0.0
C931 C 0.53663 0.89418 0.40629 0.0
C932 C 0.54899 0.0738 0.39749 0.0
C933 C 0.52219 0.98733 0.39823 0.0
C934 C 0.53754 0.12116 0.39993 0.0
C935 C 0.49037 0.13405 0.402 0.0
C936 C 0.5128 0.0392 0.39722 0.0
C937 C 0.45515 0.09968 0.40024 0.0
C938 C 0.5682 0.96838 0.39838 0.0
C939 C 0.491 0.91231 0.40471 0.0
N940 N 0.46708 0.05382 0.39821 0.0
N941 N 0.48512 0.95808 0.40105 0.0
H942 H 0.14482 0.57424 0.59261 0.0
H943 H 0.91143 0.53037 0.57871 0.0
H944 H 0.17149 0.44074 0.57464 0.0
H945 H 0.95549 0.38881 0.56962 0.0
H946 H 0.98984 0.54585 0.58742 0.0
H947 H 0.06182 0.55263 0.59506 0.0
C948 C 0.1333 0.53952 0.58957 0.0
C949 C 0.16499 0.50919 0.58342 0.0
C950 C 0.98231 0.51078 0.58395 0.0
C951 C 0.06895 0.48529 0.58534 0.0
C952 C 0.9371 0.50201 0.57902 0.0
C953 C 0.92722 0.45844 0.57339 0.0
C954 C 0.01764 0.47553 0.5832 0.0
C955 C 0.96196 0.42309 0.5738 0.0
C956 C 0.08548 0.52755 0.5907 0.0
C957 C 0.14833 0.46493 0.57955 0.0
N958 N 1.00568 0.43262 0.5784 0.0
N959 N 0.10126 0.45475 0.58034 0.0
H960 H 0.99069 0.6294 0.29762 0.0
H961 H 0.99422 0.38909 0.33777 0.0
H962 H 0.99335 0.62586 0.3379 0.0
H963 H 1.00273 0.39143 0.29753 0.0
H964 H 0.99016 0.47535 0.33785 0.0
H965 H 0.99301 0.54283 0.2973 0.0
C966 C 0.99184 0.61054 0.30642 0.0
C967 C 0.99159 0.6354 0.31782 0.0
C968 C 0.99271 0.45709 0.32898 0.0
C969 C 0.99415 0.53546 0.31749 0.0
C970 C 0.99473 0.40756 0.32891 0.0
C971 C 0.99884 0.38237 0.31762 0.0
C972 C 0.99472 0.48229 0.31767 0.0
C973 C 0.9996 0.4089 0.30648 0.0
C974 C 0.99319 0.56093 0.30621 0.0
C975 C 0.99362 0.60859 0.32887 0.0
N976 N 0.99771 0.45717 0.3068 0.0
N977 N 0.99459 0.56034 0.32843 0.0
H978 H 0.35739 0.99341 0.67653 0.0
H979 H 0.59796 0.02868 0.63771 0.0
H980 H 0.35967 0.02772 0.63727 0.0
H981 H 0.59283 0.99236 0.67684 0.0
H982 H 0.51143 0.02531 0.63701 0.0
H983 H 0.44347 0.99073 0.6765 0.0
C984 C 0.37589 0.99996 0.66784 0.0
C985 C 0.35086 0.01029 0.65684 0.0
C986 C 0.52923 0.01787 0.64573 0.0
C987 C 0.45049 1.00792 0.65679 0.0
C988 C 0.57878 0.01954 0.64614 0.0
C989 C 0.60303 0.01109 0.65738 0.0
C990 C 0.50344 1.00767 0.65665 0.0
C991 C 0.57593 0.99958 0.66799 0.0
C992 C 0.42531 0.99865 0.66785 0.0
C993 C 0.37729 0.01958 0.64597 0.0
N994 N 0.52779 0.99845 0.66737 0.0
N995 N 0.42559 0.01815 0.64622 0.0
H996 H 0.01606 0.16071 0.91421 0.0
H997 H 0.07498 0.88427 0.91641 0.0
H998 H 0.15569 0.10517 0.9213 0.0
H999 H 0.94804 0.93998 0.89959 0.0
H1000 H 0.10486 0.96528 0.91862 0.0
H1001 H 0.98918 0.08013 0.90921 0.0
C1002 C 0.0411 0.13182 0.91461 0.0
C1003 C 0.08814 0.13986 0.91823 0.0
C1004 C 0.07064 0.95965 0.91433 0.0
C1005 C 0.05765 0.04773 0.91268 0.0
C1006 C 0.0537 0.91335 0.91302 0.0
C1007 C 1.00885 0.90516 0.90786 0.0
C1008 C 0.04237 0.99802 0.91056 0.0
C1009 C 0.98272 0.94445 0.9037 0.0
C1010 C 0.02579 0.08584 0.91177 0.0
C1011 C 0.11901 0.10089 0.91863 0.0
N1012 N 0.9996 0.98906 0.90526 0.0
N1013 N 0.10318 0.05669 0.916 0.0
H1014 H 0.90272 0.97227 0.04979 0.0
H1015 H 0.13326 0.98624 0.09332 0.0
H1016 H 0.89514 0.01008 0.08879 0.0
H1017 H 0.13787 0.99119 0.05308 0.0
H1018 H 0.04629 0.98744 0.09235 0.0
H1019 H 0.98901 0.96994 0.05134 0.0
C1020 C 0.919 0.97999 0.05869 0.0
C1021 C 0.89118 0.99214 0.06911 0.0
C1022 C 0.06646 0.9886 0.08375 0.0
C1023 C 0.99072 0.98884 0.07101 0.0
C1024 C 0.11616 0.98803 0.08429 0.0
C1025 C 0.14335 0.98925 0.07327 0.0
C1026 C 0.04357 0.98946 0.07208 0.0
C1027 C 0.1189 0.99112 0.06184 0.0
C1028 C 0.96847 0.97867 0.05957 0.0
C1029 C 0.91483 1.00074 0.08047 0.0
N1030 N 0.07072 0.99084 0.06155 0.0
N1031 N 0.96304 0.99899 0.08111 0.0
H1032 H 0.49635 0.14362 0.84348 0.0
H1033 H 0.44514 0.89876 0.80797 0.0
H1034 H 0.47578 0.13103 0.80369 0.0
H1035 H 0.49799 0.90433 0.84573 0.0
H1036 H 0.44727 0.98492 0.80714 0.0
H1037 H 0.49043 0.05718 0.84526 0.0
C1038 C 0.4906 0.12285 0.83511 0.0
C1039 C 0.48593 0.14501 0.82342 0.0
C1040 C 0.45826 0.96738 0.81564 0.0
C1041 C 0.47853 0.04597 0.82543 0.0
C1042 C 0.45704 0.91799 0.81612 0.0
C1043 C 0.47211 0.89388 0.82686 0.0
C1044 C 0.47423 0.99333 0.82601 0.0
C1045 C 0.4861 0.92119 0.83723 0.0
C1046 C 0.48707 0.07347 0.83615 0.0
C1047 C 0.47854 0.11598 0.81293 0.0
N1048 N 0.48705 0.96935 0.83653 0.0
N1049 N 0.47489 0.06827 0.8142 0.0
H1050 H 0.8719 0.49905 0.18146 0.0
H1051 H 0.12425 0.50492 0.14704 0.0
H1052 H 0.88617 0.49735 0.14133 0.0
H1053 H 0.10475 0.45627 0.18481 0.0
H1054 H 0.03823 0.51717 0.14535 0.0
H1055 H 0.95789 0.49846 0.18335 0.0
C1056 C 0.89288 0.49893 0.17302 0.0
C1057 C 0.87119 0.49747 0.16121 0.0
C1058 C 0.0528 0.50421 0.15404 0.0
C1059 C 0.9706 0.49758 0.16335 0.0
C1060 C 0.10182 0.49755 0.15503 0.0
C1061 C 0.12149 0.48031 0.16614 0.0
C1062 C 0.02323 0.49352 0.16425 0.0
C1063 C 0.09092 0.47025 0.17614 0.0
C1064 C 0.94222 0.49856 0.17413 0.0
C1065 C 0.90096 0.49829 0.15065 0.0
N1066 N 0.04339 0.47709 0.17498 0.0
N1067 N 0.949 0.49814 0.15196 0.0
H1068 H 0.48636 0.63073 0.42478 0.0
H1069 H 0.53395 0.39004 0.38711 0.0
H1070 H 0.58543 0.62287 0.39418 0.0
H1071 H 0.49053 0.39483 0.42574 0.0
H1072 H 0.53863 0.47699 0.38709 0.0
H1073 H 0.47057 0.5457 0.42239 0.0
C1074 C 0.50351 0.61148 0.41729 0.0
C1075 C 0.53714 0.63381 0.40964 0.0
C1076 C 0.52814 0.45879 0.39556 0.0
C1077 C 0.51982 0.53668 0.40695 0.0
C1078 C 0.52564 0.40925 0.39559 0.0
C1079 C 0.51264 0.38489 0.4065 0.0
C1080 C 0.51635 0.4842 0.40642 0.0
C1081 C 0.50173 0.41176 0.41719 0.0
C1082 C 0.49505 0.56286 0.41604 0.0
C1083 C 0.55916 0.60691 0.40024 0.0
N1084 N 0.50357 0.45978 0.41686 0.0
N1085 N 0.5503 0.55977 0.39919 0.0
H1086 H 0.42552 0.46343 0.55856 0.0
H1087 H 0.68029 0.52349 0.58787 0.0
H1088 H 0.44782 0.55993 0.58913 0.0
H1089 H 0.6605 0.44131 0.55432 0.0
H1090 H 0.59424 0.52709 0.59043 0.0
H1091 H 0.51017 0.44313 0.5591 0.0
C1092 C 0.44788 0.47898 0.56568 0.0
C1093 C 0.42974 0.51312 0.57387 0.0
C1094 C 0.60877 0.50788 0.58256 0.0
C1095 C 0.52654 0.49122 0.57436 0.0
C1096 C 0.65801 0.50589 0.58108 0.0
C1097 C 0.67806 0.48204 0.57085 0.0
C1098 C 0.57907 0.48595 0.57374 0.0
C1099 C 0.64706 0.4598 0.5624 0.0
C1100 C 0.49632 0.46796 0.56588 0.0
C1101 C 0.46049 0.53326 0.58269 0.0
N1102 N 0.59932 0.46251 0.56399 0.0
N1103 N 0.50731 0.52234 0.58264 0.0
H1104 H 0.26468 0.31462 0.40633 0.0
H1105 H 0.18977 0.20448 0.34072 0.0
H1106 H 0.35139 0.21372 0.38651 0.0
H1107 H 0.15151 0.3443 0.35308 0.0
H1108 H 0.23315 0.19254 0.36036 0.0
H1109 H 0.20591 0.30936 0.38973 0.0
C1110 C 0.27123 0.29107 0.39855 0.0
C1111 C 0.31369 0.26567 0.39762 0.0
C1112 C 0.21477 0.22557 0.35879 0.0
C1113 C 0.24629 0.25894 0.37878 0.0
C1114 C 0.19013 0.23232 0.34766 0.0
C1115 C 0.16787 0.27565 0.34532 0.0
C1116 C 0.21613 0.26212 0.36764 0.0
C1117 C 0.1691 0.3108 0.35451 0.0
C1118 C 0.23758 0.28795 0.38913 0.0
C1119 C 0.31943 0.23429 0.38756 0.0
N1120 N 0.19296 0.3033 0.36529 0.0
N1121 N 0.2863 0.23227 0.37841 0.0
H1122 H 0.15089 0.8069 0.63969 0.0
H1123 H 0.34538 0.73326 0.59238 0.0
H1124 H 0.27771 0.88948 0.63416 0.0
H1125 H 0.20136 0.68613 0.58871 0.0
H1126 H 0.3186 0.79869 0.60557 0.0
H1127 H 0.16505 0.7679 0.61962 0.0
C1128 C 0.18156 0.8169 0.63421 0.0
C1129 C 0.21367 0.85069 0.63866 0.0
C1130 C 0.2925 0.77509 0.60157 0.0
C1131 C 0.22995 0.80679 0.61575 0.0
C1132 C 0.30785 0.73815 0.594 0.0
C1133 C 0.27531 0.70504 0.58955 0.0
C1134 C 0.24453 0.77748 0.60501 0.0
C1135 C 0.22713 0.71163 0.59198 0.0
C1136 C 0.18932 0.79518 0.6227 0.0
C1137 C 0.25223 0.8634 0.63108 0.0
N1138 N 0.21315 0.74655 0.59985 0.0
N1139 N 0.25976 0.84084 0.62008 0.0
H1140 H 0.87154 0.77985 0.34621 0.0
H1141 H 0.63438 0.73243 0.38505 0.0
H1142 H 0.74563 0.71775 0.33034 0.0
H1143 H 0.75758 0.80165 0.40032 0.0
H1144 H 0.67578 0.72343 0.3652 0.0
H1145 H 0.83223 0.78321 0.36646 0.0
C1146 C 0.83583 0.76631 0.34701 0.0
C1147 C 0.81178 0.7485 0.33655 0.0
C1148 C 0.69378 0.74065 0.37288 0.0
C1149 C 0.76624 0.75307 0.3597 0.0
C1150 C 0.66999 0.7462 0.3842 0.0
C1151 C 0.69243 0.7683 0.39433 0.0
C1152 C 0.74038 0.75731 0.37168 0.0
C1153 C 0.73909 0.78422 0.39277 0.0
C1154 C 0.81324 0.76864 0.35857 0.0
C1155 C 0.76521 0.73229 0.33812 0.0
N1156 N 0.76151 0.77853 0.38164 0.0
N1157 N 0.74389 0.73508 0.34948 0.0
H1158 H 0.6909 0.24476 0.64323 0.0
H1159 H 0.83897 0.24309 0.57944 0.0
H1160 H 0.78053 0.12919 0.63168 0.0
H1161 H 0.73286 0.34739 0.5884 0.0
H1162 H 0.82065 0.20225 0.59898 0.0
H1163 H 0.70928 0.28532 0.62365 0.0
C1164 C 0.71442 0.22793 0.6366 0.0
C1165 C 0.73423 0.18357 0.63914 0.0
C1166 C 0.80135 0.23406 0.59665 0.0
C1167 C 0.75559 0.22973 0.61676 0.0
C1168 C 0.8116 0.25719 0.58546 0.0
C1169 C 0.78765 0.29887 0.58232 0.0
C1170 C 0.76694 0.25281 0.60474 0.0
C1171 C 0.75287 0.31589 0.59055 0.0
C1172 C 0.72498 0.2511 0.62544 0.0
C1173 C 0.76502 0.16365 0.63026 0.0
N1174 N 0.74365 0.29287 0.60139 0.0
N1175 N 0.77467 0.18685 0.61946 0.0
H1176 H 0.15933 0.30255 0.88527 0.0
H1177 H 0.35492 0.19736 0.83917 0.0
H1178 H 0.2831 0.22727 0.89773 0.0
H1179 H 0.25395 0.30355 0.82816 0.0
H1180 H 0.31884 0.19495 0.8599 0.0
H1181 H 0.18466 0.29142 0.86364 0.0
C1182 C 0.19169 0.28333 0.88343 0.0
C1183 C 0.21931 0.26584 0.89328 0.0
C1184 C 0.3043 0.21847 0.85292 0.0
C1185 C 0.24843 0.25305 0.86859 0.0
C1186 C 0.32482 0.21985 0.8411 0.0
C1187 C 0.30799 0.25147 0.83204 0.0
C1188 C 0.26655 0.2488 0.85569 0.0
C1189 C 0.26809 0.27883 0.83489 0.0
C1190 C 0.20617 0.27715 0.8711 0.0
C1191 C 0.26121 0.24178 0.8904 0.0
N1192 N 0.24902 0.2773 0.84655 0.0
N1193 N 0.27453 0.23605 0.87829 0.0
H1194 H 0.17382 0.6225 0.11856 0.0
H1195 H 0.3135 0.83988 0.09188 0.0
H1196 H 0.29792 0.6776 0.13689 0.0
H1197 H 0.2279 0.74931 0.06856 0.0
H1198 H 0.31234 0.77939 0.10809 0.0
H1199 H 0.19434 0.66812 0.0999 0.0
C1200 C 0.20543 0.64418 0.1186 0.0
C1201 C 0.23397 0.64682 0.12925 0.0
C1202 C 0.2945 0.77247 0.09934 0.0
C1203 C 0.25776 0.69891 0.10806 0.0
C1204 C 0.29532 0.80694 0.09003 0.0
C1205 C 0.26968 0.80016 0.07895 0.0
C1206 C 0.26739 0.73138 0.09758 0.0
C1207 C 0.24677 0.75666 0.07713 0.0
C1208 C 0.21744 0.66978 0.10795 0.0
C1209 C 0.27507 0.67469 0.12883 0.0
N1210 N 0.24538 0.72426 0.08645 0.0
N1211 N 0.28543 0.70029 0.11845 0.0
H1212 H 0.88223 0.69707 0.86677 0.0
H1213 H 0.607 0.74869 0.85864 0.0
H1214 H 0.79677 0.75762 0.89609 0.0
H1215 H 0.71023 0.74961 0.82904 0.0
H1216 H 0.66935 0.72459 0.87346 0.0
H1217 H 0.8113 0.68645 0.85412 0.0
C1218 C 0.84831 0.70755 0.87059 0.0
C1219 C 0.84522 0.72967 0.88227 0.0
C1220 C 0.67799 0.72923 0.86367 0.0
C1221 C 0.76437 0.71754 0.86794 0.0
C1222 C 0.64274 0.7429 0.85531 0.0
C1223 C 0.65444 0.75154 0.84281 0.0
C1224 C 0.72452 0.72352 0.8593 0.0
C1225 C 0.70064 0.7437 0.83871 0.0
C1226 C 0.80796 0.70129 0.86341 0.0
C1227 C 0.80043 0.74106 0.88703 0.0
N1228 N 0.73422 0.73029 0.84696 0.0
N1229 N 0.76156 0.73578 0.8797 0.0
H1230 H 0.82875 0.23886 0.07216 0.0
H1231 H 0.69856 0.30796 0.13582 0.0
H1232 H 0.71759 0.15339 0.08833 0.0
H1233 H 0.84302 0.34462 0.12712 0.0
H1234 H 0.69267 0.26674 0.11562 0.0
H1235 H 0.82069 0.29441 0.08946 0.0
C1236 C 0.80244 0.23185 0.07928 0.0
C1237 C 0.77474 0.19063 0.07895 0.0
C1238 C 0.72545 0.2842 0.11813 0.0
C1239 C 0.76485 0.25454 0.09863 0.0
C1240 C 0.72878 0.30764 0.12958 0.0
C1241 C 0.77157 0.32885 0.13313 0.0
C1242 C 0.76493 0.28301 0.11016 0.0
C1243 C 0.80979 0.32777 0.12478 0.0
C1244 C 0.79776 0.2637 0.08911 0.0
C1245 C 0.73998 0.18442 0.08822 0.0
N1246 N 0.80561 0.30514 0.11367 0.0
N1247 N 0.73638 0.2158 0.09779 0.0
loop_
_geom_bond_atom_site_label_1
_geom_bond_atom_site_label_2
_geom_bond_distance
_geom_bond_site_symmetry_2
_ccdc_geom_bond_type
C0 C1 1.351 . S
C0 N3 1.368 . S
C0 H5 0.931 . S
C1 C0 1.351 . S
C1 N2 1.373 . S
C1 H29 0.930 . S
N2 C1 1.373 . S
N2 C4 1.340 . S
N3 C0 1.368 . S
N3 C4 1.321 . S
N3 Co6 2.135 1_655 S
C4 N2 1.340 . S
C4 N3 1.321 . S
C4 H28 0.930 . S
H5 C0 0.931 . S
Co6 N3 2.135 1_455 S
Co6 N9 2.121 . S
Co6 O14 2.055 1_455 S
Co6 O17 2.039 1_455 S
Co6 N20 2.140 . S
C7 O8 1.227 1_655 S
C7 O17 1.265 . S
O8 C7 1.227 1_455 S
N9 Co6 2.121 . S
N9 C11 1.375 . S
N9 C12 1.313 . S
C10 C11 1.338 . S
C10 N13 1.377 . S
C10 H30 0.930 . S
C11 N9 1.375 . S
C11 C10 1.338 . S
C11 H15 0.931 . S
C12 N9 1.313 . S
C12 N13 1.344 . S
C12 H16 0.930 . S
N13 C10 1.377 . S
N13 C12 1.344 . S
O14 Co6 2.055 1_655 S
O14 C18 1.253 1_655 S
H15 C11 0.931 . S
H16 C12 0.930 . S
O17 Co6 2.039 1_655 S
O17 C7 1.265 . S
C18 O14 1.253 1_455 S
C18 O19 1.227 . S
O19 C18 1.227 . S
N20 Co6 2.140 . S
N20 C23 1.346 . S
N20 C24 1.345 . S
C21 C22 1.387 . S
C21 C25 1.391 . S
C22 C21 1.387 . S
C22 C23 1.369 . S
C22 H31 0.929 . S
C23 N20 1.346 . S
C23 C22 1.369 . S
C23 H26 0.928 . S
C24 N20 1.345 . S
C24 C25 1.371 . S
C24 H27 0.931 . S
C25 C21 1.391 . S
C25 C24 1.371 . S
C25 H32 0.930 . S
H26 C23 0.928 . S
H27 C24 0.931 . S
H28 C4 0.930 . S
H29 C1 0.930 . S
H30 C10 0.930 . S
H31 C22 0.929 . S
H32 C25 0.930 . S
C33 C34 1.351 . S
C33 N36 1.368 . S
C33 H38 0.931 . S
C34 C33 1.351 . S
C34 N35 1.373 . S
C34 H62 0.930 . S
N35 C34 1.373 . S
N35 C37 1.340 . S
N36 C33 1.368 . S
N36 C37 1.321 . S
N36 Co39 2.135 1_545 S
C37 N35 1.340 . S
C37 N36 1.321 . S
C37 H61 0.930 . S
H38 C33 0.931 . S
Co39 N36 2.135 1_565 S
Co39 N42 2.121 . S
Co39 O47 2.055 1_565 S
Co39 O50 2.039 1_565 S
Co39 N53 2.140 . S
C40 O41 1.227 1_545 S
C40 O50 1.265 . S
O41 C40 1.227 1_565 S
N42 Co39 2.121 . S
N42 C44 1.375 . S
N42 C45 1.313 . S
C43 C44 1.338 . S
C43 N46 1.377 . S
C43 H63 0.930 . S
C44 N42 1.375 . S
C44 C43 1.338 . S
C44 H48 0.931 . S
C45 N42 1.313 . S
C45 N46 1.344 . S
C45 H49 0.930 . S
N46 C43 1.377 . S
N46 C45 1.344 . S
O47 Co39 2.055 1_545 S
O47 C51 1.253 1_545 S
H48 C44 0.931 . S
H49 C45 0.930 . S
O50 Co39 2.039 1_545 S
O50 C40 1.265 . S
C51 O47 1.253 1_565 S
C51 O52 1.227 . S
O52 C51 1.227 . S
N53 Co39 2.140 . S
N53 C56 1.346 . S
N53 C57 1.345 . S
C54 C55 1.387 . S
C54 C58 1.391 . S
C55 C54 1.387 . S
C55 C56 1.369 . S
C55 H64 0.929 . S
C56 N53 1.346 . S
C56 C55 1.369 . S
C56 H59 0.928 . S
C57 N53 1.345 . S
C57 C58 1.371 . S
C57 H60 0.931 . S
C58 C54 1.391 . S
C58 C57 1.371 . S
C58 H65 0.930 . S
H59 C56 0.928 . S
H60 C57 0.931 . S
H61 C37 0.930 . S
H62 C34 0.930 . S
H63 C43 0.930 . S
H64 C55 0.929 . S
H65 C58 0.930 . S
C66 C67 1.351 . S
C66 N69 1.368 . S
C66 H71 0.931 . S
C67 C66 1.351 . S
C67 N68 1.373 . S
C67 H95 0.930 . S
N68 C67 1.373 . S
N68 C70 1.340 . S
N69 C66 1.368 . S
N69 C70 1.321 . S
N69 Co72 2.135 1_455 S
C70 N68 1.340 . S
C70 N69 1.321 . S
C70 H94 0.930 . S
H71 C66 0.931 . S
Co72 N69 2.135 1_655 S
Co72 N75 2.121 . S
Co72 O80 2.055 1_655 S
Co72 O83 2.039 1_655 S
Co72 N86 2.140 . S
C73 O74 1.227 1_455 S
C73 O83 1.265 . S
O74 C73 1.227 1_655 S
N75 Co72 2.121 . S
N75 C77 1.375 . S
N75 C78 1.313 . S
C76 C77 1.338 . S
C76 N79 1.377 . S
C76 H96 0.930 . S
C77 N75 1.375 . S
C77 C76 1.338 . S
C77 H81 0.931 . S
C78 N75 1.313 . S
C78 N79 1.344 . S
C78 H82 0.930 . S
N79 C76 1.377 . S
N79 C78 1.344 . S
O80 Co72 2.055 1_455 S
O80 C84 1.253 1_455 S
H81 C77 0.931 . S
H82 C78 0.930 . S
O83 Co72 2.039 1_455 S
O83 C73 1.265 . S
C84 O80 1.253 1_655 S
C84 O85 1.227 . S
O85 C84 1.227 . S
N86 Co72 2.140 . S
N86 C89 1.346 . S
N86 C90 1.345 . S
C87 C88 1.387 . S
C87 C91 1.391 . S
C88 C87 1.387 . S
C88 C89 1.369 . S
C88 H97 0.929 . S
C89 N86 1.346 . S
C89 C88 1.369 . S
C89 H92 0.928 . S
C90 N86 1.345 . S
C90 C91 1.371 . S
C90 H93 0.931 . S
C91 C87 1.391 . S
C91 C90 1.371 . S
C91 H98 0.930 . S
H92 C89 0.928 . S
H93 C90 0.931 . S
H94 C70 0.930 . S
H95 C67 0.930 . S
H96 C76 0.930 . S
H97 C88 0.929 . S
H98 C91 0.930 . S
C99 C100 1.351 . S
C99 N102 1.368 . S
C99 H104 0.931 . S
C100 C99 1.351 . S
C100 N101 1.373 . S
C100 H128 0.930 . S
N101 C100 1.373 . S
N101 C103 1.340 . S
N102 C99 1.368 . S
N102 C103 1.321 . S
N102 Co105 2.135 1_565 S
C103 N101 1.340 . S
C103 N102 1.321 . S
C103 H127 0.930 . S
H104 C99 0.931 . S
Co105 N102 2.135 1_545 S
Co105 N108 2.121 . S
Co105 O113 2.055 1_545 S
Co105 O116 2.039 1_545 S
Co105 N119 2.140 . S
C106 O107 1.227 1_565 S
C106 O116 1.265 . S
O107 C106 1.227 1_545 S
N108 Co105 2.121 . S
N108 C110 1.375 . S
N108 C111 1.313 . S
C109 C110 1.338 . S
C109 N112 1.377 . S
C109 H129 0.930 . S
C110 N108 1.375 . S
C110 C109 1.338 . S
C110 H114 0.931 . S
C111 N108 1.313 . S
C111 N112 1.344 . S
C111 H115 0.930 . S
N112 C109 1.377 . S
N112 C111 1.344 . S
O113 Co105 2.055 1_565 S
O113 C117 1.253 1_565 S
H114 C110 0.931 . S
H115 C111 0.930 . S
O116 Co105 2.039 1_565 S
O116 C106 1.265 . S
C117 O113 1.253 1_545 S
C117 O118 1.227 . S
O118 C117 1.227 . S
N119 Co105 2.140 . S
N119 C122 1.346 . S
N119 C123 1.345 . S
C120 C121 1.387 . S
C120 C124 1.391 . S
C121 C120 1.387 . S
C121 C122 1.369 . S
C121 H130 0.929 . S
C122 N119 1.346 . S
C122 C121 1.369 . S
C122 H125 0.928 . S
C123 N119 1.345 . S
C123 C124 1.371 . S
C123 H126 0.931 . S
C124 C120 1.391 . S
C124 C123 1.371 . S
C124 H131 0.930 . S
H125 C122 0.928 . S
H126 C123 0.931 . S
H127 C103 0.930 . S
H128 C100 0.930 . S
H129 C109 0.930 . S
H130 C121 0.929 . S
H131 C124 0.930 . S
C132 C133 1.351 . S
C132 N135 1.368 . S
C132 H137 0.931 . S
C133 C132 1.351 . S
C133 N134 1.373 . S
C133 H161 0.930 . S
N134 C133 1.373 . S
N134 C136 1.340 . S
N135 C132 1.368 . S
N135 C136 1.321 . S
N135 Co138 2.135 1_655 S
C136 N134 1.340 . S
C136 N135 1.321 . S
C136 H160 0.930 . S
H137 C132 0.931 . S
Co138 N135 2.135 1_455 S
Co138 N141 2.121 . S
Co138 O146 2.055 1_455 S
Co138 O149 2.039 1_455 S
Co138 N152 2.140 . S
C139 O140 1.227 1_655 S
C139 O149 1.265 . S
O140 C139 1.227 1_455 S
N141 Co138 2.121 . S
N141 C143 1.375 . S
N141 C144 1.313 . S
C142 C143 1.338 . S
C142 N145 1.377 . S
C142 H162 0.930 . S
C143 N141 1.375 . S
C143 C142 1.338 . S
C143 H147 0.931 . S
C144 N141 1.313 . S
C144 N145 1.344 . S
C144 H148 0.930 . S
N145 C142 1.377 . S
N145 C144 1.344 . S
O146 Co138 2.055 1_655 S
O146 C150 1.253 1_655 S
H147 C143 0.931 . S
H148 C144 0.930 . S
O149 Co138 2.039 1_655 S
O149 C139 1.265 . S
C150 O146 1.253 1_455 S
C150 O151 1.227 . S
O151 C150 1.227 . S
N152 Co138 2.140 . S
N152 C155 1.346 . S
N152 C156 1.345 . S
C153 C154 1.387 . S
C153 C157 1.391 . S
C154 C153 1.387 . S
C154 C155 1.369 . S
C154 H163 0.929 . S
C155 N152 1.346 . S
C155 C154 1.369 . S
C155 H158 0.928 . S
C156 N152 1.345 . S
C156 C157 1.371 . S
C156 H159 0.931 . S
C157 C153 1.391 . S
C157 C156 1.371 . S
C157 H164 0.930 . S
H158 C155 0.928 . S
H159 C156 0.931 . S
H160 C136 0.930 . S
H161 C133 0.930 . S
H162 C142 0.930 . S
H163 C154 0.929 . S
H164 C157 0.930 . S
C165 C166 1.351 . S
C165 N168 1.368 . S
C165 H170 0.931 . S
C166 C165 1.351 . S
C166 N167 1.373 . S
C166 H194 0.930 . S
N167 C166 1.373 . S
N167 C169 1.340 . S
N168 C165 1.368 . S
N168 C169 1.321 . S
N168 Co171 2.135 1_545 S
C169 N167 1.340 . S
C169 N168 1.321 . S
C169 H193 0.930 . S
H170 C165 0.931 . S
Co171 N168 2.135 1_565 S
Co171 N174 2.121 . S
Co171 O179 2.055 1_565 S
Co171 O182 2.039 1_565 S
Co171 N185 2.140 . S
C172 O173 1.227 1_545 S
C172 O182 1.265 . S
O173 C172 1.227 1_565 S
N174 Co171 2.121 . S
N174 C176 1.375 . S
N174 C177 1.313 . S
C175 C176 1.338 . S
C175 N178 1.377 . S
C175 H195 0.930 . S
C176 N174 1.375 . S
C176 C175 1.338 . S
C176 H180 0.931 . S
C177 N174 1.313 . S
C177 N178 1.344 . S
C177 H181 0.930 . S
N178 C175 1.377 . S
N178 C177 1.344 . S
O179 Co171 2.055 1_545 S
O179 C183 1.253 1_545 S
H180 C176 0.931 . S
H181 C177 0.930 . S
O182 Co171 2.039 1_545 S
O182 C172 1.265 . S
C183 O179 1.253 1_565 S
C183 O184 1.227 . S
O184 C183 1.227 . S
N185 Co171 2.140 . S
N185 C188 1.346 . S
N185 C189 1.345 . S
C186 C187 1.387 . S
C186 C190 1.391 . S
C187 C186 1.387 . S
C187 C188 1.369 . S
C187 H196 0.929 . S
C188 N185 1.346 . S
C188 C187 1.369 . S
C188 H191 0.928 . S
C189 N185 1.345 . S
C189 C190 1.371 . S
C189 H192 0.931 . S
C190 C186 1.391 . S
C190 C189 1.371 . S
C190 H197 0.930 . S
H191 C188 0.928 . S
H192 C189 0.931 . S
H193 C169 0.930 . S
H194 C166 0.930 . S
H195 C175 0.930 . S
H196 C187 0.929 . S
H197 C190 0.930 . S
C198 C199 1.351 . S
C198 N201 1.368 . S
C198 H203 0.931 . S
C199 C198 1.351 . S
C199 N200 1.373 . S
C199 H227 0.930 . S
N200 C199 1.373 . S
N200 C202 1.340 . S
N201 C198 1.368 . S
N201 C202 1.321 . S
N201 Co204 2.135 1_455 S
C202 N200 1.340 . S
C202 N201 1.321 . S
C202 H226 0.930 . S
H203 C198 0.931 . S
Co204 N201 2.135 1_655 S
Co204 N207 2.121 . S
Co204 O212 2.055 1_655 S
Co204 O215 2.039 1_655 S
Co204 N218 2.140 . S
C205 O206 1.227 1_455 S
C205 O215 1.265 . S
O206 C205 1.227 1_655 S
N207 Co204 2.121 . S
N207 C209 1.375 . S
N207 C210 1.313 . S
C208 C209 1.338 . S
C208 N211 1.377 . S
C208 H228 0.930 . S
C209 N207 1.375 . S
C209 C208 1.338 . S
C209 H213 0.931 . S
C210 N207 1.313 . S
C210 N211 1.344 . S
C210 H214 0.930 . S
N211 C208 1.377 . S
N211 C210 1.344 . S
O212 Co204 2.055 1_455 S
O212 C216 1.253 1_455 S
H213 C209 0.931 . S
H214 C210 0.930 . S
O215 Co204 2.039 1_455 S
O215 C205 1.265 . S
C216 O212 1.253 1_655 S
C216 O217 1.227 . S
O217 C216 1.227 . S
N218 Co204 2.140 . S
N218 C221 1.346 . S
N218 C222 1.345 . S
C219 C220 1.387 . S
C219 C223 1.391 . S
C220 C219 1.387 . S
C220 C221 1.369 . S
C220 H229 0.929 . S
C221 N218 1.346 . S
C221 C220 1.369 . S
C221 H224 0.928 . S
C222 N218 1.345 . S
C222 C223 1.371 . S
C222 H225 0.931 . S
C223 C219 1.391 . S
C223 C222 1.371 . S
C223 H230 0.930 . S
H224 C221 0.928 . S
H225 C222 0.931 . S
H226 C202 0.930 . S
H227 C199 0.930 . S
H228 C208 0.930 . S
H229 C220 0.929 . S
H230 C223 0.930 . S
C231 C232 1.351 . S
C231 N234 1.368 . S
C231 H236 0.931 . S
C232 C231 1.351 . S
C232 N233 1.373 . S
C232 H260 0.930 . S
N233 C232 1.373 . S
N233 C235 1.340 . S
N234 C231 1.368 . S
N234 C235 1.321 . S
N234 Co237 2.135 1_565 S
C235 N233 1.340 . S
C235 N234 1.321 . S
C235 H259 0.930 . S
H236 C231 0.931 . S
Co237 N234 2.135 1_545 S
Co237 N240 2.121 . S
Co237 O245 2.055 1_545 S
Co237 O248 2.039 1_545 S
Co237 N251 2.140 . S
C238 O239 1.227 1_565 S
C238 O248 1.265 . S
O239 C238 1.227 1_545 S
N240 Co237 2.121 . S
N240 C242 1.375 . S
N240 C243 1.313 . S
C241 C242 1.338 . S
C241 N244 1.377 . S
C241 H261 0.930 . S
C242 N240 1.375 . S
C242 C241 1.338 . S
C242 H246 0.931 . S
C243 N240 1.313 . S
C243 N244 1.344 . S
C243 H247 0.930 . S
N244 C241 1.377 . S
N244 C243 1.344 . S
O245 Co237 2.055 1_565 S
O245 C249 1.253 1_565 S
H246 C242 0.931 . S
H247 C243 0.930 . S
O248 Co237 2.039 1_565 S
O248 C238 1.265 . S
C249 O245 1.253 1_545 S
C249 O250 1.227 . S
O250 C249 1.227 . S
N251 Co237 2.140 . S
N251 C254 1.346 . S
N251 C255 1.345 . S
C252 C253 1.387 . S
C252 C256 1.391 . S
C253 C252 1.387 . S
C253 C254 1.369 . S
C253 H262 0.929 . S
C254 N251 1.346 . S
C254 C253 1.369 . S
C254 H257 0.928 . S
C255 N251 1.345 . S
C255 C256 1.371 . S
C255 H258 0.931 . S
C256 C252 1.391 . S
C256 C255 1.371 . S
C256 H263 0.930 . S
H257 C254 0.928 . S
H258 C255 0.931 . S
H259 C235 0.930 . S
H260 C232 0.930 . S
H261 C241 0.930 . S
H262 C253 0.929 . S
H263 C256 0.930 . S
C264 C265 1.351 . S
C264 N267 1.368 . S
C264 H269 0.931 . S
C265 C264 1.351 . S
C265 N266 1.373 . S
C265 H293 0.930 . S
N266 C265 1.373 . S
N266 C268 1.340 . S
N267 C264 1.368 . S
N267 C268 1.321 . S
N267 Co270 2.135 . S
C268 N266 1.340 . S
C268 N267 1.321 . S
C268 H292 0.930 . S
H269 C264 0.931 . S
Co270 N267 2.135 . S
Co270 N273 2.121 . S
Co270 O278 2.055 . S
Co270 O281 2.039 . S
Co270 N284 2.140 . S
C271 O272 1.227 . S
C271 O281 1.265 . S
O272 C271 1.227 . S
N273 Co270 2.121 . S
N273 C275 1.375 . S
N273 C276 1.313 . S
C274 C275 1.338 . S
C274 N277 1.377 . S
C274 H294 0.930 . S
C275 N273 1.375 . S
C275 C274 1.338 . S
C275 H279 0.931 . S
C276 N273 1.313 . S
C276 N277 1.344 . S
C276 H280 0.930 . S
N277 C274 1.377 . S
N277 C276 1.344 . S
O278 Co270 2.055 . S
O278 C282 1.253 . S
H279 C275 0.931 . S
H280 C276 0.930 . S
O281 Co270 2.039 . S
O281 C271 1.265 . S
C282 O278 1.253 . S
C282 O283 1.227 . S
O283 C282 1.227 . S
N284 Co270 2.140 . S
N284 C287 1.346 . S
N284 C288 1.345 . S
C285 C286 1.387 . S
C285 C289 1.391 . S
C286 C285 1.387 . S
C286 C287 1.369 . S
C286 H295 0.929 . S
C287 N284 1.346 . S
C287 C286 1.369 . S
C287 H290 0.928 . S
C288 N284 1.345 . S
C288 C289 1.371 . S
C288 H291 0.931 . S
C289 C285 1.391 . S
C289 C288 1.371 . S
C289 H296 0.930 . S
H290 C287 0.928 . S
H291 C288 0.931 . S
H292 C268 0.930 . S
H293 C265 0.930 . S
H294 C274 0.930 . S
H295 C286 0.929 . S
H296 C289 0.930 . S
C297 C298 1.351 . S
C297 N300 1.368 . S
C297 H302 0.931 . S
C298 C297 1.351 . S
C298 N299 1.373 . S
C298 H326 0.930 . S
N299 C298 1.373 . S
N299 C301 1.340 . S
N300 C297 1.368 . S
N300 C301 1.321 . S
N300 Co303 2.135 . S
C301 N299 1.340 . S
C301 N300 1.321 . S
C301 H325 0.930 . S
H302 C297 0.931 . S
Co303 N300 2.135 . S
Co303 N306 2.121 . S
Co303 O311 2.055 . S
Co303 O314 2.039 . S
Co303 N317 2.140 . S
C304 O305 1.227 . S
C304 O314 1.265 . S
O305 C304 1.227 . S
N306 Co303 2.121 . S
N306 C308 1.375 . S
N306 C309 1.313 . S
C307 C308 1.338 . S
C307 N310 1.377 . S
C307 H327 0.930 . S
C308 N306 1.375 . S
C308 C307 1.338 . S
C308 H312 0.931 . S
C309 N306 1.313 . S
C309 N310 1.344 . S
C309 H313 0.930 . S
N310 C307 1.377 . S
N310 C309 1.344 . S
O311 Co303 2.055 . S
O311 C315 1.253 . S
H312 C308 0.931 . S
H313 C309 0.930 . S
O314 Co303 2.039 . S
O314 C304 1.265 . S
C315 O311 1.253 . S
C315 O316 1.227 . S
O316 C315 1.227 . S
N317 Co303 2.140 . S
N317 C320 1.346 . S
N317 C321 1.345 . S
C318 C319 1.387 . S
C318 C322 1.391 . S
C319 C318 1.387 . S
C319 C320 1.369 . S
C319 H328 0.929 . S
C320 N317 1.346 . S
C320 C319 1.369 . S
C320 H323 0.928 . S
C321 N317 1.345 . S
C321 C322 1.371 . S
C321 H324 0.931 . S
C322 C318 1.391 . S
C322 C321 1.371 . S
C322 H329 0.930 . S
H323 C320 0.928 . S
H324 C321 0.931 . S
H325 C301 0.930 . S
H326 C298 0.930 . S
H327 C307 0.930 . S
H328 C319 0.929 . S
H329 C322 0.930 . S
C330 C331 1.351 . S
C330 N333 1.368 . S
C330 H335 0.931 . S
C331 C330 1.351 . S
C331 N332 1.373 . S
C331 H359 0.930 . S
N332 C331 1.373 . S
N332 C334 1.340 . S
N333 C330 1.368 . S
N333 C334 1.321 . S
N333 Co336 2.135 . S
C334 N332 1.340 . S
C334 N333 1.321 . S
C334 H358 0.930 . S
H335 C330 0.931 . S
Co336 N333 2.135 . S
Co336 N339 2.121 . S
Co336 O344 2.055 . S
Co336 O347 2.039 . S
Co336 N350 2.140 . S
C337 O338 1.227 . S
C337 O347 1.265 . S
O338 C337 1.227 . S
N339 Co336 2.121 . S
N339 C341 1.375 . S
N339 C342 1.313 . S
C340 C341 1.338 . S
C340 N343 1.377 . S
C340 H360 0.930 . S
C341 N339 1.375 . S
C341 C340 1.338 . S
C341 H345 0.931 . S
C342 N339 1.313 . S
C342 N343 1.344 . S
C342 H346 0.930 . S
N343 C340 1.377 . S
N343 C342 1.344 . S
O344 Co336 2.055 . S
O344 C348 1.253 . S
H345 C341 0.931 . S
H346 C342 0.930 . S
O347 Co336 2.039 . S
O347 C337 1.265 . S
C348 O344 1.253 . S
C348 O349 1.227 . S
O349 C348 1.227 . S
N350 Co336 2.140 . S
N350 C353 1.346 . S
N350 C354 1.345 . S
C351 C352 1.387 . S
C351 C355 1.391 . S
C352 C351 1.387 . S
C352 C353 1.369 . S
C352 H361 0.929 . S
C353 N350 1.346 . S
C353 C352 1.369 . S
C353 H356 0.928 . S
C354 N350 1.345 . S
C354 C355 1.371 . S
C354 H357 0.931 . S
C355 C351 1.391 . S
C355 C354 1.371 . S
C355 H362 0.930 . S
H356 C353 0.928 . S
H357 C354 0.931 . S
H358 C334 0.930 . S
H359 C331 0.930 . S
H360 C340 0.930 . S
H361 C352 0.929 . S
H362 C355 0.930 . S
C363 C364 1.351 . S
C363 N366 1.368 . S
C363 H368 0.931 . S
C364 C363 1.351 . S
C364 N365 1.373 . S
C364 H392 0.930 . S
N365 C364 1.373 . S
N365 C367 1.340 . S
N366 C363 1.368 . S
N366 C367 1.321 . S
N366 Co369 2.135 . S
C367 N365 1.340 . S
C367 N366 1.321 . S
C367 H391 0.930 . S
H368 C363 0.931 . S
Co369 N366 2.135 . S
Co369 N372 2.121 . S
Co369 O377 2.055 . S
Co369 O380 2.039 . S
Co369 N383 2.140 . S
C370 O371 1.227 . S
C370 O380 1.265 . S
O371 C370 1.227 . S
N372 Co369 2.121 . S
N372 C374 1.375 . S
N372 C375 1.313 . S
C373 C374 1.338 . S
C373 N376 1.377 . S
C373 H393 0.930 . S
C374 N372 1.375 . S
C374 C373 1.338 . S
C374 H378 0.931 . S
C375 N372 1.313 . S
C375 N376 1.344 . S
C375 H379 0.930 . S
N376 C373 1.377 . S
N376 C375 1.344 . S
O377 Co369 2.055 . S
O377 C381 1.253 . S
H378 C374 0.931 . S
H379 C375 0.930 . S
O380 Co369 2.039 . S
O380 C370 1.265 . S
C381 O377 1.253 . S
C381 O382 1.227 . S
O382 C381 1.227 . S
N383 Co369 2.140 . S
N383 C386 1.346 . S
N383 C387 1.345 . S
C384 C385 1.387 . S
C384 C388 1.391 . S
C385 C384 1.387 . S
C385 C386 1.369 . S
C385 H394 0.929 . S
C386 N383 1.346 . S
C386 C385 1.369 . S
C386 H389 0.928 . S
C387 N383 1.345 . S
C387 C388 1.371 . S
C387 H390 0.931 . S
C388 C384 1.391 . S
C388 C387 1.371 . S
C388 H395 0.930 . S
H389 C386 0.928 . S
H390 C387 0.931 . S
H391 C367 0.930 . S
H392 C364 0.930 . S
H393 C373 0.930 . S
H394 C385 0.929 . S
H395 C388 0.930 . S
C396 C397 1.351 . S
C396 N399 1.368 . S
C396 H401 0.931 . S
C397 C396 1.351 . S
C397 N398 1.373 . S
C397 H425 0.930 . S
N398 C397 1.373 . S
N398 C400 1.340 . S
N399 C396 1.368 . S
N399 C400 1.321 . S
N399 Co402 2.135 . S
C400 N398 1.340 . S
C400 N399 1.321 . S
C400 H424 0.930 . S
H401 C396 0.931 . S
Co402 N399 2.135 . S
Co402 N405 2.121 . S
Co402 O410 2.055 . S
Co402 O413 2.039 . S
Co402 N416 2.140 . S
C403 O404 1.227 . S
C403 O413 1.265 . S
O404 C403 1.227 . S
N405 Co402 2.121 . S
N405 C407 1.375 . S
N405 C408 1.313 . S
C406 C407 1.338 . S
C406 N409 1.377 . S
C406 H426 0.930 . S
C407 N405 1.375 . S
C407 C406 1.338 . S
C407 H411 0.931 . S
C408 N405 1.313 . S
C408 N409 1.344 . S
C408 H412 0.930 . S
N409 C406 1.377 . S
N409 C408 1.344 . S
O410 Co402 2.055 . S
O410 C414 1.253 . S
H411 C407 0.931 . S
H412 C408 0.930 . S
O413 Co402 2.039 . S
O413 C403 1.265 . S
C414 O410 1.253 . S
C414 O415 1.227 . S
O415 C414 1.227 . S
N416 Co402 2.140 . S
N416 C419 1.346 . S
N416 C420 1.345 . S
C417 C418 1.387 . S
C417 C421 1.391 . S
C418 C417 1.387 . S
C418 C419 1.369 . S
C418 H427 0.929 . S
C419 N416 1.346 . S
C419 C418 1.369 . S
C419 H422 0.928 . S
C420 N416 1.345 . S
C420 C421 1.371 . S
C420 H423 0.931 . S
C421 C417 1.391 . S
C421 C420 1.371 . S
C421 H428 0.930 . S
H422 C419 0.928 . S
H423 C420 0.931 . S
H424 C400 0.930 . S
H425 C397 0.930 . S
H426 C406 0.930 . S
H427 C418 0.929 . S
H428 C421 0.930 . S
C429 C430 1.351 . S
C429 N432 1.368 . S
C429 H434 0.931 . S
C430 C429 1.351 . S
C430 N431 1.373 . S
C430 H458 0.930 . S
N431 C430 1.373 . S
N431 C433 1.340 . S
N432 C429 1.368 . S
N432 C433 1.321 . S
N432 Co435 2.135 . S
C433 N431 1.340 . S
C433 N432 1.321 . S
C433 H457 0.930 . S
H434 C429 0.931 . S
Co435 N432 2.135 . S
Co435 N438 2.121 . S
Co435 O443 2.055 . S
Co435 O446 2.039 . S
Co435 N449 2.140 . S
C436 O437 1.227 . S
C436 O446 1.265 . S
O437 C436 1.227 . S
N438 Co435 2.121 . S
N438 C440 1.375 . S
N438 C441 1.313 . S
C439 C440 1.338 . S
C439 N442 1.377 . S
C439 H459 0.930 . S
C440 N438 1.375 . S
C440 C439 1.338 . S
C440 H444 0.931 . S
C441 N438 1.313 . S
C441 N442 1.344 . S
C441 H445 0.930 . S
N442 C439 1.377 . S
N442 C441 1.344 . S
O443 Co435 2.055 . S
O443 C447 1.253 . S
H444 C440 0.931 . S
H445 C441 0.930 . S
O446 Co435 2.039 . S
O446 C436 1.265 . S
C447 O443 1.253 . S
C447 O448 1.227 . S
O448 C447 1.227 . S
N449 Co435 2.140 . S
N449 C452 1.346 . S
N449 C453 1.345 . S
C450 C451 1.387 . S
C450 C454 1.391 . S
C451 C450 1.387 . S
C451 C452 1.369 . S
C451 H460 0.929 . S
C452 N449 1.346 . S
C452 C451 1.369 . S
C452 H455 0.928 . S
C453 N449 1.345 . S
C453 C454 1.371 . S
C453 H456 0.931 . S
C454 C450 1.391 . S
C454 C453 1.371 . S
C454 H461 0.930 . S
H455 C452 0.928 . S
H456 C453 0.931 . S
H457 C433 0.930 . S
H458 C430 0.930 . S
H459 C439 0.930 . S
H460 C451 0.929 . S
H461 C454 0.930 . S
C462 C463 1.351 . S
C462 N465 1.368 . S
C462 H467 0.931 . S
C463 C462 1.351 . S
C463 N464 1.373 . S
C463 H491 0.930 . S
N464 C463 1.373 . S
N464 C466 1.340 . S
N465 C462 1.368 . S
N465 C466 1.321 . S
N465 Co468 2.135 . S
C466 N464 1.340 . S
C466 N465 1.321 . S
C466 H490 0.930 . S
H467 C462 0.931 . S
Co468 N465 2.135 . S
Co468 N471 2.121 . S
Co468 O476 2.055 . S
Co468 O479 2.039 . S
Co468 N482 2.140 . S
C469 O470 1.227 . S
C469 O479 1.265 . S
O470 C469 1.227 . S
N471 Co468 2.121 . S
N471 C473 1.375 . S
N471 C474 1.313 . S
C472 C473 1.338 . S
C472 N475 1.377 . S
C472 H492 0.930 . S
C473 N471 1.375 . S
C473 C472 1.338 . S
C473 H477 0.931 . S
C474 N471 1.313 . S
C474 N475 1.344 . S
C474 H478 0.930 . S
N475 C472 1.377 . S
N475 C474 1.344 . S
O476 Co468 2.055 . S
O476 C480 1.253 . S
H477 C473 0.931 . S
H478 C474 0.930 . S
O479 Co468 2.039 . S
O479 C469 1.265 . S
C480 O476 1.253 . S
C480 O481 1.227 . S
O481 C480 1.227 . S
N482 Co468 2.140 . S
N482 C485 1.346 . S
N482 C486 1.345 . S
C483 C484 1.387 . S
C483 C487 1.391 . S
C484 C483 1.387 . S
C484 C485 1.369 . S
C484 H493 0.929 . S
C485 N482 1.346 . S
C485 C484 1.369 . S
C485 H488 0.928 . S
C486 N482 1.345 . S
C486 C487 1.371 . S
C486 H489 0.931 . S
C487 C483 1.391 . S
C487 C486 1.371 . S
C487 H494 0.930 . S
H488 C485 0.928 . S
H489 C486 0.931 . S
H490 C466 0.930 . S
H491 C463 0.930 . S
H492 C472 0.930 . S
H493 C484 0.929 . S
H494 C487 0.930 . S
C495 C496 1.351 . S
C495 N498 1.368 . S
C495 H500 0.931 . S
C496 C495 1.351 . S
C496 N497 1.373 . S
C496 H524 0.930 . S
N497 C496 1.373 . S
N497 C499 1.340 . S
N498 C495 1.368 . S
N498 C499 1.321 . S
N498 Co501 2.135 . S
C499 N497 1.340 . S
C499 N498 1.321 . S
C499 H523 0.930 . S
H500 C495 0.931 . S
Co501 N498 2.135 . S
Co501 N504 2.121 . S
Co501 O509 2.055 . S
Co501 O512 2.039 . S
Co501 N515 2.140 . S
C502 O503 1.227 . S
C502 O512 1.265 . S
O503 C502 1.227 . S
N504 Co501 2.121 . S
N504 C506 1.375 . S
N504 C507 1.313 . S
C505 C506 1.338 . S
C505 N508 1.377 . S
C505 H525 0.930 . S
C506 N504 1.375 . S
C506 C505 1.338 . S
C506 H510 0.931 . S
C507 N504 1.313 . S
C507 N508 1.344 . S
C507 H511 0.930 . S
N508 C505 1.377 . S
N508 C507 1.344 . S
O509 Co501 2.055 . S
O509 C513 1.253 . S
H510 C506 0.931 . S
H511 C507 0.930 . S
O512 Co501 2.039 . S
O512 C502 1.265 . S
C513 O509 1.253 . S
C513 O514 1.227 . S
O514 C513 1.227 . S
N515 Co501 2.140 . S
N515 C518 1.346 . S
N515 C519 1.345 . S
C516 C517 1.387 . S
C516 C520 1.391 . S
C517 C516 1.387 . S
C517 C518 1.369 . S
C517 H526 0.929 . S
C518 N515 1.346 . S
C518 C517 1.369 . S
C518 H521 0.928 . S
C519 N515 1.345 . S
C519 C520 1.371 . S
C519 H522 0.931 . S
C520 C516 1.391 . S
C520 C519 1.371 . S
C520 H527 0.930 . S
H521 C518 0.928 . S
H522 C519 0.931 . S
H523 C499 0.930 . S
H524 C496 0.930 . S
H525 C505 0.930 . S
H526 C517 0.929 . S
H527 C520 0.930 . S
H528 C534 0.930 . S
H529 C538 0.930 . S
H530 C543 0.929 . S
H531 C541 0.929 . S
H532 C536 0.929 . S
H533 C542 0.929 . S
C534 H528 0.930 . S
C534 C535 1.367 . S
C534 C542 1.378 . S
C535 C534 1.367 . S
C535 C543 1.433 . S
C536 H532 0.929 . S
C536 C538 1.378 . S
C536 C540 1.350 . S
C537 C540 1.463 . S
C537 C542 1.350 . S
C537 N545 1.427 . S
C538 H529 0.930 . S
C538 C536 1.378 . S
C538 C539 1.367 . S
C539 C538 1.367 . S
C539 C541 1.433 . S
C540 C536 1.350 . S
C540 C537 1.463 . S
C540 N544 1.427 . S
C541 H531 0.929 . S
C541 C539 1.433 . S
C541 N544 1.384 . S
C542 H533 0.929 . S
C542 C534 1.378 . S
C542 C537 1.350 . S
C543 H530 0.929 . S
C543 C535 1.433 . S
C543 N545 1.384 . S
N544 C540 1.427 . S
N544 C541 1.384 . S
N545 C537 1.427 . S
N545 C543 1.384 . S
H546 C552 0.930 . S
H547 C556 0.930 . S
H548 C561 0.929 . S
H549 C559 0.929 . S
H550 C554 0.929 . S
H551 C560 0.929 . S
C552 H546 0.930 . S
C552 C553 1.367 . S
C552 C560 1.378 . S
C553 C552 1.367 . S
C553 C561 1.433 . S
C554 H550 0.929 . S
C554 C556 1.378 . S
C554 C558 1.350 . S
C555 C558 1.463 . S
C555 C560 1.350 . S
C555 N563 1.427 . S
C556 H547 0.930 . S
C556 C554 1.378 . S
C556 C557 1.367 . S
C557 C556 1.367 . S
C557 C559 1.433 . S
C558 C554 1.350 . S
C558 C555 1.463 . S
C558 N562 1.427 . S
C559 H549 0.929 . S
C559 C557 1.433 . S
C559 N562 1.384 . S
C560 H551 0.929 . S
C560 C552 1.378 . S
C560 C555 1.350 . S
C561 H548 0.929 . S
C561 C553 1.433 . S
C561 N563 1.384 . S
N562 C558 1.427 . S
N562 C559 1.384 . S
N563 C555 1.427 . S
N563 C561 1.384 . S
H564 C570 0.930 . S
H565 C574 0.930 . S
H566 C579 0.929 . S
H567 C577 0.929 . S
H568 C572 0.929 . S
H569 C578 0.929 . S
C570 H564 0.930 . S
C570 C571 1.367 . S
C570 C578 1.378 . S
C571 C570 1.367 . S
C571 C579 1.433 . S
C572 H568 0.929 . S
C572 C574 1.378 . S
C572 C576 1.350 . S
C573 C576 1.463 . S
C573 C578 1.350 . S
C573 N581 1.427 . S
C574 H565 0.930 . S
C574 C572 1.378 . S
C574 C575 1.367 . S
C575 C574 1.367 . S
C575 C577 1.433 . S
C576 C572 1.350 . S
C576 C573 1.463 . S
C576 N580 1.427 . S
C577 H567 0.929 . S
C577 C575 1.433 . S
C577 N580 1.384 . S
C578 H569 0.929 . S
C578 C570 1.378 . S
C578 C573 1.350 . S
C579 H566 0.929 . S
C579 C571 1.433 . S
C579 N581 1.384 . S
N580 C576 1.427 . S
N580 C577 1.384 . S
N581 C573 1.427 . S
N581 C579 1.384 . S
H582 C588 0.930 . S
H583 C592 0.930 . S
H584 C597 0.929 . S
H585 C595 0.929 . S
H586 C590 0.929 . S
H587 C596 0.929 . S
C588 H582 0.930 . S
C588 C589 1.367 . S
C588 C596 1.378 . S
C589 C588 1.367 . S
C589 C597 1.433 . S
C590 H586 0.929 . S
C590 C592 1.378 . S
C590 C594 1.350 . S
C591 C594 1.463 . S
C591 C596 1.350 . S
C591 N599 1.427 . S
C592 H583 0.930 . S
C592 C590 1.378 . S
C592 C593 1.367 . S
C593 C592 1.367 . S
C593 C595 1.433 . S
C594 C590 1.350 . S
C594 C591 1.463 . S
C594 N598 1.427 . S
C595 H585 0.929 . S
C595 C593 1.433 . S
C595 N598 1.384 . S
C596 H587 0.929 . S
C596 C588 1.378 . S
C596 C591 1.350 . S
C597 H584 0.929 . S
C597 C589 1.433 . S
C597 N599 1.384 . S
N598 C594 1.427 . S
N598 C595 1.384 . S
N599 C591 1.427 . S
N599 C597 1.384 . S
H600 C606 0.930 . S
H601 C610 0.930 . S
H602 C615 0.929 . S
H603 C613 0.929 . S
H604 C608 0.929 . S
H605 C614 0.929 . S
C606 H600 0.930 . S
C606 C607 1.367 . S
C606 C614 1.378 . S
C607 C606 1.367 . S
C607 C615 1.433 . S
C608 H604 0.929 . S
C608 C610 1.378 . S
C608 C612 1.350 . S
C609 C612 1.463 1_554 S
C609 C614 1.350 . S
C609 N617 1.427 . S
C610 H601 0.930 . S
C610 C608 1.378 . S
C610 C611 1.367 . S
C611 C610 1.367 . S
C611 C613 1.433 . S
C612 C608 1.350 . S
C612 C609 1.463 1_556 S
C612 N616 1.427 . S
C613 H603 0.929 . S
C613 C611 1.433 . S
C613 N616 1.384 . S
C614 H605 0.929 . S
C614 C606 1.378 . S
C614 C609 1.350 . S
C615 H602 0.929 . S
C615 C607 1.433 . S
C615 N617 1.384 . S
N616 C612 1.427 . S
N616 C613 1.384 . S
N617 C609 1.427 . S
N617 C615 1.384 . S
H618 C624 0.930 . S
H619 C628 0.930 . S
H620 C633 0.929 . S
H621 C631 0.929 . S
H622 C626 0.929 . S
H623 C632 0.929 . S
C624 H618 0.930 . S
C624 C625 1.367 . S
C624 C632 1.378 . S
C625 C624 1.367 . S
C625 C633 1.433 . S
C626 H622 0.929 . S
C626 C628 1.378 . S
C626 C630 1.350 . S
C627 C630 1.463 1_556 S
C627 C632 1.350 . S
C627 N635 1.427 . S
C628 H619 0.930 . S
C628 C626 1.378 . S
C628 C629 1.367 . S
C629 C628 1.367 . S
C629 C631 1.433 . S
C630 C626 1.350 . S
C630 C627 1.463 1_554 S
C630 N634 1.427 . S
C631 H621 0.929 . S
C631 C629 1.433 . S
C631 N634 1.384 . S
C632 H623 0.929 . S
C632 C624 1.378 . S
C632 C627 1.350 . S
C633 H620 0.929 . S
C633 C625 1.433 . S
C633 N635 1.384 . S
N634 C630 1.427 . S
N634 C631 1.384 . S
N635 C627 1.427 . S
N635 C633 1.384 . S
H636 C642 0.930 . S
H637 C646 0.930 . S
H638 C651 0.929 . S
H639 C649 0.929 . S
H640 C644 0.929 . S
H641 C650 0.929 . S
C642 H636 0.930 . S
C642 C643 1.367 . S
C642 C650 1.378 . S
C643 C642 1.367 . S
C643 C651 1.433 . S
C644 H640 0.929 . S
C644 C646 1.378 . S
C644 C648 1.350 . S
C645 C648 1.463 1_556 S
C645 C650 1.350 . S
C645 N653 1.427 . S
C646 H637 0.930 . S
C646 C644 1.378 . S
C646 C647 1.367 . S
C647 C646 1.367 . S
C647 C649 1.433 . S
C648 C644 1.350 . S
C648 C645 1.463 1_554 S
C648 N652 1.427 . S
C649 H639 0.929 . S
C649 C647 1.433 . S
C649 N652 1.384 . S
C650 H641 0.929 . S
C650 C642 1.378 . S
C650 C645 1.350 . S
C651 H638 0.929 . S
C651 C643 1.433 . S
C651 N653 1.384 . S
N652 C648 1.427 . S
N652 C649 1.384 . S
N653 C645 1.427 . S
N653 C651 1.384 . S
H654 C660 0.930 . S
H655 C664 0.930 . S
H656 C669 0.929 . S
H657 C667 0.929 . S
H658 C662 0.929 . S
H659 C668 0.929 1_556 S
C660 H654 0.930 . S
C660 C661 1.367 . S
C660 C668 1.378 . S
C661 C660 1.367 . S
C661 C669 1.433 . S
C662 H658 0.929 . S
C662 C664 1.378 . S
C662 C666 1.350 . S
C663 C666 1.463 1_554 S
C663 C668 1.350 . S
C663 N671 1.427 . S
C664 H655 0.930 . S
C664 C662 1.378 . S
C664 C665 1.367 . S
C665 C664 1.367 . S
C665 C667 1.433 . S
C666 C662 1.350 . S
C666 C663 1.463 1_556 S
C666 N670 1.427 . S
C667 H657 0.929 . S
C667 C665 1.433 . S
C667 N670 1.384 . S
C668 H659 0.929 1_554 S
C668 C660 1.378 . S
C668 C663 1.350 . S
C669 H656 0.929 . S
C669 C661 1.433 . S
C669 N671 1.384 . S
N670 C666 1.427 . S
N670 C667 1.384 . S
N671 C663 1.427 . S
N671 C669 1.384 . S
H672 C678 0.930 . S
H673 C682 0.930 . S
H674 C687 0.929 . S
H675 C685 0.929 . S
H676 C680 0.929 . S
H677 C686 0.929 . S
C678 H672 0.930 . S
C678 C679 1.367 . S
C678 C686 1.378 . S
C679 C678 1.367 . S
C679 C687 1.433 . S
C680 H676 0.929 . S
C680 C682 1.378 . S
C680 C684 1.350 . S
C681 C684 1.463 . S
C681 C686 1.350 . S
C681 N689 1.427 . S
C682 H673 0.930 . S
C682 C680 1.378 . S
C682 C683 1.367 . S
C683 C682 1.367 . S
C683 C685 1.433 . S
C684 C680 1.350 . S
C684 C681 1.463 . S
C684 N688 1.427 . S
C685 H675 0.929 . S
C685 C683 1.433 . S
C685 N688 1.384 . S
C686 H677 0.929 . S
C686 C678 1.378 . S
C686 C681 1.350 . S
C687 H674 0.929 . S
C687 C679 1.433 . S
C687 N689 1.384 . S
N688 C684 1.427 . S
N688 C685 1.384 . S
N689 C681 1.427 . S
N689 C687 1.384 . S
H690 C696 0.930 . S
H691 C700 0.930 . S
H692 C705 0.929 . S
H693 C703 0.929 . S
H694 C698 0.929 . S
H695 C704 0.929 . S
C696 H690 0.930 . S
C696 C697 1.367 . S
C696 C704 1.378 . S
C697 C696 1.367 . S
C697 C705 1.433 . S
C698 H694 0.929 . S
C698 C700 1.378 . S
C698 C702 1.350 . S
C699 C702 1.463 . S
C699 C704 1.350 . S
C699 N707 1.427 . S
C700 H691 0.930 . S
C700 C698 1.378 . S
C700 C701 1.367 . S
C701 C700 1.367 . S
C701 C703 1.433 . S
C702 C698 1.350 . S
C702 C699 1.463 . S
C702 N706 1.427 . S
C703 H693 0.929 . S
C703 C701 1.433 . S
C703 N706 1.384 . S
C704 H695 0.929 . S
C704 C696 1.378 . S
C704 C699 1.350 . S
C705 H692 0.929 . S
C705 C697 1.433 . S
C705 N707 1.384 . S
N706 C702 1.427 . S
N706 C703 1.384 . S
N707 C699 1.427 . S
N707 C705 1.384 . S
H708 C714 0.930 . S
H709 C718 0.930 . S
H710 C723 0.929 . S
H711 C721 0.929 . S
H712 C716 0.929 . S
H713 C722 0.929 . S
C714 H708 0.930 . S
C714 C715 1.367 . S
C714 C722 1.378 . S
C715 C714 1.367 . S
C715 C723 1.433 . S
C716 H712 0.929 . S
C716 C718 1.378 . S
C716 C720 1.350 . S
C717 C720 1.463 . S
C717 C722 1.350 . S
C717 N725 1.427 . S
C718 H709 0.930 . S
C718 C716 1.378 . S
C718 C719 1.367 . S
C719 C718 1.367 . S
C719 C721 1.433 . S
C720 C716 1.350 . S
C720 C717 1.463 . S
C720 N724 1.427 . S
C721 H711 0.929 . S
C721 C719 1.433 . S
C721 N724 1.384 . S
C722 H713 0.929 . S
C722 C714 1.378 . S
C722 C717 1.350 . S
C723 H710 0.929 . S
C723 C715 1.433 . S
C723 N725 1.384 . S
N724 C720 1.427 . S
N724 C721 1.384 . S
N725 C717 1.427 . S
N725 C723 1.384 . S
H726 C732 0.930 . S
H727 C736 0.930 . S
H728 C741 0.929 . S
H729 C739 0.929 . S
H730 C734 0.929 . S
H731 C740 0.929 . S
C732 H726 0.930 . S
C732 C733 1.367 . S
C732 C740 1.378 . S
C733 C732 1.367 . S
C733 C741 1.433 . S
C734 H730 0.929 . S
C734 C736 1.378 . S
C734 C738 1.350 . S
C735 C738 1.463 . S
C735 C740 1.350 . S
C735 N743 1.427 . S
C736 H727 0.930 . S
C736 C734 1.378 . S
C736 C737 1.367 . S
C737 C736 1.367 . S
C737 C739 1.433 . S
C738 C734 1.350 . S
C738 C735 1.463 . S
C738 N742 1.427 . S
C739 H729 0.929 . S
C739 C737 1.433 . S
C739 N742 1.384 . S
C740 H731 0.929 . S
C740 C732 1.378 . S
C740 C735 1.350 . S
C741 H728 0.929 . S
C741 C733 1.433 . S
C741 N743 1.384 . S
N742 C738 1.427 . S
N742 C739 1.384 . S
N743 C735 1.427 . S
N743 C741 1.384 . S
H744 C750 0.930 . S
H745 C754 0.930 . S
H746 C759 0.929 . S
H747 C757 0.929 . S
H748 C752 0.929 . S
H749 C758 0.929 . S
C750 H744 0.930 . S
C750 C751 1.367 . S
C750 C758 1.378 . S
C751 C750 1.367 . S
C751 C759 1.433 . S
C752 H748 0.929 . S
C752 C754 1.378 . S
C752 C756 1.350 . S
C753 C756 1.463 . S
C753 C758 1.350 . S
C753 N761 1.427 . S
C754 H745 0.930 . S
C754 C752 1.378 . S
C754 C755 1.367 . S
C755 C754 1.367 . S
C755 C757 1.433 . S
C756 C752 1.350 . S
C756 C753 1.463 . S
C756 N760 1.427 . S
C757 H747 0.929 . S
C757 C755 1.433 . S
C757 N760 1.384 . S
C758 H749 0.929 . S
C758 C750 1.378 . S
C758 C753 1.350 . S
C759 H746 0.929 . S
C759 C751 1.433 . S
C759 N761 1.384 . S
N760 C756 1.427 . S
N760 C757 1.384 . S
N761 C753 1.427 . S
N761 C759 1.384 . S
H762 C768 0.930 . S
H763 C772 0.930 . S
H764 C777 0.929 . S
H765 C775 0.929 . S
H766 C770 0.929 . S
H767 C776 0.929 . S
C768 H762 0.930 . S
C768 C769 1.367 . S
C768 C776 1.378 . S
C769 C768 1.367 . S
C769 C777 1.433 . S
C770 H766 0.929 . S
C770 C772 1.378 . S
C770 C774 1.350 . S
C771 C774 1.463 . S
C771 C776 1.350 . S
C771 N779 1.427 . S
C772 H763 0.930 . S
C772 C770 1.378 . S
C772 C773 1.367 . S
C773 C772 1.367 . S
C773 C775 1.433 . S
C774 C770 1.350 . S
C774 C771 1.463 . S
C774 N778 1.427 . S
C775 H765 0.929 . S
C775 C773 1.433 . S
C775 N778 1.384 . S
C776 H767 0.929 . S
C776 C768 1.378 . S
C776 C771 1.350 . S
C777 H764 0.929 . S
C777 C769 1.433 . S
C777 N779 1.384 . S
N778 C774 1.427 . S
N778 C775 1.384 . S
N779 C771 1.427 . S
N779 C777 1.384 . S
H780 C786 0.930 . S
H781 C790 0.930 . S
H782 C795 0.929 . S
H783 C793 0.929 . S
H784 C788 0.929 . S
H785 C794 0.929 . S
C786 H780 0.930 . S
C786 C787 1.367 . S
C786 C794 1.378 . S
C787 C786 1.367 . S
C787 C795 1.433 . S
C788 H784 0.929 . S
C788 C790 1.378 . S
C788 C792 1.350 . S
C789 C792 1.463 . S
C789 C794 1.350 . S
C789 N797 1.427 . S
C790 H781 0.930 . S
C790 C788 1.378 . S
C790 C791 1.367 . S
C791 C790 1.367 . S
C791 C793 1.433 . S
C792 C788 1.350 . S
C792 C789 1.463 . S
C792 N796 1.427 . S
C793 H783 0.929 . S
C793 C791 1.433 . S
C793 N796 1.384 . S
C794 H785 0.929 . S
C794 C786 1.378 . S
C794 C789 1.350 . S
C795 H782 0.929 . S
C795 C787 1.433 . S
C795 N797 1.384 . S
N796 C792 1.427 . S
N796 C793 1.384 . S
N797 C789 1.427 . S
N797 C795 1.384 . S
H798 C804 0.930 . S
H799 C808 0.930 . S
H800 C813 0.929 . S
H801 C811 0.929 . S
H802 C806 0.929 . S
H803 C812 0.929 . S
C804 H798 0.930 . S
C804 C805 1.367 . S
C804 C812 1.378 . S
C805 C804 1.367 . S
C805 C813 1.433 . S
C806 H802 0.929 . S
C806 C808 1.378 . S
C806 C810 1.350 . S
C807 C810 1.463 . S
C807 C812 1.350 . S
C807 N815 1.427 . S
C808 H799 0.930 . S
C808 C806 1.378 . S
C808 C809 1.367 . S
C809 C808 1.367 . S
C809 C811 1.433 . S
C810 C806 1.350 . S
C810 C807 1.463 . S
C810 N814 1.427 . S
C811 H801 0.929 . S
C811 C809 1.433 . S
C811 N814 1.384 . S
C812 H803 0.929 . S
C812 C804 1.378 . S
C812 C807 1.350 . S
C813 H800 0.929 . S
C813 C805 1.433 . S
C813 N815 1.384 . S
N814 C810 1.427 . S
N814 C811 1.384 . S
N815 C807 1.427 . S
N815 C813 1.384 . S
H816 C822 0.930 . S
H817 C826 0.930 . S
H818 C831 0.929 . S
H819 C829 0.929 . S
H820 C824 0.929 . S
H821 C830 0.929 . S
C822 H816 0.930 . S
C822 C823 1.367 . S
C822 C830 1.378 . S
C823 C822 1.367 . S
C823 C831 1.433 1_455 S
C824 H820 0.929 . S
C824 C826 1.378 . S
C824 C828 1.350 . S
C825 C828 1.463 1_445 S
C825 C830 1.350 . S
C825 N833 1.427 1_455 S
C826 H817 0.930 . S
C826 C824 1.378 . S
C826 C827 1.367 . S
C827 C826 1.367 . S
C827 C829 1.433 1_655 S
C828 C824 1.350 . S
C828 C825 1.463 1_665 S
C828 N832 1.427 1_655 S
C829 H819 0.929 . S
C829 C827 1.433 1_455 S
C829 N832 1.384 . S
C830 H821 0.929 . S
C830 C822 1.378 . S
C830 C825 1.350 . S
C831 H818 0.929 . S
C831 C823 1.433 1_655 S
C831 N833 1.384 . S
N832 C828 1.427 1_455 S
N832 C829 1.384 . S
N833 C825 1.427 1_655 S
N833 C831 1.384 . S
H834 C840 0.931 . S
H835 C844 0.931 . S
H836 C849 0.929 . S
H837 C847 0.929 . S
H838 C842 0.929 . S
H839 C848 0.929 . S
C840 H834 0.931 . S
C840 C841 1.366 1_545 S
C840 C848 1.378 . S
C841 C840 1.366 1_565 S
C841 C849 1.433 . S
C842 H838 0.929 . S
C842 C844 1.378 . S
C842 C846 1.348 1_565 S
C843 C846 1.461 1_465 S
C843 C848 1.348 1_565 S
C843 N851 1.430 . S
C844 H835 0.931 . S
C844 C842 1.378 . S
C844 C845 1.366 1_565 S
C845 C844 1.366 1_545 S
C845 C847 1.433 . S
C846 C842 1.348 1_545 S
C846 C843 1.461 1_645 S
C846 N850 1.430 . S
C847 H837 0.929 . S
C847 C845 1.433 . S
C847 N850 1.384 . S
C848 H839 0.929 . S
C848 C840 1.378 . S
C848 C843 1.348 1_545 S
C849 H836 0.929 . S
C849 C841 1.433 . S
C849 N851 1.384 . S
N850 C846 1.430 . S
N850 C847 1.384 . S
N851 C843 1.430 . S
N851 C849 1.384 . S
H852 C858 0.930 . S
H853 C862 0.930 . S
H854 C867 0.929 . S
H855 C865 0.929 . S
H856 C860 0.929 . S
H857 C866 0.929 . S
C858 H852 0.930 . S
C858 C859 1.367 . S
C858 C866 1.378 . S
C859 C858 1.367 . S
C859 C867 1.433 . S
C860 H856 0.929 . S
C860 C862 1.378 . S
C860 C864 1.350 . S
C861 C864 1.463 1_655 S
C861 C866 1.350 . S
C861 N869 1.427 . S
C862 H853 0.930 . S
C862 C860 1.378 . S
C862 C863 1.367 . S
C863 C862 1.367 . S
C863 C865 1.433 . S
C864 C860 1.350 . S
C864 C861 1.463 1_455 S
C864 N868 1.427 . S
C865 H855 0.929 . S
C865 C863 1.433 . S
C865 N868 1.384 . S
C866 H857 0.929 . S
C866 C858 1.378 . S
C866 C861 1.350 . S
C867 H854 0.929 . S
C867 C859 1.433 . S
C867 N869 1.384 . S
N868 C864 1.427 . S
N868 C865 1.384 . S
N869 C861 1.427 . S
N869 C867 1.384 . S
H870 C876 0.930 . S
H871 C880 0.930 . S
H872 C885 0.929 . S
H873 C883 0.929 . S
H874 C878 0.929 . S
H875 C884 0.929 . S
C876 H870 0.930 . S
C876 C877 1.367 1_565 S
C876 C884 1.378 . S
C877 C876 1.367 1_545 S
C877 C885 1.433 . S
C878 H874 0.929 . S
C878 C880 1.378 . S
C878 C882 1.346 1_545 S
C879 C882 1.462 1_545 S
C879 C884 1.346 1_545 S
C879 N887 1.432 . S
C880 H871 0.930 . S
C880 C878 1.378 . S
C880 C881 1.367 1_545 S
C881 C880 1.367 1_565 S
C881 C883 1.433 . S
C882 C878 1.346 1_565 S
C882 C879 1.462 1_565 S
C882 N886 1.432 . S
C883 H873 0.929 . S
C883 C881 1.433 . S
C883 N886 1.384 . S
C884 H875 0.929 . S
C884 C876 1.378 . S
C884 C879 1.346 1_565 S
C885 H872 0.929 . S
C885 C877 1.433 . S
C885 N887 1.384 . S
N886 C882 1.432 . S
N886 C883 1.384 . S
N887 C879 1.432 . S
N887 C885 1.384 . S
H888 C894 0.930 . S
H889 C898 0.930 . S
H890 C903 0.929 . S
H891 C901 0.929 . S
H892 C896 0.929 . S
H893 C902 0.929 . S
C894 H888 0.930 . S
C894 C895 1.367 . S
C894 C902 1.378 . S
C895 C894 1.367 . S
C895 C903 1.433 . S
C896 H892 0.929 . S
C896 C898 1.378 . S
C896 C900 1.350 . S
C897 C900 1.463 . S
C897 C902 1.350 . S
C897 N905 1.427 . S
C898 H889 0.930 . S
C898 C896 1.378 . S
C898 C899 1.367 . S
C899 C898 1.367 . S
C899 C901 1.433 . S
C900 C896 1.350 . S
C900 C897 1.463 . S
C900 N904 1.427 . S
C901 H891 0.929 . S
C901 C899 1.433 . S
C901 N904 1.384 . S
C902 H893 0.929 . S
C902 C894 1.378 . S
C902 C897 1.350 . S
C903 H890 0.929 . S
C903 C895 1.433 . S
C903 N905 1.384 . S
N904 C900 1.427 . S
N904 C901 1.384 . S
N905 C897 1.427 . S
N905 C903 1.384 . S
H906 C912 0.930 . S
H907 C916 0.930 . S
H908 C921 0.929 . S
H909 C919 0.929 . S
H910 C914 0.929 . S
H911 C920 0.929 . S
C912 H906 0.930 . S
C912 C913 1.367 . S
C912 C920 1.378 . S
C913 C912 1.367 . S
C913 C921 1.433 . S
C914 H910 0.929 . S
C914 C916 1.378 . S
C914 C918 1.350 . S
C915 C918 1.463 . S
C915 C920 1.350 . S
C915 N923 1.427 . S
C916 H907 0.930 . S
C916 C914 1.378 . S
C916 C917 1.367 . S
C917 C916 1.367 . S
C917 C919 1.433 . S
C918 C914 1.350 . S
C918 C915 1.463 . S
C918 N922 1.427 . S
C919 H909 0.929 . S
C919 C917 1.433 . S
C919 N922 1.384 . S
C920 H911 0.929 . S
C920 C912 1.378 . S
C920 C915 1.350 . S
C921 H908 0.929 . S
C921 C913 1.433 . S
C921 N923 1.384 . S
N922 C918 1.427 . S
N922 C919 1.384 . S
N923 C915 1.427 . S
N923 C921 1.384 . S
H924 C930 0.930 . S
H925 C934 0.930 . S
H926 C939 0.929 . S
H927 C937 0.929 . S
H928 C932 0.929 . S
H929 C938 0.929 . S
C930 H924 0.930 . S
C930 C931 1.367 . S
C930 C938 1.378 . S
C931 C930 1.367 . S
C931 C939 1.433 . S
C932 H928 0.929 . S
C932 C934 1.378 . S
C932 C936 1.350 . S
C933 C936 1.463 1_565 S
C933 C938 1.350 . S
C933 N941 1.427 . S
C934 H925 0.930 . S
C934 C932 1.378 . S
C934 C935 1.367 . S
C935 C934 1.367 . S
C935 C937 1.433 . S
C936 C932 1.350 . S
C936 C933 1.463 1_545 S
C936 N940 1.427 . S
C937 H927 0.929 . S
C937 C935 1.433 . S
C937 N940 1.384 . S
C938 H929 0.929 . S
C938 C930 1.378 . S
C938 C933 1.350 . S
C939 H926 0.929 . S
C939 C931 1.433 . S
C939 N941 1.384 . S
N940 C936 1.427 . S
N940 C937 1.384 . S
N941 C933 1.427 . S
N941 C939 1.384 . S
H942 C948 0.930 . S
H943 C952 0.930 . S
H944 C957 0.929 . S
H945 C955 0.929 . S
H946 C950 0.929 . S
H947 C956 0.929 . S
C948 H942 0.930 . S
C948 C949 1.367 . S
C948 C956 1.378 . S
C949 C948 1.367 . S
C949 C957 1.433 . S
C950 H946 0.929 . S
C950 C952 1.378 . S
C950 C954 1.350 . S
C951 C954 1.463 1_455 S
C951 C956 1.350 . S
C951 N959 1.427 . S
C952 H943 0.930 . S
C952 C950 1.378 . S
C952 C953 1.367 . S
C953 C952 1.367 . S
C953 C955 1.433 . S
C954 C950 1.350 . S
C954 C951 1.463 1_655 S
C954 N958 1.427 . S
C955 H945 0.929 . S
C955 C953 1.433 . S
C955 N958 1.384 . S
C956 H947 0.929 . S
C956 C948 1.378 . S
C956 C951 1.350 . S
C957 H944 0.929 . S
C957 C949 1.433 . S
C957 N959 1.384 . S
N958 C954 1.427 . S
N958 C955 1.384 . S
N959 C951 1.427 . S
N959 C957 1.384 . S
H960 C966 0.930 . S
H961 C970 0.930 . S
H962 C975 0.929 . S
H963 C973 0.929 . S
H964 C968 0.929 . S
H965 C974 0.929 . S
C966 H960 0.930 . S
C966 C967 1.367 . S
C966 C974 1.378 . S
C967 C966 1.367 . S
C967 C975 1.433 1_455 S
C968 H964 0.929 . S
C968 C970 1.378 . S
C968 C972 1.350 . S
C969 C972 1.463 1_455 S
C969 C974 1.350 . S
C969 N977 1.427 1_455 S
C970 H961 0.930 . S
C970 C968 1.378 . S
C970 C971 1.367 . S
C971 C970 1.367 . S
C971 C973 1.433 1_655 S
C972 C968 1.350 . S
C972 C969 1.463 1_655 S
C972 N976 1.427 1_655 S
C973 H963 0.929 . S
C973 C971 1.433 1_455 S
C973 N976 1.384 . S
C974 H965 0.929 . S
C974 C966 1.378 . S
C974 C969 1.350 . S
C975 H962 0.929 . S
C975 C967 1.433 1_655 S
C975 N977 1.384 . S
N976 C972 1.427 1_455 S
N976 C973 1.384 . S
N977 C969 1.427 1_655 S
N977 C975 1.384 . S
H978 C984 0.930 . S
H979 C988 0.930 . S
H980 C993 0.929 . S
H981 C991 0.929 . S
H982 C986 0.929 . S
H983 C992 0.929 . S
C984 H978 0.930 . S
C984 C985 1.367 . S
C984 C992 1.378 . S
C985 C984 1.367 . S
C985 C993 1.433 1_545 S
C986 H982 0.929 . S
C986 C988 1.378 . S
C986 C990 1.350 . S
C987 C990 1.463 1_545 S
C987 C992 1.350 . S
C987 N995 1.427 1_545 S
C988 H979 0.930 . S
C988 C986 1.378 . S
C988 C989 1.367 . S
C989 C988 1.367 . S
C989 C991 1.433 1_565 S
C990 C986 1.350 . S
C990 C987 1.463 1_565 S
C990 N994 1.427 1_565 S
C991 H981 0.929 . S
C991 C989 1.433 1_545 S
C991 N994 1.384 . S
C992 H983 0.929 . S
C992 C984 1.378 . S
C992 C987 1.350 . S
C993 H980 0.929 . S
C993 C985 1.433 1_565 S
C993 N995 1.384 . S
N994 C990 1.427 1_545 S
N994 C991 1.384 . S
N995 C987 1.427 1_565 S
N995 C993 1.384 . S
H996 C1002 0.933 . S
H997 C1006 0.933 . S
H998 C1011 0.929 . S
H999 C1009 0.929 . S
H1000 C1004 0.929 . S
H1001 C1010 0.929 . S
C1002 H996 0.933 . S
C1002 C1003 1.363 1_455 S
C1002 C1010 1.379 . S
C1003 C1002 1.363 1_655 S
C1003 C1011 1.433 . S
C1004 H1000 0.929 . S
C1004 C1006 1.379 . S
C1004 C1008 1.350 1_655 S
C1005 C1008 1.463 1_645 S
C1005 C1010 1.350 1_655 S
C1005 N1013 1.427 . S
C1006 H997 0.933 . S
C1006 C1004 1.379 . S
C1006 C1007 1.363 1_655 S
C1007 C1006 1.363 1_455 S
C1007 C1009 1.433 . S
C1008 C1004 1.350 1_455 S
C1008 C1005 1.463 1_465 S
C1008 N1012 1.427 . S
C1009 H999 0.929 . S
C1009 C1007 1.433 . S
C1009 N1012 1.384 . S
C1010 H1001 0.929 . S
C1010 C1002 1.379 . S
C1010 C1005 1.350 1_455 S
C1011 H998 0.929 . S
C1011 C1003 1.433 . S
C1011 N1013 1.384 . S
N1012 C1008 1.427 . S
N1012 C1009 1.384 . S
N1013 C1005 1.427 . S
N1013 C1011 1.384 . S
H1014 C1020 0.930 . S
H1015 C1024 0.930 . S
H1016 C1029 0.929 . S
H1017 C1027 0.929 . S
H1018 C1022 0.929 . S
H1019 C1028 0.929 . S
C1020 H1014 0.930 . S
C1020 C1021 1.367 1_545 S
C1020 C1028 1.378 . S
C1021 C1020 1.367 1_565 S
C1021 C1029 1.433 . S
C1022 H1018 0.929 . S
C1022 C1024 1.378 . S
C1022 C1026 1.350 1_565 S
C1023 C1026 1.463 1_665 S
C1023 C1028 1.350 1_565 S
C1023 N1031 1.427 . S
C1024 H1015 0.930 . S
C1024 C1022 1.378 . S
C1024 C1025 1.367 1_565 S
C1025 C1024 1.367 1_545 S
C1025 C1027 1.433 . S
C1026 C1022 1.350 1_545 S
C1026 C1023 1.463 1_445 S
C1026 N1030 1.427 . S
C1027 H1017 0.929 . S
C1027 C1025 1.433 . S
C1027 N1030 1.384 . S
C1028 H1019 0.929 . S
C1028 C1020 1.378 . S
C1028 C1023 1.350 1_545 S
C1029 H1016 0.929 . S
C1029 C1021 1.433 . S
C1029 N1031 1.384 . S
N1030 C1026 1.427 . S
N1030 C1027 1.384 . S
N1031 C1023 1.427 . S
N1031 C1029 1.384 . S
H1032 C1038 0.930 . S
H1033 C1042 0.930 . S
H1034 C1047 0.929 . S
H1035 C1045 0.929 . S
H1036 C1040 0.929 . S
H1037 C1046 0.929 . S
C1038 H1032 0.930 . S
C1038 C1039 1.367 . S
C1038 C1046 1.378 . S
C1039 C1038 1.367 . S
C1039 C1047 1.433 . S
C1040 H1036 0.929 . S
C1040 C1042 1.378 . S
C1040 C1044 1.350 . S
C1041 C1044 1.463 1_545 S
C1041 C1046 1.350 . S
C1041 N1049 1.427 . S
C1042 H1033 0.930 . S
C1042 C1040 1.378 . S
C1042 C1043 1.367 . S
C1043 C1042 1.367 . S
C1043 C1045 1.433 . S
C1044 C1040 1.350 . S
C1044 C1041 1.463 1_565 S
C1044 N1048 1.427 . S
C1045 H1035 0.929 . S
C1045 C1043 1.433 . S
C1045 N1048 1.384 . S
C1046 H1037 0.929 . S
C1046 C1038 1.378 . S
C1046 C1041 1.350 . S
C1047 H1034 0.929 . S
C1047 C1039 1.433 . S
C1047 N1049 1.384 . S
N1048 C1044 1.427 . S
N1048 C1045 1.384 . S
N1049 C1041 1.427 . S
N1049 C1047 1.384 . S
H1050 C1056 0.930 . S
H1051 C1060 0.930 . S
H1052 C1065 0.929 . S
H1053 C1063 0.929 . S
H1054 C1058 0.929 . S
H1055 C1064 0.929 . S
C1056 H1050 0.930 . S
C1056 C1057 1.367 . S
C1056 C1064 1.378 . S
C1057 C1056 1.367 . S
C1057 C1065 1.433 . S
C1058 H1054 0.929 . S
C1058 C1060 1.378 . S
C1058 C1062 1.350 . S
C1059 C1062 1.463 1_655 S
C1059 C1064 1.350 . S
C1059 N1067 1.427 . S
C1060 H1051 0.930 . S
C1060 C1058 1.378 . S
C1060 C1061 1.367 . S
C1061 C1060 1.367 . S
C1061 C1063 1.433 . S
C1062 C1058 1.350 . S
C1062 C1059 1.463 1_455 S
C1062 N1066 1.427 . S
C1063 H1053 0.929 . S
C1063 C1061 1.433 . S
C1063 N1066 1.384 . S
C1064 H1055 0.929 . S
C1064 C1056 1.378 . S
C1064 C1059 1.350 . S
C1065 H1052 0.929 . S
C1065 C1057 1.433 . S
C1065 N1067 1.384 . S
N1066 C1062 1.427 . S
N1066 C1063 1.384 . S
N1067 C1059 1.427 . S
N1067 C1065 1.384 . S
H1068 C1074 0.930 . S
H1069 C1078 0.930 . S
H1070 C1083 0.929 . S
H1071 C1081 0.929 . S
H1072 C1076 0.929 . S
H1073 C1082 0.929 . S
C1074 H1068 0.930 . S
C1074 C1075 1.367 . S
C1074 C1082 1.378 . S
C1075 C1074 1.367 . S
C1075 C1083 1.433 . S
C1076 H1072 0.929 . S
C1076 C1078 1.378 . S
C1076 C1080 1.350 . S
C1077 C1080 1.463 . S
C1077 C1082 1.350 . S
C1077 N1085 1.427 . S
C1078 H1069 0.930 . S
C1078 C1076 1.378 . S
C1078 C1079 1.367 . S
C1079 C1078 1.367 . S
C1079 C1081 1.433 . S
C1080 C1076 1.350 . S
C1080 C1077 1.463 . S
C1080 N1084 1.427 . S
C1081 H1071 0.929 . S
C1081 C1079 1.433 . S
C1081 N1084 1.384 . S
C1082 H1073 0.929 . S
C1082 C1074 1.378 . S
C1082 C1077 1.350 . S
C1083 H1070 0.929 . S
C1083 C1075 1.433 . S
C1083 N1085 1.384 . S
N1084 C1080 1.427 . S
N1084 C1081 1.384 . S
N1085 C1077 1.427 . S
N1085 C1083 1.384 . S
H1086 C1092 0.930 . S
H1087 C1096 0.930 . S
H1088 C1101 0.929 . S
H1089 C1099 0.929 . S
H1090 C1094 0.929 . S
H1091 C1100 0.929 . S
C1092 H1086 0.930 . S
C1092 C1093 1.367 . S
C1092 C1100 1.378 . S
C1093 C1092 1.367 . S
C1093 C1101 1.433 . S
C1094 H1090 0.929 . S
C1094 C1096 1.378 . S
C1094 C1098 1.350 . S
C1095 C1098 1.463 . S
C1095 C1100 1.350 . S
C1095 N1103 1.427 . S
C1096 H1087 0.930 . S
C1096 C1094 1.378 . S
C1096 C1097 1.367 . S
C1097 C1096 1.367 . S
C1097 C1099 1.433 . S
C1098 C1094 1.350 . S
C1098 C1095 1.463 . S
C1098 N1102 1.427 . S
C1099 H1089 0.929 . S
C1099 C1097 1.433 . S
C1099 N1102 1.384 . S
C1100 H1091 0.929 . S
C1100 C1092 1.378 . S
C1100 C1095 1.350 . S
C1101 H1088 0.929 . S
C1101 C1093 1.433 . S
C1101 N1103 1.384 . S
N1102 C1098 1.427 . S
N1102 C1099 1.384 . S
N1103 C1095 1.427 . S
N1103 C1101 1.384 . S
H1104 C1110 0.930 . S
H1105 C1114 0.930 . S
H1106 C1119 0.929 . S
H1107 C1117 0.929 . S
H1108 C1112 0.929 . S
H1109 C1118 0.929 . S
C1110 H1104 0.930 . S
C1110 C1111 1.367 . S
C1110 C1118 1.378 . S
C1111 C1110 1.367 . S
C1111 C1119 1.433 . S
C1112 H1108 0.929 . S
C1112 C1114 1.378 . S
C1112 C1116 1.350 . S
C1113 C1116 1.463 . S
C1113 C1118 1.350 . S
C1113 N1121 1.427 . S
C1114 H1105 0.930 . S
C1114 C1112 1.378 . S
C1114 C1115 1.367 . S
C1115 C1114 1.367 . S
C1115 C1117 1.433 . S
C1116 C1112 1.350 . S
C1116 C1113 1.463 . S
C1116 N1120 1.427 . S
C1117 H1107 0.929 . S
C1117 C1115 1.433 . S
C1117 N1120 1.384 . S
C1118 H1109 0.929 . S
C1118 C1110 1.378 . S
C1118 C1113 1.350 . S
C1119 H1106 0.929 . S
C1119 C1111 1.433 . S
C1119 N1121 1.384 . S
N1120 C1116 1.427 . S
N1120 C1117 1.384 . S
N1121 C1113 1.427 . S
N1121 C1119 1.384 . S
H1122 C1128 0.930 . S
H1123 C1132 0.930 . S
H1124 C1137 0.929 . S
H1125 C1135 0.929 . S
H1126 C1130 0.929 . S
H1127 C1136 0.929 . S
C1128 H1122 0.930 . S
C1128 C1129 1.367 . S
C1128 C1136 1.378 . S
C1129 C1128 1.367 . S
C1129 C1137 1.433 . S
C1130 H1126 0.929 . S
C1130 C1132 1.378 . S
C1130 C1134 1.350 . S
C1131 C1134 1.463 . S
C1131 C1136 1.350 . S
C1131 N1139 1.427 . S
C1132 H1123 0.930 . S
C1132 C1130 1.378 . S
C1132 C1133 1.367 . S
C1133 C1132 1.367 . S
C1133 C1135 1.433 . S
C1134 C1130 1.350 . S
C1134 C1131 1.463 . S
C1134 N1138 1.427 . S
C1135 H1125 0.929 . S
C1135 C1133 1.433 . S
C1135 N1138 1.384 . S
C1136 H1127 0.929 . S
C1136 C1128 1.378 . S
C1136 C1131 1.350 . S
C1137 H1124 0.929 . S
C1137 C1129 1.433 . S
C1137 N1139 1.384 . S
N1138 C1134 1.427 . S
N1138 C1135 1.384 . S
N1139 C1131 1.427 . S
N1139 C1137 1.384 . S
H1140 C1146 0.930 . S
H1141 C1150 0.930 . S
H1142 C1155 0.929 . S
H1143 C1153 0.929 . S
H1144 C1148 0.929 . S
H1145 C1154 0.929 . S
C1146 H1140 0.930 . S
C1146 C1147 1.367 . S
C1146 C1154 1.378 . S
C1147 C1146 1.367 . S
C1147 C1155 1.433 . S
C1148 H1144 0.929 . S
C1148 C1150 1.378 . S
C1148 C1152 1.350 . S
C1149 C1152 1.463 . S
C1149 C1154 1.350 . S
C1149 N1157 1.427 . S
C1150 H1141 0.930 . S
C1150 C1148 1.378 . S
C1150 C1151 1.367 . S
C1151 C1150 1.367 . S
C1151 C1153 1.433 . S
C1152 C1148 1.350 . S
C1152 C1149 1.463 . S
C1152 N1156 1.427 . S
C1153 H1143 0.929 . S
C1153 C1151 1.433 . S
C1153 N1156 1.384 . S
C1154 H1145 0.929 . S
C1154 C1146 1.378 . S
C1154 C1149 1.350 . S
C1155 H1142 0.929 . S
C1155 C1147 1.433 . S
C1155 N1157 1.384 . S
N1156 C1152 1.427 . S
N1156 C1153 1.384 . S
N1157 C1149 1.427 . S
N1157 C1155 1.384 . S
H1158 C1164 0.930 . S
H1159 C1168 0.930 . S
H1160 C1173 0.929 . S
H1161 C1171 0.929 . S
H1162 C1166 0.929 . S
H1163 C1172 0.929 . S
C1164 H1158 0.930 . S
C1164 C1165 1.367 . S
C1164 C1172 1.378 . S
C1165 C1164 1.367 . S
C1165 C1173 1.433 . S
C1166 H1162 0.929 . S
C1166 C1168 1.378 . S
C1166 C1170 1.350 . S
C1167 C1170 1.463 . S
C1167 C1172 1.350 . S
C1167 N1175 1.427 . S
C1168 H1159 0.930 . S
C1168 C1166 1.378 . S
C1168 C1169 1.367 . S
C1169 C1168 1.367 . S
C1169 C1171 1.433 . S
C1170 C1166 1.350 . S
C1170 C1167 1.463 . S
C1170 N1174 1.427 . S
C1171 H1161 0.929 . S
C1171 C1169 1.433 . S
C1171 N1174 1.384 . S
C1172 H1163 0.929 . S
C1172 C1164 1.378 . S
C1172 C1167 1.350 . S
C1173 H1160 0.929 . S
C1173 C1165 1.433 . S
C1173 N1175 1.384 . S
N1174 C1170 1.427 . S
N1174 C1171 1.384 . S
N1175 C1167 1.427 . S
N1175 C1173 1.384 . S
H1176 C1182 0.930 . S
H1177 C1186 0.930 . S
H1178 C1191 0.929 . S
H1179 C1189 0.929 . S
H1180 C1184 0.929 . S
H1181 C1190 0.929 . S
C1182 H1176 0.930 . S
C1182 C1183 1.367 . S
C1182 C1190 1.378 . S
C1183 C1182 1.367 . S
C1183 C1191 1.433 . S
C1184 H1180 0.929 . S
C1184 C1186 1.378 . S
C1184 C1188 1.350 . S
C1185 C1188 1.463 . S
C1185 C1190 1.350 . S
C1185 N1193 1.427 . S
C1186 H1177 0.930 . S
C1186 C1184 1.378 . S
C1186 C1187 1.367 . S
C1187 C1186 1.367 . S
C1187 C1189 1.433 . S
C1188 C1184 1.350 . S
C1188 C1185 1.463 . S
C1188 N1192 1.427 . S
C1189 H1179 0.929 . S
C1189 C1187 1.433 . S
C1189 N1192 1.384 . S
C1190 H1181 0.929 . S
C1190 C1182 1.378 . S
C1190 C1185 1.350 . S
C1191 H1178 0.929 . S
C1191 C1183 1.433 . S
C1191 N1193 1.384 . S
N1192 C1188 1.427 . S
N1192 C1189 1.384 . S
N1193 C1185 1.427 . S
N1193 C1191 1.384 . S
H1194 C1200 0.930 . S
H1195 C1204 0.930 . S
H1196 C1209 0.929 . S
H1197 C1207 0.929 . S
H1198 C1202 0.929 . S
H1199 C1208 0.929 . S
C1200 H1194 0.930 . S
C1200 C1201 1.367 . S
C1200 C1208 1.378 . S
C1201 C1200 1.367 . S
C1201 C1209 1.433 . S
C1202 H1198 0.929 . S
C1202 C1204 1.378 . S
C1202 C1206 1.350 . S
C1203 C1206 1.463 . S
C1203 C1208 1.350 . S
C1203 N1211 1.427 . S
C1204 H1195 0.930 . S
C1204 C1202 1.378 . S
C1204 C1205 1.367 . S
C1205 C1204 1.367 . S
C1205 C1207 1.433 . S
C1206 C1202 1.350 . S
C1206 C1203 1.463 . S
C1206 N1210 1.427 . S
C1207 H1197 0.929 . S
C1207 C1205 1.433 . S
C1207 N1210 1.384 . S
C1208 H1199 0.929 . S
C1208 C1200 1.378 . S
C1208 C1203 1.350 . S
C1209 H1196 0.929 . S
C1209 C1201 1.433 . S
C1209 N1211 1.384 . S
N1210 C1206 1.427 . S
N1210 C1207 1.384 . S
N1211 C1203 1.427 . S
N1211 C1209 1.384 . S
H1212 C1218 0.930 . S
H1213 C1222 0.930 . S
H1214 C1227 0.929 . S
H1215 C1225 0.929 . S
H1216 C1220 0.929 . S
H1217 C1226 0.929 . S
C1218 H1212 0.930 . S
C1218 C1219 1.367 . S
C1218 C1226 1.378 . S
C1219 C1218 1.367 . S
C1219 C1227 1.433 . S
C1220 H1216 0.929 . S
C1220 C1222 1.378 . S
C1220 C1224 1.350 . S
C1221 C1224 1.463 . S
C1221 C1226 1.350 . S
C1221 N1229 1.427 . S
C1222 H1213 0.930 . S
C1222 C1220 1.378 . S
C1222 C1223 1.367 . S
C1223 C1222 1.367 . S
C1223 C1225 1.433 . S
C1224 C1220 1.350 . S
C1224 C1221 1.463 . S
C1224 N1228 1.427 . S
C1225 H1215 0.929 . S
C1225 C1223 1.433 . S
C1225 N1228 1.384 . S
C1226 H1217 0.929 . S
C1226 C1218 1.378 . S
C1226 C1221 1.350 . S
C1227 H1214 0.929 . S
C1227 C1219 1.433 . S
C1227 N1229 1.384 . S
N1228 C1224 1.427 . S
N1228 C1225 1.384 . S
N1229 C1221 1.427 . S
N1229 C1227 1.384 . S
H1230 C1236 0.930 . S
H1231 C1240 0.930 . S
H1232 C1245 0.929 . S
H1233 C1243 0.929 . S
H1234 C1238 0.929 . S
H1235 C1244 0.929 . S
C1236 H1230 0.930 . S
C1236 C1237 1.367 . S
C1236 C1244 1.378 . S
C1237 C1236 1.367 . S
C1237 C1245 1.433 . S
C1238 H1234 0.929 . S
C1238 C1240 1.378 . S
C1238 C1242 1.350 . S
C1239 C1242 1.463 . S
C1239 C1244 1.350 . S
C1239 N1247 1.427 . S
C1240 H1231 0.930 . S
C1240 C1238 1.378 . S
C1240 C1241 1.367 . S
C1241 C1240 1.367 . S
C1241 C1243 1.433 . S
C1242 C1238 1.350 . S
C1242 C1239 1.463 . S
C1242 N1246 1.427 . S
C1243 H1233 0.929 . S
C1243 C1241 1.433 . S
C1243 N1246 1.384 . S
C1244 H1235 0.929 . S
C1244 C1236 1.378 . S
C1244 C1239 1.350 . S
C1245 H1232 0.929 . S
C1245 C1237 1.433 . S
C1245 N1247 1.384 . S
N1246 C1242 1.427 . S
N1246 C1243 1.384 . S
N1247 C1239 1.427 . S
N1247 C1245 1.384 . S
C535 C21 0.698 . S
C539 N365 0.701 . S
C553 N266 0.716 . S
C557 C54 0.726 . S
C571 N299 0.719 . S
C575 C87 0.709 . S
C589 N332 0.721 . S
C593 C120 0.725 . S
C607 N167 0.707 . S
C611 C153 0.698 . S
C625 N200 0.709 . S
C629 C186 0.723 . S
C643 C219 0.723 . S
C647 N233 0.722 . S
C661 C252 0.700 . S
C665 N134 0.698 . S
C679 C285 0.706 . S
C683 N101 0.717 . S
C697 C318 0.705 . S
C701 N2 0.698 . S
C715 N35 0.698 . S
C719 C351 0.707 . S
C733 C384 0.698 . S
C737 N68 0.700 . S
C751 N431 0.715 . S
C755 C417 0.704 . S
C769 N464 0.701 . S
C773 C450 0.698 . S
C787 N497 0.708 . S
C791 C483 0.699 . S
C805 C516 0.704 . S
C809 N398 0.698 . S
C823 C18 1.204 . S
C827 C84 1.212 . S
C841 C51 1.205 . S
C845 C117 1.213 . S
C859 C216 1.212 . S
C863 C150 1.205 . S
C877 C249 1.206 . S
C881 C183 1.214 . S
C895 C348 1.203 . S
C899 C282 1.209 . S
C913 C315 1.206 . S
C917 C381 1.204 . S
C931 C414 1.214 . S
C935 C480 1.206 . S
C949 C513 1.211 . S
C953 C447 1.204 . S
C967 C73 1.182 . S
C971 C7 1.199 . S
C985 C40 1.186 . S
C989 C106 1.199 . S
C1003 C139 1.193 . S
C1007 C205 1.173 . S
C1021 C238 1.174 . S
C1025 C172 1.182 . S
C1039 C337 1.196 . S
C1043 C271 1.176 . S
C1057 C304 1.174 . S
C1061 C370 1.182 . S
C1075 C403 1.185 . S
C1079 C469 1.199 . S
C1093 C502 1.173 . S
C1097 C436 1.191 . S
C1111 N475 1.631 . S
C1115 N13 1.639 . S
C1129 N46 1.636 . S
C1133 N508 1.634 . S
C1147 N79 1.642 . S
C1151 N409 1.628 . S
C1165 N112 1.639 . S
C1169 N442 1.631 . S
C1183 N145 1.637 . S
C1187 N343 1.632 . S
C1201 N376 1.631 . S
C1205 N178 1.638 . S
C1219 N211 1.634 . S
C1223 N277 1.635 . S
C1237 N244 1.630 . S
C1241 N310 1.639 . S
