# Generated by pormake.
# Topology ukf, (4)-cn, num edge types: 1
# Building blocks:
#     Node 0, Type 0, BuildingBlock: UXUYUI_clean_sbu_0, # of connection points: 4
#     Node 1, Type 0, BuildingBlock: UXUYUI_clean_sbu_0, # of connection points: 4
#     Node 2, Type 0, BuildingBlock: UXUYUI_clean_sbu_0, # of connection points: 4
#     Node 3, Type 0, BuildingBlock: UXUYUI_clean_sbu_0, # of connection points: 4
#     Node 4, Type 0, BuildingBlock: UXUYUI_clean_sbu_0, # of connection points: 4
#     Node 5, Type 0, BuildingBlock: UXUYUI_clean_sbu_0, # of connection points: 4
#     Node 6, Type 0, BuildingBlock: UXUYUI_clean_sbu_0, # of connection points: 4
#     Node 7, Type 0, BuildingBlock: UXUYUI_clean_sbu_0, # of connection points: 4
#     Node 8, Type 0, BuildingBlock: UXUYUI_clean_sbu_0, # of connection points: 4
#     Node 9, Type 0, BuildingBlock: UXUYUI_clean_sbu_0, # of connection points: 4
#     Node 10, Type 0, BuildingBlock: UXUYUI_clean_sbu_0, # of connection points: 4
#     Node 11, Type 0, BuildingBlock: UXUYUI_clean_sbu_0, # of connection points: 4
#     Edge 12, Type (0, 0), BuildingBlock: AJUNOK_clean_linker_0, # of connection points: 2
#     Edge 13, Type (0, 0), BuildingBlock: AJUNOK_clean_linker_0, # of connection points: 2
#     Edge 14, Type (0, 0), BuildingBlock: AJUNOK_clean_linker_0, # of connection points: 2
#     Edge 15, Type (0, 0), BuildingBlock: AJUNOK_clean_linker_0, # of connection points: 2
#     Edge 16, Type (0, 0), BuildingBlock: AJUNOK_clean_linker_0, # of connection points: 2
#     Edge 17, Type (0, 0), BuildingBlock: AJUNOK_clean_linker_0, # of connection points: 2
#     Edge 18, Type (0, 0), BuildingBlock: AJUNOK_clean_linker_0, # of connection points: 2
#     Edge 19, Type (0, 0), BuildingBlock: AJUNOK_clean_linker_0, # of connection points: 2
#     Edge 20, Type (0, 0), BuildingBlock: AJUNOK_clean_linker_0, # of connection points: 2
#     Edge 21, Type (0, 0), BuildingBlock: AJUNOK_clean_linker_0, # of connection points: 2
#     Edge 22, Type (0, 0), BuildingBlock: AJUNOK_clean_linker_0, # of connection points: 2
#     Edge 23, Type (0, 0), BuildingBlock: AJUNOK_clean_linker_0, # of connection points: 2
#     Edge 24, Type (0, 0), BuildingBlock: AJUNOK_clean_linker_0, # of connection points: 2
#     Edge 25, Type (0, 0), BuildingBlock: AJUNOK_clean_linker_0, # of connection points: 2
#     Edge 26, Type (0, 0), BuildingBlock: AJUNOK_clean_linker_0, # of connection points: 2
#     Edge 27, Type (0, 0), BuildingBlock: AJUNOK_clean_linker_0, # of connection points: 2
#     Edge 28, Type (0, 0), BuildingBlock: AJUNOK_clean_linker_0, # of connection points: 2
#     Edge 29, Type (0, 0), BuildingBlock: AJUNOK_clean_linker_0, # of connection points: 2
#     Edge 30, Type (0, 0), BuildingBlock: AJUNOK_clean_linker_0, # of connection points: 2
#     Edge 31, Type (0, 0), BuildingBlock: AJUNOK_clean_linker_0, # of connection points: 2
#     Edge 32, Type (0, 0), BuildingBlock: AJUNOK_clean_linker_0, # of connection points: 2
#     Edge 33, Type (0, 0), BuildingBlock: AJUNOK_clean_linker_0, # of connection points: 2
#     Edge 34, Type (0, 0), BuildingBlock: AJUNOK_clean_linker_0, # of connection points: 2
#     Edge 35, Type (0, 0), BuildingBlock: AJUNOK_clean_linker_0, # of connection points: 2
# Relax obj value: 0.271
# Max RMSD: 0.213
# Mean RMSD: 0.213
data_MOF--net-ukf--node1-UXUYUI_clean_sbu_0--edge1-AJUNOK_clean_linker_0
_symmetry_space_group_name_H-M    P1
_symmetry_Int_Tables_number       1
_symmetry_cell_setting            triclinic
loop_
_symmetry_equiv_pos_as_xyz
'x, y, z'
_cell_length_a     38.188881
_cell_length_b     38.209831
_cell_length_c     76.377721
_cell_angle_alpha  90.010174
_cell_angle_beta   90.001315
_cell_angle_gamma 119.99335
loop_
_atom_site_label
_atom_site_type_symbol
_atom_site_fract_x
_atom_site_fract_y
_atom_site_fract_z
_atom_type_partial_charge
Li0 Li 0.40041 0.22679 0.07012 0.0
Li1 Li 0.36435 0.20068 0.04137 0.0
Li2 Li 0.43791 0.23201 0.04287 0.0
Li3 Li 0.40765 0.27384 0.046 0.0
C4 C 0.41284 0.15844 0.05433 0.0
N5 N 0.44979 0.11237 0.05134 0.0
C6 C 0.40011 0.12846 0.0415 0.0
C7 C 0.44417 0.16488 0.06571 0.0
C8 C 0.4192 0.10549 0.04019 0.0
C9 C 0.46253 0.14132 0.06396 0.0
C10 C 0.32068 0.23204 0.05688 0.0
C11 C 0.27594 0.24867 0.04138 0.0
N12 N 0.2449 0.22282 0.05186 0.0
C13 C 0.28849 0.20597 0.06762 0.0
C14 C 0.31452 0.25386 0.04376 0.0
C15 C 0.25034 0.20158 0.06482 0.0
C16 C 0.40528 0.24982 0.10542 0.0
N17 N 0.39708 0.21838 0.09461 0.0
C18 C 0.38441 0.17459 0.11904 0.0
C19 C 0.38662 0.18121 0.10099 0.0
C20 C 0.39271 0.20647 0.13056 0.0
C21 C 0.40337 0.24453 0.12356 0.0
H22 H 0.41342 0.279 0.09992 0.0
H23 H 0.37999 0.15671 0.09206 0.0
C24 C 0.32169 0.14651 0.014 0.0
N25 N 0.31872 0.15519 0.03101 0.0
C26 C 0.29408 0.10888 0.00697 0.0
C27 C 0.26007 0.09003 0.03494 0.0
C28 C 0.28842 0.12806 0.04145 0.0
C29 C 0.26324 0.07968 0.01758 0.0
H30 H 0.34717 0.16765 0.00622 0.0
H31 H 0.28775 0.13492 0.05513 0.0
C32 C 0.48413 0.31063 0.06026 0.0
N33 N 0.54974 0.38803 0.05859 0.0
C34 C 0.50259 0.32689 0.04418 0.0
C35 C 0.49912 0.33365 0.0755 0.0
C36 C 0.53569 0.3661 0.0436 0.0
C37 C 0.53233 0.37274 0.07438 0.0
C38 C 0.40421 0.25492 0.00931 0.0
C39 C 0.43895 0.27332 0.9989 0.0
C40 C 0.36801 0.25078 0.00295 0.0
C41 C 0.43703 0.28793 0.98237 0.0
C42 C 0.36734 0.26577 0.98635 0.0
N43 N 0.40158 0.28392 0.9765 0.0
C44 C 0.4747 0.2067 0.01834 0.0
C45 C 0.51841 0.24652 0.04125 0.0
C46 C 0.50567 0.20283 0.01062 0.0
N47 N 0.48163 0.22827 0.03334 0.0
C48 C 0.55046 0.24404 0.03382 0.0
C49 C 0.54421 0.22173 0.01834 0.0
H50 H 0.445 0.19245 0.01241 0.0
H51 H 0.52295 0.26325 0.05326 0.0
C52 C 0.42411 0.34901 0.05832 0.0
N53 N 0.41977 0.32895 0.04305 0.0
C54 C 0.44218 0.3911 0.0585 0.0
C55 C 0.44854 0.39112 0.02706 0.0
C56 C 0.43081 0.34904 0.02751 0.0
C57 C 0.45534 0.41285 0.04274 0.0
H58 H 0.41601 0.33248 0.07055 0.0
H59 H 0.42784 0.33298 0.01552 0.0
O60 O 0.39547 0.18214 0.05546 0.0
O61 O 0.35813 0.23649 0.05939 0.0
O62 O 0.45059 0.27297 0.061 0.0
O63 O 0.40555 0.24034 0.02549 0.0
H64 H 0.376 0.12323 0.03255 0.0
H65 H 0.45456 0.18825 0.07562 0.0
H66 H 0.40982 0.08229 0.03027 0.0
H67 H 0.48701 0.14614 0.07259 0.0
H68 H 0.27068 0.26525 0.03123 0.0
H69 H 0.29293 0.18915 0.07794 0.0
H70 H 0.33927 0.27466 0.03553 0.0
H71 H 0.22507 0.18132 0.07295 0.0
H72 H 0.37596 0.1448 0.12396 0.0
H73 H 0.41066 0.27003 0.13202 0.0
H74 H 0.29859 0.10179 0.99373 0.0
H75 H 0.23704 0.06825 0.04361 0.0
H76 H 0.49109 0.30961 0.03226 0.0
H77 H 0.48504 0.32158 0.08804 0.0
H78 H 0.55008 0.37916 0.03123 0.0
H79 H 0.54416 0.39097 0.08606 0.0
H80 H 0.46712 0.27639 0.00355 0.0
H81 H 0.34066 0.23585 0.01067 0.0
H82 H 0.46372 0.30242 0.97421 0.0
H83 H 0.33956 0.26286 0.98127 0.0
H84 H 0.49953 0.18521 0.99874 0.0
H85 H 0.57993 0.26 0.03996 0.0
H86 H 0.44768 0.40649 0.07096 0.0
H87 H 0.45801 0.40662 0.0146 0.0
Li88 Li 0.13696 0.40858 0.37943 0.0
Li89 Li 0.21043 0.43843 0.3774 0.0
Li90 Li 0.16685 0.36379 0.37576 0.0
Li91 Li 0.17769 0.40022 0.40327 0.0
C92 C 0.14865 0.39449 0.34389 0.0
N93 N 0.10739 0.3709 0.31245 0.0
C94 C 0.16024 0.4217 0.32993 0.0
C95 C 0.11649 0.35509 0.34175 0.0
C96 C 0.13888 0.40926 0.31417 0.0
C97 C 0.09591 0.34379 0.32579 0.0
C98 C 0.20024 0.49158 0.39457 0.0
C99 C 0.25811 0.55536 0.40273 0.0
N100 N 0.24344 0.57506 0.39305 0.0
C101 C 0.1857 0.51252 0.38475 0.0
C102 C 0.23668 0.51321 0.4037 0.0
C103 C 0.20797 0.55469 0.38414 0.0
C104 C 0.08094 0.42929 0.39086 0.0
N105 N 0.09471 0.42123 0.37585 0.0
C106 C 0.05941 0.4462 0.35866 0.0
C107 C 0.0839 0.42863 0.35989 0.0
C108 C 0.04628 0.45649 0.37399 0.0
C109 C 0.05669 0.44708 0.39024 0.0
H110 H 0.09063 0.42384 0.40337 0.0
H111 H 0.09575 0.42288 0.34811 0.0
C112 C 0.29464 0.48961 0.37183 0.0
N113 N 0.25714 0.48297 0.36779 0.0
C114 C 0.32879 0.5222 0.36443 0.0
C115 C 0.28495 0.53999 0.34866 0.0
C116 C 0.25172 0.50725 0.35645 0.0
C117 C 0.32401 0.54774 0.35268 0.0
H118 H 0.29804 0.4694 0.38063 0.0
H119 H 0.22152 0.50116 0.35347 0.0
C120 C 0.09013 0.32209 0.3924 0.0
N121 N 0.01925 0.24837 0.39163 0.0
C122 C 0.0849 0.29105 0.40369 0.0
C123 C 0.05888 0.31591 0.38101 0.0
C124 C 0.04898 0.25391 0.40302 0.0
C125 C 0.02341 0.27836 0.38073 0.0
C126 C 0.24052 0.3898 0.40086 0.0
C127 C 0.23596 0.35137 0.40281 0.0
C128 C 0.26723 0.42122 0.41181 0.0
C129 C 0.25781 0.34488 0.41582 0.0
C130 C 0.28845 0.4135 0.42469 0.0
N131 N 0.28333 0.3758 0.42642 0.0
C132 C 0.18906 0.32838 0.3498 0.0
C133 C 0.15146 0.28127 0.37206 0.0
C134 C 0.19842 0.30098 0.34206 0.0
N135 N 0.16642 0.31843 0.36463 0.0
C136 C 0.16035 0.25291 0.36478 0.0
C137 C 0.18467 0.26291 0.34973 0.0
H138 H 0.20176 0.35854 0.34448 0.0
H139 H 0.13486 0.27444 0.38419 0.0
C140 C 0.19109 0.43004 0.4379 0.0
N141 N 0.18231 0.39703 0.42803 0.0
C142 C 0.19705 0.42974 0.45592 0.0
C143 C 0.18337 0.36096 0.45342 0.0
C144 C 0.17798 0.36269 0.43542 0.0
C145 C 0.19355 0.395 0.46383 0.0
H146 H 0.19366 0.45669 0.43179 0.0
H147 H 0.17109 0.33691 0.42728 0.0
O148 O 0.16937 0.40621 0.3594 0.0
O149 O 0.1793 0.45018 0.39503 0.0
O150 O 0.12485 0.35889 0.39311 0.0
O151 O 0.21876 0.39655 0.38841 0.0
H152 H 0.18536 0.45215 0.33124 0.0
H153 H 0.10782 0.33329 0.35219 0.0
H154 H 0.14738 0.4301 0.3033 0.0
H155 H 0.07091 0.3134 0.32398 0.0
H156 H 0.28646 0.5724 0.40964 0.0
H157 H 0.15786 0.49651 0.37743 0.0
H158 H 0.24853 0.49766 0.41133 0.0
H159 H 0.19714 0.57122 0.37652 0.0
H160 H 0.05255 0.4535 0.34588 0.0
H161 H 0.04707 0.45443 0.40235 0.0
H162 H 0.35852 0.52698 0.36759 0.0
H163 H 0.28022 0.55918 0.33968 0.0
H164 H 0.10846 0.29544 0.41277 0.0
H165 H 0.0619 0.33983 0.37248 0.0
H166 H 0.04472 0.22952 0.41157 0.0
H167 H 0.99912 0.27311 0.37189 0.0
H168 H 0.21563 0.32673 0.39446 0.0
H169 H 0.27116 0.45112 0.41052 0.0
H170 H 0.2544 0.31522 0.41752 0.0
H171 H 0.30891 0.43747 0.43335 0.0
H172 H 0.21823 0.31046 0.33077 0.0
H173 H 0.14956 0.22403 0.3712 0.0
H174 H 0.20406 0.45628 0.46361 0.0
H175 H 0.18039 0.33363 0.45911 0.0
Li176 Li 0.77273 0.2069 0.70986 0.0
Li177 Li 0.73157 0.13441 0.71133 0.0
Li178 Li 0.77997 0.17295 0.73535 0.0
Li179 Li 0.80502 0.16694 0.70572 0.0
C180 C 0.7081 0.18725 0.73523 0.0
N181 N 0.65948 0.21286 0.75085 0.0
C182 C 0.66984 0.17555 0.72835 0.0
C183 C 0.72137 0.2116 0.75019 0.0
C184 C 0.6458 0.18893 0.7364 0.0
C185 C 0.69641 0.22433 0.75785 0.0
C186 C 0.7393 0.16698 0.67739 0.0
C187 C 0.72049 0.15587 0.64691 0.0
N188 N 0.69064 0.1646 0.65012 0.0
C189 C 0.70857 0.17597 0.68039 0.0
C190 C 0.74546 0.15697 0.66052 0.0
C191 C 0.68424 0.17456 0.66644 0.0
C192 C 0.79973 0.27154 0.687 0.0
N193 N 0.77541 0.25503 0.70117 0.0
C194 C 0.75686 0.30614 0.70053 0.0
C195 C 0.75421 0.27164 0.70805 0.0
C196 C 0.78218 0.32417 0.68601 0.0
C197 C 0.80383 0.30642 0.67925 0.0
H198 H 0.81596 0.25746 0.68171 0.0
H199 H 0.73486 0.2581 0.71921 0.0
C200 C 0.65471 0.08003 0.72288 0.0
N201 N 0.67733 0.09109 0.70803 0.0
C202 C 0.61279 0.05536 0.72202 0.0
C203 C 0.61826 0.0513 0.69066 0.0
C204 C 0.66023 0.07631 0.69213 0.0
C205 C 0.59384 0.04164 0.7057 0.0
H206 H 0.66906 0.09239 0.73534 0.0
H207 H 0.67881 0.08515 0.68049 0.0
C208 C 0.84658 0.25612 0.72126 0.0
N209 N 0.89135 0.33955 0.72104 0.0
C210 C 0.87843 0.27614 0.70941 0.0
C211 C 0.83785 0.27852 0.73314 0.0
C212 C 0.90064 0.31834 0.70947 0.0
C213 C 0.86071 0.32067 0.73278 0.0
C214 C 0.76696 0.08657 0.71681 0.0
C215 C 0.77023 0.05965 0.72815 0.0
C216 C 0.75893 0.0769 0.69906 0.0
C217 C 0.76539 0.0234 0.72153 0.0
C218 C 0.75426 0.04034 0.69295 0.0
N219 N 0.75757 0.01458 0.70422 0.0
C220 C 0.75759 0.15102 0.77044 0.0
C221 C 0.82545 0.2033 0.76638 0.0
C222 C 0.76252 0.15386 0.7886 0.0
N223 N 0.7888 0.17572 0.7598 0.0
C224 C 0.83168 0.20725 0.78446 0.0
C225 C 0.79994 0.18234 0.79579 0.0
H226 H 0.72867 0.12966 0.76478 0.0
H227 H 0.84971 0.22253 0.75759 0.0
C228 C 0.86143 0.19091 0.67897 0.0
N229 N 0.84942 0.16824 0.6938 0.0
C230 C 0.89905 0.20235 0.67156 0.0
C231 C 0.91005 0.16433 0.69404 0.0
C232 C 0.87232 0.15408 0.70121 0.0
C233 C 0.92423 0.18987 0.67938 0.0
H234 H 0.84299 0.20249 0.67361 0.0
H235 H 0.86243 0.13689 0.71324 0.0
O236 O 0.73201 0.1742 0.72762 0.0
O237 O 0.7634 0.16792 0.69084 0.0
O238 O 0.82372 0.21485 0.72108 0.0
O239 O 0.77179 0.12221 0.72314 0.0
H240 H 0.65869 0.1563 0.71694 0.0
H241 H 0.75059 0.22061 0.75585 0.0
H242 H 0.61622 0.1802 0.73117 0.0
H243 H 0.70639 0.2433 0.76939 0.0
H244 H 0.72483 0.14806 0.63378 0.0
H245 H 0.70363 0.18404 0.69332 0.0
H246 H 0.76917 0.14995 0.65801 0.0
H247 H 0.6603 0.18139 0.66858 0.0
H248 H 0.73864 0.31806 0.70583 0.0
H249 H 0.82371 0.31936 0.66808 0.0
H250 H 0.59523 0.04874 0.73394 0.0
H251 H 0.605 0.04043 0.67788 0.0
H252 H 0.88579 0.25933 0.70019 0.0
H253 H 0.81339 0.26353 0.74241 0.0
H254 H 0.9252 0.33422 0.7003 0.0
H255 H 0.85404 0.33838 0.74181 0.0
H256 H 0.77648 0.06675 0.74192 0.0
H257 H 0.75632 0.09729 0.69006 0.0
H258 H 0.76785 0.00228 0.73016 0.0
H259 H 0.74802 0.03246 0.67926 0.0
H260 H 0.73711 0.13465 0.79692 0.0
H261 H 0.86097 0.22949 0.78954 0.0
H262 H 0.9092 0.22227 0.66031 0.0
H263 H 0.92899 0.15462 0.70052 0.0
Li264 Li 0.63536 0.79934 0.04103 0.0
Li265 Li 0.60163 0.7736 0.06949 0.0
Li266 Li 0.59697 0.72681 0.04658 0.0
Li267 Li 0.56325 0.76428 0.04297 0.0
C268 C 0.68204 0.79223 0.06786 0.0
N269 N 0.75264 0.84162 0.08587 0.0
C270 C 0.69179 0.83151 0.07244 0.0
C271 C 0.70817 0.77807 0.07245 0.0
C272 C 0.72762 0.856 0.08155 0.0
C273 C 0.74374 0.80351 0.08154 0.0
C274 C 0.57826 0.83279 0.05749 0.0
C275 C 0.52254 0.83293 0.07231 0.0
N276 N 0.52855 0.86521 0.06254 0.0
C277 C 0.58396 0.86605 0.04762 0.0
C278 C 0.54735 0.81611 0.06996 0.0
C279 C 0.55849 0.88198 0.05036 0.0
C280 C 0.66265 0.86208 0.01817 0.0
N281 N 0.67779 0.84451 0.02889 0.0
C282 C 0.74541 0.89691 0.02258 0.0
C283 C 0.71839 0.86056 0.03095 0.0
C284 C 0.73036 0.9164 0.01189 0.0
C285 C 0.68835 0.89825 0.00967 0.0
H286 H 0.63027 0.84843 0.01667 0.0
H287 H 0.72988 0.8458 0.03933 0.0
C288 C 0.59449 0.7513 0.105 0.0
N289 N 0.60458 0.78291 0.09402 0.0
C290 C 0.59545 0.75683 0.12312 0.0
C291 C 0.61745 0.82738 0.11822 0.0
C292 C 0.61618 0.82052 0.10023 0.0
C293 C 0.60666 0.7952 0.1299 0.0
H294 H 0.58547 0.72176 0.09966 0.0
H295 H 0.62432 0.8452 0.09119 0.0
C296 C 0.61692 0.75097 0.01195 0.0
N297 N 0.65903 0.74041 0.985 0.0
C298 C 0.60239 0.74558 0.99479 0.0
C299 C 0.65297 0.75113 0.01539 0.0
C300 C 0.62408 0.74024 0.98135 0.0
C301 C 0.67378 0.74571 0.00159 0.0
C302 C 0.51849 0.68817 0.0591 0.0
C303 C 0.50443 0.67381 0.04223 0.0
C304 C 0.49781 0.66455 0.0736 0.0
C305 C 0.4698 0.636 0.04015 0.0
C306 C 0.46327 0.6269 0.07097 0.0
N307 N 0.4501 0.61353 0.05444 0.0
C308 C 0.5833 0.65263 0.05905 0.0
C309 C 0.57594 0.65287 0.02823 0.0
C310 C 0.56491 0.61052 0.05912 0.0
N311 N 0.58746 0.67279 0.04381 0.0
C312 C 0.55793 0.61076 0.02769 0.0
C313 C 0.55093 0.58907 0.04336 0.0
H314 H 0.59156 0.66906 0.0713 0.0
H315 H 0.57789 0.66907 0.01637 0.0
C316 C 0.52257 0.78128 0.01723 0.0
N317 N 0.51751 0.76401 0.03325 0.0
C318 C 0.49043 0.78228 0.00907 0.0
C319 C 0.44849 0.74759 0.03409 0.0
C320 C 0.48154 0.74752 0.04182 0.0
C321 C 0.45281 0.76528 0.01752 0.0
H322 H 0.55168 0.79435 0.01082 0.0
H323 H 0.47849 0.73423 0.05463 0.0
O324 O 0.6469 0.76733 0.05914 0.0
O325 O 0.60204 0.81591 0.05466 0.0
O326 O 0.59594 0.75648 0.02515 0.0
O327 O 0.55309 0.72451 0.0615 0.0
H328 H 0.67219 0.84319 0.06889 0.0
H329 H 0.70098 0.74769 0.06903 0.0
H330 H 0.73557 0.88648 0.08514 0.0
H331 H 0.76425 0.79293 0.08518 0.0
H332 H 0.49836 0.82015 0.08184 0.0
H333 H 0.60776 0.87948 0.03796 0.0
H334 H 0.5421 0.78999 0.07753 0.0
H335 H 0.56251 0.90766 0.0428 0.0
H336 H 0.77762 0.90988 0.02459 0.0
H337 H 0.67526 0.91256 0.00191 0.0
H338 H 0.58691 0.73129 0.13173 0.0
H339 H 0.62701 0.85755 0.12297 0.0
H340 H 0.57459 0.74551 0.99192 0.0
H341 H 0.66484 0.75535 0.02854 0.0
H342 H 0.61315 0.73598 0.96801 0.0
H343 H 0.70168 0.74573 0.00406 0.0
H344 H 0.5203 0.69147 0.03084 0.0
H345 H 0.50851 0.67511 0.08674 0.0
H346 H 0.45868 0.62446 0.02717 0.0
H347 H 0.44701 0.60823 0.08207 0.0
H348 H 0.56013 0.59475 0.07145 0.0
H349 H 0.54719 0.59514 0.01531 0.0
H350 H 0.49499 0.7964 0.99634 0.0
H351 H 0.41976 0.73349 0.04089 0.0
Li352 Li 0.83929 0.63932 0.37498 0.0
Li353 Li 0.82871 0.60292 0.40248 0.0
Li354 Li 0.86969 0.59497 0.3786 0.0
Li355 Li 0.79617 0.56464 0.3766 0.0
C356 C 0.91598 0.68142 0.39179 0.0
N357 N 0.98659 0.75541 0.39139 0.0
C358 C 0.92076 0.71217 0.40316 0.0
C359 C 0.94753 0.68802 0.3805 0.0
C360 C 0.95655 0.74945 0.40267 0.0
C361 C 0.98286 0.72571 0.38041 0.0
C362 C 0.76551 0.61281 0.40006 0.0
C363 C 0.7175 0.58884 0.42385 0.0
N364 N 0.72235 0.62644 0.42557 0.0
C365 C 0.76981 0.65114 0.402 0.0
C366 C 0.73891 0.58131 0.41098 0.0
C367 C 0.74777 0.65744 0.41499 0.0
C368 C 0.81684 0.67458 0.34904 0.0
N369 N 0.83951 0.68457 0.36387 0.0
C370 C 0.84556 0.75009 0.364 0.0
C371 C 0.85446 0.72175 0.37129 0.0
C372 C 0.82123 0.74005 0.34895 0.0
C373 C 0.80746 0.70195 0.3413 0.0
H374 H 0.80416 0.64441 0.34373 0.0
H375 H 0.87109 0.72862 0.38341 0.0
C376 C 0.81611 0.57316 0.43709 0.0
N377 N 0.82414 0.60598 0.42725 0.0
C378 C 0.81054 0.57341 0.45514 0.0
C379 C 0.82293 0.64176 0.45273 0.0
C380 C 0.82799 0.64009 0.43469 0.0
C381 C 0.81361 0.60792 0.46311 0.0
H382 H 0.81393 0.5467 0.43093 0.0
H383 H 0.83432 0.66574 0.42658 0.0
C384 C 0.85777 0.60908 0.34309 0.0
N385 N 0.89896 0.63326 0.31165 0.0
C386 C 0.8461 0.58215 0.32901 0.0
C387 C 0.88997 0.64849 0.34106 0.0
C388 C 0.86742 0.59488 0.31326 0.0
C389 C 0.91052 0.66009 0.3251 0.0
C390 C 0.80695 0.51181 0.39378 0.0
C391 C 0.82176 0.49106 0.38399 0.0
C392 C 0.77051 0.48998 0.40289 0.0
C393 C 0.79972 0.44888 0.38336 0.0
C394 C 0.74932 0.44782 0.40191 0.0
N395 N 0.76423 0.42831 0.39224 0.0
C396 C 0.92697 0.57584 0.38997 0.0
C397 C 0.92207 0.57428 0.35903 0.0
C398 C 0.95132 0.55816 0.38936 0.0
N399 N 0.91214 0.58269 0.37498 0.0
C400 C 0.94654 0.5567 0.35782 0.0
C401 C 0.96045 0.54724 0.37316 0.0
H402 H 0.91794 0.58205 0.40249 0.0
H403 H 0.90964 0.57935 0.34728 0.0
C404 C 0.71199 0.51235 0.37105 0.0
N405 N 0.74975 0.51974 0.36701 0.0
C406 C 0.67817 0.47904 0.36383 0.0
C407 C 0.72287 0.46216 0.34823 0.0
C408 C 0.75574 0.49566 0.35578 0.0
C409 C 0.68348 0.45337 0.35234 0.0
H410 H 0.70812 0.53235 0.37981 0.0
H411 H 0.78615 0.50252 0.35272 0.0
O412 O 0.88141 0.64448 0.39232 0.0
O413 O 0.78742 0.60624 0.38762 0.0
O414 O 0.83709 0.59706 0.35859 0.0
O415 O 0.82758 0.55321 0.39421 0.0
H416 H 0.89696 0.70745 0.41216 0.0
H417 H 0.94486 0.66432 0.37191 0.0
H418 H 0.96047 0.77362 0.41129 0.0
H419 H 0.00738 0.73128 0.37165 0.0
H420 H 0.6971 0.56481 0.43248 0.0
H421 H 0.79006 0.67584 0.39366 0.0
H422 H 0.73519 0.55149 0.4097 0.0
H423 H 0.75096 0.687 0.41668 0.0
H424 H 0.85637 0.77899 0.37041 0.0
H425 H 0.78763 0.69244 0.33001 0.0
H426 H 0.80421 0.54704 0.46281 0.0
H427 H 0.82557 0.66891 0.45846 0.0
H428 H 0.82094 0.55169 0.33023 0.0
H429 H 0.89869 0.67008 0.3516 0.0
H430 H 0.85886 0.57427 0.30229 0.0
H431 H 0.93554 0.6905 0.32339 0.0
H432 H 0.84961 0.50721 0.3767 0.0
H433 H 0.75848 0.50538 0.41051 0.0
H434 H 0.81074 0.4325 0.37575 0.0
H435 H 0.72097 0.43062 0.4088 0.0
H436 H 0.96125 0.55129 0.40151 0.0
H437 H 0.95359 0.54961 0.34503 0.0
H438 H 0.64822 0.47326 0.36725 0.0
H439 H 0.72825 0.44366 0.3391 0.0
Li440 Li 0.20438 0.83772 0.70686 0.0
Li441 Li 0.22833 0.82946 0.73551 0.0
Li442 Li 0.27887 0.86813 0.71135 0.0
Li443 Li 0.23542 0.7954 0.7104 0.0
C444 C 0.23276 0.9116 0.727 0.0
N445 N 0.21798 0.97396 0.73408 0.0
C446 C 0.19786 0.90399 0.73605 0.0
C447 C 0.26028 0.95095 0.72164 0.0
C448 C 0.19088 0.93591 0.73948 0.0
C449 C 0.25222 0.98206 0.72531 0.0
C450 C 0.15341 0.76533 0.73179 0.0
C451 C 0.12366 0.71756 0.75547 0.0
N452 N 0.08995 0.72101 0.75448 0.0
C453 C 0.11843 0.76836 0.731 0.0
C454 C 0.156 0.73961 0.74408 0.0
C455 C 0.08668 0.74568 0.74257 0.0
C456 C 0.14177 0.80267 0.6844 0.0
N457 N 0.16008 0.83634 0.69455 0.0
C458 C 0.1053 0.84884 0.68973 0.0
C459 C 0.14341 0.86027 0.69688 0.0
C460 C 0.08457 0.81253 0.68027 0.0
C461 C 0.10398 0.79025 0.67706 0.0
H462 H 0.15566 0.78416 0.68284 0.0
H463 H 0.1585 0.88702 0.7049 0.0
C464 C 0.24944 0.82807 0.77077 0.0
N465 N 0.21997 0.82684 0.76035 0.0
C466 C 0.24397 0.82353 0.78888 0.0
C467 C 0.17836 0.8176 0.78531 0.0
C468 C 0.18517 0.82245 0.76729 0.0
C469 C 0.20775 0.81753 0.7963 0.0
H470 H 0.27701 0.832 0.76498 0.0
H471 H 0.16218 0.82172 0.75885 0.0
C472 C 0.25202 0.85764 0.67663 0.0
N473 N 0.26557 0.90379 0.64688 0.0
C474 C 0.25754 0.84392 0.66047 0.0
C475 C 0.25313 0.89469 0.67764 0.0
C476 C 0.26444 0.86774 0.64558 0.0
C477 C 0.26007 0.91761 0.66246 0.0
C478 C 0.29568 0.80484 0.72906 0.0
C479 C 0.32915 0.81437 0.71849 0.0
C480 C 0.28058 0.77135 0.74018 0.0
C481 C 0.34678 0.78998 0.71911 0.0
C482 C 0.29903 0.74768 0.74041 0.0
N483 N 0.33145 0.75739 0.72995 0.0
C484 C 0.35509 0.9288 0.72194 0.0
C485 C 0.35224 0.91397 0.69167 0.0
C486 C 0.39718 0.95273 0.72119 0.0
N487 N 0.33363 0.9095 0.70738 0.0
C488 C 0.39429 0.93796 0.69029 0.0
C489 C 0.41734 0.95692 0.70528 0.0
H490 H 0.33965 0.92383 0.73435 0.0
H491 H 0.33492 0.89715 0.68041 0.0
C492 C 0.20808 0.71109 0.70791 0.0
N493 N 0.23426 0.74853 0.70163 0.0
C494 C 0.20698 0.67711 0.70055 0.0
C495 C 0.25959 0.72099 0.68038 0.0
C496 C 0.25985 0.75408 0.68819 0.0
C497 C 0.23285 0.68197 0.68655 0.0
H498 H 0.1877 0.70751 0.71842 0.0
H499 H 0.28028 0.78428 0.68349 0.0
O500 O 0.2406 0.881 0.72371 0.0
O501 O 0.18486 0.78736 0.72057 0.0
O502 O 0.24527 0.83459 0.6913 0.0
O503 O 0.27724 0.82762 0.72824 0.0
H504 H 0.17597 0.87367 0.74002 0.0
H505 H 0.28763 0.95739 0.71474 0.0
H506 H 0.16383 0.9304 0.74636 0.0
H507 H 0.27322 0.01265 0.72121 0.0
H508 H 0.12542 0.69781 0.76514 0.0
H509 H 0.1158 0.78813 0.72164 0.0
H510 H 0.18295 0.73721 0.74504 0.0
H511 H 0.05948 0.74779 0.74211 0.0
H512 H 0.09129 0.86691 0.69236 0.0
H513 H 0.08925 0.76248 0.66955 0.0
H514 H 0.2674 0.82379 0.79697 0.0
H515 H 0.15035 0.81383 0.79058 0.0
H516 H 0.25656 0.81519 0.65945 0.0
H517 H 0.24856 0.90558 0.68998 0.0
H518 H 0.26889 0.85756 0.633 0.0
H519 H 0.26103 0.94637 0.66306 0.0
H520 H 0.3411 0.84002 0.70973 0.0
H521 H 0.2547 0.76354 0.74844 0.0
H522 H 0.37255 0.79686 0.71092 0.0
H523 H 0.28751 0.72155 0.74888 0.0
H524 H 0.41393 0.96686 0.73303 0.0
H525 H 0.40879 0.93982 0.67787 0.0
H526 H 0.18554 0.64735 0.70545 0.0
H527 H 0.28004 0.7258 0.66964 0.0
Li528 Li 0.7798 0.60518 0.59938 0.0
Li529 Li 0.80395 0.64118 0.62717 0.0
Li530 Li 0.77919 0.56835 0.62528 0.0
Li531 Li 0.73208 0.59424 0.62323 0.0
C532 C 0.85531 0.60228 0.61534 0.0
N533 N 0.91205 0.57845 0.62036 0.0
C534 C 0.88549 0.62126 0.62802 0.0
C535 C 0.8541 0.57124 0.60519 0.0
C536 C 0.91389 0.60879 0.63035 0.0
C537 C 0.883 0.55959 0.60794 0.0
C538 C 0.78308 0.68545 0.60873 0.0
C539 C 0.79286 0.74859 0.62008 0.0
N540 N 0.81982 0.76861 0.60703 0.0
C541 C 0.81068 0.70656 0.59538 0.0
C542 C 0.77388 0.70652 0.62114 0.0
C543 C 0.829 0.74864 0.59476 0.0
C544 C 0.75725 0.6086 0.56447 0.0
N545 N 0.78672 0.60911 0.57465 0.0
C546 C 0.82528 0.61298 0.54935 0.0
C547 C 0.82065 0.61195 0.5675 0.0
C548 C 0.79462 0.61089 0.53852 0.0
C549 C 0.76044 0.60914 0.54625 0.0
H550 H 0.73103 0.6073 0.57053 0.0
H551 H 0.84401 0.6132 0.57588 0.0
C552 C 0.84848 0.69214 0.65542 0.0
N553 N 0.84688 0.68867 0.63768 0.0
C554 C 0.88497 0.7185 0.66371 0.0
C555 C 0.91669 0.73922 0.63533 0.0
C556 C 0.87958 0.71257 0.62756 0.0
C557 C 0.92012 0.74085 0.65365 0.0
H558 H 0.82239 0.67215 0.66318 0.0
H559 H 0.87789 0.70817 0.61353 0.0
C560 C 0.7168 0.53228 0.5937 0.0
N561 N 0.68141 0.49278 0.5628 0.0
C562 C 0.6816 0.5309 0.58763 0.0
C563 C 0.73374 0.51319 0.58416 0.0
C564 C 0.6642 0.51082 0.57196 0.0
C565 C 0.7155 0.49353 0.56853 0.0
C566 C 0.74359 0.59051 0.65763 0.0
C567 C 0.72881 0.5539 0.66657 0.0
C568 C 0.73311 0.61885 0.66327 0.0
C569 C 0.70332 0.54605 0.68095 0.0
C570 C 0.70751 0.60985 0.6777 0.0
N571 N 0.69325 0.57393 0.68615 0.0
C572 C 0.81198 0.5337 0.64768 0.0
C573 C 0.75814 0.48699 0.62974 0.0
C574 C 0.81445 0.50238 0.65585 0.0
N575 N 0.78432 0.52549 0.63483 0.0
C576 C 0.75901 0.45467 0.6378 0.0
C577 C 0.78714 0.46217 0.65119 0.0
H578 H 0.83161 0.56454 0.65182 0.0
H579 H 0.73582 0.48131 0.61977 0.0
C580 C 0.65882 0.59807 0.6218 0.0
N581 N 0.67687 0.57766 0.62807 0.0
C582 C 0.61683 0.58118 0.62316 0.0
C583 C 0.61328 0.52359 0.63798 0.0
C584 C 0.65502 0.54108 0.63599 0.0
C585 C 0.59368 0.54339 0.63127 0.0
H586 H 0.67675 0.62656 0.6151 0.0
H587 H 0.66982 0.52467 0.64014 0.0
O588 O 0.82688 0.61369 0.61297 0.0
O589 O 0.76535 0.64436 0.60973 0.0
O590 O 0.73488 0.55262 0.6088 0.0
O591 O 0.76819 0.59856 0.6434 0.0
H592 H 0.8867 0.64491 0.63619 0.0
H593 H 0.83091 0.55608 0.59538 0.0
H594 H 0.93726 0.6231 0.64017 0.0
H595 H 0.88229 0.5355 0.60023 0.0
H596 H 0.78617 0.76534 0.62963 0.0
H597 H 0.81817 0.69067 0.5857 0.0
H598 H 0.75238 0.69053 0.63148 0.0
H599 H 0.85059 0.76542 0.58456 0.0
H600 H 0.85216 0.61456 0.54381 0.0
H601 H 0.73656 0.6083 0.53829 0.0
H602 H 0.88631 0.71934 0.67788 0.0
H603 H 0.94313 0.75567 0.62711 0.0
H604 H 0.66809 0.54556 0.5948 0.0
H605 H 0.76087 0.51383 0.5887 0.0
H606 H 0.6371 0.50973 0.56705 0.0
H607 H 0.72847 0.4789 0.56094 0.0
H608 H 0.73665 0.53163 0.66237 0.0
H609 H 0.74444 0.64737 0.65652 0.0
H610 H 0.69147 0.51776 0.68795 0.0
H611 H 0.69896 0.63141 0.68216 0.0
H612 H 0.83724 0.50962 0.66581 0.0
H613 H 0.73718 0.4241 0.63392 0.0
H614 H 0.60249 0.59704 0.61769 0.0
H615 H 0.59623 0.49405 0.64398 0.0
Li616 Li 0.20726 0.76582 0.95709 0.0
Li617 Li 0.13431 0.72468 0.95498 0.0
Li618 Li 0.17442 0.77512 0.93264 0.0
Li619 Li 0.1677 0.80041 0.9606 0.0
C620 C 0.1969 0.70644 0.93781 0.0
N621 N 0.24315 0.6694 0.93649 0.0
C622 C 0.18814 0.67396 0.94889 0.0
C623 C 0.22903 0.71995 0.92599 0.0
C624 C 0.21192 0.65567 0.94804 0.0
C625 C 0.25209 0.70085 0.92554 0.0
C626 C 0.14446 0.75222 0.99009 0.0
C627 C 0.08226 0.74037 0.00347 0.0
N628 N 0.09929 0.74479 0.01955 0.0
C629 C 0.16141 0.75685 0.00674 0.0
C630 C 0.10463 0.74411 0.98841 0.0
C631 C 0.13805 0.7529 0.02148 0.0
C632 C 0.28973 0.78502 0.95907 0.0
N633 N 0.2524 0.76429 0.96643 0.0
C634 C 0.27777 0.74171 0.98977 0.0
C635 C 0.24579 0.74249 0.98135 0.0
C636 C 0.31675 0.76344 0.98266 0.0
C637 C 0.32257 0.78475 0.96697 0.0
H638 H 0.29415 0.80214 0.94724 0.0
H639 H 0.21566 0.72601 0.9868 0.0
C640 C 0.07192 0.64851 0.94449 0.0
N641 N 0.09244 0.6699 0.95886 0.0
C642 C 0.04762 0.6065 0.9453 0.0
C643 C 0.06536 0.6091 0.97581 0.0
C644 C 0.08928 0.65115 0.97442 0.0
C645 C 0.04509 0.58613 0.96098 0.0
H646 H 0.07622 0.6638 0.93211 0.0
H647 H 0.1072 0.66838 0.9855 0.0
C648 C 0.24108 0.84888 0.93624 0.0
N649 N 0.2879 0.91216 0.91388 0.0
C650 C 0.23984 0.8848 0.93717 0.0
C651 C 0.26629 0.84525 0.92399 0.0
C652 C 0.26374 0.91643 0.92575 0.0
C653 C 0.28964 0.87754 0.91278 0.0
C654 C 0.10613 0.7772 0.93096 0.0
C655 C 0.11844 0.81791 0.92825 0.0
C656 C 0.07727 0.7479 0.91986 0.0
C657 C 0.10171 0.82867 0.91445 0.0
C658 C 0.0613 0.75987 0.90618 0.0
N659 N 0.07374 0.79967 0.90378 0.0
C660 C 0.17133 0.75217 0.8974 0.0
C661 C 0.18535 0.81964 0.90053 0.0
C662 C 0.17438 0.75631 0.87921 0.0
N663 N 0.17737 0.78376 0.90769 0.0
C664 C 0.18886 0.82517 0.88242 0.0
C665 C 0.18348 0.79328 0.87154 0.0
H666 H 0.16451 0.72377 0.90334 0.0
H667 H 0.18938 0.84422 0.90883 0.0
C668 C 0.20443 0.86381 0.98319 0.0
N669 N 0.16977 0.84394 0.97373 0.0
C670 C 0.21434 0.89985 0.9917 0.0
C671 C 0.15174 0.8937 0.98129 0.0
C672 C 0.14287 0.85741 0.973 0.0
C673 C 0.18838 0.91582 0.99047 0.0
H674 H 0.22526 0.85239 0.98348 0.0
H675 H 0.11524 0.8408 0.96556 0.0
O676 O 0.17475 0.72552 0.93881 0.0
O677 O 0.16722 0.75663 0.97555 0.0
O678 O 0.21805 0.81767 0.94739 0.0
O679 O 0.12246 0.76617 0.94433 0.0
H680 H 0.1636 0.66332 0.9582 0.0
H681 H 0.23626 0.74508 0.91735 0.0
H682 H 0.20563 0.63066 0.95661 0.0
H683 H 0.27716 0.7111 0.91652 0.0
H684 H 0.05137 0.73398 0.00237 0.0
H685 H 0.19234 0.76353 0.00825 0.0
H686 H 0.09105 0.74064 0.97564 0.0
H687 H 0.15075 0.75635 0.03445 0.0
H688 H 0.27216 0.72443 0.00172 0.0
H689 H 0.35233 0.80182 0.96115 0.0
H690 H 0.03197 0.59001 0.93362 0.0
H691 H 0.06445 0.59453 0.9881 0.0
H692 H 0.22048 0.8882 0.9465 0.0
H693 H 0.26723 0.81754 0.9229 0.0
H694 H 0.26298 0.94433 0.92629 0.0
H695 H 0.30902 0.87501 0.90314 0.0
H696 H 0.14141 0.84108 0.93645 0.0
H697 H 0.0673 0.71627 0.92176 0.0
H698 H 0.1112 0.86011 0.91214 0.0
H699 H 0.039 0.7375 0.89747 0.0
H700 H 0.17048 0.73113 0.87126 0.0
H701 H 0.19563 0.85405 0.87696 0.0
H702 H 0.24294 0.91598 0.99855 0.0
H703 H 0.13059 0.90468 0.9803 0.0
Li704 Li 0.40946 0.13406 0.28939 0.0
Li705 Li 0.4377 0.20732 0.29226 0.0
Li706 Li 0.36537 0.163 0.29503 0.0
Li707 Li 0.40015 0.17302 0.26683 0.0
C708 C 0.39164 0.13953 0.32411 0.0
N709 N 0.35785 0.08793 0.35225 0.0
C710 C 0.40816 0.15167 0.34083 0.0
C711 C 0.3579 0.10117 0.32168 0.0
C712 C 0.39065 0.12513 0.3549 0.0
C713 C 0.34127 0.07552 0.33608 0.0
C714 C 0.46952 0.17876 0.25953 0.0
C715 C 0.51048 0.21517 0.23464 0.0
N716 N 0.50317 0.17965 0.22738 0.0
C717 C 0.46261 0.14265 0.25185 0.0
C718 C 0.49385 0.21537 0.25091 0.0
C719 C 0.47985 0.14371 0.23559 0.0
C720 C 0.40701 0.05786 0.28543 0.0
N721 N 0.42363 0.09369 0.29413 0.0
C722 C 0.47371 0.08152 0.30694 0.0
C723 C 0.45591 0.10552 0.30493 0.0
C724 C 0.45828 0.04507 0.29765 0.0
C725 C 0.4241 0.03298 0.28697 0.0
H726 H 0.38184 0.0496 0.27665 0.0
H727 H 0.469 0.1346 0.31137 0.0
C728 C 0.47458 0.27466 0.31466 0.0
N729 N 0.48179 0.25364 0.3022 0.0
C730 C 0.50679 0.3076 0.32291 0.0
C731 C 0.55305 0.2961 0.3055 0.0
C732 C 0.51997 0.2636 0.2975 0.0
C733 C 0.54655 0.31823 0.31848 0.0
H734 H 0.44381 0.2655 0.3183 0.0
H735 H 0.52471 0.24587 0.28775 0.0
C736 C 0.32136 0.10599 0.26902 0.0
N737 N 0.24833 0.07723 0.25188 0.0
C738 C 0.31114 0.13295 0.26136 0.0
C739 C 0.29448 0.06444 0.26791 0.0
C740 C 0.27408 0.11779 0.25275 0.0
C741 C 0.25767 0.05049 0.25922 0.0
C742 C 0.40686 0.25324 0.28193 0.0
C743 C 0.38306 0.26645 0.29036 0.0
C744 C 0.44368 0.28161 0.27446 0.0
C745 C 0.39699 0.30785 0.29157 0.0
C746 C 0.45662 0.32274 0.27597 0.0
N747 N 0.43322 0.33491 0.28445 0.0
C748 C 0.33385 0.18838 0.3213 0.0
C749 C 0.28159 0.14099 0.30297 0.0
C750 C 0.30711 0.19807 0.32949 0.0
N751 N 0.32119 0.16151 0.30783 0.0
C752 C 0.25374 0.14982 0.31082 0.0
C753 C 0.26683 0.1799 0.3238 0.0
H754 H 0.36551 0.20448 0.32485 0.0
H755 H 0.27173 0.11908 0.29254 0.0
C756 C 0.38576 0.14485 0.23162 0.0
N757 N 0.39623 0.17752 0.24203 0.0
C758 C 0.38358 0.14798 0.21347 0.0
C759 C 0.40245 0.21808 0.21713 0.0
C760 C 0.40432 0.21362 0.23517 0.0
C761 C 0.39184 0.18496 0.20605 0.0
H762 H 0.3793 0.11643 0.23744 0.0
H763 H 0.4124 0.23905 0.24368 0.0
O764 O 0.40854 0.16531 0.31026 0.0
O765 O 0.45198 0.1782 0.27524 0.0
O766 O 0.35783 0.1198 0.27719 0.0
O767 O 0.39377 0.21275 0.28074 0.0
H768 H 0.43426 0.18131 0.3429 0.0
H769 H 0.34463 0.09123 0.30886 0.0
H770 H 0.40312 0.13411 0.36792 0.0
H771 H 0.31517 0.04575 0.3344 0.0
H772 H 0.52917 0.24327 0.22779 0.0
H773 H 0.44365 0.11403 0.25824 0.0
H774 H 0.4997 0.24364 0.25665 0.0
H775 H 0.4745 0.11595 0.22945 0.0
H776 H 0.50048 0.09237 0.315 0.0
H777 H 0.41141 0.00511 0.27955 0.0
H778 H 0.50077 0.32396 0.33293 0.0
H779 H 0.58337 0.30379 0.30166 0.0
H780 H 0.33133 0.1652 0.26213 0.0
H781 H 0.30206 0.0432 0.27369 0.0
H782 H 0.26576 0.13829 0.2468 0.0
H783 H 0.23655 0.0184 0.25828 0.0
H784 H 0.35388 0.24504 0.2957 0.0
H785 H 0.46234 0.27199 0.26776 0.0
H786 H 0.3789 0.31844 0.29812 0.0
H787 H 0.48528 0.34498 0.27042 0.0
H788 H 0.31854 0.22146 0.33941 0.0
H789 H 0.22266 0.13434 0.30637 0.0
H790 H 0.37524 0.12175 0.20533 0.0
H791 H 0.40977 0.2473 0.21189 0.0
Li792 Li 0.23337 0.43759 0.62536 0.0
Li793 Li 0.27988 0.41101 0.62349 0.0
Li794 Li 0.23162 0.39975 0.59983 0.0
Li795 Li 0.20741 0.36465 0.62796 0.0
C796 C 0.29534 0.47137 0.59339 0.0
N797 N 0.33047 0.50786 0.56196 0.0
C798 C 0.3303 0.47188 0.58757 0.0
C799 C 0.2785 0.48979 0.58331 0.0
C800 C 0.34758 0.49045 0.57163 0.0
C801 C 0.29661 0.50792 0.56742 0.0
C802 C 0.26726 0.41338 0.65822 0.0
C803 C 0.29756 0.38882 0.67894 0.0
N804 N 0.31395 0.42471 0.68759 0.0
C805 C 0.28413 0.44992 0.66737 0.0
C806 C 0.27376 0.38246 0.66409 0.0
C807 C 0.30775 0.4551 0.68217 0.0
C808 C 0.20485 0.47319 0.64915 0.0
N809 N 0.22896 0.48076 0.63492 0.0
C810 C 0.25162 0.55125 0.63661 0.0
C811 C 0.252 0.51874 0.62849 0.0
C812 C 0.22751 0.54446 0.65152 0.0
C813 C 0.20335 0.50475 0.65761 0.0
H814 H 0.18744 0.4427 0.65413 0.0
H815 H 0.27148 0.52391 0.61737 0.0
C816 C 0.35265 0.40635 0.62187 0.0
N817 N 0.33485 0.42678 0.62838 0.0
C818 C 0.39461 0.42294 0.62319 0.0
C819 C 0.39861 0.48022 0.63848 0.0
C820 C 0.3569 0.46305 0.63654 0.0
C821 C 0.41798 0.46044 0.63149 0.0
H822 H 0.33457 0.37814 0.61499 0.0
H823 H 0.34229 0.47953 0.64086 0.0
C824 C 0.15757 0.40487 0.61625 0.0
N825 N 0.10344 0.43164 0.62223 0.0
C826 C 0.12777 0.38658 0.62913 0.0
C827 C 0.15962 0.4366 0.60634 0.0
C828 C 0.10072 0.40057 0.63196 0.0
C829 C 0.13207 0.44977 0.60959 0.0
C830 C 0.22904 0.31952 0.60912 0.0
C831 C 0.20294 0.29851 0.5953 0.0
C832 C 0.23858 0.2986 0.62147 0.0
C833 C 0.18631 0.25666 0.59419 0.0
C834 C 0.2213 0.25674 0.61991 0.0
N835 N 0.19572 0.23682 0.60643 0.0
C836 C 0.25248 0.39409 0.56482 0.0
C837 C 0.19024 0.39305 0.56819 0.0
C838 C 0.24866 0.39315 0.54662 0.0
N839 N 0.22388 0.39489 0.57514 0.0
C840 C 0.18498 0.39165 0.55006 0.0
C841 C 0.21477 0.39238 0.53907 0.0
H842 H 0.27853 0.39476 0.57074 0.0
H843 H 0.16765 0.39303 0.5767 0.0
C844 C 0.15964 0.32009 0.65665 0.0
N845 N 0.16427 0.31825 0.63907 0.0
C846 C 0.12254 0.29415 0.66458 0.0
C847 C 0.09656 0.26289 0.63647 0.0
C848 C 0.13399 0.28983 0.629 0.0
C849 C 0.0901 0.26599 0.65434 0.0
H850 H 0.18352 0.34391 0.66425 0.0
H851 H 0.1376 0.2903 0.61496 0.0
O852 O 0.27738 0.4525 0.60876 0.0
O853 O 0.2444 0.40788 0.6436 0.0
O854 O 0.18487 0.39215 0.61349 0.0
O855 O 0.24546 0.36042 0.6105 0.0
H856 H 0.34374 0.45774 0.59514 0.0
H857 H 0.2515 0.48971 0.5876 0.0
H858 H 0.3745 0.49086 0.56692 0.0
H859 H 0.28369 0.52198 0.55942 0.0
H860 H 0.30299 0.36521 0.6836 0.0
H861 H 0.27937 0.47416 0.66299 0.0
H862 H 0.26061 0.35391 0.65722 0.0
H863 H 0.3212 0.4833 0.68933 0.0
H864 H 0.27085 0.58151 0.63161 0.0
H865 H 0.18383 0.49821 0.66888 0.0
H866 H 0.40877 0.40711 0.6175 0.0
H867 H 0.41584 0.50956 0.64465 0.0
H868 H 0.12566 0.36209 0.63697 0.0
H869 H 0.1825 0.45118 0.59636 0.0
H870 H 0.07764 0.38679 0.64193 0.0
H871 H 0.1335 0.47446 0.60209 0.0
H872 H 0.1953 0.31428 0.58562 0.0
H873 H 0.25912 0.31453 0.63212 0.0
H874 H 0.16586 0.23995 0.58362 0.0
H875 H 0.22827 0.24011 0.62941 0.0
H876 H 0.27188 0.39301 0.53853 0.0
H877 H 0.15838 0.39091 0.54467 0.0
H878 H 0.11846 0.29768 0.67838 0.0
H879 H 0.07196 0.24222 0.62809 0.0
Li880 Li 0.86453 0.27106 0.95572 0.0
Li881 Li 0.79181 0.22444 0.9579 0.0
Li882 Li 0.83959 0.19911 0.96022 0.0
Li883 Li 0.82769 0.22279 0.93207 0.0
C884 C 0.84992 0.26214 0.98972 0.0
N885 N 0.88492 0.31648 0.01688 0.0
C886 C 0.83254 0.2847 0.99553 0.0
C887 C 0.88483 0.26686 0.99781 0.0
C888 C 0.85077 0.31211 0.00925 0.0
C889 C 0.90214 0.29458 0.0115 0.0
C890 C 0.81964 0.28566 0.92558 0.0
C891 C 0.78347 0.28987 0.90054 0.0
N892 N 0.81881 0.31984 0.89383 0.0
C893 C 0.85559 0.31657 0.91847 0.0
C894 C 0.78325 0.27225 0.9166 0.0
C895 C 0.85453 0.33346 0.9024 0.0
C896 C 0.94384 0.3425 0.95923 0.0
N897 N 0.90312 0.32643 0.9604 0.0
C898 C 0.91097 0.39197 0.96478 0.0
C899 C 0.88652 0.35016 0.96332 0.0
C900 C 0.95303 0.40975 0.96305 0.0
C901 C 0.96956 0.3844 0.96061 0.0
H902 H 0.95627 0.32304 0.9567 0.0
H903 H 0.85399 0.33663 0.96389 0.0
C904 C 0.72253 0.19023 0.97935 0.0
N905 N 0.74409 0.21988 0.96751 0.0
C906 C 0.68879 0.18803 0.98747 0.0
C907 C 0.70096 0.24775 0.97151 0.0
C908 C 0.734 0.24832 0.96344 0.0
C909 C 0.6781 0.21753 0.98385 0.0
H910 H 0.73181 0.16853 0.9826 0.0
H911 H 0.7523 0.27208 0.95426 0.0
C912 C 0.90855 0.22425 0.94225 0.0
N913 N 0.96391 0.19782 0.94161 0.0
C914 C 0.91005 0.20231 0.92791 0.0
C915 C 0.93539 0.23307 0.95618 0.0
C916 C 0.93823 0.18914 0.92785 0.0
C917 C 0.96309 0.21933 0.95564 0.0
C918 C 0.74947 0.14742 0.94781 0.0
C919 C 0.73857 0.11318 0.95807 0.0
C920 C 0.71939 0.15196 0.93946 0.0
C921 C 0.69773 0.0842 0.95991 0.0
C922 C 0.67888 0.12236 0.94166 0.0
N923 N 0.66898 0.08938 0.95176 0.0
C924 C 0.8313 0.14749 0.98802 0.0
C925 C 0.84774 0.1292 0.96089 0.0
C926 C 0.82047 0.10961 0.99506 0.0
N927 N 0.84332 0.15599 0.97104 0.0
C928 C 0.83795 0.09128 0.96751 0.0
C929 C 0.82199 0.08026 0.9845 0.0
H930 H 0.82676 0.16877 0.99563 0.0
H931 H 0.85571 0.13586 0.94726 0.0
C932 C 0.85639 0.23899 0.89709 0.0
N933 N 0.82421 0.21466 0.90737 0.0
C934 C 0.85399 0.23379 0.87893 0.0
C935 C 0.78555 0.17849 0.88233 0.0
C936 C 0.78929 0.18472 0.90039 0.0
C937 C 0.81824 0.20307 0.87137 0.0
H938 H 0.88388 0.26246 0.90302 0.0
H939 H 0.76425 0.16569 0.90881 0.0
O940 O 0.833 0.23573 0.97609 0.0
O941 O 0.82017 0.26798 0.94107 0.0
O942 O 0.88116 0.23732 0.94256 0.0
O943 O 0.78932 0.1763 0.94594 0.0
H944 H 0.8055 0.28137 0.98939 0.0
H945 H 0.89839 0.24932 0.99356 0.0
H946 H 0.83781 0.32998 0.01382 0.0
H947 H 0.92926 0.29869 0.01786 0.0
H948 H 0.75556 0.27966 0.8934 0.0
H949 H 0.8841 0.32702 0.92515 0.0
H950 H 0.75518 0.24833 0.92191 0.0
H951 H 0.88215 0.35725 0.89669 0.0
H952 H 0.89695 0.41034 0.96653 0.0
H953 H 1.00191 0.39686 0.95948 0.0
H954 H 0.67144 0.16362 0.99655 0.0
H955 H 0.69397 0.27126 0.96846 0.0
H956 H 0.88946 0.19522 0.91702 0.0
H957 H 0.93475 0.25025 0.96731 0.0
H958 H 0.93962 0.17195 0.91688 0.0
H959 H 0.98395 0.22578 0.96636 0.0
H960 H 0.7613 0.1089 0.96454 0.0
H961 H 0.72721 0.17837 0.93157 0.0
H962 H 0.68891 0.0576 0.96783 0.0
H963 H 0.65531 0.12567 0.93538 0.0
H964 H 0.80811 0.10238 0.00818 0.0
H965 H 0.8405 0.06994 0.95903 0.0
H966 H 0.87989 0.25333 0.8709 0.0
H967 H 0.75718 0.15502 0.87699 0.0
Li968 Li 0.56768 0.79444 0.29187 0.0
Li969 Li 0.59524 0.86766 0.28901 0.0
Li970 Li 0.60461 0.82901 0.26637 0.0
Li971 Li 0.63994 0.83931 0.29443 0.0
C972 C 0.53483 0.82231 0.25931 0.0
N973 N 0.50102 0.82073 0.2271 0.0
C974 C 0.54151 0.85824 0.25152 0.0
C975 C 0.5106 0.78553 0.25078 0.0
C976 C 0.52421 0.85682 0.23523 0.0
C977 C 0.49389 0.78538 0.23449 0.0
C978 C 0.61377 0.86234 0.32368 0.0
C979 C 0.66357 0.92668 0.3356 0.0
N980 N 0.64773 0.91383 0.35185 0.0
C981 C 0.598 0.84975 0.34048 0.0
C982 C 0.64684 0.90109 0.32119 0.0
C983 C 0.61559 0.87624 0.35456 0.0
C984 C 0.53253 0.72743 0.31434 0.0
N985 N 0.5243 0.74781 0.30194 0.0
C986 C 0.45336 0.70381 0.30552 0.0
C987 C 0.48576 0.73681 0.29741 0.0
C988 C 0.46087 0.68226 0.31845 0.0
C989 C 0.50106 0.69407 0.32269 0.0
H990 H 0.56358 0.73727 0.31778 0.0
H991 H 0.4802 0.75412 0.28775 0.0
C992 C 0.59697 0.94341 0.28499 0.0
N993 N 0.5808 0.9078 0.29383 0.0
C994 C 0.57976 0.96817 0.28658 0.0
C995 C 0.53096 0.91999 0.3069 0.0
C996 C 0.54886 0.89609 0.30483 0.0
C997 C 0.54592 0.9562 0.29746 0.0
H998 H 0.62187 0.95157 0.27606 0.0
H999 H 0.53612 0.86718 0.31139 0.0
C1000 C 0.59926 0.74923 0.28126 0.0
N1001 N 0.57416 0.66783 0.28369 0.0
C1002 C 0.62372 0.73657 0.28949 0.0
C1003 C 0.56241 0.72046 0.27394 0.0
C1004 C 0.61042 0.6953 0.29066 0.0
C1005 C 0.55013 0.67947 0.2754 0.0
C1006 C 0.68326 0.89644 0.26844 0.0
C1007 C 0.69356 0.8697 0.26061 0.0
C1008 C 0.71002 0.93803 0.26744 0.0
C1009 C 0.73059 0.88512 0.25195 0.0
C1010 C 0.7468 0.95224 0.2587 0.0
N1011 N 0.75623 0.92571 0.25119 0.0
C1012 C 0.61864 0.85762 0.23131 0.0
C1013 C 0.59868 0.78841 0.23444 0.0
C1014 C 0.61943 0.85458 0.2131 0.0
N1015 N 0.60793 0.82465 0.24153 0.0
C1016 C 0.59909 0.78401 0.21632 0.0
C1017 C 0.60912 0.81725 0.20541 0.0
H1018 H 0.62615 0.88618 0.23732 0.0
H1019 H 0.5906 0.76277 0.24282 0.0
C1020 C 0.67191 0.81436 0.32063 0.0
N1021 N 0.68438 0.84108 0.30712 0.0
C1022 C 0.69877 0.8048 0.32879 0.0
C1023 C 0.75188 0.85283 0.30996 0.0
C1024 C 0.7239 0.86153 0.30214 0.0
C1025 C 0.73898 0.82293 0.323 0.0
H1026 H 0.6403 0.79826 0.32426 0.0
H1027 H 0.73359 0.88328 0.29165 0.0
O1028 O 0.55263 0.82323 0.27499 0.0
O1029 O 0.59682 0.83659 0.30982 0.0
O1030 O 0.61172 0.78959 0.28012 0.0
O1031 O 0.64684 0.88239 0.27668 0.0
H1032 H 0.56041 0.88698 0.25782 0.0
H1033 H 0.50494 0.7574 0.2566 0.0
H1034 H 0.52943 0.88444 0.22899 0.0
H1035 H 0.47531 0.75715 0.2277 0.0
H1036 H 0.68915 0.95676 0.33387 0.0
H1037 H 0.57244 0.81979 0.34261 0.0
H1038 H 0.65952 0.91138 0.3083 0.0
H1039 H 0.6037 0.8669 0.36765 0.0
H1040 H 0.42276 0.69578 0.302 0.0
H1041 H 0.50808 0.67776 0.33236 0.0
H1042 H 0.59209 0.99585 0.27905 0.0
H1043 H 0.50446 0.90924 0.31513 0.0
H1044 H 0.6529 0.75831 0.29473 0.0
H1045 H 0.54322 0.72965 0.26741 0.0
H1046 H 0.62902 0.68512 0.29706 0.0
H1047 H 0.52146 0.65691 0.26997 0.0
H1048 H 0.67346 0.83742 0.26128 0.0
H1049 H 0.70238 0.95911 0.27336 0.0
H1050 H 0.73897 0.86479 0.24587 0.0
H1051 H 0.76783 0.98436 0.25785 0.0
H1052 H 0.62812 0.88113 0.20514 0.0
H1053 H 0.59093 0.75472 0.21088 0.0
H1054 H 0.68749 0.78152 0.33876 0.0
H1055 H 0.7829 0.86827 0.30543 0.0
C1056 C 0.21726 0.96577 0.01506 0.0
C1057 C 0.2013 0.95644 0.99799 0.0
C1058 C 0.23527 0.00532 0.02159 0.0
C1059 C 0.23831 0.03727 0.01128 0.0
H1060 H 0.21694 0.94247 0.02326 0.0
H1061 H 0.24869 0.01121 0.03452 0.0
S1062 S 0.19853 0.02843 0.96619 0.0
N1063 N 0.18784 0.98208 0.97121 0.0
N1064 N 0.22113 0.05633 0.9836 0.0
C1065 C 0.22081 0.02804 0.99448 0.0
C1066 C 0.20236 0.98768 0.98783 0.0
C1067 C 0.21828 0.22169 0.35463 0.0
C1068 C 0.19957 0.23605 0.34307 0.0
C1069 C 0.23839 0.20186 0.34838 0.0
C1070 C 0.24023 0.19526 0.33034 0.0
H1071 H 0.21917 0.2276 0.36854 0.0
H1072 H 0.25365 0.19268 0.3577 0.0
S1073 S 0.19333 0.22417 0.29478 0.0
N1074 N 0.18173 0.23979 0.31288 0.0
N1075 N 0.21992 0.20312 0.30109 0.0
C1076 C 0.21998 0.20777 0.31874 0.0
C1077 C 0.19964 0.22806 0.3251 0.0
C1078 C 0.99237 0.24978 0.67441 0.0
C1079 C 0.96675 0.20767 0.6735 0.0
C1080 C 0.03255 0.26803 0.66868 0.0
C1081 C 0.04847 0.24493 0.66159 0.0
H1082 H 0.98119 0.26877 0.67958 0.0
H1083 H 0.05101 0.30065 0.66938 0.0
S1084 S 0.99394 0.13355 0.65651 0.0
N1085 N 0.96017 0.14323 0.66535 0.0
N1086 N 0.03568 0.17773 0.65414 0.0
C1087 C 0.02325 0.20277 0.66067 0.0
C1088 C 0.98241 0.18408 0.6668 0.0
C1089 C 0.78666 0.98848 0.01424 0.0
C1090 C 0.75767 0.95665 0.00389 0.0
C1091 C 0.80855 0.0281 0.00769 0.0
C1092 C 0.80248 0.0374 0.99051 0.0
H1093 H 0.79119 0.98311 0.02776 0.0
H1094 H 0.82968 0.05184 0.01629 0.0
S1095 S 0.73189 0.96423 0.95773 0.0
N1096 N 0.72621 0.93653 0.97522 0.0
N1097 N 0.76597 0.01091 0.96313 0.0
C1098 C 0.77465 0.00547 0.97983 0.0
C1099 C 0.7526 0.96519 0.98647 0.0
C1100 C 0.76766 0.80122 0.34758 0.0
C1101 C 0.76567 0.80768 0.32954 0.0
C1102 C 0.78776 0.78141 0.35383 0.0
C1103 C 0.80635 0.76691 0.34228 0.0
H1104 H 0.75248 0.8105 0.3569 0.0
H1105 H 0.78696 0.7756 0.36775 0.0
S1106 S 0.81229 0.77844 0.29397 0.0
N1107 N 0.78577 0.79957 0.30028 0.0
N1108 N 0.824 0.76295 0.31207 0.0
C1109 C 0.80619 0.77478 0.3243 0.0
C1110 C 0.78583 0.79506 0.31793 0.0
C1111 C 0.99041 0.80044 0.65741 0.0
C1112 C 0.96081 0.76073 0.66197 0.0
C1113 C 0.03018 0.81786 0.66388 0.0
C1114 C 0.04178 0.79584 0.67485 0.0
H1115 H 0.98291 0.81789 0.64857 0.0
H1116 H 0.0523 0.84815 0.6598 0.0
S1117 S 0.97576 0.69131 0.69098 0.0
N1118 N 0.94603 0.70029 0.67836 0.0
N1119 N 0.02024 0.73309 0.6906 0.0
C1120 C 0.01225 0.75656 0.67982 0.0
C1121 C 0.97192 0.73899 0.67336 0.0
C1122 C 0.61611 0.22411 0.98341 0.0
C1123 C 0.64365 0.21733 0.99297 0.0
C1124 C 0.58395 0.22513 0.99171 0.0
C1125 C 0.57794 0.21928 0.00989 0.0
H1126 H 0.61937 0.22863 0.96938 0.0
H1127 H 0.564 0.2312 0.98382 0.0
S1128 S 0.64107 0.19974 0.04089 0.0
N1129 N 0.66307 0.20513 0.02169 0.0
N1130 N 0.60141 0.20505 0.03714 0.0
C1131 C 0.6049 0.2119 0.01959 0.0
C1132 C 0.63795 0.21129 0.01117 0.0
C1133 C 0.36108 0.58588 0.32599 0.0
C1134 C 0.35952 0.58191 0.34431 0.0
C1135 C 0.39415 0.61822 0.31774 0.0
C1136 C 0.42674 0.64783 0.32752 0.0
H1137 H 0.33667 0.56362 0.31798 0.0
H1138 H 0.39431 0.61993 0.30357 0.0
S1139 S 0.43566 0.65254 0.37596 0.0
N1140 N 0.39237 0.61084 0.37205 0.0
N1141 N 0.45443 0.67208 0.35658 0.0
C1142 C 0.42534 0.64435 0.34588 0.0
C1143 C 0.39174 0.61128 0.35427 0.0
C1144 C 0.78274 0.36195 0.65915 0.0
C1145 C 0.78492 0.3604 0.67751 0.0
C1146 C 0.78393 0.39512 0.65078 0.0
C1147 C 0.78724 0.42801 0.66042 0.0
H1148 H 0.77939 0.33701 0.65118 0.0
H1149 H 0.78226 0.39497 0.63662 0.0
S1150 S 0.79455 0.43905 0.7088 0.0
N1151 N 0.79204 0.39531 0.70505 0.0
N1152 N 0.79224 0.45676 0.68938 0.0
C1153 C 0.78963 0.42695 0.67879 0.0
C1154 C 0.78886 0.39334 0.68731 0.0
C1155 C 0.37646 0.75328 0.98279 0.0
C1156 C 0.35137 0.76439 0.99174 0.0
C1157 C 0.4092 0.75365 0.99124 0.0
C1158 C 0.41812 0.76542 0.00889 0.0
H1159 H 0.37037 0.7437 0.96924 0.0
H1160 H 0.42737 0.74417 0.98395 0.0
S1161 S 0.36362 0.80081 0.03755 0.0
N1162 N 0.33865 0.7895 0.01883 0.0
N1163 N 0.40065 0.7909 0.03467 0.0
C1164 C 0.39365 0.77736 0.01786 0.0
C1165 C 0.36018 0.7767 0.00929 0.0
C1166 C 0.58436 0.39023 0.32826 0.0
C1167 C 0.58114 0.35197 0.32755 0.0
C1168 C 0.61737 0.4228 0.33648 0.0
C1169 C 0.64813 0.41813 0.34432 0.0
H1170 H 0.56159 0.39516 0.32215 0.0
H1171 H 0.6192 0.45203 0.3364 0.0
S1172 S 0.65138 0.32294 0.34758 0.0
N1173 N 0.60985 0.31047 0.33632 0.0
N1174 N 0.6717 0.37159 0.35196 0.0
C1175 C 0.64464 0.37972 0.34409 0.0
C1176 C 0.61117 0.34666 0.33565 0.0
C1177 C 0.22486 0.60853 0.65131 0.0
C1178 C 0.22831 0.57888 0.66083 0.0
C1179 C 0.22634 0.64177 0.65976 0.0
C1180 C 0.2312 0.64646 0.67801 0.0
H1181 H 0.2207 0.60587 0.63725 0.0
H1182 H 0.2233 0.6638 0.65196 0.0
S1183 S 0.24455 0.57899 0.70874 0.0
N1184 N 0.2389 0.5575 0.68939 0.0
N1185 N 0.24116 0.61985 0.70526 0.0
C1186 C 0.23493 0.61725 0.68767 0.0
C1187 C 0.23361 0.58348 0.67908 0.0
C1188 C 0.41102 0.18154 0.15744 0.0
C1189 C 0.39094 0.20017 0.14979 0.0
C1190 C 0.41069 0.17623 0.17561 0.0
C1191 C 0.39027 0.18932 0.1868 0.0
H1192 H 0.42779 0.17173 0.14934 0.0
H1193 H 0.42728 0.16254 0.18098 0.0
S1194 S 0.32958 0.23596 0.17317 0.0
N1195 N 0.34776 0.22912 0.15468 0.0
N1196 N 0.34711 0.2191 0.18884 0.0
C1197 C 0.36924 0.20705 0.17929 0.0
C1198 C 0.36959 0.21249 0.16079 0.0
C1199 C 0.17017 0.36366 0.49338 0.0
C1200 C 0.20014 0.39419 0.4829 0.0
C1201 C 0.17515 0.36319 0.51156 0.0
C1202 C 0.21057 0.39285 0.51981 0.0
H1203 H 0.14235 0.34041 0.48752 0.0
H1204 H 0.15119 0.33941 0.51921 0.0
S1205 S 0.29845 0.47863 0.49816 0.0
N1206 N 0.26671 0.45433 0.482 0.0
N1207 N 0.27612 0.45339 0.51617 0.0
C1208 C 0.24099 0.42318 0.50944 0.0
C1209 C 0.23574 0.4239 0.49099 0.0
C1210 C 0.82622 0.23045 0.84093 0.0
C1211 C 0.81471 0.19717 0.8521 0.0
C1212 C 0.82175 0.22543 0.82273 0.0
C1213 C 0.80555 0.18695 0.81504 0.0
H1214 H 0.83799 0.2605 0.84632 0.0
H1215 H 0.83028 0.25178 0.81464 0.0
S1216 S 0.77453 0.09069 0.83835 0.0
N1217 N 0.78906 0.12484 0.85406 0.0
N1218 N 0.78044 0.11543 0.81985 0.0
C1219 C 0.79477 0.15357 0.82601 0.0
C1220 C 0.79941 0.15867 0.84453 0.0
C1221 C 0.62718 0.78784 0.16019 0.0
C1222 C 0.60721 0.80158 0.14908 0.0
C1223 C 0.62793 0.79333 0.17837 0.0
C1224 C 0.60868 0.8127 0.1861 0.0
H1225 H 0.64266 0.77305 0.15478 0.0
H1226 H 0.64395 0.78256 0.18642 0.0
S1227 S 0.54958 0.85138 0.16288 0.0
N1228 N 0.56611 0.83365 0.14715 0.0
N1229 N 0.56736 0.8438 0.18133 0.0
C1230 C 0.58828 0.82623 0.17515 0.0
C1231 C 0.58757 0.8207 0.15664 0.0
C1232 C 0.83307 0.64031 0.51077 0.0
C1233 C 0.79828 0.6102 0.51923 0.0
C1234 C 0.83749 0.63977 0.49256 0.0
C1235 C 0.80758 0.60873 0.48224 0.0
H1236 H 0.85696 0.66453 0.51828 0.0
H1237 H 0.86484 0.66337 0.48654 0.0
S1238 S 0.7108 0.52297 0.49806 0.0
N1239 N 0.73338 0.54867 0.51596 0.0
N1240 N 0.74173 0.54761 0.48172 0.0
C1241 C 0.7726 0.57856 0.49053 0.0
C1242 C 0.76792 0.57933 0.50903 0.0
C1243 C 0.22367 0.83224 0.84544 0.0
C1244 C 0.18856 0.79907 0.85231 0.0
C1245 C 0.22971 0.83792 0.82732 0.0
C1246 C 0.20062 0.81094 0.81542 0.0
H1247 H 0.24693 0.85364 0.85415 0.0
H1248 H 0.25722 0.8638 0.82258 0.0
S1249 S 0.10334 0.71962 0.8267 0.0
N1250 N 0.12412 0.73918 0.84582 0.0
N1251 N 0.13558 0.74972 0.81175 0.0
C1252 C 0.16528 0.77781 0.82211 0.0
C1253 C 0.15926 0.77187 0.84055 0.0
C1254 C 0.53747 0.52115 0.03293 0.0
C1255 C 0.52631 0.54427 0.04338 0.0
C1256 C 0.5142 0.47878 0.03272 0.0
C1257 C 0.47857 0.45793 0.04276 0.0
H1258 H 0.56469 0.53592 0.02507 0.0
H1259 H 0.5246 0.4622 0.02483 0.0
S1260 S 0.43425 0.50518 0.07086 0.0
N1261 N 0.47633 0.54369 0.0632 0.0
N1262 N 0.43202 0.46425 0.06249 0.0
C1263 C 0.46665 0.48094 0.05292 0.0
C1264 C 0.49061 0.52401 0.05328 0.0
C1265 C 0.01748 0.53688 0.38285 0.0
C1266 C 0.98276 0.5245 0.37248 0.0
C1267 C 0.03776 0.51477 0.38319 0.0
C1268 C 0.0242 0.47937 0.37318 0.0
H1269 H 0.02913 0.56396 0.39076 0.0
H1270 H 0.06448 0.52564 0.39131 0.0
S1271 S 0.93357 0.43259 0.34461 0.0
N1272 N 0.9348 0.47347 0.35247 0.0
N1273 N 0.97329 0.43228 0.35299 0.0
C1274 C 0.98963 0.46664 0.36272 0.0
C1275 C 0.96884 0.48908 0.36241 0.0
C1276 C 0.52599 0.98798 0.71665 0.0
C1277 C 0.54882 0.01896 0.70455 0.0
C1278 C 0.48362 0.96817 0.71674 0.0
C1279 C 0.46228 0.97837 0.7047 0.0
H1280 H 0.54102 0.97902 0.72618 0.0
H1281 H 0.46738 0.94447 0.72628 0.0
S1282 S 0.50738 0.0583 0.6708 0.0
N1283 N 0.54667 0.0597 0.68054 0.0
N1284 N 0.46698 0.02186 0.68056 0.0
C1285 C 0.48456 0.00897 0.69243 0.0
C1286 C 0.52779 0.02938 0.69239 0.0
C1287 C 0.52695 0.51266 0.61594 0.0
C1288 C 0.54896 0.52312 0.63169 0.0
C1289 C 0.4845 0.49141 0.61599 0.0
C1290 C 0.4627 0.48055 0.6318 0.0
H1291 H 0.54269 0.52044 0.6035 0.0
H1292 H 0.46859 0.48398 0.60359 0.0
S1293 S 0.50613 0.50126 0.67652 0.0
N1294 N 0.54596 0.52091 0.66346 0.0
N1295 N 0.46613 0.48194 0.66356 0.0
C1296 C 0.48435 0.49113 0.64762 0.0
C1297 C 0.52752 0.51212 0.64756 0.0
C1298 C 0.99526 0.52045 0.97518 0.0
C1299 C 0.02302 0.54114 0.96164 0.0
C1300 C 0.9734 0.47803 0.97575 0.0
C1301 C 0.97879 0.45462 0.96293 0.0
H1302 H 0.98978 0.53718 0.98522 0.0
H1303 H 0.95191 0.4634 0.98627 0.0
S1304 S 0.04923 0.49413 0.92517 0.0
N1305 N 0.05604 0.53498 0.93555 0.0
N1306 N 0.01443 0.45544 0.93642 0.0
C1307 C 0.00708 0.47496 0.94953 0.0
C1308 C 0.02923 0.51811 0.94892 0.0
C1309 C 0.51278 0.99019 0.28223 0.0
C1310 C 0.52437 0.97963 0.29796 0.0
C1311 C 0.49071 0.01054 0.28227 0.0
C1312 C 0.47971 0.02152 0.29806 0.0
H1313 H 0.52031 0.98211 0.26976 0.0
H1314 H 0.48274 0.01832 0.26984 0.0
S1315 S 0.50285 1.00114 0.34282 0.0
N1316 N 0.52339 0.98191 0.32975 0.0
N1317 N 0.48183 0.02004 0.32984 0.0
C1318 C 0.49119 0.01125 0.31388 0.0
C1319 C 0.51344 0.99028 0.31383 0.0
loop_
_geom_bond_atom_site_label_1
_geom_bond_atom_site_label_2
_geom_bond_distance
_geom_bond_site_symmetry_2
_ccdc_geom_bond_type
Li0 N17 1.990 . S
Li0 O60 1.956 . S
Li0 O61 1.970 . S
Li0 O62 1.961 . S
Li1 N25 1.990 . S
Li1 O60 1.970 . S
Li1 O61 1.956 . S
Li1 O63 1.961 . S
Li2 N47 1.990 . S
Li2 O60 1.961 . S
Li2 O62 1.956 . S
Li2 O63 1.970 . S
Li3 N53 1.990 . S
Li3 O61 1.961 . S
Li3 O62 1.970 . S
Li3 O63 1.956 . S
C4 C6 1.348 . S
C4 C7 1.356 . S
C4 O60 1.325 . S
N5 C8 1.314 . S
N5 C9 1.279 . S
C6 C4 1.348 . S
C6 C8 1.353 . S
C6 H64 0.929 . S
C7 C4 1.356 . S
C7 C9 1.358 . S
C7 H65 0.930 . S
C8 N5 1.314 . S
C8 C6 1.353 . S
C8 H66 0.930 . S
C9 N5 1.279 . S
C9 C7 1.358 . S
C9 H67 0.930 . S
C10 C13 1.348 . S
C10 C14 1.356 . S
C10 O61 1.325 . S
C11 N12 1.279 . S
C11 C14 1.358 . S
C11 H68 0.930 . S
N12 C11 1.279 . S
N12 C15 1.314 . S
C13 C10 1.348 . S
C13 C15 1.353 . S
C13 H69 0.929 . S
C14 C10 1.356 . S
C14 C11 1.358 . S
C14 H70 0.930 . S
C15 N12 1.314 . S
C15 C13 1.353 . S
C15 H71 0.930 . S
C16 N17 1.314 . S
C16 C21 1.353 . S
C16 H22 0.930 . S
N17 Li0 1.990 . S
N17 C16 1.314 . S
N17 C19 1.279 . S
C18 C19 1.358 . S
C18 C20 1.356 . S
C18 H72 0.930 . S
C19 N17 1.279 . S
C19 C18 1.358 . S
C19 H23 0.930 . S
C20 C18 1.356 . S
C20 C21 1.348 . S
C21 C16 1.353 . S
C21 C20 1.348 . S
C21 H73 0.929 . S
H22 C16 0.930 . S
H23 C19 0.930 . S
C24 N25 1.314 . S
C24 C26 1.321 1_554 S
C24 H30 0.930 . S
N25 Li1 1.990 . S
N25 C24 1.314 . S
N25 C28 1.279 . S
C26 C24 1.321 1_556 S
C26 C29 1.325 1_556 S
C26 H74 0.987 . S
C27 C28 1.358 . S
C27 C29 1.356 . S
C27 H75 0.930 . S
C28 N25 1.279 . S
C28 C27 1.358 . S
C28 H31 0.930 . S
C29 C26 1.325 1_554 S
C29 C27 1.356 . S
H30 C24 0.930 . S
H31 C28 0.930 . S
C32 C34 1.348 . S
C32 C35 1.356 . S
C32 O62 1.325 . S
N33 C36 1.314 . S
N33 C37 1.279 . S
C34 C32 1.348 . S
C34 C36 1.353 . S
C34 H76 0.929 . S
C35 C32 1.356 . S
C35 C37 1.358 . S
C35 H77 0.930 . S
C36 N33 1.314 . S
C36 C34 1.353 . S
C36 H78 0.930 . S
C37 N33 1.279 . S
C37 C35 1.358 . S
C37 H79 0.930 . S
C38 C39 1.348 1_554 S
C38 C40 1.356 1_554 S
C38 O63 1.325 . S
C39 C38 1.348 1_556 S
C39 C41 1.353 . S
C39 H80 0.914 1_556 S
C40 C38 1.356 1_556 S
C40 C42 1.358 . S
C40 H81 0.937 . S
C41 C39 1.353 . S
C41 N43 1.314 . S
C41 H82 0.930 . S
C42 C40 1.358 . S
C42 N43 1.279 . S
C42 H83 0.930 . S
N43 C41 1.314 . S
N43 C42 1.279 . S
C44 C46 1.353 . S
C44 N47 1.314 . S
C44 H50 0.930 . S
C45 N47 1.279 . S
C45 C48 1.358 . S
C45 H51 0.930 . S
C46 C44 1.353 . S
C46 C49 1.348 . S
C46 H84 0.929 . S
N47 Li2 1.990 . S
N47 C44 1.314 . S
N47 C45 1.279 . S
C48 C45 1.358 . S
C48 C49 1.356 . S
C48 H85 0.930 . S
C49 C46 1.348 . S
C49 C48 1.356 . S
H50 C44 0.930 . S
H51 C45 0.930 . S
C52 N53 1.314 . S
C52 C54 1.353 . S
C52 H58 0.930 . S
N53 Li3 1.990 . S
N53 C52 1.314 . S
N53 C56 1.279 . S
C54 C52 1.353 . S
C54 C57 1.348 . S
C54 H86 0.929 . S
C55 C56 1.358 . S
C55 C57 1.356 . S
C55 H87 0.930 . S
C56 N53 1.279 . S
C56 C55 1.358 . S
C56 H59 0.930 . S
C57 C54 1.348 . S
C57 C55 1.356 . S
H58 C52 0.930 . S
H59 C56 0.930 . S
O60 Li0 1.956 . S
O60 Li1 1.970 . S
O60 Li2 1.961 . S
O60 C4 1.325 . S
O61 Li0 1.970 . S
O61 Li1 1.956 . S
O61 Li3 1.961 . S
O61 C10 1.325 . S
O62 Li0 1.961 . S
O62 Li2 1.956 . S
O62 Li3 1.970 . S
O62 C32 1.325 . S
O63 Li1 1.961 . S
O63 Li2 1.970 . S
O63 Li3 1.956 . S
O63 C38 1.325 . S
H64 C6 0.929 . S
H65 C7 0.930 . S
H66 C8 0.930 . S
H67 C9 0.930 . S
H68 C11 0.930 . S
H69 C13 0.929 . S
H70 C14 0.930 . S
H71 C15 0.930 . S
H72 C18 0.930 . S
H73 C21 0.929 . S
H74 C26 0.987 . S
H75 C27 0.930 . S
H76 C34 0.929 . S
H77 C35 0.930 . S
H78 C36 0.930 . S
H79 C37 0.930 . S
H80 C39 0.914 1_554 S
H81 C40 0.937 . S
H82 C41 0.930 . S
H83 C42 0.930 . S
H84 C46 0.929 . S
H85 C48 0.930 . S
H86 C54 0.929 . S
H87 C55 0.930 . S
Li88 N105 1.990 . S
Li88 O148 1.956 . S
Li88 O149 1.970 . S
Li88 O150 1.961 . S
Li89 N113 1.990 . S
Li89 O148 1.970 . S
Li89 O149 1.956 . S
Li89 O151 1.961 . S
Li90 N135 1.990 . S
Li90 O148 1.961 . S
Li90 O150 1.956 . S
Li90 O151 1.970 . S
Li91 N141 1.990 . S
Li91 O149 1.961 . S
Li91 O150 1.970 . S
Li91 O151 1.956 . S
C92 C94 1.348 . S
C92 C95 1.356 . S
C92 O148 1.325 . S
N93 C96 1.314 . S
N93 C97 1.279 . S
C94 C92 1.348 . S
C94 C96 1.353 . S
C94 H152 0.929 . S
C95 C92 1.356 . S
C95 C97 1.358 . S
C95 H153 0.930 . S
C96 N93 1.314 . S
C96 C94 1.353 . S
C96 H154 0.930 . S
C97 N93 1.279 . S
C97 C95 1.358 . S
C97 H155 0.930 . S
C98 C101 1.348 . S
C98 C102 1.356 . S
C98 O149 1.325 . S
C99 N100 1.279 . S
C99 C102 1.358 . S
C99 H156 0.930 . S
N100 C99 1.279 . S
N100 C103 1.314 . S
C101 C98 1.348 . S
C101 C103 1.353 . S
C101 H157 0.929 . S
C102 C98 1.356 . S
C102 C99 1.358 . S
C102 H158 0.930 . S
C103 N100 1.314 . S
C103 C101 1.353 . S
C103 H159 0.930 . S
C104 N105 1.314 . S
C104 C109 1.353 . S
C104 H110 0.930 . S
N105 Li88 1.990 . S
N105 C104 1.314 . S
N105 C107 1.279 . S
C106 C107 1.358 . S
C106 C108 1.346 1_455 S
C106 H160 0.930 . S
C107 N105 1.279 . S
C107 C106 1.358 . S
C107 H111 0.930 . S
C108 C106 1.346 1_655 S
C108 C109 1.342 1_655 S
C109 C104 1.353 . S
C109 C108 1.342 1_455 S
C109 H161 0.929 1_455 S
H110 C104 0.930 . S
H111 C107 0.930 . S
C112 N113 1.314 . S
C112 C114 1.353 . S
C112 H118 0.930 . S
N113 Li89 1.990 . S
N113 C112 1.314 . S
N113 C116 1.279 . S
C114 C112 1.353 . S
C114 C117 1.348 . S
C114 H162 0.929 . S
C115 C116 1.358 . S
C115 C117 1.356 . S
C115 H163 0.930 . S
C116 N113 1.279 . S
C116 C115 1.358 . S
C116 H119 0.930 . S
C117 C114 1.348 . S
C117 C115 1.356 . S
H118 C112 0.930 . S
H119 C116 0.930 . S
C120 C122 1.348 . S
C120 C123 1.356 . S
C120 O150 1.325 . S
N121 C124 1.314 . S
N121 C125 1.279 . S
C122 C120 1.348 . S
C122 C124 1.353 . S
C122 H164 0.929 . S
C123 C120 1.356 . S
C123 C125 1.358 . S
C123 H165 0.930 . S
C124 N121 1.314 . S
C124 C122 1.353 . S
C124 H166 0.930 . S
C125 N121 1.279 . S
C125 C123 1.358 . S
C125 H167 0.930 . S
C126 C127 1.348 . S
C126 C128 1.356 . S
C126 O151 1.325 . S
C127 C126 1.348 . S
C127 C129 1.353 . S
C127 H168 0.929 . S
C128 C126 1.356 . S
C128 C130 1.358 . S
C128 H169 0.930 . S
C129 C127 1.353 . S
C129 N131 1.314 . S
C129 H170 0.930 . S
C130 C128 1.358 . S
C130 N131 1.279 . S
C130 H171 0.930 . S
N131 C129 1.314 . S
N131 C130 1.279 . S
C132 C134 1.353 . S
C132 N135 1.314 . S
C132 H138 0.930 . S
C133 N135 1.279 . S
C133 C136 1.358 . S
C133 H139 0.930 . S
C134 C132 1.353 . S
C134 C137 1.348 . S
C134 H172 0.929 . S
N135 Li90 1.990 . S
N135 C132 1.314 . S
N135 C133 1.279 . S
C136 C133 1.358 . S
C136 C137 1.356 . S
C136 H173 0.930 . S
C137 C134 1.348 . S
C137 C136 1.356 . S
H138 C132 0.930 . S
H139 C133 0.930 . S
C140 N141 1.314 . S
C140 C142 1.353 . S
C140 H146 0.930 . S
N141 Li91 1.990 . S
N141 C140 1.314 . S
N141 C144 1.279 . S
C142 C140 1.353 . S
C142 C145 1.348 . S
C142 H174 0.929 . S
C143 C144 1.358 . S
C143 C145 1.356 . S
C143 H175 0.930 . S
C144 N141 1.279 . S
C144 C143 1.358 . S
C144 H147 0.930 . S
C145 C142 1.348 . S
C145 C143 1.356 . S
H146 C140 0.930 . S
H147 C144 0.930 . S
O148 Li88 1.956 . S
O148 Li89 1.970 . S
O148 Li90 1.961 . S
O148 C92 1.325 . S
O149 Li88 1.970 . S
O149 Li89 1.956 . S
O149 Li91 1.961 . S
O149 C98 1.325 . S
O150 Li88 1.961 . S
O150 Li90 1.956 . S
O150 Li91 1.970 . S
O150 C120 1.325 . S
O151 Li89 1.961 . S
O151 Li90 1.970 . S
O151 Li91 1.956 . S
O151 C126 1.325 . S
H152 C94 0.929 . S
H153 C95 0.930 . S
H154 C96 0.930 . S
H155 C97 0.930 . S
H156 C99 0.930 . S
H157 C101 0.929 . S
H158 C102 0.930 . S
H159 C103 0.930 . S
H160 C106 0.930 . S
H161 C109 0.929 1_655 S
H162 C114 0.929 . S
H163 C115 0.930 . S
H164 C122 0.929 . S
H165 C123 0.930 . S
H166 C124 0.930 . S
H167 C125 0.930 . S
H168 C127 0.929 . S
H169 C128 0.930 . S
H170 C129 0.930 . S
H171 C130 0.930 . S
H172 C134 0.929 . S
H173 C136 0.930 . S
H174 C142 0.929 . S
H175 C143 0.930 . S
Li176 N193 1.990 . S
Li176 O236 1.956 . S
Li176 O237 1.970 . S
Li176 O238 1.961 . S
Li177 N201 1.990 . S
Li177 O236 1.970 . S
Li177 O237 1.956 . S
Li177 O239 1.961 . S
Li178 N223 1.990 . S
Li178 O236 1.961 . S
Li178 O238 1.956 . S
Li178 O239 1.970 . S
Li179 N229 1.990 . S
Li179 O237 1.961 . S
Li179 O238 1.970 . S
Li179 O239 1.956 . S
C180 C182 1.348 . S
C180 C183 1.356 . S
C180 O236 1.325 . S
N181 C184 1.314 . S
N181 C185 1.279 . S
C182 C180 1.348 . S
C182 C184 1.353 . S
C182 H240 0.929 . S
C183 C180 1.356 . S
C183 C185 1.358 . S
C183 H241 0.930 . S
C184 N181 1.314 . S
C184 C182 1.353 . S
C184 H242 0.930 . S
C185 N181 1.279 . S
C185 C183 1.358 . S
C185 H243 0.930 . S
C186 C189 1.348 . S
C186 C190 1.356 . S
C186 O237 1.325 . S
C187 N188 1.279 . S
C187 C190 1.358 . S
C187 H244 0.930 . S
N188 C187 1.279 . S
N188 C191 1.314 . S
C189 C186 1.348 . S
C189 C191 1.353 . S
C189 H245 0.929 . S
C190 C186 1.356 . S
C190 C187 1.358 . S
C190 H246 0.930 . S
C191 N188 1.314 . S
C191 C189 1.353 . S
C191 H247 0.930 . S
C192 N193 1.314 . S
C192 C197 1.353 . S
C192 H198 0.930 . S
N193 Li176 1.990 . S
N193 C192 1.314 . S
N193 C195 1.279 . S
C194 C195 1.358 . S
C194 C196 1.356 . S
C194 H248 0.930 . S
C195 N193 1.279 . S
C195 C194 1.358 . S
C195 H199 0.930 . S
C196 C194 1.356 . S
C196 C197 1.348 . S
C197 C192 1.353 . S
C197 C196 1.348 . S
C197 H249 0.929 . S
H198 C192 0.930 . S
H199 C195 0.930 . S
C200 N201 1.314 . S
C200 C202 1.353 . S
C200 H206 0.930 . S
N201 Li177 1.990 . S
N201 C200 1.314 . S
N201 C204 1.279 . S
C202 C200 1.353 . S
C202 C205 1.349 1_545 S
C202 H250 0.929 1_545 S
C203 C204 1.358 . S
C203 C205 1.348 1_545 S
C203 H251 0.930 . S
C204 N201 1.279 . S
C204 C203 1.358 . S
C204 H207 0.930 . S
C205 C202 1.349 1_565 S
C205 C203 1.348 1_565 S
H206 C200 0.930 . S
H207 C204 0.930 . S
C208 C210 1.348 . S
C208 C211 1.356 . S
C208 O238 1.325 . S
N209 C212 1.314 . S
N209 C213 1.279 . S
C210 C208 1.348 . S
C210 C212 1.353 . S
C210 H252 0.929 . S
C211 C208 1.356 . S
C211 C213 1.358 . S
C211 H253 0.930 . S
C212 N209 1.314 . S
C212 C210 1.353 . S
C212 H254 0.930 . S
C213 N209 1.279 . S
C213 C211 1.358 . S
C213 H255 0.930 . S
C214 C215 1.348 . S
C214 C216 1.356 . S
C214 O239 1.325 . S
C215 C214 1.348 . S
C215 C217 1.353 . S
C215 H256 0.929 . S
C216 C214 1.356 . S
C216 C218 1.358 . S
C216 H257 0.930 . S
C217 C215 1.353 . S
C217 N219 1.314 . S
C217 H258 0.930 . S
C218 C216 1.358 . S
C218 N219 1.279 . S
C218 H259 0.930 . S
N219 C217 1.314 . S
N219 C218 1.279 . S
C220 C222 1.353 . S
C220 N223 1.314 . S
C220 H226 0.930 . S
C221 N223 1.279 . S
C221 C224 1.358 . S
C221 H227 0.930 . S
C222 C220 1.353 . S
C222 C225 1.348 . S
C222 H260 0.929 . S
N223 Li178 1.990 . S
N223 C220 1.314 . S
N223 C221 1.279 . S
C224 C221 1.358 . S
C224 C225 1.356 . S
C224 H261 0.930 . S
C225 C222 1.348 . S
C225 C224 1.356 . S
H226 C220 0.930 . S
H227 C221 0.930 . S
C228 N229 1.314 . S
C228 C230 1.353 . S
C228 H234 0.930 . S
N229 Li179 1.990 . S
N229 C228 1.314 . S
N229 C232 1.279 . S
C230 C228 1.353 . S
C230 C233 1.348 . S
C230 H262 0.929 . S
C231 C232 1.358 . S
C231 C233 1.356 . S
C231 H263 0.930 . S
C232 N229 1.279 . S
C232 C231 1.358 . S
C232 H235 0.930 . S
C233 C230 1.348 . S
C233 C231 1.356 . S
H234 C228 0.930 . S
H235 C232 0.930 . S
O236 Li176 1.956 . S
O236 Li177 1.970 . S
O236 Li178 1.961 . S
O236 C180 1.325 . S
O237 Li176 1.970 . S
O237 Li177 1.956 . S
O237 Li179 1.961 . S
O237 C186 1.325 . S
O238 Li176 1.961 . S
O238 Li178 1.956 . S
O238 Li179 1.970 . S
O238 C208 1.325 . S
O239 Li177 1.961 . S
O239 Li178 1.970 . S
O239 Li179 1.956 . S
O239 C214 1.325 . S
H240 C182 0.929 . S
H241 C183 0.930 . S
H242 C184 0.930 . S
H243 C185 0.930 . S
H244 C187 0.930 . S
H245 C189 0.929 . S
H246 C190 0.930 . S
H247 C191 0.930 . S
H248 C194 0.930 . S
H249 C197 0.929 . S
H250 C202 0.929 1_565 S
H251 C203 0.930 . S
H252 C210 0.929 . S
H253 C211 0.930 . S
H254 C212 0.930 . S
H255 C213 0.930 . S
H256 C215 0.929 . S
H257 C216 0.930 . S
H258 C217 0.930 . S
H259 C218 0.930 . S
H260 C222 0.929 . S
H261 C224 0.930 . S
H262 C230 0.929 . S
H263 C231 0.930 . S
Li264 N281 1.990 . S
Li264 O324 1.956 . S
Li264 O325 1.970 . S
Li264 O326 1.961 . S
Li265 N289 1.990 . S
Li265 O324 1.970 . S
Li265 O325 1.956 . S
Li265 O327 1.961 . S
Li266 N311 1.990 . S
Li266 O324 1.961 . S
Li266 O326 1.956 . S
Li266 O327 1.970 . S
Li267 N317 1.990 . S
Li267 O325 1.961 . S
Li267 O326 1.970 . S
Li267 O327 1.956 . S
C268 C270 1.348 . S
C268 C271 1.356 . S
C268 O324 1.325 . S
N269 C272 1.314 . S
N269 C273 1.279 . S
C270 C268 1.348 . S
C270 C272 1.353 . S
C270 H328 0.929 . S
C271 C268 1.356 . S
C271 C273 1.358 . S
C271 H329 0.930 . S
C272 N269 1.314 . S
C272 C270 1.353 . S
C272 H330 0.930 . S
C273 N269 1.279 . S
C273 C271 1.358 . S
C273 H331 0.930 . S
C274 C277 1.348 . S
C274 C278 1.356 . S
C274 O325 1.325 . S
C275 N276 1.279 . S
C275 C278 1.358 . S
C275 H332 0.930 . S
N276 C275 1.279 . S
N276 C279 1.314 . S
C277 C274 1.348 . S
C277 C279 1.353 . S
C277 H333 0.929 . S
C278 C274 1.356 . S
C278 C275 1.358 . S
C278 H334 0.930 . S
C279 N276 1.314 . S
C279 C277 1.353 . S
C279 H335 0.930 . S
C280 N281 1.314 . S
C280 C285 1.321 1_554 S
C280 H286 0.930 . S
N281 Li264 1.990 . S
N281 C280 1.314 . S
N281 C283 1.279 . S
C282 C283 1.358 . S
C282 C284 1.356 . S
C282 H336 0.930 . S
C283 N281 1.279 . S
C283 C282 1.358 . S
C283 H287 0.930 . S
C284 C282 1.356 . S
C284 C285 1.325 1_554 S
C285 C280 1.321 1_556 S
C285 C284 1.325 1_556 S
C285 H337 0.988 . S
H286 C280 0.930 . S
H287 C283 0.930 . S
C288 N289 1.314 . S
C288 C290 1.353 . S
C288 H294 0.930 . S
N289 Li265 1.990 . S
N289 C288 1.314 . S
N289 C292 1.279 . S
C290 C288 1.353 . S
C290 C293 1.348 . S
C290 H338 0.929 . S
C291 C292 1.358 . S
C291 C293 1.356 . S
C291 H339 0.930 . S
C292 N289 1.279 . S
C292 C291 1.358 . S
C292 H295 0.930 . S
C293 C290 1.348 . S
C293 C291 1.356 . S
H294 C288 0.930 . S
H295 C292 0.930 . S
C296 C298 1.348 1_554 S
C296 C299 1.356 1_554 S
C296 O326 1.325 . S
N297 C300 1.314 . S
N297 C301 1.279 . S
C298 C296 1.348 1_556 S
C298 C300 1.353 . S
C298 H340 0.914 1_556 S
C299 C296 1.356 1_556 S
C299 C301 1.358 . S
C299 H341 0.937 . S
C300 N297 1.314 . S
C300 C298 1.353 . S
C300 H342 0.930 . S
C301 N297 1.279 . S
C301 C299 1.358 . S
C301 H343 0.930 . S
C302 C303 1.348 . S
C302 C304 1.356 . S
C302 O327 1.325 . S
C303 C302 1.348 . S
C303 C305 1.353 . S
C303 H344 0.929 . S
C304 C302 1.356 . S
C304 C306 1.358 . S
C304 H345 0.930 . S
C305 C303 1.353 . S
C305 N307 1.314 . S
C305 H346 0.930 . S
C306 C304 1.358 . S
C306 N307 1.279 . S
C306 H347 0.930 . S
N307 C305 1.314 . S
N307 C306 1.279 . S
C308 C310 1.353 . S
C308 N311 1.314 . S
C308 H314 0.930 . S
C309 N311 1.279 . S
C309 C312 1.358 . S
C309 H315 0.930 . S
C310 C308 1.353 . S
C310 C313 1.348 . S
C310 H348 0.929 . S
N311 Li266 1.990 . S
N311 C308 1.314 . S
N311 C309 1.279 . S
C312 C309 1.358 . S
C312 C313 1.356 . S
C312 H349 0.930 . S
C313 C310 1.348 . S
C313 C312 1.356 . S
H314 C308 0.930 . S
H315 C309 0.930 . S
C316 N317 1.314 . S
C316 C318 1.353 . S
C316 H322 0.930 . S
N317 Li267 1.990 . S
N317 C316 1.314 . S
N317 C320 1.279 . S
C318 C316 1.353 . S
C318 C321 1.348 . S
C318 H350 0.929 . S
C319 C320 1.358 . S
C319 C321 1.356 . S
C319 H351 0.930 . S
C320 N317 1.279 . S
C320 C319 1.358 . S
C320 H323 0.930 . S
C321 C318 1.348 . S
C321 C319 1.356 . S
H322 C316 0.930 . S
H323 C320 0.930 . S
O324 Li264 1.956 . S
O324 Li265 1.970 . S
O324 Li266 1.961 . S
O324 C268 1.325 . S
O325 Li264 1.970 . S
O325 Li265 1.956 . S
O325 Li267 1.961 . S
O325 C274 1.325 . S
O326 Li264 1.961 . S
O326 Li266 1.956 . S
O326 Li267 1.970 . S
O326 C296 1.325 . S
O327 Li265 1.961 . S
O327 Li266 1.970 . S
O327 Li267 1.956 . S
O327 C302 1.325 . S
H328 C270 0.929 . S
H329 C271 0.930 . S
H330 C272 0.930 . S
H331 C273 0.930 . S
H332 C275 0.930 . S
H333 C277 0.929 . S
H334 C278 0.930 . S
H335 C279 0.930 . S
H336 C282 0.930 . S
H337 C285 0.988 . S
H338 C290 0.929 . S
H339 C291 0.930 . S
H340 C298 0.914 1_554 S
H341 C299 0.937 . S
H342 C300 0.930 . S
H343 C301 0.930 . S
H344 C303 0.929 . S
H345 C304 0.930 . S
H346 C305 0.930 . S
H347 C306 0.930 . S
H348 C310 0.929 . S
H349 C312 0.930 . S
H350 C318 0.929 . S
H351 C319 0.930 . S
Li352 N369 1.990 . S
Li352 O412 1.956 . S
Li352 O413 1.970 . S
Li352 O414 1.961 . S
Li353 N377 1.990 . S
Li353 O412 1.970 . S
Li353 O413 1.956 . S
Li353 O415 1.961 . S
Li354 N399 1.990 . S
Li354 O412 1.961 . S
Li354 O414 1.956 . S
Li354 O415 1.970 . S
Li355 N405 1.990 . S
Li355 O413 1.961 . S
Li355 O414 1.970 . S
Li355 O415 1.956 . S
C356 C358 1.348 . S
C356 C359 1.356 . S
C356 O412 1.325 . S
N357 C360 1.314 . S
N357 C361 1.279 . S
C358 C356 1.348 . S
C358 C360 1.353 . S
C358 H416 0.929 . S
C359 C356 1.356 . S
C359 C361 1.358 . S
C359 H417 0.930 . S
C360 N357 1.314 . S
C360 C358 1.353 . S
C360 H418 0.930 . S
C361 N357 1.279 . S
C361 C359 1.358 . S
C361 H419 0.930 . S
C362 C365 1.348 . S
C362 C366 1.356 . S
C362 O413 1.325 . S
C363 N364 1.279 . S
C363 C366 1.358 . S
C363 H420 0.930 . S
N364 C363 1.279 . S
N364 C367 1.314 . S
C365 C362 1.348 . S
C365 C367 1.353 . S
C365 H421 0.929 . S
C366 C362 1.356 . S
C366 C363 1.358 . S
C366 H422 0.930 . S
C367 N364 1.314 . S
C367 C365 1.353 . S
C367 H423 0.930 . S
C368 N369 1.314 . S
C368 C373 1.353 . S
C368 H374 0.930 . S
N369 Li352 1.990 . S
N369 C368 1.314 . S
N369 C371 1.279 . S
C370 C371 1.358 . S
C370 C372 1.356 . S
C370 H424 0.930 . S
C371 N369 1.279 . S
C371 C370 1.358 . S
C371 H375 0.930 . S
C372 C370 1.356 . S
C372 C373 1.348 . S
C373 C368 1.353 . S
C373 C372 1.348 . S
C373 H425 0.929 . S
H374 C368 0.930 . S
H375 C371 0.930 . S
C376 N377 1.314 . S
C376 C378 1.353 . S
C376 H382 0.930 . S
N377 Li353 1.990 . S
N377 C376 1.314 . S
N377 C380 1.279 . S
C378 C376 1.353 . S
C378 C381 1.348 . S
C378 H426 0.929 . S
C379 C380 1.358 . S
C379 C381 1.356 . S
C379 H427 0.930 . S
C380 N377 1.279 . S
C380 C379 1.358 . S
C380 H383 0.930 . S
C381 C378 1.348 . S
C381 C379 1.356 . S
H382 C376 0.930 . S
H383 C380 0.930 . S
C384 C386 1.348 . S
C384 C387 1.356 . S
C384 O414 1.325 . S
N385 C388 1.314 . S
N385 C389 1.279 . S
C386 C384 1.348 . S
C386 C388 1.353 . S
C386 H428 0.929 . S
C387 C384 1.356 . S
C387 C389 1.358 . S
C387 H429 0.930 . S
C388 N385 1.314 . S
C388 C386 1.353 . S
C388 H430 0.930 . S
C389 N385 1.279 . S
C389 C387 1.358 . S
C389 H431 0.930 . S
C390 C391 1.348 . S
C390 C392 1.356 . S
C390 O415 1.325 . S
C391 C390 1.348 . S
C391 C393 1.353 . S
C391 H432 0.929 . S
C392 C390 1.356 . S
C392 C394 1.358 . S
C392 H433 0.930 . S
C393 C391 1.353 . S
C393 N395 1.314 . S
C393 H434 0.930 . S
C394 C392 1.358 . S
C394 N395 1.279 . S
C394 H435 0.930 . S
N395 C393 1.314 . S
N395 C394 1.279 . S
C396 C398 1.353 . S
C396 N399 1.314 . S
C396 H402 0.930 . S
C397 N399 1.279 . S
C397 C400 1.358 . S
C397 H403 0.930 . S
C398 C396 1.353 . S
C398 C401 1.342 1_655 S
C398 H436 0.929 1_655 S
N399 Li354 1.990 . S
N399 C396 1.314 . S
N399 C397 1.279 . S
C400 C397 1.358 . S
C400 C401 1.346 1_655 S
C400 H437 0.930 . S
C401 C398 1.342 1_455 S
C401 C400 1.346 1_455 S
H402 C396 0.930 . S
H403 C397 0.930 . S
C404 N405 1.314 . S
C404 C406 1.353 . S
C404 H410 0.930 . S
N405 Li355 1.990 . S
N405 C404 1.314 . S
N405 C408 1.279 . S
C406 C404 1.353 . S
C406 C409 1.348 . S
C406 H438 0.929 . S
C407 C408 1.358 . S
C407 C409 1.356 . S
C407 H439 0.930 . S
C408 N405 1.279 . S
C408 C407 1.358 . S
C408 H411 0.930 . S
C409 C406 1.348 . S
C409 C407 1.356 . S
H410 C404 0.930 . S
H411 C408 0.930 . S
O412 Li352 1.956 . S
O412 Li353 1.970 . S
O412 Li354 1.961 . S
O412 C356 1.325 . S
O413 Li352 1.970 . S
O413 Li353 1.956 . S
O413 Li355 1.961 . S
O413 C362 1.325 . S
O414 Li352 1.961 . S
O414 Li354 1.956 . S
O414 Li355 1.970 . S
O414 C384 1.325 . S
O415 Li353 1.961 . S
O415 Li354 1.970 . S
O415 Li355 1.956 . S
O415 C390 1.325 . S
H416 C358 0.929 . S
H417 C359 0.930 . S
H418 C360 0.930 . S
H419 C361 0.930 . S
H420 C363 0.930 . S
H421 C365 0.929 . S
H422 C366 0.930 . S
H423 C367 0.930 . S
H424 C370 0.930 . S
H425 C373 0.929 . S
H426 C378 0.929 . S
H427 C379 0.930 . S
H428 C386 0.929 . S
H429 C387 0.930 . S
H430 C388 0.930 . S
H431 C389 0.930 . S
H432 C391 0.929 . S
H433 C392 0.930 . S
H434 C393 0.930 . S
H435 C394 0.930 . S
H436 C398 0.929 1_455 S
H437 C400 0.930 . S
H438 C406 0.929 . S
H439 C407 0.930 . S
Li440 N457 1.990 . S
Li440 O500 1.956 . S
Li440 O501 1.970 . S
Li440 O502 1.961 . S
Li441 N465 1.990 . S
Li441 O500 1.970 . S
Li441 O501 1.956 . S
Li441 O503 1.961 . S
Li442 N487 1.990 . S
Li442 O500 1.961 . S
Li442 O502 1.956 . S
Li442 O503 1.970 . S
Li443 N493 1.990 . S
Li443 O501 1.961 . S
Li443 O502 1.970 . S
Li443 O503 1.956 . S
C444 C446 1.348 . S
C444 C447 1.356 . S
C444 O500 1.325 . S
N445 C448 1.314 . S
N445 C449 1.279 . S
C446 C444 1.348 . S
C446 C448 1.353 . S
C446 H504 0.929 . S
C447 C444 1.356 . S
C447 C449 1.358 . S
C447 H505 0.930 . S
C448 N445 1.314 . S
C448 C446 1.353 . S
C448 H506 0.930 . S
C449 N445 1.279 . S
C449 C447 1.358 . S
C449 H507 0.930 . S
C450 C453 1.348 . S
C450 C454 1.356 . S
C450 O501 1.325 . S
C451 N452 1.279 . S
C451 C454 1.358 . S
C451 H508 0.930 . S
N452 C451 1.279 . S
N452 C455 1.314 . S
C453 C450 1.348 . S
C453 C455 1.353 . S
C453 H509 0.929 . S
C454 C450 1.356 . S
C454 C451 1.358 . S
C454 H510 0.930 . S
C455 N452 1.314 . S
C455 C453 1.353 . S
C455 H511 0.930 . S
C456 N457 1.314 . S
C456 C461 1.353 . S
C456 H462 0.930 . S
N457 Li440 1.990 . S
N457 C456 1.314 . S
N457 C459 1.279 . S
C458 C459 1.358 . S
C458 C460 1.356 . S
C458 H512 0.930 . S
C459 N457 1.279 . S
C459 C458 1.358 . S
C459 H463 0.930 . S
C460 C458 1.356 . S
C460 C461 1.348 . S
C461 C456 1.353 . S
C461 C460 1.348 . S
C461 H513 0.929 . S
H462 C456 0.930 . S
H463 C459 0.930 . S
C464 N465 1.314 . S
C464 C466 1.353 . S
C464 H470 0.930 . S
N465 Li441 1.990 . S
N465 C464 1.314 . S
N465 C468 1.279 . S
C466 C464 1.353 . S
C466 C469 1.348 . S
C466 H514 0.929 . S
C467 C468 1.358 . S
C467 C469 1.356 . S
C467 H515 0.930 . S
C468 N465 1.279 . S
C468 C467 1.358 . S
C468 H471 0.930 . S
C469 C466 1.348 . S
C469 C467 1.356 . S
H470 C464 0.930 . S
H471 C468 0.930 . S
C472 C474 1.348 . S
C472 C475 1.356 . S
C472 O502 1.325 . S
N473 C476 1.314 . S
N473 C477 1.279 . S
C474 C472 1.348 . S
C474 C476 1.353 . S
C474 H516 0.929 . S
C475 C472 1.356 . S
C475 C477 1.358 . S
C475 H517 0.930 . S
C476 N473 1.314 . S
C476 C474 1.353 . S
C476 H518 0.930 . S
C477 N473 1.279 . S
C477 C475 1.358 . S
C477 H519 0.930 . S
C478 C479 1.348 . S
C478 C480 1.356 . S
C478 O503 1.325 . S
C479 C478 1.348 . S
C479 C481 1.353 . S
C479 H520 0.929 . S
C480 C478 1.356 . S
C480 C482 1.358 . S
C480 H521 0.930 . S
C481 C479 1.353 . S
C481 N483 1.314 . S
C481 H522 0.930 . S
C482 C480 1.358 . S
C482 N483 1.279 . S
C482 H523 0.930 . S
N483 C481 1.314 . S
N483 C482 1.279 . S
C484 C486 1.353 . S
C484 N487 1.314 . S
C484 H490 0.930 . S
C485 N487 1.279 . S
C485 C488 1.358 . S
C485 H491 0.930 . S
C486 C484 1.353 . S
C486 C489 1.349 1_565 S
C486 H524 0.929 1_565 S
N487 Li442 1.990 . S
N487 C484 1.314 . S
N487 C485 1.279 . S
C488 C485 1.358 . S
C488 C489 1.348 1_565 S
C488 H525 0.930 . S
C489 C486 1.349 1_545 S
C489 C488 1.348 1_545 S
H490 C484 0.930 . S
H491 C485 0.930 . S
C492 N493 1.314 . S
C492 C494 1.353 . S
C492 H498 0.930 . S
N493 Li443 1.990 . S
N493 C492 1.314 . S
N493 C496 1.279 . S
C494 C492 1.353 . S
C494 C497 1.348 . S
C494 H526 0.929 . S
C495 C496 1.358 . S
C495 C497 1.356 . S
C495 H527 0.930 . S
C496 N493 1.279 . S
C496 C495 1.358 . S
C496 H499 0.930 . S
C497 C494 1.348 . S
C497 C495 1.356 . S
H498 C492 0.930 . S
H499 C496 0.930 . S
O500 Li440 1.956 . S
O500 Li441 1.970 . S
O500 Li442 1.961 . S
O500 C444 1.325 . S
O501 Li440 1.970 . S
O501 Li441 1.956 . S
O501 Li443 1.961 . S
O501 C450 1.325 . S
O502 Li440 1.961 . S
O502 Li442 1.956 . S
O502 Li443 1.970 . S
O502 C472 1.325 . S
O503 Li441 1.961 . S
O503 Li442 1.970 . S
O503 Li443 1.956 . S
O503 C478 1.325 . S
H504 C446 0.929 . S
H505 C447 0.930 . S
H506 C448 0.930 . S
H507 C449 0.930 . S
H508 C451 0.930 . S
H509 C453 0.929 . S
H510 C454 0.930 . S
H511 C455 0.930 . S
H512 C458 0.930 . S
H513 C461 0.929 . S
H514 C466 0.929 . S
H515 C467 0.930 . S
H516 C474 0.929 . S
H517 C475 0.930 . S
H518 C476 0.930 . S
H519 C477 0.930 . S
H520 C479 0.929 . S
H521 C480 0.930 . S
H522 C481 0.930 . S
H523 C482 0.930 . S
H524 C486 0.929 1_545 S
H525 C488 0.930 . S
H526 C494 0.929 . S
H527 C495 0.930 . S
Li528 N545 1.990 . S
Li528 O588 1.956 . S
Li528 O589 1.970 . S
Li528 O590 1.961 . S
Li529 N553 1.990 . S
Li529 O588 1.970 . S
Li529 O589 1.956 . S
Li529 O591 1.961 . S
Li530 N575 1.990 . S
Li530 O588 1.961 . S
Li530 O590 1.956 . S
Li530 O591 1.970 . S
Li531 N581 1.990 . S
Li531 O589 1.961 . S
Li531 O590 1.970 . S
Li531 O591 1.956 . S
C532 C534 1.348 . S
C532 C535 1.356 . S
C532 O588 1.325 . S
N533 C536 1.314 . S
N533 C537 1.279 . S
C534 C532 1.348 . S
C534 C536 1.353 . S
C534 H592 0.929 . S
C535 C532 1.356 . S
C535 C537 1.358 . S
C535 H593 0.930 . S
C536 N533 1.314 . S
C536 C534 1.353 . S
C536 H594 0.930 . S
C537 N533 1.279 . S
C537 C535 1.358 . S
C537 H595 0.930 . S
C538 C541 1.348 . S
C538 C542 1.356 . S
C538 O589 1.325 . S
C539 N540 1.279 . S
C539 C542 1.358 . S
C539 H596 0.930 . S
N540 C539 1.279 . S
N540 C543 1.314 . S
C541 C538 1.348 . S
C541 C543 1.353 . S
C541 H597 0.929 . S
C542 C538 1.356 . S
C542 C539 1.358 . S
C542 H598 0.930 . S
C543 N540 1.314 . S
C543 C541 1.353 . S
C543 H599 0.930 . S
C544 N545 1.314 . S
C544 C549 1.353 . S
C544 H550 0.930 . S
N545 Li528 1.990 . S
N545 C544 1.314 . S
N545 C547 1.279 . S
C546 C547 1.358 . S
C546 C548 1.356 . S
C546 H600 0.930 . S
C547 N545 1.279 . S
C547 C546 1.358 . S
C547 H551 0.930 . S
C548 C546 1.356 . S
C548 C549 1.348 . S
C549 C544 1.353 . S
C549 C548 1.348 . S
C549 H601 0.929 . S
H550 C544 0.930 . S
H551 C547 0.930 . S
C552 N553 1.314 . S
C552 C554 1.353 . S
C552 H558 0.930 . S
N553 Li529 1.990 . S
N553 C552 1.314 . S
N553 C556 1.279 . S
C554 C552 1.353 . S
C554 C557 1.348 . S
C554 H602 0.929 . S
C555 C556 1.358 . S
C555 C557 1.356 . S
C555 H603 0.930 . S
C556 N553 1.279 . S
C556 C555 1.358 . S
C556 H559 0.930 . S
C557 C554 1.348 . S
C557 C555 1.356 . S
H558 C552 0.930 . S
H559 C556 0.930 . S
C560 C562 1.348 . S
C560 C563 1.356 . S
C560 O590 1.325 . S
N561 C564 1.314 . S
N561 C565 1.279 . S
C562 C560 1.348 . S
C562 C564 1.353 . S
C562 H604 0.929 . S
C563 C560 1.356 . S
C563 C565 1.358 . S
C563 H605 0.930 . S
C564 N561 1.314 . S
C564 C562 1.353 . S
C564 H606 0.930 . S
C565 N561 1.279 . S
C565 C563 1.358 . S
C565 H607 0.930 . S
C566 C567 1.348 . S
C566 C568 1.356 . S
C566 O591 1.325 . S
C567 C566 1.348 . S
C567 C569 1.353 . S
C567 H608 0.929 . S
C568 C566 1.356 . S
C568 C570 1.358 . S
C568 H609 0.930 . S
C569 C567 1.353 . S
C569 N571 1.314 . S
C569 H610 0.930 . S
C570 C568 1.358 . S
C570 N571 1.279 . S
C570 H611 0.930 . S
N571 C569 1.314 . S
N571 C570 1.279 . S
C572 C574 1.353 . S
C572 N575 1.314 . S
C572 H578 0.930 . S
C573 N575 1.279 . S
C573 C576 1.358 . S
C573 H579 0.930 . S
C574 C572 1.353 . S
C574 C577 1.348 . S
C574 H612 0.929 . S
N575 Li530 1.990 . S
N575 C572 1.314 . S
N575 C573 1.279 . S
C576 C573 1.358 . S
C576 C577 1.356 . S
C576 H613 0.930 . S
C577 C574 1.348 . S
C577 C576 1.356 . S
H578 C572 0.930 . S
H579 C573 0.930 . S
C580 N581 1.314 . S
C580 C582 1.353 . S
C580 H586 0.930 . S
N581 Li531 1.990 . S
N581 C580 1.314 . S
N581 C584 1.279 . S
C582 C580 1.353 . S
C582 C585 1.348 . S
C582 H614 0.929 . S
C583 C584 1.358 . S
C583 C585 1.356 . S
C583 H615 0.930 . S
C584 N581 1.279 . S
C584 C583 1.358 . S
C584 H587 0.930 . S
C585 C582 1.348 . S
C585 C583 1.356 . S
H586 C580 0.930 . S
H587 C584 0.930 . S
O588 Li528 1.956 . S
O588 Li529 1.970 . S
O588 Li530 1.961 . S
O588 C532 1.325 . S
O589 Li528 1.970 . S
O589 Li529 1.956 . S
O589 Li531 1.961 . S
O589 C538 1.325 . S
O590 Li528 1.961 . S
O590 Li530 1.956 . S
O590 Li531 1.970 . S
O590 C560 1.325 . S
O591 Li529 1.961 . S
O591 Li530 1.970 . S
O591 Li531 1.956 . S
O591 C566 1.325 . S
H592 C534 0.929 . S
H593 C535 0.930 . S
H594 C536 0.930 . S
H595 C537 0.930 . S
H596 C539 0.930 . S
H597 C541 0.929 . S
H598 C542 0.930 . S
H599 C543 0.930 . S
H600 C546 0.930 . S
H601 C549 0.929 . S
H602 C554 0.929 . S
H603 C555 0.930 . S
H604 C562 0.929 . S
H605 C563 0.930 . S
H606 C564 0.930 . S
H607 C565 0.930 . S
H608 C567 0.929 . S
H609 C568 0.930 . S
H610 C569 0.930 . S
H611 C570 0.930 . S
H612 C574 0.929 . S
H613 C576 0.930 . S
H614 C582 0.929 . S
H615 C583 0.930 . S
Li616 N633 1.990 . S
Li616 O676 1.956 . S
Li616 O677 1.970 . S
Li616 O678 1.961 . S
Li617 N641 1.990 . S
Li617 O676 1.970 . S
Li617 O677 1.956 . S
Li617 O679 1.961 . S
Li618 N663 1.990 . S
Li618 O676 1.961 . S
Li618 O678 1.956 . S
Li618 O679 1.970 . S
Li619 N669 1.990 . S
Li619 O677 1.961 . S
Li619 O678 1.970 . S
Li619 O679 1.956 . S
C620 C622 1.348 . S
C620 C623 1.356 . S
C620 O676 1.325 . S
N621 C624 1.314 . S
N621 C625 1.279 . S
C622 C620 1.348 . S
C622 C624 1.353 . S
C622 H680 0.929 . S
C623 C620 1.356 . S
C623 C625 1.358 . S
C623 H681 0.930 . S
C624 N621 1.314 . S
C624 C622 1.353 . S
C624 H682 0.930 . S
C625 N621 1.279 . S
C625 C623 1.358 . S
C625 H683 0.930 . S
C626 C629 1.348 1_556 S
C626 C630 1.356 1_556 S
C626 O677 1.325 . S
C627 N628 1.279 . S
C627 C630 1.358 . S
C627 H684 0.930 . S
N628 C627 1.279 . S
N628 C631 1.314 . S
C629 C626 1.348 1_554 S
C629 C631 1.353 . S
C629 H685 0.914 1_554 S
C630 C626 1.356 1_554 S
C630 C627 1.358 . S
C630 H686 0.937 . S
C631 N628 1.314 . S
C631 C629 1.353 . S
C631 H687 0.930 . S
C632 N633 1.314 . S
C632 C637 1.353 . S
C632 H638 0.930 . S
N633 Li616 1.990 . S
N633 C632 1.314 . S
N633 C635 1.279 . S
C634 C635 1.358 . S
C634 C636 1.356 . S
C634 H688 0.930 . S
C635 N633 1.279 . S
C635 C634 1.358 . S
C635 H639 0.930 . S
C636 C634 1.356 . S
C636 C637 1.348 . S
C637 C632 1.353 . S
C637 C636 1.348 . S
C637 H689 0.929 . S
H638 C632 0.930 . S
H639 C635 0.930 . S
C640 N641 1.314 . S
C640 C642 1.353 . S
C640 H646 0.930 . S
N641 Li617 1.990 . S
N641 C640 1.314 . S
N641 C644 1.279 . S
C642 C640 1.353 . S
C642 C645 1.349 1_455 S
C642 H690 0.929 1_455 S
C643 C644 1.358 . S
C643 C645 1.349 1_455 S
C643 H691 0.930 . S
C644 N641 1.279 . S
C644 C643 1.358 . S
C644 H647 0.930 . S
C645 C642 1.349 1_655 S
C645 C643 1.349 1_655 S
H646 C640 0.930 . S
H647 C644 0.930 . S
C648 C650 1.348 . S
C648 C651 1.356 . S
C648 O678 1.325 . S
N649 C652 1.314 . S
N649 C653 1.279 . S
C650 C648 1.348 . S
C650 C652 1.353 . S
C650 H692 0.929 . S
C651 C648 1.356 . S
C651 C653 1.358 . S
C651 H693 0.930 . S
C652 N649 1.314 . S
C652 C650 1.353 . S
C652 H694 0.930 . S
C653 N649 1.279 . S
C653 C651 1.358 . S
C653 H695 0.930 . S
C654 C655 1.348 . S
C654 C656 1.356 . S
C654 O679 1.325 . S
C655 C654 1.348 . S
C655 C657 1.353 . S
C655 H696 0.929 . S
C656 C654 1.356 . S
C656 C658 1.358 . S
C656 H697 0.930 . S
C657 C655 1.353 . S
C657 N659 1.314 . S
C657 H698 0.930 . S
C658 C656 1.358 . S
C658 N659 1.279 . S
C658 H699 0.930 . S
N659 C657 1.314 . S
N659 C658 1.279 . S
C660 C662 1.353 . S
C660 N663 1.314 . S
C660 H666 0.930 . S
C661 N663 1.279 . S
C661 C664 1.358 . S
C661 H667 0.930 . S
C662 C660 1.353 . S
C662 C665 1.348 . S
C662 H700 0.929 . S
N663 Li618 1.990 . S
N663 C660 1.314 . S
N663 C661 1.279 . S
C664 C661 1.358 . S
C664 C665 1.356 . S
C664 H701 0.930 . S
C665 C662 1.348 . S
C665 C664 1.356 . S
H666 C660 0.930 . S
H667 C661 0.930 . S
C668 N669 1.314 . S
C668 C670 1.321 1_556 S
C668 H674 0.930 . S
N669 Li619 1.990 . S
N669 C668 1.314 . S
N669 C672 1.279 . S
C670 C668 1.321 1_554 S
C670 C673 1.325 1_554 S
C670 H702 0.988 . S
C671 C672 1.358 . S
C671 C673 1.356 . S
C671 H703 0.930 . S
C672 N669 1.279 . S
C672 C671 1.358 . S
C672 H675 0.930 . S
C673 C670 1.325 1_556 S
C673 C671 1.356 . S
H674 C668 0.930 . S
H675 C672 0.930 . S
O676 Li616 1.956 . S
O676 Li617 1.970 . S
O676 Li618 1.961 . S
O676 C620 1.325 . S
O677 Li616 1.970 . S
O677 Li617 1.956 . S
O677 Li619 1.961 . S
O677 C626 1.325 . S
O678 Li616 1.961 . S
O678 Li618 1.956 . S
O678 Li619 1.970 . S
O678 C648 1.325 . S
O679 Li617 1.961 . S
O679 Li618 1.970 . S
O679 Li619 1.956 . S
O679 C654 1.325 . S
H680 C622 0.929 . S
H681 C623 0.930 . S
H682 C624 0.930 . S
H683 C625 0.930 . S
H684 C627 0.930 . S
H685 C629 0.914 1_556 S
H686 C630 0.937 . S
H687 C631 0.930 . S
H688 C634 0.930 . S
H689 C637 0.929 . S
H690 C642 0.929 1_655 S
H691 C643 0.930 . S
H692 C650 0.929 . S
H693 C651 0.930 . S
H694 C652 0.930 . S
H695 C653 0.930 . S
H696 C655 0.929 . S
H697 C656 0.930 . S
H698 C657 0.930 . S
H699 C658 0.930 . S
H700 C662 0.929 . S
H701 C664 0.930 . S
H702 C670 0.988 . S
H703 C671 0.930 . S
Li704 N721 1.990 . S
Li704 O764 1.956 . S
Li704 O765 1.970 . S
Li704 O766 1.961 . S
Li705 N729 1.990 . S
Li705 O764 1.970 . S
Li705 O765 1.956 . S
Li705 O767 1.961 . S
Li706 N751 1.990 . S
Li706 O764 1.961 . S
Li706 O766 1.956 . S
Li706 O767 1.970 . S
Li707 N757 1.990 . S
Li707 O765 1.961 . S
Li707 O766 1.970 . S
Li707 O767 1.956 . S
C708 C710 1.348 . S
C708 C711 1.356 . S
C708 O764 1.325 . S
N709 C712 1.314 . S
N709 C713 1.279 . S
C710 C708 1.348 . S
C710 C712 1.353 . S
C710 H768 0.929 . S
C711 C708 1.356 . S
C711 C713 1.358 . S
C711 H769 0.930 . S
C712 N709 1.314 . S
C712 C710 1.353 . S
C712 H770 0.930 . S
C713 N709 1.279 . S
C713 C711 1.358 . S
C713 H771 0.930 . S
C714 C717 1.348 . S
C714 C718 1.356 . S
C714 O765 1.325 . S
C715 N716 1.279 . S
C715 C718 1.358 . S
C715 H772 0.930 . S
N716 C715 1.279 . S
N716 C719 1.314 . S
C717 C714 1.348 . S
C717 C719 1.353 . S
C717 H773 0.929 . S
C718 C714 1.356 . S
C718 C715 1.358 . S
C718 H774 0.930 . S
C719 N716 1.314 . S
C719 C717 1.353 . S
C719 H775 0.930 . S
C720 N721 1.314 . S
C720 C725 1.353 . S
C720 H726 0.930 . S
N721 Li704 1.990 . S
N721 C720 1.314 . S
N721 C723 1.279 . S
C722 C723 1.358 . S
C722 C724 1.347 1_545 S
C722 H776 0.930 . S
C723 N721 1.279 . S
C723 C722 1.358 . S
C723 H727 0.930 . S
C724 C722 1.347 1_565 S
C724 C725 1.342 1_565 S
C725 C720 1.353 . S
C725 C724 1.342 1_545 S
C725 H777 0.929 1_545 S
H726 C720 0.930 . S
H727 C723 0.930 . S
C728 N729 1.314 . S
C728 C730 1.353 . S
C728 H734 0.930 . S
N729 Li705 1.990 . S
N729 C728 1.314 . S
N729 C732 1.279 . S
C730 C728 1.353 . S
C730 C733 1.348 . S
C730 H778 0.929 . S
C731 C732 1.358 . S
C731 C733 1.356 . S
C731 H779 0.930 . S
C732 N729 1.279 . S
C732 C731 1.358 . S
C732 H735 0.930 . S
C733 C730 1.348 . S
C733 C731 1.356 . S
H734 C728 0.930 . S
H735 C732 0.930 . S
C736 C738 1.348 . S
C736 C739 1.356 . S
C736 O766 1.325 . S
N737 C740 1.314 . S
N737 C741 1.279 . S
C738 C736 1.348 . S
C738 C740 1.353 . S
C738 H780 0.929 . S
C739 C736 1.356 . S
C739 C741 1.358 . S
C739 H781 0.930 . S
C740 N737 1.314 . S
C740 C738 1.353 . S
C740 H782 0.930 . S
C741 N737 1.279 . S
C741 C739 1.358 . S
C741 H783 0.930 . S
C742 C743 1.348 . S
C742 C744 1.356 . S
C742 O767 1.325 . S
C743 C742 1.348 . S
C743 C745 1.353 . S
C743 H784 0.929 . S
C744 C742 1.356 . S
C744 C746 1.358 . S
C744 H785 0.930 . S
C745 C743 1.353 . S
C745 N747 1.314 . S
C745 H786 0.930 . S
C746 C744 1.358 . S
C746 N747 1.279 . S
C746 H787 0.930 . S
N747 C745 1.314 . S
N747 C746 1.279 . S
C748 C750 1.353 . S
C748 N751 1.314 . S
C748 H754 0.930 . S
C749 N751 1.279 . S
C749 C752 1.358 . S
C749 H755 0.930 . S
C750 C748 1.353 . S
C750 C753 1.348 . S
C750 H788 0.929 . S
N751 Li706 1.990 . S
N751 C748 1.314 . S
N751 C749 1.279 . S
C752 C749 1.358 . S
C752 C753 1.356 . S
C752 H789 0.930 . S
C753 C750 1.348 . S
C753 C752 1.356 . S
H754 C748 0.930 . S
H755 C749 0.930 . S
C756 N757 1.314 . S
C756 C758 1.353 . S
C756 H762 0.930 . S
N757 Li707 1.990 . S
N757 C756 1.314 . S
N757 C760 1.279 . S
C758 C756 1.353 . S
C758 C761 1.348 . S
C758 H790 0.929 . S
C759 C760 1.358 . S
C759 C761 1.356 . S
C759 H791 0.930 . S
C760 N757 1.279 . S
C760 C759 1.358 . S
C760 H763 0.930 . S
C761 C758 1.348 . S
C761 C759 1.356 . S
H762 C756 0.930 . S
H763 C760 0.930 . S
O764 Li704 1.956 . S
O764 Li705 1.970 . S
O764 Li706 1.961 . S
O764 C708 1.325 . S
O765 Li704 1.970 . S
O765 Li705 1.956 . S
O765 Li707 1.961 . S
O765 C714 1.325 . S
O766 Li704 1.961 . S
O766 Li706 1.956 . S
O766 Li707 1.970 . S
O766 C736 1.325 . S
O767 Li705 1.961 . S
O767 Li706 1.970 . S
O767 Li707 1.956 . S
O767 C742 1.325 . S
H768 C710 0.929 . S
H769 C711 0.930 . S
H770 C712 0.930 . S
H771 C713 0.930 . S
H772 C715 0.930 . S
H773 C717 0.929 . S
H774 C718 0.930 . S
H775 C719 0.930 . S
H776 C722 0.930 . S
H777 C725 0.929 1_565 S
H778 C730 0.929 . S
H779 C731 0.930 . S
H780 C738 0.929 . S
H781 C739 0.930 . S
H782 C740 0.930 . S
H783 C741 0.930 . S
H784 C743 0.929 . S
H785 C744 0.930 . S
H786 C745 0.930 . S
H787 C746 0.930 . S
H788 C750 0.929 . S
H789 C752 0.930 . S
H790 C758 0.929 . S
H791 C759 0.930 . S
Li792 N809 1.990 . S
Li792 O852 1.956 . S
Li792 O853 1.970 . S
Li792 O854 1.961 . S
Li793 N817 1.990 . S
Li793 O852 1.970 . S
Li793 O853 1.956 . S
Li793 O855 1.961 . S
Li794 N839 1.990 . S
Li794 O852 1.961 . S
Li794 O854 1.956 . S
Li794 O855 1.970 . S
Li795 N845 1.990 . S
Li795 O853 1.961 . S
Li795 O854 1.970 . S
Li795 O855 1.956 . S
C796 C798 1.348 . S
C796 C799 1.356 . S
C796 O852 1.325 . S
N797 C800 1.314 . S
N797 C801 1.279 . S
C798 C796 1.348 . S
C798 C800 1.353 . S
C798 H856 0.929 . S
C799 C796 1.356 . S
C799 C801 1.358 . S
C799 H857 0.930 . S
C800 N797 1.314 . S
C800 C798 1.353 . S
C800 H858 0.930 . S
C801 N797 1.279 . S
C801 C799 1.358 . S
C801 H859 0.930 . S
C802 C805 1.348 . S
C802 C806 1.356 . S
C802 O853 1.325 . S
C803 N804 1.279 . S
C803 C806 1.358 . S
C803 H860 0.930 . S
N804 C803 1.279 . S
N804 C807 1.314 . S
C805 C802 1.348 . S
C805 C807 1.353 . S
C805 H861 0.929 . S
C806 C802 1.356 . S
C806 C803 1.358 . S
C806 H862 0.930 . S
C807 N804 1.314 . S
C807 C805 1.353 . S
C807 H863 0.930 . S
C808 N809 1.314 . S
C808 C813 1.353 . S
C808 H814 0.930 . S
N809 Li792 1.990 . S
N809 C808 1.314 . S
N809 C811 1.279 . S
C810 C811 1.358 . S
C810 C812 1.356 . S
C810 H864 0.930 . S
C811 N809 1.279 . S
C811 C810 1.358 . S
C811 H815 0.930 . S
C812 C810 1.356 . S
C812 C813 1.348 . S
C813 C808 1.353 . S
C813 C812 1.348 . S
C813 H865 0.929 . S
H814 C808 0.930 . S
H815 C811 0.930 . S
C816 N817 1.314 . S
C816 C818 1.353 . S
C816 H822 0.930 . S
N817 Li793 1.990 . S
N817 C816 1.314 . S
N817 C820 1.279 . S
C818 C816 1.353 . S
C818 C821 1.348 . S
C818 H866 0.929 . S
C819 C820 1.358 . S
C819 C821 1.356 . S
C819 H867 0.930 . S
C820 N817 1.279 . S
C820 C819 1.358 . S
C820 H823 0.930 . S
C821 C818 1.348 . S
C821 C819 1.356 . S
H822 C816 0.930 . S
H823 C820 0.930 . S
C824 C826 1.348 . S
C824 C827 1.356 . S
C824 O854 1.325 . S
N825 C828 1.314 . S
N825 C829 1.279 . S
C826 C824 1.348 . S
C826 C828 1.353 . S
C826 H868 0.929 . S
C827 C824 1.356 . S
C827 C829 1.358 . S
C827 H869 0.930 . S
C828 N825 1.314 . S
C828 C826 1.353 . S
C828 H870 0.930 . S
C829 N825 1.279 . S
C829 C827 1.358 . S
C829 H871 0.930 . S
C830 C831 1.348 . S
C830 C832 1.356 . S
C830 O855 1.325 . S
C831 C830 1.348 . S
C831 C833 1.353 . S
C831 H872 0.929 . S
C832 C830 1.356 . S
C832 C834 1.358 . S
C832 H873 0.930 . S
C833 C831 1.353 . S
C833 N835 1.314 . S
C833 H874 0.930 . S
C834 C832 1.358 . S
C834 N835 1.279 . S
C834 H875 0.930 . S
N835 C833 1.314 . S
N835 C834 1.279 . S
C836 C838 1.353 . S
C836 N839 1.314 . S
C836 H842 0.930 . S
C837 N839 1.279 . S
C837 C840 1.358 . S
C837 H843 0.930 . S
C838 C836 1.353 . S
C838 C841 1.348 . S
C838 H876 0.929 . S
N839 Li794 1.990 . S
N839 C836 1.314 . S
N839 C837 1.279 . S
C840 C837 1.358 . S
C840 C841 1.356 . S
C840 H877 0.930 . S
C841 C838 1.348 . S
C841 C840 1.356 . S
H842 C836 0.930 . S
H843 C837 0.930 . S
C844 N845 1.314 . S
C844 C846 1.353 . S
C844 H850 0.930 . S
N845 Li795 1.990 . S
N845 C844 1.314 . S
N845 C848 1.279 . S
C846 C844 1.353 . S
C846 C849 1.348 . S
C846 H878 0.929 . S
C847 C848 1.358 . S
C847 C849 1.356 . S
C847 H879 0.930 . S
C848 N845 1.279 . S
C848 C847 1.358 . S
C848 H851 0.930 . S
C849 C846 1.348 . S
C849 C847 1.356 . S
H850 C844 0.930 . S
H851 C848 0.930 . S
O852 Li792 1.956 . S
O852 Li793 1.970 . S
O852 Li794 1.961 . S
O852 C796 1.325 . S
O853 Li792 1.970 . S
O853 Li793 1.956 . S
O853 Li795 1.961 . S
O853 C802 1.325 . S
O854 Li792 1.961 . S
O854 Li794 1.956 . S
O854 Li795 1.970 . S
O854 C824 1.325 . S
O855 Li793 1.961 . S
O855 Li794 1.970 . S
O855 Li795 1.956 . S
O855 C830 1.325 . S
H856 C798 0.929 . S
H857 C799 0.930 . S
H858 C800 0.930 . S
H859 C801 0.930 . S
H860 C803 0.930 . S
H861 C805 0.929 . S
H862 C806 0.930 . S
H863 C807 0.930 . S
H864 C810 0.930 . S
H865 C813 0.929 . S
H866 C818 0.929 . S
H867 C819 0.930 . S
H868 C826 0.929 . S
H869 C827 0.930 . S
H870 C828 0.930 . S
H871 C829 0.930 . S
H872 C831 0.929 . S
H873 C832 0.930 . S
H874 C833 0.930 . S
H875 C834 0.930 . S
H876 C838 0.929 . S
H877 C840 0.930 . S
H878 C846 0.929 . S
H879 C847 0.930 . S
Li880 N897 1.990 . S
Li880 O940 1.956 . S
Li880 O941 1.970 . S
Li880 O942 1.961 . S
Li881 N905 1.990 . S
Li881 O940 1.970 . S
Li881 O941 1.956 . S
Li881 O943 1.961 . S
Li882 N927 1.990 . S
Li882 O940 1.961 . S
Li882 O942 1.956 . S
Li882 O943 1.970 . S
Li883 N933 1.990 . S
Li883 O941 1.961 . S
Li883 O942 1.970 . S
Li883 O943 1.956 . S
C884 C886 1.348 1_556 S
C884 C887 1.356 1_556 S
C884 O940 1.325 . S
N885 C888 1.314 . S
N885 C889 1.279 . S
C886 C884 1.348 1_554 S
C886 C888 1.353 . S
C886 H944 0.914 1_554 S
C887 C884 1.356 1_554 S
C887 C889 1.358 . S
C887 H945 0.937 . S
C888 N885 1.314 . S
C888 C886 1.353 . S
C888 H946 0.930 . S
C889 N885 1.279 . S
C889 C887 1.358 . S
C889 H947 0.930 . S
C890 C893 1.348 . S
C890 C894 1.356 . S
C890 O941 1.325 . S
C891 N892 1.279 . S
C891 C894 1.358 . S
C891 H948 0.930 . S
N892 C891 1.279 . S
N892 C895 1.314 . S
C893 C890 1.348 . S
C893 C895 1.353 . S
C893 H949 0.929 . S
C894 C890 1.356 . S
C894 C891 1.358 . S
C894 H950 0.930 . S
C895 N892 1.314 . S
C895 C893 1.353 . S
C895 H951 0.930 . S
C896 N897 1.314 . S
C896 C901 1.353 . S
C896 H902 0.930 . S
N897 Li880 1.990 . S
N897 C896 1.314 . S
N897 C899 1.279 . S
C898 C899 1.358 . S
C898 C900 1.349 1_655 S
C898 H952 0.930 . S
C899 N897 1.279 . S
C899 C898 1.358 . S
C899 H903 0.930 . S
C900 C898 1.349 1_455 S
C900 C901 1.349 1_455 S
C901 C896 1.353 . S
C901 C900 1.349 1_655 S
C901 H953 0.929 1_655 S
H902 C896 0.930 . S
H903 C899 0.930 . S
C904 N905 1.314 . S
C904 C906 1.353 . S
C904 H910 0.930 . S
N905 Li881 1.990 . S
N905 C904 1.314 . S
N905 C908 1.279 . S
C906 C904 1.353 . S
C906 C909 1.348 . S
C906 H954 0.929 . S
C907 C908 1.358 . S
C907 C909 1.356 . S
C907 H955 0.930 . S
C908 N905 1.279 . S
C908 C907 1.358 . S
C908 H911 0.930 . S
C909 C906 1.348 . S
C909 C907 1.356 . S
H910 C904 0.930 . S
H911 C908 0.930 . S
C912 C914 1.348 . S
C912 C915 1.356 . S
C912 O942 1.325 . S
N913 C916 1.314 . S
N913 C917 1.279 . S
C914 C912 1.348 . S
C914 C916 1.353 . S
C914 H956 0.929 . S
C915 C912 1.356 . S
C915 C917 1.358 . S
C915 H957 0.930 . S
C916 N913 1.314 . S
C916 C914 1.353 . S
C916 H958 0.930 . S
C917 N913 1.279 . S
C917 C915 1.358 . S
C917 H959 0.930 . S
C918 C919 1.348 . S
C918 C920 1.356 . S
C918 O943 1.325 . S
C919 C918 1.348 . S
C919 C921 1.353 . S
C919 H960 0.929 . S
C920 C918 1.356 . S
C920 C922 1.358 . S
C920 H961 0.930 . S
C921 C919 1.353 . S
C921 N923 1.314 . S
C921 H962 0.930 . S
C922 C920 1.358 . S
C922 N923 1.279 . S
C922 H963 0.930 . S
N923 C921 1.314 . S
N923 C922 1.279 . S
C924 C926 1.321 1_556 S
C924 N927 1.314 . S
C924 H930 0.930 . S
C925 N927 1.279 . S
C925 C928 1.358 . S
C925 H931 0.930 . S
C926 C924 1.321 1_554 S
C926 C929 1.325 1_554 S
C926 H964 0.987 . S
N927 Li882 1.990 . S
N927 C924 1.314 . S
N927 C925 1.279 . S
C928 C925 1.358 . S
C928 C929 1.356 . S
C928 H965 0.930 . S
C929 C926 1.325 1_556 S
C929 C928 1.356 . S
H930 C924 0.930 . S
H931 C925 0.930 . S
C932 N933 1.314 . S
C932 C934 1.353 . S
C932 H938 0.930 . S
N933 Li883 1.990 . S
N933 C932 1.314 . S
N933 C936 1.279 . S
C934 C932 1.353 . S
C934 C937 1.348 . S
C934 H966 0.929 . S
C935 C936 1.358 . S
C935 C937 1.356 . S
C935 H967 0.930 . S
C936 N933 1.279 . S
C936 C935 1.358 . S
C936 H939 0.930 . S
C937 C934 1.348 . S
C937 C935 1.356 . S
H938 C932 0.930 . S
H939 C936 0.930 . S
O940 Li880 1.956 . S
O940 Li881 1.970 . S
O940 Li882 1.961 . S
O940 C884 1.325 . S
O941 Li880 1.970 . S
O941 Li881 1.956 . S
O941 Li883 1.961 . S
O941 C890 1.325 . S
O942 Li880 1.961 . S
O942 Li882 1.956 . S
O942 Li883 1.970 . S
O942 C912 1.325 . S
O943 Li881 1.961 . S
O943 Li882 1.970 . S
O943 Li883 1.956 . S
O943 C918 1.325 . S
H944 C886 0.914 1_556 S
H945 C887 0.937 . S
H946 C888 0.930 . S
H947 C889 0.930 . S
H948 C891 0.930 . S
H949 C893 0.929 . S
H950 C894 0.930 . S
H951 C895 0.930 . S
H952 C898 0.930 . S
H953 C901 0.929 1_455 S
H954 C906 0.929 . S
H955 C907 0.930 . S
H956 C914 0.929 . S
H957 C915 0.930 . S
H958 C916 0.930 . S
H959 C917 0.930 . S
H960 C919 0.929 . S
H961 C920 0.930 . S
H962 C921 0.930 . S
H963 C922 0.930 . S
H964 C926 0.987 . S
H965 C928 0.930 . S
H966 C934 0.929 . S
H967 C935 0.930 . S
Li968 N985 1.990 . S
Li968 O1028 1.956 . S
Li968 O1029 1.970 . S
Li968 O1030 1.961 . S
Li969 N993 1.990 . S
Li969 O1028 1.970 . S
Li969 O1029 1.956 . S
Li969 O1031 1.961 . S
Li970 N1015 1.990 . S
Li970 O1028 1.961 . S
Li970 O1030 1.956 . S
Li970 O1031 1.970 . S
Li971 N1021 1.990 . S
Li971 O1029 1.961 . S
Li971 O1030 1.970 . S
Li971 O1031 1.956 . S
C972 C974 1.348 . S
C972 C975 1.356 . S
C972 O1028 1.325 . S
N973 C976 1.314 . S
N973 C977 1.279 . S
C974 C972 1.348 . S
C974 C976 1.353 . S
C974 H1032 0.929 . S
C975 C972 1.356 . S
C975 C977 1.358 . S
C975 H1033 0.930 . S
C976 N973 1.314 . S
C976 C974 1.353 . S
C976 H1034 0.930 . S
C977 N973 1.279 . S
C977 C975 1.358 . S
C977 H1035 0.930 . S
C978 C981 1.348 . S
C978 C982 1.356 . S
C978 O1029 1.325 . S
C979 N980 1.279 . S
C979 C982 1.358 . S
C979 H1036 0.930 . S
N980 C979 1.279 . S
N980 C983 1.314 . S
C981 C978 1.348 . S
C981 C983 1.353 . S
C981 H1037 0.929 . S
C982 C978 1.356 . S
C982 C979 1.358 . S
C982 H1038 0.930 . S
C983 N980 1.314 . S
C983 C981 1.353 . S
C983 H1039 0.930 . S
C984 N985 1.314 . S
C984 C989 1.353 . S
C984 H990 0.930 . S
N985 Li968 1.990 . S
N985 C984 1.314 . S
N985 C987 1.279 . S
C986 C987 1.358 . S
C986 C988 1.356 . S
C986 H1040 0.930 . S
C987 N985 1.279 . S
C987 C986 1.358 . S
C987 H991 0.930 . S
C988 C986 1.356 . S
C988 C989 1.348 . S
C989 C984 1.353 . S
C989 C988 1.348 . S
C989 H1041 0.929 . S
H990 C984 0.930 . S
H991 C987 0.930 . S
C992 N993 1.314 . S
C992 C994 1.353 . S
C992 H998 0.930 . S
N993 Li969 1.990 . S
N993 C992 1.314 . S
N993 C996 1.279 . S
C994 C992 1.353 . S
C994 C997 1.342 1_565 S
C994 H1042 0.929 1_565 S
C995 C996 1.358 . S
C995 C997 1.347 1_565 S
C995 H1043 0.930 . S
C996 N993 1.279 . S
C996 C995 1.358 . S
C996 H999 0.930 . S
C997 C994 1.342 1_545 S
C997 C995 1.347 1_545 S
H998 C992 0.930 . S
H999 C996 0.930 . S
C1000 C1002 1.348 . S
C1000 C1003 1.356 . S
C1000 O1030 1.325 . S
N1001 C1004 1.314 . S
N1001 C1005 1.279 . S
C1002 C1000 1.348 . S
C1002 C1004 1.353 . S
C1002 H1044 0.929 . S
C1003 C1000 1.356 . S
C1003 C1005 1.358 . S
C1003 H1045 0.930 . S
C1004 N1001 1.314 . S
C1004 C1002 1.353 . S
C1004 H1046 0.930 . S
C1005 N1001 1.279 . S
C1005 C1003 1.358 . S
C1005 H1047 0.930 . S
C1006 C1007 1.348 . S
C1006 C1008 1.356 . S
C1006 O1031 1.325 . S
C1007 C1006 1.348 . S
C1007 C1009 1.353 . S
C1007 H1048 0.929 . S
C1008 C1006 1.356 . S
C1008 C1010 1.358 . S
C1008 H1049 0.930 . S
C1009 C1007 1.353 . S
C1009 N1011 1.314 . S
C1009 H1050 0.930 . S
C1010 C1008 1.358 . S
C1010 N1011 1.279 . S
C1010 H1051 0.930 . S
N1011 C1009 1.314 . S
N1011 C1010 1.279 . S
C1012 C1014 1.353 . S
C1012 N1015 1.314 . S
C1012 H1018 0.930 . S
C1013 N1015 1.279 . S
C1013 C1016 1.358 . S
C1013 H1019 0.930 . S
C1014 C1012 1.353 . S
C1014 C1017 1.348 . S
C1014 H1052 0.929 . S
N1015 Li970 1.990 . S
N1015 C1012 1.314 . S
N1015 C1013 1.279 . S
C1016 C1013 1.358 . S
C1016 C1017 1.356 . S
C1016 H1053 0.930 . S
C1017 C1014 1.348 . S
C1017 C1016 1.356 . S
H1018 C1012 0.930 . S
H1019 C1013 0.930 . S
C1020 N1021 1.314 . S
C1020 C1022 1.353 . S
C1020 H1026 0.930 . S
N1021 Li971 1.990 . S
N1021 C1020 1.314 . S
N1021 C1024 1.279 . S
C1022 C1020 1.353 . S
C1022 C1025 1.348 . S
C1022 H1054 0.929 . S
C1023 C1024 1.358 . S
C1023 C1025 1.356 . S
C1023 H1055 0.930 . S
C1024 N1021 1.279 . S
C1024 C1023 1.358 . S
C1024 H1027 0.930 . S
C1025 C1022 1.348 . S
C1025 C1023 1.356 . S
H1026 C1020 0.930 . S
H1027 C1024 0.930 . S
O1028 Li968 1.956 . S
O1028 Li969 1.970 . S
O1028 Li970 1.961 . S
O1028 C972 1.325 . S
O1029 Li968 1.970 . S
O1029 Li969 1.956 . S
O1029 Li971 1.961 . S
O1029 C978 1.325 . S
O1030 Li968 1.961 . S
O1030 Li970 1.956 . S
O1030 Li971 1.970 . S
O1030 C1000 1.325 . S
O1031 Li969 1.961 . S
O1031 Li970 1.970 . S
O1031 Li971 1.956 . S
O1031 C1006 1.325 . S
H1032 C974 0.929 . S
H1033 C975 0.930 . S
H1034 C976 0.930 . S
H1035 C977 0.930 . S
H1036 C979 0.930 . S
H1037 C981 0.929 . S
H1038 C982 0.930 . S
H1039 C983 0.930 . S
H1040 C986 0.930 . S
H1041 C989 0.929 . S
H1042 C994 0.929 1_545 S
H1043 C995 0.930 . S
H1044 C1002 0.929 . S
H1045 C1003 0.930 . S
H1046 C1004 0.930 . S
H1047 C1005 0.930 . S
H1048 C1007 0.929 . S
H1049 C1008 0.930 . S
H1050 C1009 0.930 . S
H1051 C1010 0.930 . S
H1052 C1014 0.929 . S
H1053 C1016 0.930 . S
H1054 C1022 0.929 . S
H1055 C1023 0.930 . S
C1056 C1057 1.331 1_554 S
C1056 C1058 1.419 1_565 S
C1056 H1060 0.930 . S
C1057 C1056 1.331 1_556 S
C1057 C1066 1.466 . S
C1058 C1056 1.419 1_545 S
C1058 C1059 1.380 . S
C1058 H1061 0.929 . S
C1059 C1058 1.380 . S
C1059 C1065 1.410 1_554 S
H1060 C1056 0.930 . S
H1061 C1058 0.929 . S
S1062 N1063 1.613 1_545 S
S1062 N1064 1.610 . S
N1063 S1062 1.613 1_565 S
N1063 C1066 1.350 . S
N1064 S1062 1.610 . S
N1064 C1065 1.351 . S
C1065 C1059 1.410 1_556 S
C1065 N1064 1.351 . S
C1065 C1066 1.434 1_545 S
C1066 C1057 1.466 . S
C1066 N1063 1.350 . S
C1066 C1065 1.434 1_565 S
C1067 C1068 1.369 . S
C1067 C1069 1.419 . S
C1067 H1071 0.930 . S
C1068 C1067 1.369 . S
C1068 C1077 1.429 . S
C1069 C1067 1.419 . S
C1069 C1070 1.363 . S
C1069 H1072 0.929 . S
C1070 C1069 1.363 . S
C1070 C1076 1.428 . S
H1071 C1067 0.930 . S
H1072 C1069 0.929 . S
S1073 N1074 1.613 . S
S1073 N1075 1.610 . S
N1074 S1073 1.613 . S
N1074 C1077 1.350 . S
N1075 S1073 1.610 . S
N1075 C1076 1.351 . S
C1076 C1070 1.428 . S
C1076 N1075 1.351 . S
C1076 C1077 1.434 . S
C1077 C1068 1.429 . S
C1077 N1074 1.350 . S
C1077 C1076 1.434 . S
C1078 C1079 1.369 . S
C1078 C1080 1.419 1_655 S
C1078 H1082 0.930 . S
C1079 C1078 1.369 . S
C1079 C1088 1.429 . S
C1080 C1078 1.419 1_455 S
C1080 C1081 1.363 . S
C1080 H1083 0.929 . S
C1081 C1080 1.363 . S
C1081 C1087 1.428 . S
H1082 C1078 0.930 . S
H1083 C1080 0.929 . S
S1084 N1085 1.621 . S
S1084 N1086 1.608 1_655 S
N1085 S1084 1.621 . S
N1085 C1088 1.350 . S
N1086 S1084 1.608 1_455 S
N1086 C1087 1.351 . S
C1087 C1081 1.428 . S
C1087 N1086 1.351 . S
C1087 C1088 1.434 1_455 S
C1088 C1079 1.429 . S
C1088 N1085 1.350 . S
C1088 C1087 1.434 1_655 S
C1089 C1090 1.380 . S
C1089 C1091 1.419 1_565 S
C1089 H1093 0.930 . S
C1090 C1089 1.380 . S
C1090 C1099 1.417 1_554 S
C1091 C1089 1.419 1_545 S
C1091 C1092 1.328 1_554 S
C1091 H1094 0.929 . S
C1092 C1091 1.328 1_556 S
C1092 C1098 1.464 . S
H1093 C1089 0.930 . S
H1094 C1091 0.929 . S
S1095 N1096 1.613 . S
S1095 N1097 1.610 1_565 S
N1096 S1095 1.613 . S
N1096 C1099 1.350 . S
N1097 S1095 1.610 1_545 S
N1097 C1098 1.351 . S
C1098 C1092 1.464 . S
C1098 N1097 1.351 . S
C1098 C1099 1.434 1_545 S
C1099 C1090 1.417 1_556 S
C1099 N1096 1.350 . S
C1099 C1098 1.434 1_565 S
C1100 C1101 1.369 . S
C1100 C1102 1.419 . S
C1100 H1104 0.930 . S
C1101 C1100 1.369 . S
C1101 C1110 1.429 . S
C1102 C1100 1.419 . S
C1102 C1103 1.363 . S
C1102 H1105 0.929 . S
C1103 C1102 1.363 . S
C1103 C1109 1.428 . S
H1104 C1100 0.930 . S
H1105 C1102 0.929 . S
S1106 N1107 1.613 . S
S1106 N1108 1.610 . S
N1107 S1106 1.613 . S
N1107 C1110 1.350 . S
N1108 S1106 1.610 . S
N1108 C1109 1.351 . S
C1109 C1103 1.428 . S
C1109 N1108 1.351 . S
C1109 C1110 1.434 . S
C1110 C1101 1.429 . S
C1110 N1107 1.350 . S
C1110 C1109 1.434 . S
C1111 C1112 1.369 . S
C1111 C1113 1.419 1_655 S
C1111 H1115 0.930 . S
C1112 C1111 1.369 . S
C1112 C1121 1.429 . S
C1113 C1111 1.419 1_455 S
C1113 C1114 1.363 . S
C1113 H1116 0.929 . S
C1114 C1113 1.363 . S
C1114 C1120 1.428 . S
H1115 C1111 0.930 . S
H1116 C1113 0.929 . S
S1117 N1118 1.613 . S
S1117 N1119 1.610 1_655 S
N1118 S1117 1.613 . S
N1118 C1121 1.350 . S
N1119 S1117 1.610 1_455 S
N1119 C1120 1.351 . S
C1120 C1114 1.428 . S
C1120 N1119 1.351 . S
C1120 C1121 1.434 1_455 S
C1121 C1112 1.429 . S
C1121 N1118 1.350 . S
C1121 C1120 1.434 1_655 S
C1122 C1123 1.369 . S
C1122 C1124 1.419 . S
C1122 H1126 0.930 . S
C1123 C1122 1.369 . S
C1123 C1132 1.429 1_556 S
C1124 C1122 1.419 . S
C1124 C1125 1.363 1_556 S
C1124 H1127 0.929 . S
C1125 C1124 1.363 1_554 S
C1125 C1131 1.428 . S
H1126 C1122 0.930 . S
H1127 C1124 0.929 . S
S1128 N1129 1.613 . S
S1128 N1130 1.610 . S
N1129 S1128 1.613 . S
N1129 C1132 1.350 . S
N1130 S1128 1.610 . S
N1130 C1131 1.351 . S
C1131 C1125 1.428 . S
C1131 N1130 1.351 . S
C1131 C1132 1.434 . S
C1132 C1123 1.429 1_554 S
C1132 N1129 1.350 . S
C1132 C1131 1.434 . S
C1133 C1134 1.369 . S
C1133 C1135 1.419 . S
C1133 H1137 0.930 . S
C1134 C1133 1.369 . S
C1134 C1143 1.429 . S
C1135 C1133 1.419 . S
C1135 C1136 1.363 . S
C1135 H1138 0.929 . S
C1136 C1135 1.363 . S
C1136 C1142 1.428 . S
H1137 C1133 0.930 . S
H1138 C1135 0.929 . S
S1139 N1140 1.613 . S
S1139 N1141 1.610 . S
N1140 S1139 1.613 . S
N1140 C1143 1.350 . S
N1141 S1139 1.610 . S
N1141 C1142 1.351 . S
C1142 C1136 1.428 . S
C1142 N1141 1.351 . S
C1142 C1143 1.434 . S
C1143 C1134 1.429 . S
C1143 N1140 1.350 . S
C1143 C1142 1.434 . S
C1144 C1145 1.369 . S
C1144 C1146 1.419 . S
C1144 H1148 0.930 . S
C1145 C1144 1.369 . S
C1145 C1154 1.429 . S
C1146 C1144 1.419 . S
C1146 C1147 1.363 . S
C1146 H1149 0.929 . S
C1147 C1146 1.363 . S
C1147 C1153 1.428 . S
H1148 C1144 0.930 . S
H1149 C1146 0.929 . S
S1150 N1151 1.613 . S
S1150 N1152 1.610 . S
N1151 S1150 1.613 . S
N1151 C1154 1.350 . S
N1152 S1150 1.610 . S
N1152 C1153 1.351 . S
C1153 C1147 1.428 . S
C1153 N1152 1.351 . S
C1153 C1154 1.434 . S
C1154 C1145 1.429 . S
C1154 N1151 1.350 . S
C1154 C1153 1.434 . S
C1155 C1156 1.369 . S
C1155 C1157 1.419 . S
C1155 H1159 0.930 . S
C1156 C1155 1.369 . S
C1156 C1165 1.429 1_556 S
C1157 C1155 1.419 . S
C1157 C1158 1.363 1_556 S
C1157 H1160 0.929 . S
C1158 C1157 1.363 1_554 S
C1158 C1164 1.428 . S
H1159 C1155 0.930 . S
H1160 C1157 0.929 . S
S1161 N1162 1.613 . S
S1161 N1163 1.610 . S
N1162 S1161 1.613 . S
N1162 C1165 1.350 . S
N1163 S1161 1.610 . S
N1163 C1164 1.351 . S
C1164 C1158 1.428 . S
C1164 N1163 1.351 . S
C1164 C1165 1.434 . S
C1165 C1156 1.429 1_554 S
C1165 N1162 1.350 . S
C1165 C1164 1.434 . S
C1166 C1167 1.369 . S
C1166 C1168 1.419 . S
C1166 H1170 0.930 . S
C1167 C1166 1.369 . S
C1167 C1176 1.429 . S
C1168 C1166 1.419 . S
C1168 C1169 1.363 . S
C1168 H1171 0.929 . S
C1169 C1168 1.363 . S
C1169 C1175 1.428 . S
H1170 C1166 0.930 . S
H1171 C1168 0.929 . S
S1172 N1173 1.613 . S
S1172 N1174 1.610 . S
N1173 S1172 1.613 . S
N1173 C1176 1.350 . S
N1174 S1172 1.610 . S
N1174 C1175 1.351 . S
C1175 C1169 1.428 . S
C1175 N1174 1.351 . S
C1175 C1176 1.434 . S
C1176 C1167 1.429 . S
C1176 N1173 1.350 . S
C1176 C1175 1.434 . S
C1177 C1178 1.369 . S
C1177 C1179 1.419 . S
C1177 H1181 0.930 . S
C1178 C1177 1.369 . S
C1178 C1187 1.429 . S
C1179 C1177 1.419 . S
C1179 C1180 1.363 . S
C1179 H1182 0.929 . S
C1180 C1179 1.363 . S
C1180 C1186 1.428 . S
H1181 C1177 0.930 . S
H1182 C1179 0.929 . S
S1183 N1184 1.613 . S
S1183 N1185 1.610 . S
N1184 S1183 1.613 . S
N1184 C1187 1.350 . S
N1185 S1183 1.610 . S
N1185 C1186 1.351 . S
C1186 C1180 1.428 . S
C1186 N1185 1.351 . S
C1186 C1187 1.434 . S
C1187 C1178 1.429 . S
C1187 N1184 1.350 . S
C1187 C1186 1.434 . S
C1188 C1189 1.369 . S
C1188 C1190 1.419 . S
C1188 H1192 0.930 . S
C1189 C1188 1.369 . S
C1189 C1198 1.429 . S
C1190 C1188 1.419 . S
C1190 C1191 1.363 . S
C1190 H1193 0.929 . S
C1191 C1190 1.363 . S
C1191 C1197 1.428 . S
H1192 C1188 0.930 . S
H1193 C1190 0.929 . S
S1194 N1195 1.613 . S
S1194 N1196 1.610 . S
N1195 S1194 1.613 . S
N1195 C1198 1.350 . S
N1196 S1194 1.610 . S
N1196 C1197 1.351 . S
C1197 C1191 1.428 . S
C1197 N1196 1.351 . S
C1197 C1198 1.434 . S
C1198 C1189 1.429 . S
C1198 N1195 1.350 . S
C1198 C1197 1.434 . S
C1199 C1200 1.369 . S
C1199 C1201 1.419 . S
C1199 H1203 0.930 . S
C1200 C1199 1.369 . S
C1200 C1209 1.429 . S
C1201 C1199 1.419 . S
C1201 C1202 1.363 . S
C1201 H1204 0.929 . S
C1202 C1201 1.363 . S
C1202 C1208 1.428 . S
H1203 C1199 0.930 . S
H1204 C1201 0.929 . S
S1205 N1206 1.613 . S
S1205 N1207 1.610 . S
N1206 S1205 1.613 . S
N1206 C1209 1.350 . S
N1207 S1205 1.610 . S
N1207 C1208 1.351 . S
C1208 C1202 1.428 . S
C1208 N1207 1.351 . S
C1208 C1209 1.434 . S
C1209 C1200 1.429 . S
C1209 N1206 1.350 . S
C1209 C1208 1.434 . S
C1210 C1211 1.369 . S
C1210 C1212 1.419 . S
C1210 H1214 0.930 . S
C1211 C1210 1.369 . S
C1211 C1220 1.429 . S
C1212 C1210 1.419 . S
C1212 C1213 1.363 . S
C1212 H1215 0.929 . S
C1213 C1212 1.363 . S
C1213 C1219 1.428 . S
H1214 C1210 0.930 . S
H1215 C1212 0.929 . S
S1216 N1217 1.613 . S
S1216 N1218 1.610 . S
N1217 S1216 1.613 . S
N1217 C1220 1.350 . S
N1218 S1216 1.610 . S
N1218 C1219 1.351 . S
C1219 C1213 1.428 . S
C1219 N1218 1.351 . S
C1219 C1220 1.434 . S
C1220 C1211 1.429 . S
C1220 N1217 1.350 . S
C1220 C1219 1.434 . S
C1221 C1222 1.369 . S
C1221 C1223 1.419 . S
C1221 H1225 0.930 . S
C1222 C1221 1.369 . S
C1222 C1231 1.429 . S
C1223 C1221 1.419 . S
C1223 C1224 1.363 . S
C1223 H1226 0.929 . S
C1224 C1223 1.363 . S
C1224 C1230 1.428 . S
H1225 C1221 0.930 . S
H1226 C1223 0.929 . S
S1227 N1228 1.613 . S
S1227 N1229 1.610 . S
N1228 S1227 1.613 . S
N1228 C1231 1.350 . S
N1229 S1227 1.610 . S
N1229 C1230 1.351 . S
C1230 C1224 1.428 . S
C1230 N1229 1.351 . S
C1230 C1231 1.434 . S
C1231 C1222 1.429 . S
C1231 N1228 1.350 . S
C1231 C1230 1.434 . S
C1232 C1233 1.369 . S
C1232 C1234 1.419 . S
C1232 H1236 0.930 . S
C1233 C1232 1.369 . S
C1233 C1242 1.429 . S
C1234 C1232 1.419 . S
C1234 C1235 1.363 . S
C1234 H1237 0.929 . S
C1235 C1234 1.363 . S
C1235 C1241 1.428 . S
H1236 C1232 0.930 . S
H1237 C1234 0.929 . S
S1238 N1239 1.613 . S
S1238 N1240 1.610 . S
N1239 S1238 1.613 . S
N1239 C1242 1.350 . S
N1240 S1238 1.610 . S
N1240 C1241 1.351 . S
C1241 C1235 1.428 . S
C1241 N1240 1.351 . S
C1241 C1242 1.434 . S
C1242 C1233 1.429 . S
C1242 N1239 1.350 . S
C1242 C1241 1.434 . S
C1243 C1244 1.369 . S
C1243 C1245 1.419 . S
C1243 H1247 0.930 . S
C1244 C1243 1.369 . S
C1244 C1253 1.429 . S
C1245 C1243 1.419 . S
C1245 C1246 1.363 . S
C1245 H1248 0.929 . S
C1246 C1245 1.363 . S
C1246 C1252 1.428 . S
H1247 C1243 0.930 . S
H1248 C1245 0.929 . S
S1249 N1250 1.613 . S
S1249 N1251 1.610 . S
N1250 S1249 1.613 . S
N1250 C1253 1.350 . S
N1251 S1249 1.610 . S
N1251 C1252 1.351 . S
C1252 C1246 1.428 . S
C1252 N1251 1.351 . S
C1252 C1253 1.434 . S
C1253 C1244 1.429 . S
C1253 N1250 1.350 . S
C1253 C1252 1.434 . S
C1254 C1255 1.369 . S
C1254 C1256 1.419 . S
C1254 H1258 0.930 . S
C1255 C1254 1.369 . S
C1255 C1264 1.429 . S
C1256 C1254 1.419 . S
C1256 C1257 1.363 . S
C1256 H1259 0.929 . S
C1257 C1256 1.363 . S
C1257 C1263 1.428 . S
H1258 C1254 0.930 . S
H1259 C1256 0.929 . S
S1260 N1261 1.613 . S
S1260 N1262 1.610 . S
N1261 S1260 1.613 . S
N1261 C1264 1.350 . S
N1262 S1260 1.610 . S
N1262 C1263 1.351 . S
C1263 C1257 1.428 . S
C1263 N1262 1.351 . S
C1263 C1264 1.434 . S
C1264 C1255 1.429 . S
C1264 N1261 1.350 . S
C1264 C1263 1.434 . S
C1265 C1266 1.369 . S
C1265 C1267 1.419 . S
C1265 H1269 0.930 . S
C1266 C1265 1.369 . S
C1266 C1275 1.429 1_455 S
C1267 C1265 1.419 . S
C1267 C1268 1.363 1_455 S
C1267 H1270 0.929 . S
C1268 C1267 1.363 1_655 S
C1268 C1274 1.428 . S
H1269 C1265 0.930 . S
H1270 C1267 0.929 . S
S1271 N1272 1.613 . S
S1271 N1273 1.610 . S
N1272 S1271 1.613 . S
N1272 C1275 1.350 . S
N1273 S1271 1.610 . S
N1273 C1274 1.351 . S
C1274 C1268 1.428 . S
C1274 N1273 1.351 . S
C1274 C1275 1.434 . S
C1275 C1266 1.429 1_655 S
C1275 N1272 1.350 . S
C1275 C1274 1.434 . S
C1276 C1277 1.369 . S
C1276 C1278 1.419 . S
C1276 H1280 0.930 . S
C1277 C1276 1.369 . S
C1277 C1286 1.429 1_565 S
C1278 C1276 1.419 . S
C1278 C1279 1.363 1_565 S
C1278 H1281 0.929 . S
C1279 C1278 1.363 1_545 S
C1279 C1285 1.428 . S
H1280 C1276 0.930 . S
H1281 C1278 0.929 . S
S1282 N1283 1.613 . S
S1282 N1284 1.610 . S
N1283 S1282 1.613 . S
N1283 C1286 1.350 . S
N1284 S1282 1.610 . S
N1284 C1285 1.351 . S
C1285 C1279 1.428 . S
C1285 N1284 1.351 . S
C1285 C1286 1.434 . S
C1286 C1277 1.429 1_545 S
C1286 N1283 1.350 . S
C1286 C1285 1.434 . S
C1287 C1288 1.369 . S
C1287 C1289 1.419 . S
C1287 H1291 0.930 . S
C1288 C1287 1.369 . S
C1288 C1297 1.429 . S
C1289 C1287 1.419 . S
C1289 C1290 1.363 . S
C1289 H1292 0.929 . S
C1290 C1289 1.363 . S
C1290 C1296 1.428 . S
H1291 C1287 0.930 . S
H1292 C1289 0.929 . S
S1293 N1294 1.613 . S
S1293 N1295 1.610 . S
N1294 S1293 1.613 . S
N1294 C1297 1.350 . S
N1295 S1293 1.610 . S
N1295 C1296 1.351 . S
C1296 C1290 1.428 . S
C1296 N1295 1.351 . S
C1296 C1297 1.434 . S
C1297 C1288 1.429 . S
C1297 N1294 1.350 . S
C1297 C1296 1.434 . S
C1298 C1299 1.369 . S
C1298 C1300 1.419 . S
C1298 H1302 0.930 . S
C1299 C1298 1.369 . S
C1299 C1308 1.429 1_655 S
C1300 C1298 1.419 . S
C1300 C1301 1.363 1_655 S
C1300 H1303 0.929 . S
C1301 C1300 1.363 1_455 S
C1301 C1307 1.428 . S
H1302 C1298 0.930 . S
H1303 C1300 0.929 . S
S1304 N1305 1.613 . S
S1304 N1306 1.610 . S
N1305 S1304 1.613 . S
N1305 C1308 1.350 . S
N1306 S1304 1.610 . S
N1306 C1307 1.351 . S
C1307 C1301 1.428 . S
C1307 N1306 1.351 . S
C1307 C1308 1.434 . S
C1308 C1299 1.429 1_455 S
C1308 N1305 1.350 . S
C1308 C1307 1.434 . S
C1309 C1310 1.369 . S
C1309 C1311 1.419 1_545 S
C1309 H1313 0.930 . S
C1310 C1309 1.369 . S
C1310 C1319 1.429 . S
C1311 C1309 1.419 1_565 S
C1311 C1312 1.363 . S
C1311 H1314 0.929 . S
C1312 C1311 1.363 . S
C1312 C1318 1.428 . S
H1313 C1309 0.930 . S
H1314 C1311 0.929 . S
S1315 N1316 1.613 . S
S1315 N1317 1.610 1_545 S
N1316 S1315 1.613 . S
N1316 C1319 1.350 . S
N1317 S1315 1.610 1_565 S
N1317 C1318 1.351 . S
C1318 C1312 1.428 . S
C1318 N1317 1.351 . S
C1318 C1319 1.434 1_565 S
C1319 C1310 1.429 . S
C1319 N1316 1.350 . S
C1319 C1318 1.434 1_545 S
C1057 C673 1.682 . S
C1059 C29 1.682 . S
C1068 C137 1.680 . S
C1070 C753 1.674 . S
C1079 C233 1.679 . S
C1081 C849 1.679 . S
C1090 C284 1.683 . S
C1092 C929 1.683 . S
C1101 C1025 1.672 . S
C1103 C372 1.679 . S
C1112 C557 1.676 . S
C1114 C460 1.673 . S
C1123 C909 1.057 . S
C1125 C49 1.060 . S
C1134 C117 1.061 . S
C1136 C988 1.058 . S
C1145 C196 1.061 . S
C1147 C577 1.058 . S
C1156 C636 1.057 . S
C1158 C321 1.061 . S
C1167 C733 1.058 . S
C1169 C409 1.061 . S
C1178 C812 1.058 . S
C1180 C497 1.060 . S
C1189 C20 1.638 . S
C1191 C761 1.637 . S
C1200 C145 1.636 . S
C1202 C841 1.636 . S
C1211 C937 1.637 . S
C1213 C225 1.638 . S
C1222 C293 1.636 . S
C1224 C1017 1.637 . S
C1233 C548 1.636 . S
C1235 C381 1.636 . S
C1244 C665 1.637 . S
C1246 C469 1.637 . S
C1255 C313 2.251 . S
C1257 C57 2.256 . S
C1266 C401 2.259 . S
C1268 C108 2.268 . S
C1277 C205 2.246 . S
C1279 C489 2.253 . S
C1288 C585 2.252 . S
C1290 C821 2.258 . S
C1299 C645 2.249 . S
C1301 C900 2.249 . S
C1310 C997 2.262 . S
C1312 C724 2.265 . S
