# Generated by pormake.
# Topology unj, (4)-cn, num edge types: 1
# Building blocks:
#     Node 0, Type 0, BuildingBlock: NAHDIM_clean_sbu_0, # of connection points: 4
#     Node 1, Type 0, BuildingBlock: NAHDIM_clean_sbu_0, # of connection points: 4
#     Node 2, Type 0, BuildingBlock: NAHDIM_clean_sbu_0, # of connection points: 4
#     Node 3, Type 0, BuildingBlock: NAHDIM_clean_sbu_0, # of connection points: 4
#     Node 4, Type 0, BuildingBlock: NAHDIM_clean_sbu_0, # of connection points: 4
#     Node 5, Type 0, BuildingBlock: NAHDIM_clean_sbu_0, # of connection points: 4
#     Edge 6, Type (0, 0), BuildingBlock: EZIPEK_clean_linker_0, # of connection points: 2
#     Edge 7, Type (0, 0), BuildingBlock: EZIPEK_clean_linker_0, # of connection points: 2
#     Edge 8, Type (0, 0), BuildingBlock: EZIPEK_clean_linker_0, # of connection points: 2
#     Edge 9, Type (0, 0), BuildingBlock: EZIPEK_clean_linker_0, # of connection points: 2
#     Edge 10, Type (0, 0), BuildingBlock: EZIPEK_clean_linker_0, # of connection points: 2
#     Edge 11, Type (0, 0), BuildingBlock: EZIPEK_clean_linker_0, # of connection points: 2
#     Edge 12, Type (0, 0), BuildingBlock: EZIPEK_clean_linker_0, # of connection points: 2
#     Edge 13, Type (0, 0), BuildingBlock: EZIPEK_clean_linker_0, # of connection points: 2
#     Edge 14, Type (0, 0), BuildingBlock: EZIPEK_clean_linker_0, # of connection points: 2
#     Edge 15, Type (0, 0), BuildingBlock: EZIPEK_clean_linker_0, # of connection points: 2
#     Edge 16, Type (0, 0), BuildingBlock: EZIPEK_clean_linker_0, # of connection points: 2
#     Edge 17, Type (0, 0), BuildingBlock: EZIPEK_clean_linker_0, # of connection points: 2
# Relax obj value: 0.007
# Max RMSD: 0.037
# Mean RMSD: 0.037
data_MOF--net-unj--node1-NAHDIM_clean_sbu_0--edge1-EZIPEK_clean_linker_0
_symmetry_space_group_name_H-M    P1
_symmetry_Int_Tables_number       1
_symmetry_cell_setting            triclinic
loop_
_symmetry_equiv_pos_as_xyz
'x, y, z'
_cell_length_a     25.729023
_cell_length_b     25.662134
_cell_length_c     24.945601
_cell_angle_alpha  89.987958
_cell_angle_beta   90.385566
_cell_angle_gamma 120.21291
loop_
_atom_site_label
_atom_site_type_symbol
_atom_site_fract_x
_atom_site_fract_y
_atom_site_fract_z
_atom_type_partial_charge
C0 C 0.4496 0.32678 0.6385 0.0
O1 O 0.5085 0.36036 0.63959 0.0
O2 O 0.51989 0.29168 0.52714 0.0
Zn3 Zn 0.47699 0.24186 0.59191 0.0
O4 O 0.53721 0.25039 0.64876 0.0
C5 C 0.44421 0.12027 0.56079 0.0
O6 O 0.50132 0.13947 0.56987 0.0
O7 O 0.42513 0.27316 0.62064 0.0
C8 C 0.52025 0.21869 0.69108 0.0
O9 O 0.46306 0.17864 0.69721 0.0
C10 C 0.56122 0.28734 0.50365 0.0
O11 O 0.57847 0.25068 0.5226 0.0
O12 O 0.42357 0.15539 0.56833 0.0
C13 C 0.11326 0.42192 0.80189 0.0
O14 O 0.14181 0.47947 0.81442 0.0
O15 O 0.22257 0.50409 0.68899 0.0
Zn16 Zn 0.22541 0.45865 0.75385 0.0
O17 O 0.26763 0.51445 0.81613 0.0
C18 C 0.30791 0.43462 0.69794 0.0
O19 O 0.31745 0.48254 0.67096 0.0
O20 O 0.14027 0.40029 0.77564 0.0
C21 C 0.32199 0.55691 0.81459 0.0
O22 O 0.35317 0.56663 0.77052 0.0
C23 C 0.22174 0.55306 0.69159 0.0
O24 O 0.223 0.57713 0.73834 0.0
O25 O 0.26956 0.41477 0.73546 0.0
C26 C 0.68048 0.10789 0.98144 0.0
O27 O 0.652 0.13666 0.99388 0.0
O28 O 0.70376 0.21608 0.87135 0.0
Zn29 Zn 0.75868 0.22024 0.93189 0.0
O30 O 0.75438 0.26671 0.99595 0.0
C31 C 0.86731 0.29786 0.87253 0.0
O32 O 0.83472 0.31937 0.85229 0.0
O33 O 0.72896 0.13486 0.95497 0.0
C34 C 0.7896 0.32292 0.00315 0.0
O35 O 0.83047 0.35449 0.9672 0.0
C36 C 0.69173 0.25724 0.86031 0.0
O37 O 0.71665 0.3074 0.8884 0.0
O38 O 0.8444 0.25553 0.90665 0.0
C39 C 0.58903 0.70049 0.10016 0.0
O40 O 0.5908 0.70848 0.04807 0.0
O41 O 0.46696 0.69907 0.03155 0.0
Zn42 Zn 0.50854 0.74818 0.09812 0.0
O43 O 0.44891 0.73677 0.15506 0.0
C44 C 0.57476 0.8554 0.03375 0.0
O45 O 0.5617 0.81642 0.99465 0.0
O46 O 0.55913 0.71645 0.12924 0.0
C47 C 0.42157 0.7664 0.15648 0.0
O48 O 0.43056 0.80533 0.11837 0.0
C49 C 0.42612 0.70228 0.00536 0.0
O50 O 0.40763 0.73886 0.0215 0.0
O51 O 0.55803 0.83686 0.08117 0.0
C52 C 0.89248 0.61104 0.2568 0.0
O53 O 0.88844 0.60425 0.20449 0.0
O54 O 0.76538 0.48497 0.19181 0.0
Zn55 Zn 0.76248 0.53296 0.25495 0.0
O56 O 0.71269 0.47995 0.31586 0.0
C57 C 0.68734 0.56235 0.19397 0.0
O58 O 0.66553 0.50639 0.17783 0.0
O59 O 0.84539 0.58571 0.28516 0.0
C60 C 0.67132 0.42516 0.31174 0.0
O61 O 0.65619 0.39928 0.26441 0.0
C62 C 0.77838 0.44346 0.19541 0.0
O63 O 0.79103 0.42954 0.24251 0.0
O64 O 0.72929 0.58449 0.2288 0.0
C65 C 0.30866 0.87839 0.47712 0.0
O66 O 0.33705 0.84806 0.48179 0.0
O67 O 0.2806 0.76882 0.37383 0.0
Zn68 Zn 0.22511 0.76773 0.43167 0.0
O69 O 0.22855 0.72226 0.49591 0.0
C70 C 0.12708 0.74152 0.3583 0.0
O71 O 0.17078 0.78234 0.32886 0.0
O72 O 0.25684 0.85346 0.45531 0.0
C73 C 0.20745 0.66567 0.49582 0.0
O74 O 0.18224 0.63414 0.45214 0.0
C75 C 0.26318 0.73348 0.33357 0.0
O76 O 0.20667 0.69078 0.32963 0.0
O77 O 0.13913 0.72977 0.40471 0.0
C78 C 0.35744 0.01431 0.56768 0.0
C79 C 0.4054 0.05965 0.53741 0.0
C80 C 0.38711 0.98679 0.46583 0.0
C81 C 0.3384 0.94173 0.49558 0.0
N82 N 0.26991 0.9136 0.56973 0.0
N83 N 0.45774 0.09342 0.45347 0.0
C84 C 0.32104 0.95596 0.54481 0.0
C85 C 0.41794 0.04714 0.48521 0.0
N86 N 0.34872 0.02618 0.61926 0.0
N87 N 0.40439 0.97165 0.41939 0.0
H88 H 0.48047 0.13833 0.46607 0.0
H89 H 0.4644 0.08835 0.41314 0.0
H90 H 0.38058 0.9288 0.40211 0.0
H91 H 0.44402 0.00046 0.39938 0.0
H92 H 0.31915 0.99338 0.64565 0.0
H93 H 0.37428 0.06841 0.63725 0.0
H94 H 0.25117 0.9229 0.6026 0.0
H95 H 0.24341 0.86975 0.55515 0.0
C96 C 0.37282 0.35644 0.61638 0.0
C97 C 0.41198 0.35268 0.65456 0.0
C98 C 0.38432 0.4047 0.72112 0.0
C99 C 0.3418 0.40408 0.68422 0.0
N100 N 0.287 0.36945 0.60077 0.0
N101 N 0.4482 0.36406 0.74569 0.0
C102 C 0.33353 0.37702 0.63299 0.0
C103 C 0.41586 0.37427 0.70768 0.0
N104 N 0.37525 0.34326 0.56365 0.0
N105 N 0.39642 0.43648 0.76803 0.0
H106 H 0.47215 0.34224 0.73729 0.0
H107 H 0.44732 0.37265 0.78637 0.0
H108 H 0.37417 0.45922 0.77945 0.0
H109 H 0.43178 0.44442 0.79367 0.0
H110 H 0.35257 0.35156 0.53313 0.0
H111 H 0.40435 0.32934 0.5494 0.0
H112 H 0.27468 0.34416 0.56551 0.0
H113 H 0.25703 0.38368 0.61172 0.0
C114 C 0.97823 0.35098 0.89321 0.0
C115 C 0.93045 0.32309 0.85527 0.0
C116 C 0.00298 0.35649 0.78176 0.0
C117 C 0.05063 0.38294 0.81983 0.0
N118 N 0.08467 0.39314 0.91145 0.0
N119 N 0.89712 0.28633 0.76537 0.0
C120 C 0.03852 0.37637 0.87551 0.0
C121 C 0.94279 0.32195 0.80005 0.0
N122 N 0.96639 0.35606 0.94568 0.0
N123 N 0.01492 0.36658 0.72824 0.0
H124 H 0.85266 0.2594 0.77761 0.0
H125 H 0.90402 0.27884 0.72571 0.0
H126 H 0.05841 0.39057 0.71309 0.0
H127 H 0.98169 0.35485 0.69906 0.0
H128 H -0.00046 0.38246 0.97367 0.0
H129 H 0.92303 0.33764 0.96068 0.0
H130 H 0.07819 0.38373 0.95227 0.0
H131 H 0.12936 0.41133 0.89978 0.0
C132 C 0.66249 0.96112 0.03649 0.0
C133 C 0.60205 0.92024 0.02152 0.0
C134 C 0.59545 0.00124 0.97604 0.0
C135 C 0.65402 0.04331 0.99501 0.0
N136 N 0.73986 0.06543 0.0507 0.0
N137 N 0.50673 0.90321 0.98758 0.0
C138 C 0.6868 0.02387 0.0272 0.0
C139 C 0.56726 0.9408 0.99428 0.0
N140 N 0.69704 0.93982 0.05836 0.0
N141 N 0.5677 0.01826 0.93876 0.0
H142 H 0.4842 0.85905 1.00175 0.0
H143 H 0.47803 0.91758 0.97295 0.0
H144 H 0.58742 0.06173 0.92308 0.0
H145 H 0.52775 0.98785 0.91938 0.0
H146 H 0.74323 0.96649 0.06463 0.0
H147 H 0.68033 0.89425 0.06652 0.0
H148 H 0.76262 0.0544 0.07904 0.0
H149 H 0.7587 0.11179 0.04546 0.0
C150 C 0.70124 0.65266 0.14256 0.0
C151 C 0.66307 0.59913 0.17136 0.0
C152 C 0.57594 0.60933 0.14859 0.0
C153 C 0.61482 0.66575 0.12425 0.0
N154 N 0.71525 0.74608 0.10511 0.0
N155 N 0.56646 0.53268 0.21082 0.0
C156 C 0.67777 0.68887 0.12316 0.0
C157 C 0.60103 0.57916 0.17693 0.0
N158 N 0.75911 0.66754 0.13167 0.0
N159 N 0.51496 0.58323 0.14269 0.0
H160 H 0.58341 0.51002 0.23307 0.0
H161 H 0.52253 0.52043 0.22085 0.0
H162 H 0.49457 0.60311 0.12121 0.0
H163 H 0.48476 0.53928 0.1546 0.0
H164 H 0.78693 0.70233 0.10594 0.0
H165 H 0.77788 0.64188 0.14453 0.0
H166 H 0.76189 0.76789 0.10883 0.0
H167 H 0.6996 0.7738 0.09043 0.0
C168 C 0.03322 0.6432 0.33452 0.0
C169 C 0.06497 0.70745 0.33589 0.0
C170 C 0.9851 0.70807 0.28184 0.0
C171 C 0.95198 0.64422 0.28342 0.0
N172 N 0.93934 0.55055 0.31745 0.0
N173 N 0.0647 0.8003 0.32154 0.0
C174 C 0.97435 0.61172 0.31194 0.0
C175 C 0.03917 0.73972 0.31235 0.0
N176 N 0.06029 0.61198 0.35181 0.0
N177 N 0.96496 0.73853 0.25109 0.0
H178 H 0.10279 0.82461 0.34563 0.0
H179 H 0.04486 0.82533 0.31003 0.0
H180 H 0.92418 0.7171 0.23015 0.0
H181 H 0.99055 0.78452 0.24326 0.0
H182 H 0.04256 0.56604 0.34506 0.0
H183 H 0.10279 0.6321 0.36933 0.0
H184 H 0.94959 0.52544 0.34377 0.0
H185 H 0.89778 0.52501 0.29837 0.0
C186 C 0.65268 0.35961 0.45175 0.0
C187 C 0.58922 0.32279 0.45457 0.0
C188 C 0.5794 0.35828 0.36586 0.0
C189 C 0.6429 0.38968 0.36069 0.0
N190 N 0.73936 0.4087 0.39411 0.0
N191 N 0.49274 0.2769 0.40932 0.0
C192 C 0.67947 0.38719 0.40236 0.0
C193 C 0.55261 0.31927 0.41025 0.0
N194 N 0.68738 0.37035 0.49669 0.0
N195 N 0.5447 0.36738 0.3296 0.0
H196 H 0.47161 0.24591 0.44009 0.0
H197 H 0.46543 0.26842 0.37563 0.0
H198 H 0.56264 0.39671 0.2972 0.0
H199 H 0.49879 0.35045 0.33466 0.0
H200 H 0.73323 0.40181 0.49796 0.0
H201 H 0.66948 0.35259 0.53416 0.0
H202 H 0.76659 0.4023 0.42126 0.0
H203 H 0.76059 0.42729 0.35787 0.0
C204 C 0.26811 0.65204 0.56766 0.0
C205 C 0.21096 0.63564 0.54527 0.0
C206 C 0.16112 0.56213 0.6172 0.0
C207 C 0.21797 0.58205 0.64174 0.0
N208 N 0.32503 0.65043 0.64499 0.0
N209 N 0.10279 0.58241 0.55254 0.0
C210 C 0.27135 0.62847 0.61838 0.0
C211 C 0.15729 0.59237 0.57088 0.0
N212 N 0.31918 0.68802 0.53928 0.0
N213 N 0.11085 0.51392 0.63798 0.0
H214 H 0.09805 0.60413 0.51912 0.0
H215 H 0.06259 0.55649 0.57285 0.0
H216 H 0.1115 0.49256 0.67334 0.0
H217 H 0.06928 0.49254 0.61848 0.0
H218 H 0.36174 0.69655 0.55071 0.0
H219 H 0.31859 0.70533 0.50158 0.0
H220 H 0.36442 0.68885 0.63325 0.0
H221 H 0.32941 0.63267 0.68124 0.0
C222 C 0.59465 0.2483 0.829 0.0
C223 C 0.64814 0.24769 0.81685 0.0
C224 C 0.61494 0.22227 0.72322 0.0
C225 C 0.56434 0.22864 0.73429 0.0
N226 N 0.51204 0.25903 0.79548 0.0
N227 N 0.71444 0.24425 0.75079 0.0
C228 C 0.55579 0.24473 0.7866 0.0
C229 C 0.65975 0.23742 0.76349 0.0
N230 N 0.57955 0.24971 0.88123 0.0
N231 N 0.61905 0.19936 0.675 0.0
H232 H 0.74853 0.25548 0.77902 0.0
H233 H 0.72803 0.24411 0.71158 0.0
H234 H 0.58692 0.18704 0.64466 0.0
H235 H 0.6513 0.18735 0.66683 0.0
H236 H 0.53797 0.24354 0.89268 0.0
H237 H 0.60618 0.25127 0.91359 0.0
H238 H 0.50823 0.27772 0.83126 0.0
H239 H 0.48291 0.25759 0.76554 0.0
C240 C 0.35299 0.56685 0.91124 0.0
C241 C 0.3501 0.5945 0.8629 0.0
C242 C 0.40305 0.69358 0.90658 0.0
C243 C 0.39995 0.66522 0.95632 0.0
N244 N 0.36209 0.57379 0.00799 0.0
N245 N 0.36286 0.68274 0.81661 0.0
C246 C 0.37229 0.6015 0.95923 0.0
C247 C 0.3726 0.65753 0.86105 0.0
N248 N 0.33942 0.50804 0.91096 0.0
N249 N 0.43711 0.75487 0.90217 0.0
H250 H 0.3403 0.65788 0.78256 0.0
H251 H 0.37229 0.72723 0.81532 0.0
H252 H 0.46109 0.78287 0.93422 0.0
H253 H 0.44631 0.77745 0.86568 0.0
H254 H 0.34687 0.48743 0.94375 0.0
H255 H 0.32624 0.4814 0.8764 0.0
H256 H 0.33636 0.52723 0.01279 0.0
H257 H 0.37432 0.59737 0.04424 0.0
C258 C 0.73343 0.35552 0.06362 0.0
C259 C 0.78593 0.35254 0.05282 0.0
C260 C 0.83515 0.41378 0.1328 0.0
C261 C 0.78084 0.41213 0.1463 0.0
N262 N 0.67516 0.37362 0.12897 0.0
N263 N 0.88248 0.36862 0.08214 0.0
C264 C 0.7291 0.38094 0.11286 0.0
C265 C 0.83566 0.37885 0.08881 0.0
N266 N 0.68857 0.33612 0.02596 0.0
N267 N 0.88701 0.45087 0.16042 0.0
H268 H 0.88403 0.34237 0.05098 0.0
H269 H 0.91689 0.38119 0.11028 0.0
H270 H 0.889 0.47834 0.19211 0.0
H271 H 0.92917 0.45888 0.14868 0.0
H272 H 0.65255 0.34373 0.02867 0.0
H273 H 0.68968 0.31666 0.98966 0.0
H274 H 0.63453 0.34531 0.10955 0.0
H275 H 0.66994 0.39184 0.16439 0.0
C276 C 0.34291 0.80092 0.26789 0.0
C277 C 0.3053 0.74249 0.28944 0.0
C278 C 0.338 0.69927 0.21888 0.0
C279 C 0.38127 0.7582 0.20194 0.0
N280 N 0.43492 0.86537 0.2206 0.0
N281 N 0.27875 0.6378 0.2929 0.0
C282 C 0.38671 0.80921 0.22937 0.0
C283 C 0.3062 0.69207 0.26712 0.0
N284 N 0.33519 0.84808 0.28185 0.0
N285 N 0.32518 0.65023 0.18793 0.0
H286 H 0.25756 0.63129 0.3298 0.0
H287 H 0.28301 0.60131 0.28064 0.0
H288 H 0.34506 0.65354 0.15084 0.0
H289 H 0.28994 0.60699 0.19628 0.0
H290 H 0.35798 0.88997 0.26313 0.0
H291 H 0.30141 0.8438 0.30741 0.0
H292 H 0.44351 0.90286 0.24354 0.0
H293 H 0.46992 0.87336 0.19488 0.0
loop_
_geom_bond_atom_site_label_1
_geom_bond_atom_site_label_2
_geom_bond_distance
_geom_bond_site_symmetry_2
_ccdc_geom_bond_type
C0 O1 1.160 . S
C0 O7 1.185 . S
O1 C0 1.160 . S
O2 Zn3 1.899 . S
O2 C10 1.284 . S
Zn3 O2 1.899 . S
Zn3 O4 2.032 . S
Zn3 O7 2.086 . S
Zn3 O12 1.977 . S
O4 Zn3 2.032 . S
O4 C8 1.278 . S
C5 O6 1.203 . S
C5 O12 1.267 . S
O6 C5 1.203 . S
O7 C0 1.185 . S
O7 Zn3 2.086 . S
C8 O4 1.278 . S
C8 O9 1.211 . S
O9 C8 1.211 . S
C10 O2 1.284 . S
C10 O11 1.273 . S
O11 C10 1.273 . S
O12 Zn3 1.977 . S
O12 C5 1.267 . S
C13 O14 1.160 . S
C13 O20 1.185 . S
O14 C13 1.160 . S
O15 Zn16 1.899 . S
O15 C23 1.284 . S
Zn16 O15 1.899 . S
Zn16 O17 2.032 . S
Zn16 O20 2.086 . S
Zn16 O25 1.977 . S
O17 Zn16 2.032 . S
O17 C21 1.278 . S
C18 O19 1.203 . S
C18 O25 1.267 . S
O19 C18 1.203 . S
O20 C13 1.185 . S
O20 Zn16 2.086 . S
C21 O17 1.278 . S
C21 O22 1.211 . S
O22 C21 1.211 . S
C23 O15 1.284 . S
C23 O24 1.273 . S
O24 C23 1.273 . S
O25 Zn16 1.977 . S
O25 C18 1.267 . S
C26 O27 1.160 . S
C26 O33 1.185 . S
O27 C26 1.160 . S
O28 Zn29 1.899 . S
O28 C36 1.284 . S
Zn29 O28 1.899 . S
Zn29 O30 2.032 . S
Zn29 O33 2.086 . S
Zn29 O38 1.977 . S
O30 Zn29 2.032 . S
O30 C34 1.278 . S
C31 O32 1.203 . S
C31 O38 1.267 . S
O32 C31 1.203 . S
O33 C26 1.185 . S
O33 Zn29 2.086 . S
C34 O30 1.278 . S
C34 O35 1.211 . S
O35 C34 1.211 . S
C36 O28 1.284 . S
C36 O37 1.273 . S
O37 C36 1.273 . S
O38 Zn29 1.977 . S
O38 C31 1.267 . S
C39 O40 1.160 . S
C39 O46 1.185 . S
O40 C39 1.160 . S
O41 Zn42 1.899 . S
O41 C49 1.284 . S
Zn42 O41 1.899 . S
Zn42 O43 2.032 . S
Zn42 O46 2.086 . S
Zn42 O51 1.977 . S
O43 Zn42 2.032 . S
O43 C47 1.278 . S
C44 O45 1.203 . S
C44 O51 1.267 . S
O45 C44 1.203 . S
O46 C39 1.185 . S
O46 Zn42 2.086 . S
C47 O43 1.278 . S
C47 O48 1.211 . S
O48 C47 1.211 . S
C49 O41 1.284 . S
C49 O50 1.273 . S
O50 C49 1.273 . S
O51 Zn42 1.977 . S
O51 C44 1.267 . S
C52 O53 1.160 . S
C52 O59 1.185 . S
O53 C52 1.160 . S
O54 Zn55 1.899 . S
O54 C62 1.284 . S
Zn55 O54 1.899 . S
Zn55 O56 2.032 . S
Zn55 O59 2.086 . S
Zn55 O64 1.977 . S
O56 Zn55 2.032 . S
O56 C60 1.278 . S
C57 O58 1.203 . S
C57 O64 1.267 . S
O58 C57 1.203 . S
O59 C52 1.185 . S
O59 Zn55 2.086 . S
C60 O56 1.278 . S
C60 O61 1.211 . S
O61 C60 1.211 . S
C62 O54 1.284 . S
C62 O63 1.273 . S
O63 C62 1.273 . S
O64 Zn55 1.977 . S
O64 C57 1.267 . S
C65 O66 1.160 . S
C65 O72 1.185 . S
O66 C65 1.160 . S
O67 Zn68 1.899 . S
O67 C75 1.284 . S
Zn68 O67 1.899 . S
Zn68 O69 2.032 . S
Zn68 O72 2.086 . S
Zn68 O77 1.977 . S
O69 Zn68 2.032 . S
O69 C73 1.278 . S
C70 O71 1.203 . S
C70 O77 1.267 . S
O71 C70 1.203 . S
O72 C65 1.185 . S
O72 Zn68 2.086 . S
C73 O69 1.278 . S
C73 O74 1.211 . S
O74 C73 1.211 . S
C75 O67 1.284 . S
C75 O76 1.273 . S
O76 C75 1.273 . S
O77 Zn68 1.977 . S
O77 C70 1.267 . S
C78 C79 1.363 . S
C78 C84 1.379 1_545 S
C78 N86 1.356 . S
C79 C78 1.363 . S
C79 C85 1.363 . S
C80 C81 1.363 . S
C80 C85 1.379 1_565 S
C80 N87 1.356 . S
C81 C80 1.363 . S
C81 C84 1.363 . S
N82 C84 1.356 . S
N82 H94 0.984 . S
N82 H95 0.985 . S
N83 C85 1.356 . S
N83 H88 0.984 . S
N83 H89 0.985 . S
C84 C78 1.379 1_565 S
C84 C81 1.363 . S
C84 N82 1.356 . S
C85 C79 1.363 . S
C85 C80 1.379 1_545 S
C85 N83 1.356 . S
N86 C78 1.356 . S
N86 H92 0.984 . S
N86 H93 0.984 . S
N87 C80 1.356 . S
N87 H90 0.984 . S
N87 H91 0.985 . S
H88 N83 0.984 . S
H89 N83 0.985 . S
H90 N87 0.984 . S
H91 N87 0.985 . S
H92 N86 0.984 . S
H93 N86 0.984 . S
H94 N82 0.984 . S
H95 N82 0.985 . S
C96 C97 1.363 . S
C96 C102 1.379 . S
C96 N104 1.356 . S
C97 C96 1.363 . S
C97 C103 1.363 . S
C98 C99 1.363 . S
C98 C103 1.379 . S
C98 N105 1.356 . S
C99 C98 1.363 . S
C99 C102 1.363 . S
N100 C102 1.356 . S
N100 H112 0.984 . S
N100 H113 0.985 . S
N101 C103 1.356 . S
N101 H106 0.984 . S
N101 H107 0.985 . S
C102 C96 1.379 . S
C102 C99 1.363 . S
C102 N100 1.356 . S
C103 C97 1.363 . S
C103 C98 1.379 . S
C103 N101 1.356 . S
N104 C96 1.356 . S
N104 H110 0.984 . S
N104 H111 0.984 . S
N105 C98 1.356 . S
N105 H108 0.984 . S
N105 H109 0.985 . S
H106 N101 0.984 . S
H107 N101 0.985 . S
H108 N105 0.984 . S
H109 N105 0.985 . S
H110 N104 0.984 . S
H111 N104 0.984 . S
H112 N100 0.984 . S
H113 N100 0.985 . S
C114 C115 1.363 . S
C114 C120 1.379 1_655 S
C114 N122 1.356 . S
C115 C114 1.363 . S
C115 C121 1.363 . S
C116 C117 1.363 . S
C116 C121 1.379 1_455 S
C116 N123 1.356 . S
C117 C116 1.363 . S
C117 C120 1.363 . S
N118 C120 1.356 . S
N118 H130 0.984 . S
N118 H131 0.985 . S
N119 C121 1.356 . S
N119 H124 0.984 . S
N119 H125 0.985 . S
C120 C114 1.379 1_455 S
C120 C117 1.363 . S
C120 N118 1.356 . S
C121 C115 1.363 . S
C121 C116 1.379 1_655 S
C121 N119 1.356 . S
N122 C114 1.356 . S
N122 H128 0.984 . S
N122 H129 0.984 . S
N123 C116 1.356 . S
N123 H126 0.984 . S
N123 H127 0.985 . S
H124 N119 0.984 . S
H125 N119 0.985 . S
H126 N123 0.984 . S
H127 N123 0.985 . S
H128 N122 0.984 . S
H129 N122 0.984 . S
H130 N118 0.984 . S
H131 N118 0.985 . S
C132 C133 1.363 . S
C132 C138 1.379 1_565 S
C132 N140 1.356 . S
C133 C132 1.363 . S
C133 C139 1.363 1_554 S
C134 C135 1.363 . S
C134 C139 1.379 1_545 S
C134 N141 1.356 . S
C135 C134 1.363 . S
C135 C138 1.363 1_556 S
N136 C138 1.356 . S
N136 H148 0.984 . S
N136 H149 0.985 1_554 S
N137 C139 1.356 . S
N137 H142 0.984 1_556 S
N137 H143 0.985 . S
C138 C132 1.379 1_545 S
C138 C135 1.363 1_554 S
C138 N136 1.356 . S
C139 C133 1.363 1_556 S
C139 C134 1.379 1_565 S
C139 N137 1.356 . S
N140 C132 1.356 . S
N140 H146 0.984 . S
N140 H147 0.984 . S
N141 C134 1.356 . S
N141 H144 0.984 . S
N141 H145 0.985 . S
H142 N137 0.984 1_554 S
H143 N137 0.985 . S
H144 N141 0.984 . S
H145 N141 0.985 . S
H146 N140 0.984 . S
H147 N140 0.984 . S
H148 N136 0.984 . S
H149 N136 0.985 1_556 S
C150 C151 1.363 . S
C150 C156 1.379 . S
C150 N158 1.356 . S
C151 C150 1.363 . S
C151 C157 1.363 . S
C152 C153 1.363 . S
C152 C157 1.379 . S
C152 N159 1.356 . S
C153 C152 1.363 . S
C153 C156 1.363 . S
N154 C156 1.356 . S
N154 H166 0.984 . S
N154 H167 0.985 . S
N155 C157 1.356 . S
N155 H160 0.984 . S
N155 H161 0.985 . S
C156 C150 1.379 . S
C156 C153 1.363 . S
C156 N154 1.356 . S
C157 C151 1.363 . S
C157 C152 1.379 . S
C157 N155 1.356 . S
N158 C150 1.356 . S
N158 H164 0.984 . S
N158 H165 0.984 . S
N159 C152 1.356 . S
N159 H162 0.984 . S
N159 H163 0.985 . S
H160 N155 0.984 . S
H161 N155 0.985 . S
H162 N159 0.984 . S
H163 N159 0.985 . S
H164 N158 0.984 . S
H165 N158 0.984 . S
H166 N154 0.984 . S
H167 N154 0.985 . S
C168 C169 1.363 . S
C168 C174 1.379 1_455 S
C168 N176 1.356 . S
C169 C168 1.363 . S
C169 C175 1.363 . S
C170 C171 1.363 . S
C170 C175 1.379 1_655 S
C170 N177 1.356 . S
C171 C170 1.363 . S
C171 C174 1.363 . S
N172 C174 1.356 . S
N172 H184 0.984 . S
N172 H185 0.985 . S
N173 C175 1.356 . S
N173 H178 0.984 . S
N173 H179 0.985 . S
C174 C168 1.379 1_655 S
C174 C171 1.363 . S
C174 N172 1.356 . S
C175 C169 1.363 . S
C175 C170 1.379 1_455 S
C175 N173 1.356 . S
N176 C168 1.356 . S
N176 H182 0.984 . S
N176 H183 0.984 . S
N177 C170 1.356 . S
N177 H180 0.984 . S
N177 H181 0.985 . S
H178 N173 0.984 . S
H179 N173 0.985 . S
H180 N177 0.984 . S
H181 N177 0.985 . S
H182 N176 0.984 . S
H183 N176 0.984 . S
H184 N172 0.984 . S
H185 N172 0.985 . S
C186 C187 1.363 . S
C186 C192 1.379 . S
C186 N194 1.356 . S
C187 C186 1.363 . S
C187 C193 1.363 . S
C188 C189 1.363 . S
C188 C193 1.379 . S
C188 N195 1.356 . S
C189 C188 1.363 . S
C189 C192 1.363 . S
N190 C192 1.356 . S
N190 H202 0.984 . S
N190 H203 0.985 . S
N191 C193 1.356 . S
N191 H196 0.984 . S
N191 H197 0.985 . S
C192 C186 1.379 . S
C192 C189 1.363 . S
C192 N190 1.356 . S
C193 C187 1.363 . S
C193 C188 1.379 . S
C193 N191 1.356 . S
N194 C186 1.356 . S
N194 H200 0.984 . S
N194 H201 0.984 . S
N195 C188 1.356 . S
N195 H198 0.984 . S
N195 H199 0.985 . S
H196 N191 0.984 . S
H197 N191 0.985 . S
H198 N195 0.984 . S
H199 N195 0.985 . S
H200 N194 0.984 . S
H201 N194 0.984 . S
H202 N190 0.984 . S
H203 N190 0.985 . S
C204 C205 1.363 . S
C204 C210 1.379 . S
C204 N212 1.356 . S
C205 C204 1.363 . S
C205 C211 1.363 . S
C206 C207 1.363 . S
C206 C211 1.379 . S
C206 N213 1.356 . S
C207 C206 1.363 . S
C207 C210 1.363 . S
N208 C210 1.356 . S
N208 H220 0.984 . S
N208 H221 0.985 . S
N209 C211 1.356 . S
N209 H214 0.984 . S
N209 H215 0.985 . S
C210 C204 1.379 . S
C210 C207 1.363 . S
C210 N208 1.356 . S
C211 C205 1.363 . S
C211 C206 1.379 . S
C211 N209 1.356 . S
N212 C204 1.356 . S
N212 H218 0.984 . S
N212 H219 0.984 . S
N213 C206 1.356 . S
N213 H216 0.984 . S
N213 H217 0.985 . S
H214 N209 0.984 . S
H215 N209 0.985 . S
H216 N213 0.984 . S
H217 N213 0.985 . S
H218 N212 0.984 . S
H219 N212 0.984 . S
H220 N208 0.984 . S
H221 N208 0.985 . S
C222 C223 1.363 . S
C222 C228 1.379 . S
C222 N230 1.356 . S
C223 C222 1.363 . S
C223 C229 1.363 . S
C224 C225 1.363 . S
C224 C229 1.379 . S
C224 N231 1.356 . S
C225 C224 1.363 . S
C225 C228 1.363 . S
N226 C228 1.356 . S
N226 H238 0.984 . S
N226 H239 0.985 . S
N227 C229 1.356 . S
N227 H232 0.984 . S
N227 H233 0.985 . S
C228 C222 1.379 . S
C228 C225 1.363 . S
C228 N226 1.356 . S
C229 C223 1.363 . S
C229 C224 1.379 . S
C229 N227 1.356 . S
N230 C222 1.356 . S
N230 H236 0.984 . S
N230 H237 0.984 . S
N231 C224 1.356 . S
N231 H234 0.984 . S
N231 H235 0.985 . S
H232 N227 0.984 . S
H233 N227 0.985 . S
H234 N231 0.984 . S
H235 N231 0.985 . S
H236 N230 0.984 . S
H237 N230 0.984 . S
H238 N226 0.984 . S
H239 N226 0.985 . S
C240 C241 1.363 . S
C240 C246 1.379 . S
C240 N248 1.356 . S
C241 C240 1.363 . S
C241 C247 1.363 . S
C242 C243 1.363 . S
C242 C247 1.379 . S
C242 N249 1.356 . S
C243 C242 1.363 . S
C243 C246 1.363 . S
N244 C246 1.356 1_554 S
N244 H256 0.984 . S
N244 H257 0.985 . S
N245 C247 1.356 . S
N245 H250 0.984 . S
N245 H251 0.985 . S
C246 C240 1.379 . S
C246 C243 1.363 . S
C246 N244 1.356 1_556 S
C247 C241 1.363 . S
C247 C242 1.379 . S
C247 N245 1.356 . S
N248 C240 1.356 . S
N248 H254 0.984 . S
N248 H255 0.984 . S
N249 C242 1.356 . S
N249 H252 0.984 . S
N249 H253 0.985 . S
H250 N245 0.984 . S
H251 N245 0.985 . S
H252 N249 0.984 . S
H253 N249 0.985 . S
H254 N248 0.984 . S
H255 N248 0.984 . S
H256 N244 0.984 . S
H257 N244 0.985 . S
C258 C259 1.363 . S
C258 C264 1.379 . S
C258 N266 1.356 . S
C259 C258 1.363 . S
C259 C265 1.363 . S
C260 C261 1.363 . S
C260 C265 1.379 . S
C260 N267 1.356 . S
C261 C260 1.363 . S
C261 C264 1.363 . S
N262 C264 1.356 . S
N262 H274 0.984 . S
N262 H275 0.985 . S
N263 C265 1.356 . S
N263 H268 0.984 . S
N263 H269 0.985 . S
C264 C258 1.379 . S
C264 C261 1.363 . S
C264 N262 1.356 . S
C265 C259 1.363 . S
C265 C260 1.379 . S
C265 N263 1.356 . S
N266 C258 1.356 . S
N266 H272 0.984 . S
N266 H273 0.984 1_554 S
N267 C260 1.356 . S
N267 H270 0.984 . S
N267 H271 0.985 . S
H268 N263 0.984 . S
H269 N263 0.985 . S
H270 N267 0.984 . S
H271 N267 0.985 . S
H272 N266 0.984 . S
H273 N266 0.984 1_556 S
H274 N262 0.984 . S
H275 N262 0.985 . S
C276 C277 1.363 . S
C276 C282 1.379 . S
C276 N284 1.356 . S
C277 C276 1.363 . S
C277 C283 1.363 . S
C278 C279 1.363 . S
C278 C283 1.379 . S
C278 N285 1.356 . S
C279 C278 1.363 . S
C279 C282 1.363 . S
N280 C282 1.356 . S
N280 H292 0.984 . S
N280 H293 0.985 . S
N281 C283 1.356 . S
N281 H286 0.984 . S
N281 H287 0.985 . S
C282 C276 1.379 . S
C282 C279 1.363 . S
C282 N280 1.356 . S
C283 C277 1.363 . S
C283 C278 1.379 . S
C283 N281 1.356 . S
N284 C276 1.356 . S
N284 H290 0.984 . S
N284 H291 0.984 . S
N285 C278 1.356 . S
N285 H288 0.984 . S
N285 H289 0.985 . S
H286 N281 0.984 . S
H287 N281 0.985 . S
H288 N285 0.984 . S
H289 N285 0.985 . S
H290 N284 0.984 . S
H291 N284 0.984 . S
H292 N280 0.984 . S
H293 N280 0.985 . S
C79 C5 1.425 . S
C81 C65 1.421 . S
C97 C0 1.421 . S
C99 C18 1.425 . S
C115 C31 1.425 . S
C117 C13 1.421 . S
C133 C44 1.425 . S
C135 C26 1.421 . S
C151 C57 1.425 . S
C153 C39 1.421 . S
C169 C70 1.425 . S
C171 C52 1.421 . S
C187 C10 1.514 . S
C189 C60 1.495 . S
C205 C73 1.495 . S
C207 C23 1.514 . S
C223 C36 1.514 . S
C225 C8 1.495 . S
C241 C21 1.495 . S
C243 C49 1.514 1_556 S
C259 C34 1.495 1_554 S
C261 C62 1.514 . S
C277 C75 1.514 . S
C279 C47 1.495 . S
