# Generated by pormake.
# Topology vmi, (6)-cn, num edge types: 1
# Building blocks:
#     Node 0, Type 0, BuildingBlock: IZENUY_clean_sbu_0, # of connection points: 6
#     Node 1, Type 0, BuildingBlock: IZENUY_clean_sbu_0, # of connection points: 6
#     Node 2, Type 0, BuildingBlock: IZENUY_clean_sbu_0, # of connection points: 6
#     Node 3, Type 0, BuildingBlock: IZENUY_clean_sbu_0, # of connection points: 6
#     Node 4, Type 0, BuildingBlock: IZENUY_clean_sbu_0, # of connection points: 6
#     Node 5, Type 0, BuildingBlock: IZENUY_clean_sbu_0, # of connection points: 6
#     Node 6, Type 0, BuildingBlock: IZENUY_clean_sbu_0, # of connection points: 6
#     Node 7, Type 0, BuildingBlock: IZENUY_clean_sbu_0, # of connection points: 6
#     Edge 8, Type (0, 0), BuildingBlock: TEMPAE_clean_linker_10, # of connection points: 2
#     Edge 9, Type (0, 0), BuildingBlock: TEMPAE_clean_linker_10, # of connection points: 2
#     Edge 10, Type (0, 0), BuildingBlock: TEMPAE_clean_linker_10, # of connection points: 2
#     Edge 11, Type (0, 0), BuildingBlock: TEMPAE_clean_linker_10, # of connection points: 2
#     Edge 12, Type (0, 0), BuildingBlock: TEMPAE_clean_linker_10, # of connection points: 2
#     Edge 13, Type (0, 0), BuildingBlock: TEMPAE_clean_linker_10, # of connection points: 2
#     Edge 14, Type (0, 0), BuildingBlock: TEMPAE_clean_linker_10, # of connection points: 2
#     Edge 15, Type (0, 0), BuildingBlock: TEMPAE_clean_linker_10, # of connection points: 2
#     Edge 16, Type (0, 0), BuildingBlock: TEMPAE_clean_linker_10, # of connection points: 2
#     Edge 17, Type (0, 0), BuildingBlock: TEMPAE_clean_linker_10, # of connection points: 2
#     Edge 18, Type (0, 0), BuildingBlock: TEMPAE_clean_linker_10, # of connection points: 2
#     Edge 19, Type (0, 0), BuildingBlock: TEMPAE_clean_linker_10, # of connection points: 2
#     Edge 20, Type (0, 0), BuildingBlock: TEMPAE_clean_linker_10, # of connection points: 2
#     Edge 21, Type (0, 0), BuildingBlock: TEMPAE_clean_linker_10, # of connection points: 2
#     Edge 22, Type (0, 0), BuildingBlock: TEMPAE_clean_linker_10, # of connection points: 2
#     Edge 23, Type (0, 0), BuildingBlock: TEMPAE_clean_linker_10, # of connection points: 2
#     Edge 24, Type (0, 0), BuildingBlock: TEMPAE_clean_linker_10, # of connection points: 2
#     Edge 25, Type (0, 0), BuildingBlock: TEMPAE_clean_linker_10, # of connection points: 2
#     Edge 26, Type (0, 0), BuildingBlock: TEMPAE_clean_linker_10, # of connection points: 2
#     Edge 27, Type (0, 0), BuildingBlock: TEMPAE_clean_linker_10, # of connection points: 2
#     Edge 28, Type (0, 0), BuildingBlock: TEMPAE_clean_linker_10, # of connection points: 2
#     Edge 29, Type (0, 0), BuildingBlock: TEMPAE_clean_linker_10, # of connection points: 2
#     Edge 30, Type (0, 0), BuildingBlock: TEMPAE_clean_linker_10, # of connection points: 2
#     Edge 31, Type (0, 0), BuildingBlock: TEMPAE_clean_linker_10, # of connection points: 2
# Relax obj value: 0.332
# Max RMSD: 0.290
# Mean RMSD: 0.290
data_MOF--net-vmi--node1-IZENUY_clean_sbu_0--edge1-TEMPAE_clean_linker_10
_symmetry_space_group_name_H-M    P1
_symmetry_Int_Tables_number       1
_symmetry_cell_setting            triclinic
loop_
_symmetry_equiv_pos_as_xyz
'x, y, z'
_cell_length_a     27.483383
_cell_length_b     45.597093
_cell_length_c     30.074222
_cell_angle_alpha  90.007221
_cell_angle_beta   109.45492
_cell_angle_gamma 89.714052
loop_
_atom_site_label
_atom_site_type_symbol
_atom_site_fract_x
_atom_site_fract_y
_atom_site_fract_z
_atom_type_partial_charge
Fe0 Fe 0.17435 0.04639 0.23622 0.0
Fe1 Fe 0.13871 0.10503 0.18584 0.0
O2 O 0.18975 0.08196 0.22081 0.0
Fe3 Fe 0.25495 0.09373 0.23935 0.0
O4 O 0.27718 0.06156 0.21626 0.0
O5 O 0.23559 0.02827 0.24075 0.0
O6 O 0.14933 0.03571 0.17453 0.0
C7 C 0.11184 0.0491 0.14528 0.0
C8 C 0.24074 0.06668 0.32024 0.0
O9 O 0.09918 0.07462 0.15405 0.0
C10 C 0.20938 0.14695 0.24258 0.0
O11 O 0.11023 0.05685 0.23669 0.0
O12 O 0.10637 0.10484 0.22996 0.0
O13 O 0.26981 0.07805 0.29952 0.0
O14 O 0.19783 0.05547 0.29747 0.0
C15 C 0.21234 0.11105 0.14263 0.0
O16 O 0.16922 0.14011 0.20911 0.0
O17 O 0.24128 0.12764 0.26406 0.0
C18 C 0.09087 0.08116 0.24258 0.0
O19 O 0.16617 0.10623 0.13941 0.0
O20 O 0.24886 0.11091 0.18206 0.0
C21 C 0.27152 0.03531 0.22572 0.0
Fe22 Fe 0.35253 0.10877 0.80175 0.0
Fe23 Fe 0.24346 0.0959 0.73519 0.0
O24 O 0.30857 0.08484 0.76177 0.0
Fe25 Fe 0.32845 0.04987 0.74842 0.0
O26 O 0.37512 0.04345 0.80758 0.0
O27 O 0.36651 0.08202 0.84846 0.0
O28 O 0.30393 0.1238 0.8253 0.0
C29 C 0.26302 0.11185 0.82705 0.0
C30 C 0.41444 0.08119 0.75318 0.0
O31 O 0.23491 0.09681 0.79275 0.0
C32 C 0.26833 0.0735 0.66121 0.0
O33 O 0.341 0.13811 0.75808 0.0
O34 O 0.25686 0.13505 0.7374 0.0
O35 O 0.37776 0.06564 0.72813 0.0
O36 O 0.4093 0.09677 0.78634 0.0
C37 C 0.23282 0.0363 0.75192 0.0
O38 O 0.25086 0.09529 0.67735 0.0
O39 O 0.28584 0.05112 0.68676 0.0
C40 C 0.2967 0.14941 0.73953 0.0
O41 O 0.21636 0.05903 0.72763 0.0
O42 O 0.28059 0.03099 0.76804 0.0
C43 C 0.38223 0.05625 0.8466 0.0
Fe44 Fe 0.82776 0.96031 0.74965 0.0
Fe45 Fe 0.74814 0.91154 0.73711 0.0
O46 O 0.81148 0.92498 0.7645 0.0
Fe47 Fe 0.85732 0.90295 0.80676 0.0
O48 O 0.86641 0.93048 0.85157 0.0
O49 O 0.8718 0.96884 0.80909 0.0
O50 O 0.77643 0.97782 0.76636 0.0
C51 C 0.72939 0.97111 0.74919 0.0
C52 C 0.91796 0.93132 0.75837 0.0
O53 O 0.71633 0.94752 0.72645 0.0
C54 C 0.80882 0.8598 0.74705 0.0
O55 O 0.78718 0.95704 0.6876 0.0
O56 O 0.75756 0.91178 0.68006 0.0
O57 O 0.91351 0.91625 0.79224 0.0
O58 O 0.88033 0.94599 0.73211 0.0
C59 C 0.76655 0.89726 0.82941 0.0
O60 O 0.76674 0.87275 0.74268 0.0
O61 O 0.85098 0.87309 0.76504 0.0
C62 C 0.77277 0.93398 0.66314 0.0
O63 O 0.73752 0.91104 0.7938 0.0
O64 O 0.80945 0.88678 0.8297 0.0
C65 C 0.87894 0.95671 0.84866 0.0
Fe66 Fe 0.75689 0.91874 0.24071 0.0
Fe67 Fe 0.64107 0.90831 0.18573 0.0
O68 O 0.69171 0.93093 0.22147 0.0
Fe69 Fe 0.676 0.96645 0.2371 0.0
O70 O 0.73759 0.98415 0.24279 0.0
O71 O 0.77941 0.95085 0.218 0.0
O72 O 0.75167 0.90154 0.18362 0.0
C73 C 0.71562 0.90168 0.14389 0.0
C74 C 0.74114 0.94518 0.32124 0.0
O75 O 0.66942 0.90716 0.13999 0.0
C76 C 0.59189 0.93212 0.24167 0.0
O77 O 0.74264 0.88491 0.26515 0.0
O78 O 0.67156 0.87302 0.20899 0.0
O79 O 0.69841 0.95676 0.29821 0.0
O80 O 0.77097 0.93429 0.30075 0.0
C81 C 0.61517 0.96452 0.14545 0.0
O82 O 0.60778 0.90843 0.22914 0.0
O83 O 0.61143 0.95637 0.23635 0.0
C84 C 0.71123 0.86576 0.24295 0.0
O85 O 0.60198 0.9391 0.15384 0.0
O86 O 0.65207 0.97764 0.17551 0.0
C87 C 0.77361 0.97709 0.22773 0.0
Fe88 Fe 0.6431 0.60738 0.68867 0.0
Fe89 Fe 0.75817 0.59577 0.74466 0.0
O90 O 0.69315 0.58396 0.72392 0.0
Fe91 Fe 0.67706 0.54812 0.73758 0.0
O92 O 0.65423 0.53821 0.67545 0.0
O93 O 0.60452 0.57729 0.6551 0.0
O94 O 0.67244 0.60931 0.64364 0.0
C95 C 0.7189 0.61453 0.64858 0.0
C96 C 0.59252 0.58265 0.74236 0.0
O97 O 0.75409 0.61429 0.68881 0.0
C98 C 0.74069 0.56797 0.82314 0.0
O99 O 0.67335 0.64211 0.71384 0.0
O100 O 0.74316 0.62877 0.77063 0.0
O101 O 0.6119 0.55837 0.73612 0.0
O102 O 0.60911 0.60647 0.73139 0.0
C103 C 0.77555 0.53797 0.72897 0.0
O104 O 0.77128 0.57884 0.80364 0.0
O105 O 0.6983 0.55665 0.79915 0.0
C106 C 0.7123 0.64842 0.74891 0.0
O107 O 0.78096 0.56441 0.72051 0.0
O108 O 0.73932 0.53034 0.74338 0.0
C109 C 0.61888 0.55247 0.64516 0.0
Fe110 Fe 0.86406 0.60849 0.30853 0.0
Fe111 Fe 0.75324 0.59897 0.24295 0.0
O112 O 0.81762 0.58627 0.26755 0.0
Fe113 Fe 0.8344 0.55137 0.25105 0.0
O114 O 0.88192 0.54279 0.3089 0.0
O115 O 0.87714 0.5804 0.35324 0.0
O116 O 0.8177 0.62351 0.33479 0.0
C117 C 0.7758 0.61259 0.33609 0.0
C118 C 0.92205 0.58086 0.25599 0.0
O119 O 0.7461 0.5987 0.3011 0.0
C120 C 0.7742 0.57772 0.16628 0.0
O121 O 0.85341 0.63919 0.26702 0.0
O122 O 0.76944 0.6379 0.24844 0.0
O123 O 0.88353 0.56681 0.23042 0.0
O124 O 0.91907 0.59596 0.29055 0.0
C125 C 0.73886 0.53892 0.25521 0.0
O126 O 0.75928 0.59961 0.18441 0.0
O127 O 0.79033 0.55461 0.19026 0.0
C128 C 0.81001 0.65197 0.25196 0.0
O129 O 0.72346 0.56263 0.23319 0.0
O130 O 0.78636 0.53284 0.2706 0.0
C131 C 0.88998 0.55434 0.34894 0.0
Fe132 Fe 0.33796 0.46088 0.25288 0.0
Fe133 Fe 0.26426 0.40909 0.24684 0.0
O134 O 0.32665 0.42486 0.26943 0.0
Fe135 Fe 0.37899 0.40506 0.30953 0.0
O136 O 0.41233 0.43763 0.33987 0.0
O137 O 0.35641 0.47341 0.31354 0.0
O138 O 0.27296 0.47567 0.24378 0.0
C139 C 0.23617 0.4665 0.25621 0.0
C140 C 0.42898 0.4297 0.25535 0.0
O141 O 0.23312 0.43978 0.26493 0.0
C142 C 0.32017 0.35881 0.2532 0.0
O143 O 0.32084 0.45028 0.19253 0.0
O144 O 0.25171 0.42381 0.18658 0.0
O145 O 0.41561 0.40567 0.26892 0.0
O146 O 0.40519 0.45329 0.2574 0.0
C147 C 0.30086 0.39557 0.34523 0.0
O148 O 0.28787 0.37616 0.2265 0.0
O149 O 0.35501 0.36836 0.28911 0.0
C150 C 0.28153 0.43644 0.16802 0.0
O151 O 0.26817 0.39243 0.30403 0.0
O152 O 0.34645 0.40389 0.35212 0.0
C153 C 0.39392 0.46218 0.3456 0.0
Fe154 Fe 0.26723 0.41864 0.7472 0.0
Fe155 Fe 0.15576 0.40604 0.68619 0.0
O156 O 0.20173 0.42997 0.72434 0.0
Fe157 Fe 0.18394 0.46484 0.74035 0.0
O158 O 0.23061 0.48407 0.71983 0.0
O159 O 0.29513 0.45531 0.7563 0.0
O160 O 0.27162 0.4191 0.68815 0.0
C161 C 0.24174 0.40425 0.65447 0.0
C162 C 0.24739 0.43895 0.82479 0.0
O163 O 0.20113 0.39256 0.65763 0.0
C164 C 0.09853 0.43319 0.73942 0.0
O165 O 0.25447 0.37947 0.74281 0.0
O166 O 0.17176 0.37605 0.72919 0.0
O167 O 0.22869 0.46191 0.80115 0.0
O168 O 0.2633 0.4177 0.80612 0.0
C169 C 0.12398 0.45942 0.64328 0.0
O170 O 0.10209 0.41673 0.70666 0.0
O171 O 0.13541 0.44947 0.76197 0.0
C172 C 0.21601 0.36436 0.74208 0.0
O173 O 0.13624 0.43308 0.64007 0.0
O174 O 0.13608 0.47265 0.68244 0.0
C175 C 0.27829 0.4788 0.73456 0.0
C176 C 0.49688 0.92432 0.21275 0.0
C177 C 0.54121 0.93396 0.24847 0.0
C178 C 0.44785 0.93568 0.20893 0.0
C179 C 0.44336 0.95698 0.24175 0.0
C180 C 0.4875 0.96438 0.28054 0.0
C181 C 0.53588 0.95293 0.2832 0.0
C182 C 0.40193 0.92703 0.16716 0.0
C183 C 0.48464 0.98665 0.31676 0.0
C184 C 0.34818 0.02036 0.20334 0.0
C185 C 0.31139 0.01333 0.22464 0.0
C186 C 0.38975 1.00144 0.20666 0.0
C187 C 0.3951 0.97479 0.23219 0.0
C188 C 0.35676 0.96685 0.25177 0.0
C189 C 0.31531 0.98617 0.2477 0.0
C190 C 0.42926 0.01067 0.18456 0.0
C191 C 0.36075 0.93859 0.27888 0.0
H192 H 0.501 0.91017 0.18523 0.0
H193 H 0.57027 0.96066 0.31048 0.0
H194 H 0.36704 0.92436 0.17749 0.0
H195 H 0.39368 0.9446 0.1401 0.0
H196 H 0.40916 0.9063 0.1509 0.0
H197 H 0.52052 0.98697 0.3479 0.0
H198 H 0.47858 0.00882 0.30056 0.0
H199 H 0.45152 0.98203 0.32891 0.0
H200 H 0.34526 0.04109 0.18496 0.0
H201 H 0.28709 0.98044 0.2642 0.0
H202 H 0.43556 0.9929 0.16185 0.0
H203 H 0.46675 0.01479 0.21263 0.0
H204 H 0.4175 0.03089 0.16293 0.0
H205 H 0.36904 0.91993 0.25877 0.0
H206 H 0.3249 0.93384 0.28684 0.0
H207 H 0.39327 0.94 0.31267 0.0
C208 C 0.97576 0.94955 0.71522 0.0
C209 C 0.97017 0.93754 0.75618 0.0
C210 C 0.02313 0.9612 0.71549 0.0
C211 C 0.06584 0.96137 0.75797 0.0
C212 C 0.06131 0.94762 0.79865 0.0
C213 C 0.01369 0.93567 0.79716 0.0
C214 C 0.02636 0.97516 0.67105 0.0
C215 C 0.10541 0.94765 0.84486 0.0
C216 C 0.19647 0.98567 0.75159 0.0
C217 C 0.19437 0.01591 0.75907 0.0
C218 C 0.15542 0.96731 0.75206 0.0
C219 C 0.11213 0.9795 0.76131 0.0
C220 C 0.11157 0.0098 0.7715 0.0
C221 C 0.15223 0.02763 0.76957 0.0
C222 C 0.1573 0.93521 0.74064 0.0
C223 C 0.06714 0.02369 0.78297 0.0
H224 H 0.94242 0.95097 0.68336 0.0
H225 H 0.00974 0.92668 0.82915 0.0
H226 H 0.02819 0.99935 0.67524 0.0
H227 H 0.06199 0.96795 0.6645 0.0
H228 H 0.99249 0.96973 0.6397 0.0
H229 H 0.09873 0.93224 0.87083 0.0
H230 H 0.14222 0.94169 0.83948 0.0
H231 H 0.10993 0.97004 0.86012 0.0
H232 H 0.22889 0.97664 0.74313 0.0
H233 H 0.15079 0.05101 0.77571 0.0
H234 H 0.12689 0.93043 0.70647 0.0
H235 H 0.14924 0.92152 0.76784 0.0
H236 H 0.19528 0.92863 0.73814 0.0
H237 H 0.0316 0.02267 0.75165 0.0
H238 H 0.07461 0.047 0.79376 0.0
H239 H 0.05955 0.01147 0.81186 0.0
C240 C 0.69337 0.02176 0.75276 0.0
C241 C 0.68821 0.99117 0.75305 0.0
C242 C 0.65233 0.04043 0.75307 0.0
C243 C 0.6057 0.0282 0.75501 0.0
C244 C 0.60131 0.99733 0.75717 0.0
C245 C 0.64221 0.97927 0.75552 0.0
C246 C 0.65834 0.07316 0.75011 0.0
C247 C 0.5531 0.98326 0.76075 0.0
C248 C 0.50805 0.07103 0.79473 0.0
C249 C 0.46689 0.07419 0.75219 0.0
C250 C 0.55455 0.05737 0.79604 0.0
C251 C 0.56065 0.04727 0.7536 0.0
C252 C 0.52059 0.05243 0.71018 0.0
C253 C 0.47395 0.06539 0.71006 0.0
C254 C 0.5953 0.05161 0.84329 0.0
C255 C 0.52565 0.04258 0.664 0.0
H256 H 0.72878 0.03106 0.75072 0.0
H257 H 0.63828 0.95565 0.75641 0.0
H258 H 0.62917 0.08172 0.71746 0.0
H259 H 0.65123 0.08413 0.78032 0.0
H260 H 0.69735 0.07929 0.74996 0.0
H261 H 0.55697 0.95905 0.76485 0.0
H262 H 0.54399 0.99237 0.7913 0.0
H263 H 0.51984 0.98825 0.72862 0.0
H264 H 0.50251 0.07717 0.82757 0.0
H265 H 0.44217 0.06759 0.67714 0.0
H266 H 0.63417 0.05721 0.84238 0.0
H267 H 0.59568 0.0279 0.8518 0.0
H268 H 0.58802 0.06422 0.87208 0.0
H269 H 0.56344 0.04937 0.66166 0.0
H270 H 0.49437 0.05164 0.63317 0.0
H271 H 0.52404 0.01829 0.66193 0.0
C272 C 0.85054 0.99195 0.20602 0.0
C273 C 0.81324 0.99902 0.22682 0.0
C274 C 0.89158 0.01099 0.20919 0.0
C275 C 0.89584 0.03781 0.23404 0.0
C276 C 0.85704 0.04575 0.25319 0.0
C277 C 0.81616 0.02631 0.24928 0.0
C278 C 0.93162 1.00178 0.18755 0.0
C279 C 0.85987 0.07421 0.27953 0.0
C280 C 0.03568 0.0607 0.28486 0.0
C281 C 0.04038 0.07943 0.24964 0.0
C282 C 0.9877 0.04901 0.28237 0.0
C283 C 0.94339 0.05591 0.24326 0.0
C284 C 0.94717 0.07699 0.20989 0.0
C285 C 0.99576 0.0886 0.21356 0.0
C286 C 0.98559 0.02697 0.31914 0.0
C287 C 0.90106 0.08508 0.16772 0.0
H288 H 0.84839 0.97112 0.18808 0.0
H289 H 0.7875 0.03208 0.26536 0.0
H290 H 0.93723 0.01938 0.16428 0.0
H291 H 0.96923 0.99813 0.21583 0.0
H292 H 0.92082 0.98131 0.16659 0.0
H293 H 0.82393 0.07876 0.28757 0.0
H294 H 0.89263 0.07327 0.31322 0.0
H295 H 0.86711 0.09277 0.25875 0.0
H296 H 0.07032 0.05328 0.31238 0.0
H297 H 0.99945 0.10252 0.18563 0.0
H298 H 0.98054 1.00465 0.30355 0.0
H299 H 0.95216 0.03148 0.331 0.0
H300 H 0.02137 0.02705 0.35039 0.0
H301 H 0.89404 0.0674 0.14099 0.0
H302 H 0.90739 0.10586 0.15119 0.0
H303 H 0.86581 0.08738 0.17765 0.0
C304 C 0.04276 0.45714 0.78027 0.0
C305 C 0.047 0.43887 0.74411 0.0
C306 C 0.99494 0.46902 0.77875 0.0
C307 C 0.94999 0.46247 0.74022 0.0
C308 C 0.95327 0.44207 0.70577 0.0
C309 C 1.00167 0.4305 0.70812 0.0
C310 C 0.99335 0.49045 0.81653 0.0
C311 C 0.90636 0.4342 0.66435 0.0
C312 C 0.82189 0.48933 0.7499 0.0
C313 C 0.81623 0.5167 0.72726 0.0
C314 C 0.86421 0.47084 0.75303 0.0
C315 C 0.90167 0.47989 0.733 0.0
C316 C 0.89471 0.50686 0.7082 0.0
C317 C 0.85227 0.52485 0.70567 0.0
C318 C 0.86986 0.44213 0.77926 0.0
C319 C 0.93322 0.51732 0.68576 0.0
H320 H 0.07735 0.46359 0.80848 0.0
H321 H 1.00426 0.41644 0.67992 0.0
H322 H 0.98626 0.51289 0.80137 0.0
H323 H 0.96124 0.48514 0.82972 0.0
H324 H 0.03002 0.49055 0.84683 0.0
H325 H 0.91322 0.41445 0.64556 0.0
H326 H 0.87263 0.43017 0.67591 0.0
H327 H 0.89629 0.45277 0.63903 0.0
H328 H 0.7943 0.48279 0.76664 0.0
H329 H 0.84804 0.54577 0.68759 0.0
H330 H 0.90337 0.44329 0.81234 0.0
H331 H 0.87751 0.424 0.75786 0.0
H332 H 0.83493 0.43678 0.78839 0.0
H333 H 0.9711 0.52105 0.71348 0.0
H334 H 0.92078 0.53803 0.66559 0.0
H335 H 0.93903 0.50036 0.66154 0.0
C336 C 0.65399 0.52836 0.26427 0.0
C337 C 0.69977 0.51773 0.25917 0.0
C338 C 0.61434 0.5093 0.26495 0.0
C339 C 0.61982 0.47876 0.25908 0.0
C340 C 0.66642 0.46777 0.25479 0.0
C341 C 0.70621 0.4874 0.25548 0.0
C342 C 0.5661 0.52201 0.27113 0.0
C343 C 0.67347 0.43548 0.24775 0.0
C344 C 0.52317 0.4338 0.29538 0.0
C345 C 0.48137 0.43309 0.25312 0.0
C346 C 0.57012 0.44686 0.29741 0.0
C347 C 0.5756 0.45893 0.2559 0.0
C348 C 0.53483 0.45586 0.21238 0.0
C349 C 0.48781 0.44349 0.21169 0.0
C350 C 0.61192 0.45021 0.34469 0.0
C351 C 0.5392 0.46791 0.16714 0.0
H352 H 0.64915 0.55178 0.2677 0.0
H353 H 0.74147 0.47913 0.25128 0.0
H354 H 0.53257 0.51826 0.23874 0.0
H355 H 0.55788 0.51088 0.30065 0.0
H356 H 0.56934 0.54594 0.27837 0.0
H357 H 0.71303 0.43018 0.24792 0.0
H358 H 0.66553 0.4225 0.27573 0.0
H359 H 0.64537 0.42844 0.21352 0.0
H360 H 0.51759 0.42654 0.32768 0.0
H361 H 0.45507 0.44353 0.17925 0.0
H362 H 0.6162 0.47373 0.35464 0.0
H363 H 0.64953 0.44257 0.34276 0.0
H364 H 0.60328 0.43783 0.37297 0.0
H365 H 0.53651 0.49219 0.16737 0.0
H366 H 0.50809 0.45961 0.13565 0.0
H367 H 0.57713 0.46206 0.16393 0.0
C368 C 0.01792 0.57398 0.29305 0.0
C369 C 0.97342 0.57269 0.25291 0.0
C370 C 0.06395 0.55974 0.29418 0.0
C371 C 0.06578 0.54395 0.25413 0.0
C372 C 0.02208 0.54431 0.21249 0.0
C373 C 0.97656 0.55859 0.21242 0.0
C374 C 0.1094 0.5599 0.33939 0.0
C375 C 0.02218 0.52797 0.16885 0.0
C376 C 0.19365 0.5165 0.24438 0.0
C377 C 0.19406 0.48693 0.25773 0.0
C378 C 0.15281 0.53549 0.24389 0.0
C379 C 0.1112 0.52476 0.25701 0.0
C380 C 0.11197 0.49513 0.27149 0.0
C381 C 0.15319 0.47666 0.27167 0.0
C382 C 0.15377 0.56696 0.22867 0.0
C383 C 0.06857 0.48266 0.28583 0.0
H384 H 0.01591 0.58446 0.32476 0.0
H385 H 0.94248 0.55745 0.1812 0.0
H386 H 0.1135 0.53797 0.35627 0.0
H387 H 0.14567 0.56443 0.33214 0.0
H388 H 0.10473 0.57646 0.36479 0.0
H389 H 0.98717 0.53274 0.13807 0.0
H390 H 0.05678 0.53373 0.15959 0.0
H391 H 0.0239 0.50402 0.17583 0.0
H392 H 0.22498 0.52478 0.23371 0.0
H393 H 0.15302 0.45397 0.28234 0.0
H394 H 0.14994 0.58197 0.25637 0.0
H395 H 0.12046 0.57126 0.19626 0.0
H396 H 0.18985 0.57232 0.22151 0.0
H397 H 0.06178 0.49645 0.3136 0.0
H398 H 0.07656 0.45982 0.29925 0.0
H399 H 0.03238 0.48281 0.2551 0.0
C400 C 0.49754 0.58603 0.7062 0.0
C401 C 0.54069 0.58126 0.74652 0.0
C402 C 0.44901 0.57458 0.70294 0.0
C403 C 0.44356 0.55846 0.74129 0.0
C404 C 0.486 0.55634 0.78384 0.0
C405 C 0.53433 0.56728 0.78561 0.0
C406 C 0.40537 0.57697 0.65662 0.0
C407 C 0.48176 0.54001 0.82602 0.0
C408 C 0.31281 0.53021 0.74156 0.0
C409 C 0.31616 0.5006 0.73032 0.0
C410 C 0.35339 0.54973 0.74425 0.0
C411 C 0.39749 0.53941 0.73437 0.0
C412 C 0.39932 0.50987 0.72033 0.0
C413 C 0.35907 0.4908 0.71918 0.0
C414 C 0.35022 0.5809 0.75988 0.0
C415 C 0.44472 0.49801 0.70809 0.0
H416 H 0.50279 0.59616 0.67549 0.0
H417 H 0.56793 0.56315 0.81646 0.0
H418 H 0.40163 0.55585 0.63744 0.0
H419 H 0.36816 0.58134 0.66232 0.0
H420 H 0.41228 0.59457 0.6339 0.0
H421 H 0.51476 0.54474 0.85849 0.0
H422 H 0.44532 0.54584 0.83226 0.0
H423 H 0.48116 0.51607 0.81924 0.0
H424 H 0.2798 0.53773 0.7506 0.0
H425 H 0.36146 0.46792 0.71016 0.0
H426 H 0.35963 0.59651 0.7357 0.0
H427 H 0.3791 0.58411 0.79545 0.0
H428 H 0.31138 0.58637 0.76143 0.0
H429 H 0.45281 0.5123 0.68154 0.0
H430 H 0.43805 0.47534 0.69388 0.0
H431 H 0.47968 0.49787 0.74002 0.0
C432 C 0.09473 0.01001 0.0837 0.0
C433 C 0.07747 0.03402 0.10344 0.0
C434 C 0.06233 0.99693 0.04222 0.0
C435 C 0.01169 0.00809 0.02071 0.0
C436 C 0.99378 0.03185 0.04122 0.0
C437 C 0.02695 0.04457 0.08226 0.0
C438 C 0.08234 0.97148 0.02111 0.0
C439 C 0.93982 0.04411 0.0195 0.0
C440 C 0.9424 0.99473 0.89084 0.0
C441 C 0.90988 0.97147 0.89238 0.0
C442 C 0.9763 1.00667 0.93249 0.0
C443 C 0.9772 0.99515 0.97647 0.0
C444 C 0.94383 0.97203 0.97826 0.0
C445 C 0.91044 0.96049 0.93612 0.0
C446 C 0.0115 0.03138 0.92947 0.0
C447 C 0.94338 0.95947 0.02462 0.0
H448 H 0.13379 1.0019 0.10003 0.0
H449 H 0.01314 0.06292 0.09776 0.0
H450 H 0.05691 0.95219 0.01778 0.0
H451 H 0.08171 0.97725 0.98508 0.0
H452 H 0.12235 0.96514 0.04262 0.0
H453 H 0.93158 0.06222 0.04071 0.0
H454 H 0.93446 0.05248 0.98354 0.0
H455 H 0.91097 0.02656 0.01597 0.0
H456 H 0.94247 1.00305 0.8571 0.0
H457 H 0.88513 0.94258 0.93743 0.0
H458 H 0.05236 0.02499 0.9475 0.0
H459 H 1.00367 0.05103 0.94782 0.0
H460 H 1.00661 0.03745 0.89244 0.0
H461 H 0.98307 0.95344 0.04721 0.0
H462 H 0.91859 0.93976 0.0197 0.0
H463 H 0.92889 0.97624 0.04391 0.0
C464 C 0.53402 0.96782 0.07721 0.0
C465 C 0.5823 0.97971 0.10264 0.0
C466 C 0.50222 0.98096 0.03575 0.0
C467 C 0.51915 1.00659 0.01909 0.0
C468 C 0.56762 0.01894 0.04459 0.0
C469 C 0.59872 1.00535 0.08636 0.0
C470 C 0.45057 0.96729 0.00965 0.0
C471 C 0.5866 0.04633 0.02757 0.0
C472 C 0.4535 0.02212 0.88923 0.0
C473 C 0.41613 0.04281 0.89051 0.0
C474 C 0.48859 0.01085 0.93102 0.0
C475 C 0.48559 0.02029 0.97488 0.0
C476 C 0.448 0.04121 0.97637 0.0
C477 C 0.41374 0.0523 0.93407 0.0
C478 C 0.52853 0.9887 0.92822 0.0
C479 C 0.44332 0.0515 0.02254 0.0
H480 H 0.52079 0.94812 0.08973 0.0
H481 H 0.63605 0.01453 0.10584 0.0
H482 H 0.41911 0.98342 0.00604 0.0
H483 H 0.44895 0.96103 0.97354 0.0
H484 H 0.443 0.94748 0.02778 0.0
H485 H 0.62517 0.05316 0.05153 0.0
H486 H 0.58895 0.04262 0.99187 0.0
H487 H 0.55886 0.06459 0.02461 0.0
H488 H 0.45604 0.01517 0.85559 0.0
H489 H 0.38487 0.06836 0.93508 0.0
H490 H 0.52158 0.96738 0.9428 0.0
H491 H 0.56771 0.99601 0.94987 0.0
H492 H 0.52786 0.98518 0.89146 0.0
H493 H 0.4301 0.03312 0.03975 0.0
H494 H 0.41557 0.07 0.01766 0.0
H495 H 0.48142 0.05857 0.04696 0.0
C496 C 0.58827 0.50918 0.5921 0.0
C497 C 0.58906 0.5395 0.59951 0.0
C498 C 0.55632 0.49717 0.54947 0.0
C499 C 0.52516 0.51606 0.51378 0.0
C500 C 0.52715 0.5467 0.52063 0.0
C501 C 0.55907 0.55804 0.56342 0.0
C502 C 0.55506 0.46432 0.54294 0.0
C503 C 0.49507 0.5675 0.48299 0.0
C504 C 0.47469 0.48702 0.38934 0.0
C505 C 0.42408 0.47976 0.38547 0.0
C506 C 0.50787 0.49946 0.43073 0.0
C507 C 0.49 0.50389 0.46924 0.0
C508 C 0.43842 0.497 0.46506 0.0
C509 C 0.40574 0.4851 0.42277 0.0
C510 C 0.56234 0.50697 0.43366 0.0
C511 C 0.41835 0.50131 0.50566 0.0
H512 H 0.61147 0.49485 0.61994 0.0
H513 H 0.5602 0.58158 0.56874 0.0
H514 H 0.51551 0.45611 0.5373 0.0
H515 H 0.56492 0.45861 0.51109 0.0
H516 H 0.58233 0.45275 0.5738 0.0
H517 H 0.50222 0.59085 0.49359 0.0
H518 H 0.50363 0.56415 0.4498 0.0
H519 H 0.45346 0.5629 0.47525 0.0
H520 H 0.48858 0.4823 0.36027 0.0
H521 H 0.36676 0.47871 0.41958 0.0
H522 H 0.5899 0.492 0.459 0.0
H523 H 0.57199 0.52966 0.44685 0.0
H524 H 0.56819 0.505 0.39896 0.0
H525 H 0.44135 0.48783 0.53622 0.0
H526 H 0.3771 0.49513 0.49635 0.0
H527 H 0.4227 0.52456 0.51712 0.0
C528 C 0.05074 0.45738 0.56843 0.0
C529 C 0.08967 0.47377 0.60069 0.0
C530 C 0.01691 0.47037 0.52769 0.0
C531 C 0.02329 0.50025 0.51848 0.0
C532 C 0.06283 0.5169 0.55081 0.0
C533 C 0.09519 0.50351 0.59215 0.0
C534 C 0.9742 0.45219 0.4947 0.0
C535 C 0.07139 0.54865 0.54136 0.0
C536 C 0.96639 0.52391 0.39095 0.0
C537 C 0.92208 0.53898 0.39137 0.0
C538 C 1.00039 0.5117 0.43246 0.0
C539 C 0.98861 0.5139 0.47474 0.0
C540 C 0.94315 0.52853 0.47498 0.0
C541 C 0.91078 0.54139 0.43328 0.0
C542 C 0.04924 0.4969 0.43125 0.0
C543 C 0.9287 0.53057 0.51916 0.0
H544 H 0.04612 0.43443 0.57556 0.0
H545 H 0.12552 0.51604 0.61722 0.0
H546 H 0.93629 0.46282 0.48953 0.0
H547 H 0.97912 0.45081 0.45962 0.0
H548 H 0.97334 0.42957 0.50812 0.0
H549 H 0.10464 0.55827 0.56955 0.0
H550 H 0.07842 0.55063 0.50723 0.0
H551 H 0.03635 0.56175 0.53841 0.0
H552 H 0.97543 0.52266 0.35852 0.0
H553 H 0.87643 0.55322 0.43329 0.0
H554 H 0.04898 0.47338 0.44057 0.0
H555 H 0.08332 0.50697 0.4578 0.0
H556 H 0.05394 0.49851 0.39606 0.0
H557 H 0.9273 0.50832 0.53362 0.0
H558 H 0.8907 0.54145 0.51267 0.0
H559 H 0.95842 0.54312 0.54658 0.0
C560 C 0.22189 0.09335 0.88422 0.0
C561 C 0.24998 0.11511 0.87067 0.0
C562 C 0.21621 0.094 0.92895 0.0
C563 C 0.23845 0.11721 0.96042 0.0
C564 C 0.26496 0.13986 0.94607 0.0
C565 C 0.27077 0.1384 0.90154 0.0
C566 C 0.18792 0.06932 0.94312 0.0
C567 C 0.2881 0.16534 0.9781 0.0
C568 C 0.18538 0.12966 0.06026 0.0
C569 C 0.22301 0.11607 0.09829 0.0
C570 C 0.19069 0.13095 0.01556 0.0
C571 C 0.2342 0.11776 0.00845 0.0
C572 C 0.27306 0.10465 0.04703 0.0
C573 C 0.26725 0.10424 0.09175 0.0
C574 C 0.14903 0.14571 0.97566 0.0
C575 C 0.31974 0.09008 0.04065 0.0
H576 H 0.20633 0.07512 0.86071 0.0
H577 H 0.2924 0.15534 0.89115 0.0
H578 H 0.2145 0.0577 0.97424 0.0
H579 H 0.15565 0.0782 0.95355 0.0
H580 H 0.17211 0.05319 0.91427 0.0
H581 H 0.30499 0.18198 0.9606 0.0
H582 H 0.25825 0.17614 0.98989 0.0
H583 H 0.31883 0.15729 0.01012 0.0
H584 H 0.15115 0.13888 0.06533 0.0
H585 H 0.29598 0.09336 0.12097 0.0
H586 H 0.12949 0.12926 0.94849 0.0
H587 H 0.16622 0.16231 0.95843 0.0
H588 H 0.1195 0.15666 0.98781 0.0
H589 H 0.30731 0.07185 0.01496 0.0
H590 H 0.34675 0.08119 0.07426 0.0
H591 H 0.34083 0.10597 0.02597 0.0
C592 C 0.72314 0.91549 0.88502 0.0
C593 C 0.75247 0.89389 0.87236 0.0
C594 C 0.71745 0.91516 0.92974 0.0
C595 C 0.74094 0.89241 0.962 0.0
C596 C 0.76837 0.86977 0.94839 0.0
C597 C 0.77417 0.87093 0.90388 0.0
C598 C 0.68804 0.93977 0.94312 0.0
C599 C 0.79282 0.84475 0.98128 0.0
C600 C 0.77019 0.90756 0.09267 0.0
C601 C 0.72662 0.8957 0.10003 0.0
C602 C 0.77573 0.90637 0.04789 0.0
C603 C 0.73728 0.89245 0.0102 0.0
C604 C 0.69463 0.87914 0.01828 0.0
C605 C 0.68956 0.8812 0.06298 0.0
C606 C 0.82155 0.92102 0.04041 0.0
C607 C 0.6535 0.86352 0.97936 0.0
H608 H 0.70687 0.93345 0.86093 0.0
H609 H 0.79676 0.85412 0.89413 0.0
H610 H 0.65653 0.93077 0.95433 0.0
H611 H 0.71425 0.952 0.97354 0.0
H612 H 0.67107 0.9554 0.91361 0.0
H613 H 0.80951 0.82778 0.96398 0.0
H614 H 0.82399 0.85325 0.01243 0.0
H615 H 0.76389 0.83422 0.99439 0.0
H616 H 0.79843 0.91912 0.12118 0.0
H617 H 0.65588 0.87195 0.06877 0.0
H618 H 0.80809 0.93889 0.01404 0.0
H619 H 0.84303 0.90503 0.0261 0.0
H620 H 0.84848 0.93042 0.07351 0.0
H621 H 0.63275 0.87947 0.95158 0.0
H622 H 0.62488 0.85248 0.99238 0.0
H623 H 0.67134 0.84687 0.96261 0.0
C624 C 0.73315 0.59537 0.39286 0.0
C625 C 0.76266 0.6164 0.37954 0.0
C626 C 0.72684 0.59664 0.43732 0.0
C627 C 0.74992 0.61977 0.46868 0.0
C628 C 0.77792 0.6417 0.45451 0.0
C629 C 0.78431 0.63961 0.41028 0.0
C630 C 0.69689 0.57274 0.4513 0.0
C631 C 0.80198 0.66707 0.48641 0.0
C632 C 0.69527 0.63399 0.56698 0.0
C633 C 0.73152 0.61985 0.60532 0.0
C634 C 0.70173 0.63501 0.52273 0.0
C635 C 0.74493 0.62095 0.5164 0.0
C636 C 0.78256 0.60738 0.55538 0.0
C637 C 0.77566 0.60728 0.59965 0.0
C638 C 0.66136 0.65025 0.48239 0.0
C639 C 0.82877 0.5918 0.54978 0.0
H640 H 0.71684 0.57723 0.36938 0.0
H641 H 0.80695 0.65602 0.39998 0.0
H642 H 0.72241 0.56101 0.48285 0.0
H643 H 0.66468 0.58241 0.46099 0.0
H644 H 0.68074 0.55655 0.42261 0.0
H645 H 0.82001 0.68317 0.46901 0.0
H646 H 0.77239 0.67859 0.49769 0.0
H647 H 0.83198 0.65878 0.51873 0.0
H648 H 0.66106 0.6437 0.57139 0.0
H649 H 0.80324 0.59592 0.6291 0.0
H650 H 0.64093 0.6339 0.4554 0.0
H651 H 0.67985 0.66612 0.46511 0.0
H652 H 0.63238 0.66213 0.4941 0.0
H653 H 0.81561 0.57337 0.52457 0.0
H654 H 0.8551 0.58294 0.58374 0.0
H655 H 0.8508 0.60696 0.53488 0.0
C656 C 0.28287 0.41973 0.59579 0.0
C657 C 0.2542 0.39919 0.6111 0.0
C658 C 0.28894 0.4169 0.55147 0.0
C659 C 0.26642 0.39271 0.52239 0.0
C660 C 0.23928 0.37129 0.53858 0.0
C661 C 0.23318 0.37491 0.58263 0.0
C662 C 0.31816 0.44019 0.5352 0.0
C663 C 0.21586 0.34487 0.50903 0.0
C664 C 0.2415 0.40206 0.3913 0.0
C665 C 0.28653 0.3898 0.38718 0.0
C666 C 0.23364 0.4025 0.43509 0.0
C667 C 0.27134 0.38986 0.47498 0.0
C668 C 0.31512 0.37571 0.47002 0.0
C669 C 0.32244 0.37613 0.42619 0.0
C670 C 0.18663 0.41796 0.43925 0.0
C671 C 0.35552 0.36142 0.51146 0.0
H672 H 0.29878 0.43862 0.61762 0.0
H673 H 0.21131 0.35883 0.59457 0.0
H674 H 0.3508 0.43013 0.52665 0.0
H675 H 0.2924 0.45069 0.50248 0.0
H676 H 0.33364 0.45747 0.5622 0.0
H677 H 0.19842 0.32942 0.52794 0.0
H678 H 0.18551 0.35206 0.47611 0.0
H679 H 0.24566 0.33294 0.49863 0.0
H680 H 0.21424 0.413 0.36114 0.0
H681 H 0.35727 0.36664 0.42272 0.0
H682 H 0.19881 0.43749 0.46223 0.0
H683 H 0.16564 0.40333 0.45602 0.0
H684 H 0.15967 0.42521 0.40445 0.0
H685 H 0.37613 0.37849 0.53699 0.0
H686 H 0.38435 0.3488 0.50058 0.0
H687 H 0.33716 0.34642 0.53016 0.0
C688 C 0.22873 0.04793 0.39343 0.0
C689 C 0.25541 0.06651 0.37234 0.0
C690 C 0.23508 0.04996 0.44139 0.0
C691 C 0.26948 0.07091 0.46948 0.0
C692 C 0.29858 0.08882 0.44916 0.0
C693 C 0.29113 0.08645 0.40061 0.0
C694 C 0.20342 0.03033 0.46157 0.0
C695 C 0.33617 0.1111 0.47833 0.0
C696 C 0.23759 0.093 0.57841 0.0
C697 C 0.26933 0.07387 0.61233 0.0
C698 C 0.23882 0.0932 0.53207 0.0
C699 C 0.27329 0.07421 0.51973 0.0
C700 C 0.30703 0.05583 0.55445 0.0
C701 C 0.30428 0.05568 0.60016 0.0
C702 C 0.20182 0.11289 0.49585 0.0
C703 C 0.3449 0.03561 0.543 0.0
H704 H 0.20144 0.03219 0.37205 0.0
H705 H 0.31169 0.10094 0.38455 0.0
H706 H 0.2291 0.01747 0.49163 0.0
H707 H 0.17788 0.04389 0.47524 0.0
H708 H 0.17905 0.01481 0.43503 0.0
H709 H 0.35918 0.1214 0.45842 0.0
H710 H 0.31481 0.12859 0.48983 0.0
H711 H 0.36293 0.10068 0.51064 0.0
H712 H 0.21094 0.10733 0.58778 0.0
H713 H 0.32987 0.04133 0.62653 0.0
H714 H 0.17349 0.09928 0.46891 0.0
H715 H 0.22291 0.12614 0.47732 0.0
H716 H 0.18038 0.12795 0.51183 0.0
H717 H 0.32366 0.01763 0.51987 0.0
H718 H 0.373 0.02574 0.57519 0.0
H719 H 0.3665 0.04761 0.5235 0.0
C720 C 0.80463 0.95376 0.60073 0.0
C721 C 0.77354 0.93366 0.61418 0.0
C722 C 0.80632 0.95417 0.55469 0.0
C723 C 0.77557 0.93431 0.52098 0.0
C724 C 0.74536 0.91332 0.53466 0.0
C725 C 0.74501 0.91309 0.58129 0.0
C726 C 0.83954 0.97664 0.54174 0.0
C727 C 0.71171 0.89194 0.49956 0.0
C728 C 0.72465 0.96028 0.39444 0.0
C729 C 0.75479 0.9442 0.37325 0.0
C730 C 0.73149 0.95733 0.44239 0.0
C731 C 0.76988 0.93802 0.47038 0.0
C732 C 0.80187 0.92246 0.44988 0.0
C733 C 0.79387 0.92569 0.40136 0.0
C734 C 0.69661 0.97442 0.46279 0.0
C735 C 0.8436 0.90194 0.47894 0.0
H736 H 0.82778 0.96929 0.62628 0.0
H737 H 0.72138 0.89732 0.59163 0.0
H738 H 0.86273 0.96619 0.52209 0.0
H739 H 0.81454 0.99347 0.51826 0.0
H740 H 0.86612 0.98784 0.57325 0.0
H741 H 0.69424 0.87535 0.51664 0.0
H742 H 0.68016 0.90406 0.47291 0.0
H743 H 0.73442 0.88041 0.48048 0.0
H744 H 0.69454 0.97484 0.37325 0.0
H745 H 0.81713 0.9131 0.38527 0.0
H746 H 0.71999 0.98848 0.49216 0.0
H747 H 0.67463 0.95908 0.47747 0.0
H748 H 0.66867 0.98858 0.43613 0.0
H749 H 0.8694 0.91351 0.51036 0.0
H750 H 0.86723 0.89289 0.45848 0.0
H751 H 0.82592 0.88344 0.49193 0.0
C752 C 0.79245 0.58676 0.90377 0.0
C753 C 0.7529 0.56899 0.87502 0.0
C754 C 0.7996 0.59003 0.95211 0.0
C755 C 0.76633 0.57525 0.97184 0.0
C756 C 0.72714 0.55687 0.94315 0.0
C757 C 0.72108 0.55389 0.89534 0.0
C758 C 0.84209 0.60961 0.98188 0.0
C759 C 0.69097 0.54058 0.96278 0.0
C760 C 0.80251 0.55773 0.10178 0.0
C761 C 0.77312 0.57836 0.11674 0.0
C762 C 0.80281 0.55752 0.05532 0.0
C763 C 0.7725 0.57824 0.02267 0.0
C764 C 0.74388 0.59969 0.03775 0.0
C765 C 0.74479 0.59962 0.08479 0.0
C766 C 0.83423 0.53445 0.04086 0.0
C767 C 0.71088 0.62204 0.00378 0.0
H768 H 0.81694 0.59866 0.88834 0.0
H769 H 0.69044 0.54001 0.87362 0.0
H770 H 0.82524 0.62798 -0.00379 0.0
H771 H 0.86789 0.59716 0.01242 0.0
H772 H 0.86561 0.61887 0.96158 0.0
H773 H 0.66207 0.52742 0.93551 0.0
H774 H 0.7133 0.52565 0.99154 0.0
H775 H 0.67011 0.55636 0.97813 0.0
H776 H 0.8255 0.5416 0.12649 0.0
H777 H 0.72249 0.6158 0.09625 0.0
H778 H 0.85813 0.54465 0.0218 0.0
H779 H 0.80796 0.51869 0.01636 0.0
H780 H 0.86001 0.52205 0.07156 0.0
H781 H 0.7338 0.63338 0.98485 0.0
H782 H 0.69448 0.63871 0.0218 0.0
H783 H 0.6786 0.61078 0.97687 0.0
C784 C 0.27186 0.41264 0.90232 0.0
C785 C 0.24984 0.43714 0.87458 0.0
C786 C 0.27239 0.41034 0.949 0.0
C787 C 0.25028 0.43306 0.96823 0.0
C788 C 0.2268 0.45744 0.94005 0.0
C789 C 0.22697 0.45922 0.89363 0.0
C790 C 0.29801 0.38408 0.97818 0.0
C791 C 0.20292 0.48213 0.95938 0.0
C792 C 0.22771 0.42195 0.08535 0.0
C793 C 0.2716 0.43544 0.11652 0.0
C794 C 0.2201 0.42076 0.03672 0.0
C795 C 0.25738 0.43322 0.01931 0.0
C796 C 0.30174 0.44666 0.05066 0.0
C797 C 0.30821 0.44764 0.09865 0.0
C798 C 0.1723 0.4063 0.00398 0.0
C799 C 0.34251 0.46015 0.03358 0.0
H800 H 0.28899 0.39529 0.88769 0.0
H801 H 0.20906 0.47802 0.87226 0.0
H802 H 0.33332 0.39115 0.00674 0.0
H803 H 0.27194 0.3741 -0.0048 0.0
H804 H 0.30902 0.36708 0.95678 0.0
H805 H 0.18189 0.49807 0.93162 0.0
H806 H 0.17573 0.4733 0.97618 0.0
H807 H 0.23357 0.49402 0.98699 0.0
H808 H 0.19943 0.41236 0.09887 0.0
H809 H 0.3426 0.45793 0.12226 0.0
H810 H 0.1833 0.38817 0.98456 0.0
H811 H 0.14957 0.42236 0.97733 0.0
H812 H 0.14732 0.39738 0.02311 0.0
H813 H 0.35781 0.4435 0.01472 0.0
H814 H 0.37533 0.46922 0.06287 0.0
H815 H 0.32528 0.4781 0.00823 0.0
C816 C 0.18898 0.20093 0.24037 0.0
C817 C 0.2254 0.17815 0.24901 0.0
C818 C 0.2042 0.23048 0.24146 0.0
C819 C 0.25674 0.23731 0.24938 0.0
C820 C 0.29352 0.21432 0.25788 0.0
C821 C 0.27757 0.18515 0.25842 0.0
C822 C 0.16407 0.25438 0.23402 0.0
C823 C 0.34959 0.22044 0.26506 0.0
C824 C 0.28772 0.3122 0.20844 0.0
C825 C 0.30756 0.32716 0.25133 0.0
C826 C 0.27186 0.28275 0.20724 0.0
C827 C 0.27371 0.26846 0.24973 0.0
C828 C 0.29297 0.28376 0.29298 0.0
C829 C 0.31049 0.31264 0.29332 0.0
C830 C 0.25328 0.26692 0.16059 0.0
C831 C 0.29402 0.26986 0.33889 0.0
H832 H 0.14861 0.19563 0.23274 0.0
H833 H 0.30584 0.16764 0.26406 0.0
H834 H 0.17605 0.27018 0.26372 0.0
H835 H 0.16057 0.26675 0.20135 0.0
H836 H 0.12554 0.24555 0.23114 0.0
H837 H 0.37299 0.20003 0.26951 0.0
H838 H 0.35288 0.23278 0.23439 0.0
H839 H 0.36634 0.23434 0.29669 0.0
H840 H 0.28495 0.32347 0.17594 0.0
H841 H 0.32454 0.32437 0.32652 0.0
H842 H 0.21238 0.26046 0.15237 0.0
H843 H 0.27603 0.24647 0.16263 0.0
H844 H 0.25654 0.2806 0.13116 0.0
H845 H 0.2548 0.26224 0.33604 0.0
H846 H 0.30769 0.28524 0.36912 0.0
H847 H 0.31971 0.25034 0.34657 0.0
C848 C 0.32451 0.20119 0.76186 0.0
C849 C 0.28971 0.18144 0.73212 0.0
C850 C 0.31141 0.23103 0.7627 0.0
C851 C 0.26259 0.24126 0.73292 0.0
C852 C 0.22858 0.22166 0.70113 0.0
C853 C 0.24254 0.19205 0.70117 0.0
C854 C 0.34893 0.25137 0.79673 0.0
C855 C 0.17664 0.23173 0.66819 0.0
C856 C 0.20764 0.31208 0.76562 0.0
C857 C 0.22187 0.33242 0.73746 0.0
C858 C 0.22044 0.28214 0.76445 0.0
C859 C 0.24746 0.27261 0.73409 0.0
C860 C 0.26001 0.29309 0.70443 0.0
C861 C 0.24728 0.32264 0.70666 0.0
C862 C 0.20627 0.26083 0.79643 0.0
C863 C 0.28794 0.28394 0.671 0.0
H864 H 0.36061 0.19304 0.78638 0.0
H865 H 0.21546 0.17682 0.67818 0.0
H866 H 0.35749 0.27032 0.77746 0.0
H867 H 0.33138 0.26021 0.82229 0.0
H868 H 0.3858 0.24022 0.8166 0.0
H869 H 0.15548 0.21393 0.64446 0.0
H870 H 0.15263 0.23974 0.68896 0.0
H871 H 0.18144 0.25032 0.64625 0.0
H872 H 0.18838 0.3197 0.78963 0.0
H873 H 0.25812 0.33839 0.68465 0.0
H874 H 0.24178 0.2507 0.82118 0.0
H875 H 0.18252 0.24284 0.77534 0.0
H876 H 0.18449 0.27154 0.81722 0.0
H877 H 0.32664 0.27509 0.69132 0.0
H878 H 0.29283 0.30245 0.64886 0.0
H879 H 0.26649 0.26621 0.64743 0.0
C880 C 0.78205 0.68583 0.77261 0.0
C881 C 0.72908 0.67939 0.75665 0.0
C882 C 0.79963 0.71461 0.77209 0.0
C883 C 0.76342 0.73773 0.7566 0.0
C884 C 0.70989 0.7316 0.74258 0.0
C885 C 0.69333 0.70242 0.74202 0.0
C886 C 0.85694 0.7201 0.78625 0.0
C887 C 0.67008 0.7558 0.72734 0.0
C888 C 0.80665 0.81557 0.79316 0.0
C889 C 0.80799 0.8277 0.75079 0.0
C890 C 0.79291 0.78623 0.79574 0.0
C891 C 0.78151 0.76836 0.75514 0.0
C892 C 0.78567 0.78011 0.71284 0.0
C893 C 0.79792 0.80992 0.7109 0.0
C894 C 0.7877 0.77493 0.84115 0.0
C895 C 0.7753 0.76149 0.6692 0.0
H896 H 0.81002 0.66811 0.78316 0.0
H897 H 0.65243 0.69756 0.72945 0.0
H898 H 0.86612 0.72953 0.75598 0.0
H899 H 0.86902 0.73633 0.81529 0.0
H900 H 0.88009 0.69975 0.79789 0.0
H901 H 0.63024 0.74764 0.72056 0.0
H902 H 0.67827 0.77305 0.75486 0.0
H903 H 0.67198 0.76626 0.69467 0.0
H904 H 0.81349 0.82954 0.82374 0.0
H905 H 0.79796 0.81955 0.67795 0.0
H906 H 0.81166 0.75495 0.85311 0.0
H907 H 0.74702 0.76869 0.83512 0.0
H908 H 0.7993 0.79148 0.86985 0.0
H909 H 0.79776 0.74073 0.67785 0.0
H910 H 0.7853 0.773 0.64088 0.0
H911 H 0.73386 0.75558 0.65546 0.0
C912 C 0.78188 0.69495 0.28731 0.0
C913 C 0.8063 0.68416 0.25637 0.0
C914 C 0.76947 0.72472 0.28821 0.0
C915 C 0.78137 0.74443 0.25707 0.0
C916 C 0.80811 0.73393 0.22705 0.0
C917 C 0.82043 0.70379 0.22711 0.0
C918 C 0.74144 0.73476 0.32107 0.0
C919 C 0.82172 0.7543 0.19353 0.0
C920 C 0.69576 0.81245 0.22166 0.0
C921 C 0.72662 0.83423 0.25041 0.0
C922 C 0.71329 0.7833 0.22329 0.0
C923 C 0.76301 0.77555 0.25435 0.0
C924 C 0.79389 0.79721 0.28425 0.0
C925 C 0.77534 0.82618 0.28205 0.0
C926 C 0.67876 0.76081 0.19127 0.0
C927 C 0.84692 0.78987 0.31811 0.0
H928 H 0.77094 0.67977 0.31004 0.0
H929 H 0.83887 0.69544 0.20292 0.0
H930 H 0.76133 0.75381 0.34218 0.0
H931 H 0.70181 0.742 0.30016 0.0
H932 H 0.73866 0.71712 0.3456 0.0
H933 H 0.84595 0.74334 0.17528 0.0
H934 H 0.78585 0.76244 0.16656 0.0
H935 H 0.84264 0.7737 0.21276 0.0
H936 H 0.65825 0.81832 0.1969 0.0
H937 H 0.7998 0.84274 0.30428 0.0
H938 H 0.67087 0.74275 0.2126 0.0
H939 H 0.69843 0.75101 0.16801 0.0
H940 H 0.64135 0.77035 0.16887 0.0
H941 H 0.8442 0.7724 0.34283 0.0
H942 H 0.86622 0.80919 0.33896 0.0
H943 H 0.87155 0.78124 0.29836 0.0
loop_
_geom_bond_atom_site_label_1
_geom_bond_atom_site_label_2
_geom_bond_distance
_geom_bond_site_symmetry_2
_ccdc_geom_bond_type
Fe0 O2 1.918 . S
Fe0 O5 1.997 . S
Fe0 O6 2.002 . S
Fe0 O11 1.976 . S
Fe0 O14 1.996 . S
Fe1 O2 1.918 . S
Fe1 O9 1.997 . S
Fe1 O12 1.996 . S
Fe1 O16 1.976 . S
Fe1 O19 2.002 . S
O2 Fe0 1.918 . S
O2 Fe1 1.918 . S
O2 Fe3 1.918 . S
Fe3 O2 1.918 . S
Fe3 O4 2.002 . S
Fe3 O13 1.976 . S
Fe3 O17 1.996 . S
Fe3 O20 1.997 . S
O4 Fe3 2.002 . S
O4 C21 1.295 . S
O5 Fe0 1.997 . S
O5 C21 1.235 . S
O6 Fe0 2.002 . S
O6 C7 1.295 . S
C7 O6 1.295 . S
C7 O9 1.235 . S
C8 O13 1.287 . S
C8 O14 1.255 . S
O9 Fe1 1.997 . S
O9 C7 1.235 . S
C10 O16 1.287 . S
C10 O17 1.255 . S
O11 Fe0 1.976 . S
O11 C18 1.287 . S
O12 Fe1 1.996 . S
O12 C18 1.255 . S
O13 Fe3 1.976 . S
O13 C8 1.287 . S
O14 Fe0 1.996 . S
O14 C8 1.255 . S
C15 O19 1.295 . S
C15 O20 1.235 . S
O16 Fe1 1.976 . S
O16 C10 1.287 . S
O17 Fe3 1.996 . S
O17 C10 1.255 . S
C18 O11 1.287 . S
C18 O12 1.255 . S
O19 Fe1 2.002 . S
O19 C15 1.295 . S
O20 Fe3 1.997 . S
O20 C15 1.235 . S
C21 O4 1.295 . S
C21 O5 1.235 . S
Fe22 O24 1.918 . S
Fe22 O27 1.997 . S
Fe22 O28 2.002 . S
Fe22 O33 1.976 . S
Fe22 O36 1.996 . S
Fe23 O24 1.918 . S
Fe23 O31 1.997 . S
Fe23 O34 1.996 . S
Fe23 O38 1.976 . S
Fe23 O41 2.002 . S
O24 Fe22 1.918 . S
O24 Fe23 1.918 . S
O24 Fe25 1.918 . S
Fe25 O24 1.918 . S
Fe25 O26 2.002 . S
Fe25 O35 1.976 . S
Fe25 O39 1.996 . S
Fe25 O42 1.997 . S
O26 Fe25 2.002 . S
O26 C43 1.295 . S
O27 Fe22 1.997 . S
O27 C43 1.235 . S
O28 Fe22 2.002 . S
O28 C29 1.295 . S
C29 O28 1.295 . S
C29 O31 1.235 . S
C30 O35 1.287 . S
C30 O36 1.255 . S
O31 Fe23 1.997 . S
O31 C29 1.235 . S
C32 O38 1.287 . S
C32 O39 1.255 . S
O33 Fe22 1.976 . S
O33 C40 1.287 . S
O34 Fe23 1.996 . S
O34 C40 1.255 . S
O35 Fe25 1.976 . S
O35 C30 1.287 . S
O36 Fe22 1.996 . S
O36 C30 1.255 . S
C37 O41 1.295 . S
C37 O42 1.235 . S
O38 Fe23 1.976 . S
O38 C32 1.287 . S
O39 Fe25 1.996 . S
O39 C32 1.255 . S
C40 O33 1.287 . S
C40 O34 1.255 . S
O41 Fe23 2.002 . S
O41 C37 1.295 . S
O42 Fe25 1.997 . S
O42 C37 1.235 . S
C43 O26 1.295 . S
C43 O27 1.235 . S
Fe44 O46 1.918 . S
Fe44 O49 1.997 . S
Fe44 O50 2.002 . S
Fe44 O55 1.976 . S
Fe44 O58 1.996 . S
Fe45 O46 1.918 . S
Fe45 O53 1.997 . S
Fe45 O56 1.996 . S
Fe45 O60 1.976 . S
Fe45 O63 2.002 . S
O46 Fe44 1.918 . S
O46 Fe45 1.918 . S
O46 Fe47 1.918 . S
Fe47 O46 1.918 . S
Fe47 O48 2.002 . S
Fe47 O57 1.976 . S
Fe47 O61 1.996 . S
Fe47 O64 1.997 . S
O48 Fe47 2.002 . S
O48 C65 1.295 . S
O49 Fe44 1.997 . S
O49 C65 1.235 . S
O50 Fe44 2.002 . S
O50 C51 1.295 . S
C51 O50 1.295 . S
C51 O53 1.235 . S
C52 O57 1.287 . S
C52 O58 1.255 . S
O53 Fe45 1.997 . S
O53 C51 1.235 . S
C54 O60 1.287 . S
C54 O61 1.255 . S
O55 Fe44 1.976 . S
O55 C62 1.287 . S
O56 Fe45 1.996 . S
O56 C62 1.255 . S
O57 Fe47 1.976 . S
O57 C52 1.287 . S
O58 Fe44 1.996 . S
O58 C52 1.255 . S
C59 O63 1.295 . S
C59 O64 1.235 . S
O60 Fe45 1.976 . S
O60 C54 1.287 . S
O61 Fe47 1.996 . S
O61 C54 1.255 . S
C62 O55 1.287 . S
C62 O56 1.255 . S
O63 Fe45 2.002 . S
O63 C59 1.295 . S
O64 Fe47 1.997 . S
O64 C59 1.235 . S
C65 O48 1.295 . S
C65 O49 1.235 . S
Fe66 O68 1.918 . S
Fe66 O71 1.997 . S
Fe66 O72 2.002 . S
Fe66 O77 1.976 . S
Fe66 O80 1.996 . S
Fe67 O68 1.918 . S
Fe67 O75 1.997 . S
Fe67 O78 1.996 . S
Fe67 O82 1.976 . S
Fe67 O85 2.002 . S
O68 Fe66 1.918 . S
O68 Fe67 1.918 . S
O68 Fe69 1.918 . S
Fe69 O68 1.918 . S
Fe69 O70 2.002 . S
Fe69 O79 1.976 . S
Fe69 O83 1.996 . S
Fe69 O86 1.997 . S
O70 Fe69 2.002 . S
O70 C87 1.295 . S
O71 Fe66 1.997 . S
O71 C87 1.235 . S
O72 Fe66 2.002 . S
O72 C73 1.295 . S
C73 O72 1.295 . S
C73 O75 1.235 . S
C74 O79 1.287 . S
C74 O80 1.255 . S
O75 Fe67 1.997 . S
O75 C73 1.235 . S
C76 O82 1.287 . S
C76 O83 1.255 . S
O77 Fe66 1.976 . S
O77 C84 1.287 . S
O78 Fe67 1.996 . S
O78 C84 1.255 . S
O79 Fe69 1.976 . S
O79 C74 1.287 . S
O80 Fe66 1.996 . S
O80 C74 1.255 . S
C81 O85 1.295 . S
C81 O86 1.235 . S
O82 Fe67 1.976 . S
O82 C76 1.287 . S
O83 Fe69 1.996 . S
O83 C76 1.255 . S
C84 O77 1.287 . S
C84 O78 1.255 . S
O85 Fe67 2.002 . S
O85 C81 1.295 . S
O86 Fe69 1.997 . S
O86 C81 1.235 . S
C87 O70 1.295 . S
C87 O71 1.235 . S
Fe88 O90 1.918 . S
Fe88 O93 1.997 . S
Fe88 O94 2.002 . S
Fe88 O99 1.976 . S
Fe88 O102 1.996 . S
Fe89 O90 1.918 . S
Fe89 O97 1.997 . S
Fe89 O100 1.996 . S
Fe89 O104 1.976 . S
Fe89 O107 2.002 . S
O90 Fe88 1.918 . S
O90 Fe89 1.918 . S
O90 Fe91 1.918 . S
Fe91 O90 1.918 . S
Fe91 O92 2.002 . S
Fe91 O101 1.976 . S
Fe91 O105 1.996 . S
Fe91 O108 1.997 . S
O92 Fe91 2.002 . S
O92 C109 1.295 . S
O93 Fe88 1.997 . S
O93 C109 1.235 . S
O94 Fe88 2.002 . S
O94 C95 1.295 . S
C95 O94 1.295 . S
C95 O97 1.235 . S
C96 O101 1.287 . S
C96 O102 1.255 . S
O97 Fe89 1.997 . S
O97 C95 1.235 . S
C98 O104 1.287 . S
C98 O105 1.255 . S
O99 Fe88 1.976 . S
O99 C106 1.287 . S
O100 Fe89 1.996 . S
O100 C106 1.255 . S
O101 Fe91 1.976 . S
O101 C96 1.287 . S
O102 Fe88 1.996 . S
O102 C96 1.255 . S
C103 O107 1.295 . S
C103 O108 1.235 . S
O104 Fe89 1.976 . S
O104 C98 1.287 . S
O105 Fe91 1.996 . S
O105 C98 1.255 . S
C106 O99 1.287 . S
C106 O100 1.255 . S
O107 Fe89 2.002 . S
O107 C103 1.295 . S
O108 Fe91 1.997 . S
O108 C103 1.235 . S
C109 O92 1.295 . S
C109 O93 1.235 . S
Fe110 O112 1.918 . S
Fe110 O115 1.997 . S
Fe110 O116 2.002 . S
Fe110 O121 1.976 . S
Fe110 O124 1.996 . S
Fe111 O112 1.918 . S
Fe111 O119 1.997 . S
Fe111 O122 1.996 . S
Fe111 O126 1.976 . S
Fe111 O129 2.002 . S
O112 Fe110 1.918 . S
O112 Fe111 1.918 . S
O112 Fe113 1.918 . S
Fe113 O112 1.918 . S
Fe113 O114 2.002 . S
Fe113 O123 1.976 . S
Fe113 O127 1.996 . S
Fe113 O130 1.997 . S
O114 Fe113 2.002 . S
O114 C131 1.295 . S
O115 Fe110 1.997 . S
O115 C131 1.235 . S
O116 Fe110 2.002 . S
O116 C117 1.295 . S
C117 O116 1.295 . S
C117 O119 1.235 . S
C118 O123 1.287 . S
C118 O124 1.255 . S
O119 Fe111 1.997 . S
O119 C117 1.235 . S
C120 O126 1.287 . S
C120 O127 1.255 . S
O121 Fe110 1.976 . S
O121 C128 1.287 . S
O122 Fe111 1.996 . S
O122 C128 1.255 . S
O123 Fe113 1.976 . S
O123 C118 1.287 . S
O124 Fe110 1.996 . S
O124 C118 1.255 . S
C125 O129 1.295 . S
C125 O130 1.235 . S
O126 Fe111 1.976 . S
O126 C120 1.287 . S
O127 Fe113 1.996 . S
O127 C120 1.255 . S
C128 O121 1.287 . S
C128 O122 1.255 . S
O129 Fe111 2.002 . S
O129 C125 1.295 . S
O130 Fe113 1.997 . S
O130 C125 1.235 . S
C131 O114 1.295 . S
C131 O115 1.235 . S
Fe132 O134 1.918 . S
Fe132 O137 1.997 . S
Fe132 O138 2.002 . S
Fe132 O143 1.976 . S
Fe132 O146 1.996 . S
Fe133 O134 1.918 . S
Fe133 O141 1.997 . S
Fe133 O144 1.996 . S
Fe133 O148 1.976 . S
Fe133 O151 2.002 . S
O134 Fe132 1.918 . S
O134 Fe133 1.918 . S
O134 Fe135 1.918 . S
Fe135 O134 1.918 . S
Fe135 O136 2.002 . S
Fe135 O145 1.976 . S
Fe135 O149 1.996 . S
Fe135 O152 1.997 . S
O136 Fe135 2.002 . S
O136 C153 1.295 . S
O137 Fe132 1.997 . S
O137 C153 1.235 . S
O138 Fe132 2.002 . S
O138 C139 1.295 . S
C139 O138 1.295 . S
C139 O141 1.235 . S
C140 O145 1.287 . S
C140 O146 1.255 . S
O141 Fe133 1.997 . S
O141 C139 1.235 . S
C142 O148 1.287 . S
C142 O149 1.255 . S
O143 Fe132 1.976 . S
O143 C150 1.287 . S
O144 Fe133 1.996 . S
O144 C150 1.255 . S
O145 Fe135 1.976 . S
O145 C140 1.287 . S
O146 Fe132 1.996 . S
O146 C140 1.255 . S
C147 O151 1.295 . S
C147 O152 1.235 . S
O148 Fe133 1.976 . S
O148 C142 1.287 . S
O149 Fe135 1.996 . S
O149 C142 1.255 . S
C150 O143 1.287 . S
C150 O144 1.255 . S
O151 Fe133 2.002 . S
O151 C147 1.295 . S
O152 Fe135 1.997 . S
O152 C147 1.235 . S
C153 O136 1.295 . S
C153 O137 1.235 . S
Fe154 O156 1.918 . S
Fe154 O159 1.997 . S
Fe154 O160 2.002 . S
Fe154 O165 1.976 . S
Fe154 O168 1.996 . S
Fe155 O156 1.918 . S
Fe155 O163 1.997 . S
Fe155 O166 1.996 . S
Fe155 O170 1.976 . S
Fe155 O173 2.002 . S
O156 Fe154 1.918 . S
O156 Fe155 1.918 . S
O156 Fe157 1.918 . S
Fe157 O156 1.918 . S
Fe157 O158 2.002 . S
Fe157 O167 1.976 . S
Fe157 O171 1.996 . S
Fe157 O174 1.997 . S
O158 Fe157 2.002 . S
O158 C175 1.295 . S
O159 Fe154 1.997 . S
O159 C175 1.235 . S
O160 Fe154 2.002 . S
O160 C161 1.295 . S
C161 O160 1.295 . S
C161 O163 1.235 . S
C162 O167 1.287 . S
C162 O168 1.255 . S
O163 Fe155 1.997 . S
O163 C161 1.235 . S
C164 O170 1.287 . S
C164 O171 1.255 . S
O165 Fe154 1.976 . S
O165 C172 1.287 . S
O166 Fe155 1.996 . S
O166 C172 1.255 . S
O167 Fe157 1.976 . S
O167 C162 1.287 . S
O168 Fe154 1.996 . S
O168 C162 1.255 . S
C169 O173 1.295 . S
C169 O174 1.235 . S
O170 Fe155 1.976 . S
O170 C164 1.287 . S
O171 Fe157 1.996 . S
O171 C164 1.255 . S
C172 O165 1.287 . S
C172 O166 1.255 . S
O173 Fe155 2.002 . S
O173 C169 1.295 . S
O174 Fe157 1.997 . S
O174 C169 1.235 . S
C175 O158 1.295 . S
C175 O159 1.235 . S
C176 C177 1.391 . S
C176 C178 1.394 . S
C176 H192 0.931 . S
C177 C176 1.391 . S
C177 C181 1.376 . S
C178 C176 1.394 . S
C178 C179 1.369 . S
C178 C182 1.531 . S
C179 C178 1.369 . S
C179 C180 1.410 . S
C179 C187 1.503 . S
C180 C179 1.410 . S
C180 C181 1.392 . S
C180 C183 1.511 . S
C181 C177 1.376 . S
C181 C180 1.392 . S
C181 H193 0.929 . S
C182 C178 1.531 . S
C182 H194 0.960 . S
C182 H195 0.962 . S
C182 H196 0.960 . S
C183 C180 1.511 . S
C183 H197 0.961 1_565 S
C183 H198 0.961 1_565 S
C183 H199 0.961 . S
C184 C185 1.370 . S
C184 C186 1.363 . S
C184 H200 0.931 . S
C185 C184 1.370 . S
C185 C189 1.408 1_545 S
C186 C184 1.363 . S
C186 C187 1.370 1_545 S
C186 C190 1.524 . S
C187 C179 1.503 . S
C187 C186 1.370 1_565 S
C187 C188 1.403 . S
C188 C187 1.403 . S
C188 C189 1.404 . S
C188 C191 1.539 . S
C189 C185 1.408 1_565 S
C189 C188 1.404 . S
C189 H201 0.930 . S
C190 C186 1.524 . S
C190 H202 0.956 1_545 S
C190 H203 0.961 . S
C190 H204 0.961 . S
C191 C188 1.539 . S
C191 H205 0.958 . S
C191 H206 0.961 . S
C191 H207 0.960 . S
H192 C176 0.931 . S
H193 C181 0.929 . S
H194 C182 0.960 . S
H195 C182 0.962 . S
H196 C182 0.960 . S
H197 C183 0.961 1_545 S
H198 C183 0.961 1_545 S
H199 C183 0.961 . S
H200 C184 0.931 . S
H201 C189 0.930 . S
H202 C190 0.956 1_565 S
H203 C190 0.961 . S
H204 C190 0.961 . S
H205 C191 0.958 . S
H206 C191 0.961 . S
H207 C191 0.960 . S
C208 C209 1.391 . S
C208 C210 1.394 1_655 S
C208 H224 0.931 . S
C209 C208 1.391 . S
C209 C213 1.376 1_655 S
C210 C208 1.394 1_455 S
C210 C211 1.369 . S
C210 C214 1.531 1_565 S
C211 C210 1.369 . S
C211 C212 1.410 . S
C211 C219 1.503 . S
C212 C211 1.410 . S
C212 C213 1.392 . S
C212 C215 1.511 . S
C213 C209 1.376 1_455 S
C213 C212 1.392 . S
C213 H225 0.929 . S
C214 C210 1.531 1_545 S
C214 H226 0.960 . S
C214 H227 0.962 . S
C214 H228 0.972 . S
C215 C212 1.511 . S
C215 H229 0.961 . S
C215 H230 0.961 . S
C215 H231 0.961 . S
C216 C217 1.370 . S
C216 C218 1.363 1_545 S
C216 H232 0.931 . S
C217 C216 1.370 . S
C217 C221 1.408 . S
C218 C216 1.363 1_565 S
C218 C219 1.370 . S
C218 C222 1.524 . S
C219 C211 1.503 . S
C219 C218 1.370 . S
C219 C220 1.403 . S
C220 C219 1.403 . S
C220 C221 1.404 1_565 S
C220 C223 1.539 . S
C221 C217 1.408 . S
C221 C220 1.404 1_545 S
C221 H233 0.930 . S
C222 C218 1.524 . S
C222 H234 0.956 . S
C222 H235 0.961 . S
C222 H236 0.961 . S
C223 C220 1.539 . S
C223 H237 0.958 . S
C223 H238 0.961 . S
C223 H239 0.960 . S
H224 C208 0.931 . S
H225 C213 0.929 . S
H226 C214 0.960 . S
H227 C214 0.962 . S
H228 C214 0.972 . S
H229 C215 0.961 . S
H230 C215 0.961 . S
H231 C215 0.961 . S
H232 C216 0.931 . S
H233 C221 0.930 . S
H234 C222 0.956 . S
H235 C222 0.961 . S
H236 C222 0.961 . S
H237 C223 0.958 . S
H238 C223 0.961 . S
H239 C223 0.960 . S
C240 C241 1.391 1_545 S
C240 C242 1.394 . S
C240 H256 0.931 . S
C241 C240 1.391 1_565 S
C241 C245 1.376 . S
C242 C240 1.394 . S
C242 C243 1.369 . S
C242 C246 1.531 . S
C243 C242 1.369 . S
C243 C244 1.410 1_545 S
C243 C251 1.503 . S
C244 C243 1.410 1_565 S
C244 C245 1.392 . S
C244 C247 1.511 . S
C245 C241 1.376 . S
C245 C244 1.392 . S
C245 H257 0.929 . S
C246 C242 1.531 . S
C246 H258 0.960 . S
C246 H259 0.962 . S
C246 H260 0.960 . S
C247 C244 1.511 . S
C247 H261 0.961 . S
C247 H262 0.961 . S
C247 H263 0.961 . S
C248 C249 1.370 . S
C248 C250 1.363 . S
C248 H264 0.931 . S
C249 C248 1.370 . S
C249 C253 1.408 . S
C250 C248 1.363 . S
C250 C251 1.370 . S
C250 C254 1.524 . S
C251 C243 1.503 . S
C251 C250 1.370 . S
C251 C252 1.403 . S
C252 C251 1.403 . S
C252 C253 1.404 . S
C252 C255 1.539 . S
C253 C249 1.408 . S
C253 C252 1.404 . S
C253 H265 0.930 . S
C254 C250 1.524 . S
C254 H266 0.956 . S
C254 H267 0.961 . S
C254 H268 0.961 . S
C255 C252 1.539 . S
C255 H269 0.958 . S
C255 H270 0.961 . S
C255 H271 0.941 1_545 S
H256 C240 0.931 . S
H257 C245 0.929 . S
H258 C246 0.960 . S
H259 C246 0.962 . S
H260 C246 0.960 . S
H261 C247 0.961 . S
H262 C247 0.961 . S
H263 C247 0.961 . S
H264 C248 0.931 . S
H265 C253 0.930 . S
H266 C254 0.956 . S
H267 C254 0.961 . S
H268 C254 0.961 . S
H269 C255 0.958 . S
H270 C255 0.961 . S
H271 C255 0.941 1_565 S
C272 C273 1.391 . S
C272 C274 1.394 . S
C272 H288 0.931 . S
C273 C272 1.391 . S
C273 C277 1.376 1_565 S
C274 C272 1.394 . S
C274 C275 1.369 1_565 S
C274 C278 1.531 . S
C275 C274 1.369 1_545 S
C275 C276 1.410 . S
C275 C283 1.503 . S
C276 C275 1.410 . S
C276 C277 1.392 . S
C276 C279 1.511 . S
C277 C273 1.376 1_545 S
C277 C276 1.392 . S
C277 H289 0.929 . S
C278 C274 1.531 . S
C278 H290 0.960 . S
C278 H291 0.962 . S
C278 H292 0.960 . S
C279 C276 1.511 . S
C279 H293 0.961 . S
C279 H294 0.961 . S
C279 H295 0.961 . S
C280 C281 1.370 . S
C280 C282 1.363 1_455 S
C280 H296 0.931 . S
C281 C280 1.370 . S
C281 C285 1.408 1_455 S
C282 C280 1.363 1_655 S
C282 C283 1.370 . S
C282 C286 1.524 . S
C283 C275 1.503 . S
C283 C282 1.370 . S
C283 C284 1.403 . S
C284 C283 1.403 . S
C284 C285 1.404 . S
C284 C287 1.539 . S
C285 C281 1.408 1_655 S
C285 C284 1.404 . S
C285 H297 0.930 . S
C286 C282 1.524 . S
C286 H298 0.956 1_545 S
C286 H299 0.961 . S
C286 H300 0.961 1_655 S
C287 C284 1.539 . S
C287 H301 0.958 . S
C287 H302 0.961 . S
C287 H303 0.960 . S
H288 C272 0.931 . S
H289 C277 0.929 . S
H290 C278 0.960 . S
H291 C278 0.962 . S
H292 C278 0.960 . S
H293 C279 0.961 . S
H294 C279 0.961 . S
H295 C279 0.961 . S
H296 C280 0.931 . S
H297 C285 0.930 . S
H298 C286 0.956 1_565 S
H299 C286 0.961 . S
H300 C286 0.961 1_455 S
H301 C287 0.958 . S
H302 C287 0.961 . S
H303 C287 0.960 . S
C304 C305 1.391 1_655 S
C304 C306 1.394 . S
C304 H320 0.931 1_655 S
C305 C304 1.391 1_455 S
C305 C309 1.376 . S
C306 C304 1.394 . S
C306 C307 1.369 . S
C306 C310 1.531 . S
C307 C306 1.369 . S
C307 C308 1.410 . S
C307 C315 1.503 . S
C308 C307 1.410 . S
C308 C309 1.392 1_655 S
C308 C311 1.511 . S
C309 C305 1.376 . S
C309 C308 1.392 1_455 S
C309 H321 0.929 . S
C310 C306 1.531 . S
C310 H322 0.960 . S
C310 H323 0.962 . S
C310 H324 0.960 . S
C311 C308 1.511 . S
C311 H325 0.961 . S
C311 H326 0.961 . S
C311 H327 0.961 . S
C312 C313 1.370 . S
C312 C314 1.363 . S
C312 H328 0.931 . S
C313 C312 1.370 . S
C313 C317 1.408 . S
C314 C312 1.363 . S
C314 C315 1.370 . S
C314 C318 1.524 . S
C315 C307 1.503 . S
C315 C314 1.370 . S
C315 C316 1.403 . S
C316 C315 1.403 . S
C316 C317 1.404 . S
C316 C319 1.539 . S
C317 C313 1.408 . S
C317 C316 1.404 . S
C317 H329 0.930 . S
C318 C314 1.524 . S
C318 H330 0.956 . S
C318 H331 0.961 . S
C318 H332 0.961 . S
C319 C316 1.539 . S
C319 H333 0.958 . S
C319 H334 0.961 . S
C319 H335 0.960 . S
H320 C304 0.931 1_455 S
H321 C309 0.929 . S
H322 C310 0.960 . S
H323 C310 0.962 . S
H324 C310 0.960 . S
H325 C311 0.961 . S
H326 C311 0.961 . S
H327 C311 0.961 . S
H328 C312 0.931 . S
H329 C317 0.930 . S
H330 C318 0.956 . S
H331 C318 0.961 . S
H332 C318 0.961 . S
H333 C319 0.958 . S
H334 C319 0.961 . S
H335 C319 0.960 . S
C336 C337 1.391 . S
C336 C338 1.394 . S
C336 H352 0.931 . S
C337 C336 1.391 . S
C337 C341 1.376 . S
C338 C336 1.394 . S
C338 C339 1.369 . S
C338 C342 1.531 . S
C339 C338 1.369 . S
C339 C340 1.410 . S
C339 C347 1.503 . S
C340 C339 1.410 . S
C340 C341 1.392 . S
C340 C343 1.511 . S
C341 C337 1.376 . S
C341 C340 1.392 . S
C341 H353 0.929 . S
C342 C338 1.531 . S
C342 H354 0.960 . S
C342 H355 0.962 . S
C342 H356 0.960 . S
C343 C340 1.511 . S
C343 H357 0.961 . S
C343 H358 0.961 . S
C343 H359 0.961 . S
C344 C345 1.370 . S
C344 C346 1.363 . S
C344 H360 0.931 . S
C345 C344 1.370 . S
C345 C349 1.408 . S
C346 C344 1.363 . S
C346 C347 1.370 . S
C346 C350 1.524 . S
C347 C339 1.503 . S
C347 C346 1.370 . S
C347 C348 1.403 . S
C348 C347 1.403 . S
C348 C349 1.404 . S
C348 C351 1.539 . S
C349 C345 1.408 . S
C349 C348 1.404 . S
C349 H361 0.930 . S
C350 C346 1.524 . S
C350 H362 0.956 . S
C350 H363 0.961 . S
C350 H364 0.961 . S
C351 C348 1.539 . S
C351 H365 0.958 . S
C351 H366 0.961 . S
C351 H367 0.960 . S
H352 C336 0.931 . S
H353 C341 0.929 . S
H354 C342 0.960 . S
H355 C342 0.962 . S
H356 C342 0.960 . S
H357 C343 0.961 . S
H358 C343 0.961 . S
H359 C343 0.961 . S
H360 C344 0.931 . S
H361 C349 0.930 . S
H362 C350 0.956 . S
H363 C350 0.961 . S
H364 C350 0.961 . S
H365 C351 0.958 . S
H366 C351 0.961 . S
H367 C351 0.960 . S
C368 C369 1.391 1_455 S
C368 C370 1.394 . S
C368 H384 0.931 . S
C369 C368 1.391 1_655 S
C369 C373 1.376 . S
C370 C368 1.394 . S
C370 C371 1.369 . S
C370 C374 1.531 . S
C371 C370 1.369 . S
C371 C372 1.410 . S
C371 C379 1.503 . S
C372 C371 1.410 . S
C372 C373 1.392 1_455 S
C372 C375 1.511 . S
C373 C369 1.376 . S
C373 C372 1.392 1_655 S
C373 H385 0.929 . S
C374 C370 1.531 . S
C374 H386 0.960 . S
C374 H387 0.962 . S
C374 H388 0.960 . S
C375 C372 1.511 . S
C375 H389 0.961 1_455 S
C375 H390 0.961 . S
C375 H391 0.961 1_455 S
C376 C377 1.370 . S
C376 C378 1.363 . S
C376 H392 0.931 . S
C377 C376 1.370 . S
C377 C381 1.408 . S
C378 C376 1.363 . S
C378 C379 1.370 . S
C378 C382 1.524 . S
C379 C371 1.503 . S
C379 C378 1.370 . S
C379 C380 1.403 . S
C380 C379 1.403 . S
C380 C381 1.404 . S
C380 C383 1.539 . S
C381 C377 1.408 . S
C381 C380 1.404 . S
C381 H393 0.930 . S
C382 C378 1.524 . S
C382 H394 0.956 . S
C382 H395 0.961 . S
C382 H396 0.961 . S
C383 C380 1.539 . S
C383 H397 0.958 . S
C383 H398 0.961 . S
C383 H399 0.960 . S
H384 C368 0.931 . S
H385 C373 0.929 . S
H386 C374 0.960 . S
H387 C374 0.962 . S
H388 C374 0.960 . S
H389 C375 0.961 1_655 S
H390 C375 0.961 . S
H391 C375 0.961 1_655 S
H392 C376 0.931 . S
H393 C381 0.930 . S
H394 C382 0.956 . S
H395 C382 0.961 . S
H396 C382 0.961 . S
H397 C383 0.958 . S
H398 C383 0.961 . S
H399 C383 0.960 . S
C400 C401 1.391 . S
C400 C402 1.394 . S
C400 H416 0.931 . S
C401 C400 1.391 . S
C401 C405 1.376 . S
C402 C400 1.394 . S
C402 C403 1.369 . S
C402 C406 1.531 . S
C403 C402 1.369 . S
C403 C404 1.410 . S
C403 C411 1.503 . S
C404 C403 1.410 . S
C404 C405 1.392 . S
C404 C407 1.511 . S
C405 C401 1.376 . S
C405 C404 1.392 . S
C405 H417 0.929 . S
C406 C402 1.531 . S
C406 H418 0.960 . S
C406 H419 0.962 . S
C406 H420 0.960 . S
C407 C404 1.511 . S
C407 H421 0.961 . S
C407 H422 0.961 . S
C407 H423 0.961 . S
C408 C409 1.370 . S
C408 C410 1.363 . S
C408 H424 0.931 . S
C409 C408 1.370 . S
C409 C413 1.408 . S
C410 C408 1.363 . S
C410 C411 1.370 . S
C410 C414 1.524 . S
C411 C403 1.503 . S
C411 C410 1.370 . S
C411 C412 1.403 . S
C412 C411 1.403 . S
C412 C413 1.404 . S
C412 C415 1.539 . S
C413 C409 1.408 . S
C413 C412 1.404 . S
C413 H425 0.930 . S
C414 C410 1.524 . S
C414 H426 0.956 . S
C414 H427 0.961 . S
C414 H428 0.961 . S
C415 C412 1.539 . S
C415 H429 0.958 . S
C415 H430 0.961 . S
C415 H431 0.960 . S
H416 C400 0.931 . S
H417 C405 0.929 . S
H418 C406 0.960 . S
H419 C406 0.962 . S
H420 C406 0.960 . S
H421 C407 0.961 . S
H422 C407 0.961 . S
H423 C407 0.961 . S
H424 C408 0.931 . S
H425 C413 0.930 . S
H426 C414 0.956 . S
H427 C414 0.961 . S
H428 C414 0.961 . S
H429 C415 0.958 . S
H430 C415 0.961 . S
H431 C415 0.960 . S
C432 C433 1.391 1_565 S
C432 C434 1.394 . S
C432 H448 0.931 . S
C433 C432 1.391 1_545 S
C433 C437 1.376 . S
C434 C432 1.394 . S
C434 C435 1.369 . S
C434 C438 1.531 . S
C435 C434 1.369 . S
C435 C436 1.410 1_565 S
C435 C443 1.503 1_454 S
C436 C435 1.410 1_545 S
C436 C437 1.392 . S
C436 C439 1.511 1_455 S
C437 C433 1.376 . S
C437 C436 1.392 . S
C437 H449 0.929 . S
C438 C434 1.531 . S
C438 H450 0.960 1_554 S
C438 H451 0.962 1_554 S
C438 H452 0.960 . S
C439 C436 1.511 1_655 S
C439 H453 0.961 . S
C439 H454 0.961 . S
C439 H455 0.961 . S
C440 C441 1.370 1_545 S
C440 C442 1.363 . S
C440 H456 0.931 . S
C441 C440 1.370 1_565 S
C441 C445 1.408 . S
C442 C440 1.363 . S
C442 C443 1.370 1_545 S
C442 C446 1.524 1_655 S
C443 C435 1.503 1_656 S
C443 C442 1.370 1_565 S
C443 C444 1.403 . S
C444 C443 1.403 . S
C444 C445 1.404 . S
C444 C447 1.539 1_556 S
C445 C441 1.408 . S
C445 C444 1.404 . S
C445 H457 0.930 . S
C446 C442 1.524 1_455 S
C446 H458 0.956 . S
C446 H459 0.961 . S
C446 H460 0.961 . S
C447 C444 1.539 1_554 S
C447 H461 0.958 . S
C447 H462 0.961 . S
C447 H463 0.960 . S
H448 C432 0.931 . S
H449 C437 0.929 . S
H450 C438 0.960 1_556 S
H451 C438 0.962 1_556 S
H452 C438 0.960 . S
H453 C439 0.961 . S
H454 C439 0.961 . S
H455 C439 0.961 . S
H456 C440 0.931 . S
H457 C445 0.930 . S
H458 C446 0.956 . S
H459 C446 0.961 . S
H460 C446 0.961 . S
H461 C447 0.958 . S
H462 C447 0.961 . S
H463 C447 0.960 . S
C464 C465 1.391 . S
C464 C466 1.394 . S
C464 H480 0.931 . S
C465 C464 1.391 . S
C465 C469 1.376 1_565 S
C466 C464 1.394 . S
C466 C467 1.369 . S
C466 C470 1.531 . S
C467 C466 1.369 . S
C467 C468 1.410 1_565 S
C467 C475 1.503 1_564 S
C468 C467 1.410 1_545 S
C468 C469 1.392 . S
C468 C471 1.511 . S
C469 C465 1.376 1_545 S
C469 C468 1.392 . S
C469 H481 0.929 . S
C470 C466 1.531 . S
C470 H482 0.960 . S
C470 H483 0.962 . S
C470 H484 0.960 . S
C471 C468 1.511 . S
C471 H485 0.961 . S
C471 H486 0.961 1_554 S
C471 H487 0.961 . S
C472 C473 1.370 . S
C472 C474 1.363 1_545 S
C472 H488 0.931 1_545 S
C473 C472 1.370 . S
C473 C477 1.408 . S
C474 C472 1.363 1_565 S
C474 C475 1.370 1_565 S
C474 C478 1.524 . S
C475 C467 1.503 1_546 S
C475 C474 1.370 1_545 S
C475 C476 1.403 . S
C476 C475 1.403 . S
C476 C477 1.404 . S
C476 C479 1.539 1_556 S
C477 C473 1.408 . S
C477 C476 1.404 . S
C477 H489 0.930 . S
C478 C474 1.524 . S
C478 H490 0.956 . S
C478 H491 0.961 . S
C478 H492 0.961 . S
C479 C476 1.539 1_554 S
C479 H493 0.958 . S
C479 H494 0.961 . S
C479 H495 0.960 . S
H480 C464 0.931 . S
H481 C469 0.929 . S
H482 C470 0.960 . S
H483 C470 0.962 . S
H484 C470 0.960 . S
H485 C471 0.961 . S
H486 C471 0.961 1_556 S
H487 C471 0.961 . S
H488 C472 0.931 1_565 S
H489 C477 0.930 . S
H490 C478 0.956 . S
H491 C478 0.961 . S
H492 C478 0.961 . S
H493 C479 0.958 . S
H494 C479 0.961 . S
H495 C479 0.960 . S
C496 C497 1.391 . S
C496 C498 1.394 . S
C496 H512 0.931 . S
C497 C496 1.391 . S
C497 C501 1.376 . S
C498 C496 1.394 . S
C498 C499 1.369 . S
C498 C502 1.531 . S
C499 C498 1.369 . S
C499 C500 1.410 . S
C499 C507 1.503 . S
C500 C499 1.410 . S
C500 C501 1.392 . S
C500 C503 1.511 . S
C501 C497 1.376 . S
C501 C500 1.392 . S
C501 H513 0.929 . S
C502 C498 1.531 . S
C502 H514 0.960 . S
C502 H515 0.962 . S
C502 H516 0.960 . S
C503 C500 1.511 . S
C503 H517 0.961 . S
C503 H518 0.961 . S
C503 H519 0.961 . S
C504 C505 1.370 . S
C504 C506 1.363 . S
C504 H520 0.931 . S
C505 C504 1.370 . S
C505 C509 1.408 . S
C506 C504 1.363 . S
C506 C507 1.370 . S
C506 C510 1.524 . S
C507 C499 1.503 . S
C507 C506 1.370 . S
C507 C508 1.403 . S
C508 C507 1.403 . S
C508 C509 1.404 . S
C508 C511 1.539 . S
C509 C505 1.408 . S
C509 C508 1.404 . S
C509 H521 0.930 . S
C510 C506 1.524 . S
C510 H522 0.956 . S
C510 H523 0.961 . S
C510 H524 0.961 . S
C511 C508 1.539 . S
C511 H525 0.958 . S
C511 H526 0.961 . S
C511 H527 0.960 . S
H512 C496 0.931 . S
H513 C501 0.929 . S
H514 C502 0.960 . S
H515 C502 0.962 . S
H516 C502 0.960 . S
H517 C503 0.961 . S
H518 C503 0.961 . S
H519 C503 0.961 . S
H520 C504 0.931 . S
H521 C509 0.930 . S
H522 C510 0.956 . S
H523 C510 0.961 . S
H524 C510 0.961 . S
H525 C511 0.958 . S
H526 C511 0.961 . S
H527 C511 0.960 . S
C528 C529 1.391 . S
C528 C530 1.394 . S
C528 H544 0.931 . S
C529 C528 1.391 . S
C529 C533 1.376 . S
C530 C528 1.394 . S
C530 C531 1.369 . S
C530 C534 1.531 1_455 S
C531 C530 1.369 . S
C531 C532 1.410 . S
C531 C539 1.503 1_455 S
C532 C531 1.410 . S
C532 C533 1.392 . S
C532 C535 1.511 . S
C533 C529 1.376 . S
C533 C532 1.392 . S
C533 H545 0.929 . S
C534 C530 1.531 1_655 S
C534 H546 0.960 . S
C534 H547 0.962 1_655 S
C534 H548 0.960 . S
C535 C532 1.511 . S
C535 H549 0.961 . S
C535 H550 0.961 . S
C535 H551 0.961 . S
C536 C537 1.370 . S
C536 C538 1.363 . S
C536 H552 0.931 . S
C537 C536 1.370 . S
C537 C541 1.408 . S
C538 C536 1.363 . S
C538 C539 1.370 . S
C538 C542 1.524 1_655 S
C539 C531 1.503 1_655 S
C539 C538 1.370 . S
C539 C540 1.403 . S
C540 C539 1.403 . S
C540 C541 1.404 . S
C540 C543 1.539 . S
C541 C537 1.408 . S
C541 C540 1.404 . S
C541 H553 0.930 . S
C542 C538 1.524 1_455 S
C542 H554 0.956 . S
C542 H555 0.961 . S
C542 H556 0.961 . S
C543 C540 1.539 . S
C543 H557 0.958 . S
C543 H558 0.961 . S
C543 H559 0.960 . S
H544 C528 0.931 . S
H545 C533 0.929 . S
H546 C534 0.960 . S
H547 C534 0.962 1_455 S
H548 C534 0.960 . S
H549 C535 0.961 . S
H550 C535 0.961 . S
H551 C535 0.961 . S
H552 C536 0.931 . S
H553 C541 0.930 . S
H554 C542 0.956 . S
H555 C542 0.961 . S
H556 C542 0.961 . S
H557 C543 0.958 . S
H558 C543 0.961 . S
H559 C543 0.960 . S
C560 C561 1.391 . S
C560 C562 1.394 . S
C560 H576 0.931 . S
C561 C560 1.391 . S
C561 C565 1.376 . S
C562 C560 1.394 . S
C562 C563 1.369 . S
C562 C566 1.531 . S
C563 C562 1.369 . S
C563 C564 1.410 . S
C563 C571 1.503 1_556 S
C564 C563 1.410 . S
C564 C565 1.392 . S
C564 C567 1.511 1_556 S
C565 C561 1.376 . S
C565 C564 1.392 . S
C565 H577 0.929 . S
C566 C562 1.531 . S
C566 H578 0.960 . S
C566 H579 0.962 . S
C566 H580 0.960 . S
C567 C564 1.511 1_554 S
C567 H581 0.961 . S
C567 H582 0.961 . S
C567 H583 0.961 . S
C568 C569 1.370 . S
C568 C570 1.363 . S
C568 H584 0.931 . S
C569 C568 1.370 . S
C569 C573 1.408 . S
C570 C568 1.363 . S
C570 C571 1.370 . S
C570 C574 1.524 . S
C571 C563 1.503 1_554 S
C571 C570 1.370 . S
C571 C572 1.403 . S
C572 C571 1.403 . S
C572 C573 1.404 . S
C572 C575 1.539 . S
C573 C569 1.408 . S
C573 C572 1.404 . S
C573 H585 0.930 . S
C574 C570 1.524 . S
C574 H586 0.956 1_554 S
C574 H587 0.961 . S
C574 H588 0.961 . S
C575 C572 1.539 . S
C575 H589 0.958 . S
C575 H590 0.961 . S
C575 H591 0.960 . S
H576 C560 0.931 . S
H577 C565 0.929 . S
H578 C566 0.960 . S
H579 C566 0.962 . S
H580 C566 0.960 . S
H581 C567 0.961 . S
H582 C567 0.961 . S
H583 C567 0.961 . S
H584 C568 0.931 . S
H585 C573 0.930 . S
H586 C574 0.956 1_556 S
H587 C574 0.961 . S
H588 C574 0.961 . S
H589 C575 0.958 . S
H590 C575 0.961 . S
H591 C575 0.960 . S
C592 C593 1.391 . S
C592 C594 1.394 . S
C592 H608 0.931 . S
C593 C592 1.391 . S
C593 C597 1.376 . S
C594 C592 1.394 . S
C594 C595 1.369 . S
C594 C598 1.531 1_556 S
C595 C594 1.369 . S
C595 C596 1.410 . S
C595 C603 1.503 1_556 S
C596 C595 1.410 . S
C596 C597 1.392 . S
C596 C599 1.511 . S
C597 C593 1.376 . S
C597 C596 1.392 . S
C597 H609 0.929 . S
C598 C594 1.531 1_554 S
C598 H610 0.960 . S
C598 H611 0.962 . S
C598 H612 0.960 1_554 S
C599 C596 1.511 . S
C599 H613 0.961 . S
C599 H614 0.961 . S
C599 H615 0.961 . S
C600 C601 1.370 . S
C600 C602 1.363 . S
C600 H616 0.931 . S
C601 C600 1.370 . S
C601 C605 1.408 . S
C602 C600 1.363 . S
C602 C603 1.370 . S
C602 C606 1.524 . S
C603 C595 1.503 1_554 S
C603 C602 1.370 . S
C603 C604 1.403 . S
C604 C603 1.403 . S
C604 C605 1.404 . S
C604 C607 1.539 1_554 S
C605 C601 1.408 . S
C605 C604 1.404 . S
C605 H617 0.930 . S
C606 C602 1.524 . S
C606 H618 0.956 . S
C606 H619 0.961 . S
C606 H620 0.961 . S
C607 C604 1.539 1_556 S
C607 H621 0.958 1_556 S
C607 H622 0.961 1_556 S
C607 H623 0.960 . S
H608 C592 0.931 . S
H609 C597 0.929 . S
H610 C598 0.960 . S
H611 C598 0.962 . S
H612 C598 0.960 1_556 S
H613 C599 0.961 . S
H614 C599 0.961 . S
H615 C599 0.961 . S
H616 C600 0.931 . S
H617 C605 0.930 . S
H618 C606 0.956 . S
H619 C606 0.961 . S
H620 C606 0.961 . S
H621 C607 0.958 1_554 S
H622 C607 0.961 1_554 S
H623 C607 0.960 . S
C624 C625 1.391 . S
C624 C626 1.394 . S
C624 H640 0.931 . S
C625 C624 1.391 . S
C625 C629 1.376 . S
C626 C624 1.394 . S
C626 C627 1.369 . S
C626 C630 1.531 . S
C627 C626 1.369 . S
C627 C628 1.410 . S
C627 C635 1.503 . S
C628 C627 1.410 . S
C628 C629 1.392 . S
C628 C631 1.511 . S
C629 C625 1.376 . S
C629 C628 1.392 . S
C629 H641 0.929 . S
C630 C626 1.531 . S
C630 H642 0.960 . S
C630 H643 0.962 . S
C630 H644 0.960 . S
C631 C628 1.511 . S
C631 H645 0.961 . S
C631 H646 0.961 . S
C631 H647 0.961 . S
C632 C633 1.370 . S
C632 C634 1.363 . S
C632 H648 0.931 . S
C633 C632 1.370 . S
C633 C637 1.408 . S
C634 C632 1.363 . S
C634 C635 1.370 . S
C634 C638 1.524 . S
C635 C627 1.503 . S
C635 C634 1.370 . S
C635 C636 1.403 . S
C636 C635 1.403 . S
C636 C637 1.404 . S
C636 C639 1.539 . S
C637 C633 1.408 . S
C637 C636 1.404 . S
C637 H649 0.930 . S
C638 C634 1.524 . S
C638 H650 0.956 . S
C638 H651 0.961 . S
C638 H652 0.961 . S
C639 C636 1.539 . S
C639 H653 0.958 . S
C639 H654 0.961 . S
C639 H655 0.960 . S
H640 C624 0.931 . S
H641 C629 0.929 . S
H642 C630 0.960 . S
H643 C630 0.962 . S
H644 C630 0.960 . S
H645 C631 0.961 . S
H646 C631 0.961 . S
H647 C631 0.961 . S
H648 C632 0.931 . S
H649 C637 0.930 . S
H650 C638 0.956 . S
H651 C638 0.961 . S
H652 C638 0.961 . S
H653 C639 0.958 . S
H654 C639 0.961 . S
H655 C639 0.960 . S
C656 C657 1.391 . S
C656 C658 1.394 . S
C656 H672 0.931 . S
C657 C656 1.391 . S
C657 C661 1.376 . S
C658 C656 1.394 . S
C658 C659 1.369 . S
C658 C662 1.531 . S
C659 C658 1.369 . S
C659 C660 1.410 . S
C659 C667 1.503 . S
C660 C659 1.410 . S
C660 C661 1.392 . S
C660 C663 1.511 . S
C661 C657 1.376 . S
C661 C660 1.392 . S
C661 H673 0.929 . S
C662 C658 1.531 . S
C662 H674 0.960 . S
C662 H675 0.962 . S
C662 H676 0.960 . S
C663 C660 1.511 . S
C663 H677 0.961 . S
C663 H678 0.961 . S
C663 H679 0.961 . S
C664 C665 1.370 . S
C664 C666 1.363 . S
C664 H680 0.931 . S
C665 C664 1.370 . S
C665 C669 1.408 . S
C666 C664 1.363 . S
C666 C667 1.370 . S
C666 C670 1.524 . S
C667 C659 1.503 . S
C667 C666 1.370 . S
C667 C668 1.403 . S
C668 C667 1.403 . S
C668 C669 1.404 . S
C668 C671 1.539 . S
C669 C665 1.408 . S
C669 C668 1.404 . S
C669 H681 0.930 . S
C670 C666 1.524 . S
C670 H682 0.956 . S
C670 H683 0.961 . S
C670 H684 0.961 . S
C671 C668 1.539 . S
C671 H685 0.958 . S
C671 H686 0.961 . S
C671 H687 0.960 . S
H672 C656 0.931 . S
H673 C661 0.929 . S
H674 C662 0.960 . S
H675 C662 0.962 . S
H676 C662 0.960 . S
H677 C663 0.961 . S
H678 C663 0.961 . S
H679 C663 0.961 . S
H680 C664 0.931 . S
H681 C669 0.930 . S
H682 C670 0.956 . S
H683 C670 0.961 . S
H684 C670 0.961 . S
H685 C671 0.958 . S
H686 C671 0.961 . S
H687 C671 0.960 . S
C688 C689 1.391 . S
C688 C690 1.394 . S
C688 H704 0.931 . S
C689 C688 1.391 . S
C689 C693 1.376 . S
C690 C688 1.394 . S
C690 C691 1.369 . S
C690 C694 1.531 . S
C691 C690 1.369 . S
C691 C692 1.410 . S
C691 C699 1.503 . S
C692 C691 1.410 . S
C692 C693 1.392 . S
C692 C695 1.511 . S
C693 C689 1.376 . S
C693 C692 1.392 . S
C693 H705 0.929 . S
C694 C690 1.531 . S
C694 H706 0.960 . S
C694 H707 0.962 . S
C694 H708 0.960 . S
C695 C692 1.511 . S
C695 H709 0.961 . S
C695 H710 0.961 . S
C695 H711 0.961 . S
C696 C697 1.370 . S
C696 C698 1.363 . S
C696 H712 0.931 . S
C697 C696 1.370 . S
C697 C701 1.408 . S
C698 C696 1.363 . S
C698 C699 1.370 . S
C698 C702 1.524 . S
C699 C691 1.503 . S
C699 C698 1.370 . S
C699 C700 1.403 . S
C700 C699 1.403 . S
C700 C701 1.404 . S
C700 C703 1.539 . S
C701 C697 1.408 . S
C701 C700 1.404 . S
C701 H713 0.930 . S
C702 C698 1.524 . S
C702 H714 0.956 . S
C702 H715 0.961 . S
C702 H716 0.961 . S
C703 C700 1.539 . S
C703 H717 0.958 . S
C703 H718 0.961 . S
C703 H719 0.960 . S
H704 C688 0.931 . S
H705 C693 0.929 . S
H706 C694 0.960 . S
H707 C694 0.962 . S
H708 C694 0.960 . S
H709 C695 0.961 . S
H710 C695 0.961 . S
H711 C695 0.961 . S
H712 C696 0.931 . S
H713 C701 0.930 . S
H714 C702 0.956 . S
H715 C702 0.961 . S
H716 C702 0.961 . S
H717 C703 0.958 . S
H718 C703 0.961 . S
H719 C703 0.960 . S
C720 C721 1.391 . S
C720 C722 1.394 . S
C720 H736 0.931 . S
C721 C720 1.391 . S
C721 C725 1.376 . S
C722 C720 1.394 . S
C722 C723 1.369 . S
C722 C726 1.531 . S
C723 C722 1.369 . S
C723 C724 1.410 . S
C723 C731 1.503 . S
C724 C723 1.410 . S
C724 C725 1.392 . S
C724 C727 1.511 . S
C725 C721 1.376 . S
C725 C724 1.392 . S
C725 H737 0.929 . S
C726 C722 1.531 . S
C726 H738 0.960 . S
C726 H739 0.962 . S
C726 H740 0.960 . S
C727 C724 1.511 . S
C727 H741 0.961 . S
C727 H742 0.961 . S
C727 H743 0.961 . S
C728 C729 1.370 . S
C728 C730 1.363 . S
C728 H744 0.931 . S
C729 C728 1.370 . S
C729 C733 1.408 . S
C730 C728 1.363 . S
C730 C731 1.370 . S
C730 C734 1.524 . S
C731 C723 1.503 . S
C731 C730 1.370 . S
C731 C732 1.403 . S
C732 C731 1.403 . S
C732 C733 1.404 . S
C732 C735 1.539 . S
C733 C729 1.408 . S
C733 C732 1.404 . S
C733 H745 0.930 . S
C734 C730 1.524 . S
C734 H746 0.956 . S
C734 H747 0.961 . S
C734 H748 0.961 . S
C735 C732 1.539 . S
C735 H749 0.958 . S
C735 H750 0.961 . S
C735 H751 0.960 . S
H736 C720 0.931 . S
H737 C725 0.929 . S
H738 C726 0.960 . S
H739 C726 0.962 . S
H740 C726 0.960 . S
H741 C727 0.961 . S
H742 C727 0.961 . S
H743 C727 0.961 . S
H744 C728 0.931 . S
H745 C733 0.930 . S
H746 C734 0.956 . S
H747 C734 0.961 . S
H748 C734 0.961 . S
H749 C735 0.958 . S
H750 C735 0.961 . S
H751 C735 0.960 . S
C752 C753 1.391 . S
C752 C754 1.394 . S
C752 H768 0.931 . S
C753 C752 1.391 . S
C753 C757 1.376 . S
C754 C752 1.394 . S
C754 C755 1.369 . S
C754 C758 1.531 . S
C755 C754 1.369 . S
C755 C756 1.410 . S
C755 C763 1.503 1_556 S
C756 C755 1.410 . S
C756 C757 1.392 . S
C756 C759 1.511 . S
C757 C753 1.376 . S
C757 C756 1.392 . S
C757 H769 0.929 . S
C758 C754 1.531 . S
C758 H770 0.960 1_556 S
C758 H771 0.962 1_556 S
C758 H772 0.960 . S
C759 C756 1.511 . S
C759 H773 0.961 . S
C759 H774 0.961 . S
C759 H775 0.961 . S
C760 C761 1.370 . S
C760 C762 1.363 . S
C760 H776 0.931 . S
C761 C760 1.370 . S
C761 C765 1.408 . S
C762 C760 1.363 . S
C762 C763 1.370 . S
C762 C766 1.524 . S
C763 C755 1.503 1_554 S
C763 C762 1.370 . S
C763 C764 1.403 . S
C764 C763 1.403 . S
C764 C765 1.404 . S
C764 C767 1.539 . S
C765 C761 1.408 . S
C765 C764 1.404 . S
C765 H777 0.930 . S
C766 C762 1.524 . S
C766 H778 0.956 . S
C766 H779 0.961 . S
C766 H780 0.961 . S
C767 C764 1.539 . S
C767 H781 0.960 . S
C767 H782 0.961 . S
C767 H783 0.960 1_554 S
H768 C752 0.931 . S
H769 C757 0.929 . S
H770 C758 0.960 1_554 S
H771 C758 0.962 1_554 S
H772 C758 0.960 . S
H773 C759 0.961 . S
H774 C759 0.961 . S
H775 C759 0.961 . S
H776 C760 0.931 . S
H777 C765 0.930 . S
H778 C766 0.956 . S
H779 C766 0.961 . S
H780 C766 0.961 . S
H781 C767 0.960 . S
H782 C767 0.961 . S
H783 C767 0.960 1_556 S
C784 C785 1.391 . S
C784 C786 1.394 . S
C784 H800 0.931 . S
C785 C784 1.391 . S
C785 C789 1.376 . S
C786 C784 1.394 . S
C786 C787 1.369 . S
C786 C790 1.531 . S
C787 C786 1.369 . S
C787 C788 1.410 . S
C787 C795 1.503 1_556 S
C788 C787 1.410 . S
C788 C789 1.392 . S
C788 C791 1.517 . S
C789 C785 1.376 . S
C789 C788 1.392 . S
C789 H801 0.929 . S
C790 C786 1.531 . S
C790 H802 0.960 . S
C790 H803 0.962 . S
C790 H804 0.960 . S
C791 C788 1.517 . S
C791 H805 0.968 . S
C791 H806 0.949 1_556 S
C791 H807 0.959 1_556 S
C792 C793 1.370 . S
C792 C794 1.363 . S
C792 H808 0.931 . S
C793 C792 1.370 . S
C793 C797 1.408 . S
C794 C792 1.363 . S
C794 C795 1.370 . S
C794 C798 1.524 . S
C795 C787 1.503 1_554 S
C795 C794 1.370 . S
C795 C796 1.403 . S
C796 C795 1.403 . S
C796 C797 1.404 . S
C796 C799 1.539 . S
C797 C793 1.408 . S
C797 C796 1.404 . S
C797 H809 0.930 . S
C798 C794 1.524 . S
C798 H810 0.956 1_554 S
C798 H811 0.961 1_554 S
C798 H812 0.961 . S
C799 C796 1.539 . S
C799 H813 0.958 . S
C799 H814 0.961 . S
C799 H815 0.960 . S
H800 C784 0.931 . S
H801 C789 0.929 . S
H802 C790 0.960 . S
H803 C790 0.962 . S
H804 C790 0.960 . S
H805 C791 0.968 . S
H806 C791 0.949 1_554 S
H807 C791 0.959 1_554 S
H808 C792 0.931 . S
H809 C797 0.930 . S
H810 C798 0.956 1_556 S
H811 C798 0.961 1_556 S
H812 C798 0.961 . S
H813 C799 0.958 . S
H814 C799 0.961 . S
H815 C799 0.960 . S
C816 C817 1.391 . S
C816 C818 1.394 . S
C816 H832 0.931 . S
C817 C816 1.391 . S
C817 C821 1.376 . S
C818 C816 1.394 . S
C818 C819 1.369 . S
C818 C822 1.531 . S
C819 C818 1.369 . S
C819 C820 1.410 . S
C819 C827 1.503 . S
C820 C819 1.410 . S
C820 C821 1.392 . S
C820 C823 1.511 . S
C821 C817 1.376 . S
C821 C820 1.392 . S
C821 H833 0.929 . S
C822 C818 1.531 . S
C822 H834 0.960 . S
C822 H835 0.962 . S
C822 H836 0.960 . S
C823 C820 1.511 . S
C823 H837 0.961 . S
C823 H838 0.961 . S
C823 H839 0.961 . S
C824 C825 1.370 . S
C824 C826 1.363 . S
C824 H840 0.931 . S
C825 C824 1.370 . S
C825 C829 1.408 . S
C826 C824 1.363 . S
C826 C827 1.370 . S
C826 C830 1.524 . S
C827 C819 1.503 . S
C827 C826 1.370 . S
C827 C828 1.403 . S
C828 C827 1.403 . S
C828 C829 1.404 . S
C828 C831 1.539 . S
C829 C825 1.408 . S
C829 C828 1.404 . S
C829 H841 0.930 . S
C830 C826 1.524 . S
C830 H842 0.956 . S
C830 H843 0.961 . S
C830 H844 0.961 . S
C831 C828 1.539 . S
C831 H845 0.958 . S
C831 H846 0.961 . S
C831 H847 0.960 . S
H832 C816 0.931 . S
H833 C821 0.929 . S
H834 C822 0.960 . S
H835 C822 0.962 . S
H836 C822 0.960 . S
H837 C823 0.961 . S
H838 C823 0.961 . S
H839 C823 0.961 . S
H840 C824 0.931 . S
H841 C829 0.930 . S
H842 C830 0.956 . S
H843 C830 0.961 . S
H844 C830 0.961 . S
H845 C831 0.958 . S
H846 C831 0.961 . S
H847 C831 0.960 . S
C848 C849 1.391 . S
C848 C850 1.394 . S
C848 H864 0.931 . S
C849 C848 1.391 . S
C849 C853 1.376 . S
C850 C848 1.394 . S
C850 C851 1.369 . S
C850 C854 1.531 . S
C851 C850 1.369 . S
C851 C852 1.410 . S
C851 C859 1.503 . S
C852 C851 1.410 . S
C852 C853 1.392 . S
C852 C855 1.511 . S
C853 C849 1.376 . S
C853 C852 1.392 . S
C853 H865 0.929 . S
C854 C850 1.531 . S
C854 H866 0.960 . S
C854 H867 0.962 . S
C854 H868 0.960 . S
C855 C852 1.511 . S
C855 H869 0.961 . S
C855 H870 0.961 . S
C855 H871 0.961 . S
C856 C857 1.370 . S
C856 C858 1.363 . S
C856 H872 0.931 . S
C857 C856 1.370 . S
C857 C861 1.408 . S
C858 C856 1.363 . S
C858 C859 1.370 . S
C858 C862 1.524 . S
C859 C851 1.503 . S
C859 C858 1.370 . S
C859 C860 1.403 . S
C860 C859 1.403 . S
C860 C861 1.404 . S
C860 C863 1.539 . S
C861 C857 1.408 . S
C861 C860 1.404 . S
C861 H873 0.930 . S
C862 C858 1.524 . S
C862 H874 0.956 . S
C862 H875 0.961 . S
C862 H876 0.961 . S
C863 C860 1.539 . S
C863 H877 0.958 . S
C863 H878 0.961 . S
C863 H879 0.960 . S
H864 C848 0.931 . S
H865 C853 0.929 . S
H866 C854 0.960 . S
H867 C854 0.962 . S
H868 C854 0.960 . S
H869 C855 0.961 . S
H870 C855 0.961 . S
H871 C855 0.961 . S
H872 C856 0.931 . S
H873 C861 0.930 . S
H874 C862 0.956 . S
H875 C862 0.961 . S
H876 C862 0.961 . S
H877 C863 0.958 . S
H878 C863 0.961 . S
H879 C863 0.960 . S
C880 C881 1.391 . S
C880 C882 1.394 . S
C880 H896 0.931 . S
C881 C880 1.391 . S
C881 C885 1.376 . S
C882 C880 1.394 . S
C882 C883 1.369 . S
C882 C886 1.531 . S
C883 C882 1.369 . S
C883 C884 1.410 . S
C883 C891 1.503 . S
C884 C883 1.410 . S
C884 C885 1.392 . S
C884 C887 1.511 . S
C885 C881 1.376 . S
C885 C884 1.392 . S
C885 H897 0.929 . S
C886 C882 1.531 . S
C886 H898 0.960 . S
C886 H899 0.962 . S
C886 H900 0.960 . S
C887 C884 1.511 . S
C887 H901 0.961 . S
C887 H902 0.961 . S
C887 H903 0.961 . S
C888 C889 1.370 . S
C888 C890 1.363 . S
C888 H904 0.931 . S
C889 C888 1.370 . S
C889 C893 1.408 . S
C890 C888 1.363 . S
C890 C891 1.370 . S
C890 C894 1.524 . S
C891 C883 1.503 . S
C891 C890 1.370 . S
C891 C892 1.403 . S
C892 C891 1.403 . S
C892 C893 1.404 . S
C892 C895 1.539 . S
C893 C889 1.408 . S
C893 C892 1.404 . S
C893 H905 0.930 . S
C894 C890 1.524 . S
C894 H906 0.956 . S
C894 H907 0.961 . S
C894 H908 0.961 . S
C895 C892 1.539 . S
C895 H909 0.958 . S
C895 H910 0.961 . S
C895 H911 0.960 . S
H896 C880 0.931 . S
H897 C885 0.929 . S
H898 C886 0.960 . S
H899 C886 0.962 . S
H900 C886 0.960 . S
H901 C887 0.961 . S
H902 C887 0.961 . S
H903 C887 0.961 . S
H904 C888 0.931 . S
H905 C893 0.930 . S
H906 C894 0.956 . S
H907 C894 0.961 . S
H908 C894 0.961 . S
H909 C895 0.958 . S
H910 C895 0.961 . S
H911 C895 0.960 . S
C912 C913 1.391 . S
C912 C914 1.394 . S
C912 H928 0.931 . S
C913 C912 1.391 . S
C913 C917 1.376 . S
C914 C912 1.394 . S
C914 C915 1.369 . S
C914 C918 1.531 . S
C915 C914 1.369 . S
C915 C916 1.410 . S
C915 C923 1.503 . S
C916 C915 1.410 . S
C916 C917 1.392 . S
C916 C919 1.511 . S
C917 C913 1.376 . S
C917 C916 1.392 . S
C917 H929 0.929 . S
C918 C914 1.531 . S
C918 H930 0.960 . S
C918 H931 0.962 . S
C918 H932 0.960 . S
C919 C916 1.511 . S
C919 H933 0.961 . S
C919 H934 0.961 . S
C919 H935 0.961 . S
C920 C921 1.370 . S
C920 C922 1.363 . S
C920 H936 0.931 . S
C921 C920 1.370 . S
C921 C925 1.408 . S
C922 C920 1.363 . S
C922 C923 1.370 . S
C922 C926 1.524 . S
C923 C915 1.503 . S
C923 C922 1.370 . S
C923 C924 1.403 . S
C924 C923 1.403 . S
C924 C925 1.404 . S
C924 C927 1.539 . S
C925 C921 1.408 . S
C925 C924 1.404 . S
C925 H937 0.930 . S
C926 C922 1.524 . S
C926 H938 0.956 . S
C926 H939 0.961 . S
C926 H940 0.961 . S
C927 C924 1.539 . S
C927 H941 0.958 . S
C927 H942 0.961 . S
C927 H943 0.960 . S
H928 C912 0.931 . S
H929 C917 0.929 . S
H930 C918 0.960 . S
H931 C918 0.962 . S
H932 C918 0.960 . S
H933 C919 0.961 . S
H934 C919 0.961 . S
H935 C919 0.961 . S
H936 C920 0.931 . S
H937 C925 0.930 . S
H938 C926 0.956 . S
H939 C926 0.961 . S
H940 C926 0.961 . S
H941 C927 0.958 . S
H942 C927 0.961 . S
H943 C927 0.960 . S
C177 C76 1.362 . S
C185 C21 1.392 . S
C209 C52 1.325 . S
C217 C37 1.394 . S
C241 C51 1.397 . S
C249 C30 1.351 . S
C273 C87 1.410 . S
C281 C18 1.356 . S
C305 C164 1.322 . S
C313 C103 1.387 . S
C337 C125 1.389 . S
C345 C140 1.345 . S
C369 C118 1.314 . S
C377 C139 1.404 . S
C401 C96 1.326 . S
C409 C175 1.403 . S
C433 C7 1.155 . S
C441 C65 1.137 . S
C465 C81 1.141 . S
C473 C43 1.144 . S
C497 C109 1.166 . S
C505 C153 1.131 . S
C529 C169 1.117 . S
C537 C131 1.153 . S
C561 C29 0.962 . S
C569 C15 0.978 . S
C593 C59 0.976 . S
C601 C73 0.974 . S
C625 C117 0.957 . S
C633 C95 0.984 . S
C657 C161 0.984 . S
C665 C147 0.989 . S
C689 C8 1.372 . S
C697 C32 1.348 . S
C721 C62 1.377 . S
C729 C74 1.375 . S
C753 C98 1.337 . S
C761 C120 1.366 . S
C785 C162 1.386 . S
C793 C150 1.371 . S
C817 C10 1.664 . S
C825 C142 1.664 . S
C849 C40 1.681 . S
C857 C172 1.656 . S
C881 C106 1.648 . S
C889 C54 1.668 . S
C913 C128 1.683 . S
C921 C84 1.655 . S
