# Generated by pormake.
# Topology ukh, (4)-cn, num edge types: 1
# Building blocks:
#     Node 0, Type 0, BuildingBlock: KUFVIS_clean_sbu_0, # of connection points: 4
#     Node 1, Type 0, BuildingBlock: KUFVIS_clean_sbu_0, # of connection points: 4
#     Node 2, Type 0, BuildingBlock: KUFVIS_clean_sbu_0, # of connection points: 4
#     Node 3, Type 0, BuildingBlock: KUFVIS_clean_sbu_0, # of connection points: 4
#     Node 4, Type 0, BuildingBlock: KUFVIS_clean_sbu_0, # of connection points: 4
#     Node 5, Type 0, BuildingBlock: KUFVIS_clean_sbu_0, # of connection points: 4
#     Node 6, Type 0, BuildingBlock: KUFVIS_clean_sbu_0, # of connection points: 4
#     Node 7, Type 0, BuildingBlock: KUFVIS_clean_sbu_0, # of connection points: 4
#     Node 8, Type 0, BuildingBlock: KUFVIS_clean_sbu_0, # of connection points: 4
#     Node 9, Type 0, BuildingBlock: KUFVIS_clean_sbu_0, # of connection points: 4
#     Node 10, Type 0, BuildingBlock: KUFVIS_clean_sbu_0, # of connection points: 4
#     Node 11, Type 0, BuildingBlock: KUFVIS_clean_sbu_0, # of connection points: 4
#     Edge 12, Type (0, 0), BuildingBlock: CIFDUS_clean_linker_0, # of connection points: 2
#     Edge 13, Type (0, 0), BuildingBlock: CIFDUS_clean_linker_0, # of connection points: 2
#     Edge 14, Type (0, 0), BuildingBlock: CIFDUS_clean_linker_0, # of connection points: 2
#     Edge 15, Type (0, 0), BuildingBlock: CIFDUS_clean_linker_0, # of connection points: 2
#     Edge 16, Type (0, 0), BuildingBlock: CIFDUS_clean_linker_0, # of connection points: 2
#     Edge 17, Type (0, 0), BuildingBlock: CIFDUS_clean_linker_0, # of connection points: 2
#     Edge 18, Type (0, 0), BuildingBlock: CIFDUS_clean_linker_0, # of connection points: 2
#     Edge 19, Type (0, 0), BuildingBlock: CIFDUS_clean_linker_0, # of connection points: 2
#     Edge 20, Type (0, 0), BuildingBlock: CIFDUS_clean_linker_0, # of connection points: 2
#     Edge 21, Type (0, 0), BuildingBlock: CIFDUS_clean_linker_0, # of connection points: 2
#     Edge 22, Type (0, 0), BuildingBlock: CIFDUS_clean_linker_0, # of connection points: 2
#     Edge 23, Type (0, 0), BuildingBlock: CIFDUS_clean_linker_0, # of connection points: 2
#     Edge 24, Type (0, 0), BuildingBlock: CIFDUS_clean_linker_0, # of connection points: 2
#     Edge 25, Type (0, 0), BuildingBlock: CIFDUS_clean_linker_0, # of connection points: 2
#     Edge 26, Type (0, 0), BuildingBlock: CIFDUS_clean_linker_0, # of connection points: 2
#     Edge 27, Type (0, 0), BuildingBlock: CIFDUS_clean_linker_0, # of connection points: 2
#     Edge 28, Type (0, 0), BuildingBlock: CIFDUS_clean_linker_0, # of connection points: 2
#     Edge 29, Type (0, 0), BuildingBlock: CIFDUS_clean_linker_0, # of connection points: 2
#     Edge 30, Type (0, 0), BuildingBlock: CIFDUS_clean_linker_0, # of connection points: 2
#     Edge 31, Type (0, 0), BuildingBlock: CIFDUS_clean_linker_0, # of connection points: 2
#     Edge 32, Type (0, 0), BuildingBlock: CIFDUS_clean_linker_0, # of connection points: 2
#     Edge 33, Type (0, 0), BuildingBlock: CIFDUS_clean_linker_0, # of connection points: 2
#     Edge 34, Type (0, 0), BuildingBlock: CIFDUS_clean_linker_0, # of connection points: 2
#     Edge 35, Type (0, 0), BuildingBlock: CIFDUS_clean_linker_0, # of connection points: 2
# Relax obj value: 0.085
# Max RMSD: 0.126
# Mean RMSD: 0.126
data_MOF--net-ukh--node1-KUFVIS_clean_sbu_0--edge1-CIFDUS_clean_linker_0
_symmetry_space_group_name_H-M    P1
_symmetry_Int_Tables_number       1
_symmetry_cell_setting            triclinic
loop_
_symmetry_equiv_pos_as_xyz
'x, y, z'
_cell_length_a     28.515356
_cell_length_b     28.521307
_cell_length_c     53.40237
_cell_angle_alpha  89.871268
_cell_angle_beta   90.044188
_cell_angle_gamma 120.03666
loop_
_atom_site_label
_atom_site_type_symbol
_atom_site_fract_x
_atom_site_fract_y
_atom_site_fract_z
_atom_type_partial_charge
Mn0 Mn 0.31562 0.2282 0.05087 0.0
Mn1 Mn 0.28379 0.30591 0.08693 0.0
C2 C 0.25077 0.24757 0.03673 0.0
C3 C 0.30107 0.14211 0.04104 0.0
C4 C 0.38475 0.35158 0.05452 0.0
O5 O 0.34679 0.22646 0.08452 0.0
O6 O 0.31798 0.27274 0.10775 0.0
C7 C 0.20055 0.22198 0.11994 0.0
N8 N 0.21628 0.26444 0.1039 0.0
C9 C 0.13377 0.26608 0.1109 0.0
C10 C 0.11682 0.2226 0.12765 0.0
C11 C 0.15028 0.20035 0.13212 0.0
C12 C 0.18458 0.28642 0.09959 0.0
H13 H 0.22627 0.20492 0.12348 0.0
C14 C 0.34091 0.24411 0.10545 0.0
O15 O 0.34621 0.18538 0.03508 0.0
O16 O 0.2654 0.14893 0.05292 0.0
N17 N 0.24955 0.34 0.07005 0.0
C18 C 0.26783 0.37533 0.05043 0.0
C19 C 0.23725 0.39857 0.04215 0.0
C20 C 0.18831 0.38533 0.05416 0.0
C21 C 0.16995 0.34827 0.07411 0.0
C22 C 0.20234 0.3267 0.08165 0.0
H23 H 0.30499 0.38499 0.04095 0.0
O24 O 0.27614 0.23245 0.02156 0.0
O25 O 0.26344 0.25039 0.06049 0.0
O26 O 0.37693 0.30707 0.04504 0.0
O27 O 0.35319 0.35426 0.07058 0.0
C28 C 0.1196 0.32993 0.08599 0.0
C29 C 0.10152 0.28887 0.10437 0.0
H30 H 0.07785 0.20545 0.1369 0.0
H31 H 0.13734 0.1666 0.14491 0.0
H32 H 0.25121 0.4264 0.02647 0.0
H33 H 0.16451 0.40281 0.04751 0.0
H34 H 0.09373 0.34598 0.0806 0.0
H35 H 0.06212 0.27413 0.1129 0.0
Mn36 Mn 0.08726 0.31705 0.38081 0.0
Mn37 Mn 0.97932 0.284 0.41796 0.0
C38 C 1.00083 0.27149 0.36379 0.0
C39 C 0.14771 0.28766 0.36841 0.0
C40 C 0.04842 0.39634 0.39538 0.0
O41 O 0.11932 0.32957 0.41551 0.0
O42 O 0.04471 0.30356 0.43857 0.0
C43 C 0.97315 0.18343 0.43699 0.0
N44 N 0.94922 0.20864 0.42537 0.0
C45 C 0.86765 0.12357 0.41832 0.0
C46 C 0.89129 0.09677 0.43037 0.0
C47 C 0.94433 0.12684 0.43969 0.0
C48 C 0.89864 0.17996 0.41588 0.0
H49 H 0.01405 0.20624 0.44402 0.0
C50 C 0.09536 0.32054 0.43646 0.0
O51 O 0.1614 0.33846 0.36616 0.0
O52 O 0.09965 0.25556 0.37677 0.0
N53 N 0.9116 0.263 0.40195 0.0
C54 C 0.89198 0.29562 0.39448 0.0
C55 C 0.83822 0.27239 0.38609 0.0
C56 C 0.80451 0.21586 0.38633 0.0
C57 C 0.82443 0.18324 0.39572 0.0
C58 C 0.87825 0.20885 0.40402 0.0
H59 H 0.917 0.33901 0.39521 0.0
O60 O 0.04308 0.29578 0.34948 0.0
O61 O 0.01096 0.27335 0.38762 0.0
O62 O 0.08263 0.38731 0.38369 0.0
O63 O 0.00918 0.36119 0.40888 0.0
C64 C 0.79263 0.12647 0.39773 0.0
C65 C 0.81441 0.09659 0.40881 0.0
H66 H 0.86906 0.05315 0.43262 0.0
H67 H 0.96295 0.10645 0.44893 0.0
H68 H 0.8227 0.29801 0.37964 0.0
H69 H 0.76311 0.19803 0.37981 0.0
H70 H 0.75117 0.10547 0.39109 0.0
H71 H 0.78952 0.05298 0.41036 0.0
Mn72 Mn 0.7507 0.06022 0.72109 0.0
Mn73 Mn 0.6829 0.94909 0.75743 0.0
C74 C 0.72864 0.97606 0.70535 0.0
C75 C 0.83533 0.13282 0.70915 0.0
C76 C 0.62691 1.00046 0.72946 0.0
O77 O 0.7587 0.09255 0.75575 0.0
O78 O 0.71425 0.01595 0.77818 0.0
C79 C 0.78061 0.96245 0.78351 0.0
N80 N 0.73576 0.93174 0.76932 0.0
C81 C 0.757 0.86017 0.76665 0.0
C82 C 0.80321 0.89092 0.78134 0.0
C83 C 0.81512 0.94235 0.78975 0.0
C84 C 0.72454 0.88268 0.76073 0.0
H85 H 0.79018 0.00211 0.78997 0.0
C86 C 0.74198 0.06762 0.77652 0.0
O87 O 0.7912 0.13467 0.70539 0.0
O88 O 0.83011 0.08972 0.71974 0.0
N89 N 0.65056 0.88029 0.74099 0.0
C90 C 0.60087 0.853 0.72997 0.0
C91 C 0.58059 0.79927 0.72216 0.0
C92 C 0.61117 0.77374 0.72616 0.0
C93 C 0.6612 0.8018 0.73843 0.0
C94 C 0.6788 0.85494 0.74621 0.0
H95 H 0.57702 0.87214 0.72698 0.0
O96 O 0.74118 0.01659 0.69049 0.0
O97 O 0.73094 0.98654 0.72916 0.0
O98 O 0.67005 0.0396 0.71972 0.0
O99 O 0.62712 0.96491 0.74418 0.0
C100 C 0.69343 0.77849 0.74396 0.0
C101 C 0.74159 0.80787 0.75786 0.0
H102 H 0.82971 0.87538 0.78634 0.0
H103 H 0.85079 0.96641 0.80104 0.0
H104 H 0.54156 0.77765 0.71301 0.0
H105 H 0.59555 0.73239 0.71998 0.0
H106 H 0.68119 0.73773 0.73788 0.0
H107 H 0.76592 0.78944 0.76212 0.0
Mn108 Mn 0.69921 0.77727 0.04848 0.0
Mn109 Mn 0.73344 0.69272 0.07724 0.0
C110 C 0.75605 0.75374 0.02821 0.0
C111 C 0.71737 0.86494 0.03814 0.0
C112 C 0.62607 0.65382 0.05133 0.0
O113 O 0.68185 0.78278 0.08475 0.0
O114 O 0.70369 0.72402 0.10177 0.0
C115 C 0.82213 0.77022 0.11015 0.0
N116 N 0.8032 0.73033 0.0926 0.0
C117 C 0.88142 0.71981 0.09722 0.0
C118 C 0.90176 0.76074 0.11539 0.0
C119 C 0.87217 0.78633 0.12174 0.0
C120 C 0.83156 0.70578 0.08621 0.0
H121 H 0.79894 0.78913 0.11545 0.0
C122 C 0.6866 0.7578 0.10355 0.0
O123 O 0.66867 0.82355 0.03641 0.0
O124 O 0.75387 0.85559 0.0474 0.0
N125 N 0.76363 0.65954 0.05678 0.0
C126 C 0.74206 0.62684 0.03647 0.0
C127 C 0.76888 0.60134 0.02623 0.0
C128 C 0.81713 0.60918 0.03718 0.0
C129 C 0.83874 0.6434 0.05798 0.0
C130 C 0.81058 0.66823 0.06714 0.0
H131 H 0.7049 0.62064 0.02813 0.0
O132 O 0.72613 0.7683 0.01599 0.0
O133 O 0.75111 0.75152 0.05265 0.0
O134 O 0.63229 0.70022 0.0458 0.0
O135 O 0.66184 0.64754 0.06255 0.0
C136 C 0.8878 0.65496 0.06958 0.0
C137 C 0.90907 0.69306 0.08925 0.0
H138 H 0.94026 0.7732 0.12442 0.0
H139 H 0.88765 0.81799 0.13572 0.0
H140 H 0.75219 0.57535 0.01006 0.0
H141 H 0.83763 0.58933 0.02929 0.0
H142 H 0.91028 0.63599 0.06306 0.0
H143 H 0.94751 0.70267 0.09758 0.0
Mn144 Mn 0.9322 0.7055 0.38189 0.0
Mn145 Mn 0.04062 0.75314 0.42034 0.0
C146 C 0.01796 0.7672 0.36707 0.0
C147 C 0.86041 0.71378 0.36519 0.0
C148 C 0.9915 0.6431 0.39539 0.0
O149 O 0.89678 0.68446 0.41646 0.0
O150 O 0.9723 0.71866 0.43993 0.0
C151 C 0.02502 0.83946 0.44252 0.0
N152 N 0.05691 0.82424 0.43005 0.0
C153 C 0.12856 0.91687 0.42617 0.0
C154 C 0.0966 0.9335 0.43909 0.0
C155 C 0.04455 0.89461 0.44724 0.0
C156 C 0.10663 0.86142 0.42172 0.0
H157 H 0.98489 0.80979 0.44873 0.0
C158 C 0.92074 0.69393 0.4376 0.0
O159 O 0.86013 0.6681 0.3643 0.0
O160 O 0.90108 0.75359 0.37636 0.0
N161 N 0.11044 0.78828 0.40479 0.0
C162 C 0.13822 0.765 0.39521 0.0
C163 C 0.19248 0.79787 0.38792 0.0
C164 C 0.21791 0.85429 0.39087 0.0
C165 C 0.18908 0.87722 0.40147 0.0
C166 C 0.13547 0.84227 0.40888 0.0
H167 H 0.11917 0.72165 0.3932 0.0
O168 O 0.97925 0.7373 0.35173 0.0
O169 O 0.00492 0.76092 0.39064 0.0
O170 O 0.95333 0.64606 0.38407 0.0
O171 O 0.02614 0.68058 0.40964 0.0
C172 C 0.21191 0.93323 0.40557 0.0
C173 C 0.18146 0.95311 0.4177 0.0
H174 H 0.11166 0.97597 0.4429 0.0
H175 H 0.01956 0.90712 0.45715 0.0
H176 H 0.21464 0.77979 0.38002 0.0
H177 H 0.25967 0.87955 0.38508 0.0
H178 H 0.25301 0.96132 0.3997 0.0
H179 H 0.19947 0.99624 0.42083 0.0
Mn180 Mn 0.20174 0.89616 0.70995 0.0
Mn181 Mn 0.28548 0.00577 0.74449 0.0
C182 C 0.23208 0.98124 0.69299 0.0
C183 C 0.11191 0.83261 0.69901 0.0
C184 C 0.32334 0.93804 0.71676 0.0
O185 O 0.19057 0.86509 0.74462 0.0
O186 O 0.24629 0.93991 0.76641 0.0
C187 C 0.20612 0.01686 0.776 0.0
N188 N 0.24916 0.03894 0.76006 0.0
C189 C 0.26437 0.12876 0.76739 0.0
C190 C 0.22028 0.10702 0.78396 0.0
C191 C 0.19082 0.0508 0.78815 0.0
C192 C 0.2777 0.09296 0.75585 0.0
H193 H 0.18403 0.97379 0.77959 0.0
C194 C 0.21128 0.8892 0.76508 0.0
O195 O 0.15086 0.82219 0.69523 0.0
O196 O 0.12534 0.87874 0.70909 0.0
N197 N 0.32557 0.07269 0.72678 0.0
C198 C 0.36003 0.08523 0.70705 0.0
C199 C 0.3892 0.13905 0.69854 0.0
C200 C 0.38295 0.17937 0.71057 0.0
C201 C 0.34656 0.16526 0.73064 0.0
C202 C 0.31823 0.1109 0.73809 0.0
H203 H 0.36449 0.05419 0.69772 0.0
O204 O 0.21635 0.93866 0.67917 0.0
O205 O 0.23102 0.97343 0.71728 0.0
O206 O 0.27747 0.90188 0.70801 0.0
O207 O 0.32945 0.9777 0.73 0.0
C208 C 0.3358 0.20254 0.74295 0.0
C209 C 0.29483 0.18432 0.76138 0.0
H210 H 0.20828 0.13302 0.79334 0.0
H211 H 0.15667 0.03373 0.80087 0.0
H212 H 0.41648 0.14945 0.68276 0.0
H213 H 0.40538 0.22078 0.7039 0.0
H214 H 0.35749 0.245 0.7378 0.0
H215 H 0.28582 0.2131 0.77018 0.0
Mn216 Mn 0.75012 0.67811 0.6138 0.0
Mn217 Mn 0.68684 0.73193 0.58112 0.0
C218 C 0.7193 0.72846 0.63429 0.0
C219 C 0.83142 0.68659 0.62853 0.0
C220 C 0.62791 0.61689 0.60062 0.0
O221 O 0.76837 0.67016 0.57786 0.0
O222 O 0.71952 0.70089 0.55832 0.0
C223 C 0.79013 0.82115 0.56097 0.0
N224 N 0.74333 0.80437 0.57405 0.0
C225 C 0.76882 0.89638 0.58408 0.0
C226 C 0.81714 0.91453 0.57068 0.0
C227 C 0.82784 0.87672 0.55909 0.0
C228 C 0.73317 0.84043 0.58566 0.0
H229 H 0.79891 0.79245 0.55211 0.0
C230 C 0.75035 0.68031 0.55801 0.0
O231 O 0.7882 0.63918 0.62647 0.0
O232 O 0.82764 0.72792 0.62147 0.0
N233 N 0.65318 0.76528 0.59906 0.0
C234 C 0.60025 0.74208 0.6061 0.0
C235 C 0.58045 0.7745 0.61591 0.0
C236 C 0.61479 0.8308 0.61756 0.0
C237 C 0.66785 0.85427 0.60836 0.0
C238 C 0.68491 0.81981 0.59843 0.0
H239 H 0.5734 0.69917 0.60422 0.0
O240 O 0.73042 0.69616 0.64666 0.0
O241 O 0.72886 0.73231 0.6103 0.0
O242 O 0.67063 0.61724 0.60868 0.0
O243 O 0.62838 0.65775 0.59013 0.0
C244 C 0.70352 0.91064 0.60751 0.0
C245 C 0.75426 0.93167 0.5956 0.0
H246 H 0.84613 0.95739 0.56901 0.0
H247 H 0.86508 0.89038 0.54872 0.0
H248 H 0.53883 0.75615 0.62214 0.0
H249 H 0.59952 0.85572 0.62521 0.0
H250 H 0.69183 0.93821 0.61545 0.0
H251 H 0.78111 0.97511 0.59478 0.0
Mn252 Mn 0.10284 0.78169 0.95792 0.0
Mn253 Mn 0.98955 0.71009 0.92317 0.0
C254 C 0.02017 0.75891 0.97549 0.0
C255 C 0.17491 0.86519 0.97045 0.0
C256 C 0.04725 0.65899 0.94939 0.0
O257 O 0.13279 0.79215 0.92296 0.0
O258 O 0.05539 0.74565 0.90128 0.0
C259 C 0.98878 0.79855 0.8943 0.0
N260 N 0.963 0.7541 0.90931 0.0
C261 C 0.87707 0.7491 0.90279 0.0
C262 C 0.90266 0.79481 0.88722 0.0
C263 C 0.95882 0.81987 0.88311 0.0
C264 C 0.90907 0.72995 0.91354 0.0
H265 H 0.03172 0.81716 0.8907 0.0
C266 C 0.10705 0.7758 0.90246 0.0
O267 O 0.1777 0.82126 0.97257 0.0
O268 O 0.13132 0.86078 0.96075 0.0
N269 N 0.92222 0.67385 0.94079 0.0
C270 C 0.90579 0.63554 0.95911 0.0
C271 C 0.85153 0.6091 0.96702 0.0
C272 C 0.81472 0.62196 0.95584 0.0
C273 C 0.83276 0.66193 0.93717 0.0
C274 C 0.88739 0.68725 0.93025 0.0
H275 H 0.93398 0.62551 0.96763 0.0
O276 O 0.06215 0.76981 0.98903 0.0
O277 O 0.02716 0.76132 0.95112 0.0
O278 O 0.08648 0.70223 0.95862 0.0
O279 O 0.01025 0.65866 0.93597 0.0
C280 C 0.79911 0.67871 0.92561 0.0
C281 C 0.82126 0.72228 0.90842 0.0
H282 H 0.8797 0.81129 0.8785 0.0
H283 H 0.97885 0.85518 0.87114 0.0
H284 H 0.83799 0.57855 0.98154 0.0
H285 H 0.7729 0.60147 0.96199 0.0
H286 H 0.75654 0.65954 0.9304 0.0
H287 H 0.79532 0.7358 0.90019 0.0
Mn288 Mn 0.33453 0.09959 0.29322 0.0
Mn289 Mn 0.28623 0.99636 0.252 0.0
C290 C 0.28268 0.01147 0.3074 0.0
C291 C 0.32033 0.165 0.31276 0.0
C292 C 0.40079 0.04927 0.27235 0.0
O293 O 0.34546 0.13805 0.2601 0.0
O294 O 0.31576 0.06704 0.2342 0.0
C295 C 0.1948 0.01112 0.2362 0.0
N296 N 0.2131 0.97892 0.24582 0.0
C297 C 0.12195 0.90547 0.25184 0.0
C298 C 0.10221 0.93777 0.24188 0.0
C299 C 0.13881 0.99087 0.23407 0.0
C300 C 0.17818 0.92811 0.25379 0.0
H301 H 0.22262 0.05208 0.23029 0.0
C302 C 0.33623 0.11773 0.2383 0.0
O303 O 0.36897 0.17201 0.31096 0.0
O304 O 0.28134 0.12102 0.30341 0.0
N305 N 0.25501 0.92441 0.26525 0.0
C306 C 0.28055 0.89623 0.27102 0.0
C307 C 0.24984 0.84115 0.27746 0.0
C308 C 0.19303 0.81521 0.27737 0.0
C309 C 0.16753 0.84427 0.27019 0.0
C310 C 0.20037 0.89885 0.26356 0.0
H311 H 0.32399 0.91574 0.27095 0.0
O312 O 0.31318 0.04996 0.32274 0.0
O313 O 0.28239 0.02621 0.28436 0.0
O314 O 0.39814 0.08605 0.28521 0.0
O315 O 0.36113 0.01302 0.25947 0.0
C316 C 0.11085 0.8208 0.26866 0.0
C317 C 0.08805 0.85156 0.25971 0.0
H318 H 0.05905 0.92219 0.24008 0.0
H319 H 0.12391 0.01612 0.22642 0.0
H320 H 0.26991 0.81882 0.28254 0.0
H321 H 0.16944 0.77283 0.2825 0.0
H322 H 0.08444 0.77895 0.27403 0.0
H323 H 0.04441 0.83302 0.25849 0.0
Mn324 Mn 0.20199 0.30301 0.62812 0.0
Mn325 Mn 0.27498 0.26464 0.59234 0.0
C326 C 0.22881 0.24552 0.6452 0.0
C327 C 0.11682 0.28733 0.64122 0.0
C328 C 0.32352 0.37472 0.61716 0.0
O329 O 0.18924 0.32117 0.59324 0.0
O330 O 0.236 0.29161 0.57081 0.0
C331 C 0.18808 0.17224 0.56451 0.0
N332 N 0.23303 0.19316 0.57925 0.0
C333 C 0.24237 0.11464 0.57309 0.0
C334 C 0.19615 0.09219 0.55782 0.0
C335 C 0.16867 0.12095 0.55367 0.0
C336 C 0.25958 0.1657 0.58348 0.0
H337 H 0.16767 0.19484 0.56084 0.0
C338 C 0.20515 0.31221 0.5725 0.0
O339 O 0.15954 0.33509 0.64316 0.0
O340 O 0.12345 0.24952 0.63159 0.0
N341 N 0.31458 0.23711 0.60987 0.0
C342 C 0.35311 0.26099 0.62794 0.0
C343 C 0.38118 0.2351 0.63628 0.0
C344 C 0.37001 0.18554 0.62562 0.0
C345 C 0.33 0.16171 0.60708 0.0
C346 C 0.30272 0.18891 0.59988 0.0
H347 H 0.36193 0.29923 0.63601 0.0
O348 O 0.21692 0.27534 0.6591 0.0
O349 O 0.22504 0.25009 0.62093 0.0
O350 O 0.28056 0.36896 0.62766 0.0
O351 O 0.32425 0.33803 0.604 0.0
C352 C 0.31504 0.11135 0.59595 0.0
C353 C 0.27141 0.08796 0.57885 0.0
H354 H 0.18108 0.0527 0.5494 0.0
H355 H 0.13296 0.10386 0.54193 0.0
H356 H 0.41159 0.25345 0.65078 0.0
H357 H 0.3918 0.16575 0.63208 0.0
H358 H 0.33577 0.08957 0.60094 0.0
H359 H 0.25938 0.04861 0.57092 0.0
Mn360 Mn 0.9294 0.23025 0.94716 0.0
Mn361 Mn 0.03559 0.31 0.90983 0.0
C362 C 0.01621 0.25849 0.96098 0.0
C363 C 0.86811 0.14448 0.96347 0.0
C364 C 0.97756 0.35321 0.94118 0.0
O365 O 0.89315 0.21706 0.91326 0.0
O366 O 0.96584 0.27553 0.89069 0.0
C367 C 0.03209 0.22532 0.87651 0.0
N368 N 0.0603 0.26846 0.89197 0.0
C369 C 0.14386 0.27023 0.88297 0.0
C370 C 0.11577 0.22612 0.86678 0.0
C371 C 0.05962 0.20347 0.86361 0.0
C372 C 0.11444 0.29086 0.89501 0.0
H373 H 0.98896 0.2078 0.87399 0.0
C374 C 0.91527 0.24034 0.89268 0.0
O375 O 0.85871 0.18445 0.96555 0.0
O376 O 0.90952 0.1533 0.95013 0.0
N377 N 0.10586 0.34531 0.92491 0.0
C378 C 0.12469 0.38089 0.94434 0.0
C379 C 0.1793 0.40455 0.95142 0.0
C380 C 0.21391 0.39121 0.93848 0.0
C381 C 0.19334 0.35362 0.91885 0.0
C382 C 0.13869 0.33183 0.91245 0.0
H383 H 0.09789 0.39009 0.9547 0.0
O384 O 0.97672 0.24623 0.97641 0.0
O385 O 0.00458 0.25589 0.9371 0.0
O386 O 0.93915 0.30749 0.94897 0.0
O387 O 0.01569 0.35797 0.92711 0.0
C388 C 0.22422 0.33495 0.90622 0.0
C389 C 0.19951 0.29333 0.88828 0.0
H390 H 0.13674 0.20875 0.857 0.0
H391 H 0.03761 0.1692 0.85127 0.0
H392 H 0.19457 0.43261 0.96694 0.0
H393 H 0.25581 0.40894 0.94424 0.0
H394 H 0.26662 0.3512 0.91071 0.0
H395 H 0.22336 0.27836 0.87917 0.0
Mn396 Mn 0.70503 0.92521 0.28318 0.0
Mn397 Mn 0.75627 0.03505 0.24559 0.0
C398 C 0.76294 0.01071 0.29918 0.0
C399 C 0.71372 0.85508 0.30161 0.0
C400 C 0.64396 0.98496 0.26771 0.0
O401 O 0.68976 0.8906 0.24856 0.0
O402 O 0.72049 0.96693 0.2259 0.0
C403 C 0.84112 0.01587 0.22426 0.0
N404 N 0.82703 0.04871 0.23666 0.0
C405 C 0.92059 0.11709 0.24193 0.0
C406 C 0.93605 0.08408 0.22914 0.0
C407 C 0.89611 0.03321 0.22031 0.0
C408 C 0.86518 0.09732 0.24561 0.0
H409 H 0.81069 0.97664 0.2175 0.0
C410 C 0.69766 0.91536 0.22771 0.0
O411 O 0.66701 0.8527 0.30059 0.0
O412 O 0.75414 0.89654 0.29123 0.0
N413 N 0.79297 0.10473 0.26116 0.0
C414 C 0.77109 0.1346 0.26969 0.0
C415 C 0.80535 0.18826 0.27741 0.0
C416 C 0.86179 0.21105 0.27582 0.0
C417 C 0.88337 0.18039 0.26593 0.0
C418 C 0.84712 0.12746 0.2581 0.0
H419 H 0.72784 0.11766 0.2705 0.0
O420 O 0.73078 0.97141 0.31378 0.0
O421 O 0.76089 0.99853 0.27562 0.0
O422 O 0.64457 0.94447 0.27798 0.0
O423 O 0.6841 0.02266 0.2557 0.0
C424 C 0.93934 0.20091 0.26273 0.0
C425 C 0.95798 0.16907 0.25094 0.0
H426 H 0.97842 0.09747 0.22591 0.0
H427 H 0.9077 0.00744 0.21046 0.0
H428 H 0.78831 0.21199 0.28456 0.0
H429 H 0.88811 0.25237 0.28191 0.0
H430 H 0.96836 0.24142 0.26894 0.0
H431 H 1.00109 0.1854 0.24842 0.0
H432 H 0.61385 0.55686 0.03831 0.0
H433 H 0.52293 0.63754 0.05286 0.0
H434 H 0.43861 0.54986 0.05286 0.0
H435 H 0.39344 0.45064 0.05424 0.0
H436 H 0.48417 0.36996 0.03887 0.0
H437 H 0.56664 0.45805 0.0335 0.0
C438 C 0.57551 0.55545 0.04097 0.0
C439 C 0.5746 0.60358 0.04587 0.0
C440 C 0.52759 0.50508 0.0411 0.0
C441 C 0.52461 0.60114 0.04901 0.0
C442 C 0.47656 0.55099 0.04923 0.0
C443 C 0.43099 0.45212 0.04928 0.0
C444 C 0.43282 0.4037 0.04729 0.0
C445 C 0.47792 0.50271 0.04615 0.0
C446 C 0.48172 0.40652 0.04058 0.0
C447 C 0.52885 0.45686 0.03763 0.0
H448 H 0.97478 0.41684 0.37429 0.0
H449 H 0.12926 0.49457 0.41163 0.0
H450 H 0.12591 0.57885 0.41457 0.0
H451 H 0.07515 0.62741 0.4095 0.0
H452 H 0.91947 0.54792 0.37254 0.0
H453 H 0.92651 0.46679 0.36706 0.0
C454 C 0.00768 0.45231 0.38304 0.0
C455 C 0.05195 0.4496 0.39295 0.0
C456 C 0.00478 0.4999 0.38507 0.0
C457 C 0.09505 0.49605 0.40369 0.0
C458 C 0.09277 0.54392 0.40559 0.0
C459 C 0.04275 0.59252 0.40014 0.0
C460 C 0.99656 0.594 0.39164 0.0
C461 C 0.0472 0.54589 0.39686 0.0
C462 C 0.95536 0.5482 0.3794 0.0
C463 C 0.95937 0.50169 0.3762 0.0
H464 H 0.42101 0.01859 0.70189 0.0
H465 H 0.33829 0.85179 0.72563 0.0
H466 H 0.42588 0.85624 0.73164 0.0
H467 H 0.52553 0.91119 0.73474 0.0
H468 H 0.60737 0.07753 0.70954 0.0
H469 H 0.52012 0.07 0.70005 0.0
C470 C 0.42202 0.98273 0.70772 0.0
C471 C 0.37316 0.9348 0.71319 0.0
C472 C 0.47233 0.98605 0.71152 0.0
C473 C 0.37521 0.88878 0.72086 0.0
C474 C 0.42534 0.89169 0.72468 0.0
C475 C 0.52461 0.94568 0.72684 0.0
C476 C 0.57347 0.99507 0.72303 0.0
C477 C 0.47416 0.94068 0.72084 0.0
C478 C 0.5708 0.03914 0.7128 0.0
C479 C 0.52082 0.03482 0.70729 0.0
H480 H 0.52869 0.60831 0.6076 0.0
H481 H 0.60753 0.51298 0.60348 0.0
H482 H 0.5208 0.43059 0.61056 0.0
H483 H 0.42293 0.38559 0.61605 0.0
H484 H 0.34262 0.47933 0.6213 0.0
H485 H 0.43027 0.56309 0.61628 0.0
C486 C 0.52699 0.56963 0.60813 0.0
C487 C 0.5747 0.56697 0.60461 0.0
C488 C 0.47697 0.52239 0.61272 0.0
C489 C 0.5716 0.51631 0.60595 0.0
C490 C 0.52201 0.46917 0.61006 0.0
C491 C 0.42444 0.42433 0.61645 0.0
C492 C 0.37611 0.42613 0.61895 0.0
C493 C 0.47452 0.47177 0.61331 0.0
C494 C 0.37912 0.47677 0.61961 0.0
C495 C 0.42917 0.52456 0.61645 0.0
H496 H 0.0673 0.44962 0.95033 0.0
H497 H 0.89313 0.37264 0.94725 0.0
H498 H 0.89964 0.46141 0.95158 0.0
H499 H 0.9556 0.56081 0.95154 0.0
H500 H 0.1297 0.63707 0.95618 0.0
H501 H 0.12247 0.54774 0.95625 0.0
C502 C 0.0306 0.45192 0.95107 0.0
C503 C 0.97972 0.40452 0.94822 0.0
C504 C 0.0348 0.5028 0.95365 0.0
C505 C 0.93265 0.4084 0.94943 0.0
C506 C 0.93647 0.45917 0.95174 0.0
C507 C 0.99202 0.55803 0.953 0.0
C508 C 0.0433 0.6057 0.95356 0.0
C509 C 0.98743 0.50667 0.95316 0.0
C510 C 0.08991 0.60117 0.95571 0.0
C511 C 0.08572 0.55012 0.9556 0.0
H512 H 0.41263 0.96185 0.26319 0.0
H513 H 0.50425 0.13117 0.28254 0.0
H514 H 0.58773 0.12642 0.28269 0.0
H515 H 0.63443 0.07376 0.27697 0.0
H516 H 0.54056 0.90273 0.26155 0.0
H517 H 0.45756 0.90815 0.26074 0.0
C518 C 0.45053 0.99774 0.26766 0.0
C519 C 0.4518 0.04684 0.27282 0.0
C520 C 0.49791 0.99423 0.26852 0.0
C521 C 0.50186 0.09282 0.27853 0.0
C522 C 0.54963 0.09011 0.2786 0.0
C523 C 0.59581 0.03775 0.27344 0.0
C524 C 0.59364 0.98797 0.26908 0.0
C525 C 0.54813 0.041 0.27358 0.0
C526 C 0.54319 0.94139 0.26502 0.0
C527 C 0.49583 0.94458 0.26444 0.0
H528 H 0.36284 0.10525 0.19113 0.0
H529 H 0.33102 0.21063 0.2369 0.0
H530 H 0.33519 0.26326 0.19989 0.0
H531 H 0.33868 0.27329 0.15402 0.0
H532 H 0.37273 0.16849 0.10867 0.0
H533 H 0.37787 0.12256 0.14606 0.0
C534 C 0.35741 0.14011 0.19301 0.0
C535 C 0.34592 0.15362 0.21659 0.0
C536 C 0.36017 0.1703 0.17172 0.0
C537 C 0.33985 0.19939 0.21889 0.0
C538 C 0.34201 0.22936 0.19773 0.0
C539 C 0.34817 0.24105 0.15231 0.0
C540 C 0.35448 0.22404 0.12844 0.0
C541 C 0.35085 0.21437 0.17396 0.0
C542 C 0.36733 0.18247 0.1267 0.0
C543 C 0.37 0.15581 0.1481 0.0
H544 H 0.07007 0.3325 0.48412 0.0
H545 H 0.19087 0.32051 0.44038 0.0
H546 H 0.23746 0.31987 0.47864 0.0
H547 H 0.24026 0.31631 0.52459 0.0
H548 H 0.11996 0.32997 0.56808 0.0
H549 H 0.07726 0.33675 0.52984 0.0
C550 C 0.10682 0.33016 0.48295 0.0
C551 C 0.12664 0.32609 0.45945 0.0
C552 C 0.13348 0.3299 0.50498 0.0
C553 C 0.17473 0.32377 0.45824 0.0
C554 C 0.20129 0.32314 0.48011 0.0
C555 C 0.20499 0.32124 0.52571 0.0
C556 C 0.18322 0.32216 0.54921 0.0
C557 C 0.18049 0.32521 0.5036 0.0
C558 C 0.13775 0.32913 0.55029 0.0
C559 C 0.11305 0.3328 0.52841 0.0
H560 H 0.82593 0.17067 0.78307 0.0
H561 H 0.70034 0.03426 0.82347 0.0
H562 H 0.73947 0.07899 0.86314 0.0
H563 H 0.81489 0.15172 0.88637 0.0
H564 H 0.94308 0.28609 0.84598 0.0
H565 H 0.89698 0.24754 0.80648 0.0
C566 C 0.8064 0.15117 0.80052 0.0
C567 C 0.76039 0.09894 0.8002 0.0
C568 C 0.82992 0.17654 0.82338 0.0
C569 C 0.73597 0.07425 0.82308 0.0
C570 C 0.75841 0.09976 0.84584 0.0
C571 C 0.83235 0.17321 0.86901 0.0
C572 C 0.88275 0.2216 0.86927 0.0
C573 C 0.80627 0.15018 0.84623 0.0
C574 C 0.90459 0.24861 0.84645 0.0
C575 C 0.8783 0.22652 0.82378 0.0
H576 H 0.66321 0.83638 0.11613 0.0
H577 H 0.69131 0.71381 0.14862 0.0
H578 H 0.69105 0.74789 0.19046 0.0
H579 H 0.69291 0.819 0.21757 0.0
H580 H 0.66924 0.94358 0.18423 0.0
H581 H 0.65728 0.90195 0.14322 0.0
C582 C 0.66842 0.81643 0.13232 0.0
C583 C 0.67776 0.77284 0.12905 0.0
C584 C 0.6695 0.83696 0.15633 0.0
C585 C 0.68432 0.74764 0.15043 0.0
C586 C 0.68437 0.76722 0.17444 0.0
C587 C 0.68408 0.83632 0.20139 0.0
C588 C 0.68245 0.88457 0.20394 0.0
C589 C 0.67849 0.81282 0.17759 0.0
C590 C 0.67132 0.90679 0.18275 0.0
C591 C 0.66447 0.88302 0.15925 0.0
H592 H 0.83446 0.66303 0.54827 0.0
H593 H 0.70973 0.68186 0.51176 0.0
H594 H 0.74783 0.6816 0.47092 0.0
H595 H 0.82188 0.68502 0.44564 0.0
H596 H 0.94876 0.67076 0.48262 0.0
H597 H 0.90426 0.65964 0.52292 0.0
C598 C 0.81501 0.66619 0.53139 0.0
C599 C 0.76945 0.67282 0.53322 0.0
C600 C 0.8378 0.66719 0.5079 0.0
C601 C 0.74508 0.6771 0.51103 0.0
C602 C 0.76688 0.67701 0.48759 0.0
C603 C 0.83914 0.67839 0.46246 0.0
C604 C 0.88871 0.679 0.4611 0.0
C605 C 0.814 0.67338 0.4858 0.0
C606 C 0.91085 0.6709 0.48314 0.0
C607 C 0.88547 0.66459 0.50624 0.0
H608 H 0.0744 0.73967 0.85489 0.0
H609 H 0.20904 0.86269 0.897 0.0
H610 H 0.25483 0.90728 0.85825 0.0
H611 H 0.25339 0.91573 0.8124 0.0
H612 H 0.11941 0.79116 0.77048 0.0
H613 H 0.07725 0.74308 0.80904 0.0
C614 C 0.11406 0.77584 0.8556 0.0
C615 C 0.13786 0.79787 0.87887 0.0
C616 C 0.14034 0.80146 0.83322 0.0
C617 C 0.18959 0.8446 0.87939 0.0
C618 C 0.21581 0.87044 0.8572 0.0
C619 C 0.21527 0.8778 0.81168 0.0
C620 C 0.18959 0.85756 0.78852 0.0
C621 C 0.19104 0.84991 0.83401 0.0
C622 C 0.14034 0.80795 0.78798 0.0
C623 C 0.11591 0.78034 0.81007 0.0
H624 H 0.18755 0.89353 0.01879 0.0
H625 H 0.24988 0.95389 0.94515 0.0
H626 H 0.30319 0.04622 0.9617 0.0
H627 H 0.32123 0.11097 0.99615 0.0
H628 H 0.24888 0.05034 0.06846 0.0
H629 H 0.21108 0.95718 0.0538 0.0
C630 C 0.21427 0.92683 0.00663 0.0
C631 C 0.21598 0.91731 0.98099 0.0
C632 C 0.24243 0.97986 0.01609 0.0
C633 C 0.24903 0.96057 0.96507 0.0
C634 C 0.27903 0.01329 0.9745 0.0
C635 C 0.29845 0.07722 0.0088 0.0
C636 C 0.28797 0.08722 0.03335 0.0
C637 C 0.27464 0.02369 0.99984 0.0
C638 C 0.25742 0.04338 0.04949 0.0
C639 C 0.23565 0.99018 0.04109 0.0
H640 H 0.24291 0.33061 0.34018 0.0
H641 H 0.13353 0.1929 0.3854 0.0
H642 H 0.18217 0.14664 0.37472 0.0
H643 H 0.2486 0.13959 0.34926 0.0
H644 H 0.35968 0.27351 0.30335 0.0
H645 H 0.31874 0.32706 0.31779 0.0
C646 C 0.23036 0.29086 0.34789 0.0
C647 C 0.18373 0.26503 0.36317 0.0
C648 C 0.25884 0.26358 0.34155 0.0
C649 C 0.16837 0.21357 0.37317 0.0
C650 C 0.19633 0.18687 0.36718 0.0
C651 C 0.26479 0.1811 0.34294 0.0
C652 C 0.30711 0.20282 0.32549 0.0
C653 C 0.24056 0.21074 0.35093 0.0
C654 C 0.32759 0.25635 0.31718 0.0
C655 C 0.30368 0.28662 0.3252 0.0
H656 H 0.86778 0.18008 0.6632 0.0
H657 H 0.92518 0.17926 0.73773 0.0
H658 H 0.01892 0.23589 0.72389 0.0
H659 H 0.08484 0.27452 0.68941 0.0
H660 H 0.02817 0.26645 0.61399 0.0
H661 H 0.93449 0.22542 0.62906 0.0
C662 C 0.90089 0.19384 0.67646 0.0
C663 C 0.88979 0.17619 0.70148 0.0
C664 C 0.95499 0.22438 0.66805 0.0
C665 C 0.93293 0.19283 0.71842 0.0
C666 C 0.98653 0.22493 0.71048 0.0
C667 C 0.05199 0.26527 0.67647 0.0
C668 C 0.0631 0.27429 0.65076 0.0
C669 C 0.99815 0.23945 0.68519 0.0
C670 C 0.02033 0.26058 0.63394 0.0
C671 C 0.96681 0.23677 0.64254 0.0
H672 H 0.81816 0.95092 0.03529 0.0
H673 H 0.65306 0.89924 0.01482 0.0
H674 H 0.68381 0.9837 0.99115 0.0
H675 H 0.75996 0.06993 0.97331 0.0
H676 H 0.92407 0.11385 0.99223 0.0
H677 H 0.89149 0.03515 0.01934 0.0
C678 C 0.78856 0.95818 0.02597 0.0
C679 C 0.73336 0.91865 0.02687 0.0
C680 C 0.80663 0.00556 0.01178 0.0
C681 C 0.69585 0.92902 0.01452 0.0
C682 C 0.71349 0.97723 0.00085 0.0
C683 C 0.78821 0.06221 0.98358 0.0
C684 C 0.84437 0.09737 0.98063 0.0
C685 C 0.76907 0.01543 0.99885 0.0
C686 C 0.88071 0.08698 0.99395 0.0
C687 C 0.86216 0.04206 0.00954 0.0
H688 H 0.73315 0.77442 0.28757 0.0
H689 H 0.72199 0.85951 0.35172 0.0
H690 H 0.76314 0.81966 0.37816 0.0
H691 H 0.81315 0.77006 0.38165 0.0
H692 H 0.81922 0.67965 0.31848 0.0
H693 H 0.76856 0.71108 0.29309 0.0
C694 C 0.73808 0.78258 0.30751 0.0
C695 C 0.72415 0.81932 0.31783 0.0
C696 C 0.76148 0.75907 0.32266 0.0
C697 C 0.73156 0.83054 0.34355 0.0
C698 C 0.7556 0.80821 0.3586 0.0
C699 C 0.80216 0.75625 0.3625 0.0
C700 C 0.82011 0.72293 0.35186 0.0
C701 C 0.77231 0.77381 0.34819 0.0
C702 C 0.80553 0.70505 0.32709 0.0
C703 C 0.77693 0.72337 0.31252 0.0
H704 H 0.07044 0.75742 0.66076 0.0
H705 H 0.02453 0.82689 0.72103 0.0
H706 H 0.93166 0.78183 0.70602 0.0
H707 H 0.86611 0.73282 0.67301 0.0
H708 H 0.90882 0.66366 0.6118 0.0
H709 H 0.99971 0.69766 0.62984 0.0
C710 C 0.03971 0.76149 0.67087 0.0
C711 C 0.05458 0.79598 0.69185 0.0
C712 C 0.98585 0.73593 0.6618 0.0
C713 C 0.01438 0.80114 0.70469 0.0
C714 C 0.96115 0.77543 0.69611 0.0
C715 C 0.89497 0.72402 0.66402 0.0
C716 C 0.88107 0.69559 0.64134 0.0
C717 C 0.94686 0.74428 0.67428 0.0
C718 C 0.91867 0.68488 0.62953 0.0
C719 C 0.9707 0.70474 0.63975 0.0
H720 H 0.04442 0.26334 0.00968 0.0
H721 H 0.08804 0.23801 0.93632 0.0
H722 H 0.17332 0.24867 0.95228 0.0
H723 H 0.23266 0.26166 0.98848 0.0
H724 H 0.15735 0.22524 0.06077 0.0
H725 H 0.08519 0.24048 0.04506 0.0
C726 C 0.07298 0.26108 0.99705 0.0
C727 C 0.06503 0.25937 0.97095 0.0
C728 C 0.11567 0.25605 0.00702 0.0
C729 C 0.09886 0.24965 0.9555 0.0
C730 C 0.14601 0.2529 0.96496 0.0
C731 C 0.20094 0.25797 0.00093 0.0
C732 C 0.20439 0.25116 0.02684 0.0
C733 C 0.15516 0.25699 0.99083 0.0
C734 C 0.15983 0.23978 0.04192 0.0
C735 C 0.11762 0.24617 0.0326 0.0
H736 H 0.77387 0.10438 0.31789 0.0
H737 H 0.85811 0.01603 0.30683 0.0
H738 H 0.93732 0.08649 0.32893 0.0
H739 H 0.98267 0.17398 0.35084 0.0
H740 H 0.91195 0.27604 0.34796 0.0
H741 H 0.82696 0.2005 0.33179 0.0
C742 C 0.81031 0.10169 0.3196 0.0
C743 C 0.81121 0.0563 0.31022 0.0
C744 C 0.85724 0.1444 0.33033 0.0
C745 C 0.85746 0.05158 0.31348 0.0
C746 C 0.90248 0.0916 0.32614 0.0
C747 C 0.9483 0.17928 0.34678 0.0
C748 C 0.95071 0.22822 0.35283 0.0
C749 C 0.9028 0.13822 0.33458 0.0
C750 C 0.90834 0.23672 0.34567 0.0
C751 C 0.8605 0.19402 0.33589 0.0
H752 H 0.79648 0.82399 0.65163 0.0
H753 H 0.62423 0.71604 0.65161 0.0
H754 H 0.61043 0.78567 0.6716 0.0
H755 H 0.64946 0.88113 0.68603 0.0
H756 H 0.82092 0.97428 0.69985 0.0
H757 H 0.83444 0.90788 0.67671 0.0
C758 C 0.75601 0.81607 0.65606 0.0
C759 C 0.71085 0.7677 0.64816 0.0
C760 C 0.74894 0.85364 0.66999 0.0
C761 C 0.65897 0.75521 0.65581 0.0
C762 C 0.65129 0.79449 0.66762 0.0
C763 C 0.68917 0.88502 0.68544 0.0
C764 C 0.73377 0.93092 0.69558 0.0
C765 C 0.69607 0.84438 0.67432 0.0
C766 C 0.78588 0.9381 0.69278 0.0
C767 C 0.79363 0.90042 0.67951 0.0
H768 H 0.85036 0.76785 0.04772 0.0
H769 H 0.7711 0.75654 0.97776 0.0
H770 H 0.8518 0.7709 0.95543 0.0
H771 H 0.94239 0.77816 0.9561 0.0
H772 H 1.00064 0.74948 0.0254 0.0
H773 H 0.93251 0.75976 0.04803 0.0
C774 C 0.84797 0.76239 0.02774 0.0
C775 C 0.80243 0.7558 0.0148 0.0
C776 C 0.89073 0.76248 0.01484 0.0
C777 C 0.80435 0.75852 0.98844 0.0
C778 C 0.85018 0.76609 0.97552 0.0
C779 C 0.93663 0.76791 0.97567 0.0
C780 C 0.97378 0.758 0.98837 0.0
C781 C 0.89251 0.76547 0.98848 0.0
C782 C 0.9711 0.75443 0.01471 0.0
C783 C 0.93174 0.75961 0.02781 0.0
H784 H 0.11222 0.78012 0.34799 0.0
H785 H 0.02474 0.86392 0.36269 0.0
H786 H 0.09671 0.9458 0.34266 0.0
H787 H 0.1852 0.99341 0.32129 0.0
H788 H 0.28534 0.92031 0.32032 0.0
H789 H 0.20888 0.83415 0.33498 0.0
C790 C 0.11004 0.81695 0.34761 0.0
C791 C 0.06442 0.81691 0.35739 0.0
C792 C 0.15354 0.86512 0.33814 0.0
C793 C 0.06042 0.86386 0.35574 0.0
C794 C 0.10132 0.91044 0.34427 0.0
C795 C 0.1899 0.95832 0.32426 0.0
C796 C 0.2387 0.96084 0.31772 0.0
C797 C 0.1481 0.9115 0.33543 0.0
C798 C 0.24638 0.91723 0.3234 0.0
C799 C 0.20309 0.86854 0.33219 0.0
H800 H 0.22495 0.06461 0.71471 0.0
H801 H 0.22893 0.99824 0.64317 0.0
H802 H 0.21474 0.0662 0.62275 0.0
H803 H 0.20818 0.14926 0.62517 0.0
H804 H 0.2453 0.23613 0.69464 0.0
H805 H 0.23813 0.15759 0.71638 0.0
C806 C 0.22973 0.0686 0.69477 0.0
C807 C 0.2331 0.02873 0.68094 0.0
C808 C 0.2302 0.11258 0.68265 0.0
C809 C 0.229 0.02956 0.65463 0.0
C810 C 0.22154 0.06886 0.64272 0.0
C811 C 0.2207 0.15367 0.64443 0.0
C812 C 0.23202 0.20063 0.65751 0.0
C813 C 0.2243 0.1118 0.65642 0.0
C814 C 0.23905 0.20157 0.68366 0.0
C815 C 0.23557 0.15692 0.6962 0.0
loop_
_geom_bond_atom_site_label_1
_geom_bond_atom_site_label_2
_geom_bond_distance
_geom_bond_site_symmetry_2
_ccdc_geom_bond_type
Mn0 O5 2.095 . S
Mn0 O15 2.162 . S
Mn0 O16 2.297 . S
Mn0 O24 2.385 . S
Mn0 O25 2.209 . S
Mn0 O26 2.094 . S
Mn1 O6 2.121 . S
Mn1 N8 2.257 . S
Mn1 N17 2.282 . S
Mn1 O25 2.215 . S
Mn1 O27 2.117 . S
C2 O24 1.234 . S
C2 O25 1.283 . S
C3 O15 1.281 . S
C3 O16 1.236 . S
C4 O26 1.240 . S
C4 O27 1.264 . S
O5 Mn0 2.095 . S
O5 C14 1.250 . S
O6 Mn1 2.121 . S
O6 C14 1.258 . S
C7 N8 1.326 . S
C7 C11 1.460 . S
C7 H13 0.929 . S
N8 Mn1 2.257 . S
N8 C7 1.326 . S
N8 C12 1.362 . S
C9 C10 1.258 . S
C9 C12 1.431 . S
C9 C29 1.449 . S
C10 C9 1.258 . S
C10 C11 1.477 . S
C10 H30 0.931 . S
C11 C7 1.460 . S
C11 C10 1.477 . S
C11 H31 0.930 . S
C12 N8 1.362 . S
C12 C9 1.431 . S
C12 C22 1.476 . S
H13 C7 0.929 . S
C14 O5 1.250 . S
C14 O6 1.258 . S
O15 Mn0 2.162 . S
O15 C3 1.281 . S
O16 Mn0 2.297 . S
O16 C3 1.236 . S
N17 Mn1 2.282 . S
N17 C18 1.328 . S
N17 C22 1.318 . S
C18 N17 1.328 . S
C18 C19 1.457 . S
C18 H23 0.929 . S
C19 C18 1.457 . S
C19 C20 1.291 . S
C19 H32 0.931 . S
C20 C19 1.291 . S
C20 C21 1.373 . S
C20 H33 0.929 . S
C21 C20 1.373 . S
C21 C22 1.396 . S
C21 C28 1.403 . S
C22 C12 1.476 . S
C22 N17 1.318 . S
C22 C21 1.396 . S
H23 C18 0.929 . S
O24 Mn0 2.385 . S
O24 C2 1.234 . S
O25 Mn0 2.209 . S
O25 Mn1 2.215 . S
O25 C2 1.283 . S
O26 Mn0 2.094 . S
O26 C4 1.240 . S
O27 Mn1 2.117 . S
O27 C4 1.264 . S
C28 C21 1.403 . S
C28 C29 1.399 . S
C28 H34 0.929 . S
C29 C9 1.449 . S
C29 C28 1.399 . S
C29 H35 0.930 . S
H30 C10 0.931 . S
H31 C11 0.930 . S
H32 C19 0.931 . S
H33 C20 0.929 . S
H34 C28 0.929 . S
H35 C29 0.930 . S
Mn36 O41 2.095 . S
Mn36 O51 2.162 . S
Mn36 O52 2.297 . S
Mn36 O60 2.385 . S
Mn36 O61 2.209 . S
Mn36 O62 2.094 . S
Mn37 O42 2.121 1_655 S
Mn37 N44 2.257 . S
Mn37 N53 2.282 . S
Mn37 O61 2.215 1_655 S
Mn37 O63 2.117 1_655 S
C38 O60 1.234 . S
C38 O61 1.283 . S
C39 O51 1.281 . S
C39 O52 1.236 . S
C40 O62 1.240 . S
C40 O63 1.264 . S
O41 Mn36 2.095 . S
O41 C50 1.250 . S
O42 Mn37 2.121 1_455 S
O42 C50 1.258 . S
C43 N44 1.326 . S
C43 C47 1.460 . S
C43 H49 0.929 . S
N44 Mn37 2.257 . S
N44 C43 1.326 . S
N44 C48 1.362 . S
C45 C46 1.258 . S
C45 C48 1.431 . S
C45 C65 1.449 . S
C46 C45 1.258 . S
C46 C47 1.477 . S
C46 H66 0.931 . S
C47 C43 1.460 . S
C47 C46 1.477 . S
C47 H67 0.930 . S
C48 N44 1.362 . S
C48 C45 1.431 . S
C48 C58 1.476 . S
H49 C43 0.929 . S
C50 O41 1.250 . S
C50 O42 1.258 . S
O51 Mn36 2.162 . S
O51 C39 1.281 . S
O52 Mn36 2.297 . S
O52 C39 1.236 . S
N53 Mn37 2.282 . S
N53 C54 1.328 . S
N53 C58 1.318 . S
C54 N53 1.328 . S
C54 C55 1.457 . S
C54 H59 0.929 . S
C55 C54 1.457 . S
C55 C56 1.291 . S
C55 H68 0.931 . S
C56 C55 1.291 . S
C56 C57 1.373 . S
C56 H69 0.929 . S
C57 C56 1.373 . S
C57 C58 1.396 . S
C57 C64 1.403 . S
C58 C48 1.476 . S
C58 N53 1.318 . S
C58 C57 1.396 . S
H59 C54 0.929 . S
O60 Mn36 2.385 . S
O60 C38 1.234 . S
O61 Mn36 2.209 . S
O61 Mn37 2.215 1_455 S
O61 C38 1.283 . S
O62 Mn36 2.094 . S
O62 C40 1.240 . S
O63 Mn37 2.117 1_455 S
O63 C40 1.264 . S
C64 C57 1.403 . S
C64 C65 1.399 . S
C64 H70 0.929 . S
C65 C45 1.449 . S
C65 C64 1.399 . S
C65 H71 0.930 . S
H66 C46 0.931 . S
H67 C47 0.930 . S
H68 C55 0.931 . S
H69 C56 0.929 . S
H70 C64 0.929 . S
H71 C65 0.930 . S
Mn72 O77 2.095 . S
Mn72 O87 2.162 . S
Mn72 O88 2.297 . S
Mn72 O96 2.385 . S
Mn72 O97 2.209 . S
Mn72 O98 2.094 . S
Mn73 O78 2.121 1_565 S
Mn73 N80 2.257 . S
Mn73 N89 2.282 . S
Mn73 O97 2.215 1_565 S
Mn73 O99 2.117 1_565 S
C74 O96 1.234 . S
C74 O97 1.283 . S
C75 O87 1.281 . S
C75 O88 1.236 . S
C76 O98 1.240 . S
C76 O99 1.264 . S
O77 Mn72 2.095 . S
O77 C86 1.250 . S
O78 Mn73 2.121 1_545 S
O78 C86 1.258 . S
C79 N80 1.326 . S
C79 C83 1.460 . S
C79 H85 0.929 . S
N80 Mn73 2.257 . S
N80 C79 1.326 . S
N80 C84 1.362 . S
C81 C82 1.258 . S
C81 C84 1.431 . S
C81 C101 1.449 . S
C82 C81 1.258 . S
C82 C83 1.477 . S
C82 H102 0.931 . S
C83 C79 1.460 . S
C83 C82 1.477 . S
C83 H103 0.930 . S
C84 N80 1.362 . S
C84 C81 1.431 . S
C84 C94 1.476 . S
H85 C79 0.929 . S
C86 O77 1.250 . S
C86 O78 1.258 . S
O87 Mn72 2.162 . S
O87 C75 1.281 . S
O88 Mn72 2.297 . S
O88 C75 1.236 . S
N89 Mn73 2.282 . S
N89 C90 1.328 . S
N89 C94 1.318 . S
C90 N89 1.328 . S
C90 C91 1.457 . S
C90 H95 0.929 . S
C91 C90 1.457 . S
C91 C92 1.291 . S
C91 H104 0.931 . S
C92 C91 1.291 . S
C92 C93 1.373 . S
C92 H105 0.929 . S
C93 C92 1.373 . S
C93 C94 1.396 . S
C93 C100 1.403 . S
C94 C84 1.476 . S
C94 N89 1.318 . S
C94 C93 1.396 . S
H95 C90 0.929 . S
O96 Mn72 2.385 . S
O96 C74 1.234 . S
O97 Mn72 2.209 . S
O97 Mn73 2.215 1_545 S
O97 C74 1.283 . S
O98 Mn72 2.094 . S
O98 C76 1.240 . S
O99 Mn73 2.117 1_545 S
O99 C76 1.264 . S
C100 C93 1.403 . S
C100 C101 1.399 . S
C100 H106 0.929 . S
C101 C81 1.449 . S
C101 C100 1.399 . S
C101 H107 0.930 . S
H102 C82 0.931 . S
H103 C83 0.930 . S
H104 C91 0.931 . S
H105 C92 0.929 . S
H106 C100 0.929 . S
H107 C101 0.930 . S
Mn108 O113 2.095 . S
Mn108 O123 2.162 . S
Mn108 O124 2.297 . S
Mn108 O132 2.385 . S
Mn108 O133 2.209 . S
Mn108 O134 2.094 . S
Mn109 O114 2.121 . S
Mn109 N116 2.257 . S
Mn109 N125 2.282 . S
Mn109 O133 2.215 . S
Mn109 O135 2.117 . S
C110 O132 1.234 . S
C110 O133 1.283 . S
C111 O123 1.281 . S
C111 O124 1.236 . S
C112 O134 1.240 . S
C112 O135 1.264 . S
O113 Mn108 2.095 . S
O113 C122 1.250 . S
O114 Mn109 2.121 . S
O114 C122 1.258 . S
C115 N116 1.326 . S
C115 C119 1.460 . S
C115 H121 0.929 . S
N116 Mn109 2.257 . S
N116 C115 1.326 . S
N116 C120 1.362 . S
C117 C118 1.258 . S
C117 C120 1.431 . S
C117 C137 1.449 . S
C118 C117 1.258 . S
C118 C119 1.477 . S
C118 H138 0.931 . S
C119 C115 1.460 . S
C119 C118 1.477 . S
C119 H139 0.930 . S
C120 N116 1.362 . S
C120 C117 1.431 . S
C120 C130 1.476 . S
H121 C115 0.929 . S
C122 O113 1.250 . S
C122 O114 1.258 . S
O123 Mn108 2.162 . S
O123 C111 1.281 . S
O124 Mn108 2.297 . S
O124 C111 1.236 . S
N125 Mn109 2.282 . S
N125 C126 1.328 . S
N125 C130 1.318 . S
C126 N125 1.328 . S
C126 C127 1.457 . S
C126 H131 0.929 . S
C127 C126 1.457 . S
C127 C128 1.291 . S
C127 H140 0.931 . S
C128 C127 1.291 . S
C128 C129 1.373 . S
C128 H141 0.929 . S
C129 C128 1.373 . S
C129 C130 1.396 . S
C129 C136 1.403 . S
C130 C120 1.476 . S
C130 N125 1.318 . S
C130 C129 1.396 . S
H131 C126 0.929 . S
O132 Mn108 2.385 . S
O132 C110 1.234 . S
O133 Mn108 2.209 . S
O133 Mn109 2.215 . S
O133 C110 1.283 . S
O134 Mn108 2.094 . S
O134 C112 1.240 . S
O135 Mn109 2.117 . S
O135 C112 1.264 . S
C136 C129 1.403 . S
C136 C137 1.399 . S
C136 H142 0.929 . S
C137 C117 1.449 . S
C137 C136 1.399 . S
C137 H143 0.930 . S
H138 C118 0.931 . S
H139 C119 0.930 . S
H140 C127 0.931 . S
H141 C128 0.929 . S
H142 C136 0.929 . S
H143 C137 0.930 . S
Mn144 O149 2.095 . S
Mn144 O159 2.162 . S
Mn144 O160 2.297 . S
Mn144 O168 2.385 . S
Mn144 O169 2.209 . S
Mn144 O170 2.094 . S
Mn145 O150 2.121 1_455 S
Mn145 N152 2.257 . S
Mn145 N161 2.282 . S
Mn145 O169 2.215 1_455 S
Mn145 O171 2.117 1_455 S
C146 O168 1.234 . S
C146 O169 1.283 . S
C147 O159 1.281 . S
C147 O160 1.236 . S
C148 O170 1.240 . S
C148 O171 1.264 . S
O149 Mn144 2.095 . S
O149 C158 1.250 . S
O150 Mn145 2.121 1_655 S
O150 C158 1.258 . S
C151 N152 1.326 . S
C151 C155 1.460 . S
C151 H157 0.929 . S
N152 Mn145 2.257 . S
N152 C151 1.326 . S
N152 C156 1.362 . S
C153 C154 1.258 . S
C153 C156 1.431 . S
C153 C173 1.449 . S
C154 C153 1.258 . S
C154 C155 1.477 . S
C154 H174 0.931 . S
C155 C151 1.460 . S
C155 C154 1.477 . S
C155 H175 0.930 . S
C156 N152 1.362 . S
C156 C153 1.431 . S
C156 C166 1.476 . S
H157 C151 0.929 . S
C158 O149 1.250 . S
C158 O150 1.258 . S
O159 Mn144 2.162 . S
O159 C147 1.281 . S
O160 Mn144 2.297 . S
O160 C147 1.236 . S
N161 Mn145 2.282 . S
N161 C162 1.328 . S
N161 C166 1.318 . S
C162 N161 1.328 . S
C162 C163 1.457 . S
C162 H167 0.929 . S
C163 C162 1.457 . S
C163 C164 1.291 . S
C163 H176 0.931 . S
C164 C163 1.291 . S
C164 C165 1.373 . S
C164 H177 0.929 . S
C165 C164 1.373 . S
C165 C166 1.396 . S
C165 C172 1.403 . S
C166 C156 1.476 . S
C166 N161 1.318 . S
C166 C165 1.396 . S
H167 C162 0.929 . S
O168 Mn144 2.385 . S
O168 C146 1.234 . S
O169 Mn144 2.209 . S
O169 Mn145 2.215 1_655 S
O169 C146 1.283 . S
O170 Mn144 2.094 . S
O170 C148 1.240 . S
O171 Mn145 2.117 1_655 S
O171 C148 1.264 . S
C172 C165 1.403 . S
C172 C173 1.399 . S
C172 H178 0.929 . S
C173 C153 1.449 . S
C173 C172 1.399 . S
C173 H179 0.930 . S
H174 C154 0.931 . S
H175 C155 0.930 . S
H176 C163 0.931 . S
H177 C164 0.929 . S
H178 C172 0.929 . S
H179 C173 0.930 . S
Mn180 O185 2.095 . S
Mn180 O195 2.162 . S
Mn180 O196 2.297 . S
Mn180 O204 2.385 . S
Mn180 O205 2.209 . S
Mn180 O206 2.094 . S
Mn181 O186 2.121 1_545 S
Mn181 N188 2.257 . S
Mn181 N197 2.282 . S
Mn181 O205 2.215 1_545 S
Mn181 O207 2.117 1_545 S
C182 O204 1.234 . S
C182 O205 1.283 . S
C183 O195 1.281 . S
C183 O196 1.236 . S
C184 O206 1.240 . S
C184 O207 1.264 . S
O185 Mn180 2.095 . S
O185 C194 1.250 . S
O186 Mn181 2.121 1_565 S
O186 C194 1.258 . S
C187 N188 1.326 . S
C187 C191 1.460 . S
C187 H193 0.929 . S
N188 Mn181 2.257 . S
N188 C187 1.326 . S
N188 C192 1.362 . S
C189 C190 1.258 . S
C189 C192 1.431 . S
C189 C209 1.449 . S
C190 C189 1.258 . S
C190 C191 1.477 . S
C190 H210 0.931 . S
C191 C187 1.460 . S
C191 C190 1.477 . S
C191 H211 0.930 . S
C192 N188 1.362 . S
C192 C189 1.431 . S
C192 C202 1.476 . S
H193 C187 0.929 . S
C194 O185 1.250 . S
C194 O186 1.258 . S
O195 Mn180 2.162 . S
O195 C183 1.281 . S
O196 Mn180 2.297 . S
O196 C183 1.236 . S
N197 Mn181 2.282 . S
N197 C198 1.328 . S
N197 C202 1.318 . S
C198 N197 1.328 . S
C198 C199 1.457 . S
C198 H203 0.929 . S
C199 C198 1.457 . S
C199 C200 1.291 . S
C199 H212 0.931 . S
C200 C199 1.291 . S
C200 C201 1.373 . S
C200 H213 0.929 . S
C201 C200 1.373 . S
C201 C202 1.396 . S
C201 C208 1.403 . S
C202 C192 1.476 . S
C202 N197 1.318 . S
C202 C201 1.396 . S
H203 C198 0.929 . S
O204 Mn180 2.385 . S
O204 C182 1.234 . S
O205 Mn180 2.209 . S
O205 Mn181 2.215 1_565 S
O205 C182 1.283 . S
O206 Mn180 2.094 . S
O206 C184 1.240 . S
O207 Mn181 2.117 1_565 S
O207 C184 1.264 . S
C208 C201 1.403 . S
C208 C209 1.399 . S
C208 H214 0.929 . S
C209 C189 1.449 . S
C209 C208 1.399 . S
C209 H215 0.930 . S
H210 C190 0.931 . S
H211 C191 0.930 . S
H212 C199 0.931 . S
H213 C200 0.929 . S
H214 C208 0.929 . S
H215 C209 0.930 . S
Mn216 O221 2.095 . S
Mn216 O231 2.162 . S
Mn216 O232 2.297 . S
Mn216 O240 2.385 . S
Mn216 O241 2.209 . S
Mn216 O242 2.094 . S
Mn217 O222 2.121 . S
Mn217 N224 2.257 . S
Mn217 N233 2.282 . S
Mn217 O241 2.215 . S
Mn217 O243 2.117 . S
C218 O240 1.234 . S
C218 O241 1.283 . S
C219 O231 1.281 . S
C219 O232 1.236 . S
C220 O242 1.240 . S
C220 O243 1.264 . S
O221 Mn216 2.095 . S
O221 C230 1.250 . S
O222 Mn217 2.121 . S
O222 C230 1.258 . S
C223 N224 1.326 . S
C223 C227 1.460 . S
C223 H229 0.929 . S
N224 Mn217 2.257 . S
N224 C223 1.326 . S
N224 C228 1.362 . S
C225 C226 1.258 . S
C225 C228 1.431 . S
C225 C245 1.449 . S
C226 C225 1.258 . S
C226 C227 1.477 . S
C226 H246 0.931 . S
C227 C223 1.460 . S
C227 C226 1.477 . S
C227 H247 0.930 . S
C228 N224 1.362 . S
C228 C225 1.431 . S
C228 C238 1.476 . S
H229 C223 0.929 . S
C230 O221 1.250 . S
C230 O222 1.258 . S
O231 Mn216 2.162 . S
O231 C219 1.281 . S
O232 Mn216 2.297 . S
O232 C219 1.236 . S
N233 Mn217 2.282 . S
N233 C234 1.328 . S
N233 C238 1.318 . S
C234 N233 1.328 . S
C234 C235 1.457 . S
C234 H239 0.929 . S
C235 C234 1.457 . S
C235 C236 1.291 . S
C235 H248 0.931 . S
C236 C235 1.291 . S
C236 C237 1.373 . S
C236 H249 0.929 . S
C237 C236 1.373 . S
C237 C238 1.396 . S
C237 C244 1.403 . S
C238 C228 1.476 . S
C238 N233 1.318 . S
C238 C237 1.396 . S
H239 C234 0.929 . S
O240 Mn216 2.385 . S
O240 C218 1.234 . S
O241 Mn216 2.209 . S
O241 Mn217 2.215 . S
O241 C218 1.283 . S
O242 Mn216 2.094 . S
O242 C220 1.240 . S
O243 Mn217 2.117 . S
O243 C220 1.264 . S
C244 C237 1.403 . S
C244 C245 1.399 . S
C244 H250 0.929 . S
C245 C225 1.449 . S
C245 C244 1.399 . S
C245 H251 0.930 . S
H246 C226 0.931 . S
H247 C227 0.930 . S
H248 C235 0.931 . S
H249 C236 0.929 . S
H250 C244 0.929 . S
H251 C245 0.930 . S
Mn252 O257 2.095 . S
Mn252 O267 2.162 . S
Mn252 O268 2.297 . S
Mn252 O276 2.385 . S
Mn252 O277 2.209 . S
Mn252 O278 2.094 . S
Mn253 O258 2.121 1_655 S
Mn253 N260 2.257 . S
Mn253 N269 2.282 . S
Mn253 O277 2.215 1_655 S
Mn253 O279 2.117 1_655 S
C254 O276 1.234 . S
C254 O277 1.283 . S
C255 O267 1.281 . S
C255 O268 1.236 . S
C256 O278 1.240 . S
C256 O279 1.264 . S
O257 Mn252 2.095 . S
O257 C266 1.250 . S
O258 Mn253 2.121 1_455 S
O258 C266 1.258 . S
C259 N260 1.326 . S
C259 C263 1.460 . S
C259 H265 0.929 . S
N260 Mn253 2.257 . S
N260 C259 1.326 . S
N260 C264 1.362 . S
C261 C262 1.258 . S
C261 C264 1.431 . S
C261 C281 1.449 . S
C262 C261 1.258 . S
C262 C263 1.477 . S
C262 H282 0.931 . S
C263 C259 1.460 . S
C263 C262 1.477 . S
C263 H283 0.930 . S
C264 N260 1.362 . S
C264 C261 1.431 . S
C264 C274 1.476 . S
H265 C259 0.929 . S
C266 O257 1.250 . S
C266 O258 1.258 . S
O267 Mn252 2.162 . S
O267 C255 1.281 . S
O268 Mn252 2.297 . S
O268 C255 1.236 . S
N269 Mn253 2.282 . S
N269 C270 1.328 . S
N269 C274 1.318 . S
C270 N269 1.328 . S
C270 C271 1.457 . S
C270 H275 0.929 . S
C271 C270 1.457 . S
C271 C272 1.291 . S
C271 H284 0.931 . S
C272 C271 1.291 . S
C272 C273 1.373 . S
C272 H285 0.929 . S
C273 C272 1.373 . S
C273 C274 1.396 . S
C273 C280 1.403 . S
C274 C264 1.476 . S
C274 N269 1.318 . S
C274 C273 1.396 . S
H275 C270 0.929 . S
O276 Mn252 2.385 . S
O276 C254 1.234 . S
O277 Mn252 2.209 . S
O277 Mn253 2.215 1_455 S
O277 C254 1.283 . S
O278 Mn252 2.094 . S
O278 C256 1.240 . S
O279 Mn253 2.117 1_455 S
O279 C256 1.264 . S
C280 C273 1.403 . S
C280 C281 1.399 . S
C280 H286 0.929 . S
C281 C261 1.449 . S
C281 C280 1.399 . S
C281 H287 0.930 . S
H282 C262 0.931 . S
H283 C263 0.930 . S
H284 C271 0.931 . S
H285 C272 0.929 . S
H286 C280 0.929 . S
H287 C281 0.930 . S
Mn288 O293 2.095 . S
Mn288 O303 2.162 . S
Mn288 O304 2.297 . S
Mn288 O312 2.385 . S
Mn288 O313 2.209 . S
Mn288 O314 2.094 . S
Mn289 O294 2.121 1_565 S
Mn289 N296 2.257 . S
Mn289 N305 2.282 . S
Mn289 O313 2.215 1_565 S
Mn289 O315 2.117 1_565 S
C290 O312 1.234 . S
C290 O313 1.283 . S
C291 O303 1.281 . S
C291 O304 1.236 . S
C292 O314 1.240 . S
C292 O315 1.264 . S
O293 Mn288 2.095 . S
O293 C302 1.250 . S
O294 Mn289 2.121 1_545 S
O294 C302 1.258 . S
C295 N296 1.326 . S
C295 C299 1.460 . S
C295 H301 0.929 . S
N296 Mn289 2.257 . S
N296 C295 1.326 . S
N296 C300 1.362 . S
C297 C298 1.258 . S
C297 C300 1.431 . S
C297 C317 1.449 . S
C298 C297 1.258 . S
C298 C299 1.477 . S
C298 H318 0.931 . S
C299 C295 1.460 . S
C299 C298 1.477 . S
C299 H319 0.930 . S
C300 N296 1.362 . S
C300 C297 1.431 . S
C300 C310 1.476 . S
H301 C295 0.929 . S
C302 O293 1.250 . S
C302 O294 1.258 . S
O303 Mn288 2.162 . S
O303 C291 1.281 . S
O304 Mn288 2.297 . S
O304 C291 1.236 . S
N305 Mn289 2.282 . S
N305 C306 1.328 . S
N305 C310 1.318 . S
C306 N305 1.328 . S
C306 C307 1.457 . S
C306 H311 0.929 . S
C307 C306 1.457 . S
C307 C308 1.291 . S
C307 H320 0.931 . S
C308 C307 1.291 . S
C308 C309 1.373 . S
C308 H321 0.929 . S
C309 C308 1.373 . S
C309 C310 1.396 . S
C309 C316 1.403 . S
C310 C300 1.476 . S
C310 N305 1.318 . S
C310 C309 1.396 . S
H311 C306 0.929 . S
O312 Mn288 2.385 . S
O312 C290 1.234 . S
O313 Mn288 2.209 . S
O313 Mn289 2.215 1_545 S
O313 C290 1.283 . S
O314 Mn288 2.094 . S
O314 C292 1.240 . S
O315 Mn289 2.117 1_545 S
O315 C292 1.264 . S
C316 C309 1.403 . S
C316 C317 1.399 . S
C316 H322 0.929 . S
C317 C297 1.449 . S
C317 C316 1.399 . S
C317 H323 0.930 . S
H318 C298 0.931 . S
H319 C299 0.930 . S
H320 C307 0.931 . S
H321 C308 0.929 . S
H322 C316 0.929 . S
H323 C317 0.930 . S
Mn324 O329 2.095 . S
Mn324 O339 2.162 . S
Mn324 O340 2.297 . S
Mn324 O348 2.385 . S
Mn324 O349 2.209 . S
Mn324 O350 2.094 . S
Mn325 O330 2.121 . S
Mn325 N332 2.257 . S
Mn325 N341 2.282 . S
Mn325 O349 2.215 . S
Mn325 O351 2.117 . S
C326 O348 1.234 . S
C326 O349 1.283 . S
C327 O339 1.281 . S
C327 O340 1.236 . S
C328 O350 1.240 . S
C328 O351 1.264 . S
O329 Mn324 2.095 . S
O329 C338 1.250 . S
O330 Mn325 2.121 . S
O330 C338 1.258 . S
C331 N332 1.326 . S
C331 C335 1.460 . S
C331 H337 0.929 . S
N332 Mn325 2.257 . S
N332 C331 1.326 . S
N332 C336 1.362 . S
C333 C334 1.258 . S
C333 C336 1.431 . S
C333 C353 1.449 . S
C334 C333 1.258 . S
C334 C335 1.477 . S
C334 H354 0.931 . S
C335 C331 1.460 . S
C335 C334 1.477 . S
C335 H355 0.930 . S
C336 N332 1.362 . S
C336 C333 1.431 . S
C336 C346 1.476 . S
H337 C331 0.929 . S
C338 O329 1.250 . S
C338 O330 1.258 . S
O339 Mn324 2.162 . S
O339 C327 1.281 . S
O340 Mn324 2.297 . S
O340 C327 1.236 . S
N341 Mn325 2.282 . S
N341 C342 1.328 . S
N341 C346 1.318 . S
C342 N341 1.328 . S
C342 C343 1.457 . S
C342 H347 0.929 . S
C343 C342 1.457 . S
C343 C344 1.291 . S
C343 H356 0.931 . S
C344 C343 1.291 . S
C344 C345 1.373 . S
C344 H357 0.929 . S
C345 C344 1.373 . S
C345 C346 1.396 . S
C345 C352 1.403 . S
C346 C336 1.476 . S
C346 N341 1.318 . S
C346 C345 1.396 . S
H347 C342 0.929 . S
O348 Mn324 2.385 . S
O348 C326 1.234 . S
O349 Mn324 2.209 . S
O349 Mn325 2.215 . S
O349 C326 1.283 . S
O350 Mn324 2.094 . S
O350 C328 1.240 . S
O351 Mn325 2.117 . S
O351 C328 1.264 . S
C352 C345 1.403 . S
C352 C353 1.399 . S
C352 H358 0.929 . S
C353 C333 1.449 . S
C353 C352 1.399 . S
C353 H359 0.930 . S
H354 C334 0.931 . S
H355 C335 0.930 . S
H356 C343 0.931 . S
H357 C344 0.929 . S
H358 C352 0.929 . S
H359 C353 0.930 . S
Mn360 O365 2.095 . S
Mn360 O375 2.162 . S
Mn360 O376 2.297 . S
Mn360 O384 2.385 . S
Mn360 O385 2.209 . S
Mn360 O386 2.094 . S
Mn361 O366 2.121 1_455 S
Mn361 N368 2.257 . S
Mn361 N377 2.282 . S
Mn361 O385 2.215 1_455 S
Mn361 O387 2.117 1_455 S
C362 O384 1.234 . S
C362 O385 1.283 . S
C363 O375 1.281 . S
C363 O376 1.236 . S
C364 O386 1.240 . S
C364 O387 1.264 . S
O365 Mn360 2.095 . S
O365 C374 1.250 . S
O366 Mn361 2.121 1_655 S
O366 C374 1.258 . S
C367 N368 1.326 . S
C367 C371 1.460 . S
C367 H373 0.929 . S
N368 Mn361 2.257 . S
N368 C367 1.326 . S
N368 C372 1.362 . S
C369 C370 1.258 . S
C369 C372 1.431 . S
C369 C389 1.449 . S
C370 C369 1.258 . S
C370 C371 1.477 . S
C370 H390 0.931 . S
C371 C367 1.460 . S
C371 C370 1.477 . S
C371 H391 0.930 . S
C372 N368 1.362 . S
C372 C369 1.431 . S
C372 C382 1.476 . S
H373 C367 0.929 . S
C374 O365 1.250 . S
C374 O366 1.258 . S
O375 Mn360 2.162 . S
O375 C363 1.281 . S
O376 Mn360 2.297 . S
O376 C363 1.236 . S
N377 Mn361 2.282 . S
N377 C378 1.328 . S
N377 C382 1.318 . S
C378 N377 1.328 . S
C378 C379 1.457 . S
C378 H383 0.929 . S
C379 C378 1.457 . S
C379 C380 1.291 . S
C379 H392 0.931 . S
C380 C379 1.291 . S
C380 C381 1.373 . S
C380 H393 0.929 . S
C381 C380 1.373 . S
C381 C382 1.396 . S
C381 C388 1.403 . S
C382 C372 1.476 . S
C382 N377 1.318 . S
C382 C381 1.396 . S
H383 C378 0.929 . S
O384 Mn360 2.385 . S
O384 C362 1.234 . S
O385 Mn360 2.209 . S
O385 Mn361 2.215 1_655 S
O385 C362 1.283 . S
O386 Mn360 2.094 . S
O386 C364 1.240 . S
O387 Mn361 2.117 1_655 S
O387 C364 1.264 . S
C388 C381 1.403 . S
C388 C389 1.399 . S
C388 H394 0.929 . S
C389 C369 1.449 . S
C389 C388 1.399 . S
C389 H395 0.930 . S
H390 C370 0.931 . S
H391 C371 0.930 . S
H392 C379 0.931 . S
H393 C380 0.929 . S
H394 C388 0.929 . S
H395 C389 0.930 . S
Mn396 O401 2.095 . S
Mn396 O411 2.162 . S
Mn396 O412 2.297 . S
Mn396 O420 2.385 . S
Mn396 O421 2.209 . S
Mn396 O422 2.094 . S
Mn397 O402 2.121 1_545 S
Mn397 N404 2.257 . S
Mn397 N413 2.282 . S
Mn397 O421 2.215 1_545 S
Mn397 O423 2.117 1_545 S
C398 O420 1.234 . S
C398 O421 1.283 . S
C399 O411 1.281 . S
C399 O412 1.236 . S
C400 O422 1.240 . S
C400 O423 1.264 . S
O401 Mn396 2.095 . S
O401 C410 1.250 . S
O402 Mn397 2.121 1_565 S
O402 C410 1.258 . S
C403 N404 1.326 . S
C403 C407 1.460 . S
C403 H409 0.929 . S
N404 Mn397 2.257 . S
N404 C403 1.326 . S
N404 C408 1.362 . S
C405 C406 1.258 . S
C405 C408 1.431 . S
C405 C425 1.449 . S
C406 C405 1.258 . S
C406 C407 1.477 . S
C406 H426 0.931 . S
C407 C403 1.460 . S
C407 C406 1.477 . S
C407 H427 0.930 . S
C408 N404 1.362 . S
C408 C405 1.431 . S
C408 C418 1.476 . S
H409 C403 0.929 . S
C410 O401 1.250 . S
C410 O402 1.258 . S
O411 Mn396 2.162 . S
O411 C399 1.281 . S
O412 Mn396 2.297 . S
O412 C399 1.236 . S
N413 Mn397 2.282 . S
N413 C414 1.328 . S
N413 C418 1.318 . S
C414 N413 1.328 . S
C414 C415 1.457 . S
C414 H419 0.929 . S
C415 C414 1.457 . S
C415 C416 1.291 . S
C415 H428 0.931 . S
C416 C415 1.291 . S
C416 C417 1.373 . S
C416 H429 0.929 . S
C417 C416 1.373 . S
C417 C418 1.396 . S
C417 C424 1.403 . S
C418 C408 1.476 . S
C418 N413 1.318 . S
C418 C417 1.396 . S
H419 C414 0.929 . S
O420 Mn396 2.385 . S
O420 C398 1.234 . S
O421 Mn396 2.209 . S
O421 Mn397 2.215 1_565 S
O421 C398 1.283 . S
O422 Mn396 2.094 . S
O422 C400 1.240 . S
O423 Mn397 2.117 1_565 S
O423 C400 1.264 . S
C424 C417 1.403 . S
C424 C425 1.399 . S
C424 H430 0.929 . S
C425 C405 1.449 . S
C425 C424 1.399 . S
C425 H431 0.930 . S
H426 C406 0.931 . S
H427 C407 0.930 . S
H428 C415 0.931 . S
H429 C416 0.929 . S
H430 C424 0.929 . S
H431 C425 0.930 . S
H432 C438 0.930 . S
H433 C441 0.930 . S
H434 C442 0.930 . S
H435 C443 0.930 . S
H436 C446 0.930 . S
H437 C447 0.930 . S
C438 H432 0.930 . S
C438 C439 1.355 . S
C438 C440 1.415 . S
C439 C438 1.355 . S
C439 C441 1.419 . S
C440 C438 1.415 . S
C440 C445 1.425 . S
C440 C447 1.409 . S
C441 H433 0.930 . S
C441 C439 1.419 . S
C441 C442 1.362 . S
C442 H434 0.930 . S
C442 C441 1.362 . S
C442 C445 1.409 . S
C443 H435 0.930 . S
C443 C444 1.355 . S
C443 C445 1.415 . S
C444 C443 1.355 . S
C444 C446 1.419 . S
C445 C440 1.425 . S
C445 C442 1.409 . S
C445 C443 1.415 . S
C446 H436 0.930 . S
C446 C444 1.419 . S
C446 C447 1.362 . S
C447 H437 0.930 . S
C447 C440 1.409 . S
C447 C446 1.362 . S
H448 C454 0.930 . S
H449 C457 0.930 . S
H450 C458 0.930 . S
H451 C459 0.930 . S
H452 C462 0.930 . S
H453 C463 0.930 . S
C454 H448 0.930 . S
C454 C455 1.355 . S
C454 C456 1.415 . S
C455 C454 1.355 . S
C455 C457 1.419 1_455 S
C456 C454 1.415 . S
C456 C461 1.425 1_455 S
C456 C463 1.409 . S
C457 H449 0.930 . S
C457 C455 1.419 1_655 S
C457 C458 1.362 . S
C458 H450 0.930 . S
C458 C457 1.362 . S
C458 C461 1.409 . S
C459 H451 0.930 . S
C459 C460 1.355 . S
C459 C461 1.415 . S
C460 C459 1.355 . S
C460 C462 1.419 1_655 S
C461 C456 1.425 1_655 S
C461 C458 1.409 . S
C461 C459 1.415 . S
C462 H452 0.930 . S
C462 C460 1.419 1_455 S
C462 C463 1.362 . S
C463 H453 0.930 . S
C463 C456 1.409 . S
C463 C462 1.362 . S
H464 C470 0.930 . S
H465 C473 0.930 . S
H466 C474 0.930 . S
H467 C475 0.930 . S
H468 C478 0.930 . S
H469 C479 0.930 . S
C470 H464 0.930 . S
C470 C471 1.355 . S
C470 C472 1.415 . S
C471 C470 1.355 . S
C471 C473 1.419 . S
C472 C470 1.415 . S
C472 C477 1.425 1_565 S
C472 C479 1.409 . S
C473 H465 0.930 . S
C473 C471 1.419 . S
C473 C474 1.362 1_565 S
C474 H466 0.930 . S
C474 C473 1.362 1_545 S
C474 C477 1.409 . S
C475 H467 0.930 . S
C475 C476 1.355 . S
C475 C477 1.415 . S
C476 C475 1.355 . S
C476 C478 1.419 . S
C477 C472 1.425 1_545 S
C477 C474 1.409 . S
C477 C475 1.415 . S
C478 H468 0.930 . S
C478 C476 1.419 . S
C478 C479 1.362 1_545 S
C479 H469 0.930 . S
C479 C472 1.409 . S
C479 C478 1.362 1_565 S
H480 C486 0.930 . S
H481 C489 0.930 . S
H482 C490 0.930 . S
H483 C491 0.930 . S
H484 C494 0.930 . S
H485 C495 0.930 . S
C486 H480 0.930 . S
C486 C487 1.355 . S
C486 C488 1.415 . S
C487 C486 1.355 . S
C487 C489 1.419 . S
C488 C486 1.415 . S
C488 C493 1.425 . S
C488 C495 1.409 . S
C489 H481 0.930 . S
C489 C487 1.419 . S
C489 C490 1.362 . S
C490 H482 0.930 . S
C490 C489 1.362 . S
C490 C493 1.409 . S
C491 H483 0.930 . S
C491 C492 1.355 . S
C491 C493 1.415 . S
C492 C491 1.355 . S
C492 C494 1.419 . S
C493 C488 1.425 . S
C493 C490 1.409 . S
C493 C491 1.415 . S
C494 H484 0.930 . S
C494 C492 1.419 . S
C494 C495 1.362 . S
C495 H485 0.930 . S
C495 C488 1.409 . S
C495 C494 1.362 . S
H496 C502 0.930 . S
H497 C505 0.930 . S
H498 C506 0.932 . S
H499 C507 0.930 . S
H500 C510 0.930 . S
H501 C511 0.932 1_554 S
C502 H496 0.930 . S
C502 C503 1.355 . S
C502 C504 1.415 . S
C503 C502 1.355 . S
C503 C505 1.419 . S
C504 C502 1.415 . S
C504 C509 1.425 1_655 S
C504 C511 1.408 . S
C505 H497 0.930 . S
C505 C503 1.419 . S
C505 C506 1.362 1_655 S
C506 H498 0.932 . S
C506 C505 1.362 1_455 S
C506 C509 1.408 . S
C507 H499 0.930 . S
C507 C508 1.355 . S
C507 C509 1.415 . S
C508 C507 1.355 . S
C508 C510 1.419 . S
C509 C504 1.425 1_455 S
C509 C506 1.408 . S
C509 C507 1.415 . S
C510 H500 0.930 . S
C510 C508 1.419 . S
C510 C511 1.362 1_455 S
C511 H501 0.932 1_556 S
C511 C504 1.408 . S
C511 C510 1.362 1_655 S
H512 C518 0.930 . S
H513 C521 0.930 . S
H514 C522 0.930 . S
H515 C523 0.930 . S
H516 C526 0.930 . S
H517 C527 0.930 . S
C518 H512 0.930 . S
C518 C519 1.355 . S
C518 C520 1.415 . S
C519 C518 1.355 . S
C519 C521 1.419 1_545 S
C520 C518 1.415 . S
C520 C525 1.425 1_545 S
C520 C527 1.409 . S
C521 H513 0.930 . S
C521 C519 1.419 1_565 S
C521 C522 1.362 . S
C522 H514 0.930 . S
C522 C521 1.362 . S
C522 C525 1.409 . S
C523 H515 0.930 . S
C523 C524 1.355 . S
C523 C525 1.415 . S
C524 C523 1.355 . S
C524 C526 1.419 1_565 S
C525 C520 1.425 1_565 S
C525 C522 1.409 . S
C525 C523 1.415 . S
C526 H516 0.930 . S
C526 C524 1.419 1_545 S
C526 C527 1.362 . S
C527 H517 0.930 . S
C527 C520 1.409 . S
C527 C526 1.362 . S
H528 C534 0.930 . S
H529 C537 0.930 . S
H530 C538 0.930 . S
H531 C539 0.930 . S
H532 C542 0.930 . S
H533 C543 0.930 . S
C534 H528 0.930 . S
C534 C535 1.355 . S
C534 C536 1.415 . S
C535 C534 1.355 . S
C535 C537 1.419 . S
C536 C534 1.415 . S
C536 C541 1.425 . S
C536 C543 1.409 . S
C537 H529 0.930 . S
C537 C535 1.419 . S
C537 C538 1.362 . S
C538 H530 0.930 . S
C538 C537 1.362 . S
C538 C541 1.409 . S
C539 H531 0.930 . S
C539 C540 1.355 . S
C539 C541 1.415 . S
C540 C539 1.355 . S
C540 C542 1.419 . S
C541 C536 1.425 . S
C541 C538 1.409 . S
C541 C539 1.415 . S
C542 H532 0.930 . S
C542 C540 1.419 . S
C542 C543 1.362 . S
C543 H533 0.930 . S
C543 C536 1.409 . S
C543 C542 1.362 . S
H544 C550 0.930 . S
H545 C553 0.930 . S
H546 C554 0.930 . S
H547 C555 0.930 . S
H548 C558 0.930 . S
H549 C559 0.930 . S
C550 H544 0.930 . S
C550 C551 1.355 . S
C550 C552 1.415 . S
C551 C550 1.355 . S
C551 C553 1.419 . S
C552 C550 1.415 . S
C552 C557 1.425 . S
C552 C559 1.409 . S
C553 H545 0.930 . S
C553 C551 1.419 . S
C553 C554 1.362 . S
C554 H546 0.930 . S
C554 C553 1.362 . S
C554 C557 1.409 . S
C555 H547 0.930 . S
C555 C556 1.355 . S
C555 C557 1.415 . S
C556 C555 1.355 . S
C556 C558 1.419 . S
C557 C552 1.425 . S
C557 C554 1.409 . S
C557 C555 1.415 . S
C558 H548 0.930 . S
C558 C556 1.419 . S
C558 C559 1.362 . S
C559 H549 0.930 . S
C559 C552 1.409 . S
C559 C558 1.362 . S
H560 C566 0.930 . S
H561 C569 0.930 . S
H562 C570 0.930 . S
H563 C571 0.930 . S
H564 C574 0.930 . S
H565 C575 0.930 . S
C566 H560 0.930 . S
C566 C567 1.355 . S
C566 C568 1.415 . S
C567 C566 1.355 . S
C567 C569 1.419 . S
C568 C566 1.415 . S
C568 C573 1.425 . S
C568 C575 1.409 . S
C569 H561 0.930 . S
C569 C567 1.419 . S
C569 C570 1.362 . S
C570 H562 0.930 . S
C570 C569 1.362 . S
C570 C573 1.409 . S
C571 H563 0.930 . S
C571 C572 1.355 . S
C571 C573 1.415 . S
C572 C571 1.355 . S
C572 C574 1.419 . S
C573 C568 1.425 . S
C573 C570 1.409 . S
C573 C571 1.415 . S
C574 H564 0.930 . S
C574 C572 1.419 . S
C574 C575 1.362 . S
C575 H565 0.930 . S
C575 C568 1.409 . S
C575 C574 1.362 . S
H576 C582 0.930 . S
H577 C585 0.930 . S
H578 C586 0.930 . S
H579 C587 0.930 . S
H580 C590 0.930 . S
H581 C591 0.930 . S
C582 H576 0.930 . S
C582 C583 1.355 . S
C582 C584 1.415 . S
C583 C582 1.355 . S
C583 C585 1.419 . S
C584 C582 1.415 . S
C584 C589 1.425 . S
C584 C591 1.409 . S
C585 H577 0.930 . S
C585 C583 1.419 . S
C585 C586 1.362 . S
C586 H578 0.930 . S
C586 C585 1.362 . S
C586 C589 1.409 . S
C587 H579 0.930 . S
C587 C588 1.355 . S
C587 C589 1.415 . S
C588 C587 1.355 . S
C588 C590 1.419 . S
C589 C584 1.425 . S
C589 C586 1.409 . S
C589 C587 1.415 . S
C590 H580 0.930 . S
C590 C588 1.419 . S
C590 C591 1.362 . S
C591 H581 0.930 . S
C591 C584 1.409 . S
C591 C590 1.362 . S
H592 C598 0.930 . S
H593 C601 0.930 . S
H594 C602 0.930 . S
H595 C603 0.930 . S
H596 C606 0.930 . S
H597 C607 0.930 . S
C598 H592 0.930 . S
C598 C599 1.355 . S
C598 C600 1.415 . S
C599 C598 1.355 . S
C599 C601 1.419 . S
C600 C598 1.415 . S
C600 C605 1.425 . S
C600 C607 1.409 . S
C601 H593 0.930 . S
C601 C599 1.419 . S
C601 C602 1.362 . S
C602 H594 0.930 . S
C602 C601 1.362 . S
C602 C605 1.409 . S
C603 H595 0.930 . S
C603 C604 1.355 . S
C603 C605 1.415 . S
C604 C603 1.355 . S
C604 C606 1.419 . S
C605 C600 1.425 . S
C605 C602 1.409 . S
C605 C603 1.415 . S
C606 H596 0.930 . S
C606 C604 1.419 . S
C606 C607 1.362 . S
C607 H597 0.930 . S
C607 C600 1.409 . S
C607 C606 1.362 . S
H608 C614 0.930 . S
H609 C617 0.930 . S
H610 C618 0.930 . S
H611 C619 0.930 . S
H612 C622 0.930 . S
H613 C623 0.930 . S
C614 H608 0.930 . S
C614 C615 1.355 . S
C614 C616 1.415 . S
C615 C614 1.355 . S
C615 C617 1.419 . S
C616 C614 1.415 . S
C616 C621 1.425 . S
C616 C623 1.409 . S
C617 H609 0.930 . S
C617 C615 1.419 . S
C617 C618 1.362 . S
C618 H610 0.930 . S
C618 C617 1.362 . S
C618 C621 1.409 . S
C619 H611 0.930 . S
C619 C620 1.355 . S
C619 C621 1.415 . S
C620 C619 1.355 . S
C620 C622 1.419 . S
C621 C616 1.425 . S
C621 C618 1.409 . S
C621 C619 1.415 . S
C622 H612 0.930 . S
C622 C620 1.419 . S
C622 C623 1.362 . S
C623 H613 0.930 . S
C623 C616 1.409 . S
C623 C622 1.362 . S
H624 C630 0.930 . S
H625 C633 0.930 . S
H626 C634 0.930 1_545 S
H627 C635 0.930 . S
H628 C638 0.930 . S
H629 C639 0.930 1_565 S
C630 H624 0.930 . S
C630 C631 1.355 1_554 S
C630 C632 1.415 . S
C631 C630 1.355 1_556 S
C631 C633 1.419 . S
C632 C630 1.415 . S
C632 C637 1.425 1_564 S
C632 C639 1.409 1_565 S
C633 H625 0.930 . S
C633 C631 1.419 . S
C633 C634 1.362 . S
C634 H626 0.930 1_565 S
C634 C633 1.362 . S
C634 C637 1.409 1_565 S
C635 H627 0.930 . S
C635 C636 1.355 1_556 S
C635 C637 1.415 . S
C636 C635 1.355 1_554 S
C636 C638 1.419 . S
C637 C632 1.425 1_546 S
C637 C634 1.409 1_545 S
C637 C635 1.415 . S
C638 H628 0.930 . S
C638 C636 1.419 . S
C638 C639 1.362 . S
C639 H629 0.930 1_545 S
C639 C632 1.409 1_545 S
C639 C638 1.362 . S
H640 C646 0.930 . S
H641 C649 0.930 . S
H642 C650 0.930 . S
H643 C651 0.930 . S
H644 C654 0.930 . S
H645 C655 0.930 . S
C646 H640 0.930 . S
C646 C647 1.355 . S
C646 C648 1.415 . S
C647 C646 1.355 . S
C647 C649 1.419 . S
C648 C646 1.415 . S
C648 C653 1.425 . S
C648 C655 1.409 . S
C649 H641 0.930 . S
C649 C647 1.419 . S
C649 C650 1.362 . S
C650 H642 0.930 . S
C650 C649 1.362 . S
C650 C653 1.409 . S
C651 H643 0.930 . S
C651 C652 1.355 . S
C651 C653 1.415 . S
C652 C651 1.355 . S
C652 C654 1.419 . S
C653 C648 1.425 . S
C653 C650 1.409 . S
C653 C651 1.415 . S
C654 H644 0.930 . S
C654 C652 1.419 . S
C654 C655 1.362 . S
C655 H645 0.930 . S
C655 C648 1.409 . S
C655 C654 1.362 . S
H656 C662 0.930 . S
H657 C665 0.930 . S
H658 C666 0.930 1_455 S
H659 C667 0.930 . S
H660 C670 0.930 . S
H661 C671 0.930 1_655 S
C662 H656 0.930 . S
C662 C663 1.355 . S
C662 C664 1.415 . S
C663 C662 1.355 . S
C663 C665 1.419 . S
C664 C662 1.415 . S
C664 C669 1.425 1_655 S
C664 C671 1.409 1_655 S
C665 H657 0.930 . S
C665 C663 1.419 . S
C665 C666 1.362 . S
C666 H658 0.930 1_655 S
C666 C665 1.362 . S
C666 C669 1.409 1_655 S
C667 H659 0.930 . S
C667 C668 1.355 . S
C667 C669 1.415 . S
C668 C667 1.355 . S
C668 C670 1.419 . S
C669 C664 1.425 1_455 S
C669 C666 1.409 1_455 S
C669 C667 1.415 . S
C670 H660 0.930 . S
C670 C668 1.419 . S
C670 C671 1.362 . S
C671 H661 0.930 1_455 S
C671 C664 1.409 1_455 S
C671 C670 1.362 . S
H672 C678 0.930 . S
H673 C681 0.930 . S
H674 C682 0.930 . S
H675 C683 0.930 . S
H676 C686 0.930 . S
H677 C687 0.930 . S
C678 H672 0.930 . S
C678 C679 1.355 . S
C678 C680 1.415 . S
C679 C678 1.355 . S
C679 C681 1.419 1_554 S
C680 C678 1.415 . S
C680 C685 1.425 1_564 S
C680 C687 1.409 1_565 S
C681 H673 0.930 . S
C681 C679 1.419 1_556 S
C681 C682 1.362 . S
C682 H674 0.930 . S
C682 C681 1.362 . S
C682 C685 1.409 1_565 S
C683 H675 0.930 . S
C683 C684 1.355 . S
C683 C685 1.415 . S
C684 C683 1.355 . S
C684 C686 1.419 1_556 S
C685 C680 1.425 1_546 S
C685 C682 1.409 1_545 S
C685 C683 1.415 . S
C686 H676 0.930 . S
C686 C684 1.419 1_554 S
C686 C687 1.362 . S
C687 H677 0.930 . S
C687 C680 1.409 1_545 S
C687 C686 1.362 . S
H688 C694 0.930 . S
H689 C697 0.930 . S
H690 C698 0.930 . S
H691 C699 0.930 . S
H692 C702 0.930 . S
H693 C703 0.930 . S
C694 H688 0.930 . S
C694 C695 1.355 . S
C694 C696 1.415 . S
C695 C694 1.355 . S
C695 C697 1.419 . S
C696 C694 1.415 . S
C696 C701 1.425 . S
C696 C703 1.409 . S
C697 H689 0.930 . S
C697 C695 1.419 . S
C697 C698 1.362 . S
C698 H690 0.930 . S
C698 C697 1.362 . S
C698 C701 1.409 . S
C699 H691 0.930 . S
C699 C700 1.355 . S
C699 C701 1.415 . S
C700 C699 1.355 . S
C700 C702 1.419 . S
C701 C696 1.425 . S
C701 C698 1.409 . S
C701 C699 1.415 . S
C702 H692 0.930 . S
C702 C700 1.419 . S
C702 C703 1.362 . S
C703 H693 0.930 . S
C703 C696 1.409 . S
C703 C702 1.362 . S
H704 C710 0.930 . S
H705 C713 0.930 . S
H706 C714 0.930 . S
H707 C715 0.930 . S
H708 C718 0.930 . S
H709 C719 0.930 . S
C710 H704 0.930 . S
C710 C711 1.355 . S
C710 C712 1.415 . S
C711 C710 1.355 . S
C711 C713 1.419 . S
C712 C710 1.415 . S
C712 C717 1.425 1_455 S
C712 C719 1.409 1_455 S
C713 H705 0.930 . S
C713 C711 1.419 . S
C713 C714 1.362 . S
C714 H706 0.930 . S
C714 C713 1.362 . S
C714 C717 1.409 1_455 S
C715 H707 0.930 . S
C715 C716 1.355 . S
C715 C717 1.415 . S
C716 C715 1.355 . S
C716 C718 1.419 . S
C717 C712 1.425 1_655 S
C717 C714 1.409 1_655 S
C717 C715 1.415 . S
C718 H708 0.930 . S
C718 C716 1.419 . S
C718 C719 1.362 . S
C719 H709 0.930 . S
C719 C712 1.409 1_655 S
C719 C718 1.362 . S
H720 C726 0.908 1_554 S
H721 C729 0.930 . S
H722 C730 0.930 . S
H723 C731 0.930 1_556 S
H724 C734 0.930 . S
H725 C735 0.930 . S
C726 H720 0.908 1_556 S
C726 C727 1.392 . S
C726 C728 1.400 1_556 S
C727 C726 1.392 . S
C727 C729 1.419 . S
C728 C726 1.400 1_554 S
C728 C733 1.425 1_554 S
C728 C735 1.409 . S
C729 H721 0.930 . S
C729 C727 1.419 . S
C729 C730 1.362 . S
C730 H722 0.930 . S
C730 C729 1.362 . S
C730 C733 1.409 . S
C731 H723 0.930 1_554 S
C731 C732 1.355 . S
C731 C733 1.415 1_554 S
C732 C731 1.355 . S
C732 C734 1.419 . S
C733 C728 1.425 1_556 S
C733 C730 1.409 . S
C733 C731 1.415 1_556 S
C734 H724 0.930 . S
C734 C732 1.419 . S
C734 C735 1.362 . S
C735 H725 0.930 . S
C735 C728 1.409 . S
C735 C734 1.362 . S
H736 C742 0.930 . S
H737 C745 0.930 . S
H738 C746 0.930 . S
H739 C747 0.930 . S
H740 C750 0.930 . S
H741 C751 0.930 . S
C742 H736 0.930 . S
C742 C743 1.355 . S
C742 C744 1.415 . S
C743 C742 1.355 . S
C743 C745 1.419 . S
C744 C742 1.415 . S
C744 C749 1.425 . S
C744 C751 1.409 . S
C745 H737 0.930 . S
C745 C743 1.419 . S
C745 C746 1.362 . S
C746 H738 0.930 . S
C746 C745 1.362 . S
C746 C749 1.409 . S
C747 H739 0.930 . S
C747 C748 1.355 . S
C747 C749 1.415 . S
C748 C747 1.355 . S
C748 C750 1.419 . S
C749 C744 1.425 . S
C749 C746 1.409 . S
C749 C747 1.415 . S
C750 H740 0.930 . S
C750 C748 1.419 . S
C750 C751 1.362 . S
C751 H741 0.930 . S
C751 C744 1.409 . S
C751 C750 1.362 . S
H752 C758 0.930 . S
H753 C761 0.930 . S
H754 C762 0.930 . S
H755 C763 0.930 . S
H756 C766 0.930 . S
H757 C767 0.930 . S
C758 H752 0.930 . S
C758 C759 1.355 . S
C758 C760 1.415 . S
C759 C758 1.355 . S
C759 C761 1.419 . S
C760 C758 1.415 . S
C760 C765 1.425 . S
C760 C767 1.409 . S
C761 H753 0.930 . S
C761 C759 1.419 . S
C761 C762 1.362 . S
C762 H754 0.930 . S
C762 C761 1.362 . S
C762 C765 1.409 . S
C763 H755 0.930 . S
C763 C764 1.355 . S
C763 C765 1.415 . S
C764 C763 1.355 . S
C764 C766 1.419 . S
C765 C760 1.425 . S
C765 C762 1.409 . S
C765 C763 1.415 . S
C766 H756 0.930 . S
C766 C764 1.419 . S
C766 C767 1.362 . S
C767 H757 0.930 . S
C767 C760 1.409 . S
C767 C766 1.362 . S
H768 C774 0.930 . S
H769 C777 0.930 . S
H770 C778 0.930 . S
H771 C779 0.930 . S
H772 C782 0.920 1_455 S
H773 C783 0.930 . S
C774 H768 0.930 . S
C774 C775 1.355 . S
C774 C776 1.415 . S
C775 C774 1.355 . S
C775 C777 1.419 1_554 S
C776 C774 1.415 . S
C776 C781 1.425 1_554 S
C776 C783 1.409 . S
C777 H769 0.930 . S
C777 C775 1.419 1_556 S
C777 C778 1.362 . S
C778 H770 0.930 . S
C778 C777 1.362 . S
C778 C781 1.409 . S
C779 H771 0.930 . S
C779 C780 1.355 . S
C779 C781 1.415 . S
C780 C779 1.355 . S
C780 C782 1.419 1_556 S
C781 C776 1.425 1_556 S
C781 C778 1.409 . S
C781 C779 1.415 . S
C782 H772 0.920 1_655 S
C782 C780 1.419 1_554 S
C782 C783 1.362 . S
C783 H773 0.930 . S
C783 C776 1.409 . S
C783 C782 1.362 . S
H784 C790 0.930 . S
H785 C793 0.930 . S
H786 C794 0.930 . S
H787 C795 0.930 . S
H788 C798 0.930 . S
H789 C799 0.930 . S
C790 H784 0.930 . S
C790 C791 1.355 . S
C790 C792 1.415 . S
C791 C790 1.355 . S
C791 C793 1.419 . S
C792 C790 1.415 . S
C792 C797 1.425 . S
C792 C799 1.409 . S
C793 H785 0.930 . S
C793 C791 1.419 . S
C793 C794 1.362 . S
C794 H786 0.930 . S
C794 C793 1.362 . S
C794 C797 1.409 . S
C795 H787 0.930 . S
C795 C796 1.355 . S
C795 C797 1.415 . S
C796 C795 1.355 . S
C796 C798 1.419 . S
C797 C792 1.425 . S
C797 C794 1.409 . S
C797 C795 1.415 . S
C798 H788 0.930 . S
C798 C796 1.419 . S
C798 C799 1.362 . S
C799 H789 0.930 . S
C799 C792 1.409 . S
C799 C798 1.362 . S
H800 C806 0.930 . S
H801 C809 0.930 1_565 S
H802 C810 0.930 . S
H803 C811 0.930 . S
H804 C814 0.930 . S
H805 C815 0.930 . S
C806 H800 0.930 . S
C806 C807 1.355 . S
C806 C808 1.415 . S
C807 C806 1.355 . S
C807 C809 1.419 . S
C808 C806 1.415 . S
C808 C813 1.425 . S
C808 C815 1.409 . S
C809 H801 0.930 1_545 S
C809 C807 1.419 . S
C809 C810 1.362 . S
C810 H802 0.930 . S
C810 C809 1.362 . S
C810 C813 1.409 . S
C811 H803 0.930 . S
C811 C812 1.355 . S
C811 C813 1.415 . S
C812 C811 1.355 . S
C812 C814 1.419 . S
C813 C808 1.425 . S
C813 C810 1.409 . S
C813 C811 1.415 . S
C814 H804 0.930 . S
C814 C812 1.419 . S
C814 C815 1.362 . S
C815 H805 0.930 . S
C815 C808 1.409 . S
C815 C814 1.362 . S
C439 C112 1.401 . S
C444 C4 1.398 . S
C455 C40 1.325 . S
C460 C148 1.343 . S
C471 C184 1.346 . S
C476 C76 1.327 . S
C487 C220 1.348 . S
C492 C328 1.372 . S
C503 C364 1.351 . S
C508 C256 1.375 . S
C519 C292 1.321 . S
C524 C400 1.321 . S
C535 C302 1.556 . S
C540 C14 1.555 . S
C551 C50 1.542 . S
C556 C338 1.540 . S
C567 C86 1.558 . S
C572 C374 1.559 . S
C583 C122 1.533 . S
C588 C410 1.532 . S
C599 C230 1.536 . S
C604 C158 1.537 . S
C615 C266 1.580 . S
C620 C194 1.579 . S
C631 C255 1.108 . S
C636 C3 1.126 . S
C647 C39 1.110 . S
C652 C291 1.143 . S
C663 C75 1.110 . S
C668 C327 1.144 . S
C679 C111 1.160 . S
C684 C363 1.125 . S
C695 C399 1.130 . S
C700 C147 1.162 . S
C711 C183 1.118 . S
C716 C219 1.155 . S
C727 C362 1.528 1_455 S
C732 C2 1.530 . S
C743 C398 1.519 1_545 S
C748 C38 1.524 1_655 S
C759 C218 1.513 . S
C764 C74 1.507 1_565 S
C775 C110 1.490 . S
C780 C254 1.491 1_655 S
C791 C146 1.522 1_455 S
C796 C290 1.526 1_565 S
C807 C182 1.493 1_545 S
C812 C326 1.497 . S
