# Generated by pormake.
# Topology wls, (5)-cn, num edge types: 1
# Building blocks:
#     Node 0, Type 0, BuildingBlock: BEQFEK_clean_sbu_0, # of connection points: 5
#     Node 1, Type 0, BuildingBlock: BEQFEK_clean_sbu_0, # of connection points: 5
#     Node 2, Type 0, BuildingBlock: BEQFEK_clean_sbu_0, # of connection points: 5
#     Node 3, Type 0, BuildingBlock: BEQFEK_clean_sbu_0, # of connection points: 5
#     Node 4, Type 0, BuildingBlock: BEQFEK_clean_sbu_0, # of connection points: 5
#     Node 5, Type 0, BuildingBlock: BEQFEK_clean_sbu_0, # of connection points: 5
#     Node 6, Type 0, BuildingBlock: BEQFEK_clean_sbu_0, # of connection points: 5
#     Node 7, Type 0, BuildingBlock: BEQFEK_clean_sbu_0, # of connection points: 5
#     Node 8, Type 0, BuildingBlock: BEQFEK_clean_sbu_0, # of connection points: 5
#     Node 9, Type 0, BuildingBlock: BEQFEK_clean_sbu_0, # of connection points: 5
#     Node 10, Type 0, BuildingBlock: BEQFEK_clean_sbu_0, # of connection points: 5
#     Node 11, Type 0, BuildingBlock: BEQFEK_clean_sbu_0, # of connection points: 5
#     Node 12, Type 0, BuildingBlock: BEQFEK_clean_sbu_0, # of connection points: 5
#     Node 13, Type 0, BuildingBlock: BEQFEK_clean_sbu_0, # of connection points: 5
#     Node 14, Type 0, BuildingBlock: BEQFEK_clean_sbu_0, # of connection points: 5
#     Node 15, Type 0, BuildingBlock: BEQFEK_clean_sbu_0, # of connection points: 5
#     Node 16, Type 0, BuildingBlock: BEQFEK_clean_sbu_0, # of connection points: 5
#     Node 17, Type 0, BuildingBlock: BEQFEK_clean_sbu_0, # of connection points: 5
#     Node 18, Type 0, BuildingBlock: BEQFEK_clean_sbu_0, # of connection points: 5
#     Node 19, Type 0, BuildingBlock: BEQFEK_clean_sbu_0, # of connection points: 5
#     Node 20, Type 0, BuildingBlock: BEQFEK_clean_sbu_0, # of connection points: 5
#     Node 21, Type 0, BuildingBlock: BEQFEK_clean_sbu_0, # of connection points: 5
#     Node 22, Type 0, BuildingBlock: BEQFEK_clean_sbu_0, # of connection points: 5
#     Node 23, Type 0, BuildingBlock: BEQFEK_clean_sbu_0, # of connection points: 5
#     Node 24, Type 0, BuildingBlock: BEQFEK_clean_sbu_0, # of connection points: 5
#     Node 25, Type 0, BuildingBlock: BEQFEK_clean_sbu_0, # of connection points: 5
#     Node 26, Type 0, BuildingBlock: BEQFEK_clean_sbu_0, # of connection points: 5
#     Node 27, Type 0, BuildingBlock: BEQFEK_clean_sbu_0, # of connection points: 5
#     Node 28, Type 0, BuildingBlock: BEQFEK_clean_sbu_0, # of connection points: 5
#     Node 29, Type 0, BuildingBlock: BEQFEK_clean_sbu_0, # of connection points: 5
#     Node 30, Type 0, BuildingBlock: BEQFEK_clean_sbu_0, # of connection points: 5
#     Node 31, Type 0, BuildingBlock: BEQFEK_clean_sbu_0, # of connection points: 5
#     Node 32, Type 0, BuildingBlock: BEQFEK_clean_sbu_0, # of connection points: 5
#     Node 33, Type 0, BuildingBlock: BEQFEK_clean_sbu_0, # of connection points: 5
#     Node 34, Type 0, BuildingBlock: BEQFEK_clean_sbu_0, # of connection points: 5
#     Node 35, Type 0, BuildingBlock: BEQFEK_clean_sbu_0, # of connection points: 5
#     Edge 36, Type (0, 0), BuildingBlock: KIFKEQ_clean_linker_1, # of connection points: 2
#     Edge 37, Type (0, 0), BuildingBlock: KIFKEQ_clean_linker_1, # of connection points: 2
#     Edge 38, Type (0, 0), BuildingBlock: KIFKEQ_clean_linker_1, # of connection points: 2
#     Edge 39, Type (0, 0), BuildingBlock: KIFKEQ_clean_linker_1, # of connection points: 2
#     Edge 40, Type (0, 0), BuildingBlock: KIFKEQ_clean_linker_1, # of connection points: 2
#     Edge 41, Type (0, 0), BuildingBlock: KIFKEQ_clean_linker_1, # of connection points: 2
#     Edge 42, Type (0, 0), BuildingBlock: KIFKEQ_clean_linker_1, # of connection points: 2
#     Edge 43, Type (0, 0), BuildingBlock: KIFKEQ_clean_linker_1, # of connection points: 2
#     Edge 44, Type (0, 0), BuildingBlock: KIFKEQ_clean_linker_1, # of connection points: 2
#     Edge 45, Type (0, 0), BuildingBlock: KIFKEQ_clean_linker_1, # of connection points: 2
#     Edge 46, Type (0, 0), BuildingBlock: KIFKEQ_clean_linker_1, # of connection points: 2
#     Edge 47, Type (0, 0), BuildingBlock: KIFKEQ_clean_linker_1, # of connection points: 2
#     Edge 48, Type (0, 0), BuildingBlock: KIFKEQ_clean_linker_1, # of connection points: 2
#     Edge 49, Type (0, 0), BuildingBlock: KIFKEQ_clean_linker_1, # of connection points: 2
#     Edge 50, Type (0, 0), BuildingBlock: KIFKEQ_clean_linker_1, # of connection points: 2
#     Edge 51, Type (0, 0), BuildingBlock: KIFKEQ_clean_linker_1, # of connection points: 2
#     Edge 52, Type (0, 0), BuildingBlock: KIFKEQ_clean_linker_1, # of connection points: 2
#     Edge 53, Type (0, 0), BuildingBlock: KIFKEQ_clean_linker_1, # of connection points: 2
#     Edge 54, Type (0, 0), BuildingBlock: KIFKEQ_clean_linker_1, # of connection points: 2
#     Edge 55, Type (0, 0), BuildingBlock: KIFKEQ_clean_linker_1, # of connection points: 2
#     Edge 56, Type (0, 0), BuildingBlock: KIFKEQ_clean_linker_1, # of connection points: 2
#     Edge 57, Type (0, 0), BuildingBlock: KIFKEQ_clean_linker_1, # of connection points: 2
#     Edge 58, Type (0, 0), BuildingBlock: KIFKEQ_clean_linker_1, # of connection points: 2
#     Edge 59, Type (0, 0), BuildingBlock: KIFKEQ_clean_linker_1, # of connection points: 2
#     Edge 60, Type (0, 0), BuildingBlock: KIFKEQ_clean_linker_1, # of connection points: 2
#     Edge 61, Type (0, 0), BuildingBlock: KIFKEQ_clean_linker_1, # of connection points: 2
#     Edge 62, Type (0, 0), BuildingBlock: KIFKEQ_clean_linker_1, # of connection points: 2
#     Edge 63, Type (0, 0), BuildingBlock: KIFKEQ_clean_linker_1, # of connection points: 2
#     Edge 64, Type (0, 0), BuildingBlock: KIFKEQ_clean_linker_1, # of connection points: 2
#     Edge 65, Type (0, 0), BuildingBlock: KIFKEQ_clean_linker_1, # of connection points: 2
#     Edge 66, Type (0, 0), BuildingBlock: KIFKEQ_clean_linker_1, # of connection points: 2
#     Edge 67, Type (0, 0), BuildingBlock: KIFKEQ_clean_linker_1, # of connection points: 2
#     Edge 68, Type (0, 0), BuildingBlock: KIFKEQ_clean_linker_1, # of connection points: 2
#     Edge 69, Type (0, 0), BuildingBlock: KIFKEQ_clean_linker_1, # of connection points: 2
#     Edge 70, Type (0, 0), BuildingBlock: KIFKEQ_clean_linker_1, # of connection points: 2
#     Edge 71, Type (0, 0), BuildingBlock: KIFKEQ_clean_linker_1, # of connection points: 2
#     Edge 72, Type (0, 0), BuildingBlock: KIFKEQ_clean_linker_1, # of connection points: 2
#     Edge 73, Type (0, 0), BuildingBlock: KIFKEQ_clean_linker_1, # of connection points: 2
#     Edge 74, Type (0, 0), BuildingBlock: KIFKEQ_clean_linker_1, # of connection points: 2
#     Edge 75, Type (0, 0), BuildingBlock: KIFKEQ_clean_linker_1, # of connection points: 2
#     Edge 76, Type (0, 0), BuildingBlock: KIFKEQ_clean_linker_1, # of connection points: 2
#     Edge 77, Type (0, 0), BuildingBlock: KIFKEQ_clean_linker_1, # of connection points: 2
#     Edge 78, Type (0, 0), BuildingBlock: KIFKEQ_clean_linker_1, # of connection points: 2
#     Edge 79, Type (0, 0), BuildingBlock: KIFKEQ_clean_linker_1, # of connection points: 2
#     Edge 80, Type (0, 0), BuildingBlock: KIFKEQ_clean_linker_1, # of connection points: 2
#     Edge 81, Type (0, 0), BuildingBlock: KIFKEQ_clean_linker_1, # of connection points: 2
#     Edge 82, Type (0, 0), BuildingBlock: KIFKEQ_clean_linker_1, # of connection points: 2
#     Edge 83, Type (0, 0), BuildingBlock: KIFKEQ_clean_linker_1, # of connection points: 2
#     Edge 84, Type (0, 0), BuildingBlock: KIFKEQ_clean_linker_1, # of connection points: 2
#     Edge 85, Type (0, 0), BuildingBlock: KIFKEQ_clean_linker_1, # of connection points: 2
#     Edge 86, Type (0, 0), BuildingBlock: KIFKEQ_clean_linker_1, # of connection points: 2
#     Edge 87, Type (0, 0), BuildingBlock: KIFKEQ_clean_linker_1, # of connection points: 2
#     Edge 88, Type (0, 0), BuildingBlock: KIFKEQ_clean_linker_1, # of connection points: 2
#     Edge 89, Type (0, 0), BuildingBlock: KIFKEQ_clean_linker_1, # of connection points: 2
#     Edge 90, Type (0, 0), BuildingBlock: KIFKEQ_clean_linker_1, # of connection points: 2
#     Edge 91, Type (0, 0), BuildingBlock: KIFKEQ_clean_linker_1, # of connection points: 2
#     Edge 92, Type (0, 0), BuildingBlock: KIFKEQ_clean_linker_1, # of connection points: 2
#     Edge 93, Type (0, 0), BuildingBlock: KIFKEQ_clean_linker_1, # of connection points: 2
#     Edge 94, Type (0, 0), BuildingBlock: KIFKEQ_clean_linker_1, # of connection points: 2
#     Edge 95, Type (0, 0), BuildingBlock: KIFKEQ_clean_linker_1, # of connection points: 2
#     Edge 96, Type (0, 0), BuildingBlock: KIFKEQ_clean_linker_1, # of connection points: 2
#     Edge 97, Type (0, 0), BuildingBlock: KIFKEQ_clean_linker_1, # of connection points: 2
#     Edge 98, Type (0, 0), BuildingBlock: KIFKEQ_clean_linker_1, # of connection points: 2
#     Edge 99, Type (0, 0), BuildingBlock: KIFKEQ_clean_linker_1, # of connection points: 2
#     Edge 100, Type (0, 0), BuildingBlock: KIFKEQ_clean_linker_1, # of connection points: 2
#     Edge 101, Type (0, 0), BuildingBlock: KIFKEQ_clean_linker_1, # of connection points: 2
#     Edge 102, Type (0, 0), BuildingBlock: KIFKEQ_clean_linker_1, # of connection points: 2
#     Edge 103, Type (0, 0), BuildingBlock: KIFKEQ_clean_linker_1, # of connection points: 2
#     Edge 104, Type (0, 0), BuildingBlock: KIFKEQ_clean_linker_1, # of connection points: 2
#     Edge 105, Type (0, 0), BuildingBlock: KIFKEQ_clean_linker_1, # of connection points: 2
#     Edge 106, Type (0, 0), BuildingBlock: KIFKEQ_clean_linker_1, # of connection points: 2
#     Edge 107, Type (0, 0), BuildingBlock: KIFKEQ_clean_linker_1, # of connection points: 2
#     Edge 108, Type (0, 0), BuildingBlock: KIFKEQ_clean_linker_1, # of connection points: 2
#     Edge 109, Type (0, 0), BuildingBlock: KIFKEQ_clean_linker_1, # of connection points: 2
#     Edge 110, Type (0, 0), BuildingBlock: KIFKEQ_clean_linker_1, # of connection points: 2
#     Edge 111, Type (0, 0), BuildingBlock: KIFKEQ_clean_linker_1, # of connection points: 2
#     Edge 112, Type (0, 0), BuildingBlock: KIFKEQ_clean_linker_1, # of connection points: 2
#     Edge 113, Type (0, 0), BuildingBlock: KIFKEQ_clean_linker_1, # of connection points: 2
#     Edge 114, Type (0, 0), BuildingBlock: KIFKEQ_clean_linker_1, # of connection points: 2
#     Edge 115, Type (0, 0), BuildingBlock: KIFKEQ_clean_linker_1, # of connection points: 2
#     Edge 116, Type (0, 0), BuildingBlock: KIFKEQ_clean_linker_1, # of connection points: 2
#     Edge 117, Type (0, 0), BuildingBlock: KIFKEQ_clean_linker_1, # of connection points: 2
#     Edge 118, Type (0, 0), BuildingBlock: KIFKEQ_clean_linker_1, # of connection points: 2
#     Edge 119, Type (0, 0), BuildingBlock: KIFKEQ_clean_linker_1, # of connection points: 2
#     Edge 120, Type (0, 0), BuildingBlock: KIFKEQ_clean_linker_1, # of connection points: 2
#     Edge 121, Type (0, 0), BuildingBlock: KIFKEQ_clean_linker_1, # of connection points: 2
#     Edge 122, Type (0, 0), BuildingBlock: KIFKEQ_clean_linker_1, # of connection points: 2
#     Edge 123, Type (0, 0), BuildingBlock: KIFKEQ_clean_linker_1, # of connection points: 2
#     Edge 124, Type (0, 0), BuildingBlock: KIFKEQ_clean_linker_1, # of connection points: 2
#     Edge 125, Type (0, 0), BuildingBlock: KIFKEQ_clean_linker_1, # of connection points: 2
# Relax obj value: 0.132
# Max RMSD: 0.102
# Mean RMSD: 0.102
data_MOF--net-wls--node1-BEQFEK_clean_sbu_0--edge1-KIFKEQ_clean_linker_1
_symmetry_space_group_name_H-M    P1
_symmetry_Int_Tables_number       1
_symmetry_cell_setting            triclinic
loop_
_symmetry_equiv_pos_as_xyz
'x, y, z'
_cell_length_a     80.135342
_cell_length_b     80.141099
_cell_length_c     36.322556
_cell_angle_alpha  90.074399
_cell_angle_beta   89.901492
_cell_angle_gamma 119.97929
loop_
_atom_site_label
_atom_site_type_symbol
_atom_site_fract_x
_atom_site_fract_y
_atom_site_fract_z
_atom_type_partial_charge
Co0 Co 0.24676 0.22933 0.07028 0.0
Co1 Co 0.22712 0.18464 0.07152 0.0
C2 C 0.23236 0.20643 0.1413 0.0
O3 O 0.23991 0.22169 0.12199 0.0
O4 O 0.22694 0.19005 0.12637 0.0
C5 C 0.27686 0.26544 0.09309 0.0
O6 O 0.28122 0.25481 0.11401 0.0
C7 C 0.22014 0.1442 0.07494 0.0
C8 C 0.19588 0.13026 0.03591 0.0
C9 C 0.20774 0.12652 0.05797 0.0
N10 N 0.21576 0.15745 0.06273 0.0
N11 N 0.20112 0.14888 0.03975 0.0
C12 C 0.23637 0.14895 0.10089 0.0
H13 H 0.2453 0.16479 0.10462 0.0
H14 H 0.24546 0.14314 0.09036 0.0
H15 H 0.23043 0.14233 0.12808 0.0
C16 C 0.27716 0.22622 0.03028 0.0
N17 N 0.26025 0.2181 0.04853 0.0
N18 N 0.25243 0.19921 0.04822 0.0
C19 C 0.26434 0.19485 0.02905 0.0
C20 C 0.28053 0.21189 1.01773 0.0
C21 C 0.28929 0.24731 1.02234 0.0
H22 H 0.28 0.25357 1.0164 0.0
H23 H 0.29835 0.25465 0.04669 0.0
H24 H 0.29898 0.24997 0.99847 0.0
O25 O 0.22325 0.22299 0.04288 0.0
O26 O 0.2085 0.19124 0.04777 0.0
H27 H 0.24468 0.16537 1.01504 0.0
H28 H 0.26871 0.17486 0.99637 0.0
C29 C 0.26024 0.17491 1.02054 0.0
H30 H 0.26441 0.16926 0.04451 0.0
H31 H 0.19487 0.15582 0.02604 0.0
O32 O 0.26263 0.25735 0.0713 0.0
C33 C 0.20862 0.20649 0.03742 0.0
Co34 Co 0.78012 0.01955 0.07496 0.0
Co35 Co 0.82478 0.04374 0.06706 0.0
C36 C 0.80598 0.02904 0.14097 0.0
O37 O 0.78954 0.02184 0.12577 0.0
O38 O 0.82148 0.0382 0.12217 0.0
C39 C 0.74425 0.01206 0.10395 0.0
O40 O 0.75509 0.02444 0.1293 0.0
C41 C 0.86512 0.0769 0.07024 0.0
C42 C 0.8772 0.07089 1.02058 0.0
C43 C 0.88182 0.08402 0.04901 0.0
N44 N 0.85134 0.0605 0.0546 0.0
N45 N 0.85877 0.057 0.02509 0.0
C46 C 0.86241 0.08497 0.10546 0.0
H47 H 0.85052 0.07354 0.12182 0.0
H48 H 0.8586 0.0962 0.09925 0.0
H49 H 0.87592 0.09166 0.12179 0.0
C50 C 0.78204 0.05234 0.03432 0.0
N51 N 0.79062 0.04367 0.05128 0.0
N52 N 0.80942 0.05429 0.04769 0.0
C53 C 0.81334 0.07017 0.02783 0.0
C54 C 0.79608 0.06957 1.0191 0.0
C55 C 0.76068 0.04334 0.02964 0.0
H56 H 0.75436 0.02789 1.02255 0.0
H57 H 0.75424 0.04445 0.05592 0.0
H58 H 0.75693 0.05047 1.00762 0.0
O59 O 0.78573 1.00158 0.04768 0.0
O60 O 0.81751 0.01863 0.04227 0.0
H61 H 0.84018 0.07883 1.00085 0.0
H62 H 0.83294 0.09694 1.00034 0.0
C63 C 0.83317 0.08544 1.01689 0.0
H64 H 0.84185 0.09197 0.04197 0.0
H65 H 0.85114 0.04523 1.00766 0.0
O66 O 0.75209 0.0078 0.07801 0.0
C67 C 0.80156 1.00316 0.03682 0.0
Co68 Co 0.99008 0.76169 0.06827 0.0
Co69 Co 0.96608 0.78254 0.06739 0.0
C70 C 0.98299 0.77803 0.13784 0.0
O71 O 0.99001 0.76953 0.11936 0.0
O72 O 0.97241 0.78371 0.12222 0.0
C73 C 0.99682 0.73281 0.09544 0.0
O74 O 0.98457 0.73166 0.12078 0.0
C75 C 0.93235 0.78849 0.07386 0.0
C76 C 0.94138 0.81345 0.03692 0.0
C77 C 0.92654 0.80089 0.0597 0.0
N78 N 0.9498 0.79347 0.05982 0.0
N79 N 0.95509 0.80845 0.03789 0.0
C80 C 0.92225 0.77317 0.1023 0.0
H81 H 0.93045 0.76567 0.1081 0.0
H82 H 0.90753 0.76259 0.09292 0.0
H83 H 0.92076 0.77984 0.12798 0.0
C84 C 0.95594 0.73116 0.03063 0.0
N85 N 0.96518 0.74841 0.04757 0.0
N86 N 0.95465 0.75678 0.04598 0.0
C87 C 0.9383 0.74495 0.02702 0.0
C88 C 0.9385 0.72819 1.01731 0.0
C89 C 0.96434 0.71835 0.02462 0.0
H90 H 0.97956 0.72707 1.01568 0.0
H91 H 0.96388 0.71108 0.05087 0.0
H92 H 0.95626 0.70718 1.00348 0.0
O93 O 0.00735 0.78487 0.04 0.0
O94 O 0.99097 0.80044 0.0414 0.0
H95 H 0.92966 0.76518 1.01021 0.0
H96 H 0.9142 0.74081 0.99383 0.0
C97 C 0.92304 0.7497 1.01729 0.0
H98 H 0.9134 0.74665 0.04131 0.0
H99 H 0.96807 0.81525 0.02339 0.0
O100 O 1.00133 0.74492 0.06948 0.0
C101 C 0.00592 0.79959 0.03233 0.0
Co102 Co 0.23109 0.24411 0.47846 0.0
Co103 Co 0.18651 0.22503 0.47578 0.0
C104 C 0.20885 0.2299 0.40681 0.0
O105 O 0.22396 0.23736 0.42652 0.0
O106 O 0.19241 0.22467 0.42127 0.0
C107 C 0.26709 0.27433 0.45675 0.0
O108 O 0.2563 0.2788 0.43656 0.0
C109 C 0.14707 0.21981 0.46876 0.0
C110 C 0.13076 0.19475 0.50532 0.0
C111 C 0.12879 0.20755 0.48281 0.0
N112 N 0.15931 0.21451 0.48261 0.0
N113 N 0.14938 0.19945 0.50425 0.0
C114 C 0.15253 0.23535 0.44075 0.0
H115 H 0.16836 0.24334 0.43633 0.0
H116 H 0.1476 0.24543 0.44958 0.0
H117 H 0.14519 0.22877 0.41438 0.0
C118 C 0.22808 0.27463 0.51825 0.0
N119 N 0.21998 0.25785 0.49957 0.0
N120 N 0.20113 0.25031 0.49897 0.0
C121 C 0.19675 0.26231 0.51776 0.0
C122 C 0.21377 0.27829 0.52996 0.0
C123 C 0.24899 0.28605 0.5282 0.0
H124 H 0.2548 0.27629 0.53332 0.0
H125 H 0.25706 0.29589 0.50518 0.0
H126 H 0.25124 0.29489 0.55322 0.0
O127 O 0.22409 0.22048 0.50599 0.0
O128 O 0.19233 0.20606 0.50073 0.0
H129 H 0.16715 0.24315 0.53171 0.0
H130 H 0.17637 0.26774 0.54691 0.0
C131 C 0.17674 0.25851 0.52454 0.0
H132 H 0.1713 0.26174 0.49911 0.0
H133 H 0.15533 0.19242 0.51863 0.0
O134 O 0.25914 0.25984 0.47797 0.0
C135 C 0.20746 0.20601 0.51147 0.0
Co136 Co 0.76529 0.98787 0.46803 0.0
Co137 Co 0.78619 0.96406 0.47422 0.0
C138 C 0.78121 0.97828 0.40098 0.0
O139 O 0.77236 0.98571 0.41701 0.0
O140 O 0.78749 0.96889 0.41909 0.0
C141 C 0.73507 0.99328 0.442 0.0
O142 O 0.73087 0.97804 0.42189 0.0
C143 C 0.79338 0.93089 0.47365 0.0
C144 C 0.81677 0.94115 0.51466 0.0
C145 C 0.80542 0.92561 0.49198 0.0
N146 N 0.79748 0.94848 0.48556 0.0
N147 N 0.81159 0.95453 0.50978 0.0
C148 C 0.77765 0.91941 0.44672 0.0
H149 H 0.7685 0.92605 0.4426 0.0
H150 H 0.76866 0.90438 0.45657 0.0
H151 H 0.78411 0.91916 0.41983 0.0
C152 C 0.73481 0.95485 0.50922 0.0
N153 N 0.752 0.96369 0.49192 0.0
N154 N 0.76044 0.95326 0.49535 0.0
C155 C 0.7487 0.93742 0.51566 0.0
C156 C 0.73194 0.9378 0.52447 0.0
C157 C 0.72197 0.9633 0.51395 0.0
H158 H 0.73074 0.97901 0.51901 0.0
H159 H 0.71342 0.96084 0.4885 0.0
H160 H 0.71183 0.95655 0.53729 0.0
O161 O 0.7886 0.00608 0.49556 0.0
O162 O 0.80395 0.98953 0.49754 0.0
H163 H 0.76898 0.9293 0.53471 0.0
H164 H 0.74462 0.91412 0.55131 0.0
C165 C 0.75352 0.92246 0.52742 0.0
H166 H 0.75054 0.91229 0.50436 0.0
H167 H 0.81752 0.96771 0.52351 0.0
O168 O 0.74911 0.99968 0.46428 0.0
C169 C 0.8032 0.00472 0.50458 0.0
Co170 Co 0.02079 0.77767 0.47347 0.0
Co171 Co 0.04492 0.82239 0.47502 0.0
C172 C 0.02815 0.80092 0.40413 0.0
O173 O 0.02096 0.78539 0.42244 0.0
O174 O 0.03871 0.81713 0.41999 0.0
C175 C 0.01193 0.74135 0.44591 0.0
O176 O 0.02336 0.75185 0.41908 0.0
C177 C 0.07941 0.86153 0.47038 0.0
C178 C 0.06924 0.87844 0.50163 0.0
C179 C 0.08493 0.88003 0.48258 0.0
N180 N 0.06128 0.84956 0.48198 0.0
N181 N 0.05532 0.85983 0.50051 0.0
C182 C 0.0905 0.85557 0.4458 0.0
H183 H 0.08172 0.84007 0.43858 0.0
H184 H 0.10392 0.85819 0.45957 0.0
H185 H 0.09473 0.86442 0.42036 0.0
C186 C 0.05418 0.78082 0.51281 0.0
N187 N 0.04563 0.78908 0.49437 0.0
N188 N 0.05601 0.80795 0.4973 0.0
C189 C 0.07143 0.81217 0.51906 0.0
C190 C 0.07077 0.79506 0.52947 0.0
C191 C 0.04629 0.7595 0.51485 0.0
H192 H 0.04433 0.75365 0.48658 0.0
H193 H 0.05606 0.75574 0.5296 0.0
H194 H 0.03205 0.75259 0.52874 0.0
O195 O 1.00368 0.7839 0.5018 0.0
O196 O 0.0202 0.81582 0.50092 0.0
H197 H 0.09099 0.83087 0.56072 0.0
H198 H 0.09749 0.83908 0.51421 0.0
C199 C 0.0852 0.83181 0.53353 0.0
H200 H 0.07803 0.84052 0.53614 0.0
H201 H 0.04171 0.85412 0.51251 0.0
O202 O 0.00897 0.74959 0.47296 0.0
C203 C 1.00521 0.80005 0.50986 0.0
Co204 Co 0.76734 0.77817 0.97569 0.0
Co205 Co 0.78544 0.82273 0.97756 0.0
C206 C 0.78433 0.80315 0.90738 0.0
O207 O 0.77703 0.78748 0.92546 0.0
O208 O 0.78754 0.81883 0.92281 0.0
C209 C 0.7397 0.74299 0.94544 0.0
O210 O 0.73863 0.7545 0.92103 0.0
C211 C 0.79249 0.86319 0.97292 0.0
C212 C 0.80911 0.87501 0.02417 0.0
C213 C 0.80153 0.87982 0.99448 0.0
N214 N 0.79458 0.84929 0.98953 0.0
N215 N 0.8046 0.85657 1.02002 0.0
C216 C 0.78277 0.8607 0.93656 0.0
H217 H 0.78263 0.84878 0.92078 0.0
H218 H 0.76764 0.85707 0.94111 0.0
H219 H 0.79017 0.87425 0.9204 0.0
C220 C 0.73505 0.77935 1.01229 0.0
N221 N 0.75237 0.78821 0.99548 0.0
N222 N 0.75961 0.80697 0.99683 0.0
C223 C 0.7469 0.8106 1.0148 0.0
C224 C 0.73078 0.79315 0.02486 0.0
C225 C 0.72379 0.75814 1.01983 0.0
H226 H 0.73371 0.75279 0.02719 0.0
H227 H 0.71575 0.75053 0.99467 0.0
H228 H 0.71336 0.75471 0.04267 0.0
O229 O 0.78959 0.78453 1.00696 0.0
O230 O 0.80405 0.81638 1.00303 0.0
H231 H 0.76311 0.83813 0.04057 0.0
H232 H 0.73763 0.82991 0.03623 0.0
C233 C 0.75026 0.83036 1.02266 0.0
H234 H 0.75324 0.83845 0.99652 0.0
H235 H 0.8082 0.84885 0.03832 0.0
O236 O 0.7515 0.75015 0.97196 0.0
C237 C 0.80388 0.80111 1.01369 0.0
Co238 Co 0.23128 0.98997 0.97461 0.0
Co239 Co 0.18678 0.96356 0.97725 0.0
C240 C 0.20619 0.98216 0.90677 0.0
O241 O 0.22194 0.99047 0.92456 0.0
O242 O 0.19058 0.96972 0.92243 0.0
C243 C 0.26668 0.99889 0.94304 0.0
O244 O 0.25537 0.98734 0.91713 0.0
C245 C 0.14656 0.93006 0.97242 0.0
C246 C 0.134 0.93554 1.02197 0.0
C247 C 0.12959 0.92275 0.99299 0.0
N248 N 0.1602 0.94625 0.98889 0.0
N249 N 0.15249 0.9494 1.01838 0.0
C250 C 0.14971 0.92241 0.9371 0.0
H251 H 0.16208 0.93394 0.92181 0.0
H252 H 0.15305 0.91083 0.94322 0.0
H253 H 0.13656 0.91631 0.91977 0.0
C254 C 0.23022 0.95694 1.0124 0.0
N255 N 0.22128 0.96498 0.99447 0.0
N256 N 0.20252 0.95349 0.99637 0.0
C257 C 0.19898 0.93763 1.01591 0.0
C258 C 0.21647 0.93931 0.02678 0.0
C259 C 0.25163 0.9664 1.01671 0.0
H260 H 0.2583 0.96828 0.98916 0.0
H261 H 0.25598 0.95775 0.03373 0.0
H262 H 0.25724 0.98087 0.02923 0.0
O263 O 0.225 0.00594 1.00609 0.0
O264 O 0.19315 0.98832 1.00331 0.0
H265 H 0.17197 0.9288 0.04233 0.0
H266 H 0.17994 0.91131 0.04518 0.0
C267 C 0.17931 0.92221 0.02733 0.0
H268 H 0.1707 0.91502 1.00245 0.0
H269 H 0.15994 0.96098 0.03632 0.0
O270 O 0.2593 1.00223 0.97102 0.0
C271 C 0.20843 0.00351 1.01361 0.0
Co272 Co 0.02239 0.24568 0.96804 0.0
Co273 Co 0.04577 0.22449 0.97651 0.0
C274 C 0.03246 0.22997 0.90202 0.0
O275 O 0.02532 0.23932 0.91705 0.0
O276 O 0.04107 0.22315 0.92113 0.0
C277 C 0.01615 0.27567 0.94273 0.0
O278 O 0.03129 0.28034 0.92194 0.0
C279 C 0.07923 0.21779 0.97684 0.0
C280 C 0.06871 0.19393 1.01687 0.0
C281 C 0.08448 0.20572 0.99506 0.0
N282 N 0.06141 0.21329 0.98799 0.0
N283 N 0.0552 0.1989 1.01161 0.0
C284 C 0.09095 0.23393 0.95081 0.0
H285 H 0.08427 0.24307 0.94697 0.0
H286 H 0.10586 0.24284 0.9613 0.0
H287 H 0.09153 0.22789 0.92366 0.0
C288 C 0.05491 0.2759 1.01081 0.0
N289 N 0.04622 0.25878 0.99327 0.0
N290 N 0.05641 0.25015 0.99773 0.0
C291 C 0.07186 0.26163 1.01911 0.0
C292 C 0.07155 0.27846 0.02746 0.0
C293 C 0.04665 0.28896 1.0143 0.0
H294 H 0.03094 0.28038 1.01953 0.0
H295 H 0.0491 0.29707 0.98825 0.0
H296 H 0.05351 0.29947 0.03705 0.0
O297 O 1.00372 0.22185 0.99384 0.0
O298 O 0.02037 0.20677 0.99986 0.0
H299 H 0.07911 0.24087 0.03919 0.0
H300 H 0.09396 0.26496 0.05728 0.0
C301 C 0.0863 0.25643 0.03256 0.0
H302 H 0.09713 0.25962 1.01067 0.0
H303 H 0.04184 0.19265 0.02474 0.0
O304 O 0.01029 0.26159 0.96483 0.0
C305 C 1.00495 0.20741 1.00463 0.0
Co306 Co 0.7801 0.76481 0.57236 0.0
Co307 Co 0.8245 0.78207 0.57118 0.0
C308 C 0.80496 0.78109 0.64116 0.0
O309 O 0.78935 0.77399 0.62291 0.0
O310 O 0.82064 0.78423 0.62581 0.0
C311 C 0.74441 0.73546 0.59787 0.0
O312 O 0.75545 0.73067 0.61645 0.0
C313 C 0.86524 0.78983 0.57591 0.0
C314 C 0.87621 0.80488 0.52285 0.0
C315 C 0.88162 0.79853 0.55359 0.0
N316 N 0.85091 0.79096 0.55873 0.0
N317 N 0.85768 0.80003 0.52714 0.0
C318 C 0.86334 0.78128 0.61333 0.0
H319 H 0.85156 0.78147 0.62899 0.0
H320 H 0.85981 0.76608 0.61046 0.0
H321 H 0.87708 0.78929 0.62873 0.0
C322 C 0.78088 0.73234 0.53474 0.0
N323 N 0.78975 0.74952 0.55209 0.0
N324 N 0.80847 0.75634 0.55193 0.0
C325 C 0.81203 0.74342 0.53468 0.0
C326 C 0.79459 0.72766 0.5235 0.0
C327 C 0.7599 0.72164 0.52514 0.0
H328 H 0.75455 0.73185 0.52084 0.0
H329 H 0.75169 0.71172 0.54799 0.0
H330 H 0.75726 0.71295 0.49976 0.0
O331 O 0.78691 0.78734 0.54166 0.0
O332 O 0.81866 0.80096 0.54569 0.0
H333 H 0.8397 0.75816 0.50902 0.0
H334 H 0.83113 0.73295 0.51809 0.0
C335 C 0.83173 0.74621 0.5288 0.0
H336 H 0.8397 0.75029 0.5552 0.0
H337 H 0.84956 0.80279 0.50826 0.0
O338 O 0.75207 0.74983 0.57635 0.0
C339 C 0.80367 0.80133 0.53502 0.0
Co340 Co 0.24427 0.01757 0.572 0.0
Co341 Co 0.22463 0.04251 0.5703 0.0
C342 C 0.22761 0.02527 0.64087 0.0
O343 O 0.23528 0.01725 0.62277 0.0
O344 O 0.22357 0.0371 0.62521 0.0
C345 C 0.27404 0.01152 0.59735 0.0
O346 O 0.27805 0.02635 0.61856 0.0
C347 C 0.21808 0.0762 0.57174 0.0
C348 C 0.19377 0.0657 0.53278 0.0
C349 C 0.20583 0.08149 0.55428 0.0
N350 N 0.21343 0.05836 0.56037 0.0
N351 N 0.19876 0.05218 0.53744 0.0
C352 C 0.23447 0.0879 0.59725 0.0
H353 H 0.24354 0.08113 0.60074 0.0
H354 H 0.24337 0.10277 0.58653 0.0
H355 H 0.22869 0.08864 0.6246 0.0
C356 C 0.27515 0.05093 0.53234 0.0
N357 N 0.25829 0.04244 0.55082 0.0
N358 N 0.25029 0.05333 0.5489 0.0
C359 C 0.26204 0.06918 0.52864 0.0
C360 C 0.2783 0.06826 0.51808 0.0
C361 C 0.28739 0.04194 0.52582 0.0
H362 H 0.29557 0.04318 0.55124 0.0
H363 H 0.29789 0.04919 0.50321 0.0
H364 H 0.27816 0.02647 0.51897 0.0
O365 O 0.22182 1.00073 0.54195 0.0
O366 O 0.20649 0.01725 0.5457 0.0
H367 H 0.26541 0.09159 0.49133 0.0
H368 H 0.26113 0.09493 0.53857 0.0
C369 C 0.25719 0.08406 0.51646 0.0
H370 H 0.24156 0.07731 0.51088 0.0
H371 H 0.19233 0.03881 0.52432 0.0
O372 O 0.26019 0.00554 0.57472 0.0
C373 C 0.20715 1.00238 0.53535 0.0
Co374 Co 0.99039 0.22902 0.57361 0.0
Co375 Co 0.96593 0.18435 0.56986 0.0
C376 C 0.9814 0.20475 0.64198 0.0
O377 O 0.98874 0.22079 0.62523 0.0
O378 O 0.97171 0.18888 0.62461 0.0
C379 C 0.99656 0.26521 0.59721 0.0
O380 O 0.98126 0.25461 0.61753 0.0
C381 C 0.93147 0.14517 0.57437 0.0
C382 C 0.94038 0.12893 0.5379 0.0
C383 C 0.92538 0.127 0.55979 0.0
N384 N 0.94926 0.15733 0.56143 0.0
N385 N 0.95449 0.14745 0.53981 0.0
C386 C 0.92118 0.15059 0.60208 0.0
H387 H 0.92896 0.16642 0.60652 0.0
H388 H 0.90623 0.14564 0.59297 0.0
H389 H 0.9203 0.14326 0.62852 0.0
C390 C 0.9575 0.22654 0.53223 0.0
N391 N 0.96603 0.2182 0.55054 0.0
N392 N 0.95531 0.19933 0.54821 0.0
C393 C 0.93952 0.19517 0.52774 0.0
C394 C 0.94026 0.21233 0.51755 0.0
C395 C 0.96668 0.24775 0.52523 0.0
H396 H 0.98234 0.25402 0.52048 0.0
H397 H 0.96446 0.25478 0.54957 0.0
H398 H 0.96031 0.25081 0.50087 0.0
O399 O 0.00781 0.22281 0.54606 0.0
O400 O 0.99086 0.19089 0.54506 0.0
H401 H 0.93094 0.16651 0.50964 0.0
H402 H 0.91538 0.17541 0.49404 0.0
C403 C 0.92427 0.17526 0.51725 0.0
H404 H 0.91461 0.16843 0.54111 0.0
H405 H 0.96769 0.15337 0.5261 0.0
O406 O 1.00277 0.25708 0.5756 0.0
C407 C 0.00611 0.20666 0.5373 0.0
Co408 Co 0.91025 0.56158 0.4035 0.0
Co409 Co 0.89229 0.5171 0.40191 0.0
C410 C 0.89365 0.53687 0.47211 0.0
O411 O 0.90086 0.55251 0.45397 0.0
O412 O 0.89036 0.52118 0.45666 0.0
C413 C 0.9369 0.59726 0.43381 0.0
O414 O 0.93754 0.58619 0.45976 0.0
C415 C 0.88485 0.47662 0.40747 0.0
C416 C 0.86748 0.4644 0.35714 0.0
C417 C 0.87519 0.4597 0.3868 0.0
N418 N 0.88292 0.4905 0.39043 0.0
N419 N 0.87247 0.483 0.36048 0.0
C420 C 0.8951 0.47953 0.44333 0.0
H421 H 0.89594 0.49195 0.45841 0.0
H422 H 0.91002 0.48264 0.43798 0.0
H423 H 0.88764 0.46636 0.46055 0.0
C424 C 0.94211 0.56035 0.36522 0.0
N425 N 0.92517 0.55152 0.38336 0.0
N426 N 0.91799 0.53276 0.38216 0.0
C427 C 0.93037 0.52911 0.36304 0.0
C428 C 0.9461 0.54653 0.35159 0.0
C429 C 0.95397 0.58173 0.36018 0.0
H430 H 0.95908 0.58861 0.38746 0.0
H431 H 0.96676 0.58594 0.34253 0.0
H432 H 0.94494 0.58722 0.34804 0.0
O433 O 0.88776 0.55509 0.37273 0.0
O434 O 0.87367 0.52328 0.3764 0.0
H435 H 0.91272 0.50193 0.33694 0.0
H436 H 0.9382 0.50983 0.33625 0.0
C437 C 0.92633 0.50935 0.35287 0.0
H438 H 0.92435 0.50091 0.37829 0.0
H439 H 0.86882 0.49066 0.34208 0.0
O440 O 0.9259 0.58961 0.40633 0.0
C441 C 0.8736 0.53845 0.36589 0.0
Co442 Co 0.44578 0.35016 0.40383 0.0
Co443 Co 0.4903 0.3754 0.40071 0.0
C444 C 0.47049 0.35838 0.47189 0.0
O445 O 0.45467 0.35034 0.45437 0.0
O446 O 0.48626 0.36994 0.45564 0.0
C447 C 0.41064 0.34506 0.42998 0.0
O448 O 0.42209 0.36078 0.44853 0.0
C449 C 0.52982 0.40931 0.40565 0.0
C450 C 0.54509 0.40125 0.36493 0.0
C451 C 0.5477 0.41555 0.38951 0.0
N452 N 0.51718 0.39209 0.39106 0.0
N453 N 0.52647 0.38738 0.36685 0.0
C454 C 0.52514 0.41881 0.43623 0.0
H455 H 0.50947 0.41078 0.44243 0.0
H456 H 0.52963 0.43389 0.42882 0.0
H457 H 0.53333 0.41926 0.46118 0.0
C458 C 0.4478 0.38344 0.36447 0.0
N459 N 0.45631 0.37489 0.38215 0.0
N460 N 0.47515 0.38599 0.38037 0.0
C461 C 0.47914 0.40213 0.36129 0.0
C462 C 0.46187 0.40114 0.35106 0.0
C463 C 0.42664 0.37389 0.35661 0.0
H464 H 0.42061 0.35822 0.35247 0.0
H465 H 0.41925 0.37619 0.38026 0.0
H466 H 0.42375 0.37999 0.33163 0.0
O467 O 0.45168 0.33328 0.37456 0.0
O468 O 0.48359 0.35033 0.37529 0.0
H469 H 0.50775 0.41194 0.3414 0.0
H470 H 0.49893 0.42844 0.33268 0.0
C471 C 0.49904 0.41804 0.3526 0.0
H472 H 0.50594 0.4259 0.37828 0.0
H473 H 0.52008 0.37468 0.35147 0.0
O474 O 0.41784 0.33803 0.40802 0.0
C475 C 0.46795 0.33513 0.36646 0.0
Co476 Co 0.65627 0.09496 0.40397 0.0
Co477 Co 0.63139 0.11484 0.40322 0.0
C478 C 0.64739 0.10945 0.47404 0.0
O479 O 0.65489 0.10135 0.45567 0.0
O480 O 0.6371 0.11538 0.45809 0.0
C481 C 0.66217 0.06454 0.42566 0.0
O482 O 0.64674 0.05964 0.44571 0.0
C483 C 0.5973 0.12032 0.40928 0.0
C484 C 0.60599 0.14483 0.3713 0.0
C485 C 0.59128 0.13242 0.39445 0.0
N486 N 0.61477 0.12534 0.39527 0.0
N487 N 0.61985 0.14005 0.37273 0.0
C488 C 0.58734 0.10526 0.43822 0.0
H489 H 0.59538 0.09757 0.44374 0.0
H490 H 0.57244 0.09482 0.42954 0.0
H491 H 0.58635 0.11223 0.46391 0.0
C492 C 0.62323 0.0648 0.3626 0.0
N493 N 0.63183 0.08158 0.38126 0.0
N494 N 0.62079 0.08943 0.38063 0.0
C495 C 0.60465 0.07762 0.36116 0.0
C496 C 0.60557 0.06144 0.34966 0.0
C497 C 0.63259 0.05311 0.35382 0.0
H498 H 0.64825 0.06268 0.34931 0.0
H499 H 0.63039 0.04331 0.37717 0.0
H500 H 0.62628 0.04422 0.32875 0.0
O501 O 0.67352 0.11879 0.37757 0.0
O502 O 0.6564 0.13356 0.37847 0.0
H503 H 0.59488 0.09698 0.34472 0.0
H504 H 0.57892 0.07212 0.33169 0.0
C505 C 0.58876 0.08176 0.35334 0.0
H506 H 0.58026 0.07945 0.3788 0.0
H507 H 0.63278 0.14681 0.35807 0.0
O508 O 0.66863 0.07922 0.40493 0.0
C509 C 0.67172 0.13329 0.37002 0.0
Co510 Co 0.89678 0.57464 0.80822 0.0
Co511 Co 0.85224 0.55596 0.80865 0.0
C512 C 0.87313 0.5585 0.7388 0.0
O513 O 0.88868 0.56578 0.7572 0.0
O514 O 0.85729 0.55487 0.7541 0.0
C515 C 0.93335 0.60143 0.78045 0.0
O516 O 0.92305 0.60231 0.75322 0.0
C517 C 0.81323 0.55175 0.80339 0.0
C518 C 0.79642 0.52583 0.83767 0.0
C519 C 0.79481 0.53935 0.81668 0.0
N520 N 0.82518 0.54583 0.81621 0.0
N521 N 0.81497 0.5303 0.83656 0.0
C522 C 0.81911 0.56797 0.77677 0.0
H523 H 0.83473 0.57486 0.77042 0.0
H524 H 0.81589 0.57887 0.78826 0.0
H525 H 0.81064 0.56237 0.75105 0.0
C526 C 0.89479 0.60608 0.84632 0.0
N527 N 0.88615 0.58917 0.8281 0.0
N528 N 0.86733 0.58149 0.83007 0.0
C529 C 0.86347 0.59343 0.85036 0.0
C530 C 0.8808 0.60948 0.86113 0.0
C531 C 0.91616 0.61848 0.85044 0.0
H532 H 0.92275 0.62304 0.82279 0.0
H533 H 0.92023 0.63163 0.86688 0.0
H534 H 0.92208 0.61006 0.86359 0.0
O535 O 0.89002 0.5519 0.8386 0.0
O536 O 0.85819 0.53721 0.83416 0.0
H537 H 0.83478 0.57304 0.86807 0.0
H538 H 0.84458 0.59677 0.88832 0.0
C539 C 0.84381 0.5887 0.8629 0.0
H540 H 0.83696 0.59288 0.84109 0.0
H541 H 0.82066 0.52271 0.8498 0.0
O542 O 0.9249 0.59034 0.80747 0.0
C543 C 0.87347 0.53749 0.84501 0.0
Co544 Co 0.43373 0.325 0.80808 0.0
Co545 Co 0.45253 0.29921 0.8087 0.0
C546 C 0.44985 0.31718 0.73875 0.0
O547 O 0.44249 0.32542 0.75709 0.0
O548 O 0.45362 0.30512 0.75414 0.0
C549 C 0.40504 0.33224 0.78189 0.0
O550 O 0.40159 0.31788 0.75977 0.0
C551 C 0.45702 0.26455 0.80332 0.0
C552 C 0.48258 0.27356 0.83855 0.0
C553 C 0.46935 0.25854 0.81697 0.0
N554 N 0.46271 0.28232 0.81649 0.0
N555 N 0.47803 0.28758 0.83742 0.0
C556 C 0.44111 0.25431 0.77606 0.0
H557 H 0.43402 0.26287 0.76999 0.0
H558 H 0.43031 0.23997 0.78679 0.0
H559 H 0.44709 0.25192 0.75029 0.0
C560 C 0.40255 0.29173 0.84743 0.0
N561 N 0.41931 0.29997 0.82862 0.0
N562 N 0.42699 0.2888 0.8301 0.0
C563 C 0.41516 0.27298 0.85033 0.0
C564 C 0.39921 0.27429 0.86175 0.0
C565 C 0.39029 0.30081 0.85266 0.0
H566 H 0.39935 0.31592 0.86198 0.0
H567 H 0.38365 0.30085 0.82596 0.0
H568 H 0.37847 0.29287 0.87267 0.0
O569 O 0.45649 0.34115 0.83821 0.0
O570 O 0.4712 0.324 0.83418 0.0
H571 H 0.43551 0.2647 0.86822 0.0
H572 H 0.41149 0.25015 0.8869 0.0
C573 C 0.41991 0.25798 0.86217 0.0
H574 H 0.41627 0.24741 0.8396 0.0
H575 H 0.48541 0.30079 0.85104 0.0
O576 O 0.41821 0.33759 0.80592 0.0
C577 C 0.47089 0.33902 0.84484 0.0
Co578 Co 0.68409 0.11046 0.81198 0.0
Co579 Co 0.71011 0.15497 0.80924 0.0
C580 C 0.69218 0.13329 0.74053 0.0
O581 O 0.68444 0.11822 0.76041 0.0
O582 O 0.70374 0.1497 0.7547 0.0
C583 C 0.67852 0.07468 0.78976 0.0
O584 O 0.6942 0.08564 0.77066 0.0
C585 C 0.7427 0.19574 0.8016 0.0
C586 C 0.73844 0.20776 0.85321 0.0
C587 C 0.75026 0.21258 0.82256 0.0
N588 N 0.72728 0.18174 0.81946 0.0
N589 N 0.72485 0.18914 0.85014 0.0
C590 C 0.74942 0.19307 0.76476 0.0
H591 H 0.73751 0.18089 0.74982 0.0
H592 H 0.76117 0.18974 0.76855 0.0
H593 H 0.75504 0.20644 0.74815 0.0
C594 C 0.71768 0.11291 0.85035 0.0
N595 N 0.70896 0.1211 0.8322 0.0
N596 N 0.72054 0.13985 0.83062 0.0
C597 C 0.73727 0.14412 0.84769 0.0
C598 C 0.73606 0.12708 0.86036 0.0
C599 C 0.70791 0.09215 0.86156 0.0
H600 H 0.69233 0.08656 0.86622 0.0
H601 H 0.70972 0.08364 0.83944 0.0
H602 H 0.71431 0.09025 0.88718 0.0
O603 O 0.668 0.11754 0.84093 0.0
O604 O 0.68539 0.14926 0.83481 0.0
H605 H 0.74972 0.17255 0.8698 0.0
H606 H 0.76663 0.16398 0.86413 0.0
C607 C 0.75399 0.16406 0.85195 0.0
H608 H 0.75799 0.17114 0.82465 0.0
H609 H 0.71399 0.18137 0.86933 0.0
O610 O 0.67158 0.08244 0.81054 0.0
C611 C 0.67033 0.13423 0.84632 0.0
Co612 Co 0.43099 0.10982 0.30927 0.0
Co613 Co 0.45069 0.15458 0.30961 0.0
C614 C 0.44653 0.1336 0.23925 0.0
O615 O 0.43868 0.1181 0.2579 0.0
O616 O 0.45179 0.14981 0.25477 0.0
C617 C 0.40266 0.07406 0.28175 0.0
O618 O 0.40122 0.08507 0.25666 0.0
C619 C 0.45847 0.19516 0.30347 0.0
C620 C 0.47673 0.20773 0.35267 0.0
C621 C 0.46843 0.21221 0.32371 0.0
N622 N 0.46076 0.18141 0.32016 0.0
N623 N 0.47177 0.18913 0.34939 0.0
C624 C 0.44764 0.19204 0.26826 0.0
H625 H 0.44664 0.17957 0.25306 0.0
H626 H 0.43279 0.18888 0.27448 0.0
H627 H 0.45477 0.20513 0.25079 0.0
C628 C 0.40035 0.11267 0.34865 0.0
N629 N 0.41727 0.12082 0.33042 0.0
N630 N 0.42509 0.13968 0.3309 0.0
C631 C 0.41314 0.14405 0.34978 0.0
C632 C 0.39701 0.12702 0.36135 0.0
C633 C 0.38806 0.09149 0.35549 0.0
H634 H 0.38099 0.08424 0.32939 0.0
H635 H 0.37672 0.08834 0.37633 0.0
H636 H 0.39718 0.08553 0.36494 0.0
O637 O 0.45415 0.11611 0.33794 0.0
O638 O 0.46917 0.14799 0.33437 0.0
H639 H 0.40613 0.16404 0.37592 0.0
H640 H 0.41878 0.17183 0.33251 0.0
C641 C 0.41754 0.16407 0.3585 0.0
H642 H 0.43157 0.17186 0.37298 0.0
H643 H 0.47572 0.1816 0.36747 0.0
O644 O 0.41468 0.08177 0.3078 0.0
C645 C 0.46874 0.13252 0.34444 0.0
Co646 Co 0.89702 0.32254 0.3054 0.0
Co647 Co 0.85252 0.2964 0.30981 0.0
C648 C 0.87137 0.31423 0.23845 0.0
O649 O 0.88734 0.32236 0.25549 0.0
O650 O 0.85578 0.30233 0.25491 0.0
C651 C 0.93283 0.32886 0.27916 0.0
O652 O 0.92207 0.31288 0.26076 0.0
C653 C 0.81169 0.26367 0.30601 0.0
C654 C 0.80103 0.26796 0.35931 0.0
C655 C 0.79542 0.2561 0.32864 0.0
N656 N 0.82613 0.27914 0.32295 0.0
N657 N 0.81954 0.28157 0.35467 0.0
C658 C 0.8134 0.25689 0.26855 0.0
H659 H 0.82509 0.26879 0.25267 0.0
H660 H 0.81697 0.24525 0.27134 0.0
H661 H 0.79959 0.25112 0.25337 0.0
C662 C 0.8961 0.28944 0.34344 0.0
N663 N 0.88722 0.29779 0.32635 0.0
N664 N 0.86846 0.28628 0.32792 0.0
C665 C 0.86486 0.26997 0.34583 0.0
C666 C 0.88232 0.27136 0.35599 0.0
C667 C 0.91722 0.29954 0.3519 0.0
H668 H 0.92282 0.31516 0.35582 0.0
H669 H 0.92498 0.29744 0.32866 0.0
H670 H 0.92013 0.29368 0.37721 0.0
O671 O 0.89096 0.33876 0.33603 0.0
O672 O 0.85909 0.32129 0.336 0.0
H673 H 0.83779 0.25813 0.37358 0.0
H674 H 0.84556 0.24084 0.36444 0.0
C675 C 0.8451 0.25351 0.35342 0.0
H676 H 0.83658 0.24935 0.32767 0.0
H677 H 0.82779 0.2925 0.37342 0.0
O678 O 0.92495 0.33541 0.30058 0.0
C679 C 0.87464 0.33656 0.34487 0.0
Co680 Co 0.68611 0.57672 0.31024 0.0
Co681 Co 0.71094 0.55682 0.30988 0.0
C682 C 0.69522 0.56238 0.23964 0.0
O683 O 0.68737 0.56992 0.25865 0.0
O684 O 0.70597 0.55683 0.25494 0.0
C685 C 0.68078 0.60715 0.28684 0.0
O686 O 0.69625 0.61164 0.26721 0.0
C687 C 0.74422 0.54964 0.30673 0.0
C688 C 0.73419 0.526 0.34715 0.0
C689 C 0.74961 0.53748 0.3243 0.0
N690 N 0.72671 0.5455 0.31931 0.0
N691 N 0.72081 0.53122 0.34315 0.0
C692 C 0.75549 0.56545 0.27981 0.0
H693 H 0.74863 0.57441 0.27582 0.0
H694 H 0.7705 0.57462 0.28961 0.0
H695 H 0.75584 0.55909 0.25288 0.0
C696 C 0.71923 0.60678 0.35134 0.0
N697 N 0.7106 0.59003 0.33261 0.0
N698 N 0.72157 0.58209 0.33321 0.0
C699 C 0.73765 0.59379 0.35293 0.0
C700 C 0.7368 0.60999 0.36444 0.0
C701 C 0.71001 0.61863 0.35983 0.0
H702 H 0.69434 0.60916 0.36441 0.0
H703 H 0.71224 0.62832 0.33627 0.0
H704 H 0.71641 0.62764 0.38472 0.0
O705 O 0.66873 0.55328 0.33762 0.0
O706 O 0.68547 0.53819 0.33302 0.0
H707 H 0.74716 0.57407 0.36834 0.0
H708 H 0.76258 0.59851 0.38425 0.0
C709 C 0.75339 0.5895 0.36127 0.0
H710 H 0.7626 0.59267 0.33656 0.0
H711 H 0.70774 0.52524 0.3573 0.0
O712 O 0.67411 0.59274 0.30828 0.0
C713 C 0.6704 0.53853 0.34316 0.0
Co714 Co 0.4463 0.09788 0.90047 0.0
Co715 Co 0.49094 0.11795 0.90181 0.0
C716 C 0.46898 0.11318 0.97133 0.0
O717 O 0.45371 0.1054 0.95208 0.0
O718 O 0.48534 0.1185 0.95642 0.0
C719 C 0.41055 0.06898 0.92632 0.0
O720 O 0.42149 0.06731 0.95122 0.0
C721 C 0.53047 0.12374 0.90888 0.0
C722 C 0.54659 0.14862 0.8718 0.0
C723 C 0.54873 0.13605 0.89475 0.0
N724 N 0.51811 0.12878 0.89465 0.0
N725 N 0.52791 0.14371 0.87266 0.0
C726 C 0.52511 0.10845 0.93743 0.0
H727 H 0.50942 0.10109 0.94329 0.0
H728 H 0.52909 0.09772 0.92812 0.0
H729 H 0.53329 0.11511 0.96305 0.0
C730 C 0.44976 0.06716 0.86289 0.0
N731 N 0.45775 0.08432 0.88018 0.0
N732 N 0.47665 0.09242 0.8795 0.0
C733 C 0.48119 0.08049 0.86087 0.0
C734 C 0.46423 0.06396 0.85036 0.0
C735 C 0.42862 0.05464 0.85588 0.0
H736 H 0.42238 0.06361 0.84716 0.0
H737 H 0.42142 0.04702 0.88165 0.0
H738 H 0.42572 0.04374 0.83423 0.0
O739 O 0.45265 0.12105 0.87174 0.0
O740 O 0.48448 0.13636 0.87652 0.0
H741 H 0.51039 0.10036 0.84537 0.0
H742 H 0.50137 0.07595 0.82909 0.0
C743 C 0.50123 0.0849 0.8523 0.0
H744 H 0.50732 0.08167 0.87682 0.0
H745 H 0.52182 0.15053 0.858 0.0
O746 O 0.4183 0.08143 0.90097 0.0
C747 C 0.46905 0.13578 0.86578 0.0
Co748 Co 0.91001 0.3494 0.90428 0.0
Co749 Co 0.89066 0.37469 0.90209 0.0
C750 C 0.89308 0.35683 0.9727 0.0
O751 O 0.90112 0.34905 0.95501 0.0
O752 O 0.88887 0.36844 0.95673 0.0
C753 C 0.94018 0.34384 0.92863 0.0
O754 O 0.94454 0.35922 0.9484 0.0
C755 C 0.88514 0.40871 0.90818 0.0
C756 C 0.8614 0.40059 0.86857 0.0
C757 C 0.87331 0.41492 0.89283 0.0
N758 N 0.88044 0.39147 0.89344 0.0
N759 N 0.8662 0.38673 0.86989 0.0
C760 C 0.8996 0.41822 0.93825 0.0
H761 H 0.90709 0.41003 0.94425 0.0
H762 H 0.91029 0.4332 0.9304 0.0
H763 H 0.89214 0.41898 0.96344 0.0
C764 C 0.94136 0.38305 0.86574 0.0
N765 N 0.92428 0.37438 0.88348 0.0
N766 N 0.91647 0.38543 0.88194 0.0
C767 C 0.92854 0.4016 0.86285 0.0
C768 C 0.94488 0.40073 0.85252 0.0
C769 C 0.95304 0.37362 0.85741 0.0
H770 H 0.94345 0.358 0.85253 0.0
H771 H 0.96257 0.37564 0.88113 0.0
H772 H 0.96222 0.38003 0.83271 0.0
O773 O 0.88733 0.33289 0.87446 0.0
O774 O 0.87255 0.35002 0.87555 0.0
H775 H 0.90935 0.41102 0.84348 0.0
H776 H 0.93449 0.42737 0.83293 0.0
C777 C 0.92433 0.41732 0.85376 0.0
H778 H 0.92571 0.42562 0.87907 0.0
H779 H 0.85974 0.37402 0.85456 0.0
O780 O 0.92581 0.33716 0.90709 0.0
C781 C 0.87303 0.3349 0.86621 0.0
Co782 Co 0.65792 0.56334 0.90205 0.0
Co783 Co 0.63323 0.51862 0.90394 0.0
C784 C 0.65075 0.54071 0.97302 0.0
O785 O 0.65817 0.55593 0.95361 0.0
O786 O 0.63958 0.52432 0.95839 0.0
C787 C 0.66473 0.59914 0.92786 0.0
O788 O 0.65212 0.5882 0.95284 0.0
C789 C 0.59943 0.47905 0.91123 0.0
C790 C 0.60812 0.46298 0.87378 0.0
C791 C 0.59345 0.46082 0.89691 0.0
N792 N 0.61683 0.49142 0.89692 0.0
N793 N 0.62193 0.48164 0.87474 0.0
C794 C 0.58952 0.48435 0.93998 0.0
H795 H 0.59745 0.50014 0.94488 0.0
H796 H 0.57452 0.47964 0.93157 0.0
H797 H 0.58879 0.47675 0.96598 0.0
C798 C 0.62392 0.5598 0.86408 0.0
N799 N 0.63291 0.55183 0.882 0.0
N800 N 0.62203 0.53294 0.88175 0.0
C801 C 0.60565 0.52837 0.86295 0.0
C802 C 0.6062 0.54531 0.85171 0.0
C803 C 0.633 0.58085 0.85558 0.0
H804 H 0.64828 0.58668 0.84765 0.0
H805 H 0.63243 0.58857 0.88049 0.0
H806 H 0.62547 0.5836 0.83282 0.0
O807 O 0.67461 0.55687 0.8731 0.0
O808 O 0.65804 0.52505 0.87826 0.0
H809 H 0.59622 0.4992 0.84712 0.0
H810 H 0.58022 0.50788 0.83306 0.0
C811 C 0.58994 0.50825 0.85515 0.0
H812 H 0.58125 0.50215 0.88042 0.0
H813 H 0.63482 0.48773 0.85994 0.0
O814 O 0.66945 0.59138 0.9025 0.0
C815 C 0.67287 0.54043 0.86723 0.0
Co816 Co 0.57898 0.89568 0.73707 0.0
Co817 Co 0.56005 0.85119 0.73477 0.0
C818 C 0.56283 0.87093 0.80563 0.0
O819 O 0.57009 0.8866 0.78761 0.0
O820 O 0.55911 0.85518 0.78984 0.0
C821 C 0.60789 0.93109 0.76499 0.0
O822 O 0.61145 0.9199 0.78602 0.0
C823 C 0.55342 0.81097 0.73562 0.0
C824 C 0.52955 0.79744 0.69565 0.0
C825 C 0.54124 0.79351 0.71781 0.0
N826 N 0.54906 0.82429 0.72393 0.0
N827 N 0.53467 0.81599 0.70031 0.0
C828 C 0.5695 0.81547 0.76181 0.0
H829 H 0.57868 0.83129 0.76542 0.0
H830 H 0.57838 0.80934 0.75161 0.0
H831 H 0.5634 0.809 0.78902 0.0
C832 C 0.60992 0.89385 0.69633 0.0
N833 N 0.59321 0.88519 0.71525 0.0
N834 N 0.58556 0.86636 0.71327 0.0
C835 C 0.59741 0.86253 0.69263 0.0
C836 C 0.6133 0.87987 0.68145 0.0
C837 C 0.6221 0.91521 0.69155 0.0
H838 H 0.61292 0.92131 0.68332 0.0
H839 H 0.62904 0.92173 0.71817 0.0
H840 H 0.63367 0.91922 0.67089 0.0
O841 O 0.55637 0.89 0.70744 0.0
O842 O 0.54164 0.85819 0.71107 0.0
H843 H 0.57723 0.83403 0.67387 0.0
H844 H 0.6014 0.84358 0.65589 0.0
C845 C 0.59277 0.84285 0.68041 0.0
H846 H 0.5962 0.83577 0.70299 0.0
H847 H 0.52848 0.82306 0.68685 0.0
O848 O 0.59467 0.92362 0.74099 0.0
C849 C 0.54186 0.87355 0.70102 0.0
Co850 Co 0.11448 0.68712 0.7473 0.0
Co851 Co 0.15895 0.71099 0.73644 0.0
C852 C 0.14098 0.69702 0.81171 0.0
O853 O 0.1243 0.6898 0.79763 0.0
O854 O 0.15616 0.70579 0.79188 0.0
C855 C 0.0778 0.67622 0.7785 0.0
O856 O 0.08793 0.68624 0.80702 0.0
C857 C 0.19883 0.74459 0.73826 0.0
C858 C 0.21182 0.73734 0.6917 0.0
C859 C 0.21592 0.75128 0.71832 0.0
N860 N 0.18544 0.72767 0.7237 0.0
N861 N 0.19338 0.72344 0.69599 0.0
C862 C 0.19527 0.7535 0.77138 0.0
H863 H 0.18278 0.74252 0.78728 0.0
H864 H 0.19189 0.7647 0.76241 0.0
H865 H 0.20825 0.76033 0.7892 0.0
C866 C 0.1158 0.71947 0.70647 0.0
N867 N 0.12473 0.71112 0.7232 0.0
N868 N 0.14339 0.72136 0.71725 0.0
C869 C 0.14681 0.73652 0.69547 0.0
C870 C 0.12935 0.73578 0.68777 0.0
C871 C 0.09455 0.71196 0.70888 0.0
H872 H 0.09006 0.70948 0.73814 0.0
H873 H 0.09045 0.72219 0.69726 0.0
H874 H 0.08674 0.698 0.69411 0.0
O875 O 0.11994 0.66901 0.7199 0.0
O876 O 0.15156 0.68587 0.71193 0.0
H877 H 0.16487 0.75902 0.65703 0.0
H878 H 0.17552 0.75998 0.7013 0.0
C879 C 0.16607 0.75024 0.67935 0.0
H880 H 0.17285 0.74214 0.66832 0.0
H881 H 0.18613 0.71111 0.67975 0.0
O882 O 0.08639 0.67492 0.75019 0.0
C883 C 0.13549 0.67039 0.70775 0.0
Co884 Co 0.32505 0.43225 0.73674 0.0
Co885 Co 0.29904 0.45081 0.73677 0.0
C886 C 0.31747 0.44871 0.8062 0.0
O887 O 0.32566 0.44138 0.78759 0.0
O888 O 0.30518 0.45229 0.79121 0.0
C889 C 0.33147 0.40265 0.7613 0.0
O890 O 0.31589 0.39785 0.78082 0.0
C891 C 0.26511 0.45658 0.7433 0.0
C892 C 0.27288 0.47961 0.70214 0.0
C893 C 0.25882 0.46823 0.72737 0.0
N894 N 0.28212 0.46087 0.72797 0.0
N895 N 0.28664 0.47469 0.70349 0.0
C896 C 0.25588 0.44271 0.77438 0.0
H897 H 0.26419 0.43542 0.78104 0.0
H898 H 0.24088 0.4318 0.76716 0.0
H899 H 0.25523 0.45061 0.79896 0.0
C900 C 0.29127 0.40046 0.69944 0.0
N901 N 0.29991 0.41759 0.71695 0.0
N902 N 0.28855 0.42506 0.71636 0.0
C903 C 0.27214 0.41267 0.69827 0.0
C904 C 0.27324 0.39651 0.68742 0.0
C905 C 0.30097 0.38911 0.69036 0.0
H906 H 0.31654 0.39893 0.68532 0.0
H907 H 0.29921 0.37951 0.7138 0.0
H908 H 0.29454 0.38004 0.66555 0.0
O909 O 0.34091 0.45467 0.70585 0.0
O910 O 0.3238 0.46939 0.71081 0.0
H911 H 0.26151 0.43094 0.67952 0.0
H912 H 0.24507 0.40548 0.67211 0.0
C913 C 0.25586 0.4163 0.69114 0.0
H914 H 0.2486 0.41555 0.71754 0.0
H915 H 0.29915 0.48078 0.68755 0.0
O916 O 0.33781 0.41692 0.73957 0.0
C917 C 0.33873 0.46905 0.69952 0.0
Co918 Co 0.56451 0.90866 0.14172 0.0
Co919 Co 0.5199 0.88953 0.14105 0.0
C920 C 0.54103 0.89201 0.07193 0.0
O921 O 0.55648 0.89947 0.0907 0.0
O922 O 0.52506 0.88826 0.08674 0.0
C923 C 0.60018 0.93724 0.11449 0.0
O924 O 0.58912 0.93849 0.08929 0.0
C925 C 0.48026 0.88366 0.13376 0.0
C926 C 0.46456 0.86 0.17355 0.0
C927 C 0.46216 0.87176 0.1489 0.0
N928 N 0.49281 0.87913 0.149 0.0
N929 N 0.48325 0.86493 0.17263 0.0
C930 C 0.48526 0.898 0.10344 0.0
H931 H 0.50098 0.9056 0.09775 0.0
H932 H 0.48076 0.9086 0.11082 0.0
H933 H 0.47726 0.89041 0.0782 0.0
C934 C 0.56178 0.94012 0.17831 0.0
N935 N 0.55349 0.92294 0.16103 0.0
N936 N 0.53464 0.91522 0.16173 0.0
C937 C 0.5304 0.92745 0.1799 0.0
C938 C 0.54753 0.94381 0.19053 0.0
C939 C 0.58287 0.95182 0.18663 0.0
H940 H 0.58849 0.9422 0.1946 0.0
H941 H 0.59064 0.95996 0.16166 0.0
H942 H 0.58582 0.9622 0.20934 0.0
O943 O 0.55811 0.8862 0.17253 0.0
O944 O 0.5263 0.8712 0.16717 0.0
H945 H 0.50141 0.90859 0.19783 0.0
H946 H 0.51021 0.93383 0.20744 0.0
C947 C 0.51038 0.92349 0.18737 0.0
H948 H 0.50399 0.92481 0.16131 0.0
H949 H 0.4895 0.8586 0.18833 0.0
O950 O 0.59255 0.92501 0.14025 0.0
C951 C 0.54159 0.87167 0.1786 0.0
Co952 Co 0.09805 0.6546 0.13898 0.0
Co953 Co 0.11888 0.63069 0.14379 0.0
C954 C 0.11449 0.64615 0.07136 0.0
O955 O 0.1056 0.65341 0.0878 0.0
O956 O 0.1205 0.63639 0.08897 0.0
C957 C 0.06933 0.66135 0.1104 0.0
O958 O 0.06822 0.649 0.08532 0.0
C959 C 0.12464 0.59692 0.13954 0.0
C960 C 0.14956 0.60619 0.1767 0.0
C961 C 0.137 0.5912 0.15424 0.0
N962 N 0.12966 0.61448 0.15294 0.0
N963 N 0.1446 0.61992 0.17503 0.0
C964 C 0.10938 0.58664 0.11111 0.0
H965 H 0.10223 0.59504 0.10412 0.0
H966 H 0.09847 0.5722 0.12125 0.0
H967 H 0.11598 0.58447 0.08601 0.0
C968 C 0.06734 0.62107 0.17824 0.0
N969 N 0.08463 0.63006 0.16133 0.0
N970 N 0.09309 0.61966 0.16462 0.0
C971 C 0.08134 0.60373 0.18469 0.0
C972 C 0.06449 0.60399 0.19338 0.0
C973 C 0.05443 0.62946 0.18256 0.0
H974 H 0.06302 0.64477 0.19098 0.0
H975 H 0.04747 0.62873 0.15577 0.0
H976 H 0.04302 0.62158 0.20342 0.0
O977 O 0.12131 0.67236 0.16734 0.0
O978 O 0.13663 0.65573 0.16851 0.0
H979 H 0.10172 0.59578 0.20386 0.0
H980 H 0.07732 0.58042 0.22023 0.0
C981 C 0.08626 0.58884 0.19646 0.0
H982 H 0.08345 0.57877 0.17332 0.0
H983 H 0.15143 0.63304 0.18905 0.0
O984 O 0.08134 0.66591 0.13653 0.0
C985 C 0.13587 0.67087 0.1762 0.0
Co986 Co 0.35231 0.44456 0.14015 0.0
Co987 Co 0.37764 0.48911 0.14314 0.0
C988 C 0.36012 0.46926 0.07218 0.0
O989 O 0.3522 0.45343 0.08971 0.0
O990 O 0.37177 0.48502 0.08832 0.0
C991 C 0.34699 0.40923 0.11434 0.0
O992 O 0.36264 0.42052 0.09544 0.0
C993 C 0.41144 0.52875 0.13769 0.0
C994 C 0.40347 0.54389 0.17887 0.0
C995 C 0.41765 0.54663 0.15384 0.0
N996 N 0.39437 0.51601 0.1527 0.0
N997 N 0.38972 0.52522 0.1772 0.0
C998 C 0.4208 0.52417 0.10669 0.0
H999 H 0.41254 0.50858 0.09987 0.0
H1000 H 0.43579 0.52826 0.11407 0.0
H1001 H 0.42152 0.53275 0.08216 0.0
C1002 C 0.38571 0.44654 0.17884 0.0
N1003 N 0.37715 0.45508 0.16127 0.0
N1004 N 0.3883 0.47391 0.16294 0.0
C1005 C 0.40449 0.47788 0.18179 0.0
C1006 C 0.40348 0.46059 0.19199 0.0
C1007 C 0.37609 0.42541 0.187 0.0
H1008 H 0.36044 0.41947 0.19138 0.0
H1009 H 0.37826 0.41789 0.16342 0.0
H1010 H 0.38225 0.42257 0.21196 0.0
O1011 O 0.33568 0.4505 0.17006 0.0
O1012 O 0.35276 0.4824 0.16935 0.0
H1013 H 0.41438 0.5064 0.20212 0.0
H1014 H 0.43101 0.49763 0.20982 0.0
C1015 C 0.42043 0.49777 0.19038 0.0
H1016 H 0.42807 0.50476 0.16455 0.0
H1017 H 0.37713 0.51876 0.19291 0.0
O1018 O 0.34009 0.41661 0.1362 0.0
C1019 C 0.33762 0.46678 0.17846 0.0
Co1020 Co 0.09973 0.44474 0.64372 0.0
Co1021 Co 0.11716 0.48919 0.64503 0.0
C1022 C 0.11609 0.46967 0.57499 0.0
O1023 O 0.10904 0.45408 0.59331 0.0
O1024 O 0.11918 0.48534 0.59026 0.0
C1025 C 0.07037 0.40917 0.61782 0.0
O1026 O 0.06568 0.4203 0.59933 0.0
C1027 C 0.12421 0.52973 0.64085 0.0
C1028 C 0.14055 0.5412 0.6925 0.0
C1029 C 0.13323 0.54624 0.66273 0.0
N1030 N 0.12609 0.51567 0.65734 0.0
N1031 N 0.13593 0.52275 0.68808 0.0
C1032 C 0.11474 0.52754 0.6043 0.0
H1033 H 0.11447 0.51557 0.58846 0.0
H1034 H 0.09966 0.52415 0.60858 0.0
H1035 H 0.12241 0.54115 0.58838 0.0
C1036 C 0.06735 0.44552 0.68146 0.0
N1037 N 0.0845 0.45442 0.66401 0.0
N1038 N 0.09141 0.47315 0.66454 0.0
C1039 C 0.07858 0.47669 0.68226 0.0
C1040 C 0.06277 0.45922 0.69323 0.0
C1041 C 0.05659 0.42449 0.69076 0.0
H1042 H 0.06678 0.41912 0.69502 0.0
H1043 H 0.04673 0.4164 0.66779 0.0
H1044 H 0.04783 0.42175 0.71609 0.0
O1045 O 0.1221 0.45145 0.67471 0.0
O1046 O 0.13612 0.48324 0.67028 0.0
H1047 H 0.09407 0.50445 0.70738 0.0
H1048 H 0.0686 0.49581 0.70143 0.0
C1049 C 0.08152 0.49639 0.68892 0.0
H1050 H 0.08475 0.50424 0.66246 0.0
H1051 H 0.13936 0.51488 0.70635 0.0
O1052 O 0.0847 0.41672 0.63947 0.0
C1053 C 0.13623 0.46815 0.68117 0.0
Co1054 Co 0.56427 0.6558 0.64148 0.0
Co1055 Co 0.51976 0.62977 0.64087 0.0
C1056 C 0.54067 0.64786 0.57145 0.0
O1057 O 0.55609 0.65611 0.59027 0.0
O1058 O 0.52471 0.63568 0.58637 0.0
C1059 C 0.60042 0.66216 0.61791 0.0
O1060 O 0.58978 0.64678 0.59784 0.0
C1061 C 0.47994 0.59606 0.63445 0.0
C1062 C 0.4648 0.60422 0.67531 0.0
C1063 C 0.46201 0.59005 0.65027 0.0
N1064 N 0.49276 0.61304 0.64965 0.0
N1065 N 0.48354 0.61779 0.67396 0.0
C1066 C 0.48449 0.58661 0.60359 0.0
H1067 H 0.50007 0.59481 0.59676 0.0
H1068 H 0.48035 0.57163 0.61118 0.0
H1069 H 0.47591 0.58584 0.57902 0.0
C1070 C 0.56208 0.62223 0.67997 0.0
N1071 N 0.55368 0.63079 0.66195 0.0
N1072 N 0.53486 0.61936 0.66211 0.0
C1073 C 0.53078 0.60299 0.68039 0.0
C1074 C 0.54798 0.60418 0.69186 0.0
C1075 C 0.58307 0.63199 0.68944 0.0
H1076 H 0.59109 0.63027 0.66621 0.0
H1077 H 0.58559 0.62559 0.71441 0.0
H1078 H 0.58872 0.64754 0.69442 0.0
O1079 O 0.55759 0.67199 0.67118 0.0
O1080 O 0.52583 0.65462 0.66612 0.0
H1081 H 0.50171 0.59215 0.69847 0.0
H1082 H 0.51075 0.57571 0.70579 0.0
C1083 C 0.51084 0.58661 0.68693 0.0
H1084 H 0.50457 0.57954 0.6603 0.0
H1085 H 0.49004 0.63034 0.68976 0.0
O1086 O 0.59232 0.66843 0.63945 0.0
C1087 C 0.54096 0.66974 0.67712 0.0
Co1088 Co 0.35468 0.9121 0.63585 0.0
Co1089 Co 0.37925 0.89209 0.64057 0.0
C1090 C 0.36284 0.89512 0.56852 0.0
O1091 O 0.35502 0.90332 0.58548 0.0
O1092 O 0.37408 0.89067 0.58534 0.0
C1093 C 0.34789 0.9413 0.60911 0.0
O1094 O 0.36256 0.94535 0.58739 0.0
C1095 C 0.413 0.88572 0.64032 0.0
C1096 C 0.40229 0.86126 0.67899 0.0
C1097 C 0.4182 0.87343 0.65783 0.0
N1098 N 0.39507 0.88098 0.65127 0.0
N1099 N 0.38877 0.86624 0.67408 0.0
C1100 C 0.42484 0.90225 0.61514 0.0
H1101 H 0.41811 0.91136 0.61173 0.0
H1102 H 0.43966 0.91107 0.62612 0.0
H1103 H 0.42568 0.89661 0.58771 0.0
C1104 C 0.38745 0.94273 0.67703 0.0
N1105 N 0.37926 0.92596 0.65831 0.0
N1106 N 0.38996 0.91781 0.6615 0.0
C1107 C 0.40539 0.92936 0.68289 0.0
C1108 C 0.40436 0.94561 0.69315 0.0
C1109 C 0.37875 0.95542 0.68066 0.0
H1110 H 0.36345 0.94669 0.68915 0.0
H1111 H 0.37935 0.96203 0.65358 0.0
H1112 H 0.38656 0.96725 0.7007 0.0
O1113 O 0.33729 0.88937 0.66472 0.0
O1114 O 0.35392 0.87411 0.66511 0.0
H1115 H 0.41245 0.90838 0.70258 0.0
H1116 H 0.4267 0.93214 0.72249 0.0
C1117 C 0.41965 0.92405 0.69698 0.0
H1118 H 0.43096 0.92774 0.67587 0.0
H1119 H 0.37531 0.85972 0.68687 0.0
O1120 O 0.34248 0.92784 0.63253 0.0
C1121 C 0.33879 0.87481 0.67322 0.0
Co1122 Co 0.113 0.43159 0.23956 0.0
Co1123 Co 0.15748 0.44964 0.23889 0.0
C1124 C 0.13727 0.44776 0.30882 0.0
O1125 O 0.1217 0.44046 0.29043 0.0
O1126 O 0.1531 0.45133 0.29354 0.0
C1127 C 0.07689 0.40269 0.26482 0.0
O1128 O 0.08754 0.39864 0.28639 0.0
C1129 C 0.19799 0.45705 0.24449 0.0
C1130 C 0.21021 0.47458 0.19431 0.0
C1131 C 0.21489 0.46673 0.22375 0.0
N1132 N 0.18412 0.45909 0.22766 0.0
N1133 N 0.19163 0.46964 0.19781 0.0
C1134 C 0.1951 0.44668 0.28022 0.0
H1135 H 0.18276 0.44592 0.29552 0.0
H1136 H 0.19185 0.43174 0.27467 0.0
H1137 H 0.20833 0.45401 0.29728 0.0
C1138 C 0.11456 0.40014 0.19994 0.0
N1139 N 0.12314 0.41682 0.21896 0.0
N1140 N 0.14192 0.42401 0.21855 0.0
C1141 C 0.14581 0.41182 0.19936 0.0
C1142 C 0.12855 0.39625 0.18694 0.0
C1143 C 0.0933 0.38851 0.19309 0.0
H1144 H 0.08601 0.38094 0.21881 0.0
H1145 H 0.08963 0.37745 0.17148 0.0
H1146 H 0.08771 0.39815 0.18506 0.0
O1147 O 0.11972 0.4542 0.2092 0.0
O1148 O 0.15152 0.46847 0.21355 0.0
H1149 H 0.17329 0.42953 0.17431 0.0
H1150 H 0.16536 0.40406 0.17355 0.0
C1151 C 0.16567 0.41587 0.19006 0.0
H1152 H 0.1738 0.41773 0.21583 0.0
H1153 H 0.18399 0.47336 0.17954 0.0
O1154 O 0.08498 0.41638 0.24187 0.0
C1155 C 0.13635 0.46843 0.20274 0.0
Co1156 Co 0.57749 0.68296 0.23512 0.0
Co1157 Co 0.55916 0.70913 0.23596 0.0
C1158 C 0.56182 0.69097 0.30523 0.0
O1159 O 0.56882 0.6826 0.28623 0.0
O1160 O 0.55825 0.70331 0.2905 0.0
C1161 C 0.60734 0.67733 0.2596 0.0
O1162 O 0.61162 0.69289 0.27874 0.0
C1163 C 0.55384 0.74329 0.24239 0.0
C1164 C 0.52996 0.73516 0.20309 0.0
C1165 C 0.54196 0.7495 0.22725 0.0
N1166 N 0.54907 0.72604 0.22763 0.0
N1167 N 0.53475 0.7213 0.20427 0.0
C1168 C 0.56839 0.75283 0.2723 0.0
H1169 H 0.57581 0.74458 0.27831 0.0
H1170 H 0.57913 0.76776 0.26423 0.0
H1171 H 0.56104 0.75373 0.29752 0.0
C1172 C 0.60895 0.7164 0.19652 0.0
N1173 N 0.59201 0.70796 0.21472 0.0
N1174 N 0.58464 0.71941 0.21435 0.0
C1175 C 0.5969 0.73565 0.19562 0.0
C1176 C 0.61288 0.73437 0.18423 0.0
C1177 C 0.62015 0.70659 0.18715 0.0
H1178 H 0.62993 0.70841 0.2103 0.0
H1179 H 0.62904 0.71287 0.16207 0.0
H1180 H 0.61025 0.69101 0.18244 0.0
O1181 O 0.55474 0.66692 0.2051 0.0
O1182 O 0.54026 0.68422 0.21088 0.0
H1183 H 0.57832 0.7462 0.17827 0.0
H1184 H 0.60355 0.76215 0.16772 0.0
C1185 C 0.59328 0.75192 0.18822 0.0
H1186 H 0.595 0.75986 0.21419 0.0
H1187 H 0.52822 0.70858 0.18898 0.0
O1188 O 0.59306 0.67048 0.23785 0.0
C1189 C 0.54034 0.66918 0.19952 0.0
Co1190 Co 0.32598 0.89471 0.23395 0.0
Co1191 Co 0.30008 0.85019 0.23405 0.0
C1192 C 0.31914 0.87104 0.30324 0.0
O1193 O 0.32731 0.88649 0.28454 0.0
O1194 O 0.30659 0.85522 0.28849 0.0
C1195 C 0.33387 0.93017 0.26302 0.0
O1196 O 0.32166 0.91883 0.28814 0.0
C1197 C 0.2652 0.81136 0.24034 0.0
C1198 C 0.27358 0.7943 0.20495 0.0
C1199 C 0.25879 0.79292 0.22679 0.0
N1200 N 0.28297 0.82313 0.22685 0.0
N1201 N 0.28787 0.81277 0.20587 0.0
C1202 C 0.25524 0.81739 0.26763 0.0
H1203 H 0.26333 0.83326 0.27145 0.0
H1204 H 0.24033 0.81265 0.25851 0.0
H1205 H 0.25425 0.81028 0.29439 0.0
C1206 C 0.29189 0.89274 0.19867 0.0
N1207 N 0.30062 0.88411 0.21527 0.0
N1208 N 0.28949 0.86528 0.21331 0.0
C1209 C 0.27333 0.86144 0.1944 0.0
C1210 C 0.27423 0.87876 0.18515 0.0
C1211 C 0.30112 0.91402 0.19257 0.0
H1212 H 0.31616 0.91983 0.183 0.0
H1213 H 0.30133 0.92111 0.21894 0.0
H1214 H 0.29319 0.91756 0.17188 0.0
O1215 O 0.34168 0.88803 0.20243 0.0
O1216 O 0.32466 0.8562 0.20767 0.0
H1217 H 0.26389 0.83239 0.17739 0.0
H1218 H 0.24956 0.84229 0.15962 0.0
C1219 C 0.25771 0.84173 0.18378 0.0
H1220 H 0.24749 0.83537 0.20705 0.0
H1221 H 0.30099 0.81832 0.19198 0.0
O1222 O 0.33807 0.92278 0.23615 0.0
C1223 C 0.33952 0.87145 0.19618 0.0
H1224 H 0.23747 0.03672 0.04385 0.0
H1225 H 0.17632 0.00703 1.02152 0.0
H1226 H 0.23627 0.06552 0.06128 0.0
H1227 H 0.17522 0.03586 0.03905 0.0
H1228 H 0.19061 0.09794 1.00747 0.0
H1229 H 0.18942 0.06726 1.00482 0.0
H1230 H 0.2222 0.08059 0.10538 0.0
H1231 H 0.22285 0.11129 0.10922 0.0
C1232 C 0.2237 0.03618 0.04336 0.0
C1233 C 0.20704 0.01962 0.03071 0.0
C1234 C 0.22302 0.05268 0.05356 0.0
C1235 C 0.20571 0.05303 0.05106 0.0
C1236 C 0.18882 0.03609 0.04076 0.0
C1237 C 0.18945 0.01954 0.03087 0.0
C1238 C 0.19747 0.09446 0.02945 0.0
C1239 C 0.20721 0.1076 0.05819 0.0
C1240 C 0.19667 0.07671 0.0279 0.0
C1241 C 0.20567 0.07147 0.05491 0.0
C1242 C 0.21527 0.08435 0.08397 0.0
C1243 C 0.21585 0.10214 0.08585 0.0
H1244 H 0.88926 0.11953 0.07506 0.0
H1245 H 0.91682 0.08986 0.02828 0.0
H1246 H 0.91974 0.14974 0.07292 0.0
H1247 H 0.94699 0.12014 0.02422 0.0
H1248 H 1.00251 0.17514 0.03593 0.0
H1249 H 0.97349 0.14585 0.055 0.0
H1250 H 0.93912 0.17166 0.02605 0.0
H1251 H 0.96812 0.20109 1.00824 0.0
C1252 C 0.90187 0.11929 0.06524 0.0
C1253 C 0.9006 0.10215 0.05236 0.0
C1254 C 0.91934 0.13674 0.06336 0.0
C1255 C 0.9359 0.13748 0.04825 0.0
C1256 C 0.93471 0.12018 0.03657 0.0
C1257 C 0.91731 0.10279 0.03859 0.0
C1258 C 0.98879 0.17467 0.03414 0.0
C1259 C 0.98766 0.19044 1.02021 0.0
C1260 C 0.97211 0.15781 0.0449 0.0
C1261 C 0.95387 0.15624 0.04173 0.0
C1262 C 0.95288 0.17235 0.02933 0.0
C1263 C 0.96956 0.18924 1.01884 0.0
H1264 H 0.84089 0.83126 1.01085 0.0
H1265 H 0.80645 0.77365 0.05385 0.0
H1266 H 0.87004 0.83118 0.02886 0.0
H1267 H 0.83556 0.77384 0.07358 0.0
H1268 H 0.89038 0.77034 0.04991 0.0
H1269 H 0.86043 0.77104 0.04603 0.0
H1270 H 0.8911 0.83167 0.07362 0.0
H1271 H 0.92116 0.83091 0.07602 0.0
C1272 C 0.83952 0.81876 0.02509 0.0
C1273 C 0.82134 0.80239 0.03055 0.0
C1274 C 0.85629 0.81872 0.03562 0.0
C1275 C 0.8553 0.80239 0.0524 0.0
C1276 C 0.837 0.78649 0.05991 0.0
C1277 C 0.82025 0.78643 0.04887 0.0
C1278 C 0.89057 0.78363 0.05634 0.0
C1279 C 0.908 0.8005 0.06387 0.0
C1280 C 0.87338 0.7841 0.054 0.0
C1281 C 0.87321 0.80145 0.05936 0.0
C1282 C 0.89063 0.81812 0.0686 0.0
C1283 C 0.90785 0.81768 0.07038 0.0
H1284 H 0.03697 0.23597 0.50183 0.0
H1285 H 0.0132 0.17667 0.5352 0.0
H1286 H 0.06597 0.23647 0.48 0.0
H1287 H 0.04249 0.17737 0.51527 0.0
H1288 H 0.09333 0.17866 0.46373 0.0
H1289 H 0.0628 0.17835 0.46869 0.0
H1290 H 0.09355 0.23786 0.50415 0.0
H1291 H 0.12394 0.23819 0.49733 0.0
C1292 C 0.03792 0.223 0.50438 0.0
C1293 C 0.02281 0.2063 0.52044 0.0
C1294 C 0.05464 0.22332 0.4921 0.0
C1295 C 0.05683 0.20704 0.49612 0.0
C1296 C 0.04136 0.19014 0.51106 0.0
C1297 C 0.02452 0.18973 0.52277 0.0
C1298 C 0.09348 0.19178 0.47156 0.0
C1299 C 0.11094 0.20853 0.47951 0.0
C1300 C 0.07599 0.19158 0.47488 0.0
C1301 C 0.07553 0.20801 0.48727 0.0
C1302 C 0.0932 0.225 0.4939 0.0
C1303 C 0.1107 0.22526 0.4899 0.0
H1304 H 0.77567 0.80605 0.50167 0.0
H1305 H 0.83588 0.8371 0.53182 0.0
H1306 H 0.77736 0.83636 0.48506 0.0
H1307 H 0.83747 0.86736 0.51521 0.0
H1308 H 0.82049 0.91332 0.54507 0.0
H1309 H 0.82174 0.88382 0.54791 0.0
H1310 H 0.79316 0.86627 0.44277 0.0
H1311 H 0.79256 0.89634 0.43882 0.0
C1312 C 0.78936 0.81928 0.50408 0.0
C1313 C 0.80559 0.81915 0.51857 0.0
C1314 C 0.79033 0.83664 0.49436 0.0
C1315 C 0.80747 0.85423 0.49927 0.0
C1316 C 0.82399 0.85401 0.51158 0.0
C1317 C 0.82309 0.83665 0.52093 0.0
C1318 C 0.81458 0.90338 0.52218 0.0
C1319 C 0.80599 0.90727 0.49207 0.0
C1320 C 0.81541 0.88643 0.52384 0.0
C1321 C 0.80758 0.87274 0.49555 0.0
C1322 C 0.79915 0.87654 0.46516 0.0
C1323 C 0.79857 0.89373 0.4632 0.0
H1324 H 0.1204 0.88502 0.49849 0.0
H1325 H 0.09162 0.9155 0.46315 0.0
H1326 H 0.15049 0.91539 0.50435 0.0
H1327 H 0.12186 0.94602 0.46773 0.0
H1328 H 0.17013 0.99559 0.53439 0.0
H1329 H 0.14135 0.96638 0.51493 0.0
H1330 H 0.17651 0.94273 0.47749 0.0
H1331 H 0.20525 0.97168 0.49849 0.0
C1332 C 0.12072 0.89818 0.4905 0.0
C1333 C 0.10378 0.89791 0.47982 0.0
C1334 C 0.13798 0.91568 0.49401 0.0
C1335 C 0.1387 0.9333 0.4867 0.0
C1336 C 0.12184 0.93284 0.4743 0.0
C1337 C 0.10454 0.91536 0.4713 0.0
C1338 C 0.17175 0.98428 0.52152 0.0
C1339 C 0.18998 0.98591 0.51838 0.0
C1340 C 0.1552 0.96749 0.51013 0.0
C1341 C 0.15649 0.952 0.49485 0.0
C1342 C 0.17487 0.95413 0.48988 0.0
C1343 C 0.19139 0.97081 0.50169 0.0
H1344 H 0.77459 0.88789 0.96461 0.0
H1345 H 0.8304 0.91458 1.0169 0.0
H1346 H 0.7752 0.91858 0.96576 0.0
H1347 H 0.83061 0.94493 1.01982 0.0
H1348 H 0.83204 1.00085 1.00791 0.0
H1349 H 0.83253 0.97191 0.98883 0.0
H1350 H 0.77159 0.93768 1.01187 0.0
H1351 H 0.77097 0.96657 0.02968 0.0
C1352 C 0.78722 0.90036 0.97544 0.0
C1353 C 0.80257 0.89876 0.99023 0.0
C1354 C 0.78743 0.91795 0.97671 0.0
C1355 C 0.80292 0.93431 0.99305 0.0
C1356 C 0.81856 0.93281 1.00652 0.0
C1357 C 0.81836 0.9153 1.00514 0.0
C1358 C 0.81868 0.98719 1.00833 0.0
C1359 C 0.80151 0.98607 1.02072 0.0
C1360 C 0.81898 0.97055 0.99758 0.0
C1361 C 0.80214 0.95235 0.99917 0.0
C1362 C 0.78481 0.9514 1.00984 0.0
C1363 C 0.78448 0.96803 1.02035 0.0
H1364 H 0.09485 0.91695 1.01563 0.0
H1365 H 0.1212 0.88777 0.96183 0.0
H1366 H 0.06437 0.88703 1.01765 0.0
H1367 H 0.09034 0.85806 0.96146 0.0
H1368 H 0.04213 0.8052 1.02184 0.0
H1369 H 0.07101 0.83474 1.00485 0.0
H1370 H 0.03718 0.86247 0.98802 0.0
H1371 H 0.00825 0.83297 1.00678 0.0
C1372 C 0.09405 0.90425 1.00332 0.0
C1373 C 0.11057 0.90494 0.98833 0.0
C1374 C 0.07643 0.88705 1.00411 0.0
C1375 C 0.07475 0.86997 0.98977 0.0
C1376 C 0.09108 0.87083 0.97321 0.0
C1377 C 0.10881 0.88806 0.97275 0.0
C1378 C 0.04074 0.81749 1.01403 0.0
C1379 C 0.02284 0.81673 1.01616 0.0
C1380 C 0.05738 0.83449 1.00396 0.0
C1381 C 0.05659 0.85119 0.99531 0.0
C1382 C 0.03847 0.85007 0.99529 0.0
C1383 C 0.02182 0.83309 1.0058 0.0
H1384 H 0.09671 0.19093 0.04877 0.0
H1385 H 0.11414 0.21905 0.94272 0.0
H1386 H 0.12631 0.18986 0.05224 0.0
H1387 H 0.14429 0.21863 0.9473 0.0
H1388 H 0.20431 0.23525 1.00622 0.0
H1389 H 0.17418 0.23419 0.99036 0.0
H1390 H 0.14247 0.17389 1.01895 0.0
H1391 H 0.1725 0.17482 0.03476 0.0
C1392 C 0.10679 0.19694 0.02609 0.0
C1393 C 0.10297 0.20547 0.99578 0.0
C1394 C 0.12378 0.19623 0.02813 0.0
C1395 C 0.1376 0.20412 1.00003 0.0
C1396 C 0.13393 0.21259 0.96954 0.0
C1397 C 0.11668 0.21306 0.9672 0.0
C1398 C 0.19095 0.22167 1.00852 0.0
C1399 C 0.19082 0.20517 1.02223 0.0
C1400 C 0.17371 0.22107 0.99924 0.0
C1401 C 0.15599 0.20402 1.00382 0.0
C1402 C 0.15593 0.18729 1.01558 0.0
C1403 C 0.17315 0.18782 0.02449 0.0
H1404 H 0.96933 0.76945 0.52314 0.0
H1405 H 1.00302 0.83134 0.53445 0.0
H1406 H 0.94064 0.77016 0.54184 0.0
H1407 H 0.9743 0.83199 0.55465 0.0
H1408 H 0.91564 0.8272 0.5278 0.0
H1409 H 0.94637 0.82822 0.52512 0.0
H1410 H 0.92227 0.77514 0.58702 0.0
H1411 H 0.89114 0.77357 0.58775 0.0
C1412 C 0.97073 0.7832 0.53042 0.0
C1413 C 0.98848 0.80038 0.52675 0.0
C1414 C 0.95422 0.78359 0.54148 0.0
C1415 C 0.95502 0.80116 0.5495 0.0
C1416 C 0.97303 0.81823 0.54796 0.0
C1417 C 0.98955 0.81786 0.53657 0.0
C1418 C 0.91694 0.81586 0.54131 0.0
C1419 C 0.90088 0.80037 0.55819 0.0
C1420 C 0.93469 0.81655 0.54009 0.0
C1421 C 0.9369 0.80174 0.55578 0.0
C1422 C 0.92107 0.78669 0.57427 0.0
C1423 C 0.90323 0.78596 0.57529 0.0
H1424 H 0.17552 0.17004 0.51483 0.0
H1425 H 0.23602 0.20145 0.54285 0.0
H1426 H 0.17431 0.13992 0.53104 0.0
H1427 H 0.23471 0.17126 0.55894 0.0
H1428 H 0.22004 0.11148 0.60603 0.0
H1429 H 0.21969 0.14168 0.60162 0.0
H1430 H 0.18946 0.12319 0.49819 0.0
H1431 H 0.19038 0.09354 0.50153 0.0
C1432 C 0.18847 0.17059 0.52507 0.0
C1433 C 0.20592 0.18817 0.52705 0.0
C1434 C 0.18779 0.15332 0.5342 0.0
C1435 C 0.20448 0.15323 0.54583 0.0
C1436 C 0.22161 0.17088 0.55018 0.0
C1437 C 0.22236 0.18817 0.54075 0.0
C1438 C 0.2137 0.11391 0.58192 0.0
C1439 C 0.20565 0.10003 0.55373 0.0
C1440 C 0.21329 0.13119 0.57969 0.0
C1441 C 0.20444 0.13475 0.54967 0.0
C1442 C 0.19611 0.12077 0.52198 0.0
C1443 C 0.19674 0.10373 0.52392 0.0
H1444 H 0.918 0.09138 0.57978 0.0
H1445 H 0.89039 0.12273 0.54301 0.0
H1446 H 0.88755 0.06115 0.57442 0.0
H1447 H 0.86012 0.0926 0.53562 0.0
H1448 H 0.80482 0.03631 0.53741 0.0
H1449 H 0.83332 0.06534 0.55907 0.0
H1450 H 0.86867 0.04084 0.52783 0.0
H1451 H 0.84013 0.01158 0.50818 0.0
C1452 C 0.90526 0.09175 0.57108 0.0
C1453 C 0.9064 0.10932 0.56236 0.0
C1454 C 0.88785 0.07443 0.56753 0.0
C1455 C 0.87127 0.07425 0.55408 0.0
C1456 C 0.87237 0.09204 0.54665 0.0
C1457 C 0.88973 0.10939 0.55092 0.0
C1458 C 0.81868 0.03706 0.5357 0.0
C1459 C 0.8202 0.02164 0.52092 0.0
C1460 C 0.83508 0.05379 0.54788 0.0
C1461 C 0.85347 0.05566 0.54504 0.0
C1462 C 0.85483 0.03995 0.5312 0.0
C1463 C 0.83841 0.02312 0.51962 0.0
H1464 H 0.84295 0.33824 0.36922 0.0
H1465 H 0.90487 0.37242 0.35912 0.0
H1466 H 0.84193 0.3668 0.38938 0.0
H1467 H 0.90381 0.40087 0.37741 0.0
H1468 H 0.90066 0.45051 0.42031 0.0
H1469 H 0.89897 0.41942 0.42097 0.0
H1470 H 0.84527 0.3946 0.361 0.0
H1471 H 0.84625 0.42529 0.36285 0.0
C1472 C 0.85635 0.35177 0.37163 0.0
C1473 C 0.87395 0.35302 0.36213 0.0
C1474 C 0.85578 0.36821 0.38294 0.0
C1475 C 0.87277 0.38631 0.38466 0.0
C1476 C 0.89043 0.38726 0.37699 0.0
C1477 C 0.89102 0.37085 0.36612 0.0
C1478 C 0.88808 0.43832 0.40865 0.0
C1479 C 0.87349 0.44049 0.39188 0.0
C1480 C 0.88729 0.42046 0.40837 0.0
C1481 C 0.87208 0.4044 0.39069 0.0
C1482 C 0.8571 0.40644 0.37534 0.0
C1483 C 0.85778 0.42419 0.37603 0.0
H1484 H 0.66311 0.50146 0.33844 0.0
H1485 H 0.64007 0.53583 0.38272 0.0
H1486 H 0.6339 0.47229 0.35629 0.0
H1487 H 0.61116 0.50666 0.40248 0.0
H1488 H 0.55283 0.45155 0.38128 0.0
H1489 H 0.5833 0.48164 0.37651 0.0
H1490 H 0.6139 0.45127 0.40126 0.0
H1491 H 0.58326 0.42107 0.40416 0.0
C1492 C 0.65198 0.5028 0.35283 0.0
C1493 C 0.65385 0.52097 0.35882 0.0
C1494 C 0.63519 0.48601 0.36334 0.0
C1495 C 0.61995 0.48697 0.3807 0.0
C1496 C 0.62232 0.50525 0.38842 0.0
C1497 C 0.63898 0.52203 0.37734 0.0
C1498 C 0.56607 0.45147 0.38676 0.0
C1499 C 0.56575 0.4341 0.39355 0.0
C1500 C 0.58362 0.46873 0.38397 0.0
C1501 C 0.60125 0.46902 0.38824 0.0
C1502 C 0.60073 0.45164 0.39696 0.0
C1503 C 0.58319 0.43435 0.39907 0.0
H1504 H 0.50585 0.16249 0.34243 0.0
H1505 H 0.47099 0.10446 0.38317 0.0
H1506 H 0.53481 0.16225 0.3612 0.0
H1507 H 0.49992 0.10448 0.40373 0.0
H1508 H 0.5554 0.10167 0.38351 0.0
H1509 H 0.52535 0.1021 0.378 0.0
H1510 H 0.55521 0.16256 0.40698 0.0
H1511 H 0.58538 0.16209 0.4108 0.0
C1512 C 0.50434 0.14984 0.35625 0.0
C1513 C 0.48611 0.13343 0.36096 0.0
C1514 C 0.521 0.14971 0.36727 0.0
C1515 C 0.51985 0.13327 0.38383 0.0
C1516 C 0.50148 0.11724 0.39031 0.0
C1517 C 0.48485 0.11727 0.37878 0.0
C1518 C 0.55537 0.11486 0.38984 0.0
C1519 C 0.57261 0.13177 0.39812 0.0
C1520 C 0.53813 0.11518 0.38658 0.0
C1521 C 0.53772 0.13241 0.3918 0.0
C1522 C 0.55493 0.1491 0.40195 0.0
C1523 C 0.57221 0.14883 0.40459 0.0
H1524 H 0.70338 0.56858 0.82888 0.0
H1525 H 0.67963 0.51019 0.86809 0.0
H1526 H 0.73221 0.56841 0.80813 0.0
H1527 H 0.70872 0.51026 0.84894 0.0
H1528 H 0.75927 0.51033 0.79843 0.0
H1529 H 0.72882 0.51025 0.80222 0.0
H1530 H 0.75973 0.57018 0.83485 0.0
H1531 H 0.79004 0.57024 0.82964 0.0
C1532 C 0.70426 0.55565 0.83286 0.0
C1533 C 0.68924 0.53944 0.85039 0.0
C1534 C 0.72088 0.5556 0.82119 0.0
C1535 C 0.72302 0.53942 0.82717 0.0
C1536 C 0.70759 0.52292 0.84332 0.0
C1537 C 0.69087 0.52289 0.85455 0.0
C1538 C 0.75949 0.52358 0.80549 0.0
C1539 C 0.77699 0.54037 0.81311 0.0
C1540 C 0.74205 0.52351 0.80806 0.0
C1541 C 0.74167 0.54016 0.8192 0.0
C1542 C 0.75935 0.55716 0.82552 0.0
C1543 C 0.77682 0.55727 0.8224 0.0
H1544 H 0.49914 0.17283 0.86707 0.0
H1545 H 0.44082 0.13806 0.82766 0.0
H1546 H 0.49891 0.20181 0.84841 0.0
H1547 H 0.44083 0.16702 0.80734 0.0
H1548 H 0.43856 0.22276 0.82918 0.0
H1549 H 0.43882 0.19261 0.83406 0.0
H1550 H 0.4989 0.22203 0.80228 0.0
H1551 H 0.49862 0.25231 0.79892 0.0
C1552 C 0.48642 0.17134 0.85358 0.0
C1553 C 0.46994 0.15313 0.84922 0.0
C1554 C 0.48629 0.18801 0.84263 0.0
C1555 C 0.46977 0.18689 0.82655 0.0
C1556 C 0.45366 0.16855 0.82037 0.0
C1557 C 0.4537 0.1519 0.83178 0.0
C1558 C 0.45161 0.22262 0.82208 0.0
C1559 C 0.46849 0.23977 0.81317 0.0
C1560 C 0.45183 0.20532 0.825 0.0
C1561 C 0.46894 0.20478 0.81882 0.0
C1562 C 0.48556 0.22188 0.80803 0.0
C1563 C 0.48539 0.23921 0.80569 0.0
H1564 H 0.86717 0.29887 0.85229 0.0
H1565 H 0.84002 0.33356 0.84107 0.0
H1566 H 0.83764 0.27061 0.83316 0.0
H1567 H 0.8105 0.30524 0.82025 0.0
H1568 H 0.75589 0.24703 0.84654 0.0
H1569 H 0.78578 0.27754 0.84879 0.0
H1570 H 0.8144 0.25242 0.78853 0.0
H1571 H 0.7847 0.2215 0.78849 0.0
C1572 C 0.85502 0.30059 0.8449 0.0
C1573 C 0.85593 0.31849 0.84877 0.0
C1574 C 0.83804 0.28431 0.83356 0.0
C1575 C 0.82151 0.28548 0.82539 0.0
C1576 C 0.82279 0.30366 0.82705 0.0
C1577 C 0.83977 0.31996 0.83878 0.0
C1578 C 0.76849 0.24805 0.83329 0.0
C1579 C 0.76777 0.23173 0.8172 0.0
C1580 C 0.78567 0.26568 0.83424 0.0
C1581 C 0.80266 0.26755 0.81898 0.0
C1582 C 0.80169 0.25149 0.80102 0.0
C1583 C 0.78448 0.23375 0.80037 0.0
H1584 H 0.44194 0.22077 0.29279 0.0
H1585 H 0.49743 0.24689 0.34636 0.0
H1586 H 0.44306 0.2516 0.2931 0.0
H1587 H 0.49792 0.27733 0.34917 0.0
H1588 H 0.49938 0.33339 0.34082 0.0
H1589 H 0.50037 0.30478 0.32101 0.0
H1590 H 0.43879 0.27034 0.3372 0.0
H1591 H 0.43773 0.29887 0.35518 0.0
C1592 C 0.45462 0.23311 0.30378 0.0
C1593 C 0.46971 0.23127 0.31914 0.0
C1594 C 0.45509 0.25082 0.30465 0.0
C1595 C 0.47049 0.26706 0.32149 0.0
C1596 C 0.48592 0.26535 0.33548 0.0
C1597 C 0.48554 0.24774 0.33423 0.0
C1598 C 0.48603 0.31975 0.33948 0.0
C1599 C 0.46852 0.31845 0.34992 0.0
C1600 C 0.48659 0.30329 0.32836 0.0
C1601 C 0.46969 0.28509 0.32782 0.0
C1602 C 0.4521 0.28403 0.33667 0.0
C1603 C 0.45151 0.30048 0.34733 0.0
H1604 H 0.78563 0.22167 0.2937 0.0
H1605 H 0.76156 0.25058 0.35603 0.0
H1606 H 0.7545 0.1922 0.29436 0.0
H1607 H 0.73082 0.22088 0.35875 0.0
H1608 H 0.67392 0.16721 0.34835 0.0
H1609 H 0.70265 0.19689 0.32939 0.0
H1610 H 0.73636 0.16859 0.33882 0.0
H1611 H 0.7077 0.13894 0.35625 0.0
C1612 C 0.77364 0.22196 0.3067 0.0
C1613 C 0.77612 0.23865 0.32441 0.0
C1614 C 0.75579 0.20489 0.3077 0.0
C1615 C 0.74007 0.20402 0.32685 0.0
C1616 C 0.74241 0.22095 0.34327 0.0
C1617 C 0.76016 0.238 0.34203 0.0
C1618 C 0.68741 0.16726 0.34576 0.0
C1619 C 0.68849 0.1507 0.35419 0.0
C1620 C 0.70394 0.18433 0.3351 0.0
C1621 C 0.72195 0.18528 0.33287 0.0
C1622 C 0.72278 0.16844 0.33969 0.0
C1623 C 0.70628 0.15139 0.35003 0.0
H1624 H 0.83787 0.50632 0.36035 0.0
H1625 H 0.86916 0.5671 0.33461 0.0
H1626 H 0.80778 0.50505 0.34369 0.0
H1627 H 0.83899 0.56573 0.31801 0.0
H1628 H 0.77932 0.55153 0.27164 0.0
H1629 H 0.80937 0.55088 0.27498 0.0
H1630 H 0.79106 0.51998 0.37778 0.0
H1631 H 0.76158 0.52122 0.3756 0.0
C1632 C 0.83842 0.51932 0.35043 0.0
C1633 C 0.85593 0.53687 0.34936 0.0
C1634 C 0.82115 0.5186 0.34104 0.0
C1635 C 0.82102 0.53535 0.33 0.0
C1636 C 0.83865 0.55258 0.32631 0.0
C1637 C 0.85592 0.55336 0.33604 0.0
C1638 C 0.78172 0.54497 0.29539 0.0
C1639 C 0.76796 0.53689 0.32381 0.0
C1640 C 0.79893 0.54438 0.29699 0.0
C1641 C 0.80252 0.53529 0.32654 0.0
C1642 C 0.78861 0.52683 0.35433 0.0
C1643 C 0.77167 0.52766 0.35305 0.0
H1644 H 0.58432 0.16591 0.91014 0.0
H1645 H 0.55385 0.10517 0.88535 0.0
H1646 H 0.61494 0.16626 0.90698 0.0
H1647 H 0.58427 0.10545 0.88091 0.0
H1648 H 0.64057 0.10749 0.88803 0.0
H1649 H 0.61202 0.10827 0.90847 0.0
H1650 H 0.63482 0.16501 0.86095 0.0
H1651 H 0.6637 0.16451 0.84209 0.0
C1652 C 0.58421 0.15256 0.90469 0.0
C1653 C 0.56674 0.13544 0.89876 0.0
C1654 C 0.60174 0.15277 0.90249 0.0
C1655 C 0.60221 0.13592 0.89345 0.0
C1656 C 0.58458 0.11864 0.88871 0.0
C1657 C 0.56705 0.11841 0.89142 0.0
C1658 C 0.63961 0.12026 0.88252 0.0
C1659 C 0.65434 0.13588 0.86316 0.0
C1660 C 0.62315 0.12066 0.89401 0.0
C1661 C 0.62087 0.13657 0.88596 0.0
C1662 C 0.63606 0.15257 0.86811 0.0
C1663 C 0.65266 0.15228 0.85708 0.0
H1664 H 0.84322 0.42031 0.90815 0.0
H1665 H 0.9041 0.45104 0.88479 0.0
H1666 H 0.8426 0.45042 0.90554 0.0
H1667 H 0.90355 0.48106 0.88039 0.0
H1668 H 0.90082 0.53506 0.88586 0.0
H1669 H 0.90053 0.50601 0.90644 0.0
H1670 H 0.84349 0.47139 0.86054 0.0
H1671 H 0.84348 0.50046 0.84181 0.0
C1672 C 0.85654 0.43363 0.90306 0.0
C1673 C 0.87376 0.43345 0.89729 0.0
C1674 C 0.85618 0.45088 0.90112 0.0
C1675 C 0.87298 0.4683 0.89236 0.0
C1676 C 0.89037 0.4681 0.8879 0.0
C1677 C 0.89076 0.45088 0.8905 0.0
C1678 C 0.88808 0.52123 0.88079 0.0
C1679 C 0.87222 0.52008 0.86198 0.0
C1680 C 0.88797 0.50452 0.89232 0.0
C1681 C 0.87211 0.4862 0.88479 0.0
C1682 C 0.8559 0.48515 0.86739 0.0
C1683 C 0.8559 0.50188 0.85641 0.0
H1684 H 0.55764 0.45583 0.88584 0.0
H1685 H 0.58742 0.42524 0.91343 0.0
H1686 H 0.52755 0.42544 0.88032 0.0
H1687 H 0.55719 0.39466 0.90945 0.0
H1688 H 0.50789 0.34579 0.8434 0.0
H1689 H 0.53687 0.37474 0.86311 0.0
H1690 H 0.50205 0.39766 0.90618 0.0
H1691 H 0.47313 0.36903 0.88476 0.0
C1692 C 0.55756 0.4426 0.89228 0.0
C1693 C 0.57475 0.44286 0.90066 0.0
C1694 C 0.54029 0.42509 0.88899 0.0
C1695 C 0.53982 0.40743 0.89423 0.0
C1696 C 0.55698 0.40787 0.90446 0.0
C1697 C 0.57428 0.42538 0.90718 0.0
C1698 C 0.5064 0.35688 0.85757 0.0
C1699 C 0.4882 0.35517 0.86213 0.0
C1700 C 0.52307 0.37352 0.86911 0.0
C1701 C 0.52194 0.38877 0.88603 0.0
C1702 C 0.5036 0.3865 0.89249 0.0
C1703 C 0.48696 0.36998 0.88044 0.0
H1704 H 0.50916 0.67404 0.68021 0.0
H1705 H 0.56943 0.70241 0.70984 0.0
H1706 H 0.50824 0.70314 0.6963 0.0
H1707 H 0.56841 0.73148 0.72583 0.0
H1708 H 0.55442 0.77743 0.77087 0.0
H1709 H 0.55337 0.74651 0.76758 0.0
H1710 H 0.52424 0.73496 0.66296 0.0
H1711 H 0.52588 0.7659 0.6652 0.0
C1712 C 0.52211 0.68631 0.69086 0.0
C1713 C 0.53944 0.68596 0.69321 0.0
C1714 C 0.52159 0.70301 0.69991 0.0
C1715 C 0.53832 0.71965 0.71186 0.0
C1716 C 0.55529 0.71886 0.71679 0.0
C1717 C 0.55587 0.70222 0.70742 0.0
C1718 C 0.54818 0.76862 0.74675 0.0
C1719 C 0.54067 0.77461 0.71789 0.0
C1720 C 0.54735 0.75072 0.74516 0.0
C1721 C 0.53861 0.73827 0.71513 0.0
C1722 C 0.53079 0.74407 0.68677 0.0
C1723 C 0.53185 0.76195 0.68808 0.0
H1724 H 0.33683 0.84217 0.70198 0.0
H1725 H 0.30224 0.86861 0.68057 0.0
H1726 H 0.30803 0.81277 0.72166 0.0
H1727 H 0.27352 0.83916 0.69839 0.0
H1728 H 0.22369 0.78706 0.7443 0.0
H1729 H 0.25427 0.81694 0.74302 0.0
H1730 H 0.28114 0.78715 0.69352 0.0
H1731 H 0.25092 0.75704 0.69751 0.0
C1732 C 0.32312 0.84177 0.7017 0.0
C1733 C 0.32187 0.85773 0.68942 0.0
C1734 C 0.30655 0.82485 0.71274 0.0
C1735 C 0.2883 0.8234 0.7113 0.0
C1736 C 0.28725 0.83969 0.70048 0.0
C1737 C 0.3038 0.85664 0.68993 0.0
C1738 C 0.2362 0.78663 0.73457 0.0
C1739 C 0.23476 0.76943 0.72152 0.0
C1740 C 0.25378 0.80396 0.73311 0.0
C1741 C 0.27029 0.80463 0.71789 0.0
C1742 C 0.26893 0.7873 0.70597 0.0
C1743 C 0.25146 0.76998 0.70787 0.0
H1744 H 0.22245 0.43754 0.72221 0.0
H1745 H 0.25402 0.49887 0.74063 0.0
H1746 H 0.19257 0.43836 0.71828 0.0
H1747 H 0.22405 0.49979 0.73849 0.0
H1748 H 0.17324 0.49803 0.6758 0.0
H1749 H 0.20247 0.49821 0.69421 0.0
H1750 H 0.16817 0.44219 0.74442 0.0
H1751 H 0.13897 0.44166 0.72413 0.0
C1752 C 0.22285 0.45108 0.72696 0.0
C1753 C 0.24046 0.46809 0.73222 0.0
C1754 C 0.20569 0.45162 0.72462 0.0
C1755 C 0.20575 0.46919 0.72783 0.0
C1756 C 0.22338 0.48605 0.73506 0.0
C1757 C 0.24055 0.48553 0.73673 0.0
C1758 C 0.17195 0.4859 0.69131 0.0
C1759 C 0.15379 0.46976 0.69815 0.0
C1760 C 0.18877 0.48601 0.70209 0.0
C1761 C 0.18784 0.47009 0.72056 0.0
C1762 C 0.16956 0.45449 0.72943 0.0
C1763 C 0.15277 0.45425 0.71808 0.0
H1764 H 0.42683 0.84149 0.13361 0.0
H1765 H 0.45657 0.90245 0.15605 0.0
H1766 H 0.39598 0.84067 0.13579 0.0
H1767 H 0.42589 0.9017 0.15998 0.0
H1768 H 0.36905 0.89862 0.15445 0.0
H1769 H 0.39785 0.89839 0.13374 0.0
H1770 H 0.37579 0.8416 0.18065 0.0
H1771 H 0.34668 0.84153 0.19952 0.0
C1772 C 0.42672 0.85478 0.13838 0.0
C1773 C 0.44403 0.87208 0.14404 0.0
C1774 C 0.40905 0.85431 0.14007 0.0
C1775 C 0.40827 0.87107 0.14846 0.0
C1776 C 0.42577 0.88854 0.15275 0.0
C1777 C 0.44345 0.88904 0.15042 0.0
C1778 C 0.37022 0.88594 0.15968 0.0
C1779 C 0.35561 0.87014 0.17886 0.0
C1780 C 0.38684 0.88586 0.14808 0.0
C1781 C 0.38944 0.8701 0.1559 0.0
C1782 C 0.37435 0.85393 0.17358 0.0
C1783 C 0.3576 0.8539 0.18464 0.0
H1784 H 0.16705 0.58572 0.13892 0.0
H1785 H 0.10635 0.55514 0.16412 0.0
H1786 H 0.16766 0.55559 0.14187 0.0
H1787 H 0.1069 0.52515 0.16853 0.0
H1788 H 0.10927 0.47109 0.16159 0.0
H1789 H 0.10977 0.50026 0.14117 0.0
H1790 H 0.16678 0.53457 0.1873 0.0
H1791 H 0.16657 0.50536 0.20601 0.0
C1792 C 0.15377 0.57244 0.1445 0.0
C1793 C 0.13659 0.57265 0.1506 0.0
C1794 C 0.15412 0.55519 0.14658 0.0
C1795 C 0.13736 0.53782 0.15569 0.0
C1796 C 0.12003 0.53806 0.16066 0.0
C1797 C 0.11965 0.55528 0.15802 0.0
C1798 C 0.12204 0.48487 0.16676 0.0
C1799 C 0.13782 0.48591 0.18569 0.0
C1800 C 0.12228 0.50164 0.1553 0.0
C1801 C 0.13818 0.5199 0.16301 0.0
C1802 C 0.15434 0.52084 0.1804 0.0
C1803 C 0.15422 0.50405 0.19134 0.0
H1804 H 0.45398 0.55224 0.1594 0.0
H1805 H 0.4225 0.58207 0.14065 0.0
H1806 H 0.48389 0.58291 0.1633 0.0
H1807 H 0.45251 0.61292 0.14278 0.0
H1808 H 0.50332 0.66198 0.20534 0.0
H1809 H 0.47407 0.6329 0.18718 0.0
H1810 H 0.50829 0.61104 0.13684 0.0
H1811 H 0.53753 0.63976 0.15685 0.0
C1812 C 0.45361 0.56539 0.15459 0.0
C1813 C 0.43602 0.56483 0.14923 0.0
C1814 C 0.47078 0.58306 0.1569 0.0
C1815 C 0.47075 0.60058 0.15358 0.0
C1816 C 0.45314 0.59984 0.14629 0.0
C1817 C 0.43595 0.58218 0.14464 0.0
C1818 C 0.50459 0.6511 0.18988 0.0
C1819 C 0.52275 0.6531 0.18291 0.0
C1820 C 0.48777 0.63438 0.17924 0.0
C1821 C 0.48867 0.61936 0.16077 0.0
C1822 C 0.50693 0.62198 0.15181 0.0
C1823 C 0.52374 0.63856 0.16302 0.0
H1824 H 0.16534 0.66763 0.677 0.0
H1825 H 0.10454 0.63393 0.7017 0.0
H1826 H 0.16521 0.63849 0.65712 0.0
H1827 H 0.10455 0.60483 0.68296 0.0
H1828 H 0.10647 0.55474 0.63363 0.0
H1829 H 0.10747 0.58565 0.63554 0.0
H1830 H 0.16322 0.61136 0.68816 0.0
H1831 H 0.16256 0.58079 0.68468 0.0
C1832 C 0.15191 0.65406 0.6779 0.0
C1833 C 0.13501 0.65315 0.69135 0.0
C1834 C 0.15185 0.6373 0.66666 0.0
C1835 C 0.13491 0.61921 0.66877 0.0
C1836 C 0.11782 0.61847 0.68052 0.0
C1837 C 0.11786 0.63522 0.69156 0.0
C1838 C 0.11924 0.56712 0.64432 0.0
C1839 C 0.13454 0.5653 0.65862 0.0
C1840 C 0.11969 0.58482 0.646 0.0
C1841 C 0.13539 0.60106 0.66217 0.0
C1842 C 0.151 0.59933 0.67503 0.0
C1843 C 0.15055 0.58171 0.67332 0.0
H1844 H 0.36751 0.47091 0.65618 0.0
H1845 H 0.34654 0.50631 0.70406 0.0
H1846 H 0.39636 0.49967 0.6349 0.0
H1847 H 0.37576 0.53511 0.68462 0.0
H1848 H 0.42684 0.58577 0.63671 0.0
H1849 H 0.39571 0.55611 0.63943 0.0
H1850 H 0.42486 0.52393 0.66044 0.0
H1851 H 0.45581 0.5535 0.65593 0.0
C1852 C 0.36901 0.48487 0.66193 0.0
C1853 C 0.35479 0.48633 0.68203 0.0
C1854 C 0.38566 0.5014 0.64999 0.0
C1855 C 0.38868 0.51986 0.65842 0.0
C1856 C 0.37397 0.52124 0.67707 0.0
C1857 C 0.35717 0.50468 0.68844 0.0
C1858 C 0.42648 0.57221 0.64088 0.0
C1859 C 0.44367 0.57183 0.64551 0.0
C1860 C 0.40866 0.55522 0.64289 0.0
C1861 C 0.4076 0.5375 0.65058 0.0
C1862 C 0.42496 0.53713 0.65379 0.0
C1863 C 0.44279 0.55411 0.65111 0.0
H1864 H 0.4483 0.8877 0.60631 0.0
H1865 H 0.43002 0.85776 0.71053 0.0
H1866 H 0.47839 0.88712 0.61072 0.0
H1867 H 0.45955 0.85658 0.71382 0.0
H1868 H 0.50582 0.84187 0.69607 0.0
H1869 H 0.47596 0.84116 0.67976 0.0
H1870 H 0.50792 0.90187 0.65446 0.0
H1871 H 0.53788 0.90269 0.67077 0.0
C1872 C 0.45064 0.88126 0.63036 0.0
C1873 C 0.4367 0.87319 0.65847 0.0
C1874 C 0.46785 0.88072 0.63259 0.0
C1875 C 0.47126 0.8717 0.6625 0.0
C1876 C 0.45723 0.86337 0.69013 0.0
C1877 C 0.44027 0.86414 0.68821 0.0
C1878 C 0.50657 0.85501 0.68638 0.0
C1879 C 0.52424 0.8724 0.68523 0.0
C1880 C 0.48944 0.8546 0.67718 0.0
C1881 C 0.48961 0.87151 0.66626 0.0
C1882 C 0.50737 0.88861 0.66268 0.0
C1883 C 0.52451 0.88908 0.67222 0.0
H1884 H 0.33605 0.49827 0.20424 0.0
H1885 H 0.30158 0.43651 0.19145 0.0
H1886 H 0.30759 0.49924 0.22517 0.0
H1887 H 0.27319 0.43756 0.21057 0.0
H1888 H 0.22382 0.44075 0.25575 0.0
H1889 H 0.25477 0.44208 0.25521 0.0
H1890 H 0.2799 0.49644 0.19738 0.0
H1891 H 0.24936 0.49575 0.20034 0.0
C1892 C 0.32247 0.48489 0.20618 0.0
C1893 C 0.32111 0.46735 0.19578 0.0
C1894 C 0.30609 0.48544 0.21796 0.0
C1895 C 0.28793 0.46851 0.21922 0.0
C1896 C 0.28686 0.45089 0.21053 0.0
C1897 C 0.30322 0.45031 0.19919 0.0
C1898 C 0.23607 0.45337 0.24431 0.0
C1899 C 0.23404 0.46824 0.22843 0.0
C1900 C 0.25384 0.45397 0.24334 0.0
C1901 C 0.26993 0.46928 0.22591 0.0
C1902 C 0.26803 0.48452 0.21151 0.0
C1903 C 0.25037 0.48402 0.21285 0.0
H1904 H 0.51172 0.83457 0.17565 0.0
H1905 H 0.569 0.8695 0.21978 0.0
H1906 H 0.51189 0.80562 0.19474 0.0
H1907 H 0.56887 0.84056 0.24067 0.0
H1908 H 0.57269 0.78567 0.21918 0.0
H1909 H 0.57202 0.81562 0.21472 0.0
H1910 H 0.51111 0.78485 0.24014 0.0
H1911 H 0.51184 0.7548 0.24285 0.0
C1912 C 0.52416 0.83609 0.19034 0.0
C1913 C 0.54042 0.85434 0.19582 0.0
C1914 C 0.52425 0.81943 0.20153 0.0
C1915 C 0.54049 0.82061 0.21905 0.0
C1916 C 0.55628 0.83899 0.22649 0.0
C1917 C 0.55631 0.85562 0.21477 0.0
C1918 C 0.55933 0.78546 0.22496 0.0
C1919 C 0.54238 0.76801 0.23183 0.0
C1920 C 0.55888 0.80265 0.22232 0.0
C1921 C 0.54145 0.80278 0.22679 0.0
C1922 C 0.52471 0.78535 0.2357 0.0
C1923 C 0.52513 0.76814 0.23769 0.0
H1924 H 0.25126 0.75751 0.24862 0.0
H1925 H 0.22375 0.78874 0.21062 0.0
H1926 H 0.22063 0.72736 0.24492 0.0
H1927 H 0.19328 0.75867 0.20492 0.0
H1928 H 0.1378 0.70267 0.20879 0.0
H1929 H 0.16651 0.73175 0.22967 0.0
H1930 H 0.20138 0.7066 0.19914 0.0
H1931 H 0.17266 0.67734 0.18022 0.0
C1932 C 0.23851 0.75788 0.24002 0.0
C1933 C 0.23973 0.7754 0.23044 0.0
C1934 C 0.22098 0.7406 0.23743 0.0
C1935 C 0.20437 0.74039 0.22412 0.0
C1936 C 0.20556 0.75814 0.21588 0.0
C1937 C 0.22304 0.77546 0.21918 0.0
C1938 C 0.15159 0.70328 0.20712 0.0
C1939 C 0.15293 0.6877 0.19267 0.0
C1940 C 0.16812 0.72003 0.21884 0.0
C1941 C 0.18644 0.72176 0.21589 0.0
C1942 C 0.1876 0.70585 0.20256 0.0
C1943 C 0.17107 0.68901 0.19141 0.0
H1944 H 0.24875 0.23933 0.18171 0.0
H1945 H 0.20799 0.17846 0.1911 0.0
H1946 H 0.2416 0.24437 0.24402 0.0
H1947 H 0.20105 0.18356 0.25492 0.0
H1948 H 0.18087 0.20649 0.35616 0.0
H1949 H 0.18607 0.19945 0.2925 0.0
H1950 H 0.24724 0.23775 0.30539 0.0
H1951 H 0.24214 0.24502 0.36757 0.0
C1952 C 0.23836 0.22689 0.19722 0.0
C1953 C 0.22903 0.20843 0.18116 0.0
C1954 C 0.23429 0.22982 0.23323 0.0
C1955 C 0.22077 0.2144 0.25477 0.0
C1956 C 0.21144 0.19581 0.23903 0.0
C1957 C 0.21559 0.19283 0.20264 0.0
C1958 C 0.19537 0.21356 0.34512 0.0
C1959 C 0.21104 0.22644 0.36711 0.0
C1960 C 0.19838 0.20934 0.30881 0.0
C1961 C 0.21709 0.21804 0.29365 0.0
C1962 C 0.23261 0.23096 0.31572 0.0
C1963 C 0.22964 0.2351 0.35166 0.0
H1964 H 0.82758 0.01591 0.17586 0.0
H1965 H 0.78415 0.03165 0.19504 0.0
H1966 H 0.82208 1.00191 0.23773 0.0
H1967 H 0.77941 0.01894 0.2572 0.0
H1968 H 0.75671 0.97697 0.34843 0.0
H1969 H 0.76441 0.98967 0.28623 0.0
H1970 H 0.82361 0.00414 0.30241 0.0
H1971 H 0.81533 0.99014 0.36431 0.0
C1972 C 0.81735 0.01697 0.19382 0.0
C1973 C 0.80631 0.02489 0.18068 0.0
C1974 C 0.81408 0.00885 0.22931 0.0
C1975 C 0.79988 0.00872 0.25256 0.0
C1976 C 0.78991 0.01795 0.23994 0.0
C1977 C 0.79286 0.02562 0.20442 0.0
C1978 C 0.77126 0.98244 0.33832 0.0
C1979 C 0.78537 0.98246 0.36116 0.0
C1980 C 0.77583 0.9901 0.30277 0.0
C1981 C 0.79485 0.99862 0.28923 0.0
C1982 C 0.80881 0.99776 0.31156 0.0
C1983 C 0.80408 0.98965 0.34706 0.0
H1984 H 1.00106 0.76334 0.17835 0.0
H1985 H 0.97846 0.80215 0.18721 0.0
H1986 H 0.01295 0.77089 0.24058 0.0
H1987 H 0.99021 0.80943 0.2512 0.0
H1988 H 0.03265 0.82955 0.3548 0.0
H1989 H 0.02111 0.82503 0.29063 0.0
H1990 H 0.99896 0.76385 0.3009 0.0
H1991 H 0.01062 0.76826 0.36324 0.0
C1992 C 0.99841 0.77341 0.19367 0.0
C1993 C 0.98859 0.782 0.1775 0.0
C1994 C 0.00526 0.77771 0.22967 0.0
C1995 C 1.00248 0.79069 0.25121 0.0
C1996 C 0.99272 0.79945 0.2353 0.0
C1997 C 0.98577 0.7951 0.19882 0.0
C1998 C 0.02553 0.81521 0.34306 0.0
C1999 C 0.02278 0.79933 0.36433 0.0
C2000 C 0.01871 0.81258 0.30647 0.0
C2001 C 0.00916 0.79407 0.29043 0.0
C2002 C 0.00649 0.77836 0.3119 0.0
C2003 C 0.01321 0.78093 0.34799 0.0
H2004 H 0.7793 0.78973 0.67198 0.0
H2005 H 0.82953 0.78544 0.69856 0.0
H2006 H 0.777 0.79785 0.73565 0.0
H2007 H 0.82694 0.7933 0.76308 0.0
H2008 H 0.79374 0.77795 0.87721 0.0
H2009 H 0.80141 0.77523 0.81343 0.0
H2010 H 0.79526 0.82411 0.78476 0.0
H2011 H 0.78785 0.82713 0.84941 0.0
C2012 C 0.78991 0.79054 0.69143 0.0
C2013 C 0.80451 0.78672 0.68013 0.0
C2014 C 0.78867 0.79541 0.72792 0.0
C2015 C 0.80179 0.79628 0.75445 0.0
C2016 C 0.81659 0.79272 0.74324 0.0
C2017 C 0.81809 0.78822 0.70634 0.0
C2018 C 0.79414 0.78826 0.85746 0.0
C2019 C 0.78999 0.80268 0.86844 0.0
C2020 C 0.79873 0.78678 0.8209 0.0
C2021 C 0.79899 0.79944 0.79399 0.0
C2022 C 0.79514 0.8141 0.8049 0.0
C2023 C 0.79093 0.81586 0.84187 0.0
H2024 H 0.21971 0.99122 0.67153 0.0
H2025 H 0.22283 0.04519 0.69854 0.0
H2026 H 0.21169 0.9807 0.73513 0.0
H2027 H 0.21511 0.03466 0.76306 0.0
H2028 H 0.23103 0.01694 0.87695 0.0
H2029 H 0.23359 0.02746 0.81333 0.0
H2030 H 0.1851 0.97225 0.78422 0.0
H2031 H 0.18223 0.9617 0.84873 0.0
C2032 C 0.21868 1.00089 0.69108 0.0
C2033 C 0.22212 0.01918 0.6799 0.0
C2034 C 0.21387 0.99472 0.72753 0.0
C2035 C 0.21269 0.00677 0.75418 0.0
C2036 C 0.21592 0.02503 0.74311 0.0
C2037 C 0.22033 0.03107 0.70622 0.0
C2038 C 0.22076 0.00701 0.85714 0.0
C2039 C 0.20651 0.98836 0.86796 0.0
C2040 C 0.22216 0.01316 0.82067 0.0
C2041 C 0.20957 1.00074 0.79368 0.0
C2042 C 0.19506 0.98216 0.80444 0.0
C2043 C 0.19337 0.97611 0.84132 0.0
H2044 H 0.98264 0.22977 0.69358 0.0
H2045 H 0.99172 0.18149 0.67943 0.0
H2046 H 0.99559 0.23473 0.7555 0.0
H2047 H 0.006 0.18711 0.74099 0.0
H2048 H 0.01796 0.19507 0.86721 0.0
H2049 H 1.00411 0.18706 0.80526 0.0
H2050 H 0.02445 0.24743 0.78528 0.0
H2051 H 0.03694 0.25495 0.84766 0.0
C2052 C 0.98731 0.2201 0.70396 0.0
C2053 C 0.98606 0.2052 0.68168 0.0
C2054 C 0.99512 0.22314 0.73937 0.0
C2055 C 1.00253 0.21174 0.75337 0.0
C2056 C 1.0005 0.19623 0.73154 0.0
C2057 C 0.99222 0.19292 0.6962 0.0
C2058 C 0.01979 0.20661 0.84911 0.0
C2059 C 0.02859 0.22565 0.86219 0.0
C2060 C 0.01176 0.20204 0.81355 0.0
C2061 C 0.01259 0.21647 0.7901 0.0
C2062 C 0.02271 0.2357 0.80265 0.0
C2063 C 0.03027 0.24015 0.8383 0.0
H2064 H 0.89073 0.51318 0.53015 0.0
H2065 H 0.884 0.56187 0.50241 0.0
H2066 H 0.88355 0.51626 0.59494 0.0
H2067 H 0.87653 0.56462 0.56634 0.0
H2068 H 0.84831 0.55362 0.68158 0.0
H2069 H 0.85102 0.54596 0.61698 0.0
H2070 H 0.90194 0.54308 0.64374 0.0
H2071 H 0.89954 0.55103 0.70751 0.0
C2072 C 0.88752 0.52435 0.53774 0.0
C2073 C 0.88814 0.53738 0.51114 0.0
C2074 C 0.88344 0.52615 0.57478 0.0
C2075 C 0.87941 0.54067 0.58573 0.0
C2076 C 0.87936 0.55318 0.55882 0.0
C2077 C 0.88384 0.55168 0.52219 0.0
C2078 C 0.86001 0.55127 0.67364 0.0
C2079 C 0.8738 0.55316 0.6997 0.0
C2080 C 0.86157 0.54689 0.6367 0.0
C2081 C 0.87666 0.54382 0.6253 0.0
C2082 C 0.89005 0.54513 0.65164 0.0
C2083 C 0.88874 0.5499 0.68818 0.0
H2084 H 0.44508 0.32424 0.50302 0.0
H2085 H 0.49492 0.37911 0.52917 0.0
H2086 H 0.44267 0.31424 0.56696 0.0
H2087 H 0.49217 0.36912 0.59406 0.0
H2088 H 0.45779 0.35118 0.70764 0.0
H2089 H 0.46559 0.36136 0.64377 0.0
H2090 H 0.46167 0.30709 0.6167 0.0
H2091 H 0.45421 0.29691 0.68139 0.0
C2092 C 0.45558 0.3342 0.52246 0.0
C2093 C 0.47011 0.35259 0.51098 0.0
C2094 C 0.45427 0.32835 0.5591 0.0
C2095 C 0.46722 0.34083 0.58558 0.0
C2096 C 0.48196 0.35918 0.57421 0.0
C2097 C 0.48356 0.3649 0.53713 0.0
C2098 C 0.45867 0.34138 0.68821 0.0
C2099 C 0.45517 0.3231 0.69965 0.0
C2100 C 0.46335 0.34735 0.65163 0.0
C2101 C 0.46431 0.33509 0.62518 0.0
C2102 C 0.46103 0.31686 0.63652 0.0
C2103 C 0.45675 0.31102 0.6735 0.0
H2104 H 0.67213 0.09977 0.70265 0.0
H2105 H 0.69849 0.16136 0.68856 0.0
H2106 H 0.66024 0.09472 0.64026 0.0
H2107 H 0.6867 0.15616 0.62461 0.0
H2108 H 0.64466 0.1351 0.52183 0.0
H2109 H 0.65603 0.14217 0.58599 0.0
H2110 H 0.67346 0.09924 0.57945 0.0
H2111 H 0.66195 0.09201 0.51675 0.0
C2112 C 0.67557 0.11234 0.68616 0.0
C2113 C 0.68643 0.13104 0.7009 0.0
C2114 C 0.66874 0.1094 0.65008 0.0
C2115 C 0.67254 0.125 0.62713 0.0
C2116 C 0.68337 0.14379 0.64162 0.0
C2117 C 0.69032 0.14679 0.6781 0.0
C2118 C 0.65066 0.12701 0.5344 0.0
C2119 C 0.65224 0.11288 0.51404 0.0
C2120 C 0.65741 0.13124 0.57098 0.0
C2121 C 0.66567 0.12127 0.58803 0.0
C2122 C 0.66698 0.10706 0.56761 0.0
C2123 C 0.66038 0.10293 0.53139 0.0
H2124 H 0.47053 0.16233 0.1903 0.0
H2125 H 0.43097 0.10107 0.19769 0.0
H2126 H 0.47734 0.15819 0.12579 0.0
H2127 H 0.43791 0.09703 0.13459 0.0
H2128 H 0.43588 0.09828 1.01118 0.0
H2129 H 0.43128 0.10488 0.07416 0.0
H2130 H 0.49258 0.14264 0.08619 0.0
H2131 H 0.49732 0.13622 1.02178 0.0
C2132 C 0.46319 0.14806 0.17822 0.0
C2133 C 0.45009 0.13208 0.19931 0.0
C2134 C 0.46726 0.14566 0.14142 0.0
C2135 C 0.45815 0.12727 0.12488 0.0
C2136 C 0.44504 0.11144 0.14608 0.0
C2137 C 0.44108 0.11379 0.18253 0.0
C2138 C 0.44852 0.10797 0.02701 0.0
C2139 C 0.46703 0.11661 1.01117 0.0
C2140 C 0.44583 0.11172 0.0634 0.0
C2141 C 0.46154 0.12424 0.08549 0.0
C2142 C 0.48014 0.13302 0.06986 0.0
C2143 C 0.48288 0.12917 0.03311 0.0
H2144 H 0.88617 0.32322 1.00406 0.0
H2145 H 0.88684 0.37621 0.02944 0.0
H2146 H 0.87779 0.31269 0.06757 0.0
H2147 H 0.87876 0.36567 0.09387 0.0
H2148 H 0.89521 0.34924 0.20875 0.0
H2149 H 0.89765 0.35954 0.14499 0.0
H2150 H 0.85054 0.30347 0.1158 0.0
H2151 H 0.84777 0.29315 0.18049 0.0
C2152 C 0.88452 0.33267 0.02322 0.0
C2153 C 0.88739 0.3507 1.01163 0.0
C2154 C 0.87949 0.32648 0.05961 0.0
C2155 C 0.87753 0.33827 0.08577 0.0
C2156 C 0.88017 0.35625 0.07428 0.0
C2157 C 0.88481 0.3623 0.03745 0.0
C2158 C 0.8852 0.33909 0.18887 0.0
C2159 C 0.87139 0.32027 0.19968 0.0
C2160 C 0.88652 0.3451 0.15234 0.0
C2161 C 0.87431 0.33236 0.1253 0.0
C2162 C 0.86018 0.31361 0.13607 0.0
C2163 C 0.85856 0.3077 0.17304 0.0
H2164 H 0.64515 0.51236 0.02364 0.0
H2165 H 0.67002 0.57394 1.01217 0.0
H2166 H 0.6569 0.51711 0.08754 0.0
H2167 H 0.68187 0.57856 0.07459 0.0
H2168 H 0.67992 0.57961 0.19837 0.0
H2169 H 0.66857 0.57297 0.13552 0.0
H2170 H 0.68757 0.53134 0.12603 0.0
H2171 H 0.6988 0.5378 0.19032 0.0
C2172 C 0.65297 0.52684 0.03468 0.0
C2173 C 0.65646 0.54271 1.01264 0.0
C2174 C 0.65991 0.52958 0.07113 0.0
C2175 C 0.67032 0.54824 0.08636 0.0
C2176 C 0.67371 0.56398 0.06417 0.0
C2177 C 0.66689 0.56128 0.02809 0.0
C2178 C 0.68187 0.5691 0.18305 0.0
C2179 C 0.6904 0.55932 0.1996 0.0
C2180 C 0.67536 0.56532 0.14675 0.0
C2181 C 0.67715 0.55164 0.12547 0.0
C2182 C 0.68581 0.54186 0.14172 0.0
C2183 C 0.69247 0.54574 0.17838 0.0
H2184 H 0.56786 0.88486 0.04147 0.0
H2185 H 0.51646 0.88687 1.01417 0.0
H2186 H 0.57072 0.87702 0.97781 0.0
H2187 H 0.51964 0.87935 0.94974 0.0
H2188 H 0.55326 0.8959 0.83607 0.0
H2189 H 0.54557 0.89849 0.89991 0.0
H2190 H 0.55264 0.85014 0.92843 0.0
H2191 H 0.56 0.84721 0.86364 0.0
C2192 C 0.55712 0.88362 1.02186 0.0
C2193 C 0.542 0.88669 0.03295 0.0
C2194 C 0.55869 0.87892 0.9854 0.0
C2195 C 0.5454 0.8775 0.95873 0.0
C2196 C 0.53012 0.88036 0.96972 0.0
C2197 C 0.52829 0.88467 1.00656 0.0
C2198 C 0.55308 0.88569 0.85581 0.0
C2199 C 0.55743 0.87143 0.84473 0.0
C2200 C 0.54849 0.8871 0.89239 0.0
C2201 C 0.54844 0.87452 0.91924 0.0
C2202 C 0.55258 0.86006 0.90829 0.0
C2203 C 0.55677 0.85836 0.87127 0.0
H2204 H 0.14794 0.65547 0.03395 0.0
H2205 H 0.09137 0.64838 1.01973 0.0
H2206 H 0.15707 0.66974 0.97233 0.0
H2207 H 0.09987 0.66148 0.95797 0.0
H2208 H 0.1224 0.70341 0.86722 0.0
H2209 H 0.11743 0.69094 0.92964 0.0
H2210 H 0.15457 0.66735 0.9073 0.0
H2211 H 0.16039 0.68106 0.84512 0.0
C2212 C 0.13729 0.65643 1.01721 0.0
C2213 C 0.11895 0.65085 0.03172 0.0
C2214 C 0.14252 0.6647 0.98187 0.0
C2215 C 0.12943 0.66735 0.96015 0.0
C2216 C 0.11069 0.6605 0.97409 0.0
C2217 C 0.10564 0.65265 1.00942 0.0
C2218 C 0.12995 0.69606 0.87607 0.0
C2219 C 0.14191 0.69338 0.85144 0.0
C2220 C 0.12682 0.68852 0.91172 0.0
C2221 C 0.13506 0.67749 0.92356 0.0
C2222 C 0.14793 0.67572 0.89945 0.0
C2223 C 0.15139 0.68367 0.86381 0.0
H2224 H 0.38041 0.4939 1.01479 0.0
H2225 H 0.32593 0.44364 0.04148 0.0
H2226 H 0.37006 0.49122 0.95017 0.0
H2227 H 0.31559 0.44128 0.9778 0.0
H2228 H 0.29734 0.45268 0.8643 0.0
H2229 H 0.30786 0.46012 0.92882 0.0
H2230 H 0.36236 0.46497 0.89997 0.0
H2231 H 0.35185 0.45722 0.83625 0.0
C2232 C 0.36621 0.48246 1.00701 0.0
C2233 C 0.35412 0.46888 0.03324 0.0
C2234 C 0.36028 0.48089 0.97008 0.0
C2235 C 0.34195 0.46606 0.95893 0.0
C2236 C 0.32968 0.45297 0.9855 0.0
C2237 C 0.33574 0.45425 1.02198 0.0
C2238 C 0.31158 0.45544 0.87177 0.0
C2239 C 0.32363 0.45413 0.84516 0.0
C2240 C 0.31761 0.45969 0.90865 0.0
C2241 C 0.33599 0.46321 0.91945 0.0
C2242 C 0.34822 0.46255 0.89254 0.0
C2243 C 0.34207 0.4579 0.85605 0.0
H2244 H 0.11095 0.45549 0.33963 0.0
H2245 H 0.16197 0.45266 0.36633 0.0
H2246 H 0.10842 0.46353 0.40324 0.0
H2247 H 0.15914 0.46042 0.43081 0.0
H2248 H 0.12602 0.4448 0.54511 0.0
H2249 H 0.13372 0.44204 0.48136 0.0
H2250 H 0.12641 0.49015 0.45206 0.0
H2251 H 0.11898 0.49322 0.51668 0.0
C2252 C 0.12168 0.45659 0.3591 0.0
C2253 C 0.13659 0.45323 0.34783 0.0
C2254 C 0.1203 0.46141 0.39556 0.0
C2255 C 0.13358 0.46268 0.4221 0.0
C2256 C 0.14866 0.45953 0.41095 0.0
C2257 C 0.1503 0.45509 0.37407 0.0
C2258 C 0.12616 0.45493 0.52522 0.0
C2259 C 0.12169 0.46914 0.53603 0.0
C2260 C 0.13077 0.45342 0.48867 0.0
C2261 C 0.13072 0.46586 0.46161 0.0
C2262 C 0.12653 0.48031 0.47233 0.0
C2263 C 0.12231 0.4821 0.50928 0.0
H2264 H 0.55336 0.65657 0.33513 0.0
H2265 H 0.55845 0.71124 0.36379 0.0
H2266 H 0.54587 0.64605 0.39888 0.0
H2267 H 0.55128 0.7007 0.42837 0.0
H2268 H 0.56706 0.68195 0.54105 0.0
H2269 H 0.56987 0.69251 0.47738 0.0
H2270 H 0.51964 0.63847 0.44891 0.0
H2271 H 0.5165 0.6279 0.51341 0.0
C2272 C 0.55288 0.66639 0.35507 0.0
C2273 C 0.55669 0.68487 0.34432 0.0
C2274 C 0.54839 0.66023 0.3916 0.0
C2275 C 0.54792 0.67249 0.41868 0.0
C2276 C 0.55156 0.69093 0.40806 0.0
C2277 C 0.55564 0.69697 0.37114 0.0
C2278 C 0.55651 0.67227 0.52135 0.0
C2279 C 0.54162 0.65396 0.53237 0.0
C2280 C 0.55805 0.67846 0.48488 0.0
C2281 C 0.54497 0.66639 0.4581 0.0
C2282 C 0.52996 0.6481 0.46898 0.0
C2283 C 0.52814 0.64204 0.50586 0.0
H2284 H 0.32869 0.88643 0.5377 0.0
H2285 H 0.38303 0.89019 0.51141 0.0
H2286 H 0.31817 0.87784 0.47429 0.0
H2287 H 0.3725 0.88191 0.44695 0.0
H2288 H 0.35386 0.89672 0.33235 0.0
H2289 H 0.36471 0.89988 0.39588 0.0
H2290 H 0.31012 0.85086 0.42629 0.0
H2291 H 0.29925 0.84738 0.36196 0.0
C2292 C 0.33844 0.88541 0.51833 0.0
C2293 C 0.35683 0.88921 0.52964 0.0
C2294 C 0.33228 0.88028 0.48199 0.0
C2295 C 0.34443 0.87912 0.45557 0.0
C2296 C 0.36279 0.88269 0.46675 0.0
C2297 C 0.36884 0.88742 0.50359 0.0
C2298 C 0.34415 0.88647 0.35244 0.0
C2299 C 0.32557 0.87188 0.34204 0.0
C2300 C 0.35049 0.88821 0.38884 0.0
C2301 C 0.33833 0.87563 0.41615 0.0
C2302 C 0.31983 0.8608 0.40582 0.0
C2303 C 0.3136 0.85879 0.36903 0.0
H2304 H 0.31687 0.22726 0.0437 0.0
H2305 H 0.28338 0.20508 0.94473 0.0
H2306 H 0.34656 0.23915 1.00819 0.0
H2307 H 0.31309 0.21758 0.90848 0.0
H2308 H 0.37065 0.23682 0.85171 0.0
H2309 H 0.34227 0.21793 0.8909 0.0
H2310 H 0.36384 0.26527 0.96816 0.0
H2311 H 0.39213 0.28357 0.92958 0.0
C2312 C 0.31592 0.22455 1.01433 0.0
C2313 C 0.29788 0.21507 0.99699 0.0
C2314 C 0.33293 0.2316 0.99381 0.0
C2315 C 0.33239 0.22967 0.95519 0.0
C2316 C 0.3142 0.21923 0.93811 0.0
C2317 C 0.29713 0.21201 0.95882 0.0
C2318 C 0.3694 0.2429 0.87751 0.0
C2319 C 0.38348 0.26166 0.88759 0.0
C2320 C 0.35307 0.2322 0.89981 0.0
C2321 C 0.35056 0.24002 0.93281 0.0
C2322 C 0.36523 0.25853 0.9434 0.0
C2323 C 0.38146 0.26913 0.92118 0.0
H2324 H 0.74919 0.10288 0.84209 0.0
H2325 H 0.75412 0.14323 0.92583 0.0
H2326 H 0.76733 0.09255 0.88031 0.0
H2327 H 0.77275 0.13321 0.96425 0.0
H2328 H 0.77588 0.08711 0.03894 0.0
H2329 H 0.76519 0.10465 0.99964 0.0
H2330 H 0.79736 0.09976 0.90879 0.0
H2331 H 0.80764 0.08177 0.94828 0.0
C2332 C 0.75461 0.10988 0.86841 0.0
C2333 C 0.75026 0.12386 0.88097 0.0
C2334 C 0.76512 0.10403 0.89033 0.0
C2335 C 0.7715 0.11193 0.92561 0.0
C2336 C 0.7679 0.12663 0.93745 0.0
C2337 C 0.75743 0.13256 0.91531 0.0
C2338 C 0.78095 0.09014 1.01074 0.0
C2339 C 0.7926 0.0831 0.99668 0.0
C2340 C 0.77491 0.10029 0.98819 0.0
C2341 C 0.78029 0.10361 0.95082 0.0
C2342 C 0.79272 0.09731 0.93726 0.0
C2343 C 0.79882 0.08718 0.95995 0.0
H2344 H 0.91757 0.69179 0.04325 0.0
H2345 H 0.92835 0.72539 0.94455 0.0
H2346 H 0.89954 0.66215 1.00775 0.0
H2347 H 0.91078 0.69571 0.90837 0.0
H2348 H 0.87137 0.63781 0.8527 0.0
H2349 H 0.88134 0.66629 0.89197 0.0
H2350 H 0.90866 0.64522 0.96641 0.0
H2351 H 0.89835 0.61693 0.92769 0.0
C2352 C 0.91564 0.69279 1.01397 0.0
C2353 C 0.92417 0.71085 0.99669 0.0
C2354 C 0.90553 0.6758 0.99346 0.0
C2355 C 0.90389 0.67638 0.95493 0.0
C2356 C 0.91154 0.69459 0.93795 0.0
C2357 C 0.9216 0.71164 0.95863 0.0
C2358 C 0.87915 0.63919 0.87792 0.0
C2359 C 0.88414 0.62523 0.88717 0.0
C2360 C 0.88505 0.65557 0.90025 0.0
C2361 C 0.89591 0.65823 0.93249 0.0
C2362 C 0.90011 0.64371 0.94226 0.0
C2363 C 0.89429 0.62747 0.91997 0.0
H2364 H 0.25771 0.39486 0.61922 0.0
H2365 H 0.25843 0.35905 0.70685 0.0
H2366 H 0.23912 0.36621 0.58088 0.0
H2367 H 0.2404 0.33049 0.66858 0.0
H2368 H 0.20049 0.27966 0.59905 0.0
H2369 H 0.21089 0.30827 0.63779 0.0
H2370 H 0.24613 0.34422 0.54843 0.0
H2371 H 0.23533 0.31571 0.50991 0.0
C2372 C 0.25347 0.38081 0.63058 0.0
C2373 C 0.25936 0.37916 0.66613 0.0
C2374 C 0.24304 0.36438 0.60848 0.0
C2375 C 0.23827 0.34592 0.62142 0.0
C2376 C 0.2435 0.34432 0.65768 0.0
C2377 C 0.25394 0.36071 0.67964 0.0
C2378 C 0.20995 0.29376 0.58745 0.0
C2379 C 0.21694 0.2955 0.55136 0.0
C2380 C 0.21615 0.31016 0.60976 0.0
C2381 C 0.22949 0.32868 0.59645 0.0
C2382 C 0.23569 0.33035 0.55965 0.0
C2383 C 0.22955 0.31399 0.53752 0.0
H2384 H 0.72927 0.92881 0.59783 0.0
H2385 H 0.69551 0.91645 0.49898 0.0
H2386 H 0.69968 0.91128 0.63426 0.0
H2387 H 0.66595 0.89836 0.5347 0.0
H2388 H 0.6198 0.89595 0.61354 0.0
H2389 H 0.64816 0.90659 0.57481 0.0
H2390 H 0.67099 0.88205 0.65194 0.0
H2391 H 0.64252 0.87189 0.69127 0.0
C2392 C 0.71551 0.92175 0.58382 0.0
C2393 C 0.71464 0.92385 0.54562 0.0
C2394 C 0.6985 0.9117 0.60463 0.0
C2395 C 0.68026 0.90352 0.58764 0.0
C2396 C 0.67961 0.90476 0.54902 0.0
C2397 C 0.69656 0.91492 0.52839 0.0
C2398 C 0.63076 0.89257 0.62184 0.0
C2399 C 0.62904 0.8832 0.65541 0.0
C2400 C 0.64704 0.89858 0.59955 0.0
C2401 C 0.66208 0.89529 0.61008 0.0
C2402 C 0.6599 0.88511 0.64308 0.0
C2403 C 0.64351 0.87908 0.66545 0.0
H2404 H 0.10387 0.72284 0.63121 0.0
H2405 H 0.14503 0.77527 0.68568 0.0
H2406 H 0.09235 0.74077 0.59517 0.0
H2407 H 0.13379 0.79349 0.64831 0.0
H2408 H 0.10975 0.8081 0.52735 0.0
H2409 H 0.12743 0.79658 0.56558 0.0
H2410 H 0.07603 0.76233 0.62954 0.0
H2411 H 0.05867 0.7741 0.59231 0.0
C2412 C 0.11067 0.73828 0.63506 0.0
C2413 C 0.12512 0.74759 0.66173 0.0
C2414 C 0.10409 0.74853 0.61438 0.0
C2415 C 0.11206 0.76847 0.61919 0.0
C2416 C 0.12742 0.77811 0.64408 0.0
C2417 C 0.13387 0.76772 0.66532 0.0
C2418 C 0.10248 0.79859 0.55032 0.0
C2419 C 0.08279 0.79179 0.55662 0.0
C2420 C 0.11255 0.79196 0.57207 0.0
C2421 C 0.103 0.77841 0.60022 0.0
C2422 C 0.08369 0.77267 0.60788 0.0
C2423 C 0.07378 0.77943 0.58661 0.0
H2424 H 0.6504 0.74975 0.20337 0.0
H2425 H 0.6141 0.74875 0.11505 0.0
H2426 H 0.67879 0.76731 0.16439 0.0
H2427 H 0.64258 0.76674 0.07585 0.0
H2428 H 0.69327 0.77002 1.0059 0.0
H2429 H 0.66478 0.75927 0.04461 0.0
H2430 H 0.70053 0.79666 0.1319 0.0
H2431 H 0.72911 0.80705 0.09305 0.0
C2432 C 0.6486 0.75378 0.17583 0.0
C2433 C 0.63007 0.74804 0.16236 0.0
C2434 C 0.66488 0.76391 0.15345 0.0
C2435 C 0.66309 0.76847 0.11678 0.0
C2436 C 0.64454 0.76335 0.10379 0.0
C2437 C 0.62823 0.75326 0.12635 0.0
C2438 C 0.69496 0.77619 0.03314 0.0
C2439 C 0.7134 0.78938 0.04644 0.0
C2440 C 0.6786 0.77011 0.05533 0.0
C2441 C 0.68025 0.77698 0.0916 0.0
C2442 C 0.69868 0.79086 0.10431 0.0
C2443 C 0.71506 0.79701 0.08195 0.0
H2444 H 0.23375 0.94977 0.09354 0.0
H2445 H 0.208 0.90181 1.01841 0.0
H2446 H 0.24447 0.93232 0.13262 0.0
H2447 H 0.21824 0.88377 0.05818 0.0
H2448 H 0.26454 0.87161 0.1122 0.0
H2449 H 0.24726 0.88379 0.07544 0.0
H2450 H 0.23618 0.90689 0.17413 0.0
H2451 H 0.25401 0.89527 0.21016 0.0
C2452 C 0.23005 0.93526 0.08586 0.0
C2453 C 0.22013 0.92718 0.05291 0.0
C2454 C 0.2361 0.92513 0.10838 0.0
C2455 C 0.23231 0.90652 0.09877 0.0
C2456 C 0.22167 0.89813 0.06636 0.0
C2457 C 0.2156 0.90834 0.04374 0.0
C2458 C 0.25794 0.87887 0.12598 0.0
C2459 C 0.26046 0.88239 0.16401 0.0
C2460 C 0.24804 0.88589 0.10497 0.0
C2461 C 0.24044 0.89661 0.12157 0.0
C2462 C 0.24213 0.89911 0.16008 0.0
C2463 C 0.25214 0.89224 0.18091 0.0
H2464 H 0.13427 0.36574 0.19931 0.0
H2465 H 0.11504 0.39097 0.11704 0.0
H2466 H 0.12426 0.33738 0.15982 0.0
H2467 H 0.10446 0.36271 0.07812 0.0
H2468 H 0.09455 0.31493 1.00328 0.0
H2469 H 0.1124 0.34413 0.04006 0.0
H2470 H 0.09532 0.30967 0.13918 0.0
H2471 H 0.07811 0.28045 0.10175 0.0
C2472 C 0.12818 0.36531 0.17248 0.0
C2473 C 0.1254 0.38049 0.16116 0.0
C2474 C 0.12223 0.34899 0.14999 0.0
C2475 C 0.11339 0.34753 0.11563 0.0
C2476 C 0.11143 0.36324 0.10395 0.0
C2477 C 0.11741 0.37948 0.12633 0.0
C2478 C 0.0951 0.31364 0.03288 0.0
C2479 C 0.08515 0.29547 0.04967 0.0
C2480 C 0.10512 0.33038 0.05411 0.0
C2481 C 0.10516 0.32946 0.09286 0.0
C2482 C 0.09587 0.31108 0.1095 0.0
C2483 C 0.08598 0.29428 0.08811 0.0
H2484 H 0.76957 0.69035 0.54108 0.0
H2485 H 0.81042 0.72546 0.4578 0.0
H2486 H 0.75922 0.6618 0.50283 0.0
H2487 H 0.80038 0.69678 0.41944 0.0
H2488 H 0.75437 0.64755 0.34452 0.0
H2489 H 0.77174 0.67582 0.38387 0.0
H2490 H 0.7669 0.63893 0.47475 0.0
H2491 H 0.74917 0.61059 0.4351 0.0
C2492 C 0.77661 0.69186 0.51482 0.0
C2493 C 0.79079 0.71013 0.50243 0.0
C2494 C 0.77077 0.67546 0.49293 0.0
C2495 C 0.77888 0.67688 0.45785 0.0
C2496 C 0.79367 0.69512 0.44611 0.0
C2497 C 0.79959 0.71154 0.4682 0.0
C2498 C 0.75748 0.64556 0.37268 0.0
C2499 C 0.7506 0.62691 0.38667 0.0
C2500 C 0.76748 0.66177 0.39528 0.0
C2501 C 0.77072 0.65975 0.43267 0.0
C2502 C 0.76453 0.64106 0.44622 0.0
C2503 C 0.75459 0.62482 0.42344 0.0
H2504 H 0.31197 0.10002 0.53781 0.0
H2505 H 0.28163 0.06492 0.44431 0.0
H2506 H 0.341 0.11797 0.50003 0.0
H2507 H 0.31058 0.08242 0.40644 0.0
H2508 H 0.394 0.12326 0.43577 0.0
H2509 H 0.3649 0.11196 0.47317 0.0
H2510 H 0.33342 0.11174 0.3765 0.0
H2511 H 0.36261 0.12267 0.33926 0.0
C2512 C 0.31144 0.09648 0.50888 0.0
C2513 C 0.29455 0.08133 0.49375 0.0
C2514 C 0.32812 0.10658 0.48729 0.0
C2515 C 0.3283 0.10166 0.45004 0.0
C2516 C 0.31103 0.08689 0.43473 0.0
C2517 C 0.29439 0.07682 0.45637 0.0
C2518 C 0.38095 0.12129 0.42287 0.0
C2519 C 0.38057 0.1241 0.38483 0.0
C2520 C 0.36423 0.11479 0.44423 0.0
C2521 C 0.34664 0.11081 0.42799 0.0
C2522 C 0.34656 0.11438 0.39 0.0
C2523 C 0.36332 0.12088 0.36867 0.0
H2524 H 0.90688 0.25846 0.33844 0.0
H2525 H 0.86706 0.25432 0.42269 0.0
H2526 H 0.91755 0.2408 0.37728 0.0
H2527 H 0.87725 0.23603 0.46152 0.0
H2528 H 0.92252 0.23234 0.53675 0.0
H2529 H 0.90532 0.24318 0.49696 0.0
H2530 H 0.91087 0.21129 0.40634 0.0
H2531 H 0.92865 0.20098 0.4463 0.0
C2532 C 0.90011 0.25337 0.36506 0.0
C2533 C 0.88616 0.2578 0.37752 0.0
C2534 C 0.90613 0.2431 0.38731 0.0
C2535 C 0.89838 0.23697 0.4228 0.0
C2536 C 0.88375 0.24069 0.43459 0.0
C2537 C 0.87771 0.25097 0.41219 0.0
C2538 C 0.91967 0.22733 0.50851 0.0
C2539 C 0.92676 0.21567 0.49473 0.0
C2540 C 0.90973 0.23348 0.48564 0.0
C2541 C 0.90668 0.22822 0.4482 0.0
C2542 C 0.9131 0.21584 0.43486 0.0
C2543 C 0.92305 0.20967 0.45785 0.0
H2544 H 0.06217 0.59562 0.267 0.0
H2545 H 0.02795 0.58218 0.16855 0.0
H2546 H 0.03275 0.57833 0.30401 0.0
H2547 H 0.99856 0.56437 0.2049 0.0
H2548 H 0.95269 0.56257 0.28368 0.0
H2549 H 0.981 0.57311 0.24486 0.0
H2550 H 1.00409 0.54909 0.32257 0.0
H2551 H 0.97564 0.53899 0.36196 0.0
C2552 C 0.04835 0.58838 0.25321 0.0
C2553 C 0.0473 0.59011 0.21494 0.0
C2554 C 0.03144 0.57847 0.27437 0.0
C2555 C 0.01311 0.57008 0.25766 0.0
C2556 C 0.01229 0.57094 0.21899 0.0
C2557 C 0.02914 0.58094 0.198 0.0
C2558 C 0.96369 0.55929 0.29212 0.0
C2559 C 0.962 0.55002 0.32581 0.0
C2560 C 0.97995 0.56524 0.26978 0.0
C2561 C 0.99502 0.56203 0.28038 0.0
C2562 C 0.99295 0.55205 0.31361 0.0
C2563 C 0.97657 0.54606 0.33602 0.0
H2564 H 0.41881 0.4384 0.17249 0.0
H2565 H 0.41797 0.47371 0.2612 0.0
H2566 H 0.43624 0.4274 0.2112 0.0
H2567 H 0.43605 0.46325 0.29999 0.0
H2568 H 0.43979 0.41664 0.37043 0.0
H2569 H 0.42912 0.43436 0.33173 0.0
H2570 H 0.46494 0.43394 0.24308 0.0
H2571 H 0.47505 0.41556 0.28182 0.0
C2572 C 0.42285 0.4442 0.20006 0.0
C2573 C 0.41714 0.457 0.21372 0.0
C2574 C 0.43295 0.43798 0.22229 0.0
C2575 C 0.43758 0.44433 0.25897 0.0
C2576 C 0.43257 0.45784 0.27209 0.0
C2577 C 0.42245 0.46408 0.24973 0.0
C2578 C 0.44565 0.42067 0.34288 0.0
C2579 C 0.45835 0.41483 0.32925 0.0
C2580 C 0.43961 0.43094 0.32066 0.0
C2581 C 0.44607 0.43562 0.28403 0.0
C2582 C 0.45946 0.43044 0.27094 0.0
C2583 C 0.4655 0.42014 0.29328 0.0
H2584 H 0.58956 0.02392 0.36909 0.0
H2585 H 0.59131 0.06037 0.28034 0.0
H2586 H 0.57205 0.99559 0.33017 0.0
H2587 H 0.57314 0.03192 0.24127 0.0
H2588 H 0.56945 0.98137 0.17101 0.0
H2589 H 0.57985 0.00978 0.20963 0.0
H2590 H 0.5436 0.9736 0.2978 0.0
H2591 H 0.53379 0.94511 0.25917 0.0
C2592 C 0.58567 0.02577 0.34146 0.0
C2593 C 0.59168 0.04433 0.32786 0.0
C2594 C 0.57553 0.0095 0.31909 0.0
C2595 C 0.57114 0.01131 0.2823 0.0
C2596 C 0.57642 0.0299 0.26925 0.0
C2597 C 0.5866 0.04622 0.29176 0.0
C2598 C 0.56342 0.97957 0.19841 0.0
C2599 C 0.55073 0.96104 0.21199 0.0
C2600 C 0.56931 0.99589 0.2206 0.0
C2601 C 0.56269 0.99414 0.25711 0.0
C2602 C 0.54923 0.97558 0.27005 0.0
C2603 C 0.54336 0.95923 0.24777 0.0
H2604 H 0.47212 0.06119 0.7779 0.0
H2605 H 0.44831 0.02749 0.87621 0.0
H2606 H 0.46022 0.03156 0.74166 0.0
H2607 H 0.43695 0.99788 0.84072 0.0
H2608 H 0.39387 0.9525 0.75998 0.0
H2609 H 0.41149 0.98068 0.79912 0.0
H2610 H 0.46021 1.00239 0.72509 0.0
H2611 H 0.44204 0.97409 0.68535 0.0
C2612 C 0.46494 0.04742 0.7919 0.0
C2613 C 0.46126 0.0466 0.82985 0.0
C2614 C 0.45806 0.03039 0.77119 0.0
C2615 C 0.44733 0.01216 0.78802 0.0
C2616 C 0.44475 0.01154 0.82649 0.0
C2617 C 0.45148 0.02851 0.84702 0.0
C2618 C 0.40848 0.96316 0.75247 0.0
C2619 C 0.41657 0.96118 0.71962 0.0
C2620 C 0.41868 0.97934 0.775 0.0
C2621 C 0.43738 0.99403 0.76544 0.0
C2622 C 0.44579 0.99158 0.7332 0.0
C2623 C 0.4355 0.97528 0.71061 0.0
H2624 H 0.94576 0.41363 0.78216 0.0
H2625 H 0.98246 0.41753 0.87222 0.0
H2626 H 0.97417 0.43149 0.74275 0.0
H2627 H 0.01081 0.43499 0.83304 0.0
H2628 H 0.06069 0.47428 0.75995 0.0
H2629 H 0.03201 0.46393 0.79853 0.0
H2630 H 0.99689 0.42403 0.71364 0.0
H2631 H 0.02543 0.4347 0.67519 0.0
C2632 C 0.95995 0.41877 0.79377 0.0
C2633 C 0.96194 0.41439 0.83034 0.0
C2634 C 0.97623 0.42879 0.77111 0.0
C2635 C 0.99488 0.43467 0.78454 0.0
C2636 C 0.9968 0.43098 0.82173 0.0
C2637 C 0.98055 0.42091 0.84423 0.0
C2638 C 0.04674 0.46368 0.74928 0.0
C2639 C 0.04527 0.45534 0.71454 0.0
C2640 C 0.03032 0.45756 0.7715 0.0
C2641 C 0.01204 0.44303 0.7594 0.0
C2642 C 0.01058 0.43538 0.72386 0.0
C2643 C 0.02697 0.44142 0.70183 0.0
H2644 H 0.57115 0.5898 0.67345 0.0
H2645 H 0.53332 0.5882 0.75953 0.0
H2646 H 0.58152 0.57186 0.71221 0.0
H2647 H 0.54318 0.56963 0.79833 0.0
H2648 H 0.58909 0.56582 0.87147 0.0
H2649 H 0.57149 0.57643 0.83226 0.0
H2650 H 0.57457 0.54258 0.74257 0.0
H2651 H 0.59274 0.53248 0.78194 0.0
C2652 C 0.56468 0.58514 0.70042 0.0
C2653 C 0.55136 0.59031 0.71337 0.0
C2654 C 0.57054 0.57474 0.72266 0.0
C2655 C 0.56329 0.56926 0.75865 0.0
C2656 C 0.54928 0.57375 0.77098 0.0
C2657 C 0.5434 0.58417 0.7486 0.0
C2658 C 0.58557 0.5603 0.84361 0.0
C2659 C 0.59215 0.54822 0.82985 0.0
C2660 C 0.57541 0.56633 0.82107 0.0
C2661 C 0.57161 0.5605 0.78398 0.0
C2662 C 0.5774 0.54759 0.77079 0.0
C2663 C 0.58758 0.54155 0.79346 0.0
H2664 H 0.31059 0.38303 0.13499 0.0
H2665 H 0.36214 0.388 0.08613 0.0
H2666 H 0.29454 0.34812 0.12882 0.0
H2667 H 0.34596 0.35283 0.08037 0.0
H2668 H 0.31244 0.28779 0.12368 0.0
H2669 H 0.33056 0.32304 0.1278 0.0
H2670 H 0.28481 0.32575 0.07053 0.0
H2671 H 0.26682 0.29075 0.066 0.0
C2672 C 0.31851 0.37665 0.12306 0.0
C2673 C 0.33757 0.38818 0.11087 0.0
C2674 C 0.3093 0.35672 0.11944 0.0
C2675 C 0.31906 0.34796 0.10403 0.0
C2676 C 0.33823 0.35938 0.09243 0.0
C2677 C 0.34739 0.37942 0.09553 0.0
C2678 C 0.30633 0.29595 0.11187 0.0
C2679 C 0.28821 0.28658 0.09472 0.0
C2680 C 0.31672 0.31603 0.11404 0.0
C2681 C 0.30895 0.32692 0.09961 0.0
C2682 C 0.29098 0.31756 0.08207 0.0
C2683 C 0.28075 0.29758 0.07942 0.0
H2684 H 0.62168 0.9616 0.0592 0.0
H2685 H 0.62611 0.94205 0.16773 0.0
H2686 H 0.65669 0.98197 0.05687 0.0
H2687 H 0.66103 0.96225 0.16517 0.0
H2688 H 0.72219 0.01313 0.16032 0.0
H2689 H 0.68704 0.99698 0.16303 0.0
H2690 H 0.68369 0.97483 0.05315 0.0
H2691 H 0.71868 0.99101 0.05023 0.0
C2692 C 0.63011 0.96172 0.08259 0.0
C2693 C 0.6212 0.95012 0.1135 0.0
C2694 C 0.65011 0.97333 0.0812 0.0
C2695 C 0.6615 0.97363 0.11082 0.0
C2696 C 0.65255 0.96243 0.14212 0.0
C2697 C 0.63259 0.95074 0.14342 0.0
C2698 C 0.71393 0.00493 0.13667 0.0
C2699 C 0.72314 1.00318 0.1052 0.0
C2700 C 0.69386 0.99566 0.13828 0.0
C2701 C 0.68272 0.98467 0.10832 0.0
C2702 C 0.69196 0.98339 0.07649 0.0
C2703 C 0.71198 0.99251 0.07497 0.0
H2704 H 0.06417 0.68257 0.16306 0.0
H2705 H 0.04587 0.65898 0.05381 0.0
H2706 H 0.04452 0.69784 0.15907 0.0
H2707 H 0.02604 0.6742 0.05005 0.0
H2708 H 0.01813 0.72794 0.0425 0.0
H2709 H 0.0337 0.70855 0.04626 0.0
H2710 H 0.01005 0.68965 0.15519 0.0
H2711 H 0.99454 0.7092 0.15166 0.0
C2712 C 0.05586 0.68055 0.13829 0.0
C2713 C 0.05667 0.66973 0.1086 0.0
C2714 C 0.04449 0.68916 0.13616 0.0
C2715 C 0.03381 0.68719 0.10425 0.0
C2716 C 0.03429 0.67605 0.07484 0.0
C2717 C 0.04557 0.66731 0.07705 0.0
C2718 C 0.01616 0.71957 0.06719 0.0
C2719 C 0.00527 0.72021 0.09694 0.0
C2720 C 0.02494 0.70836 0.06918 0.0
C2721 C 0.02308 0.69766 0.10103 0.0
C2722 C 0.01182 0.69792 0.13045 0.0
C2723 C 1.00292 0.70905 0.12837 0.0
H2724 H 0.29278 0.26453 0.48283 0.0
H2725 H 0.28904 0.31003 0.42636 0.0
H2726 H 0.32774 0.2827 0.47718 0.0
H2727 H 0.32423 0.3283 0.42109 0.0
H2728 H 0.38964 0.3602 0.45933 0.0
H2729 H 0.35455 0.34389 0.46687 0.0
H2730 H 0.34947 0.2924 0.4181 0.0
H2731 H 0.38429 0.30857 0.41018 0.0
C2732 C 0.29943 0.27847 0.46947 0.0
C2733 C 0.28822 0.28583 0.45478 0.0
C2734 C 0.3194 0.2888 0.46618 0.0
C2735 C 0.32851 0.30677 0.44859 0.0
C2736 C 0.31742 0.31447 0.43488 0.0
C2737 C 0.29736 0.30398 0.43771 0.0
C2738 C 0.38099 0.34541 0.45023 0.0
C2739 C 0.38963 0.3356 0.4343 0.0
C2740 C 0.36099 0.33617 0.45437 0.0
C2741 C 0.3495 0.31695 0.44321 0.0
C2742 C 0.35813 0.3072 0.42718 0.0
C2743 C 0.37801 0.31649 0.42253 0.0
H2744 H 0.74513 0.0292 0.4658 0.0
H2745 H 0.69912 0.97908 0.41236 0.0
H2746 H 0.72656 0.04561 0.46092 0.0
H2747 H 0.68041 0.99562 0.4079 0.0
H2748 H 0.64837 0.02821 0.45307 0.0
H2749 H 0.66535 0.00991 0.45602 0.0
H2750 H 0.71495 0.05706 0.40398 0.0
H2751 H 0.69809 0.07526 0.40062 0.0
C2752 C 0.73102 0.02167 0.45314 0.0
C2753 C 0.72358 1.00291 0.4393 0.0
C2754 C 0.72046 0.03109 0.45025 0.0
C2755 C 0.70216 0.02184 0.43395 0.0
C2756 C 0.6945 1.00296 0.42068 0.0
C2757 C 0.70522 0.99359 0.42305 0.0
C2758 C 0.66287 0.03461 0.44218 0.0
C2759 C 0.67197 0.05317 0.4268 0.0
C2760 C 0.67248 0.02411 0.44367 0.0
C2761 C 0.6914 0.03219 0.43035 0.0
C2762 C 0.70039 0.05064 0.41465 0.0
C2763 C 0.69072 0.06099 0.41266 0.0
H2764 H 0.94182 0.62346 0.3811 0.0
H2765 H 0.96002 0.61857 0.49065 0.0
H2766 H 0.96164 0.65834 0.38459 0.0
H2767 H 0.98009 0.65358 0.49385 0.0
H2768 H 0.99056 0.71602 0.4999 0.0
H2769 H 0.97383 0.68099 0.4971 0.0
H2770 H 0.99604 0.68391 0.38737 0.0
H2771 H 0.01261 0.71901 0.38987 0.0
C2772 C 0.95012 0.62983 0.40586 0.0
C2773 C 0.94929 0.61831 0.43572 0.0
C2774 C 0.96159 0.64978 0.4077 0.0
C2775 C 0.97239 0.6586 0.43946 0.0
C2776 C 0.97175 0.6471 0.46917 0.0
C2777 C 0.96033 0.6271 0.46728 0.0
C2778 C 0.99195 0.7092 0.47523 0.0
C2779 C 1.00275 0.72023 0.44496 0.0
C2780 C 0.9825 0.68916 0.47377 0.0
C2781 C 0.98363 0.6798 0.44199 0.0
C2782 C 0.99479 0.69081 0.41205 0.0
C2783 C 1.00431 0.71087 0.41355 0.0
H2784 H 0.73402 0.71611 0.99721 0.0
H2785 H 0.71667 0.72248 0.88787 0.0
H2786 H 0.71385 0.68128 0.99232 0.0
H2787 H 0.69634 0.68752 0.88318 0.0
H2788 H 0.68674 0.62511 0.87528 0.0
H2789 H 0.70313 0.66012 0.87936 0.0
H2790 H 0.67894 0.65585 0.98765 0.0
H2791 H 0.6626 0.62076 0.98379 0.0
C2792 C 0.72584 0.71008 0.97219 0.0
C2793 C 0.72702 0.72199 0.94279 0.0
C2794 C 0.71417 0.69016 0.96956 0.0
C2795 C 0.70356 0.68178 0.9374 0.0
C2796 C 0.70451 0.69367 0.90817 0.0
C2797 C 0.71608 0.71364 0.91091 0.0
C2798 C 0.68482 0.63163 0.89987 0.0
C2799 C 0.67355 0.62023 0.92938 0.0
C2800 C 0.69408 0.65165 0.90206 0.0
C2801 C 0.69232 0.66062 0.93386 0.0
C2802 C 0.68065 0.64924 0.96298 0.0
C2803 C 0.67126 0.62919 0.96069 0.0
H2804 H 0.38897 0.04427 0.98108 0.0
H2805 H 0.38458 0.0658 0.87454 0.0
H2806 H 0.35389 0.0252 0.98461 0.0
H2807 H 0.34961 0.04693 0.87835 0.0
H2808 H 0.28751 0.99797 0.88433 0.0
H2809 H 0.32249 0.01289 0.87981 0.0
H2810 H 0.32814 0.0339 0.9913 0.0
H2811 H 0.29328 0.01888 0.99606 0.0
C2812 C 0.38054 0.04484 0.95836 0.0
C2813 C 0.38948 0.05663 0.92769 0.0
C2814 C 0.3605 0.034 0.96045 0.0
C2815 C 0.34911 0.03468 0.93181 0.0
C2816 C 0.35807 0.04601 0.90066 0.0
C2817 C 0.37808 0.05693 0.89864 0.0
C2818 C 0.29623 0.00568 0.90792 0.0
C2819 C 0.2877 0.00739 0.94044 0.0
C2820 C 0.31621 0.01424 0.90528 0.0
C2821 C 0.32795 0.02451 0.93521 0.0
C2822 C 0.31939 0.02586 0.96797 0.0
C2823 C 0.29945 0.01741 0.97055 0.0
H2824 H 0.02882 0.3114 0.91303 0.0
H2825 H 0.98026 0.26444 0.96837 0.0
H2826 H 0.01108 0.32897 0.90969 0.0
H2827 H 0.96268 0.28187 0.96462 0.0
H2828 H 0.93054 0.30802 0.90477 0.0
H2829 H 0.9499 0.29238 0.90796 0.0
H2830 H 0.99617 0.34319 0.95866 0.0
H2831 H 0.97669 0.35895 0.95588 0.0
C2832 C 0.01441 0.30486 0.9244 0.0
C2833 C 0.00587 0.28655 0.94083 0.0
C2834 C 1.00436 0.31493 0.92268 0.0
C2835 C 0.98557 0.30665 0.93678 0.0
C2836 C 0.97711 0.28843 0.95333 0.0
C2837 C 0.98721 0.27853 0.95556 0.0
C2838 C 0.94485 0.3159 0.91655 0.0
C2839 C 0.9521 0.33464 0.9303 0.0
C2840 C 0.95587 0.30693 0.91842 0.0
C2841 C 0.97442 0.31663 0.93361 0.0
C2842 C 0.9819 0.33551 0.94669 0.0
C2843 C 0.97073 0.34442 0.94533 0.0
H2844 H 0.72272 0.69912 0.62571 0.0
H2845 H 0.71858 0.74608 0.57678 0.0
H2846 H 0.68752 0.68043 0.63072 0.0
H2847 H 0.68361 0.72748 0.58213 0.0
H2848 H 0.62562 0.69797 0.64327 0.0
H2849 H 0.66063 0.71504 0.63873 0.0
H2850 H 0.65814 0.66603 0.58385 0.0
H2851 H 0.6229 0.64883 0.58806 0.0
C2852 C 0.71431 0.70544 0.61614 0.0
C2853 C 0.72333 0.72405 0.60101 0.0
C2854 C 0.69425 0.69472 0.6188 0.0
C2855 C 0.68302 0.70263 0.60691 0.0
C2856 C 0.69204 0.72119 0.59173 0.0
C2857 C 0.71201 0.73177 0.58858 0.0
C2858 C 0.63251 0.69078 0.63033 0.0
C2859 C 0.62156 0.67212 0.61583 0.0
C2860 C 0.6525 0.70058 0.62765 0.0
C2861 C 0.66193 0.69181 0.61085 0.0
C2862 C 0.65109 0.673 0.59705 0.0
C2863 C 0.631 0.66325 0.59926 0.0
H2864 H 0.36131 0.97738 0.58079 0.0
H2865 H 0.31187 0.93015 0.63352 0.0
H2866 H 0.34412 0.99554 0.57828 0.0
H2867 H 0.29479 0.94814 0.63045 0.0
H2868 H 0.26454 0.97637 0.56998 0.0
H2869 H 0.28341 0.96021 0.57261 0.0
H2870 H 0.32879 0.00901 0.62981 0.0
H2871 H 0.30978 0.0253 0.62767 0.0
C2872 C 0.3468 0.9709 0.59169 0.0
C2873 C 0.33786 0.95239 0.60723 0.0
C2874 C 0.33709 0.9813 0.59048 0.0
C2875 C 0.31822 0.97311 0.60412 0.0
C2876 C 0.30932 0.95464 0.61962 0.0
C2877 C 0.31911 0.94442 0.62144 0.0
C2878 C 0.27855 0.98371 0.58307 0.0
C2879 C 0.28569 1.00205 0.5988 0.0
C2880 C 0.28928 0.97444 0.58461 0.0
C2881 C 0.30744 0.98344 0.60142 0.0
C2882 C 0.31482 1.00192 0.61656 0.0
C2883 C 0.30392 0.01112 0.61554 0.0
H2884 H 0.98343 0.28777 0.6275 0.0
H2885 H 0.03228 0.29034 0.57126 0.0
H2886 H 1.00075 0.32301 0.63174 0.0
H2887 H 0.04946 0.32534 0.57586 0.0
H2888 H 0.08089 0.38316 0.63834 0.0
H2889 H 0.06215 0.34821 0.63273 0.0
H2890 H 0.01516 0.35249 0.58486 0.0
H2891 H 0.034 0.38767 0.59012 0.0
C2892 C 0.99781 0.29584 0.61606 0.0
C2893 C 0.00656 0.28636 0.59921 0.0
C2894 C 0.00763 0.31593 0.6183 0.0
C2895 C 0.02639 0.32672 0.60425 0.0
C2896 C 0.03504 0.31725 0.58714 0.0
C2897 C 0.02517 0.29726 0.58443 0.0
C2898 C 0.06656 0.37667 0.62664 0.0
C2899 C 0.0589 0.38809 0.6145 0.0
C2900 C 0.0559 0.35672 0.62333 0.0
C2901 C 0.03731 0.34781 0.60829 0.0
C2902 C 0.02947 0.35913 0.59667 0.0
C2903 C 0.04027 0.37918 0.59947 0.0
H2904 H 0.05451 0.67437 0.83527 0.0
H2905 H 0.05329 0.65676 0.72223 0.0
H2906 H 0.01936 0.65778 0.83584 0.0
H2907 H 0.01829 0.63997 0.72312 0.0
H2908 H 0.95613 0.62625 0.72681 0.0
H2909 H 0.99117 0.6461 0.7268 0.0
H2910 H 0.9932 0.62392 0.83406 0.0
H2911 H 0.95824 0.60438 0.83445 0.0
C2912 C 0.04676 0.66701 0.81057 0.0
C2913 C 0.05664 0.66676 0.7788 0.0
C2914 C 0.02666 0.65746 0.81095 0.0
C2915 C 0.01613 0.64758 0.77954 0.0
C2916 C 0.02604 0.64766 0.74758 0.0
C2917 C 0.04609 0.65716 0.74721 0.0
C2918 C 0.96406 0.62568 0.75043 0.0
C2919 C 0.95446 0.61369 0.78052 0.0
C2920 C 0.9841 0.63699 0.75037 0.0
C2921 C 0.99487 0.63651 0.78041 0.0
C2922 C 0.98524 0.62475 0.81074 0.0
C2923 C 0.96523 0.61344 0.81079 0.0
H2924 H 0.37009 0.31895 0.7487 0.0
H2925 H 0.41403 0.36717 0.81002 0.0
H2926 H 0.35135 0.33543 0.74436 0.0
H2927 H 0.39542 0.3836 0.80516 0.0
H2928 H 0.36837 0.41442 0.74144 0.0
H2929 H 0.38556 0.39659 0.74705 0.0
H2930 H 0.33464 0.34816 0.79273 0.0
H2931 H 0.31736 0.36612 0.78766 0.0
C2932 C 0.37572 0.33304 0.76118 0.0
C2933 C 0.39352 0.34184 0.77956 0.0
C2934 C 0.36498 0.34236 0.75888 0.0
C2935 C 0.37206 0.36072 0.77435 0.0
C2936 C 0.38978 0.36947 0.79285 0.0
C2937 C 0.40035 0.36004 0.79569 0.0
C2938 C 0.36082 0.39996 0.75263 0.0
C2939 C 0.34157 0.39164 0.76425 0.0
C2940 C 0.37067 0.38984 0.75595 0.0
C2941 C 0.36136 0.37111 0.77038 0.0
C2942 C 0.34203 0.3626 0.78142 0.0
C2943 C 0.33223 0.37288 0.7787 0.0
H2944 H 0.64211 0.04882 0.81112 0.0
H2945 H 0.69356 0.05303 0.7634 0.0
H2946 H 0.6258 0.01385 0.80564 0.0
H2947 H 0.67713 0.01784 0.75837 0.0
H2948 H 0.64266 0.95261 0.79903 0.0
H2949 H 0.66086 0.98777 0.80561 0.0
H2950 H 0.61642 0.99189 0.74632 0.0
H2951 H 0.59838 0.957 0.73929 0.0
C2952 C 0.64997 0.04226 0.79969 0.0
C2953 C 0.66905 0.05359 0.78745 0.0
C2954 C 0.64062 0.02231 0.7965 0.0
C2955 C 0.65027 0.01334 0.78152 0.0
C2956 C 0.6695 0.02455 0.77013 0.0
C2957 C 0.6788 0.0446 0.7728 0.0
C2958 C 0.63684 0.96106 0.78739 0.0
C2959 C 0.61912 0.95214 0.76877 0.0
C2960 C 0.64727 0.98109 0.79099 0.0
C2961 C 0.6399 0.99233 0.77658 0.0
C2962 C 0.62226 0.98342 0.75787 0.0
C2963 C 0.61201 0.9635 0.75376 0.0
H2964 H 0.37994 0.05263 0.22464 0.0
H2965 H 0.39833 0.0479 0.33409 0.0
H2966 H 0.36143 0.01755 0.22012 0.0
H2967 H 0.37999 0.01292 0.32934 0.0
H2968 H 0.33114 0.95083 0.3201 0.0
H2969 H 0.34597 0.98579 0.32466 0.0
H2970 H 0.37045 0.99182 0.2161 0.0
H2971 H 0.35553 0.95694 0.21129 0.0
C2972 C 0.37993 0.04411 0.24778 0.0
C2973 C 0.39067 0.05297 0.27961 0.0
C2974 C 0.36942 0.02407 0.24511 0.0
C2975 C 0.36935 0.01259 0.27435 0.0
C2976 C 0.37966 0.02145 0.30654 0.0
C2977 C 0.39026 0.04146 0.30912 0.0
C2978 C 0.3396 0.95962 0.29714 0.0
C2979 C 0.3423 0.95119 0.26545 0.0
C2980 C 0.34811 0.97959 0.29982 0.0
C2981 C 0.35934 0.99143 0.27074 0.0
C2982 C 0.36169 0.98298 0.23874 0.0
C2983 C 0.35328 0.96304 0.23615 0.0
H2984 H 0.05474 0.36746 0.2969 0.0
H2985 H 0.05141 0.41176 0.23496 0.0
H2986 H 0.01948 0.34858 0.29888 0.0
H2987 H 0.01637 0.39298 0.2373 0.0
H2988 H 0.9577 0.36598 0.29752 0.0
H2989 H 0.9927 0.3831 0.2931 0.0
H2990 H 0.99075 0.33192 0.25003 0.0
H2991 H 0.95546 0.31464 0.25407 0.0
C2992 C 0.0465 0.37314 0.28377 0.0
C2993 C 0.05576 0.3911 0.26598 0.0
C2994 C 0.02641 0.3623 0.28468 0.0
C2995 C 0.01539 0.36944 0.2683 0.0
C2996 C 0.02464 0.38729 0.2503 0.0
C2997 C 0.04466 0.39798 0.24894 0.0
C2998 C 0.96471 0.35835 0.28708 0.0
C2999 C 0.95392 0.33902 0.27602 0.0
C3000 C 0.98469 0.36817 0.28445 0.0
C3001 C 0.99426 0.35877 0.27117 0.0
C3002 C 0.98357 0.33938 0.26047 0.0
C3003 C 0.96348 0.32959 0.26257 0.0
H3004 H 0.64335 0.69223 0.28913 0.0
H3005 H 0.59761 0.64121 0.23747 0.0
H3006 H 0.66221 0.67598 0.29571 0.0
H3007 H 0.61636 0.62507 0.24444 0.0
H3008 H 0.64469 0.59679 0.31028 0.0
H3009 H 0.62772 0.61471 0.30339 0.0
H3010 H 0.67757 0.66097 0.25014 0.0
H3011 H 0.69468 0.64292 0.25664 0.0
C3012 C 0.63735 0.67759 0.27922 0.0
C3013 C 0.619 0.66792 0.26296 0.0
C3014 C 0.64816 0.66839 0.28279 0.0
C3015 C 0.64061 0.64933 0.27071 0.0
C3016 C 0.62237 0.63975 0.25421 0.0
C3017 C 0.61171 0.64901 0.25013 0.0
C3018 C 0.6521 0.61081 0.29723 0.0
C3019 C 0.67097 0.61844 0.28381 0.0
C3020 C 0.64235 0.62099 0.29319 0.0
C3021 C 0.65138 0.6391 0.27612 0.0
C3022 C 0.6704 0.64702 0.2635 0.0
C3023 C 0.6801 0.63668 0.26705 0.0
loop_
_geom_bond_atom_site_label_1
_geom_bond_atom_site_label_2
_geom_bond_distance
_geom_bond_site_symmetry_2
_ccdc_geom_bond_type
Co0 O3 1.970 . S
Co0 N17 1.989 . S
Co0 O25 1.967 . S
Co0 O32 1.920 . S
Co1 O4 1.966 . S
Co1 N10 2.022 . S
Co1 N18 1.993 . S
Co1 O26 1.941 . S
C2 O3 1.258 . S
C2 O4 1.263 . S
O3 Co0 1.970 . S
O3 C2 1.258 . S
O4 Co1 1.966 . S
O4 C2 1.263 . S
C5 O6 1.235 . S
C5 O32 1.289 . S
O6 C5 1.235 . S
C7 C9 1.400 . S
C7 N10 1.351 . S
C7 C12 1.501 . S
C8 C9 1.387 1_556 S
C8 N11 1.341 . S
C9 C7 1.400 . S
C9 C8 1.387 1_554 S
N10 Co1 2.022 . S
N10 C7 1.351 . S
N10 N11 1.365 1_554 S
N11 C8 1.341 . S
N11 N10 1.365 1_556 S
N11 H31 0.862 . S
C12 C7 1.501 . S
C12 H13 0.961 . S
C12 H14 0.961 . S
C12 H15 0.960 . S
H13 C12 0.961 . S
H14 C12 0.961 . S
H15 C12 0.960 . S
C16 N17 1.342 . S
C16 C20 1.401 1_554 S
C16 C21 1.500 1_554 S
N17 Co0 1.989 . S
N17 C16 1.342 . S
N17 N18 1.388 . S
N18 Co1 1.993 . S
N18 N17 1.388 . S
N18 C19 1.346 1_554 S
C19 N18 1.346 1_556 S
C19 C20 1.396 . S
C19 C29 1.510 . S
C20 C16 1.401 1_556 S
C20 C19 1.396 . S
C21 C16 1.500 1_556 S
C21 H22 0.961 1_556 S
C21 H23 0.961 1_556 S
C21 H24 0.958 . S
H22 C21 0.961 1_554 S
H23 C21 0.961 1_554 S
H24 C21 0.958 . S
O25 Co0 1.967 . S
O25 C33 1.258 . S
O26 Co1 1.941 . S
O26 C33 1.266 . S
H27 C29 0.959 . S
H28 C29 0.961 . S
C29 C19 1.510 . S
C29 H27 0.959 . S
C29 H28 0.961 . S
C29 H30 0.973 . S
H30 C29 0.973 . S
H31 N11 0.862 . S
O32 Co0 1.920 . S
O32 C5 1.289 . S
C33 O25 1.258 . S
C33 O26 1.266 . S
Co34 O37 1.970 . S
Co34 N51 1.989 . S
Co34 O59 1.967 1_545 S
Co34 O66 1.920 1_545 S
Co35 O38 1.966 . S
Co35 N44 2.022 . S
Co35 N52 1.993 . S
Co35 O60 1.941 . S
C36 O37 1.258 . S
C36 O38 1.263 . S
O37 Co34 1.970 . S
O37 C36 1.258 . S
O38 Co35 1.966 . S
O38 C36 1.263 . S
C39 O40 1.235 1_565 S
C39 O66 1.289 . S
O40 C39 1.235 1_545 S
C41 C43 1.400 . S
C41 N44 1.351 . S
C41 C46 1.501 . S
C42 C43 1.387 1_556 S
C42 N45 1.341 . S
C43 C41 1.400 . S
C43 C42 1.387 1_554 S
N44 Co35 2.022 . S
N44 C41 1.351 . S
N44 N45 1.365 1_554 S
N45 C42 1.341 . S
N45 N44 1.365 1_556 S
N45 H65 0.862 . S
C46 C41 1.501 . S
C46 H47 0.961 . S
C46 H48 0.961 . S
C46 H49 0.960 . S
H47 C46 0.961 . S
H48 C46 0.961 . S
H49 C46 0.960 . S
C50 N51 1.342 . S
C50 C54 1.401 1_554 S
C50 C55 1.499 1_554 S
N51 Co34 1.989 . S
N51 C50 1.342 . S
N51 N52 1.388 . S
N52 Co35 1.993 . S
N52 N51 1.388 . S
N52 C53 1.346 1_554 S
C53 N52 1.346 1_556 S
C53 C54 1.396 . S
C53 C63 1.510 . S
C54 C50 1.401 1_556 S
C54 C53 1.396 . S
C55 C50 1.499 1_556 S
C55 H56 0.960 1_556 S
C55 H57 0.960 1_556 S
C55 H58 0.959 . S
H56 C55 0.960 1_554 S
H57 C55 0.960 1_554 S
H58 C55 0.959 . S
O59 Co34 1.967 1_565 S
O59 C67 1.258 . S
O60 Co35 1.941 . S
O60 C67 1.266 1_545 S
H61 C63 0.959 . S
H62 C63 0.961 . S
C63 C53 1.510 . S
C63 H61 0.959 . S
C63 H62 0.961 . S
C63 H64 0.973 . S
H64 C63 0.973 . S
H65 N45 0.862 . S
O66 Co34 1.920 1_565 S
O66 C39 1.289 . S
C67 O59 1.258 . S
C67 O60 1.266 1_565 S
Co68 O71 1.970 . S
Co68 N85 1.989 . S
Co68 O93 1.967 1_655 S
Co68 O100 1.920 1_655 S
Co69 O72 1.966 . S
Co69 N78 2.022 . S
Co69 N86 1.993 . S
Co69 O94 1.941 . S
C70 O71 1.258 . S
C70 O72 1.263 . S
O71 Co68 1.970 . S
O71 C70 1.258 . S
O72 Co69 1.966 . S
O72 C70 1.263 . S
C73 O74 1.235 1_455 S
C73 O100 1.289 . S
O74 C73 1.235 1_655 S
C75 C77 1.400 . S
C75 N78 1.351 . S
C75 C80 1.501 . S
C76 C77 1.387 1_556 S
C76 N79 1.341 . S
C77 C75 1.400 . S
C77 C76 1.387 1_554 S
N78 Co69 2.022 . S
N78 C75 1.351 . S
N78 N79 1.365 1_554 S
N79 C76 1.341 . S
N79 N78 1.365 1_556 S
N79 H99 0.862 . S
C80 C75 1.501 . S
C80 H81 0.961 . S
C80 H82 0.961 . S
C80 H83 0.960 . S
H81 C80 0.961 . S
H82 C80 0.961 . S
H83 C80 0.960 . S
C84 N85 1.342 . S
C84 C88 1.401 1_554 S
C84 C89 1.499 . S
N85 Co68 1.989 . S
N85 C84 1.342 . S
N85 N86 1.388 . S
N86 Co69 1.993 . S
N86 N85 1.388 . S
N86 C87 1.346 1_554 S
C87 N86 1.346 1_556 S
C87 C88 1.396 . S
C87 C97 1.510 . S
C88 C84 1.401 1_556 S
C88 C87 1.396 . S
C89 C84 1.499 . S
C89 H90 0.957 . S
C89 H91 0.959 . S
C89 H92 0.964 1_554 S
H90 C89 0.957 . S
H91 C89 0.959 . S
H92 C89 0.964 1_556 S
O93 Co68 1.967 1_455 S
O93 C101 1.258 . S
O94 Co69 1.941 . S
O94 C101 1.266 1_655 S
H95 C97 0.959 . S
H96 C97 0.961 . S
C97 C87 1.510 . S
C97 H95 0.959 . S
C97 H96 0.961 . S
C97 H98 0.972 . S
H98 C97 0.972 . S
H99 N79 0.862 . S
O100 Co68 1.920 1_455 S
O100 C73 1.289 . S
C101 O93 1.258 . S
C101 O94 1.266 1_455 S
Co102 O105 1.970 . S
Co102 N119 1.989 . S
Co102 O127 1.967 . S
Co102 O134 1.920 . S
Co103 O106 1.966 . S
Co103 N112 2.022 . S
Co103 N120 1.993 . S
Co103 O128 1.941 . S
C104 O105 1.258 . S
C104 O106 1.263 . S
O105 Co102 1.970 . S
O105 C104 1.258 . S
O106 Co103 1.966 . S
O106 C104 1.263 . S
C107 O108 1.235 . S
C107 O134 1.289 . S
O108 C107 1.235 . S
C109 C111 1.400 . S
C109 N112 1.351 . S
C109 C114 1.501 . S
C110 C111 1.387 . S
C110 N113 1.341 . S
C111 C109 1.400 . S
C111 C110 1.387 . S
N112 Co103 2.022 . S
N112 C109 1.351 . S
N112 N113 1.365 . S
N113 C110 1.341 . S
N113 N112 1.365 . S
N113 H133 0.862 . S
C114 C109 1.501 . S
C114 H115 0.961 . S
C114 H116 0.961 . S
C114 H117 0.960 . S
H115 C114 0.961 . S
H116 C114 0.961 . S
H117 C114 0.960 . S
C118 N119 1.342 . S
C118 C122 1.401 . S
C118 C123 1.499 . S
N119 Co102 1.989 . S
N119 C118 1.342 . S
N119 N120 1.388 . S
N120 Co103 1.993 . S
N120 N119 1.388 . S
N120 C121 1.346 . S
C121 N120 1.346 . S
C121 C122 1.396 . S
C121 C131 1.510 . S
C122 C118 1.401 . S
C122 C121 1.396 . S
C123 C118 1.499 . S
C123 H124 0.959 . S
C123 H125 0.960 . S
C123 H126 0.961 . S
H124 C123 0.959 . S
H125 C123 0.960 . S
H126 C123 0.961 . S
O127 Co102 1.967 . S
O127 C135 1.258 . S
O128 Co103 1.941 . S
O128 C135 1.266 . S
H129 C131 0.959 . S
H130 C131 0.961 . S
C131 C121 1.510 . S
C131 H129 0.959 . S
C131 H130 0.961 . S
C131 H132 0.960 . S
H132 C131 0.960 . S
H133 N113 0.862 . S
O134 Co102 1.920 . S
O134 C107 1.289 . S
C135 O127 1.258 . S
C135 O128 1.266 . S
Co136 O139 1.970 . S
Co136 N153 1.989 . S
Co136 O161 1.967 1_565 S
Co136 O168 1.920 1_565 S
Co137 O140 1.966 . S
Co137 N146 2.022 . S
Co137 N154 1.993 . S
Co137 O162 1.941 . S
C138 O139 1.258 . S
C138 O140 1.263 . S
O139 Co136 1.970 . S
O139 C138 1.258 . S
O140 Co137 1.966 . S
O140 C138 1.263 . S
C141 O142 1.235 1_545 S
C141 O168 1.289 . S
O142 C141 1.235 1_565 S
C143 C145 1.400 . S
C143 N146 1.351 . S
C143 C148 1.501 . S
C144 C145 1.387 . S
C144 N147 1.341 . S
C145 C143 1.400 . S
C145 C144 1.387 . S
N146 Co137 2.022 . S
N146 C143 1.351 . S
N146 N147 1.365 . S
N147 C144 1.341 . S
N147 N146 1.365 . S
N147 H167 0.862 . S
C148 C143 1.501 . S
C148 H149 0.961 . S
C148 H150 0.961 . S
C148 H151 0.960 . S
H149 C148 0.961 . S
H150 C148 0.961 . S
H151 C148 0.960 . S
C152 N153 1.342 . S
C152 C156 1.401 . S
C152 C157 1.499 . S
N153 Co136 1.989 . S
N153 C152 1.342 . S
N153 N154 1.388 . S
N154 Co137 1.993 . S
N154 N153 1.388 . S
N154 C155 1.346 . S
C155 N154 1.346 . S
C155 C156 1.396 . S
C155 C165 1.510 . S
C156 C152 1.401 . S
C156 C155 1.396 . S
C157 C152 1.499 . S
C157 H158 0.959 . S
C157 H159 0.960 . S
C157 H160 0.961 . S
H158 C157 0.959 . S
H159 C157 0.960 . S
H160 C157 0.961 . S
O161 Co136 1.967 1_545 S
O161 C169 1.258 . S
O162 Co137 1.941 . S
O162 C169 1.266 1_565 S
H163 C165 0.959 . S
H164 C165 0.961 . S
C165 C155 1.510 . S
C165 H163 0.959 . S
C165 H164 0.961 . S
C165 H166 0.960 . S
H166 C165 0.960 . S
H167 N147 0.862 . S
O168 Co136 1.920 1_545 S
O168 C141 1.289 . S
C169 O161 1.258 . S
C169 O162 1.266 1_545 S
Co170 O173 1.970 . S
Co170 N187 1.989 . S
Co170 O195 1.967 1_455 S
Co170 O202 1.920 1_455 S
Co171 O174 1.966 . S
Co171 N180 2.022 . S
Co171 N188 1.993 . S
Co171 O196 1.941 . S
C172 O173 1.258 . S
C172 O174 1.263 . S
O173 Co170 1.970 . S
O173 C172 1.258 . S
O174 Co171 1.966 . S
O174 C172 1.263 . S
C175 O176 1.235 1_655 S
C175 O202 1.289 . S
O176 C175 1.235 1_455 S
C177 C179 1.400 . S
C177 N180 1.351 . S
C177 C182 1.501 . S
C178 C179 1.387 . S
C178 N181 1.341 . S
C179 C177 1.400 . S
C179 C178 1.387 . S
N180 Co171 2.022 . S
N180 C177 1.351 . S
N180 N181 1.365 . S
N181 C178 1.341 . S
N181 N180 1.365 . S
N181 H201 0.862 . S
C182 C177 1.501 . S
C182 H183 0.961 . S
C182 H184 0.961 . S
C182 H185 0.960 . S
H183 C182 0.961 . S
H184 C182 0.961 . S
H185 C182 0.960 . S
C186 N187 1.342 . S
C186 C190 1.401 . S
C186 C191 1.499 . S
N187 Co170 1.989 . S
N187 C186 1.342 . S
N187 N188 1.388 . S
N188 Co171 1.993 . S
N188 N187 1.388 . S
N188 C189 1.346 . S
C189 N188 1.346 . S
C189 C190 1.396 . S
C189 C199 1.510 . S
C190 C186 1.401 . S
C190 C189 1.396 . S
C191 C186 1.499 . S
C191 H192 0.959 . S
C191 H193 0.960 . S
C191 H194 0.961 . S
H192 C191 0.959 . S
H193 C191 0.960 . S
H194 C191 0.961 . S
O195 Co170 1.967 1_655 S
O195 C203 1.258 . S
O196 Co171 1.941 . S
O196 C203 1.266 1_455 S
H197 C199 0.959 . S
H198 C199 0.961 . S
C199 C189 1.510 . S
C199 H197 0.959 . S
C199 H198 0.961 . S
C199 H200 0.960 . S
H200 C199 0.960 . S
H201 N181 0.862 . S
O202 Co170 1.920 1_655 S
O202 C175 1.289 . S
C203 O195 1.258 . S
C203 O196 1.266 1_655 S
Co204 O207 1.970 . S
Co204 N221 1.989 . S
Co204 O229 1.967 . S
Co204 O236 1.920 . S
Co205 O208 1.966 . S
Co205 N214 2.022 . S
Co205 N222 1.993 . S
Co205 O230 1.941 . S
C206 O207 1.258 . S
C206 O208 1.263 . S
O207 Co204 1.970 . S
O207 C206 1.258 . S
O208 Co205 1.966 . S
O208 C206 1.263 . S
C209 O210 1.235 . S
C209 O236 1.289 . S
O210 C209 1.235 . S
C211 C213 1.400 . S
C211 N214 1.351 . S
C211 C216 1.501 . S
C212 C213 1.387 1_554 S
C212 N215 1.341 . S
C213 C211 1.400 . S
C213 C212 1.387 1_556 S
N214 Co205 2.022 . S
N214 C211 1.351 . S
N214 N215 1.365 1_556 S
N215 C212 1.341 . S
N215 N214 1.365 1_554 S
N215 H235 0.862 . S
C216 C211 1.501 . S
C216 H217 0.961 . S
C216 H218 0.961 . S
C216 H219 0.960 . S
H217 C216 0.961 . S
H218 C216 0.961 . S
H219 C216 0.960 . S
C220 N221 1.342 . S
C220 C224 1.401 1_556 S
C220 C225 1.500 1_556 S
N221 Co204 1.989 . S
N221 C220 1.342 . S
N221 N222 1.388 . S
N222 Co205 1.993 . S
N222 N221 1.388 . S
N222 C223 1.346 1_556 S
C223 N222 1.346 1_554 S
C223 C224 1.396 . S
C223 C233 1.510 . S
C224 C220 1.401 1_554 S
C224 C223 1.396 . S
C225 C220 1.500 1_554 S
C225 H226 0.961 1_554 S
C225 H227 0.961 1_554 S
C225 H228 0.958 . S
H226 C225 0.961 1_556 S
H227 C225 0.961 1_556 S
H228 C225 0.958 . S
O229 Co204 1.967 . S
O229 C237 1.258 . S
O230 Co205 1.941 . S
O230 C237 1.266 . S
H231 C233 0.959 . S
H232 C233 0.961 . S
C233 C223 1.510 . S
C233 H231 0.959 . S
C233 H232 0.961 . S
C233 H234 0.973 . S
H234 C233 0.973 . S
H235 N215 0.862 . S
O236 Co204 1.920 . S
O236 C209 1.289 . S
C237 O229 1.258 . S
C237 O230 1.266 . S
Co238 O241 1.970 . S
Co238 N255 1.989 . S
Co238 O263 1.967 1_565 S
Co238 O270 1.920 1_565 S
Co239 O242 1.966 . S
Co239 N248 2.022 . S
Co239 N256 1.993 . S
Co239 O264 1.941 . S
C240 O241 1.258 . S
C240 O242 1.263 . S
O241 Co238 1.970 . S
O241 C240 1.258 . S
O242 Co239 1.966 . S
O242 C240 1.263 . S
C243 O244 1.235 1_545 S
C243 O270 1.289 . S
O244 C243 1.235 1_565 S
C245 C247 1.400 . S
C245 N248 1.351 . S
C245 C250 1.501 . S
C246 C247 1.387 1_554 S
C246 N249 1.341 . S
C247 C245 1.400 . S
C247 C246 1.387 1_556 S
N248 Co239 2.022 . S
N248 C245 1.351 . S
N248 N249 1.365 1_556 S
N249 C246 1.341 . S
N249 N248 1.365 1_554 S
N249 H269 0.862 . S
C250 C245 1.501 . S
C250 H251 0.961 . S
C250 H252 0.961 . S
C250 H253 0.960 . S
H251 C250 0.961 . S
H252 C250 0.961 . S
H253 C250 0.960 . S
C254 N255 1.342 . S
C254 C258 1.401 1_556 S
C254 C259 1.499 1_556 S
N255 Co238 1.989 . S
N255 C254 1.342 . S
N255 N256 1.388 . S
N256 Co239 1.993 . S
N256 N255 1.388 . S
N256 C257 1.346 1_556 S
C257 N256 1.346 1_554 S
C257 C258 1.396 . S
C257 C267 1.510 . S
C258 C254 1.401 1_554 S
C258 C257 1.396 . S
C259 C254 1.499 1_554 S
C259 H260 0.960 1_554 S
C259 H261 0.960 1_554 S
C259 H262 0.959 . S
H260 C259 0.960 1_556 S
H261 C259 0.960 1_556 S
H262 C259 0.959 . S
O263 Co238 1.967 1_545 S
O263 C271 1.258 . S
O264 Co239 1.941 . S
O264 C271 1.266 1_565 S
H265 C267 0.959 . S
H266 C267 0.961 . S
C267 C257 1.510 . S
C267 H265 0.959 . S
C267 H266 0.961 . S
C267 H268 0.973 . S
H268 C267 0.973 . S
H269 N249 0.862 . S
O270 Co238 1.920 1_545 S
O270 C243 1.289 . S
C271 O263 1.258 . S
C271 O264 1.266 1_545 S
Co272 O275 1.970 . S
Co272 N289 1.989 . S
Co272 O297 1.967 1_455 S
Co272 O304 1.920 1_455 S
Co273 O276 1.966 . S
Co273 N282 2.022 . S
Co273 N290 1.993 . S
Co273 O298 1.941 . S
C274 O275 1.258 . S
C274 O276 1.263 . S
O275 Co272 1.970 . S
O275 C274 1.258 . S
O276 Co273 1.966 . S
O276 C274 1.263 . S
C277 O278 1.235 1_655 S
C277 O304 1.289 . S
O278 C277 1.235 1_455 S
C279 C281 1.400 . S
C279 N282 1.351 . S
C279 C284 1.501 . S
C280 C281 1.387 1_554 S
C280 N283 1.341 . S
C281 C279 1.400 . S
C281 C280 1.387 1_556 S
N282 Co273 2.022 . S
N282 C279 1.351 . S
N282 N283 1.365 1_556 S
N283 C280 1.341 . S
N283 N282 1.365 1_554 S
N283 H303 0.862 . S
C284 C279 1.501 . S
C284 H285 0.961 . S
C284 H286 0.961 . S
C284 H287 0.960 . S
H285 C284 0.961 . S
H286 C284 0.961 . S
H287 C284 0.960 . S
C288 N289 1.342 . S
C288 C292 1.401 1_556 S
C288 C293 1.499 . S
N289 Co272 1.989 . S
N289 C288 1.342 . S
N289 N290 1.388 . S
N290 Co273 1.993 . S
N290 N289 1.388 . S
N290 C291 1.346 1_556 S
C291 N290 1.346 1_554 S
C291 C292 1.396 . S
C291 C301 1.510 . S
C292 C288 1.401 1_554 S
C292 C291 1.396 . S
C293 C288 1.499 . S
C293 H294 0.957 . S
C293 H295 0.959 . S
C293 H296 0.964 1_556 S
H294 C293 0.957 . S
H295 C293 0.959 . S
H296 C293 0.964 1_554 S
O297 Co272 1.967 1_655 S
O297 C305 1.258 . S
O298 Co273 1.941 . S
O298 C305 1.266 1_455 S
H299 C301 0.959 . S
H300 C301 0.961 . S
C301 C291 1.510 . S
C301 H299 0.959 . S
C301 H300 0.961 . S
C301 H302 0.972 . S
H302 C301 0.972 . S
H303 N283 0.862 . S
O304 Co272 1.920 1_655 S
O304 C277 1.289 . S
C305 O297 1.258 . S
C305 O298 1.266 1_655 S
Co306 O309 1.970 . S
Co306 N323 1.989 . S
Co306 O331 1.967 . S
Co306 O338 1.920 . S
Co307 O310 1.966 . S
Co307 N316 2.022 . S
Co307 N324 1.993 . S
Co307 O332 1.941 . S
C308 O309 1.258 . S
C308 O310 1.263 . S
O309 Co306 1.970 . S
O309 C308 1.258 . S
O310 Co307 1.966 . S
O310 C308 1.263 . S
C311 O312 1.235 . S
C311 O338 1.289 . S
O312 C311 1.235 . S
C313 C315 1.400 . S
C313 N316 1.351 . S
C313 C318 1.501 . S
C314 C315 1.387 . S
C314 N317 1.341 . S
C315 C313 1.400 . S
C315 C314 1.387 . S
N316 Co307 2.022 . S
N316 C313 1.351 . S
N316 N317 1.365 . S
N317 C314 1.341 . S
N317 N316 1.365 . S
N317 H337 0.862 . S
C318 C313 1.501 . S
C318 H319 0.961 . S
C318 H320 0.961 . S
C318 H321 0.960 . S
H319 C318 0.961 . S
H320 C318 0.961 . S
H321 C318 0.960 . S
C322 N323 1.342 . S
C322 C326 1.401 . S
C322 C327 1.499 . S
N323 Co306 1.989 . S
N323 C322 1.342 . S
N323 N324 1.388 . S
N324 Co307 1.993 . S
N324 N323 1.388 . S
N324 C325 1.346 . S
C325 N324 1.346 . S
C325 C326 1.396 . S
C325 C335 1.510 . S
C326 C322 1.401 . S
C326 C325 1.396 . S
C327 C322 1.499 . S
C327 H328 0.959 . S
C327 H329 0.960 . S
C327 H330 0.961 . S
H328 C327 0.959 . S
H329 C327 0.960 . S
H330 C327 0.961 . S
O331 Co306 1.967 . S
O331 C339 1.258 . S
O332 Co307 1.941 . S
O332 C339 1.266 . S
H333 C335 0.959 . S
H334 C335 0.961 . S
C335 C325 1.510 . S
C335 H333 0.959 . S
C335 H334 0.961 . S
C335 H336 0.960 . S
H336 C335 0.960 . S
H337 N317 0.862 . S
O338 Co306 1.920 . S
O338 C311 1.289 . S
C339 O331 1.258 . S
C339 O332 1.266 . S
Co340 O343 1.970 . S
Co340 N357 1.989 . S
Co340 O365 1.967 1_545 S
Co340 O372 1.920 1_545 S
Co341 O344 1.966 . S
Co341 N350 2.022 . S
Co341 N358 1.993 . S
Co341 O366 1.941 . S
C342 O343 1.258 . S
C342 O344 1.263 . S
O343 Co340 1.970 . S
O343 C342 1.258 . S
O344 Co341 1.966 . S
O344 C342 1.263 . S
C345 O346 1.235 1_565 S
C345 O372 1.289 . S
O346 C345 1.235 1_545 S
C347 C349 1.400 . S
C347 N350 1.351 . S
C347 C352 1.501 . S
C348 C349 1.387 . S
C348 N351 1.341 . S
C349 C347 1.400 . S
C349 C348 1.387 . S
N350 Co341 2.022 . S
N350 C347 1.351 . S
N350 N351 1.365 . S
N351 C348 1.341 . S
N351 N350 1.365 . S
N351 H371 0.862 . S
C352 C347 1.501 . S
C352 H353 0.961 . S
C352 H354 0.961 . S
C352 H355 0.960 . S
H353 C352 0.961 . S
H354 C352 0.961 . S
H355 C352 0.960 . S
C356 N357 1.342 . S
C356 C360 1.401 . S
C356 C361 1.499 . S
N357 Co340 1.989 . S
N357 C356 1.342 . S
N357 N358 1.388 . S
N358 Co341 1.993 . S
N358 N357 1.388 . S
N358 C359 1.346 . S
C359 N358 1.346 . S
C359 C360 1.396 . S
C359 C369 1.510 . S
C360 C356 1.401 . S
C360 C359 1.396 . S
C361 C356 1.499 . S
C361 H362 0.959 . S
C361 H363 0.960 . S
C361 H364 0.961 . S
H362 C361 0.959 . S
H363 C361 0.960 . S
H364 C361 0.961 . S
O365 Co340 1.967 1_565 S
O365 C373 1.258 . S
O366 Co341 1.941 . S
O366 C373 1.266 1_545 S
H367 C369 0.959 . S
H368 C369 0.961 . S
C369 C359 1.510 . S
C369 H367 0.959 . S
C369 H368 0.961 . S
C369 H370 0.960 . S
H370 C369 0.960 . S
H371 N351 0.862 . S
O372 Co340 1.920 1_565 S
O372 C345 1.289 . S
C373 O365 1.258 . S
C373 O366 1.266 1_565 S
Co374 O377 1.970 . S
Co374 N391 1.989 . S
Co374 O399 1.967 1_655 S
Co374 O406 1.920 1_655 S
Co375 O378 1.966 . S
Co375 N384 2.022 . S
Co375 N392 1.993 . S
Co375 O400 1.941 . S
C376 O377 1.258 . S
C376 O378 1.263 . S
O377 Co374 1.970 . S
O377 C376 1.258 . S
O378 Co375 1.966 . S
O378 C376 1.263 . S
C379 O380 1.235 1_455 S
C379 O406 1.289 . S
O380 C379 1.235 1_655 S
C381 C383 1.400 . S
C381 N384 1.351 . S
C381 C386 1.501 . S
C382 C383 1.387 . S
C382 N385 1.341 . S
C383 C381 1.400 . S
C383 C382 1.387 . S
N384 Co375 2.022 . S
N384 C381 1.351 . S
N384 N385 1.365 . S
N385 C382 1.341 . S
N385 N384 1.365 . S
N385 H405 0.862 . S
C386 C381 1.501 . S
C386 H387 0.961 . S
C386 H388 0.961 . S
C386 H389 0.960 . S
H387 C386 0.961 . S
H388 C386 0.961 . S
H389 C386 0.960 . S
C390 N391 1.342 . S
C390 C394 1.401 . S
C390 C395 1.499 . S
N391 Co374 1.989 . S
N391 C390 1.342 . S
N391 N392 1.388 . S
N392 Co375 1.993 . S
N392 N391 1.388 . S
N392 C393 1.346 . S
C393 N392 1.346 . S
C393 C394 1.396 . S
C393 C403 1.510 . S
C394 C390 1.401 . S
C394 C393 1.396 . S
C395 C390 1.499 . S
C395 H396 0.959 . S
C395 H397 0.960 . S
C395 H398 0.961 . S
H396 C395 0.959 . S
H397 C395 0.960 . S
H398 C395 0.961 . S
O399 Co374 1.967 1_455 S
O399 C407 1.258 . S
O400 Co375 1.941 . S
O400 C407 1.266 1_655 S
H401 C403 0.959 . S
H402 C403 0.961 . S
C403 C393 1.510 . S
C403 H401 0.959 . S
C403 H402 0.961 . S
C403 H404 0.960 . S
H404 C403 0.960 . S
H405 N385 0.862 . S
O406 Co374 1.920 1_455 S
O406 C379 1.289 . S
C407 O399 1.258 . S
C407 O400 1.266 1_455 S
Co408 O411 1.970 . S
Co408 N425 1.989 . S
Co408 O433 1.967 . S
Co408 O440 1.920 . S
Co409 O412 1.966 . S
Co409 N418 2.022 . S
Co409 N426 1.993 . S
Co409 O434 1.941 . S
C410 O411 1.258 . S
C410 O412 1.263 . S
O411 Co408 1.970 . S
O411 C410 1.258 . S
O412 Co409 1.966 . S
O412 C410 1.263 . S
C413 O414 1.235 . S
C413 O440 1.289 . S
O414 C413 1.235 . S
C415 C417 1.400 . S
C415 N418 1.351 . S
C415 C420 1.501 . S
C416 C417 1.387 . S
C416 N419 1.341 . S
C417 C415 1.400 . S
C417 C416 1.387 . S
N418 Co409 2.022 . S
N418 C415 1.351 . S
N418 N419 1.365 . S
N419 C416 1.341 . S
N419 N418 1.365 . S
N419 H439 0.862 . S
C420 C415 1.501 . S
C420 H421 0.961 . S
C420 H422 0.961 . S
C420 H423 0.960 . S
H421 C420 0.961 . S
H422 C420 0.961 . S
H423 C420 0.960 . S
C424 N425 1.342 . S
C424 C428 1.401 . S
C424 C429 1.499 . S
N425 Co408 1.989 . S
N425 C424 1.342 . S
N425 N426 1.388 . S
N426 Co409 1.993 . S
N426 N425 1.388 . S
N426 C427 1.346 . S
C427 N426 1.346 . S
C427 C428 1.396 . S
C427 C437 1.510 . S
C428 C424 1.401 . S
C428 C427 1.396 . S
C429 C424 1.499 . S
C429 H430 0.959 . S
C429 H431 0.960 . S
C429 H432 0.961 . S
H430 C429 0.959 . S
H431 C429 0.960 . S
H432 C429 0.961 . S
O433 Co408 1.967 . S
O433 C441 1.258 . S
O434 Co409 1.941 . S
O434 C441 1.266 . S
H435 C437 0.959 . S
H436 C437 0.961 . S
C437 C427 1.510 . S
C437 H435 0.959 . S
C437 H436 0.961 . S
C437 H438 0.960 . S
H438 C437 0.960 . S
H439 N419 0.862 . S
O440 Co408 1.920 . S
O440 C413 1.289 . S
C441 O433 1.258 . S
C441 O434 1.266 . S
Co442 O445 1.970 . S
Co442 N459 1.989 . S
Co442 O467 1.967 . S
Co442 O474 1.920 . S
Co443 O446 1.966 . S
Co443 N452 2.022 . S
Co443 N460 1.993 . S
Co443 O468 1.941 . S
C444 O445 1.258 . S
C444 O446 1.263 . S
O445 Co442 1.970 . S
O445 C444 1.258 . S
O446 Co443 1.966 . S
O446 C444 1.263 . S
C447 O448 1.235 . S
C447 O474 1.289 . S
O448 C447 1.235 . S
C449 C451 1.400 . S
C449 N452 1.351 . S
C449 C454 1.501 . S
C450 C451 1.387 . S
C450 N453 1.341 . S
C451 C449 1.400 . S
C451 C450 1.387 . S
N452 Co443 2.022 . S
N452 C449 1.351 . S
N452 N453 1.365 . S
N453 C450 1.341 . S
N453 N452 1.365 . S
N453 H473 0.862 . S
C454 C449 1.501 . S
C454 H455 0.961 . S
C454 H456 0.961 . S
C454 H457 0.960 . S
H455 C454 0.961 . S
H456 C454 0.961 . S
H457 C454 0.960 . S
C458 N459 1.342 . S
C458 C462 1.401 . S
C458 C463 1.499 . S
N459 Co442 1.989 . S
N459 C458 1.342 . S
N459 N460 1.388 . S
N460 Co443 1.993 . S
N460 N459 1.388 . S
N460 C461 1.346 . S
C461 N460 1.346 . S
C461 C462 1.396 . S
C461 C471 1.510 . S
C462 C458 1.401 . S
C462 C461 1.396 . S
C463 C458 1.499 . S
C463 H464 0.959 . S
C463 H465 0.960 . S
C463 H466 0.961 . S
H464 C463 0.959 . S
H465 C463 0.960 . S
H466 C463 0.961 . S
O467 Co442 1.967 . S
O467 C475 1.258 . S
O468 Co443 1.941 . S
O468 C475 1.266 . S
H469 C471 0.959 . S
H470 C471 0.961 . S
C471 C461 1.510 . S
C471 H469 0.959 . S
C471 H470 0.961 . S
C471 H472 0.960 . S
H472 C471 0.960 . S
H473 N453 0.862 . S
O474 Co442 1.920 . S
O474 C447 1.289 . S
C475 O467 1.258 . S
C475 O468 1.266 . S
Co476 O479 1.970 . S
Co476 N493 1.989 . S
Co476 O501 1.967 . S
Co476 O508 1.920 . S
Co477 O480 1.966 . S
Co477 N486 2.022 . S
Co477 N494 1.993 . S
Co477 O502 1.941 . S
C478 O479 1.258 . S
C478 O480 1.263 . S
O479 Co476 1.970 . S
O479 C478 1.258 . S
O480 Co477 1.966 . S
O480 C478 1.263 . S
C481 O482 1.235 . S
C481 O508 1.289 . S
O482 C481 1.235 . S
C483 C485 1.400 . S
C483 N486 1.351 . S
C483 C488 1.501 . S
C484 C485 1.387 . S
C484 N487 1.341 . S
C485 C483 1.400 . S
C485 C484 1.387 . S
N486 Co477 2.022 . S
N486 C483 1.351 . S
N486 N487 1.365 . S
N487 C484 1.341 . S
N487 N486 1.365 . S
N487 H507 0.862 . S
C488 C483 1.501 . S
C488 H489 0.961 . S
C488 H490 0.961 . S
C488 H491 0.960 . S
H489 C488 0.961 . S
H490 C488 0.961 . S
H491 C488 0.960 . S
C492 N493 1.342 . S
C492 C496 1.401 . S
C492 C497 1.499 . S
N493 Co476 1.989 . S
N493 C492 1.342 . S
N493 N494 1.388 . S
N494 Co477 1.993 . S
N494 N493 1.388 . S
N494 C495 1.346 . S
C495 N494 1.346 . S
C495 C496 1.396 . S
C495 C505 1.510 . S
C496 C492 1.401 . S
C496 C495 1.396 . S
C497 C492 1.499 . S
C497 H498 0.959 . S
C497 H499 0.960 . S
C497 H500 0.961 . S
H498 C497 0.959 . S
H499 C497 0.960 . S
H500 C497 0.961 . S
O501 Co476 1.967 . S
O501 C509 1.258 . S
O502 Co477 1.941 . S
O502 C509 1.266 . S
H503 C505 0.959 . S
H504 C505 0.961 . S
C505 C495 1.510 . S
C505 H503 0.959 . S
C505 H504 0.961 . S
C505 H506 0.960 . S
H506 C505 0.960 . S
H507 N487 0.862 . S
O508 Co476 1.920 . S
O508 C481 1.289 . S
C509 O501 1.258 . S
C509 O502 1.266 . S
Co510 O513 1.970 . S
Co510 N527 1.989 . S
Co510 O535 1.967 . S
Co510 O542 1.920 . S
Co511 O514 1.966 . S
Co511 N520 2.022 . S
Co511 N528 1.993 . S
Co511 O536 1.941 . S
C512 O513 1.258 . S
C512 O514 1.263 . S
O513 Co510 1.970 . S
O513 C512 1.258 . S
O514 Co511 1.966 . S
O514 C512 1.263 . S
C515 O516 1.235 . S
C515 O542 1.289 . S
O516 C515 1.235 . S
C517 C519 1.400 . S
C517 N520 1.351 . S
C517 C522 1.501 . S
C518 C519 1.387 . S
C518 N521 1.341 . S
C519 C517 1.400 . S
C519 C518 1.387 . S
N520 Co511 2.022 . S
N520 C517 1.351 . S
N520 N521 1.365 . S
N521 C518 1.341 . S
N521 N520 1.365 . S
N521 H541 0.862 . S
C522 C517 1.501 . S
C522 H523 0.961 . S
C522 H524 0.961 . S
C522 H525 0.960 . S
H523 C522 0.961 . S
H524 C522 0.961 . S
H525 C522 0.960 . S
C526 N527 1.342 . S
C526 C530 1.401 . S
C526 C531 1.499 . S
N527 Co510 1.989 . S
N527 C526 1.342 . S
N527 N528 1.388 . S
N528 Co511 1.993 . S
N528 N527 1.388 . S
N528 C529 1.346 . S
C529 N528 1.346 . S
C529 C530 1.396 . S
C529 C539 1.510 . S
C530 C526 1.401 . S
C530 C529 1.396 . S
C531 C526 1.499 . S
C531 H532 0.959 . S
C531 H533 0.960 . S
C531 H534 0.961 . S
H532 C531 0.959 . S
H533 C531 0.960 . S
H534 C531 0.961 . S
O535 Co510 1.967 . S
O535 C543 1.258 . S
O536 Co511 1.941 . S
O536 C543 1.266 . S
H537 C539 0.959 . S
H538 C539 0.961 . S
C539 C529 1.510 . S
C539 H537 0.959 . S
C539 H538 0.961 . S
C539 H540 0.960 . S
H540 C539 0.960 . S
H541 N521 0.862 . S
O542 Co510 1.920 . S
O542 C515 1.289 . S
C543 O535 1.258 . S
C543 O536 1.266 . S
Co544 O547 1.970 . S
Co544 N561 1.989 . S
Co544 O569 1.967 . S
Co544 O576 1.920 . S
Co545 O548 1.966 . S
Co545 N554 2.022 . S
Co545 N562 1.993 . S
Co545 O570 1.941 . S
C546 O547 1.258 . S
C546 O548 1.263 . S
O547 Co544 1.970 . S
O547 C546 1.258 . S
O548 Co545 1.966 . S
O548 C546 1.263 . S
C549 O550 1.235 . S
C549 O576 1.289 . S
O550 C549 1.235 . S
C551 C553 1.400 . S
C551 N554 1.351 . S
C551 C556 1.501 . S
C552 C553 1.387 . S
C552 N555 1.341 . S
C553 C551 1.400 . S
C553 C552 1.387 . S
N554 Co545 2.022 . S
N554 C551 1.351 . S
N554 N555 1.365 . S
N555 C552 1.341 . S
N555 N554 1.365 . S
N555 H575 0.862 . S
C556 C551 1.501 . S
C556 H557 0.961 . S
C556 H558 0.961 . S
C556 H559 0.960 . S
H557 C556 0.961 . S
H558 C556 0.961 . S
H559 C556 0.960 . S
C560 N561 1.342 . S
C560 C564 1.401 . S
C560 C565 1.499 . S
N561 Co544 1.989 . S
N561 C560 1.342 . S
N561 N562 1.388 . S
N562 Co545 1.993 . S
N562 N561 1.388 . S
N562 C563 1.346 . S
C563 N562 1.346 . S
C563 C564 1.396 . S
C563 C573 1.510 . S
C564 C560 1.401 . S
C564 C563 1.396 . S
C565 C560 1.499 . S
C565 H566 0.959 . S
C565 H567 0.960 . S
C565 H568 0.961 . S
H566 C565 0.959 . S
H567 C565 0.960 . S
H568 C565 0.961 . S
O569 Co544 1.967 . S
O569 C577 1.258 . S
O570 Co545 1.941 . S
O570 C577 1.266 . S
H571 C573 0.959 . S
H572 C573 0.961 . S
C573 C563 1.510 . S
C573 H571 0.959 . S
C573 H572 0.961 . S
C573 H574 0.960 . S
H574 C573 0.960 . S
H575 N555 0.862 . S
O576 Co544 1.920 . S
O576 C549 1.289 . S
C577 O569 1.258 . S
C577 O570 1.266 . S
Co578 O581 1.970 . S
Co578 N595 1.989 . S
Co578 O603 1.967 . S
Co578 O610 1.920 . S
Co579 O582 1.966 . S
Co579 N588 2.022 . S
Co579 N596 1.993 . S
Co579 O604 1.941 . S
C580 O581 1.258 . S
C580 O582 1.263 . S
O581 Co578 1.970 . S
O581 C580 1.258 . S
O582 Co579 1.966 . S
O582 C580 1.263 . S
C583 O584 1.235 . S
C583 O610 1.289 . S
O584 C583 1.235 . S
C585 C587 1.400 . S
C585 N588 1.351 . S
C585 C590 1.501 . S
C586 C587 1.387 . S
C586 N589 1.341 . S
C587 C585 1.400 . S
C587 C586 1.387 . S
N588 Co579 2.022 . S
N588 C585 1.351 . S
N588 N589 1.365 . S
N589 C586 1.341 . S
N589 N588 1.365 . S
N589 H609 0.862 . S
C590 C585 1.501 . S
C590 H591 0.961 . S
C590 H592 0.961 . S
C590 H593 0.960 . S
H591 C590 0.961 . S
H592 C590 0.961 . S
H593 C590 0.960 . S
C594 N595 1.342 . S
C594 C598 1.401 . S
C594 C599 1.499 . S
N595 Co578 1.989 . S
N595 C594 1.342 . S
N595 N596 1.388 . S
N596 Co579 1.993 . S
N596 N595 1.388 . S
N596 C597 1.346 . S
C597 N596 1.346 . S
C597 C598 1.396 . S
C597 C607 1.510 . S
C598 C594 1.401 . S
C598 C597 1.396 . S
C599 C594 1.499 . S
C599 H600 0.959 . S
C599 H601 0.960 . S
C599 H602 0.961 . S
H600 C599 0.959 . S
H601 C599 0.960 . S
H602 C599 0.961 . S
O603 Co578 1.967 . S
O603 C611 1.258 . S
O604 Co579 1.941 . S
O604 C611 1.266 . S
H605 C607 0.959 . S
H606 C607 0.961 . S
C607 C597 1.510 . S
C607 H605 0.959 . S
C607 H606 0.961 . S
C607 H608 0.960 . S
H608 C607 0.960 . S
H609 N589 0.862 . S
O610 Co578 1.920 . S
O610 C583 1.289 . S
C611 O603 1.258 . S
C611 O604 1.266 . S
Co612 O615 1.970 . S
Co612 N629 1.989 . S
Co612 O637 1.967 . S
Co612 O644 1.920 . S
Co613 O616 1.966 . S
Co613 N622 2.022 . S
Co613 N630 1.993 . S
Co613 O638 1.941 . S
C614 O615 1.258 . S
C614 O616 1.263 . S
O615 Co612 1.970 . S
O615 C614 1.258 . S
O616 Co613 1.966 . S
O616 C614 1.263 . S
C617 O618 1.235 . S
C617 O644 1.289 . S
O618 C617 1.235 . S
C619 C621 1.400 . S
C619 N622 1.351 . S
C619 C624 1.501 . S
C620 C621 1.387 . S
C620 N623 1.341 . S
C621 C619 1.400 . S
C621 C620 1.387 . S
N622 Co613 2.022 . S
N622 C619 1.351 . S
N622 N623 1.365 . S
N623 C620 1.341 . S
N623 N622 1.365 . S
N623 H643 0.862 . S
C624 C619 1.501 . S
C624 H625 0.961 . S
C624 H626 0.961 . S
C624 H627 0.960 . S
H625 C624 0.961 . S
H626 C624 0.961 . S
H627 C624 0.960 . S
C628 N629 1.342 . S
C628 C632 1.401 . S
C628 C633 1.499 . S
N629 Co612 1.989 . S
N629 C628 1.342 . S
N629 N630 1.388 . S
N630 Co613 1.993 . S
N630 N629 1.388 . S
N630 C631 1.346 . S
C631 N630 1.346 . S
C631 C632 1.396 . S
C631 C641 1.510 . S
C632 C628 1.401 . S
C632 C631 1.396 . S
C633 C628 1.499 . S
C633 H634 0.959 . S
C633 H635 0.960 . S
C633 H636 0.961 . S
H634 C633 0.959 . S
H635 C633 0.960 . S
H636 C633 0.961 . S
O637 Co612 1.967 . S
O637 C645 1.258 . S
O638 Co613 1.941 . S
O638 C645 1.266 . S
H639 C641 0.959 . S
H640 C641 0.961 . S
C641 C631 1.510 . S
C641 H639 0.959 . S
C641 H640 0.961 . S
C641 H642 0.960 . S
H642 C641 0.960 . S
H643 N623 0.862 . S
O644 Co612 1.920 . S
O644 C617 1.289 . S
C645 O637 1.258 . S
C645 O638 1.266 . S
Co646 O649 1.970 . S
Co646 N663 1.989 . S
Co646 O671 1.967 . S
Co646 O678 1.920 . S
Co647 O650 1.966 . S
Co647 N656 2.022 . S
Co647 N664 1.993 . S
Co647 O672 1.941 . S
C648 O649 1.258 . S
C648 O650 1.263 . S
O649 Co646 1.970 . S
O649 C648 1.258 . S
O650 Co647 1.966 . S
O650 C648 1.263 . S
C651 O652 1.235 . S
C651 O678 1.289 . S
O652 C651 1.235 . S
C653 C655 1.400 . S
C653 N656 1.351 . S
C653 C658 1.501 . S
C654 C655 1.387 . S
C654 N657 1.341 . S
C655 C653 1.400 . S
C655 C654 1.387 . S
N656 Co647 2.022 . S
N656 C653 1.351 . S
N656 N657 1.365 . S
N657 C654 1.341 . S
N657 N656 1.365 . S
N657 H677 0.862 . S
C658 C653 1.501 . S
C658 H659 0.961 . S
C658 H660 0.961 . S
C658 H661 0.960 . S
H659 C658 0.961 . S
H660 C658 0.961 . S
H661 C658 0.960 . S
C662 N663 1.342 . S
C662 C666 1.401 . S
C662 C667 1.499 . S
N663 Co646 1.989 . S
N663 C662 1.342 . S
N663 N664 1.388 . S
N664 Co647 1.993 . S
N664 N663 1.388 . S
N664 C665 1.346 . S
C665 N664 1.346 . S
C665 C666 1.396 . S
C665 C675 1.510 . S
C666 C662 1.401 . S
C666 C665 1.396 . S
C667 C662 1.499 . S
C667 H668 0.959 . S
C667 H669 0.960 . S
C667 H670 0.961 . S
H668 C667 0.959 . S
H669 C667 0.960 . S
H670 C667 0.961 . S
O671 Co646 1.967 . S
O671 C679 1.258 . S
O672 Co647 1.941 . S
O672 C679 1.266 . S
H673 C675 0.959 . S
H674 C675 0.961 . S
C675 C665 1.510 . S
C675 H673 0.959 . S
C675 H674 0.961 . S
C675 H676 0.960 . S
H676 C675 0.960 . S
H677 N657 0.862 . S
O678 Co646 1.920 . S
O678 C651 1.289 . S
C679 O671 1.258 . S
C679 O672 1.266 . S
Co680 O683 1.970 . S
Co680 N697 1.989 . S
Co680 O705 1.967 . S
Co680 O712 1.920 . S
Co681 O684 1.966 . S
Co681 N690 2.022 . S
Co681 N698 1.993 . S
Co681 O706 1.941 . S
C682 O683 1.258 . S
C682 O684 1.263 . S
O683 Co680 1.970 . S
O683 C682 1.258 . S
O684 Co681 1.966 . S
O684 C682 1.263 . S
C685 O686 1.235 . S
C685 O712 1.289 . S
O686 C685 1.235 . S
C687 C689 1.400 . S
C687 N690 1.351 . S
C687 C692 1.501 . S
C688 C689 1.387 . S
C688 N691 1.341 . S
C689 C687 1.400 . S
C689 C688 1.387 . S
N690 Co681 2.022 . S
N690 C687 1.351 . S
N690 N691 1.365 . S
N691 C688 1.341 . S
N691 N690 1.365 . S
N691 H711 0.862 . S
C692 C687 1.501 . S
C692 H693 0.961 . S
C692 H694 0.961 . S
C692 H695 0.960 . S
H693 C692 0.961 . S
H694 C692 0.961 . S
H695 C692 0.960 . S
C696 N697 1.342 . S
C696 C700 1.401 . S
C696 C701 1.499 . S
N697 Co680 1.989 . S
N697 C696 1.342 . S
N697 N698 1.388 . S
N698 Co681 1.993 . S
N698 N697 1.388 . S
N698 C699 1.346 . S
C699 N698 1.346 . S
C699 C700 1.396 . S
C699 C709 1.510 . S
C700 C696 1.401 . S
C700 C699 1.396 . S
C701 C696 1.499 . S
C701 H702 0.959 . S
C701 H703 0.960 . S
C701 H704 0.961 . S
H702 C701 0.959 . S
H703 C701 0.960 . S
H704 C701 0.961 . S
O705 Co680 1.967 . S
O705 C713 1.258 . S
O706 Co681 1.941 . S
O706 C713 1.266 . S
H707 C709 0.959 . S
H708 C709 0.961 . S
C709 C699 1.510 . S
C709 H707 0.959 . S
C709 H708 0.961 . S
C709 H710 0.960 . S
H710 C709 0.960 . S
H711 N691 0.862 . S
O712 Co680 1.920 . S
O712 C685 1.289 . S
C713 O705 1.258 . S
C713 O706 1.266 . S
Co714 O717 1.970 . S
Co714 N731 1.989 . S
Co714 O739 1.967 . S
Co714 O746 1.920 . S
Co715 O718 1.966 . S
Co715 N724 2.022 . S
Co715 N732 1.993 . S
Co715 O740 1.941 . S
C716 O717 1.258 . S
C716 O718 1.263 . S
O717 Co714 1.970 . S
O717 C716 1.258 . S
O718 Co715 1.966 . S
O718 C716 1.263 . S
C719 O720 1.235 . S
C719 O746 1.289 . S
O720 C719 1.235 . S
C721 C723 1.400 . S
C721 N724 1.351 . S
C721 C726 1.501 . S
C722 C723 1.387 . S
C722 N725 1.341 . S
C723 C721 1.400 . S
C723 C722 1.387 . S
N724 Co715 2.022 . S
N724 C721 1.351 . S
N724 N725 1.365 . S
N725 C722 1.341 . S
N725 N724 1.365 . S
N725 H745 0.862 . S
C726 C721 1.501 . S
C726 H727 0.961 . S
C726 H728 0.961 . S
C726 H729 0.960 . S
H727 C726 0.961 . S
H728 C726 0.961 . S
H729 C726 0.960 . S
C730 N731 1.342 . S
C730 C734 1.401 . S
C730 C735 1.499 . S
N731 Co714 1.989 . S
N731 C730 1.342 . S
N731 N732 1.388 . S
N732 Co715 1.993 . S
N732 N731 1.388 . S
N732 C733 1.346 . S
C733 N732 1.346 . S
C733 C734 1.396 . S
C733 C743 1.510 . S
C734 C730 1.401 . S
C734 C733 1.396 . S
C735 C730 1.499 . S
C735 H736 0.959 . S
C735 H737 0.960 . S
C735 H738 0.961 . S
H736 C735 0.959 . S
H737 C735 0.960 . S
H738 C735 0.961 . S
O739 Co714 1.967 . S
O739 C747 1.258 . S
O740 Co715 1.941 . S
O740 C747 1.266 . S
H741 C743 0.959 . S
H742 C743 0.961 . S
C743 C733 1.510 . S
C743 H741 0.959 . S
C743 H742 0.961 . S
C743 H744 0.960 . S
H744 C743 0.960 . S
H745 N725 0.862 . S
O746 Co714 1.920 . S
O746 C719 1.289 . S
C747 O739 1.258 . S
C747 O740 1.266 . S
Co748 O751 1.970 . S
Co748 N765 1.989 . S
Co748 O773 1.967 . S
Co748 O780 1.920 . S
Co749 O752 1.966 . S
Co749 N758 2.022 . S
Co749 N766 1.993 . S
Co749 O774 1.941 . S
C750 O751 1.258 . S
C750 O752 1.263 . S
O751 Co748 1.970 . S
O751 C750 1.258 . S
O752 Co749 1.966 . S
O752 C750 1.263 . S
C753 O754 1.235 . S
C753 O780 1.289 . S
O754 C753 1.235 . S
C755 C757 1.400 . S
C755 N758 1.351 . S
C755 C760 1.501 . S
C756 C757 1.387 . S
C756 N759 1.341 . S
C757 C755 1.400 . S
C757 C756 1.387 . S
N758 Co749 2.022 . S
N758 C755 1.351 . S
N758 N759 1.365 . S
N759 C756 1.341 . S
N759 N758 1.365 . S
N759 H779 0.862 . S
C760 C755 1.501 . S
C760 H761 0.961 . S
C760 H762 0.961 . S
C760 H763 0.960 . S
H761 C760 0.961 . S
H762 C760 0.961 . S
H763 C760 0.960 . S
C764 N765 1.342 . S
C764 C768 1.401 . S
C764 C769 1.499 . S
N765 Co748 1.989 . S
N765 C764 1.342 . S
N765 N766 1.388 . S
N766 Co749 1.993 . S
N766 N765 1.388 . S
N766 C767 1.346 . S
C767 N766 1.346 . S
C767 C768 1.396 . S
C767 C777 1.510 . S
C768 C764 1.401 . S
C768 C767 1.396 . S
C769 C764 1.499 . S
C769 H770 0.959 . S
C769 H771 0.960 . S
C769 H772 0.961 . S
H770 C769 0.959 . S
H771 C769 0.960 . S
H772 C769 0.961 . S
O773 Co748 1.967 . S
O773 C781 1.258 . S
O774 Co749 1.941 . S
O774 C781 1.266 . S
H775 C777 0.959 . S
H776 C777 0.961 . S
C777 C767 1.510 . S
C777 H775 0.959 . S
C777 H776 0.961 . S
C777 H778 0.960 . S
H778 C777 0.960 . S
H779 N759 0.862 . S
O780 Co748 1.920 . S
O780 C753 1.289 . S
C781 O773 1.258 . S
C781 O774 1.266 . S
Co782 O785 1.970 . S
Co782 N799 1.989 . S
Co782 O807 1.967 . S
Co782 O814 1.920 . S
Co783 O786 1.966 . S
Co783 N792 2.022 . S
Co783 N800 1.993 . S
Co783 O808 1.941 . S
C784 O785 1.258 . S
C784 O786 1.263 . S
O785 Co782 1.970 . S
O785 C784 1.258 . S
O786 Co783 1.966 . S
O786 C784 1.263 . S
C787 O788 1.235 . S
C787 O814 1.289 . S
O788 C787 1.235 . S
C789 C791 1.400 . S
C789 N792 1.351 . S
C789 C794 1.501 . S
C790 C791 1.387 . S
C790 N793 1.341 . S
C791 C789 1.400 . S
C791 C790 1.387 . S
N792 Co783 2.022 . S
N792 C789 1.351 . S
N792 N793 1.365 . S
N793 C790 1.341 . S
N793 N792 1.365 . S
N793 H813 0.862 . S
C794 C789 1.501 . S
C794 H795 0.961 . S
C794 H796 0.961 . S
C794 H797 0.960 . S
H795 C794 0.961 . S
H796 C794 0.961 . S
H797 C794 0.960 . S
C798 N799 1.342 . S
C798 C802 1.401 . S
C798 C803 1.499 . S
N799 Co782 1.989 . S
N799 C798 1.342 . S
N799 N800 1.388 . S
N800 Co783 1.993 . S
N800 N799 1.388 . S
N800 C801 1.346 . S
C801 N800 1.346 . S
C801 C802 1.396 . S
C801 C811 1.510 . S
C802 C798 1.401 . S
C802 C801 1.396 . S
C803 C798 1.499 . S
C803 H804 0.959 . S
C803 H805 0.960 . S
C803 H806 0.961 . S
H804 C803 0.959 . S
H805 C803 0.960 . S
H806 C803 0.961 . S
O807 Co782 1.967 . S
O807 C815 1.258 . S
O808 Co783 1.941 . S
O808 C815 1.266 . S
H809 C811 0.959 . S
H810 C811 0.961 . S
C811 C801 1.510 . S
C811 H809 0.959 . S
C811 H810 0.961 . S
C811 H812 0.960 . S
H812 C811 0.960 . S
H813 N793 0.862 . S
O814 Co782 1.920 . S
O814 C787 1.289 . S
C815 O807 1.258 . S
C815 O808 1.266 . S
Co816 O819 1.970 . S
Co816 N833 1.989 . S
Co816 O841 1.967 . S
Co816 O848 1.920 . S
Co817 O820 1.966 . S
Co817 N826 2.022 . S
Co817 N834 1.993 . S
Co817 O842 1.941 . S
C818 O819 1.258 . S
C818 O820 1.263 . S
O819 Co816 1.970 . S
O819 C818 1.258 . S
O820 Co817 1.966 . S
O820 C818 1.263 . S
C821 O822 1.235 . S
C821 O848 1.289 . S
O822 C821 1.235 . S
C823 C825 1.400 . S
C823 N826 1.351 . S
C823 C828 1.501 . S
C824 C825 1.387 . S
C824 N827 1.341 . S
C825 C823 1.400 . S
C825 C824 1.387 . S
N826 Co817 2.022 . S
N826 C823 1.351 . S
N826 N827 1.365 . S
N827 C824 1.341 . S
N827 N826 1.365 . S
N827 H847 0.862 . S
C828 C823 1.501 . S
C828 H829 0.961 . S
C828 H830 0.961 . S
C828 H831 0.960 . S
H829 C828 0.961 . S
H830 C828 0.961 . S
H831 C828 0.960 . S
C832 N833 1.342 . S
C832 C836 1.401 . S
C832 C837 1.499 . S
N833 Co816 1.989 . S
N833 C832 1.342 . S
N833 N834 1.388 . S
N834 Co817 1.993 . S
N834 N833 1.388 . S
N834 C835 1.346 . S
C835 N834 1.346 . S
C835 C836 1.396 . S
C835 C845 1.510 . S
C836 C832 1.401 . S
C836 C835 1.396 . S
C837 C832 1.499 . S
C837 H838 0.959 . S
C837 H839 0.960 . S
C837 H840 0.961 . S
H838 C837 0.959 . S
H839 C837 0.960 . S
H840 C837 0.961 . S
O841 Co816 1.967 . S
O841 C849 1.258 . S
O842 Co817 1.941 . S
O842 C849 1.266 . S
H843 C845 0.959 . S
H844 C845 0.961 . S
C845 C835 1.510 . S
C845 H843 0.959 . S
C845 H844 0.961 . S
C845 H846 0.960 . S
H846 C845 0.960 . S
H847 N827 0.862 . S
O848 Co816 1.920 . S
O848 C821 1.289 . S
C849 O841 1.258 . S
C849 O842 1.266 . S
Co850 O853 1.970 . S
Co850 N867 1.989 . S
Co850 O875 1.967 . S
Co850 O882 1.920 . S
Co851 O854 1.966 . S
Co851 N860 2.022 . S
Co851 N868 1.993 . S
Co851 O876 1.941 . S
C852 O853 1.258 . S
C852 O854 1.263 . S
O853 Co850 1.970 . S
O853 C852 1.258 . S
O854 Co851 1.966 . S
O854 C852 1.263 . S
C855 O856 1.235 . S
C855 O882 1.289 . S
O856 C855 1.235 . S
C857 C859 1.400 . S
C857 N860 1.351 . S
C857 C862 1.501 . S
C858 C859 1.387 . S
C858 N861 1.341 . S
C859 C857 1.400 . S
C859 C858 1.387 . S
N860 Co851 2.022 . S
N860 C857 1.351 . S
N860 N861 1.365 . S
N861 C858 1.341 . S
N861 N860 1.365 . S
N861 H881 0.862 . S
C862 C857 1.501 . S
C862 H863 0.961 . S
C862 H864 0.961 . S
C862 H865 0.960 . S
H863 C862 0.961 . S
H864 C862 0.961 . S
H865 C862 0.960 . S
C866 N867 1.342 . S
C866 C870 1.401 . S
C866 C871 1.499 . S
N867 Co850 1.989 . S
N867 C866 1.342 . S
N867 N868 1.388 . S
N868 Co851 1.993 . S
N868 N867 1.388 . S
N868 C869 1.346 . S
C869 N868 1.346 . S
C869 C870 1.396 . S
C869 C879 1.510 . S
C870 C866 1.401 . S
C870 C869 1.396 . S
C871 C866 1.499 . S
C871 H872 0.959 . S
C871 H873 0.960 . S
C871 H874 0.961 . S
H872 C871 0.959 . S
H873 C871 0.960 . S
H874 C871 0.961 . S
O875 Co850 1.967 . S
O875 C883 1.258 . S
O876 Co851 1.941 . S
O876 C883 1.266 . S
H877 C879 0.959 . S
H878 C879 0.961 . S
C879 C869 1.510 . S
C879 H877 0.959 . S
C879 H878 0.961 . S
C879 H880 0.960 . S
H880 C879 0.960 . S
H881 N861 0.862 . S
O882 Co850 1.920 . S
O882 C855 1.289 . S
C883 O875 1.258 . S
C883 O876 1.266 . S
Co884 O887 1.970 . S
Co884 N901 1.989 . S
Co884 O909 1.967 . S
Co884 O916 1.920 . S
Co885 O888 1.966 . S
Co885 N894 2.022 . S
Co885 N902 1.993 . S
Co885 O910 1.941 . S
C886 O887 1.258 . S
C886 O888 1.263 . S
O887 Co884 1.970 . S
O887 C886 1.258 . S
O888 Co885 1.966 . S
O888 C886 1.263 . S
C889 O890 1.235 . S
C889 O916 1.289 . S
O890 C889 1.235 . S
C891 C893 1.400 . S
C891 N894 1.351 . S
C891 C896 1.501 . S
C892 C893 1.387 . S
C892 N895 1.341 . S
C893 C891 1.400 . S
C893 C892 1.387 . S
N894 Co885 2.022 . S
N894 C891 1.351 . S
N894 N895 1.365 . S
N895 C892 1.341 . S
N895 N894 1.365 . S
N895 H915 0.862 . S
C896 C891 1.501 . S
C896 H897 0.961 . S
C896 H898 0.961 . S
C896 H899 0.960 . S
H897 C896 0.961 . S
H898 C896 0.961 . S
H899 C896 0.960 . S
C900 N901 1.342 . S
C900 C904 1.401 . S
C900 C905 1.499 . S
N901 Co884 1.989 . S
N901 C900 1.342 . S
N901 N902 1.388 . S
N902 Co885 1.993 . S
N902 N901 1.388 . S
N902 C903 1.346 . S
C903 N902 1.346 . S
C903 C904 1.396 . S
C903 C913 1.510 . S
C904 C900 1.401 . S
C904 C903 1.396 . S
C905 C900 1.499 . S
C905 H906 0.959 . S
C905 H907 0.960 . S
C905 H908 0.961 . S
H906 C905 0.959 . S
H907 C905 0.960 . S
H908 C905 0.961 . S
O909 Co884 1.967 . S
O909 C917 1.258 . S
O910 Co885 1.941 . S
O910 C917 1.266 . S
H911 C913 0.959 . S
H912 C913 0.961 . S
C913 C903 1.510 . S
C913 H911 0.959 . S
C913 H912 0.961 . S
C913 H914 0.960 . S
H914 C913 0.960 . S
H915 N895 0.862 . S
O916 Co884 1.920 . S
O916 C889 1.289 . S
C917 O909 1.258 . S
C917 O910 1.266 . S
Co918 O921 1.970 . S
Co918 N935 1.989 . S
Co918 O943 1.967 . S
Co918 O950 1.920 . S
Co919 O922 1.966 . S
Co919 N928 2.022 . S
Co919 N936 1.993 . S
Co919 O944 1.941 . S
C920 O921 1.258 . S
C920 O922 1.263 . S
O921 Co918 1.970 . S
O921 C920 1.258 . S
O922 Co919 1.966 . S
O922 C920 1.263 . S
C923 O924 1.235 . S
C923 O950 1.289 . S
O924 C923 1.235 . S
C925 C927 1.400 . S
C925 N928 1.351 . S
C925 C930 1.501 . S
C926 C927 1.387 . S
C926 N929 1.341 . S
C927 C925 1.400 . S
C927 C926 1.387 . S
N928 Co919 2.022 . S
N928 C925 1.351 . S
N928 N929 1.365 . S
N929 C926 1.341 . S
N929 N928 1.365 . S
N929 H949 0.862 . S
C930 C925 1.501 . S
C930 H931 0.961 . S
C930 H932 0.961 . S
C930 H933 0.960 . S
H931 C930 0.961 . S
H932 C930 0.961 . S
H933 C930 0.960 . S
C934 N935 1.342 . S
C934 C938 1.401 . S
C934 C939 1.499 . S
N935 Co918 1.989 . S
N935 C934 1.342 . S
N935 N936 1.388 . S
N936 Co919 1.993 . S
N936 N935 1.388 . S
N936 C937 1.346 . S
C937 N936 1.346 . S
C937 C938 1.396 . S
C937 C947 1.510 . S
C938 C934 1.401 . S
C938 C937 1.396 . S
C939 C934 1.499 . S
C939 H940 0.959 . S
C939 H941 0.960 . S
C939 H942 0.961 . S
H940 C939 0.959 . S
H941 C939 0.960 . S
H942 C939 0.961 . S
O943 Co918 1.967 . S
O943 C951 1.258 . S
O944 Co919 1.941 . S
O944 C951 1.266 . S
H945 C947 0.959 . S
H946 C947 0.961 . S
C947 C937 1.510 . S
C947 H945 0.959 . S
C947 H946 0.961 . S
C947 H948 0.960 . S
H948 C947 0.960 . S
H949 N929 0.862 . S
O950 Co918 1.920 . S
O950 C923 1.289 . S
C951 O943 1.258 . S
C951 O944 1.266 . S
Co952 O955 1.970 . S
Co952 N969 1.989 . S
Co952 O977 1.967 . S
Co952 O984 1.920 . S
Co953 O956 1.966 . S
Co953 N962 2.022 . S
Co953 N970 1.993 . S
Co953 O978 1.941 . S
C954 O955 1.258 . S
C954 O956 1.263 . S
O955 Co952 1.970 . S
O955 C954 1.258 . S
O956 Co953 1.966 . S
O956 C954 1.263 . S
C957 O958 1.235 . S
C957 O984 1.289 . S
O958 C957 1.235 . S
C959 C961 1.400 . S
C959 N962 1.351 . S
C959 C964 1.501 . S
C960 C961 1.387 . S
C960 N963 1.341 . S
C961 C959 1.400 . S
C961 C960 1.387 . S
N962 Co953 2.022 . S
N962 C959 1.351 . S
N962 N963 1.365 . S
N963 C960 1.341 . S
N963 N962 1.365 . S
N963 H983 0.862 . S
C964 C959 1.501 . S
C964 H965 0.961 . S
C964 H966 0.961 . S
C964 H967 0.960 . S
H965 C964 0.961 . S
H966 C964 0.961 . S
H967 C964 0.960 . S
C968 N969 1.342 . S
C968 C972 1.401 . S
C968 C973 1.499 . S
N969 Co952 1.989 . S
N969 C968 1.342 . S
N969 N970 1.388 . S
N970 Co953 1.993 . S
N970 N969 1.388 . S
N970 C971 1.346 . S
C971 N970 1.346 . S
C971 C972 1.396 . S
C971 C981 1.510 . S
C972 C968 1.401 . S
C972 C971 1.396 . S
C973 C968 1.499 . S
C973 H974 0.959 . S
C973 H975 0.960 . S
C973 H976 0.961 . S
H974 C973 0.959 . S
H975 C973 0.960 . S
H976 C973 0.961 . S
O977 Co952 1.967 . S
O977 C985 1.258 . S
O978 Co953 1.941 . S
O978 C985 1.266 . S
H979 C981 0.959 . S
H980 C981 0.961 . S
C981 C971 1.510 . S
C981 H979 0.959 . S
C981 H980 0.961 . S
C981 H982 0.960 . S
H982 C981 0.960 . S
H983 N963 0.862 . S
O984 Co952 1.920 . S
O984 C957 1.289 . S
C985 O977 1.258 . S
C985 O978 1.266 . S
Co986 O989 1.970 . S
Co986 N1003 1.989 . S
Co986 O1011 1.967 . S
Co986 O1018 1.920 . S
Co987 O990 1.966 . S
Co987 N996 2.022 . S
Co987 N1004 1.993 . S
Co987 O1012 1.941 . S
C988 O989 1.258 . S
C988 O990 1.263 . S
O989 Co986 1.970 . S
O989 C988 1.258 . S
O990 Co987 1.966 . S
O990 C988 1.263 . S
C991 O992 1.235 . S
C991 O1018 1.289 . S
O992 C991 1.235 . S
C993 C995 1.400 . S
C993 N996 1.351 . S
C993 C998 1.501 . S
C994 C995 1.387 . S
C994 N997 1.341 . S
C995 C993 1.400 . S
C995 C994 1.387 . S
N996 Co987 2.022 . S
N996 C993 1.351 . S
N996 N997 1.365 . S
N997 C994 1.341 . S
N997 N996 1.365 . S
N997 H1017 0.862 . S
C998 C993 1.501 . S
C998 H999 0.961 . S
C998 H1000 0.961 . S
C998 H1001 0.960 . S
H999 C998 0.961 . S
H1000 C998 0.961 . S
H1001 C998 0.960 . S
C1002 N1003 1.342 . S
C1002 C1006 1.401 . S
C1002 C1007 1.499 . S
N1003 Co986 1.989 . S
N1003 C1002 1.342 . S
N1003 N1004 1.388 . S
N1004 Co987 1.993 . S
N1004 N1003 1.388 . S
N1004 C1005 1.346 . S
C1005 N1004 1.346 . S
C1005 C1006 1.396 . S
C1005 C1015 1.510 . S
C1006 C1002 1.401 . S
C1006 C1005 1.396 . S
C1007 C1002 1.499 . S
C1007 H1008 0.959 . S
C1007 H1009 0.960 . S
C1007 H1010 0.961 . S
H1008 C1007 0.959 . S
H1009 C1007 0.960 . S
H1010 C1007 0.961 . S
O1011 Co986 1.967 . S
O1011 C1019 1.258 . S
O1012 Co987 1.941 . S
O1012 C1019 1.266 . S
H1013 C1015 0.959 . S
H1014 C1015 0.961 . S
C1015 C1005 1.510 . S
C1015 H1013 0.959 . S
C1015 H1014 0.961 . S
C1015 H1016 0.960 . S
H1016 C1015 0.960 . S
H1017 N997 0.862 . S
O1018 Co986 1.920 . S
O1018 C991 1.289 . S
C1019 O1011 1.258 . S
C1019 O1012 1.266 . S
Co1020 O1023 1.970 . S
Co1020 N1037 1.989 . S
Co1020 O1045 1.967 . S
Co1020 O1052 1.920 . S
Co1021 O1024 1.966 . S
Co1021 N1030 2.022 . S
Co1021 N1038 1.993 . S
Co1021 O1046 1.941 . S
C1022 O1023 1.258 . S
C1022 O1024 1.263 . S
O1023 Co1020 1.970 . S
O1023 C1022 1.258 . S
O1024 Co1021 1.966 . S
O1024 C1022 1.263 . S
C1025 O1026 1.235 . S
C1025 O1052 1.289 . S
O1026 C1025 1.235 . S
C1027 C1029 1.400 . S
C1027 N1030 1.351 . S
C1027 C1032 1.501 . S
C1028 C1029 1.387 . S
C1028 N1031 1.341 . S
C1029 C1027 1.400 . S
C1029 C1028 1.387 . S
N1030 Co1021 2.022 . S
N1030 C1027 1.351 . S
N1030 N1031 1.365 . S
N1031 C1028 1.341 . S
N1031 N1030 1.365 . S
N1031 H1051 0.862 . S
C1032 C1027 1.501 . S
C1032 H1033 0.961 . S
C1032 H1034 0.961 . S
C1032 H1035 0.960 . S
H1033 C1032 0.961 . S
H1034 C1032 0.961 . S
H1035 C1032 0.960 . S
C1036 N1037 1.342 . S
C1036 C1040 1.401 . S
C1036 C1041 1.499 . S
N1037 Co1020 1.989 . S
N1037 C1036 1.342 . S
N1037 N1038 1.388 . S
N1038 Co1021 1.993 . S
N1038 N1037 1.388 . S
N1038 C1039 1.346 . S
C1039 N1038 1.346 . S
C1039 C1040 1.396 . S
C1039 C1049 1.510 . S
C1040 C1036 1.401 . S
C1040 C1039 1.396 . S
C1041 C1036 1.499 . S
C1041 H1042 0.959 . S
C1041 H1043 0.960 . S
C1041 H1044 0.961 . S
H1042 C1041 0.959 . S
H1043 C1041 0.960 . S
H1044 C1041 0.961 . S
O1045 Co1020 1.967 . S
O1045 C1053 1.258 . S
O1046 Co1021 1.941 . S
O1046 C1053 1.266 . S
H1047 C1049 0.959 . S
H1048 C1049 0.961 . S
C1049 C1039 1.510 . S
C1049 H1047 0.959 . S
C1049 H1048 0.961 . S
C1049 H1050 0.960 . S
H1050 C1049 0.960 . S
H1051 N1031 0.862 . S
O1052 Co1020 1.920 . S
O1052 C1025 1.289 . S
C1053 O1045 1.258 . S
C1053 O1046 1.266 . S
Co1054 O1057 1.970 . S
Co1054 N1071 1.989 . S
Co1054 O1079 1.967 . S
Co1054 O1086 1.920 . S
Co1055 O1058 1.966 . S
Co1055 N1064 2.022 . S
Co1055 N1072 1.993 . S
Co1055 O1080 1.941 . S
C1056 O1057 1.258 . S
C1056 O1058 1.263 . S
O1057 Co1054 1.970 . S
O1057 C1056 1.258 . S
O1058 Co1055 1.966 . S
O1058 C1056 1.263 . S
C1059 O1060 1.235 . S
C1059 O1086 1.289 . S
O1060 C1059 1.235 . S
C1061 C1063 1.400 . S
C1061 N1064 1.351 . S
C1061 C1066 1.501 . S
C1062 C1063 1.387 . S
C1062 N1065 1.341 . S
C1063 C1061 1.400 . S
C1063 C1062 1.387 . S
N1064 Co1055 2.022 . S
N1064 C1061 1.351 . S
N1064 N1065 1.365 . S
N1065 C1062 1.341 . S
N1065 N1064 1.365 . S
N1065 H1085 0.862 . S
C1066 C1061 1.501 . S
C1066 H1067 0.961 . S
C1066 H1068 0.961 . S
C1066 H1069 0.960 . S
H1067 C1066 0.961 . S
H1068 C1066 0.961 . S
H1069 C1066 0.960 . S
C1070 N1071 1.342 . S
C1070 C1074 1.401 . S
C1070 C1075 1.499 . S
N1071 Co1054 1.989 . S
N1071 C1070 1.342 . S
N1071 N1072 1.388 . S
N1072 Co1055 1.993 . S
N1072 N1071 1.388 . S
N1072 C1073 1.346 . S
C1073 N1072 1.346 . S
C1073 C1074 1.396 . S
C1073 C1083 1.510 . S
C1074 C1070 1.401 . S
C1074 C1073 1.396 . S
C1075 C1070 1.499 . S
C1075 H1076 0.959 . S
C1075 H1077 0.960 . S
C1075 H1078 0.961 . S
H1076 C1075 0.959 . S
H1077 C1075 0.960 . S
H1078 C1075 0.961 . S
O1079 Co1054 1.967 . S
O1079 C1087 1.258 . S
O1080 Co1055 1.941 . S
O1080 C1087 1.266 . S
H1081 C1083 0.959 . S
H1082 C1083 0.961 . S
C1083 C1073 1.510 . S
C1083 H1081 0.959 . S
C1083 H1082 0.961 . S
C1083 H1084 0.960 . S
H1084 C1083 0.960 . S
H1085 N1065 0.862 . S
O1086 Co1054 1.920 . S
O1086 C1059 1.289 . S
C1087 O1079 1.258 . S
C1087 O1080 1.266 . S
Co1088 O1091 1.970 . S
Co1088 N1105 1.989 . S
Co1088 O1113 1.967 . S
Co1088 O1120 1.920 . S
Co1089 O1092 1.966 . S
Co1089 N1098 2.022 . S
Co1089 N1106 1.993 . S
Co1089 O1114 1.941 . S
C1090 O1091 1.258 . S
C1090 O1092 1.263 . S
O1091 Co1088 1.970 . S
O1091 C1090 1.258 . S
O1092 Co1089 1.966 . S
O1092 C1090 1.263 . S
C1093 O1094 1.235 . S
C1093 O1120 1.289 . S
O1094 C1093 1.235 . S
C1095 C1097 1.400 . S
C1095 N1098 1.351 . S
C1095 C1100 1.501 . S
C1096 C1097 1.387 . S
C1096 N1099 1.341 . S
C1097 C1095 1.400 . S
C1097 C1096 1.387 . S
N1098 Co1089 2.022 . S
N1098 C1095 1.351 . S
N1098 N1099 1.365 . S
N1099 C1096 1.341 . S
N1099 N1098 1.365 . S
N1099 H1119 0.862 . S
C1100 C1095 1.501 . S
C1100 H1101 0.961 . S
C1100 H1102 0.961 . S
C1100 H1103 0.960 . S
H1101 C1100 0.961 . S
H1102 C1100 0.961 . S
H1103 C1100 0.960 . S
C1104 N1105 1.342 . S
C1104 C1108 1.401 . S
C1104 C1109 1.499 . S
N1105 Co1088 1.989 . S
N1105 C1104 1.342 . S
N1105 N1106 1.388 . S
N1106 Co1089 1.993 . S
N1106 N1105 1.388 . S
N1106 C1107 1.346 . S
C1107 N1106 1.346 . S
C1107 C1108 1.396 . S
C1107 C1117 1.510 . S
C1108 C1104 1.401 . S
C1108 C1107 1.396 . S
C1109 C1104 1.499 . S
C1109 H1110 0.959 . S
C1109 H1111 0.960 . S
C1109 H1112 0.961 . S
H1110 C1109 0.959 . S
H1111 C1109 0.960 . S
H1112 C1109 0.961 . S
O1113 Co1088 1.967 . S
O1113 C1121 1.258 . S
O1114 Co1089 1.941 . S
O1114 C1121 1.266 . S
H1115 C1117 0.959 . S
H1116 C1117 0.961 . S
C1117 C1107 1.510 . S
C1117 H1115 0.959 . S
C1117 H1116 0.961 . S
C1117 H1118 0.960 . S
H1118 C1117 0.960 . S
H1119 N1099 0.862 . S
O1120 Co1088 1.920 . S
O1120 C1093 1.289 . S
C1121 O1113 1.258 . S
C1121 O1114 1.266 . S
Co1122 O1125 1.970 . S
Co1122 N1139 1.989 . S
Co1122 O1147 1.967 . S
Co1122 O1154 1.920 . S
Co1123 O1126 1.966 . S
Co1123 N1132 2.022 . S
Co1123 N1140 1.993 . S
Co1123 O1148 1.941 . S
C1124 O1125 1.258 . S
C1124 O1126 1.263 . S
O1125 Co1122 1.970 . S
O1125 C1124 1.258 . S
O1126 Co1123 1.966 . S
O1126 C1124 1.263 . S
C1127 O1128 1.235 . S
C1127 O1154 1.289 . S
O1128 C1127 1.235 . S
C1129 C1131 1.400 . S
C1129 N1132 1.351 . S
C1129 C1134 1.501 . S
C1130 C1131 1.387 . S
C1130 N1133 1.341 . S
C1131 C1129 1.400 . S
C1131 C1130 1.387 . S
N1132 Co1123 2.022 . S
N1132 C1129 1.351 . S
N1132 N1133 1.365 . S
N1133 C1130 1.341 . S
N1133 N1132 1.365 . S
N1133 H1153 0.862 . S
C1134 C1129 1.501 . S
C1134 H1135 0.961 . S
C1134 H1136 0.961 . S
C1134 H1137 0.960 . S
H1135 C1134 0.961 . S
H1136 C1134 0.961 . S
H1137 C1134 0.960 . S
C1138 N1139 1.342 . S
C1138 C1142 1.401 . S
C1138 C1143 1.499 . S
N1139 Co1122 1.989 . S
N1139 C1138 1.342 . S
N1139 N1140 1.388 . S
N1140 Co1123 1.993 . S
N1140 N1139 1.388 . S
N1140 C1141 1.346 . S
C1141 N1140 1.346 . S
C1141 C1142 1.396 . S
C1141 C1151 1.510 . S
C1142 C1138 1.401 . S
C1142 C1141 1.396 . S
C1143 C1138 1.499 . S
C1143 H1144 0.959 . S
C1143 H1145 0.960 . S
C1143 H1146 0.961 . S
H1144 C1143 0.959 . S
H1145 C1143 0.960 . S
H1146 C1143 0.961 . S
O1147 Co1122 1.967 . S
O1147 C1155 1.258 . S
O1148 Co1123 1.941 . S
O1148 C1155 1.266 . S
H1149 C1151 0.959 . S
H1150 C1151 0.961 . S
C1151 C1141 1.510 . S
C1151 H1149 0.959 . S
C1151 H1150 0.961 . S
C1151 H1152 0.960 . S
H1152 C1151 0.960 . S
H1153 N1133 0.862 . S
O1154 Co1122 1.920 . S
O1154 C1127 1.289 . S
C1155 O1147 1.258 . S
C1155 O1148 1.266 . S
Co1156 O1159 1.970 . S
Co1156 N1173 1.989 . S
Co1156 O1181 1.967 . S
Co1156 O1188 1.920 . S
Co1157 O1160 1.966 . S
Co1157 N1166 2.022 . S
Co1157 N1174 1.993 . S
Co1157 O1182 1.941 . S
C1158 O1159 1.258 . S
C1158 O1160 1.263 . S
O1159 Co1156 1.970 . S
O1159 C1158 1.258 . S
O1160 Co1157 1.966 . S
O1160 C1158 1.263 . S
C1161 O1162 1.235 . S
C1161 O1188 1.289 . S
O1162 C1161 1.235 . S
C1163 C1165 1.400 . S
C1163 N1166 1.351 . S
C1163 C1168 1.501 . S
C1164 C1165 1.387 . S
C1164 N1167 1.341 . S
C1165 C1163 1.400 . S
C1165 C1164 1.387 . S
N1166 Co1157 2.022 . S
N1166 C1163 1.351 . S
N1166 N1167 1.365 . S
N1167 C1164 1.341 . S
N1167 N1166 1.365 . S
N1167 H1187 0.862 . S
C1168 C1163 1.501 . S
C1168 H1169 0.961 . S
C1168 H1170 0.961 . S
C1168 H1171 0.960 . S
H1169 C1168 0.961 . S
H1170 C1168 0.961 . S
H1171 C1168 0.960 . S
C1172 N1173 1.342 . S
C1172 C1176 1.401 . S
C1172 C1177 1.499 . S
N1173 Co1156 1.989 . S
N1173 C1172 1.342 . S
N1173 N1174 1.388 . S
N1174 Co1157 1.993 . S
N1174 N1173 1.388 . S
N1174 C1175 1.346 . S
C1175 N1174 1.346 . S
C1175 C1176 1.396 . S
C1175 C1185 1.510 . S
C1176 C1172 1.401 . S
C1176 C1175 1.396 . S
C1177 C1172 1.499 . S
C1177 H1178 0.959 . S
C1177 H1179 0.960 . S
C1177 H1180 0.961 . S
H1178 C1177 0.959 . S
H1179 C1177 0.960 . S
H1180 C1177 0.961 . S
O1181 Co1156 1.967 . S
O1181 C1189 1.258 . S
O1182 Co1157 1.941 . S
O1182 C1189 1.266 . S
H1183 C1185 0.959 . S
H1184 C1185 0.961 . S
C1185 C1175 1.510 . S
C1185 H1183 0.959 . S
C1185 H1184 0.961 . S
C1185 H1186 0.960 . S
H1186 C1185 0.960 . S
H1187 N1167 0.862 . S
O1188 Co1156 1.920 . S
O1188 C1161 1.289 . S
C1189 O1181 1.258 . S
C1189 O1182 1.266 . S
Co1190 O1193 1.970 . S
Co1190 N1207 1.989 . S
Co1190 O1215 1.967 . S
Co1190 O1222 1.920 . S
Co1191 O1194 1.966 . S
Co1191 N1200 2.022 . S
Co1191 N1208 1.993 . S
Co1191 O1216 1.941 . S
C1192 O1193 1.258 . S
C1192 O1194 1.263 . S
O1193 Co1190 1.970 . S
O1193 C1192 1.258 . S
O1194 Co1191 1.966 . S
O1194 C1192 1.263 . S
C1195 O1196 1.235 . S
C1195 O1222 1.289 . S
O1196 C1195 1.235 . S
C1197 C1199 1.400 . S
C1197 N1200 1.351 . S
C1197 C1202 1.501 . S
C1198 C1199 1.387 . S
C1198 N1201 1.341 . S
C1199 C1197 1.400 . S
C1199 C1198 1.387 . S
N1200 Co1191 2.022 . S
N1200 C1197 1.351 . S
N1200 N1201 1.365 . S
N1201 C1198 1.341 . S
N1201 N1200 1.365 . S
N1201 H1221 0.862 . S
C1202 C1197 1.501 . S
C1202 H1203 0.961 . S
C1202 H1204 0.961 . S
C1202 H1205 0.960 . S
H1203 C1202 0.961 . S
H1204 C1202 0.961 . S
H1205 C1202 0.960 . S
C1206 N1207 1.342 . S
C1206 C1210 1.401 . S
C1206 C1211 1.499 . S
N1207 Co1190 1.989 . S
N1207 C1206 1.342 . S
N1207 N1208 1.388 . S
N1208 Co1191 1.993 . S
N1208 N1207 1.388 . S
N1208 C1209 1.346 . S
C1209 N1208 1.346 . S
C1209 C1210 1.396 . S
C1209 C1219 1.510 . S
C1210 C1206 1.401 . S
C1210 C1209 1.396 . S
C1211 C1206 1.499 . S
C1211 H1212 0.959 . S
C1211 H1213 0.960 . S
C1211 H1214 0.961 . S
H1212 C1211 0.959 . S
H1213 C1211 0.960 . S
H1214 C1211 0.961 . S
O1215 Co1190 1.967 . S
O1215 C1223 1.258 . S
O1216 Co1191 1.941 . S
O1216 C1223 1.266 . S
H1217 C1219 0.959 . S
H1218 C1219 0.961 . S
C1219 C1209 1.510 . S
C1219 H1217 0.959 . S
C1219 H1218 0.961 . S
C1219 H1220 0.960 . S
H1220 C1219 0.960 . S
H1221 N1201 0.862 . S
O1222 Co1190 1.920 . S
O1222 C1195 1.289 . S
C1223 O1215 1.258 . S
C1223 O1216 1.266 . S
H1224 C1232 0.950 . S
H1225 C1237 0.950 . S
H1226 C1234 0.950 . S
H1227 C1236 0.950 . S
H1228 C1238 0.950 . S
H1229 C1240 0.950 . S
H1230 C1242 0.950 . S
H1231 C1243 0.950 . S
C1232 H1224 0.950 . S
C1232 C1233 1.386 1_554 S
C1232 C1234 1.391 . S
C1233 C1232 1.386 1_556 S
C1233 C1237 1.393 . S
C1234 H1226 0.950 . S
C1234 C1232 1.391 . S
C1234 C1235 1.414 . S
C1235 C1234 1.414 . S
C1235 C1236 1.380 1_554 S
C1235 C1241 1.496 . S
C1236 H1227 0.950 . S
C1236 C1235 1.380 1_556 S
C1236 C1237 1.391 . S
C1237 H1225 0.950 . S
C1237 C1233 1.393 . S
C1237 C1236 1.391 . S
C1238 H1228 0.950 . S
C1238 C1239 1.386 1_556 S
C1238 C1240 1.391 . S
C1239 C1238 1.386 1_554 S
C1239 C1243 1.393 . S
C1240 H1229 0.950 . S
C1240 C1238 1.391 . S
C1240 C1241 1.400 1_556 S
C1241 C1235 1.496 . S
C1241 C1240 1.400 1_554 S
C1241 C1242 1.398 . S
C1242 H1230 0.950 . S
C1242 C1241 1.398 . S
C1242 C1243 1.391 . S
C1243 H1231 0.950 . S
C1243 C1239 1.393 . S
C1243 C1242 1.391 . S
H1244 C1252 0.950 1_556 S
H1245 C1257 0.950 . S
H1246 C1254 0.950 . S
H1247 C1256 0.950 . S
H1248 C1258 0.950 . S
H1249 C1260 0.950 . S
H1250 C1262 0.950 . S
H1251 C1263 0.950 . S
C1252 H1244 0.950 1_554 S
C1252 C1253 1.386 . S
C1252 C1254 1.391 1_554 S
C1253 C1252 1.386 . S
C1253 C1257 1.393 . S
C1254 H1246 0.950 . S
C1254 C1252 1.391 1_556 S
C1254 C1255 1.400 1_556 S
C1255 C1254 1.400 1_554 S
C1255 C1256 1.398 . S
C1255 C1261 1.492 1_554 S
C1256 H1247 0.950 . S
C1256 C1255 1.398 . S
C1256 C1257 1.391 . S
C1257 H1245 0.950 . S
C1257 C1253 1.393 . S
C1257 C1256 1.391 . S
C1258 H1248 0.950 . S
C1258 C1259 1.386 1_554 S
C1258 C1260 1.391 . S
C1259 C1258 1.386 1_556 S
C1259 C1263 1.393 . S
C1260 H1249 0.950 . S
C1260 C1258 1.391 . S
C1260 C1261 1.402 1_554 S
C1261 C1255 1.492 1_556 S
C1261 C1260 1.402 1_556 S
C1261 C1262 1.396 . S
C1262 H1250 0.950 . S
C1262 C1261 1.396 . S
C1262 C1263 1.391 . S
C1263 H1251 0.950 . S
C1263 C1259 1.393 . S
C1263 C1262 1.391 . S
H1264 C1272 0.950 . S
H1265 C1277 0.950 . S
H1266 C1274 0.950 . S
H1267 C1276 0.950 . S
H1268 C1278 0.950 . S
H1269 C1280 0.950 . S
H1270 C1282 0.950 . S
H1271 C1283 0.950 . S
C1272 H1264 0.950 . S
C1272 C1273 1.386 . S
C1272 C1274 1.391 . S
C1273 C1272 1.386 . S
C1273 C1277 1.393 1_556 S
C1274 H1266 0.950 . S
C1274 C1272 1.391 . S
C1274 C1275 1.376 1_556 S
C1275 C1274 1.376 1_554 S
C1275 C1276 1.416 . S
C1275 C1281 1.498 . S
C1276 H1267 0.950 . S
C1276 C1275 1.416 . S
C1276 C1277 1.391 . S
C1277 H1265 0.950 . S
C1277 C1273 1.393 1_554 S
C1277 C1276 1.391 . S
C1278 H1268 0.950 . S
C1278 C1279 1.386 . S
C1278 C1280 1.391 . S
C1279 C1278 1.386 . S
C1279 C1283 1.393 1_554 S
C1280 H1269 0.950 . S
C1280 C1278 1.391 . S
C1280 C1281 1.400 . S
C1281 C1275 1.498 . S
C1281 C1280 1.400 . S
C1281 C1282 1.398 1_554 S
C1282 H1270 0.950 . S
C1282 C1281 1.398 1_556 S
C1282 C1283 1.391 . S
C1283 H1271 0.950 . S
C1283 C1279 1.393 1_556 S
C1283 C1282 1.391 . S
H1284 C1292 0.950 . S
H1285 C1297 0.950 . S
H1286 C1294 0.950 . S
H1287 C1296 0.950 . S
H1288 C1298 0.950 . S
H1289 C1300 0.950 . S
H1290 C1302 0.950 . S
H1291 C1303 0.950 . S
C1292 H1284 0.950 . S
C1292 C1293 1.386 . S
C1292 C1294 1.391 . S
C1293 C1292 1.386 . S
C1293 C1297 1.393 . S
C1294 H1286 0.950 . S
C1294 C1292 1.391 . S
C1294 C1295 1.400 . S
C1295 C1294 1.400 . S
C1295 C1296 1.398 . S
C1295 C1301 1.491 . S
C1296 H1287 0.950 . S
C1296 C1295 1.398 . S
C1296 C1297 1.391 . S
C1297 H1285 0.950 . S
C1297 C1293 1.393 . S
C1297 C1296 1.391 . S
C1298 H1288 0.950 . S
C1298 C1299 1.386 . S
C1298 C1300 1.391 . S
C1299 C1298 1.386 . S
C1299 C1303 1.393 . S
C1300 H1289 0.950 . S
C1300 C1298 1.391 . S
C1300 C1301 1.400 . S
C1301 C1295 1.491 . S
C1301 C1300 1.400 . S
C1301 C1302 1.398 . S
C1302 H1290 0.950 . S
C1302 C1301 1.398 . S
C1302 C1303 1.391 . S
C1303 H1291 0.950 . S
C1303 C1299 1.393 . S
C1303 C1302 1.391 . S
H1304 C1312 0.950 . S
H1305 C1317 0.950 . S
H1306 C1314 0.950 . S
H1307 C1316 0.950 . S
H1308 C1318 0.950 . S
H1309 C1320 0.950 . S
H1310 C1322 0.950 . S
H1311 C1323 0.950 . S
C1312 H1304 0.950 . S
C1312 C1313 1.386 . S
C1312 C1314 1.391 . S
C1313 C1312 1.386 . S
C1313 C1317 1.393 . S
C1314 H1306 0.950 . S
C1314 C1312 1.391 . S
C1314 C1315 1.400 . S
C1315 C1314 1.400 . S
C1315 C1316 1.398 . S
C1315 C1321 1.491 . S
C1316 H1307 0.950 . S
C1316 C1315 1.398 . S
C1316 C1317 1.391 . S
C1317 H1305 0.950 . S
C1317 C1313 1.393 . S
C1317 C1316 1.391 . S
C1318 H1308 0.950 . S
C1318 C1319 1.386 . S
C1318 C1320 1.391 . S
C1319 C1318 1.386 . S
C1319 C1323 1.393 . S
C1320 H1309 0.950 . S
C1320 C1318 1.391 . S
C1320 C1321 1.400 . S
C1321 C1315 1.491 . S
C1321 C1320 1.400 . S
C1321 C1322 1.398 . S
C1322 H1310 0.950 . S
C1322 C1321 1.398 . S
C1322 C1323 1.391 . S
C1323 H1311 0.950 . S
C1323 C1319 1.393 . S
C1323 C1322 1.391 . S
H1324 C1332 0.950 . S
H1325 C1337 0.950 . S
H1326 C1334 0.950 . S
H1327 C1336 0.950 . S
H1328 C1338 0.950 . S
H1329 C1340 0.950 . S
H1330 C1342 0.950 . S
H1331 C1343 0.950 . S
C1332 H1324 0.950 . S
C1332 C1333 1.386 . S
C1332 C1334 1.391 . S
C1333 C1332 1.386 . S
C1333 C1337 1.393 . S
C1334 H1326 0.950 . S
C1334 C1332 1.391 . S
C1334 C1335 1.400 . S
C1335 C1334 1.400 . S
C1335 C1336 1.398 . S
C1335 C1341 1.491 . S
C1336 H1327 0.950 . S
C1336 C1335 1.398 . S
C1336 C1337 1.391 . S
C1337 H1325 0.950 . S
C1337 C1333 1.393 . S
C1337 C1336 1.391 . S
C1338 H1328 0.950 . S
C1338 C1339 1.386 . S
C1338 C1340 1.391 . S
C1339 C1338 1.386 . S
C1339 C1343 1.393 . S
C1340 H1329 0.950 . S
C1340 C1338 1.391 . S
C1340 C1341 1.400 . S
C1341 C1335 1.491 . S
C1341 C1340 1.400 . S
C1341 C1342 1.398 . S
C1342 H1330 0.950 . S
C1342 C1341 1.398 . S
C1342 C1343 1.391 . S
C1343 H1331 0.950 . S
C1343 C1339 1.393 . S
C1343 C1342 1.391 . S
H1344 C1352 0.956 . S
H1345 C1357 0.950 . S
H1346 C1354 0.950 . S
H1347 C1356 0.950 . S
H1348 C1358 0.950 . S
H1349 C1360 0.950 . S
H1350 C1362 0.950 . S
H1351 C1363 0.950 . S
C1352 H1344 0.956 . S
C1352 C1353 1.376 1_554 S
C1352 C1354 1.394 . S
C1353 C1352 1.376 1_556 S
C1353 C1357 1.393 . S
C1354 H1346 0.950 . S
C1354 C1352 1.394 . S
C1354 C1355 1.400 1_554 S
C1355 C1354 1.400 1_556 S
C1355 C1356 1.398 . S
C1355 C1361 1.497 . S
C1356 H1347 0.950 . S
C1356 C1355 1.398 . S
C1356 C1357 1.391 . S
C1357 H1345 0.950 . S
C1357 C1353 1.393 . S
C1357 C1356 1.391 . S
C1358 H1348 0.950 . S
C1358 C1359 1.386 1_556 S
C1358 C1360 1.391 . S
C1359 C1358 1.386 1_554 S
C1359 C1363 1.393 . S
C1360 H1349 0.950 . S
C1360 C1358 1.391 . S
C1360 C1361 1.415 . S
C1361 C1355 1.497 . S
C1361 C1360 1.415 . S
C1361 C1362 1.377 1_556 S
C1362 H1350 0.950 . S
C1362 C1361 1.377 1_554 S
C1362 C1363 1.391 . S
C1363 H1351 0.950 . S
C1363 C1359 1.393 . S
C1363 C1362 1.391 . S
H1364 C1372 0.950 . S
H1365 C1377 0.950 1_554 S
H1366 C1374 0.950 . S
H1367 C1376 0.950 . S
H1368 C1378 0.950 . S
H1369 C1380 0.950 . S
H1370 C1382 0.950 . S
H1371 C1383 0.950 . S
C1372 H1364 0.950 . S
C1372 C1373 1.386 . S
C1372 C1374 1.391 . S
C1373 C1372 1.386 . S
C1373 C1377 1.393 . S
C1374 H1366 0.950 . S
C1374 C1372 1.391 . S
C1374 C1375 1.400 . S
C1375 C1374 1.400 . S
C1375 C1376 1.398 1_556 S
C1375 C1381 1.491 1_556 S
C1376 H1367 0.950 . S
C1376 C1375 1.398 1_554 S
C1376 C1377 1.391 1_554 S
C1377 H1365 0.950 1_556 S
C1377 C1373 1.393 . S
C1377 C1376 1.391 1_556 S
C1378 H1368 0.950 . S
C1378 C1379 1.386 . S
C1378 C1380 1.391 . S
C1379 C1378 1.386 . S
C1379 C1383 1.393 1_554 S
C1380 H1369 0.950 . S
C1380 C1378 1.391 . S
C1380 C1381 1.398 . S
C1381 C1375 1.491 1_554 S
C1381 C1380 1.398 . S
C1381 C1382 1.399 1_554 S
C1382 H1370 0.950 . S
C1382 C1381 1.399 1_556 S
C1382 C1383 1.391 . S
C1383 H1371 0.950 . S
C1383 C1379 1.393 1_556 S
C1383 C1382 1.391 . S
H1384 C1392 0.950 . S
H1385 C1397 0.950 . S
H1386 C1394 0.950 . S
H1387 C1396 0.950 . S
H1388 C1398 0.950 . S
H1389 C1400 0.950 . S
H1390 C1402 0.950 . S
H1391 C1403 0.950 . S
C1392 H1384 0.950 . S
C1392 C1393 1.386 1_554 S
C1392 C1394 1.391 . S
C1393 C1392 1.386 1_556 S
C1393 C1397 1.393 . S
C1394 H1386 0.950 . S
C1394 C1392 1.391 . S
C1394 C1395 1.400 1_554 S
C1395 C1394 1.400 1_556 S
C1395 C1396 1.398 . S
C1395 C1401 1.492 . S
C1396 H1387 0.950 . S
C1396 C1395 1.398 . S
C1396 C1397 1.391 . S
C1397 H1385 0.950 . S
C1397 C1393 1.393 . S
C1397 C1396 1.391 . S
C1398 H1388 0.950 . S
C1398 C1399 1.386 1_556 S
C1398 C1400 1.391 . S
C1399 C1398 1.386 1_554 S
C1399 C1403 1.393 . S
C1400 H1389 0.950 . S
C1400 C1398 1.391 . S
C1400 C1401 1.405 . S
C1401 C1395 1.492 . S
C1401 C1400 1.405 . S
C1401 C1402 1.392 1_556 S
C1402 H1390 0.950 . S
C1402 C1401 1.392 1_554 S
C1402 C1403 1.391 . S
C1403 H1391 0.950 . S
C1403 C1399 1.393 . S
C1403 C1402 1.391 . S
H1404 C1412 0.950 . S
H1405 C1417 0.950 . S
H1406 C1414 0.950 . S
H1407 C1416 0.950 . S
H1408 C1418 0.950 . S
H1409 C1420 0.950 . S
H1410 C1422 0.950 . S
H1411 C1423 0.950 . S
C1412 H1404 0.950 . S
C1412 C1413 1.386 . S
C1412 C1414 1.391 . S
C1413 C1412 1.386 . S
C1413 C1417 1.393 . S
C1414 H1406 0.950 . S
C1414 C1412 1.391 . S
C1414 C1415 1.400 . S
C1415 C1414 1.400 . S
C1415 C1416 1.398 . S
C1415 C1421 1.491 . S
C1416 H1407 0.950 . S
C1416 C1415 1.398 . S
C1416 C1417 1.391 . S
C1417 H1405 0.950 . S
C1417 C1413 1.393 . S
C1417 C1416 1.391 . S
C1418 H1408 0.950 . S
C1418 C1419 1.386 . S
C1418 C1420 1.391 . S
C1419 C1418 1.386 . S
C1419 C1423 1.393 . S
C1420 H1409 0.950 . S
C1420 C1418 1.391 . S
C1420 C1421 1.400 . S
C1421 C1415 1.491 . S
C1421 C1420 1.400 . S
C1421 C1422 1.398 . S
C1422 H1410 0.950 . S
C1422 C1421 1.398 . S
C1422 C1423 1.391 . S
C1423 H1411 0.950 . S
C1423 C1419 1.393 . S
C1423 C1422 1.391 . S
H1424 C1432 0.950 . S
H1425 C1437 0.950 . S
H1426 C1434 0.950 . S
H1427 C1436 0.950 . S
H1428 C1438 0.950 . S
H1429 C1440 0.950 . S
H1430 C1442 0.950 . S
H1431 C1443 0.950 . S
C1432 H1424 0.950 . S
C1432 C1433 1.386 . S
C1432 C1434 1.391 . S
C1433 C1432 1.386 . S
C1433 C1437 1.393 . S
C1434 H1426 0.950 . S
C1434 C1432 1.391 . S
C1434 C1435 1.400 . S
C1435 C1434 1.400 . S
C1435 C1436 1.398 . S
C1435 C1441 1.491 . S
C1436 H1427 0.950 . S
C1436 C1435 1.398 . S
C1436 C1437 1.391 . S
C1437 H1425 0.950 . S
C1437 C1433 1.393 . S
C1437 C1436 1.391 . S
C1438 H1428 0.950 . S
C1438 C1439 1.386 . S
C1438 C1440 1.391 . S
C1439 C1438 1.386 . S
C1439 C1443 1.393 . S
C1440 H1429 0.950 . S
C1440 C1438 1.391 . S
C1440 C1441 1.400 . S
C1441 C1435 1.491 . S
C1441 C1440 1.400 . S
C1441 C1442 1.398 . S
C1442 H1430 0.950 . S
C1442 C1441 1.398 . S
C1442 C1443 1.391 . S
C1443 H1431 0.950 . S
C1443 C1439 1.393 . S
C1443 C1442 1.391 . S
H1444 C1452 0.950 . S
H1445 C1457 0.950 . S
H1446 C1454 0.950 . S
H1447 C1456 0.950 . S
H1448 C1458 0.950 . S
H1449 C1460 0.950 . S
H1450 C1462 0.950 . S
H1451 C1463 0.950 . S
C1452 H1444 0.950 . S
C1452 C1453 1.386 . S
C1452 C1454 1.391 . S
C1453 C1452 1.386 . S
C1453 C1457 1.393 . S
C1454 H1446 0.950 . S
C1454 C1452 1.391 . S
C1454 C1455 1.400 . S
C1455 C1454 1.400 . S
C1455 C1456 1.398 . S
C1455 C1461 1.491 . S
C1456 H1447 0.950 . S
C1456 C1455 1.398 . S
C1456 C1457 1.391 . S
C1457 H1445 0.950 . S
C1457 C1453 1.393 . S
C1457 C1456 1.391 . S
C1458 H1448 0.950 . S
C1458 C1459 1.386 . S
C1458 C1460 1.391 . S
C1459 C1458 1.386 . S
C1459 C1463 1.393 . S
C1460 H1449 0.950 . S
C1460 C1458 1.391 . S
C1460 C1461 1.400 . S
C1461 C1455 1.491 . S
C1461 C1460 1.400 . S
C1461 C1462 1.398 . S
C1462 H1450 0.950 . S
C1462 C1461 1.398 . S
C1462 C1463 1.391 . S
C1463 H1451 0.950 . S
C1463 C1459 1.393 . S
C1463 C1462 1.391 . S
H1464 C1472 0.950 . S
H1465 C1477 0.950 . S
H1466 C1474 0.950 . S
H1467 C1476 0.950 . S
H1468 C1478 0.950 . S
H1469 C1480 0.950 . S
H1470 C1482 0.950 . S
H1471 C1483 0.950 . S
C1472 H1464 0.950 . S
C1472 C1473 1.386 . S
C1472 C1474 1.391 . S
C1473 C1472 1.386 . S
C1473 C1477 1.393 . S
C1474 H1466 0.950 . S
C1474 C1472 1.391 . S
C1474 C1475 1.400 . S
C1475 C1474 1.400 . S
C1475 C1476 1.398 . S
C1475 C1481 1.491 . S
C1476 H1467 0.950 . S
C1476 C1475 1.398 . S
C1476 C1477 1.391 . S
C1477 H1465 0.950 . S
C1477 C1473 1.393 . S
C1477 C1476 1.391 . S
C1478 H1468 0.950 . S
C1478 C1479 1.386 . S
C1478 C1480 1.391 . S
C1479 C1478 1.386 . S
C1479 C1483 1.393 . S
C1480 H1469 0.950 . S
C1480 C1478 1.391 . S
C1480 C1481 1.400 . S
C1481 C1475 1.491 . S
C1481 C1480 1.400 . S
C1481 C1482 1.398 . S
C1482 H1470 0.950 . S
C1482 C1481 1.398 . S
C1482 C1483 1.391 . S
C1483 H1471 0.950 . S
C1483 C1479 1.393 . S
C1483 C1482 1.391 . S
H1484 C1492 0.950 . S
H1485 C1497 0.950 . S
H1486 C1494 0.950 . S
H1487 C1496 0.950 . S
H1488 C1498 0.950 . S
H1489 C1500 0.950 . S
H1490 C1502 0.950 . S
H1491 C1503 0.950 . S
C1492 H1484 0.950 . S
C1492 C1493 1.386 . S
C1492 C1494 1.391 . S
C1493 C1492 1.386 . S
C1493 C1497 1.393 . S
C1494 H1486 0.950 . S
C1494 C1492 1.391 . S
C1494 C1495 1.400 . S
C1495 C1494 1.400 . S
C1495 C1496 1.398 . S
C1495 C1501 1.491 . S
C1496 H1487 0.950 . S
C1496 C1495 1.398 . S
C1496 C1497 1.391 . S
C1497 H1485 0.950 . S
C1497 C1493 1.393 . S
C1497 C1496 1.391 . S
C1498 H1488 0.950 . S
C1498 C1499 1.386 . S
C1498 C1500 1.391 . S
C1499 C1498 1.386 . S
C1499 C1503 1.393 . S
C1500 H1489 0.950 . S
C1500 C1498 1.391 . S
C1500 C1501 1.400 . S
C1501 C1495 1.491 . S
C1501 C1500 1.400 . S
C1501 C1502 1.398 . S
C1502 H1490 0.950 . S
C1502 C1501 1.398 . S
C1502 C1503 1.391 . S
C1503 H1491 0.950 . S
C1503 C1499 1.393 . S
C1503 C1502 1.391 . S
H1504 C1512 0.950 . S
H1505 C1517 0.950 . S
H1506 C1514 0.950 . S
H1507 C1516 0.950 . S
H1508 C1518 0.950 . S
H1509 C1520 0.950 . S
H1510 C1522 0.950 . S
H1511 C1523 0.950 . S
C1512 H1504 0.950 . S
C1512 C1513 1.386 . S
C1512 C1514 1.391 . S
C1513 C1512 1.386 . S
C1513 C1517 1.393 . S
C1514 H1506 0.950 . S
C1514 C1512 1.391 . S
C1514 C1515 1.400 . S
C1515 C1514 1.400 . S
C1515 C1516 1.398 . S
C1515 C1521 1.491 . S
C1516 H1507 0.950 . S
C1516 C1515 1.398 . S
C1516 C1517 1.391 . S
C1517 H1505 0.950 . S
C1517 C1513 1.393 . S
C1517 C1516 1.391 . S
C1518 H1508 0.950 . S
C1518 C1519 1.386 . S
C1518 C1520 1.391 . S
C1519 C1518 1.386 . S
C1519 C1523 1.393 . S
C1520 H1509 0.950 . S
C1520 C1518 1.391 . S
C1520 C1521 1.400 . S
C1521 C1515 1.491 . S
C1521 C1520 1.400 . S
C1521 C1522 1.398 . S
C1522 H1510 0.950 . S
C1522 C1521 1.398 . S
C1522 C1523 1.391 . S
C1523 H1511 0.950 . S
C1523 C1519 1.393 . S
C1523 C1522 1.391 . S
H1524 C1532 0.950 . S
H1525 C1537 0.950 . S
H1526 C1534 0.950 . S
H1527 C1536 0.950 . S
H1528 C1538 0.950 . S
H1529 C1540 0.950 . S
H1530 C1542 0.950 . S
H1531 C1543 0.950 . S
C1532 H1524 0.950 . S
C1532 C1533 1.386 . S
C1532 C1534 1.391 . S
C1533 C1532 1.386 . S
C1533 C1537 1.393 . S
C1534 H1526 0.950 . S
C1534 C1532 1.391 . S
C1534 C1535 1.400 . S
C1535 C1534 1.400 . S
C1535 C1536 1.398 . S
C1535 C1541 1.491 . S
C1536 H1527 0.950 . S
C1536 C1535 1.398 . S
C1536 C1537 1.391 . S
C1537 H1525 0.950 . S
C1537 C1533 1.393 . S
C1537 C1536 1.391 . S
C1538 H1528 0.950 . S
C1538 C1539 1.386 . S
C1538 C1540 1.391 . S
C1539 C1538 1.386 . S
C1539 C1543 1.393 . S
C1540 H1529 0.950 . S
C1540 C1538 1.391 . S
C1540 C1541 1.400 . S
C1541 C1535 1.491 . S
C1541 C1540 1.400 . S
C1541 C1542 1.398 . S
C1542 H1530 0.950 . S
C1542 C1541 1.398 . S
C1542 C1543 1.391 . S
C1543 H1531 0.950 . S
C1543 C1539 1.393 . S
C1543 C1542 1.391 . S
H1544 C1552 0.950 . S
H1545 C1557 0.950 . S
H1546 C1554 0.950 . S
H1547 C1556 0.950 . S
H1548 C1558 0.950 . S
H1549 C1560 0.950 . S
H1550 C1562 0.950 . S
H1551 C1563 0.950 . S
C1552 H1544 0.950 . S
C1552 C1553 1.386 . S
C1552 C1554 1.391 . S
C1553 C1552 1.386 . S
C1553 C1557 1.393 . S
C1554 H1546 0.950 . S
C1554 C1552 1.391 . S
C1554 C1555 1.400 . S
C1555 C1554 1.400 . S
C1555 C1556 1.398 . S
C1555 C1561 1.491 . S
C1556 H1547 0.950 . S
C1556 C1555 1.398 . S
C1556 C1557 1.391 . S
C1557 H1545 0.950 . S
C1557 C1553 1.393 . S
C1557 C1556 1.391 . S
C1558 H1548 0.950 . S
C1558 C1559 1.386 . S
C1558 C1560 1.391 . S
C1559 C1558 1.386 . S
C1559 C1563 1.393 . S
C1560 H1549 0.950 . S
C1560 C1558 1.391 . S
C1560 C1561 1.400 . S
C1561 C1555 1.491 . S
C1561 C1560 1.400 . S
C1561 C1562 1.398 . S
C1562 H1550 0.950 . S
C1562 C1561 1.398 . S
C1562 C1563 1.391 . S
C1563 H1551 0.950 . S
C1563 C1559 1.393 . S
C1563 C1562 1.391 . S
H1564 C1572 0.950 . S
H1565 C1577 0.950 . S
H1566 C1574 0.950 . S
H1567 C1576 0.950 . S
H1568 C1578 0.950 . S
H1569 C1580 0.950 . S
H1570 C1582 0.950 . S
H1571 C1583 0.950 . S
C1572 H1564 0.950 . S
C1572 C1573 1.386 . S
C1572 C1574 1.391 . S
C1573 C1572 1.386 . S
C1573 C1577 1.393 . S
C1574 H1566 0.950 . S
C1574 C1572 1.391 . S
C1574 C1575 1.400 . S
C1575 C1574 1.400 . S
C1575 C1576 1.398 . S
C1575 C1581 1.491 . S
C1576 H1567 0.950 . S
C1576 C1575 1.398 . S
C1576 C1577 1.391 . S
C1577 H1565 0.950 . S
C1577 C1573 1.393 . S
C1577 C1576 1.391 . S
C1578 H1568 0.950 . S
C1578 C1579 1.386 . S
C1578 C1580 1.391 . S
C1579 C1578 1.386 . S
C1579 C1583 1.393 . S
C1580 H1569 0.950 . S
C1580 C1578 1.391 . S
C1580 C1581 1.400 . S
C1581 C1575 1.491 . S
C1581 C1580 1.400 . S
C1581 C1582 1.398 . S
C1582 H1570 0.950 . S
C1582 C1581 1.398 . S
C1582 C1583 1.391 . S
C1583 H1571 0.950 . S
C1583 C1579 1.393 . S
C1583 C1582 1.391 . S
H1584 C1592 0.950 . S
H1585 C1597 0.950 . S
H1586 C1594 0.950 . S
H1587 C1596 0.950 . S
H1588 C1598 0.950 . S
H1589 C1600 0.950 . S
H1590 C1602 0.950 . S
H1591 C1603 0.950 . S
C1592 H1584 0.950 . S
C1592 C1593 1.386 . S
C1592 C1594 1.391 . S
C1593 C1592 1.386 . S
C1593 C1597 1.393 . S
C1594 H1586 0.950 . S
C1594 C1592 1.391 . S
C1594 C1595 1.400 . S
C1595 C1594 1.400 . S
C1595 C1596 1.398 . S
C1595 C1601 1.491 . S
C1596 H1587 0.950 . S
C1596 C1595 1.398 . S
C1596 C1597 1.391 . S
C1597 H1585 0.950 . S
C1597 C1593 1.393 . S
C1597 C1596 1.391 . S
C1598 H1588 0.950 . S
C1598 C1599 1.386 . S
C1598 C1600 1.391 . S
C1599 C1598 1.386 . S
C1599 C1603 1.393 . S
C1600 H1589 0.950 . S
C1600 C1598 1.391 . S
C1600 C1601 1.400 . S
C1601 C1595 1.491 . S
C1601 C1600 1.400 . S
C1601 C1602 1.398 . S
C1602 H1590 0.950 . S
C1602 C1601 1.398 . S
C1602 C1603 1.391 . S
C1603 H1591 0.950 . S
C1603 C1599 1.393 . S
C1603 C1602 1.391 . S
H1604 C1612 0.950 . S
H1605 C1617 0.950 . S
H1606 C1614 0.950 . S
H1607 C1616 0.950 . S
H1608 C1618 0.950 . S
H1609 C1620 0.950 . S
H1610 C1622 0.950 . S
H1611 C1623 0.950 . S
C1612 H1604 0.950 . S
C1612 C1613 1.386 . S
C1612 C1614 1.391 . S
C1613 C1612 1.386 . S
C1613 C1617 1.393 . S
C1614 H1606 0.950 . S
C1614 C1612 1.391 . S
C1614 C1615 1.400 . S
C1615 C1614 1.400 . S
C1615 C1616 1.398 . S
C1615 C1621 1.491 . S
C1616 H1607 0.950 . S
C1616 C1615 1.398 . S
C1616 C1617 1.391 . S
C1617 H1605 0.950 . S
C1617 C1613 1.393 . S
C1617 C1616 1.391 . S
C1618 H1608 0.950 . S
C1618 C1619 1.386 . S
C1618 C1620 1.391 . S
C1619 C1618 1.386 . S
C1619 C1623 1.393 . S
C1620 H1609 0.950 . S
C1620 C1618 1.391 . S
C1620 C1621 1.400 . S
C1621 C1615 1.491 . S
C1621 C1620 1.400 . S
C1621 C1622 1.398 . S
C1622 H1610 0.950 . S
C1622 C1621 1.398 . S
C1622 C1623 1.391 . S
C1623 H1611 0.950 . S
C1623 C1619 1.393 . S
C1623 C1622 1.391 . S
H1624 C1632 0.950 . S
H1625 C1637 0.950 . S
H1626 C1634 0.950 . S
H1627 C1636 0.950 . S
H1628 C1638 0.950 . S
H1629 C1640 0.950 . S
H1630 C1642 0.950 . S
H1631 C1643 0.950 . S
C1632 H1624 0.950 . S
C1632 C1633 1.386 . S
C1632 C1634 1.391 . S
C1633 C1632 1.386 . S
C1633 C1637 1.393 . S
C1634 H1626 0.950 . S
C1634 C1632 1.391 . S
C1634 C1635 1.400 . S
C1635 C1634 1.400 . S
C1635 C1636 1.398 . S
C1635 C1641 1.491 . S
C1636 H1627 0.950 . S
C1636 C1635 1.398 . S
C1636 C1637 1.391 . S
C1637 H1625 0.950 . S
C1637 C1633 1.393 . S
C1637 C1636 1.391 . S
C1638 H1628 0.950 . S
C1638 C1639 1.386 . S
C1638 C1640 1.391 . S
C1639 C1638 1.386 . S
C1639 C1643 1.393 . S
C1640 H1629 0.950 . S
C1640 C1638 1.391 . S
C1640 C1641 1.400 . S
C1641 C1635 1.491 . S
C1641 C1640 1.400 . S
C1641 C1642 1.398 . S
C1642 H1630 0.950 . S
C1642 C1641 1.398 . S
C1642 C1643 1.391 . S
C1643 H1631 0.950 . S
C1643 C1639 1.393 . S
C1643 C1642 1.391 . S
H1644 C1652 0.950 . S
H1645 C1657 0.950 . S
H1646 C1654 0.950 . S
H1647 C1656 0.950 . S
H1648 C1658 0.950 . S
H1649 C1660 0.950 . S
H1650 C1662 0.950 . S
H1651 C1663 0.950 . S
C1652 H1644 0.950 . S
C1652 C1653 1.386 . S
C1652 C1654 1.391 . S
C1653 C1652 1.386 . S
C1653 C1657 1.393 . S
C1654 H1646 0.950 . S
C1654 C1652 1.391 . S
C1654 C1655 1.400 . S
C1655 C1654 1.400 . S
C1655 C1656 1.398 . S
C1655 C1661 1.491 . S
C1656 H1647 0.950 . S
C1656 C1655 1.398 . S
C1656 C1657 1.391 . S
C1657 H1645 0.950 . S
C1657 C1653 1.393 . S
C1657 C1656 1.391 . S
C1658 H1648 0.950 . S
C1658 C1659 1.386 . S
C1658 C1660 1.391 . S
C1659 C1658 1.386 . S
C1659 C1663 1.393 . S
C1660 H1649 0.950 . S
C1660 C1658 1.391 . S
C1660 C1661 1.400 . S
C1661 C1655 1.491 . S
C1661 C1660 1.400 . S
C1661 C1662 1.398 . S
C1662 H1650 0.950 . S
C1662 C1661 1.398 . S
C1662 C1663 1.391 . S
C1663 H1651 0.950 . S
C1663 C1659 1.393 . S
C1663 C1662 1.391 . S
H1664 C1672 0.950 . S
H1665 C1677 0.950 . S
H1666 C1674 0.950 . S
H1667 C1676 0.950 . S
H1668 C1678 0.950 . S
H1669 C1680 0.950 . S
H1670 C1682 0.950 . S
H1671 C1683 0.950 . S
C1672 H1664 0.950 . S
C1672 C1673 1.386 . S
C1672 C1674 1.391 . S
C1673 C1672 1.386 . S
C1673 C1677 1.393 . S
C1674 H1666 0.950 . S
C1674 C1672 1.391 . S
C1674 C1675 1.400 . S
C1675 C1674 1.400 . S
C1675 C1676 1.398 . S
C1675 C1681 1.491 . S
C1676 H1667 0.950 . S
C1676 C1675 1.398 . S
C1676 C1677 1.391 . S
C1677 H1665 0.950 . S
C1677 C1673 1.393 . S
C1677 C1676 1.391 . S
C1678 H1668 0.950 . S
C1678 C1679 1.386 . S
C1678 C1680 1.391 . S
C1679 C1678 1.386 . S
C1679 C1683 1.393 . S
C1680 H1669 0.950 . S
C1680 C1678 1.391 . S
C1680 C1681 1.400 . S
C1681 C1675 1.491 . S
C1681 C1680 1.400 . S
C1681 C1682 1.398 . S
C1682 H1670 0.950 . S
C1682 C1681 1.398 . S
C1682 C1683 1.391 . S
C1683 H1671 0.950 . S
C1683 C1679 1.393 . S
C1683 C1682 1.391 . S
H1684 C1692 0.950 . S
H1685 C1697 0.950 . S
H1686 C1694 0.950 . S
H1687 C1696 0.950 . S
H1688 C1698 0.950 . S
H1689 C1700 0.950 . S
H1690 C1702 0.950 . S
H1691 C1703 0.950 . S
C1692 H1684 0.950 . S
C1692 C1693 1.386 . S
C1692 C1694 1.391 . S
C1693 C1692 1.386 . S
C1693 C1697 1.393 . S
C1694 H1686 0.950 . S
C1694 C1692 1.391 . S
C1694 C1695 1.400 . S
C1695 C1694 1.400 . S
C1695 C1696 1.398 . S
C1695 C1701 1.491 . S
C1696 H1687 0.950 . S
C1696 C1695 1.398 . S
C1696 C1697 1.391 . S
C1697 H1685 0.950 . S
C1697 C1693 1.393 . S
C1697 C1696 1.391 . S
C1698 H1688 0.950 . S
C1698 C1699 1.386 . S
C1698 C1700 1.391 . S
C1699 C1698 1.386 . S
C1699 C1703 1.393 . S
C1700 H1689 0.950 . S
C1700 C1698 1.391 . S
C1700 C1701 1.400 . S
C1701 C1695 1.491 . S
C1701 C1700 1.400 . S
C1701 C1702 1.398 . S
C1702 H1690 0.950 . S
C1702 C1701 1.398 . S
C1702 C1703 1.391 . S
C1703 H1691 0.950 . S
C1703 C1699 1.393 . S
C1703 C1702 1.391 . S
H1704 C1712 0.950 . S
H1705 C1717 0.950 . S
H1706 C1714 0.950 . S
H1707 C1716 0.950 . S
H1708 C1718 0.950 . S
H1709 C1720 0.950 . S
H1710 C1722 0.950 . S
H1711 C1723 0.950 . S
C1712 H1704 0.950 . S
C1712 C1713 1.386 . S
C1712 C1714 1.391 . S
C1713 C1712 1.386 . S
C1713 C1717 1.393 . S
C1714 H1706 0.950 . S
C1714 C1712 1.391 . S
C1714 C1715 1.400 . S
C1715 C1714 1.400 . S
C1715 C1716 1.398 . S
C1715 C1721 1.491 . S
C1716 H1707 0.950 . S
C1716 C1715 1.398 . S
C1716 C1717 1.391 . S
C1717 H1705 0.950 . S
C1717 C1713 1.393 . S
C1717 C1716 1.391 . S
C1718 H1708 0.950 . S
C1718 C1719 1.386 . S
C1718 C1720 1.391 . S
C1719 C1718 1.386 . S
C1719 C1723 1.393 . S
C1720 H1709 0.950 . S
C1720 C1718 1.391 . S
C1720 C1721 1.400 . S
C1721 C1715 1.491 . S
C1721 C1720 1.400 . S
C1721 C1722 1.398 . S
C1722 H1710 0.950 . S
C1722 C1721 1.398 . S
C1722 C1723 1.391 . S
C1723 H1711 0.950 . S
C1723 C1719 1.393 . S
C1723 C1722 1.391 . S
H1724 C1732 0.950 . S
H1725 C1737 0.950 . S
H1726 C1734 0.950 . S
H1727 C1736 0.950 . S
H1728 C1738 0.950 . S
H1729 C1740 0.950 . S
H1730 C1742 0.950 . S
H1731 C1743 0.950 . S
C1732 H1724 0.950 . S
C1732 C1733 1.386 . S
C1732 C1734 1.391 . S
C1733 C1732 1.386 . S
C1733 C1737 1.393 . S
C1734 H1726 0.950 . S
C1734 C1732 1.391 . S
C1734 C1735 1.400 . S
C1735 C1734 1.400 . S
C1735 C1736 1.398 . S
C1735 C1741 1.491 . S
C1736 H1727 0.950 . S
C1736 C1735 1.398 . S
C1736 C1737 1.391 . S
C1737 H1725 0.950 . S
C1737 C1733 1.393 . S
C1737 C1736 1.391 . S
C1738 H1728 0.950 . S
C1738 C1739 1.386 . S
C1738 C1740 1.391 . S
C1739 C1738 1.386 . S
C1739 C1743 1.393 . S
C1740 H1729 0.950 . S
C1740 C1738 1.391 . S
C1740 C1741 1.400 . S
C1741 C1735 1.491 . S
C1741 C1740 1.400 . S
C1741 C1742 1.398 . S
C1742 H1730 0.950 . S
C1742 C1741 1.398 . S
C1742 C1743 1.391 . S
C1743 H1731 0.950 . S
C1743 C1739 1.393 . S
C1743 C1742 1.391 . S
H1744 C1752 0.950 . S
H1745 C1757 0.950 . S
H1746 C1754 0.950 . S
H1747 C1756 0.950 . S
H1748 C1758 0.950 . S
H1749 C1760 0.950 . S
H1750 C1762 0.950 . S
H1751 C1763 0.950 . S
C1752 H1744 0.950 . S
C1752 C1753 1.386 . S
C1752 C1754 1.391 . S
C1753 C1752 1.386 . S
C1753 C1757 1.393 . S
C1754 H1746 0.950 . S
C1754 C1752 1.391 . S
C1754 C1755 1.400 . S
C1755 C1754 1.400 . S
C1755 C1756 1.398 . S
C1755 C1761 1.491 . S
C1756 H1747 0.950 . S
C1756 C1755 1.398 . S
C1756 C1757 1.391 . S
C1757 H1745 0.950 . S
C1757 C1753 1.393 . S
C1757 C1756 1.391 . S
C1758 H1748 0.950 . S
C1758 C1759 1.386 . S
C1758 C1760 1.391 . S
C1759 C1758 1.386 . S
C1759 C1763 1.393 . S
C1760 H1749 0.950 . S
C1760 C1758 1.391 . S
C1760 C1761 1.400 . S
C1761 C1755 1.491 . S
C1761 C1760 1.400 . S
C1761 C1762 1.398 . S
C1762 H1750 0.950 . S
C1762 C1761 1.398 . S
C1762 C1763 1.391 . S
C1763 H1751 0.950 . S
C1763 C1759 1.393 . S
C1763 C1762 1.391 . S
H1764 C1772 0.950 . S
H1765 C1777 0.950 . S
H1766 C1774 0.950 . S
H1767 C1776 0.950 . S
H1768 C1778 0.950 . S
H1769 C1780 0.950 . S
H1770 C1782 0.950 . S
H1771 C1783 0.950 . S
C1772 H1764 0.950 . S
C1772 C1773 1.386 . S
C1772 C1774 1.391 . S
C1773 C1772 1.386 . S
C1773 C1777 1.393 . S
C1774 H1766 0.950 . S
C1774 C1772 1.391 . S
C1774 C1775 1.400 . S
C1775 C1774 1.400 . S
C1775 C1776 1.398 . S
C1775 C1781 1.491 . S
C1776 H1767 0.950 . S
C1776 C1775 1.398 . S
C1776 C1777 1.391 . S
C1777 H1765 0.950 . S
C1777 C1773 1.393 . S
C1777 C1776 1.391 . S
C1778 H1768 0.950 . S
C1778 C1779 1.386 . S
C1778 C1780 1.391 . S
C1779 C1778 1.386 . S
C1779 C1783 1.393 . S
C1780 H1769 0.950 . S
C1780 C1778 1.391 . S
C1780 C1781 1.400 . S
C1781 C1775 1.491 . S
C1781 C1780 1.400 . S
C1781 C1782 1.398 . S
C1782 H1770 0.950 . S
C1782 C1781 1.398 . S
C1782 C1783 1.391 . S
C1783 H1771 0.950 . S
C1783 C1779 1.393 . S
C1783 C1782 1.391 . S
H1784 C1792 0.950 . S
H1785 C1797 0.950 . S
H1786 C1794 0.950 . S
H1787 C1796 0.950 . S
H1788 C1798 0.950 . S
H1789 C1800 0.950 . S
H1790 C1802 0.950 . S
H1791 C1803 0.950 . S
C1792 H1784 0.950 . S
C1792 C1793 1.386 . S
C1792 C1794 1.391 . S
C1793 C1792 1.386 . S
C1793 C1797 1.393 . S
C1794 H1786 0.950 . S
C1794 C1792 1.391 . S
C1794 C1795 1.400 . S
C1795 C1794 1.400 . S
C1795 C1796 1.398 . S
C1795 C1801 1.491 . S
C1796 H1787 0.950 . S
C1796 C1795 1.398 . S
C1796 C1797 1.391 . S
C1797 H1785 0.950 . S
C1797 C1793 1.393 . S
C1797 C1796 1.391 . S
C1798 H1788 0.950 . S
C1798 C1799 1.386 . S
C1798 C1800 1.391 . S
C1799 C1798 1.386 . S
C1799 C1803 1.393 . S
C1800 H1789 0.950 . S
C1800 C1798 1.391 . S
C1800 C1801 1.400 . S
C1801 C1795 1.491 . S
C1801 C1800 1.400 . S
C1801 C1802 1.398 . S
C1802 H1790 0.950 . S
C1802 C1801 1.398 . S
C1802 C1803 1.391 . S
C1803 H1791 0.950 . S
C1803 C1799 1.393 . S
C1803 C1802 1.391 . S
H1804 C1812 0.950 . S
H1805 C1817 0.950 . S
H1806 C1814 0.950 . S
H1807 C1816 0.950 . S
H1808 C1818 0.950 . S
H1809 C1820 0.950 . S
H1810 C1822 0.950 . S
H1811 C1823 0.950 . S
C1812 H1804 0.950 . S
C1812 C1813 1.386 . S
C1812 C1814 1.391 . S
C1813 C1812 1.386 . S
C1813 C1817 1.393 . S
C1814 H1806 0.950 . S
C1814 C1812 1.391 . S
C1814 C1815 1.400 . S
C1815 C1814 1.400 . S
C1815 C1816 1.398 . S
C1815 C1821 1.491 . S
C1816 H1807 0.950 . S
C1816 C1815 1.398 . S
C1816 C1817 1.391 . S
C1817 H1805 0.950 . S
C1817 C1813 1.393 . S
C1817 C1816 1.391 . S
C1818 H1808 0.950 . S
C1818 C1819 1.386 . S
C1818 C1820 1.391 . S
C1819 C1818 1.386 . S
C1819 C1823 1.393 . S
C1820 H1809 0.950 . S
C1820 C1818 1.391 . S
C1820 C1821 1.400 . S
C1821 C1815 1.491 . S
C1821 C1820 1.400 . S
C1821 C1822 1.398 . S
C1822 H1810 0.950 . S
C1822 C1821 1.398 . S
C1822 C1823 1.391 . S
C1823 H1811 0.950 . S
C1823 C1819 1.393 . S
C1823 C1822 1.391 . S
H1824 C1832 0.950 . S
H1825 C1837 0.950 . S
H1826 C1834 0.950 . S
H1827 C1836 0.950 . S
H1828 C1838 0.950 . S
H1829 C1840 0.950 . S
H1830 C1842 0.950 . S
H1831 C1843 0.950 . S
C1832 H1824 0.950 . S
C1832 C1833 1.386 . S
C1832 C1834 1.391 . S
C1833 C1832 1.386 . S
C1833 C1837 1.393 . S
C1834 H1826 0.950 . S
C1834 C1832 1.391 . S
C1834 C1835 1.400 . S
C1835 C1834 1.400 . S
C1835 C1836 1.398 . S
C1835 C1841 1.491 . S
C1836 H1827 0.950 . S
C1836 C1835 1.398 . S
C1836 C1837 1.391 . S
C1837 H1825 0.950 . S
C1837 C1833 1.393 . S
C1837 C1836 1.391 . S
C1838 H1828 0.950 . S
C1838 C1839 1.386 . S
C1838 C1840 1.391 . S
C1839 C1838 1.386 . S
C1839 C1843 1.393 . S
C1840 H1829 0.950 . S
C1840 C1838 1.391 . S
C1840 C1841 1.400 . S
C1841 C1835 1.491 . S
C1841 C1840 1.400 . S
C1841 C1842 1.398 . S
C1842 H1830 0.950 . S
C1842 C1841 1.398 . S
C1842 C1843 1.391 . S
C1843 H1831 0.950 . S
C1843 C1839 1.393 . S
C1843 C1842 1.391 . S
H1844 C1852 0.950 . S
H1845 C1857 0.950 . S
H1846 C1854 0.950 . S
H1847 C1856 0.950 . S
H1848 C1858 0.950 . S
H1849 C1860 0.950 . S
H1850 C1862 0.950 . S
H1851 C1863 0.950 . S
C1852 H1844 0.950 . S
C1852 C1853 1.386 . S
C1852 C1854 1.391 . S
C1853 C1852 1.386 . S
C1853 C1857 1.393 . S
C1854 H1846 0.950 . S
C1854 C1852 1.391 . S
C1854 C1855 1.400 . S
C1855 C1854 1.400 . S
C1855 C1856 1.398 . S
C1855 C1861 1.491 . S
C1856 H1847 0.950 . S
C1856 C1855 1.398 . S
C1856 C1857 1.391 . S
C1857 H1845 0.950 . S
C1857 C1853 1.393 . S
C1857 C1856 1.391 . S
C1858 H1848 0.950 . S
C1858 C1859 1.386 . S
C1858 C1860 1.391 . S
C1859 C1858 1.386 . S
C1859 C1863 1.393 . S
C1860 H1849 0.950 . S
C1860 C1858 1.391 . S
C1860 C1861 1.400 . S
C1861 C1855 1.491 . S
C1861 C1860 1.400 . S
C1861 C1862 1.398 . S
C1862 H1850 0.950 . S
C1862 C1861 1.398 . S
C1862 C1863 1.391 . S
C1863 H1851 0.950 . S
C1863 C1859 1.393 . S
C1863 C1862 1.391 . S
H1864 C1872 0.950 . S
H1865 C1877 0.950 . S
H1866 C1874 0.950 . S
H1867 C1876 0.950 . S
H1868 C1878 0.950 . S
H1869 C1880 0.950 . S
H1870 C1882 0.950 . S
H1871 C1883 0.950 . S
C1872 H1864 0.950 . S
C1872 C1873 1.386 . S
C1872 C1874 1.391 . S
C1873 C1872 1.386 . S
C1873 C1877 1.393 . S
C1874 H1866 0.950 . S
C1874 C1872 1.391 . S
C1874 C1875 1.400 . S
C1875 C1874 1.400 . S
C1875 C1876 1.398 . S
C1875 C1881 1.491 . S
C1876 H1867 0.950 . S
C1876 C1875 1.398 . S
C1876 C1877 1.391 . S
C1877 H1865 0.950 . S
C1877 C1873 1.393 . S
C1877 C1876 1.391 . S
C1878 H1868 0.950 . S
C1878 C1879 1.386 . S
C1878 C1880 1.391 . S
C1879 C1878 1.386 . S
C1879 C1883 1.393 . S
C1880 H1869 0.950 . S
C1880 C1878 1.391 . S
C1880 C1881 1.400 . S
C1881 C1875 1.491 . S
C1881 C1880 1.400 . S
C1881 C1882 1.398 . S
C1882 H1870 0.950 . S
C1882 C1881 1.398 . S
C1882 C1883 1.391 . S
C1883 H1871 0.950 . S
C1883 C1879 1.393 . S
C1883 C1882 1.391 . S
H1884 C1892 0.950 . S
H1885 C1897 0.950 . S
H1886 C1894 0.950 . S
H1887 C1896 0.950 . S
H1888 C1898 0.950 . S
H1889 C1900 0.950 . S
H1890 C1902 0.950 . S
H1891 C1903 0.950 . S
C1892 H1884 0.950 . S
C1892 C1893 1.386 . S
C1892 C1894 1.391 . S
C1893 C1892 1.386 . S
C1893 C1897 1.393 . S
C1894 H1886 0.950 . S
C1894 C1892 1.391 . S
C1894 C1895 1.400 . S
C1895 C1894 1.400 . S
C1895 C1896 1.398 . S
C1895 C1901 1.491 . S
C1896 H1887 0.950 . S
C1896 C1895 1.398 . S
C1896 C1897 1.391 . S
C1897 H1885 0.950 . S
C1897 C1893 1.393 . S
C1897 C1896 1.391 . S
C1898 H1888 0.950 . S
C1898 C1899 1.386 . S
C1898 C1900 1.391 . S
C1899 C1898 1.386 . S
C1899 C1903 1.393 . S
C1900 H1889 0.950 . S
C1900 C1898 1.391 . S
C1900 C1901 1.400 . S
C1901 C1895 1.491 . S
C1901 C1900 1.400 . S
C1901 C1902 1.398 . S
C1902 H1890 0.950 . S
C1902 C1901 1.398 . S
C1902 C1903 1.391 . S
C1903 H1891 0.950 . S
C1903 C1899 1.393 . S
C1903 C1902 1.391 . S
H1904 C1912 0.950 . S
H1905 C1917 0.950 . S
H1906 C1914 0.950 . S
H1907 C1916 0.950 . S
H1908 C1918 0.950 . S
H1909 C1920 0.950 . S
H1910 C1922 0.950 . S
H1911 C1923 0.950 . S
C1912 H1904 0.950 . S
C1912 C1913 1.386 . S
C1912 C1914 1.391 . S
C1913 C1912 1.386 . S
C1913 C1917 1.393 . S
C1914 H1906 0.950 . S
C1914 C1912 1.391 . S
C1914 C1915 1.400 . S
C1915 C1914 1.400 . S
C1915 C1916 1.398 . S
C1915 C1921 1.491 . S
C1916 H1907 0.950 . S
C1916 C1915 1.398 . S
C1916 C1917 1.391 . S
C1917 H1905 0.950 . S
C1917 C1913 1.393 . S
C1917 C1916 1.391 . S
C1918 H1908 0.950 . S
C1918 C1919 1.386 . S
C1918 C1920 1.391 . S
C1919 C1918 1.386 . S
C1919 C1923 1.393 . S
C1920 H1909 0.950 . S
C1920 C1918 1.391 . S
C1920 C1921 1.400 . S
C1921 C1915 1.491 . S
C1921 C1920 1.400 . S
C1921 C1922 1.398 . S
C1922 H1910 0.950 . S
C1922 C1921 1.398 . S
C1922 C1923 1.391 . S
C1923 H1911 0.950 . S
C1923 C1919 1.393 . S
C1923 C1922 1.391 . S
H1924 C1932 0.950 . S
H1925 C1937 0.950 . S
H1926 C1934 0.950 . S
H1927 C1936 0.950 . S
H1928 C1938 0.950 . S
H1929 C1940 0.950 . S
H1930 C1942 0.950 . S
H1931 C1943 0.950 . S
C1932 H1924 0.950 . S
C1932 C1933 1.386 . S
C1932 C1934 1.391 . S
C1933 C1932 1.386 . S
C1933 C1937 1.393 . S
C1934 H1926 0.950 . S
C1934 C1932 1.391 . S
C1934 C1935 1.400 . S
C1935 C1934 1.400 . S
C1935 C1936 1.398 . S
C1935 C1941 1.491 . S
C1936 H1927 0.950 . S
C1936 C1935 1.398 . S
C1936 C1937 1.391 . S
C1937 H1925 0.950 . S
C1937 C1933 1.393 . S
C1937 C1936 1.391 . S
C1938 H1928 0.950 . S
C1938 C1939 1.386 . S
C1938 C1940 1.391 . S
C1939 C1938 1.386 . S
C1939 C1943 1.393 . S
C1940 H1929 0.950 . S
C1940 C1938 1.391 . S
C1940 C1941 1.400 . S
C1941 C1935 1.491 . S
C1941 C1940 1.400 . S
C1941 C1942 1.398 . S
C1942 H1930 0.950 . S
C1942 C1941 1.398 . S
C1942 C1943 1.391 . S
C1943 H1931 0.950 . S
C1943 C1939 1.393 . S
C1943 C1942 1.391 . S
H1944 C1952 0.950 . S
H1945 C1957 0.950 . S
H1946 C1954 0.950 . S
H1947 C1956 0.950 . S
H1948 C1958 0.950 . S
H1949 C1960 0.950 . S
H1950 C1962 0.950 . S
H1951 C1963 0.950 . S
C1952 H1944 0.950 . S
C1952 C1953 1.386 . S
C1952 C1954 1.391 . S
C1953 C1952 1.386 . S
C1953 C1957 1.393 . S
C1954 H1946 0.950 . S
C1954 C1952 1.391 . S
C1954 C1955 1.400 . S
C1955 C1954 1.400 . S
C1955 C1956 1.398 . S
C1955 C1961 1.491 . S
C1956 H1947 0.950 . S
C1956 C1955 1.398 . S
C1956 C1957 1.391 . S
C1957 H1945 0.950 . S
C1957 C1953 1.393 . S
C1957 C1956 1.391 . S
C1958 H1948 0.950 . S
C1958 C1959 1.386 . S
C1958 C1960 1.391 . S
C1959 C1958 1.386 . S
C1959 C1963 1.393 . S
C1960 H1949 0.950 . S
C1960 C1958 1.391 . S
C1960 C1961 1.400 . S
C1961 C1955 1.491 . S
C1961 C1960 1.400 . S
C1961 C1962 1.398 . S
C1962 H1950 0.950 . S
C1962 C1961 1.398 . S
C1962 C1963 1.391 . S
C1963 H1951 0.950 . S
C1963 C1959 1.393 . S
C1963 C1962 1.391 . S
H1964 C1972 0.950 . S
H1965 C1977 0.950 1_565 S
H1966 C1974 0.950 . S
H1967 C1976 0.950 . S
H1968 C1978 0.950 . S
H1969 C1980 0.950 . S
H1970 C1982 0.950 . S
H1971 C1983 0.950 1_545 S
C1972 H1964 0.950 . S
C1972 C1973 1.386 . S
C1972 C1974 1.391 . S
C1973 C1972 1.386 . S
C1973 C1977 1.393 . S
C1974 H1966 0.950 . S
C1974 C1972 1.391 . S
C1974 C1975 1.400 . S
C1975 C1974 1.400 . S
C1975 C1976 1.398 1_545 S
C1975 C1981 1.491 1_545 S
C1976 H1967 0.950 . S
C1976 C1975 1.398 1_565 S
C1976 C1977 1.391 1_565 S
C1977 H1965 0.950 1_545 S
C1977 C1973 1.393 . S
C1977 C1976 1.391 1_545 S
C1978 H1968 0.950 . S
C1978 C1979 1.386 . S
C1978 C1980 1.391 . S
C1979 C1978 1.386 . S
C1979 C1983 1.393 . S
C1980 H1969 0.950 . S
C1980 C1978 1.391 . S
C1980 C1981 1.400 . S
C1981 C1975 1.491 1_565 S
C1981 C1980 1.400 . S
C1981 C1982 1.398 1_565 S
C1982 H1970 0.950 . S
C1982 C1981 1.398 1_545 S
C1982 C1983 1.391 1_545 S
C1983 H1971 0.950 1_565 S
C1983 C1979 1.393 . S
C1983 C1982 1.391 1_565 S
H1984 C1992 0.950 . S
H1985 C1997 0.951 . S
H1986 C1994 0.950 . S
H1987 C1996 0.950 . S
H1988 C1998 0.950 . S
H1989 C2000 0.950 . S
H1990 C2002 0.950 . S
H1991 C2003 0.951 . S
C1992 H1984 0.950 . S
C1992 C1993 1.386 . S
C1992 C1994 1.391 . S
C1993 C1992 1.386 . S
C1993 C1997 1.387 1_655 S
C1994 H1986 0.950 . S
C1994 C1992 1.391 . S
C1994 C1995 1.400 . S
C1995 C1994 1.400 . S
C1995 C1996 1.398 1_655 S
C1995 C2001 1.491 1_655 S
C1996 H1987 0.950 . S
C1996 C1995 1.398 1_455 S
C1996 C1997 1.396 . S
C1997 H1985 0.951 . S
C1997 C1993 1.387 1_455 S
C1997 C1996 1.396 . S
C1998 H1988 0.950 . S
C1998 C1999 1.386 . S
C1998 C2000 1.391 . S
C1999 C1998 1.386 . S
C1999 C2003 1.387 1_455 S
C2000 H1989 0.950 . S
C2000 C1998 1.391 . S
C2000 C2001 1.400 . S
C2001 C1995 1.491 1_455 S
C2001 C2000 1.400 . S
C2001 C2002 1.398 1_455 S
C2002 H1990 0.950 . S
C2002 C2001 1.398 1_655 S
C2002 C2003 1.396 . S
C2003 H1991 0.951 . S
C2003 C1999 1.387 1_655 S
C2003 C2002 1.396 . S
H2004 C2012 0.950 . S
H2005 C2017 0.950 . S
H2006 C2014 0.950 . S
H2007 C2016 0.950 . S
H2008 C2018 0.950 . S
H2009 C2020 0.950 . S
H2010 C2022 0.950 . S
H2011 C2023 0.950 . S
C2012 H2004 0.950 . S
C2012 C2013 1.386 . S
C2012 C2014 1.391 . S
C2013 C2012 1.386 . S
C2013 C2017 1.393 . S
C2014 H2006 0.950 . S
C2014 C2012 1.391 . S
C2014 C2015 1.400 . S
C2015 C2014 1.400 . S
C2015 C2016 1.398 . S
C2015 C2021 1.491 . S
C2016 H2007 0.950 . S
C2016 C2015 1.398 . S
C2016 C2017 1.391 . S
C2017 H2005 0.950 . S
C2017 C2013 1.393 . S
C2017 C2016 1.391 . S
C2018 H2008 0.950 . S
C2018 C2019 1.386 . S
C2018 C2020 1.391 . S
C2019 C2018 1.386 . S
C2019 C2023 1.393 . S
C2020 H2009 0.950 . S
C2020 C2018 1.391 . S
C2020 C2021 1.400 . S
C2021 C2015 1.491 . S
C2021 C2020 1.400 . S
C2021 C2022 1.398 . S
C2022 H2010 0.950 . S
C2022 C2021 1.398 . S
C2022 C2023 1.391 . S
C2023 H2011 0.950 . S
C2023 C2019 1.393 . S
C2023 C2022 1.391 . S
H2024 C2032 0.950 . S
H2025 C2037 0.950 . S
H2026 C2034 0.950 . S
H2027 C2036 0.950 . S
H2028 C2038 0.950 . S
H2029 C2040 0.950 . S
H2030 C2042 0.950 . S
H2031 C2043 0.950 . S
C2032 H2024 0.950 . S
C2032 C2033 1.386 1_565 S
C2032 C2034 1.391 . S
C2033 C2032 1.386 1_545 S
C2033 C2037 1.393 . S
C2034 H2026 0.950 . S
C2034 C2032 1.391 . S
C2034 C2035 1.400 1_565 S
C2035 C2034 1.400 1_545 S
C2035 C2036 1.398 . S
C2035 C2041 1.491 1_545 S
C2036 H2027 0.950 . S
C2036 C2035 1.398 . S
C2036 C2037 1.391 . S
C2037 H2025 0.950 . S
C2037 C2033 1.393 . S
C2037 C2036 1.391 . S
C2038 H2028 0.950 . S
C2038 C2039 1.386 1_545 S
C2038 C2040 1.391 . S
C2039 C2038 1.386 1_565 S
C2039 C2043 1.393 . S
C2040 H2029 0.950 . S
C2040 C2038 1.391 . S
C2040 C2041 1.400 1_545 S
C2041 C2035 1.491 1_565 S
C2041 C2040 1.400 1_565 S
C2041 C2042 1.398 . S
C2042 H2030 0.950 . S
C2042 C2041 1.398 . S
C2042 C2043 1.391 . S
C2043 H2031 0.950 . S
C2043 C2039 1.393 . S
C2043 C2042 1.391 . S
H2044 C2052 0.950 . S
H2045 C2057 0.950 . S
H2046 C2054 0.950 1_455 S
H2047 C2056 0.950 . S
H2048 C2058 0.950 . S
H2049 C2060 0.950 1_655 S
H2050 C2062 0.950 . S
H2051 C2063 0.950 . S
C2052 H2044 0.950 . S
C2052 C2053 1.386 . S
C2052 C2054 1.391 . S
C2053 C2052 1.386 . S
C2053 C2057 1.393 . S
C2054 H2046 0.950 1_655 S
C2054 C2052 1.391 . S
C2054 C2055 1.400 . S
C2055 C2054 1.400 . S
C2055 C2056 1.398 . S
C2055 C2061 1.491 1_655 S
C2056 H2047 0.950 . S
C2056 C2055 1.398 . S
C2056 C2057 1.391 . S
C2057 H2045 0.950 . S
C2057 C2053 1.393 . S
C2057 C2056 1.391 . S
C2058 H2048 0.950 . S
C2058 C2059 1.386 . S
C2058 C2060 1.391 . S
C2059 C2058 1.386 . S
C2059 C2063 1.393 . S
C2060 H2049 0.950 1_455 S
C2060 C2058 1.391 . S
C2060 C2061 1.400 . S
C2061 C2055 1.491 1_455 S
C2061 C2060 1.400 . S
C2061 C2062 1.398 . S
C2062 H2050 0.950 . S
C2062 C2061 1.398 . S
C2062 C2063 1.391 . S
C2063 H2051 0.950 . S
C2063 C2059 1.393 . S
C2063 C2062 1.391 . S
H2064 C2072 0.950 . S
H2065 C2077 0.950 . S
H2066 C2074 0.950 . S
H2067 C2076 0.950 . S
H2068 C2078 0.950 . S
H2069 C2080 0.950 . S
H2070 C2082 0.950 . S
H2071 C2083 0.950 . S
C2072 H2064 0.950 . S
C2072 C2073 1.386 . S
C2072 C2074 1.391 . S
C2073 C2072 1.386 . S
C2073 C2077 1.393 . S
C2074 H2066 0.950 . S
C2074 C2072 1.391 . S
C2074 C2075 1.400 . S
C2075 C2074 1.400 . S
C2075 C2076 1.398 . S
C2075 C2081 1.491 . S
C2076 H2067 0.950 . S
C2076 C2075 1.398 . S
C2076 C2077 1.391 . S
C2077 H2065 0.950 . S
C2077 C2073 1.393 . S
C2077 C2076 1.391 . S
C2078 H2068 0.950 . S
C2078 C2079 1.386 . S
C2078 C2080 1.391 . S
C2079 C2078 1.386 . S
C2079 C2083 1.393 . S
C2080 H2069 0.950 . S
C2080 C2078 1.391 . S
C2080 C2081 1.400 . S
C2081 C2075 1.491 . S
C2081 C2080 1.400 . S
C2081 C2082 1.398 . S
C2082 H2070 0.950 . S
C2082 C2081 1.398 . S
C2082 C2083 1.391 . S
C2083 H2071 0.950 . S
C2083 C2079 1.393 . S
C2083 C2082 1.391 . S
H2084 C2092 0.950 . S
H2085 C2097 0.950 . S
H2086 C2094 0.950 . S
H2087 C2096 0.950 . S
H2088 C2098 0.950 . S
H2089 C2100 0.950 . S
H2090 C2102 0.950 . S
H2091 C2103 0.950 . S
C2092 H2084 0.950 . S
C2092 C2093 1.386 . S
C2092 C2094 1.391 . S
C2093 C2092 1.386 . S
C2093 C2097 1.393 . S
C2094 H2086 0.950 . S
C2094 C2092 1.391 . S
C2094 C2095 1.400 . S
C2095 C2094 1.400 . S
C2095 C2096 1.398 . S
C2095 C2101 1.491 . S
C2096 H2087 0.950 . S
C2096 C2095 1.398 . S
C2096 C2097 1.391 . S
C2097 H2085 0.950 . S
C2097 C2093 1.393 . S
C2097 C2096 1.391 . S
C2098 H2088 0.950 . S
C2098 C2099 1.386 . S
C2098 C2100 1.391 . S
C2099 C2098 1.386 . S
C2099 C2103 1.393 . S
C2100 H2089 0.950 . S
C2100 C2098 1.391 . S
C2100 C2101 1.400 . S
C2101 C2095 1.491 . S
C2101 C2100 1.400 . S
C2101 C2102 1.398 . S
C2102 H2090 0.950 . S
C2102 C2101 1.398 . S
C2102 C2103 1.391 . S
C2103 H2091 0.950 . S
C2103 C2099 1.393 . S
C2103 C2102 1.391 . S
H2104 C2112 0.950 . S
H2105 C2117 0.950 . S
H2106 C2114 0.950 . S
H2107 C2116 0.950 . S
H2108 C2118 0.950 . S
H2109 C2120 0.950 . S
H2110 C2122 0.950 . S
H2111 C2123 0.950 . S
C2112 H2104 0.950 . S
C2112 C2113 1.386 . S
C2112 C2114 1.391 . S
C2113 C2112 1.386 . S
C2113 C2117 1.393 . S
C2114 H2106 0.950 . S
C2114 C2112 1.391 . S
C2114 C2115 1.400 . S
C2115 C2114 1.400 . S
C2115 C2116 1.398 . S
C2115 C2121 1.491 . S
C2116 H2107 0.950 . S
C2116 C2115 1.398 . S
C2116 C2117 1.391 . S
C2117 H2105 0.950 . S
C2117 C2113 1.393 . S
C2117 C2116 1.391 . S
C2118 H2108 0.950 . S
C2118 C2119 1.386 . S
C2118 C2120 1.391 . S
C2119 C2118 1.386 . S
C2119 C2123 1.393 . S
C2120 H2109 0.950 . S
C2120 C2118 1.391 . S
C2120 C2121 1.400 . S
C2121 C2115 1.491 . S
C2121 C2120 1.400 . S
C2121 C2122 1.398 . S
C2122 H2110 0.950 . S
C2122 C2121 1.398 . S
C2122 C2123 1.391 . S
C2123 H2111 0.950 . S
C2123 C2119 1.393 . S
C2123 C2122 1.391 . S
H2124 C2132 0.950 . S
H2125 C2137 0.950 . S
H2126 C2134 0.950 . S
H2127 C2136 0.950 . S
H2128 C2138 0.950 1_556 S
H2129 C2140 0.950 . S
H2130 C2142 0.950 . S
H2131 C2143 0.950 1_556 S
C2132 H2124 0.950 . S
C2132 C2133 1.386 . S
C2132 C2134 1.391 . S
C2133 C2132 1.386 . S
C2133 C2137 1.393 . S
C2134 H2126 0.950 . S
C2134 C2132 1.391 . S
C2134 C2135 1.400 . S
C2135 C2134 1.400 . S
C2135 C2136 1.398 . S
C2135 C2141 1.491 . S
C2136 H2127 0.950 . S
C2136 C2135 1.398 . S
C2136 C2137 1.391 . S
C2137 H2125 0.950 . S
C2137 C2133 1.393 . S
C2137 C2136 1.391 . S
C2138 H2128 0.950 1_554 S
C2138 C2139 1.386 1_554 S
C2138 C2140 1.391 . S
C2139 C2138 1.386 1_556 S
C2139 C2143 1.393 1_556 S
C2140 H2129 0.950 . S
C2140 C2138 1.391 . S
C2140 C2141 1.400 . S
C2141 C2135 1.491 . S
C2141 C2140 1.400 . S
C2141 C2142 1.398 . S
C2142 H2130 0.950 . S
C2142 C2141 1.398 . S
C2142 C2143 1.391 . S
C2143 H2131 0.950 1_554 S
C2143 C2139 1.393 1_554 S
C2143 C2142 1.391 . S
H2144 C2152 0.950 1_556 S
H2145 C2157 0.950 . S
H2146 C2154 0.950 . S
H2147 C2156 0.950 . S
H2148 C2158 0.950 . S
H2149 C2160 0.950 . S
H2150 C2162 0.950 . S
H2151 C2163 0.950 . S
C2152 H2144 0.950 1_554 S
C2152 C2153 1.386 1_554 S
C2152 C2154 1.391 . S
C2153 C2152 1.386 1_556 S
C2153 C2157 1.393 1_556 S
C2154 H2146 0.950 . S
C2154 C2152 1.391 . S
C2154 C2155 1.400 . S
C2155 C2154 1.400 . S
C2155 C2156 1.398 . S
C2155 C2161 1.491 . S
C2156 H2147 0.950 . S
C2156 C2155 1.398 . S
C2156 C2157 1.391 . S
C2157 H2145 0.950 . S
C2157 C2153 1.393 1_554 S
C2157 C2156 1.391 . S
C2158 H2148 0.950 . S
C2158 C2159 1.386 . S
C2158 C2160 1.391 . S
C2159 C2158 1.386 . S
C2159 C2163 1.393 . S
C2160 H2149 0.950 . S
C2160 C2158 1.391 . S
C2160 C2161 1.400 . S
C2161 C2155 1.491 . S
C2161 C2160 1.400 . S
C2161 C2162 1.398 . S
C2162 H2150 0.950 . S
C2162 C2161 1.398 . S
C2162 C2163 1.391 . S
C2163 H2151 0.950 . S
C2163 C2159 1.393 . S
C2163 C2162 1.391 . S
H2164 C2172 0.950 . S
H2165 C2177 0.950 1_556 S
H2166 C2174 0.950 . S
H2167 C2176 0.950 . S
H2168 C2178 0.950 . S
H2169 C2180 0.950 . S
H2170 C2182 0.950 . S
H2171 C2183 0.950 . S
C2172 H2164 0.950 . S
C2172 C2173 1.386 1_554 S
C2172 C2174 1.391 . S
C2173 C2172 1.386 1_556 S
C2173 C2177 1.393 1_556 S
C2174 H2166 0.950 . S
C2174 C2172 1.391 . S
C2174 C2175 1.400 . S
C2175 C2174 1.400 . S
C2175 C2176 1.398 . S
C2175 C2181 1.491 . S
C2176 H2167 0.950 . S
C2176 C2175 1.398 . S
C2176 C2177 1.391 . S
C2177 H2165 0.950 1_554 S
C2177 C2173 1.393 1_554 S
C2177 C2176 1.391 . S
C2178 H2168 0.950 . S
C2178 C2179 1.386 . S
C2178 C2180 1.391 . S
C2179 C2178 1.386 . S
C2179 C2183 1.393 . S
C2180 H2169 0.950 . S
C2180 C2178 1.391 . S
C2180 C2181 1.400 . S
C2181 C2175 1.491 . S
C2181 C2180 1.400 . S
C2181 C2182 1.398 . S
C2182 H2170 0.950 . S
C2182 C2181 1.398 . S
C2182 C2183 1.391 . S
C2183 H2171 0.950 . S
C2183 C2179 1.393 . S
C2183 C2182 1.391 . S
H2184 C2192 0.950 1_554 S
H2185 C2197 0.950 . S
H2186 C2194 0.950 . S
H2187 C2196 0.950 . S
H2188 C2198 0.950 . S
H2189 C2200 0.950 . S
H2190 C2202 0.950 . S
H2191 C2203 0.950 . S
C2192 H2184 0.950 1_556 S
C2192 C2193 1.386 1_556 S
C2192 C2194 1.391 . S
C2193 C2192 1.386 1_554 S
C2193 C2197 1.393 1_554 S
C2194 H2186 0.950 . S
C2194 C2192 1.391 . S
C2194 C2195 1.400 . S
C2195 C2194 1.400 . S
C2195 C2196 1.398 . S
C2195 C2201 1.491 . S
C2196 H2187 0.950 . S
C2196 C2195 1.398 . S
C2196 C2197 1.391 . S
C2197 H2185 0.950 . S
C2197 C2193 1.393 1_556 S
C2197 C2196 1.391 . S
C2198 H2188 0.950 . S
C2198 C2199 1.386 . S
C2198 C2200 1.391 . S
C2199 C2198 1.386 . S
C2199 C2203 1.393 . S
C2200 H2189 0.950 . S
C2200 C2198 1.391 . S
C2200 C2201 1.400 . S
C2201 C2195 1.491 . S
C2201 C2200 1.400 . S
C2201 C2202 1.398 . S
C2202 H2190 0.950 . S
C2202 C2201 1.398 . S
C2202 C2203 1.391 . S
C2203 H2191 0.950 . S
C2203 C2199 1.393 . S
C2203 C2202 1.391 . S
H2204 C2212 0.950 1_554 S
H2205 C2217 0.950 . S
H2206 C2214 0.950 . S
H2207 C2216 0.950 . S
H2208 C2218 0.950 . S
H2209 C2220 0.950 . S
H2210 C2222 0.950 . S
H2211 C2223 0.950 . S
C2212 H2204 0.950 1_556 S
C2212 C2213 1.386 1_556 S
C2212 C2214 1.391 . S
C2213 C2212 1.386 1_554 S
C2213 C2217 1.393 1_554 S
C2214 H2206 0.950 . S
C2214 C2212 1.391 . S
C2214 C2215 1.400 . S
C2215 C2214 1.400 . S
C2215 C2216 1.398 . S
C2215 C2221 1.491 . S
C2216 H2207 0.950 . S
C2216 C2215 1.398 . S
C2216 C2217 1.391 . S
C2217 H2205 0.950 . S
C2217 C2213 1.393 1_556 S
C2217 C2216 1.391 . S
C2218 H2208 0.950 . S
C2218 C2219 1.386 . S
C2218 C2220 1.391 . S
C2219 C2218 1.386 . S
C2219 C2223 1.393 . S
C2220 H2209 0.950 . S
C2220 C2218 1.391 . S
C2220 C2221 1.400 . S
C2221 C2215 1.491 . S
C2221 C2220 1.400 . S
C2221 C2222 1.398 . S
C2222 H2210 0.950 . S
C2222 C2221 1.398 . S
C2222 C2223 1.391 . S
C2223 H2211 0.950 . S
C2223 C2219 1.393 . S
C2223 C2222 1.391 . S
H2224 C2232 0.950 . S
H2225 C2237 0.950 1_554 S
H2226 C2234 0.950 . S
H2227 C2236 0.950 . S
H2228 C2238 0.950 . S
H2229 C2240 0.950 . S
H2230 C2242 0.950 . S
H2231 C2243 0.950 . S
C2232 H2224 0.950 . S
C2232 C2233 1.386 1_556 S
C2232 C2234 1.391 . S
C2233 C2232 1.386 1_554 S
C2233 C2237 1.393 1_554 S
C2234 H2226 0.950 . S
C2234 C2232 1.391 . S
C2234 C2235 1.400 . S
C2235 C2234 1.400 . S
C2235 C2236 1.398 . S
C2235 C2241 1.491 . S
C2236 H2227 0.950 . S
C2236 C2235 1.398 . S
C2236 C2237 1.391 . S
C2237 H2225 0.950 1_556 S
C2237 C2233 1.393 1_556 S
C2237 C2236 1.391 . S
C2238 H2228 0.950 . S
C2238 C2239 1.386 . S
C2238 C2240 1.391 . S
C2239 C2238 1.386 . S
C2239 C2243 1.393 . S
C2240 H2229 0.950 . S
C2240 C2238 1.391 . S
C2240 C2241 1.400 . S
C2241 C2235 1.491 . S
C2241 C2240 1.400 . S
C2241 C2242 1.398 . S
C2242 H2230 0.950 . S
C2242 C2241 1.398 . S
C2242 C2243 1.391 . S
C2243 H2231 0.950 . S
C2243 C2239 1.393 . S
C2243 C2242 1.391 . S
H2244 C2252 0.950 . S
H2245 C2257 0.950 . S
H2246 C2254 0.950 . S
H2247 C2256 0.950 . S
H2248 C2258 0.950 . S
H2249 C2260 0.950 . S
H2250 C2262 0.950 . S
H2251 C2263 0.950 . S
C2252 H2244 0.950 . S
C2252 C2253 1.386 . S
C2252 C2254 1.391 . S
C2253 C2252 1.386 . S
C2253 C2257 1.393 . S
C2254 H2246 0.950 . S
C2254 C2252 1.391 . S
C2254 C2255 1.400 . S
C2255 C2254 1.400 . S
C2255 C2256 1.398 . S
C2255 C2261 1.491 . S
C2256 H2247 0.950 . S
C2256 C2255 1.398 . S
C2256 C2257 1.391 . S
C2257 H2245 0.950 . S
C2257 C2253 1.393 . S
C2257 C2256 1.391 . S
C2258 H2248 0.950 . S
C2258 C2259 1.386 . S
C2258 C2260 1.391 . S
C2259 C2258 1.386 . S
C2259 C2263 1.393 . S
C2260 H2249 0.950 . S
C2260 C2258 1.391 . S
C2260 C2261 1.400 . S
C2261 C2255 1.491 . S
C2261 C2260 1.400 . S
C2261 C2262 1.398 . S
C2262 H2250 0.950 . S
C2262 C2261 1.398 . S
C2262 C2263 1.391 . S
C2263 H2251 0.950 . S
C2263 C2259 1.393 . S
C2263 C2262 1.391 . S
H2264 C2272 0.950 . S
H2265 C2277 0.950 . S
H2266 C2274 0.950 . S
H2267 C2276 0.950 . S
H2268 C2278 0.950 . S
H2269 C2280 0.950 . S
H2270 C2282 0.950 . S
H2271 C2283 0.950 . S
C2272 H2264 0.950 . S
C2272 C2273 1.386 . S
C2272 C2274 1.391 . S
C2273 C2272 1.386 . S
C2273 C2277 1.393 . S
C2274 H2266 0.950 . S
C2274 C2272 1.391 . S
C2274 C2275 1.400 . S
C2275 C2274 1.400 . S
C2275 C2276 1.398 . S
C2275 C2281 1.491 . S
C2276 H2267 0.950 . S
C2276 C2275 1.398 . S
C2276 C2277 1.391 . S
C2277 H2265 0.950 . S
C2277 C2273 1.393 . S
C2277 C2276 1.391 . S
C2278 H2268 0.950 . S
C2278 C2279 1.386 . S
C2278 C2280 1.391 . S
C2279 C2278 1.386 . S
C2279 C2283 1.393 . S
C2280 H2269 0.950 . S
C2280 C2278 1.391 . S
C2280 C2281 1.400 . S
C2281 C2275 1.491 . S
C2281 C2280 1.400 . S
C2281 C2282 1.398 . S
C2282 H2270 0.950 . S
C2282 C2281 1.398 . S
C2282 C2283 1.391 . S
C2283 H2271 0.950 . S
C2283 C2279 1.393 . S
C2283 C2282 1.391 . S
H2284 C2292 0.950 . S
H2285 C2297 0.950 . S
H2286 C2294 0.950 . S
H2287 C2296 0.950 . S
H2288 C2298 0.950 . S
H2289 C2300 0.950 . S
H2290 C2302 0.950 . S
H2291 C2303 0.950 . S
C2292 H2284 0.950 . S
C2292 C2293 1.386 . S
C2292 C2294 1.391 . S
C2293 C2292 1.386 . S
C2293 C2297 1.393 . S
C2294 H2286 0.950 . S
C2294 C2292 1.391 . S
C2294 C2295 1.400 . S
C2295 C2294 1.400 . S
C2295 C2296 1.398 . S
C2295 C2301 1.491 . S
C2296 H2287 0.950 . S
C2296 C2295 1.398 . S
C2296 C2297 1.391 . S
C2297 H2285 0.950 . S
C2297 C2293 1.393 . S
C2297 C2296 1.391 . S
C2298 H2288 0.950 . S
C2298 C2299 1.386 . S
C2298 C2300 1.391 . S
C2299 C2298 1.386 . S
C2299 C2303 1.393 . S
C2300 H2289 0.950 . S
C2300 C2298 1.391 . S
C2300 C2301 1.400 . S
C2301 C2295 1.491 . S
C2301 C2300 1.400 . S
C2301 C2302 1.398 . S
C2302 H2290 0.950 . S
C2302 C2301 1.398 . S
C2302 C2303 1.391 . S
C2303 H2291 0.950 . S
C2303 C2299 1.393 . S
C2303 C2302 1.391 . S
H2304 C2312 0.922 1_554 S
H2305 C2317 0.950 . S
H2306 C2314 0.950 . S
H2307 C2316 0.950 . S
H2308 C2318 0.950 . S
H2309 C2320 0.950 . S
H2310 C2322 0.950 . S
H2311 C2323 0.950 . S
C2312 H2304 0.922 1_556 S
C2312 C2313 1.386 . S
C2312 C2314 1.391 . S
C2313 C2312 1.386 . S
C2313 C2317 1.393 . S
C2314 H2306 0.950 . S
C2314 C2312 1.391 . S
C2314 C2315 1.400 . S
C2315 C2314 1.400 . S
C2315 C2316 1.398 . S
C2315 C2321 1.491 . S
C2316 H2307 0.950 . S
C2316 C2315 1.398 . S
C2316 C2317 1.391 . S
C2317 H2305 0.950 . S
C2317 C2313 1.393 . S
C2317 C2316 1.391 . S
C2318 H2308 0.950 . S
C2318 C2319 1.386 . S
C2318 C2320 1.391 . S
C2319 C2318 1.386 . S
C2319 C2323 1.393 . S
C2320 H2309 0.950 . S
C2320 C2318 1.391 . S
C2320 C2321 1.400 . S
C2321 C2315 1.491 . S
C2321 C2320 1.400 . S
C2321 C2322 1.398 . S
C2322 H2310 0.950 . S
C2322 C2321 1.398 . S
C2322 C2323 1.391 . S
C2323 H2311 0.950 . S
C2323 C2319 1.393 . S
C2323 C2322 1.391 . S
H2324 C2332 0.950 . S
H2325 C2337 0.950 . S
H2326 C2334 0.950 . S
H2327 C2336 0.950 . S
H2328 C2338 0.950 1_554 S
H2329 C2340 0.950 . S
H2330 C2342 0.950 . S
H2331 C2343 0.950 . S
C2332 H2324 0.950 . S
C2332 C2333 1.386 . S
C2332 C2334 1.391 . S
C2333 C2332 1.386 . S
C2333 C2337 1.393 . S
C2334 H2326 0.950 . S
C2334 C2332 1.391 . S
C2334 C2335 1.400 . S
C2335 C2334 1.400 . S
C2335 C2336 1.398 . S
C2335 C2341 1.491 . S
C2336 H2327 0.950 . S
C2336 C2335 1.398 . S
C2336 C2337 1.391 . S
C2337 H2325 0.950 . S
C2337 C2333 1.393 . S
C2337 C2336 1.391 . S
C2338 H2328 0.950 1_556 S
C2338 C2339 1.386 . S
C2338 C2340 1.391 . S
C2339 C2338 1.386 . S
C2339 C2343 1.393 . S
C2340 H2329 0.950 . S
C2340 C2338 1.391 . S
C2340 C2341 1.400 . S
C2341 C2335 1.491 . S
C2341 C2340 1.400 . S
C2341 C2342 1.398 . S
C2342 H2330 0.950 . S
C2342 C2341 1.398 . S
C2342 C2343 1.391 . S
C2343 H2331 0.950 . S
C2343 C2339 1.393 . S
C2343 C2342 1.391 . S
H2344 C2352 0.950 . S
H2345 C2357 0.950 . S
H2346 C2354 0.950 . S
H2347 C2356 0.950 . S
H2348 C2358 0.950 . S
H2349 C2360 0.950 . S
H2350 C2362 0.950 . S
H2351 C2363 0.950 . S
C2352 H2344 0.950 . S
C2352 C2353 1.386 . S
C2352 C2354 1.391 . S
C2353 C2352 1.386 . S
C2353 C2357 1.393 . S
C2354 H2346 0.950 . S
C2354 C2352 1.391 . S
C2354 C2355 1.400 . S
C2355 C2354 1.400 . S
C2355 C2356 1.398 . S
C2355 C2361 1.491 . S
C2356 H2347 0.950 . S
C2356 C2355 1.398 . S
C2356 C2357 1.391 . S
C2357 H2345 0.950 . S
C2357 C2353 1.393 . S
C2357 C2356 1.391 . S
C2358 H2348 0.950 . S
C2358 C2359 1.386 . S
C2358 C2360 1.391 . S
C2359 C2358 1.386 . S
C2359 C2363 1.393 . S
C2360 H2349 0.950 . S
C2360 C2358 1.391 . S
C2360 C2361 1.400 . S
C2361 C2355 1.491 . S
C2361 C2360 1.400 . S
C2361 C2362 1.398 . S
C2362 H2350 0.950 . S
C2362 C2361 1.398 . S
C2362 C2363 1.391 . S
C2363 H2351 0.950 . S
C2363 C2359 1.393 . S
C2363 C2362 1.391 . S
H2364 C2372 0.950 . S
H2365 C2377 0.950 . S
H2366 C2374 0.950 . S
H2367 C2376 0.950 . S
H2368 C2378 0.950 . S
H2369 C2380 0.950 . S
H2370 C2382 0.950 . S
H2371 C2383 0.950 . S
C2372 H2364 0.950 . S
C2372 C2373 1.386 . S
C2372 C2374 1.391 . S
C2373 C2372 1.386 . S
C2373 C2377 1.393 . S
C2374 H2366 0.950 . S
C2374 C2372 1.391 . S
C2374 C2375 1.400 . S
C2375 C2374 1.400 . S
C2375 C2376 1.398 . S
C2375 C2381 1.491 . S
C2376 H2367 0.950 . S
C2376 C2375 1.398 . S
C2376 C2377 1.391 . S
C2377 H2365 0.950 . S
C2377 C2373 1.393 . S
C2377 C2376 1.391 . S
C2378 H2368 0.950 . S
C2378 C2379 1.386 . S
C2378 C2380 1.391 . S
C2379 C2378 1.386 . S
C2379 C2383 1.393 . S
C2380 H2369 0.950 . S
C2380 C2378 1.391 . S
C2380 C2381 1.400 . S
C2381 C2375 1.491 . S
C2381 C2380 1.400 . S
C2381 C2382 1.398 . S
C2382 H2370 0.950 . S
C2382 C2381 1.398 . S
C2382 C2383 1.391 . S
C2383 H2371 0.950 . S
C2383 C2379 1.393 . S
C2383 C2382 1.391 . S
H2384 C2392 0.950 . S
H2385 C2397 0.950 . S
H2386 C2394 0.950 . S
H2387 C2396 0.950 . S
H2388 C2398 0.950 . S
H2389 C2400 0.950 . S
H2390 C2402 0.950 . S
H2391 C2403 0.950 . S
C2392 H2384 0.950 . S
C2392 C2393 1.386 . S
C2392 C2394 1.391 . S
C2393 C2392 1.386 . S
C2393 C2397 1.393 . S
C2394 H2386 0.950 . S
C2394 C2392 1.391 . S
C2394 C2395 1.400 . S
C2395 C2394 1.400 . S
C2395 C2396 1.398 . S
C2395 C2401 1.491 . S
C2396 H2387 0.950 . S
C2396 C2395 1.398 . S
C2396 C2397 1.391 . S
C2397 H2385 0.950 . S
C2397 C2393 1.393 . S
C2397 C2396 1.391 . S
C2398 H2388 0.950 . S
C2398 C2399 1.386 . S
C2398 C2400 1.391 . S
C2399 C2398 1.386 . S
C2399 C2403 1.393 . S
C2400 H2389 0.950 . S
C2400 C2398 1.391 . S
C2400 C2401 1.400 . S
C2401 C2395 1.491 . S
C2401 C2400 1.400 . S
C2401 C2402 1.398 . S
C2402 H2390 0.950 . S
C2402 C2401 1.398 . S
C2402 C2403 1.391 . S
C2403 H2391 0.950 . S
C2403 C2399 1.393 . S
C2403 C2402 1.391 . S
H2404 C2412 0.950 . S
H2405 C2417 0.950 . S
H2406 C2414 0.950 . S
H2407 C2416 0.950 . S
H2408 C2418 0.950 . S
H2409 C2420 0.950 . S
H2410 C2422 0.950 . S
H2411 C2423 0.950 . S
C2412 H2404 0.950 . S
C2412 C2413 1.386 . S
C2412 C2414 1.391 . S
C2413 C2412 1.386 . S
C2413 C2417 1.393 . S
C2414 H2406 0.950 . S
C2414 C2412 1.391 . S
C2414 C2415 1.400 . S
C2415 C2414 1.400 . S
C2415 C2416 1.398 . S
C2415 C2421 1.491 . S
C2416 H2407 0.950 . S
C2416 C2415 1.398 . S
C2416 C2417 1.391 . S
C2417 H2405 0.950 . S
C2417 C2413 1.393 . S
C2417 C2416 1.391 . S
C2418 H2408 0.950 . S
C2418 C2419 1.386 . S
C2418 C2420 1.391 . S
C2419 C2418 1.386 . S
C2419 C2423 1.393 . S
C2420 H2409 0.950 . S
C2420 C2418 1.391 . S
C2420 C2421 1.400 . S
C2421 C2415 1.491 . S
C2421 C2420 1.400 . S
C2421 C2422 1.398 . S
C2422 H2410 0.950 . S
C2422 C2421 1.398 . S
C2422 C2423 1.391 . S
C2423 H2411 0.950 . S
C2423 C2419 1.393 . S
C2423 C2422 1.391 . S
H2424 C2432 0.950 . S
H2425 C2437 0.950 . S
H2426 C2434 0.950 . S
H2427 C2436 0.950 . S
H2428 C2438 0.950 . S
H2429 C2440 0.950 . S
H2430 C2442 0.950 . S
H2431 C2443 0.950 . S
C2432 H2424 0.950 . S
C2432 C2433 1.386 . S
C2432 C2434 1.391 . S
C2433 C2432 1.386 . S
C2433 C2437 1.393 . S
C2434 H2426 0.950 . S
C2434 C2432 1.391 . S
C2434 C2435 1.400 . S
C2435 C2434 1.400 . S
C2435 C2436 1.398 . S
C2435 C2441 1.491 . S
C2436 H2427 0.950 . S
C2436 C2435 1.398 . S
C2436 C2437 1.391 . S
C2437 H2425 0.950 . S
C2437 C2433 1.393 . S
C2437 C2436 1.391 . S
C2438 H2428 0.950 . S
C2438 C2439 1.386 . S
C2438 C2440 1.391 . S
C2439 C2438 1.386 . S
C2439 C2443 1.393 . S
C2440 H2429 0.950 . S
C2440 C2438 1.391 . S
C2440 C2441 1.400 . S
C2441 C2435 1.491 . S
C2441 C2440 1.400 . S
C2441 C2442 1.398 . S
C2442 H2430 0.950 . S
C2442 C2441 1.398 . S
C2442 C2443 1.391 . S
C2443 H2431 0.950 . S
C2443 C2439 1.393 . S
C2443 C2442 1.391 . S
H2444 C2452 0.950 . S
H2445 C2457 0.950 . S
H2446 C2454 0.950 . S
H2447 C2456 0.950 . S
H2448 C2458 0.950 . S
H2449 C2460 0.950 . S
H2450 C2462 0.950 . S
H2451 C2463 0.950 . S
C2452 H2444 0.950 . S
C2452 C2453 1.386 . S
C2452 C2454 1.391 . S
C2453 C2452 1.386 . S
C2453 C2457 1.393 . S
C2454 H2446 0.950 . S
C2454 C2452 1.391 . S
C2454 C2455 1.400 . S
C2455 C2454 1.400 . S
C2455 C2456 1.398 . S
C2455 C2461 1.491 . S
C2456 H2447 0.950 . S
C2456 C2455 1.398 . S
C2456 C2457 1.391 . S
C2457 H2445 0.950 . S
C2457 C2453 1.393 . S
C2457 C2456 1.391 . S
C2458 H2448 0.950 . S
C2458 C2459 1.386 . S
C2458 C2460 1.391 . S
C2459 C2458 1.386 . S
C2459 C2463 1.393 . S
C2460 H2449 0.950 . S
C2460 C2458 1.391 . S
C2460 C2461 1.400 . S
C2461 C2455 1.491 . S
C2461 C2460 1.400 . S
C2461 C2462 1.398 . S
C2462 H2450 0.950 . S
C2462 C2461 1.398 . S
C2462 C2463 1.391 . S
C2463 H2451 0.950 . S
C2463 C2459 1.393 . S
C2463 C2462 1.391 . S
H2464 C2472 0.950 . S
H2465 C2477 0.950 . S
H2466 C2474 0.950 . S
H2467 C2476 0.950 . S
H2468 C2478 0.950 . S
H2469 C2480 0.950 . S
H2470 C2482 0.950 . S
H2471 C2483 0.950 . S
C2472 H2464 0.950 . S
C2472 C2473 1.386 . S
C2472 C2474 1.391 . S
C2473 C2472 1.386 . S
C2473 C2477 1.393 . S
C2474 H2466 0.950 . S
C2474 C2472 1.391 . S
C2474 C2475 1.400 . S
C2475 C2474 1.400 . S
C2475 C2476 1.398 . S
C2475 C2481 1.491 . S
C2476 H2467 0.950 . S
C2476 C2475 1.398 . S
C2476 C2477 1.391 . S
C2477 H2465 0.950 . S
C2477 C2473 1.393 . S
C2477 C2476 1.391 . S
C2478 H2468 0.950 . S
C2478 C2479 1.386 . S
C2478 C2480 1.391 . S
C2479 C2478 1.386 . S
C2479 C2483 1.393 . S
C2480 H2469 0.950 . S
C2480 C2478 1.391 . S
C2480 C2481 1.400 . S
C2481 C2475 1.491 . S
C2481 C2480 1.400 . S
C2481 C2482 1.398 . S
C2482 H2470 0.950 . S
C2482 C2481 1.398 . S
C2482 C2483 1.391 . S
C2483 H2471 0.950 . S
C2483 C2479 1.393 . S
C2483 C2482 1.391 . S
H2484 C2492 0.950 . S
H2485 C2497 0.950 . S
H2486 C2494 0.950 . S
H2487 C2496 0.950 . S
H2488 C2498 0.950 . S
H2489 C2500 0.950 . S
H2490 C2502 0.950 . S
H2491 C2503 0.950 . S
C2492 H2484 0.950 . S
C2492 C2493 1.386 . S
C2492 C2494 1.391 . S
C2493 C2492 1.386 . S
C2493 C2497 1.393 . S
C2494 H2486 0.950 . S
C2494 C2492 1.391 . S
C2494 C2495 1.400 . S
C2495 C2494 1.400 . S
C2495 C2496 1.398 . S
C2495 C2501 1.491 . S
C2496 H2487 0.950 . S
C2496 C2495 1.398 . S
C2496 C2497 1.391 . S
C2497 H2485 0.950 . S
C2497 C2493 1.393 . S
C2497 C2496 1.391 . S
C2498 H2488 0.950 . S
C2498 C2499 1.386 . S
C2498 C2500 1.391 . S
C2499 C2498 1.386 . S
C2499 C2503 1.393 . S
C2500 H2489 0.950 . S
C2500 C2498 1.391 . S
C2500 C2501 1.400 . S
C2501 C2495 1.491 . S
C2501 C2500 1.400 . S
C2501 C2502 1.398 . S
C2502 H2490 0.950 . S
C2502 C2501 1.398 . S
C2502 C2503 1.391 . S
C2503 H2491 0.950 . S
C2503 C2499 1.393 . S
C2503 C2502 1.391 . S
H2504 C2512 0.950 . S
H2505 C2517 0.950 . S
H2506 C2514 0.950 . S
H2507 C2516 0.950 . S
H2508 C2518 0.950 . S
H2509 C2520 0.950 . S
H2510 C2522 0.950 . S
H2511 C2523 0.950 . S
C2512 H2504 0.950 . S
C2512 C2513 1.386 . S
C2512 C2514 1.391 . S
C2513 C2512 1.386 . S
C2513 C2517 1.393 . S
C2514 H2506 0.950 . S
C2514 C2512 1.391 . S
C2514 C2515 1.400 . S
C2515 C2514 1.400 . S
C2515 C2516 1.398 . S
C2515 C2521 1.491 . S
C2516 H2507 0.950 . S
C2516 C2515 1.398 . S
C2516 C2517 1.391 . S
C2517 H2505 0.950 . S
C2517 C2513 1.393 . S
C2517 C2516 1.391 . S
C2518 H2508 0.950 . S
C2518 C2519 1.386 . S
C2518 C2520 1.391 . S
C2519 C2518 1.386 . S
C2519 C2523 1.393 . S
C2520 H2509 0.950 . S
C2520 C2518 1.391 . S
C2520 C2521 1.400 . S
C2521 C2515 1.491 . S
C2521 C2520 1.400 . S
C2521 C2522 1.398 . S
C2522 H2510 0.950 . S
C2522 C2521 1.398 . S
C2522 C2523 1.391 . S
C2523 H2511 0.950 . S
C2523 C2519 1.393 . S
C2523 C2522 1.391 . S
H2524 C2532 0.950 . S
H2525 C2537 0.950 . S
H2526 C2534 0.950 . S
H2527 C2536 0.950 . S
H2528 C2538 0.950 . S
H2529 C2540 0.950 . S
H2530 C2542 0.950 . S
H2531 C2543 0.950 . S
C2532 H2524 0.950 . S
C2532 C2533 1.386 . S
C2532 C2534 1.391 . S
C2533 C2532 1.386 . S
C2533 C2537 1.393 . S
C2534 H2526 0.950 . S
C2534 C2532 1.391 . S
C2534 C2535 1.400 . S
C2535 C2534 1.400 . S
C2535 C2536 1.398 . S
C2535 C2541 1.491 . S
C2536 H2527 0.950 . S
C2536 C2535 1.398 . S
C2536 C2537 1.391 . S
C2537 H2525 0.950 . S
C2537 C2533 1.393 . S
C2537 C2536 1.391 . S
C2538 H2528 0.950 . S
C2538 C2539 1.386 . S
C2538 C2540 1.391 . S
C2539 C2538 1.386 . S
C2539 C2543 1.393 . S
C2540 H2529 0.950 . S
C2540 C2538 1.391 . S
C2540 C2541 1.400 . S
C2541 C2535 1.491 . S
C2541 C2540 1.400 . S
C2541 C2542 1.398 . S
C2542 H2530 0.950 . S
C2542 C2541 1.398 . S
C2542 C2543 1.391 . S
C2543 H2531 0.950 . S
C2543 C2539 1.393 . S
C2543 C2542 1.391 . S
H2544 C2552 0.950 . S
H2545 C2557 0.950 . S
H2546 C2554 0.950 . S
H2547 C2556 0.950 . S
H2548 C2558 0.950 . S
H2549 C2560 0.950 . S
H2550 C2562 0.950 . S
H2551 C2563 0.950 . S
C2552 H2544 0.950 . S
C2552 C2553 1.386 . S
C2552 C2554 1.391 . S
C2553 C2552 1.386 . S
C2553 C2557 1.393 . S
C2554 H2546 0.950 . S
C2554 C2552 1.391 . S
C2554 C2555 1.400 . S
C2555 C2554 1.400 . S
C2555 C2556 1.398 . S
C2555 C2561 1.491 1_455 S
C2556 H2547 0.950 . S
C2556 C2555 1.398 . S
C2556 C2557 1.391 . S
C2557 H2545 0.950 . S
C2557 C2553 1.393 . S
C2557 C2556 1.391 . S
C2558 H2548 0.950 . S
C2558 C2559 1.386 . S
C2558 C2560 1.391 . S
C2559 C2558 1.386 . S
C2559 C2563 1.393 . S
C2560 H2549 0.950 . S
C2560 C2558 1.391 . S
C2560 C2561 1.400 . S
C2561 C2555 1.491 1_655 S
C2561 C2560 1.400 . S
C2561 C2562 1.398 . S
C2562 H2550 0.950 . S
C2562 C2561 1.398 . S
C2562 C2563 1.391 . S
C2563 H2551 0.950 . S
C2563 C2559 1.393 . S
C2563 C2562 1.391 . S
H2564 C2572 0.950 . S
H2565 C2577 0.950 . S
H2566 C2574 0.950 . S
H2567 C2576 0.950 . S
H2568 C2578 0.950 . S
H2569 C2580 0.950 . S
H2570 C2582 0.950 . S
H2571 C2583 0.950 . S
C2572 H2564 0.950 . S
C2572 C2573 1.386 . S
C2572 C2574 1.391 . S
C2573 C2572 1.386 . S
C2573 C2577 1.393 . S
C2574 H2566 0.950 . S
C2574 C2572 1.391 . S
C2574 C2575 1.400 . S
C2575 C2574 1.400 . S
C2575 C2576 1.398 . S
C2575 C2581 1.491 . S
C2576 H2567 0.950 . S
C2576 C2575 1.398 . S
C2576 C2577 1.391 . S
C2577 H2565 0.950 . S
C2577 C2573 1.393 . S
C2577 C2576 1.391 . S
C2578 H2568 0.950 . S
C2578 C2579 1.386 . S
C2578 C2580 1.391 . S
C2579 C2578 1.386 . S
C2579 C2583 1.393 . S
C2580 H2569 0.950 . S
C2580 C2578 1.391 . S
C2580 C2581 1.400 . S
C2581 C2575 1.491 . S
C2581 C2580 1.400 . S
C2581 C2582 1.398 . S
C2582 H2570 0.950 . S
C2582 C2581 1.398 . S
C2582 C2583 1.391 . S
C2583 H2571 0.950 . S
C2583 C2579 1.393 . S
C2583 C2582 1.391 . S
H2584 C2592 0.950 . S
H2585 C2597 0.950 . S
H2586 C2594 0.977 . S
H2587 C2596 0.950 . S
H2588 C2598 0.950 . S
H2589 C2600 0.976 . S
H2590 C2602 0.950 . S
H2591 C2603 0.950 . S
C2592 H2584 0.950 . S
C2592 C2593 1.386 . S
C2592 C2594 1.391 . S
C2593 C2592 1.386 . S
C2593 C2597 1.393 . S
C2594 H2586 0.977 . S
C2594 C2592 1.391 . S
C2594 C2595 1.400 . S
C2595 C2594 1.400 . S
C2595 C2596 1.398 . S
C2595 C2601 1.491 1_545 S
C2596 H2587 0.950 . S
C2596 C2595 1.398 . S
C2596 C2597 1.391 . S
C2597 H2585 0.950 . S
C2597 C2593 1.393 . S
C2597 C2596 1.391 . S
C2598 H2588 0.950 . S
C2598 C2599 1.386 . S
C2598 C2600 1.391 . S
C2599 C2598 1.386 . S
C2599 C2603 1.393 . S
C2600 H2589 0.976 . S
C2600 C2598 1.391 . S
C2600 C2601 1.400 . S
C2601 C2595 1.491 1_565 S
C2601 C2600 1.400 . S
C2601 C2602 1.398 . S
C2602 H2590 0.950 . S
C2602 C2601 1.398 . S
C2602 C2603 1.391 . S
C2603 H2591 0.950 . S
C2603 C2599 1.393 . S
C2603 C2602 1.391 . S
H2604 C2612 0.950 . S
H2605 C2617 0.950 . S
H2606 C2614 0.950 . S
H2607 C2616 0.950 . S
H2608 C2618 0.950 . S
H2609 C2620 0.950 . S
H2610 C2622 0.950 . S
H2611 C2623 0.950 . S
C2612 H2604 0.950 . S
C2612 C2613 1.386 . S
C2612 C2614 1.391 . S
C2613 C2612 1.386 . S
C2613 C2617 1.393 . S
C2614 H2606 0.950 . S
C2614 C2612 1.391 . S
C2614 C2615 1.400 . S
C2615 C2614 1.400 . S
C2615 C2616 1.398 . S
C2615 C2621 1.491 1_545 S
C2616 H2607 0.950 . S
C2616 C2615 1.398 . S
C2616 C2617 1.391 . S
C2617 H2605 0.950 . S
C2617 C2613 1.393 . S
C2617 C2616 1.391 . S
C2618 H2608 0.950 . S
C2618 C2619 1.386 . S
C2618 C2620 1.391 . S
C2619 C2618 1.386 . S
C2619 C2623 1.393 . S
C2620 H2609 0.950 . S
C2620 C2618 1.391 . S
C2620 C2621 1.400 . S
C2621 C2615 1.491 1_565 S
C2621 C2620 1.400 . S
C2621 C2622 1.398 . S
C2622 H2610 0.950 . S
C2622 C2621 1.398 . S
C2622 C2623 1.391 . S
C2623 H2611 0.950 . S
C2623 C2619 1.393 . S
C2623 C2622 1.391 . S
H2624 C2632 0.950 . S
H2625 C2637 0.950 . S
H2626 C2634 0.950 . S
H2627 C2636 0.966 . S
H2628 C2638 0.950 . S
H2629 C2640 0.950 . S
H2630 C2642 0.965 . S
H2631 C2643 0.950 . S
C2632 H2624 0.950 . S
C2632 C2633 1.386 . S
C2632 C2634 1.391 . S
C2633 C2632 1.386 . S
C2633 C2637 1.393 . S
C2634 H2626 0.950 . S
C2634 C2632 1.391 . S
C2634 C2635 1.400 . S
C2635 C2634 1.400 . S
C2635 C2636 1.398 . S
C2635 C2641 1.491 1_655 S
C2636 H2627 0.966 . S
C2636 C2635 1.398 . S
C2636 C2637 1.391 . S
C2637 H2625 0.950 . S
C2637 C2633 1.393 . S
C2637 C2636 1.391 . S
C2638 H2628 0.950 . S
C2638 C2639 1.386 . S
C2638 C2640 1.391 . S
C2639 C2638 1.386 . S
C2639 C2643 1.393 . S
C2640 H2629 0.950 . S
C2640 C2638 1.391 . S
C2640 C2641 1.400 . S
C2641 C2635 1.491 1_455 S
C2641 C2640 1.400 . S
C2641 C2642 1.398 . S
C2642 H2630 0.965 . S
C2642 C2641 1.398 . S
C2642 C2643 1.391 . S
C2643 H2631 0.950 . S
C2643 C2639 1.393 . S
C2643 C2642 1.391 . S
H2644 C2652 0.950 . S
H2645 C2657 0.950 . S
H2646 C2654 0.950 . S
H2647 C2656 0.950 . S
H2648 C2658 0.950 . S
H2649 C2660 0.950 . S
H2650 C2662 0.950 . S
H2651 C2663 0.950 . S
C2652 H2644 0.950 . S
C2652 C2653 1.386 . S
C2652 C2654 1.391 . S
C2653 C2652 1.386 . S
C2653 C2657 1.393 . S
C2654 H2646 0.950 . S
C2654 C2652 1.391 . S
C2654 C2655 1.400 . S
C2655 C2654 1.400 . S
C2655 C2656 1.398 . S
C2655 C2661 1.491 . S
C2656 H2647 0.950 . S
C2656 C2655 1.398 . S
C2656 C2657 1.391 . S
C2657 H2645 0.950 . S
C2657 C2653 1.393 . S
C2657 C2656 1.391 . S
C2658 H2648 0.950 . S
C2658 C2659 1.386 . S
C2658 C2660 1.391 . S
C2659 C2658 1.386 . S
C2659 C2663 1.393 . S
C2660 H2649 0.950 . S
C2660 C2658 1.391 . S
C2660 C2661 1.400 . S
C2661 C2655 1.491 . S
C2661 C2660 1.400 . S
C2661 C2662 1.398 . S
C2662 H2650 0.950 . S
C2662 C2661 1.398 . S
C2662 C2663 1.391 . S
C2663 H2651 0.950 . S
C2663 C2659 1.393 . S
C2663 C2662 1.391 . S
H2664 C2672 0.950 . S
H2665 C2677 0.950 . S
H2666 C2674 0.950 . S
H2667 C2676 0.950 . S
H2668 C2678 0.950 . S
H2669 C2680 0.950 . S
H2670 C2682 0.950 . S
H2671 C2683 0.950 . S
C2672 H2664 0.950 . S
C2672 C2673 1.386 . S
C2672 C2674 1.391 . S
C2673 C2672 1.386 . S
C2673 C2677 1.393 . S
C2674 H2666 0.950 . S
C2674 C2672 1.391 . S
C2674 C2675 1.400 . S
C2675 C2674 1.400 . S
C2675 C2676 1.398 . S
C2675 C2681 1.491 . S
C2676 H2667 0.950 . S
C2676 C2675 1.398 . S
C2676 C2677 1.391 . S
C2677 H2665 0.950 . S
C2677 C2673 1.393 . S
C2677 C2676 1.391 . S
C2678 H2668 0.950 . S
C2678 C2679 1.386 . S
C2678 C2680 1.391 . S
C2679 C2678 1.386 . S
C2679 C2683 1.393 . S
C2680 H2669 0.950 . S
C2680 C2678 1.391 . S
C2680 C2681 1.400 . S
C2681 C2675 1.491 . S
C2681 C2680 1.400 . S
C2681 C2682 1.398 . S
C2682 H2670 0.950 . S
C2682 C2681 1.398 . S
C2682 C2683 1.391 . S
C2683 H2671 0.950 . S
C2683 C2679 1.393 . S
C2683 C2682 1.391 . S
H2684 C2692 0.950 . S
H2685 C2697 0.950 . S
H2686 C2694 0.950 . S
H2687 C2696 0.950 . S
H2688 C2698 0.950 . S
H2689 C2700 0.950 . S
H2690 C2702 0.950 . S
H2691 C2703 0.950 . S
C2692 H2684 0.950 . S
C2692 C2693 1.386 . S
C2692 C2694 1.391 . S
C2693 C2692 1.386 . S
C2693 C2697 1.393 . S
C2694 H2686 0.950 . S
C2694 C2692 1.391 . S
C2694 C2695 1.400 . S
C2695 C2694 1.400 . S
C2695 C2696 1.398 . S
C2695 C2701 1.491 . S
C2696 H2687 0.950 . S
C2696 C2695 1.398 . S
C2696 C2697 1.391 . S
C2697 H2685 0.950 . S
C2697 C2693 1.393 . S
C2697 C2696 1.391 . S
C2698 H2688 0.950 . S
C2698 C2699 1.386 . S
C2698 C2700 1.391 . S
C2699 C2698 1.386 . S
C2699 C2703 1.393 . S
C2700 H2689 0.950 . S
C2700 C2698 1.391 . S
C2700 C2701 1.400 . S
C2701 C2695 1.491 . S
C2701 C2700 1.400 . S
C2701 C2702 1.398 . S
C2702 H2690 0.950 . S
C2702 C2701 1.398 . S
C2702 C2703 1.391 . S
C2703 H2691 0.950 . S
C2703 C2699 1.393 . S
C2703 C2702 1.391 . S
H2704 C2712 0.950 . S
H2705 C2717 0.950 . S
H2706 C2714 0.950 . S
H2707 C2716 0.950 . S
H2708 C2718 0.950 . S
H2709 C2720 0.950 . S
H2710 C2722 0.950 . S
H2711 C2723 0.950 . S
C2712 H2704 0.950 . S
C2712 C2713 1.386 . S
C2712 C2714 1.391 . S
C2713 C2712 1.386 . S
C2713 C2717 1.393 . S
C2714 H2706 0.950 . S
C2714 C2712 1.391 . S
C2714 C2715 1.400 . S
C2715 C2714 1.400 . S
C2715 C2716 1.398 . S
C2715 C2721 1.491 . S
C2716 H2707 0.950 . S
C2716 C2715 1.398 . S
C2716 C2717 1.391 . S
C2717 H2705 0.950 . S
C2717 C2713 1.393 . S
C2717 C2716 1.391 . S
C2718 H2708 0.950 . S
C2718 C2719 1.386 . S
C2718 C2720 1.391 . S
C2719 C2718 1.386 . S
C2719 C2723 1.393 . S
C2720 H2709 0.950 . S
C2720 C2718 1.391 . S
C2720 C2721 1.400 . S
C2721 C2715 1.491 . S
C2721 C2720 1.400 . S
C2721 C2722 1.398 . S
C2722 H2710 0.950 . S
C2722 C2721 1.398 . S
C2722 C2723 1.391 . S
C2723 H2711 0.950 . S
C2723 C2719 1.393 . S
C2723 C2722 1.391 . S
H2724 C2732 0.950 . S
H2725 C2737 0.950 . S
H2726 C2734 0.950 . S
H2727 C2736 0.950 . S
H2728 C2738 0.950 . S
H2729 C2740 0.950 . S
H2730 C2742 0.950 . S
H2731 C2743 0.950 . S
C2732 H2724 0.950 . S
C2732 C2733 1.386 . S
C2732 C2734 1.391 . S
C2733 C2732 1.386 . S
C2733 C2737 1.393 . S
C2734 H2726 0.950 . S
C2734 C2732 1.391 . S
C2734 C2735 1.400 . S
C2735 C2734 1.400 . S
C2735 C2736 1.398 . S
C2735 C2741 1.491 . S
C2736 H2727 0.950 . S
C2736 C2735 1.398 . S
C2736 C2737 1.391 . S
C2737 H2725 0.950 . S
C2737 C2733 1.393 . S
C2737 C2736 1.391 . S
C2738 H2728 0.950 . S
C2738 C2739 1.386 . S
C2738 C2740 1.391 . S
C2739 C2738 1.386 . S
C2739 C2743 1.393 . S
C2740 H2729 0.950 . S
C2740 C2738 1.391 . S
C2740 C2741 1.400 . S
C2741 C2735 1.491 . S
C2741 C2740 1.400 . S
C2741 C2742 1.398 . S
C2742 H2730 0.950 . S
C2742 C2741 1.398 . S
C2742 C2743 1.391 . S
C2743 H2731 0.950 . S
C2743 C2739 1.393 . S
C2743 C2742 1.391 . S
H2744 C2752 0.950 . S
H2745 C2757 1.006 . S
H2746 C2754 0.950 . S
H2747 C2756 0.950 . S
H2748 C2758 0.950 . S
H2749 C2760 0.950 . S
H2750 C2762 0.950 . S
H2751 C2763 0.950 . S
C2752 H2744 0.950 . S
C2752 C2753 1.386 . S
C2752 C2754 1.391 . S
C2753 C2752 1.386 . S
C2753 C2757 1.393 . S
C2754 H2746 0.950 . S
C2754 C2752 1.391 . S
C2754 C2755 1.400 . S
C2755 C2754 1.400 . S
C2755 C2756 1.398 . S
C2755 C2761 1.491 . S
C2756 H2747 0.950 . S
C2756 C2755 1.398 . S
C2756 C2757 1.391 . S
C2757 H2745 1.006 . S
C2757 C2753 1.393 . S
C2757 C2756 1.391 . S
C2758 H2748 0.950 . S
C2758 C2759 1.386 . S
C2758 C2760 1.391 . S
C2759 C2758 1.386 . S
C2759 C2763 1.393 . S
C2760 H2749 0.950 . S
C2760 C2758 1.391 . S
C2760 C2761 1.400 . S
C2761 C2755 1.491 . S
C2761 C2760 1.400 . S
C2761 C2762 1.398 . S
C2762 H2750 0.950 . S
C2762 C2761 1.398 . S
C2762 C2763 1.391 . S
C2763 H2751 0.950 . S
C2763 C2759 1.393 . S
C2763 C2762 1.391 . S
H2764 C2772 0.950 . S
H2765 C2777 0.950 . S
H2766 C2774 0.950 . S
H2767 C2776 0.950 . S
H2768 C2778 0.950 . S
H2769 C2780 0.950 . S
H2770 C2782 0.950 . S
H2771 C2783 0.950 . S
C2772 H2764 0.950 . S
C2772 C2773 1.386 . S
C2772 C2774 1.391 . S
C2773 C2772 1.386 . S
C2773 C2777 1.393 . S
C2774 H2766 0.950 . S
C2774 C2772 1.391 . S
C2774 C2775 1.400 . S
C2775 C2774 1.400 . S
C2775 C2776 1.398 . S
C2775 C2781 1.491 . S
C2776 H2767 0.950 . S
C2776 C2775 1.398 . S
C2776 C2777 1.391 . S
C2777 H2765 0.950 . S
C2777 C2773 1.393 . S
C2777 C2776 1.391 . S
C2778 H2768 0.950 . S
C2778 C2779 1.386 . S
C2778 C2780 1.391 . S
C2779 C2778 1.386 . S
C2779 C2783 1.393 . S
C2780 H2769 0.950 . S
C2780 C2778 1.391 . S
C2780 C2781 1.400 . S
C2781 C2775 1.491 . S
C2781 C2780 1.400 . S
C2781 C2782 1.398 . S
C2782 H2770 0.950 . S
C2782 C2781 1.398 . S
C2782 C2783 1.391 . S
C2783 H2771 0.950 . S
C2783 C2779 1.393 . S
C2783 C2782 1.391 . S
H2784 C2792 0.950 . S
H2785 C2797 0.950 . S
H2786 C2794 0.950 . S
H2787 C2796 0.950 . S
H2788 C2798 0.950 . S
H2789 C2800 0.950 . S
H2790 C2802 0.950 . S
H2791 C2803 0.950 . S
C2792 H2784 0.950 . S
C2792 C2793 1.386 . S
C2792 C2794 1.391 . S
C2793 C2792 1.386 . S
C2793 C2797 1.393 . S
C2794 H2786 0.950 . S
C2794 C2792 1.391 . S
C2794 C2795 1.400 . S
C2795 C2794 1.400 . S
C2795 C2796 1.398 . S
C2795 C2801 1.491 . S
C2796 H2787 0.950 . S
C2796 C2795 1.398 . S
C2796 C2797 1.391 . S
C2797 H2785 0.950 . S
C2797 C2793 1.393 . S
C2797 C2796 1.391 . S
C2798 H2788 0.950 . S
C2798 C2799 1.386 . S
C2798 C2800 1.391 . S
C2799 C2798 1.386 . S
C2799 C2803 1.393 . S
C2800 H2789 0.950 . S
C2800 C2798 1.391 . S
C2800 C2801 1.400 . S
C2801 C2795 1.491 . S
C2801 C2800 1.400 . S
C2801 C2802 1.398 . S
C2802 H2790 0.950 . S
C2802 C2801 1.398 . S
C2802 C2803 1.391 . S
C2803 H2791 0.950 . S
C2803 C2799 1.393 . S
C2803 C2802 1.391 . S
H2804 C2812 0.950 . S
H2805 C2817 0.950 . S
H2806 C2814 0.950 . S
H2807 C2816 0.950 . S
H2808 C2818 0.950 . S
H2809 C2820 0.950 . S
H2810 C2822 0.950 . S
H2811 C2823 0.950 . S
C2812 H2804 0.950 . S
C2812 C2813 1.386 . S
C2812 C2814 1.391 . S
C2813 C2812 1.386 . S
C2813 C2817 1.393 . S
C2814 H2806 0.950 . S
C2814 C2812 1.391 . S
C2814 C2815 1.400 . S
C2815 C2814 1.400 . S
C2815 C2816 1.398 . S
C2815 C2821 1.491 . S
C2816 H2807 0.950 . S
C2816 C2815 1.398 . S
C2816 C2817 1.391 . S
C2817 H2805 0.950 . S
C2817 C2813 1.393 . S
C2817 C2816 1.391 . S
C2818 H2808 0.950 . S
C2818 C2819 1.386 . S
C2818 C2820 1.391 . S
C2819 C2818 1.386 . S
C2819 C2823 1.393 . S
C2820 H2809 0.950 . S
C2820 C2818 1.391 . S
C2820 C2821 1.400 . S
C2821 C2815 1.491 . S
C2821 C2820 1.400 . S
C2821 C2822 1.398 . S
C2822 H2810 0.950 . S
C2822 C2821 1.398 . S
C2822 C2823 1.391 . S
C2823 H2811 0.950 . S
C2823 C2819 1.393 . S
C2823 C2822 1.391 . S
H2824 C2832 0.950 1_455 S
H2825 C2837 0.950 . S
H2826 C2834 0.950 . S
H2827 C2836 0.950 . S
H2828 C2838 0.950 . S
H2829 C2840 0.950 . S
H2830 C2842 0.950 . S
H2831 C2843 0.950 . S
C2832 H2824 0.950 1_655 S
C2832 C2833 1.386 . S
C2832 C2834 1.391 . S
C2833 C2832 1.386 . S
C2833 C2837 1.393 . S
C2834 H2826 0.950 . S
C2834 C2832 1.391 . S
C2834 C2835 1.400 . S
C2835 C2834 1.400 . S
C2835 C2836 1.398 . S
C2835 C2841 1.491 . S
C2836 H2827 0.950 . S
C2836 C2835 1.398 . S
C2836 C2837 1.391 . S
C2837 H2825 0.950 . S
C2837 C2833 1.393 . S
C2837 C2836 1.391 . S
C2838 H2828 0.950 . S
C2838 C2839 1.386 . S
C2838 C2840 1.391 . S
C2839 C2838 1.386 . S
C2839 C2843 1.393 . S
C2840 H2829 0.950 . S
C2840 C2838 1.391 . S
C2840 C2841 1.400 . S
C2841 C2835 1.491 . S
C2841 C2840 1.400 . S
C2841 C2842 1.398 . S
C2842 H2830 0.950 . S
C2842 C2841 1.398 . S
C2842 C2843 1.391 . S
C2843 H2831 0.950 . S
C2843 C2839 1.393 . S
C2843 C2842 1.391 . S
H2844 C2852 0.950 . S
H2845 C2857 0.950 . S
H2846 C2854 0.950 . S
H2847 C2856 0.950 . S
H2848 C2858 0.950 . S
H2849 C2860 0.950 . S
H2850 C2862 0.950 . S
H2851 C2863 0.950 . S
C2852 H2844 0.950 . S
C2852 C2853 1.386 . S
C2852 C2854 1.391 . S
C2853 C2852 1.386 . S
C2853 C2857 1.393 . S
C2854 H2846 0.950 . S
C2854 C2852 1.391 . S
C2854 C2855 1.400 . S
C2855 C2854 1.400 . S
C2855 C2856 1.398 . S
C2855 C2861 1.491 . S
C2856 H2847 0.950 . S
C2856 C2855 1.398 . S
C2856 C2857 1.391 . S
C2857 H2845 0.950 . S
C2857 C2853 1.393 . S
C2857 C2856 1.391 . S
C2858 H2848 0.950 . S
C2858 C2859 1.386 . S
C2858 C2860 1.391 . S
C2859 C2858 1.386 . S
C2859 C2863 1.393 . S
C2860 H2849 0.950 . S
C2860 C2858 1.391 . S
C2860 C2861 1.400 . S
C2861 C2855 1.491 . S
C2861 C2860 1.400 . S
C2861 C2862 1.398 . S
C2862 H2850 0.950 . S
C2862 C2861 1.398 . S
C2862 C2863 1.391 . S
C2863 H2851 0.950 . S
C2863 C2859 1.393 . S
C2863 C2862 1.391 . S
H2864 C2872 0.950 . S
H2865 C2877 0.950 . S
H2866 C2874 0.950 . S
H2867 C2876 0.950 . S
H2868 C2878 0.950 . S
H2869 C2880 0.950 . S
H2870 C2882 0.950 . S
H2871 C2883 0.950 . S
C2872 H2864 0.950 . S
C2872 C2873 1.386 . S
C2872 C2874 1.391 . S
C2873 C2872 1.386 . S
C2873 C2877 1.393 . S
C2874 H2866 0.950 . S
C2874 C2872 1.391 . S
C2874 C2875 1.400 . S
C2875 C2874 1.400 . S
C2875 C2876 1.398 . S
C2875 C2881 1.491 . S
C2876 H2867 0.950 . S
C2876 C2875 1.398 . S
C2876 C2877 1.391 . S
C2877 H2865 0.950 . S
C2877 C2873 1.393 . S
C2877 C2876 1.391 . S
C2878 H2868 0.950 . S
C2878 C2879 1.386 . S
C2878 C2880 1.391 . S
C2879 C2878 1.386 . S
C2879 C2883 1.393 . S
C2880 H2869 0.950 . S
C2880 C2878 1.391 . S
C2880 C2881 1.400 . S
C2881 C2875 1.491 . S
C2881 C2880 1.400 . S
C2881 C2882 1.398 . S
C2882 H2870 0.950 . S
C2882 C2881 1.398 . S
C2882 C2883 1.391 . S
C2883 H2871 0.950 . S
C2883 C2879 1.393 . S
C2883 C2882 1.391 . S
H2884 C2892 0.950 . S
H2885 C2897 0.950 . S
H2886 C2894 0.950 . S
H2887 C2896 0.950 . S
H2888 C2898 0.950 . S
H2889 C2900 0.950 . S
H2890 C2902 0.950 . S
H2891 C2903 0.950 . S
C2892 H2884 0.950 . S
C2892 C2893 1.386 . S
C2892 C2894 1.391 . S
C2893 C2892 1.386 . S
C2893 C2897 1.393 . S
C2894 H2886 0.950 . S
C2894 C2892 1.391 . S
C2894 C2895 1.400 . S
C2895 C2894 1.400 . S
C2895 C2896 1.398 . S
C2895 C2901 1.491 . S
C2896 H2887 0.950 . S
C2896 C2895 1.398 . S
C2896 C2897 1.391 . S
C2897 H2885 0.950 . S
C2897 C2893 1.393 . S
C2897 C2896 1.391 . S
C2898 H2888 0.950 . S
C2898 C2899 1.386 . S
C2898 C2900 1.391 . S
C2899 C2898 1.386 . S
C2899 C2903 1.393 . S
C2900 H2889 0.950 . S
C2900 C2898 1.391 . S
C2900 C2901 1.400 . S
C2901 C2895 1.491 . S
C2901 C2900 1.400 . S
C2901 C2902 1.398 . S
C2902 H2890 0.950 . S
C2902 C2901 1.398 . S
C2902 C2903 1.391 . S
C2903 H2891 0.950 . S
C2903 C2899 1.393 . S
C2903 C2902 1.391 . S
H2904 C2912 0.950 . S
H2905 C2917 0.950 . S
H2906 C2914 0.950 . S
H2907 C2916 0.950 . S
H2908 C2918 0.950 . S
H2909 C2920 0.950 . S
H2910 C2922 0.950 . S
H2911 C2923 0.950 . S
C2912 H2904 0.950 . S
C2912 C2913 1.386 . S
C2912 C2914 1.391 . S
C2913 C2912 1.386 . S
C2913 C2917 1.393 . S
C2914 H2906 0.950 . S
C2914 C2912 1.391 . S
C2914 C2915 1.400 . S
C2915 C2914 1.400 . S
C2915 C2916 1.398 . S
C2915 C2921 1.491 1_455 S
C2916 H2907 0.950 . S
C2916 C2915 1.398 . S
C2916 C2917 1.391 . S
C2917 H2905 0.950 . S
C2917 C2913 1.393 . S
C2917 C2916 1.391 . S
C2918 H2908 0.950 . S
C2918 C2919 1.386 . S
C2918 C2920 1.391 . S
C2919 C2918 1.386 . S
C2919 C2923 1.393 . S
C2920 H2909 0.950 . S
C2920 C2918 1.391 . S
C2920 C2921 1.400 . S
C2921 C2915 1.491 1_655 S
C2921 C2920 1.400 . S
C2921 C2922 1.398 . S
C2922 H2910 0.950 . S
C2922 C2921 1.398 . S
C2922 C2923 1.391 . S
C2923 H2911 0.950 . S
C2923 C2919 1.393 . S
C2923 C2922 1.391 . S
H2924 C2932 0.950 . S
H2925 C2937 0.950 . S
H2926 C2934 0.950 . S
H2927 C2936 0.950 . S
H2928 C2938 0.950 . S
H2929 C2940 0.950 . S
H2930 C2942 0.950 . S
H2931 C2943 0.950 . S
C2932 H2924 0.950 . S
C2932 C2933 1.386 . S
C2932 C2934 1.391 . S
C2933 C2932 1.386 . S
C2933 C2937 1.393 . S
C2934 H2926 0.950 . S
C2934 C2932 1.391 . S
C2934 C2935 1.400 . S
C2935 C2934 1.400 . S
C2935 C2936 1.398 . S
C2935 C2941 1.491 . S
C2936 H2927 0.950 . S
C2936 C2935 1.398 . S
C2936 C2937 1.391 . S
C2937 H2925 0.950 . S
C2937 C2933 1.393 . S
C2937 C2936 1.391 . S
C2938 H2928 0.950 . S
C2938 C2939 1.386 . S
C2938 C2940 1.391 . S
C2939 C2938 1.386 . S
C2939 C2943 1.393 . S
C2940 H2929 0.950 . S
C2940 C2938 1.391 . S
C2940 C2941 1.400 . S
C2941 C2935 1.491 . S
C2941 C2940 1.400 . S
C2941 C2942 1.398 . S
C2942 H2930 0.950 . S
C2942 C2941 1.398 . S
C2942 C2943 1.391 . S
C2943 H2931 0.950 . S
C2943 C2939 1.393 . S
C2943 C2942 1.391 . S
H2944 C2952 0.950 . S
H2945 C2957 0.950 . S
H2946 C2954 0.950 . S
H2947 C2956 0.950 . S
H2948 C2958 0.950 . S
H2949 C2960 0.950 . S
H2950 C2962 0.950 . S
H2951 C2963 0.950 . S
C2952 H2944 0.950 . S
C2952 C2953 1.386 . S
C2952 C2954 1.391 . S
C2953 C2952 1.386 . S
C2953 C2957 1.393 . S
C2954 H2946 0.950 . S
C2954 C2952 1.391 . S
C2954 C2955 1.400 . S
C2955 C2954 1.400 . S
C2955 C2956 1.398 . S
C2955 C2961 1.491 1_545 S
C2956 H2947 0.950 . S
C2956 C2955 1.398 . S
C2956 C2957 1.391 . S
C2957 H2945 0.950 . S
C2957 C2953 1.393 . S
C2957 C2956 1.391 . S
C2958 H2948 0.950 . S
C2958 C2959 1.386 . S
C2958 C2960 1.391 . S
C2959 C2958 1.386 . S
C2959 C2963 1.393 . S
C2960 H2949 0.950 . S
C2960 C2958 1.391 . S
C2960 C2961 1.400 . S
C2961 C2955 1.491 1_565 S
C2961 C2960 1.400 . S
C2961 C2962 1.398 . S
C2962 H2950 0.950 . S
C2962 C2961 1.398 . S
C2962 C2963 1.391 . S
C2963 H2951 0.950 . S
C2963 C2959 1.393 . S
C2963 C2962 1.391 . S
H2964 C2972 0.950 . S
H2965 C2977 0.950 . S
H2966 C2974 0.950 . S
H2967 C2976 0.950 . S
H2968 C2978 0.950 . S
H2969 C2980 0.950 . S
H2970 C2982 0.950 . S
H2971 C2983 0.950 . S
C2972 H2964 0.950 . S
C2972 C2973 1.386 . S
C2972 C2974 1.391 . S
C2973 C2972 1.386 . S
C2973 C2977 1.393 . S
C2974 H2966 0.950 . S
C2974 C2972 1.391 . S
C2974 C2975 1.400 . S
C2975 C2974 1.400 . S
C2975 C2976 1.398 . S
C2975 C2981 1.491 1_545 S
C2976 H2967 0.950 . S
C2976 C2975 1.398 . S
C2976 C2977 1.391 . S
C2977 H2965 0.950 . S
C2977 C2973 1.393 . S
C2977 C2976 1.391 . S
C2978 H2968 0.950 . S
C2978 C2979 1.386 . S
C2978 C2980 1.391 . S
C2979 C2978 1.386 . S
C2979 C2983 1.393 . S
C2980 H2969 0.950 . S
C2980 C2978 1.391 . S
C2980 C2981 1.400 . S
C2981 C2975 1.491 1_565 S
C2981 C2980 1.400 . S
C2981 C2982 1.398 . S
C2982 H2970 0.950 . S
C2982 C2981 1.398 . S
C2982 C2983 1.391 . S
C2983 H2971 0.950 . S
C2983 C2979 1.393 . S
C2983 C2982 1.391 . S
H2984 C2992 0.950 . S
H2985 C2997 0.950 . S
H2986 C2994 0.950 . S
H2987 C2996 0.950 . S
H2988 C2998 0.950 . S
H2989 C3000 0.950 . S
H2990 C3002 0.950 . S
H2991 C3003 0.950 . S
C2992 H2984 0.950 . S
C2992 C2993 1.386 . S
C2992 C2994 1.391 . S
C2993 C2992 1.386 . S
C2993 C2997 1.393 . S
C2994 H2986 0.950 . S
C2994 C2992 1.391 . S
C2994 C2995 1.400 . S
C2995 C2994 1.400 . S
C2995 C2996 1.398 . S
C2995 C3001 1.491 1_455 S
C2996 H2987 0.950 . S
C2996 C2995 1.398 . S
C2996 C2997 1.391 . S
C2997 H2985 0.950 . S
C2997 C2993 1.393 . S
C2997 C2996 1.391 . S
C2998 H2988 0.950 . S
C2998 C2999 1.386 . S
C2998 C3000 1.391 . S
C2999 C2998 1.386 . S
C2999 C3003 1.393 . S
C3000 H2989 0.950 . S
C3000 C2998 1.391 . S
C3000 C3001 1.400 . S
C3001 C2995 1.491 1_655 S
C3001 C3000 1.400 . S
C3001 C3002 1.398 . S
C3002 H2990 0.950 . S
C3002 C3001 1.398 . S
C3002 C3003 1.391 . S
C3003 H2991 0.950 . S
C3003 C2999 1.393 . S
C3003 C3002 1.391 . S
H3004 C3012 0.950 . S
H3005 C3017 0.950 . S
H3006 C3014 0.950 . S
H3007 C3016 0.950 . S
H3008 C3018 0.950 . S
H3009 C3020 0.950 . S
H3010 C3022 0.950 . S
H3011 C3023 0.950 . S
C3012 H3004 0.950 . S
C3012 C3013 1.386 . S
C3012 C3014 1.391 . S
C3013 C3012 1.386 . S
C3013 C3017 1.393 . S
C3014 H3006 0.950 . S
C3014 C3012 1.391 . S
C3014 C3015 1.400 . S
C3015 C3014 1.400 . S
C3015 C3016 1.398 . S
C3015 C3021 1.491 . S
C3016 H3007 0.950 . S
C3016 C3015 1.398 . S
C3016 C3017 1.391 . S
C3017 H3005 0.950 . S
C3017 C3013 1.393 . S
C3017 C3016 1.391 . S
C3018 H3008 0.950 . S
C3018 C3019 1.386 . S
C3018 C3020 1.391 . S
C3019 C3018 1.386 . S
C3019 C3023 1.393 . S
C3020 H3009 0.950 . S
C3020 C3018 1.391 . S
C3020 C3021 1.400 . S
C3021 C3015 1.491 . S
C3021 C3020 1.400 . S
C3021 C3022 1.398 . S
C3022 H3010 0.950 . S
C3022 C3021 1.398 . S
C3022 C3023 1.391 . S
C3023 H3011 0.950 . S
C3023 C3019 1.393 . S
C3023 C3022 1.391 . S
C1233 C271 1.396 . S
C1239 C9 1.323 . S
C1253 C43 1.347 . S
C1259 C305 1.396 . S
C1273 C237 1.398 . S
C1279 C77 1.329 . S
C1293 C407 1.395 . S
C1299 C111 1.342 . S
C1313 C339 1.396 . S
C1319 C145 1.327 . S
C1333 C179 1.331 . S
C1339 C373 1.396 . S
C1353 C213 1.320 . S
C1359 C67 1.396 . S
C1373 C247 1.347 . S
C1379 C101 1.396 . S
C1393 C281 1.332 . S
C1399 C33 1.396 . S
C1413 C203 1.397 . S
C1419 C315 1.318 . S
C1433 C135 1.396 . S
C1439 C349 1.328 . S
C1453 C383 1.348 . S
C1459 C169 1.395 . S
C1473 C679 1.397 . S
C1479 C417 1.321 . S
C1493 C713 1.398 . S
C1499 C451 1.326 . S
C1513 C645 1.398 . S
C1519 C485 1.327 . S
C1533 C815 1.395 . S
C1539 C519 1.334 . S
C1553 C747 1.398 . S
C1559 C553 1.321 . S
C1573 C781 1.396 . S
C1579 C587 1.347 . S
C1593 C621 1.318 . S
C1599 C475 1.397 . S
C1613 C655 1.321 . S
C1619 C509 1.397 . S
C1633 C441 1.397 . S
C1639 C689 1.320 . S
C1653 C723 1.348 . S
C1659 C611 1.395 . S
C1673 C757 1.334 . S
C1679 C543 1.395 . S
C1693 C791 1.318 . S
C1699 C577 1.398 . S
C1713 C1087 1.397 . S
C1719 C825 1.339 . S
C1733 C1121 1.397 . S
C1739 C859 1.322 . S
C1753 C893 1.341 . S
C1759 C1053 1.395 . S
C1773 C927 1.317 . S
C1779 C1223 1.398 . S
C1793 C961 1.324 . S
C1799 C1155 1.398 . S
C1813 C995 1.334 . S
C1819 C1189 1.396 . S
C1833 C883 1.396 . S
C1839 C1029 1.349 . S
C1853 C917 1.398 . S
C1859 C1063 1.327 . S
C1873 C1097 1.343 . S
C1879 C849 1.397 . S
C1893 C1019 1.396 . S
C1899 C1131 1.348 . S
C1913 C951 1.395 . S
C1919 C1165 1.348 . S
C1933 C1199 1.349 . S
C1939 C985 1.395 . S
C1953 C2 1.797 . S
C1959 C104 1.793 . S
C1973 C36 1.800 . S
C1979 C138 1.808 . S
C1993 C70 1.793 . S
C1999 C172 1.799 . S
C2013 C308 1.803 . S
C2019 C206 1.808 . S
C2033 C342 1.796 . S
C2039 C240 1.807 . S
C2053 C376 1.805 . S
C2059 C274 1.807 . S
C2073 C410 1.800 . S
C2079 C512 1.808 . S
C2093 C444 1.807 . S
C2099 C546 1.797 . S
C2113 C580 1.802 . S
C2119 C478 1.793 . S
C2133 C614 1.794 . S
C2139 C716 1.796 . S
C2153 C750 1.799 . S
C2159 C648 1.808 . S
C2173 C784 1.795 . S
C2179 C682 1.794 . S
C2193 C920 1.808 . S
C2199 C818 1.799 . S
C2213 C954 1.806 . S
C2219 C852 1.805 . S
C2233 C988 1.793 . S
C2239 C886 1.804 . S
C2253 C1124 1.799 . S
C2259 C1022 1.808 . S
C2273 C1158 1.800 . S
C2279 C1056 1.808 . S
C2293 C1090 1.796 . S
C2299 C1192 1.807 . S
C2313 C20 1.829 . S
C2319 C564 1.822 . S
C2333 C598 1.832 . S
C2339 C54 1.825 . S
C2353 C88 1.825 . S
C2359 C530 1.819 . S
C2373 C904 1.825 . S
C2379 C122 1.831 . S
C2393 C156 1.825 . S
C2399 C836 1.832 . S
C2413 C870 1.820 . S
C2419 C190 1.818 . S
C2433 C1176 1.819 . S
C2439 C224 1.821 . S
C2453 C258 1.835 . S
C2459 C1210 1.831 . S
C2473 C1142 1.820 . S
C2479 C292 1.825 . S
C2493 C326 1.825 . S
C2499 C700 1.832 . S
C2513 C360 1.818 . S
C2519 C632 1.821 . S
C2533 C666 1.825 . S
C2539 C394 1.831 . S
C2553 C972 1.830 . S
C2559 C428 1.835 . S
C2573 C1006 1.830 . S
C2579 C462 1.823 . S
C2593 C496 1.830 . S
C2599 C938 1.824 . S
C2613 C734 1.824 . S
C2619 C1108 1.819 . S
C2633 C768 1.830 . S
C2639 C1040 1.823 . S
C2653 C1074 1.819 . S
C2659 C802 1.821 . S
C2673 C991 0.981 . S
C2679 C5 0.966 . S
C2693 C923 0.964 . S
C2699 C39 0.984 . S
C2713 C957 0.985 . S
C2719 C73 0.963 . S
C2733 C107 0.969 . S
C2739 C447 0.978 . S
C2753 C141 0.979 . S
C2759 C481 0.968 . S
C2773 C413 0.984 . S
C2779 C175 0.964 . S
C2793 C209 0.965 . S
C2799 C787 0.983 . S
C2813 C719 0.985 . S
C2819 C243 0.965 . S
C2833 C277 0.978 . S
C2839 C753 0.969 . S
C2853 C311 0.973 . S
C2859 C1059 0.973 . S
C2873 C1093 0.966 . S
C2879 C345 0.982 . S
C2893 C379 0.966 . S
C2899 C1025 0.981 . S
C2913 C855 0.963 . S
C2919 C515 0.985 . S
C2933 C549 0.970 . S
C2939 C889 0.980 . S
C2953 C583 0.972 . S
C2959 C821 0.974 . S
C2973 C617 0.985 . S
C2979 C1195 0.963 . S
C2993 C1127 0.979 . S
C2999 C651 0.968 . S
C3013 C1161 0.983 . S
C3019 C685 0.965 . S
