# Generated by pormake.
# Topology lcy-e, (6)-cn, num edge types: 1
# Building blocks:
#     Node 0, Type 0, BuildingBlock: BETFEN_clean_sbu_0, # of connection points: 6
#     Node 1, Type 0, BuildingBlock: BETFEN_clean_sbu_0, # of connection points: 6
#     Node 2, Type 0, BuildingBlock: BETFEN_clean_sbu_0, # of connection points: 6
#     Node 3, Type 0, BuildingBlock: BETFEN_clean_sbu_0, # of connection points: 6
#     Node 4, Type 0, BuildingBlock: BETFEN_clean_sbu_0, # of connection points: 6
#     Node 5, Type 0, BuildingBlock: BETFEN_clean_sbu_0, # of connection points: 6
#     Node 6, Type 0, BuildingBlock: BETFEN_clean_sbu_0, # of connection points: 6
#     Node 7, Type 0, BuildingBlock: BETFEN_clean_sbu_0, # of connection points: 6
#     Node 8, Type 0, BuildingBlock: BETFEN_clean_sbu_0, # of connection points: 6
#     Node 9, Type 0, BuildingBlock: BETFEN_clean_sbu_0, # of connection points: 6
#     Node 10, Type 0, BuildingBlock: BETFEN_clean_sbu_0, # of connection points: 6
#     Node 11, Type 0, BuildingBlock: BETFEN_clean_sbu_0, # of connection points: 6
#     Edge 12, Type (0, 0), BuildingBlock: ZUJKAS_clean_linker_0, # of connection points: 2
#     Edge 13, Type (0, 0), BuildingBlock: ZUJKAS_clean_linker_0, # of connection points: 2
#     Edge 14, Type (0, 0), BuildingBlock: ZUJKAS_clean_linker_0, # of connection points: 2
#     Edge 15, Type (0, 0), BuildingBlock: ZUJKAS_clean_linker_0, # of connection points: 2
#     Edge 16, Type (0, 0), BuildingBlock: ZUJKAS_clean_linker_0, # of connection points: 2
#     Edge 17, Type (0, 0), BuildingBlock: ZUJKAS_clean_linker_0, # of connection points: 2
#     Edge 18, Type (0, 0), BuildingBlock: ZUJKAS_clean_linker_0, # of connection points: 2
#     Edge 19, Type (0, 0), BuildingBlock: ZUJKAS_clean_linker_0, # of connection points: 2
#     Edge 20, Type (0, 0), BuildingBlock: ZUJKAS_clean_linker_0, # of connection points: 2
#     Edge 21, Type (0, 0), BuildingBlock: ZUJKAS_clean_linker_0, # of connection points: 2
#     Edge 22, Type (0, 0), BuildingBlock: ZUJKAS_clean_linker_0, # of connection points: 2
#     Edge 23, Type (0, 0), BuildingBlock: ZUJKAS_clean_linker_0, # of connection points: 2
#     Edge 24, Type (0, 0), BuildingBlock: ZUJKAS_clean_linker_0, # of connection points: 2
#     Edge 25, Type (0, 0), BuildingBlock: ZUJKAS_clean_linker_0, # of connection points: 2
#     Edge 26, Type (0, 0), BuildingBlock: ZUJKAS_clean_linker_0, # of connection points: 2
#     Edge 27, Type (0, 0), BuildingBlock: ZUJKAS_clean_linker_0, # of connection points: 2
#     Edge 28, Type (0, 0), BuildingBlock: ZUJKAS_clean_linker_0, # of connection points: 2
#     Edge 29, Type (0, 0), BuildingBlock: ZUJKAS_clean_linker_0, # of connection points: 2
#     Edge 30, Type (0, 0), BuildingBlock: ZUJKAS_clean_linker_0, # of connection points: 2
#     Edge 31, Type (0, 0), BuildingBlock: ZUJKAS_clean_linker_0, # of connection points: 2
#     Edge 32, Type (0, 0), BuildingBlock: ZUJKAS_clean_linker_0, # of connection points: 2
#     Edge 33, Type (0, 0), BuildingBlock: ZUJKAS_clean_linker_0, # of connection points: 2
#     Edge 34, Type (0, 0), BuildingBlock: ZUJKAS_clean_linker_0, # of connection points: 2
#     Edge 35, Type (0, 0), BuildingBlock: ZUJKAS_clean_linker_0, # of connection points: 2
#     Edge 36, Type (0, 0), BuildingBlock: ZUJKAS_clean_linker_0, # of connection points: 2
#     Edge 37, Type (0, 0), BuildingBlock: ZUJKAS_clean_linker_0, # of connection points: 2
#     Edge 38, Type (0, 0), BuildingBlock: ZUJKAS_clean_linker_0, # of connection points: 2
#     Edge 39, Type (0, 0), BuildingBlock: ZUJKAS_clean_linker_0, # of connection points: 2
#     Edge 40, Type (0, 0), BuildingBlock: ZUJKAS_clean_linker_0, # of connection points: 2
#     Edge 41, Type (0, 0), BuildingBlock: ZUJKAS_clean_linker_0, # of connection points: 2
#     Edge 42, Type (0, 0), BuildingBlock: ZUJKAS_clean_linker_0, # of connection points: 2
#     Edge 43, Type (0, 0), BuildingBlock: ZUJKAS_clean_linker_0, # of connection points: 2
#     Edge 44, Type (0, 0), BuildingBlock: ZUJKAS_clean_linker_0, # of connection points: 2
#     Edge 45, Type (0, 0), BuildingBlock: ZUJKAS_clean_linker_0, # of connection points: 2
#     Edge 46, Type (0, 0), BuildingBlock: ZUJKAS_clean_linker_0, # of connection points: 2
#     Edge 47, Type (0, 0), BuildingBlock: ZUJKAS_clean_linker_0, # of connection points: 2
# Relax obj value: 0.213
# Max RMSD: 0.298
# Mean RMSD: 0.286
data_MOF--net-lcy-e--node1-BETFEN_clean_sbu_0--edge1-ZUJKAS_clean_linker_0
_symmetry_space_group_name_H-M    P1
_symmetry_Int_Tables_number       1
_symmetry_cell_setting            triclinic
loop_
_symmetry_equiv_pos_as_xyz
'x, y, z'
_cell_length_a     55.386726
_cell_length_b     53.817157
_cell_length_c     56.810861
_cell_angle_alpha  90.024986
_cell_angle_beta   88.541277
_cell_angle_gamma 88.551162
loop_
_atom_site_label
_atom_site_type_symbol
_atom_site_fract_x
_atom_site_fract_y
_atom_site_fract_z
_atom_type_partial_charge
Pr0 Pr 0.12399 0.23659 0.49319 0.0
Pr1 Pr 0.11797 0.2736 0.44707 0.0
C2 C 0.1183 0.21562 0.53603 0.0
C3 C 0.11185 0.19175 0.54684 0.0
C4 C 0.11659 0.16906 0.53523 0.0
C5 C 0.10958 0.14669 0.54568 0.0
C6 C 0.09759 0.14666 0.56786 0.0
C7 C 0.09288 0.16955 0.5793 0.0
C8 C 0.09996 0.19182 0.5689 0.0
C9 C 0.15776 0.22422 0.45697 0.0
C10 C 0.08366 0.22249 0.45352 0.0
C11 C 0.11632 0.29241 0.40306 0.0
C12 C 0.12872 0.30666 0.38411 0.0
C13 C 0.12684 0.33275 0.38337 0.0
C14 C 0.13566 0.34584 0.36379 0.0
C15 C 0.14644 0.33318 0.34437 0.0
C16 C 0.14906 0.30714 0.34549 0.0
C17 C 0.14024 0.29405 0.36507 0.0
C18 C 0.09322 0.28743 0.48856 0.0
C19 C 0.156 0.28818 0.48676 0.0
O20 O 0.10095 0.22765 0.52537 0.0
O21 O 0.13923 0.21668 0.52486 0.0
O22 O 0.14182 0.24117 0.45733 0.0
O23 O 0.15598 0.21144 0.47635 0.0
O24 O 0.08861 0.24327 0.44194 0.0
O25 O 0.09513 0.21521 0.47259 0.0
O26 O 0.12449 0.26992 0.40771 0.0
O27 O 0.10769 0.30435 0.4217 0.0
O28 O 0.09615 0.26563 0.48066 0.0
O29 O 0.10191 0.30369 0.47381 0.0
O30 O 0.14408 0.27357 0.50164 0.0
O31 O 0.15309 0.28739 0.46371 0.0
H32 H 0.12561 0.16863 0.51809 0.0
H33 H 0.11372 0.12944 0.53645 0.0
H34 H 0.08329 0.17035 0.59614 0.0
H35 H 0.09592 0.20919 0.578 0.0
H36 H 0.11794 0.34308 0.39762 0.0
H37 H 0.13368 0.36591 0.36374 0.0
H38 H 0.157 0.29672 0.33081 0.0
H39 H 0.14171 0.27394 0.3649 0.0
Pr40 Pr 0.97913 0.88451 0.70715 0.0
Pr41 Pr 0.02022 0.89649 0.74045 0.0
C42 C 0.93985 0.88611 0.68002 0.0
C43 C 0.93217 0.89501 0.65666 0.0
C44 C 0.94484 0.88813 0.63581 0.0
C45 C 0.93673 0.89634 0.61391 0.0
C46 C 0.91583 0.91166 0.61239 0.0
C47 C 0.90346 0.91879 0.63337 0.0
C48 C 0.91151 0.9105 0.65521 0.0
C49 C 0.01956 0.85366 0.70046 0.0
C50 C 0.01665 0.93108 0.69353 0.0
C51 C 0.05852 0.89792 0.76895 0.0
C52 C 0.07672 0.88371 0.78241 0.0
C53 C 0.0823 0.89198 0.80499 0.0
C54 C 0.10131 0.88088 0.81724 0.0
C55 C 0.11527 0.86121 0.80717 0.0
C56 C 0.10915 0.85243 0.78476 0.0
C57 C 0.09006 0.86356 0.7725 0.0
C58 C 0.97618 0.92272 0.74906 0.0
C59 C 0.98507 0.85041 0.75385 0.0
O60 O 0.9442 0.90315 0.6957 0.0
O61 O 0.95489 0.86697 0.68069 0.0
O62 O 0.02052 0.87686 0.70423 0.0
O63 O 0.99752 0.84645 0.6983 0.0
O64 O 0.03039 0.92443 0.71111 0.0
O65 O 0.99611 0.92001 0.68947 0.0
O66 O 0.06042 0.89742 0.74596 0.0
O67 O 0.03616 0.89874 0.77693 0.0
O68 O 0.97898 0.90014 0.74418 0.0
O69 O 0.99703 0.93308 0.75069 0.0
O70 O 0.9686 0.86148 0.74071 0.0
O71 O 0.00786 0.857 0.75242 0.0
H72 H 0.96089 0.87626 0.63637 0.0
H73 H 0.94658 0.89024 0.59816 0.0
H74 H 0.88758 0.93092 0.63297 0.0
H75 H 0.9015 0.91615 0.67104 0.0
H76 H 0.07241 0.90762 0.8129 0.0
H77 H 0.10563 0.8884 0.83426 0.0
H78 H 0.11927 0.83711 0.7766 0.0
H79 H 0.08611 0.85678 0.75509 0.0
Pr80 Pr 0.36922 0.75828 0.96194 0.0
Pr81 Pr 0.35156 0.8069 0.99232 0.0
C82 C 0.36984 0.71267 0.94275 0.0
C83 C 0.36671 0.70177 0.91923 0.0
C84 C 0.37967 0.71015 0.8993 0.0
C85 C 0.37469 0.701 0.87691 0.0
C86 C 0.35646 0.68361 0.87408 0.0
C87 C 0.3439 0.67492 0.89411 0.0
C88 C 0.34905 0.68384 0.91646 0.0
C89 C 0.39513 0.79979 0.94675 0.0
C90 C 0.32382 0.79576 0.94309 0.0
C91 C 0.34606 0.84984 0.01639 0.0
C92 C 0.35928 0.86795 0.03007 0.0
C93 C 0.34614 0.88573 0.04343 0.0
C94 C 0.35808 0.90372 0.05608 0.0
C95 C 0.38347 0.90427 0.05564 0.0
C96 C 0.39665 0.88626 0.04227 0.0
C97 C 0.38462 0.86818 0.0296 0.0
C98 C 0.32683 0.76273 1.00007 0.0
C99 C 0.39675 0.77097 0.01164 0.0
O100 O 0.35037 0.72324 0.95226 0.0
O101 O 0.38963 0.72491 0.94639 0.0
O102 O 0.3787 0.79927 0.96246 0.0
O103 O 0.39813 0.77782 0.93741 0.0
O104 O 0.32918 0.81289 0.95863 0.0
O105 O 0.33477 0.77356 0.94235 0.0
O106 O 0.35099 0.84881 0.99372 0.0
O107 O 0.34269 0.82806 0.02602 0.0
O108 O 0.34916 0.76499 0.99688 0.0
O109 O 0.31588 0.78443 1.00062 0.0
O110 O 0.39118 0.75335 0.99651 0.0
O111 O 0.38698 0.79368 0.01091 0.0
H112 H 0.39323 0.72416 0.90091 0.0
H113 H 0.38454 0.70811 0.86175 0.0
H114 H 0.32997 0.6613 0.89247 0.0
H115 H 0.33882 0.67714 0.93158 0.0
H116 H 0.32656 0.88587 0.04388 0.0
H117 H 0.34734 0.91753 0.06582 0.0
H118 H 0.41621 0.88604 0.04172 0.0
H119 H 0.39505 0.8545 0.01936 0.0
Pr120 Pr 0.50651 0.15544 0.20325 0.0
Pr121 Pr 0.46335 0.14262 0.23628 0.0
C122 C 0.54622 0.15566 0.1747 0.0
C123 C 0.55481 0.14707 0.15107 0.0
C124 C 0.56417 0.16433 0.13499 0.0
C125 C 0.57364 0.15656 0.11306 0.0
C126 C 0.57419 0.13125 0.10671 0.0
C127 C 0.56431 0.11402 0.12269 0.0
C128 C 0.55469 0.12183 0.14461 0.0
C129 C 0.46641 0.18696 0.19889 0.0
C130 C 0.46992 0.10912 0.18858 0.0
C131 C 0.42285 0.14123 0.26371 0.0
C132 C 0.40456 0.15512 0.27841 0.0
C133 C 0.40428 0.15221 0.30298 0.0
C134 C 0.38505 0.1619 0.31686 0.0
C135 C 0.36549 0.17456 0.30649 0.0
C136 C 0.3663 0.17841 0.28198 0.0
C137 C 0.38558 0.16876 0.2681 0.0
C138 C 0.50566 0.114 0.24269 0.0
C139 C 0.50053 0.18577 0.25273 0.0
O140 O 0.54249 0.13876 0.19087 0.0
O141 O 0.53023 0.17398 0.17556 0.0
O142 O 0.46541 0.1636 0.20106 0.0
O143 O 0.48853 0.1944 0.19758 0.0
O144 O 0.45509 0.11543 0.20617 0.0
O145 O 0.49057 0.1204 0.18472 0.0
O146 O 0.42273 0.14437 0.24087 0.0
O147 O 0.44453 0.13752 0.27189 0.0
O148 O 0.50429 0.13697 0.23914 0.0
O149 O 0.48425 0.1047 0.24447 0.0
O150 O 0.51684 0.17574 0.23791 0.0
O151 O 0.47753 0.17992 0.25175 0.0
H152 H 0.56441 0.18388 0.1395 0.0
H153 H 0.58062 0.17046 0.10109 0.0
H154 H 0.5646 0.09436 0.11858 0.0
H155 H 0.54755 0.10804 0.15659 0.0
H156 H 0.41853 0.14165 0.31144 0.0
H157 H 0.38526 0.15896 0.33571 0.0
H158 H 0.35148 0.18786 0.27334 0.0
H159 H 0.3851 0.1712 0.24919 0.0
Pr160 Pr 0.62726 0.26106 0.51542 0.0
Pr161 Pr 0.63896 0.30888 0.4813 0.0
C162 C 0.62922 0.21633 0.53642 0.0
C163 C 0.63168 0.20644 0.56038 0.0
C164 C 0.62836 0.18111 0.56463 0.0
C165 C 0.6317 0.17127 0.58714 0.0
C166 C 0.63848 0.18661 0.6058 0.0
C167 C 0.6415 0.21212 0.60146 0.0
C168 C 0.6381 0.22194 0.57894 0.0
C169 C 0.60061 0.30353 0.53057 0.0
C170 C 0.6719 0.29995 0.52834 0.0
C171 C 0.6384 0.3512 0.456 0.0
C172 C 0.62254 0.37049 0.44542 0.0
C173 C 0.62429 0.37477 0.42108 0.0
C174 C 0.61123 0.39434 0.41085 0.0
C175 C 0.59619 0.41023 0.42476 0.0
C176 C 0.59406 0.40564 0.44909 0.0
C177 C 0.60707 0.38596 0.45933 0.0
C178 C 0.66499 0.26432 0.47223 0.0
C179 C 0.59426 0.27191 0.46842 0.0
O180 O 0.6483 0.22722 0.5275 0.0
O181 O 0.60878 0.22801 0.53187 0.0
O182 O 0.61581 0.30176 0.51385 0.0
O183 O 0.59932 0.28218 0.54118 0.0
O184 O 0.66421 0.31614 0.51253 0.0
O185 O 0.66252 0.27766 0.53102 0.0
O186 O 0.63974 0.35069 0.47901 0.0
O187 O 0.63934 0.3291 0.44625 0.0
O188 O 0.6432 0.26674 0.4785 0.0
O189 O 0.67429 0.28601 0.46848 0.0
O190 O 0.60346 0.25452 0.48238 0.0
O191 O 0.60161 0.29514 0.46867 0.0
H192 H 0.6235 0.16886 0.55046 0.0
H193 H 0.62953 0.15151 0.58977 0.0
H194 H 0.64643 0.22451 0.61547 0.0
H195 H 0.6407 0.24159 0.57595 0.0
H196 H 0.63628 0.36331 0.41001 0.0
H197 H 0.61356 0.39753 0.39211 0.0
H198 H 0.58242 0.41735 0.46026 0.0
H199 H 0.60533 0.3832 0.47817 0.0
Pr200 Pr 0.97095 0.40506 0.72327 0.0
Pr201 Pr 1.00403 0.38897 0.76288 0.0
C202 C 0.94236 0.40899 0.68558 0.0
C203 C 0.91985 0.39898 0.67632 0.0
C204 C 0.90268 0.41536 0.6667 0.0
C205 C 0.88175 0.40635 0.65681 0.0
C206 C 0.87755 0.38066 0.65616 0.0
C207 C 0.89462 0.36429 0.66626 0.0
C208 C 0.91552 0.37335 0.67629 0.0
C209 C 0.9667 0.4358 0.7626 0.0
C210 C 0.95519 0.35709 0.75799 0.0
C211 C 0.03219 0.38334 0.80077 0.0
C212 C 0.04577 0.39583 0.8191 0.0
C213 C 0.06269 0.38181 0.83172 0.0
C214 C 0.07438 0.39227 0.85069 0.0
C215 C 0.06948 0.4171 0.85745 0.0
C216 C 0.05281 0.43131 0.84436 0.0
C217 C 0.04102 0.42074 0.82536 0.0
C218 C 0.01129 0.36268 0.72032 0.0
C219 C 0.02133 0.43432 0.72814 0.0
O220 O 0.96118 0.39385 0.68645 0.0
O221 O 0.94024 0.42389 0.70373 0.0
O222 O 0.96833 0.41224 0.76366 0.0
O223 O 0.96631 0.4437 0.74101 0.0
O224 O 0.97292 0.36243 0.77193 0.0
O225 O 0.95174 0.36932 0.73812 0.0
O226 O 0.00864 0.38555 0.8021 0.0
O227 O 0.04089 0.38348 0.77916 0.0
O228 O 0.00776 0.38562 0.72271 0.0
O229 O 0.01233 0.35195 0.74077 0.0
O230 O 0.00634 0.42571 0.7125 0.0
O231 O 0.02011 0.42687 0.7503 0.0
H232 H 0.90558 0.4352 0.66664 0.0
H233 H 0.86884 0.41959 0.64967 0.0
H234 H 0.89218 0.3444 0.66592 0.0
H235 H 0.92842 0.36027 0.68369 0.0
H236 H 0.06641 0.36248 0.82729 0.0
H237 H 0.0867 0.38056 0.86051 0.0
H238 H 0.04877 0.45054 0.84887 0.0
H239 H 0.02794 0.43185 0.81582 0.0
Pr240 Pr 0.86758 0.77113 0.02252 0.0
Pr241 Pr 0.85581 0.72543 0.99298 0.0
C242 C 0.86739 0.81371 0.0476 0.0
C243 C 0.86018 0.82272 0.07134 0.0
C244 C 0.87493 0.83937 0.08288 0.0
C245 C 0.86837 0.8484 0.10529 0.0
C246 C 0.84683 0.841 0.1166 0.0
C247 C 0.83212 0.82416 0.10503 0.0
C248 C 0.83877 0.81504 0.08265 0.0
C249 C 0.89774 0.73035 0.03097 0.0
C250 C 0.82206 0.73461 0.04015 0.0
C251 C 0.85439 0.68259 0.96827 0.0
C252 C 0.86844 0.66281 0.95568 0.0
C253 C 0.86152 0.63811 0.95868 0.0
C254 C 0.87324 0.61891 0.94597 0.0
C255 C 0.89221 0.62396 0.92989 0.0
C256 C 0.89949 0.64875 0.92727 0.0
C257 C 0.88773 0.66801 0.94007 0.0
C258 C 0.82914 0.76913 0.98295 0.0
C259 C 0.89905 0.76139 0.97425 0.0
O260 O 0.85003 0.80781 0.03356 0.0
O261 O 0.88608 0.79839 0.04615 0.0
O262 O 0.87514 0.72897 0.02836 0.0
O263 O 0.90482 0.75315 0.03056 0.0
O264 O 0.82856 0.71851 0.0236 0.0
O265 O 0.83303 0.75598 0.04247 0.0
O266 O 0.8558 0.68333 0.9912 0.0
O267 O 0.85271 0.7046 0.95858 0.0
O268 O 0.85129 0.76728 0.98663 0.0
O269 O 0.81949 0.74735 0.98317 0.0
O270 O 0.88849 0.77923 0.98715 0.0
O271 O 0.89324 0.73795 0.97741 0.0
H272 H 0.8915 0.84554 0.07446 0.0
H273 H 0.87995 0.86157 0.11356 0.0
H274 H 0.81555 0.8179 0.11336 0.0
H275 H 0.82716 0.80205 0.07418 0.0
H276 H 0.84661 0.63371 0.97056 0.0
H277 H 0.86686 0.60018 0.94821 0.0
H278 H 0.91421 0.65327 0.91524 0.0
H279 H 0.89349 0.68693 0.93754 0.0
Pr280 Pr 0.51533 0.63491 0.23523 0.0
Pr281 Pr 0.4827 0.65414 0.27501 0.0
C282 C 0.54521 0.62768 0.19745 0.0
C283 C 0.56724 0.63863 0.18742 0.0
C284 C 0.58255 0.62431 0.1725 0.0
C285 C 0.60372 0.63428 0.16303 0.0
C286 C 0.60999 0.65881 0.16832 0.0
C287 C 0.59455 0.67312 0.18334 0.0
C288 C 0.57337 0.66309 0.19284 0.0
C289 C 0.51607 0.60446 0.27482 0.0
C290 C 0.53373 0.6816 0.26883 0.0
C291 C 0.4533 0.66264 0.31295 0.0
C292 C 0.44045 0.65006 0.3323 0.0
C293 C 0.42097 0.66247 0.34373 0.0
C294 C 0.40975 0.65201 0.36353 0.0
C295 C 0.41784 0.62889 0.37229 0.0
C296 C 0.43706 0.61619 0.36038 0.0
C297 C 0.44827 0.62669 0.34051 0.0
C298 C 0.47937 0.68103 0.23276 0.0
C299 C 0.46318 0.6094 0.24154 0.0
O300 O 0.52544 0.64147 0.19697 0.0
O301 O 0.5476 0.61558 0.21722 0.0
O302 O 0.51638 0.62799 0.27564 0.0
O303 O 0.51603 0.59627 0.25332 0.0
O304 O 0.51643 0.67626 0.28409 0.0
O305 O 0.53558 0.67038 0.24815 0.0
O306 O 0.47686 0.66227 0.31368 0.0
O307 O 0.44523 0.65997 0.29171 0.0
O308 O 0.48044 0.65789 0.23493 0.0
O309 O 0.47883 0.69174 0.25325 0.0
O310 O 0.47922 0.61643 0.22544 0.0
O311 O 0.4642 0.61733 0.2635 0.0
H312 H 0.57809 0.60539 0.16814 0.0
H313 H 0.61502 0.62288 0.15127 0.0
H314 H 0.59897 0.69196 0.18796 0.0
H315 H 0.56181 0.6744 0.20443 0.0
H316 H 0.41481 0.68059 0.33771 0.0
H317 H 0.39526 0.66246 0.37243 0.0
H318 H 0.44353 0.59823 0.36651 0.0
H319 H 0.4633 0.61682 0.33185 0.0
Pr320 Pr 0.19929 0.52574 0.1142 0.0
Pr321 Pr 0.23697 0.48002 0.10094 0.0
C322 C 0.17446 0.5692 0.11309 0.0
C323 C 0.14921 0.57681 0.10935 0.0
C324 C 0.13127 0.55896 0.10787 0.0
C325 C 0.10761 0.56614 0.10238 0.0
C326 C 0.10161 0.59127 0.09812 0.0
C327 C 0.11964 0.60908 0.10005 0.0
C328 C 0.14324 0.60189 0.10559 0.0
C329 C 0.18657 0.4828 0.13936 0.0
C330 C 0.18841 0.48722 0.06906 0.0
C331 C 0.26598 0.43915 0.09918 0.0
C332 C 0.27861 0.42023 0.11349 0.0
C333 C 0.30307 0.41474 0.10848 0.0
C334 C 0.31505 0.39539 0.12015 0.0
C335 C 0.30276 0.38104 0.13708 0.0
C336 C 0.27835 0.38694 0.1425 0.0
C337 C 0.26638 0.40637 0.13083 0.0
C338 C 0.24297 0.52502 0.0768 0.0
C339 C 0.24797 0.5169 0.14603 0.0
O340 O 0.18585 0.55955 0.09462 0.0
O341 O 0.17896 0.55736 0.13276 0.0
O342 O 0.2035 0.48499 0.12439 0.0
O343 O 0.17438 0.50372 0.14097 0.0
O344 O 0.20562 0.47157 0.07587 0.0
O345 O 0.18413 0.50905 0.07934 0.0
O346 O 0.24235 0.43845 0.09861 0.0
O347 O 0.27434 0.46172 0.09899 0.0
O348 O 0.23734 0.52229 0.09814 0.0
O349 O 0.24756 0.50353 0.06691 0.0
O350 O 0.23236 0.53371 0.13789 0.0
O351 O 0.24958 0.49391 0.13769 0.0
H352 H 0.13569 0.53944 0.11047 0.0
H353 H 0.09422 0.55196 0.10081 0.0
H354 H 0.11552 0.62861 0.09721 0.0
H355 H 0.15693 0.61586 0.10656 0.0
H356 H 0.31281 0.42503 0.09504 0.0
H357 H 0.33374 0.39116 0.1153 0.0
H358 H 0.26846 0.37643 0.15564 0.0
H359 H 0.24748 0.4102 0.13507 0.0
Pr360 Pr 0.74434 0.05344 0.86128 0.0
Pr361 Pr 0.69683 0.01714 0.85863 0.0
C362 C 0.78586 0.07673 0.85088 0.0
C363 C 0.79532 0.10183 0.84639 0.0
C364 C 0.81722 0.10864 0.85617 0.0
C365 C 0.82785 0.13113 0.84988 0.0
C366 C 0.81691 0.14714 0.83349 0.0
C367 C 0.79459 0.14064 0.82429 0.0
C368 C 0.78386 0.1183 0.83074 0.0
C369 C 0.70835 0.06771 0.89478 0.0
C370 C 0.701 0.06708 0.8231 0.0
C371 C 0.65185 0.99881 0.86032 0.0
C372 C 0.6335 0.98389 0.87311 0.0
C373 C 0.6339 0.95779 0.87169 0.0
C374 C 0.61463 0.94417 0.88095 0.0
C375 C 0.59441 0.95629 0.89175 0.0
C376 C 0.59445 0.98234 0.89387 0.0
C377 C 0.6137 0.99595 0.88461 0.0
C378 C 0.73892 1.00081 0.83456 0.0
C379 C 0.7397 1.00202 0.89415 0.0
O380 O 0.77158 0.068 0.83502 0.0
O381 O 0.77941 0.07083 0.87251 0.0
O382 O 0.70783 0.05045 0.8799 0.0
O383 O 0.72846 0.07943 0.89197 0.0
O384 O 0.68954 0.04659 0.82902 0.0
O385 O 0.72091 0.07413 0.83336 0.0
O386 O 0.65706 0.0206 0.86884 0.0
O387 O 0.67032 0.98733 0.84986 0.0
O388 O 0.73138 0.02305 0.83682 0.0
O389 O 0.72292 0.98547 0.84278 0.0
O390 O 0.75456 0.0163 0.88163 0.0
O391 O 0.71589 0.0037 0.89246 0.0
H392 H 0.82647 0.0962 0.86814 0.0
H393 H 0.84512 0.13552 0.85717 0.0
H394 H 0.78553 0.15272 0.81189 0.0
H395 H 0.76689 0.11365 0.82298 0.0
H396 H 0.64877 0.94787 0.86284 0.0
H397 H 0.61542 0.92412 0.87931 0.0
H398 H 0.57912 0.99238 0.90179 0.0
H399 H 0.61266 0.01605 0.88571 0.0
Pr400 Pr 0.78179 0.02166 0.35638 0.0
Pr401 Pr 0.75129 0.97651 0.36815 0.0
C402 C 0.81054 0.06114 0.35251 0.0
C403 C 0.83126 0.07292 0.36352 0.0
C404 C 0.85322 0.07381 0.35071 0.0
C405 C 0.87331 0.08463 0.36038 0.0
C406 C 0.87189 0.09505 0.38305 0.0
C407 C 0.84982 0.09449 0.39585 0.0
C408 C 0.82965 0.08342 0.3862 0.0
C409 C 0.78238 0.98537 0.32129 0.0
C410 C 0.80162 0.98234 0.39761 0.0
C411 C 0.73244 0.93093 0.37252 0.0
C412 C 0.71336 0.91531 0.36334 0.0
C413 C 0.70472 0.89571 0.37714 0.0
C414 C 0.68851 0.87899 0.36792 0.0
C415 C 0.68066 0.88151 0.34465 0.0
C416 C 0.68887 0.90164 0.33108 0.0
C417 C 0.70504 0.91843 0.34036 0.0
C418 C 0.73802 0.02004 0.39279 0.0
C419 C 0.7283 0.01836 0.33367 0.0
O420 O 0.78933 0.06228 0.36335 0.0
O421 O 0.81521 0.03983 0.34207 0.0
O422 O 0.78415 0.98101 0.34304 0.0
O423 O 0.78009 0.00897 0.31719 0.0
O424 O 0.78216 0.96922 0.39457 0.0
O425 O 0.80588 1.00261 0.38519 0.0
O426 O 0.75006 0.9362 0.35776 0.0
O427 O 0.72593 0.94949 0.38634 0.0
O428 O 0.75926 0.01188 0.38897 0.0
O429 O 0.7223 0.00504 0.38437 0.0
O430 O 0.74334 0.03397 0.34327 0.0
O431 O 0.73101 0.99409 0.33649 0.0
H432 H 0.85486 0.06612 0.33309 0.0
H433 H 0.88992 0.08517 0.34991 0.0
H434 H 0.84824 0.10235 0.41339 0.0
H435 H 0.81293 0.08305 0.39648 0.0
H436 H 0.71106 0.89292 0.39485 0.0
H437 H 0.68279 0.86357 0.37878 0.0
H438 H 0.68293 0.9043 0.31322 0.0
H439 H 0.71147 0.93349 0.32941 0.0
Pr440 Pr 0.2519 0.55917 0.61511 0.0
Pr441 Pr 0.29602 0.52467 0.62321 0.0
C442 C 0.20895 0.58334 0.61055 0.0
C443 C 0.19753 0.60638 0.61993 0.0
C444 C 0.17421 0.61343 0.61318 0.0
C445 C 0.16332 0.63548 0.62177 0.0
C446 C 0.17558 0.6509 0.63727 0.0
C447 C 0.19903 0.64368 0.64398 0.0
C448 C 0.20989 0.62159 0.63539 0.0
C449 C 0.29269 0.56921 0.58705 0.0
C450 C 0.28894 0.57714 0.65493 0.0
C451 C 0.34066 0.50409 0.627 0.0
C452 C 0.36014 0.48954 0.61477 0.0
C453 C 0.37283 0.47132 0.62741 0.0
C454 C 0.39269 0.45859 0.6171 0.0
C455 C 0.40039 0.46385 0.59388 0.0
C456 C 0.3872 0.48167 0.58097 0.0
C457 C 0.36726 0.49445 0.59133 0.0
C458 C 0.25486 0.51324 0.65001 0.0
C459 C 0.25755 0.50498 0.58664 0.0
O460 O 0.21249 0.56542 0.6257 0.0
O461 O 0.22729 0.58612 0.59596 0.0
O462 O 0.28488 0.54789 0.59145 0.0
O463 O 0.27918 0.58643 0.59711 0.0
O464 O 0.30394 0.55966 0.64646 0.0
O465 O 0.2666 0.57954 0.64765 0.0
O466 O 0.33659 0.52695 0.61997 0.0
O467 O 0.32104 0.49254 0.63337 0.0
O468 O 0.26245 0.53481 0.64626 0.0
O469 O 0.26974 0.49642 0.64123 0.0
O470 O 0.24232 0.52144 0.59661 0.0
O471 O 0.28094 0.50554 0.59031 0.0
H472 H 0.16446 0.60195 0.60118 0.0
H473 H 0.14539 0.64062 0.61598 0.0
H474 H 0.20887 0.65492 0.65609 0.0
H475 H 0.22794 0.61639 0.64081 0.0
H476 H 0.36763 0.46723 0.64549 0.0
H477 H 0.40209 0.44464 0.6274 0.0
H478 H 0.39268 0.48625 0.56309 0.0
H479 H 0.35774 0.50845 0.5812 0.0
H480 H 0.18571 0.31954 0.46244 0.0
H481 H 0.20602 0.35573 0.47772 0.0
H482 H 0.17916 0.33916 0.54773 0.0
H483 H 0.15905 0.30277 0.53273 0.0
H484 H 0.18348 0.39599 0.49941 0.0
H485 H 0.25013 0.35206 0.55864 0.0
H486 H 0.23472 0.33471 0.53661 0.0
H487 H 0.21978 0.34231 0.56426 0.0
C488 C 0.18444 0.32332 0.48116 0.0
C489 C 0.17078 0.30819 0.49636 0.0
C490 C 0.19603 0.34405 0.48984 0.0
C491 C 0.19428 0.35001 0.51388 0.0
C492 C 0.18116 0.33463 0.5292 0.0
H493 H 0.21038 0.49247 0.58129 0.0
H494 H 0.19542 0.45554 0.56191 0.0
C495 C 0.16962 0.31383 0.52056 0.0
C496 C 0.20477 0.37322 0.52265 0.0
H497 H 0.24336 0.39582 0.56285 0.0
C498 C 0.19672 0.39596 0.51316 0.0
C499 C 0.2222 0.37311 0.54041 0.0
C500 C 0.23241 0.34923 0.55043 0.0
C501 C 0.20523 0.41866 0.52134 0.0
C502 C 0.22193 0.41859 0.53975 0.0
C503 C 0.2304 0.39583 0.54886 0.0
C504 C 0.23076 0.44189 0.55002 0.0
C505 C 0.19643 0.44248 0.51005 0.0
C506 C 0.25559 0.44641 0.54989 0.0
C507 C 0.26421 0.46741 0.56105 0.0
C508 C 0.24815 0.48428 0.57267 0.0
C509 C 0.22322 0.48 0.57232 0.0
C510 C 0.21462 0.45893 0.56119 0.0
H511 H 0.18926 0.43911 0.49227 0.0
H512 H 0.1816 0.45089 0.52115 0.0
H513 H 0.21113 0.45607 0.50847 0.0
H514 H 0.26834 0.43346 0.54141 0.0
H515 H 0.28352 0.47011 0.56099 0.0
H516 H 0.78102 0.02434 0.84116 0.0
H517 H 0.82126 0.01347 0.82518 0.0
H518 H 0.79314 0.94711 0.79465 0.0
H519 H 0.75246 0.95891 0.80981 0.0
H520 H 0.8502 0.9731 0.83306 0.0
H521 H 0.82842 0.97748 0.73838 0.0
H522 H 0.80828 0.98992 0.76116 0.0
H523 H 0.80956 0.95708 0.75525 0.0
C524 C 0.78325 0.00804 0.83029 0.0
C525 C 0.76343 0.99321 0.82578 0.0
C526 C 0.80636 1.0015 0.82154 0.0
C527 C 0.81021 0.9798 0.80811 0.0
C528 C 0.79055 0.96434 0.80434 0.0
H529 H 0.93266 0.90145 0.74553 0.0
H530 H 0.89328 0.91724 0.75961 0.0
C531 C 0.76736 0.97097 0.81315 0.0
C532 C 0.83489 0.97324 0.7986 0.0
H533 H 0.86711 0.96066 0.74766 0.0
C534 C 0.85393 0.97055 0.81437 0.0
C535 C 0.83983 0.97007 0.77419 0.0
C536 C 0.82052 0.97401 0.75621 0.0
C537 C 0.87755 0.96405 0.80648 0.0
C538 C 0.88238 0.96048 0.78212 0.0
C539 C 0.86342 0.96347 0.76633 0.0
C540 C 0.90655 0.95188 0.77281 0.0
C541 C 0.89698 0.96023 0.82436 0.0
C542 C 0.92721 0.96632 0.7751 0.0
C543 C 0.94996 0.95731 0.76691 0.0
C544 C 0.95233 0.93373 0.75635 0.0
C545 C 0.9315 0.91968 0.75362 0.0
C546 C 0.90891 0.92868 0.76166 0.0
H547 H 0.88934 0.9589 0.84258 0.0
H548 H 0.90789 0.94307 0.82038 0.0
H549 H 0.90927 0.97619 0.82366 0.0
H550 H 0.92577 0.98448 0.78332 0.0
H551 H 0.96567 0.96856 0.76921 0.0
H552 H 0.279 0.75321 0.00967 0.0
H553 H 0.26172 0.71299 0.02066 0.0
H554 H 0.33223 0.67772 0.01283 0.0
H555 H 0.34953 0.71756 1.00228 0.0
H556 H 0.26265 0.66517 0.99662 0.0
H557 H 0.31068 0.66181 0.08115 0.0
H558 H 0.30748 0.68994 0.0641 0.0
H559 H 0.33 0.66671 0.05581 0.0
C560 C 0.29073 0.73683 0.01021 0.0
C561 C 0.31562 0.73857 1.00526 0.0
C562 C 0.28086 0.71388 0.01641 0.0
C563 C 0.29577 0.69242 0.01788 0.0
C564 C 0.32045 0.69407 0.01218 0.0
H565 H 0.26146 0.53544 0.03261 0.0
H566 H 0.2725 0.57638 0.01711 0.0
C567 C 0.33029 0.71688 1.00605 0.0
C568 C 0.28594 0.66841 0.02617 0.0
H569 H 0.29163 0.62493 0.06957 0.0
C570 C 0.26885 0.6564 0.01263 0.0
C571 C 0.29388 0.65711 0.04718 0.0
C572 C 0.31135 0.66961 0.06305 0.0
C573 C 0.25989 0.63309 0.01933 0.0
C574 C 0.26846 0.62143 0.03995 0.0
C575 C 0.2852 0.63374 0.05366 0.0
C576 C 0.26001 0.59677 0.04815 0.0
C577 C 0.24109 0.62133 1.00448 0.0
C578 C 0.2495 0.59453 0.07076 0.0
C579 C 0.24345 0.57126 0.07967 0.0
C580 C 0.24778 0.54961 0.06619 0.0
C581 C 0.2578 0.55182 0.04333 0.0
C582 C 0.26397 0.57522 0.03442 0.0
H583 H 0.23202 0.63518 0.99295 0.0
H584 H 0.24993 0.60688 0.99304 0.0
H585 H 0.22716 0.61227 0.01569 0.0
H586 H 0.24633 0.61083 0.08173 0.0
H587 H 0.23583 0.5702 0.09738 0.0
H588 H 0.51215 0.06725 0.26137 0.0
H589 H 0.55029 0.04832 0.27492 0.0
H590 H 0.58843 0.11323 0.25208 0.0
H591 H 0.5507 0.13222 0.23883 0.0
H592 H 0.6111 0.0643 0.23949 0.0
H593 H 0.58579 0.07636 0.33442 0.0
H594 H 0.56445 0.06152 0.31598 0.0
H595 H 0.57089 0.09369 0.31151 0.0
C596 C 0.52873 0.07732 0.25907 0.0
C597 C 0.52847 0.10121 0.24912 0.0
C598 C 0.55043 0.06656 0.26687 0.0
C599 C 0.57209 0.07951 0.26462 0.0
C600 C 0.57192 0.10297 0.25397 0.0
H601 H 0.70897 0.06573 0.33411 0.0
H602 H 0.67138 0.08028 0.31616 0.0
C603 C 0.55032 0.11377 0.24641 0.0
C604 C 0.59494 0.06927 0.27407 0.0
H605 H 0.62418 0.0585 0.32542 0.0
C606 C 0.61394 0.06281 0.25826 0.0
C607 C 0.59863 0.0678 0.29857 0.0
C608 C 0.57899 0.07532 0.31623 0.0
C609 C 0.63661 0.05481 0.26634 0.0
C610 C 0.64027 0.05323 0.29084 0.0
C611 C 0.62126 0.05973 0.30664 0.0
C612 C 0.66369 0.0448 0.30047 0.0
C613 C 0.65666 0.04863 0.24867 0.0
C614 C 0.6718 0.02009 0.29748 0.0
C615 C 0.69317 0.01172 0.30773 0.0
C616 C 0.70689 0.02794 0.32113 0.0
C617 C 0.69896 0.05284 0.32371 0.0
C618 C 0.67744 0.06115 0.31358 0.0
H619 H 0.65245 0.05556 0.23078 0.0
H620 H 0.67389 0.0567 0.25418 0.0
H621 H 0.65936 0.02815 0.24768 0.0
H622 H 0.66129 0.00712 0.28767 0.0
H623 H 0.69874 0.99241 0.30545 0.0
H624 H 0.64626 0.21887 0.47972 0.0
H625 H 0.66299 0.17844 0.46731 0.0
H626 H 0.72534 0.21377 0.43679 0.0
H627 H 0.70879 0.25464 0.44965 0.0
H628 H 0.69847 0.17786 0.40652 0.0
H629 H 0.72421 0.13973 0.4935 0.0
H630 H 0.69476 0.15452 0.49247 0.0
H631 H 0.72119 0.17271 0.48789 0.0
C632 C 0.66374 0.21808 0.47073 0.0
C633 C 0.67632 0.23994 0.46584 0.0
C634 C 0.67325 0.19492 0.46363 0.0
C635 C 0.69547 0.19308 0.45131 0.0
C636 C 0.70821 0.21482 0.44641 0.0
H637 H 0.76872 0.05221 0.41284 0.0
H638 H 0.7597 0.09474 0.4265 0.0
C639 C 0.69879 0.2381 0.4538 0.0
C640 C 0.70455 0.16844 0.44273 0.0
H641 H 0.72316 0.111 0.46172 0.0
C642 C 0.70413 0.1633 0.41853 0.0
C643 C 0.71195 0.14952 0.45845 0.0
C644 C 0.71328 0.15432 0.48453 0.0
C645 C 0.71017 0.13945 0.40971 0.0
C646 C 0.71669 0.12028 0.42554 0.0
C647 C 0.71794 0.12567 0.44965 0.0
C648 C 0.72202 0.09444 0.4174 0.0
C649 C 0.70944 0.13487 0.38354 0.0
C650 C 0.70374 0.08004 0.40807 0.0
C651 C 0.70879 0.05566 0.40043 0.0
C652 C 0.73224 0.04531 0.40195 0.0
C653 C 0.75046 0.05969 0.41149 0.0
C654 C 0.74536 0.08398 0.41928 0.0
H655 H 0.70928 0.15252 0.3734 0.0
H656 H 0.72521 0.12318 0.37749 0.0
H657 H 0.69281 0.12478 0.37954 0.0
H658 H 0.68554 0.08767 0.40672 0.0
H659 H 0.69443 0.04506 0.39305 0.0
H660 H 0.03794 0.44242 0.68303 0.0
H661 H 0.07646 0.46036 0.6709 0.0
H662 H 0.09048 0.47805 0.74323 0.0
H663 H 0.05229 0.45967 0.75558 0.0
H664 H 0.09829 0.50593 0.67559 0.0
H665 H 0.14747 0.43225 0.72486 0.0
H666 H 0.1155 0.43121 0.71982 0.0
H667 H 0.12662 0.45064 0.7427 0.0
C668 C 0.04899 0.45053 0.69633 0.0
C669 C 0.04216 0.44931 0.72032 0.0
C670 C 0.07105 0.46075 0.68936 0.0
C671 C 0.08662 0.46999 0.70621 0.0
C672 C 0.07903 0.47044 0.72998 0.0
H673 H 0.22213 0.54536 0.67154 0.0
H674 H 0.18105 0.53627 0.68571 0.0
C675 C 0.0571 0.46006 0.73699 0.0
C676 C 0.11139 0.47758 0.6991 0.0
H677 H 0.17108 0.46325 0.70699 0.0
C678 C 0.11423 0.49668 0.68249 0.0
C679 C 0.13217 0.4652 0.70783 0.0
C680 C 0.13039 0.44353 0.72461 0.0
C681 C 0.13729 0.50376 0.67443 0.0
C682 C 0.15806 0.49171 0.68356 0.0
C683 C 0.15517 0.47264 0.70017 0.0
C684 C 0.18297 0.49755 0.67528 0.0
C685 C 0.13916 0.52353 0.65568 0.0
C686 C 0.198 0.47868 0.66539 0.0
C687 C 0.22149 0.48375 0.65761 0.0
C688 C 0.23046 0.50782 0.65952 0.0
C689 C 0.21559 0.52667 0.66971 0.0
C690 C 0.19207 0.52154 0.67764 0.0
H691 H 0.12188 0.52634 0.64641 0.0
H692 H 0.14367 0.54142 0.664 0.0
H693 H 0.15363 0.51865 0.64247 0.0
H694 H 0.19144 0.46001 0.66346 0.0
H695 H 0.2325 0.46887 0.64975 0.0
H696 H 0.78502 0.98045 0.89041 0.0
H697 H 0.79871 0.94117 0.90808 0.0
H698 H 0.73044 0.93579 0.94564 0.0
H699 H 0.71664 0.975 0.92822 0.0
H700 H 0.77232 0.92252 0.97269 0.0
H701 H 0.77048 0.87385 0.88646 0.0
H702 H 0.78785 0.90161 0.88676 0.0
H703 H 0.7557 0.90372 0.89161 0.0
C704 C 0.77311 0.9712 0.90282 0.0
C705 C 0.74969 0.98083 0.90782 0.0
C706 C 0.78087 0.94862 0.91271 0.0
C707 C 0.7654 0.93536 0.92781 0.0
C708 C 0.74258 0.94563 0.93388 0.0
H709 H 0.78319 0.77758 0.96662 0.0
H710 H 0.76527 0.81779 0.95432 0.0
C711 C 0.73474 0.96807 0.92391 0.0
C712 C 0.77256 0.91033 0.93659 0.0
H713 H 0.78638 0.85097 0.91847 0.0
C714 C 0.77533 0.90686 0.96086 0.0
C715 C 0.776 0.88981 0.92116 0.0
C716 C 0.77218 0.89225 0.89506 0.0
C717 C 0.78226 0.88356 0.97002 0.0
C718 C 0.78658 0.86328 0.9545 0.0
C719 C 0.78307 0.86656 0.93032 0.0
C720 C 0.79654 0.83908 0.9628 0.0
C721 C 0.78501 0.8808 0.99625 0.0
C722 C 0.82 0.83778 0.97143 0.0
C723 C 0.83022 0.81503 0.97819 0.0
C724 C 0.8172 0.79301 0.97657 0.0
C725 C 0.79357 0.79427 0.96815 0.0
C726 C 0.78337 0.81717 0.96112 0.0
H727 H 0.77527 0.89596 1.00614 0.0
H728 H 0.77818 0.86265 1.00245 0.0
H729 H 0.80445 0.88153 1.00042 0.0
H730 H 0.83062 0.85435 0.9725 0.0
H731 H 0.84853 0.81469 0.98445 0.0
H732 H 0.42939 0.58745 0.27017 0.0
H733 H 0.39249 0.56729 0.25837 0.0
H734 H 0.41194 0.57941 0.18535 0.0
H735 H 0.44911 0.59888 0.19694 0.0
H736 H 0.35553 0.58741 0.23568 0.0
H737 H 0.39266 0.50828 0.18308 0.0
H738 H 0.4112 0.52643 0.20189 0.0
H739 H 0.40433 0.53715 0.17271 0.0
C740 C 0.42604 0.58539 0.25158 0.0
C741 C 0.44229 0.59467 0.23449 0.0
C742 C 0.40489 0.57393 0.24487 0.0
C743 C 0.39952 0.57152 0.22096 0.0
C744 C 0.41593 0.58042 0.20388 0.0
H745 H 0.26177 0.56418 0.15566 0.0
H746 H 0.29728 0.57642 0.17696 0.0
C747 C 0.43718 0.59167 0.21056 0.0
C748 C 0.37608 0.56133 0.21387 0.0
H749 H 0.35116 0.51989 0.17665 0.0
C750 C 0.35458 0.57241 0.223 0.0
C751 C 0.37473 0.54148 0.19764 0.0
C752 C 0.39698 0.52748 0.18847 0.0
C753 C 0.33185 0.56487 0.21566 0.0
C754 C 0.33058 0.54617 0.19824 0.0
C755 C 0.35206 0.53443 0.18981 0.0
C756 C 0.30739 0.53907 0.18774 0.0
C757 C 0.30948 0.57697 0.22677 0.0
C758 C 0.30115 0.51397 0.18659 0.0
C759 C 0.28102 0.50687 0.17408 0.0
C760 C 0.26664 0.52474 0.16252 0.0
C761 C 0.27226 0.54997 0.16461 0.0
C762 C 0.29256 0.55702 0.17689 0.0
H763 H 0.31302 0.58392 0.24474 0.0
H764 H 0.30383 0.59316 0.21595 0.0
H765 H 0.29433 0.56387 0.22791 0.0
H766 H 0.3123 0.49976 0.19478 0.0
H767 H 0.2772 0.48728 0.17284 0.0
H768 H 0.47214 0.21193 0.28466 0.0
H769 H 0.48463 0.23087 0.32136 0.0
H770 H 0.5589 0.21075 0.30431 0.0
H771 H 0.54665 0.19225 0.26737 0.0
H772 H 0.50572 0.20681 0.35726 0.0
H773 H 0.56519 0.28164 0.32584 0.0
H774 H 0.54506 0.26593 0.30662 0.0
H775 H 0.57389 0.25194 0.31355 0.0
C776 C 0.4912 0.21199 0.28846 0.0
C777 C 0.50841 0.2006 0.27302 0.0
C778 C 0.4983 0.22277 0.30951 0.0
C779 C 0.52272 0.22243 0.31555 0.0
C780 C 0.54001 0.21175 0.29983 0.0
H781 H 0.5852 0.22498 0.45283 0.0
H782 H 0.565 0.21373 0.41678 0.0
C783 C 0.53296 0.2011 0.2787 0.0
C784 C 0.52988 0.23147 0.33903 0.0
H785 H 0.56865 0.26979 0.36627 0.0
C786 C 0.5193 0.2208 0.35924 0.0
C787 C 0.54736 0.24992 0.34165 0.0
C788 C 0.55835 0.26321 0.32076 0.0
C789 C 0.52625 0.2275 0.38194 0.0
C790 C 0.54464 0.24498 0.38452 0.0
C791 C 0.55469 0.25622 0.36433 0.0
C792 C 0.55432 0.25147 0.40784 0.0
C793 C 0.51369 0.21587 0.40292 0.0
C794 C 0.555 0.27642 0.41494 0.0
C795 C 0.56675 0.28294 0.43545 0.0
C796 C 0.57811 0.26463 0.4493 0.0
C797 C 0.57643 0.23954 0.44275 0.0
C798 C 0.56481 0.23305 0.42212 0.0
H799 H 0.49545 0.20945 0.39846 0.0
H800 H 0.52447 0.19941 0.4087 0.0
H801 H 0.51182 0.22912 0.41789 0.0
H802 H 0.54704 0.29096 0.40422 0.0
H803 H 0.56767 0.30245 0.43997 0.0
H804 H 0.06402 0.25929 0.51649 0.0
H805 H 0.04958 0.26823 0.55686 0.0
H806 H 0.08643 0.33786 0.55507 0.0
H807 H 0.10119 0.32881 0.51476 0.0
H808 H 0.09351 0.30768 0.59726 0.0
H809 H 0.99675 0.3218 0.5755 0.0
H810 H 0.01126 0.29356 0.56484 0.0
H811 H 0.02078 0.32293 0.55346 0.0
C812 C 0.06912 0.27644 0.52477 0.0
C813 C 0.08378 0.29332 0.51257 0.0
C814 C 0.06073 0.2816 0.54776 0.0
C815 C 0.0668 0.30378 0.55892 0.0
C816 C 0.0815 0.32065 0.54676 0.0
H817 H 0.01027 0.3849 0.6776 0.0
H818 H 0.02328 0.36782 0.6395 0.0
C819 C 0.08979 0.31555 0.52372 0.0
C820 C 0.05778 0.30948 0.58325 0.0
H821 H 0.00652 0.32424 0.61557 0.0
C822 C 0.07448 0.31113 0.60134 0.0
C823 C 0.03295 0.31406 0.58847 0.0
C824 C 0.01433 0.31321 0.56958 0.0
C825 C 0.06702 0.31751 0.62448 0.0
C826 C 0.04221 0.32223 0.62966 0.0
C827 C 0.0255 0.32032 0.61161 0.0
C828 C 0.03353 0.33165 0.65306 0.0
C829 C 0.08578 0.32002 0.64306 0.0
C830 C 0.03461 0.31683 0.67342 0.0
C831 C 0.02692 0.32654 0.69541 0.0
C832 C 0.01817 0.35123 0.6973 0.0
C833 C 0.01682 0.36578 0.67678 0.0
C834 C 0.02429 0.35606 0.65494 0.0
H835 H 0.10447 0.31917 0.63546 0.0
H836 H 0.08302 0.33788 0.65268 0.0
H837 H 0.08391 0.30473 0.65602 0.0
H838 H 0.04146 0.29783 0.67231 0.0
H839 H 0.02816 0.31492 0.71091 0.0
H840 H 0.01404 0.82058 0.78056 0.0
H841 H 1.00281 0.79932 0.81705 0.0
H842 H 0.92844 0.82252 0.80846 0.0
H843 H 0.93943 0.8434 0.77171 0.0
H844 H 0.98468 0.8229 0.85552 0.0
H845 H 0.92106 0.75114 0.82864 0.0
H846 H 0.94056 0.76675 0.80775 0.0
H847 H 0.91265 0.78142 0.81796 0.0
C848 C 0.99518 0.82064 0.78612 0.0
C849 C 0.97762 0.83372 0.77325 0.0
C850 C 0.98882 0.80852 0.80702 0.0
C851 C 0.96478 0.8092 0.81545 0.0
C852 C 0.94702 0.82128 0.80208 0.0
H853 H 0.90827 0.80773 0.95704 0.0
H854 H 0.9273 0.81792 0.91917 0.0
C855 C 0.95335 0.83328 0.78106 0.0
C856 C 0.95872 0.79959 0.8393 0.0
H857 H 0.91993 0.7623 0.86961 0.0
C858 C 0.97074 0.80938 0.85857 0.0
C859 C 0.94074 0.78177 0.84328 0.0
C860 C 0.92819 0.76946 0.82328 0.0
C861 C 0.96465 0.80254 0.88176 0.0
C862 C 0.94571 0.78583 0.88581 0.0
C863 C 0.93432 0.7753 0.86651 0.0
C864 C 0.93664 0.77979 0.90987 0.0
C865 C 0.97856 0.81332 0.90168 0.0
C866 C 0.9356 0.75498 0.9173 0.0
C867 C 0.92458 0.74906 0.93892 0.0
C868 C 0.91426 0.76788 0.95346 0.0
C869 C 0.9162 0.7928 0.94639 0.0
C870 C 0.92716 0.79868 0.92474 0.0
H871 H 0.99682 0.81906 0.89562 0.0
H872 H 0.96869 0.83008 0.90863 0.0
H873 H 0.98056 0.79978 0.91629 0.0
H874 H 0.94277 0.74012 0.90608 0.0
H875 H 0.92338 0.72967 0.94379 0.0
H876 H 0.47725 0.65876 0.19019 0.0
H877 H 0.46734 0.67757 0.15256 0.0
H878 H 0.46061 0.7496 0.1857 0.0
H879 H 0.47091 0.73075 0.22377 0.0
H880 H 0.42338 0.70349 0.14441 0.0
H881 H 0.50298 0.76197 0.12541 0.0
H882 H 0.50375 0.73677 0.1464 0.0
H883 H 0.48851 0.76559 0.15397 0.0
C884 C 0.47398 0.67867 0.1895 0.0
C885 C 0.47483 0.69331 0.20996 0.0
C886 C 0.4683 0.68938 0.16794 0.0
C887 C 0.46341 0.71498 0.16626 0.0
C888 C 0.46469 0.72984 0.18654 0.0
H889 H 0.40989 0.80114 0.04782 0.0
H890 H 0.4277 0.78835 0.08495 0.0
C891 C 0.47043 0.71907 0.20827 0.0
C892 C 0.45534 0.72543 0.14352 0.0
H893 H 0.47149 0.76368 0.09806 0.0
C894 C 0.43389 0.71667 0.13429 0.0
C895 C 0.46903 0.74271 0.13043 0.0
C896 C 0.49245 0.75227 0.13937 0.0
C897 C 0.42577 0.7246 0.11229 0.0
C898 C 0.43975 0.74138 0.09886 0.0
C899 C 0.46096 0.75061 0.10829 0.0
C900 C 0.43225 0.74966 0.07516 0.0
C901 C 0.40208 0.71517 0.10375 0.0
C902 C 0.42989 0.73234 0.05692 0.0
C903 C 0.41964 0.73953 0.03564 0.0
C904 C 0.41167 0.76426 0.03216 0.0
C905 C 0.41565 0.7819 0.04989 0.0
C906 C 0.42586 0.77465 0.07118 0.0
H907 H 0.39077 0.70771 0.11842 0.0
H908 H 0.39162 0.73014 0.09484 0.0
H909 H 0.40573 0.69992 0.09089 0.0
H910 H 0.43517 0.71303 0.05947 0.0
H911 H 0.41704 0.72547 0.02237 0.0
H912 H 0.12237 0.37208 0.32354 0.0
H913 H 0.13336 0.39399 0.28738 0.0
H914 H 0.19743 0.34734 0.27908 0.0
H915 H 0.18667 0.32534 0.3155 0.0
H916 H 0.17508 0.42038 0.27689 0.0
H917 H 0.16585 0.34152 0.21466 0.0
H918 H 0.1537 0.34088 0.24445 0.0
H919 H 0.18553 0.33605 0.2389 0.0
C920 C 0.13896 0.36659 0.31423 0.0
C921 C 0.15365 0.34692 0.32255 0.0
C922 C 0.14513 0.37904 0.29342 0.0
C923 C 0.16604 0.3721 0.2803 0.0
C924 C 0.18093 0.35268 0.28861 0.0
H925 H 0.21868 0.44457 0.14931 0.0
H926 H 0.21596 0.41557 0.18283 0.0
C927 C 0.17476 0.34016 0.30948 0.0
C928 C 0.17228 0.38577 0.25828 0.0
H929 H 0.17762 0.37983 0.19835 0.0
C930 C 0.17579 0.41145 0.25975 0.0
C931 C 0.1734 0.37409 0.2359 0.0
C932 C 0.16926 0.34666 0.2332 0.0
C933 C 0.17984 0.42585 0.2395 0.0
C934 C 0.18001 0.41438 0.21708 0.0
C935 C 0.17743 0.38856 0.21557 0.0
C936 C 0.18086 0.42945 0.19517 0.0
C937 C 0.1836 0.45337 0.24224 0.0
C938 C 0.16168 0.44608 0.1905 0.0
C939 C 0.16317 0.46243 0.1715 0.0
C940 C 0.18382 0.46243 0.15662 0.0
C941 C 0.2025 0.44482 0.16043 0.0
C942 C 0.20101 0.42837 0.1796 0.0
H943 H 0.18936 0.45807 0.26027 0.0
H944 H 0.19738 0.45996 0.22931 0.0
H945 H 0.16635 0.4636 0.23903 0.0
H946 H 0.14582 0.44695 0.20207 0.0
H947 H 0.14845 0.47573 0.16896 0.0
H948 H 0.86877 0.91595 0.59873 0.0
H949 H 0.85367 0.92941 0.56067 0.0
H950 H 0.92667 0.93889 0.53479 0.0
H951 H 0.94204 0.92591 0.57305 0.0
H952 H 0.86183 0.97542 0.53648 0.0
H953 H 0.8959 0.89296 0.48541 0.0
H954 H 0.89331 0.89298 0.51716 0.0
H955 H 0.91768 0.90867 0.5026 0.0
C956 C 0.88168 0.92114 0.58508 0.0
C957 C 0.90667 0.91983 0.58906 0.0
C958 C 0.87298 0.9287 0.56327 0.0
C959 C 0.88904 0.93492 0.54483 0.0
C960 C 0.91398 0.93379 0.54867 0.0
H961 H 0.8389 0.00859 0.41574 0.0
H962 H 0.86271 0.99796 0.4503 0.0
C963 C 0.92272 0.9263 0.57055 0.0
C964 C 0.87948 0.9427 0.52171 0.0
H965 H 0.87548 0.92446 0.46434 0.0
C966 C 0.86496 0.96442 0.52064 0.0
C967 C 0.88346 0.92818 0.50115 0.0
C968 C 0.89828 0.90428 0.5015 0.0
C969 C 0.85405 0.97185 0.49962 0.0
C970 C 0.85797 0.95729 0.47906 0.0
C971 C 0.87271 0.93572 0.48007 0.0
C972 C 0.84526 0.96303 0.45691 0.0
C973 C 0.83769 0.9947 0.49979 0.0
C974 C 0.82818 0.94654 0.44868 0.0
C975 C 0.81463 0.95249 0.42897 0.0
C976 C 0.81795 0.97504 0.41691 0.0
C977 C 0.83582 0.9911 0.42461 0.0
C978 C 0.84935 0.98513 0.44445 0.0
H979 H 0.83303 1.00114 0.51797 0.0
H980 H 0.84692 0.00998 0.49038 0.0
H981 H 0.82071 0.99102 0.49056 0.0
H982 H 0.8248 0.92934 0.45797 0.0
H983 H 0.80115 0.93959 0.42351 0.0
H984 H 0.26102 0.60822 0.68312 0.0
H985 H 0.27324 0.62989 0.7186 0.0
H986 H 0.34651 0.60283 0.70719 0.0
H987 H 0.33455 0.58099 0.67175 0.0
H988 H 0.29646 0.60223 0.75758 0.0
H989 H 0.35141 0.67945 0.72199 0.0
H990 H 0.32879 0.66448 0.70494 0.0
H991 H 0.35738 0.64907 0.70956 0.0
C992 C 0.27983 0.6072 0.6879 0.0
C993 C 0.29679 0.59276 0.67465 0.0
C994 C 0.28675 0.61958 0.70819 0.0
C995 C 0.31078 0.61805 0.71538 0.0
C996 C 0.32794 0.60446 0.70175 0.0
H997 H 0.38684 0.66754 0.83815 0.0
H998 H 0.37564 0.65191 0.79944 0.0
C999 C 0.32102 0.5919 0.68156 0.0
C1000 C 0.31748 0.62877 0.73821 0.0
H1001 H 0.3514 0.67327 0.76324 0.0
C1002 C 0.30834 0.61786 0.75888 0.0
C1003 C 0.33323 0.6489 0.73971 0.0
C1004 C 0.34322 0.66136 0.71791 0.0
C1005 C 0.31482 0.62634 0.78114 0.0
C1006 C 0.33031 0.64678 0.78274 0.0
C1007 C 0.33948 0.65767 0.762 0.0
C1008 C 0.33714 0.65709 0.8058 0.0
C1009 C 0.30556 0.61279 0.80268 0.0
C1010 C 0.31926 0.66569 0.82198 0.0
C1011 C 0.3256 0.67435 0.8441 0.0
C1012 C 0.34997 0.675 0.85032 0.0
C1013 C 0.36792 0.66724 0.8338 0.0
C1014 C 0.36155 0.65831 0.81173 0.0
H1015 H 0.30024 0.59358 0.79836 0.0
H1016 H 0.31937 0.61179 0.8165 0.0
H1017 H 0.28933 0.62286 0.81 0.0
H1018 H 0.30037 0.66564 0.81754 0.0
H1019 H 0.31142 0.68071 0.85631 0.0
H1020 H 0.55987 0.0944 0.07673 0.0
H1021 H 0.58011 0.07991 0.04019 0.0
H1022 H 0.63433 0.13518 0.04804 0.0
H1023 H 0.61498 0.14899 0.08492 0.0
H1024 H 0.59045 0.10421 0.99841 0.0
H1025 H 0.67523 0.07228 0.0395 0.0
H1026 H 0.64809 0.07977 0.05658 0.0
H1027 H 0.66765 0.10405 0.04659 0.0
C1028 C 0.57627 0.10329 0.07084 0.0
C1029 C 0.58581 0.12283 0.08394 0.0
C1030 C 0.58771 0.09509 0.04984 0.0
C1031 C 0.609 0.10614 0.04156 0.0
C1032 C 0.61823 0.12598 0.0543 0.0
H1033 H 0.70757 0.10685 0.92464 0.0
H1034 H 0.6813 0.11408 0.95925 0.0
C1035 C 0.6069 0.13411 0.07528 0.0
C1036 C 0.62161 0.09724 0.01957 0.0
H1037 H 0.67693 0.07783 0.99764 0.0
C1038 C 0.60926 0.09809 0.99826 0.0
C1039 C 0.6461 0.08899 0.01939 0.0
C1040 C 0.65996 0.08595 0.04178 0.0
C1041 C 0.62113 0.0922 0.97667 0.0
C1042 C 0.6459 0.08518 0.97646 0.0
C1043 C 0.65797 0.08341 0.99783 0.0
C1044 C 0.66022 0.08131 0.95425 0.0
C1045 C 0.60746 0.09449 0.95413 0.0
C1046 C 0.65695 0.06053 0.93977 0.0
C1047 C 0.67207 0.0563 0.91987 0.0
C1048 C 0.69062 0.07281 0.91422 0.0
C1049 C 0.69341 0.09382 0.92849 0.0
C1050 C 0.67843 0.09798 0.9483 0.0
H1051 H 0.58913 0.10297 0.95702 0.0
H1052 H 0.61762 0.10592 0.94118 0.0
H1053 H 0.60556 0.07576 0.94632 0.0
H1054 H 0.64321 0.04724 0.94424 0.0
H1055 H 0.66978 0.03976 0.90943 0.0
H1056 H 0.67491 0.19727 0.63569 0.0
H1057 H 0.68317 0.1784 0.67393 0.0
H1058 H 0.6207 0.13287 0.66785 0.0
H1059 H 0.61221 0.15171 0.62965 0.0
H1060 H 0.65453 0.17615 0.71559 0.0
H1061 H 0.67548 0.08199 0.67926 0.0
H1062 H 0.67365 0.1093 0.66091 0.0
H1063 H 0.64654 0.09485 0.67144 0.0
C1064 C 0.66276 0.18343 0.64258 0.0
C1065 C 0.64297 0.17589 0.62951 0.0
C1066 C 0.66758 0.1726 0.6644 0.0
C1067 C 0.65278 0.15395 0.67355 0.0
C1068 C 0.63266 0.14683 0.66087 0.0
H1069 H 0.66056 0.05951 0.79743 0.0
H1070 H 0.64762 0.08195 0.76238 0.0
C1071 C 0.62785 0.15762 0.63903 0.0
C1072 C 0.65857 0.14182 0.69626 0.0
H1073 H 0.67398 0.08586 0.72073 0.0
C1074 C 0.65881 0.15642 0.71674 0.0
C1075 C 0.66415 0.11607 0.6977 0.0
C1076 C 0.66518 0.09962 0.67615 0.0
C1077 C 0.66419 0.14589 0.7387 0.0
C1078 C 0.66988 0.12016 0.74011 0.0
C1079 C 0.66952 0.10556 0.71964 0.0
C1080 C 0.67676 0.10796 0.7625 0.0
C1081 C 0.66334 0.16232 0.76024 0.0
C1082 C 0.69741 0.11519 0.77431 0.0
C1083 C 0.70486 0.10243 0.79442 0.0
C1084 C 0.69193 0.08201 0.80303 0.0
C1085 C 0.67099 0.07512 0.79136 0.0
C1086 C 0.66355 0.08791 0.77128 0.0
H1087 H 0.65233 0.17956 0.75741 0.0
H1088 H 0.65578 0.15238 0.77577 0.0
H1089 H 0.68196 0.16784 0.76429 0.0
H1090 H 0.70818 0.13026 0.76758 0.0
H1091 H 0.72114 0.1082 0.80281 0.0
H1092 H 0.14754 0.51062 0.05252 0.0
H1093 H 0.12491 0.49989 0.01761 0.0
H1094 H 0.17477 0.43859 1.00327 0.0
H1095 H 0.19702 0.44868 0.03832 0.0
H1096 H 0.13876 0.49874 0.97192 0.0
H1097 H 0.11166 0.40439 0.99854 0.0
H1098 H 0.12413 0.42597 0.01898 0.0
H1099 H 0.14373 0.40775 0.99951 0.0
C1100 C 0.15356 0.49469 0.04208 0.0
C1101 C 0.17402 0.48039 0.0484 0.0
C1102 C 0.14061 0.48861 0.02208 0.0
C1103 C 0.14783 0.46813 0.008 0.0
C1104 C 0.16837 0.45401 0.01418 0.0
H1105 H 0.11596 0.40915 0.87195 0.0
H1106 H 0.13373 0.42296 0.90852 0.0
C1107 C 0.18118 0.45992 0.03423 0.0
C1108 C 0.13455 0.46203 0.98635 0.0
H1109 H 0.10819 0.41434 0.9576 0.0
C1110 C 0.13181 0.48037 0.96893 0.0
C1111 C 0.12534 0.43809 0.98244 0.0
C1112 C 0.12612 0.41802 1.00097 0.0
C1113 C 0.12091 0.47514 0.94745 0.0
C1114 C 0.11259 0.45098 0.94328 0.0
C1115 C 0.11482 0.4328 0.96081 0.0
C1116 C 0.10202 0.44397 0.92058 0.0
C1117 C 0.1189 0.49517 0.92901 0.0
C1118 C 0.07833 0.45136 0.91521 0.0
C1119 C 0.06794 0.44323 0.89443 0.0
C1120 C 0.0811 0.42755 0.8786 0.0
C1121 C 0.10511 0.42081 0.88386 0.0
C1122 C 0.11538 0.4288 0.90469 0.0
H1123 H 0.12814 0.51237 0.93411 0.0
H1124 H 0.12681 0.48834 0.91197 0.0
H1125 H 0.09955 0.49985 0.92623 0.0
H1126 H 0.06768 0.46292 0.92739 0.0
H1127 H 0.04934 0.44855 0.89118 0.0
H1128 H 0.79596 0.93607 0.32525 0.0
H1129 H 0.80681 0.90714 0.29288 0.0
H1130 H 0.78918 0.96416 0.2424 0.0
H1131 H 0.77861 0.99301 0.2744 0.0
H1132 H 0.78031 0.89032 0.25292 0.0
H1133 H 0.86027 0.94455 0.22628 0.0
H1134 H 0.84471 0.9488 0.25436 0.0
H1135 H 0.83275 0.96289 0.22828 0.0
C1136 C 0.79425 0.9423 0.30723 0.0
C1137 C 0.78676 0.96687 0.30232 0.0
C1138 C 0.80043 0.92579 0.28879 0.0
C1139 C 0.79925 0.9337 0.26527 0.0
C1140 C 0.7907 0.95785 0.26042 0.0
H1141 H 0.80199 0.85783 0.13168 0.0
H1142 H 0.79076 0.87743 0.16936 0.0
C1143 C 0.7846 0.97429 0.27874 0.0
C1144 C 0.80762 0.91721 0.24561 0.0
H1145 H 0.8477 0.91415 0.199 0.0
C1146 C 0.79519 0.89534 0.24123 0.0
C1147 C 0.82729 0.9236 0.23062 0.0
C1148 C 0.8422 0.94611 0.2352 0.0
C1149 C 0.80134 0.88021 0.22167 0.0
C1150 C 0.82015 0.88738 0.20594 0.0
C1151 C 0.83313 0.90875 0.2109 0.0
C1152 C 0.82641 0.87351 0.18388 0.0
C1153 C 0.78767 0.85667 0.21809 0.0
C1154 C 0.85027 0.86506 0.1793 0.0
C1155 C 0.85678 0.85404 0.15768 0.0
C1156 C 0.83958 0.85128 0.14013 0.0
C1157 C 0.81559 0.85933 0.14493 0.0
C1158 C 0.80911 0.87047 0.16652 0.0
H1159 H 0.7795 0.84995 0.2349 0.0
H1160 H 0.77281 0.86043 0.20575 0.0
H1161 H 0.79962 0.84169 0.21048 0.0
H1162 H 0.86395 0.86728 0.19237 0.0
H1163 H 0.87534 0.8478 0.15465 0.0
H1164 H 0.32078 0.53518 0.56282 0.0
H1165 H 0.34663 0.54244 0.52802 0.0
H1166 H 0.32943 0.62098 0.53238 0.0
H1167 H 0.30398 0.61388 0.56746 0.0
H1168 H 0.33141 0.56099 0.48648 0.0
H1169 H 0.40196 0.62096 0.52137 0.0
H1170 H 0.38205 0.60337 0.54029 0.0
H1171 H 0.37199 0.63266 0.52825 0.0
C1172 C 0.32287 0.55405 0.55658 0.0
C1173 C 0.31035 0.57398 0.56779 0.0
C1174 C 0.3376 0.55816 0.53669 0.0
C1175 C 0.34015 0.58227 0.5277 0.0
C1176 C 0.32816 0.60228 0.53927 0.0
H1177 H 0.36999 0.62915 0.38576 0.0
H1178 H 0.35239 0.6158 0.42337 0.0
C1179 C 0.31351 0.5982 0.55924 0.0
C1180 C 0.35365 0.58626 0.50517 0.0
H1181 H 0.39813 0.6205 0.4794 0.0
C1182 C 0.34619 0.5738 0.48499 0.0
C1183 C 0.37313 0.6027 0.50326 0.0
C1184 C 0.38294 0.61549 0.5245 0.0
C1185 C 0.35708 0.57801 0.46282 0.0
C1186 C 0.37563 0.59552 0.4607 0.0
C1187 C 0.38372 0.60728 0.48101 0.0
C1188 C 0.38628 0.60257 0.4375 0.0
C1189 C 0.34861 0.56366 0.44189 0.0
C1190 C 0.41126 0.59993 0.43304 0.0
C1191 C 0.42144 0.60784 0.41163 0.0
C1192 C 0.40684 0.61873 0.39431 0.0
C1193 C 0.38178 0.62104 0.39876 0.0
C1194 C 0.37164 0.61315 0.42017 0.0
H1195 H 0.34004 0.54606 0.44739 0.0
H1196 H 0.33492 0.57507 0.43254 0.0
H1197 H 0.3638 0.55918 0.42935 0.0
H1198 H 0.42291 0.59198 0.44625 0.0
H1199 H 0.44084 0.60612 0.40893 0.0
H1200 H 0.16944 0.25441 0.41975 0.0
H1201 H 0.20264 0.24808 0.39064 0.0
H1202 H 0.22219 0.17871 0.42398 0.0
H1203 H 0.18905 0.18482 0.45281 0.0
H1204 H 0.25266 0.24221 0.4006 0.0
H1205 H 0.21926 0.15995 0.35394 0.0
H1206 H 0.19979 0.17987 0.37212 0.0
H1207 H 0.2189 0.15658 0.38538 0.0
C1208 C 0.18056 0.23761 0.42055 0.0
C1209 C 0.17653 0.21996 0.43835 0.0
C1210 C 0.19959 0.23409 0.40403 0.0
C1211 C 0.21468 0.21275 0.40495 0.0
C1212 C 0.21049 0.19506 0.42264 0.0
H1213 H 0.34372 0.14872 0.34228 0.0
H1214 H 0.30724 0.16017 0.36513 0.0
C1215 C 0.19162 0.19863 0.43916 0.0
C1216 C 0.2356 0.20933 0.38829 0.0
H1217 H 0.26112 0.16853 0.34828 0.0
C1218 C 0.25441 0.22631 0.38889 0.0
C1219 C 0.23783 0.18855 0.37306 0.0
C1220 C 0.21778 0.1703 0.37086 0.0
C1221 C 0.27588 0.22244 0.37547 0.0
C1222 C 0.27839 0.20124 0.36077 0.0
C1223 C 0.25925 0.1847 0.35964 0.0
C1224 C 0.30111 0.19515 0.34724 0.0
C1225 C 0.29609 0.24048 0.37793 0.0
C1226 C 0.30986 0.21103 0.32955 0.0
C1227 C 0.33096 0.20464 0.31655 0.0
C1228 C 0.34366 0.18218 0.32093 0.0
C1229 C 0.33477 0.16638 0.33871 0.0
C1230 C 0.31374 0.17279 0.35166 0.0
H1231 H 0.2934 0.25251 0.39373 0.0
H1232 H 0.31378 0.23044 0.3791 0.0
H1233 H 0.29681 0.25266 0.36219 0.0
H1234 H 0.30021 0.2282 0.32556 0.0
H1235 H 0.33732 0.21729 0.30307 0.0
H1236 H 0.07862 0.10592 0.54647 0.0
H1237 H 0.06426 0.06786 0.5652 0.0
H1238 H 0.0837 0.09588 0.63303 0.0
H1239 H 0.09868 0.13365 0.61451 0.0
H1240 H 0.09055 0.03286 0.59596 0.0
H1241 H 0.01025 0.0787 0.63953 0.0
H1242 H 0.02633 0.09242 0.61492 0.0
H1243 H 0.03847 0.09363 0.6439 0.0
C1244 C 0.08016 0.10389 0.56533 0.0
C1245 C 0.08967 0.12301 0.57897 0.0
C1246 C 0.0718 0.08218 0.57601 0.0
C1247 C 0.07259 0.07926 0.60051 0.0
C1248 C 0.08252 0.09799 0.61412 0.0
H1249 H 0.06006 0.95416 0.69322 0.0
H1250 H 0.07288 0.98886 0.6687 0.0
C1251 C 0.091 0.11962 0.60349 0.0
C1252 C 0.063 0.05669 0.61198 0.0
H1253 H 0.01957 0.03721 0.65105 0.0
C1254 C 0.07494 0.03373 0.60787 0.0
C1255 C 0.04246 0.05787 0.62729 0.0
C1256 C 0.02844 0.08191 0.6316 0.0
C1257 C 0.06734 0.01203 0.61933 0.0
C1258 C 0.04737 0.01342 0.63537 0.0
C1259 C 0.03495 0.03622 0.63884 0.0
C1260 C 0.03972 0.99167 0.64948 0.0
C1261 C 0.08075 0.9878 0.61427 0.0
C1262 C 0.01664 0.98192 0.64704 0.0
C1263 C 0.00919 0.96198 0.66107 0.0
C1264 C 0.02459 0.95168 0.67802 0.0
C1265 C 0.04769 0.96158 0.68037 0.0
C1266 C 0.05516 0.98134 0.66625 0.0
H1267 H 0.09141 0.98854 0.59746 0.0
H1268 H 0.09345 0.98383 0.62866 0.0
H1269 H 0.06805 0.9722 0.6134 0.0
H1270 H 1.0044 0.98976 0.63429 0.0
H1271 H 0.99126 0.95489 0.65884 0.0
H1272 H 0.11973 0.85184 0.85441 0.0
H1273 H 0.15609 0.83879 0.8751 0.0
H1274 H 0.19571 0.83335 0.80892 0.0
H1275 H 0.15968 0.84729 0.78814 0.0
H1276 H 0.18537 0.79647 0.87212 0.0
H1277 H 0.23677 0.88 0.84677 0.0
H1278 H 0.20468 0.87796 0.84272 0.0
H1279 H 0.22565 0.86284 0.82237 0.0
C1280 C 0.13619 0.848 0.84423 0.0
C1281 C 0.13676 0.8509 0.81958 0.0
C1282 C 0.15694 0.84036 0.85609 0.0
C1283 C 0.17877 0.83552 0.84363 0.0
C1284 C 0.17921 0.83746 0.81897 0.0
H1285 H 0.30628 0.76582 0.90847 0.0
H1286 H 0.27192 0.77451 0.88318 0.0
C1287 C 0.15847 0.84513 0.80708 0.0
C1288 C 0.20109 0.82894 0.85657 0.0
H1289 H 0.25783 0.84876 0.86777 0.0
C1290 C 0.20126 0.80784 0.87111 0.0
C1291 C 0.22171 0.84398 0.8555 0.0
C1292 C 0.22223 0.86759 0.84119 0.0
C1293 C 0.22143 0.80137 0.8846 0.0
C1294 C 0.2422 0.81619 0.88322 0.0
C1295 C 0.24203 0.83726 0.86864 0.0
C1296 C 0.26375 0.81102 0.89777 0.0
C1297 C 0.22 0.77921 0.90079 0.0
C1298 C 0.27117 0.82894 0.91382 0.0
C1299 C 0.29093 0.82415 0.92813 0.0
C1300 C 0.30383 0.80129 0.92671 0.0
C1301 C 0.29673 0.78357 0.91018 0.0
C1302 C 0.27695 0.78843 0.8958 0.0
H1303 H 0.20105 0.77357 0.90407 0.0
H1304 H 0.23012 0.76325 0.8926 0.0
H1305 H 0.22821 0.78323 0.91797 0.0
H1306 H 0.26137 0.84655 0.9156 0.0
H1307 H 0.29581 0.8383 0.94058 0.0
H1308 H 0.43085 0.07945 0.19339 0.0
H1309 H 0.41999 0.04479 0.16858 0.0
H1310 H 0.48238 0.057 0.1235 0.0
H1311 H 0.49379 0.09162 0.14862 0.0
H1312 H 0.40911 0.04508 0.1219 0.0
H1313 H 0.48881 0.98283 0.13733 0.0
H1314 H 0.48178 0.00981 0.15535 0.0
H1315 H 0.49564 0.01334 0.12664 0.0
C1316 C 0.44237 0.07482 0.17825 0.0
C1317 C 0.46325 0.08835 0.17306 0.0
C1318 C 0.4361 0.05495 0.16406 0.0
C1319 C 0.45052 0.04807 0.14436 0.0
C1320 C 0.47126 0.06165 0.1389 0.0
H1321 H 0.4229 0.93092 0.04137 0.0
H1322 H 0.44089 0.96577 0.0619 0.0
C1323 C 0.47765 0.08155 0.15319 0.0
C1324 C 0.44322 0.02707 0.1294 0.0
H1325 H 0.46001 0.96857 0.11079 0.0
C1326 C 0.4203 0.0284 0.11941 0.0
C1327 C 0.45788 0.00534 0.12609 0.0
C1328 C 0.48232 1.00253 0.13704 0.0
C1329 C 0.41147 0.0085 0.10653 0.0
C1330 C 0.42585 0.98658 0.10372 0.0
C1331 C 0.44906 0.98544 0.11305 0.0
C1332 C 0.41643 0.96431 0.09211 0.0
C1333 C 0.38673 0.01098 0.09612 0.0
C1334 C 0.39723 0.95158 0.10267 0.0
C1335 C 0.38706 0.93162 0.09114 0.0
C1336 C 0.39587 0.92399 0.06876 0.0
C1337 C 0.41577 0.93621 0.05863 0.0
C1338 C 0.426 0.95619 0.07026 0.0
H1339 H 0.38043 0.0307 0.0951 0.0
H1340 H 0.38671 1.00274 0.07819 0.0
H1341 H 0.37361 1.00082 0.10736 0.0
H1342 H 0.38987 0.95733 0.11972 0.0
H1343 H 0.37211 0.9223 0.09967 0.0
H1344 H 0.85661 0.39779 0.61585 0.0
H1345 H 0.82109 0.3823 0.59666 0.0
H1346 H 0.81439 0.32529 0.64955 0.0
H1347 H 0.84929 0.34143 0.66959 0.0
H1348 H 0.81442 0.33715 0.57727 0.0
H1349 H 0.74615 0.35389 0.64918 0.0
H1350 H 0.7758 0.36702 0.64945 0.0
H1351 H 0.77174 0.33508 0.65755 0.0
C1352 C 0.84736 0.38226 0.62374 0.0
C1353 C 0.8558 0.37105 0.64446 0.0
C1354 C 0.82713 0.37327 0.61258 0.0
C1355 C 0.81479 0.35285 0.62181 0.0
C1356 C 0.82326 0.3414 0.64234 0.0
H1357 H 0.69146 0.27429 0.56551 0.0
H1358 H 0.72621 0.28575 0.5888 0.0
C1359 C 0.84346 0.35047 0.65361 0.0
C1360 C 0.7936 0.34321 0.60939 0.0
H1361 H 0.73316 0.3324 0.61554 0.0
C1362 C 0.79667 0.33612 0.58568 0.0
C1363 C 0.77041 0.34175 0.62035 0.0
C1364 C 0.76568 0.35004 0.64546 0.0
C1365 C 0.77725 0.32778 0.57263 0.0
C1366 C 0.75405 0.32668 0.58348 0.0
C1367 C 0.751 0.33323 0.60731 0.0
C1368 C 0.73258 0.31996 0.56995 0.0
C1369 C 0.78169 0.32019 0.54729 0.0
C1370 C 0.72441 0.33562 0.55195 0.0
C1371 C 0.70457 0.32923 0.53871 0.0
C1372 C 0.69241 0.30698 0.54315 0.0
C1373 C 0.70042 0.2915 0.56151 0.0
C1374 C 0.72025 0.29802 0.57487 0.0
H1375 H 0.80118 0.31646 0.54326 0.0
H1376 H 0.77149 0.30331 0.54307 0.0
H1377 H 0.77537 0.33542 0.53563 0.0
H1378 H 0.73346 0.35281 0.54808 0.0
H1379 H 0.69895 0.34169 0.5248 0.0
H1380 H 0.95886 0.42421 0.80955 0.0
H1381 H 0.94764 0.45354 0.84166 0.0
H1382 H 0.95272 0.51472 0.79297 0.0
H1383 H 0.96368 0.48592 0.76119 0.0
H1384 H 0.97238 0.49883 0.85843 0.0
H1385 H 0.88249 0.51941 0.82115 0.0
H1386 H 0.90049 0.49214 0.81304 0.0
H1387 H 0.90718 0.5218 0.80023 0.0
C1388 C 0.95768 0.44393 0.80582 0.0
C1389 C 0.96179 0.45274 0.7828 0.0
C1390 C 0.95132 0.46063 0.82413 0.0
C1391 C 0.94893 0.48625 0.81956 0.0
C1392 C 0.95402 0.49501 0.7968 0.0
H1393 H 0.90541 0.6253 0.88309 0.0
H1394 H 0.92057 0.59094 0.85824 0.0
C1395 C 0.96033 0.47848 0.77865 0.0
C1396 C 0.94045 0.50416 0.83806 0.0
H1397 H 0.89578 0.54754 0.85019 0.0
C1398 C 0.95548 0.50927 0.85689 0.0
C1399 C 0.91841 0.51776 0.83595 0.0
C1400 C 0.90107 0.5124 0.81663 0.0
C1401 C 0.94954 0.52844 0.87308 0.0
C1402 C 0.92785 0.54258 0.87048 0.0
C1403 C 0.91251 0.53688 0.85205 0.0
C1404 C 0.92076 0.56374 0.88627 0.0
C1405 C 0.96694 0.53406 0.89225 0.0
C1406 C 0.91602 0.55997 0.91037 0.0
C1407 C 0.90751 0.57966 0.92469 0.0
C1408 C 0.90339 0.60353 0.91518 0.0
C1409 C 0.90867 0.60731 0.89111 0.0
C1410 C 0.91717 0.58762 0.87682 0.0
H1411 H 0.98513 0.52553 0.88858 0.0
H1412 H 0.96877 0.55443 0.89442 0.0
H1413 H 0.95995 0.52645 0.90917 0.0
H1414 H 0.91827 0.54164 0.918 0.0
H1415 H 0.90385 0.5761 0.94318 0.0
H1416 H 0.80184 0.76273 0.0764 0.0
H1417 H 0.76623 0.75315 0.10097 0.0
H1418 H 0.75979 0.68356 0.06433 0.0
H1419 H 0.79504 0.6929 0.03972 0.0
H1420 H 0.71647 0.71293 0.06774 0.0
H1421 H 0.76003 0.70041 0.1543 0.0
H1422 H 0.76641 0.7286 0.13857 0.0
H1423 H 0.77699 0.69928 0.12672 0.0
C1424 C 0.79296 0.74531 0.07369 0.0
C1425 C 0.80134 0.72862 0.05604 0.0
C1426 C 0.77267 0.73983 0.08782 0.0
C1427 C 0.76049 0.71757 0.08455 0.0
C1428 C 0.76895 0.70083 0.06714 0.0
H1429 H 0.65465 0.6362 0.16324 0.0
H1430 H 0.69082 0.65267 0.14388 0.0
C1431 C 0.78917 0.70623 0.0531 0.0
C1432 C 0.73835 0.71187 0.0985 0.0
H1433 H 0.71771 0.69632 0.1536 0.0
C1434 C 0.71666 0.70949 0.08655 0.0
C1435 C 0.73878 0.70719 0.12298 0.0
C1436 C 0.76179 0.70879 0.13649 0.0
C1437 C 0.69542 0.70223 0.09834 0.0
C1438 C 0.69583 0.69751 0.12282 0.0
C1439 C 0.71745 0.70014 0.13486 0.0
C1440 C 0.67429 0.68841 0.13587 0.0
C1441 C 0.67293 0.6988 0.08437 0.0
C1442 C 0.65314 0.70323 0.13814 0.0
C1443 C 0.63238 0.69382 0.14907 0.0
C1444 C 0.63241 0.6694 0.15794 0.0
C1445 C 0.65389 0.65491 0.15624 0.0
C1446 C 0.67463 0.66436 0.14536 0.0
H1447 H 0.67691 0.69832 0.0651 0.0
H1448 H 0.66395 0.68133 0.08951 0.0
H1449 H 0.66003 0.71451 0.08807 0.0
H1450 H 0.6526 0.72196 0.13116 0.0
H1451 H 0.61612 0.70542 0.14998 0.0
H1452 H 0.59142 0.4578 0.4419 0.0
H1453 H 0.573 0.49413 0.42273 0.0
H1454 H 0.55501 0.4485 0.36362 0.0
H1455 H 0.57283 0.41206 0.38285 0.0
H1456 H 0.58726 0.51392 0.37941 0.0
H1457 H 0.49164 0.48674 0.37777 0.0
H1458 H 0.51336 0.47176 0.39664 0.0
H1459 H 0.51197 0.46306 0.36612 0.0
C1460 C 0.58309 0.4554 0.42504 0.0
C1461 C 0.58357 0.43199 0.41393 0.0
C1462 C 0.5727 0.47621 0.41406 0.0
C1463 C 0.56233 0.47398 0.39189 0.0
C1464 C 0.56248 0.45059 0.38092 0.0
H1465 H 0.51592 0.55425 0.27421 0.0
H1466 H 0.52535 0.52556 0.30601 0.0
C1467 C 0.57292 0.42982 0.39183 0.0
C1468 C 0.55282 0.49626 0.37937 0.0
H1469 H 0.5035 0.51869 0.35056 0.0
C1470 C 0.56881 0.51525 0.37347 0.0
C1471 C 0.52873 0.49801 0.37174 0.0
C1472 C 0.51036 0.47893 0.37859 0.0
C1473 C 0.5618 0.53511 0.35886 0.0
C1474 C 0.53804 0.53618 0.35026 0.0
C1475 C 0.52171 0.51784 0.35714 0.0
C1476 C 0.53071 0.55428 0.33187 0.0
C1477 C 0.58028 0.55396 0.35161 0.0
C1478 C 0.53007 0.58008 0.33595 0.0
C1479 C 0.52469 0.59668 0.31763 0.0
C1480 C 0.51991 0.58764 0.29504 0.0
C1481 C 0.51973 0.56182 0.29136 0.0
C1482 C 0.52504 0.54536 0.30955 0.0
H1483 H 0.59882 0.54824 0.35678 0.0
H1484 H 0.5803 0.55685 0.33226 0.0
H1485 H 0.5756 0.57202 0.3602 0.0
H1486 H 0.53399 0.58735 0.35317 0.0
H1487 H 0.52474 0.61649 0.32099 0.0
H1488 H 0.34887 0.37825 0.1533 0.0
H1489 H 0.37057 0.34162 0.16816 0.0
H1490 H 0.30663 0.29835 0.1615 0.0
H1491 H 0.28494 0.33478 0.14595 0.0
H1492 H 0.36052 0.31035 0.20737 0.0
H1493 H 0.35839 0.25929 0.12216 0.0
H1494 H 0.35136 0.29215 0.12443 0.0
H1495 H 0.32977 0.26996 0.13452 0.0
C1496 C 0.33941 0.36094 0.15494 0.0
C1497 C 0.31523 0.3594 0.14821 0.0
C1498 C 0.35179 0.34007 0.16358 0.0
C1499 C 0.34031 0.3172 0.16561 0.0
C1500 C 0.31593 0.31574 0.15974 0.0
H1501 H 0.41839 0.17566 0.19576 0.0
H1502 H 0.38421 0.2052 0.19063 0.0
C1503 C 0.3035 0.33665 0.15109 0.0
C1504 C 0.35432 0.29487 0.17316 0.0
H1505 H 0.37974 0.24025 0.15273 0.0
C1506 C 0.36448 0.29487 0.19554 0.0
C1507 C 0.35932 0.2746 0.15775 0.0
C1508 C 0.34932 0.2739 0.1333 0.0
C1509 C 0.38019 0.27556 0.20261 0.0
C1510 C 0.38618 0.25597 0.18675 0.0
C1511 C 0.37506 0.25529 0.16485 0.0
C1512 C 0.40614 0.23789 0.1913 0.0
C1513 C 0.39068 0.27656 0.22683 0.0
C1514 C 0.42969 0.24651 0.19317 0.0
C1515 C 0.44906 0.22982 0.1959 0.0
C1516 C 0.44535 0.20412 0.19675 0.0
C1517 C 0.42173 0.19539 0.19514 0.0
C1518 C 0.40225 0.2122 0.19225 0.0
H1519 H 0.37891 0.28776 0.23914 0.0
H1520 H 0.39328 0.25761 0.23425 0.0
H1521 H 0.40854 0.28544 0.22564 0.0
H1522 H 0.43317 0.2662 0.192 0.0
H1523 H 0.46704 0.23712 0.1971 0.0
H1524 H 0.96085 0.32427 0.79423 0.0
H1525 H 0.93544 0.28951 0.80512 0.0
H1526 H 0.88786 0.30768 0.74847 0.0
H1527 H 0.91339 0.34264 0.73714 0.0
H1528 H 0.86668 0.29773 0.79983 0.0
H1529 H 0.92832 0.22456 0.76085 0.0
H1530 H 0.9418 0.24865 0.77774 0.0
H1531 H 0.92791 0.25629 0.75042 0.0
C1532 C 0.94497 0.32103 0.78403 0.0
C1533 C 0.93922 0.33632 0.76475 0.0
C1534 C 0.9305 0.30107 0.7903 0.0
C1535 C 0.90987 0.29599 0.77755 0.0
C1536 C 0.90376 0.31132 0.7585 0.0
H1537 H 0.82246 0.16366 0.78822 0.0
H1538 H 0.8437 0.20043 0.77424 0.0
C1539 C 0.91839 0.33125 0.75205 0.0
C1540 C 0.89493 0.27448 0.78421 0.0
H1541 H 0.89533 0.21098 0.78434 0.0
C1542 C 0.87282 0.27876 0.79633 0.0
C1543 C 0.90302 0.2498 0.77958 0.0
C1544 C 0.92649 0.24435 0.76631 0.0
C1545 C 0.85882 0.25887 0.8044 0.0
C1546 C 0.86719 0.23417 0.80024 0.0
C1547 C 0.88902 0.22994 0.78762 0.0
C1548 C 0.85361 0.21244 0.80893 0.0
C1549 C 0.83515 0.26431 0.8173 0.0
C1550 C 0.85225 0.20693 0.83308 0.0
C1551 C 0.84024 0.18584 0.84113 0.0
C1552 C 0.8292 0.16996 0.82517 0.0
C1553 C 0.83047 0.17568 0.801 0.0
C1554 C 0.8427 0.19661 0.79296 0.0
H1555 H 0.82921 0.28408 0.81553 0.0
H1556 H 0.82082 0.2523 0.8106 0.0
H1557 H 0.83719 0.26015 0.83629 0.0
H1558 H 0.86077 0.2188 0.84567 0.0
H1559 H 0.8395 0.182 0.85984 0.0
H1560 H 0.08893 0.62423 0.06382 0.0
H1561 H 0.04837 0.63853 0.05347 0.0
H1562 H 0.01754 0.5894 0.1054 0.0
H1563 H 0.05824 0.57536 0.11632 0.0
H1564 H 0.00742 0.6115 0.03791 0.0
H1565 H 0.99073 0.65959 0.12398 0.0
H1566 H 0.0206 0.6494 0.11416 0.0
H1567 H 0.99931 0.62714 0.12467 0.0
C1568 C 0.07355 0.61654 0.07315 0.0
C1569 C 0.07682 0.59891 0.09112 0.0
C1570 C 0.05037 0.62454 0.06704 0.0
C1571 C 0.02998 0.61516 0.07879 0.0
C1572 C 0.03307 0.59702 0.09627 0.0
H1573 H 0.88732 0.6809 0.03799 0.0
H1574 H 0.91583 0.64754 0.05018 0.0
C1575 C 0.05631 0.58894 0.10238 0.0
C1576 C 0.00575 0.62565 0.0734 0.0
H1577 H 0.96242 0.66656 0.09467 0.0
C1578 C 0.99721 0.62306 0.05047 0.0
C1579 C 0.99258 0.64077 0.08983 0.0
C1580 C 1.00121 0.64462 0.11452 0.0
C1581 C 0.97651 0.63628 0.0432 0.0
C1582 C 0.96418 0.65243 0.05926 0.0
C1583 C 0.97187 0.6539 0.08253 0.0
C1584 C 0.9466 0.67147 0.05115 0.0
C1585 C 0.96885 0.63435 0.01801 0.0
C1586 C 0.95463 0.69565 0.04757 0.0
C1587 C 0.93864 0.71444 0.04067 0.0
C1588 C 0.91417 0.70953 0.03731 0.0
C1589 C 0.90608 0.68516 0.04054 0.0
C1590 C 0.92228 0.66617 0.04746 0.0
H1591 H 0.97959 0.62 0.00798 0.0
H1592 H 0.94944 0.62974 0.0175 0.0
H1593 H 0.971 0.65258 0.00914 0.0
H1594 H 0.97336 0.70002 0.05025 0.0
H1595 H 0.94549 0.73296 0.0382 0.0
H1596 H 0.68405 0.86057 0.30067 0.0
H1597 H 0.65918 0.82796 0.28458 0.0
H1598 H 0.61734 0.82625 0.34958 0.0
H1599 H 0.64166 0.85926 0.36556 0.0
H1600 H 0.65324 0.77998 0.30251 0.0
H1601 H 0.56538 0.83139 0.29979 0.0
H1602 H 0.59369 0.84681 0.30295 0.0
H1603 H 0.57919 0.83254 0.328 0.0
C1604 C 0.66926 0.85359 0.31139 0.0
C1605 C 0.66479 0.86261 0.33439 0.0
C1606 C 0.65519 0.83482 0.30222 0.0
C1607 C 0.63623 0.82487 0.31576 0.0
C1608 C 0.63161 0.83394 0.33865 0.0
H1609 H 0.53528 0.70758 0.31001 0.0
H1610 H 0.56124 0.74187 0.31945 0.0
C1611 C 0.64569 0.85265 0.34786 0.0
C1612 C 0.62191 0.80427 0.30644 0.0
H1613 H 0.56426 0.78731 0.29555 0.0
C1614 C 0.63382 0.78163 0.30071 0.0
C1615 C 0.59659 0.8065 0.30406 0.0
C1616 C 0.58296 0.83069 0.3088 0.0
C1617 C 0.62095 0.76085 0.2936 0.0
C1618 C 0.59554 0.76291 0.29185 0.0
C1619 C 0.58373 0.78574 0.29699 0.0
C1620 C 0.58064 0.74133 0.28593 0.0
C1621 C 0.63449 0.7366 0.28892 0.0
C1622 C 0.58297 0.72952 0.2639 0.0
C1623 C 0.56811 0.70974 0.25839 0.0
C1624 C 0.55058 0.70154 0.2748 0.0
C1625 C 0.54854 0.71333 0.2969 0.0
C1626 C 0.56335 0.73302 0.30236 0.0
H1627 H 0.6531 0.73673 0.29575 0.0
H1628 H 0.62477 0.72085 0.29708 0.0
H1629 H 0.63581 0.73328 0.26964 0.0
H1630 H 0.59595 0.73589 0.25082 0.0
H1631 H 0.57009 0.70119 0.24118 0.0
H1632 H 0.59227 0.34502 0.50341 0.0
H1633 H 0.55976 0.37663 0.50938 0.0
H1634 H 0.53745 0.3402 0.57367 0.0
H1635 H 0.56953 0.30876 0.56773 0.0
H1636 H 0.49997 0.34878 0.5416 0.0
H1637 H 0.5517 0.43414 0.55826 0.0
H1638 H 0.56005 0.41622 0.53242 0.0
H1639 H 0.56499 0.40332 0.56106 0.0
C1640 C 0.58069 0.34413 0.51902 0.0
C1641 C 0.58341 0.3245 0.53514 0.0
C1642 C 0.56214 0.36215 0.52241 0.0
C1643 C 0.54621 0.36078 0.54202 0.0
C1644 C 0.54948 0.34159 0.55841 0.0
H1645 H 0.44315 0.45349 0.61527 0.0
H1646 H 0.47825 0.4301 0.59941 0.0
C1647 C 0.56787 0.32367 0.55503 0.0
C1648 C 0.52518 0.37824 0.54517 0.0
H1649 H 0.50923 0.43807 0.55998 0.0
C1650 C 0.50194 0.36838 0.54533 0.0
C1651 C 0.52786 0.40374 0.55014 0.0
C1652 C 0.55245 0.41511 0.55065 0.0
C1653 C 0.48136 0.38312 0.55109 0.0
C1654 C 0.48403 0.40856 0.5565 0.0
C1655 C 0.50722 0.41861 0.55568 0.0
C1656 C 0.46324 0.42433 0.56512 0.0
C1657 C 0.45705 0.37105 0.55245 0.0
C1658 C 0.44325 0.42927 0.55097 0.0
C1659 C 0.42297 0.44247 0.56008 0.0
C1660 C 0.42234 0.451 0.58353 0.0
C1661 C 0.44279 0.44674 0.59732 0.0
C1662 C 0.46299 0.43359 0.58821 0.0
H1663 H 0.45874 0.35044 0.55225 0.0
H1664 H 0.44686 0.3769 0.56869 0.0
H1665 H 0.44634 0.37694 0.5371 0.0
H1666 H 0.44319 0.42259 0.53298 0.0
H1667 H 0.40755 0.4454 0.54899 0.0
H1668 H 0.1286 0.65846 0.6522 0.0
H1669 H 0.10899 0.69712 0.66605 0.0
H1670 H 0.17637 0.73494 0.65778 0.0
H1671 H 0.19606 0.69641 0.64323 0.0
H1672 H 0.12084 0.72721 0.70518 0.0
H1673 H 0.12841 0.77853 0.62025 0.0
H1674 H 0.13263 0.74521 0.62194 0.0
H1675 H 0.1558 0.76521 0.63171 0.0
C1676 C 0.13924 0.67503 0.65308 0.0
C1677 C 0.16388 0.67434 0.6464 0.0
C1678 C 0.12804 0.69708 0.66118 0.0
C1679 C 0.14115 0.71897 0.6627 0.0
C1680 C 0.16583 0.71834 0.65644 0.0
H1681 H 0.0682 0.86404 0.69752 0.0
H1682 H 0.10201 0.83378 0.69103 0.0
C1683 C 0.1771 0.69624 0.64834 0.0
C1684 C 0.12866 0.7423 0.67081 0.0
H1685 H 0.10694 0.79845 0.65136 0.0
C1686 C 0.11811 0.74294 0.69353 0.0
C1687 C 0.12531 0.76293 0.65567 0.0
C1688 C 0.13597 0.76306 0.63097 0.0
C1689 C 0.10342 0.76316 0.70115 0.0
C1690 C 0.09885 0.78307 0.68552 0.0
C1691 C 0.11054 0.78316 0.66331 0.0
C1692 C 0.0792 0.80172 0.69049 0.0
C1693 C 0.09223 0.76269 0.72563 0.0
C1694 C 0.05536 0.79371 0.6921 0.0
C1695 C 0.03628 0.81075 0.69556 0.0
C1696 C 0.04053 0.83629 0.69745 0.0
C1697 C 0.06444 0.84445 0.69609 0.0
C1698 C 0.08369 0.82724 0.69241 0.0
H1699 H 0.10306 0.75078 0.7376 0.0
H1700 H 0.09048 0.7817 0.73319 0.0
H1701 H 0.07391 0.75489 0.72484 0.0
H1702 H 0.05144 0.77418 0.69027 0.0
H1703 H 0.01808 0.80383 0.69658 0.0
H1704 H 0.42708 0.80319 0.91023 0.0
H1705 H 0.45775 0.83437 0.90363 0.0
H1706 H 0.43163 0.87431 0.96539 0.0
H1707 H 0.40069 0.84281 0.97218 0.0
H1708 H 0.45337 0.8867 0.89732 0.0
H1709 H 0.50456 0.8612 0.97728 0.0
H1710 H 0.48194 0.84143 0.9655 0.0
H1711 H 0.47297 0.86908 0.98143 0.0
C1712 C 0.42767 0.81874 0.92231 0.0
C1713 C 0.41153 0.82054 0.94175 0.0
C1714 C 0.44523 0.83656 0.9185 0.0
C1715 C 0.44724 0.8565 0.93417 0.0
C1716 C 0.43064 0.85887 0.95326 0.0
H1717 H 0.56536 0.96333 0.93142 0.0
H1718 H 0.52856 0.94134 0.94255 0.0
C1719 C 0.41285 0.84102 0.95701 0.0
C1720 C 0.46721 0.87419 0.93045 0.0
H1721 H 0.52139 0.89124 0.95219 0.0
C1722 C 0.46813 0.88789 0.90944 0.0
C1723 C 0.48645 0.87577 0.94628 0.0
C1724 C 0.48668 0.86102 0.96885 0.0
C1725 C 0.48792 0.90273 0.9036 0.0
C1726 C 0.50766 0.90348 0.91893 0.0
C1727 C 0.50634 0.89054 0.94038 0.0
C1728 C 0.53021 0.91666 0.91246 0.0
C1729 C 0.48752 0.91742 0.88099 0.0
C1730 C 0.54371 0.90978 0.89213 0.0
C1731 C 0.56466 0.92236 0.88567 0.0
C1732 C 0.57277 0.94205 0.89948 0.0
C1733 C 0.5595 0.94851 0.92018 0.0
C1734 C 0.53851 0.93587 0.92664 0.0
H1735 H 0.46875 0.92094 0.87513 0.0
H1736 H 0.49641 0.93554 0.883 0.0
H1737 H 0.49738 0.90669 0.86694 0.0
H1738 H 0.53798 0.89467 0.88115 0.0
H1739 H 0.57419 0.91697 0.86951 0.0
H1740 H 0.87422 0.1398 0.40576 0.0
H1741 H 0.91057 0.16058 0.41852 0.0
H1742 H 0.95441 0.09738 0.39542 0.0
H1743 H 0.91827 0.07668 0.38246 0.0
H1744 H 0.94587 0.14772 0.45005 0.0
H1745 H 0.98513 0.15439 0.35957 0.0
H1746 H 0.95421 0.14602 0.36538 0.0
H1747 H 0.97828 0.12321 0.36814 0.0
C1748 C 0.89159 0.13025 0.40366 0.0
C1749 C 0.89345 0.10675 0.39286 0.0
C1750 C 0.91233 0.14216 0.41086 0.0
C1751 C 0.93524 0.13075 0.40742 0.0
C1752 C 0.93699 0.10681 0.39765 0.0
H1753 H 0.06868 0.17753 0.4705 0.0
H1754 H 0.03303 0.15486 0.45934 0.0
C1755 C 0.91633 0.09499 0.39031 0.0
C1756 C 0.95735 0.14399 0.41371 0.0
H1757 H 0.01058 0.16518 0.39079 0.0
C1758 C 0.96001 0.15159 0.43711 0.0
C1759 C 0.97559 0.14937 0.3967 0.0
C1760 C 0.97312 0.14306 0.371 0.0
C1761 C 0.98062 0.16412 0.44405 0.0
C1762 C 0.99927 0.16868 0.42721 0.0
C1763 C 0.99642 0.16138 0.40374 0.0
C1764 C 0.02153 0.18176 0.43335 0.0
C1765 C 0.98195 0.17284 0.46922 0.0
C1766 C 0.02748 0.20387 0.42176 0.0
C1767 C 0.04803 0.21672 0.42785 0.0
C1768 C 0.06307 0.20771 0.4457 0.0
C1769 C 0.05743 0.18514 0.45681 0.0
C1770 C 0.03693 0.17223 0.45059 0.0
H1771 H 0.96381 0.1739 0.47803 0.0
H1772 H 0.99333 0.15949 0.47921 0.0
H1773 H 0.99017 0.19141 0.47018 0.0
H1774 H 0.01595 0.21147 0.40828 0.0
H1775 H 0.05177 0.23401 0.41888 0.0
loop_
_geom_bond_atom_site_label_1
_geom_bond_atom_site_label_2
_geom_bond_distance
_geom_bond_site_symmetry_2
_ccdc_geom_bond_type
Pr0 C2 2.880 . S
Pr0 O20 2.562 . S
Pr0 O21 2.490 . S
Pr0 O22 2.695 . S
Pr0 O23 2.512 . S
Pr0 O25 2.437 . S
Pr0 O28 2.436 . S
Pr0 O30 2.438 . S
Pr1 C11 2.880 . S
Pr1 O22 2.436 . S
Pr1 O24 2.438 . S
Pr1 O26 2.562 . S
Pr1 O27 2.490 . S
Pr1 O28 2.695 . S
Pr1 O29 2.512 . S
Pr1 O31 2.437 . S
C2 Pr0 2.880 . S
C2 C3 1.491 . S
C2 O20 1.254 . S
C2 O21 1.225 . S
C3 C2 1.491 . S
C3 C4 1.392 . S
C3 C8 1.356 . S
C4 C3 1.392 . S
C4 C5 1.368 . S
C4 H32 0.929 . S
C5 C4 1.368 . S
C5 C6 1.386 . S
C5 H33 0.929 . S
C6 C5 1.386 . S
C6 C7 1.373 . S
C7 C6 1.373 . S
C7 C8 1.409 . S
C7 H34 0.931 . S
C8 C3 1.356 . S
C8 C7 1.409 . S
C8 H35 0.930 . S
C9 O22 1.270 . S
C9 O23 1.248 . S
C10 O24 1.267 . S
C10 O25 1.278 . S
C11 Pr1 2.880 . S
C11 C12 1.491 . S
C11 O26 1.254 . S
C11 O27 1.225 . S
C12 C11 1.491 . S
C12 C13 1.392 . S
C12 C17 1.356 . S
C13 C12 1.392 . S
C13 C14 1.368 . S
C13 H36 0.929 . S
C14 C13 1.368 . S
C14 C15 1.386 . S
C14 H37 0.929 . S
C15 C14 1.386 . S
C15 C16 1.373 . S
C16 C15 1.373 . S
C16 C17 1.409 . S
C16 H38 0.931 . S
C17 C12 1.356 . S
C17 C16 1.409 . S
C17 H39 0.930 . S
C18 O28 1.270 . S
C18 O29 1.248 . S
C19 O30 1.267 . S
C19 O31 1.278 . S
O20 Pr0 2.562 . S
O20 C2 1.254 . S
O21 Pr0 2.490 . S
O21 C2 1.225 . S
O22 Pr0 2.695 . S
O22 Pr1 2.436 . S
O22 C9 1.270 . S
O23 Pr0 2.512 . S
O23 C9 1.248 . S
O24 Pr1 2.438 . S
O24 C10 1.267 . S
O25 Pr0 2.437 . S
O25 C10 1.278 . S
O26 Pr1 2.562 . S
O26 C11 1.254 . S
O27 Pr1 2.490 . S
O27 C11 1.225 . S
O28 Pr0 2.436 . S
O28 Pr1 2.695 . S
O28 C18 1.270 . S
O29 Pr1 2.512 . S
O29 C18 1.248 . S
O30 Pr0 2.438 . S
O30 C19 1.267 . S
O31 Pr1 2.437 . S
O31 C19 1.278 . S
H32 C4 0.929 . S
H33 C5 0.929 . S
H34 C7 0.931 . S
H35 C8 0.930 . S
H36 C13 0.929 . S
H37 C14 0.929 . S
H38 C16 0.931 . S
H39 C17 0.930 . S
Pr40 C42 2.880 . S
Pr40 O60 2.562 . S
Pr40 O61 2.490 . S
Pr40 O62 2.695 1_655 S
Pr40 O63 2.512 1_655 S
Pr40 O65 2.437 1_655 S
Pr40 O68 2.436 . S
Pr40 O70 2.438 . S
Pr41 C51 2.880 . S
Pr41 O62 2.436 . S
Pr41 O64 2.438 . S
Pr41 O66 2.562 . S
Pr41 O67 2.490 . S
Pr41 O68 2.695 1_455 S
Pr41 O69 2.515 . S
Pr41 O71 2.437 . S
C42 Pr40 2.880 . S
C42 C43 1.491 . S
C42 O60 1.254 . S
C42 O61 1.225 . S
C43 C42 1.491 . S
C43 C44 1.392 . S
C43 C48 1.356 . S
C44 C43 1.392 . S
C44 C45 1.368 . S
C44 H72 0.929 . S
C45 C44 1.368 . S
C45 C46 1.386 . S
C45 H73 0.929 . S
C46 C45 1.386 . S
C46 C47 1.373 . S
C47 C46 1.373 . S
C47 C48 1.409 . S
C47 H74 0.931 . S
C48 C43 1.356 . S
C48 C47 1.409 . S
C48 H75 0.930 . S
C49 O62 1.270 . S
C49 O63 1.248 . S
C50 O64 1.267 . S
C50 O65 1.278 . S
C51 Pr41 2.880 . S
C51 C52 1.491 . S
C51 O66 1.254 . S
C51 O67 1.225 . S
C52 C51 1.491 . S
C52 C53 1.392 . S
C52 C57 1.356 . S
C53 C52 1.392 . S
C53 C54 1.368 . S
C53 H76 0.929 . S
C54 C53 1.368 . S
C54 C55 1.386 . S
C54 H77 0.929 . S
C55 C54 1.386 . S
C55 C56 1.373 . S
C56 C55 1.373 . S
C56 C57 1.409 . S
C56 H78 0.931 . S
C57 C52 1.356 . S
C57 C56 1.409 . S
C57 H79 0.930 . S
C58 O68 1.270 . S
C58 O69 1.246 1_655 S
C59 O70 1.267 . S
C59 O71 1.278 1_655 S
O60 Pr40 2.562 . S
O60 C42 1.254 . S
O61 Pr40 2.490 . S
O61 C42 1.225 . S
O62 Pr40 2.695 1_455 S
O62 Pr41 2.436 . S
O62 C49 1.270 . S
O63 Pr40 2.512 1_455 S
O63 C49 1.248 . S
O64 Pr41 2.438 . S
O64 C50 1.267 . S
O65 Pr40 2.437 1_455 S
O65 C50 1.278 . S
O66 Pr41 2.562 . S
O66 C51 1.254 . S
O67 Pr41 2.490 . S
O67 C51 1.225 . S
O68 Pr40 2.436 . S
O68 Pr41 2.695 1_655 S
O68 C58 1.270 . S
O69 Pr41 2.515 . S
O69 C58 1.246 1_455 S
O70 Pr40 2.438 . S
O70 C59 1.267 . S
O71 Pr41 2.437 . S
O71 C59 1.278 1_455 S
H72 C44 0.929 . S
H73 C45 0.929 . S
H74 C47 0.931 . S
H75 C48 0.930 . S
H76 C53 0.929 . S
H77 C54 0.929 . S
H78 C56 0.931 . S
H79 C57 0.930 . S
Pr80 C82 2.880 . S
Pr80 O100 2.562 . S
Pr80 O101 2.490 . S
Pr80 O102 2.695 . S
Pr80 O103 2.512 . S
Pr80 O105 2.437 . S
Pr80 O108 2.436 . S
Pr80 O110 2.438 . S
Pr81 C91 2.880 1_556 S
Pr81 O102 2.436 . S
Pr81 O104 2.438 . S
Pr81 O106 2.562 1_556 S
Pr81 O107 2.490 1_556 S
Pr81 O108 2.695 . S
Pr81 O109 2.512 1_556 S
Pr81 O111 2.437 1_556 S
C82 Pr80 2.880 . S
C82 C83 1.491 . S
C82 O100 1.254 . S
C82 O101 1.225 . S
C83 C82 1.491 . S
C83 C84 1.392 . S
C83 C88 1.356 . S
C84 C83 1.392 . S
C84 C85 1.368 . S
C84 H112 0.929 . S
C85 C84 1.368 . S
C85 C86 1.386 . S
C85 H113 0.929 . S
C86 C85 1.386 . S
C86 C87 1.373 . S
C87 C86 1.373 . S
C87 C88 1.409 . S
C87 H114 0.931 . S
C88 C83 1.356 . S
C88 C87 1.409 . S
C88 H115 0.930 . S
C89 O102 1.270 . S
C89 O103 1.248 . S
C90 O104 1.267 . S
C90 O105 1.278 . S
C91 Pr81 2.880 1_554 S
C91 C92 1.491 . S
C91 O106 1.254 . S
C91 O107 1.225 . S
C92 C91 1.491 . S
C92 C93 1.392 . S
C92 C97 1.356 . S
C93 C92 1.392 . S
C93 C94 1.368 . S
C93 H116 0.929 . S
C94 C93 1.368 . S
C94 C95 1.386 . S
C94 H117 0.929 . S
C95 C94 1.386 . S
C95 C96 1.373 . S
C96 C95 1.373 . S
C96 C97 1.409 . S
C96 H118 0.931 . S
C97 C92 1.356 . S
C97 C96 1.409 . S
C97 H119 0.930 . S
C98 O108 1.270 1_554 S
C98 O109 1.248 . S
C99 O110 1.267 1_554 S
C99 O111 1.278 . S
O100 Pr80 2.562 . S
O100 C82 1.254 . S
O101 Pr80 2.490 . S
O101 C82 1.225 . S
O102 Pr80 2.695 . S
O102 Pr81 2.436 . S
O102 C89 1.270 . S
O103 Pr80 2.512 . S
O103 C89 1.248 . S
O104 Pr81 2.438 . S
O104 C90 1.267 . S
O105 Pr80 2.437 . S
O105 C90 1.278 . S
O106 Pr81 2.562 1_554 S
O106 C91 1.254 . S
O107 Pr81 2.490 1_554 S
O107 C91 1.225 . S
O108 Pr80 2.436 . S
O108 Pr81 2.695 . S
O108 C98 1.270 1_556 S
O109 Pr81 2.512 1_554 S
O109 C98 1.248 . S
O110 Pr80 2.438 . S
O110 C99 1.267 1_556 S
O111 Pr81 2.437 1_554 S
O111 C99 1.278 . S
H112 C84 0.929 . S
H113 C85 0.929 . S
H114 C87 0.931 . S
H115 C88 0.930 . S
H116 C93 0.929 . S
H117 C94 0.929 . S
H118 C96 0.931 . S
H119 C97 0.930 . S
Pr120 C122 2.880 . S
Pr120 O140 2.562 . S
Pr120 O141 2.490 . S
Pr120 O142 2.695 . S
Pr120 O143 2.512 . S
Pr120 O145 2.437 . S
Pr120 O148 2.436 . S
Pr120 O150 2.438 . S
Pr121 C131 2.880 . S
Pr121 O142 2.436 . S
Pr121 O144 2.438 . S
Pr121 O146 2.562 . S
Pr121 O147 2.490 . S
Pr121 O148 2.695 . S
Pr121 O149 2.512 . S
Pr121 O151 2.437 . S
C122 Pr120 2.880 . S
C122 C123 1.491 . S
C122 O140 1.254 . S
C122 O141 1.225 . S
C123 C122 1.491 . S
C123 C124 1.392 . S
C123 C128 1.356 . S
C124 C123 1.392 . S
C124 C125 1.368 . S
C124 H152 0.929 . S
C125 C124 1.368 . S
C125 C126 1.386 . S
C125 H153 0.929 . S
C126 C125 1.386 . S
C126 C127 1.373 . S
C127 C126 1.373 . S
C127 C128 1.409 . S
C127 H154 0.931 . S
C128 C123 1.356 . S
C128 C127 1.409 . S
C128 H155 0.930 . S
C129 O142 1.270 . S
C129 O143 1.248 . S
C130 O144 1.267 . S
C130 O145 1.278 . S
C131 Pr121 2.880 . S
C131 C132 1.491 . S
C131 O146 1.254 . S
C131 O147 1.225 . S
C132 C131 1.491 . S
C132 C133 1.392 . S
C132 C137 1.356 . S
C133 C132 1.392 . S
C133 C134 1.368 . S
C133 H156 0.929 . S
C134 C133 1.368 . S
C134 C135 1.386 . S
C134 H157 0.929 . S
C135 C134 1.386 . S
C135 C136 1.373 . S
C136 C135 1.373 . S
C136 C137 1.409 . S
C136 H158 0.931 . S
C137 C132 1.356 . S
C137 C136 1.409 . S
C137 H159 0.930 . S
C138 O148 1.270 . S
C138 O149 1.248 . S
C139 O150 1.267 . S
C139 O151 1.278 . S
O140 Pr120 2.562 . S
O140 C122 1.254 . S
O141 Pr120 2.490 . S
O141 C122 1.225 . S
O142 Pr120 2.695 . S
O142 Pr121 2.436 . S
O142 C129 1.270 . S
O143 Pr120 2.512 . S
O143 C129 1.248 . S
O144 Pr121 2.438 . S
O144 C130 1.267 . S
O145 Pr120 2.437 . S
O145 C130 1.278 . S
O146 Pr121 2.562 . S
O146 C131 1.254 . S
O147 Pr121 2.490 . S
O147 C131 1.225 . S
O148 Pr120 2.436 . S
O148 Pr121 2.695 . S
O148 C138 1.270 . S
O149 Pr121 2.512 . S
O149 C138 1.248 . S
O150 Pr120 2.438 . S
O150 C139 1.267 . S
O151 Pr121 2.437 . S
O151 C139 1.278 . S
H152 C124 0.929 . S
H153 C125 0.929 . S
H154 C127 0.931 . S
H155 C128 0.930 . S
H156 C133 0.929 . S
H157 C134 0.929 . S
H158 C136 0.931 . S
H159 C137 0.930 . S
Pr160 C162 2.880 . S
Pr160 O180 2.562 . S
Pr160 O181 2.490 . S
Pr160 O182 2.695 . S
Pr160 O183 2.512 . S
Pr160 O185 2.437 . S
Pr160 O188 2.436 . S
Pr160 O190 2.438 . S
Pr161 C171 2.880 . S
Pr161 O182 2.436 . S
Pr161 O184 2.438 . S
Pr161 O186 2.562 . S
Pr161 O187 2.490 . S
Pr161 O188 2.695 . S
Pr161 O189 2.512 . S
Pr161 O191 2.437 . S
C162 Pr160 2.880 . S
C162 C163 1.491 . S
C162 O180 1.254 . S
C162 O181 1.225 . S
C163 C162 1.491 . S
C163 C164 1.392 . S
C163 C168 1.356 . S
C164 C163 1.392 . S
C164 C165 1.368 . S
C164 H192 0.929 . S
C165 C164 1.368 . S
C165 C166 1.386 . S
C165 H193 0.929 . S
C166 C165 1.386 . S
C166 C167 1.373 . S
C167 C166 1.373 . S
C167 C168 1.409 . S
C167 H194 0.931 . S
C168 C163 1.356 . S
C168 C167 1.409 . S
C168 H195 0.930 . S
C169 O182 1.270 . S
C169 O183 1.248 . S
C170 O184 1.267 . S
C170 O185 1.278 . S
C171 Pr161 2.880 . S
C171 C172 1.491 . S
C171 O186 1.254 . S
C171 O187 1.225 . S
C172 C171 1.491 . S
C172 C173 1.392 . S
C172 C177 1.356 . S
C173 C172 1.392 . S
C173 C174 1.368 . S
C173 H196 0.929 . S
C174 C173 1.368 . S
C174 C175 1.386 . S
C174 H197 0.929 . S
C175 C174 1.386 . S
C175 C176 1.373 . S
C176 C175 1.373 . S
C176 C177 1.409 . S
C176 H198 0.931 . S
C177 C172 1.356 . S
C177 C176 1.409 . S
C177 H199 0.930 . S
C178 O188 1.270 . S
C178 O189 1.248 . S
C179 O190 1.267 . S
C179 O191 1.278 . S
O180 Pr160 2.562 . S
O180 C162 1.254 . S
O181 Pr160 2.490 . S
O181 C162 1.225 . S
O182 Pr160 2.695 . S
O182 Pr161 2.436 . S
O182 C169 1.270 . S
O183 Pr160 2.512 . S
O183 C169 1.248 . S
O184 Pr161 2.438 . S
O184 C170 1.267 . S
O185 Pr160 2.437 . S
O185 C170 1.278 . S
O186 Pr161 2.562 . S
O186 C171 1.254 . S
O187 Pr161 2.490 . S
O187 C171 1.225 . S
O188 Pr160 2.436 . S
O188 Pr161 2.695 . S
O188 C178 1.270 . S
O189 Pr161 2.512 . S
O189 C178 1.248 . S
O190 Pr160 2.438 . S
O190 C179 1.267 . S
O191 Pr161 2.437 . S
O191 C179 1.278 . S
H192 C164 0.929 . S
H193 C165 0.929 . S
H194 C167 0.931 . S
H195 C168 0.930 . S
H196 C173 0.929 . S
H197 C174 0.929 . S
H198 C176 0.931 . S
H199 C177 0.930 . S
Pr200 C202 2.880 . S
Pr200 O220 2.562 . S
Pr200 O221 2.490 . S
Pr200 O222 2.695 . S
Pr200 O223 2.512 . S
Pr200 O225 2.437 . S
Pr200 O228 2.436 . S
Pr200 O230 2.438 . S
Pr201 C211 2.880 1_655 S
Pr201 O222 2.436 . S
Pr201 O224 2.438 . S
Pr201 O226 2.562 1_655 S
Pr201 O227 2.490 1_655 S
Pr201 O228 2.695 . S
Pr201 O229 2.512 1_655 S
Pr201 O231 2.437 1_655 S
C202 Pr200 2.880 . S
C202 C203 1.491 . S
C202 O220 1.254 . S
C202 O221 1.225 . S
C203 C202 1.491 . S
C203 C204 1.392 . S
C203 C208 1.356 . S
C204 C203 1.392 . S
C204 C205 1.368 . S
C204 H232 0.929 . S
C205 C204 1.368 . S
C205 C206 1.386 . S
C205 H233 0.929 . S
C206 C205 1.386 . S
C206 C207 1.373 . S
C207 C206 1.373 . S
C207 C208 1.409 . S
C207 H234 0.931 . S
C208 C203 1.356 . S
C208 C207 1.409 . S
C208 H235 0.930 . S
C209 O222 1.270 . S
C209 O223 1.248 . S
C210 O224 1.267 . S
C210 O225 1.278 . S
C211 Pr201 2.880 1_455 S
C211 C212 1.491 . S
C211 O226 1.254 . S
C211 O227 1.225 . S
C212 C211 1.491 . S
C212 C213 1.392 . S
C212 C217 1.356 . S
C213 C212 1.392 . S
C213 C214 1.368 . S
C213 H236 0.929 . S
C214 C213 1.368 . S
C214 C215 1.386 . S
C214 H237 0.929 . S
C215 C214 1.386 . S
C215 C216 1.373 . S
C216 C215 1.373 . S
C216 C217 1.409 . S
C216 H238 0.931 . S
C217 C212 1.356 . S
C217 C216 1.409 . S
C217 H239 0.930 . S
C218 O228 1.270 . S
C218 O229 1.248 1_655 S
C219 O230 1.267 1_455 S
C219 O231 1.278 . S
O220 Pr200 2.562 . S
O220 C202 1.254 . S
O221 Pr200 2.490 . S
O221 C202 1.225 . S
O222 Pr200 2.695 . S
O222 Pr201 2.436 . S
O222 C209 1.270 . S
O223 Pr200 2.512 . S
O223 C209 1.248 . S
O224 Pr201 2.438 . S
O224 C210 1.267 . S
O225 Pr200 2.437 . S
O225 C210 1.278 . S
O226 Pr201 2.562 1_455 S
O226 C211 1.254 . S
O227 Pr201 2.490 1_455 S
O227 C211 1.225 . S
O228 Pr200 2.436 . S
O228 Pr201 2.695 . S
O228 C218 1.270 . S
O229 Pr201 2.512 1_455 S
O229 C218 1.248 1_455 S
O230 Pr200 2.438 . S
O230 C219 1.267 1_655 S
O231 Pr201 2.437 1_455 S
O231 C219 1.278 . S
H232 C204 0.929 . S
H233 C205 0.929 . S
H234 C207 0.931 . S
H235 C208 0.930 . S
H236 C213 0.929 . S
H237 C214 0.929 . S
H238 C216 0.931 . S
H239 C217 0.930 . S
Pr240 C242 2.880 . S
Pr240 O260 2.562 . S
Pr240 O261 2.490 . S
Pr240 O262 2.695 . S
Pr240 O263 2.512 . S
Pr240 O265 2.437 . S
Pr240 O268 2.436 1_554 S
Pr240 O270 2.438 1_554 S
Pr241 C251 2.880 . S
Pr241 O262 2.436 1_556 S
Pr241 O264 2.438 1_556 S
Pr241 O266 2.562 . S
Pr241 O267 2.490 . S
Pr241 O268 2.695 . S
Pr241 O269 2.512 . S
Pr241 O271 2.437 . S
C242 Pr240 2.880 . S
C242 C243 1.491 . S
C242 O260 1.254 . S
C242 O261 1.225 . S
C243 C242 1.491 . S
C243 C244 1.392 . S
C243 C248 1.356 . S
C244 C243 1.392 . S
C244 C245 1.368 . S
C244 H272 0.929 . S
C245 C244 1.368 . S
C245 C246 1.386 . S
C245 H273 0.929 . S
C246 C245 1.386 . S
C246 C247 1.373 . S
C247 C246 1.373 . S
C247 C248 1.409 . S
C247 H274 0.931 . S
C248 C243 1.356 . S
C248 C247 1.409 . S
C248 H275 0.930 . S
C249 O262 1.270 . S
C249 O263 1.248 . S
C250 O264 1.267 . S
C250 O265 1.278 . S
C251 Pr241 2.880 . S
C251 C252 1.491 . S
C251 O266 1.254 . S
C251 O267 1.225 . S
C252 C251 1.491 . S
C252 C253 1.392 . S
C252 C257 1.356 . S
C253 C252 1.392 . S
C253 C254 1.368 . S
C253 H276 0.929 . S
C254 C253 1.368 . S
C254 C255 1.386 . S
C254 H277 0.929 . S
C255 C254 1.386 . S
C255 C256 1.373 . S
C256 C255 1.373 . S
C256 C257 1.409 . S
C256 H278 0.931 . S
C257 C252 1.356 . S
C257 C256 1.409 . S
C257 H279 0.930 . S
C258 O268 1.270 . S
C258 O269 1.248 . S
C259 O270 1.267 . S
C259 O271 1.278 . S
O260 Pr240 2.562 . S
O260 C242 1.254 . S
O261 Pr240 2.490 . S
O261 C242 1.225 . S
O262 Pr240 2.695 . S
O262 Pr241 2.436 1_554 S
O262 C249 1.270 . S
O263 Pr240 2.512 . S
O263 C249 1.248 . S
O264 Pr241 2.438 1_554 S
O264 C250 1.267 . S
O265 Pr240 2.437 . S
O265 C250 1.278 . S
O266 Pr241 2.562 . S
O266 C251 1.254 . S
O267 Pr241 2.490 . S
O267 C251 1.225 . S
O268 Pr240 2.436 1_556 S
O268 Pr241 2.695 . S
O268 C258 1.270 . S
O269 Pr241 2.512 . S
O269 C258 1.248 . S
O270 Pr240 2.438 1_556 S
O270 C259 1.267 . S
O271 Pr241 2.437 . S
O271 C259 1.278 . S
H272 C244 0.929 . S
H273 C245 0.929 . S
H274 C247 0.931 . S
H275 C248 0.930 . S
H276 C253 0.929 . S
H277 C254 0.929 . S
H278 C256 0.931 . S
H279 C257 0.930 . S
Pr280 C282 2.880 . S
Pr280 O300 2.562 . S
Pr280 O301 2.490 . S
Pr280 O302 2.695 . S
Pr280 O303 2.512 . S
Pr280 O305 2.437 . S
Pr280 O308 2.436 . S
Pr280 O310 2.438 . S
Pr281 C291 2.880 . S
Pr281 O302 2.436 . S
Pr281 O304 2.438 . S
Pr281 O306 2.562 . S
Pr281 O307 2.490 . S
Pr281 O308 2.695 . S
Pr281 O309 2.512 . S
Pr281 O311 2.437 . S
C282 Pr280 2.880 . S
C282 C283 1.491 . S
C282 O300 1.254 . S
C282 O301 1.225 . S
C283 C282 1.491 . S
C283 C284 1.392 . S
C283 C288 1.356 . S
C284 C283 1.392 . S
C284 C285 1.368 . S
C284 H312 0.929 . S
C285 C284 1.368 . S
C285 C286 1.386 . S
C285 H313 0.929 . S
C286 C285 1.386 . S
C286 C287 1.373 . S
C287 C286 1.373 . S
C287 C288 1.409 . S
C287 H314 0.931 . S
C288 C283 1.356 . S
C288 C287 1.409 . S
C288 H315 0.930 . S
C289 O302 1.270 . S
C289 O303 1.248 . S
C290 O304 1.267 . S
C290 O305 1.278 . S
C291 Pr281 2.880 . S
C291 C292 1.491 . S
C291 O306 1.254 . S
C291 O307 1.225 . S
C292 C291 1.491 . S
C292 C293 1.392 . S
C292 C297 1.356 . S
C293 C292 1.392 . S
C293 C294 1.368 . S
C293 H316 0.929 . S
C294 C293 1.368 . S
C294 C295 1.386 . S
C294 H317 0.929 . S
C295 C294 1.386 . S
C295 C296 1.373 . S
C296 C295 1.373 . S
C296 C297 1.409 . S
C296 H318 0.931 . S
C297 C292 1.356 . S
C297 C296 1.409 . S
C297 H319 0.930 . S
C298 O308 1.270 . S
C298 O309 1.248 . S
C299 O310 1.267 . S
C299 O311 1.278 . S
O300 Pr280 2.562 . S
O300 C282 1.254 . S
O301 Pr280 2.490 . S
O301 C282 1.225 . S
O302 Pr280 2.695 . S
O302 Pr281 2.436 . S
O302 C289 1.270 . S
O303 Pr280 2.512 . S
O303 C289 1.248 . S
O304 Pr281 2.438 . S
O304 C290 1.267 . S
O305 Pr280 2.437 . S
O305 C290 1.278 . S
O306 Pr281 2.562 . S
O306 C291 1.254 . S
O307 Pr281 2.490 . S
O307 C291 1.225 . S
O308 Pr280 2.436 . S
O308 Pr281 2.695 . S
O308 C298 1.270 . S
O309 Pr281 2.512 . S
O309 C298 1.248 . S
O310 Pr280 2.438 . S
O310 C299 1.267 . S
O311 Pr281 2.437 . S
O311 C299 1.278 . S
H312 C284 0.929 . S
H313 C285 0.929 . S
H314 C287 0.931 . S
H315 C288 0.930 . S
H316 C293 0.929 . S
H317 C294 0.929 . S
H318 C296 0.931 . S
H319 C297 0.930 . S
Pr320 C322 2.880 . S
Pr320 O340 2.562 . S
Pr320 O341 2.490 . S
Pr320 O342 2.695 . S
Pr320 O343 2.512 . S
Pr320 O345 2.437 . S
Pr320 O348 2.436 . S
Pr320 O350 2.438 . S
Pr321 C331 2.880 . S
Pr321 O342 2.436 . S
Pr321 O344 2.438 . S
Pr321 O346 2.562 . S
Pr321 O347 2.490 . S
Pr321 O348 2.695 . S
Pr321 O349 2.512 . S
Pr321 O351 2.437 . S
C322 Pr320 2.880 . S
C322 C323 1.491 . S
C322 O340 1.254 . S
C322 O341 1.225 . S
C323 C322 1.491 . S
C323 C324 1.392 . S
C323 C328 1.356 . S
C324 C323 1.392 . S
C324 C325 1.368 . S
C324 H352 0.929 . S
C325 C324 1.368 . S
C325 C326 1.386 . S
C325 H353 0.929 . S
C326 C325 1.386 . S
C326 C327 1.373 . S
C327 C326 1.373 . S
C327 C328 1.409 . S
C327 H354 0.931 . S
C328 C323 1.356 . S
C328 C327 1.409 . S
C328 H355 0.930 . S
C329 O342 1.270 . S
C329 O343 1.248 . S
C330 O344 1.267 . S
C330 O345 1.278 . S
C331 Pr321 2.880 . S
C331 C332 1.491 . S
C331 O346 1.254 . S
C331 O347 1.225 . S
C332 C331 1.491 . S
C332 C333 1.392 . S
C332 C337 1.356 . S
C333 C332 1.392 . S
C333 C334 1.368 . S
C333 H356 0.929 . S
C334 C333 1.368 . S
C334 C335 1.386 . S
C334 H357 0.929 . S
C335 C334 1.386 . S
C335 C336 1.373 . S
C336 C335 1.373 . S
C336 C337 1.409 . S
C336 H358 0.931 . S
C337 C332 1.356 . S
C337 C336 1.409 . S
C337 H359 0.930 . S
C338 O348 1.270 . S
C338 O349 1.248 . S
C339 O350 1.267 . S
C339 O351 1.278 . S
O340 Pr320 2.562 . S
O340 C322 1.254 . S
O341 Pr320 2.490 . S
O341 C322 1.225 . S
O342 Pr320 2.695 . S
O342 Pr321 2.436 . S
O342 C329 1.270 . S
O343 Pr320 2.512 . S
O343 C329 1.248 . S
O344 Pr321 2.438 . S
O344 C330 1.267 . S
O345 Pr320 2.437 . S
O345 C330 1.278 . S
O346 Pr321 2.562 . S
O346 C331 1.254 . S
O347 Pr321 2.490 . S
O347 C331 1.225 . S
O348 Pr320 2.436 . S
O348 Pr321 2.695 . S
O348 C338 1.270 . S
O349 Pr321 2.512 . S
O349 C338 1.248 . S
O350 Pr320 2.438 . S
O350 C339 1.267 . S
O351 Pr321 2.437 . S
O351 C339 1.278 . S
H352 C324 0.929 . S
H353 C325 0.929 . S
H354 C327 0.931 . S
H355 C328 0.930 . S
H356 C333 0.929 . S
H357 C334 0.929 . S
H358 C336 0.931 . S
H359 C337 0.930 . S
Pr360 C362 2.880 . S
Pr360 O380 2.562 . S
Pr360 O381 2.490 . S
Pr360 O382 2.695 . S
Pr360 O383 2.512 . S
Pr360 O385 2.437 . S
Pr360 O388 2.436 . S
Pr360 O390 2.438 1_545 S
Pr361 C371 2.880 . S
Pr361 O382 2.436 1_565 S
Pr361 O384 2.438 1_565 S
Pr361 O386 2.562 . S
Pr361 O387 2.490 . S
Pr361 O388 2.695 1_565 S
Pr361 O389 2.512 . S
Pr361 O391 2.437 . S
C362 Pr360 2.880 . S
C362 C363 1.491 . S
C362 O380 1.254 . S
C362 O381 1.225 . S
C363 C362 1.491 . S
C363 C364 1.392 . S
C363 C368 1.356 . S
C364 C363 1.392 . S
C364 C365 1.368 . S
C364 H392 0.929 . S
C365 C364 1.368 . S
C365 C366 1.386 . S
C365 H393 0.929 . S
C366 C365 1.386 . S
C366 C367 1.373 . S
C367 C366 1.373 . S
C367 C368 1.409 . S
C367 H394 0.931 . S
C368 C363 1.356 . S
C368 C367 1.409 . S
C368 H395 0.930 . S
C369 O382 1.270 . S
C369 O383 1.248 . S
C370 O384 1.267 . S
C370 O385 1.278 . S
C371 Pr361 2.880 . S
C371 C372 1.491 . S
C371 O386 1.254 . S
C371 O387 1.225 . S
C372 C371 1.491 . S
C372 C373 1.392 . S
C372 C377 1.356 . S
C373 C372 1.392 . S
C373 C374 1.368 . S
C373 H396 0.929 . S
C374 C373 1.368 . S
C374 C375 1.386 . S
C374 H397 0.929 . S
C375 C374 1.386 . S
C375 C376 1.373 . S
C376 C375 1.373 . S
C376 C377 1.409 . S
C376 H398 0.931 . S
C377 C372 1.356 . S
C377 C376 1.409 . S
C377 H399 0.930 . S
C378 O388 1.270 1_565 S
C378 O389 1.248 . S
C379 O390 1.267 . S
C379 O391 1.278 . S
O380 Pr360 2.562 . S
O380 C362 1.254 . S
O381 Pr360 2.490 . S
O381 C362 1.225 . S
O382 Pr360 2.695 . S
O382 Pr361 2.436 1_545 S
O382 C369 1.270 . S
O383 Pr360 2.512 . S
O383 C369 1.248 . S
O384 Pr361 2.438 1_545 S
O384 C370 1.267 . S
O385 Pr360 2.437 . S
O385 C370 1.278 . S
O386 Pr361 2.562 . S
O386 C371 1.254 . S
O387 Pr361 2.490 . S
O387 C371 1.225 . S
O388 Pr360 2.436 . S
O388 Pr361 2.695 1_545 S
O388 C378 1.270 1_545 S
O389 Pr361 2.512 . S
O389 C378 1.248 . S
O390 Pr360 2.438 1_565 S
O390 C379 1.267 . S
O391 Pr361 2.437 . S
O391 C379 1.278 . S
H392 C364 0.929 . S
H393 C365 0.929 . S
H394 C367 0.931 . S
H395 C368 0.930 . S
H396 C373 0.929 . S
H397 C374 0.929 . S
H398 C376 0.931 . S
H399 C377 0.930 . S
Pr400 C402 2.880 . S
Pr400 O420 2.562 . S
Pr400 O421 2.490 . S
Pr400 O422 2.695 1_545 S
Pr400 O423 2.512 1_545 S
Pr400 O425 2.437 1_545 S
Pr400 O428 2.436 . S
Pr400 O430 2.438 . S
Pr401 C411 2.880 . S
Pr401 O422 2.436 . S
Pr401 O424 2.438 . S
Pr401 O426 2.562 . S
Pr401 O427 2.490 . S
Pr401 O428 2.695 1_565 S
Pr401 O429 2.512 1_565 S
Pr401 O431 2.437 1_565 S
C402 Pr400 2.880 . S
C402 C403 1.491 . S
C402 O420 1.254 . S
C402 O421 1.225 . S
C403 C402 1.491 . S
C403 C404 1.392 . S
C403 C408 1.356 . S
C404 C403 1.392 . S
C404 C405 1.368 . S
C404 H432 0.929 . S
C405 C404 1.368 . S
C405 C406 1.386 . S
C405 H433 0.929 . S
C406 C405 1.386 . S
C406 C407 1.373 . S
C407 C406 1.373 . S
C407 C408 1.409 . S
C407 H434 0.931 . S
C408 C403 1.356 . S
C408 C407 1.409 . S
C408 H435 0.930 . S
C409 O422 1.270 . S
C409 O423 1.248 . S
C410 O424 1.267 . S
C410 O425 1.278 . S
C411 Pr401 2.880 . S
C411 C412 1.491 . S
C411 O426 1.254 . S
C411 O427 1.225 . S
C412 C411 1.491 . S
C412 C413 1.392 . S
C412 C417 1.356 . S
C413 C412 1.392 . S
C413 C414 1.368 . S
C413 H436 0.929 . S
C414 C413 1.368 . S
C414 C415 1.386 . S
C414 H437 0.929 . S
C415 C414 1.386 . S
C415 C416 1.373 . S
C416 C415 1.373 . S
C416 C417 1.409 . S
C416 H438 0.931 . S
C417 C412 1.356 . S
C417 C416 1.409 . S
C417 H439 0.930 . S
C418 O428 1.270 . S
C418 O429 1.248 . S
C419 O430 1.267 . S
C419 O431 1.278 . S
O420 Pr400 2.562 . S
O420 C402 1.254 . S
O421 Pr400 2.490 . S
O421 C402 1.225 . S
O422 Pr400 2.695 1_565 S
O422 Pr401 2.436 . S
O422 C409 1.270 . S
O423 Pr400 2.512 1_565 S
O423 C409 1.248 . S
O424 Pr401 2.438 . S
O424 C410 1.267 . S
O425 Pr400 2.437 1_565 S
O425 C410 1.278 . S
O426 Pr401 2.562 . S
O426 C411 1.254 . S
O427 Pr401 2.490 . S
O427 C411 1.225 . S
O428 Pr400 2.436 . S
O428 Pr401 2.695 1_545 S
O428 C418 1.270 . S
O429 Pr401 2.512 1_545 S
O429 C418 1.248 . S
O430 Pr400 2.438 . S
O430 C419 1.267 . S
O431 Pr401 2.437 1_545 S
O431 C419 1.278 . S
H432 C404 0.929 . S
H433 C405 0.929 . S
H434 C407 0.931 . S
H435 C408 0.930 . S
H436 C413 0.929 . S
H437 C414 0.929 . S
H438 C416 0.931 . S
H439 C417 0.930 . S
Pr440 C442 2.880 . S
Pr440 O460 2.562 . S
Pr440 O461 2.490 . S
Pr440 O462 2.695 . S
Pr440 O463 2.512 . S
Pr440 O465 2.437 . S
Pr440 O468 2.436 . S
Pr440 O470 2.438 . S
Pr441 C451 2.880 . S
Pr441 O462 2.436 . S
Pr441 O464 2.438 . S
Pr441 O466 2.562 . S
Pr441 O467 2.490 . S
Pr441 O468 2.695 . S
Pr441 O469 2.512 . S
Pr441 O471 2.437 . S
C442 Pr440 2.880 . S
C442 C443 1.491 . S
C442 O460 1.254 . S
C442 O461 1.225 . S
C443 C442 1.491 . S
C443 C444 1.392 . S
C443 C448 1.356 . S
C444 C443 1.392 . S
C444 C445 1.368 . S
C444 H472 0.929 . S
C445 C444 1.368 . S
C445 C446 1.386 . S
C445 H473 0.929 . S
C446 C445 1.386 . S
C446 C447 1.373 . S
C447 C446 1.373 . S
C447 C448 1.409 . S
C447 H474 0.931 . S
C448 C443 1.356 . S
C448 C447 1.409 . S
C448 H475 0.930 . S
C449 O462 1.270 . S
C449 O463 1.248 . S
C450 O464 1.267 . S
C450 O465 1.278 . S
C451 Pr441 2.880 . S
C451 C452 1.491 . S
C451 O466 1.254 . S
C451 O467 1.225 . S
C452 C451 1.491 . S
C452 C453 1.392 . S
C452 C457 1.356 . S
C453 C452 1.392 . S
C453 C454 1.368 . S
C453 H476 0.929 . S
C454 C453 1.368 . S
C454 C455 1.386 . S
C454 H477 0.929 . S
C455 C454 1.386 . S
C455 C456 1.373 . S
C456 C455 1.373 . S
C456 C457 1.409 . S
C456 H478 0.931 . S
C457 C452 1.356 . S
C457 C456 1.409 . S
C457 H479 0.930 . S
C458 O468 1.270 . S
C458 O469 1.248 . S
C459 O470 1.267 . S
C459 O471 1.278 . S
O460 Pr440 2.562 . S
O460 C442 1.254 . S
O461 Pr440 2.490 . S
O461 C442 1.225 . S
O462 Pr440 2.695 . S
O462 Pr441 2.436 . S
O462 C449 1.270 . S
O463 Pr440 2.512 . S
O463 C449 1.248 . S
O464 Pr441 2.438 . S
O464 C450 1.267 . S
O465 Pr440 2.437 . S
O465 C450 1.278 . S
O466 Pr441 2.562 . S
O466 C451 1.254 . S
O467 Pr441 2.490 . S
O467 C451 1.225 . S
O468 Pr440 2.436 . S
O468 Pr441 2.695 . S
O468 C458 1.270 . S
O469 Pr441 2.512 . S
O469 C458 1.248 . S
O470 Pr440 2.438 . S
O470 C459 1.267 . S
O471 Pr441 2.437 . S
O471 C459 1.278 . S
H472 C444 0.929 . S
H473 C445 0.929 . S
H474 C447 0.931 . S
H475 C448 0.930 . S
H476 C453 0.929 . S
H477 C454 0.929 . S
H478 C456 0.931 . S
H479 C457 0.930 . S
H480 C488 0.929 . S
H481 C490 0.930 . S
H482 C492 0.930 . S
H483 C495 0.929 . S
H484 C498 0.930 . S
H485 C500 0.960 . S
H486 C500 0.960 . S
H487 C500 0.960 . S
C488 H480 0.929 . S
C488 C489 1.377 . S
C488 C490 1.384 . S
C489 C488 1.377 . S
C489 C495 1.390 . S
C490 H481 0.930 . S
C490 C488 1.384 . S
C490 C491 1.372 . S
C491 C490 1.372 . S
C491 C492 1.400 . S
C491 C496 1.490 . S
C492 H482 0.930 . S
C492 C491 1.400 . S
C492 C495 1.386 . S
H493 C509 0.930 . S
H494 C510 0.931 . S
C495 H483 0.929 . S
C495 C489 1.390 . S
C495 C492 1.386 . S
C496 C491 1.490 . S
C496 C498 1.395 . S
C496 C499 1.403 . S
H497 C503 0.930 . S
C498 H484 0.930 . S
C498 C496 1.395 . S
C498 C501 1.403 . S
C499 C496 1.403 . S
C499 C500 1.524 . S
C499 C503 1.400 . S
C500 H485 0.960 . S
C500 H486 0.960 . S
C500 H487 0.960 . S
C500 C499 1.524 . S
C501 C498 1.403 . S
C501 C502 1.392 . S
C501 C505 1.495 . S
C502 C501 1.392 . S
C502 C503 1.385 . S
C502 C504 1.478 . S
C503 H497 0.930 . S
C503 C499 1.400 . S
C503 C502 1.385 . S
C504 C502 1.478 . S
C504 C506 1.381 . S
C504 C510 1.383 . S
C505 C501 1.495 . S
C505 H511 0.959 . S
C505 H512 0.961 . S
C505 H513 0.960 . S
C506 C504 1.381 . S
C506 C507 1.394 . S
C506 H514 0.930 . S
C507 C506 1.394 . S
C507 C508 1.383 . S
C507 H515 0.929 . S
C508 C507 1.383 . S
C508 C509 1.377 . S
C509 H493 0.930 . S
C509 C508 1.377 . S
C509 C510 1.379 . S
C510 H494 0.931 . S
C510 C504 1.383 . S
C510 C509 1.379 . S
H511 C505 0.959 . S
H512 C505 0.961 . S
H513 C505 0.960 . S
H514 C506 0.930 . S
H515 C507 0.929 . S
H516 C524 0.929 1_545 S
H517 C526 0.930 . S
H518 C528 0.930 . S
H519 C531 0.929 . S
H520 C534 0.930 . S
H521 C536 0.960 . S
H522 C536 0.960 . S
H523 C536 0.960 . S
C524 H516 0.929 1_565 S
C524 C525 1.377 . S
C524 C526 1.384 . S
C525 C524 1.377 . S
C525 C531 1.390 . S
C526 H517 0.930 . S
C526 C524 1.384 . S
C526 C527 1.372 . S
C527 C526 1.372 . S
C527 C528 1.400 . S
C527 C532 1.490 . S
C528 H518 0.930 . S
C528 C527 1.400 . S
C528 C531 1.386 . S
H529 C545 0.930 . S
H530 C546 0.931 . S
C531 H519 0.929 . S
C531 C525 1.390 . S
C531 C528 1.386 . S
C532 C527 1.490 . S
C532 C534 1.395 . S
C532 C535 1.403 . S
H533 C539 0.930 . S
C534 H520 0.930 . S
C534 C532 1.395 . S
C534 C537 1.403 . S
C535 C532 1.403 . S
C535 C536 1.524 . S
C535 C539 1.400 . S
C536 H521 0.960 . S
C536 H522 0.960 . S
C536 H523 0.960 . S
C536 C535 1.524 . S
C537 C534 1.403 . S
C537 C538 1.392 . S
C537 C541 1.495 . S
C538 C537 1.392 . S
C538 C539 1.385 . S
C538 C540 1.478 . S
C539 H533 0.930 . S
C539 C535 1.400 . S
C539 C538 1.385 . S
C540 C538 1.478 . S
C540 C542 1.381 . S
C540 C546 1.383 . S
C541 C537 1.495 . S
C541 H547 0.959 . S
C541 H548 0.961 . S
C541 H549 0.960 . S
C542 C540 1.381 . S
C542 C543 1.394 . S
C542 H550 0.930 . S
C543 C542 1.394 . S
C543 C544 1.383 . S
C543 H551 0.929 . S
C544 C543 1.383 . S
C544 C545 1.377 . S
C545 H529 0.930 . S
C545 C544 1.377 . S
C545 C546 1.379 . S
C546 H530 0.931 . S
C546 C540 1.383 . S
C546 C545 1.379 . S
H547 C541 0.959 . S
H548 C541 0.961 . S
H549 C541 0.960 . S
H550 C542 0.930 . S
H551 C543 0.929 . S
H552 C560 0.929 . S
H553 C562 0.930 . S
H554 C564 0.930 . S
H555 C567 0.929 . S
H556 C570 0.930 . S
H557 C572 0.960 . S
H558 C572 0.960 . S
H559 C572 0.960 . S
C560 H552 0.929 . S
C560 C561 1.377 . S
C560 C562 1.384 . S
C561 C560 1.377 . S
C561 C567 1.390 . S
C562 H553 0.930 . S
C562 C560 1.384 . S
C562 C563 1.372 . S
C563 C562 1.372 . S
C563 C564 1.400 . S
C563 C568 1.490 . S
C564 H554 0.930 . S
C564 C563 1.400 . S
C564 C567 1.386 . S
H565 C581 0.930 . S
H566 C582 0.931 . S
C567 H555 0.929 . S
C567 C561 1.390 . S
C567 C564 1.386 . S
C568 C563 1.490 . S
C568 C570 1.395 . S
C568 C571 1.403 . S
H569 C575 0.930 . S
C570 H556 0.930 . S
C570 C568 1.395 . S
C570 C573 1.403 . S
C571 C568 1.403 . S
C571 C572 1.524 . S
C571 C575 1.400 . S
C572 H557 0.960 . S
C572 H558 0.960 . S
C572 H559 0.960 . S
C572 C571 1.524 . S
C573 C570 1.403 . S
C573 C574 1.392 . S
C573 C577 1.495 . S
C574 C573 1.392 . S
C574 C575 1.385 . S
C574 C576 1.478 . S
C575 H569 0.930 . S
C575 C571 1.400 . S
C575 C574 1.385 . S
C576 C574 1.478 . S
C576 C578 1.381 . S
C576 C582 1.383 . S
C577 C573 1.495 . S
C577 H583 0.959 1_554 S
C577 H584 0.961 . S
C577 H585 0.960 . S
C578 C576 1.381 . S
C578 C579 1.394 . S
C578 H586 0.930 . S
C579 C578 1.394 . S
C579 C580 1.383 . S
C579 H587 0.929 . S
C580 C579 1.383 . S
C580 C581 1.377 . S
C581 H565 0.930 . S
C581 C580 1.377 . S
C581 C582 1.379 . S
C582 H566 0.931 . S
C582 C576 1.383 . S
C582 C581 1.379 . S
H583 C577 0.959 1_556 S
H584 C577 0.961 . S
H585 C577 0.960 . S
H586 C578 0.930 . S
H587 C579 0.929 . S
H588 C596 0.929 . S
H589 C598 0.930 . S
H590 C600 0.930 . S
H591 C603 0.929 . S
H592 C606 0.930 . S
H593 C608 0.960 . S
H594 C608 0.960 . S
H595 C608 0.960 . S
C596 H588 0.929 . S
C596 C597 1.377 . S
C596 C598 1.384 . S
C597 C596 1.377 . S
C597 C603 1.390 . S
C598 H589 0.930 . S
C598 C596 1.384 . S
C598 C599 1.372 . S
C599 C598 1.372 . S
C599 C600 1.400 . S
C599 C604 1.490 . S
C600 H590 0.930 . S
C600 C599 1.400 . S
C600 C603 1.386 . S
H601 C617 0.930 . S
H602 C618 0.931 . S
C603 H591 0.929 . S
C603 C597 1.390 . S
C603 C600 1.386 . S
C604 C599 1.490 . S
C604 C606 1.395 . S
C604 C607 1.403 . S
H605 C611 0.930 . S
C606 H592 0.930 . S
C606 C604 1.395 . S
C606 C609 1.403 . S
C607 C604 1.403 . S
C607 C608 1.524 . S
C607 C611 1.400 . S
C608 H593 0.960 . S
C608 H594 0.960 . S
C608 H595 0.960 . S
C608 C607 1.524 . S
C609 C606 1.403 . S
C609 C610 1.392 . S
C609 C613 1.495 . S
C610 C609 1.392 . S
C610 C611 1.385 . S
C610 C612 1.478 . S
C611 H605 0.930 . S
C611 C607 1.400 . S
C611 C610 1.385 . S
C612 C610 1.478 . S
C612 C614 1.381 . S
C612 C618 1.383 . S
C613 C609 1.495 . S
C613 H619 0.959 . S
C613 H620 0.961 . S
C613 H621 0.960 . S
C614 C612 1.381 . S
C614 C615 1.394 . S
C614 H622 0.930 . S
C615 C614 1.394 . S
C615 C616 1.383 . S
C615 H623 0.929 1_545 S
C616 C615 1.383 . S
C616 C617 1.377 . S
C617 H601 0.930 . S
C617 C616 1.377 . S
C617 C618 1.379 . S
C618 H602 0.931 . S
C618 C612 1.383 . S
C618 C617 1.379 . S
H619 C613 0.959 . S
H620 C613 0.961 . S
H621 C613 0.960 . S
H622 C614 0.930 . S
H623 C615 0.929 1_565 S
H624 C632 0.929 . S
H625 C634 0.930 . S
H626 C636 0.930 . S
H627 C639 0.929 . S
H628 C642 0.930 . S
H629 C644 0.960 . S
H630 C644 0.960 . S
H631 C644 0.960 . S
C632 H624 0.929 . S
C632 C633 1.377 . S
C632 C634 1.384 . S
C633 C632 1.377 . S
C633 C639 1.390 . S
C634 H625 0.930 . S
C634 C632 1.384 . S
C634 C635 1.372 . S
C635 C634 1.372 . S
C635 C636 1.400 . S
C635 C640 1.490 . S
C636 H626 0.930 . S
C636 C635 1.400 . S
C636 C639 1.386 . S
H637 C653 0.930 . S
H638 C654 0.931 . S
C639 H627 0.929 . S
C639 C633 1.390 . S
C639 C636 1.386 . S
C640 C635 1.490 . S
C640 C642 1.395 . S
C640 C643 1.403 . S
H641 C647 0.930 . S
C642 H628 0.930 . S
C642 C640 1.395 . S
C642 C645 1.403 . S
C643 C640 1.403 . S
C643 C644 1.524 . S
C643 C647 1.400 . S
C644 H629 0.960 . S
C644 H630 0.960 . S
C644 H631 0.960 . S
C644 C643 1.524 . S
C645 C642 1.403 . S
C645 C646 1.392 . S
C645 C649 1.495 . S
C646 C645 1.392 . S
C646 C647 1.385 . S
C646 C648 1.478 . S
C647 H641 0.930 . S
C647 C643 1.400 . S
C647 C646 1.385 . S
C648 C646 1.478 . S
C648 C650 1.381 . S
C648 C654 1.383 . S
C649 C645 1.495 . S
C649 H655 0.959 . S
C649 H656 0.961 . S
C649 H657 0.960 . S
C650 C648 1.381 . S
C650 C651 1.394 . S
C650 H658 0.930 . S
C651 C650 1.394 . S
C651 C652 1.383 . S
C651 H659 0.929 . S
C652 C651 1.383 . S
C652 C653 1.377 . S
C653 H637 0.930 . S
C653 C652 1.377 . S
C653 C654 1.379 . S
C654 H638 0.931 . S
C654 C648 1.383 . S
C654 C653 1.379 . S
H655 C649 0.959 . S
H656 C649 0.961 . S
H657 C649 0.960 . S
H658 C650 0.930 . S
H659 C651 0.929 . S
H660 C668 0.929 . S
H661 C670 0.930 . S
H662 C672 0.930 . S
H663 C675 0.929 . S
H664 C678 0.930 . S
H665 C680 0.960 . S
H666 C680 0.960 . S
H667 C680 0.960 . S
C668 H660 0.929 . S
C668 C669 1.377 . S
C668 C670 1.384 . S
C669 C668 1.377 . S
C669 C675 1.390 . S
C670 H661 0.930 . S
C670 C668 1.384 . S
C670 C671 1.372 . S
C671 C670 1.372 . S
C671 C672 1.400 . S
C671 C676 1.490 . S
C672 H662 0.930 . S
C672 C671 1.400 . S
C672 C675 1.386 . S
H673 C689 0.930 . S
H674 C690 0.931 . S
C675 H663 0.929 . S
C675 C669 1.390 . S
C675 C672 1.386 . S
C676 C671 1.490 . S
C676 C678 1.395 . S
C676 C679 1.403 . S
H677 C683 0.930 . S
C678 H664 0.930 . S
C678 C676 1.395 . S
C678 C681 1.403 . S
C679 C676 1.403 . S
C679 C680 1.524 . S
C679 C683 1.400 . S
C680 H665 0.960 . S
C680 H666 0.960 . S
C680 H667 0.960 . S
C680 C679 1.524 . S
C681 C678 1.403 . S
C681 C682 1.392 . S
C681 C685 1.495 . S
C682 C681 1.392 . S
C682 C683 1.385 . S
C682 C684 1.478 . S
C683 H677 0.930 . S
C683 C679 1.400 . S
C683 C682 1.385 . S
C684 C682 1.478 . S
C684 C686 1.381 . S
C684 C690 1.383 . S
C685 C681 1.495 . S
C685 H691 0.959 . S
C685 H692 0.961 . S
C685 H693 0.960 . S
C686 C684 1.381 . S
C686 C687 1.394 . S
C686 H694 0.930 . S
C687 C686 1.394 . S
C687 C688 1.383 . S
C687 H695 0.929 . S
C688 C687 1.383 . S
C688 C689 1.377 . S
C689 H673 0.930 . S
C689 C688 1.377 . S
C689 C690 1.379 . S
C690 H674 0.931 . S
C690 C684 1.383 . S
C690 C689 1.379 . S
H691 C685 0.959 . S
H692 C685 0.961 . S
H693 C685 0.960 . S
H694 C686 0.930 . S
H695 C687 0.929 . S
H696 C704 0.929 . S
H697 C706 0.930 . S
H698 C708 0.930 . S
H699 C711 0.929 . S
H700 C714 0.930 . S
H701 C716 0.960 . S
H702 C716 0.960 . S
H703 C716 0.960 . S
C704 H696 0.929 . S
C704 C705 1.377 . S
C704 C706 1.384 . S
C705 C704 1.377 . S
C705 C711 1.390 . S
C706 H697 0.930 . S
C706 C704 1.384 . S
C706 C707 1.372 . S
C707 C706 1.372 . S
C707 C708 1.400 . S
C707 C712 1.490 . S
C708 H698 0.930 . S
C708 C707 1.400 . S
C708 C711 1.386 . S
H709 C725 0.930 . S
H710 C726 0.931 . S
C711 H699 0.929 . S
C711 C705 1.390 . S
C711 C708 1.386 . S
C712 C707 1.490 . S
C712 C714 1.395 . S
C712 C715 1.403 . S
H713 C719 0.930 . S
C714 H700 0.930 . S
C714 C712 1.395 . S
C714 C717 1.403 . S
C715 C712 1.403 . S
C715 C716 1.524 . S
C715 C719 1.400 . S
C716 H701 0.960 . S
C716 H702 0.960 . S
C716 H703 0.960 . S
C716 C715 1.524 . S
C717 C714 1.403 . S
C717 C718 1.392 . S
C717 C721 1.495 . S
C718 C717 1.392 . S
C718 C719 1.385 . S
C718 C720 1.478 . S
C719 H713 0.930 . S
C719 C715 1.400 . S
C719 C718 1.385 . S
C720 C718 1.478 . S
C720 C722 1.381 . S
C720 C726 1.383 . S
C721 C717 1.495 . S
C721 H727 0.959 . S
C721 H728 0.961 . S
C721 H729 0.960 . S
C722 C720 1.381 . S
C722 C723 1.394 . S
C722 H730 0.930 . S
C723 C722 1.394 . S
C723 C724 1.383 . S
C723 H731 0.929 . S
C724 C723 1.383 . S
C724 C725 1.377 . S
C725 H709 0.930 . S
C725 C724 1.377 . S
C725 C726 1.379 . S
C726 H710 0.931 . S
C726 C720 1.383 . S
C726 C725 1.379 . S
H727 C721 0.959 . S
H728 C721 0.961 . S
H729 C721 0.960 . S
H730 C722 0.930 . S
H731 C723 0.929 . S
H732 C740 0.929 . S
H733 C742 0.930 . S
H734 C744 0.930 . S
H735 C747 0.929 . S
H736 C750 0.930 . S
H737 C752 0.960 . S
H738 C752 0.960 . S
H739 C752 0.960 . S
C740 H732 0.929 . S
C740 C741 1.377 . S
C740 C742 1.384 . S
C741 C740 1.377 . S
C741 C747 1.390 . S
C742 H733 0.930 . S
C742 C740 1.384 . S
C742 C743 1.372 . S
C743 C742 1.372 . S
C743 C744 1.400 . S
C743 C748 1.490 . S
C744 H734 0.930 . S
C744 C743 1.400 . S
C744 C747 1.386 . S
H745 C761 0.930 . S
H746 C762 0.931 . S
C747 H735 0.929 . S
C747 C741 1.390 . S
C747 C744 1.386 . S
C748 C743 1.490 . S
C748 C750 1.395 . S
C748 C751 1.403 . S
H749 C755 0.930 . S
C750 H736 0.930 . S
C750 C748 1.395 . S
C750 C753 1.403 . S
C751 C748 1.403 . S
C751 C752 1.524 . S
C751 C755 1.400 . S
C752 H737 0.960 . S
C752 H738 0.960 . S
C752 H739 0.960 . S
C752 C751 1.524 . S
C753 C750 1.403 . S
C753 C754 1.392 . S
C753 C757 1.495 . S
C754 C753 1.392 . S
C754 C755 1.385 . S
C754 C756 1.478 . S
C755 H749 0.930 . S
C755 C751 1.400 . S
C755 C754 1.385 . S
C756 C754 1.478 . S
C756 C758 1.381 . S
C756 C762 1.383 . S
C757 C753 1.495 . S
C757 H763 0.959 . S
C757 H764 0.961 . S
C757 H765 0.960 . S
C758 C756 1.381 . S
C758 C759 1.394 . S
C758 H766 0.930 . S
C759 C758 1.394 . S
C759 C760 1.383 . S
C759 H767 0.929 . S
C760 C759 1.383 . S
C760 C761 1.377 . S
C761 H745 0.930 . S
C761 C760 1.377 . S
C761 C762 1.379 . S
C762 H746 0.931 . S
C762 C756 1.383 . S
C762 C761 1.379 . S
H763 C757 0.959 . S
H764 C757 0.961 . S
H765 C757 0.960 . S
H766 C758 0.930 . S
H767 C759 0.929 . S
H768 C776 0.929 . S
H769 C778 0.930 . S
H770 C780 0.930 . S
H771 C783 0.929 . S
H772 C786 0.930 . S
H773 C788 0.960 . S
H774 C788 0.960 . S
H775 C788 0.960 . S
C776 H768 0.929 . S
C776 C777 1.377 . S
C776 C778 1.384 . S
C777 C776 1.377 . S
C777 C783 1.390 . S
C778 H769 0.930 . S
C778 C776 1.384 . S
C778 C779 1.372 . S
C779 C778 1.372 . S
C779 C780 1.400 . S
C779 C784 1.490 . S
C780 H770 0.930 . S
C780 C779 1.400 . S
C780 C783 1.386 . S
H781 C797 0.930 . S
H782 C798 0.931 . S
C783 H771 0.929 . S
C783 C777 1.390 . S
C783 C780 1.386 . S
C784 C779 1.490 . S
C784 C786 1.395 . S
C784 C787 1.403 . S
H785 C791 0.930 . S
C786 H772 0.930 . S
C786 C784 1.395 . S
C786 C789 1.403 . S
C787 C784 1.403 . S
C787 C788 1.524 . S
C787 C791 1.400 . S
C788 H773 0.960 . S
C788 H774 0.960 . S
C788 H775 0.960 . S
C788 C787 1.524 . S
C789 C786 1.403 . S
C789 C790 1.392 . S
C789 C793 1.495 . S
C790 C789 1.392 . S
C790 C791 1.385 . S
C790 C792 1.478 . S
C791 H785 0.930 . S
C791 C787 1.400 . S
C791 C790 1.385 . S
C792 C790 1.478 . S
C792 C794 1.381 . S
C792 C798 1.383 . S
C793 C789 1.495 . S
C793 H799 0.959 . S
C793 H800 0.961 . S
C793 H801 0.960 . S
C794 C792 1.381 . S
C794 C795 1.394 . S
C794 H802 0.930 . S
C795 C794 1.394 . S
C795 C796 1.383 . S
C795 H803 0.929 . S
C796 C795 1.383 . S
C796 C797 1.377 . S
C797 H781 0.930 . S
C797 C796 1.377 . S
C797 C798 1.379 . S
C798 H782 0.931 . S
C798 C792 1.383 . S
C798 C797 1.379 . S
H799 C793 0.959 . S
H800 C793 0.961 . S
H801 C793 0.960 . S
H802 C794 0.930 . S
H803 C795 0.929 . S
H804 C812 0.929 . S
H805 C814 0.930 . S
H806 C816 0.930 . S
H807 C819 0.929 . S
H808 C822 0.930 . S
H809 C824 0.960 1_655 S
H810 C824 0.960 . S
H811 C824 0.960 . S
C812 H804 0.929 . S
C812 C813 1.377 . S
C812 C814 1.384 . S
C813 C812 1.377 . S
C813 C819 1.390 . S
C814 H805 0.930 . S
C814 C812 1.384 . S
C814 C815 1.372 . S
C815 C814 1.372 . S
C815 C816 1.400 . S
C815 C820 1.490 . S
C816 H806 0.930 . S
C816 C815 1.400 . S
C816 C819 1.386 . S
H817 C833 0.930 1_655 S
H818 C834 0.931 . S
C819 H807 0.929 . S
C819 C813 1.390 . S
C819 C816 1.386 . S
C820 C815 1.490 . S
C820 C822 1.395 . S
C820 C823 1.403 . S
H821 C827 0.930 . S
C822 H808 0.930 . S
C822 C820 1.395 . S
C822 C825 1.403 . S
C823 C820 1.403 . S
C823 C824 1.524 . S
C823 C827 1.400 . S
C824 H809 0.960 1_455 S
C824 H810 0.960 . S
C824 H811 0.960 . S
C824 C823 1.524 . S
C825 C822 1.403 . S
C825 C826 1.392 . S
C825 C829 1.495 . S
C826 C825 1.392 . S
C826 C827 1.385 . S
C826 C828 1.478 . S
C827 H821 0.930 . S
C827 C823 1.400 . S
C827 C826 1.385 . S
C828 C826 1.478 . S
C828 C830 1.381 . S
C828 C834 1.383 . S
C829 C825 1.495 . S
C829 H835 0.959 . S
C829 H836 0.961 . S
C829 H837 0.960 . S
C830 C828 1.381 . S
C830 C831 1.394 . S
C830 H838 0.930 . S
C831 C830 1.394 . S
C831 C832 1.383 . S
C831 H839 0.929 . S
C832 C831 1.383 . S
C832 C833 1.377 . S
C833 H817 0.930 1_455 S
C833 C832 1.377 . S
C833 C834 1.379 . S
C834 H818 0.931 . S
C834 C828 1.383 . S
C834 C833 1.379 . S
H835 C829 0.959 . S
H836 C829 0.961 . S
H837 C829 0.960 . S
H838 C830 0.930 . S
H839 C831 0.929 . S
H840 C848 0.929 . S
H841 C850 0.930 1_455 S
H842 C852 0.930 . S
H843 C855 0.929 . S
H844 C858 0.930 . S
H845 C860 0.960 . S
H846 C860 0.960 . S
H847 C860 0.960 . S
C848 H840 0.929 . S
C848 C849 1.377 1_455 S
C848 C850 1.384 1_455 S
C849 C848 1.377 1_655 S
C849 C855 1.390 . S
C850 H841 0.930 1_655 S
C850 C848 1.384 1_655 S
C850 C851 1.372 . S
C851 C850 1.372 . S
C851 C852 1.400 . S
C851 C856 1.490 . S
C852 H842 0.930 . S
C852 C851 1.400 . S
C852 C855 1.386 . S
H853 C869 0.930 . S
H854 C870 0.931 . S
C855 H843 0.929 . S
C855 C849 1.390 . S
C855 C852 1.386 . S
C856 C851 1.490 . S
C856 C858 1.395 . S
C856 C859 1.403 . S
H857 C863 0.930 . S
C858 H844 0.930 . S
C858 C856 1.395 . S
C858 C861 1.403 . S
C859 C856 1.403 . S
C859 C860 1.524 . S
C859 C863 1.400 . S
C860 H845 0.960 . S
C860 H846 0.960 . S
C860 H847 0.960 . S
C860 C859 1.524 . S
C861 C858 1.403 . S
C861 C862 1.392 . S
C861 C865 1.495 . S
C862 C861 1.392 . S
C862 C863 1.385 . S
C862 C864 1.478 . S
C863 H857 0.930 . S
C863 C859 1.400 . S
C863 C862 1.385 . S
C864 C862 1.478 . S
C864 C866 1.381 . S
C864 C870 1.383 . S
C865 C861 1.495 . S
C865 H871 0.959 . S
C865 H872 0.961 . S
C865 H873 0.960 . S
C866 C864 1.381 . S
C866 C867 1.394 . S
C866 H874 0.930 . S
C867 C866 1.394 . S
C867 C868 1.383 . S
C867 H875 0.929 . S
C868 C867 1.383 . S
C868 C869 1.377 . S
C869 H853 0.930 . S
C869 C868 1.377 . S
C869 C870 1.379 . S
C870 H854 0.931 . S
C870 C864 1.383 . S
C870 C869 1.379 . S
H871 C865 0.959 . S
H872 C865 0.961 . S
H873 C865 0.960 . S
H874 C866 0.930 . S
H875 C867 0.929 . S
H876 C884 0.929 . S
H877 C886 0.930 . S
H878 C888 0.930 . S
H879 C891 0.929 . S
H880 C894 0.930 . S
H881 C896 0.960 . S
H882 C896 0.960 . S
H883 C896 0.960 . S
C884 H876 0.929 . S
C884 C885 1.377 . S
C884 C886 1.384 . S
C885 C884 1.377 . S
C885 C891 1.390 . S
C886 H877 0.930 . S
C886 C884 1.384 . S
C886 C887 1.372 . S
C887 C886 1.372 . S
C887 C888 1.400 . S
C887 C892 1.490 . S
C888 H878 0.930 . S
C888 C887 1.400 . S
C888 C891 1.386 . S
H889 C905 0.930 . S
H890 C906 0.931 . S
C891 H879 0.929 . S
C891 C885 1.390 . S
C891 C888 1.386 . S
C892 C887 1.490 . S
C892 C894 1.395 . S
C892 C895 1.403 . S
H893 C899 0.930 . S
C894 H880 0.930 . S
C894 C892 1.395 . S
C894 C897 1.403 . S
C895 C892 1.403 . S
C895 C896 1.524 . S
C895 C899 1.400 . S
C896 H881 0.960 . S
C896 H882 0.960 . S
C896 H883 0.960 . S
C896 C895 1.524 . S
C897 C894 1.403 . S
C897 C898 1.392 . S
C897 C901 1.495 . S
C898 C897 1.392 . S
C898 C899 1.385 . S
C898 C900 1.478 . S
C899 H893 0.930 . S
C899 C895 1.400 . S
C899 C898 1.385 . S
C900 C898 1.478 . S
C900 C902 1.381 . S
C900 C906 1.383 . S
C901 C897 1.495 . S
C901 H907 0.959 . S
C901 H908 0.961 . S
C901 H909 0.960 . S
C902 C900 1.381 . S
C902 C903 1.394 . S
C902 H910 0.930 . S
C903 C902 1.394 . S
C903 C904 1.383 . S
C903 H911 0.929 . S
C904 C903 1.383 . S
C904 C905 1.377 . S
C905 H889 0.930 . S
C905 C904 1.377 . S
C905 C906 1.379 . S
C906 H890 0.931 . S
C906 C900 1.383 . S
C906 C905 1.379 . S
H907 C901 0.959 . S
H908 C901 0.961 . S
H909 C901 0.960 . S
H910 C902 0.930 . S
H911 C903 0.929 . S
H912 C920 0.929 . S
H913 C922 0.930 . S
H914 C924 0.930 . S
H915 C927 0.929 . S
H916 C930 0.930 . S
H917 C932 0.960 . S
H918 C932 0.960 . S
H919 C932 0.960 . S
C920 H912 0.929 . S
C920 C921 1.377 . S
C920 C922 1.384 . S
C921 C920 1.377 . S
C921 C927 1.390 . S
C922 H913 0.930 . S
C922 C920 1.384 . S
C922 C923 1.372 . S
C923 C922 1.372 . S
C923 C924 1.400 . S
C923 C928 1.490 . S
C924 H914 0.930 . S
C924 C923 1.400 . S
C924 C927 1.386 . S
H925 C941 0.930 . S
H926 C942 0.931 . S
C927 H915 0.929 . S
C927 C921 1.390 . S
C927 C924 1.386 . S
C928 C923 1.490 . S
C928 C930 1.395 . S
C928 C931 1.403 . S
H929 C935 0.930 . S
C930 H916 0.930 . S
C930 C928 1.395 . S
C930 C933 1.403 . S
C931 C928 1.403 . S
C931 C932 1.524 . S
C931 C935 1.400 . S
C932 H917 0.960 . S
C932 H918 0.960 . S
C932 H919 0.960 . S
C932 C931 1.524 . S
C933 C930 1.403 . S
C933 C934 1.392 . S
C933 C937 1.495 . S
C934 C933 1.392 . S
C934 C935 1.385 . S
C934 C936 1.478 . S
C935 H929 0.930 . S
C935 C931 1.400 . S
C935 C934 1.385 . S
C936 C934 1.478 . S
C936 C938 1.381 . S
C936 C942 1.383 . S
C937 C933 1.495 . S
C937 H943 0.959 . S
C937 H944 0.961 . S
C937 H945 0.960 . S
C938 C936 1.381 . S
C938 C939 1.394 . S
C938 H946 0.930 . S
C939 C938 1.394 . S
C939 C940 1.383 . S
C939 H947 0.929 . S
C940 C939 1.383 . S
C940 C941 1.377 . S
C941 H925 0.930 . S
C941 C940 1.377 . S
C941 C942 1.379 . S
C942 H926 0.931 . S
C942 C936 1.383 . S
C942 C941 1.379 . S
H943 C937 0.959 . S
H944 C937 0.961 . S
H945 C937 0.960 . S
H946 C938 0.930 . S
H947 C939 0.929 . S
H948 C956 0.929 . S
H949 C958 0.930 . S
H950 C960 0.930 . S
H951 C963 0.929 . S
H952 C966 0.930 . S
H953 C968 0.960 . S
H954 C968 0.960 . S
H955 C968 0.960 . S
C956 H948 0.929 . S
C956 C957 1.377 . S
C956 C958 1.384 . S
C957 C956 1.377 . S
C957 C963 1.390 . S
C958 H949 0.930 . S
C958 C956 1.384 . S
C958 C959 1.372 . S
C959 C958 1.372 . S
C959 C960 1.400 . S
C959 C964 1.490 . S
C960 H950 0.930 . S
C960 C959 1.400 . S
C960 C963 1.386 . S
H961 C977 0.930 . S
H962 C978 0.931 . S
C963 H951 0.929 . S
C963 C957 1.390 . S
C963 C960 1.386 . S
C964 C959 1.490 . S
C964 C966 1.395 . S
C964 C967 1.403 . S
H965 C971 0.930 . S
C966 H952 0.930 . S
C966 C964 1.395 . S
C966 C969 1.403 . S
C967 C964 1.403 . S
C967 C968 1.524 . S
C967 C971 1.400 . S
C968 H953 0.960 . S
C968 H954 0.960 . S
C968 H955 0.960 . S
C968 C967 1.524 . S
C969 C966 1.403 . S
C969 C970 1.392 . S
C969 C973 1.495 . S
C970 C969 1.392 . S
C970 C971 1.385 . S
C970 C972 1.478 . S
C971 H965 0.930 . S
C971 C967 1.400 . S
C971 C970 1.385 . S
C972 C970 1.478 . S
C972 C974 1.381 . S
C972 C978 1.383 . S
C973 C969 1.495 . S
C973 H979 0.959 1_565 S
C973 H980 0.961 1_565 S
C973 H981 0.960 . S
C974 C972 1.381 . S
C974 C975 1.394 . S
C974 H982 0.930 . S
C975 C974 1.394 . S
C975 C976 1.383 . S
C975 H983 0.929 . S
C976 C975 1.383 . S
C976 C977 1.377 . S
C977 H961 0.930 . S
C977 C976 1.377 . S
C977 C978 1.379 . S
C978 H962 0.931 . S
C978 C972 1.383 . S
C978 C977 1.379 . S
H979 C973 0.959 1_545 S
H980 C973 0.961 1_545 S
H981 C973 0.960 . S
H982 C974 0.930 . S
H983 C975 0.929 . S
H984 C992 0.929 . S
H985 C994 0.930 . S
H986 C996 0.930 . S
H987 C999 0.929 . S
H988 C1002 0.930 . S
H989 C1004 0.960 . S
H990 C1004 0.960 . S
H991 C1004 0.960 . S
C992 H984 0.929 . S
C992 C993 1.377 . S
C992 C994 1.384 . S
C993 C992 1.377 . S
C993 C999 1.390 . S
C994 H985 0.930 . S
C994 C992 1.384 . S
C994 C995 1.372 . S
C995 C994 1.372 . S
C995 C996 1.400 . S
C995 C1000 1.490 . S
C996 H986 0.930 . S
C996 C995 1.400 . S
C996 C999 1.386 . S
H997 C1013 0.930 . S
H998 C1014 0.931 . S
C999 H987 0.929 . S
C999 C993 1.390 . S
C999 C996 1.386 . S
C1000 C995 1.490 . S
C1000 C1002 1.395 . S
C1000 C1003 1.403 . S
H1001 C1007 0.930 . S
C1002 H988 0.930 . S
C1002 C1000 1.395 . S
C1002 C1005 1.403 . S
C1003 C1000 1.403 . S
C1003 C1004 1.524 . S
C1003 C1007 1.400 . S
C1004 H989 0.960 . S
C1004 H990 0.960 . S
C1004 H991 0.960 . S
C1004 C1003 1.524 . S
C1005 C1002 1.403 . S
C1005 C1006 1.392 . S
C1005 C1009 1.495 . S
C1006 C1005 1.392 . S
C1006 C1007 1.385 . S
C1006 C1008 1.478 . S
C1007 H1001 0.930 . S
C1007 C1003 1.400 . S
C1007 C1006 1.385 . S
C1008 C1006 1.478 . S
C1008 C1010 1.381 . S
C1008 C1014 1.383 . S
C1009 C1005 1.495 . S
C1009 H1015 0.959 . S
C1009 H1016 0.961 . S
C1009 H1017 0.960 . S
C1010 C1008 1.381 . S
C1010 C1011 1.394 . S
C1010 H1018 0.930 . S
C1011 C1010 1.394 . S
C1011 C1012 1.383 . S
C1011 H1019 0.929 . S
C1012 C1011 1.383 . S
C1012 C1013 1.377 . S
C1013 H997 0.930 . S
C1013 C1012 1.377 . S
C1013 C1014 1.379 . S
C1014 H998 0.931 . S
C1014 C1008 1.383 . S
C1014 C1013 1.379 . S
H1015 C1009 0.959 . S
H1016 C1009 0.961 . S
H1017 C1009 0.960 . S
H1018 C1010 0.930 . S
H1019 C1011 0.929 . S
H1020 C1028 0.929 . S
H1021 C1030 0.930 . S
H1022 C1032 0.930 . S
H1023 C1035 0.929 . S
H1024 C1038 0.930 . S
H1025 C1040 0.960 . S
H1026 C1040 0.960 . S
H1027 C1040 0.960 . S
C1028 H1020 0.929 . S
C1028 C1029 1.377 . S
C1028 C1030 1.384 . S
C1029 C1028 1.377 . S
C1029 C1035 1.390 . S
C1030 H1021 0.930 . S
C1030 C1028 1.384 . S
C1030 C1031 1.372 . S
C1031 C1030 1.372 . S
C1031 C1032 1.400 . S
C1031 C1036 1.464 1_554 S
C1032 H1022 0.930 . S
C1032 C1031 1.400 . S
C1032 C1035 1.386 . S
H1033 C1049 0.930 . S
H1034 C1050 0.931 . S
C1035 H1023 0.929 . S
C1035 C1029 1.390 . S
C1035 C1032 1.386 . S
C1036 C1031 1.464 1_556 S
C1036 C1038 1.418 . S
C1036 C1039 1.406 . S
H1037 C1043 0.930 . S
C1038 H1024 0.930 . S
C1038 C1036 1.418 . S
C1038 C1041 1.403 . S
C1039 C1036 1.406 . S
C1039 C1040 1.524 1_556 S
C1039 C1043 1.400 . S
C1040 H1025 0.960 . S
C1040 H1026 0.960 . S
C1040 H1027 0.960 . S
C1040 C1039 1.524 1_554 S
C1041 C1038 1.403 . S
C1041 C1042 1.392 . S
C1041 C1045 1.495 . S
C1042 C1041 1.392 . S
C1042 C1043 1.385 . S
C1042 C1044 1.478 . S
C1043 H1037 0.930 . S
C1043 C1039 1.400 . S
C1043 C1042 1.385 . S
C1044 C1042 1.478 . S
C1044 C1046 1.381 . S
C1044 C1050 1.383 . S
C1045 C1041 1.495 . S
C1045 H1051 0.959 . S
C1045 H1052 0.961 . S
C1045 H1053 0.960 . S
C1046 C1044 1.381 . S
C1046 C1047 1.394 . S
C1046 H1054 0.930 . S
C1047 C1046 1.394 . S
C1047 C1048 1.383 . S
C1047 H1055 0.929 . S
C1048 C1047 1.383 . S
C1048 C1049 1.377 . S
C1049 H1033 0.930 . S
C1049 C1048 1.377 . S
C1049 C1050 1.379 . S
C1050 H1034 0.931 . S
C1050 C1044 1.383 . S
C1050 C1049 1.379 . S
H1051 C1045 0.959 . S
H1052 C1045 0.961 . S
H1053 C1045 0.960 . S
H1054 C1046 0.930 . S
H1055 C1047 0.929 . S
H1056 C1064 0.929 . S
H1057 C1066 0.930 . S
H1058 C1068 0.930 . S
H1059 C1071 0.929 . S
H1060 C1074 0.930 . S
H1061 C1076 0.960 . S
H1062 C1076 0.960 . S
H1063 C1076 0.960 . S
C1064 H1056 0.929 . S
C1064 C1065 1.377 . S
C1064 C1066 1.384 . S
C1065 C1064 1.377 . S
C1065 C1071 1.390 . S
C1066 H1057 0.930 . S
C1066 C1064 1.384 . S
C1066 C1067 1.372 . S
C1067 C1066 1.372 . S
C1067 C1068 1.400 . S
C1067 C1072 1.490 . S
C1068 H1058 0.930 . S
C1068 C1067 1.400 . S
C1068 C1071 1.386 . S
H1069 C1085 0.930 . S
H1070 C1086 0.931 . S
C1071 H1059 0.929 . S
C1071 C1065 1.390 . S
C1071 C1068 1.386 . S
C1072 C1067 1.490 . S
C1072 C1074 1.395 . S
C1072 C1075 1.403 . S
H1073 C1079 0.930 . S
C1074 H1060 0.930 . S
C1074 C1072 1.395 . S
C1074 C1077 1.403 . S
C1075 C1072 1.403 . S
C1075 C1076 1.524 . S
C1075 C1079 1.400 . S
C1076 H1061 0.960 . S
C1076 H1062 0.960 . S
C1076 H1063 0.960 . S
C1076 C1075 1.524 . S
C1077 C1074 1.403 . S
C1077 C1078 1.392 . S
C1077 C1081 1.495 . S
C1078 C1077 1.392 . S
C1078 C1079 1.385 . S
C1078 C1080 1.478 . S
C1079 H1073 0.930 . S
C1079 C1075 1.400 . S
C1079 C1078 1.385 . S
C1080 C1078 1.478 . S
C1080 C1082 1.381 . S
C1080 C1086 1.383 . S
C1081 C1077 1.495 . S
C1081 H1087 0.959 . S
C1081 H1088 0.961 . S
C1081 H1089 0.960 . S
C1082 C1080 1.381 . S
C1082 C1083 1.394 . S
C1082 H1090 0.930 . S
C1083 C1082 1.394 . S
C1083 C1084 1.383 . S
C1083 H1091 0.929 . S
C1084 C1083 1.383 . S
C1084 C1085 1.377 . S
C1085 H1069 0.930 . S
C1085 C1084 1.377 . S
C1085 C1086 1.379 . S
C1086 H1070 0.931 . S
C1086 C1080 1.383 . S
C1086 C1085 1.379 . S
H1087 C1081 0.959 . S
H1088 C1081 0.961 . S
H1089 C1081 0.960 . S
H1090 C1082 0.930 . S
H1091 C1083 0.929 . S
H1092 C1100 0.929 . S
H1093 C1102 0.930 . S
H1094 C1104 0.930 1_556 S
H1095 C1107 0.929 . S
H1096 C1110 0.930 . S
H1097 C1112 0.960 . S
H1098 C1112 0.960 . S
H1099 C1112 0.960 . S
C1100 H1092 0.929 . S
C1100 C1101 1.377 . S
C1100 C1102 1.384 . S
C1101 C1100 1.377 . S
C1101 C1107 1.390 . S
C1102 H1093 0.930 . S
C1102 C1100 1.384 . S
C1102 C1103 1.372 1_554 S
C1103 C1102 1.372 1_556 S
C1103 C1104 1.400 1_556 S
C1103 C1108 1.490 . S
C1104 H1094 0.930 1_554 S
C1104 C1103 1.400 1_554 S
C1104 C1107 1.386 . S
H1105 C1121 0.930 . S
H1106 C1122 0.931 . S
C1107 H1095 0.929 . S
C1107 C1101 1.390 . S
C1107 C1104 1.386 . S
C1108 C1103 1.490 . S
C1108 C1110 1.395 . S
C1108 C1111 1.403 . S
H1109 C1115 0.930 . S
C1110 H1096 0.930 . S
C1110 C1108 1.395 . S
C1110 C1113 1.403 . S
C1111 C1108 1.403 . S
C1111 C1112 1.524 . S
C1111 C1115 1.400 . S
C1112 H1097 0.960 . S
C1112 H1098 0.960 . S
C1112 H1099 0.960 . S
C1112 C1111 1.524 . S
C1113 C1110 1.403 . S
C1113 C1114 1.392 . S
C1113 C1117 1.495 . S
C1114 C1113 1.392 . S
C1114 C1115 1.385 . S
C1114 C1116 1.478 . S
C1115 H1109 0.930 . S
C1115 C1111 1.400 . S
C1115 C1114 1.385 . S
C1116 C1114 1.478 . S
C1116 C1118 1.381 . S
C1116 C1122 1.383 . S
C1117 C1113 1.495 . S
C1117 H1123 0.959 . S
C1117 H1124 0.961 . S
C1117 H1125 0.960 . S
C1118 C1116 1.381 . S
C1118 C1119 1.394 . S
C1118 H1126 0.930 . S
C1119 C1118 1.394 . S
C1119 C1120 1.383 . S
C1119 H1127 0.929 . S
C1120 C1119 1.383 . S
C1120 C1121 1.377 . S
C1121 H1105 0.930 . S
C1121 C1120 1.377 . S
C1121 C1122 1.379 . S
C1122 H1106 0.931 . S
C1122 C1116 1.383 . S
C1122 C1121 1.379 . S
H1123 C1117 0.959 . S
H1124 C1117 0.961 . S
H1125 C1117 0.960 . S
H1126 C1118 0.930 . S
H1127 C1119 0.929 . S
H1128 C1136 0.929 . S
H1129 C1138 0.930 . S
H1130 C1140 0.930 . S
H1131 C1143 0.929 . S
H1132 C1146 0.930 . S
H1133 C1148 0.960 . S
H1134 C1148 0.960 . S
H1135 C1148 0.960 . S
C1136 H1128 0.929 . S
C1136 C1137 1.377 . S
C1136 C1138 1.384 . S
C1137 C1136 1.377 . S
C1137 C1143 1.390 . S
C1138 H1129 0.930 . S
C1138 C1136 1.384 . S
C1138 C1139 1.372 . S
C1139 C1138 1.372 . S
C1139 C1140 1.400 . S
C1139 C1144 1.490 . S
C1140 H1130 0.930 . S
C1140 C1139 1.400 . S
C1140 C1143 1.386 . S
H1141 C1157 0.930 . S
H1142 C1158 0.931 . S
C1143 H1131 0.929 . S
C1143 C1137 1.390 . S
C1143 C1140 1.386 . S
C1144 C1139 1.490 . S
C1144 C1146 1.395 . S
C1144 C1147 1.403 . S
H1145 C1151 0.930 . S
C1146 H1132 0.930 . S
C1146 C1144 1.395 . S
C1146 C1149 1.403 . S
C1147 C1144 1.403 . S
C1147 C1148 1.524 . S
C1147 C1151 1.400 . S
C1148 H1133 0.960 . S
C1148 H1134 0.960 . S
C1148 H1135 0.960 . S
C1148 C1147 1.524 . S
C1149 C1146 1.403 . S
C1149 C1150 1.392 . S
C1149 C1153 1.495 . S
C1150 C1149 1.392 . S
C1150 C1151 1.385 . S
C1150 C1152 1.478 . S
C1151 H1145 0.930 . S
C1151 C1147 1.400 . S
C1151 C1150 1.385 . S
C1152 C1150 1.478 . S
C1152 C1154 1.381 . S
C1152 C1158 1.383 . S
C1153 C1149 1.495 . S
C1153 H1159 0.959 . S
C1153 H1160 0.961 . S
C1153 H1161 0.960 . S
C1154 C1152 1.381 . S
C1154 C1155 1.394 . S
C1154 H1162 0.930 . S
C1155 C1154 1.394 . S
C1155 C1156 1.383 . S
C1155 H1163 0.929 . S
C1156 C1155 1.383 . S
C1156 C1157 1.377 . S
C1157 H1141 0.930 . S
C1157 C1156 1.377 . S
C1157 C1158 1.379 . S
C1158 H1142 0.931 . S
C1158 C1152 1.383 . S
C1158 C1157 1.379 . S
H1159 C1153 0.959 . S
H1160 C1153 0.961 . S
H1161 C1153 0.960 . S
H1162 C1154 0.930 . S
H1163 C1155 0.929 . S
H1164 C1172 0.929 . S
H1165 C1174 0.930 . S
H1166 C1176 0.930 . S
H1167 C1179 0.929 . S
H1168 C1182 0.930 . S
H1169 C1184 0.960 . S
H1170 C1184 0.960 . S
H1171 C1184 0.960 . S
C1172 H1164 0.929 . S
C1172 C1173 1.377 . S
C1172 C1174 1.384 . S
C1173 C1172 1.377 . S
C1173 C1179 1.390 . S
C1174 H1165 0.930 . S
C1174 C1172 1.384 . S
C1174 C1175 1.372 . S
C1175 C1174 1.372 . S
C1175 C1176 1.400 . S
C1175 C1180 1.490 . S
C1176 H1166 0.930 . S
C1176 C1175 1.400 . S
C1176 C1179 1.386 . S
H1177 C1193 0.930 . S
H1178 C1194 0.931 . S
C1179 H1167 0.929 . S
C1179 C1173 1.390 . S
C1179 C1176 1.386 . S
C1180 C1175 1.490 . S
C1180 C1182 1.395 . S
C1180 C1183 1.403 . S
H1181 C1187 0.930 . S
C1182 H1168 0.930 . S
C1182 C1180 1.395 . S
C1182 C1185 1.403 . S
C1183 C1180 1.403 . S
C1183 C1184 1.524 . S
C1183 C1187 1.400 . S
C1184 H1169 0.960 . S
C1184 H1170 0.960 . S
C1184 H1171 0.960 . S
C1184 C1183 1.524 . S
C1185 C1182 1.403 . S
C1185 C1186 1.392 . S
C1185 C1189 1.495 . S
C1186 C1185 1.392 . S
C1186 C1187 1.385 . S
C1186 C1188 1.478 . S
C1187 H1181 0.930 . S
C1187 C1183 1.400 . S
C1187 C1186 1.385 . S
C1188 C1186 1.478 . S
C1188 C1190 1.381 . S
C1188 C1194 1.383 . S
C1189 C1185 1.495 . S
C1189 H1195 0.959 . S
C1189 H1196 0.961 . S
C1189 H1197 0.960 . S
C1190 C1188 1.381 . S
C1190 C1191 1.394 . S
C1190 H1198 0.930 . S
C1191 C1190 1.394 . S
C1191 C1192 1.383 . S
C1191 H1199 0.929 . S
C1192 C1191 1.383 . S
C1192 C1193 1.377 . S
C1193 H1177 0.930 . S
C1193 C1192 1.377 . S
C1193 C1194 1.379 . S
C1194 H1178 0.931 . S
C1194 C1188 1.383 . S
C1194 C1193 1.379 . S
H1195 C1189 0.959 . S
H1196 C1189 0.961 . S
H1197 C1189 0.960 . S
H1198 C1190 0.930 . S
H1199 C1191 0.929 . S
H1200 C1208 0.929 . S
H1201 C1210 0.930 . S
H1202 C1212 0.930 . S
H1203 C1215 0.929 . S
H1204 C1218 0.930 . S
H1205 C1220 0.960 . S
H1206 C1220 0.960 . S
H1207 C1220 0.960 . S
C1208 H1200 0.929 . S
C1208 C1209 1.377 . S
C1208 C1210 1.384 . S
C1209 C1208 1.377 . S
C1209 C1215 1.390 . S
C1210 H1201 0.930 . S
C1210 C1208 1.384 . S
C1210 C1211 1.372 . S
C1211 C1210 1.372 . S
C1211 C1212 1.400 . S
C1211 C1216 1.490 . S
C1212 H1202 0.930 . S
C1212 C1211 1.400 . S
C1212 C1215 1.386 . S
H1213 C1229 0.930 . S
H1214 C1230 0.931 . S
C1215 H1203 0.929 . S
C1215 C1209 1.390 . S
C1215 C1212 1.386 . S
C1216 C1211 1.490 . S
C1216 C1218 1.395 . S
C1216 C1219 1.403 . S
H1217 C1223 0.930 . S
C1218 H1204 0.930 . S
C1218 C1216 1.395 . S
C1218 C1221 1.403 . S
C1219 C1216 1.403 . S
C1219 C1220 1.524 . S
C1219 C1223 1.400 . S
C1220 H1205 0.960 . S
C1220 H1206 0.960 . S
C1220 H1207 0.960 . S
C1220 C1219 1.524 . S
C1221 C1218 1.403 . S
C1221 C1222 1.392 . S
C1221 C1225 1.495 . S
C1222 C1221 1.392 . S
C1222 C1223 1.385 . S
C1222 C1224 1.478 . S
C1223 H1217 0.930 . S
C1223 C1219 1.400 . S
C1223 C1222 1.385 . S
C1224 C1222 1.478 . S
C1224 C1226 1.381 . S
C1224 C1230 1.383 . S
C1225 C1221 1.495 . S
C1225 H1231 0.959 . S
C1225 H1232 0.961 . S
C1225 H1233 0.960 . S
C1226 C1224 1.381 . S
C1226 C1227 1.394 . S
C1226 H1234 0.930 . S
C1227 C1226 1.394 . S
C1227 C1228 1.383 . S
C1227 H1235 0.929 . S
C1228 C1227 1.383 . S
C1228 C1229 1.377 . S
C1229 H1213 0.930 . S
C1229 C1228 1.377 . S
C1229 C1230 1.379 . S
C1230 H1214 0.931 . S
C1230 C1224 1.383 . S
C1230 C1229 1.379 . S
H1231 C1225 0.959 . S
H1232 C1225 0.961 . S
H1233 C1225 0.960 . S
H1234 C1226 0.930 . S
H1235 C1227 0.929 . S
H1236 C1244 0.929 . S
H1237 C1246 0.930 . S
H1238 C1248 0.930 . S
H1239 C1251 0.929 . S
H1240 C1254 0.930 . S
H1241 C1256 0.960 . S
H1242 C1256 0.960 . S
H1243 C1256 0.960 . S
C1244 H1236 0.929 . S
C1244 C1245 1.377 . S
C1244 C1246 1.384 . S
C1245 C1244 1.377 . S
C1245 C1251 1.390 . S
C1246 H1237 0.930 . S
C1246 C1244 1.384 . S
C1246 C1247 1.372 . S
C1247 C1246 1.372 . S
C1247 C1248 1.400 . S
C1247 C1252 1.490 . S
C1248 H1238 0.930 . S
C1248 C1247 1.400 . S
C1248 C1251 1.386 . S
H1249 C1265 0.930 . S
H1250 C1266 0.931 . S
C1251 H1239 0.929 . S
C1251 C1245 1.390 . S
C1251 C1248 1.386 . S
C1252 C1247 1.490 . S
C1252 C1254 1.395 . S
C1252 C1255 1.403 . S
H1253 C1259 0.930 . S
C1254 H1240 0.930 . S
C1254 C1252 1.395 . S
C1254 C1257 1.403 1_545 S
C1255 C1252 1.403 . S
C1255 C1256 1.524 . S
C1255 C1259 1.400 . S
C1256 H1241 0.960 . S
C1256 H1242 0.960 . S
C1256 H1243 0.960 . S
C1256 C1255 1.524 . S
C1257 C1254 1.403 1_565 S
C1257 C1258 1.392 . S
C1257 C1261 1.495 . S
C1258 C1257 1.392 . S
C1258 C1259 1.385 1_565 S
C1258 C1260 1.478 . S
C1259 H1253 0.930 . S
C1259 C1255 1.400 . S
C1259 C1258 1.385 1_545 S
C1260 C1258 1.478 . S
C1260 C1262 1.381 . S
C1260 C1266 1.383 . S
C1261 C1257 1.495 . S
C1261 H1267 0.959 . S
C1261 H1268 0.961 . S
C1261 H1269 0.960 . S
C1262 C1260 1.381 . S
C1262 C1263 1.394 . S
C1262 H1270 0.930 . S
C1263 C1262 1.394 . S
C1263 C1264 1.383 . S
C1263 H1271 0.929 . S
C1264 C1263 1.383 . S
C1264 C1265 1.377 . S
C1265 H1249 0.930 . S
C1265 C1264 1.377 . S
C1265 C1266 1.379 . S
C1266 H1250 0.931 . S
C1266 C1260 1.383 . S
C1266 C1265 1.379 . S
H1267 C1261 0.959 . S
H1268 C1261 0.961 . S
H1269 C1261 0.960 . S
H1270 C1262 0.930 . S
H1271 C1263 0.929 . S
H1272 C1280 0.929 . S
H1273 C1282 0.930 . S
H1274 C1284 0.930 . S
H1275 C1287 0.929 . S
H1276 C1290 0.930 . S
H1277 C1292 0.960 . S
H1278 C1292 0.960 . S
H1279 C1292 0.960 . S
C1280 H1272 0.929 . S
C1280 C1281 1.377 . S
C1280 C1282 1.384 . S
C1281 C1280 1.377 . S
C1281 C1287 1.390 . S
C1282 H1273 0.930 . S
C1282 C1280 1.384 . S
C1282 C1283 1.372 . S
C1283 C1282 1.372 . S
C1283 C1284 1.400 . S
C1283 C1288 1.490 . S
C1284 H1274 0.930 . S
C1284 C1283 1.400 . S
C1284 C1287 1.386 . S
H1285 C1301 0.930 . S
H1286 C1302 0.931 . S
C1287 H1275 0.929 . S
C1287 C1281 1.390 . S
C1287 C1284 1.386 . S
C1288 C1283 1.490 . S
C1288 C1290 1.395 . S
C1288 C1291 1.403 . S
H1289 C1295 0.930 . S
C1290 H1276 0.930 . S
C1290 C1288 1.395 . S
C1290 C1293 1.403 . S
C1291 C1288 1.403 . S
C1291 C1292 1.524 . S
C1291 C1295 1.400 . S
C1292 H1277 0.960 . S
C1292 H1278 0.960 . S
C1292 H1279 0.960 . S
C1292 C1291 1.524 . S
C1293 C1290 1.403 . S
C1293 C1294 1.392 . S
C1293 C1297 1.495 . S
C1294 C1293 1.392 . S
C1294 C1295 1.385 . S
C1294 C1296 1.478 . S
C1295 H1289 0.930 . S
C1295 C1291 1.400 . S
C1295 C1294 1.385 . S
C1296 C1294 1.478 . S
C1296 C1298 1.381 . S
C1296 C1302 1.383 . S
C1297 C1293 1.495 . S
C1297 H1303 0.959 . S
C1297 H1304 0.961 . S
C1297 H1305 0.960 . S
C1298 C1296 1.381 . S
C1298 C1299 1.394 . S
C1298 H1306 0.930 . S
C1299 C1298 1.394 . S
C1299 C1300 1.383 . S
C1299 H1307 0.929 . S
C1300 C1299 1.383 . S
C1300 C1301 1.377 . S
C1301 H1285 0.930 . S
C1301 C1300 1.377 . S
C1301 C1302 1.379 . S
C1302 H1286 0.931 . S
C1302 C1296 1.383 . S
C1302 C1301 1.379 . S
H1303 C1297 0.959 . S
H1304 C1297 0.961 . S
H1305 C1297 0.960 . S
H1306 C1298 0.930 . S
H1307 C1299 0.929 . S
H1308 C1316 0.929 . S
H1309 C1318 0.930 . S
H1310 C1320 0.930 . S
H1311 C1323 0.929 . S
H1312 C1326 0.930 . S
H1313 C1328 0.960 . S
H1314 C1328 0.960 . S
H1315 C1328 0.960 1_545 S
C1316 H1308 0.929 . S
C1316 C1317 1.377 . S
C1316 C1318 1.384 . S
C1317 C1316 1.377 . S
C1317 C1323 1.390 . S
C1318 H1309 0.930 . S
C1318 C1316 1.384 . S
C1318 C1319 1.372 . S
C1319 C1318 1.372 . S
C1319 C1320 1.400 . S
C1319 C1324 1.490 . S
C1320 H1310 0.930 . S
C1320 C1319 1.400 . S
C1320 C1323 1.386 . S
H1321 C1337 0.930 . S
H1322 C1338 0.931 . S
C1323 H1311 0.929 . S
C1323 C1317 1.390 . S
C1323 C1320 1.386 . S
C1324 C1319 1.490 . S
C1324 C1326 1.395 . S
C1324 C1327 1.403 1_545 S
H1325 C1331 0.930 . S
C1326 H1312 0.930 . S
C1326 C1324 1.395 . S
C1326 C1329 1.403 1_545 S
C1327 C1324 1.403 1_565 S
C1327 C1328 1.524 . S
C1327 C1331 1.400 . S
C1328 H1313 0.960 . S
C1328 H1314 0.960 . S
C1328 H1315 0.960 1_565 S
C1328 C1327 1.524 . S
C1329 C1326 1.403 1_565 S
C1329 C1330 1.392 . S
C1329 C1333 1.495 . S
C1330 C1329 1.392 . S
C1330 C1331 1.385 . S
C1330 C1332 1.478 . S
C1331 H1325 0.930 . S
C1331 C1327 1.400 . S
C1331 C1330 1.385 . S
C1332 C1330 1.478 . S
C1332 C1334 1.381 . S
C1332 C1338 1.383 . S
C1333 C1329 1.495 . S
C1333 H1339 0.959 1_565 S
C1333 H1340 0.961 . S
C1333 H1341 0.960 . S
C1334 C1332 1.381 . S
C1334 C1335 1.394 . S
C1334 H1342 0.930 . S
C1335 C1334 1.394 . S
C1335 C1336 1.383 . S
C1335 H1343 0.929 . S
C1336 C1335 1.383 . S
C1336 C1337 1.377 . S
C1337 H1321 0.930 . S
C1337 C1336 1.377 . S
C1337 C1338 1.379 . S
C1338 H1322 0.931 . S
C1338 C1332 1.383 . S
C1338 C1337 1.379 . S
H1339 C1333 0.959 1_545 S
H1340 C1333 0.961 . S
H1341 C1333 0.960 . S
H1342 C1334 0.930 . S
H1343 C1335 0.929 . S
H1344 C1352 0.929 . S
H1345 C1354 0.930 . S
H1346 C1356 0.930 . S
H1347 C1359 0.929 . S
H1348 C1362 0.930 . S
H1349 C1364 0.960 . S
H1350 C1364 0.960 . S
H1351 C1364 0.960 . S
C1352 H1344 0.929 . S
C1352 C1353 1.377 . S
C1352 C1354 1.384 . S
C1353 C1352 1.377 . S
C1353 C1359 1.390 . S
C1354 H1345 0.930 . S
C1354 C1352 1.384 . S
C1354 C1355 1.372 . S
C1355 C1354 1.372 . S
C1355 C1356 1.400 . S
C1355 C1360 1.490 . S
C1356 H1346 0.930 . S
C1356 C1355 1.400 . S
C1356 C1359 1.386 . S
H1357 C1373 0.930 . S
H1358 C1374 0.931 . S
C1359 H1347 0.929 . S
C1359 C1353 1.390 . S
C1359 C1356 1.386 . S
C1360 C1355 1.490 . S
C1360 C1362 1.395 . S
C1360 C1363 1.403 . S
H1361 C1367 0.930 . S
C1362 H1348 0.930 . S
C1362 C1360 1.395 . S
C1362 C1365 1.403 . S
C1363 C1360 1.403 . S
C1363 C1364 1.524 . S
C1363 C1367 1.400 . S
C1364 H1349 0.960 . S
C1364 H1350 0.960 . S
C1364 H1351 0.960 . S
C1364 C1363 1.524 . S
C1365 C1362 1.403 . S
C1365 C1366 1.392 . S
C1365 C1369 1.495 . S
C1366 C1365 1.392 . S
C1366 C1367 1.385 . S
C1366 C1368 1.478 . S
C1367 H1361 0.930 . S
C1367 C1363 1.400 . S
C1367 C1366 1.385 . S
C1368 C1366 1.478 . S
C1368 C1370 1.381 . S
C1368 C1374 1.383 . S
C1369 C1365 1.495 . S
C1369 H1375 0.959 . S
C1369 H1376 0.961 . S
C1369 H1377 0.960 . S
C1370 C1368 1.381 . S
C1370 C1371 1.394 . S
C1370 H1378 0.930 . S
C1371 C1370 1.394 . S
C1371 C1372 1.383 . S
C1371 H1379 0.929 . S
C1372 C1371 1.383 . S
C1372 C1373 1.377 . S
C1373 H1357 0.930 . S
C1373 C1372 1.377 . S
C1373 C1374 1.379 . S
C1374 H1358 0.931 . S
C1374 C1368 1.383 . S
C1374 C1373 1.379 . S
H1375 C1369 0.959 . S
H1376 C1369 0.961 . S
H1377 C1369 0.960 . S
H1378 C1370 0.930 . S
H1379 C1371 0.929 . S
H1380 C1388 0.929 . S
H1381 C1390 0.930 . S
H1382 C1392 0.930 . S
H1383 C1395 0.929 . S
H1384 C1398 0.930 . S
H1385 C1400 0.960 . S
H1386 C1400 0.960 . S
H1387 C1400 0.960 . S
C1388 H1380 0.929 . S
C1388 C1389 1.377 . S
C1388 C1390 1.384 . S
C1389 C1388 1.377 . S
C1389 C1395 1.390 . S
C1390 H1381 0.930 . S
C1390 C1388 1.384 . S
C1390 C1391 1.372 . S
C1391 C1390 1.372 . S
C1391 C1392 1.400 . S
C1391 C1396 1.490 . S
C1392 H1382 0.930 . S
C1392 C1391 1.400 . S
C1392 C1395 1.386 . S
H1393 C1409 0.930 . S
H1394 C1410 0.931 . S
C1395 H1383 0.929 . S
C1395 C1389 1.390 . S
C1395 C1392 1.386 . S
C1396 C1391 1.490 . S
C1396 C1398 1.395 . S
C1396 C1399 1.403 . S
H1397 C1403 0.930 . S
C1398 H1384 0.930 . S
C1398 C1396 1.395 . S
C1398 C1401 1.403 . S
C1399 C1396 1.403 . S
C1399 C1400 1.524 . S
C1399 C1403 1.400 . S
C1400 H1385 0.960 . S
C1400 H1386 0.960 . S
C1400 H1387 0.960 . S
C1400 C1399 1.524 . S
C1401 C1398 1.403 . S
C1401 C1402 1.392 . S
C1401 C1405 1.495 . S
C1402 C1401 1.392 . S
C1402 C1403 1.385 . S
C1402 C1404 1.478 . S
C1403 H1397 0.930 . S
C1403 C1399 1.400 . S
C1403 C1402 1.385 . S
C1404 C1402 1.478 . S
C1404 C1406 1.381 . S
C1404 C1410 1.383 . S
C1405 C1401 1.495 . S
C1405 H1411 0.959 . S
C1405 H1412 0.961 . S
C1405 H1413 0.960 . S
C1406 C1404 1.381 . S
C1406 C1407 1.394 . S
C1406 H1414 0.930 . S
C1407 C1406 1.394 . S
C1407 C1408 1.383 . S
C1407 H1415 0.929 . S
C1408 C1407 1.383 . S
C1408 C1409 1.377 . S
C1409 H1393 0.930 . S
C1409 C1408 1.377 . S
C1409 C1410 1.379 . S
C1410 H1394 0.931 . S
C1410 C1404 1.383 . S
C1410 C1409 1.379 . S
H1411 C1405 0.959 . S
H1412 C1405 0.961 . S
H1413 C1405 0.960 . S
H1414 C1406 0.930 . S
H1415 C1407 0.929 . S
H1416 C1424 0.929 . S
H1417 C1426 0.930 . S
H1418 C1428 0.930 . S
H1419 C1431 0.929 . S
H1420 C1434 0.930 . S
H1421 C1436 0.960 . S
H1422 C1436 0.960 . S
H1423 C1436 0.960 . S
C1424 H1416 0.929 . S
C1424 C1425 1.377 . S
C1424 C1426 1.384 . S
C1425 C1424 1.377 . S
C1425 C1431 1.390 . S
C1426 H1417 0.930 . S
C1426 C1424 1.384 . S
C1426 C1427 1.372 . S
C1427 C1426 1.372 . S
C1427 C1428 1.400 . S
C1427 C1432 1.490 . S
C1428 H1418 0.930 . S
C1428 C1427 1.400 . S
C1428 C1431 1.386 . S
H1429 C1445 0.930 . S
H1430 C1446 0.931 . S
C1431 H1419 0.929 . S
C1431 C1425 1.390 . S
C1431 C1428 1.386 . S
C1432 C1427 1.490 . S
C1432 C1434 1.395 . S
C1432 C1435 1.403 . S
H1433 C1439 0.930 . S
C1434 H1420 0.930 . S
C1434 C1432 1.395 . S
C1434 C1437 1.403 . S
C1435 C1432 1.403 . S
C1435 C1436 1.524 . S
C1435 C1439 1.400 . S
C1436 H1421 0.960 . S
C1436 H1422 0.960 . S
C1436 H1423 0.960 . S
C1436 C1435 1.524 . S
C1437 C1434 1.403 . S
C1437 C1438 1.392 . S
C1437 C1441 1.495 . S
C1438 C1437 1.392 . S
C1438 C1439 1.385 . S
C1438 C1440 1.478 . S
C1439 H1433 0.930 . S
C1439 C1435 1.400 . S
C1439 C1438 1.385 . S
C1440 C1438 1.478 . S
C1440 C1442 1.381 . S
C1440 C1446 1.383 . S
C1441 C1437 1.495 . S
C1441 H1447 0.959 . S
C1441 H1448 0.961 . S
C1441 H1449 0.960 . S
C1442 C1440 1.381 . S
C1442 C1443 1.394 . S
C1442 H1450 0.930 . S
C1443 C1442 1.394 . S
C1443 C1444 1.383 . S
C1443 H1451 0.929 . S
C1444 C1443 1.383 . S
C1444 C1445 1.377 . S
C1445 H1429 0.930 . S
C1445 C1444 1.377 . S
C1445 C1446 1.379 . S
C1446 H1430 0.931 . S
C1446 C1440 1.383 . S
C1446 C1445 1.379 . S
H1447 C1441 0.959 . S
H1448 C1441 0.961 . S
H1449 C1441 0.960 . S
H1450 C1442 0.930 . S
H1451 C1443 0.929 . S
H1452 C1460 0.929 . S
H1453 C1462 0.930 . S
H1454 C1464 0.930 . S
H1455 C1467 0.929 . S
H1456 C1470 0.930 . S
H1457 C1472 0.960 . S
H1458 C1472 0.960 . S
H1459 C1472 0.960 . S
C1460 H1452 0.929 . S
C1460 C1461 1.377 . S
C1460 C1462 1.384 . S
C1461 C1460 1.377 . S
C1461 C1467 1.390 . S
C1462 H1453 0.930 . S
C1462 C1460 1.384 . S
C1462 C1463 1.372 . S
C1463 C1462 1.372 . S
C1463 C1464 1.400 . S
C1463 C1468 1.490 . S
C1464 H1454 0.930 . S
C1464 C1463 1.400 . S
C1464 C1467 1.386 . S
H1465 C1481 0.930 . S
H1466 C1482 0.931 . S
C1467 H1455 0.929 . S
C1467 C1461 1.390 . S
C1467 C1464 1.386 . S
C1468 C1463 1.490 . S
C1468 C1470 1.395 . S
C1468 C1471 1.403 . S
H1469 C1475 0.930 . S
C1470 H1456 0.930 . S
C1470 C1468 1.395 . S
C1470 C1473 1.403 . S
C1471 C1468 1.403 . S
C1471 C1472 1.524 . S
C1471 C1475 1.400 . S
C1472 H1457 0.960 . S
C1472 H1458 0.960 . S
C1472 H1459 0.960 . S
C1472 C1471 1.524 . S
C1473 C1470 1.403 . S
C1473 C1474 1.392 . S
C1473 C1477 1.495 . S
C1474 C1473 1.392 . S
C1474 C1475 1.385 . S
C1474 C1476 1.478 . S
C1475 H1469 0.930 . S
C1475 C1471 1.400 . S
C1475 C1474 1.385 . S
C1476 C1474 1.478 . S
C1476 C1478 1.381 . S
C1476 C1482 1.383 . S
C1477 C1473 1.495 . S
C1477 H1483 0.959 . S
C1477 H1484 0.961 . S
C1477 H1485 0.960 . S
C1478 C1476 1.381 . S
C1478 C1479 1.394 . S
C1478 H1486 0.930 . S
C1479 C1478 1.394 . S
C1479 C1480 1.383 . S
C1479 H1487 0.929 . S
C1480 C1479 1.383 . S
C1480 C1481 1.377 . S
C1481 H1465 0.930 . S
C1481 C1480 1.377 . S
C1481 C1482 1.379 . S
C1482 H1466 0.931 . S
C1482 C1476 1.383 . S
C1482 C1481 1.379 . S
H1483 C1477 0.959 . S
H1484 C1477 0.961 . S
H1485 C1477 0.960 . S
H1486 C1478 0.930 . S
H1487 C1479 0.929 . S
H1488 C1496 0.929 . S
H1489 C1498 0.930 . S
H1490 C1500 0.930 . S
H1491 C1503 0.929 . S
H1492 C1506 0.930 . S
H1493 C1508 0.960 . S
H1494 C1508 0.960 . S
H1495 C1508 0.960 . S
C1496 H1488 0.929 . S
C1496 C1497 1.377 . S
C1496 C1498 1.384 . S
C1497 C1496 1.377 . S
C1497 C1503 1.390 . S
C1498 H1489 0.930 . S
C1498 C1496 1.384 . S
C1498 C1499 1.372 . S
C1499 C1498 1.372 . S
C1499 C1500 1.400 . S
C1499 C1504 1.490 . S
C1500 H1490 0.930 . S
C1500 C1499 1.400 . S
C1500 C1503 1.386 . S
H1501 C1517 0.930 . S
H1502 C1518 0.931 . S
C1503 H1491 0.929 . S
C1503 C1497 1.390 . S
C1503 C1500 1.386 . S
C1504 C1499 1.490 . S
C1504 C1506 1.395 . S
C1504 C1507 1.403 . S
H1505 C1511 0.930 . S
C1506 H1492 0.930 . S
C1506 C1504 1.395 . S
C1506 C1509 1.403 . S
C1507 C1504 1.403 . S
C1507 C1508 1.524 . S
C1507 C1511 1.400 . S
C1508 H1493 0.960 . S
C1508 H1494 0.960 . S
C1508 H1495 0.960 . S
C1508 C1507 1.524 . S
C1509 C1506 1.403 . S
C1509 C1510 1.392 . S
C1509 C1513 1.495 . S
C1510 C1509 1.392 . S
C1510 C1511 1.385 . S
C1510 C1512 1.478 . S
C1511 H1505 0.930 . S
C1511 C1507 1.400 . S
C1511 C1510 1.385 . S
C1512 C1510 1.478 . S
C1512 C1514 1.381 . S
C1512 C1518 1.383 . S
C1513 C1509 1.495 . S
C1513 H1519 0.959 . S
C1513 H1520 0.961 . S
C1513 H1521 0.960 . S
C1514 C1512 1.381 . S
C1514 C1515 1.394 . S
C1514 H1522 0.930 . S
C1515 C1514 1.394 . S
C1515 C1516 1.383 . S
C1515 H1523 0.929 . S
C1516 C1515 1.383 . S
C1516 C1517 1.377 . S
C1517 H1501 0.930 . S
C1517 C1516 1.377 . S
C1517 C1518 1.379 . S
C1518 H1502 0.931 . S
C1518 C1512 1.383 . S
C1518 C1517 1.379 . S
H1519 C1513 0.959 . S
H1520 C1513 0.961 . S
H1521 C1513 0.960 . S
H1522 C1514 0.930 . S
H1523 C1515 0.929 . S
H1524 C1532 0.929 . S
H1525 C1534 0.930 . S
H1526 C1536 0.930 . S
H1527 C1539 0.929 . S
H1528 C1542 0.930 . S
H1529 C1544 0.960 . S
H1530 C1544 0.960 . S
H1531 C1544 0.960 . S
C1532 H1524 0.929 . S
C1532 C1533 1.377 . S
C1532 C1534 1.384 . S
C1533 C1532 1.377 . S
C1533 C1539 1.390 . S
C1534 H1525 0.930 . S
C1534 C1532 1.384 . S
C1534 C1535 1.372 . S
C1535 C1534 1.372 . S
C1535 C1536 1.400 . S
C1535 C1540 1.490 . S
C1536 H1526 0.930 . S
C1536 C1535 1.400 . S
C1536 C1539 1.386 . S
H1537 C1553 0.930 . S
H1538 C1554 0.931 . S
C1539 H1527 0.929 . S
C1539 C1533 1.390 . S
C1539 C1536 1.386 . S
C1540 C1535 1.490 . S
C1540 C1542 1.395 . S
C1540 C1543 1.403 . S
H1541 C1547 0.930 . S
C1542 H1528 0.930 . S
C1542 C1540 1.395 . S
C1542 C1545 1.403 . S
C1543 C1540 1.403 . S
C1543 C1544 1.524 . S
C1543 C1547 1.400 . S
C1544 H1529 0.960 . S
C1544 H1530 0.960 . S
C1544 H1531 0.960 . S
C1544 C1543 1.524 . S
C1545 C1542 1.403 . S
C1545 C1546 1.392 . S
C1545 C1549 1.495 . S
C1546 C1545 1.392 . S
C1546 C1547 1.385 . S
C1546 C1548 1.478 . S
C1547 H1541 0.930 . S
C1547 C1543 1.400 . S
C1547 C1546 1.385 . S
C1548 C1546 1.478 . S
C1548 C1550 1.381 . S
C1548 C1554 1.383 . S
C1549 C1545 1.495 . S
C1549 H1555 0.959 . S
C1549 H1556 0.961 . S
C1549 H1557 0.960 . S
C1550 C1548 1.381 . S
C1550 C1551 1.394 . S
C1550 H1558 0.930 . S
C1551 C1550 1.394 . S
C1551 C1552 1.383 . S
C1551 H1559 0.929 . S
C1552 C1551 1.383 . S
C1552 C1553 1.377 . S
C1553 H1537 0.930 . S
C1553 C1552 1.377 . S
C1553 C1554 1.379 . S
C1554 H1538 0.931 . S
C1554 C1548 1.383 . S
C1554 C1553 1.379 . S
H1555 C1549 0.959 . S
H1556 C1549 0.961 . S
H1557 C1549 0.960 . S
H1558 C1550 0.930 . S
H1559 C1551 0.929 . S
H1560 C1568 0.929 . S
H1561 C1570 0.930 . S
H1562 C1572 0.930 . S
H1563 C1575 0.929 . S
H1564 C1578 0.934 . S
H1565 C1580 0.960 . S
H1566 C1580 0.960 . S
H1567 C1580 0.960 . S
C1568 H1560 0.929 . S
C1568 C1569 1.377 . S
C1568 C1570 1.384 . S
C1569 C1568 1.377 . S
C1569 C1575 1.390 . S
C1570 H1561 0.930 . S
C1570 C1568 1.384 . S
C1570 C1571 1.372 . S
C1571 C1570 1.372 . S
C1571 C1572 1.400 . S
C1571 C1576 1.490 . S
C1572 H1562 0.930 . S
C1572 C1571 1.400 . S
C1572 C1575 1.386 . S
H1573 C1589 0.930 . S
H1574 C1590 0.931 . S
C1575 H1563 0.929 . S
C1575 C1569 1.390 . S
C1575 C1572 1.386 . S
C1576 C1571 1.490 . S
C1576 C1578 1.405 . S
C1576 C1579 1.403 . S
H1577 C1583 0.930 . S
C1578 H1564 0.934 . S
C1578 C1576 1.405 . S
C1578 C1581 1.389 1_455 S
C1579 C1576 1.403 . S
C1579 C1580 1.524 . S
C1579 C1583 1.400 1_455 S
C1580 H1565 0.960 . S
C1580 H1566 0.960 . S
C1580 H1567 0.960 . S
C1580 C1579 1.524 . S
C1581 C1578 1.389 1_655 S
C1581 C1582 1.392 . S
C1581 C1585 1.495 . S
C1582 C1581 1.392 . S
C1582 C1583 1.385 . S
C1582 C1584 1.478 . S
C1583 H1577 0.930 . S
C1583 C1579 1.400 1_655 S
C1583 C1582 1.385 . S
C1584 C1582 1.478 . S
C1584 C1586 1.381 . S
C1584 C1590 1.383 . S
C1585 C1581 1.495 . S
C1585 H1591 0.959 . S
C1585 H1592 0.961 . S
C1585 H1593 0.960 . S
C1586 C1584 1.381 . S
C1586 C1587 1.394 . S
C1586 H1594 0.930 . S
C1587 C1586 1.394 . S
C1587 C1588 1.383 . S
C1587 H1595 0.929 1_554 S
C1588 C1587 1.383 . S
C1588 C1589 1.377 . S
C1589 H1573 0.930 . S
C1589 C1588 1.377 . S
C1589 C1590 1.379 . S
C1590 H1574 0.931 . S
C1590 C1584 1.383 . S
C1590 C1589 1.379 . S
H1591 C1585 0.959 . S
H1592 C1585 0.961 . S
H1593 C1585 0.960 . S
H1594 C1586 0.930 . S
H1595 C1587 0.929 1_556 S
H1596 C1604 0.929 . S
H1597 C1606 0.930 . S
H1598 C1608 0.930 . S
H1599 C1611 0.929 . S
H1600 C1614 0.930 . S
H1601 C1616 0.960 . S
H1602 C1616 0.960 . S
H1603 C1616 0.960 . S
C1604 H1596 0.929 . S
C1604 C1605 1.377 . S
C1604 C1606 1.384 . S
C1605 C1604 1.377 . S
C1605 C1611 1.390 . S
C1606 H1597 0.930 . S
C1606 C1604 1.384 . S
C1606 C1607 1.372 . S
C1607 C1606 1.372 . S
C1607 C1608 1.400 . S
C1607 C1612 1.490 . S
C1608 H1598 0.930 . S
C1608 C1607 1.400 . S
C1608 C1611 1.386 . S
H1609 C1625 0.930 . S
H1610 C1626 0.931 . S
C1611 H1599 0.929 . S
C1611 C1605 1.390 . S
C1611 C1608 1.386 . S
C1612 C1607 1.490 . S
C1612 C1614 1.395 . S
C1612 C1615 1.403 . S
H1613 C1619 0.930 . S
C1614 H1600 0.930 . S
C1614 C1612 1.395 . S
C1614 C1617 1.403 . S
C1615 C1612 1.403 . S
C1615 C1616 1.524 . S
C1615 C1619 1.400 . S
C1616 H1601 0.960 . S
C1616 H1602 0.960 . S
C1616 H1603 0.960 . S
C1616 C1615 1.524 . S
C1617 C1614 1.403 . S
C1617 C1618 1.392 . S
C1617 C1621 1.495 . S
C1618 C1617 1.392 . S
C1618 C1619 1.385 . S
C1618 C1620 1.478 . S
C1619 H1613 0.930 . S
C1619 C1615 1.400 . S
C1619 C1618 1.385 . S
C1620 C1618 1.478 . S
C1620 C1622 1.381 . S
C1620 C1626 1.383 . S
C1621 C1617 1.495 . S
C1621 H1627 0.959 . S
C1621 H1628 0.961 . S
C1621 H1629 0.960 . S
C1622 C1620 1.381 . S
C1622 C1623 1.394 . S
C1622 H1630 0.930 . S
C1623 C1622 1.394 . S
C1623 C1624 1.383 . S
C1623 H1631 0.929 . S
C1624 C1623 1.383 . S
C1624 C1625 1.377 . S
C1625 H1609 0.930 . S
C1625 C1624 1.377 . S
C1625 C1626 1.379 . S
C1626 H1610 0.931 . S
C1626 C1620 1.383 . S
C1626 C1625 1.379 . S
H1627 C1621 0.959 . S
H1628 C1621 0.961 . S
H1629 C1621 0.960 . S
H1630 C1622 0.930 . S
H1631 C1623 0.929 . S
H1632 C1640 0.929 . S
H1633 C1642 0.930 . S
H1634 C1644 0.930 . S
H1635 C1647 0.929 . S
H1636 C1650 0.930 . S
H1637 C1652 0.960 . S
H1638 C1652 0.960 . S
H1639 C1652 0.960 . S
C1640 H1632 0.929 . S
C1640 C1641 1.377 . S
C1640 C1642 1.384 . S
C1641 C1640 1.377 . S
C1641 C1647 1.390 . S
C1642 H1633 0.930 . S
C1642 C1640 1.384 . S
C1642 C1643 1.372 . S
C1643 C1642 1.372 . S
C1643 C1644 1.400 . S
C1643 C1648 1.490 . S
C1644 H1634 0.930 . S
C1644 C1643 1.400 . S
C1644 C1647 1.386 . S
H1645 C1661 0.930 . S
H1646 C1662 0.931 . S
C1647 H1635 0.929 . S
C1647 C1641 1.390 . S
C1647 C1644 1.386 . S
C1648 C1643 1.490 . S
C1648 C1650 1.395 . S
C1648 C1651 1.403 . S
H1649 C1655 0.930 . S
C1650 H1636 0.930 . S
C1650 C1648 1.395 . S
C1650 C1653 1.403 . S
C1651 C1648 1.403 . S
C1651 C1652 1.524 . S
C1651 C1655 1.400 . S
C1652 H1637 0.960 . S
C1652 H1638 0.960 . S
C1652 H1639 0.960 . S
C1652 C1651 1.524 . S
C1653 C1650 1.403 . S
C1653 C1654 1.392 . S
C1653 C1657 1.495 . S
C1654 C1653 1.392 . S
C1654 C1655 1.385 . S
C1654 C1656 1.478 . S
C1655 H1649 0.930 . S
C1655 C1651 1.400 . S
C1655 C1654 1.385 . S
C1656 C1654 1.478 . S
C1656 C1658 1.381 . S
C1656 C1662 1.383 . S
C1657 C1653 1.495 . S
C1657 H1663 0.959 . S
C1657 H1664 0.961 . S
C1657 H1665 0.960 . S
C1658 C1656 1.381 . S
C1658 C1659 1.394 . S
C1658 H1666 0.930 . S
C1659 C1658 1.394 . S
C1659 C1660 1.383 . S
C1659 H1667 0.929 . S
C1660 C1659 1.383 . S
C1660 C1661 1.377 . S
C1661 H1645 0.930 . S
C1661 C1660 1.377 . S
C1661 C1662 1.379 . S
C1662 H1646 0.931 . S
C1662 C1656 1.383 . S
C1662 C1661 1.379 . S
H1663 C1657 0.959 . S
H1664 C1657 0.961 . S
H1665 C1657 0.960 . S
H1666 C1658 0.930 . S
H1667 C1659 0.929 . S
H1668 C1676 0.929 . S
H1669 C1678 0.930 . S
H1670 C1680 0.930 . S
H1671 C1683 0.929 . S
H1672 C1686 0.930 . S
H1673 C1688 0.960 . S
H1674 C1688 0.960 . S
H1675 C1688 0.960 . S
C1676 H1668 0.929 . S
C1676 C1677 1.377 . S
C1676 C1678 1.384 . S
C1677 C1676 1.377 . S
C1677 C1683 1.390 . S
C1678 H1669 0.930 . S
C1678 C1676 1.384 . S
C1678 C1679 1.372 . S
C1679 C1678 1.372 . S
C1679 C1680 1.400 . S
C1679 C1684 1.490 . S
C1680 H1670 0.930 . S
C1680 C1679 1.400 . S
C1680 C1683 1.386 . S
H1681 C1697 0.930 . S
H1682 C1698 0.931 . S
C1683 H1671 0.929 . S
C1683 C1677 1.390 . S
C1683 C1680 1.386 . S
C1684 C1679 1.490 . S
C1684 C1686 1.395 . S
C1684 C1687 1.403 . S
H1685 C1691 0.930 . S
C1686 H1672 0.930 . S
C1686 C1684 1.395 . S
C1686 C1689 1.403 . S
C1687 C1684 1.403 . S
C1687 C1688 1.524 . S
C1687 C1691 1.400 . S
C1688 H1673 0.960 . S
C1688 H1674 0.960 . S
C1688 H1675 0.960 . S
C1688 C1687 1.524 . S
C1689 C1686 1.403 . S
C1689 C1690 1.392 . S
C1689 C1693 1.495 . S
C1690 C1689 1.392 . S
C1690 C1691 1.385 . S
C1690 C1692 1.478 . S
C1691 H1685 0.930 . S
C1691 C1687 1.400 . S
C1691 C1690 1.385 . S
C1692 C1690 1.478 . S
C1692 C1694 1.381 . S
C1692 C1698 1.383 . S
C1693 C1689 1.495 . S
C1693 H1699 0.959 . S
C1693 H1700 0.961 . S
C1693 H1701 0.960 . S
C1694 C1692 1.381 . S
C1694 C1695 1.394 . S
C1694 H1702 0.930 . S
C1695 C1694 1.394 . S
C1695 C1696 1.383 . S
C1695 H1703 0.929 . S
C1696 C1695 1.383 . S
C1696 C1697 1.377 . S
C1697 H1681 0.930 . S
C1697 C1696 1.377 . S
C1697 C1698 1.379 . S
C1698 H1682 0.931 . S
C1698 C1692 1.383 . S
C1698 C1697 1.379 . S
H1699 C1693 0.959 . S
H1700 C1693 0.961 . S
H1701 C1693 0.960 . S
H1702 C1694 0.930 . S
H1703 C1695 0.929 . S
H1704 C1712 0.929 . S
H1705 C1714 0.930 . S
H1706 C1716 0.930 . S
H1707 C1719 0.929 . S
H1708 C1722 0.930 . S
H1709 C1724 0.960 . S
H1710 C1724 0.960 . S
H1711 C1724 0.960 . S
C1712 H1704 0.929 . S
C1712 C1713 1.377 . S
C1712 C1714 1.384 . S
C1713 C1712 1.377 . S
C1713 C1719 1.390 . S
C1714 H1705 0.930 . S
C1714 C1712 1.384 . S
C1714 C1715 1.372 . S
C1715 C1714 1.372 . S
C1715 C1716 1.400 . S
C1715 C1720 1.490 . S
C1716 H1706 0.930 . S
C1716 C1715 1.400 . S
C1716 C1719 1.386 . S
H1717 C1733 0.930 . S
H1718 C1734 0.931 . S
C1719 H1707 0.929 . S
C1719 C1713 1.390 . S
C1719 C1716 1.386 . S
C1720 C1715 1.490 . S
C1720 C1722 1.395 . S
C1720 C1723 1.403 . S
H1721 C1727 0.930 . S
C1722 H1708 0.930 . S
C1722 C1720 1.395 . S
C1722 C1725 1.403 . S
C1723 C1720 1.403 . S
C1723 C1724 1.524 . S
C1723 C1727 1.400 . S
C1724 H1709 0.960 . S
C1724 H1710 0.960 . S
C1724 H1711 0.960 . S
C1724 C1723 1.524 . S
C1725 C1722 1.403 . S
C1725 C1726 1.392 . S
C1725 C1729 1.495 . S
C1726 C1725 1.392 . S
C1726 C1727 1.385 . S
C1726 C1728 1.478 . S
C1727 H1721 0.930 . S
C1727 C1723 1.400 . S
C1727 C1726 1.385 . S
C1728 C1726 1.478 . S
C1728 C1730 1.381 . S
C1728 C1734 1.383 . S
C1729 C1725 1.495 . S
C1729 H1735 0.959 . S
C1729 H1736 0.961 . S
C1729 H1737 0.960 . S
C1730 C1728 1.381 . S
C1730 C1731 1.394 . S
C1730 H1738 0.930 . S
C1731 C1730 1.394 . S
C1731 C1732 1.383 . S
C1731 H1739 0.929 . S
C1732 C1731 1.383 . S
C1732 C1733 1.377 . S
C1733 H1717 0.930 . S
C1733 C1732 1.377 . S
C1733 C1734 1.379 . S
C1734 H1718 0.931 . S
C1734 C1728 1.383 . S
C1734 C1733 1.379 . S
H1735 C1729 0.959 . S
H1736 C1729 0.961 . S
H1737 C1729 0.960 . S
H1738 C1730 0.930 . S
H1739 C1731 0.929 . S
H1740 C1748 0.929 . S
H1741 C1750 0.930 . S
H1742 C1752 0.930 . S
H1743 C1755 0.929 . S
H1744 C1758 0.930 . S
H1745 C1760 0.960 1_455 S
H1746 C1760 0.960 . S
H1747 C1760 0.960 . S
C1748 H1740 0.929 . S
C1748 C1749 1.377 . S
C1748 C1750 1.384 . S
C1749 C1748 1.377 . S
C1749 C1755 1.390 . S
C1750 H1741 0.930 . S
C1750 C1748 1.384 . S
C1750 C1751 1.372 . S
C1751 C1750 1.372 . S
C1751 C1752 1.400 . S
C1751 C1756 1.490 . S
C1752 H1742 0.930 . S
C1752 C1751 1.400 . S
C1752 C1755 1.386 . S
H1753 C1769 0.930 . S
H1754 C1770 0.931 . S
C1755 H1743 0.929 . S
C1755 C1749 1.390 . S
C1755 C1752 1.386 . S
C1756 C1751 1.490 . S
C1756 C1758 1.395 . S
C1756 C1759 1.403 . S
H1757 C1763 0.930 . S
C1758 H1744 0.930 . S
C1758 C1756 1.395 . S
C1758 C1761 1.403 . S
C1759 C1756 1.403 . S
C1759 C1760 1.524 . S
C1759 C1763 1.400 1_655 S
C1760 H1745 0.960 1_655 S
C1760 H1746 0.960 . S
C1760 H1747 0.960 . S
C1760 C1759 1.524 . S
C1761 C1758 1.403 . S
C1761 C1762 1.392 1_655 S
C1761 C1765 1.495 . S
C1762 C1761 1.392 1_455 S
C1762 C1763 1.385 . S
C1762 C1764 1.478 . S
C1763 H1757 0.930 . S
C1763 C1759 1.400 1_455 S
C1763 C1762 1.385 . S
C1764 C1762 1.478 . S
C1764 C1766 1.381 . S
C1764 C1770 1.383 . S
C1765 C1761 1.495 . S
C1765 H1771 0.959 . S
C1765 H1772 0.961 1_655 S
C1765 H1773 0.960 . S
C1766 C1764 1.381 . S
C1766 C1767 1.394 . S
C1766 H1774 0.930 . S
C1767 C1766 1.394 . S
C1767 C1768 1.383 . S
C1767 H1775 0.929 . S
C1768 C1767 1.383 . S
C1768 C1769 1.377 . S
C1769 H1753 0.930 . S
C1769 C1768 1.377 . S
C1769 C1770 1.379 . S
C1770 H1754 0.931 . S
C1770 C1764 1.383 . S
C1770 C1769 1.379 . S
H1771 C1765 0.959 . S
H1772 C1765 0.961 1_455 S
H1773 C1765 0.960 . S
H1774 C1766 0.930 . S
H1775 C1767 0.929 . S
C489 C19 1.252 . S
C508 C459 1.274 . S
C525 C378 1.952 . S
C544 C58 1.936 . S
C561 C98 1.072 . S
C580 C338 1.085 . S
C597 C138 1.553 . S
C616 C419 1.511 . S
C633 C178 1.725 . S
C652 C418 1.696 . S
C669 C219 1.497 . S
C688 C458 1.583 . S
C705 C379 1.634 . S
C724 C258 1.693 . S
C741 C299 1.243 . S
C760 C339 1.259 . S
C777 C139 1.345 . S
C796 C179 1.315 . S
C813 C18 1.815 . S
C832 C218 1.796 1_455 S
C849 C59 1.882 . S
C868 C259 1.893 . S
C885 C298 1.516 . S
C904 C99 1.425 . S
C921 C15 1.783 . S
C940 C329 1.731 . S
C957 C46 1.492 . S
C976 C410 1.482 . S
C993 C450 1.803 . S
C1012 C86 1.830 . S
C1029 C126 1.707 . S
C1048 C369 1.644 . S
C1065 C166 1.288 . S
C1084 C370 1.290 . S
C1101 C330 2.750 . S
C1120 C215 2.662 . S
C1137 C409 1.281 . S
C1156 C246 1.326 . S
C1173 C449 1.404 . S
C1192 C295 1.435 . S
C1209 C9 1.582 . S
C1228 C135 1.619 . S
C1245 C6 1.454 . S
C1264 C50 1.409 . S
C1281 C55 1.940 . S
C1300 C90 1.986 . S
C1317 C130 1.949 . S
C1336 C95 1.907 . S
C1353 C206 1.711 . S
C1372 C170 1.681 . S
C1389 C209 1.117 . S
C1408 C255 1.117 . S
C1425 C250 1.471 . S
C1444 C286 1.472 . S
C1461 C175 1.923 . S
C1480 C289 1.892 . S
C1497 C335 1.730 . S
C1516 C129 1.698 . S
C1533 C210 1.778 . S
C1552 C366 1.792 . S
C1569 C326 1.107 . S
C1588 C249 1.099 . S
C1605 C415 1.358 . S
C1624 C290 1.394 . S
C1641 C169 1.393 . S
C1660 C455 1.444 . S
C1677 C446 0.405 . S
C1696 C49 0.409 . S
C1713 C89 1.661 . S
C1732 C375 1.687 . S
C1749 C406 1.583 . S
C1768 C10 1.572 . S
