# Generated by pormake.
# Topology atn, (4)-cn, num edge types: 1
# Building blocks:
#     Node 0, Type 0, BuildingBlock: GALJAG_clean_sbu_0, # of connection points: 4
#     Node 1, Type 0, BuildingBlock: GALJAG_clean_sbu_0, # of connection points: 4
#     Node 2, Type 0, BuildingBlock: GALJAG_clean_sbu_0, # of connection points: 4
#     Node 3, Type 0, BuildingBlock: GALJAG_clean_sbu_0, # of connection points: 4
#     Node 4, Type 0, BuildingBlock: GALJAG_clean_sbu_0, # of connection points: 4
#     Node 5, Type 0, BuildingBlock: GALJAG_clean_sbu_0, # of connection points: 4
#     Node 6, Type 0, BuildingBlock: GALJAG_clean_sbu_0, # of connection points: 4
#     Node 7, Type 0, BuildingBlock: GALJAG_clean_sbu_0, # of connection points: 4
#     Node 8, Type 0, BuildingBlock: GALJAG_clean_sbu_0, # of connection points: 4
#     Node 9, Type 0, BuildingBlock: GALJAG_clean_sbu_0, # of connection points: 4
#     Node 10, Type 0, BuildingBlock: GALJAG_clean_sbu_0, # of connection points: 4
#     Node 11, Type 0, BuildingBlock: GALJAG_clean_sbu_0, # of connection points: 4
#     Node 12, Type 0, BuildingBlock: GALJAG_clean_sbu_0, # of connection points: 4
#     Node 13, Type 0, BuildingBlock: GALJAG_clean_sbu_0, # of connection points: 4
#     Node 14, Type 0, BuildingBlock: GALJAG_clean_sbu_0, # of connection points: 4
#     Node 15, Type 0, BuildingBlock: GALJAG_clean_sbu_0, # of connection points: 4
#     Edge 16, Type (0, 0), BuildingBlock: ZUJKAS_clean_linker_0, # of connection points: 2
#     Edge 17, Type (0, 0), BuildingBlock: ZUJKAS_clean_linker_0, # of connection points: 2
#     Edge 18, Type (0, 0), BuildingBlock: ZUJKAS_clean_linker_0, # of connection points: 2
#     Edge 19, Type (0, 0), BuildingBlock: ZUJKAS_clean_linker_0, # of connection points: 2
#     Edge 20, Type (0, 0), BuildingBlock: ZUJKAS_clean_linker_0, # of connection points: 2
#     Edge 21, Type (0, 0), BuildingBlock: ZUJKAS_clean_linker_0, # of connection points: 2
#     Edge 22, Type (0, 0), BuildingBlock: ZUJKAS_clean_linker_0, # of connection points: 2
#     Edge 23, Type (0, 0), BuildingBlock: ZUJKAS_clean_linker_0, # of connection points: 2
#     Edge 24, Type (0, 0), BuildingBlock: ZUJKAS_clean_linker_0, # of connection points: 2
#     Edge 25, Type (0, 0), BuildingBlock: ZUJKAS_clean_linker_0, # of connection points: 2
#     Edge 26, Type (0, 0), BuildingBlock: ZUJKAS_clean_linker_0, # of connection points: 2
#     Edge 27, Type (0, 0), BuildingBlock: ZUJKAS_clean_linker_0, # of connection points: 2
#     Edge 28, Type (0, 0), BuildingBlock: ZUJKAS_clean_linker_0, # of connection points: 2
#     Edge 29, Type (0, 0), BuildingBlock: ZUJKAS_clean_linker_0, # of connection points: 2
#     Edge 30, Type (0, 0), BuildingBlock: ZUJKAS_clean_linker_0, # of connection points: 2
#     Edge 31, Type (0, 0), BuildingBlock: ZUJKAS_clean_linker_0, # of connection points: 2
#     Edge 32, Type (0, 0), BuildingBlock: ZUJKAS_clean_linker_0, # of connection points: 2
#     Edge 33, Type (0, 0), BuildingBlock: ZUJKAS_clean_linker_0, # of connection points: 2
#     Edge 34, Type (0, 0), BuildingBlock: ZUJKAS_clean_linker_0, # of connection points: 2
#     Edge 35, Type (0, 0), BuildingBlock: ZUJKAS_clean_linker_0, # of connection points: 2
#     Edge 36, Type (0, 0), BuildingBlock: ZUJKAS_clean_linker_0, # of connection points: 2
#     Edge 37, Type (0, 0), BuildingBlock: ZUJKAS_clean_linker_0, # of connection points: 2
#     Edge 38, Type (0, 0), BuildingBlock: ZUJKAS_clean_linker_0, # of connection points: 2
#     Edge 39, Type (0, 0), BuildingBlock: ZUJKAS_clean_linker_0, # of connection points: 2
#     Edge 40, Type (0, 0), BuildingBlock: ZUJKAS_clean_linker_0, # of connection points: 2
#     Edge 41, Type (0, 0), BuildingBlock: ZUJKAS_clean_linker_0, # of connection points: 2
#     Edge 42, Type (0, 0), BuildingBlock: ZUJKAS_clean_linker_0, # of connection points: 2
#     Edge 43, Type (0, 0), BuildingBlock: ZUJKAS_clean_linker_0, # of connection points: 2
#     Edge 44, Type (0, 0), BuildingBlock: ZUJKAS_clean_linker_0, # of connection points: 2
#     Edge 45, Type (0, 0), BuildingBlock: ZUJKAS_clean_linker_0, # of connection points: 2
#     Edge 46, Type (0, 0), BuildingBlock: ZUJKAS_clean_linker_0, # of connection points: 2
#     Edge 47, Type (0, 0), BuildingBlock: ZUJKAS_clean_linker_0, # of connection points: 2
# Relax obj value: 0.083
# Max RMSD: 0.111
# Mean RMSD: 0.111
data_MOF--net-atn--node1-GALJAG_clean_sbu_0--edge1-ZUJKAS_clean_linker_0
_symmetry_space_group_name_H-M    P1
_symmetry_Int_Tables_number       1
_symmetry_cell_setting            triclinic
loop_
_symmetry_equiv_pos_as_xyz
'x, y, z'
_cell_length_a     75.983434
_cell_length_b     75.921254
_cell_length_c     37.036111
_cell_angle_alpha  90.04695
_cell_angle_beta   89.984882
_cell_angle_gamma 90.020344
loop_
_atom_site_label
_atom_site_type_symbol
_atom_site_fract_x
_atom_site_fract_y
_atom_site_fract_z
_atom_type_partial_charge
In0 In 0.18347 0.36562 0.00232 0.0
O1 O 0.16253 0.35658 0.04311 0.0
O2 O 0.1838 0.37232 0.06187 0.0
C3 C 0.16954 0.35944 0.93659 0.0
C4 C 0.18779 0.40043 0.99472 0.0
C5 C 0.20889 0.34105 0.00648 0.0
O6 O 0.16052 0.35782 0.96512 0.0
O7 O 0.18533 0.36387 0.94158 0.0
O8 O 0.21222 0.35731 0.00481 0.0
O9 O 0.19274 0.3372 0.00626 0.0
C10 C 0.16988 0.36413 0.06957 0.0
O11 O 0.20065 0.38997 0.99756 0.0
O12 O 0.17278 0.39329 0.99595 0.0
In13 In 0.62357 0.18378 0.00686 0.0
O14 O 0.6324 0.16252 0.04712 0.0
O15 O 0.62322 0.18711 0.06736 0.0
C16 C 0.62629 0.16921 0.94078 0.0
C17 C 0.5885 0.1863 0.01052 0.0
C18 C 0.64789 0.2094 0.00165 0.0
O19 O 0.63297 0.16197 0.96833 0.0
O20 O 0.61841 0.1835 0.94689 0.0
O21 O 0.63161 0.21265 0.00302 0.0
O22 O 0.65183 0.19327 0.00292 0.0
C23 C 0.62904 0.17197 0.07445 0.0
O24 O 0.5983 0.19972 0.00804 0.0
O25 O 0.59646 0.17169 0.01115 0.0
In26 In 0.80526 0.62456 0.00612 0.0
O27 O 0.78933 0.59925 0.00471 0.0
O28 O 0.81727 0.59731 0.00858 0.0
C29 C 0.77941 0.6487 0.00365 0.0
C30 C 0.8172 0.62925 0.07395 0.0
C31 C 0.8197 0.62878 0.94022 0.0
O32 O 0.77636 0.63236 0.00407 0.0
O33 O 0.7955 0.65284 0.00434 0.0
O34 O 0.82728 0.63428 0.96849 0.0
O35 O 0.80508 0.62137 0.94549 0.0
C36 C 0.80268 0.58938 0.00677 0.0
O37 O 0.82673 0.63251 0.04672 0.0
O38 O 0.80193 0.62385 0.06665 0.0
In39 In 0.363 0.80525 0.00678 0.0
O40 O 0.3537 0.82661 0.04642 0.0
O41 O 0.36918 0.80542 0.06644 0.0
C42 C 0.35643 0.81801 0.94025 0.0
C43 C 0.39802 0.80254 0.00082 0.0
C44 C 0.33917 0.7792 0.01284 0.0
O45 O 0.35393 0.82718 0.96832 0.0
O46 O 0.36194 0.80262 0.94606 0.0
O47 O 0.35546 0.77626 0.01001 0.0
O48 O 0.33494 0.79526 0.01252 0.0
C49 C 0.36101 0.81946 0.07336 0.0
O50 O 0.38815 0.78919 0.00337 0.0
O51 O 0.39017 0.81721 0.00126 0.0
In52 In 0.18066 0.62159 0.00444 0.0
O53 O 0.15743 0.62625 0.96583 0.0
O54 O 0.18347 0.62984 0.94614 0.0
C55 C 0.16608 0.62256 0.07083 0.0
C56 C 0.18605 0.58717 0.99233 0.0
C57 C 0.20643 0.64537 0.0137 0.0
O58 O 0.16 0.63152 0.04492 0.0
O59 O 0.17914 0.61311 0.06291 0.0
O60 O 0.2095 0.62918 0.00911 0.0
O61 O 0.19034 0.64953 0.01381 0.0
C62 C 0.16723 0.63001 0.93934 0.0
O63 O 0.19856 0.59779 -0.00221 0.0
O64 O 0.17089 0.59395 0.99308 0.0
In65 In 0.36536 0.18071 0.00767 0.0
O66 O 0.39039 0.19698 0.00974 0.0
O67 O 0.39269 0.16897 0.01111 0.0
C68 C 0.34124 0.2066 0.00515 0.0
C69 C 0.36236 0.16732 0.94053 0.0
C70 C 0.35986 0.16717 0.07393 0.0
O71 O 0.35755 0.20967 0.00656 0.0
O72 O 0.33715 0.19051 0.00492 0.0
O73 O 0.35703 0.15827 0.04561 0.0
O74 O 0.36527 0.18263 0.0685 0.0
C75 C 0.40041 0.18372 0.01128 0.0
O76 O 0.35537 0.15988 0.96752 0.0
O77 O 0.3707 0.18123 0.94767 0.0
In78 In 0.80791 0.366 0.00125 0.0
O79 O 0.83035 0.35571 0.96532 0.0
O80 O 0.80941 0.36998 0.94091 0.0
C81 C 0.81857 0.36096 0.0699 0.0
C82 C 0.80491 0.40114 0.00255 0.0
C83 C 0.78214 0.34189 0.9954 0.0
O84 O 0.82879 0.35844 0.0434 0.0
O85 O 0.80327 0.36586 0.0615 0.0
O86 O 0.77908 0.35823 0.996 0.0
O87 O 0.79818 0.33776 0.99765 0.0
C88 C 0.82371 0.36186 0.93664 0.0
O89 O 0.79173 0.39111 -0.00045 0.0
O90 O 0.81958 0.39341 0.00499 0.0
In91 In 0.62101 0.80725 0.00245 0.0
O92 O 0.62984 0.82896 0.96312 0.0
O93 O 0.61924 0.80515 0.94186 0.0
C94 C 0.62447 0.82097 0.06917 0.0
C95 C 0.58594 0.80426 1e-05 0.0
C96 C 0.64541 0.78158 0.00368 0.0
O97 O 0.63047 0.82877 0.0416 0.0
O98 O 0.61688 0.80655 0.06279 0.0
O99 O 0.62912 0.77836 0.00367 0.0
O100 O 0.64935 0.79772 0.00325 0.0
C101 C 0.62556 0.82016 0.93543 0.0
O102 O 0.59597 0.791 0.00174 0.0
O103 O 0.59367 0.81901 -0.00022 0.0
In104 In 0.68209 0.86442 0.50265 0.0
O105 O 0.66043 0.85482 0.54111 0.0
O106 O 0.6823 0.86867 0.56305 0.0
C107 C 0.66911 0.85918 0.4358 0.0
C108 C 0.68488 0.89956 0.50065 0.0
C109 C 0.70801 0.84036 0.50619 0.0
O110 O 0.66019 0.85582 0.46379 0.0
O111 O 0.68439 0.86495 0.44178 0.0
O112 O 0.71102 0.85669 0.50476 0.0
O113 O 0.69194 0.8362 0.50568 0.0
C114 C 0.66791 0.86095 0.56893 0.0
O115 O 0.6982 0.88962 0.50173 0.0
O116 O 0.67021 0.89173 0.5004 0.0
In117 In 0.1246 0.68041 0.50285 0.0
O118 O 0.10014 0.69772 0.5033 0.0
O119 O 0.09677 0.66991 0.50625 0.0
C120 C 0.14926 0.70564 0.49812 0.0
C121 C 0.12973 0.66803 0.5702 0.0
C122 C 0.12835 0.66543 0.43735 0.0
O123 O 0.13302 0.70908 0.49973 0.0
O124 O 0.15304 0.68944 0.49868 0.0
O125 O 0.13467 0.65845 0.46551 0.0
O126 O 0.12035 0.67974 0.44253 0.0
C127 C 0.0896 0.68489 0.50522 0.0
O128 O 0.12926 0.65787 0.54313 0.0
O129 O 0.12783 0.68413 0.563 0.0
In130 In 0.30474 0.12382 0.50764 0.0
O131 O 0.28829 0.09886 0.50937 0.0
O132 O 0.31625 0.09639 0.51113 0.0
C133 C 0.27921 0.14836 0.50597 0.0
C134 C 0.31852 0.12886 0.57386 0.0
C135 C 0.31815 0.1266 0.44051 0.0
O136 O 0.27592 0.13208 0.50709 0.0
O137 O 0.29536 0.15222 0.50557 0.0
O138 O 0.3259 0.13315 0.46761 0.0
O139 O 0.30389 0.11886 0.4475 0.0
C140 C 0.30148 0.08875 0.51117 0.0
O141 O 0.32722 0.13212 0.54551 0.0
O142 O 0.3031 0.12334 0.5685 0.0
In143 In 0.866 0.30484 0.5038 0.0
O144 O 0.85733 0.32608 0.54434 0.0
O145 O 0.87143 0.30378 0.56367 0.0
C146 C 0.85907 0.31745 0.43735 0.0
C147 C 0.901 0.30221 0.49724 0.0
C148 C 0.84172 0.27921 0.50836 0.0
O149 O 0.85737 0.32697 0.46522 0.0
O150 O 0.86406 0.3019 0.4434 0.0
O151 O 0.85798 0.27597 0.50582 0.0
O152 O 0.83778 0.29535 0.50883 0.0
C153 C 0.86393 0.31812 0.57114 0.0
O154 O 0.89118 0.28884 0.49987 0.0
O155 O 0.89312 0.31685 0.49799 0.0
In156 In 0.68109 0.12285 0.50817 0.0
O157 O 0.69716 0.09769 0.508 0.0
O158 O 0.66916 0.09551 0.50827 0.0
C159 C 0.70721 0.1468 0.50866 0.0
C160 C 0.66764 0.12767 0.44156 0.0
C161 C 0.6674 0.12682 0.5748 0.0
O162 O 0.7101 0.13045 0.50774 0.0
O163 O 0.69117 0.15104 0.50924 0.0
O164 O 0.6589 0.13107 0.54677 0.0
O165 O 0.68257 0.12076 0.56895 0.0
C166 C 0.68385 0.08771 0.50816 0.0
O167 O 0.65995 0.13341 0.46949 0.0
O168 O 0.68186 0.11965 0.44748 0.0
In169 In 0.86698 0.68276 0.50782 0.0
O170 O 0.85953 0.66061 0.46821 0.0
O171 O 0.86552 0.68602 0.44737 0.0
C172 C 0.864 0.66873 0.57438 0.0
C173 C 0.90199 0.68636 0.50373 0.0
C174 C 0.8426 0.7083 0.51231 0.0
O175 O 0.85725 0.66137 0.54702 0.0
O176 O 0.87215 0.68282 0.56783 0.0
O177 O 0.85888 0.71156 0.51074 0.0
O178 O 0.83867 0.69215 0.5118 0.0
C179 C 0.86111 0.67035 0.44068 0.0
O180 O 0.89176 0.69943 0.50609 0.0
O181 O 0.8945 0.67149 0.50333 0.0
In182 In 0.30621 0.86574 0.50495 0.0
O183 O 0.329 0.85776 0.46758 0.0
O184 O 0.30574 0.86841 0.44425 0.0
C185 C 0.31839 0.86152 0.57271 0.0
C186 C 0.30259 0.9008 0.50573 0.0
C187 C 0.2811 0.84078 0.50225 0.0
O188 O 0.32711 0.85641 0.54554 0.0
O189 O 0.30379 0.86853 0.56545 0.0
O190 O 0.27754 0.85701 0.50246 0.0
O191 O 0.29728 0.83718 0.5035 0.0
C192 C 0.32094 0.86228 0.43916 0.0
O193 O 0.28952 0.89052 0.50449 0.0
O194 O 0.31745 0.89334 0.50639 0.0
In195 In 0.1236 0.30958 0.50221 0.0
O196 O 0.09889 0.29295 0.49792 0.0
O197 O 0.09614 0.3209 0.49648 0.0
C198 C 0.14766 0.28364 0.5062 0.0
C199 C 0.12992 0.32336 0.43641 0.0
C200 C 0.12567 0.32305 0.56951 0.0
O201 O 0.13135 0.28063 0.50445 0.0
O202 O 0.15181 0.29972 0.50604 0.0
O203 O 0.13326 0.33029 0.54299 0.0
O204 O 0.11713 0.30933 0.56183 0.0
C205 C 0.08869 0.30603 0.49542 0.0
O206 O 0.13189 0.33234 0.46492 0.0
O207 O 0.12504 0.30769 0.44144 0.0
H208 H 0.21719 0.56921 0.99267 0.0
H209 H 0.22137 0.53735 0.98588 0.0
H210 H 0.16535 0.5306 0.97302 0.0
H211 H 0.16108 0.56231 0.97936 0.0
H212 H 0.20683 0.51175 0.03076 0.0
H213 H 0.18546 0.50181 0.8893 0.0
H214 H 0.19128 0.5232 0.90709 0.0
H215 H 0.16979 0.51408 0.91543 0.0
C216 C 0.20581 0.56093 0.98796 0.0
C217 C 0.18881 0.56819 0.98652 0.0
C218 C 0.20822 0.54279 0.98407 0.0
C219 C 0.1937 0.53172 0.97836 0.0
C220 C 0.17676 0.53899 0.97655 0.0
H221 H 0.16214 0.42514 0.98728 0.0
H222 H 0.16587 0.45699 0.98131 0.0
C223 C 0.17433 0.55708 0.98047 0.0
C224 C 0.19593 0.51242 0.97712 0.0
H225 H 0.18554 0.47611 0.92725 0.0
C226 C 0.20251 0.50393 0.00791 0.0
C227 C 0.19028 0.50234 0.9472 0.0
C228 C 0.18397 0.51083 0.91274 0.0
C229 C 0.20263 0.48551 0.01039 0.0
C230 C 0.19623 0.47545 0.98108 0.0
C231 C 0.19035 0.48393 0.9497 0.0
C232 C 0.19432 0.45616 0.98351 0.0
C233 C 0.20876 0.47697 0.04496 0.0
C234 C 0.20912 0.44523 0.98632 0.0
C235 C 0.20703 0.42704 0.98982 0.0
C236 C 0.1901 0.41957 0.99043 0.0
C237 C 0.17533 0.43055 0.98702 0.0
C238 C 0.17744 0.44871 0.98351 0.0
H239 H 0.21044 0.48669 0.06713 0.0
H240 H 0.19924 0.46673 0.05382 0.0
H241 H 0.22161 0.47043 0.04024 0.0
H242 H 0.22225 0.45078 0.98589 0.0
H243 H 0.21864 0.41885 0.9922 0.0
H244 H 0.42002 0.21385 0.01045 0.0
H245 H 0.4522 0.21621 0.00998 0.0
H246 H 0.45639 0.1596 0.01442 0.0
H247 H 0.42433 0.1571 0.01455 0.0
H248 H 0.47701 0.20315 0.06128 0.0
H249 H 0.48601 0.1735 0.92551 0.0
H250 H 0.46501 0.18156 0.9413 0.0
H251 H 0.47293 0.16038 0.95564 0.0
C252 C 0.42782 0.20192 0.01134 0.0
C253 C 0.41972 0.18528 0.01229 0.0
C254 C 0.44615 0.2033 0.01109 0.0
C255 C 0.45657 0.18807 0.01158 0.0
C256 C 0.44851 0.17148 0.01333 0.0
H257 H 0.56515 0.15926 0.01524 0.0
H258 H 0.53305 0.16109 0.01621 0.0
C259 C 0.43022 0.17009 0.01357 0.0
C260 C 0.47592 0.18943 0.01043 0.0
H261 H 0.51177 0.1768 0.96148 0.0
C262 C 0.48465 0.19757 0.03934 0.0
C263 C 0.48574 0.18218 0.98163 0.0
C264 C 0.47697 0.17406 0.94907 0.0
C265 C 0.50309 0.19802 0.04089 0.0
C266 C 0.5129 0.19033 0.01255 0.0
C267 C 0.50415 0.18259 0.98323 0.0
C268 C 0.53228 0.18954 0.01329 0.0
C269 C 0.51195 0.20615 0.07333 0.0
C270 C 0.54238 0.20497 0.01121 0.0
C271 C 0.56074 0.20397 0.01065 0.0
C272 C 0.56918 0.18751 0.012 0.0
C273 C 0.55899 0.17212 0.01419 0.0
C274 C 0.54068 0.17313 0.01474 0.0
H275 H 0.50258 0.20837 0.09591 0.0
H276 H 0.52285 0.19764 0.08304 0.0
H277 H 0.51766 0.21907 0.06559 0.0
H278 H 0.53607 0.21773 0.00949 0.0
H279 H 0.56829 0.21604 0.00881 0.0
H280 H 0.7749 0.42075 -0.00224 0.0
H281 H 0.77257 0.45295 0.9967 0.0
H282 H 0.82896 0.4572 0.00684 0.0
H283 H 0.83144 0.42511 0.00762 0.0
H284 H 0.78444 0.47746 0.04987 0.0
H285 H 0.81713 0.48739 0.91743 0.0
H286 H 0.8087 0.46627 0.93176 0.0
H287 H 0.82952 0.47408 0.94841 0.0
C288 C 0.78679 0.42857 -0.0003 0.0
C289 C 0.80336 0.42047 0.00259 0.0
C290 C 0.78543 0.44691 -0.00089 0.0
C291 C 0.80062 0.45735 0.00113 0.0
C292 C 0.81713 0.4493 0.00455 0.0
H293 H 0.82958 0.56587 0.01138 0.0
H294 H 0.82764 0.53374 0.01012 0.0
C295 C 0.81851 0.431 0.00518 0.0
C296 C 0.79927 0.47672 0.00035 0.0
H297 H 0.81306 0.51293 0.95389 0.0
C298 C 0.79051 0.48526 0.02874 0.0
C299 C 0.80717 0.48675 0.97261 0.0
C300 C 0.81603 0.47818 0.94062 0.0
C301 C 0.79008 0.5037 0.03091 0.0
C302 C 0.79842 0.51371 0.00366 0.0
C303 C 0.80677 0.50515 0.9748 0.0
C304 C 0.79927 0.5331 0.00524 0.0
C305 C 0.7813 0.51231 0.06292 0.0
C306 C 0.78393 0.54329 0.00274 0.0
C307 C 0.78499 0.56166 0.00352 0.0
C308 C 0.80142 0.57003 0.0066 0.0
C309 C 0.81674 0.55976 0.00904 0.0
C310 C 0.81566 0.54144 0.00828 0.0
H311 H 0.77872 0.50277 0.08503 0.0
H312 H 0.78955 0.5232 0.07364 0.0
H313 H 0.76852 0.51798 0.05431 0.0
H314 H 0.77119 0.53705 -0.00022 0.0
H315 H 0.77298 0.56927 0.00142 0.0
H316 H 0.56636 0.77413 0.00094 0.0
H317 H 0.53426 0.77165 0.9973 0.0
H318 H 0.53002 0.82823 0.9915 0.0
H319 H 0.56204 0.83083 0.9948 0.0
H320 H 0.50928 0.78661 0.04502 0.0
H321 H 0.50072 0.81092 0.90489 0.0
H322 H 0.52169 0.80361 0.92227 0.0
H323 H 0.51361 0.82525 0.93301 0.0
C324 C 0.55857 0.78602 -0.00126 0.0
C325 C 0.56666 0.80267 -0.00198 0.0
C326 C 0.54028 0.78458 0.99665 0.0
C327 C 0.52987 0.79974 0.99354 0.0
C328 C 0.5379 0.81637 0.99312 0.0
H329 H 0.42161 0.82939 0.99568 0.0
H330 H 0.45368 0.82719 0.99293 0.0
C331 C 0.55616 0.81783 0.99525 0.0
C332 C 0.51052 0.7983 0.99214 0.0
H333 H 0.4748 0.80921 0.94114 0.0
C334 C 0.5017 0.79134 0.02217 0.0
C335 C 0.50078 0.80447 0.96221 0.0
C336 C 0.50967 0.81133 0.9286 0.0
C337 C 0.48327 0.79106 0.02371 0.0
C338 C 0.47353 0.79767 0.99417 0.0
C339 C 0.48237 0.80421 0.96375 0.0
C340 C 0.45416 0.79872 0.99502 0.0
C341 C 0.47437 0.78435 0.05744 0.0
C342 C 0.44388 0.78339 0.99661 0.0
C343 C 0.42556 0.7846 -0.00175 0.0
C344 C 0.4173 0.80116 -0.00185 0.0
C345 C 0.42764 0.81646 0.99591 0.0
C346 C 0.44592 0.81523 0.99428 0.0
H347 H 0.48371 0.78311 0.08037 0.0
H348 H 0.46346 0.79324 0.06561 0.0
H349 H 0.46868 0.77115 0.05201 0.0
H350 H 0.45003 0.77052 0.9966 0.0
H351 H 0.41789 0.77259 -0.00023 0.0
H352 H 0.65711 0.06385 0.50875 0.0
H353 H 0.65949 0.03176 0.50887 0.0
H354 H 0.71612 0.03578 0.50806 0.0
H355 H 0.71387 0.06798 0.50757 0.0
H356 H 0.70205 0.0117 0.45715 0.0
H357 H 0.67495 0.00088 0.59447 0.0
H358 H 0.66123 0.01433 0.56625 0.0
H359 H 0.68267 0.02211 0.57924 0.0
C360 C 0.67007 0.05791 0.50871 0.0
C361 C 0.68531 0.06838 0.5083 0.0
C362 C 0.6714 0.0396 0.50898 0.0
C363 C 0.68797 0.03148 0.50907 0.0
C364 C 0.70322 0.04187 0.50825 0.0
H365 H 0.71482 0.91945 0.50198 0.0
H366 H 0.71688 0.95165 0.50388 0.0
C367 C 0.70191 0.06022 0.508 0.0
C368 C 0.68928 0.01211 0.50905 0.0
H369 H 0.67718 0.97559 0.55647 0.0
C370 C 0.69681 0.00376 0.47899 0.0
C371 C 0.68247 0.0019 0.53772 0.0
C372 C 0.67502 0.01024 0.57142 0.0
C373 C 0.69705 0.98534 0.47616 0.0
C374 C 0.68976 0.97516 0.50437 0.0
C375 C 0.68265 0.98351 0.53484 0.0
C376 C 0.68872 0.9558 0.50227 0.0
C377 C 0.70449 0.97692 0.44255 0.0
C378 C 0.6722 0.94759 0.50118 0.0
C379 C 0.67098 0.92928 0.50023 0.0
C380 C 0.68627 0.9189 0.50055 0.0
C381 C 0.70282 0.92715 0.50156 0.0
C382 C 0.70403 0.9455 0.50249 0.0
H383 H 0.70644 0.98664 0.4205 0.0
H384 H 0.71743 0.97093 0.44894 0.0
H385 H 0.69567 0.96629 0.43269 0.0
H386 H 0.66025 0.95537 0.50112 0.0
H387 H 0.65805 0.92326 0.49952 0.0
H388 H 0.92633 0.66016 0.49986 0.0
H389 H 0.95834 0.66321 0.49861 0.0
H390 H 0.95319 0.71977 0.5023 0.0
H391 H 0.92108 0.71683 0.50401 0.0
H392 H 0.9791 0.68159 0.44736 0.0
H393 H 0.98694 0.70835 0.58649 0.0
H394 H 0.96697 0.69771 0.57157 0.0
H395 H 0.97179 0.71982 0.55758 0.0
C396 C 0.932 0.67324 0.50045 0.0
C397 C 0.92125 0.68826 0.5022 0.0
C398 C 0.95026 0.67496 0.4997 0.0
C399 C 0.95805 0.6917 0.5008 0.0
C400 C 0.94737 0.70674 0.50204 0.0
H401 H 0.07095 0.71567 0.50456 0.0
H402 H 0.03885 0.71899 0.50188 0.0
C403 C 0.92908 0.70503 0.50284 0.0
C404 C 0.9774 0.69323 0.50029 0.0
H405 H 0.01277 0.70468 0.55202 0.0
C406 C 0.98648 0.68674 0.47012 0.0
C407 C 0.9869 0.70006 0.53 0.0
C408 C 0.97772 0.70678 0.56342 0.0
C409 C 0.00489 0.68656 0.46915 0.0
C410 C 0.01438 0.69281 0.49934 0.0
C411 C 0.00535 0.69989 0.529 0.0
C412 C 0.03365 0.69098 0.50154 0.0
C413 C 0.01407 0.67953 0.436 0.0
C414 C 0.04118 0.67414 0.50296 0.0
C415 C 0.05939 0.67221 0.50462 0.0
C416 C 0.07036 0.68709 0.50496 0.0
C417 C 0.06278 0.70398 0.50421 0.0
C418 C 0.04451 0.7059 0.50268 0.0
H419 H 0.00528 0.67961 0.41204 0.0
H420 H 0.02603 0.68737 0.42977 0.0
H421 H 0.01819 0.66572 0.441 0.0
H422 H 0.03294 0.66249 0.50272 0.0
H423 H 0.06487 0.65904 0.50532 0.0
H424 H 0.27132 0.06918 0.50936 0.0
H425 H 0.26885 0.037 0.51165 0.0
H426 H 0.32535 0.03275 0.51867 0.0
H427 H 0.32794 0.0648 0.51669 0.0
H428 H 0.28419 0.01252 0.463 0.0
H429 H 0.30758 0.00241 0.60329 0.0
H430 H 0.30027 0.02356 0.58678 0.0
H431 H 0.32205 0.01578 0.57647 0.0
C432 C 0.2832 0.06137 0.51161 0.0
C433 C 0.29982 0.06945 0.51298 0.0
C434 C 0.28175 0.04303 0.51291 0.0
C435 C 0.2969 0.03259 0.51589 0.0
C436 C 0.3135 0.04064 0.51711 0.0
H437 H 0.32878 0.92519 0.50934 0.0
H438 H 0.32571 0.95721 0.51198 0.0
C439 C 0.31496 0.05892 0.51576 0.0
C440 C 0.29553 0.01321 0.51625 0.0
H441 H 0.30683 0.97696 0.56531 0.0
C442 C 0.2889 0.00469 0.48551 0.0
C443 C 0.30167 0.00315 0.54576 0.0
C444 C 0.30814 0.01168 0.5801 0.0
C445 C 0.289 0.98627 0.48282 0.0
C446 C 0.29568 0.97624 0.51187 0.0
C447 C 0.3018 0.98476 0.54305 0.0
C448 C 0.29726 0.95691 0.50982 0.0
C449 C 0.28264 0.9777 0.44844 0.0
C450 C 0.28223 0.94622 0.50792 0.0
C451 C 0.28394 0.92792 0.50636 0.0
C452 C 0.3007 0.92009 0.50683 0.0
C453 C 0.3157 0.93086 0.50885 0.0
C454 C 0.31398 0.94913 0.51043 0.0
H455 H 0.28108 0.98738 0.42618 0.0
H456 H 0.29193 0.96727 0.43959 0.0
H457 H 0.26967 0.97143 0.45338 0.0
H458 H 0.26921 0.95203 0.50797 0.0
H459 H 0.27216 0.91991 0.50498 0.0
H460 H 0.06968 0.27554 0.49414 0.0
H461 H 0.03766 0.2725 0.48944 0.0
H462 H 0.03245 0.32903 0.48467 0.0
H463 H 0.06439 0.33218 0.48902 0.0
H464 H 0.01264 0.28661 0.53744 0.0
H465 H 0.00305 0.31188 0.39838 0.0
H466 H 0.02425 0.30491 0.41521 0.0
H467 H 0.01574 0.3263 0.42667 0.0
C468 C 0.0617 0.28731 0.49182 0.0
C469 C 0.06949 0.3041 0.49186 0.0
C470 C 0.04346 0.28554 0.48913 0.0
C471 C 0.03278 0.30053 0.48615 0.0
C472 C 0.04053 0.3173 0.48618 0.0
H473 H 0.92446 0.32917 0.49215 0.0
H474 H 0.95651 0.32712 0.48818 0.0
C475 C 0.05875 0.31908 0.4889 0.0
C476 C 0.01346 0.29877 0.48497 0.0
H477 H 0.97732 0.3097 0.43524 0.0
C478 C 0.00488 0.29143 0.51494 0.0
C479 C 0.00348 0.30507 0.4555 0.0
C480 C 0.01209 0.31233 0.42195 0.0
C481 C 0.98647 0.29093 0.51692 0.0
C482 C 0.97648 0.2977 0.48787 0.0
C483 C 0.98507 0.30458 0.45747 0.0
C484 C 0.95711 0.29864 0.48937 0.0
C485 C 0.97784 0.28384 0.55064 0.0
C486 C 0.9469 0.28326 0.4909 0.0
C487 C 0.92859 0.28438 0.49328 0.0
C488 C 0.92027 0.30091 0.49396 0.0
C489 C 0.93053 0.31626 0.49179 0.0
C490 C 0.94881 0.31512 0.48944 0.0
H491 H 0.98735 0.28248 0.57325 0.0
H492 H 0.96693 0.29258 0.55944 0.0
H493 H 0.97223 0.27065 0.54487 0.0
H494 H 0.9531 0.27042 0.49028 0.0
H495 H 0.92098 0.27234 0.49471 0.0
H496 H 0.20475 0.30541 0.00857 0.0
H497 H 0.22789 0.28299 0.00898 0.0
H498 H 0.26746 0.32372 0.00683 0.0
H499 H 0.24441 0.34624 0.00675 0.0
H500 H 0.25449 0.27838 0.95586 0.0
H501 H 0.28252 0.29192 0.09172 0.0
H502 H 0.2611 0.29977 0.07806 0.0
H503 H 0.28064 0.31076 0.06265 0.0
C504 C 0.21838 0.30958 0.00844 0.0
C505 C 0.22281 0.32755 0.00773 0.0
C506 C 0.23156 0.29678 0.00863 0.0
C507 C 0.24934 0.30174 0.00835 0.0
C508 C 0.2538 0.31966 0.00769 0.0
H509 H 0.34687 0.24211 0.00508 0.0
H510 H 0.32462 0.26546 0.00429 0.0
C511 C 0.24063 0.33248 0.00747 0.0
C512 C 0.26319 0.28812 0.00747 0.0
H513 H 0.2978 0.27144 0.05506 0.0
C514 C 0.26394 0.2768 0.97756 0.0
C515 C 0.27551 0.28622 0.03579 0.0
C516 C 0.27489 0.2977 0.06905 0.0
C517 C 0.27685 0.26368 0.97502 0.0
C518 C 0.28907 0.26167 0.00349 0.0
C519 C 0.2884 0.27307 0.03329 0.0
C520 C 0.30246 0.24757 0.00323 0.0
C521 C 0.27746 0.25226 0.94166 0.0
C522 C 0.2973 0.22983 0.00323 0.0
C523 C 0.30993 0.2165 0.00361 0.0
C524 C 0.32794 0.22072 0.00426 0.0
C525 C 0.33308 0.23849 0.00448 0.0
C526 C 0.32042 0.25182 0.00407 0.0
H527 H 0.27044 0.25847 0.91864 0.0
H528 H 0.29126 0.24958 0.93343 0.0
H529 H 0.27098 0.23948 0.94749 0.0
H530 H 0.28348 0.2263 0.00333 0.0
H531 H 0.30559 0.20291 0.00365 0.0
H532 H 0.78574 0.30621 0.99406 0.0
H533 H 0.7623 0.28413 0.99234 0.0
H534 H 0.72334 0.32542 0.99069 0.0
H535 H 0.74672 0.34761 0.99198 0.0
H536 H 0.73542 0.28023 0.04379 0.0
H537 H 0.70831 0.2931 0.90697 0.0
H538 H 0.72966 0.30098 0.92108 0.0
H539 H 0.71005 0.31216 0.93555 0.0
C540 C 0.77219 0.31058 0.99302 0.0
C541 C 0.76803 0.32861 0.9931 0.0
C542 C 0.75884 0.29797 0.99206 0.0
C543 C 0.74114 0.30318 0.99095 0.0
C544 C 0.73694 0.32117 0.99084 0.0
H545 H 0.64273 0.24498 -0.00087 0.0
H546 H 0.66533 0.26801 0.99669 0.0
C547 C 0.75029 0.3338 0.99179 0.0
C548 C 0.72709 0.28974 0.99177 0.0
H549 H 0.6924 0.2732 0.94402 0.0
C550 C 0.72604 0.27863 0.02194 0.0
C551 C 0.71486 0.28781 0.96326 0.0
C552 C 0.7158 0.29903 0.92971 0.0
C553 C 0.71296 0.26569 0.02455 0.0
C554 C 0.70082 0.26366 0.99594 0.0
C555 C 0.70176 0.27485 0.96587 0.0
C556 C 0.68721 0.24978 0.99657 0.0
C557 C 0.71207 0.25448 0.05814 0.0
C558 C 0.69211 0.23198 0.9967 0.0
C559 C 0.67928 0.21885 -0.00187 0.0
C560 C 0.66135 0.22332 -0.00074 0.0
C561 C 0.65646 0.24117 -0.00158 0.0
C562 C 0.66932 0.25431 0.99698 0.0
H563 H 0.71933 0.26057 0.081 0.0
H564 H 0.69821 0.25227 0.06651 0.0
H565 H 0.71811 0.24146 0.05248 0.0
H566 H 0.70586 0.22825 0.99573 0.0
H567 H 0.68343 0.2052 -0.00149 0.0
H568 H 0.78297 0.68442 0.00293 0.0
H569 H 0.75949 0.70647 0.00283 0.0
H570 H 0.72056 0.6651 0.00208 0.0
H571 H 0.74397 0.64295 0.00258 0.0
H572 H 0.73233 0.71099 0.95134 0.0
H573 H 0.70596 0.69634 0.08809 0.0
H574 H 0.72727 0.68876 0.07316 0.0
H575 H 0.70765 0.67767 0.05844 0.0
C576 C 0.76941 0.68002 0.00282 0.0
C577 C 0.76527 0.66198 0.00294 0.0
C578 C 0.75603 0.69262 0.00273 0.0
C579 C 0.73834 0.68738 0.00296 0.0
C580 C 0.73416 0.66938 0.00259 0.0
H581 H 0.64015 0.74601 0.00384 0.0
H582 H 0.66264 0.72289 0.00257 0.0
C583 C 0.74753 0.65677 0.00268 0.0
C584 C 0.72427 0.70079 0.003 0.0
H585 H 0.69004 0.71685 0.05277 0.0
C586 C 0.72309 0.71231 0.97351 0.0
C587 C 0.71226 0.7024 0.03197 0.0
C588 C 0.71337 0.69075 0.06489 0.0
C589 C 0.71007 0.72536 0.97205 0.0
C590 C 0.69814 0.72706 0.00116 0.0
C591 C 0.69923 0.71546 0.03052 0.0
C592 C 0.68462 0.74102 0.00193 0.0
C593 C 0.70901 0.73704 0.93918 0.0
C594 C 0.6896 0.7588 0.00255 0.0
C595 C 0.67683 0.772 0.00326 0.0
C596 C 0.65887 0.7676 0.00359 0.0
C597 C 0.65391 0.74977 0.0035 0.0
C598 C 0.6667 0.73657 0.00279 0.0
H599 H 0.71596 0.73116 0.91568 0.0
H600 H 0.69511 0.73956 0.93152 0.0
H601 H 0.71531 0.74989 0.94531 0.0
H602 H 0.70338 0.76247 0.00263 0.0
H603 H 0.68103 0.78564 0.00351 0.0
H604 H 0.20295 0.68093 0.02106 0.0
H605 H 0.22651 0.70289 0.02381 0.0
H606 H 0.26531 0.66154 0.0177 0.0
H607 H 0.24184 0.6395 0.01445 0.0
H608 H 0.25454 0.70645 0.07358 0.0
H609 H 0.27841 0.69449 0.93377 0.0
H610 H 0.25742 0.68652 0.94969 0.0
H611 H 0.27734 0.67526 0.96192 0.0
C612 C 0.21651 0.67652 0.02038 0.0
C613 C 0.22059 0.65853 0.01727 0.0
C614 C 0.22992 0.68906 0.022 0.0
C615 C 0.2476 0.68382 0.02039 0.0
C616 C 0.25172 0.66584 0.01828 0.0
H617 H 0.3451 0.74375 0.01281 0.0
H618 H 0.32315 0.72021 0.01709 0.0
C619 C 0.23832 0.65329 0.0166 0.0
C620 C 0.26169 0.69722 0.02058 0.0
H621 H 0.29482 0.71444 0.96938 0.0
C622 C 0.26336 0.70822 0.05084 0.0
C623 C 0.27314 0.69944 0.99082 0.0
C624 C 0.27146 0.68842 0.95704 0.0
C625 C 0.27632 0.72137 0.05224 0.0
C626 C 0.28766 0.72368 0.02235 0.0
C627 C 0.28611 0.71256 0.99226 0.0
C628 C 0.30092 0.7379 0.02122 0.0
C629 C 0.27789 0.73254 0.08579 0.0
C630 C 0.29561 0.75558 0.02182 0.0
C631 C 0.30808 0.76903 0.01935 0.0
C632 C 0.32605 0.76498 0.01603 0.0
C633 C 0.33134 0.74725 0.01541 0.0
C634 C 0.31884 0.7338 0.01785 0.0
H635 H 0.27153 0.72617 0.10944 0.0
H636 H 0.2919 0.73518 0.09239 0.0
H637 H 0.27127 0.74536 0.08113 0.0
H638 H 0.2818 0.75898 0.02365 0.0
H639 H 0.30363 0.78258 0.01974 0.0
H640 H 0.80699 0.70427 0.51453 0.0
H641 H 0.78466 0.7275 0.51492 0.0
H642 H 0.8255 0.76698 0.51425 0.0
H643 H 0.84793 0.74383 0.51344 0.0
H644 H 0.77975 0.75506 0.56551 0.0
H645 H 0.79415 0.78036 0.4278 0.0
H646 H 0.802 0.75928 0.44353 0.0
H647 H 0.8128 0.77921 0.4575 0.0
C648 C 0.81121 0.7179 0.51447 0.0
C649 C 0.82917 0.72227 0.51374 0.0
C650 C 0.79846 0.73113 0.51472 0.0
C651 C 0.80347 0.7489 0.51409 0.0
C652 C 0.8214 0.75331 0.51407 0.0
H653 H 0.74344 0.84619 0.50754 0.0
H654 H 0.76686 0.82411 0.51123 0.0
C655 C 0.83417 0.74009 0.51379 0.0
C656 C 0.78989 0.7628 0.5136 0.0
H657 H 0.77341 0.79631 0.46246 0.0
C658 C 0.77833 0.76408 0.543 0.0
C659 C 0.78814 0.77451 0.48415 0.0
C660 C 0.79982 0.77325 0.45128 0.0
C661 C 0.76509 0.77693 0.5439 0.0
C662 C 0.76326 0.78856 0.51435 0.0
C663 C 0.77491 0.78736 0.48508 0.0
C664 C 0.74909 0.80185 0.51289 0.0
C665 C 0.75333 0.77811 0.57666 0.0
C666 C 0.73141 0.79657 0.51219 0.0
C667 C 0.71803 0.80912 0.51008 0.0
C668 C 0.72216 0.82714 0.50842 0.0
C669 C 0.73989 0.83239 0.50886 0.0
C670 C 0.75326 0.81982 0.51096 0.0
H671 H 0.75927 0.7715 0.60046 0.0
H672 H 0.75055 0.79206 0.58373 0.0
H673 H 0.74062 0.77153 0.57069 0.0
H674 H 0.72796 0.78273 0.51291 0.0
H675 H 0.70448 0.80469 0.50961 0.0
H676 H 0.28591 0.80524 0.50038 0.0
H677 H 0.26325 0.78238 0.49767 0.0
H678 H 0.22287 0.8223 0.49839 0.0
H679 H 0.24547 0.84527 0.50063 0.0
H680 H 0.23623 0.77622 0.54755 0.0
H681 H 0.20959 0.79146 0.41144 0.0
H682 H 0.23049 0.79983 0.4271 0.0
H683 H 0.21032 0.80989 0.44184 0.0
C684 C 0.2722 0.80915 0.49979 0.0
C685 C 0.26743 0.82702 0.50058 0.0
C686 C 0.2593 0.79609 0.49826 0.0
C687 C 0.24143 0.80069 0.49731 0.0
C688 C 0.23661 0.81851 0.49836 0.0
H689 H 0.14424 0.7412 0.49787 0.0
H690 H 0.16684 0.7642 0.49771 0.0
C691 C 0.24952 0.8316 0.49986 0.0
C692 C 0.22785 0.78676 0.49642 0.0
H693 H 0.19386 0.77047 0.44628 0.0
C694 C 0.22701 0.77489 0.52536 0.0
C695 C 0.21586 0.78515 0.46742 0.0
C696 C 0.21664 0.79715 0.435 0.0
C697 C 0.21426 0.76154 0.52637 0.0
C698 C 0.20228 0.75992 0.49737 0.0
C699 C 0.2031 0.7718 0.46844 0.0
C700 C 0.18872 0.74598 0.49667 0.0
C701 C 0.2135 0.74953 0.55878 0.0
C702 C 0.1936 0.72818 0.49551 0.0
C703 C 0.18075 0.71503 0.49563 0.0
C704 C 0.16282 0.71951 0.49671 0.0
C705 C 0.15797 0.73737 0.49712 0.0
C706 C 0.17083 0.7505 0.49701 0.0
H707 H 0.22067 0.75515 0.58226 0.0
H708 H 0.19966 0.74696 0.56687 0.0
H709 H 0.21969 0.73673 0.55183 0.0
H710 H 0.20736 0.72446 0.49455 0.0
H711 H 0.18487 0.70137 0.49509 0.0
H712 H 0.24366 0.14325 0.50684 0.0
H713 H 0.22066 0.16584 0.50738 0.0
H714 H 0.26033 0.20647 0.50492 0.0
H715 H 0.2834 0.18399 0.50471 0.0
H716 H 0.23375 0.21131 0.55798 0.0
H717 H 0.20576 0.19753 0.42216 0.0
H718 H 0.20754 0.17877 0.45149 0.0
H719 H 0.22714 0.18963 0.43597 0.0
C720 C 0.24747 0.15699 0.50625 0.0
C721 C 0.2653 0.16188 0.50563 0.0
C722 C 0.23433 0.16986 0.50639 0.0
C723 C 0.23884 0.18777 0.50574 0.0
C724 C 0.25663 0.19268 0.50528 0.0
H725 H 0.18334 0.28709 0.50844 0.0
H726 H 0.20527 0.26353 0.50961 0.0
C727 C 0.26976 0.17984 0.50511 0.0
C728 C 0.22503 0.20145 0.50647 0.0
H729 H 0.19066 0.2183 0.45838 0.0
C730 C 0.22434 0.21288 0.53621 0.0
C731 C 0.21278 0.20337 0.47804 0.0
C732 C 0.21335 0.19179 0.44492 0.0
C733 C 0.21156 0.22616 0.53845 0.0
C734 C 0.19941 0.22819 0.50985 0.0
C735 C 0.20002 0.21666 0.48024 0.0
C736 C 0.18614 0.24241 0.5098 0.0
C737 C 0.21101 0.23771 0.57161 0.0
C738 C 0.16815 0.23829 0.50875 0.0
C739 C 0.1556 0.25171 0.50784 0.0
C740 C 0.16087 0.26945 0.50777 0.0
C741 C 0.1789 0.27353 0.50869 0.0
C742 C 0.19143 0.26011 0.50956 0.0
H743 H 0.21794 0.23152 0.59478 0.0
H744 H 0.21763 0.2504 0.5656 0.0
H745 H 0.19723 0.24056 0.5797 0.0
H746 H 0.16384 0.22468 0.5087 0.0
H747 H 0.14179 0.24819 0.50705 0.0
H748 H 0.84691 0.24364 0.50632 0.0
H749 H 0.82436 0.22055 0.50634 0.0
H750 H 0.7838 0.26012 0.51385 0.0
H751 H 0.8062 0.28326 0.51348 0.0
H752 H 0.79789 0.21358 0.55886 0.0
H753 H 0.76949 0.23055 0.42517 0.0
H754 H 0.79071 0.2385 0.4399 0.0
H755 H 0.77089 0.2487 0.45619 0.0
C756 C 0.83318 0.2474 0.50799 0.0
C757 C 0.82828 0.26523 0.50968 0.0
C758 C 0.82035 0.23422 0.50801 0.0
C759 C 0.80246 0.23869 0.50951 0.0
C760 C 0.79755 0.25645 0.51196 0.0
H761 H 0.70391 0.18249 0.51173 0.0
H762 H 0.72754 0.20438 0.51275 0.0
C763 C 0.81035 0.26963 0.51194 0.0
C764 C 0.78888 0.22478 0.50878 0.0
H765 H 0.75377 0.20971 0.46039 0.0
C766 C 0.78829 0.21263 0.53726 0.0
C767 C 0.77644 0.22364 0.48051 0.0
C768 C 0.77695 0.23593 0.44851 0.0
C769 C 0.77524 0.19958 0.5387 0.0
C770 C 0.7627 0.19855 0.51057 0.0
C771 C 0.7634 0.21061 0.48194 0.0
C772 C 0.74856 0.18519 0.5105 0.0
C773 C 0.77468 0.18732 0.57073 0.0
C774 C 0.75261 0.16719 0.50853 0.0
C775 C 0.73915 0.15466 0.50799 0.0
C776 C 0.72145 0.15997 0.50918 0.0
C777 C 0.71744 0.17802 0.51085 0.0
C778 C 0.7309 0.19053 0.51142 0.0
H779 H 0.78247 0.19249 0.59381 0.0
H780 H 0.76092 0.18513 0.57982 0.0
H781 H 0.7803 0.17439 0.56286 0.0
H782 H 0.76617 0.16285 0.50708 0.0
H783 H 0.74261 0.14084 0.50651 0.0
H784 H 0.12238 0.30722 0.37288 0.0
H785 H 0.12774 0.31808 0.31185 0.0
H786 H 0.14943 0.36609 0.35537 0.0
H787 H 0.14401 0.3553 0.417 0.0
H788 H 0.11553 0.35241 0.27941 0.0
H789 H 0.18823 0.34324 0.28675 0.0
H790 H 0.17335 0.33183 0.31674 0.0
H791 H 0.17753 0.35487 0.32303 0.0
C792 C 0.12826 0.32012 0.36956 0.0
C793 C 0.13288 0.33039 0.39972 0.0
C794 C 0.13123 0.32632 0.33467 0.0
C795 C 0.13903 0.34281 0.32922 0.0
C796 C 0.14347 0.35326 0.35917 0.0
H797 H 0.18044 0.38375 0.12697 0.0
H798 H 0.1715 0.38067 0.18997 0.0
C799 C 0.14037 0.34711 0.39425 0.0
C800 C 0.14292 0.34865 0.29201 0.0
H801 H 0.1765 0.35273 0.23155 0.0
C802 C 0.12886 0.35266 0.26891 0.0
C803 C 0.16031 0.34895 0.27861 0.0
C804 C 0.1758 0.34443 0.30235 0.0
C805 C 0.13174 0.35687 0.23246 0.0
C806 C 0.14911 0.35656 0.21866 0.0
C807 C 0.16319 0.35293 0.2421 0.0
C808 C 0.15308 0.35948 0.17988 0.0
C809 C 0.11617 0.36173 0.20925 0.0
C810 C 0.14559 0.34869 0.1531 0.0
C811 C 0.15055 0.35056 0.11691 0.0
C812 C 0.16332 0.36304 0.10704 0.0
C813 C 0.1706 0.37398 0.13378 0.0
C814 C 0.1655 0.37224 0.16981 0.0
H815 H 0.1051 0.36685 0.22583 0.0
H816 H 0.11976 0.37183 0.18887 0.0
H817 H 0.11143 0.34982 0.19486 0.0
H818 H 0.13632 0.33844 0.16031 0.0
H819 H 0.14485 0.34186 0.09689 0.0
H820 H 0.64174 0.15025 0.41916 0.0
H821 H 0.63283 0.15636 0.3566 0.0
H822 H 0.66986 0.11761 0.31824 0.0
H823 H 0.67892 0.11156 0.38031 0.0
H824 H 0.65959 0.16702 0.30016 0.0
H825 H 0.62133 0.10681 0.26561 0.0
H826 H 0.62406 0.11441 0.31155 0.0
H827 H 0.64191 0.10364 0.28878 0.0
C828 C 0.64779 0.1429 0.39738 0.0
C829 C 0.66105 0.13048 0.40453 0.0
C830 C 0.64271 0.14639 0.36177 0.0
C831 C 0.6506 0.1373 0.33299 0.0
C832 C 0.66348 0.12458 0.34017 0.0
H833 H 0.64586 0.14222 0.09854 0.0
H834 H 0.65098 0.13361 0.16162 0.0
C835 C 0.66869 0.12123 0.37561 0.0
C836 C 0.64649 0.14202 0.29525 0.0
H837 H 0.62802 0.12631 0.21763 0.0
C838 C 0.65256 0.15822 0.28213 0.0
C839 C 0.63759 0.13032 0.27185 0.0
C840 C 0.63071 0.11284 0.28503 0.0
C841 C 0.65019 0.16298 0.24588 0.0
C842 C 0.64106 0.1514 0.22245 0.0
C843 C 0.63499 0.13516 0.23564 0.0
C844 C 0.63744 0.15613 0.18435 0.0
C845 C 0.65795 0.18015 0.23285 0.0
C846 C 0.62782 0.17138 0.17633 0.0
C847 C 0.62507 0.17638 0.14057 0.0
C848 C 0.63163 0.16607 0.11205 0.0
C849 C 0.64073 0.15045 0.12001 0.0
C850 C 0.64363 0.14552 0.15596 0.0
H851 H 0.66879 0.18472 0.25069 0.0
H852 H 0.66313 0.17889 0.20492 0.0
H853 H 0.64758 0.19043 0.23297 0.0
H854 H 0.62251 0.1795 0.19778 0.0
H855 H 0.61779 0.18837 0.1353 0.0
H856 H 0.86424 0.6896 0.37931 0.0
H857 H 0.85787 0.68046 0.31755 0.0
H858 H 0.84434 0.62846 0.35517 0.0
H859 H 0.85079 0.63752 0.41758 0.0
H860 H 0.86695 0.63053 0.28956 0.0
H861 H 0.80637 0.67135 0.28232 0.0
H862 H 0.82567 0.68279 0.29774 0.0
H863 H 0.81655 0.66533 0.3246 0.0
C864 C 0.85996 0.67618 0.37455 0.0
C865 C 0.85787 0.6643 0.40334 0.0
C866 C 0.85632 0.67101 0.33923 0.0
C867 C 0.85046 0.65388 0.33195 0.0
C868 C 0.8488 0.64177 0.36039 0.0
H869 H 0.79865 0.62211 0.13483 0.0
H870 H 0.80759 0.62673 0.19735 0.0
C871 C 0.85244 0.64697 0.39594 0.0
C872 C 0.84556 0.64895 0.29464 0.0
H873 H 0.81657 0.65897 0.22743 0.0
C874 C 0.85588 0.63663 0.27595 0.0
C875 C 0.83105 0.65689 0.27718 0.0
C876 C 0.81915 0.66972 0.2965 0.0
C877 C 0.85225 0.63229 0.23979 0.0
C878 C 0.83805 0.64065 0.22203 0.0
C879 C 0.82755 0.65271 0.24104 0.0
C880 C 0.83341 0.6368 0.18399 0.0
C881 C 0.86346 0.6187 0.22103 0.0
C882 C 0.845 0.64094 0.15567 0.0
C883 C 0.83991 0.63832 0.11971 0.0
C884 C 0.82312 0.63161 0.11165 0.0
C885 C 0.81167 0.62733 0.14014 0.0
C886 C 0.81675 0.62994 0.17591 0.0
H887 H 0.87113 0.61067 0.24056 0.0
H888 H 0.85522 0.60976 0.20436 0.0
H889 H 0.8729 0.62545 0.20282 0.0
H890 H 0.85781 0.64656 0.16135 0.0
H891 H 0.84898 0.64176 0.09829 0.0
H892 H 0.35072 0.84448 0.41865 0.0
H893 H 0.36118 0.83941 0.35671 0.0
H894 H 0.31795 0.87013 0.31534 0.0
H895 H 0.30745 0.87522 0.37673 0.0
H896 H 0.33994 0.82275 0.302 0.0
H897 H 0.36141 0.88966 0.26077 0.0
H898 H 0.35907 0.88323 0.3075 0.0
H899 H 0.33998 0.88876 0.28124 0.0
C900 C 0.34362 0.85034 0.39633 0.0
C901 C 0.32826 0.8602 0.40247 0.0
C902 C 0.34959 0.84744 0.36105 0.0
C903 C 0.34045 0.85461 0.33156 0.0
C904 C 0.32537 0.86478 0.33776 0.0
H905 H 0.33888 0.84504 0.09918 0.0
H906 H 0.33505 0.85403 0.16241 0.0
C907 C 0.31933 0.86755 0.37286 0.0
C908 C 0.34563 0.85024 0.29411 0.0
H909 H 0.35773 0.86853 0.21365 0.0
C910 C 0.34407 0.83269 0.28275 0.0
C911 C 0.35077 0.86332 0.26909 0.0
C912 C 0.35307 0.88229 0.28023 0.0
C913 C 0.34698 0.82792 0.24666 0.0
C914 C 0.35204 0.84101 0.22149 0.0
C915 C 0.35385 0.85854 0.23299 0.0
C916 C 0.35531 0.83669 0.18304 0.0
C917 C 0.34394 0.80901 0.23559 0.0
C918 C 0.3683 0.82441 0.17366 0.0
C919 C 0.37037 0.81916 0.13781 0.0
C920 C 0.35967 0.82631 0.11056 0.0
C921 C 0.34726 0.83928 0.11967 0.0
C922 C 0.34508 0.84442 0.15572 0.0
H923 H 0.3356 0.80188 0.25543 0.0
H924 H 0.33754 0.80824 0.20868 0.0
H925 H 0.35678 0.80211 0.234 0.0
H926 H 0.37664 0.81863 0.19418 0.0
H927 H 0.3802 0.8093 0.13152 0.0
H928 H 0.1367 0.68802 0.62913 0.0
H929 H 0.14003 0.67838 0.69148 0.0
H930 H 0.1304 0.62464 0.65901 0.0
H931 H 0.12759 0.63421 0.59593 0.0
H932 H 0.1169 0.66235 0.73597 0.0
H933 H 0.17569 0.61988 0.71527 0.0
H934 H 0.16779 0.63476 0.68099 0.0
H935 H 0.15678 0.61414 0.68867 0.0
C936 C 0.13538 0.67412 0.63517 0.0
C937 C 0.13201 0.66183 0.60766 0.0
C938 C 0.13722 0.66864 0.67086 0.0
C939 C 0.13562 0.65078 0.6799 0.0
C940 C 0.13203 0.63845 0.65255 0.0
H941 H 0.1342 0.62368 0.91237 0.0
H942 H 0.12451 0.62708 0.84949 0.0
C943 C 0.13038 0.64392 0.61659 0.0
C944 C 0.13786 0.64537 0.71808 0.0
H945 H 0.16471 0.62212 0.7744 0.0
C946 C 0.12726 0.65343 0.74442 0.0
C947 C 0.15143 0.63378 0.72897 0.0
C948 C 0.16369 0.62523 0.70211 0.0
C949 C 0.13029 0.6508 0.78141 0.0
C950 C 0.14405 0.63945 0.79228 0.0
C951 C 0.15416 0.6308 0.76593 0.0
C952 C 0.14935 0.63761 0.83061 0.0
C953 C 0.11937 0.66091 0.80843 0.0
C954 C 0.16653 0.64223 0.84073 0.0
C955 C 0.17211 0.64011 0.87628 0.0
C956 C 0.1606 0.6334 0.90257 0.0
C957 C 0.14328 0.62905 0.89268 0.0
C958 C 0.13773 0.63102 0.85684 0.0
H959 H 0.11198 0.67187 0.79559 0.0
H960 H 0.10968 0.65186 0.82103 0.0
H961 H 0.12778 0.66644 0.83018 0.0
H962 H 0.1757 0.6474 0.82098 0.0
H963 H 0.18554 0.64359 0.8831 0.0
H964 H 0.34945 0.14463 0.59433 0.0
H965 H 0.36014 0.14924 0.65629 0.0
H966 H 0.3141 0.12301 0.69802 0.0
H967 H 0.30335 0.11843 0.63665 0.0
H968 H 0.34007 0.16781 0.71217 0.0
H969 H 0.35635 0.09905 0.75075 0.0
H970 H 0.35474 0.10612 0.70428 0.0
H971 H 0.33515 0.10196 0.73007 0.0
C972 C 0.34171 0.13973 0.61675 0.0
C973 C 0.32557 0.1312 0.6107 0.0
C974 C 0.34783 0.14235 0.65202 0.0
C975 C 0.33801 0.13623 0.68159 0.0
C976 C 0.32201 0.12754 0.67553 0.0
H977 H 0.3388 0.14318 0.91424 0.0
H978 H 0.33403 0.1352 0.85072 0.0
C979 C 0.31584 0.12505 0.64044 0.0
C980 C 0.34371 0.13992 0.71899 0.0
H981 H 0.35494 0.12007 0.79839 0.0
C982 C 0.34355 0.15743 0.73097 0.0
C983 C 0.34801 0.12628 0.7434 0.0
C984 C 0.34874 0.10729 0.73152 0.0
C985 C 0.34703 0.16166 0.76714 0.0
C986 C 0.35127 0.14801 0.79172 0.0
C987 C 0.35169 0.1305 0.77954 0.0
C988 C 0.35503 0.1517 0.83026 0.0
C989 C 0.34542 0.18064 0.77894 0.0
C990 C 0.36875 0.16315 0.83984 0.0
C991 C 0.37133 0.16785 0.87586 0.0
C992 C 0.36046 0.16094 0.90309 0.0
C993 C 0.34733 0.14873 0.89376 0.0
C994 C 0.34461 0.14418 0.85754 0.0
H995 H 0.33741 0.18848 0.7597 0.0
H996 H 0.33936 0.18165 0.80614 0.0
H997 H 0.35873 0.18664 0.78011 0.0
H998 H 0.37727 0.1687 0.81935 0.0
H999 H 0.38172 0.17711 0.88233 0.0
H1000 H 0.85085 0.34002 0.91709 0.0
H1001 H 0.86157 0.33421 0.8556 0.0
H1002 H 0.82445 0.37188 0.81337 0.0
H1003 H 0.81375 0.37774 0.8743 0.0
H1004 H 0.83937 0.32163 0.79881 0.0
H1005 H 0.87097 0.38506 0.76243 0.0
H1006 H 0.86677 0.37867 0.80863 0.0
H1007 H 0.84927 0.38725 0.78114 0.0
C1008 C 0.8452 0.34724 0.89471 0.0
C1009 C 0.83145 0.3593 0.90044 0.0
C1010 C 0.85131 0.34391 0.85968 0.0
C1011 C 0.84395 0.3528 0.83006 0.0
C1012 C 0.83055 0.36515 0.83591 0.0
H1013 H 0.8443 0.34568 0.59714 0.0
H1014 H 0.84054 0.35434 0.66061 0.0
C1015 C 0.82436 0.36837 0.87075 0.0
C1016 C 0.84902 0.34811 0.79268 0.0
H1017 H 0.86472 0.36533 0.71383 0.0
C1018 C 0.84514 0.33109 0.78031 0.0
C1019 C 0.85634 0.36057 0.76862 0.0
C1020 C 0.86124 0.37888 0.78088 0.0
C1021 C 0.84787 0.32633 0.74415 0.0
C1022 C 0.85506 0.33883 0.71994 0.0
C1023 C 0.85918 0.35579 0.73244 0.0
C1024 C 0.85826 0.33448 0.68149 0.0
C1025 C 0.84243 0.30815 0.73193 0.0
C1026 C 0.86981 0.32081 0.67224 0.0
C1027 C 0.87186 0.3158 0.63625 0.0
C1028 C 0.86257 0.32451 0.60873 0.0
C1029 C 0.85158 0.33871 0.61782 0.0
C1030 C 0.84944 0.34366 0.65399 0.0
H1031 H 0.83301 0.30196 0.75106 0.0
H1032 H 0.83626 0.30858 0.70476 0.0
H1033 H 0.85424 0.29959 0.73036 0.0
H1034 H 0.87705 0.31384 0.69296 0.0
H1035 H 0.88059 0.30493 0.63006 0.0
H1036 H 0.6115 0.80605 0.87472 0.0
H1037 H 0.61658 0.81494 0.81234 0.0
H1038 H 0.65021 0.85714 0.84879 0.0
H1039 H 0.64478 0.84854 0.91181 0.0
H1040 H 0.6279 0.86702 0.79246 0.0
H1041 H 0.66234 0.80459 0.76 0.0
H1042 H 0.64066 0.80124 0.77789 0.0
H1043 H 0.65738 0.81113 0.80571 0.0
C1044 C 0.61994 0.81728 0.86953 0.0
C1045 C 0.62793 0.82649 0.89808 0.0
C1046 C 0.62288 0.82228 0.83385 0.0
C1047 C 0.63411 0.83641 0.82593 0.0
C1048 C 0.64161 0.84609 0.85439 0.0
H1049 H 0.67951 0.87716 0.62984 0.0
H1050 H 0.66964 0.87228 0.69181 0.0
C1051 C 0.63852 0.84118 0.89029 0.0
C1052 C 0.63826 0.84071 0.78787 0.0
H1053 H 0.65525 0.82312 0.71048 0.0
C1054 C 0.63395 0.85747 0.77455 0.0
C1055 C 0.64619 0.82821 0.7646 0.0
C1056 C 0.65208 0.81035 0.77782 0.0
C1057 C 0.63709 0.86194 0.73832 0.0
C1058 C 0.6448 0.84935 0.71506 0.0
C1059 C 0.64912 0.83264 0.72837 0.0
C1060 C 0.64944 0.8535 0.67727 0.0
C1061 C 0.63201 0.88 0.72499 0.0
C1062 C 0.64135 0.84449 0.64862 0.0
C1063 C 0.64694 0.84727 0.61306 0.0
C1064 C 0.66088 0.8589 0.60584 0.0
C1065 C 0.66874 0.8681 0.6346 0.0
C1066 C 0.66305 0.86543 0.66999 0.0
H1067 H 0.6228 0.88672 0.74382 0.0
H1068 H 0.64402 0.88823 0.72248 0.0
H1069 H 0.62578 0.87916 0.69792 0.0
H1070 H 0.63091 0.8351 0.65385 0.0
H1071 H 0.64069 0.83998 0.59142 0.0
H1072 H 0.84183 0.64286 0.59902 0.0
H1073 H 0.8367 0.63444 0.6622 0.0
H1074 H 0.87675 0.67107 0.69651 0.0
H1075 H 0.88165 0.67978 0.63391 0.0
H1076 H 0.85882 0.62112 0.71669 0.0
H1077 H 0.83353 0.68749 0.75234 0.0
H1078 H 0.83665 0.68049 0.70622 0.0
H1079 H 0.85513 0.68772 0.73272 0.0
C1080 C 0.84961 0.64899 0.62007 0.0
C1081 C 0.86197 0.66213 0.61164 0.0
C1082 C 0.84668 0.64418 0.65608 0.0
C1083 C 0.85609 0.65243 0.68404 0.0
C1084 C 0.86905 0.66487 0.67543 0.0
H1085 H 0.84844 0.64812 0.9193 0.0
H1086 H 0.85902 0.65288 0.85735 0.0
C1087 C 0.87188 0.66977 0.63961 0.0
C1088 C 0.85201 0.64851 0.72232 0.0
H1089 H 0.83779 0.66756 0.80065 0.0
C1090 C 0.8542 0.63125 0.73506 0.0
C1091 C 0.84598 0.66177 0.74621 0.0
C1092 C 0.84251 0.68037 0.73368 0.0
C1093 C 0.85067 0.62693 0.77122 0.0
C1094 C 0.84464 0.6402 0.79502 0.0
C1095 C 0.84259 0.65747 0.78236 0.0
C1096 C 0.83926 0.63628 0.83256 0.0
C1097 C 0.85352 0.60825 0.78379 0.0
C1098 C 0.82465 0.62546 0.83896 0.0
C1099 C 0.81855 0.62284 0.87407 0.0
C1100 C 0.82694 0.63101 0.90349 0.0
C1101 C 0.84177 0.64163 0.89715 0.0
C1102 C 0.84781 0.64434 0.86186 0.0
H1103 H 0.8624 0.60089 0.76531 0.0
H1104 H 0.85918 0.608 0.81142 0.0
H1105 H 0.84068 0.6013 0.78451 0.0
H1106 H 0.81767 0.6194 0.81667 0.0
H1107 H 0.80708 0.61459 0.87808 0.0
H1108 H 0.30521 0.87764 0.63222 0.0
H1109 H 0.31359 0.87304 0.69509 0.0
H1110 H 0.35279 0.8353 0.66152 0.0
H1111 H 0.34482 0.84034 0.59819 0.0
H1112 H 0.31072 0.84356 0.73246 0.0
H1113 H 0.38069 0.86414 0.73224 0.0
H1114 H 0.36601 0.86888 0.69519 0.0
H1115 H 0.37606 0.84749 0.69918 0.0
C1116 C 0.31578 0.86852 0.63818 0.0
C1117 C 0.32438 0.85934 0.61035 0.0
C1118 C 0.32055 0.86591 0.67413 0.0
C1119 C 0.33396 0.85399 0.68307 0.0
C1120 C 0.34271 0.8449 0.65526 0.0
H1121 H 0.36518 0.80171 0.87748 0.0
H1122 H 0.35993 0.81195 0.8159 0.0
C1123 C 0.33807 0.84769 0.61912 0.0
C1124 C 0.33779 0.85022 0.72159 0.0
H1125 H 0.37075 0.84823 0.78421 0.0
C1126 C 0.32381 0.84479 0.74383 0.0
C1127 C 0.35487 0.85186 0.73647 0.0
C1128 C 0.37023 0.85858 0.71462 0.0
C1129 C 0.32654 0.84055 0.78024 0.0
C1130 C 0.34366 0.84176 0.79476 0.0
C1131 C 0.35762 0.84735 0.77281 0.0
C1132 C 0.34742 0.83624 0.83219 0.0
C1133 C 0.31122 0.83431 0.8028 0.0
C1134 C 0.3422 0.84666 0.86165 0.0
C1135 C 0.34525 0.84088 0.897 0.0
C1136 C 0.35343 0.82456 0.90323 0.0
C1137 C 0.35877 0.8143 0.87356 0.0
C1138 C 0.35585 0.82014 0.83837 0.0
H1139 H 0.2991 0.8324 0.78649 0.0
H1140 H 0.31456 0.82169 0.81632 0.0
H1141 H 0.30842 0.84416 0.82421 0.0
H1142 H 0.3357 0.85917 0.85725 0.0
H1143 H 0.34104 0.84906 0.91937 0.0
H1144 H 0.10594 0.31296 0.62705 0.0
H1145 H 0.10974 0.3214 0.6902 0.0
H1146 H 0.15304 0.35518 0.66041 0.0
H1147 H 0.14892 0.34718 0.59685 0.0
H1148 H 0.13772 0.315 0.73077 0.0
H1149 H 0.12637 0.387 0.72776 0.0
H1150 H 0.12058 0.37281 0.69047 0.0
H1151 H 0.14292 0.38024 0.69613 0.0
C1152 C 0.1161 0.32241 0.63388 0.0
C1153 C 0.12715 0.32944 0.60706 0.0
C1154 C 0.11825 0.32721 0.66999 0.0
C1155 C 0.13153 0.33908 0.68007 0.0
C1156 C 0.14241 0.34635 0.65322 0.0
H1157 H 0.18593 0.36627 0.87303 0.0
H1158 H 0.17473 0.36157 0.81201 0.0
C1159 C 0.14013 0.34169 0.61694 0.0
C1160 C 0.13487 0.34264 0.71888 0.0
H1161 H 0.14068 0.37558 0.78062 0.0
C1162 C 0.1381 0.32824 0.74176 0.0
C1163 C 0.13532 0.35991 0.73325 0.0
C1164 C 0.13093 0.37585 0.71069 0.0
C1165 C 0.14239 0.33068 0.77826 0.0
C1166 C 0.14344 0.34795 0.79222 0.0
C1167 C 0.13985 0.36235 0.76968 0.0
C1168 C 0.14958 0.35132 0.82944 0.0
C1169 C 0.14644 0.31484 0.80139 0.0
C1170 C 0.13903 0.34721 0.8594 0.0
C1171 C 0.14538 0.34994 0.89448 0.0
C1172 C 0.1624 0.35671 0.89992 0.0
C1173 C 0.1728 0.36095 0.86974 0.0
C1174 C 0.16641 0.35835 0.83485 0.0
H1175 H 0.14698 0.30246 0.7854 0.0
H1176 H 0.15923 0.31666 0.81543 0.0
H1177 H 0.13611 0.3134 0.82237 0.0
H1178 H 0.12595 0.34185 0.85563 0.0
H1179 H 0.13708 0.34661 0.91725 0.0
H1180 H 0.6488 0.14362 0.91627 0.0
H1181 H 0.65337 0.13456 0.85326 0.0
H1182 H 0.61185 0.16957 0.81941 0.0
H1183 H 0.60756 0.17899 0.8818 0.0
H1184 H 0.63157 0.11986 0.80081 0.0
H1185 H 0.65337 0.18676 0.76027 0.0
H1186 H 0.65094 0.18036 0.8069 0.0
H1187 H 0.63195 0.18641 0.78067 0.0
C1188 C 0.64059 0.14926 0.89536 0.0
C1189 C 0.62801 0.16218 0.9038 0.0
C1190 C 0.6432 0.14409 0.85945 0.0
C1191 C 0.63322 0.15172 0.83161 0.0
C1192 C 0.62002 0.16388 0.84034 0.0
H1193 H 0.63753 0.1441 0.59644 0.0
H1194 H 0.6275 0.14898 0.65873 0.0
C1195 C 0.61754 0.16918 0.87603 0.0
C1196 C 0.63696 0.14746 0.79332 0.0
H1197 H 0.64919 0.16605 0.7132 0.0
C1198 C 0.63545 0.12993 0.78165 0.0
C1199 C 0.64204 0.16066 0.7684 0.0
C1200 C 0.64485 0.17957 0.7797 0.0
C1201 C 0.63874 0.12528 0.74555 0.0
C1202 C 0.64376 0.13849 0.72073 0.0
C1203 C 0.64513 0.15601 0.73231 0.0
C1204 C 0.64882 0.13432 0.68313 0.0
C1205 C 0.63673 0.10631 0.73414 0.0
C1206 C 0.66411 0.12454 0.67643 0.0
C1207 C 0.66991 0.12189 0.64111 0.0
C1208 C 0.66051 0.12896 0.61182 0.0
C1209 C 0.64499 0.13847 0.6185 0.0
C1210 C 0.63926 0.14125 0.65398 0.0
H1211 H 0.62875 0.09866 0.75378 0.0
H1212 H 0.63048 0.10539 0.70711 0.0
H1213 H 0.64995 0.10014 0.7324 0.0
H1214 H 0.67183 0.11937 0.6986 0.0
H1215 H 0.68192 0.11449 0.63681 0.0
H1216 H 0.86249 0.29868 0.37543 0.0
H1217 H 0.85656 0.30826 0.31386 0.0
H1218 H 0.8417 0.35964 0.35312 0.0
H1219 H 0.84782 0.35015 0.41532 0.0
H1220 H 0.82426 0.32022 0.28749 0.0
H1221 H 0.87712 0.37027 0.27072 0.0
H1222 H 0.87746 0.35401 0.30629 0.0
H1223 H 0.86328 0.37283 0.30979 0.0
C1224 C 0.85805 0.31207 0.37107 0.0
C1225 C 0.85561 0.32368 0.40023 0.0
C1226 C 0.85467 0.31751 0.33583 0.0
C1227 C 0.84887 0.33469 0.32891 0.0
C1228 C 0.84646 0.3464 0.35788 0.0
H1229 H 0.79858 0.36674 0.12955 0.0
H1230 H 0.80632 0.36126 0.19249 0.0
C1231 C 0.84985 0.34094 0.39335 0.0
C1232 C 0.84463 0.33985 0.29136 0.0
H1233 H 0.85705 0.36693 0.22226 0.0
C1234 C 0.83139 0.33047 0.27325 0.0
C1235 C 0.85412 0.35307 0.2728 0.0
C1236 C 0.8689 0.36308 0.29067 0.0
C1237 C 0.82734 0.33395 0.23704 0.0
C1238 C 0.83662 0.34736 0.21861 0.0
C1239 C 0.84993 0.35672 0.2366 0.0
C1240 C 0.83254 0.3518 0.18063 0.0
C1241 C 0.81339 0.32302 0.21858 0.0
C1242 C 0.84493 0.34876 0.1532 0.0
C1243 C 0.84056 0.35192 0.11704 0.0
C1244 C 0.82376 0.35824 0.10793 0.0
C1245 C 0.81159 0.36173 0.13565 0.0
C1246 C 0.81597 0.35859 0.17164 0.0
H1247 H 0.81055 0.31068 0.2336 0.0
H1248 H 0.80102 0.33075 0.21698 0.0
H1249 H 0.81744 0.31956 0.19066 0.0
H1250 H 0.85782 0.34356 0.1597 0.0
H1251 H 0.85021 0.34919 0.09625 0.0
H1252 H 0.60705 0.80986 0.12886 0.0
H1253 H 0.61192 0.81878 0.19136 0.0
H1254 H 0.65204 0.85525 0.15653 0.0
H1255 H 0.64679 0.84673 0.09354 0.0
H1256 H 0.64154 0.81433 0.22838 0.0
H1257 H 0.62489 0.8854 0.22668 0.0
H1258 H 0.61913 0.87073 0.19015 0.0
H1259 H 0.64107 0.87952 0.19351 0.0
C1260 C 0.61673 0.81998 0.13445 0.0
C1261 C 0.62657 0.82761 0.10638 0.0
C1262 C 0.6195 0.82506 0.17018 0.0
C1263 C 0.63221 0.8378 0.17866 0.0
C1264 C 0.64186 0.8457 0.15059 0.0
H1265 H 0.685 0.86905 0.37327 0.0
H1266 H 0.67468 0.86422 0.31157 0.0
C1267 C 0.63894 0.84075 0.11465 0.0
C1268 C 0.63627 0.84167 0.21703 0.0
H1269 H 0.64006 0.87483 0.27895 0.0
C1270 C 0.64101 0.82754 0.23951 0.0
C1271 C 0.6356 0.85891 0.23152 0.0
C1272 C 0.62973 0.87448 0.20931 0.0
C1273 C 0.64548 0.83023 0.27582 0.0
C1274 C 0.64512 0.84748 0.29005 0.0
C1275 C 0.64027 0.86161 0.26781 0.0
C1276 C 0.65064 0.85113 0.32757 0.0
C1277 C 0.65104 0.81469 0.29851 0.0
C1278 C 0.64039 0.84552 0.35692 0.0
C1279 C 0.64623 0.84829 0.39231 0.0
C1280 C 0.66243 0.85665 0.39872 0.0
C1281 C 0.67249 0.86248 0.36919 0.0
C1282 C 0.6666 0.85981 0.33394 0.0
H1283 H 0.65314 0.80265 0.28201 0.0
H1284 H 0.66337 0.81775 0.31333 0.0
H1285 H 0.64067 0.81185 0.31879 0.0
H1286 H 0.62796 0.83888 0.35241 0.0
H1287 H 0.63819 0.84371 0.41457 0.0
H1288 H 0.11372 0.67749 0.37525 0.0
H1289 H 0.11816 0.66641 0.31412 0.0
H1290 H 0.15193 0.62542 0.35518 0.0
H1291 H 0.14764 0.63657 0.41685 0.0
H1292 H 0.16638 0.64503 0.29806 0.0
H1293 H 0.0991 0.62223 0.26397 0.0
H1294 H 0.09977 0.64426 0.28156 0.0
H1295 H 0.10616 0.62612 0.30986 0.0
C1296 C 0.12196 0.666 0.37139 0.0
C1297 C 0.13036 0.65789 0.40083 0.0
C1298 C 0.12435 0.6596 0.33644 0.0
C1299 C 0.13513 0.64493 0.33021 0.0
C1300 C 0.14342 0.63667 0.35955 0.0
H1301 H 0.17567 0.6024 0.12813 0.0
H1302 H 0.1673 0.60629 0.19131 0.0
C1303 C 0.14097 0.64304 0.39468 0.0
C1304 C 0.13878 0.63924 0.29273 0.0
H1305 H 0.11896 0.62614 0.21442 0.0
C1306 C 0.15608 0.64065 0.27987 0.0
C1307 C 0.12525 0.63369 0.26908 0.0
C1308 C 0.10655 0.63132 0.28186 0.0
C1309 C 0.16014 0.63725 0.2436 0.0
C1310 C 0.14657 0.63195 0.21979 0.0
C1311 C 0.12931 0.63024 0.23277 0.0
C1312 C 0.15011 0.62844 0.18116 0.0
C1313 C 0.17881 0.63998 0.2308 0.0
C1314 C 0.14257 0.63912 0.15437 0.0
C1315 C 0.14722 0.63684 0.1181 0.0
C1316 C 0.15946 0.62383 0.10822 0.0
C1317 C 0.16633 0.61265 0.13497 0.0
C1318 C 0.16163 0.61489 0.17109 0.0
H1319 H 0.18659 0.64803 0.25011 0.0
H1320 H 0.18537 0.62699 0.22805 0.0
H1321 H 0.17904 0.64654 0.20402 0.0
H1322 H 0.13357 0.64959 0.16167 0.0
H1323 H 0.14171 0.64561 0.09803 0.0
H1324 H 0.3071 0.10821 0.3819 0.0
H1325 H 0.31641 0.11177 0.31926 0.0
H1326 H 0.35278 0.15248 0.35165 0.0
H1327 H 0.34389 0.14855 0.41477 0.0
H1328 H 0.31254 0.14029 0.27895 0.0
H1329 H 0.38345 0.12373 0.28565 0.0
H1330 H 0.36842 0.11891 0.32208 0.0
H1331 H 0.3774 0.14071 0.31697 0.0
C1332 C 0.31726 0.11776 0.37575 0.0
C1333 C 0.32478 0.12812 0.40318 0.0
C1334 C 0.32257 0.11977 0.33994 0.0
C1335 C 0.33544 0.13223 0.33074 0.0
C1336 C 0.34315 0.14247 0.35818 0.0
H1337 H 0.36886 0.18305 0.13697 0.0
H1338 H 0.36328 0.17272 0.19833 0.0
C1339 C 0.33798 0.1403 0.39419 0.0
C1340 C 0.33972 0.13539 0.29219 0.0
H1341 H 0.37364 0.13836 0.23194 0.0
C1342 C 0.32588 0.13963 0.2686 0.0
C1343 C 0.35713 0.1345 0.27868 0.0
C1344 C 0.37242 0.12904 0.30209 0.0
C1345 C 0.32903 0.14354 0.23217 0.0
C1346 C 0.34645 0.14312 0.21897 0.0
C1347 C 0.36029 0.13862 0.24228 0.0
C1348 C 0.35064 0.14854 0.18163 0.0
C1349 C 0.31379 0.14867 0.20827 0.0
C1350 C 0.34555 0.13819 0.15198 0.0
C1351 C 0.34877 0.14403 0.11673 0.0
C1352 C 0.35703 0.16034 0.1108 0.0
C1353 C 0.36238 0.17046 0.14066 0.0
C1354 C 0.35928 0.16457 0.17573 0.0
H1355 H 0.30145 0.15069 0.22385 0.0
H1356 H 0.31688 0.16096 0.19331 0.0
H1357 H 0.31145 0.13812 0.18808 0.0
H1358 H 0.33896 0.1257 0.15613 0.0
H1359 H 0.34456 0.13596 0.09422 0.0
loop_
_geom_bond_atom_site_label_1
_geom_bond_atom_site_label_2
_geom_bond_distance
_geom_bond_site_symmetry_2
_ccdc_geom_bond_type
In0 O1 2.294 . S
In0 O2 2.326 . S
In0 O6 2.266 1_554 S
In0 O7 2.326 1_554 S
In0 O8 2.266 1_554 S
In0 O9 2.326 . S
In0 O11 2.294 . S
In0 O12 2.326 . S
O1 In0 2.294 . S
O1 C10 1.240 . S
O2 In0 2.326 . S
O2 C10 1.252 . S
C3 O6 1.252 . S
C3 O7 1.260 . S
C4 O11 1.240 . S
C4 O12 1.252 . S
C5 O8 1.252 . S
C5 O9 1.259 1_556 S
O6 In0 2.266 1_556 S
O6 C3 1.252 . S
O7 In0 2.326 1_556 S
O7 C3 1.260 . S
O8 In0 2.266 1_556 S
O8 C5 1.252 . S
O9 In0 2.326 . S
O9 C5 1.259 1_554 S
C10 O1 1.240 . S
C10 O2 1.252 . S
O11 In0 2.294 . S
O11 C4 1.240 . S
O12 In0 2.326 . S
O12 C4 1.252 . S
In13 O14 2.294 . S
In13 O15 2.326 . S
In13 O19 2.266 1_554 S
In13 O20 2.326 1_554 S
In13 O21 2.266 1_554 S
In13 O22 2.326 . S
In13 O24 2.294 . S
In13 O25 2.326 . S
O14 In13 2.294 . S
O14 C23 1.240 . S
O15 In13 2.326 . S
O15 C23 1.252 . S
C16 O19 1.252 . S
C16 O20 1.260 . S
C17 O24 1.240 . S
C17 O25 1.252 . S
C18 O21 1.252 . S
C18 O22 1.259 1_556 S
O19 In13 2.266 1_556 S
O19 C16 1.252 . S
O20 In13 2.326 1_556 S
O20 C16 1.260 . S
O21 In13 2.266 1_556 S
O21 C18 1.252 . S
O22 In13 2.326 . S
O22 C18 1.259 1_554 S
C23 O14 1.240 . S
C23 O15 1.252 . S
O24 In13 2.294 . S
O24 C17 1.240 . S
O25 In13 2.326 . S
O25 C17 1.252 . S
In26 O27 2.294 . S
In26 O28 2.326 . S
In26 O32 2.266 1_554 S
In26 O33 2.326 . S
In26 O34 2.266 1_554 S
In26 O35 2.326 1_554 S
In26 O37 2.294 . S
In26 O38 2.326 . S
O27 In26 2.294 . S
O27 C36 1.240 . S
O28 In26 2.326 . S
O28 C36 1.252 . S
C29 O32 1.252 . S
C29 O33 1.259 1_556 S
C30 O37 1.240 . S
C30 O38 1.252 . S
C31 O34 1.252 . S
C31 O35 1.260 . S
O32 In26 2.266 1_556 S
O32 C29 1.252 . S
O33 In26 2.326 . S
O33 C29 1.259 1_554 S
O34 In26 2.266 1_556 S
O34 C31 1.252 . S
O35 In26 2.326 1_556 S
O35 C31 1.260 . S
C36 O27 1.240 . S
C36 O28 1.252 . S
O37 In26 2.294 . S
O37 C30 1.240 . S
O38 In26 2.326 . S
O38 C30 1.252 . S
In39 O40 2.294 . S
In39 O41 2.326 . S
In39 O45 2.266 1_554 S
In39 O46 2.326 1_554 S
In39 O47 2.266 1_554 S
In39 O48 2.326 . S
In39 O50 2.294 . S
In39 O51 2.326 . S
O40 In39 2.294 . S
O40 C49 1.240 . S
O41 In39 2.326 . S
O41 C49 1.252 . S
C42 O45 1.252 . S
C42 O46 1.260 . S
C43 O50 1.240 . S
C43 O51 1.252 . S
C44 O47 1.252 . S
C44 O48 1.259 1_556 S
O45 In39 2.266 1_556 S
O45 C42 1.252 . S
O46 In39 2.326 1_556 S
O46 C42 1.260 . S
O47 In39 2.266 1_556 S
O47 C44 1.252 . S
O48 In39 2.326 . S
O48 C44 1.259 1_554 S
C49 O40 1.240 . S
C49 O41 1.252 . S
O50 In39 2.294 . S
O50 C43 1.240 . S
O51 In39 2.326 . S
O51 C43 1.252 . S
In52 O53 2.294 1_554 S
In52 O54 2.326 1_554 S
In52 O58 2.266 . S
In52 O59 2.326 . S
In52 O60 2.266 . S
In52 O61 2.326 . S
In52 O63 2.292 1_554 S
In52 O64 2.326 . S
O53 In52 2.294 1_556 S
O53 C62 1.240 . S
O54 In52 2.326 1_556 S
O54 C62 1.252 . S
C55 O58 1.252 . S
C55 O59 1.260 . S
C56 O63 1.240 . S
C56 O64 1.251 1_556 S
C57 O60 1.252 . S
C57 O61 1.260 . S
O58 In52 2.266 . S
O58 C55 1.252 . S
O59 In52 2.326 . S
O59 C55 1.260 . S
O60 In52 2.266 . S
O60 C57 1.252 . S
O61 In52 2.326 . S
O61 C57 1.260 . S
C62 O53 1.240 . S
C62 O54 1.252 . S
O63 In52 2.292 1_556 S
O63 C56 1.240 . S
O64 In52 2.326 . S
O64 C56 1.251 1_554 S
In65 O66 2.292 1_554 S
In65 O67 2.326 . S
In65 O71 2.266 . S
In65 O72 2.326 . S
In65 O73 2.266 . S
In65 O74 2.326 . S
In65 O76 2.294 1_554 S
In65 O77 2.326 1_554 S
O66 In65 2.292 1_556 S
O66 C75 1.240 . S
O67 In65 2.326 . S
O67 C75 1.251 1_554 S
C68 O71 1.252 . S
C68 O72 1.260 . S
C69 O76 1.240 . S
C69 O77 1.252 . S
C70 O73 1.252 . S
C70 O74 1.260 . S
O71 In65 2.266 . S
O71 C68 1.252 . S
O72 In65 2.326 . S
O72 C68 1.260 . S
O73 In65 2.266 . S
O73 C70 1.252 . S
O74 In65 2.326 . S
O74 C70 1.260 . S
C75 O66 1.240 . S
C75 O67 1.251 1_556 S
O76 In65 2.294 1_556 S
O76 C69 1.240 . S
O77 In65 2.326 1_556 S
O77 C69 1.252 . S
In78 O79 2.294 1_554 S
In78 O80 2.326 1_554 S
In78 O84 2.266 . S
In78 O85 2.326 . S
In78 O86 2.266 . S
In78 O87 2.326 . S
In78 O89 2.292 1_554 S
In78 O90 2.326 . S
O79 In78 2.294 1_556 S
O79 C88 1.240 . S
O80 In78 2.326 1_556 S
O80 C88 1.252 . S
C81 O84 1.252 . S
C81 O85 1.260 . S
C82 O89 1.240 . S
C82 O90 1.251 1_556 S
C83 O86 1.252 . S
C83 O87 1.260 . S
O84 In78 2.266 . S
O84 C81 1.252 . S
O85 In78 2.326 . S
O85 C81 1.260 . S
O86 In78 2.266 . S
O86 C83 1.252 . S
O87 In78 2.326 . S
O87 C83 1.260 . S
C88 O79 1.240 . S
C88 O80 1.252 . S
O89 In78 2.292 1_556 S
O89 C82 1.240 . S
O90 In78 2.326 . S
O90 C82 1.251 1_554 S
In91 O92 2.294 1_554 S
In91 O93 2.326 1_554 S
In91 O97 2.266 . S
In91 O98 2.326 . S
In91 O99 2.266 . S
In91 O100 2.326 . S
In91 O102 2.292 1_554 S
In91 O103 2.326 . S
O92 In91 2.294 1_556 S
O92 C101 1.240 . S
O93 In91 2.326 1_556 S
O93 C101 1.252 . S
C94 O97 1.252 . S
C94 O98 1.260 . S
C95 O102 1.240 . S
C95 O103 1.251 1_556 S
C96 O99 1.252 . S
C96 O100 1.260 . S
O97 In91 2.266 . S
O97 C94 1.252 . S
O98 In91 2.326 . S
O98 C94 1.260 . S
O99 In91 2.266 . S
O99 C96 1.252 . S
O100 In91 2.326 . S
O100 C96 1.260 . S
C101 O92 1.240 . S
C101 O93 1.252 . S
O102 In91 2.292 1_556 S
O102 C95 1.240 . S
O103 In91 2.326 . S
O103 C95 1.251 1_554 S
In104 O105 2.294 . S
In104 O106 2.326 . S
In104 O110 2.266 . S
In104 O111 2.326 . S
In104 O112 2.266 . S
In104 O113 2.326 . S
In104 O115 2.294 . S
In104 O116 2.326 . S
O105 In104 2.294 . S
O105 C114 1.240 . S
O106 In104 2.326 . S
O106 C114 1.252 . S
C107 O110 1.252 . S
C107 O111 1.260 . S
C108 O115 1.240 . S
C108 O116 1.252 . S
C109 O112 1.252 . S
C109 O113 1.260 . S
O110 In104 2.266 . S
O110 C107 1.252 . S
O111 In104 2.326 . S
O111 C107 1.260 . S
O112 In104 2.266 . S
O112 C109 1.252 . S
O113 In104 2.326 . S
O113 C109 1.260 . S
C114 O105 1.240 . S
C114 O106 1.252 . S
O115 In104 2.294 . S
O115 C108 1.240 . S
O116 In104 2.326 . S
O116 C108 1.252 . S
In117 O118 2.294 . S
In117 O119 2.326 . S
In117 O123 2.266 . S
In117 O124 2.326 . S
In117 O125 2.266 . S
In117 O126 2.326 . S
In117 O128 2.294 . S
In117 O129 2.326 . S
O118 In117 2.294 . S
O118 C127 1.240 . S
O119 In117 2.326 . S
O119 C127 1.252 . S
C120 O123 1.252 . S
C120 O124 1.260 . S
C121 O128 1.240 . S
C121 O129 1.252 . S
C122 O125 1.252 . S
C122 O126 1.260 . S
O123 In117 2.266 . S
O123 C120 1.252 . S
O124 In117 2.326 . S
O124 C120 1.260 . S
O125 In117 2.266 . S
O125 C122 1.252 . S
O126 In117 2.326 . S
O126 C122 1.260 . S
C127 O118 1.240 . S
C127 O119 1.252 . S
O128 In117 2.294 . S
O128 C121 1.240 . S
O129 In117 2.326 . S
O129 C121 1.252 . S
In130 O131 2.294 . S
In130 O132 2.326 . S
In130 O136 2.266 . S
In130 O137 2.326 . S
In130 O138 2.266 . S
In130 O139 2.326 . S
In130 O141 2.294 . S
In130 O142 2.326 . S
O131 In130 2.294 . S
O131 C140 1.240 . S
O132 In130 2.326 . S
O132 C140 1.252 . S
C133 O136 1.252 . S
C133 O137 1.260 . S
C134 O141 1.240 . S
C134 O142 1.252 . S
C135 O138 1.252 . S
C135 O139 1.260 . S
O136 In130 2.266 . S
O136 C133 1.252 . S
O137 In130 2.326 . S
O137 C133 1.260 . S
O138 In130 2.266 . S
O138 C135 1.252 . S
O139 In130 2.326 . S
O139 C135 1.260 . S
C140 O131 1.240 . S
C140 O132 1.252 . S
O141 In130 2.294 . S
O141 C134 1.240 . S
O142 In130 2.326 . S
O142 C134 1.252 . S
In143 O144 2.294 . S
In143 O145 2.326 . S
In143 O149 2.266 . S
In143 O150 2.326 . S
In143 O151 2.266 . S
In143 O152 2.326 . S
In143 O154 2.294 . S
In143 O155 2.326 . S
O144 In143 2.294 . S
O144 C153 1.240 . S
O145 In143 2.326 . S
O145 C153 1.252 . S
C146 O149 1.252 . S
C146 O150 1.260 . S
C147 O154 1.240 . S
C147 O155 1.252 . S
C148 O151 1.252 . S
C148 O152 1.260 . S
O149 In143 2.266 . S
O149 C146 1.252 . S
O150 In143 2.326 . S
O150 C146 1.260 . S
O151 In143 2.266 . S
O151 C148 1.252 . S
O152 In143 2.326 . S
O152 C148 1.260 . S
C153 O144 1.240 . S
C153 O145 1.252 . S
O154 In143 2.294 . S
O154 C147 1.240 . S
O155 In143 2.326 . S
O155 C147 1.252 . S
In156 O157 2.294 . S
In156 O158 2.326 . S
In156 O162 2.266 . S
In156 O163 2.326 . S
In156 O164 2.266 . S
In156 O165 2.326 . S
In156 O167 2.294 . S
In156 O168 2.326 . S
O157 In156 2.294 . S
O157 C166 1.240 . S
O158 In156 2.326 . S
O158 C166 1.252 . S
C159 O162 1.252 . S
C159 O163 1.260 . S
C160 O167 1.240 . S
C160 O168 1.252 . S
C161 O164 1.252 . S
C161 O165 1.260 . S
O162 In156 2.266 . S
O162 C159 1.252 . S
O163 In156 2.326 . S
O163 C159 1.260 . S
O164 In156 2.266 . S
O164 C161 1.252 . S
O165 In156 2.326 . S
O165 C161 1.260 . S
C166 O157 1.240 . S
C166 O158 1.252 . S
O167 In156 2.294 . S
O167 C160 1.240 . S
O168 In156 2.326 . S
O168 C160 1.252 . S
In169 O170 2.294 . S
In169 O171 2.326 . S
In169 O175 2.266 . S
In169 O176 2.326 . S
In169 O177 2.266 . S
In169 O178 2.326 . S
In169 O180 2.294 . S
In169 O181 2.326 . S
O170 In169 2.294 . S
O170 C179 1.240 . S
O171 In169 2.326 . S
O171 C179 1.252 . S
C172 O175 1.252 . S
C172 O176 1.260 . S
C173 O180 1.240 . S
C173 O181 1.252 . S
C174 O177 1.252 . S
C174 O178 1.260 . S
O175 In169 2.266 . S
O175 C172 1.252 . S
O176 In169 2.326 . S
O176 C172 1.260 . S
O177 In169 2.266 . S
O177 C174 1.252 . S
O178 In169 2.326 . S
O178 C174 1.260 . S
C179 O170 1.240 . S
C179 O171 1.252 . S
O180 In169 2.294 . S
O180 C173 1.240 . S
O181 In169 2.326 . S
O181 C173 1.252 . S
In182 O183 2.294 . S
In182 O184 2.326 . S
In182 O188 2.266 . S
In182 O189 2.326 . S
In182 O190 2.266 . S
In182 O191 2.326 . S
In182 O193 2.294 . S
In182 O194 2.326 . S
O183 In182 2.294 . S
O183 C192 1.240 . S
O184 In182 2.326 . S
O184 C192 1.252 . S
C185 O188 1.252 . S
C185 O189 1.260 . S
C186 O193 1.240 . S
C186 O194 1.252 . S
C187 O190 1.252 . S
C187 O191 1.260 . S
O188 In182 2.266 . S
O188 C185 1.252 . S
O189 In182 2.326 . S
O189 C185 1.260 . S
O190 In182 2.266 . S
O190 C187 1.252 . S
O191 In182 2.326 . S
O191 C187 1.260 . S
C192 O183 1.240 . S
C192 O184 1.252 . S
O193 In182 2.294 . S
O193 C186 1.240 . S
O194 In182 2.326 . S
O194 C186 1.252 . S
In195 O196 2.294 . S
In195 O197 2.326 . S
In195 O201 2.266 . S
In195 O202 2.326 . S
In195 O203 2.266 . S
In195 O204 2.326 . S
In195 O206 2.294 . S
In195 O207 2.326 . S
O196 In195 2.294 . S
O196 C205 1.240 . S
O197 In195 2.326 . S
O197 C205 1.252 . S
C198 O201 1.252 . S
C198 O202 1.260 . S
C199 O206 1.240 . S
C199 O207 1.252 . S
C200 O203 1.252 . S
C200 O204 1.260 . S
O201 In195 2.266 . S
O201 C198 1.252 . S
O202 In195 2.326 . S
O202 C198 1.260 . S
O203 In195 2.266 . S
O203 C200 1.252 . S
O204 In195 2.326 . S
O204 C200 1.260 . S
C205 O196 1.240 . S
C205 O197 1.252 . S
O206 In195 2.294 . S
O206 C199 1.240 . S
O207 In195 2.326 . S
O207 C199 1.252 . S
H208 C216 0.929 . S
H209 C218 0.930 . S
H210 C220 0.930 . S
H211 C223 0.929 . S
H212 C226 0.930 . S
H213 C228 0.960 . S
H214 C228 0.960 . S
H215 C228 0.960 . S
C216 H208 0.929 . S
C216 C217 1.377 . S
C216 C218 1.384 . S
C217 C216 1.377 . S
C217 C223 1.390 1_556 S
C218 H209 0.930 . S
C218 C216 1.384 . S
C218 C219 1.372 1_556 S
C219 C218 1.372 1_554 S
C219 C220 1.400 . S
C219 C224 1.490 . S
C220 H210 0.930 . S
C220 C219 1.400 . S
C220 C223 1.386 . S
H221 C237 0.930 . S
H222 C238 0.931 . S
C223 H211 0.929 . S
C223 C217 1.390 1_554 S
C223 C220 1.386 . S
C224 C219 1.490 . S
C224 C226 1.395 . S
C224 C227 1.403 1_554 S
H225 C231 0.930 . S
C226 H212 0.930 . S
C226 C224 1.395 . S
C226 C229 1.403 . S
C227 C224 1.403 1_556 S
C227 C228 1.524 . S
C227 C231 1.400 . S
C228 H213 0.960 . S
C228 H214 0.960 . S
C228 H215 0.960 . S
C228 C227 1.524 . S
C229 C226 1.403 . S
C229 C230 1.392 . S
C229 C233 1.495 . S
C230 C229 1.392 . S
C230 C231 1.385 1_554 S
C230 C232 1.478 . S
C231 H225 0.930 . S
C231 C227 1.400 . S
C231 C230 1.385 1_556 S
C232 C230 1.478 . S
C232 C234 1.381 1_554 S
C232 C238 1.383 . S
C233 C229 1.495 . S
C233 H239 0.959 . S
C233 H240 0.961 . S
C233 H241 0.960 . S
C234 C232 1.381 1_556 S
C234 C235 1.394 . S
C234 H242 0.930 . S
C235 C234 1.394 . S
C235 C236 1.383 1_556 S
C235 H243 0.929 . S
C236 C235 1.383 1_554 S
C236 C237 1.377 . S
C237 H221 0.930 . S
C237 C236 1.377 . S
C237 C238 1.379 . S
C238 H222 0.931 . S
C238 C232 1.383 . S
C238 C237 1.379 . S
H239 C233 0.959 . S
H240 C233 0.961 . S
H241 C233 0.960 . S
H242 C234 0.930 . S
H243 C235 0.929 . S
H244 C252 0.929 . S
H245 C254 0.930 . S
H246 C256 0.930 . S
H247 C259 0.929 . S
H248 C262 0.930 . S
H249 C264 0.960 . S
H250 C264 0.960 . S
H251 C264 0.960 . S
C252 H244 0.929 . S
C252 C253 1.371 1_554 S
C252 C254 1.384 . S
C253 C252 1.371 1_556 S
C253 C259 1.395 . S
C254 H245 0.930 . S
C254 C252 1.384 . S
C254 C255 1.372 . S
C255 C254 1.372 . S
C255 C256 1.400 1_554 S
C255 C260 1.490 . S
C256 H246 0.930 . S
C256 C255 1.400 1_556 S
C256 C259 1.386 . S
H257 C273 0.930 . S
H258 C274 0.931 . S
C259 H247 0.929 . S
C259 C253 1.395 . S
C259 C256 1.386 . S
C260 C255 1.490 . S
C260 C262 1.395 . S
C260 C263 1.403 1_554 S
H261 C267 0.930 . S
C262 H248 0.930 . S
C262 C260 1.395 . S
C262 C265 1.403 . S
C263 C260 1.403 1_556 S
C263 C264 1.524 . S
C263 C267 1.400 . S
C264 H249 0.960 . S
C264 H250 0.960 . S
C264 H251 0.960 . S
C264 C263 1.524 . S
C265 C262 1.403 . S
C265 C266 1.392 . S
C265 C269 1.495 . S
C266 C265 1.392 . S
C266 C267 1.385 1_554 S
C266 C268 1.478 . S
C267 H261 0.930 . S
C267 C263 1.400 . S
C267 C266 1.385 1_556 S
C268 C266 1.478 . S
C268 C270 1.381 . S
C268 C274 1.383 . S
C269 C265 1.495 . S
C269 H275 0.959 . S
C269 H276 0.961 . S
C269 H277 0.960 . S
C270 C268 1.381 . S
C270 C271 1.394 . S
C270 H278 0.930 . S
C271 C270 1.394 . S
C271 C272 1.383 . S
C271 H279 0.929 . S
C272 C271 1.383 . S
C272 C273 1.377 . S
C273 H257 0.930 . S
C273 C272 1.377 . S
C273 C274 1.379 . S
C274 H258 0.931 . S
C274 C268 1.383 . S
C274 C273 1.379 . S
H275 C269 0.959 . S
H276 C269 0.961 . S
H277 C269 0.960 . S
H278 C270 0.930 . S
H279 C271 0.929 . S
H280 C288 0.929 . S
H281 C290 0.930 . S
H282 C292 0.930 . S
H283 C295 0.929 . S
H284 C298 0.930 . S
H285 C300 0.960 . S
H286 C300 0.960 1_556 S
H287 C300 0.960 . S
C288 H280 0.929 . S
C288 C289 1.377 . S
C288 C290 1.384 . S
C289 C288 1.377 . S
C289 C295 1.390 1_556 S
C290 H281 0.930 . S
C290 C288 1.384 . S
C290 C291 1.372 1_556 S
C291 C290 1.372 1_554 S
C291 C292 1.400 . S
C291 C296 1.490 . S
C292 H282 0.930 . S
C292 C291 1.400 . S
C292 C295 1.386 . S
H293 C309 0.930 . S
H294 C310 0.931 . S
C295 H283 0.929 . S
C295 C289 1.390 1_554 S
C295 C292 1.386 . S
C296 C291 1.490 . S
C296 C298 1.395 1_554 S
C296 C299 1.403 . S
H297 C303 0.930 . S
C298 H284 0.930 . S
C298 C296 1.395 1_556 S
C298 C301 1.403 . S
C299 C296 1.403 . S
C299 C300 1.524 . S
C299 C303 1.400 . S
C300 H285 0.960 . S
C300 H286 0.960 1_554 S
C300 H287 0.960 . S
C300 C299 1.524 . S
C301 C298 1.403 . S
C301 C302 1.392 1_556 S
C301 C305 1.495 . S
C302 C301 1.392 1_554 S
C302 C303 1.385 . S
C302 C304 1.478 . S
C303 H297 0.930 . S
C303 C299 1.400 . S
C303 C302 1.385 . S
C304 C302 1.478 . S
C304 C306 1.381 1_554 S
C304 C310 1.383 . S
C305 C301 1.495 . S
C305 H311 0.959 . S
C305 H312 0.961 1_556 S
C305 H313 0.960 . S
C306 C304 1.381 1_556 S
C306 C307 1.394 . S
C306 H314 0.930 . S
C307 C306 1.394 . S
C307 C308 1.383 1_556 S
C307 H315 0.929 . S
C308 C307 1.383 1_554 S
C308 C309 1.377 . S
C309 H293 0.930 . S
C309 C308 1.377 . S
C309 C310 1.379 . S
C310 H294 0.931 . S
C310 C304 1.383 . S
C310 C309 1.379 . S
H311 C305 0.959 . S
H312 C305 0.961 1_554 S
H313 C305 0.960 . S
H314 C306 0.930 . S
H315 C307 0.929 . S
H316 C324 0.929 . S
H317 C326 0.930 . S
H318 C328 0.930 . S
H319 C331 0.929 . S
H320 C334 0.930 . S
H321 C336 0.960 . S
H322 C336 0.960 . S
H323 C336 0.960 1_554 S
C324 H316 0.929 . S
C324 C325 1.377 . S
C324 C326 1.384 . S
C325 C324 1.377 . S
C325 C331 1.390 1_556 S
C326 H317 0.930 . S
C326 C324 1.384 . S
C326 C327 1.372 1_556 S
C327 C326 1.372 1_554 S
C327 C328 1.400 . S
C327 C332 1.490 . S
C328 H318 0.930 . S
C328 C327 1.400 . S
C328 C331 1.386 . S
H329 C345 0.930 . S
H330 C346 0.931 . S
C331 H319 0.929 . S
C331 C325 1.390 1_554 S
C331 C328 1.386 . S
C332 C327 1.490 . S
C332 C334 1.395 . S
C332 C335 1.403 1_554 S
H333 C339 0.930 1_556 S
C334 H320 0.930 . S
C334 C332 1.395 . S
C334 C337 1.403 . S
C335 C332 1.403 1_556 S
C335 C336 1.524 . S
C335 C339 1.400 1_556 S
C336 H321 0.960 . S
C336 H322 0.960 . S
C336 H323 0.960 1_556 S
C336 C335 1.524 . S
C337 C334 1.403 . S
C337 C338 1.392 . S
C337 C341 1.495 . S
C338 C337 1.392 . S
C338 C339 1.385 . S
C338 C340 1.478 . S
C339 H333 0.930 1_554 S
C339 C335 1.400 1_554 S
C339 C338 1.385 . S
C340 C338 1.478 . S
C340 C342 1.381 1_554 S
C340 C346 1.383 . S
C341 C337 1.495 . S
C341 H347 0.959 . S
C341 H348 0.961 . S
C341 H349 0.960 . S
C342 C340 1.381 1_556 S
C342 C343 1.394 . S
C342 H350 0.930 . S
C343 C342 1.394 . S
C343 C344 1.383 1_556 S
C343 H351 0.929 . S
C344 C343 1.383 1_554 S
C344 C345 1.377 . S
C345 H329 0.930 . S
C345 C344 1.377 . S
C345 C346 1.379 . S
C346 H330 0.931 . S
C346 C340 1.383 . S
C346 C345 1.379 . S
H347 C341 0.959 . S
H348 C341 0.961 . S
H349 C341 0.960 . S
H350 C342 0.930 . S
H351 C343 0.929 . S
H352 C360 0.929 . S
H353 C362 0.930 . S
H354 C364 0.930 . S
H355 C367 0.929 . S
H356 C370 0.930 . S
H357 C372 0.960 . S
H358 C372 0.960 . S
H359 C372 0.960 . S
C360 H352 0.929 . S
C360 C361 1.377 . S
C360 C362 1.384 . S
C361 C360 1.377 . S
C361 C367 1.390 . S
C362 H353 0.930 . S
C362 C360 1.384 . S
C362 C363 1.372 . S
C363 C362 1.372 . S
C363 C364 1.400 . S
C363 C368 1.490 . S
C364 H354 0.930 . S
C364 C363 1.400 . S
C364 C367 1.386 . S
H365 C381 0.930 . S
H366 C382 0.931 . S
C367 H355 0.929 . S
C367 C361 1.390 . S
C367 C364 1.386 . S
C368 C363 1.490 . S
C368 C370 1.395 . S
C368 C371 1.403 . S
H369 C375 0.930 . S
C370 H356 0.930 . S
C370 C368 1.395 . S
C370 C373 1.403 1_545 S
C371 C368 1.403 . S
C371 C372 1.524 . S
C371 C375 1.400 1_545 S
C372 H357 0.960 . S
C372 H358 0.960 . S
C372 H359 0.960 . S
C372 C371 1.524 . S
C373 C370 1.403 1_565 S
C373 C374 1.392 . S
C373 C377 1.495 . S
C374 C373 1.392 . S
C374 C375 1.385 . S
C374 C376 1.478 . S
C375 H369 0.930 . S
C375 C371 1.400 1_565 S
C375 C374 1.385 . S
C376 C374 1.478 . S
C376 C378 1.381 . S
C376 C382 1.383 . S
C377 C373 1.495 . S
C377 H383 0.959 . S
C377 H384 0.961 . S
C377 H385 0.960 . S
C378 C376 1.381 . S
C378 C379 1.394 . S
C378 H386 0.930 . S
C379 C378 1.394 . S
C379 C380 1.383 . S
C379 H387 0.929 . S
C380 C379 1.383 . S
C380 C381 1.377 . S
C381 H365 0.930 . S
C381 C380 1.377 . S
C381 C382 1.379 . S
C382 H366 0.931 . S
C382 C376 1.383 . S
C382 C381 1.379 . S
H383 C377 0.959 . S
H384 C377 0.961 . S
H385 C377 0.960 . S
H386 C378 0.930 . S
H387 C379 0.929 . S
H388 C396 0.929 . S
H389 C398 0.930 . S
H390 C400 0.930 . S
H391 C403 0.929 . S
H392 C406 0.930 . S
H393 C408 0.960 . S
H394 C408 0.960 . S
H395 C408 0.960 . S
C396 H388 0.929 . S
C396 C397 1.377 . S
C396 C398 1.384 . S
C397 C396 1.377 . S
C397 C403 1.390 . S
C398 H389 0.930 . S
C398 C396 1.384 . S
C398 C399 1.372 . S
C399 C398 1.372 . S
C399 C400 1.400 . S
C399 C404 1.490 . S
C400 H390 0.930 . S
C400 C399 1.400 . S
C400 C403 1.386 . S
H401 C417 0.930 . S
H402 C418 0.931 . S
C403 H391 0.929 . S
C403 C397 1.390 . S
C403 C400 1.386 . S
C404 C399 1.490 . S
C404 C406 1.395 . S
C404 C407 1.403 . S
H405 C411 0.930 . S
C406 H392 0.930 . S
C406 C404 1.395 . S
C406 C409 1.403 1_655 S
C407 C404 1.403 . S
C407 C408 1.524 . S
C407 C411 1.400 1_655 S
C408 H393 0.960 . S
C408 H394 0.960 . S
C408 H395 0.960 . S
C408 C407 1.524 . S
C409 C406 1.403 1_455 S
C409 C410 1.392 . S
C409 C413 1.495 . S
C410 C409 1.392 . S
C410 C411 1.385 . S
C410 C412 1.478 . S
C411 H405 0.930 . S
C411 C407 1.400 1_455 S
C411 C410 1.385 . S
C412 C410 1.478 . S
C412 C414 1.381 . S
C412 C418 1.383 . S
C413 C409 1.495 . S
C413 H419 0.959 . S
C413 H420 0.961 . S
C413 H421 0.960 . S
C414 C412 1.381 . S
C414 C415 1.394 . S
C414 H422 0.930 . S
C415 C414 1.394 . S
C415 C416 1.383 . S
C415 H423 0.929 . S
C416 C415 1.383 . S
C416 C417 1.377 . S
C417 H401 0.930 . S
C417 C416 1.377 . S
C417 C418 1.379 . S
C418 H402 0.931 . S
C418 C412 1.383 . S
C418 C417 1.379 . S
H419 C413 0.959 . S
H420 C413 0.961 . S
H421 C413 0.960 . S
H422 C414 0.930 . S
H423 C415 0.929 . S
H424 C432 0.929 . S
H425 C434 0.930 . S
H426 C436 0.930 . S
H427 C439 0.929 . S
H428 C442 0.930 . S
H429 C444 0.960 . S
H430 C444 0.960 . S
H431 C444 0.960 . S
C432 H424 0.929 . S
C432 C433 1.377 . S
C432 C434 1.384 . S
C433 C432 1.377 . S
C433 C439 1.390 . S
C434 H425 0.930 . S
C434 C432 1.384 . S
C434 C435 1.372 . S
C435 C434 1.372 . S
C435 C436 1.400 . S
C435 C440 1.490 . S
C436 H426 0.930 . S
C436 C435 1.400 . S
C436 C439 1.386 . S
H437 C453 0.930 . S
H438 C454 0.931 . S
C439 H427 0.929 . S
C439 C433 1.390 . S
C439 C436 1.386 . S
C440 C435 1.490 . S
C440 C442 1.395 . S
C440 C443 1.403 . S
H441 C447 0.930 . S
C442 H428 0.930 . S
C442 C440 1.395 . S
C442 C445 1.403 1_545 S
C443 C440 1.403 . S
C443 C444 1.524 . S
C443 C447 1.400 1_545 S
C444 H429 0.960 . S
C444 H430 0.960 . S
C444 H431 0.960 . S
C444 C443 1.524 . S
C445 C442 1.403 1_565 S
C445 C446 1.392 . S
C445 C449 1.495 . S
C446 C445 1.392 . S
C446 C447 1.385 . S
C446 C448 1.478 . S
C447 H441 0.930 . S
C447 C443 1.400 1_565 S
C447 C446 1.385 . S
C448 C446 1.478 . S
C448 C450 1.381 . S
C448 C454 1.383 . S
C449 C445 1.495 . S
C449 H455 0.959 . S
C449 H456 0.961 . S
C449 H457 0.960 . S
C450 C448 1.381 . S
C450 C451 1.394 . S
C450 H458 0.930 . S
C451 C450 1.394 . S
C451 C452 1.383 . S
C451 H459 0.929 . S
C452 C451 1.383 . S
C452 C453 1.377 . S
C453 H437 0.930 . S
C453 C452 1.377 . S
C453 C454 1.379 . S
C454 H438 0.931 . S
C454 C448 1.383 . S
C454 C453 1.379 . S
H455 C449 0.959 . S
H456 C449 0.961 . S
H457 C449 0.960 . S
H458 C450 0.930 . S
H459 C451 0.929 . S
H460 C468 0.929 . S
H461 C470 0.930 . S
H462 C472 0.930 . S
H463 C475 0.929 . S
H464 C478 0.930 . S
H465 C480 0.960 . S
H466 C480 0.960 . S
H467 C480 0.960 . S
C468 H460 0.929 . S
C468 C469 1.377 . S
C468 C470 1.384 . S
C469 C468 1.377 . S
C469 C475 1.390 . S
C470 H461 0.930 . S
C470 C468 1.384 . S
C470 C471 1.372 . S
C471 C470 1.372 . S
C471 C472 1.400 . S
C471 C476 1.490 . S
C472 H462 0.930 . S
C472 C471 1.400 . S
C472 C475 1.386 . S
H473 C489 0.930 . S
H474 C490 0.931 . S
C475 H463 0.929 . S
C475 C469 1.390 . S
C475 C472 1.386 . S
C476 C471 1.490 . S
C476 C478 1.395 . S
C476 C479 1.403 . S
H477 C483 0.930 . S
C478 H464 0.930 . S
C478 C476 1.395 . S
C478 C481 1.403 1_455 S
C479 C476 1.403 . S
C479 C480 1.524 . S
C479 C483 1.400 1_455 S
C480 H465 0.960 . S
C480 H466 0.960 . S
C480 H467 0.960 . S
C480 C479 1.524 . S
C481 C478 1.403 1_655 S
C481 C482 1.392 . S
C481 C485 1.495 . S
C482 C481 1.392 . S
C482 C483 1.385 . S
C482 C484 1.478 . S
C483 H477 0.930 . S
C483 C479 1.400 1_655 S
C483 C482 1.385 . S
C484 C482 1.478 . S
C484 C486 1.381 . S
C484 C490 1.383 . S
C485 C481 1.495 . S
C485 H491 0.959 . S
C485 H492 0.961 . S
C485 H493 0.960 . S
C486 C484 1.381 . S
C486 C487 1.394 . S
C486 H494 0.930 . S
C487 C486 1.394 . S
C487 C488 1.383 . S
C487 H495 0.929 . S
C488 C487 1.383 . S
C488 C489 1.377 . S
C489 H473 0.930 . S
C489 C488 1.377 . S
C489 C490 1.379 . S
C490 H474 0.931 . S
C490 C484 1.383 . S
C490 C489 1.379 . S
H491 C485 0.959 . S
H492 C485 0.961 . S
H493 C485 0.960 . S
H494 C486 0.930 . S
H495 C487 0.929 . S
H496 C504 0.929 . S
H497 C506 0.930 . S
H498 C508 0.930 . S
H499 C511 0.929 . S
H500 C514 0.930 . S
H501 C516 0.960 . S
H502 C516 0.960 . S
H503 C516 0.960 1_556 S
C504 H496 0.929 . S
C504 C505 1.370 1_554 S
C504 C506 1.384 . S
C505 C504 1.370 1_556 S
C505 C511 1.396 . S
C506 H497 0.930 . S
C506 C504 1.384 . S
C506 C507 1.372 . S
C507 C506 1.372 . S
C507 C508 1.400 1_554 S
C507 C512 1.490 . S
C508 H498 0.930 . S
C508 C507 1.400 1_556 S
C508 C511 1.386 . S
H509 C525 0.930 . S
H510 C526 0.931 . S
C511 H499 0.929 . S
C511 C505 1.396 . S
C511 C508 1.386 . S
C512 C507 1.490 . S
C512 C514 1.395 . S
C512 C515 1.403 . S
H513 C519 0.930 . S
C514 H500 0.930 . S
C514 C512 1.395 . S
C514 C517 1.403 . S
C515 C512 1.403 . S
C515 C516 1.524 . S
C515 C519 1.400 . S
C516 H501 0.960 . S
C516 H502 0.960 . S
C516 H503 0.960 1_554 S
C516 C515 1.524 . S
C517 C514 1.403 . S
C517 C518 1.392 . S
C517 C521 1.495 . S
C518 C517 1.392 . S
C518 C519 1.385 . S
C518 C520 1.478 . S
C519 H513 0.930 . S
C519 C515 1.400 . S
C519 C518 1.385 . S
C520 C518 1.478 . S
C520 C522 1.381 . S
C520 C526 1.383 1_554 S
C521 C517 1.495 . S
C521 H527 0.962 . S
C521 H528 0.961 1_554 S
C521 H529 0.960 . S
C522 C520 1.381 . S
C522 C523 1.394 . S
C522 H530 0.930 . S
C523 C522 1.394 . S
C523 C524 1.383 . S
C523 H531 0.929 . S
C524 C523 1.383 . S
C524 C525 1.377 1_554 S
C525 H509 0.930 . S
C525 C524 1.377 1_556 S
C525 C526 1.379 . S
C526 H510 0.931 . S
C526 C520 1.383 1_556 S
C526 C525 1.379 . S
H527 C521 0.962 . S
H528 C521 0.961 1_556 S
H529 C521 0.960 . S
H530 C522 0.930 . S
H531 C523 0.929 . S
H532 C540 0.929 . S
H533 C542 0.930 . S
H534 C544 0.930 . S
H535 C547 0.929 . S
H536 C550 0.930 . S
H537 C552 0.960 . S
H538 C552 0.960 . S
H539 C552 0.960 . S
C540 H532 0.929 . S
C540 C541 1.377 1_556 S
C540 C542 1.384 . S
C541 C540 1.377 1_554 S
C541 C547 1.390 . S
C542 H533 0.930 . S
C542 C540 1.384 . S
C542 C543 1.372 1_556 S
C543 C542 1.372 1_554 S
C543 C544 1.400 . S
C543 C548 1.490 . S
C544 H534 0.930 . S
C544 C543 1.400 . S
C544 C547 1.386 . S
H545 C561 0.930 . S
H546 C562 0.931 . S
C547 H535 0.929 . S
C547 C541 1.390 . S
C547 C544 1.386 . S
C548 C543 1.490 . S
C548 C550 1.395 . S
C548 C551 1.403 1_554 S
H549 C555 0.930 . S
C550 H536 0.930 . S
C550 C548 1.395 . S
C550 C553 1.403 . S
C551 C548 1.403 1_556 S
C551 C552 1.524 . S
C551 C555 1.400 . S
C552 H537 0.960 . S
C552 H538 0.960 . S
C552 H539 0.960 . S
C552 C551 1.524 . S
C553 C550 1.403 . S
C553 C554 1.392 . S
C553 C557 1.495 . S
C554 C553 1.392 . S
C554 C555 1.385 1_554 S
C554 C556 1.478 . S
C555 H549 0.930 . S
C555 C551 1.400 . S
C555 C554 1.385 1_556 S
C556 C554 1.478 . S
C556 C558 1.381 1_554 S
C556 C562 1.383 . S
C557 C553 1.495 . S
C557 H563 0.959 . S
C557 H564 0.961 . S
C557 H565 0.960 . S
C558 C556 1.381 1_556 S
C558 C559 1.394 . S
C558 H566 0.930 . S
C559 C558 1.394 . S
C559 C560 1.378 1_556 S
C559 H567 0.929 . S
C560 C559 1.378 1_554 S
C560 C561 1.383 . S
C561 H545 0.930 . S
C561 C560 1.383 . S
C561 C562 1.379 . S
C562 H546 0.931 . S
C562 C556 1.383 . S
C562 C561 1.379 . S
H563 C557 0.959 . S
H564 C557 0.961 . S
H565 C557 0.960 . S
H566 C558 0.930 . S
H567 C559 0.929 . S
H568 C576 0.929 . S
H569 C578 0.930 . S
H570 C580 0.930 . S
H571 C583 0.929 . S
H572 C586 0.930 . S
H573 C588 0.960 . S
H574 C588 0.960 . S
H575 C588 0.960 1_556 S
C576 H568 0.929 . S
C576 C577 1.369 1_554 S
C576 C578 1.384 . S
C577 C576 1.369 1_556 S
C577 C583 1.397 . S
C578 H569 0.930 . S
C578 C576 1.384 . S
C578 C579 1.372 . S
C579 C578 1.372 . S
C579 C580 1.400 1_554 S
C579 C584 1.490 . S
C580 H570 0.930 . S
C580 C579 1.400 1_556 S
C580 C583 1.386 . S
H581 C597 0.930 . S
H582 C598 0.931 . S
C583 H571 0.929 . S
C583 C577 1.397 . S
C583 C580 1.386 . S
C584 C579 1.490 . S
C584 C586 1.395 . S
C584 C587 1.403 . S
H585 C591 0.930 . S
C586 H572 0.930 . S
C586 C584 1.395 . S
C586 C589 1.403 . S
C587 C584 1.403 . S
C587 C588 1.524 . S
C587 C591 1.400 . S
C588 H573 0.960 . S
C588 H574 0.960 . S
C588 H575 0.960 1_554 S
C588 C587 1.524 . S
C589 C586 1.403 . S
C589 C590 1.392 . S
C589 C593 1.495 . S
C590 C589 1.392 . S
C590 C591 1.385 . S
C590 C592 1.478 . S
C591 H585 0.930 . S
C591 C587 1.400 . S
C591 C590 1.385 . S
C592 C590 1.478 . S
C592 C594 1.381 . S
C592 C598 1.383 1_554 S
C593 C589 1.495 . S
C593 H599 0.959 . S
C593 H600 0.961 1_554 S
C593 H601 0.960 . S
C594 C592 1.381 . S
C594 C595 1.394 . S
C594 H602 0.930 . S
C595 C594 1.394 . S
C595 C596 1.383 . S
C595 H603 0.929 . S
C596 C595 1.383 . S
C596 C597 1.377 1_554 S
C597 H581 0.930 . S
C597 C596 1.377 1_556 S
C597 C598 1.379 . S
C598 H582 0.931 . S
C598 C592 1.383 1_556 S
C598 C597 1.379 . S
H599 C593 0.959 . S
H600 C593 0.961 1_556 S
H601 C593 0.960 . S
H602 C594 0.930 . S
H603 C595 0.929 . S
H604 C612 0.929 . S
H605 C614 0.930 . S
H606 C616 0.930 1_556 S
H607 C619 0.929 . S
H608 C622 0.930 . S
H609 C624 0.960 . S
H610 C624 0.960 . S
H611 C624 0.960 . S
C612 H604 0.929 . S
C612 C613 1.377 . S
C612 C614 1.384 . S
C613 C612 1.377 . S
C613 C619 1.390 . S
C614 H605 0.930 . S
C614 C612 1.384 . S
C614 C615 1.372 . S
C615 C614 1.372 . S
C615 C616 1.400 . S
C615 C620 1.490 . S
C616 H606 0.930 1_554 S
C616 C615 1.400 . S
C616 C619 1.386 . S
H617 C633 0.931 . S
H618 C634 0.931 . S
C619 H607 0.929 . S
C619 C613 1.390 . S
C619 C616 1.386 . S
C620 C615 1.490 . S
C620 C622 1.395 . S
C620 C623 1.403 1_554 S
H621 C627 0.930 . S
C622 H608 0.930 . S
C622 C620 1.395 . S
C622 C625 1.403 . S
C623 C620 1.403 1_556 S
C623 C624 1.524 . S
C623 C627 1.400 . S
C624 H609 0.960 . S
C624 H610 0.960 . S
C624 H611 0.960 . S
C624 C623 1.524 . S
C625 C622 1.403 . S
C625 C626 1.392 . S
C625 C629 1.495 . S
C626 C625 1.392 . S
C626 C627 1.385 1_554 S
C626 C628 1.478 . S
C627 H621 0.930 . S
C627 C623 1.400 . S
C627 C626 1.385 1_556 S
C628 C626 1.478 . S
C628 C630 1.381 . S
C628 C634 1.383 . S
C629 C625 1.495 . S
C629 H635 0.959 . S
C629 H636 0.961 . S
C629 H637 0.960 . S
C630 C628 1.381 . S
C630 C631 1.394 . S
C630 H638 0.930 . S
C631 C630 1.394 . S
C631 C632 1.383 . S
C631 H639 0.929 . S
C632 C631 1.383 . S
C632 C633 1.376 1_554 S
C633 H617 0.931 . S
C633 C632 1.376 1_556 S
C633 C634 1.379 1_556 S
C634 H618 0.931 . S
C634 C628 1.383 . S
C634 C633 1.379 1_554 S
H635 C629 0.959 . S
H636 C629 0.961 . S
H637 C629 0.960 . S
H638 C630 0.930 . S
H639 C631 0.929 . S
H640 C648 0.929 . S
H641 C650 0.930 . S
H642 C652 0.930 . S
H643 C655 0.929 . S
H644 C658 0.930 . S
H645 C660 0.960 . S
H646 C660 0.960 . S
H647 C660 0.960 . S
C648 H640 0.929 . S
C648 C649 1.377 . S
C648 C650 1.384 . S
C649 C648 1.377 . S
C649 C655 1.390 . S
C650 H641 0.930 . S
C650 C648 1.384 . S
C650 C651 1.372 . S
C651 C650 1.372 . S
C651 C652 1.400 . S
C651 C656 1.490 . S
C652 H642 0.930 . S
C652 C651 1.400 . S
C652 C655 1.386 . S
H653 C669 0.930 . S
H654 C670 0.931 . S
C655 H643 0.929 . S
C655 C649 1.390 . S
C655 C652 1.386 . S
C656 C651 1.490 . S
C656 C658 1.395 . S
C656 C659 1.403 . S
H657 C663 0.930 . S
C658 H644 0.930 . S
C658 C656 1.395 . S
C658 C661 1.403 . S
C659 C656 1.403 . S
C659 C660 1.524 . S
C659 C663 1.400 . S
C660 H645 0.960 . S
C660 H646 0.960 . S
C660 H647 0.960 . S
C660 C659 1.524 . S
C661 C658 1.403 . S
C661 C662 1.392 . S
C661 C665 1.495 . S
C662 C661 1.392 . S
C662 C663 1.385 . S
C662 C664 1.478 . S
C663 H657 0.930 . S
C663 C659 1.400 . S
C663 C662 1.385 . S
C664 C662 1.478 . S
C664 C666 1.381 . S
C664 C670 1.383 . S
C665 C661 1.495 . S
C665 H671 0.959 . S
C665 H672 0.961 . S
C665 H673 0.960 . S
C666 C664 1.381 . S
C666 C667 1.394 . S
C666 H674 0.930 . S
C667 C666 1.394 . S
C667 C668 1.383 . S
C667 H675 0.929 . S
C668 C667 1.383 . S
C668 C669 1.377 . S
C669 H653 0.930 . S
C669 C668 1.377 . S
C669 C670 1.379 . S
C670 H654 0.931 . S
C670 C664 1.383 . S
C670 C669 1.379 . S
H671 C665 0.959 . S
H672 C665 0.961 . S
H673 C665 0.960 . S
H674 C666 0.930 . S
H675 C667 0.929 . S
H676 C684 0.929 . S
H677 C686 0.930 . S
H678 C688 0.930 . S
H679 C691 0.929 . S
H680 C694 0.930 . S
H681 C696 0.960 . S
H682 C696 0.960 . S
H683 C696 0.960 . S
C684 H676 0.929 . S
C684 C685 1.377 . S
C684 C686 1.384 . S
C685 C684 1.377 . S
C685 C691 1.390 . S
C686 H677 0.930 . S
C686 C684 1.384 . S
C686 C687 1.372 . S
C687 C686 1.372 . S
C687 C688 1.400 . S
C687 C692 1.490 . S
C688 H678 0.930 . S
C688 C687 1.400 . S
C688 C691 1.386 . S
H689 C705 0.930 . S
H690 C706 0.931 . S
C691 H679 0.929 . S
C691 C685 1.390 . S
C691 C688 1.386 . S
C692 C687 1.490 . S
C692 C694 1.395 . S
C692 C695 1.403 . S
H693 C699 0.930 . S
C694 H680 0.930 . S
C694 C692 1.395 . S
C694 C697 1.403 . S
C695 C692 1.403 . S
C695 C696 1.524 . S
C695 C699 1.400 . S
C696 H681 0.960 . S
C696 H682 0.960 . S
C696 H683 0.960 . S
C696 C695 1.524 . S
C697 C694 1.403 . S
C697 C698 1.392 . S
C697 C701 1.495 . S
C698 C697 1.392 . S
C698 C699 1.385 . S
C698 C700 1.478 . S
C699 H693 0.930 . S
C699 C695 1.400 . S
C699 C698 1.385 . S
C700 C698 1.478 . S
C700 C702 1.381 . S
C700 C706 1.383 . S
C701 C697 1.495 . S
C701 H707 0.959 . S
C701 H708 0.961 . S
C701 H709 0.960 . S
C702 C700 1.381 . S
C702 C703 1.394 . S
C702 H710 0.930 . S
C703 C702 1.394 . S
C703 C704 1.383 . S
C703 H711 0.929 . S
C704 C703 1.383 . S
C704 C705 1.377 . S
C705 H689 0.930 . S
C705 C704 1.377 . S
C705 C706 1.379 . S
C706 H690 0.931 . S
C706 C700 1.383 . S
C706 C705 1.379 . S
H707 C701 0.959 . S
H708 C701 0.961 . S
H709 C701 0.960 . S
H710 C702 0.930 . S
H711 C703 0.929 . S
H712 C720 0.929 . S
H713 C722 0.930 . S
H714 C724 0.930 . S
H715 C727 0.929 . S
H716 C730 0.930 . S
H717 C732 0.960 . S
H718 C732 0.960 . S
H719 C732 0.960 . S
C720 H712 0.929 . S
C720 C721 1.377 . S
C720 C722 1.384 . S
C721 C720 1.377 . S
C721 C727 1.390 . S
C722 H713 0.930 . S
C722 C720 1.384 . S
C722 C723 1.372 . S
C723 C722 1.372 . S
C723 C724 1.400 . S
C723 C728 1.490 . S
C724 H714 0.930 . S
C724 C723 1.400 . S
C724 C727 1.386 . S
H725 C741 0.930 . S
H726 C742 0.931 . S
C727 H715 0.929 . S
C727 C721 1.390 . S
C727 C724 1.386 . S
C728 C723 1.490 . S
C728 C730 1.395 . S
C728 C731 1.403 . S
H729 C735 0.930 . S
C730 H716 0.930 . S
C730 C728 1.395 . S
C730 C733 1.403 . S
C731 C728 1.403 . S
C731 C732 1.524 . S
C731 C735 1.400 . S
C732 H717 0.960 . S
C732 H718 0.960 . S
C732 H719 0.960 . S
C732 C731 1.524 . S
C733 C730 1.403 . S
C733 C734 1.392 . S
C733 C737 1.495 . S
C734 C733 1.392 . S
C734 C735 1.385 . S
C734 C736 1.478 . S
C735 H729 0.930 . S
C735 C731 1.400 . S
C735 C734 1.385 . S
C736 C734 1.478 . S
C736 C738 1.381 . S
C736 C742 1.383 . S
C737 C733 1.495 . S
C737 H743 0.959 . S
C737 H744 0.961 . S
C737 H745 0.960 . S
C738 C736 1.381 . S
C738 C739 1.394 . S
C738 H746 0.930 . S
C739 C738 1.394 . S
C739 C740 1.383 . S
C739 H747 0.929 . S
C740 C739 1.383 . S
C740 C741 1.377 . S
C741 H725 0.930 . S
C741 C740 1.377 . S
C741 C742 1.379 . S
C742 H726 0.931 . S
C742 C736 1.383 . S
C742 C741 1.379 . S
H743 C737 0.959 . S
H744 C737 0.961 . S
H745 C737 0.960 . S
H746 C738 0.930 . S
H747 C739 0.929 . S
H748 C756 0.929 . S
H749 C758 0.930 . S
H750 C760 0.930 . S
H751 C763 0.929 . S
H752 C766 0.930 . S
H753 C768 0.960 . S
H754 C768 0.960 . S
H755 C768 0.960 . S
C756 H748 0.929 . S
C756 C757 1.377 . S
C756 C758 1.384 . S
C757 C756 1.377 . S
C757 C763 1.390 . S
C758 H749 0.930 . S
C758 C756 1.384 . S
C758 C759 1.372 . S
C759 C758 1.372 . S
C759 C760 1.400 . S
C759 C764 1.490 . S
C760 H750 0.930 . S
C760 C759 1.400 . S
C760 C763 1.386 . S
H761 C777 0.930 . S
H762 C778 0.931 . S
C763 H751 0.929 . S
C763 C757 1.390 . S
C763 C760 1.386 . S
C764 C759 1.490 . S
C764 C766 1.395 . S
C764 C767 1.403 . S
H765 C771 0.930 . S
C766 H752 0.930 . S
C766 C764 1.395 . S
C766 C769 1.403 . S
C767 C764 1.403 . S
C767 C768 1.524 . S
C767 C771 1.400 . S
C768 H753 0.960 . S
C768 H754 0.960 . S
C768 H755 0.960 . S
C768 C767 1.524 . S
C769 C766 1.403 . S
C769 C770 1.392 . S
C769 C773 1.495 . S
C770 C769 1.392 . S
C770 C771 1.385 . S
C770 C772 1.478 . S
C771 H765 0.930 . S
C771 C767 1.400 . S
C771 C770 1.385 . S
C772 C770 1.478 . S
C772 C774 1.381 . S
C772 C778 1.383 . S
C773 C769 1.495 . S
C773 H779 0.959 . S
C773 H780 0.961 . S
C773 H781 0.960 . S
C774 C772 1.381 . S
C774 C775 1.394 . S
C774 H782 0.930 . S
C775 C774 1.394 . S
C775 C776 1.383 . S
C775 H783 0.929 . S
C776 C775 1.383 . S
C776 C777 1.377 . S
C777 H761 0.930 . S
C777 C776 1.377 . S
C777 C778 1.379 . S
C778 H762 0.931 . S
C778 C772 1.383 . S
C778 C777 1.379 . S
H779 C773 0.959 . S
H780 C773 0.961 . S
H781 C773 0.960 . S
H782 C774 0.930 . S
H783 C775 0.929 . S
H784 C792 0.929 . S
H785 C794 0.930 . S
H786 C796 0.930 . S
H787 C799 0.929 . S
H788 C802 0.930 . S
H789 C804 0.960 . S
H790 C804 0.960 . S
H791 C804 0.960 . S
C792 H784 0.929 . S
C792 C793 1.377 . S
C792 C794 1.384 . S
C793 C792 1.377 . S
C793 C799 1.390 . S
C794 H785 0.930 . S
C794 C792 1.384 . S
C794 C795 1.372 . S
C795 C794 1.372 . S
C795 C796 1.400 . S
C795 C800 1.490 . S
C796 H786 0.930 . S
C796 C795 1.400 . S
C796 C799 1.386 . S
H797 C813 0.930 . S
H798 C814 0.931 . S
C799 H787 0.929 . S
C799 C793 1.390 . S
C799 C796 1.386 . S
C800 C795 1.490 . S
C800 C802 1.395 . S
C800 C803 1.403 . S
H801 C807 0.930 . S
C802 H788 0.930 . S
C802 C800 1.395 . S
C802 C805 1.403 . S
C803 C800 1.403 . S
C803 C804 1.524 . S
C803 C807 1.400 . S
C804 H789 0.960 . S
C804 H790 0.960 . S
C804 H791 0.960 . S
C804 C803 1.524 . S
C805 C802 1.403 . S
C805 C806 1.392 . S
C805 C809 1.495 . S
C806 C805 1.392 . S
C806 C807 1.385 . S
C806 C808 1.478 . S
C807 H801 0.930 . S
C807 C803 1.400 . S
C807 C806 1.385 . S
C808 C806 1.478 . S
C808 C810 1.381 . S
C808 C814 1.383 . S
C809 C805 1.495 . S
C809 H815 0.959 . S
C809 H816 0.961 . S
C809 H817 0.960 . S
C810 C808 1.381 . S
C810 C811 1.394 . S
C810 H818 0.930 . S
C811 C810 1.394 . S
C811 C812 1.383 . S
C811 H819 0.929 . S
C812 C811 1.383 . S
C812 C813 1.377 . S
C813 H797 0.930 . S
C813 C812 1.377 . S
C813 C814 1.379 . S
C814 H798 0.931 . S
C814 C808 1.383 . S
C814 C813 1.379 . S
H815 C809 0.959 . S
H816 C809 0.961 . S
H817 C809 0.960 . S
H818 C810 0.930 . S
H819 C811 0.929 . S
H820 C828 0.929 . S
H821 C830 0.930 . S
H822 C832 0.930 . S
H823 C835 0.929 . S
H824 C838 0.930 . S
H825 C840 0.960 . S
H826 C840 0.960 . S
H827 C840 0.960 . S
C828 H820 0.929 . S
C828 C829 1.377 . S
C828 C830 1.384 . S
C829 C828 1.377 . S
C829 C835 1.390 . S
C830 H821 0.930 . S
C830 C828 1.384 . S
C830 C831 1.372 . S
C831 C830 1.372 . S
C831 C832 1.400 . S
C831 C836 1.490 . S
C832 H822 0.930 . S
C832 C831 1.400 . S
C832 C835 1.386 . S
H833 C849 0.930 . S
H834 C850 0.931 . S
C835 H823 0.929 . S
C835 C829 1.390 . S
C835 C832 1.386 . S
C836 C831 1.490 . S
C836 C838 1.395 . S
C836 C839 1.403 . S
H837 C843 0.930 . S
C838 H824 0.930 . S
C838 C836 1.395 . S
C838 C841 1.403 . S
C839 C836 1.403 . S
C839 C840 1.524 . S
C839 C843 1.400 . S
C840 H825 0.960 . S
C840 H826 0.960 . S
C840 H827 0.960 . S
C840 C839 1.524 . S
C841 C838 1.403 . S
C841 C842 1.392 . S
C841 C845 1.495 . S
C842 C841 1.392 . S
C842 C843 1.385 . S
C842 C844 1.478 . S
C843 H837 0.930 . S
C843 C839 1.400 . S
C843 C842 1.385 . S
C844 C842 1.478 . S
C844 C846 1.381 . S
C844 C850 1.383 . S
C845 C841 1.495 . S
C845 H851 0.959 . S
C845 H852 0.961 . S
C845 H853 0.960 . S
C846 C844 1.381 . S
C846 C847 1.394 . S
C846 H854 0.930 . S
C847 C846 1.394 . S
C847 C848 1.383 . S
C847 H855 0.929 . S
C848 C847 1.383 . S
C848 C849 1.377 . S
C849 H833 0.930 . S
C849 C848 1.377 . S
C849 C850 1.379 . S
C850 H834 0.931 . S
C850 C844 1.383 . S
C850 C849 1.379 . S
H851 C845 0.959 . S
H852 C845 0.961 . S
H853 C845 0.960 . S
H854 C846 0.930 . S
H855 C847 0.929 . S
H856 C864 0.929 . S
H857 C866 0.930 . S
H858 C868 0.930 . S
H859 C871 0.929 . S
H860 C874 0.930 . S
H861 C876 0.960 . S
H862 C876 0.960 . S
H863 C876 0.960 . S
C864 H856 0.929 . S
C864 C865 1.377 . S
C864 C866 1.384 . S
C865 C864 1.377 . S
C865 C871 1.390 . S
C866 H857 0.930 . S
C866 C864 1.384 . S
C866 C867 1.372 . S
C867 C866 1.372 . S
C867 C868 1.400 . S
C867 C872 1.490 . S
C868 H858 0.930 . S
C868 C867 1.400 . S
C868 C871 1.386 . S
H869 C885 0.930 . S
H870 C886 0.931 . S
C871 H859 0.929 . S
C871 C865 1.390 . S
C871 C868 1.386 . S
C872 C867 1.490 . S
C872 C874 1.395 . S
C872 C875 1.403 . S
H873 C879 0.930 . S
C874 H860 0.930 . S
C874 C872 1.395 . S
C874 C877 1.403 . S
C875 C872 1.403 . S
C875 C876 1.524 . S
C875 C879 1.400 . S
C876 H861 0.960 . S
C876 H862 0.960 . S
C876 H863 0.960 . S
C876 C875 1.524 . S
C877 C874 1.403 . S
C877 C878 1.392 . S
C877 C881 1.495 . S
C878 C877 1.392 . S
C878 C879 1.385 . S
C878 C880 1.478 . S
C879 H873 0.930 . S
C879 C875 1.400 . S
C879 C878 1.385 . S
C880 C878 1.478 . S
C880 C882 1.381 . S
C880 C886 1.383 . S
C881 C877 1.495 . S
C881 H887 0.959 . S
C881 H888 0.961 . S
C881 H889 0.960 . S
C882 C880 1.381 . S
C882 C883 1.394 . S
C882 H890 0.930 . S
C883 C882 1.394 . S
C883 C884 1.383 . S
C883 H891 0.929 . S
C884 C883 1.383 . S
C884 C885 1.377 . S
C885 H869 0.930 . S
C885 C884 1.377 . S
C885 C886 1.379 . S
C886 H870 0.931 . S
C886 C880 1.383 . S
C886 C885 1.379 . S
H887 C881 0.959 . S
H888 C881 0.961 . S
H889 C881 0.960 . S
H890 C882 0.930 . S
H891 C883 0.929 . S
H892 C900 0.929 . S
H893 C902 0.930 . S
H894 C904 0.930 . S
H895 C907 0.929 . S
H896 C910 0.930 . S
H897 C912 0.960 . S
H898 C912 0.960 . S
H899 C912 0.960 . S
C900 H892 0.929 . S
C900 C901 1.377 . S
C900 C902 1.384 . S
C901 C900 1.377 . S
C901 C907 1.390 . S
C902 H893 0.930 . S
C902 C900 1.384 . S
C902 C903 1.372 . S
C903 C902 1.372 . S
C903 C904 1.400 . S
C903 C908 1.490 . S
C904 H894 0.930 . S
C904 C903 1.400 . S
C904 C907 1.386 . S
H905 C921 0.930 . S
H906 C922 0.931 . S
C907 H895 0.929 . S
C907 C901 1.390 . S
C907 C904 1.386 . S
C908 C903 1.490 . S
C908 C910 1.395 . S
C908 C911 1.403 . S
H909 C915 0.930 . S
C910 H896 0.930 . S
C910 C908 1.395 . S
C910 C913 1.403 . S
C911 C908 1.403 . S
C911 C912 1.524 . S
C911 C915 1.400 . S
C912 H897 0.960 . S
C912 H898 0.960 . S
C912 H899 0.960 . S
C912 C911 1.524 . S
C913 C910 1.403 . S
C913 C914 1.392 . S
C913 C917 1.495 . S
C914 C913 1.392 . S
C914 C915 1.385 . S
C914 C916 1.478 . S
C915 H909 0.930 . S
C915 C911 1.400 . S
C915 C914 1.385 . S
C916 C914 1.478 . S
C916 C918 1.381 . S
C916 C922 1.383 . S
C917 C913 1.495 . S
C917 H923 0.959 . S
C917 H924 0.961 . S
C917 H925 0.960 . S
C918 C916 1.381 . S
C918 C919 1.394 . S
C918 H926 0.930 . S
C919 C918 1.394 . S
C919 C920 1.383 . S
C919 H927 0.929 . S
C920 C919 1.383 . S
C920 C921 1.377 . S
C921 H905 0.930 . S
C921 C920 1.377 . S
C921 C922 1.379 . S
C922 H906 0.931 . S
C922 C916 1.383 . S
C922 C921 1.379 . S
H923 C917 0.959 . S
H924 C917 0.961 . S
H925 C917 0.960 . S
H926 C918 0.930 . S
H927 C919 0.929 . S
H928 C936 0.929 . S
H929 C938 0.930 . S
H930 C940 0.930 . S
H931 C943 0.929 . S
H932 C946 0.930 . S
H933 C948 0.960 . S
H934 C948 0.960 . S
H935 C948 0.960 . S
C936 H928 0.929 . S
C936 C937 1.377 . S
C936 C938 1.384 . S
C937 C936 1.377 . S
C937 C943 1.390 . S
C938 H929 0.930 . S
C938 C936 1.384 . S
C938 C939 1.372 . S
C939 C938 1.372 . S
C939 C940 1.400 . S
C939 C944 1.490 . S
C940 H930 0.930 . S
C940 C939 1.400 . S
C940 C943 1.386 . S
H941 C957 0.930 . S
H942 C958 0.931 . S
C943 H931 0.929 . S
C943 C937 1.390 . S
C943 C940 1.386 . S
C944 C939 1.490 . S
C944 C946 1.395 . S
C944 C947 1.403 . S
H945 C951 0.930 . S
C946 H932 0.930 . S
C946 C944 1.395 . S
C946 C949 1.403 . S
C947 C944 1.403 . S
C947 C948 1.524 . S
C947 C951 1.400 . S
C948 H933 0.960 . S
C948 H934 0.960 . S
C948 H935 0.960 . S
C948 C947 1.524 . S
C949 C946 1.403 . S
C949 C950 1.392 . S
C949 C953 1.495 . S
C950 C949 1.392 . S
C950 C951 1.385 . S
C950 C952 1.478 . S
C951 H945 0.930 . S
C951 C947 1.400 . S
C951 C950 1.385 . S
C952 C950 1.478 . S
C952 C954 1.381 . S
C952 C958 1.383 . S
C953 C949 1.495 . S
C953 H959 0.959 . S
C953 H960 0.961 . S
C953 H961 0.960 . S
C954 C952 1.381 . S
C954 C955 1.394 . S
C954 H962 0.930 . S
C955 C954 1.394 . S
C955 C956 1.383 . S
C955 H963 0.929 . S
C956 C955 1.383 . S
C956 C957 1.377 . S
C957 H941 0.930 . S
C957 C956 1.377 . S
C957 C958 1.379 . S
C958 H942 0.931 . S
C958 C952 1.383 . S
C958 C957 1.379 . S
H959 C953 0.959 . S
H960 C953 0.961 . S
H961 C953 0.960 . S
H962 C954 0.930 . S
H963 C955 0.929 . S
H964 C972 0.929 . S
H965 C974 0.930 . S
H966 C976 0.930 . S
H967 C979 0.929 . S
H968 C982 0.930 . S
H969 C984 0.960 . S
H970 C984 0.960 . S
H971 C984 0.960 . S
C972 H964 0.929 . S
C972 C973 1.377 . S
C972 C974 1.384 . S
C973 C972 1.377 . S
C973 C979 1.390 . S
C974 H965 0.930 . S
C974 C972 1.384 . S
C974 C975 1.372 . S
C975 C974 1.372 . S
C975 C976 1.400 . S
C975 C980 1.490 . S
C976 H966 0.930 . S
C976 C975 1.400 . S
C976 C979 1.386 . S
H977 C993 0.930 . S
H978 C994 0.931 . S
C979 H967 0.929 . S
C979 C973 1.390 . S
C979 C976 1.386 . S
C980 C975 1.490 . S
C980 C982 1.395 . S
C980 C983 1.403 . S
H981 C987 0.930 . S
C982 H968 0.930 . S
C982 C980 1.395 . S
C982 C985 1.403 . S
C983 C980 1.403 . S
C983 C984 1.524 . S
C983 C987 1.400 . S
C984 H969 0.960 . S
C984 H970 0.960 . S
C984 H971 0.960 . S
C984 C983 1.524 . S
C985 C982 1.403 . S
C985 C986 1.392 . S
C985 C989 1.495 . S
C986 C985 1.392 . S
C986 C987 1.385 . S
C986 C988 1.478 . S
C987 H981 0.930 . S
C987 C983 1.400 . S
C987 C986 1.385 . S
C988 C986 1.478 . S
C988 C990 1.381 . S
C988 C994 1.383 . S
C989 C985 1.495 . S
C989 H995 0.959 . S
C989 H996 0.961 . S
C989 H997 0.960 . S
C990 C988 1.381 . S
C990 C991 1.394 . S
C990 H998 0.930 . S
C991 C990 1.394 . S
C991 C992 1.383 . S
C991 H999 0.929 . S
C992 C991 1.383 . S
C992 C993 1.377 . S
C993 H977 0.930 . S
C993 C992 1.377 . S
C993 C994 1.379 . S
C994 H978 0.931 . S
C994 C988 1.383 . S
C994 C993 1.379 . S
H995 C989 0.959 . S
H996 C989 0.961 . S
H997 C989 0.960 . S
H998 C990 0.930 . S
H999 C991 0.929 . S
H1000 C1008 0.929 . S
H1001 C1010 0.930 . S
H1002 C1012 0.930 . S
H1003 C1015 0.929 . S
H1004 C1018 0.930 . S
H1005 C1020 0.960 . S
H1006 C1020 0.960 . S
H1007 C1020 0.960 . S
C1008 H1000 0.929 . S
C1008 C1009 1.377 . S
C1008 C1010 1.384 . S
C1009 C1008 1.377 . S
C1009 C1015 1.390 . S
C1010 H1001 0.930 . S
C1010 C1008 1.384 . S
C1010 C1011 1.372 . S
C1011 C1010 1.372 . S
C1011 C1012 1.400 . S
C1011 C1016 1.490 . S
C1012 H1002 0.930 . S
C1012 C1011 1.400 . S
C1012 C1015 1.386 . S
H1013 C1029 0.930 . S
H1014 C1030 0.931 . S
C1015 H1003 0.929 . S
C1015 C1009 1.390 . S
C1015 C1012 1.386 . S
C1016 C1011 1.490 . S
C1016 C1018 1.395 . S
C1016 C1019 1.403 . S
H1017 C1023 0.930 . S
C1018 H1004 0.930 . S
C1018 C1016 1.395 . S
C1018 C1021 1.403 . S
C1019 C1016 1.403 . S
C1019 C1020 1.524 . S
C1019 C1023 1.400 . S
C1020 H1005 0.960 . S
C1020 H1006 0.960 . S
C1020 H1007 0.960 . S
C1020 C1019 1.524 . S
C1021 C1018 1.403 . S
C1021 C1022 1.392 . S
C1021 C1025 1.495 . S
C1022 C1021 1.392 . S
C1022 C1023 1.385 . S
C1022 C1024 1.478 . S
C1023 H1017 0.930 . S
C1023 C1019 1.400 . S
C1023 C1022 1.385 . S
C1024 C1022 1.478 . S
C1024 C1026 1.381 . S
C1024 C1030 1.383 . S
C1025 C1021 1.495 . S
C1025 H1031 0.959 . S
C1025 H1032 0.961 . S
C1025 H1033 0.960 . S
C1026 C1024 1.381 . S
C1026 C1027 1.394 . S
C1026 H1034 0.930 . S
C1027 C1026 1.394 . S
C1027 C1028 1.383 . S
C1027 H1035 0.929 . S
C1028 C1027 1.383 . S
C1028 C1029 1.377 . S
C1029 H1013 0.930 . S
C1029 C1028 1.377 . S
C1029 C1030 1.379 . S
C1030 H1014 0.931 . S
C1030 C1024 1.383 . S
C1030 C1029 1.379 . S
H1031 C1025 0.959 . S
H1032 C1025 0.961 . S
H1033 C1025 0.960 . S
H1034 C1026 0.930 . S
H1035 C1027 0.929 . S
H1036 C1044 0.929 . S
H1037 C1046 0.930 . S
H1038 C1048 0.930 . S
H1039 C1051 0.929 . S
H1040 C1054 0.930 . S
H1041 C1056 0.960 . S
H1042 C1056 0.960 . S
H1043 C1056 0.960 . S
C1044 H1036 0.929 . S
C1044 C1045 1.377 . S
C1044 C1046 1.384 . S
C1045 C1044 1.377 . S
C1045 C1051 1.390 . S
C1046 H1037 0.930 . S
C1046 C1044 1.384 . S
C1046 C1047 1.372 . S
C1047 C1046 1.372 . S
C1047 C1048 1.400 . S
C1047 C1052 1.490 . S
C1048 H1038 0.930 . S
C1048 C1047 1.400 . S
C1048 C1051 1.386 . S
H1049 C1065 0.930 . S
H1050 C1066 0.931 . S
C1051 H1039 0.929 . S
C1051 C1045 1.390 . S
C1051 C1048 1.386 . S
C1052 C1047 1.490 . S
C1052 C1054 1.395 . S
C1052 C1055 1.403 . S
H1053 C1059 0.930 . S
C1054 H1040 0.930 . S
C1054 C1052 1.395 . S
C1054 C1057 1.403 . S
C1055 C1052 1.403 . S
C1055 C1056 1.524 . S
C1055 C1059 1.400 . S
C1056 H1041 0.960 . S
C1056 H1042 0.960 . S
C1056 H1043 0.960 . S
C1056 C1055 1.524 . S
C1057 C1054 1.403 . S
C1057 C1058 1.392 . S
C1057 C1061 1.495 . S
C1058 C1057 1.392 . S
C1058 C1059 1.385 . S
C1058 C1060 1.478 . S
C1059 H1053 0.930 . S
C1059 C1055 1.400 . S
C1059 C1058 1.385 . S
C1060 C1058 1.478 . S
C1060 C1062 1.381 . S
C1060 C1066 1.383 . S
C1061 C1057 1.495 . S
C1061 H1067 0.959 . S
C1061 H1068 0.961 . S
C1061 H1069 0.960 . S
C1062 C1060 1.381 . S
C1062 C1063 1.394 . S
C1062 H1070 0.930 . S
C1063 C1062 1.394 . S
C1063 C1064 1.383 . S
C1063 H1071 0.929 . S
C1064 C1063 1.383 . S
C1064 C1065 1.377 . S
C1065 H1049 0.930 . S
C1065 C1064 1.377 . S
C1065 C1066 1.379 . S
C1066 H1050 0.931 . S
C1066 C1060 1.383 . S
C1066 C1065 1.379 . S
H1067 C1061 0.959 . S
H1068 C1061 0.961 . S
H1069 C1061 0.960 . S
H1070 C1062 0.930 . S
H1071 C1063 0.929 . S
H1072 C1080 0.929 . S
H1073 C1082 0.930 . S
H1074 C1084 0.930 . S
H1075 C1087 0.929 . S
H1076 C1090 0.930 . S
H1077 C1092 0.960 . S
H1078 C1092 0.960 . S
H1079 C1092 0.960 . S
C1080 H1072 0.929 . S
C1080 C1081 1.377 . S
C1080 C1082 1.384 . S
C1081 C1080 1.377 . S
C1081 C1087 1.390 . S
C1082 H1073 0.930 . S
C1082 C1080 1.384 . S
C1082 C1083 1.372 . S
C1083 C1082 1.372 . S
C1083 C1084 1.400 . S
C1083 C1088 1.490 . S
C1084 H1074 0.930 . S
C1084 C1083 1.400 . S
C1084 C1087 1.386 . S
H1085 C1101 0.930 . S
H1086 C1102 0.931 . S
C1087 H1075 0.929 . S
C1087 C1081 1.390 . S
C1087 C1084 1.386 . S
C1088 C1083 1.490 . S
C1088 C1090 1.395 . S
C1088 C1091 1.403 . S
H1089 C1095 0.930 . S
C1090 H1076 0.930 . S
C1090 C1088 1.395 . S
C1090 C1093 1.403 . S
C1091 C1088 1.403 . S
C1091 C1092 1.524 . S
C1091 C1095 1.400 . S
C1092 H1077 0.960 . S
C1092 H1078 0.960 . S
C1092 H1079 0.960 . S
C1092 C1091 1.524 . S
C1093 C1090 1.403 . S
C1093 C1094 1.392 . S
C1093 C1097 1.495 . S
C1094 C1093 1.392 . S
C1094 C1095 1.385 . S
C1094 C1096 1.478 . S
C1095 H1089 0.930 . S
C1095 C1091 1.400 . S
C1095 C1094 1.385 . S
C1096 C1094 1.478 . S
C1096 C1098 1.381 . S
C1096 C1102 1.383 . S
C1097 C1093 1.495 . S
C1097 H1103 0.959 . S
C1097 H1104 0.961 . S
C1097 H1105 0.960 . S
C1098 C1096 1.381 . S
C1098 C1099 1.394 . S
C1098 H1106 0.930 . S
C1099 C1098 1.394 . S
C1099 C1100 1.383 . S
C1099 H1107 0.929 . S
C1100 C1099 1.383 . S
C1100 C1101 1.377 . S
C1101 H1085 0.930 . S
C1101 C1100 1.377 . S
C1101 C1102 1.379 . S
C1102 H1086 0.931 . S
C1102 C1096 1.383 . S
C1102 C1101 1.379 . S
H1103 C1097 0.959 . S
H1104 C1097 0.961 . S
H1105 C1097 0.960 . S
H1106 C1098 0.930 . S
H1107 C1099 0.929 . S
H1108 C1116 0.929 . S
H1109 C1118 0.930 . S
H1110 C1120 0.930 . S
H1111 C1123 0.929 . S
H1112 C1126 0.930 . S
H1113 C1128 0.960 . S
H1114 C1128 0.960 . S
H1115 C1128 0.960 . S
C1116 H1108 0.929 . S
C1116 C1117 1.377 . S
C1116 C1118 1.384 . S
C1117 C1116 1.377 . S
C1117 C1123 1.390 . S
C1118 H1109 0.930 . S
C1118 C1116 1.384 . S
C1118 C1119 1.372 . S
C1119 C1118 1.372 . S
C1119 C1120 1.400 . S
C1119 C1124 1.490 . S
C1120 H1110 0.930 . S
C1120 C1119 1.400 . S
C1120 C1123 1.386 . S
H1121 C1137 0.930 . S
H1122 C1138 0.931 . S
C1123 H1111 0.929 . S
C1123 C1117 1.390 . S
C1123 C1120 1.386 . S
C1124 C1119 1.490 . S
C1124 C1126 1.395 . S
C1124 C1127 1.403 . S
H1125 C1131 0.930 . S
C1126 H1112 0.930 . S
C1126 C1124 1.395 . S
C1126 C1129 1.403 . S
C1127 C1124 1.403 . S
C1127 C1128 1.524 . S
C1127 C1131 1.400 . S
C1128 H1113 0.960 . S
C1128 H1114 0.960 . S
C1128 H1115 0.960 . S
C1128 C1127 1.524 . S
C1129 C1126 1.403 . S
C1129 C1130 1.392 . S
C1129 C1133 1.495 . S
C1130 C1129 1.392 . S
C1130 C1131 1.385 . S
C1130 C1132 1.478 . S
C1131 H1125 0.930 . S
C1131 C1127 1.400 . S
C1131 C1130 1.385 . S
C1132 C1130 1.478 . S
C1132 C1134 1.381 . S
C1132 C1138 1.383 . S
C1133 C1129 1.495 . S
C1133 H1139 0.959 . S
C1133 H1140 0.961 . S
C1133 H1141 0.960 . S
C1134 C1132 1.381 . S
C1134 C1135 1.394 . S
C1134 H1142 0.930 . S
C1135 C1134 1.394 . S
C1135 C1136 1.383 . S
C1135 H1143 0.929 . S
C1136 C1135 1.383 . S
C1136 C1137 1.377 . S
C1137 H1121 0.930 . S
C1137 C1136 1.377 . S
C1137 C1138 1.379 . S
C1138 H1122 0.931 . S
C1138 C1132 1.383 . S
C1138 C1137 1.379 . S
H1139 C1133 0.959 . S
H1140 C1133 0.961 . S
H1141 C1133 0.960 . S
H1142 C1134 0.930 . S
H1143 C1135 0.929 . S
H1144 C1152 0.929 . S
H1145 C1154 0.930 . S
H1146 C1156 0.930 . S
H1147 C1159 0.929 . S
H1148 C1162 0.930 . S
H1149 C1164 0.960 . S
H1150 C1164 0.960 . S
H1151 C1164 0.960 . S
C1152 H1144 0.929 . S
C1152 C1153 1.377 . S
C1152 C1154 1.384 . S
C1153 C1152 1.377 . S
C1153 C1159 1.390 . S
C1154 H1145 0.930 . S
C1154 C1152 1.384 . S
C1154 C1155 1.372 . S
C1155 C1154 1.372 . S
C1155 C1156 1.400 . S
C1155 C1160 1.490 . S
C1156 H1146 0.930 . S
C1156 C1155 1.400 . S
C1156 C1159 1.386 . S
H1157 C1173 0.930 . S
H1158 C1174 0.931 . S
C1159 H1147 0.929 . S
C1159 C1153 1.390 . S
C1159 C1156 1.386 . S
C1160 C1155 1.490 . S
C1160 C1162 1.395 . S
C1160 C1163 1.403 . S
H1161 C1167 0.930 . S
C1162 H1148 0.930 . S
C1162 C1160 1.395 . S
C1162 C1165 1.403 . S
C1163 C1160 1.403 . S
C1163 C1164 1.524 . S
C1163 C1167 1.400 . S
C1164 H1149 0.960 . S
C1164 H1150 0.960 . S
C1164 H1151 0.960 . S
C1164 C1163 1.524 . S
C1165 C1162 1.403 . S
C1165 C1166 1.392 . S
C1165 C1169 1.495 . S
C1166 C1165 1.392 . S
C1166 C1167 1.385 . S
C1166 C1168 1.478 . S
C1167 H1161 0.930 . S
C1167 C1163 1.400 . S
C1167 C1166 1.385 . S
C1168 C1166 1.478 . S
C1168 C1170 1.381 . S
C1168 C1174 1.383 . S
C1169 C1165 1.495 . S
C1169 H1175 0.959 . S
C1169 H1176 0.961 . S
C1169 H1177 0.960 . S
C1170 C1168 1.381 . S
C1170 C1171 1.394 . S
C1170 H1178 0.930 . S
C1171 C1170 1.394 . S
C1171 C1172 1.383 . S
C1171 H1179 0.929 . S
C1172 C1171 1.383 . S
C1172 C1173 1.377 . S
C1173 H1157 0.930 . S
C1173 C1172 1.377 . S
C1173 C1174 1.379 . S
C1174 H1158 0.931 . S
C1174 C1168 1.383 . S
C1174 C1173 1.379 . S
H1175 C1169 0.959 . S
H1176 C1169 0.961 . S
H1177 C1169 0.960 . S
H1178 C1170 0.930 . S
H1179 C1171 0.929 . S
H1180 C1188 0.929 . S
H1181 C1190 0.930 . S
H1182 C1192 0.930 . S
H1183 C1195 0.929 . S
H1184 C1198 0.930 . S
H1185 C1200 0.960 . S
H1186 C1200 0.960 . S
H1187 C1200 0.960 . S
C1188 H1180 0.929 . S
C1188 C1189 1.377 . S
C1188 C1190 1.384 . S
C1189 C1188 1.377 . S
C1189 C1195 1.390 . S
C1190 H1181 0.930 . S
C1190 C1188 1.384 . S
C1190 C1191 1.372 . S
C1191 C1190 1.372 . S
C1191 C1192 1.400 . S
C1191 C1196 1.490 . S
C1192 H1182 0.930 . S
C1192 C1191 1.400 . S
C1192 C1195 1.386 . S
H1193 C1209 0.930 . S
H1194 C1210 0.931 . S
C1195 H1183 0.929 . S
C1195 C1189 1.390 . S
C1195 C1192 1.386 . S
C1196 C1191 1.490 . S
C1196 C1198 1.395 . S
C1196 C1199 1.403 . S
H1197 C1203 0.930 . S
C1198 H1184 0.930 . S
C1198 C1196 1.395 . S
C1198 C1201 1.403 . S
C1199 C1196 1.403 . S
C1199 C1200 1.524 . S
C1199 C1203 1.400 . S
C1200 H1185 0.960 . S
C1200 H1186 0.960 . S
C1200 H1187 0.960 . S
C1200 C1199 1.524 . S
C1201 C1198 1.403 . S
C1201 C1202 1.392 . S
C1201 C1205 1.495 . S
C1202 C1201 1.392 . S
C1202 C1203 1.385 . S
C1202 C1204 1.478 . S
C1203 H1197 0.930 . S
C1203 C1199 1.400 . S
C1203 C1202 1.385 . S
C1204 C1202 1.478 . S
C1204 C1206 1.381 . S
C1204 C1210 1.383 . S
C1205 C1201 1.495 . S
C1205 H1211 0.959 . S
C1205 H1212 0.961 . S
C1205 H1213 0.960 . S
C1206 C1204 1.381 . S
C1206 C1207 1.394 . S
C1206 H1214 0.930 . S
C1207 C1206 1.394 . S
C1207 C1208 1.383 . S
C1207 H1215 0.929 . S
C1208 C1207 1.383 . S
C1208 C1209 1.377 . S
C1209 H1193 0.930 . S
C1209 C1208 1.377 . S
C1209 C1210 1.379 . S
C1210 H1194 0.931 . S
C1210 C1204 1.383 . S
C1210 C1209 1.379 . S
H1211 C1205 0.959 . S
H1212 C1205 0.961 . S
H1213 C1205 0.960 . S
H1214 C1206 0.930 . S
H1215 C1207 0.929 . S
H1216 C1224 0.929 . S
H1217 C1226 0.930 . S
H1218 C1228 0.930 . S
H1219 C1231 0.929 . S
H1220 C1234 0.930 . S
H1221 C1236 0.960 . S
H1222 C1236 0.960 . S
H1223 C1236 0.960 . S
C1224 H1216 0.929 . S
C1224 C1225 1.377 . S
C1224 C1226 1.384 . S
C1225 C1224 1.377 . S
C1225 C1231 1.390 . S
C1226 H1217 0.930 . S
C1226 C1224 1.384 . S
C1226 C1227 1.372 . S
C1227 C1226 1.372 . S
C1227 C1228 1.400 . S
C1227 C1232 1.490 . S
C1228 H1218 0.930 . S
C1228 C1227 1.400 . S
C1228 C1231 1.386 . S
H1229 C1245 0.930 . S
H1230 C1246 0.931 . S
C1231 H1219 0.929 . S
C1231 C1225 1.390 . S
C1231 C1228 1.386 . S
C1232 C1227 1.490 . S
C1232 C1234 1.395 . S
C1232 C1235 1.403 . S
H1233 C1239 0.930 . S
C1234 H1220 0.930 . S
C1234 C1232 1.395 . S
C1234 C1237 1.403 . S
C1235 C1232 1.403 . S
C1235 C1236 1.524 . S
C1235 C1239 1.400 . S
C1236 H1221 0.960 . S
C1236 H1222 0.960 . S
C1236 H1223 0.960 . S
C1236 C1235 1.524 . S
C1237 C1234 1.403 . S
C1237 C1238 1.392 . S
C1237 C1241 1.495 . S
C1238 C1237 1.392 . S
C1238 C1239 1.385 . S
C1238 C1240 1.478 . S
C1239 H1233 0.930 . S
C1239 C1235 1.400 . S
C1239 C1238 1.385 . S
C1240 C1238 1.478 . S
C1240 C1242 1.381 . S
C1240 C1246 1.383 . S
C1241 C1237 1.495 . S
C1241 H1247 0.959 . S
C1241 H1248 0.961 . S
C1241 H1249 0.960 . S
C1242 C1240 1.381 . S
C1242 C1243 1.394 . S
C1242 H1250 0.930 . S
C1243 C1242 1.394 . S
C1243 C1244 1.383 . S
C1243 H1251 0.929 . S
C1244 C1243 1.383 . S
C1244 C1245 1.377 . S
C1245 H1229 0.930 . S
C1245 C1244 1.377 . S
C1245 C1246 1.379 . S
C1246 H1230 0.931 . S
C1246 C1240 1.383 . S
C1246 C1245 1.379 . S
H1247 C1241 0.959 . S
H1248 C1241 0.961 . S
H1249 C1241 0.960 . S
H1250 C1242 0.930 . S
H1251 C1243 0.929 . S
H1252 C1260 0.929 . S
H1253 C1262 0.930 . S
H1254 C1264 0.930 . S
H1255 C1267 0.929 . S
H1256 C1270 0.930 . S
H1257 C1272 0.960 . S
H1258 C1272 0.960 . S
H1259 C1272 0.960 . S
C1260 H1252 0.929 . S
C1260 C1261 1.377 . S
C1260 C1262 1.384 . S
C1261 C1260 1.377 . S
C1261 C1267 1.390 . S
C1262 H1253 0.930 . S
C1262 C1260 1.384 . S
C1262 C1263 1.372 . S
C1263 C1262 1.372 . S
C1263 C1264 1.400 . S
C1263 C1268 1.490 . S
C1264 H1254 0.930 . S
C1264 C1263 1.400 . S
C1264 C1267 1.386 . S
H1265 C1281 0.930 . S
H1266 C1282 0.931 . S
C1267 H1255 0.929 . S
C1267 C1261 1.390 . S
C1267 C1264 1.386 . S
C1268 C1263 1.490 . S
C1268 C1270 1.395 . S
C1268 C1271 1.403 . S
H1269 C1275 0.930 . S
C1270 H1256 0.930 . S
C1270 C1268 1.395 . S
C1270 C1273 1.403 . S
C1271 C1268 1.403 . S
C1271 C1272 1.524 . S
C1271 C1275 1.400 . S
C1272 H1257 0.960 . S
C1272 H1258 0.960 . S
C1272 H1259 0.960 . S
C1272 C1271 1.524 . S
C1273 C1270 1.403 . S
C1273 C1274 1.392 . S
C1273 C1277 1.495 . S
C1274 C1273 1.392 . S
C1274 C1275 1.385 . S
C1274 C1276 1.478 . S
C1275 H1269 0.930 . S
C1275 C1271 1.400 . S
C1275 C1274 1.385 . S
C1276 C1274 1.478 . S
C1276 C1278 1.381 . S
C1276 C1282 1.383 . S
C1277 C1273 1.495 . S
C1277 H1283 0.959 . S
C1277 H1284 0.961 . S
C1277 H1285 0.960 . S
C1278 C1276 1.381 . S
C1278 C1279 1.394 . S
C1278 H1286 0.930 . S
C1279 C1278 1.394 . S
C1279 C1280 1.383 . S
C1279 H1287 0.929 . S
C1280 C1279 1.383 . S
C1280 C1281 1.377 . S
C1281 H1265 0.930 . S
C1281 C1280 1.377 . S
C1281 C1282 1.379 . S
C1282 H1266 0.931 . S
C1282 C1276 1.383 . S
C1282 C1281 1.379 . S
H1283 C1277 0.959 . S
H1284 C1277 0.961 . S
H1285 C1277 0.960 . S
H1286 C1278 0.930 . S
H1287 C1279 0.929 . S
H1288 C1296 0.929 . S
H1289 C1298 0.930 . S
H1290 C1300 0.930 . S
H1291 C1303 0.929 . S
H1292 C1306 0.930 . S
H1293 C1308 0.960 . S
H1294 C1308 0.960 . S
H1295 C1308 0.960 . S
C1296 H1288 0.929 . S
C1296 C1297 1.377 . S
C1296 C1298 1.384 . S
C1297 C1296 1.377 . S
C1297 C1303 1.390 . S
C1298 H1289 0.930 . S
C1298 C1296 1.384 . S
C1298 C1299 1.372 . S
C1299 C1298 1.372 . S
C1299 C1300 1.400 . S
C1299 C1304 1.490 . S
C1300 H1290 0.930 . S
C1300 C1299 1.400 . S
C1300 C1303 1.386 . S
H1301 C1317 0.930 . S
H1302 C1318 0.931 . S
C1303 H1291 0.929 . S
C1303 C1297 1.390 . S
C1303 C1300 1.386 . S
C1304 C1299 1.490 . S
C1304 C1306 1.395 . S
C1304 C1307 1.403 . S
H1305 C1311 0.930 . S
C1306 H1292 0.930 . S
C1306 C1304 1.395 . S
C1306 C1309 1.403 . S
C1307 C1304 1.403 . S
C1307 C1308 1.524 . S
C1307 C1311 1.400 . S
C1308 H1293 0.960 . S
C1308 H1294 0.960 . S
C1308 H1295 0.960 . S
C1308 C1307 1.524 . S
C1309 C1306 1.403 . S
C1309 C1310 1.392 . S
C1309 C1313 1.495 . S
C1310 C1309 1.392 . S
C1310 C1311 1.385 . S
C1310 C1312 1.478 . S
C1311 H1305 0.930 . S
C1311 C1307 1.400 . S
C1311 C1310 1.385 . S
C1312 C1310 1.478 . S
C1312 C1314 1.381 . S
C1312 C1318 1.383 . S
C1313 C1309 1.495 . S
C1313 H1319 0.959 . S
C1313 H1320 0.961 . S
C1313 H1321 0.960 . S
C1314 C1312 1.381 . S
C1314 C1315 1.394 . S
C1314 H1322 0.930 . S
C1315 C1314 1.394 . S
C1315 C1316 1.383 . S
C1315 H1323 0.929 . S
C1316 C1315 1.383 . S
C1316 C1317 1.377 . S
C1317 H1301 0.930 . S
C1317 C1316 1.377 . S
C1317 C1318 1.379 . S
C1318 H1302 0.931 . S
C1318 C1312 1.383 . S
C1318 C1317 1.379 . S
H1319 C1313 0.959 . S
H1320 C1313 0.961 . S
H1321 C1313 0.960 . S
H1322 C1314 0.930 . S
H1323 C1315 0.929 . S
H1324 C1332 0.929 . S
H1325 C1334 0.930 . S
H1326 C1336 0.930 . S
H1327 C1339 0.929 . S
H1328 C1342 0.930 . S
H1329 C1344 0.960 . S
H1330 C1344 0.960 . S
H1331 C1344 0.960 . S
C1332 H1324 0.929 . S
C1332 C1333 1.377 . S
C1332 C1334 1.384 . S
C1333 C1332 1.377 . S
C1333 C1339 1.390 . S
C1334 H1325 0.930 . S
C1334 C1332 1.384 . S
C1334 C1335 1.372 . S
C1335 C1334 1.372 . S
C1335 C1336 1.400 . S
C1335 C1340 1.490 . S
C1336 H1326 0.930 . S
C1336 C1335 1.400 . S
C1336 C1339 1.386 . S
H1337 C1353 0.930 . S
H1338 C1354 0.931 . S
C1339 H1327 0.929 . S
C1339 C1333 1.390 . S
C1339 C1336 1.386 . S
C1340 C1335 1.490 . S
C1340 C1342 1.395 . S
C1340 C1343 1.403 . S
H1341 C1347 0.930 . S
C1342 H1328 0.930 . S
C1342 C1340 1.395 . S
C1342 C1345 1.403 . S
C1343 C1340 1.403 . S
C1343 C1344 1.524 . S
C1343 C1347 1.400 . S
C1344 H1329 0.960 . S
C1344 H1330 0.960 . S
C1344 H1331 0.960 . S
C1344 C1343 1.524 . S
C1345 C1342 1.403 . S
C1345 C1346 1.392 . S
C1345 C1349 1.495 . S
C1346 C1345 1.392 . S
C1346 C1347 1.385 . S
C1346 C1348 1.478 . S
C1347 H1341 0.930 . S
C1347 C1343 1.400 . S
C1347 C1346 1.385 . S
C1348 C1346 1.478 . S
C1348 C1350 1.381 . S
C1348 C1354 1.383 . S
C1349 C1345 1.495 . S
C1349 H1355 0.959 . S
C1349 H1356 0.961 . S
C1349 H1357 0.960 . S
C1350 C1348 1.381 . S
C1350 C1351 1.394 . S
C1350 H1358 0.930 . S
C1351 C1350 1.394 . S
C1351 C1352 1.383 . S
C1351 H1359 0.929 . S
C1352 C1351 1.383 . S
C1352 C1353 1.377 . S
C1353 H1337 0.930 . S
C1353 C1352 1.377 . S
C1353 C1354 1.379 . S
C1354 H1338 0.931 . S
C1354 C1348 1.383 . S
C1354 C1353 1.379 . S
H1355 C1349 0.959 . S
H1356 C1349 0.961 . S
H1357 C1349 0.960 . S
H1358 C1350 0.930 . S
H1359 C1351 0.929 . S
C217 C56 1.489 . S
C236 C4 1.486 . S
C253 C75 1.488 . S
C272 C17 1.488 . S
C289 C82 1.489 . S
C308 C36 1.482 . S
C325 C95 1.489 . S
C344 C43 1.484 . S
C361 C166 1.488 . S
C380 C108 1.480 . S
C397 C173 1.487 . S
C416 C127 1.480 . S
C433 C140 1.488 . S
C452 C186 1.486 . S
C469 C205 1.488 . S
C488 C147 1.482 . S
C505 C5 1.546 . S
C524 C68 1.539 . S
C541 C83 1.546 . S
C560 C18 1.538 1_554 S
C577 C29 1.546 . S
C596 C96 1.540 . S
C613 C57 1.545 . S
C632 C44 1.536 1_554 S
C649 C174 1.546 . S
C668 C109 1.540 . S
C685 C187 1.546 . S
C704 C120 1.541 . S
C721 C133 1.547 . S
C740 C198 1.545 . S
C757 C148 1.547 . S
C776 C159 1.545 . S
C793 C199 1.377 . S
C812 C10 1.387 . S
C829 C160 1.381 . S
C848 C23 1.366 . S
C865 C179 1.378 . S
C884 C30 1.384 . S
C901 C192 1.381 . S
C920 C49 1.366 . S
C937 C121 1.379 . S
C956 C62 1.376 . S
C973 C134 1.381 . S
C992 C69 1.370 . S
C1009 C88 1.381 . S
C1028 C153 1.367 . S
C1045 C101 1.378 . S
C1064 C114 1.383 . S
C1081 C172 1.348 . S
C1100 C31 1.342 . S
C1117 C185 1.348 . S
C1136 C42 1.347 . S
C1153 C200 1.349 . S
C1172 C3 1.352 . S
C1189 C16 1.348 . S
C1208 C161 1.342 . S
C1225 C146 1.346 . S
C1244 C81 1.338 . S
C1261 C94 1.349 . S
C1280 C107 1.353 . S
C1297 C122 1.346 . S
C1316 C55 1.337 . S
C1333 C135 1.348 . S
C1352 C70 1.349 . S
