# Generated by pormake.
# Topology vcb, (5)-cn, num edge types: 1
# Building blocks:
#     Node 0, Type 0, BuildingBlock: XOMCOT_clean_sbu_1, # of connection points: 5
#     Node 1, Type 0, BuildingBlock: XOMCOT_clean_sbu_1, # of connection points: 5
#     Node 2, Type 0, BuildingBlock: XOMCOT_clean_sbu_1, # of connection points: 5
#     Node 3, Type 0, BuildingBlock: XOMCOT_clean_sbu_1, # of connection points: 5
#     Node 4, Type 0, BuildingBlock: XOMCOT_clean_sbu_1, # of connection points: 5
#     Node 5, Type 0, BuildingBlock: XOMCOT_clean_sbu_1, # of connection points: 5
#     Node 6, Type 0, BuildingBlock: XOMCOT_clean_sbu_1, # of connection points: 5
#     Node 7, Type 0, BuildingBlock: XOMCOT_clean_sbu_1, # of connection points: 5
#     Node 8, Type 0, BuildingBlock: XOMCOT_clean_sbu_1, # of connection points: 5
#     Node 9, Type 0, BuildingBlock: XOMCOT_clean_sbu_1, # of connection points: 5
#     Node 10, Type 0, BuildingBlock: XOMCOT_clean_sbu_1, # of connection points: 5
#     Node 11, Type 0, BuildingBlock: XOMCOT_clean_sbu_1, # of connection points: 5
#     Node 12, Type 0, BuildingBlock: XOMCOT_clean_sbu_1, # of connection points: 5
#     Node 13, Type 0, BuildingBlock: XOMCOT_clean_sbu_1, # of connection points: 5
#     Node 14, Type 0, BuildingBlock: XOMCOT_clean_sbu_1, # of connection points: 5
#     Node 15, Type 0, BuildingBlock: XOMCOT_clean_sbu_1, # of connection points: 5
#     Node 16, Type 0, BuildingBlock: XOMCOT_clean_sbu_1, # of connection points: 5
#     Node 17, Type 0, BuildingBlock: XOMCOT_clean_sbu_1, # of connection points: 5
#     Node 18, Type 0, BuildingBlock: XOMCOT_clean_sbu_1, # of connection points: 5
#     Node 19, Type 0, BuildingBlock: XOMCOT_clean_sbu_1, # of connection points: 5
#     Node 20, Type 0, BuildingBlock: XOMCOT_clean_sbu_1, # of connection points: 5
#     Node 21, Type 0, BuildingBlock: XOMCOT_clean_sbu_1, # of connection points: 5
#     Node 22, Type 0, BuildingBlock: XOMCOT_clean_sbu_1, # of connection points: 5
#     Node 23, Type 0, BuildingBlock: XOMCOT_clean_sbu_1, # of connection points: 5
#     Node 24, Type 0, BuildingBlock: XOMCOT_clean_sbu_1, # of connection points: 5
#     Node 25, Type 0, BuildingBlock: XOMCOT_clean_sbu_1, # of connection points: 5
#     Node 26, Type 0, BuildingBlock: XOMCOT_clean_sbu_1, # of connection points: 5
#     Node 27, Type 0, BuildingBlock: XOMCOT_clean_sbu_1, # of connection points: 5
#     Node 28, Type 0, BuildingBlock: XOMCOT_clean_sbu_1, # of connection points: 5
#     Node 29, Type 0, BuildingBlock: XOMCOT_clean_sbu_1, # of connection points: 5
#     Node 30, Type 0, BuildingBlock: XOMCOT_clean_sbu_1, # of connection points: 5
#     Node 31, Type 0, BuildingBlock: XOMCOT_clean_sbu_1, # of connection points: 5
#     Edge 32, Type (0, 0), BuildingBlock: KIFKEQ_clean_linker_1, # of connection points: 2
#     Edge 33, Type (0, 0), BuildingBlock: KIFKEQ_clean_linker_1, # of connection points: 2
#     Edge 34, Type (0, 0), BuildingBlock: KIFKEQ_clean_linker_1, # of connection points: 2
#     Edge 35, Type (0, 0), BuildingBlock: KIFKEQ_clean_linker_1, # of connection points: 2
#     Edge 36, Type (0, 0), BuildingBlock: KIFKEQ_clean_linker_1, # of connection points: 2
#     Edge 37, Type (0, 0), BuildingBlock: KIFKEQ_clean_linker_1, # of connection points: 2
#     Edge 38, Type (0, 0), BuildingBlock: KIFKEQ_clean_linker_1, # of connection points: 2
#     Edge 39, Type (0, 0), BuildingBlock: KIFKEQ_clean_linker_1, # of connection points: 2
#     Edge 40, Type (0, 0), BuildingBlock: KIFKEQ_clean_linker_1, # of connection points: 2
#     Edge 41, Type (0, 0), BuildingBlock: KIFKEQ_clean_linker_1, # of connection points: 2
#     Edge 42, Type (0, 0), BuildingBlock: KIFKEQ_clean_linker_1, # of connection points: 2
#     Edge 43, Type (0, 0), BuildingBlock: KIFKEQ_clean_linker_1, # of connection points: 2
#     Edge 44, Type (0, 0), BuildingBlock: KIFKEQ_clean_linker_1, # of connection points: 2
#     Edge 45, Type (0, 0), BuildingBlock: KIFKEQ_clean_linker_1, # of connection points: 2
#     Edge 46, Type (0, 0), BuildingBlock: KIFKEQ_clean_linker_1, # of connection points: 2
#     Edge 47, Type (0, 0), BuildingBlock: KIFKEQ_clean_linker_1, # of connection points: 2
#     Edge 48, Type (0, 0), BuildingBlock: KIFKEQ_clean_linker_1, # of connection points: 2
#     Edge 49, Type (0, 0), BuildingBlock: KIFKEQ_clean_linker_1, # of connection points: 2
#     Edge 50, Type (0, 0), BuildingBlock: KIFKEQ_clean_linker_1, # of connection points: 2
#     Edge 51, Type (0, 0), BuildingBlock: KIFKEQ_clean_linker_1, # of connection points: 2
#     Edge 52, Type (0, 0), BuildingBlock: KIFKEQ_clean_linker_1, # of connection points: 2
#     Edge 53, Type (0, 0), BuildingBlock: KIFKEQ_clean_linker_1, # of connection points: 2
#     Edge 54, Type (0, 0), BuildingBlock: KIFKEQ_clean_linker_1, # of connection points: 2
#     Edge 55, Type (0, 0), BuildingBlock: KIFKEQ_clean_linker_1, # of connection points: 2
#     Edge 56, Type (0, 0), BuildingBlock: KIFKEQ_clean_linker_1, # of connection points: 2
#     Edge 57, Type (0, 0), BuildingBlock: KIFKEQ_clean_linker_1, # of connection points: 2
#     Edge 58, Type (0, 0), BuildingBlock: KIFKEQ_clean_linker_1, # of connection points: 2
#     Edge 59, Type (0, 0), BuildingBlock: KIFKEQ_clean_linker_1, # of connection points: 2
#     Edge 60, Type (0, 0), BuildingBlock: KIFKEQ_clean_linker_1, # of connection points: 2
#     Edge 61, Type (0, 0), BuildingBlock: KIFKEQ_clean_linker_1, # of connection points: 2
#     Edge 62, Type (0, 0), BuildingBlock: KIFKEQ_clean_linker_1, # of connection points: 2
#     Edge 63, Type (0, 0), BuildingBlock: KIFKEQ_clean_linker_1, # of connection points: 2
#     Edge 64, Type (0, 0), BuildingBlock: KIFKEQ_clean_linker_1, # of connection points: 2
#     Edge 65, Type (0, 0), BuildingBlock: KIFKEQ_clean_linker_1, # of connection points: 2
#     Edge 66, Type (0, 0), BuildingBlock: KIFKEQ_clean_linker_1, # of connection points: 2
#     Edge 67, Type (0, 0), BuildingBlock: KIFKEQ_clean_linker_1, # of connection points: 2
#     Edge 68, Type (0, 0), BuildingBlock: KIFKEQ_clean_linker_1, # of connection points: 2
#     Edge 69, Type (0, 0), BuildingBlock: KIFKEQ_clean_linker_1, # of connection points: 2
#     Edge 70, Type (0, 0), BuildingBlock: KIFKEQ_clean_linker_1, # of connection points: 2
#     Edge 71, Type (0, 0), BuildingBlock: KIFKEQ_clean_linker_1, # of connection points: 2
#     Edge 72, Type (0, 0), BuildingBlock: KIFKEQ_clean_linker_1, # of connection points: 2
#     Edge 73, Type (0, 0), BuildingBlock: KIFKEQ_clean_linker_1, # of connection points: 2
#     Edge 74, Type (0, 0), BuildingBlock: KIFKEQ_clean_linker_1, # of connection points: 2
#     Edge 75, Type (0, 0), BuildingBlock: KIFKEQ_clean_linker_1, # of connection points: 2
#     Edge 76, Type (0, 0), BuildingBlock: KIFKEQ_clean_linker_1, # of connection points: 2
#     Edge 77, Type (0, 0), BuildingBlock: KIFKEQ_clean_linker_1, # of connection points: 2
#     Edge 78, Type (0, 0), BuildingBlock: KIFKEQ_clean_linker_1, # of connection points: 2
#     Edge 79, Type (0, 0), BuildingBlock: KIFKEQ_clean_linker_1, # of connection points: 2
#     Edge 80, Type (0, 0), BuildingBlock: KIFKEQ_clean_linker_1, # of connection points: 2
#     Edge 81, Type (0, 0), BuildingBlock: KIFKEQ_clean_linker_1, # of connection points: 2
#     Edge 82, Type (0, 0), BuildingBlock: KIFKEQ_clean_linker_1, # of connection points: 2
#     Edge 83, Type (0, 0), BuildingBlock: KIFKEQ_clean_linker_1, # of connection points: 2
#     Edge 84, Type (0, 0), BuildingBlock: KIFKEQ_clean_linker_1, # of connection points: 2
#     Edge 85, Type (0, 0), BuildingBlock: KIFKEQ_clean_linker_1, # of connection points: 2
#     Edge 86, Type (0, 0), BuildingBlock: KIFKEQ_clean_linker_1, # of connection points: 2
#     Edge 87, Type (0, 0), BuildingBlock: KIFKEQ_clean_linker_1, # of connection points: 2
#     Edge 88, Type (0, 0), BuildingBlock: KIFKEQ_clean_linker_1, # of connection points: 2
#     Edge 89, Type (0, 0), BuildingBlock: KIFKEQ_clean_linker_1, # of connection points: 2
#     Edge 90, Type (0, 0), BuildingBlock: KIFKEQ_clean_linker_1, # of connection points: 2
#     Edge 91, Type (0, 0), BuildingBlock: KIFKEQ_clean_linker_1, # of connection points: 2
#     Edge 92, Type (0, 0), BuildingBlock: KIFKEQ_clean_linker_1, # of connection points: 2
#     Edge 93, Type (0, 0), BuildingBlock: KIFKEQ_clean_linker_1, # of connection points: 2
#     Edge 94, Type (0, 0), BuildingBlock: KIFKEQ_clean_linker_1, # of connection points: 2
#     Edge 95, Type (0, 0), BuildingBlock: KIFKEQ_clean_linker_1, # of connection points: 2
#     Edge 96, Type (0, 0), BuildingBlock: KIFKEQ_clean_linker_1, # of connection points: 2
#     Edge 97, Type (0, 0), BuildingBlock: KIFKEQ_clean_linker_1, # of connection points: 2
#     Edge 98, Type (0, 0), BuildingBlock: KIFKEQ_clean_linker_1, # of connection points: 2
#     Edge 99, Type (0, 0), BuildingBlock: KIFKEQ_clean_linker_1, # of connection points: 2
#     Edge 100, Type (0, 0), BuildingBlock: KIFKEQ_clean_linker_1, # of connection points: 2
#     Edge 101, Type (0, 0), BuildingBlock: KIFKEQ_clean_linker_1, # of connection points: 2
#     Edge 102, Type (0, 0), BuildingBlock: KIFKEQ_clean_linker_1, # of connection points: 2
#     Edge 103, Type (0, 0), BuildingBlock: KIFKEQ_clean_linker_1, # of connection points: 2
#     Edge 104, Type (0, 0), BuildingBlock: KIFKEQ_clean_linker_1, # of connection points: 2
#     Edge 105, Type (0, 0), BuildingBlock: KIFKEQ_clean_linker_1, # of connection points: 2
#     Edge 106, Type (0, 0), BuildingBlock: KIFKEQ_clean_linker_1, # of connection points: 2
#     Edge 107, Type (0, 0), BuildingBlock: KIFKEQ_clean_linker_1, # of connection points: 2
#     Edge 108, Type (0, 0), BuildingBlock: KIFKEQ_clean_linker_1, # of connection points: 2
#     Edge 109, Type (0, 0), BuildingBlock: KIFKEQ_clean_linker_1, # of connection points: 2
#     Edge 110, Type (0, 0), BuildingBlock: KIFKEQ_clean_linker_1, # of connection points: 2
#     Edge 111, Type (0, 0), BuildingBlock: KIFKEQ_clean_linker_1, # of connection points: 2
# Relax obj value: 0.111
# Max RMSD: 0.136
# Mean RMSD: 0.136
data_MOF--net-vcb--node1-XOMCOT_clean_sbu_1--edge1-KIFKEQ_clean_linker_1
_symmetry_space_group_name_H-M    P1
_symmetry_Int_Tables_number       1
_symmetry_cell_setting            triclinic
loop_
_symmetry_equiv_pos_as_xyz
'x, y, z'
_cell_length_a     68.539098
_cell_length_b     97.571271
_cell_length_c     27.302394
_cell_angle_alpha  90.125408
_cell_angle_beta   90.057452
_cell_angle_gamma 90.022093
loop_
_atom_site_label
_atom_site_type_symbol
_atom_site_fract_x
_atom_site_fract_y
_atom_site_fract_z
_atom_type_partial_charge
C0 C 0.99504 0.06719 0.35056 0.0
C1 C 0.97571 0.06692 0.33731 0.0
N2 N 0.96801 0.07943 0.34525 0.0
N3 N 0.99964 0.07974 0.36781 0.0
C4 C 0.983 0.0871 0.36275 0.0
H5 H 1.00507 0.05865 0.34861 0.0
Co6 Co 1.02481 0.08456 0.39038 0.0
C7 C 1.00066 0.09939 0.47207 0.0
O8 O 0.98301 0.09465 0.46406 0.0
N9 N 0.05009 0.08947 0.41305 0.0
C10 C 0.07416 0.09329 0.46615 0.0
C11 C 0.05582 0.08798 0.4601 0.0
C12 C 0.06543 0.09578 0.39112 0.0
N13 N 0.08024 0.09831 0.42291 0.0
O14 O 1.02501 0.0995 0.3452 0.0
H15 H 0.04698 0.0836 0.48889 0.0
H16 H 0.0655 0.09896 0.35319 0.0
O17 O 1.01485 0.09572 0.44461 0.0
C18 C 0.03006 0.09357 0.30535 0.0
O19 O 0.03452 0.08047 0.30715 0.0
N20 N 1.02529 0.06885 0.42936 0.0
C21 C 1.02494 0.04228 0.46524 0.0
C22 C 1.01046 0.0516 0.47934 0.0
C23 C 1.01097 0.06496 0.46116 0.0
C24 C 0.03969 0.05993 0.4163 0.0
C25 C 0.04001 0.04665 0.43459 0.0
H26 H 0.99906 0.07173 0.46961 0.0
H27 H 0.05048 0.06296 0.38952 0.0
H28 H 0.9819 0.09787 0.3717 0.0
H29 H 0.9678 0.05799 0.32454 0.0
H30 H 0.08229 0.09357 0.50014 0.0
H31 H 0.99845 0.04841 0.50244 0.0
H32 H 0.05118 0.03959 0.42224 0.0
C33 C 0.29795 0.15373 0.29773 0.0
C34 C 0.31771 0.15193 0.29389 0.0
N35 N 0.32464 0.14772 0.33755 0.0
N36 N 0.29216 0.15064 0.34347 0.0
C37 C 0.30877 0.14707 0.36726 0.0
H38 H 0.28837 0.15735 0.26906 0.0
Co39 Co 0.26593 0.15263 0.35986 0.0
C40 C 0.26034 0.14323 0.46137 0.0
O41 O 0.24784 0.15336 0.46557 0.0
N42 N 0.23864 0.15475 0.37338 0.0
C43 C 0.20854 0.16305 0.38198 0.0
C44 C 0.22784 0.16634 0.37577 0.0
C45 C 0.22525 0.14454 0.37769 0.0
N46 N 0.20683 0.14933 0.38309 0.0
O47 O 0.26019 0.13696 0.32045 0.0
H48 H 0.23322 0.17665 0.37216 0.0
H49 H 0.22898 0.13376 0.37679 0.0
O50 O 0.26915 0.14133 0.4203 0.0
C51 C 0.25243 0.14095 0.28042 0.0
O52 O 0.24808 0.15399 0.27529 0.0
N53 N 0.27237 0.16886 0.39281 0.0
C54 C 0.27973 0.19485 0.42957 0.0
C55 C 0.2846 0.18326 0.45704 0.0
C56 C 0.28151 0.17028 0.43707 0.0
C57 C 0.2697 0.18002 0.36368 0.0
C58 C 0.27298 0.19319 0.3816 0.0
H59 H 0.28662 0.16152 0.45732 0.0
H60 H 0.26415 0.17866 0.32687 0.0
H61 H 0.30923 0.14418 0.40548 0.0
H62 H 0.32637 0.15407 0.2617 0.0
H63 H 0.19659 0.17028 0.38394 0.0
H64 H 0.29078 0.18426 0.49341 0.0
H65 H 0.26956 0.20197 0.35892 0.0
C66 C 1.0023 0.15645 0.95743 0.0
C67 C 0.98232 0.15616 0.95904 0.0
N68 N 0.97563 0.1515 0.91568 0.0
N69 N 1.00841 0.15194 0.91341 0.0
C70 C 0.99181 0.14893 0.88856 0.0
H71 H 1.01183 0.15999 0.98636 0.0
Co72 Co 0.03492 0.1521 0.89811 0.0
C73 C 0.03932 0.14267 0.79612 0.0
O74 O 0.05316 0.15193 0.79268 0.0
N75 N 0.06242 0.15234 0.8851 0.0
C76 C 0.09328 0.15863 0.8722 0.0
C77 C 0.07459 0.16317 0.88009 0.0
C78 C 0.07438 0.14129 0.88089 0.0
N79 N 0.09319 0.14485 0.87273 0.0
O80 O 0.03822 0.13607 0.9375 0.0
H81 H 0.07053 0.17381 0.88198 0.0
H82 H 0.06932 0.1308 0.88315 0.0
O83 O 0.03028 0.14122 0.83704 0.0
C84 C 0.04498 0.14022 0.9786 0.0
O85 O 0.05027 0.15313 0.98252 0.0
N86 N 0.03095 0.16881 0.86617 0.0
C87 C 1.02413 0.19566 0.8369 0.0
C88 C 1.01884 0.18468 0.80647 0.0
C89 C 1.02177 0.17126 0.82257 0.0
C90 C 0.03482 0.17938 0.8974 0.0
C91 C 0.03182 0.1929 0.88328 0.0
H92 H 1.01606 0.16302 0.80052 0.0
H93 H 0.04059 0.17724 0.93346 0.0
H94 H 0.99155 0.14541 0.85095 0.0
H95 H 0.97339 0.15921 0.98987 0.0
H96 H 0.10606 0.16501 0.86752 0.0
H97 H 1.01204 0.18648 0.77123 0.0
H98 H 0.03577 0.20111 0.90815 0.0
C99 C 0.30589 0.08158 0.9416 0.0
C100 C 0.32579 0.08212 0.94579 0.0
N101 N 0.33337 0.08506 0.90157 0.0
N102 N 0.30065 0.08426 0.89505 0.0
C103 C 0.31776 0.08641 0.87125 0.0
H104 H 0.29583 0.07903 0.97063 0.0
Co105 Co 0.27439 0.08286 0.87725 0.0
C106 C 0.27005 0.09201 0.77532 0.0
O107 O 0.25775 0.08178 0.77016 0.0
N108 N 0.24704 0.08133 0.86184 0.0
C109 C 0.21675 0.07379 0.84892 0.0
C110 C 0.23595 0.07006 0.85421 0.0
C111 C 0.23396 0.09179 0.86073 0.0
N112 N 0.21534 0.08751 0.85355 0.0
O113 O 0.26901 0.0987 0.91627 0.0
H114 H 0.24109 0.05964 0.85278 0.0
H115 H 0.23807 0.10236 0.86664 0.0
O116 O 0.27847 0.09402 0.81686 0.0
C117 C 0.26072 0.09464 0.95552 0.0
O118 O 0.25648 0.08157 0.96024 0.0
N119 N 0.28024 0.06641 0.84546 0.0
C120 C 0.28501 0.03992 0.81139 0.0
C121 C 0.29101 0.05101 0.78273 0.0
C122 C 0.28926 0.06427 0.80146 0.0
C123 C 0.27658 0.05565 0.87577 0.0
C124 C 0.27859 0.04224 0.85922 0.0
H125 H 0.29494 0.07266 0.78023 0.0
H126 H 0.27096 0.05755 0.91217 0.0
H127 H 0.3188 0.08835 0.83233 0.0
H128 H 0.33406 0.08034 0.97897 0.0
H129 H 0.20481 0.06677 0.84258 0.0
H130 H 0.29683 0.04942 0.74627 0.0
H131 H 0.27426 0.03382 0.88261 0.0
C132 C 0.04998 0.91632 0.65736 0.0
C133 C 0.06951 0.91719 0.6685 0.0
N134 N 0.07867 0.90618 0.64938 0.0
N135 N 0.04669 0.90484 0.63119 0.0
C136 C 0.06441 0.89882 0.62705 0.0
H137 H 0.03881 0.92357 0.66791 0.0
Co138 Co 1.02202 0.89934 0.60911 0.0
C139 C 0.03063 0.87619 0.54446 0.0
O140 O 1.02043 0.86838 0.57406 0.0
N141 N 0.99708 0.89384 0.58643 0.0
C142 C 0.97303 0.88943 0.53399 0.0
C143 C 0.99134 0.89485 0.53924 0.0
C144 C 0.98178 0.88775 0.60927 0.0
N145 N 0.96699 0.88485 0.57793 0.0
O146 O 1.02269 0.8846 0.6549 0.0
H147 H 1.00012 0.89903 0.50997 0.0
H148 H 0.9817 0.88506 0.64767 0.0
O149 O 0.03363 0.8887 0.556 0.0
C150 C 1.01682 0.89011 0.69473 0.0
O151 O 1.01077 0.90289 0.69324 0.0
N152 N 1.02088 0.91478 0.57003 0.0
C153 C 1.01919 0.94089 0.52969 0.0
C154 C 0.03245 0.93111 0.51158 0.0
C155 C 0.03324 0.91808 0.53277 0.0
C156 C 1.00764 0.92397 0.5872 0.0
C157 C 1.00653 0.93706 0.56763 0.0
H158 H 0.04425 0.91093 0.52072 0.0
H159 H 0.99844 0.92126 0.61785 0.0
H160 H 0.0668 0.88928 0.60769 0.0
H161 H 0.07631 0.92526 0.68975 0.0
H162 H 0.96484 0.88886 0.50014 0.0
H163 H 0.04248 0.9336 0.48231 0.0
H164 H 0.99646 0.94429 0.58395 0.0
C165 C 0.74731 0.81602 0.66722 0.0
C166 C 0.72785 0.81629 0.67915 0.0
N167 N 0.72115 0.82917 0.6731 0.0
N168 N 0.75294 0.82859 0.65245 0.0
C169 C 0.73692 0.8365 0.6587 0.0
H170 H 0.75657 0.80706 0.66733 0.0
Co171 Co 0.77799 0.83287 0.62855 0.0
C172 C 0.7531 0.84758 0.54863 0.0
O173 O 0.73562 0.84321 0.56039 0.0
N174 N 0.80331 0.83714 0.60491 0.0
C175 C 0.82798 0.83879 0.55226 0.0
C176 C 0.80869 0.83546 0.55764 0.0
C177 C 0.81973 0.84176 0.62746 0.0
N178 N 0.83494 0.84275 0.5961 0.0
O179 O 0.77887 0.84809 0.67237 0.0
H180 H 0.79918 0.83185 0.52871 0.0
H181 H 0.82076 0.84407 0.6661 0.0
O182 O 0.76797 0.84394 0.57388 0.0
C183 C 0.78552 0.84277 0.71168 0.0
O184 O 0.7905 0.82976 0.71116 0.0
N185 N 0.77774 0.81696 0.59015 0.0
C186 C 0.77748 0.79078 0.55023 0.0
C187 C 0.76309 0.80027 0.53714 0.0
C188 C 0.76353 0.81341 0.5574 0.0
C189 C 0.7919 0.80783 0.60289 0.0
C190 C 0.79225 0.79474 0.58264 0.0
H191 H 0.75179 0.82032 0.54909 0.0
H192 H 0.80262 0.81059 0.63026 0.0
H193 H 0.73672 0.84739 0.65125 0.0
H194 H 0.71911 0.80745 0.68857 0.0
H195 H 0.83628 0.83843 0.51855 0.0
H196 H 0.75131 0.79741 0.51267 0.0
H197 H 0.80336 0.78754 0.59426 0.0
C198 C 0.06497 0.83159 0.03689 0.0
C199 C 0.0848 0.83347 0.03592 0.0
N200 N 0.09084 0.8366 0.08155 0.0
N201 N 0.05837 0.83362 0.0828 0.0
C202 C 0.0745 0.83661 0.10939 0.0
H203 H 0.05599 0.82853 0.00619 0.0
Co204 Co 0.03234 0.8311 0.09958 0.0
C205 C 1.02735 0.84039 0.2019 0.0
O206 O 1.01543 0.82998 0.20759 0.0
N207 N 1.00539 0.8285 0.11451 0.0
C208 C 0.97559 0.81998 0.12601 0.0
C209 C 0.99496 0.81683 0.11979 0.0
C210 C 0.99184 0.83858 0.1178 0.0
N211 N 0.97357 0.83369 0.12441 0.0
O212 O 1.02575 0.84669 0.06048 0.0
H213 H 1.00069 0.80656 0.11878 0.0
H214 H 0.99531 0.84934 0.11398 0.0
O215 O 0.03564 0.84234 0.16029 0.0
C216 C 1.01919 0.84182 0.02019 0.0
O217 O 1.01673 0.82849 0.01673 0.0
N218 N 0.03946 0.81488 0.13092 0.0
C219 C 0.04947 0.78859 0.16041 0.0
C220 C 0.05359 0.79987 0.19058 0.0
C221 C 0.04905 0.81305 0.17432 0.0
C222 C 0.037 0.80413 0.09963 0.0
C223 C 0.0416 0.79086 0.11386 0.0
H224 H 0.05365 0.82165 0.19618 0.0
H225 H 0.03081 0.80589 0.06374 0.0
H226 H 0.07431 0.83856 0.14842 0.0
H227 H 0.09415 0.83206 0.00437 0.0
H228 H 0.96392 0.81266 0.13121 0.0
H229 H 0.06044 0.7985 0.226 0.0
H230 H 0.03843 0.78243 0.08922 0.0
C231 C 0.76194 0.90862 0.06858 0.0
C232 C 0.7421 0.90995 0.0619 0.0
N233 N 0.73297 0.90233 0.096 0.0
N234 N 0.76532 0.90011 0.10648 0.0
C235 C 0.74737 0.89645 0.12244 0.0
H236 H 0.77319 0.91365 0.04751 0.0
Co237 Co 0.78996 0.89516 0.12987 0.0
C238 C 0.78145 0.87304 0.19875 0.0
O239 O 0.79326 0.865 0.17397 0.0
N240 N 0.8149 0.89017 0.15424 0.0
C241 C 0.839 0.88676 0.20754 0.0
C242 C 0.82022 0.89131 0.20175 0.0
C243 C 0.83088 0.8849 0.13187 0.0
N244 N 0.84578 0.88272 0.16355 0.0
O245 O 0.78944 0.87974 0.08685 0.0
H246 H 0.81088 0.89507 0.23072 0.0
H247 H 0.8317 0.88274 0.09314 0.0
O248 O 0.77823 0.88518 0.18363 0.0
C249 C 0.7969 0.884 0.04688 0.0
O250 O 0.80448 0.89638 0.04583 0.0
N251 N 0.79074 0.91111 0.16657 0.0
C252 C 0.79143 0.93778 0.20242 0.0
C253 C 0.77738 0.92838 0.21908 0.0
C254 C 0.77727 0.91501 0.2006 0.0
C255 C 0.80478 0.91994 0.15109 0.0
C256 C 0.80562 0.93324 0.16916 0.0
H257 H 0.76581 0.90807 0.21161 0.0
H258 H 0.81504 0.91673 0.12327 0.0
H259 H 0.7448 0.8896 0.15282 0.0
H260 H 0.73496 0.91632 0.03487 0.0
H261 H 0.84684 0.88616 0.24188 0.0
H262 H 0.76598 0.93149 0.24419 0.0
H263 H 0.81696 0.94002 0.15599 0.0
C264 C 1.00217 0.57485 0.77933 0.0
C265 C 0.98224 0.57586 0.78018 0.0
N266 N 0.97686 0.58164 0.82295 0.0
N267 N 1.00959 0.57999 0.82118 0.0
C268 C 0.99379 0.58399 0.84744 0.0
H269 H 1.01076 0.57035 0.75027 0.0
Co270 Co 0.03646 0.57967 0.83185 0.0
C271 C 0.04407 0.5912 0.93001 0.0
O272 O 0.05821 0.58217 0.93315 0.0
N273 N 0.06424 0.57918 0.83972 0.0
C274 C 0.09527 0.57254 0.84604 0.0
C275 C 0.0763 0.56822 0.84132 0.0
C276 C 0.07654 0.5901 0.84219 0.0
N277 N 0.09547 0.58631 0.84673 0.0
O278 O 0.03921 0.59482 0.7881 0.0
H279 H 0.072 0.55763 0.83874 0.0
H280 H 0.07162 0.60063 0.84171 0.0
O281 O 0.03387 0.59184 0.8905 0.0
C282 C 0.04451 0.58989 0.74681 0.0
O283 O 0.04858 0.57674 0.74426 0.0
N284 N 0.03297 0.56378 0.86937 0.0
C285 C 0.02968 0.53824 0.9128 0.0
C286 C 1.02456 0.55004 0.93887 0.0
C287 C 1.02553 0.56274 0.91568 0.0
C288 C 0.03588 0.55225 0.84213 0.0
C289 C 0.03463 0.53931 0.86334 0.0
H290 H 1.02008 0.57156 0.93507 0.0
H291 H 0.03995 0.55316 0.804 0.0
H292 H 0.99467 0.58844 0.88372 0.0
H293 H 0.97244 0.57218 0.75198 0.0
H294 H 0.108 0.566 0.84783 0.0
H295 H 1.01968 0.54941 0.97654 0.0
H296 H 0.0381 0.5303 0.84181 0.0
C297 C 0.30792 0.66386 0.82172 0.0
C298 C 0.32766 0.66271 0.81546 0.0
N299 N 0.3343 0.65247 0.84401 0.0
N300 N 0.30179 0.65448 0.85436 0.0
C301 C 0.31823 0.64765 0.86757 0.0
H302 H 0.29854 0.67118 0.80365 0.0
Co303 Co 0.27513 0.65333 0.86957 0.0
C304 C 0.27274 0.6437 0.97147 0.0
O305 O 0.26 0.65356 0.97794 0.0
N306 N 0.24731 0.65229 0.88287 0.0
C307 C 0.21646 0.65718 0.90295 0.0
C308 C 0.23531 0.66185 0.90272 0.0
C309 C 0.23496 0.64181 0.87164 0.0
N310 N 0.21609 0.64458 0.88297 0.0
O311 O 0.27311 0.63773 0.82727 0.0
H312 H 0.23967 0.67154 0.91818 0.0
H313 H 0.23961 0.63236 0.85461 0.0
O314 O 0.28053 0.64197 0.92907 0.0
C315 C 0.26853 0.64339 0.78661 0.0
O316 O 0.26545 0.65668 0.78649 0.0
N317 N 0.27766 0.66986 0.90348 0.0
C318 C 0.28072 0.69663 0.93743 0.0
C319 C 0.2903 0.68593 0.962 0.0
C320 C 0.289 0.67257 0.94355 0.0
C321 C 0.27006 0.68035 0.87672 0.0
C322 C 0.27104 0.69375 0.89349 0.0
H323 H 0.29719 0.66451 0.96116 0.0
H324 H 0.26263 0.6782 0.84264 0.0
H325 H 0.31836 0.63926 0.89343 0.0
H326 H 0.33647 0.66921 0.79226 0.0
H327 H 0.20406 0.66264 0.91774 0.0
H328 H 0.29855 0.68784 0.99516 0.0
H329 H 0.26427 0.7018 0.87211 0.0
C330 C 1.00574 0.6676 0.37372 0.0
C331 C 0.98639 0.66841 0.38666 0.0
N332 N 0.97815 0.65603 0.3796 0.0
N333 N 1.00974 0.65481 0.35781 0.0
C334 C 0.99274 0.6479 0.36308 0.0
H335 H 1.01621 0.67588 0.37534 0.0
Co336 Co 0.03447 0.64869 0.33736 0.0
C337 C 1.00928 0.63553 0.25436 0.0
O338 O 0.9924 0.64153 0.26181 0.0
N339 N 0.05929 0.64247 0.31665 0.0
C340 C 0.08339 0.63728 0.26538 0.0
C341 C 0.06538 0.6432 0.26968 0.0
C342 C 0.07409 0.63605 0.34037 0.0
N343 N 0.08889 0.63269 0.30972 0.0
O344 O 0.03243 0.63371 0.38203 0.0
H345 H 0.05706 0.64759 0.23991 0.0
H346 H 0.0738 0.63349 0.37889 0.0
O347 O 1.0238 0.63813 0.28235 0.0
C348 C 0.03768 0.63912 0.42266 0.0
O349 O 0.04348 0.65197 0.42225 0.0
N350 N 0.03735 0.66431 0.29882 0.0
C351 C 0.04313 0.68995 0.25733 0.0
C352 C 1.02769 0.68159 0.24159 0.0
C353 C 1.02502 0.66873 0.26291 0.0
C354 C 0.05241 0.67234 0.3144 0.0
C355 C 0.05576 0.68511 0.29364 0.0
H356 H 1.01258 0.66273 0.25216 0.0
H357 H 0.0616 0.6689 0.34417 0.0
H358 H 0.99108 0.63711 0.35495 0.0
H359 H 0.97883 0.67755 0.39879 0.0
H360 H 0.09177 0.63638 0.23194 0.0
H361 H 1.01751 0.68511 0.21396 0.0
H362 H 0.06755 0.69141 0.30755 0.0
C363 C 0.30656 0.58437 0.45013 0.0
C364 C 0.32629 0.58652 0.45234 0.0
N365 N 0.33293 0.58855 0.40653 0.0
N366 N 0.30054 0.58515 0.40323 0.0
C367 C 0.317 0.58761 0.37723 0.0
H368 H 0.29724 0.582 0.48087 0.0
Co369 Co 0.27457 0.58201 0.38645 0.0
C370 C 0.26919 0.59005 0.28284 0.0
O371 O 0.25746 0.57944 0.27906 0.0
N372 N 0.24769 0.57879 0.37196 0.0
C373 C 0.21821 0.56946 0.3633 0.0
C374 C 0.23769 0.56684 0.37038 0.0
C375 C 0.23374 0.58851 0.36603 0.0
N376 N 0.21568 0.58312 0.36074 0.0
O377 O 0.26745 0.59796 0.42327 0.0
H378 H 0.24378 0.55676 0.37515 0.0
H379 H 0.23683 0.59939 0.36583 0.0
O380 O 0.27751 0.59259 0.32416 0.0
C381 C 0.26049 0.59369 0.46393 0.0
O382 O 0.25765 0.58045 0.46928 0.0
N383 N 0.28215 0.56553 0.35753 0.0
C384 C 0.2911 0.53867 0.33217 0.0
C385 C 0.29492 0.54944 0.29946 0.0
C386 C 0.29081 0.56292 0.31344 0.0
C387 C 0.28047 0.5554 0.39142 0.0
C388 C 0.28459 0.54188 0.37941 0.0
H389 H 0.29471 0.57108 0.28882 0.0
H390 H 0.27513 0.55783 0.42766 0.0
H391 H 0.31732 0.58852 0.33774 0.0
H392 H 0.3352 0.58607 0.48507 0.0
H393 H 0.20672 0.56186 0.36183 0.0
H394 H 0.30059 0.54747 0.26312 0.0
H395 H 0.28237 0.53399 0.40668 0.0
C396 C 0.05889 0.40482 0.20354 0.0
C397 C 0.07871 0.40306 0.20171 0.0
N398 N 0.08359 0.39895 0.15621 0.0
N399 N 0.05108 0.40175 0.1596 0.0
C400 C 0.06652 0.39826 0.13119 0.0
H401 H 0.0507 0.40844 0.23478 0.0
Co402 Co 1.0244 0.40373 0.14882 0.0
C403 C 1.01584 0.39376 0.04931 0.0
O404 O 1.00321 0.40385 0.04684 0.0
N405 N 0.99675 0.40579 0.14057 0.0
C406 C 0.9665 0.41393 0.13429 0.0
C407 C 0.98584 0.41731 0.13793 0.0
C408 C 0.98335 0.39552 0.13906 0.0
N409 N 0.96476 0.40019 0.13524 0.0
O410 O 1.01987 0.38834 0.19061 0.0
H411 H 0.99112 0.42768 0.1385 0.0
H412 H 0.98727 0.38481 0.14101 0.0
O413 O 1.02571 0.39204 0.08891 0.0
C414 C 1.01445 0.3929 0.23232 0.0
O415 O 1.01123 0.40612 0.23695 0.0
N416 N 0.02982 0.41969 0.11333 0.0
C417 C 0.03653 0.4454 0.07251 0.0
C418 C 0.04172 0.43342 0.04707 0.0
C419 C 0.03856 0.42065 0.06852 0.0
C420 C 1.02724 0.43117 0.14095 0.0
C421 C 0.02978 0.44414 0.1208 0.0
H422 H 0.04344 0.41166 0.04909 0.0
H423 H 1.02214 0.43022 0.17828 0.0
H424 H 0.06533 0.3954 0.09298 0.0
H425 H 0.08885 0.40518 0.2312 0.0
H426 H 0.95473 0.42122 0.13062 0.0
H427 H 0.04822 0.43387 0.01098 0.0
H428 H 1.02584 0.45299 0.14255 0.0
C429 C 0.75512 0.31722 0.11215 0.0
C430 C 0.73568 0.3163 0.12409 0.0
N431 N 0.72748 0.32865 0.11702 0.0
N432 N 0.75918 0.33007 0.09699 0.0
C433 C 0.74207 0.3369 0.10162 0.0
H434 H 0.76566 0.30901 0.11431 0.0
Co435 Co 0.78438 0.33611 0.07997 0.0
C436 C 0.76063 0.35042 -0.00321 0.0
O437 O 0.7436 0.34453 0.00292 0.0
N438 N 0.80969 0.3421 0.06348 0.0
C439 C 0.83491 0.34831 0.01733 0.0
C440 C 0.81656 0.34271 0.01717 0.0
C441 C 0.82441 0.34715 0.09139 0.0
N442 N 0.83984 0.35109 0.06397 0.0
O443 O 0.78197 0.35069 0.12659 0.0
H444 H 0.80855 0.33949 0.98498 0.0
H445 H 0.82364 0.34839 0.13073 0.0
O446 O 0.77492 0.34749 0.02516 0.0
C447 C 0.78583 0.34502 0.16764 0.0
O448 O 0.79073 0.33198 0.16744 0.0
N449 N 0.78749 0.32088 0.03927 0.0
C450 C 0.79096 0.2949 -0.0016 0.0
C451 C 0.77675 0.30405 0.9813 0.0
C452 C 0.77522 0.31704 0.00235 0.0
C453 C 0.80181 0.31226 0.0551 0.0
C454 C 0.80397 0.29926 0.03475 0.0
H455 H 0.76339 0.32351 0.99111 0.0
H456 H 0.811 0.31525 0.08554 0.0
H457 H 0.74034 0.34773 0.09432 0.0
H458 H 0.72803 0.30716 0.13577 0.0
H459 H 0.8439 0.35032 0.98557 0.0
H460 H 0.76639 0.30098 0.95335 0.0
H461 H 0.8149 0.29239 0.04949 0.0
C462 C 0.0578 0.31587 0.6148 0.0
C463 C 0.07735 0.31548 0.60391 0.0
N464 N 0.0845 0.32833 0.6065 0.0
N465 N 0.05249 0.32886 0.62534 0.0
C466 C 0.06898 0.33628 0.61834 0.0
H467 H 0.04809 0.30714 0.61561 0.0
Co468 Co 1.02675 0.33416 0.6417 0.0
C469 C 0.04951 0.3498 0.72318 0.0
O470 O 0.06706 0.34486 0.71563 0.0
N471 N 1.0009 0.33942 0.65746 0.0
C472 C 0.97466 0.34398 0.70253 0.0
C473 C 0.99362 0.33952 0.70338 0.0
C474 C 0.9859 0.34388 0.62919 0.0
N475 N 0.96968 0.34673 0.65582 0.0
O476 O 1.02826 0.34852 0.59446 0.0
H477 H 1.00167 0.33659 0.73579 0.0
H478 H 0.98681 0.34497 0.58987 0.0
O479 O 0.03526 0.3461 0.69581 0.0
C480 C 1.02469 0.34263 0.55358 0.0
O481 O 1.02088 0.32942 0.55396 0.0
N482 N 1.0246 0.31912 0.68371 0.0
C483 C 1.02161 0.29393 0.73036 0.0
C484 C 0.03575 0.30346 0.74511 0.0
C485 C 0.03701 0.31606 0.72127 0.0
C486 C 1.01063 0.31001 0.66939 0.0
C487 C 1.00868 0.29742 0.69271 0.0
H488 H 0.04865 0.3229 0.7312 0.0
H489 H 1.00136 0.31236 0.63843 0.0
H490 H 0.06961 0.34731 0.62223 0.0
H491 H 0.08576 0.30633 0.59643 0.0
H492 H 0.96546 0.34542 0.7343 0.0
H493 H 0.04611 0.30101 0.77378 0.0
H494 H 0.99784 0.29019 0.67965 0.0
C495 C 0.75324 0.41055 0.52069 0.0
C496 C 0.73332 0.40923 0.52125 0.0
N497 N 0.72799 0.40383 0.56457 0.0
N498 N 0.76066 0.40593 0.56325 0.0
C499 C 0.74489 0.40197 0.58964 0.0
H500 H 0.76183 0.41473 0.4911 0.0
Co501 Co 0.78755 0.40613 0.57419 0.0
C502 C 0.79453 0.39606 0.67422 0.0
O503 O 0.80834 0.40537 0.6767 0.0
N504 N 0.8154 0.40634 0.5826 0.0
C505 C 0.84669 0.41247 0.58718 0.0
C506 C 0.82785 0.41709 0.58382 0.0
C507 C 0.82736 0.39523 0.58489 0.0
N508 N 0.84651 0.39869 0.58759 0.0
O509 O 0.78997 0.39041 0.53261 0.0
H510 H 0.82397 0.42776 0.58208 0.0
H511 H 0.82208 0.38479 0.5838 0.0
O512 O 0.78463 0.39478 0.63444 0.0
C513 C 0.79554 0.39482 0.49086 0.0
O514 O 0.80005 0.40786 0.48684 0.0
N515 N 0.78434 0.42258 0.60905 0.0
C516 C 0.78058 0.44892 0.64706 0.0
C517 C 0.77422 0.43755 0.67405 0.0
C518 C 0.77579 0.42443 0.6538 0.0
C519 C 0.78832 0.43363 0.58037 0.0
C520 C 0.78712 0.44688 0.59905 0.0
H521 H 0.76987 0.41591 0.67402 0.0
H522 H 0.79313 0.43207 0.54305 0.0
H523 H 0.74575 0.39777 0.62623 0.0
H524 H 0.72346 0.41232 0.49232 0.0
H525 H 0.85953 0.41889 0.58956 0.0
H526 H 0.76833 0.43876 0.7106 0.0
H527 H 0.79127 0.45545 0.57615 0.0
C528 C 0.50416 0.07796 0.79567 0.0
C529 C 0.48434 0.07929 0.79163 0.0
N530 N 0.47743 0.08485 0.83336 0.0
N531 N 0.51004 0.08269 0.83963 0.0
C532 C 0.49339 0.08676 0.86218 0.0
H533 H 0.51371 0.07351 0.76848 0.0
Co534 Co 0.53646 0.08179 0.85656 0.0
C535 C 0.54064 0.09076 0.95874 0.0
O536 O 0.55339 0.08078 0.96267 0.0
N537 N 0.56388 0.08082 0.87109 0.0
C538 C 0.59463 0.07399 0.88213 0.0
C539 C 0.5756 0.06979 0.87707 0.0
C540 C 0.57639 0.09162 0.87293 0.0
N541 N 0.59521 0.08775 0.87914 0.0
O542 O 0.54112 0.09757 0.81692 0.0
H543 H 0.571 0.05924 0.87739 0.0
H544 H 0.57182 0.10214 0.86808 0.0
O545 O 0.53213 0.0928 0.91735 0.0
C546 C 0.54769 0.09262 0.77678 0.0
O547 O 0.55127 0.0794 0.7747 0.0
N548 N 0.53123 0.0653 0.88823 0.0
C549 C 0.52235 0.03869 0.91602 0.0
C550 C 0.51695 0.04975 0.94584 0.0
C551 C 0.52092 0.0631 0.93034 0.0
C552 C 0.53525 0.05467 0.85749 0.0
C553 C 0.53124 0.04126 0.87093 0.0
H554 H 0.5152 0.07151 0.95157 0.0
H555 H 0.54191 0.05665 0.82234 0.0
H556 H 0.49295 0.09093 0.89892 0.0
H557 H 0.47561 0.07593 0.7608 0.0
H558 H 0.60708 0.06734 0.88732 0.0
H559 H 0.50934 0.04809 0.98008 0.0
H560 H 0.53537 0.03296 0.84662 0.0
C561 C 0.8076 0.15301 0.78113 0.0
C562 C 0.8275 0.15163 0.78033 0.0
N563 N 0.83357 0.14786 0.82527 0.0
N564 N 0.80088 0.15005 0.82621 0.0
C565 C 0.81708 0.14702 0.85261 0.0
H566 H 0.79863 0.15635 0.75087 0.0
Co567 Co 0.77438 0.15173 0.84127 0.0
C568 C 0.76913 0.14326 0.94359 0.0
O569 O 0.75725 0.15378 0.94736 0.0
N570 N 0.74701 0.15338 0.85443 0.0
C571 C 0.71636 0.16065 0.86277 0.0
C572 C 0.73545 0.1646 0.85627 0.0
C573 C 0.73441 0.14276 0.85986 0.0
N574 N 0.71565 0.14688 0.86481 0.0
O575 O 0.76907 0.13587 0.80154 0.0
H576 H 0.74019 0.17506 0.85246 0.0
H577 H 0.73891 0.13213 0.85878 0.0
O578 O 0.77757 0.14079 0.90246 0.0
C579 C 0.76281 0.14092 0.76122 0.0
O580 O 0.76035 0.15425 0.75875 0.0
N581 N 0.78007 0.1683 0.87262 0.0
C582 C 0.78686 0.19532 0.90052 0.0
C583 C 0.79225 0.18448 0.93149 0.0
C584 C 0.78927 0.17094 0.9161 0.0
C585 C 0.77685 0.17865 0.84032 0.0
C586 C 0.77988 0.19221 0.85361 0.0
H587 H 0.79443 0.16273 0.9391 0.0
H588 H 0.77134 0.17635 0.80415 0.0
H589 H 0.81679 0.14445 0.89113 0.0
H590 H 0.83682 0.15382 0.74936 0.0
H591 H 0.70397 0.16748 0.86556 0.0
H592 H 0.79843 0.1864 0.96736 0.0
H593 H 0.77658 0.20019 0.82736 0.0
C594 C 0.49646 0.1533 0.44133 0.0
C595 C 0.47663 0.15255 0.44671 0.0
N596 N 0.46879 0.14849 0.40384 0.0
N597 N 0.5014 0.14965 0.39536 0.0
C598 C 0.48417 0.14668 0.3732 0.0
H599 H 0.50661 0.1568 0.46895 0.0
Co600 Co 0.52731 0.1514 0.37467 0.0
C601 C 0.52968 0.14246 0.2725 0.0
O602 O 0.54068 0.15333 0.26615 0.0
N603 N 0.55422 0.1532 0.35601 0.0
C604 C 0.58421 0.16068 0.33922 0.0
C605 C 0.5652 0.16448 0.34775 0.0
C606 C 0.56712 0.1427 0.35212 0.0
N607 N 0.58554 0.14693 0.34236 0.0
O608 O 0.53407 0.13599 0.41448 0.0
H609 H 0.56007 0.17491 0.34805 0.0
H610 H 0.56306 0.13211 0.35779 0.0
O611 O 0.52261 0.13989 0.31517 0.0
C612 C 0.54147 0.14129 0.45316 0.0
O613 O 0.54431 0.15462 0.454 0.0
N614 N 0.52015 0.16756 0.343 0.0
C615 C 0.50867 0.19374 0.316 0.0
C616 C 0.5032 0.18241 0.28754 0.0
C617 C 0.50849 0.16927 0.30278 0.0
C618 C 0.52432 0.17842 0.37259 0.0
C619 C 0.51898 0.19163 0.3595 0.0
H620 H 0.50281 0.16061 0.28277 0.0
H621 H 0.53208 0.17678 0.40655 0.0
H622 H 0.48283 0.14393 0.33492 0.0
H623 H 0.46856 0.15505 0.47959 0.0
H624 H 0.59609 0.16764 0.33152 0.0
H625 H 0.49461 0.18371 0.25455 0.0
H626 H 0.52323 0.20014 0.38272 0.0
C627 C 0.79726 0.07509 0.41501 0.0
C628 C 0.81709 0.07643 0.41898 0.0
N629 N 0.82379 0.08278 0.37859 0.0
N630 N 0.79121 0.0806 0.37246 0.0
C631 C 0.80777 0.08514 0.35061 0.0
H632 H 0.78778 0.07023 0.44141 0.0
Co633 Co 0.76473 0.08045 0.3562 0.0
C634 C 0.76118 0.08985 0.25458 0.0
O635 O 0.74829 0.07999 0.24947 0.0
N636 N 0.73726 0.08032 0.34189 0.0
C637 C 0.70631 0.07456 0.32674 0.0
C638 C 0.72497 0.06972 0.3331 0.0
C639 C 0.72544 0.09149 0.34092 0.0
N640 N 0.70657 0.08826 0.33187 0.0
O641 O 0.7611 0.09616 0.39732 0.0
H642 H 0.72892 0.05905 0.33126 0.0
H643 H 0.73059 0.10185 0.34662 0.0
O644 O 0.76947 0.09167 0.29637 0.0
C645 C 0.75489 0.0912 0.43775 0.0
O646 O 0.75059 0.07808 0.43913 0.0
N647 N 0.76897 0.06394 0.32318 0.0
C648 C 0.77766 0.03724 0.29492 0.0
C649 C 0.78369 0.04834 0.26612 0.0
C650 C 0.77976 0.0617 0.28183 0.0
C651 C 0.76406 0.05325 0.3527 0.0
C652 C 0.76792 0.03982 0.33894 0.0
H653 H 0.78608 0.0701 0.26172 0.0
H654 H 0.75702 0.05522 0.38743 0.0
H655 H 0.80808 0.0901 0.3152 0.0
H656 H 0.82598 0.0727 0.4489 0.0
H657 H 0.69345 0.06838 0.32016 0.0
H658 H 0.79199 0.0467 0.23287 0.0
H659 H 0.76332 0.03152 0.36257 0.0
C660 C 0.56096 0.91894 0.13195 0.0
C661 C 0.58054 0.9198 0.14239 0.0
N662 N 0.58847 0.90728 0.1365 0.0
N663 N 0.5565 0.90598 0.11876 0.0
C664 C 0.57347 0.89902 0.12342 0.0
H665 H 0.55066 0.92733 0.13286 0.0
Co666 Co 0.53138 0.90009 0.10043 0.0
C667 C 0.55533 0.88492 0.01962 0.0
O668 O 0.57249 0.89072 0.02483 0.0
N669 N 0.50619 0.89423 0.08199 0.0
C670 C 0.4811 0.88935 0.03334 0.0
C671 C 0.5 0.89384 0.03503 0.0
C672 C 0.49064 0.88987 0.10833 0.0
N673 N 0.47511 0.88687 0.07942 0.0
O674 O 0.53284 0.88588 0.1483 0.0
H675 H 0.50873 0.89667 0.00365 0.0
H676 H 0.4906 0.88905 0.14782 0.0
O677 O 0.54116 0.8883 0.04762 0.0
C678 C 0.52853 0.89201 0.18827 0.0
O679 O 0.52405 0.90511 0.18618 0.0
N680 N 0.52908 0.91501 0.05838 0.0
C681 C 0.52449 0.94 0.01152 0.0
C682 C 0.53944 0.93103 -0.00259 0.0
C683 C 0.5415 0.9185 0.02142 0.0
C684 C 0.51445 0.92363 0.07226 0.0
C685 C 0.51169 0.93609 0.04879 0.0
H686 H 0.55363 0.91206 0.01197 0.0
H687 H 0.50521 0.92096 0.1029 0.0
H688 H 0.57488 0.88813 0.11687 0.0
H689 H 0.58848 0.92906 0.15147 0.0
H690 H 0.47256 0.88776 0.00044 0.0
H691 H 0.54976 0.93386 0.96915 0.0
H692 H 0.50029 0.94292 0.06149 0.0
C693 C 0.25848 0.83191 0.22029 0.0
C694 C 0.23855 0.83319 0.22205 0.0
N695 N 0.232 0.83584 0.1765 0.0
N696 N 0.2646 0.8338 0.17392 0.0
C697 C 0.24812 0.8361 0.14788 0.0
H698 H 0.26791 0.82953 0.25086 0.0
Co699 Co 0.29069 0.8328 0.15527 0.0
C700 C 0.28536 0.85792 0.09314 0.0
O701 O 0.28875 0.86653 0.12921 0.0
N702 N 0.31711 0.83181 0.13762 0.0
C703 C 0.34714 0.82381 0.12727 0.0
C704 C 0.32791 0.82031 0.13398 0.0
C705 C 0.3301 0.84217 0.13325 0.0
N706 N 0.34859 0.83759 0.12733 0.0
O707 O 0.29639 0.84718 0.20063 0.0
H708 H 0.3223 0.81001 0.13783 0.0
H709 H 0.32617 0.85285 0.1373 0.0
O710 O 0.28581 0.84507 0.10094 0.0
C711 C 0.30493 0.84218 0.23813 0.0
O712 O 0.30996 0.82919 0.23751 0.0
N713 N 0.28516 0.81792 0.11535 0.0
C714 C 0.28038 0.79309 0.06704 0.0
C715 C 0.28646 0.80477 0.04129 0.0
C716 C 0.28883 0.81716 0.06627 0.0
C717 C 0.27912 0.80671 0.14073 0.0
C718 C 0.27646 0.79422 0.11722 0.0
H719 H 0.29452 0.82591 0.04675 0.0
H720 H 0.27705 0.80738 0.17992 0.0
H721 H 0.24798 0.83793 0.1088 0.0
H722 H 0.22955 0.8319 0.25426 0.0
H723 H 0.35913 0.81667 0.12367 0.0
H724 H 0.28976 0.80424 0.00254 0.0
H725 H 0.27223 0.78537 0.13866 0.0
C726 C 0.55604 0.83018 0.54066 0.0
C727 C 0.57596 0.83142 0.54316 0.0
N728 N 0.5808 0.836 0.58819 0.0
N729 N 0.54819 0.834 0.58375 0.0
C730 C 0.56364 0.83746 0.6122 0.0
H731 H 0.54776 0.82649 0.50958 0.0
Co732 Co 0.52143 0.83331 0.59502 0.0
C733 C 0.51538 0.84197 0.69699 0.0
O734 O 0.50208 0.83228 0.69926 0.0
N735 N 0.49375 0.8327 0.60452 0.0
C736 C 0.46251 0.82645 0.60845 0.0
C737 C 0.48121 0.82206 0.59998 0.0
C738 C 0.48198 0.84356 0.61446 0.0
N739 N 0.46294 0.83998 0.61782 0.0
O740 O 0.51836 0.84936 0.55582 0.0
H741 H 0.48489 0.81171 0.59004 0.0
H742 H 0.48738 0.85388 0.61985 0.0
O743 O 0.52447 0.84401 0.65654 0.0
C744 C 0.51261 0.84513 0.5139 0.0
O745 O 0.50828 0.83207 0.50891 0.0
N746 N 0.52522 0.81661 0.62729 0.0
C747 C 0.52981 0.79007 0.66128 0.0
C748 C 0.53682 0.80113 0.68887 0.0
C749 C 0.53472 0.8144 0.67066 0.0
C750 C 0.52073 0.80581 0.59771 0.0
C751 C 0.52217 0.79243 0.61467 0.0
H752 H 0.54101 0.82276 0.6912 0.0
H753 H 0.51554 0.80765 0.56088 0.0
H754 H 0.56237 0.84091 0.64975 0.0
H755 H 0.58614 0.82872 0.51443 0.0
H756 H 0.44952 0.82016 0.60647 0.0
H757 H 0.54364 0.79952 0.72421 0.0
H758 H 0.51747 0.78401 0.59156 0.0
C759 C 0.24934 0.89501 0.58245 0.0
C760 C 0.22955 0.89324 0.58097 0.0
N761 N 0.22282 0.89289 0.6272 0.0
N762 N 0.25541 0.89562 0.62938 0.0
C763 C 0.2388 0.89442 0.65613 0.0
H764 H 0.2587 0.89618 0.55093 0.0
Co765 Co 0.28189 0.89867 0.64241 0.0
C766 C 0.2901 0.89264 0.74567 0.0
O767 O 0.30108 0.90367 0.74441 0.0
N768 N 0.30933 0.90169 0.65241 0.0
C769 C 0.33978 0.90979 0.65175 0.0
C770 C 0.32034 0.91316 0.64861 0.0
C771 C 0.32265 0.89154 0.65815 0.0
N772 N 0.34126 0.89614 0.65725 0.0
O773 O 0.28794 0.88202 0.6082 0.0
H774 H 0.31503 0.92336 0.64178 0.0
H775 H 0.3187 0.88085 0.66152 0.0
O776 O 0.28035 0.88913 0.70727 0.0
C777 C 0.29546 0.88526 0.56703 0.0
O778 O 0.29826 0.89827 0.55688 0.0
N779 N 0.27534 0.91561 0.66954 0.0
C780 C 0.26866 0.94267 0.69672 0.0
C781 C 0.26314 0.93187 0.72773 0.0
C782 C 0.26631 0.91834 0.71305 0.0
C783 C 0.27823 0.92582 0.63655 0.0
C784 C 0.27561 0.93945 0.64978 0.0
H785 H 0.26161 0.91018 0.73686 0.0
H786 H 0.28374 0.92336 0.60047 0.0
H787 H 0.23836 0.89481 0.69571 0.0
H788 H 0.22065 0.89285 0.5482 0.0
H789 H 0.35189 0.91681 0.64743 0.0
H790 H 0.25663 0.93383 0.76318 0.0
H791 H 0.27988 0.94732 0.62404 0.0
C792 C 0.50234 0.57764 0.29545 0.0
C793 C 0.48261 0.57952 0.29107 0.0
N794 N 0.47585 0.58477 0.33344 0.0
N795 N 0.50822 0.58173 0.34023 0.0
C796 C 0.49171 0.58597 0.36289 0.0
H797 H 0.51182 0.5733 0.26787 0.0
Co798 Co 0.5343 0.58022 0.35831 0.0
C799 C 0.53794 0.58905 0.46081 0.0
O800 O 0.54968 0.57851 0.46593 0.0
N801 N 0.56151 0.57866 0.3743 0.0
C802 C 0.59183 0.57136 0.38842 0.0
C803 C 0.57281 0.56745 0.38147 0.0
C804 C 0.57432 0.58926 0.37737 0.0
N805 N 0.59287 0.58509 0.38542 0.0
O806 O 0.53995 0.5959 0.31894 0.0
H807 H 0.56804 0.55696 0.38176 0.0
H808 H 0.57014 0.59986 0.37246 0.0
O809 O 0.53019 0.59148 0.41875 0.0
C810 C 0.5468 0.59124 0.2787 0.0
O811 O 0.55021 0.57801 0.27537 0.0
N812 N 0.52807 0.56391 0.39023 0.0
C813 C 0.52306 0.53782 0.42726 0.0
C814 C 0.51504 0.54909 0.45186 0.0
C815 C 0.51729 0.56216 0.43187 0.0
C816 C 0.53296 0.55286 0.36234 0.0
C817 C 0.53124 0.53967 0.38091 0.0
H818 H 0.51072 0.57077 0.45039 0.0
H819 H 0.5396 0.55439 0.32684 0.0
H820 H 0.4913 0.58978 0.40013 0.0
H821 H 0.47381 0.57681 0.25956 0.0
H822 H 0.60394 0.56451 0.39524 0.0
H823 H 0.50784 0.54787 0.48689 0.0
H824 H 0.53685 0.53107 0.36007 0.0
C825 C 0.80408 0.65917 0.34123 0.0
C826 C 0.82382 0.65988 0.33284 0.0
N827 N 0.83294 0.65186 0.3658 0.0
N828 N 0.80066 0.65068 0.3791 0.0
C829 C 0.81856 0.64642 0.39359 0.0
H830 H 0.79288 0.66457 0.32111 0.0
Co831 Co 0.77564 0.64658 0.40165 0.0
C832 C 0.78262 0.62533 0.47569 0.0
O833 O 0.77219 0.61675 0.44927 0.0
N834 N 0.7502 0.64257 0.42471 0.0
C835 C 0.72511 0.64022 0.47571 0.0
C836 C 0.74419 0.64434 0.47139 0.0
C837 C 0.73434 0.63745 0.40131 0.0
N838 N 0.71886 0.63587 0.43156 0.0
O839 O 0.77581 0.6304 0.36179 0.0
H840 H 0.75324 0.64819 0.50084 0.0
H841 H 0.73404 0.63494 0.36283 0.0
O842 O 0.78618 0.63729 0.45908 0.0
C843 C 0.76902 0.63419 0.32041 0.0
O844 O 0.76274 0.64684 0.31566 0.0
N845 N 0.77513 0.66313 0.43465 0.0
C846 C 0.77386 0.69007 0.4681 0.0
C847 C 0.78642 0.68046 0.49001 0.0
C848 C 0.78705 0.66703 0.47217 0.0
C849 C 0.76277 0.67222 0.41326 0.0
C850 C 0.7619 0.68573 0.42931 0.0
H851 H 0.79753 0.65996 0.48735 0.0
H852 H 0.75394 0.66901 0.38243 0.0
H853 H 0.82103 0.63936 0.42346 0.0
H854 H 0.83095 0.66603 0.30518 0.0
H855 H 0.71673 0.64011 0.50927 0.0
H856 H 0.79591 0.68331 0.52007 0.0
H857 H 0.75242 0.69279 0.41012 0.0
C858 C 0.50422 0.65999 0.92461 0.0
C859 C 0.48445 0.65865 0.92904 0.0
N860 N 0.47803 0.64993 0.89424 0.0
N861 N 0.51062 0.65223 0.88711 0.0
C862 C 0.49427 0.64622 0.86884 0.0
H863 H 0.51343 0.66637 0.94729 0.0
Co864 Co 0.53747 0.65215 0.87427 0.0
C865 C 0.54385 0.64109 0.77515 0.0
O866 O 0.55776 0.65029 0.77166 0.0
N867 N 0.56528 0.65232 0.86456 0.0
C868 C 0.59635 0.65878 0.85694 0.0
C869 C 0.57736 0.66317 0.85854 0.0
C870 C 0.57762 0.64142 0.86657 0.0
N871 N 0.59662 0.64509 0.86233 0.0
O872 O 0.54034 0.63691 0.91756 0.0
H873 H 0.57309 0.67374 0.8556 0.0
H874 H 0.57275 0.631 0.87233 0.0
O875 O 0.53401 0.64021 0.81516 0.0
C876 C 0.54534 0.6423 0.9584 0.0
O877 O 0.54851 0.65558 0.95965 0.0
N878 N 0.534 0.66822 0.83796 0.0
C879 C 0.53039 0.69436 0.79835 0.0
C880 C 0.52461 0.68277 0.77137 0.0
C881 C 0.52586 0.66979 0.79263 0.0
C882 C 0.53762 0.67943 0.8663 0.0
C883 C 0.53615 0.69257 0.84718 0.0
H884 H 0.52011 0.66116 0.77255 0.0
H885 H 0.54236 0.6781 0.90378 0.0
H886 H 0.49428 0.63923 0.83801 0.0
H887 H 0.47543 0.66401 0.95537 0.0
H888 H 0.60901 0.66527 0.85209 0.0
H889 H 0.51936 0.68363 0.73411 0.0
H890 H 0.53963 0.70121 0.87055 0.0
C891 C 0.80921 0.57739 0.96607 0.0
C892 C 0.82922 0.57761 0.96747 0.0
N893 N 0.83588 0.58097 0.92265 0.0
N894 N 0.80308 0.58061 0.92065 0.0
C895 C 0.81968 0.58278 0.89485 0.0
H896 H 0.7997 0.57484 0.99626 0.0
Co897 Co 0.77662 0.58086 0.90353 0.0
C898 C 0.78151 0.60575 0.83807 0.0
O899 O 0.77567 0.615 0.86988 0.0
N900 N 0.74978 0.58101 0.88771 0.0
C901 C 0.71933 0.57355 0.87878 0.0
C902 C 0.73843 0.56973 0.8855 0.0
C903 C 0.73715 0.59161 0.88271 0.0
N904 N 0.71843 0.58734 0.87738 0.0
O905 O 0.77268 0.59528 0.95028 0.0
H906 H 0.74363 0.55935 0.89005 0.0
H907 H 0.74146 0.60223 0.88562 0.0
O908 O 0.78213 0.59317 0.85008 0.0
C909 C 0.76449 0.59038 0.98841 0.0
O910 O 0.75875 0.57753 0.98767 0.0
N911 N 0.78044 0.566 0.8614 0.0
C912 C 0.78305 0.54189 0.80731 0.0
C913 C 0.77658 0.55403 0.78523 0.0
C914 C 0.77536 0.56603 0.813 0.0
C915 C 0.78676 0.5543 0.88336 0.0
C916 C 0.7884 0.54215 0.85684 0.0
H917 H 0.76948 0.57514 0.79614 0.0
H918 H 0.78998 0.55428 0.92213 0.0
H919 H 0.81989 0.58527 0.85625 0.0
H920 H 0.83817 0.57552 -0.00073 0.0
H921 H 0.70704 0.56663 0.87595 0.0
H922 H 0.7722 0.55419 0.7471 0.0
H923 H 0.79306 0.53291 0.87544 0.0
C924 C 0.56287 0.40415 0.71734 0.0
C925 C 0.58275 0.40277 0.71523 0.0
N926 N 0.58778 0.39971 0.66884 0.0
N927 N 0.55514 0.40184 0.67267 0.0
C928 C 0.57075 0.39927 0.64353 0.0
H929 H 0.55457 0.40692 0.74948 0.0
Co930 Co 0.52823 0.40319 0.66218 0.0
C931 C 0.51973 0.39273 0.56299 0.0
O932 O 0.5063 0.4023 0.5606 0.0
N933 N 0.50049 0.40462 0.65422 0.0
C934 C 0.46982 0.41202 0.64736 0.0
C935 C 0.48901 0.41588 0.6522 0.0
C936 C 0.48766 0.39402 0.65166 0.0
N937 N 0.46894 0.39825 0.64699 0.0
O938 O 0.52446 0.38773 0.70381 0.0
H939 H 0.49388 0.42635 0.65437 0.0
H940 H 0.49204 0.38337 0.65222 0.0
O941 O 0.53001 0.39154 0.60218 0.0
C942 C 0.51879 0.3924 0.74515 0.0
O943 O 0.51524 0.4056 0.74904 0.0
N944 N 0.53263 0.41931 0.62709 0.0
C945 C 0.53577 0.44545 0.58772 0.0
C946 C 0.54043 0.43387 0.55944 0.0
C947 C 0.53943 0.42087 0.58043 0.0
C948 C 0.53051 0.43046 0.65662 0.0
C949 C 0.53174 0.44364 0.63763 0.0
H950 H 0.54405 0.41223 0.55881 0.0
H951 H 0.52688 0.42904 0.69483 0.0
H952 H 0.56967 0.39717 0.60468 0.0
H953 H 0.59281 0.40435 0.74531 0.0
H954 H 0.45741 0.41885 0.64524 0.0
H955 H 0.54433 0.43472 0.52117 0.0
H956 H 0.52916 0.45229 0.66168 0.0
C957 C 0.25455 0.32972 0.69339 0.0
C958 C 0.23462 0.33068 0.69564 0.0
N959 N 0.22804 0.3356 0.65261 0.0
N960 N 0.26074 0.33406 0.64929 0.0
C961 C 0.24422 0.33752 0.62489 0.0
H962 H 0.26401 0.32595 0.72206 0.0
Co963 Co 0.2873 0.33408 0.63422 0.0
C964 C 0.29106 0.3431 0.53213 0.0
O965 O 0.30482 0.33382 0.52822 0.0
N966 N 0.31515 0.33408 0.62115 0.0
C967 C 0.34589 0.32796 0.60511 0.0
C968 C 0.32691 0.32361 0.60733 0.0
C969 C 0.32776 0.34476 0.62671 0.0
N970 N 0.34661 0.34128 0.61787 0.0
O971 O 0.29008 0.35017 0.67339 0.0
H972 H 0.32236 0.3134 0.5977 0.0
H973 H 0.32323 0.35488 0.63808 0.0
O974 O 0.28248 0.34483 0.57347 0.0
C975 C 0.29709 0.34632 0.71446 0.0
O976 O 0.30268 0.33352 0.71941 0.0
N977 N 0.28366 0.31736 0.60223 0.0
C978 C 0.27895 0.29063 0.56835 0.0
C979 C 0.27084 0.30171 0.54261 0.0
C980 C 0.27304 0.31501 0.56069 0.0
C981 C 0.28963 0.30666 0.63038 0.0
C982 C 0.28808 0.29325 0.61343 0.0
H983 H 0.26587 0.32328 0.5417 0.0
H984 H 0.29656 0.30864 0.6653 0.0
H985 H 0.24403 0.34138 0.58777 0.0
H986 H 0.2256 0.32765 0.7263 0.0
H987 H 0.35815 0.32169 0.59424 0.0
H988 H 0.26263 0.30013 0.50917 0.0
H989 H 0.29444 0.28512 0.63509 0.0
C990 C 0.5556 0.31482 0.12274 0.0
C991 C 0.57509 0.31414 0.11105 0.0
N992 N 0.58293 0.32664 0.11778 0.0
N993 N 0.55115 0.32767 0.13736 0.0
C994 C 0.56806 0.33472 0.13267 0.0
H995 H 0.54528 0.30645 0.12064 0.0
Co996 Co 0.52591 0.3338 0.15355 0.0
C997 C 0.54963 0.34661 0.2389 0.0
O998 O 0.56613 0.34004 0.23234 0.0
N999 N 0.50056 0.33992 0.16924 0.0
C1000 C 0.47392 0.34363 0.2138 0.0
C1001 C 0.49319 0.3399 0.21514 0.0
C1002 C 0.48542 0.34388 0.14053 0.0
N1003 N 0.46908 0.34615 0.16699 0.0
O1004 O 0.529 0.34863 0.10897 0.0
H1005 H 0.50115 0.33684 0.24754 0.0
H1006 H 0.48607 0.34455 0.10103 0.0
O1007 O 0.53521 0.34458 0.2099 0.0
C1008 C 0.525 0.34299 0.06787 0.0
O1009 O 0.51976 0.33002 0.06784 0.0
N1010 N 0.52192 0.31829 0.19197 0.0
C1011 C 0.51445 0.29276 0.23235 0.0
C1012 C 0.5294 0.30103 0.25128 0.0
C1013 C 0.5329 0.31387 0.23053 0.0
C1014 C 0.50733 0.31033 0.17338 0.0
C1015 C 0.50312 0.29762 0.19354 0.0
H1016 H 0.54495 0.3198 0.24401 0.0
H1017 H 0.49925 0.31373 0.14163 0.0
H1018 H 0.56948 0.34558 0.14003 0.0
H1019 H 0.58302 0.30508 0.09974 0.0
H1020 H 0.46407 0.34423 0.24472 0.0
H1021 H 0.5386 0.29744 0.28087 0.0
H1022 H 0.49179 0.29135 0.17722 0.0
C1023 C 0.25216 0.41912 0.09377 0.0
C1024 C 0.23261 0.41949 0.08245 0.0
N1025 N 0.2252 0.40674 0.08705 0.0
N1026 N 0.25715 0.40624 0.10643 0.0
C1027 C 0.2406 0.39887 0.10028 0.0
H1028 H 0.26196 0.4278 0.09431 0.0
Co1029 Co 0.2818 0.40041 0.12824 0.0
C1030 C 0.25599 0.38725 0.20937 0.0
O1031 O 0.23928 0.39345 0.2015 0.0
N1032 N 0.30655 0.39441 0.15067 0.0
C1033 C 0.32984 0.38928 0.20438 0.0
C1034 C 0.31177 0.39498 0.19837 0.0
C1035 C 0.32198 0.38833 0.12825 0.0
N1036 N 0.33627 0.385 0.1604 0.0
O1037 O 0.2804 0.3854 0.08364 0.0
H1038 H 0.3028 0.39908 0.22748 0.0
H1039 H 0.32254 0.38597 0.08958 0.0
O1040 O 0.27074 0.38978 0.18222 0.0
C1041 C 0.28755 0.39053 0.04459 0.0
O1042 O 0.29388 0.40325 0.04583 0.0
N1043 N 0.28415 0.41609 0.16697 0.0
C1044 C 0.2902 0.44157 0.21019 0.0
C1045 C 0.27507 0.43299 0.22638 0.0
C1046 C 0.27221 0.42026 0.20405 0.0
C1047 C 0.29892 0.42427 0.15099 0.0
C1048 C 0.30237 0.43696 0.17244 0.0
H1049 H 0.26002 0.41413 0.21537 0.0
H1050 H 0.30797 0.42094 0.12079 0.0
H1051 H 0.23982 0.38796 0.1069 0.0
H1052 H 0.22437 0.42864 0.07397 0.0
H1053 H 0.33761 0.38829 0.23872 0.0
H1054 H 0.26506 0.4363 0.2547 0.0
H1055 H 0.31432 0.44318 0.15907 0.0
H1056 H 0.03542 0.11049 0.50089 0.0
H1057 H 0.9761 0.10454 0.54978 0.0
H1058 H 0.04401 0.11986 0.58014 0.0
H1059 H 0.98449 0.11473 0.62898 0.0
H1060 H 0.0504 0.14919 0.7039 0.0
H1061 H 0.03976 0.1395 0.62732 0.0
H1062 H 1.00236 0.11124 0.70477 0.0
H1063 H 1.01258 0.12156 0.78297 0.0
C1064 C 1.02412 0.11129 0.5284 0.0
C1065 C 1.00509 0.10664 0.5188 0.0
C1066 C 1.02901 0.11681 0.57401 0.0
C1067 C 1.01495 0.11813 0.61131 0.0
C1068 C 0.99578 0.11372 0.6015 0.0
C1069 C 0.99091 0.10803 0.55579 0.0
C1070 C 0.03995 0.14087 0.70513 0.0
C1071 C 0.03254 0.13606 0.74999 0.0
C1072 C 0.03389 0.13523 0.66079 0.0
C1073 C 1.02042 0.12439 0.65948 0.0
C1074 C 1.01271 0.11962 0.70427 0.0
C1075 C 1.01867 0.12544 0.74914 0.0
H1076 H 0.28441 0.12061 0.47232 0.0
H1077 H 0.24939 0.14948 0.55424 0.0
H1078 H 0.29246 0.10875 0.54909 0.0
H1079 H 0.25727 0.13778 0.62951 0.0
H1080 H 0.28032 0.11921 0.766 0.0
H1081 H 0.28281 0.13211 0.68899 0.0
H1082 H 0.27373 0.09471 0.60712 0.0
H1083 H 0.27149 0.082 0.6832 0.0
C1084 C 0.27852 0.12446 0.50649 0.0
C1085 C 0.26606 0.13589 0.50685 0.0
C1086 C 0.28315 0.11771 0.55045 0.0
C1087 C 0.27561 0.12238 0.5956 0.0
C1088 C 0.26365 0.13403 0.59577 0.0
C1089 C 0.25891 0.14064 0.55217 0.0
C1090 C 0.27937 0.11377 0.73146 0.0
C1091 C 0.27539 0.09967 0.73057 0.0
C1092 C 0.28067 0.12112 0.68738 0.0
C1093 C 0.27823 0.11445 0.6418 0.0
C1094 C 0.27579 0.10018 0.64129 0.0
C1095 C 0.2743 0.09291 0.68506 0.0
H1096 H 1.02539 0.85046 0.50753 0.0
H1097 H 0.04528 0.89084 0.46645 0.0
H1098 H 1.02823 0.84297 0.42315 0.0
H1099 H 0.04857 0.8832 0.38148 0.0
H1100 H 0.0453 0.82833 0.27801 0.0
H1101 H 0.05041 0.83757 0.35964 0.0
H1102 H 1.02791 0.87671 0.31193 0.0
H1103 H 1.02368 0.86743 0.22879 0.0
C1104 C 0.03074 0.8577 0.48067 0.0
C1105 C 0.03509 0.87127 0.49405 0.0
C1106 C 0.03248 0.85337 0.43204 0.0
C1107 C 0.0387 0.86245 0.39518 0.0
C1108 C 0.04358 0.87595 0.40871 0.0
C1109 C 0.04185 0.8803 0.45759 0.0
C1110 C 0.04209 0.83905 0.28447 0.0
C1111 C 0.03429 0.84721 0.24699 0.0
C1112 C 0.04474 0.84431 0.33156 0.0
C1113 C 0.03918 0.85782 0.34291 0.0
C1114 C 0.03245 0.86628 0.30456 0.0
C1115 C 0.03005 0.86101 0.2569 0.0
H1116 H 0.78758 0.85585 0.50715 0.0
H1117 H 0.72564 0.85343 0.47852 0.0
H1118 H 0.79327 0.86206 0.42194 0.0
H1119 H 0.73141 0.86004 0.39346 0.0
H1120 H 0.75294 0.8849 0.2549 0.0
H1121 H 0.7453 0.88009 0.34084 0.0
H1122 H 0.7887 0.84806 0.34201 0.0
H1123 H 0.79621 0.8527 0.25631 0.0
C1124 C 0.77515 0.85673 0.48293 0.0
C1125 C 0.7562 0.8538 0.4996 0.0
C1126 C 0.77844 0.86028 0.43406 0.0
C1127 C 0.76281 0.86128 0.40093 0.0
C1128 C 0.74373 0.85928 0.41819 0.0
C1129 C 0.74045 0.85551 0.46697 0.0
C1130 C 0.76068 0.87673 0.27337 0.0
C1131 C 0.77518 0.86917 0.24876 0.0
C1132 C 0.75631 0.87399 0.32251 0.0
C1133 C 0.76659 0.86383 0.34818 0.0
C1134 C 0.78075 0.85609 0.32327 0.0
C1135 C 0.78489 0.85866 0.27403 0.0
H1136 H 0.04251 0.62231 0.22611 0.0
H1137 H 0.98432 0.63202 0.17619 0.0
H1138 H 0.05012 0.61264 0.14684 0.0
H1139 H 0.99159 0.62147 0.09693 0.0
H1140 H 1.01929 0.61341 0.94328 0.0
H1141 H 1.00982 0.62396 0.02168 0.0
H1142 H 0.04384 0.59357 0.0988 0.0
H1143 H 0.05386 0.58371 0.02207 0.0
C1144 C 0.03122 0.62226 0.19837 0.0
C1145 C 1.01285 0.62807 0.20766 0.0
C1146 C 0.03553 0.61656 0.15274 0.0
C1147 C 1.02146 0.61619 0.11512 0.0
C1148 C 1.00289 0.62174 0.12465 0.0
C1149 C 0.99864 0.62762 0.17038 0.0
C1150 C 1.0248 0.60913 0.97712 0.0
C1151 C 0.03766 0.59791 0.97619 0.0
C1152 C 1.01927 0.61507 0.02208 0.0
C1153 C 1.02631 0.60977 0.06684 0.0
C1154 C 0.03861 0.59828 0.0654 0.0
C1155 C 0.04432 0.59255 0.02098 0.0
H1156 H 0.28457 0.61666 0.97815 0.0
H1157 H 0.27379 0.65293 0.06467 0.0
H1158 H 0.28824 0.60329 0.05386 0.0
H1159 H 0.27713 0.63976 0.1394 0.0
H1160 H 0.29081 0.61385 0.27187 0.0
H1161 H 0.297 0.6264 0.19554 0.0
H1162 H 0.2646 0.59583 0.11477 0.0
H1163 H 0.25866 0.58339 0.18979 0.0
C1164 C 0.28341 0.62182 0.0132 0.0
C1165 C 0.27863 0.63579 0.01543 0.0
C1166 C 0.28535 0.61418 0.05659 0.0
C1167 C 0.28277 0.62042 0.10292 0.0
C1168 C 0.27936 0.63459 0.10472 0.0
C1169 C 0.27726 0.64213 0.06166 0.0
C1170 C 0.28516 0.6098 0.23772 0.0
C1171 C 0.27404 0.5977 0.23727 0.0
C1172 C 0.2887 0.61697 0.19395 0.0
C1173 C 0.28134 0.61212 0.14878 0.0
C1174 C 0.27079 0.59979 0.14846 0.0
C1175 C 0.26717 0.59273 0.19192 0.0
H1176 H 0.04266 0.37294 0.03343 0.0
H1177 H 1.00055 0.39854 0.95936 0.0
H1178 H 0.05117 0.36234 0.95468 0.0
H1179 H 1.00962 0.38869 0.88185 0.0
H1180 H 1.01456 0.36015 0.75428 0.0
H1181 H 1.00653 0.36932 0.83414 0.0
H1182 H 0.06699 0.36604 0.87782 0.0
H1183 H 0.07479 0.35593 0.79837 0.0
C1184 C 0.03521 0.37628 0.00057 0.0
C1185 C 1.02081 0.38651 0.00301 0.0
C1186 C 0.04021 0.37033 0.9553 0.0
C1187 C 0.03103 0.37458 0.91157 0.0
C1188 C 1.01672 0.38484 0.91448 0.0
C1189 C 1.01158 0.3906 0.95934 0.0
C1190 C 1.02617 0.36129 0.78084 0.0
C1191 C 0.04528 0.35713 0.7698 0.0
C1192 C 1.0216 0.36671 0.82679 0.0
C1193 C 0.03609 0.36846 0.8629 0.0
C1194 C 0.05535 0.36463 0.85145 0.0
C1195 C 0.05988 0.359 0.80552 0.0
H1196 H 0.73567 0.35503 0.9197 0.0
H1197 H 0.7944 0.36324 0.96916 0.0
H1198 H 0.74304 0.36591 0.84145 0.0
H1199 H 0.80212 0.37328 0.8905 0.0
H1200 H 0.80626 0.40266 0.7661 0.0
H1201 H 0.79688 0.3925 0.84288 0.0
H1202 H 0.76041 0.36339 0.76594 0.0
H1203 H 0.76925 0.3742 0.68787 0.0
C1204 C 0.75016 0.35915 0.91399 0.0
C1205 C 0.76448 0.35816 0.95086 0.0
C1206 C 0.75446 0.36524 0.86876 0.0
C1207 C 0.77322 0.37045 0.85915 0.0
C1208 C 0.78741 0.3696 0.89643 0.0
C1209 C 0.78304 0.36368 0.94168 0.0
C1210 C 0.79628 0.39405 0.76511 0.0
C1211 C 0.78868 0.38916 0.72047 0.0
C1212 C 0.79096 0.38814 0.80954 0.0
C1213 C 0.77808 0.37695 0.81104 0.0
C1214 C 0.77027 0.37206 0.76639 0.0
C1215 C 0.77544 0.37816 0.72156 0.0
H1216 H 0.52605 0.15209 0.18039 0.0
H1217 H 0.52205 0.11476 0.26428 0.0
H1218 H 0.52428 0.13909 0.10471 0.0
H1219 H 0.51993 0.10156 0.18768 0.0
H1220 H 0.55286 0.08515 0.0511 0.0
H1221 H 0.54482 0.09672 0.12661 0.0
H1222 H 0.50677 0.12422 0.04777 0.0
H1223 H 0.51505 0.11252 0.97072 0.0
C1224 C 0.52439 0.14107 0.18262 0.0
C1225 C 0.52453 0.1344 0.22829 0.0
C1226 C 0.52317 0.13362 0.13906 0.0
C1227 C 0.52219 0.11926 0.1399 0.0
C1228 C 0.52096 0.11262 0.18574 0.0
C1229 C 0.52202 0.12015 0.22963 0.0
C1230 C 0.54267 0.09362 0.04943 0.0
C1231 C 0.53478 0.098 0.00442 0.0
C1232 C 0.53785 0.10015 0.0932 0.0
C1233 C 0.52503 0.11135 0.09358 0.0
C1234 C 0.51676 0.11563 0.04876 0.0
C1235 C 0.52152 0.10897 0.0046 0.0
H1236 H 0.75467 0.08226 0.16042 0.0
H1237 H 0.78145 0.1143 0.24684 0.0
H1238 H 0.76148 0.09484 0.08615 0.0
H1239 H 0.78852 0.12703 0.17128 0.0
H1240 H 0.76514 0.15218 0.037 0.0
H1241 H 0.76788 0.13916 0.11217 0.0
H1242 H 0.78605 0.10364 0.02932 0.0
H1243 H 0.78306 0.11682 0.95305 0.0
C1244 C 0.7622 0.09199 0.16363 0.0
C1245 C 0.76723 0.09738 0.20984 0.0
C1246 C 0.76635 0.09913 0.1207 0.0
C1247 C 0.77555 0.11196 0.12252 0.0
C1248 C 0.78127 0.11719 0.16861 0.0
C1249 C 0.77727 0.10992 0.21189 0.0
C1250 C 0.76993 0.14162 0.03462 0.0
C1251 C 0.77356 0.13545 0.98886 0.0
C1252 C 0.77173 0.1342 0.078 0.0
C1253 C 0.77708 0.12033 0.07696 0.0
C1254 C 0.78169 0.11429 0.03135 0.0
C1255 C 0.78007 0.12182 0.98768 0.0
H1256 H 0.52159 0.87151 0.99602 0.0
H1257 H 0.57901 0.8807 0.93981 0.0
H1258 H 0.51239 0.8619 0.91753 0.0
H1259 H 0.57018 0.87023 0.8616 0.0
H1260 H 0.54038 0.86388 0.71106 0.0
H1261 H 0.55092 0.87369 0.78954 0.0
H1262 H 0.51676 0.84327 0.86611 0.0
H1263 H 0.50564 0.8341 0.78893 0.0
C1264 C 0.53237 0.87134 0.96707 0.0
C1265 C 0.55095 0.87708 0.97421 0.0
C1266 C 0.52715 0.86568 0.92193 0.0
C1267 C 0.5405 0.8653 0.88277 0.0
C1268 C 0.55937 0.87057 0.89047 0.0
C1269 C 0.56453 0.87641 0.93563 0.0
C1270 C 0.53504 0.85943 0.74478 0.0
C1271 C 0.52194 0.84835 0.74358 0.0
C1272 C 0.54121 0.86494 0.7898 0.0
C1273 C 0.53459 0.85937 0.83446 0.0
C1274 C 0.5218 0.84812 0.8328 0.0
C1275 C 0.51546 0.84279 0.78819 0.0
H1276 H 0.31618 0.89339 0.81945 0.0
H1277 H 0.26025 0.87604 0.78076 0.0
H1278 H 0.31274 0.88497 0.90225 0.0
H1279 H 0.25679 0.86743 0.86522 0.0
H1280 H 0.27245 0.84356 0.01283 0.0
H1281 H 0.2721 0.85104 0.92739 0.0
H1282 H 0.29182 0.89115 0.97252 0.0
H1283 H 0.29251 0.88365 0.05764 0.0
C1284 C 0.30311 0.8877 0.82859 0.0
C1285 C 0.28837 0.88553 0.79352 0.0
C1286 C 0.3011 0.88295 0.87635 0.0
C1287 C 0.2843 0.87582 0.89078 0.0
C1288 C 0.26988 0.87298 0.85524 0.0
C1289 C 0.27188 0.87783 0.8069 0.0
C1290 C 0.27665 0.854 0.00455 0.0
C1291 C 0.28287 0.86294 0.0421 0.0
C1292 C 0.27627 0.8583 0.95557 0.0
C1293 C 0.28219 0.87162 0.94302 0.0
C1294 C 0.28749 0.88073 0.98086 0.0
C1295 C 0.28779 0.87646 0.02975 0.0
H1296 H 0.553 0.64833 0.68228 0.0
H1297 H 0.52138 0.61764 0.76391 0.0
H1298 H 0.54632 0.63626 0.60676 0.0
H1299 H 0.51447 0.6054 0.68689 0.0
H1300 H 0.53829 0.57953 0.55374 0.0
H1301 H 0.53486 0.59235 0.62938 0.0
H1302 H 0.52203 0.62893 0.54658 0.0
H1303 H 0.52573 0.61594 0.4699 0.0
C1304 C 0.54446 0.639 0.68417 0.0
C1305 C 0.53802 0.63382 0.7295 0.0
C1306 C 0.54038 0.63217 0.64045 0.0
C1307 C 0.52983 0.61986 0.64049 0.0
C1308 C 0.52276 0.61485 0.68561 0.0
C1309 C 0.52668 0.62183 0.72971 0.0
C1310 C 0.53449 0.59028 0.55147 0.0
C1311 C 0.53264 0.59679 0.50571 0.0
C1312 C 0.53229 0.59761 0.59508 0.0
C1313 C 0.52832 0.61171 0.59427 0.0
C1314 C 0.52532 0.61809 0.54848 0.0
C1315 C 0.52735 0.61067 0.50455 0.0
H1316 H 0.79825 0.5898 0.76739 0.0
H1317 H 0.77352 0.63 0.79073 0.0
H1318 H 0.80122 0.59454 0.68029 0.0
H1319 H 0.7765 0.63475 0.7031 0.0
H1320 H 0.7973 0.64248 0.54679 0.0
H1321 H 0.79951 0.63823 0.63459 0.0
H1322 H 0.77847 0.59699 0.61186 0.0
H1323 H 0.77636 0.60119 0.5241 0.0
C1324 C 0.79349 0.59969 0.75402 0.0
C1325 C 0.78537 0.60945 0.78613 0.0
C1326 C 0.79517 0.60239 0.70393 0.0
C1327 C 0.7889 0.61496 0.68448 0.0
C1328 C 0.78159 0.62498 0.71686 0.0
C1329 C 0.77983 0.62225 0.76712 0.0
C1330 C 0.79339 0.63244 0.5603 0.0
C1331 C 0.78658 0.6222 0.52812 0.0
C1332 C 0.79452 0.63005 0.61082 0.0
C1333 C 0.78905 0.6173 0.63044 0.0
C1334 C 0.78297 0.60689 0.59806 0.0
C1335 C 0.78171 0.60932 0.54762 0.0
H1336 H 0.57538 0.35065 0.31479 0.0
H1337 H 0.51639 0.35959 0.26904 0.0
H1338 H 0.56898 0.36151 0.39382 0.0
H1339 H 0.50968 0.36964 0.34835 0.0
H1340 H 0.50789 0.39948 0.47159 0.0
H1341 H 0.5164 0.38903 0.39466 0.0
H1342 H 0.55188 0.3592 0.47043 0.0
H1343 H 0.54394 0.3703 0.54882 0.0
C1344 C 0.56105 0.35492 0.3215 0.0
C1345 C 0.54638 0.3542 0.28542 0.0
C1346 C 0.55731 0.361 0.36712 0.0
C1347 C 0.5388 0.36645 0.37781 0.0
C1348 C 0.52423 0.36578 0.34144 0.0
C1349 C 0.52803 0.35989 0.29582 0.0
C1350 C 0.51746 0.39065 0.47234 0.0
C1351 C 0.52504 0.38563 0.51673 0.0
C1352 C 0.52227 0.38457 0.42783 0.0
C1353 C 0.53458 0.37309 0.42601 0.0
C1354 C 0.54242 0.36808 0.47034 0.0
C1355 C 0.53777 0.37435 0.51531 0.0
H1356 H 0.2969 0.33373 0.44014 0.0
H1357 H 0.26828 0.36633 0.51971 0.0
H1358 H 0.28651 0.34357 0.36352 0.0
H1359 H 0.25828 0.37665 0.44141 0.0
H1360 H 0.2312 0.38486 0.28816 0.0
H1361 H 0.23808 0.37415 0.36732 0.0
H1362 H 0.2953 0.3626 0.31529 0.0
H1363 H 0.28817 0.37267 0.23632 0.0
C1364 C 0.28851 0.34314 0.44135 0.0
C1365 C 0.28374 0.34939 0.48623 0.0
C1366 C 0.28258 0.34881 0.3971 0.0
C1367 C 0.27189 0.36107 0.39601 0.0
C1368 C 0.26649 0.36718 0.44091 0.0
C1369 C 0.2723 0.36134 0.48572 0.0
C1370 C 0.24513 0.37984 0.29347 0.0
C1371 C 0.25914 0.37965 0.25577 0.0
C1372 C 0.24915 0.37386 0.33908 0.0
C1373 C 0.26725 0.36752 0.34787 0.0
C1374 C 0.28108 0.3672 0.30981 0.0
C1375 C 0.27704 0.37308 0.26441 0.0
H1376 H 0.1015 0.09981 0.3387 0.0
H1377 H 0.09991 0.11373 0.48883 0.0
H1378 H 0.13259 0.11197 0.32705 0.0
H1379 H 0.1308 0.12539 0.47779 0.0
H1380 H 0.17394 0.15747 0.42928 0.0
H1381 H 0.14316 0.14526 0.43506 0.0
H1382 H 0.16776 0.11132 0.35437 0.0
H1383 H 0.19869 0.12384 0.34728 0.0
C1384 C 0.10773 0.10547 0.36908 0.0
C1385 C 0.09823 0.10572 0.41474 0.0
C1386 C 0.12561 0.1123 0.3626 0.0
C1387 C 0.13421 0.11967 0.4015 0.0
C1388 C 0.12457 0.11996 0.44687 0.0
C1389 C 0.10689 0.11311 0.45336 0.0
C1390 C 0.17282 0.14746 0.41236 0.0
C1391 C 0.18885 0.14167 0.38778 0.0
C1392 C 0.15517 0.14039 0.41606 0.0
C1393 C 0.15296 0.12727 0.39535 0.0
C1394 C 0.16892 0.12145 0.37044 0.0
C1395 C 0.18672 0.12854 0.36691 0.0
H1396 H 0.09949 0.12013 0.91536 0.0
H1397 H 0.12513 0.14967 0.81732 0.0
H1398 H 0.12902 0.10617 0.91021 0.0
H1399 H 0.15439 0.13566 0.81095 0.0
H1400 H 0.21196 0.11546 0.85087 0.0
H1401 H 0.18228 0.12891 0.85543 0.0
H1402 H 0.1481 0.09174 0.85985 0.0
H1403 H 0.17766 0.07828 0.85811 0.0
C1404 C 0.11132 0.12353 0.89212 0.0
C1405 C 0.11 0.13605 0.86703 0.0
C1406 C 0.12829 0.11553 0.88906 0.0
C1407 C 0.14429 0.11979 0.8604 0.0
C1408 C 0.14266 0.13216 0.83434 0.0
C1409 C 0.12581 0.14019 0.83779 0.0
C1410 C 0.19822 0.11007 0.8532 0.0
C1411 C 0.19756 0.09564 0.8542 0.0
C1412 C 0.18105 0.11785 0.85525 0.0
C1413 C 0.16264 0.11147 0.85798 0.0
C1414 C 0.16194 0.09708 0.85852 0.0
C1415 C 0.17909 0.0893 0.85683 0.0
H1416 H 0.84689 0.86467 0.64956 0.0
H1417 H 0.86752 0.83062 0.56338 0.0
H1418 H 0.88012 0.87415 0.65202 0.0
H1419 H 0.90063 0.83962 0.5671 0.0
H1420 H 0.94664 0.86925 0.51404 0.0
H1421 H 0.91537 0.85841 0.52649 0.0
H1422 H 0.91478 0.87253 0.67658 0.0
H1423 H 0.94624 0.88403 0.66317 0.0
C1424 C 0.85866 0.85905 0.63236 0.0
C1425 C 0.85468 0.84705 0.60564 0.0
C1426 C 0.87768 0.86444 0.63376 0.0
C1427 C 0.89303 0.85781 0.60881 0.0
C1428 C 0.88913 0.84524 0.58546 0.0
C1429 C 0.87019 0.84001 0.58352 0.0
C1430 C 0.93988 0.87017 0.54968 0.0
C1431 C 0.94892 0.87767 0.58741 0.0
C1432 C 0.92198 0.86374 0.55712 0.0
C1433 C 0.91252 0.86446 0.60272 0.0
C1434 C 0.92161 0.87181 0.64093 0.0
C1435 C 0.9397 0.87829 0.63341 0.0
H1436 H 0.937 0.82447 0.10431 0.0
H1437 H 0.96897 0.8605 0.14979 0.0
H1438 H 0.9066 0.83706 0.11109 0.0
H1439 H 0.93853 0.87332 0.15417 0.0
H1440 H 0.879 0.8862 0.21626 0.0
H1441 H 0.91007 0.87475 0.20432 0.0
H1442 H 0.88729 0.8548 0.07491 0.0
H1443 H 0.85579 0.86577 0.08833 0.0
C1444 C 0.93761 0.83508 0.11573 0.0
C1445 C 0.95555 0.84138 0.12693 0.0
C1446 C 0.92012 0.84238 0.11888 0.0
C1447 C 0.92004 0.85624 0.13311 0.0
C1448 C 0.93799 0.86263 0.14362 0.0
C1449 C 0.95551 0.85529 0.14061 0.0
C1450 C 0.88051 0.87932 0.18539 0.0
C1451 C 0.86471 0.8768 0.15365 0.0
C1452 C 0.89849 0.87288 0.17813 0.0
C1453 C 0.90124 0.86378 0.13875 0.0
C1454 C 0.88563 0.86158 0.10608 0.0
C1455 C 0.86759 0.868 0.11344 0.0
H1456 H 0.21442 0.61686 0.86958 0.0
H1457 H 0.17836 0.65311 0.87771 0.0
H1458 H 0.18528 0.60288 0.85816 0.0
H1459 H 0.14938 0.63913 0.86918 0.0
H1460 H 0.101 0.61176 0.80898 0.0
H1461 H 0.13049 0.62577 0.8146 0.0
H1462 H 0.15801 0.59438 0.90216 0.0
H1463 H 0.12878 0.58038 0.89553 0.0
C1464 C 0.20036 0.62189 0.86894 0.0
C1465 C 0.19892 0.63617 0.87507 0.0
C1466 C 0.18356 0.61383 0.86296 0.0
C1467 C 0.16483 0.61982 0.86303 0.0
C1468 C 0.16346 0.63411 0.86839 0.0
C1469 C 0.1802 0.64215 0.8741 0.0
C1470 C 0.11333 0.60793 0.82963 0.0
C1471 C 0.11254 0.59493 0.85156 0.0
C1472 C 0.13027 0.61595 0.83293 0.0
C1473 C 0.14681 0.61122 0.85865 0.0
C1474 C 0.14584 0.59827 0.88106 0.0
C1475 C 0.12899 0.59024 0.87744 0.0
H1476 H 0.10813 0.61577 0.24817 0.0
H1477 H 0.10971 0.63241 0.39472 0.0
H1478 H 0.13883 0.6041 0.26249 0.0
H1479 H 0.14054 0.62028 0.40982 0.0
H1480 H 0.20662 0.60886 0.39218 0.0
H1481 H 0.17539 0.62073 0.38273 0.0
H1482 H 0.15166 0.58517 0.30941 0.0
H1483 H 0.18285 0.57357 0.31727 0.0
C1484 C 0.11506 0.61694 0.28357 0.0
C1485 C 0.10653 0.62513 0.32017 0.0
C1486 C 0.1326 0.6101 0.29198 0.0
C1487 C 0.14217 0.61122 0.33733 0.0
C1488 C 0.13361 0.6193 0.37432 0.0
C1489 C 0.11588 0.62613 0.36591 0.0
C1490 C 0.19479 0.60364 0.37365 0.0
C1491 C 0.19733 0.59026 0.35529 0.0
C1492 C 0.17681 0.61037 0.36883 0.0
C1493 C 0.16102 0.60392 0.34525 0.0
C1494 C 0.16356 0.59052 0.3273 0.0
C1495 C 0.18144 0.5838 0.33221 0.0
H1496 H 0.96035 0.37259 0.11916 0.0
H1497 H 0.92756 0.40986 0.1444 0.0
H1498 H 0.92968 0.36012 0.10798 0.0
H1499 H 0.89743 0.39746 0.13103 0.0
H1500 H 0.85597 0.37322 0.02224 0.0
H1501 H 0.8865 0.38453 0.04517 0.0
H1502 H 0.8944 0.35558 0.16275 0.0
H1503 H 0.86329 0.34441 0.1403 0.0
C1504 C 0.9468 0.37816 0.12277 0.0
C1505 C 0.94674 0.39241 0.13187 0.0
C1506 C 0.92922 0.37097 0.11639 0.0
C1507 C 0.91128 0.37789 0.11836 0.0
C1508 C 0.91112 0.39193 0.12892 0.0
C1509 C 0.92854 0.39906 0.13611 0.0
C1510 C 0.86419 0.36932 0.05309 0.0
C1511 C 0.85735 0.35798 0.07957 0.0
C1512 C 0.8816 0.37578 0.06624 0.0
C1513 C 0.89277 0.37087 0.10554 0.0
C1514 C 0.88603 0.3595 0.13215 0.0
C1515 C 0.86827 0.3532 0.11963 0.0
H1516 H 0.96229 0.36124 0.5725 0.0
H1517 H 0.93464 0.3448 0.70176 0.0
H1518 H 0.93164 0.37216 0.54934 0.0
H1519 H 0.90452 0.3563 0.68033 0.0
H1520 H 0.848 0.3722 0.61926 0.0
H1521 H 0.87703 0.35796 0.62872 0.0
H1522 H 0.9127 0.39107 0.574 0.0
H1523 H 0.88378 0.40488 0.56199 0.0
C1524 C 0.9497 0.35985 0.59586 0.0
C1525 C 0.95116 0.35227 0.63946 0.0
C1526 C 0.93212 0.36627 0.58288 0.0
C1527 C 0.91552 0.3653 0.61321 0.0
C1528 C 0.91682 0.35725 0.65571 0.0
C1529 C 0.93431 0.35079 0.66848 0.0
C1530 C 0.86198 0.37635 0.60844 0.0
C1531 C 0.86343 0.38981 0.59047 0.0
C1532 C 0.87872 0.36822 0.61436 0.0
C1533 C 0.89738 0.37335 0.60256 0.0
C1534 C 0.89868 0.38664 0.58309 0.0
C1535 C 0.882 0.3947 0.57695 0.0
H1536 H 0.63213 0.08023 0.85476 0.0
H1537 H 0.59778 0.11482 0.90284 0.0
H1538 H 0.66113 0.09453 0.85342 0.0
H1539 H 0.62694 0.1292 0.90151 0.0
H1540 H 0.6786 0.15365 0.83878 0.0
H1541 H 0.64953 0.13947 0.84441 0.0
H1542 H 0.68397 0.10658 0.90526 0.0
H1543 H 0.71316 0.12081 0.89956 0.0
C1544 C 0.63075 0.09085 0.8657 0.0
C1545 C 0.61249 0.09632 0.87907 0.0
C1546 C 0.64747 0.09908 0.86493 0.0
C1547 C 0.64648 0.11304 0.87745 0.0
C1548 C 0.62824 0.11853 0.89099 0.0
C1549 C 0.61148 0.11028 0.89177 0.0
C1550 C 0.68002 0.14347 0.85393 0.0
C1551 C 0.69834 0.13843 0.86876 0.0
C1552 C 0.66326 0.13531 0.85719 0.0
C1553 C 0.66431 0.12185 0.87535 0.0
C1554 C 0.68262 0.11682 0.89042 0.0
C1555 C 0.6994 0.12499 0.88714 0.0
H1556 H 0.67377 0.08511 0.27773 0.0
H1557 H 0.70128 0.1118 0.3833 0.0
H1558 H 0.64473 0.09948 0.27852 0.0
H1559 H 0.67205 0.12608 0.38527 0.0
H1560 H 0.62337 0.15567 0.34726 0.0
H1561 H 0.65269 0.14193 0.34173 0.0
H1562 H 0.61759 0.10537 0.32725 0.0
H1563 H 0.58817 0.11919 0.32985 0.0
C1564 C 0.67356 0.09403 0.30134 0.0
C1565 C 0.68984 0.09728 0.33054 0.0
C1566 C 0.65685 0.10227 0.30201 0.0
C1567 C 0.65584 0.11395 0.33225 0.0
C1568 C 0.67229 0.11731 0.36095 0.0
C1569 C 0.6891 0.10911 0.35991 0.0
C1570 C 0.62174 0.14474 0.34219 0.0
C1571 C 0.60311 0.13866 0.33892 0.0
C1572 C 0.63872 0.13679 0.3397 0.0
C1573 C 0.63767 0.12247 0.33419 0.0
C1574 C 0.61908 0.11637 0.33084 0.0
C1575 C 0.60209 0.12434 0.33299 0.0
H1576 H 0.35229 0.86446 0.1024 0.0
H1577 H 0.38546 0.82912 0.14869 0.0
H1578 H 0.38224 0.87783 0.09845 0.0
H1579 H 0.41538 0.84224 0.14219 0.0
H1580 H 0.46616 0.8712 0.1586 0.0
H1581 H 0.43473 0.86039 0.17617 0.0
H1582 H 0.41013 0.87935 0.04723 0.0
H1583 H 0.44104 0.89056 0.03128 0.0
C1584 C 0.3659 0.85952 0.11188 0.0
C1585 C 0.36633 0.84563 0.12545 0.0
C1586 C 0.38315 0.86717 0.10918 0.0
C1587 C 0.40131 0.86112 0.11979 0.0
C1588 C 0.40169 0.84731 0.13429 0.0
C1589 C 0.38446 0.83969 0.1372 0.0
C1590 C 0.45391 0.87326 0.13468 0.0
C1591 C 0.45621 0.8816 0.09317 0.0
C1592 C 0.43594 0.86695 0.14437 0.0
C1593 C 0.41988 0.86887 0.11283 0.0
C1594 C 0.42204 0.87769 0.0726 0.0
C1595 C 0.43991 0.88399 0.06303 0.0
H1596 H 0.45892 0.86729 0.60009 0.0
H1597 H 0.42901 0.83216 0.65992 0.0
H1598 H 0.42962 0.88119 0.61273 0.0
H1599 H 0.3999 0.84594 0.67234 0.0
H1600 H 0.37782 0.90431 0.68269 0.0
H1601 H 0.40795 0.89109 0.67586 0.0
H1602 H 0.37513 0.85653 0.62091 0.0
H1603 H 0.34516 0.86971 0.62729 0.0
C1604 C 0.44621 0.86257 0.61645 0.0
C1605 C 0.44626 0.84855 0.62833 0.0
C1606 C 0.42941 0.87053 0.6237 0.0
C1607 C 0.41231 0.86463 0.64301 0.0
C1608 C 0.41264 0.85074 0.65634 0.0
C1609 C 0.42936 0.84283 0.64916 0.0
C1610 C 0.37703 0.8939 0.66905 0.0
C1611 C 0.35897 0.88809 0.65578 0.0
C1612 C 0.39432 0.88634 0.66507 0.0
C1613 C 0.39398 0.87274 0.64793 0.0
C1614 C 0.37591 0.8669 0.63507 0.0
C1615 C 0.35866 0.87446 0.6389 0.0
H1616 H 0.5959 0.61207 0.41024 0.0
H1617 H 0.62989 0.57688 0.36618 0.0
H1618 H 0.62579 0.62563 0.41632 0.0
H1619 H 0.65958 0.59011 0.37457 0.0
H1620 H 0.70952 0.61905 0.35523 0.0
H1621 H 0.6783 0.60808 0.33947 0.0
H1622 H 0.65409 0.62773 0.46767 0.0
H1623 H 0.68498 0.63928 0.48195 0.0
C1624 C 0.60968 0.60722 0.40171 0.0
C1625 C 0.6104 0.59332 0.3881 0.0
C1626 C 0.62686 0.61496 0.40567 0.0
C1627 C 0.64517 0.60899 0.39602 0.0
C1628 C 0.6458 0.59515 0.38167 0.0
C1629 C 0.62869 0.58746 0.37762 0.0
C1630 C 0.6975 0.62127 0.37962 0.0
C1631 C 0.69998 0.62999 0.42024 0.0
C1632 C 0.67958 0.61482 0.37088 0.0
C1633 C 0.66366 0.61687 0.40261 0.0
C1634 C 0.66594 0.62595 0.44224 0.0
C1635 C 0.68382 0.63245 0.45085 0.0
H1636 H 0.63295 0.65271 0.89118 0.0
H1637 H 0.59965 0.61796 0.83985 0.0
H1638 H 0.66223 0.63875 0.89346 0.0
H1639 H 0.62916 0.60387 0.84211 0.0
H1640 H 0.6816 0.5799 0.90325 0.0
H1641 H 0.65211 0.59362 0.89863 0.0
H1642 H 0.68551 0.62746 0.84087 0.0
H1643 H 0.71517 0.61366 0.8455 0.0
C1644 C 0.63187 0.64211 0.87982 0.0
C1645 C 0.61386 0.63653 0.8649 0.0
C1646 C 0.64875 0.63408 0.8811 0.0
C1647 C 0.64819 0.62018 0.86761 0.0
C1648 C 0.63014 0.61451 0.85321 0.0
C1649 C 0.61318 0.62258 0.85193 0.0
C1650 C 0.68272 0.59019 0.88896 0.0
C1651 C 0.70089 0.59561 0.87456 0.0
C1652 C 0.66571 0.59809 0.88631 0.0
C1653 C 0.66632 0.61167 0.86928 0.0
C1654 C 0.68448 0.6171 0.85482 0.0
C1655 C 0.70153 0.60918 0.85747 0.0
H1656 H 0.46235 0.37322 0.68675 0.0
H1657 H 0.43591 0.40457 0.59754 0.0
H1658 H 0.43248 0.35968 0.68164 0.0
H1659 H 0.40623 0.39096 0.59111 0.0
H1660 H 0.34906 0.36922 0.62479 0.0
H1661 H 0.37848 0.38298 0.63378 0.0
H1662 H 0.41354 0.34623 0.62856 0.0
H1663 H 0.38436 0.3325 0.62273 0.0
C1664 C 0.45023 0.37714 0.66555 0.0
C1665 C 0.45152 0.38998 0.64266 0.0
C1666 C 0.43306 0.36937 0.6625 0.0
C1667 C 0.41678 0.37418 0.63595 0.0
C1668 C 0.41821 0.387 0.61273 0.0
C1669 C 0.4353 0.3948 0.61622 0.0
C1670 C 0.36298 0.36402 0.62607 0.0
C1671 C 0.36405 0.34964 0.62271 0.0
C1672 C 0.37996 0.37197 0.63068 0.0
C1673 C 0.39854 0.36578 0.63184 0.0
C1674 C 0.39958 0.35142 0.62856 0.0
C1675 C 0.38267 0.3435 0.62436 0.0
H1676 H 0.35388 0.3674 0.22192 0.0
H1677 H 0.3595 0.38604 0.07949 0.0
H1678 H 0.38558 0.35686 0.21289 0.0
H1679 H 0.39151 0.37497 0.06934 0.0
H1680 H 0.45835 0.36846 0.11506 0.0
H1681 H 0.42476 0.37677 0.104 0.0
H1682 H 0.40303 0.33959 0.17031 0.0
H1683 H 0.43648 0.3318 0.18302 0.0
C1684 C 0.36188 0.36917 0.18837 0.0
C1685 C 0.35426 0.37771 0.15171 0.0
C1686 C 0.38002 0.36294 0.18281 0.0
C1687 C 0.39116 0.36497 0.14021 0.0
C1688 C 0.38337 0.37324 0.10272 0.0
C1689 C 0.365 0.37949 0.1083 0.0
C1690 C 0.44627 0.36201 0.12597 0.0
C1691 C 0.44983 0.34959 0.15024 0.0
C1692 C 0.42706 0.36671 0.11966 0.0
C1693 C 0.41117 0.35898 0.13722 0.0
C1694 C 0.41489 0.34599 0.15757 0.0
C1695 C 0.43399 0.34145 0.16452 0.0
H1696 H 0.05095 0.9563 0.50332 0.0
H1697 H 0.98822 0.95837 0.51842 0.0
H1698 H 0.05185 0.98063 0.48527 0.0
H1699 H 0.98932 0.98288 0.50516 0.0
H1700 H 0.99518 0.02541 0.44106 0.0
H1701 H 0.99377 0.00061 0.45052 0.0
H1702 H 0.04936 0.00154 0.526 0.0
H1703 H 0.05112 0.02627 0.51336 0.0
C1704 C 0.03731 0.96189 0.50236 0.0
C1705 C 1.01953 0.95535 0.5128 0.0
C1706 C 0.03788 0.97594 0.49303 0.0
C1707 C 1.02072 0.98384 0.49473 0.0
C1708 C 1.00285 0.97718 0.50325 0.0
C1709 C 1.00225 0.9631 0.51158 0.0
C1710 C 1.00693 0.02025 0.46015 0.0
C1711 C 1.02317 0.02763 0.47693 0.0
C1712 C 1.00617 0.00605 0.46564 0.0
C1713 C 1.02149 -0.00101 0.48889 0.0
C1714 C 0.03751 0.00654 0.50685 0.0
C1715 C 0.03844 0.02071 0.50036 0.0
H1716 H 0.26106 0.20356 0.51088 0.0
H1717 H 0.30005 0.21696 0.39672 0.0
H1718 H 0.25996 0.22674 0.5439 0.0
H1719 H 0.30011 0.24006 0.43126 0.0
H1720 H 0.28105 0.28267 0.47216 0.0
H1721 H 0.28085 0.25956 0.43937 0.0
H1722 H 0.27706 0.24336 0.58641 0.0
H1723 H 0.27524 0.26643 0.61873 0.0
C1724 C 0.26973 0.21149 0.4936 0.0
C1725 C 0.28068 0.2086 0.45155 0.0
C1726 C 0.26919 0.22476 0.51253 0.0
C1727 C 0.27994 0.23535 0.49031 0.0
C1728 C 0.2913 0.23228 0.44875 0.0
C1729 C 0.29147 0.21905 0.4292 0.0
C1730 C 0.2797 0.2742 0.49747 0.0
C1731 C 0.2782 0.27648 0.54819 0.0
C1732 C 0.27999 0.26089 0.47868 0.0
C1733 C 0.27915 0.24952 0.51018 0.0
C1734 C 0.27751 0.25182 0.56087 0.0
C1735 C 0.27681 0.26511 0.57956 0.0
H1736 H 0.99044 0.27953 0.76511 0.0
H1737 H 0.05246 0.27669 0.73926 0.0
H1738 H 0.98998 0.25549 0.79114 0.0
H1739 H 0.05197 0.25271 0.76495 0.0
H1740 H 0.03674 0.20678 0.75151 0.0
H1741 H 0.03562 0.23092 0.72743 0.0
H1742 H 1.00549 0.24084 0.86171 0.0
H1743 H 1.00671 0.21669 0.88595 0.0
C1744 C 1.00395 0.27377 0.76543 0.0
C1745 C 1.02149 0.27991 0.75045 0.0
C1746 C 1.00369 0.26009 0.78033 0.0
C1747 C 1.02091 0.2523 0.77958 0.0
C1748 C 0.03848 0.25851 0.76534 0.0
C1749 C 0.0388 0.27222 0.7512 0.0
C1750 C 0.02968 0.21411 0.77549 0.0
C1751 C 1.02185 0.20996 0.82054 0.0
C1752 C 1.02919 0.22789 0.76197 0.0
C1753 C 1.02059 0.23767 0.79297 0.0
C1754 C 1.01216 0.23345 0.83724 0.0
C1755 C 1.01293 0.2197 0.85112 0.0
H1756 H 0.26106 0.96597 0.64351 0.0
H1757 H 0.27627 0.9522 0.78914 0.0
H1758 H 0.26631 0.9895 0.66871 0.0
H1759 H 0.27954 0.97579 0.81561 0.0
H1760 H 0.30591 0.01749 0.83784 0.0
H1761 H 0.30122 -0.00599 0.809 0.0
H1762 H 0.25478 0.0079 0.71357 0.0
H1763 H 0.2606 0.03139 0.74032 0.0
C1764 C 0.2653 0.96794 0.68108 0.0
C1765 C 0.26854 0.95711 0.71401 0.0
C1766 C 0.26804 0.9815 0.69578 0.0
C1767 C 0.27362 0.9846 0.74411 0.0
C1768 C 0.27579 0.97381 0.77773 0.0
C1769 C 0.27347 0.96023 0.76276 0.0
C1770 C 0.29501 0.01543 0.81 0.0
C1771 C 0.28375 0.02609 0.79067 0.0
C1772 C 0.29207 0.002 0.79396 0.0
C1773 C 0.27743 -0.00102 0.7593 0.0
C1774 C 0.26638 0.00981 0.73965 0.0
C1775 C 0.26964 0.02326 0.75491 0.0
H1776 H 0.74287 0.7078 0.47164 0.0
H1777 H 0.80499 0.70563 0.49852 0.0
H1778 H 0.74354 0.73224 0.48721 0.0
H1779 H 0.80531 0.72984 0.51876 0.0
H1780 H 0.805 0.77578 0.5025 0.0
H1781 H 0.80372 0.75141 0.48244 0.0
H1782 H 0.74619 0.74893 0.54721 0.0
H1783 H 0.74721 0.77343 0.56425 0.0
C1784 C 0.75667 0.7125 0.48125 0.0
C1785 C 0.77391 0.7047 0.48326 0.0
C1786 C 0.757 0.72653 0.49096 0.0
C1787 C 0.7745 0.7331 0.50402 0.0
C1788 C 0.79162 0.72522 0.50775 0.0
C1789 C 0.79137 0.71122 0.4971 0.0
C1790 C 0.79203 0.76998 0.51163 0.0
C1791 C 0.77614 0.77638 0.53441 0.0
C1792 C 0.79134 0.756 0.50077 0.0
C1793 C 0.77491 0.74811 0.51357 0.0
C1794 C 0.75894 0.75467 0.53598 0.0
C1795 C 0.7595 0.76869 0.54588 0.0
H1796 H 1.01473 0.70925 0.25149 0.0
H1797 H 0.07613 0.70266 0.22498 0.0
H1798 H 1.0185 0.7334 0.2301 0.0
H1799 H 0.07991 0.7269 0.20355 0.0
H1800 H 0.06737 0.76747 0.11275 0.0
H1801 H 0.06705 0.74326 0.13603 0.0
H1802 H 0.0369 0.75364 0.26986 0.0
H1803 H 0.03719 0.77783 0.24658 0.0
C1804 C 1.02896 0.71294 0.24038 0.0
C1805 C 0.04514 0.70414 0.23964 0.0
C1806 C 0.03116 0.72676 0.2288 0.0
C1807 C 0.04954 0.73197 0.21579 0.0
C1808 C 0.06562 0.72309 0.21357 0.0
C1809 C 0.06346 0.70929 0.2258 0.0
C1810 C 0.06096 0.76456 0.14746 0.0
C1811 C 0.05222 0.77444 0.17785 0.0
C1812 C 0.06083 0.75076 0.16079 0.0
C1813 C 0.05174 0.74665 0.20436 0.0
C1814 C 0.04379 0.75659 0.23577 0.0
C1815 C 0.04413 0.7704 0.22275 0.0
H1816 H 0.78204 0.94881 0.29196 0.0
H1817 H 0.79859 0.96002 0.14458 0.0
H1818 H 0.77939 0.973 0.31338 0.0
H1819 H 0.7973 0.98405 0.16689 0.0
H1820 H 0.77022 0.02536 0.20667 0.0
H1821 H 0.77404 0.00127 0.18463 0.0
H1822 H 0.79843 -0.00693 0.32779 0.0
H1823 H 0.79393 0.01707 0.35007 0.0
C1824 C 0.78523 0.95641 0.26425 0.0
C1825 C 0.7906 0.95245 0.21664 0.0
C1826 C 0.78397 0.97028 0.27668 0.0
C1827 C 0.78819 0.98047 0.24186 0.0
C1828 C 0.79373 0.97649 0.19445 0.0
C1829 C 0.79478 0.96266 0.18191 0.0
C1830 C 0.77658 0.0184 0.23307 0.0
C1831 C 0.78169 0.02299 0.28003 0.0
C1832 C 0.77881 0.00461 0.22054 0.0
C1833 C 0.78645 -0.00479 0.25458 0.0
C1834 C 0.79211 -4e-05 0.30109 0.0
C1835 C 0.78966 0.0137 0.31377 0.0
H1836 H 0.04509 0.47039 0.11423 0.0
H1837 H 0.02983 0.45144 0.976 0.0
H1838 H 0.04259 0.49279 0.07681 0.0
H1839 H 0.02935 0.47375 0.93744 0.0
H1840 H 1.00798 0.51564 0.89265 0.0
H1841 H 1.01016 0.49323 0.93185 0.0
H1842 H 0.05684 0.50839 0.02432 0.0
H1843 H 0.05351 0.53095 0.98706 0.0
C1844 C 0.04136 0.47096 0.07577 0.0
C1845 C 0.03743 0.45904 0.04843 0.0
C1846 C 0.04024 0.48385 0.054 0.0
C1847 C 0.03562 0.48516 0.00403 0.0
C1848 C 0.03249 0.47321 0.97625 0.0
C1849 C 0.03318 0.46033 -0.00175 0.0
C1850 C 1.01852 0.51409 0.92173 0.0
C1851 C 0.03049 0.52488 0.93734 0.0
C1852 C 1.01997 0.50126 0.94386 0.0
C1853 C 0.03379 0.49891 0.98116 0.0
C1854 C 0.04578 0.50983 0.99646 0.0
C1855 C 0.04399 0.52273 0.97507 0.0
H1856 H 0.31125 0.71117 0.97642 0.0
H1857 H 0.24984 0.71399 0.9419 0.0
H1858 H 0.31079 0.7349 0.00555 0.0
H1859 H 0.24955 0.73773 0.96909 0.0
H1860 H 0.25192 0.77381 0.07642 0.0
H1861 H 0.25226 0.75039 0.04542 0.0
H1862 H 0.30701 0.75832 0.97231 0.0
H1863 H 0.30698 0.78167 0.00485 0.0
C1864 C 0.29768 0.71684 0.97524 0.0
C1865 C 0.28061 0.71077 0.95682 0.0
C1866 C 0.29746 0.73045 0.99126 0.0
C1867 C 0.28015 0.73817 0.98931 0.0
C1868 C 0.26307 0.73201 0.97135 0.0
C1869 C 0.26328 0.71846 0.9554 0.0
C1870 C 0.26398 0.77055 0.05358 0.0
C1871 C 0.27944 0.77952 0.04312 0.0
C1872 C 0.26413 0.75719 0.03559 0.0
C1873 C 0.27973 0.75252 0.0067 0.0
C1874 C 0.29493 0.7616 0.99507 0.0
C1875 C 0.29477 0.77501 0.01306 0.0
H1876 H 0.31954 0.52691 0.27494 0.0
H1877 H 0.26663 0.51764 0.35443 0.0
H1878 H 0.32136 0.50304 0.24776 0.0
H1879 H 0.2687 0.49391 0.3281 0.0
H1880 H 0.28715 0.44976 0.30586 0.0
H1881 H 0.28945 0.47309 0.33802 0.0
H1882 H 0.30111 0.4882 0.19237 0.0
H1883 H 0.29854 0.46501 0.1601 0.0
C1884 C 0.30835 0.5198 0.28666 0.0
C1885 C 0.29299 0.52416 0.31697 0.0
C1886 C 0.30944 0.50616 0.27128 0.0
C1887 C 0.29524 0.49664 0.28614 0.0
C1888 C 0.28006 0.50096 0.31691 0.0
C1889 C 0.2789 0.51457 0.33199 0.0
C1890 C 0.29018 0.45807 0.28076 0.0
C1891 C 0.29263 0.45555 0.23047 0.0
C1892 C 0.29157 0.47139 0.29916 0.0
C1893 C 0.29549 0.48241 0.26762 0.0
C1894 C 0.2984 0.47986 0.21759 0.0
C1895 C 0.29692 0.46657 0.19917 0.0
H1896 H 0.76055 0.21547 0.8819 0.0
H1897 H 0.81536 0.20798 0.95562 0.0
H1898 H 0.76246 0.23947 0.90361 0.0
H1899 H 0.81664 0.23207 0.98035 0.0
H1900 H 0.82193 0.27912 0.96981 0.0
H1901 H 0.82143 0.25482 0.94728 0.0
H1902 H 0.75918 0.25377 0.97285 0.0
H1903 H 0.75969 0.27799 0.99366 0.0
C1904 C 0.77305 0.21895 0.90282 0.0
C1905 C 0.78792 0.20982 0.91656 0.0
C1906 C 0.77399 0.23271 0.91592 0.0
C1907 C 0.78965 0.2377 0.94391 0.0
C1908 C 0.80447 0.22857 0.95828 0.0
C1909 C 0.80362 0.21474 0.9447 0.0
C1910 C 0.80818 0.27364 0.97021 0.0
C1911 C 0.7908 0.28042 0.98265 0.0
C1912 C 0.8079 0.25974 0.95775 0.0
C1913 C 0.79025 0.25237 0.95805 0.0
C1914 C 0.77295 0.2592 0.97112 0.0
C1915 C 0.77321 0.27308 0.98298 0.0
H1916 H 0.81194 0.5227 0.80456 0.0
H1917 H 0.75423 0.53147 0.74922 0.0
H1918 H 0.81112 0.50032 0.76429 0.0
H1919 H 0.7535 0.50913 0.70848 0.0
H1920 H 0.75173 0.46145 0.70005 0.0
H1921 H 0.75249 0.48438 0.73658 0.0
H1922 H 0.81045 0.49064 0.67888 0.0
H1923 H 0.8098 0.46772 0.64299 0.0
C1924 C 0.79915 0.51986 0.78352 0.0
C1925 C 0.78316 0.52879 0.77993 0.0
C1926 C 0.79872 0.50711 0.76029 0.0
C1927 C 0.78222 0.503 0.73343 0.0
C1928 C 0.76632 0.51201 0.72933 0.0
C1929 C 0.76683 0.52482 0.75216 0.0
C1930 C 0.76463 0.46773 0.69537 0.0
C1931 C 0.7807 0.46284 0.66871 0.0
C1932 C 0.76499 0.48087 0.71584 0.0
C1933 C 0.78153 0.48926 0.71046 0.0
C1934 C 0.79758 0.48435 0.68382 0.0
C1935 C 0.79714 0.47129 0.66299 0.0
H1936 H 0.50502 0.01804 0.8649 0.0
H1937 H 0.53359 0.02732 0.00206 0.0
H1938 H 0.50458 -0.00633 0.88626 0.0
H1939 H 0.53321 0.00297 0.02334 0.0
H1940 H 0.55401 0.95837 0.00465 0.0
H1941 H 0.55158 0.98254 0.98233 0.0
H1942 H 0.49004 0.97746 0.95341 0.0
H1943 H 0.49246 0.95321 0.97593 0.0
C1944 C 0.51094 0.01484 0.89987 0.0
C1945 C 0.5194 0.02444 0.93188 0.0
C1946 C 0.51065 0.00097 0.91206 0.0
C1947 C 0.51907 -0.00347 0.95607 0.0
C1948 C 0.52684 0.0062 0.98891 0.0
C1949 C 0.52688 0.02008 0.97704 0.0
C1950 C 0.54006 0.96237 0.99265 0.0
C1951 C 0.52342 0.954 0.99177 0.0
C1952 C 0.53863 0.97619 0.98054 0.0
C1953 C 0.52058 0.9818 0.96684 0.0
C1954 C 0.50409 0.97332 0.964 0.0
C1955 C 0.50547 0.95952 0.9768 0.0
H1956 H 0.49082 0.21403 0.36769 0.0
H1957 H 0.51831 0.20513 0.229 0.0
H1958 H 0.49022 0.23846 0.34717 0.0
H1959 H 0.51789 0.22956 0.20872 0.0
H1960 H 0.54243 0.27329 0.23867 0.0
H1961 H 0.53792 0.24893 0.25587 0.0
H1962 H 0.47634 0.2557 0.27862 0.0
H1963 H 0.48081 0.28016 0.26078 0.0
C1964 C 0.49632 0.21731 0.33242 0.0
C1965 C 0.50468 0.20782 0.29989 0.0
C1966 C 0.49595 0.23122 0.32073 0.0
C1967 C 0.50423 0.23578 0.27675 0.0
C1968 C 0.51159 0.22621 0.24306 0.0
C1969 C 0.51168 0.21229 0.2544 0.0
C1970 C 0.528 0.2696 0.24809 0.0
C1971 C 0.51197 0.27852 0.24875 0.0
C1972 C 0.52539 0.25569 0.25725 0.0
C1973 C 0.50675 0.25053 0.26784 0.0
C1974 C 0.49081 0.25951 0.27028 0.0
C1975 C 0.49337 0.27342 0.26026 0.0
H1976 H 0.55639 0.71506 0.81562 0.0
H1977 H 0.50502 0.70515 0.73042 0.0
H1978 H 0.55599 0.73811 0.78338 0.0
H1979 H 0.50579 0.72786 0.69435 0.0
H1980 H 0.49886 0.7739 0.68042 0.0
H1981 H 0.49909 0.75066 0.71298 0.0
H1982 H 0.56227 0.7514 0.71492 0.0
H1983 H 0.5617 0.77501 0.68531 0.0
C1984 C 0.545 0.71776 0.7899 0.0
C1985 C 0.53057 0.70824 0.77621 0.0
C1986 C 0.54501 0.73096 0.7706 0.0
C1987 C 0.53087 0.73491 0.73616 0.0
C1988 C 0.51671 0.72528 0.72147 0.0
C1989 C 0.51646 0.71214 0.74157 0.0
C1990 C 0.51272 0.76902 0.68815 0.0
C1991 C 0.53026 0.77609 0.68083 0.0
C1992 C 0.51291 0.75568 0.7063 0.0
C1993 C 0.5307 0.74908 0.71646 0.0
C1994 C 0.54828 0.75623 0.70846 0.0
C1995 C 0.54804 0.76969 0.69129 0.0
H1996 H 0.49356 0.52203 0.46357 0.0
H1997 H 0.556 0.52369 0.44497 0.0
H1998 H 0.49659 0.49946 0.50175 0.0
H1999 H 0.55934 0.50163 0.48536 0.0
H2000 H 0.55815 0.45627 0.51379 0.0
H2001 H 0.55415 0.47824 0.47367 0.0
H2002 H 0.50712 0.48829 0.57297 0.0
H2003 H 0.50991 0.46585 0.61002 0.0
C2004 C 0.50791 0.51756 0.46817 0.0
C2005 C 0.52453 0.52439 0.45117 0.0
C2006 C 0.50972 0.50472 0.49024 0.0
C2007 C 0.52824 0.49868 0.49651 0.0
C2008 C 0.54484 0.50577 0.4801 0.0
C2009 C 0.54297 0.51843 0.45727 0.0
C2010 C 0.54676 0.46306 0.52664 0.0
C2011 C 0.53437 0.45923 0.56519 0.0
C2012 C 0.54465 0.47579 0.50409 0.0
C2013 C 0.53033 0.48509 0.52014 0.0
C2014 C 0.51811 0.48133 0.55912 0.0
C2015 C 0.51999 0.46852 0.58107 0.0
H2016 H 0.94861 0.0993 0.39568 0.0
H2017 H 0.94065 0.06771 0.28652 0.0
H2018 H 0.91346 0.10309 0.39754 0.0
H2019 H 0.90553 0.07103 0.28996 0.0
H2020 H 0.84194 0.08295 0.2899 0.0
H2021 H 0.87714 0.08495 0.27516 0.0
H2022 H 0.88664 0.09064 0.43038 0.0
H2023 H 0.85177 0.08911 0.44443 0.0
C2024 C 0.93944 0.09329 0.37153 0.0
C2025 C 0.94755 0.08304 0.34152 0.0
C2026 C 0.9192 0.09536 0.37297 0.0
C2027 C 0.90651 0.08723 0.34446 0.0
C2028 C 0.91474 0.07755 0.31232 0.0
C2029 C 0.93495 0.07551 0.31083 0.0
C2030 C 0.85157 0.08493 0.32056 0.0
C2031 C 0.84407 0.0857 0.36839 0.0
C2032 C 0.87176 0.08595 0.31227 0.0
C2033 C 0.88486 0.08786 0.35161 0.0
C2034 C 0.87713 0.08931 0.39902 0.0
C2035 C 0.85708 0.08826 0.40723 0.0
H2036 H 0.45057 0.13097 0.34107 0.0
H2037 H 0.4401 0.16402 0.44287 0.0
H2038 H 0.41534 0.12884 0.32739 0.0
H2039 H 0.40527 0.16216 0.4288 0.0
H2040 H 0.34231 0.14993 0.42669 0.0
H2041 H 0.37725 0.14863 0.44367 0.0
H2042 H 0.38828 0.13992 0.29093 0.0
H2043 H 0.35349 0.14046 0.27476 0.0
C2044 C 0.44076 0.13784 0.36017 0.0
C2045 C 0.44815 0.14756 0.39337 0.0
C2046 C 0.42056 0.13663 0.35246 0.0
C2047 C 0.40729 0.14522 0.37745 0.0
C2048 C 0.41484 0.15508 0.40995 0.0
C2049 C 0.43491 0.1562 0.41785 0.0
C2050 C 0.35215 0.14746 0.39699 0.0
C2051 C 0.34502 0.14552 0.34921 0.0
C2052 C 0.37226 0.14689 0.40653 0.0
C2053 C 0.38576 0.14439 0.36852 0.0
C2054 C 0.37847 0.14182 0.32126 0.0
C2055 C 0.35843 0.14232 0.31183 0.0
H2056 H 0.9595 0.13321 0.85209 0.0
H2057 H 0.94559 0.16704 0.94786 0.0
H2058 H 0.92482 0.13059 0.83241 0.0
H2059 H 0.91126 0.16465 0.92793 0.0
H2060 H 0.84881 0.15113 0.91679 0.0
H2061 H 0.88325 0.15068 0.9396 0.0
H2062 H 0.89865 0.14123 0.78986 0.0
H2063 H 0.86434 0.14098 0.76786 0.0
C2064 C 0.94907 0.14015 0.8686 0.0
C2065 C 0.95533 0.15025 0.90185 0.0
C2066 C 0.92917 0.13866 0.85743 0.0
C2067 C 0.91508 0.14731 0.87898 0.0
C2068 C 0.92149 0.15753 0.91161 0.0
C2069 C 0.94128 0.15895 0.92291 0.0
C2070 C 0.8595 0.14869 0.88898 0.0
C2071 C 0.85372 0.14628 0.84032 0.0
C2072 C 0.87933 0.1486 0.90188 0.0
C2073 C 0.89388 0.14611 0.86645 0.0
C2074 C 0.88798 0.14313 0.81829 0.0
C2075 C 0.86821 0.14317 0.80549 0.0
H2076 H 0.36236 0.07069 0.94476 0.0
H2077 H 0.35126 0.10081 0.83271 0.0
H2078 H 0.39713 0.07233 0.92963 0.0
H2079 H 0.38642 0.10267 0.81774 0.0
H2080 H 0.44833 0.0899 0.76857 0.0
H2081 H 0.41354 0.09063 0.7848 0.0
H2082 H 0.425 0.08654 0.93973 0.0
H2083 H 0.45996 0.0851 0.92298 0.0
C2084 C 0.36737 0.07781 0.91717 0.0
C2085 C 0.35397 0.08571 0.89022 0.0
C2086 C 0.38742 0.07881 0.90864 0.0
C2087 C 0.39478 0.08777 0.87292 0.0
C2088 C 0.38135 0.09558 0.84537 0.0
C2089 C 0.36117 0.09451 0.85381 0.0
C2090 C 0.44348 0.08911 0.80616 0.0
C2091 C 0.45703 0.08717 0.84438 0.0
C2092 C 0.42344 0.08971 0.81554 0.0
C2093 C 0.41629 0.08849 0.86354 0.0
C2094 C 0.4299 0.08723 0.90212 0.0
C2095 C 0.45001 0.08658 0.89266 0.0
H2096 H 0.20471 0.90664 0.70093 0.0
H2097 H 0.19466 0.87833 0.5821 0.0
H2098 H 0.16935 0.90875 0.71297 0.0
H2099 H 0.15959 0.88062 0.59298 0.0
H2100 H 0.09641 0.8813 0.64051 0.0
H2101 H 0.13135 0.87652 0.64343 0.0
H2102 H 0.14299 0.91951 0.66724 0.0
H2103 H 0.10826 0.92429 0.66423 0.0
C2104 C 0.19495 0.90066 0.67813 0.0
C2105 C 0.20243 0.8924 0.64036 0.0
C2106 C 0.1747 0.90198 0.68454 0.0
C2107 C 0.16154 0.89497 0.65356 0.0
C2108 C 0.16917 0.88611 0.61776 0.0
C2109 C 0.18931 0.88486 0.61124 0.0
C2110 C 0.1064 0.88974 0.64622 0.0
C2111 C 0.09936 0.9032 0.652 0.0
C2112 C 0.12647 0.88699 0.64808 0.0
C2113 C 0.14007 0.89762 0.65577 0.0
C2114 C 0.133 0.91102 0.66227 0.0
C2115 C 0.11298 0.91377 0.66036 0.0
H2116 H 0.7051 0.85077 0.6242 0.0
H2117 H 0.69061 0.81685 0.71895 0.0
H2118 H 0.6706 0.85505 0.61068 0.0
H2119 H 0.65613 0.82074 0.70354 0.0
H2120 H 0.59347 0.83353 0.68232 0.0
H2121 H 0.62727 0.83464 0.71105 0.0
H2122 H 0.64632 0.84348 0.56363 0.0
H2123 H 0.61272 0.84291 0.5357 0.0
C2124 C 0.69464 0.84433 0.64282 0.0
C2125 C 0.70082 0.83325 0.67192 0.0
C2126 C 0.67476 0.8467 0.63458 0.0
C2127 C 0.6605 0.83807 0.65514 0.0
C2128 C 0.66662 0.82762 0.68704 0.0
C2129 C 0.6865 0.82528 0.69542 0.0
C2130 C 0.60486 0.83599 0.65635 0.0
C2131 C 0.60039 0.83798 0.60657 0.0
C2132 C 0.62427 0.8365 0.67269 0.0
C2133 C 0.63963 0.83908 0.63968 0.0
C2134 C 0.63496 0.84162 0.59035 0.0
C2135 C 0.61565 0.8411 0.5741 0.0
H2136 H 0.21595 0.83012 0.08782 0.0
H2137 H 0.20227 0.84525 0.23248 0.0
H2138 H 0.18153 0.83147 0.06554 0.0
H2139 H 0.16792 0.84666 0.21028 0.0
H2140 H 0.10639 0.83059 0.17042 0.0
H2141 H 0.14081 0.83144 0.19332 0.0
H2142 H 0.15509 0.84732 0.05016 0.0
H2143 H 0.12075 0.84638 0.02735 0.0
C2144 C 0.20566 0.83392 0.11463 0.0
C2145 C 0.21187 0.83747 0.16204 0.0
C2146 C 0.1859 0.8347 0.10191 0.0
C2147 C 0.1719 0.8391 0.13624 0.0
C2148 C 0.17822 0.84297 0.18324 0.0
C2149 C 0.19794 0.84216 0.19596 0.0
C2150 C 0.11684 0.83446 0.14417 0.0
C2151 C 0.11084 0.83831 0.09694 0.0
C2152 C 0.13659 0.83494 0.15723 0.0
C2153 C 0.15077 0.83934 0.12341 0.0
C2154 C 0.14464 0.8436 0.07675 0.0
C2155 C 0.12494 0.84309 0.06371 0.0
H2156 H 0.70463 0.90302 0.02709 0.0
H2157 H 0.71426 0.89925 0.18268 0.0
H2158 H 0.66938 0.90237 0.04048 0.0
H2159 H 0.67896 0.89854 0.19615 0.0
H2160 H 0.61625 0.91855 0.1943 0.0
H2161 H 0.65156 0.91576 0.18657 0.0
H2162 H 0.64275 0.88638 0.0702 0.0
H2163 H 0.60742 0.8892 0.07795 0.0
C2164 C 0.69919 0.902 0.06412 0.0
C2165 C 0.71221 0.90123 0.10381 0.0
C2166 C 0.67902 0.90149 0.07177 0.0
C2167 C 0.67139 0.90038 0.11938 0.0
C2168 C 0.68441 0.89945 0.15907 0.0
C2169 C 0.7046 0.89976 0.15134 0.0
C2170 C 0.62187 0.91138 0.16751 0.0
C2171 C 0.60905 0.90416 0.13658 0.0
C2172 C 0.64207 0.90972 0.16326 0.0
C2173 C 0.64994 0.90093 0.12752 0.0
C2174 C 0.63711 0.89332 0.09777 0.0
C2175 C 0.61688 0.89484 0.10252 0.0
H2176 H 0.9453 0.58608 0.7654 0.0
H2177 H 0.96303 0.58215 0.91646 0.0
H2178 H 0.91133 0.58671 0.79016 0.0
H2179 H 0.92886 0.58345 0.94176 0.0
H2180 H 0.8665 0.56722 0.96154 0.0
H2181 H 0.90067 0.56909 0.93927 0.0
H2182 H 0.88584 0.59907 0.82909 0.0
H2183 H 0.8514 0.597 0.85121 0.0
C2184 C 0.94196 0.58546 0.80406 0.0
C2185 C 0.95696 0.58382 0.83885 0.0
C2186 C 0.9224 0.58601 0.81835 0.0
C2187 C 0.9172 0.58501 0.86799 0.0
C2188 C 0.93225 0.58399 0.90309 0.0
C2189 C 0.9519 0.58341 0.88869 0.0
C2190 C 0.8705 0.57432 0.93287 0.0
C2191 C 0.85614 0.58199 0.90829 0.0
C2192 C 0.89019 0.57544 0.9202 0.0
C2193 C 0.89618 0.58432 0.8826 0.0
C2194 C 0.88181 0.59201 0.8579 0.0
C2195 C 0.86203 0.59082 0.87048 0.0
H2196 H 0.35179 0.63932 0.92063 0.0
H2197 H 0.36318 0.65604 0.7772 0.0
H2198 H 0.38661 0.63491 0.93104 0.0
H2199 H 0.39775 0.65261 0.78876 0.0
H2200 H 0.46044 0.64214 0.80879 0.0
H2201 H 0.42544 0.63908 0.79493 0.0
H2202 H 0.41466 0.64718 0.9483 0.0
H2203 H 0.44933 0.64925 0.96227 0.0
C2204 C 0.36164 0.64198 0.89119 0.0
C2205 C 0.35456 0.64834 0.84856 0.0
C2206 C 0.38173 0.63961 0.89733 0.0
C2207 C 0.3953 0.64361 0.86114 0.0
C2208 C 0.388 0.64927 0.81751 0.0
C2209 C 0.368 0.65149 0.81121 0.0
C2210 C 0.4506 0.64293 0.83962 0.0
C2211 C 0.45776 0.64625 0.88641 0.0
C2212 C 0.43043 0.64135 0.83168 0.0
C2213 C 0.41693 0.64312 0.87029 0.0
C2214 C 0.42434 0.64564 0.91749 0.0
C2215 C 0.44438 0.64707 0.92543 0.0
H2216 H 0.95751 0.63801 0.32428 0.0
H2217 H 0.95212 0.66698 0.44315 0.0
H2218 H 0.92212 0.63481 0.32404 0.0
H2219 H 0.91675 0.66391 0.44261 0.0
H2220 H 0.85379 0.64834 0.4494 0.0
H2221 H 0.88944 0.64718 0.45691 0.0
H2222 H 0.8947 0.65017 0.29971 0.0
H2223 H 0.85927 0.65123 0.2924 0.0
C2224 C 0.94882 0.6435 0.35095 0.0
C2225 C 0.95763 0.65283 0.3835 0.0
C2226 C 0.92853 0.64176 0.35054 0.0
C2227 C 0.91659 0.64918 0.38308 0.0
C2228 C 0.9255 0.65798 0.41726 0.0
C2229 C 0.94576 0.65983 0.41729 0.0
C2230 C 0.8626 0.64853 0.41652 0.0
C2231 C 0.85375 0.64997 0.37034 0.0
C2232 C 0.88299 0.64797 0.4208 0.0
C2233 C 0.89492 0.6486 0.3789 0.0
C2234 C 0.88597 0.64953 0.33268 0.0
C2235 C 0.86567 0.65027 0.32849 0.0
H2236 H 0.36131 0.60065 0.46011 0.0
H2237 H 0.35053 0.58005 0.32272 0.0
H2238 H 0.39611 0.60122 0.44233 0.0
H2239 H 0.38546 0.5805 0.30486 0.0
H2240 H 0.44775 0.5926 0.2698 0.0
H2241 H 0.41299 0.59498 0.28594 0.0
H2242 H 0.42307 0.58536 0.43828 0.0
H2243 H 0.45796 0.58308 0.42195 0.0
C2244 C 0.3664 0.59625 0.42602 0.0
C2245 C 0.35316 0.59019 0.39301 0.0
C2246 C 0.38637 0.59654 0.4159 0.0
C2247 C 0.39368 0.59077 0.37244 0.0
C2248 C 0.38035 0.58516 0.33853 0.0
C2249 C 0.36031 0.5849 0.34865 0.0
C2250 C 0.44255 0.591 0.30676 0.0
C2251 C 0.45563 0.58752 0.34452 0.0
C2252 C 0.42259 0.59234 0.31599 0.0
C2253 C 0.41513 0.59023 0.36328 0.0
C2254 C 0.4283 0.5872 0.40146 0.0
C2255 C 0.44833 0.58589 0.3922 0.0
H2256 H 0.11436 0.38988 0.20852 0.0
H2257 H 0.09757 0.40358 0.0644 0.0
H2258 H 0.14835 0.38984 0.18416 0.0
H2259 H 0.13183 0.40302 0.03888 0.0
H2260 H 0.19531 0.42055 0.04361 0.0
H2261 H 0.16061 0.41642 0.05412 0.0
H2262 H 0.17347 0.37983 0.13681 0.0
H2263 H 0.20813 0.38435 0.12872 0.0
C2264 C 0.11794 0.39271 0.17128 0.0
C2265 C 0.10326 0.39693 0.13866 0.0
C2266 C 0.13748 0.39252 0.15701 0.0
C2267 C 0.14299 0.39649 0.1095 0.0
C2268 C 0.12819 0.40008 0.07597 0.0
C2269 C 0.10852 0.40025 0.09036 0.0
C2270 C 0.19081 0.4116 0.06402 0.0
C2271 C 0.20473 0.40299 0.08621 0.0
C2272 C 0.17081 0.40912 0.06947 0.0
C2273 C 0.16413 0.39789 0.09696 0.0
C2274 C 0.17803 0.38876 0.1163 0.0
C2275 C 0.19803 0.39128 0.11114 0.0
H2276 H 0.60819 0.31903 0.0472 0.0
H2277 H 0.60385 0.34146 0.18293 0.0
H2278 H 0.64369 0.32234 0.04739 0.0
H2279 H 0.63947 0.34442 0.18401 0.0
H2280 H 0.70278 0.32141 0.18914 0.0
H2281 H 0.66712 0.32366 0.18872 0.0
H2282 H 0.66998 0.34403 0.04884 0.0
H2283 H 0.70576 0.34215 0.05016 0.0
C2284 C 0.61486 0.32482 0.07668 0.0
C2285 C 0.60335 0.33003 0.11496 0.0
C2286 C 0.6351 0.32675 0.07672 0.0
C2287 C 0.64426 0.33363 0.11572 0.0
C2288 C 0.63272 0.33911 0.1535 0.0
C2289 C 0.6124 0.33749 0.15277 0.0
C2290 C 0.69577 0.32663 0.15893 0.0
C2291 C 0.70694 0.33166 0.1198 0.0
C2292 C 0.67544 0.32795 0.15871 0.0
C2293 C 0.66586 0.33401 0.11873 0.0
C2294 C 0.67706 0.33935 0.08011 0.0
C2295 C 0.69746 0.33835 0.08098 0.0
H2296 H 0.19878 0.34281 0.71357 0.0
H2297 H 0.21116 0.33283 0.5628 0.0
H2298 H 0.16408 0.34315 0.69576 0.0
H2299 H 0.17616 0.33358 0.54422 0.0
H2300 H 0.11313 0.31534 0.55586 0.0
H2301 H 0.14809 0.31937 0.56174 0.0
H2302 H 0.13744 0.35431 0.65537 0.0
H2303 H 0.10243 0.34992 0.65097 0.0
C2304 C 0.19407 0.34084 0.67637 0.0
C2305 C 0.20776 0.3376 0.63978 0.0
C2306 C 0.17412 0.3412 0.66595 0.0
C2307 C 0.16718 0.33834 0.61853 0.0
C2308 C 0.18093 0.33568 0.5813 0.0
C2309 C 0.20101 0.33538 0.59177 0.0
C2310 C 0.11821 0.32393 0.57751 0.0
C2311 C 0.10489 0.33215 0.6036 0.0
C2312 C 0.13832 0.32636 0.58042 0.0
C2313 C 0.14571 0.33709 0.60949 0.0
C2314 C 0.13232 0.3458 0.63329 0.0
C2315 C 0.11218 0.34338 0.63035 0.0
H2316 H 0.61834 0.38893 0.71795 0.0
H2317 H 0.60212 0.40718 0.58013 0.0
H2318 H 0.65238 0.38849 0.69263 0.0
H2319 H 0.63633 0.40708 0.55481 0.0
H2320 H 0.69766 0.39617 0.50735 0.0
H2321 H 0.66363 0.39372 0.53117 0.0
H2322 H 0.67907 0.40353 0.68072 0.0
H2323 H 0.71327 0.40567 0.65666 0.0
C2324 C 0.62209 0.39286 0.68213 0.0
C2325 C 0.60753 0.39818 0.65117 0.0
C2326 C 0.64166 0.39268 0.66767 0.0
C2327 C 0.6473 0.3979 0.62186 0.0
C2328 C 0.63261 0.40283 0.59017 0.0
C2329 C 0.61295 0.4029 0.60458 0.0
C2330 C 0.69378 0.39778 0.54535 0.0
C2331 C 0.70818 0.40122 0.58007 0.0
C2332 C 0.67421 0.39642 0.55902 0.0
C2333 C 0.66841 0.39855 0.60783 0.0
C2334 C 0.68293 0.40164 0.64287 0.0
C2335 C 0.70258 0.40288 0.62918 0.0
H2336 H 0.02933 0.1213 0.28538 0.0
H2337 H 0.03262 0.08147 0.21637 0.0
H2338 H 0.03263 0.13212 0.20466 0.0
H2339 H 0.03614 0.09215 0.13689 0.0
H2340 H 1.02374 0.11678 0.99604 0.0
H2341 H 1.01865 0.10572 0.07557 0.0
H2342 H 0.05869 0.13435 0.14278 0.0
H2343 H 0.06366 0.14534 0.06405 0.0
C2344 C 0.03064 0.11489 0.25313 0.0
C2345 C 0.03087 0.10056 0.25736 0.0
C2346 C 0.03265 0.12104 0.20699 0.0
C2347 C 0.03473 0.11296 0.16437 0.0
C2348 C 0.03439 0.09866 0.16876 0.0
C2349 C 0.03253 0.09256 0.21459 0.0
C2350 C 0.0317 0.12051 0.02767 0.0
C2351 C 0.04407 0.13192 0.02377 0.0
C2352 C 1.0287 0.11427 0.07326 0.0
C2353 C 0.03801 0.11934 0.11567 0.0
C2354 C 0.05091 0.13042 0.11117 0.0
C2355 C 0.05392 0.13661 0.06584 0.0
H2356 H 0.28613 0.11295 0.99598 0.0
H2357 H 0.22865 0.09551 0.01208 0.0
H2358 H 0.28331 0.12338 0.07776 0.0
H2359 H 0.22567 0.10604 0.09302 0.0
H2360 H 0.22371 0.14063 0.21295 0.0
H2361 H 0.22495 0.1303 0.13138 0.0
H2362 H 0.28076 0.11223 0.16605 0.0
H2363 H 0.27935 0.12245 0.24829 0.0
C2364 C 0.27269 0.11176 0.01638 0.0
C2365 C 0.25751 0.10361 -0.00211 0.0
C2366 C 0.2712 0.11748 0.06331 0.0
C2367 C 0.25437 0.11532 0.09175 0.0
C2368 C 0.23879 0.10783 0.07185 0.0
C2369 C 0.24044 0.10191 0.02555 0.0
C2370 C 0.23598 0.13413 0.20351 0.0
C2371 C 0.25132 0.13216 0.23683 0.0
C2372 C 0.23674 0.12832 0.15685 0.0
C2373 C 0.25308 0.12067 0.14234 0.0
C2374 C 0.26813 0.11826 0.1763 0.0
C2375 C 0.26717 0.12387 0.22347 0.0
H2376 H 1.00087 0.83423 0.93665 0.0
H2377 H 0.0328 0.86787 0.0017 0.0
H2378 H 1.0009 0.84587 0.8582 0.0
H2379 H 0.03281 0.87962 0.92234 0.0
H2380 H 1.00958 0.90132 0.78377 0.0
H2381 H 1.00981 0.89026 0.86321 0.0
H2382 H 1.02545 0.85189 0.79462 0.0
H2383 H 1.02511 0.86302 0.71413 0.0
C2384 C 1.00779 0.8442 0.93431 0.0
C2385 C 1.01692 0.85012 0.97539 0.0
C2386 C 1.00795 0.85078 0.88913 0.0
C2387 C 1.01715 0.86352 0.88387 0.0
C2388 C 1.02561 0.86977 0.92536 0.0
C2389 C 1.02552 0.86311 0.97081 0.0
C2390 C 1.01308 0.89051 0.78535 0.0
C2391 C 1.01723 0.883 0.74248 0.0
C2392 C 1.01335 0.88422 0.8311 0.0
C2393 C 1.01766 0.87024 0.83521 0.0
C2394 C 1.02191 0.86269 0.79244 0.0
C2395 C 1.02177 0.86903 0.74644 0.0
H2396 H 0.81598 0.84093 0.77311 0.0
H2397 H 0.76048 0.86115 0.7546 0.0
H2398 H 0.81864 0.85015 0.85585 0.0
H2399 H 0.76304 0.87037 0.83852 0.0
H2400 H 0.76691 0.86828 0.01138 0.0
H2401 H 0.76392 0.85917 0.9275 0.0
H2402 H 0.82188 0.87384 0.89474 0.0
H2403 H 0.82473 0.88298 0.97763 0.0
C2404 C 0.80449 0.84756 0.78665 0.0
C2405 C 0.78813 0.85048 0.75754 0.0
C2406 C 0.80598 0.85278 0.83401 0.0
C2407 C 0.79096 0.86085 0.85367 0.0
C2408 C 0.77471 0.86404 0.82425 0.0
C2409 C 0.77338 0.85898 0.77619 0.0
C2410 C 0.77911 0.86924 0.98643 0.0
C2411 C 0.79613 0.87617 0.00086 0.0
C2412 C 0.77729 0.86426 0.93838 0.0
C2413 C 0.79261 0.86595 0.90464 0.0
C2414 C 0.80987 0.8724 0.91998 0.0
C2415 C 0.81153 0.87755 0.96742 0.0
H2416 H 1.02867 0.61542 0.73068 0.0
H2417 H 0.059 0.58222 0.65861 0.0
H2418 H 1.02535 0.62712 0.65177 0.0
H2419 H 0.0559 0.59388 0.58059 0.0
H2420 H 0.03029 0.61174 0.44031 0.0
H2421 H 0.03111 0.6001 0.51988 0.0
H2422 H 0.04556 0.63841 0.59078 0.0
H2423 H 0.04443 0.64996 0.51248 0.0
C2424 C 0.03483 0.61072 0.69822 0.0
C2425 C 0.04408 0.59792 0.70093 0.0
C2426 C 0.03288 0.61737 0.65301 0.0
C2427 C 0.04016 0.61133 0.60976 0.0
C2428 C 0.04974 0.59867 0.6129 0.0
C2429 C 0.05168 0.59206 0.65784 0.0
C2430 C 0.03352 0.61764 0.47298 0.0
C2431 C 0.0374 0.63173 0.46995 0.0
C2432 C 0.03408 0.611 0.51849 0.0
C2433 C 0.03843 0.61836 0.56169 0.0
C2434 C 0.04192 0.63247 0.55848 0.0
C2435 C 0.04143 0.63906 0.51329 0.0
H2436 H 0.2708 0.6155 0.76896 0.0
H2437 H 0.26275 0.65457 0.69723 0.0
H2438 H 0.26809 0.604 0.68909 0.0
H2439 H 0.25987 0.64319 0.61884 0.0
H2440 H 0.27785 0.61864 0.48115 0.0
H2441 H 0.28008 0.63049 0.56012 0.0
H2442 H 0.24277 0.59988 0.62539 0.0
H2443 H 0.2406 0.58809 0.54703 0.0
C2444 C 0.26845 0.6216 0.73639 0.0
C2445 C 0.26697 0.63591 0.73956 0.0
C2446 C 0.26681 0.61505 0.69075 0.0
C2447 C 0.26382 0.62273 0.64766 0.0
C2448 C 0.26244 0.63701 0.65111 0.0
C2449 C 0.26395 0.6435 0.69636 0.0
C2450 C 0.2698 0.61465 0.51212 0.0
C2451 C 0.25909 0.60245 0.50792 0.0
C2452 C 0.27117 0.62135 0.55741 0.0
C2453 C 0.26186 0.61596 0.59917 0.0
C2454 C 0.25048 0.6041 0.59425 0.0
C2455 C 0.24908 0.59745 0.54916 0.0
H2456 H 1.02811 0.37037 0.53655 0.0
H2457 H 1.01972 0.33149 0.46337 0.0
H2458 H 1.02565 0.38206 0.45742 0.0
H2459 H 1.01686 0.34307 0.38532 0.0
H2460 H 0.03176 0.36782 0.2469 0.0
H2461 H 0.03531 0.35576 0.32495 0.0
H2462 H 1.00065 0.3869 0.39643 0.0
H2463 H 0.9974 0.39897 0.31912 0.0
C2464 C 1.02579 0.36434 0.50372 0.0
C2465 C 1.02405 0.35003 0.50635 0.0
C2466 C 1.02425 0.371 0.45844 0.0
C2467 C 1.02099 0.36348 0.41502 0.0
C2468 C 1.0196 0.34917 0.41782 0.0
C2469 C 1.0211 0.34254 0.46282 0.0
C2470 C 1.02467 0.37194 0.27917 0.0
C2471 C 1.01435 0.38434 0.2769 0.0
C2472 C 1.02675 0.36508 0.32392 0.0
C2473 C 1.0185 0.3705 0.36712 0.0
C2474 C 1.00761 0.38264 0.36421 0.0
C2475 C 1.00557 0.38947 0.31971 0.0
H2476 H 0.78235 0.37279 0.1848 0.0
H2477 H 0.78855 0.33383 0.25811 0.0
H2478 H 0.78393 0.38446 0.26438 0.0
H2479 H 0.79051 0.34537 0.33658 0.0
H2480 H 0.77643 0.37036 0.47511 0.0
H2481 H 0.77225 0.35852 0.39652 0.0
H2482 H 0.80881 0.38875 0.32642 0.0
H2483 H 0.81273 0.40056 0.40411 0.0
C2484 C 0.78395 0.36674 0.21776 0.0
C2485 C 0.78548 0.35242 0.21503 0.0
C2486 C 0.78498 0.37339 0.2633 0.0
C2487 C 0.78746 0.36583 0.30688 0.0
C2488 C 0.78841 0.3515 0.30397 0.0
C2489 C 0.78744 0.3449 0.25872 0.0
C2490 C 0.78376 0.37432 0.44299 0.0
C2491 C 0.79487 0.38639 0.44581 0.0
C2492 C 0.78131 0.3676 0.39793 0.0
C2493 C 0.78996 0.37282 0.35497 0.0
C2494 C 0.80153 0.38465 0.3584 0.0
C2495 C 0.80394 0.39133 0.40316 0.0
H2496 H 0.5628 0.08396 0.69056 0.0
H2497 H 0.53564 0.11912 0.75894 0.0
H2498 H 0.56192 0.0954 0.61185 0.0
H2499 H 0.53498 0.1307 0.67921 0.0
H2500 H 0.55686 0.15107 0.53768 0.0
H2501 H 0.55905 0.13974 0.61641 0.0
H2502 H 0.53535 0.10278 0.5526 0.0
H2503 H 0.53291 0.11423 0.47285 0.0
C2504 C 0.55675 0.0942 0.68894 0.0
C2505 C 0.54917 0.10063 0.73107 0.0
C2506 C 0.55615 0.10069 0.64362 0.0
C2507 C 0.54816 0.11382 0.63933 0.0
C2508 C 0.54123 0.12053 0.68164 0.0
C2509 C 0.54166 0.11395 0.72722 0.0
C2510 C 0.55217 0.14049 0.54006 0.0
C2511 C 0.54462 0.13354 0.49891 0.0
C2512 C 0.55332 0.13406 0.58542 0.0
C2513 C 0.54717 0.12047 0.59072 0.0
C2514 C 0.54021 0.1133 0.54937 0.0
C2515 C 0.53886 0.11981 0.50378 0.0
H2516 H 0.77246 0.11387 0.74276 0.0
H2517 H 0.747 0.14987 0.67634 0.0
H2518 H 0.77037 0.10196 0.6635 0.0
H2519 H 0.74507 0.13811 0.59831 0.0
H2520 H 0.7666 0.11784 0.45506 0.0
H2521 H 0.76835 0.12946 0.53477 0.0
H2522 H 0.74465 0.09352 0.60498 0.0
H2523 H 0.74282 0.08202 0.52632 0.0
C2524 C 0.76626 0.11917 0.7116 0.0
C2525 C 0.76 0.13281 0.71589 0.0
C2526 C 0.76511 0.1124 0.66625 0.0
C2527 C 0.75781 0.11922 0.62457 0.0
C2528 C 0.75115 0.13271 0.6294 0.0
C2529 C 0.75214 0.13938 0.67442 0.0
C2530 C 0.7616 0.11251 0.48746 0.0
C2531 C 0.75458 0.09903 0.48423 0.0
C2532 C 0.76264 0.11912 0.53306 0.0
C2533 C 0.75681 0.11231 0.57616 0.0
C2534 C 0.74957 0.09893 0.57264 0.0
C2535 C 0.74837 0.09241 0.5273 0.0
H2536 H 0.53383 0.86865 0.49796 0.0
H2537 H 0.49404 0.84034 0.42822 0.0
H2538 H 0.5393 0.87987 0.41887 0.0
H2539 H 0.4993 0.85152 0.34995 0.0
H2540 H 0.52898 0.86433 0.20846 0.0
H2541 H 0.52543 0.85358 0.2891 0.0
H2542 H 0.52276 0.8936 0.35682 0.0
H2543 H 0.52663 0.90423 0.27726 0.0
C2544 C 0.52595 0.86503 0.46604 0.0
C2545 C 0.51355 0.85362 0.46924 0.0
C2546 C 0.52917 0.87137 0.4207 0.0
C2547 C 0.52001 0.8664 0.37792 0.0
C2548 C 0.50699 0.85536 0.38183 0.0
C2549 C 0.50381 0.84907 0.42688 0.0
C2550 C 0.52785 0.87078 0.24069 0.0
C2551 C 0.52793 0.8851 0.2364 0.0
C2552 C 0.52567 0.86466 0.28679 0.0
C2553 C 0.52367 0.87276 0.32936 0.0
C2554 C 0.52441 0.88706 0.32497 0.0
C2555 C 0.52648 0.89314 0.27914 0.0
H2556 H 0.32905 0.88126 0.51847 0.0
H2557 H 0.26895 0.8683 0.52466 0.0
H2558 H 0.33243 0.87071 0.43761 0.0
H2559 H 0.27217 0.85787 0.4431 0.0
H2560 H 0.27938 0.86121 0.27385 0.0
H2561 H 0.27775 0.86969 0.35842 0.0
H2562 H 0.33049 0.84756 0.39325 0.0
H2563 H 0.33201 0.83902 0.30916 0.0
C2564 C 0.3168 0.87568 0.5031 0.0
C2565 C 0.29886 0.87533 0.52775 0.0
C2566 C 0.31866 0.86978 0.45678 0.0
C2567 C 0.30247 0.8637 0.43393 0.0
C2568 C 0.28479 0.86267 0.45982 0.0
C2569 C 0.28304 0.86837 0.50668 0.0
C2570 C 0.29083 0.85845 0.29935 0.0
C2571 C 0.30589 0.84956 0.28509 0.0
C2572 C 0.28973 0.86308 0.34782 0.0
C2573 C 0.30383 0.85907 0.3824 0.0
C2574 C 0.3194 0.85075 0.36736 0.0
C2575 C 0.32032 0.84594 0.31927 0.0
H2576 H 0.55471 0.6524 0.04792 0.0
H2577 H 0.53873 0.61476 0.97423 0.0
H2578 H 0.55568 0.64051 0.12564 0.0
H2579 H 0.53962 0.60277 0.05312 0.0
H2580 H 0.56422 0.5839 0.19358 0.0
H2581 H 0.56399 0.59603 0.11605 0.0
H2582 H 0.53288 0.62957 0.18375 0.0
H2583 H 0.53313 0.61736 0.26211 0.0
C2584 C 0.5514 0.64155 0.0482 0.0
C2585 C 0.54662 0.63451 0.00471 0.0
C2586 C 0.55183 0.63477 0.09302 0.0
C2587 C 0.54761 0.62075 0.09562 0.0
C2588 C 0.54307 0.6136 0.05213 0.0
C2589 C 0.54252 0.62044 0.00702 0.0
C2590 C 0.55742 0.59392 0.19221 0.0
C2591 C 0.54862 0.59967 0.23403 0.0
C2592 C 0.55716 0.6008 0.14755 0.0
C2593 C 0.54819 0.61365 0.14359 0.0
C2594 C 0.53995 0.61966 0.18577 0.0
C2595 C 0.54015 0.61272 0.23064 0.0
H2596 H 0.79797 0.61912 0.2775 0.0
H2597 H 0.73717 0.62993 0.26513 0.0
H2598 H 0.79676 0.60876 0.1952 0.0
H2599 H 0.73582 0.61954 0.18385 0.0
H2600 H 0.73789 0.58724 0.06034 0.0
H2601 H 0.73913 0.59638 0.14344 0.0
H2602 H 0.79149 0.6188 0.10746 0.0
H2603 H 0.79018 0.60962 0.02357 0.0
C2604 C 0.78425 0.61885 0.2578 0.0
C2605 C 0.76758 0.62508 0.27763 0.0
C2606 C 0.78362 0.61317 0.21055 0.0
C2607 C 0.76624 0.61347 0.18303 0.0
C2608 C 0.74939 0.61911 0.20421 0.0
C2609 C 0.75012 0.62497 0.25079 0.0
C2610 C 0.7495 0.59429 0.06993 0.0
C2611 C 0.76384 0.59783 0.03546 0.0
C2612 C 0.75024 0.59948 0.11754 0.0
C2613 C 0.76552 0.60817 0.13205 0.0
C2614 C 0.7797 0.61196 0.09735 0.0
C2615 C 0.77877 0.60691 0.04924 0.0
H2616 H 0.52144 0.33178 0.97759 0.0
H2617 H 0.53003 0.37063 0.05098 0.0
H2618 H 0.52016 0.34328 0.89922 0.0
H2619 H 0.52915 0.38223 0.97139 0.0
H2620 H 0.50137 0.39875 0.83109 0.0
H2621 H 0.50438 0.387 0.90902 0.0
H2622 H 0.53972 0.35578 0.84014 0.0
H2623 H 0.53647 0.36754 0.76139 0.0
C2624 C 0.52322 0.34281 0.97701 0.0
C2625 C 0.52567 0.35033 0.02065 0.0
C2626 C 0.52265 0.34938 0.93184 0.0
C2627 C 0.52451 0.36365 0.92902 0.0
C2628 C 0.52743 0.3712 0.97252 0.0
C2629 C 0.52805 0.36459 0.01801 0.0
C2630 C 0.50967 0.38931 0.83239 0.0
C2631 C 0.5187 0.38405 0.79012 0.0
C2632 C 0.51157 0.38267 0.87724 0.0
C2633 C 0.52255 0.3706 0.88098 0.0
C2634 C 0.53112 0.36507 0.83838 0.0
C2635 C 0.52918 0.37174 0.79326 0.0
H2636 H 0.32535 0.34801 0.78253 0.0
H2637 H 0.26802 0.36324 0.74657 0.0
H2638 H 0.32292 0.35822 0.86397 0.0
H2639 H 0.26542 0.3734 0.82892 0.0
H2640 H 0.26182 0.37246 0.00213 0.0
H2641 H 0.26413 0.36282 0.91879 0.0
H2642 H 0.32024 0.38227 0.90048 0.0
H2643 H 0.31785 0.39189 0.98263 0.0
C2644 C 0.31242 0.35384 0.79184 0.0
C2645 C 0.297 0.35506 0.7583 0.0
C2646 C 0.31097 0.35959 0.83845 0.0
C2647 C 0.2939 0.36644 0.85281 0.0
C2648 C 0.27864 0.36802 0.81878 0.0
C2649 C 0.28026 0.36245 0.77157 0.0
C2650 C 0.27474 0.37441 0.98041 0.0
C2651 C 0.28971 0.38281 -0.00138 0.0
C2652 C 0.27594 0.3691 0.93269 0.0
C2653 C 0.2923 0.37194 0.90321 0.0
C2654 C 0.3075 0.37993 0.92239 0.0
C2655 C 0.30614 0.38539 0.96939 0.0
loop_
_geom_bond_atom_site_label_1
_geom_bond_atom_site_label_2
_geom_bond_distance
_geom_bond_site_symmetry_2
_ccdc_geom_bond_type
C0 C1 1.351 . S
C0 N3 1.368 . S
C0 H5 0.931 . S
C1 C0 1.351 . S
C1 N2 1.373 . S
C1 H29 0.930 . S
N2 C1 1.373 . S
N2 C4 1.340 . S
N3 C0 1.368 . S
N3 C4 1.321 . S
N3 Co6 2.196 . S
C4 N2 1.340 . S
C4 N3 1.321 . S
C4 H28 0.930 . S
H5 C0 0.931 . S
Co6 N3 2.196 . S
Co6 N9 2.059 1_655 S
Co6 O14 2.054 . S
Co6 O17 2.049 . S
Co6 N20 2.136 1_655 S
C7 O8 1.227 . S
C7 O17 1.265 . S
O8 C7 1.227 . S
N9 Co6 2.059 1_455 S
N9 C11 1.375 . S
N9 C12 1.313 . S
C10 C11 1.338 . S
C10 N13 1.377 . S
C10 H30 0.930 . S
C11 N9 1.375 . S
C11 C10 1.338 . S
C11 H15 0.931 . S
C12 N9 1.313 . S
C12 N13 1.344 . S
C12 H16 0.930 . S
N13 C10 1.377 . S
N13 C12 1.344 . S
O14 Co6 2.054 . S
O14 C18 1.250 1_655 S
H15 C11 0.931 . S
H16 C12 0.930 . S
O17 Co6 2.049 . S
O17 C7 1.265 . S
C18 O14 1.250 1_455 S
C18 O19 1.227 . S
O19 C18 1.227 . S
N20 Co6 2.136 1_455 S
N20 C23 1.346 1_455 S
N20 C24 1.345 . S
C21 C22 1.387 1_455 S
C21 C25 1.391 . S
C22 C21 1.387 1_655 S
C22 C23 1.369 . S
C22 H31 0.929 . S
C23 N20 1.346 1_655 S
C23 C22 1.369 . S
C23 H26 0.928 . S
C24 N20 1.345 . S
C24 C25 1.371 . S
C24 H27 0.931 . S
C25 C21 1.391 . S
C25 C24 1.371 . S
C25 H32 0.930 . S
H26 C23 0.928 . S
H27 C24 0.931 . S
H28 C4 0.930 . S
H29 C1 0.930 . S
H30 C10 0.930 . S
H31 C22 0.929 . S
H32 C25 0.930 . S
C33 C34 1.351 . S
C33 N36 1.368 . S
C33 H38 0.931 . S
C34 C33 1.351 . S
C34 N35 1.373 . S
C34 H62 0.930 . S
N35 C34 1.373 . S
N35 C37 1.340 . S
N36 C33 1.368 . S
N36 C37 1.321 . S
N36 Co39 2.135 . S
C37 N35 1.340 . S
C37 N36 1.321 . S
C37 H61 0.930 . S
H38 C33 0.931 . S
Co39 N36 2.135 . S
Co39 N42 2.121 . S
Co39 O47 2.055 . S
Co39 O50 2.039 . S
Co39 N53 2.140 . S
C40 O41 1.227 . S
C40 O50 1.265 . S
O41 C40 1.227 . S
N42 Co39 2.121 . S
N42 C44 1.375 . S
N42 C45 1.313 . S
C43 C44 1.338 . S
C43 N46 1.377 . S
C43 H63 0.930 . S
C44 N42 1.375 . S
C44 C43 1.338 . S
C44 H48 0.931 . S
C45 N42 1.313 . S
C45 N46 1.344 . S
C45 H49 0.930 . S
N46 C43 1.377 . S
N46 C45 1.344 . S
O47 Co39 2.055 . S
O47 C51 1.253 . S
H48 C44 0.931 . S
H49 C45 0.930 . S
O50 Co39 2.039 . S
O50 C40 1.265 . S
C51 O47 1.253 . S
C51 O52 1.227 . S
O52 C51 1.227 . S
N53 Co39 2.140 . S
N53 C56 1.346 . S
N53 C57 1.345 . S
C54 C55 1.387 . S
C54 C58 1.391 . S
C55 C54 1.387 . S
C55 C56 1.369 . S
C55 H64 0.929 . S
C56 N53 1.346 . S
C56 C55 1.369 . S
C56 H59 0.928 . S
C57 N53 1.345 . S
C57 C58 1.371 . S
C57 H60 0.931 . S
C58 C54 1.391 . S
C58 C57 1.371 . S
C58 H65 0.930 . S
H59 C56 0.928 . S
H60 C57 0.931 . S
H61 C37 0.930 . S
H62 C34 0.930 . S
H63 C43 0.930 . S
H64 C55 0.929 . S
H65 C58 0.930 . S
C66 C67 1.351 . S
C66 N69 1.368 . S
C66 H71 0.931 . S
C67 C66 1.351 . S
C67 N68 1.373 . S
C67 H95 0.930 . S
N68 C67 1.373 . S
N68 C70 1.340 . S
N69 C66 1.368 . S
N69 C70 1.321 . S
N69 Co72 2.196 . S
C70 N68 1.340 . S
C70 N69 1.321 . S
C70 H94 0.930 . S
H71 C66 0.931 . S
Co72 N69 2.196 . S
Co72 N75 2.059 1_655 S
Co72 O80 2.054 . S
Co72 O83 2.049 . S
Co72 N86 2.136 1_655 S
C73 O74 1.227 . S
C73 O83 1.265 . S
O74 C73 1.227 . S
N75 Co72 2.059 1_455 S
N75 C77 1.375 . S
N75 C78 1.313 . S
C76 C77 1.338 . S
C76 N79 1.377 . S
C76 H96 0.930 . S
C77 N75 1.375 . S
C77 C76 1.338 . S
C77 H81 0.931 . S
C78 N75 1.313 . S
C78 N79 1.344 . S
C78 H82 0.930 . S
N79 C76 1.377 . S
N79 C78 1.344 . S
O80 Co72 2.054 . S
O80 C84 1.250 1_655 S
H81 C77 0.931 . S
H82 C78 0.930 . S
O83 Co72 2.049 . S
O83 C73 1.265 . S
C84 O80 1.250 1_455 S
C84 O85 1.227 . S
O85 C84 1.227 . S
N86 Co72 2.136 1_455 S
N86 C89 1.346 1_455 S
N86 C90 1.345 . S
C87 C88 1.387 1_455 S
C87 C91 1.391 . S
C88 C87 1.387 1_655 S
C88 C89 1.369 . S
C88 H97 0.929 . S
C89 N86 1.346 1_655 S
C89 C88 1.369 . S
C89 H92 0.928 . S
C90 N86 1.345 . S
C90 C91 1.371 . S
C90 H93 0.931 . S
C91 C87 1.391 . S
C91 C90 1.371 . S
C91 H98 0.930 . S
H92 C89 0.928 . S
H93 C90 0.931 . S
H94 C70 0.930 . S
H95 C67 0.930 . S
H96 C76 0.930 . S
H97 C88 0.929 . S
H98 C91 0.930 . S
C99 C100 1.351 . S
C99 N102 1.368 . S
C99 H104 0.931 . S
C100 C99 1.351 . S
C100 N101 1.373 . S
C100 H128 0.930 . S
N101 C100 1.373 . S
N101 C103 1.340 . S
N102 C99 1.368 . S
N102 C103 1.321 . S
N102 Co105 2.135 . S
C103 N101 1.340 . S
C103 N102 1.321 . S
C103 H127 0.930 . S
H104 C99 0.931 . S
Co105 N102 2.135 . S
Co105 N108 2.121 . S
Co105 O113 2.055 . S
Co105 O116 2.039 . S
Co105 N119 2.140 . S
C106 O107 1.227 . S
C106 O116 1.265 . S
O107 C106 1.227 . S
N108 Co105 2.121 . S
N108 C110 1.375 . S
N108 C111 1.313 . S
C109 C110 1.338 . S
C109 N112 1.377 . S
C109 H129 0.930 . S
C110 N108 1.375 . S
C110 C109 1.338 . S
C110 H114 0.931 . S
C111 N108 1.313 . S
C111 N112 1.344 . S
C111 H115 0.930 . S
N112 C109 1.377 . S
N112 C111 1.344 . S
O113 Co105 2.055 . S
O113 C117 1.253 . S
H114 C110 0.931 . S
H115 C111 0.930 . S
O116 Co105 2.039 . S
O116 C106 1.265 . S
C117 O113 1.253 . S
C117 O118 1.227 . S
O118 C117 1.227 . S
N119 Co105 2.140 . S
N119 C122 1.346 . S
N119 C123 1.345 . S
C120 C121 1.387 . S
C120 C124 1.391 . S
C121 C120 1.387 . S
C121 C122 1.369 . S
C121 H130 0.929 . S
C122 N119 1.346 . S
C122 C121 1.369 . S
C122 H125 0.928 . S
C123 N119 1.345 . S
C123 C124 1.371 . S
C123 H126 0.931 . S
C124 C120 1.391 . S
C124 C123 1.371 . S
C124 H131 0.930 . S
H125 C122 0.928 . S
H126 C123 0.931 . S
H127 C103 0.930 . S
H128 C100 0.930 . S
H129 C109 0.930 . S
H130 C121 0.929 . S
H131 C124 0.930 . S
C132 C133 1.351 . S
C132 N135 1.368 . S
C132 H137 0.931 . S
C133 C132 1.351 . S
C133 N134 1.373 . S
C133 H161 0.930 . S
N134 C133 1.373 . S
N134 C136 1.340 . S
N135 C132 1.368 . S
N135 C136 1.321 . S
N135 Co138 2.196 . S
C136 N134 1.340 . S
C136 N135 1.321 . S
C136 H160 0.930 . S
H137 C132 0.931 . S
Co138 N135 2.196 . S
Co138 N141 2.059 1_455 S
Co138 O146 2.054 . S
Co138 O149 2.049 . S
Co138 N152 2.136 1_455 S
C139 O140 1.227 . S
C139 O149 1.265 . S
O140 C139 1.227 . S
N141 Co138 2.059 1_655 S
N141 C143 1.375 . S
N141 C144 1.313 . S
C142 C143 1.338 . S
C142 N145 1.377 . S
C142 H162 0.930 . S
C143 N141 1.375 . S
C143 C142 1.338 . S
C143 H147 0.931 . S
C144 N141 1.313 . S
C144 N145 1.344 . S
C144 H148 0.930 . S
N145 C142 1.377 . S
N145 C144 1.344 . S
O146 Co138 2.054 . S
O146 C150 1.250 1_455 S
H147 C143 0.931 . S
H148 C144 0.930 . S
O149 Co138 2.049 . S
O149 C139 1.265 . S
C150 O146 1.250 1_655 S
C150 O151 1.227 . S
O151 C150 1.227 . S
N152 Co138 2.136 1_655 S
N152 C155 1.346 1_655 S
N152 C156 1.345 . S
C153 C154 1.387 1_655 S
C153 C157 1.391 . S
C154 C153 1.387 1_455 S
C154 C155 1.369 . S
C154 H163 0.929 . S
C155 N152 1.346 1_455 S
C155 C154 1.369 . S
C155 H158 0.928 . S
C156 N152 1.345 . S
C156 C157 1.371 . S
C156 H159 0.931 . S
C157 C153 1.391 . S
C157 C156 1.371 . S
C157 H164 0.930 . S
H158 C155 0.928 . S
H159 C156 0.931 . S
H160 C136 0.930 . S
H161 C133 0.930 . S
H162 C142 0.930 . S
H163 C154 0.929 . S
H164 C157 0.930 . S
C165 C166 1.351 . S
C165 N168 1.368 . S
C165 H170 0.931 . S
C166 C165 1.351 . S
C166 N167 1.373 . S
C166 H194 0.930 . S
N167 C166 1.373 . S
N167 C169 1.340 . S
N168 C165 1.368 . S
N168 C169 1.321 . S
N168 Co171 2.135 . S
C169 N167 1.340 . S
C169 N168 1.321 . S
C169 H193 0.930 . S
H170 C165 0.931 . S
Co171 N168 2.135 . S
Co171 N174 2.121 . S
Co171 O179 2.055 . S
Co171 O182 2.039 . S
Co171 N185 2.140 . S
C172 O173 1.227 . S
C172 O182 1.265 . S
O173 C172 1.227 . S
N174 Co171 2.121 . S
N174 C176 1.375 . S
N174 C177 1.313 . S
C175 C176 1.338 . S
C175 N178 1.377 . S
C175 H195 0.930 . S
C176 N174 1.375 . S
C176 C175 1.338 . S
C176 H180 0.931 . S
C177 N174 1.313 . S
C177 N178 1.344 . S
C177 H181 0.930 . S
N178 C175 1.377 . S
N178 C177 1.344 . S
O179 Co171 2.055 . S
O179 C183 1.253 . S
H180 C176 0.931 . S
H181 C177 0.930 . S
O182 Co171 2.039 . S
O182 C172 1.265 . S
C183 O179 1.253 . S
C183 O184 1.227 . S
O184 C183 1.227 . S
N185 Co171 2.140 . S
N185 C188 1.346 . S
N185 C189 1.345 . S
C186 C187 1.387 . S
C186 C190 1.391 . S
C187 C186 1.387 . S
C187 C188 1.369 . S
C187 H196 0.929 . S
C188 N185 1.346 . S
C188 C187 1.369 . S
C188 H191 0.928 . S
C189 N185 1.345 . S
C189 C190 1.371 . S
C189 H192 0.931 . S
C190 C186 1.391 . S
C190 C189 1.371 . S
C190 H197 0.930 . S
H191 C188 0.928 . S
H192 C189 0.931 . S
H193 C169 0.930 . S
H194 C166 0.930 . S
H195 C175 0.930 . S
H196 C187 0.929 . S
H197 C190 0.930 . S
C198 C199 1.351 . S
C198 N201 1.368 . S
C198 H203 0.931 . S
C199 C198 1.351 . S
C199 N200 1.373 . S
C199 H227 0.930 . S
N200 C199 1.373 . S
N200 C202 1.340 . S
N201 C198 1.368 . S
N201 C202 1.321 . S
N201 Co204 2.196 . S
C202 N200 1.340 . S
C202 N201 1.321 . S
C202 H226 0.930 . S
H203 C198 0.931 . S
Co204 N201 2.196 . S
Co204 N207 2.059 1_455 S
Co204 O212 2.054 . S
Co204 O215 2.049 . S
Co204 N218 2.136 1_455 S
C205 O206 1.227 . S
C205 O215 1.265 . S
O206 C205 1.227 . S
N207 Co204 2.059 1_655 S
N207 C209 1.375 . S
N207 C210 1.313 . S
C208 C209 1.338 . S
C208 N211 1.377 . S
C208 H228 0.930 . S
C209 N207 1.375 . S
C209 C208 1.338 . S
C209 H213 0.931 . S
C210 N207 1.313 . S
C210 N211 1.344 . S
C210 H214 0.930 . S
N211 C208 1.377 . S
N211 C210 1.344 . S
O212 Co204 2.054 . S
O212 C216 1.250 1_455 S
H213 C209 0.931 . S
H214 C210 0.930 . S
O215 Co204 2.049 . S
O215 C205 1.265 . S
C216 O212 1.250 1_655 S
C216 O217 1.227 . S
O217 C216 1.227 . S
N218 Co204 2.136 1_655 S
N218 C221 1.346 1_655 S
N218 C222 1.345 . S
C219 C220 1.387 1_655 S
C219 C223 1.391 . S
C220 C219 1.387 1_455 S
C220 C221 1.369 . S
C220 H229 0.929 . S
C221 N218 1.346 1_455 S
C221 C220 1.369 . S
C221 H224 0.928 . S
C222 N218 1.345 . S
C222 C223 1.371 . S
C222 H225 0.931 . S
C223 C219 1.391 . S
C223 C222 1.371 . S
C223 H230 0.930 . S
H224 C221 0.928 . S
H225 C222 0.931 . S
H226 C202 0.930 . S
H227 C199 0.930 . S
H228 C208 0.930 . S
H229 C220 0.929 . S
H230 C223 0.930 . S
C231 C232 1.351 . S
C231 N234 1.368 . S
C231 H236 0.931 . S
C232 C231 1.351 . S
C232 N233 1.373 . S
C232 H260 0.930 . S
N233 C232 1.373 . S
N233 C235 1.340 . S
N234 C231 1.368 . S
N234 C235 1.321 . S
N234 Co237 2.135 . S
C235 N233 1.340 . S
C235 N234 1.321 . S
C235 H259 0.930 . S
H236 C231 0.931 . S
Co237 N234 2.135 . S
Co237 N240 2.121 . S
Co237 O245 2.055 . S
Co237 O248 2.039 . S
Co237 N251 2.140 . S
C238 O239 1.227 . S
C238 O248 1.265 . S
O239 C238 1.227 . S
N240 Co237 2.121 . S
N240 C242 1.375 . S
N240 C243 1.313 . S
C241 C242 1.338 . S
C241 N244 1.377 . S
C241 H261 0.930 . S
C242 N240 1.375 . S
C242 C241 1.338 . S
C242 H246 0.931 . S
C243 N240 1.313 . S
C243 N244 1.344 . S
C243 H247 0.930 . S
N244 C241 1.377 . S
N244 C243 1.344 . S
O245 Co237 2.055 . S
O245 C249 1.253 . S
H246 C242 0.931 . S
H247 C243 0.930 . S
O248 Co237 2.039 . S
O248 C238 1.265 . S
C249 O245 1.253 . S
C249 O250 1.227 . S
O250 C249 1.227 . S
N251 Co237 2.140 . S
N251 C254 1.346 . S
N251 C255 1.345 . S
C252 C253 1.387 . S
C252 C256 1.391 . S
C253 C252 1.387 . S
C253 C254 1.369 . S
C253 H262 0.929 . S
C254 N251 1.346 . S
C254 C253 1.369 . S
C254 H257 0.928 . S
C255 N251 1.345 . S
C255 C256 1.371 . S
C255 H258 0.931 . S
C256 C252 1.391 . S
C256 C255 1.371 . S
C256 H263 0.930 . S
H257 C254 0.928 . S
H258 C255 0.931 . S
H259 C235 0.930 . S
H260 C232 0.930 . S
H261 C241 0.930 . S
H262 C253 0.929 . S
H263 C256 0.930 . S
C264 C265 1.351 . S
C264 N267 1.368 . S
C264 H269 0.931 . S
C265 C264 1.351 . S
C265 N266 1.373 . S
C265 H293 0.930 . S
N266 C265 1.373 . S
N266 C268 1.340 . S
N267 C264 1.368 . S
N267 C268 1.321 . S
N267 Co270 2.196 . S
C268 N266 1.340 . S
C268 N267 1.321 . S
C268 H292 0.930 . S
H269 C264 0.931 . S
Co270 N267 2.196 . S
Co270 N273 2.059 1_655 S
Co270 O278 2.054 . S
Co270 O281 2.049 . S
Co270 N284 2.136 1_655 S
C271 O272 1.227 . S
C271 O281 1.265 . S
O272 C271 1.227 . S
N273 Co270 2.059 1_455 S
N273 C275 1.375 . S
N273 C276 1.313 . S
C274 C275 1.338 . S
C274 N277 1.377 . S
C274 H294 0.930 . S
C275 N273 1.375 . S
C275 C274 1.338 . S
C275 H279 0.931 . S
C276 N273 1.313 . S
C276 N277 1.344 . S
C276 H280 0.930 . S
N277 C274 1.377 . S
N277 C276 1.344 . S
O278 Co270 2.054 . S
O278 C282 1.250 1_655 S
H279 C275 0.931 . S
H280 C276 0.930 . S
O281 Co270 2.049 . S
O281 C271 1.265 . S
C282 O278 1.250 1_455 S
C282 O283 1.227 . S
O283 C282 1.227 . S
N284 Co270 2.136 1_455 S
N284 C287 1.346 1_455 S
N284 C288 1.345 . S
C285 C286 1.387 1_455 S
C285 C289 1.391 . S
C286 C285 1.387 1_655 S
C286 C287 1.369 . S
C286 H295 0.929 . S
C287 N284 1.346 1_655 S
C287 C286 1.369 . S
C287 H290 0.928 . S
C288 N284 1.345 . S
C288 C289 1.371 . S
C288 H291 0.931 . S
C289 C285 1.391 . S
C289 C288 1.371 . S
C289 H296 0.930 . S
H290 C287 0.928 . S
H291 C288 0.931 . S
H292 C268 0.930 . S
H293 C265 0.930 . S
H294 C274 0.930 . S
H295 C286 0.929 . S
H296 C289 0.930 . S
C297 C298 1.351 . S
C297 N300 1.368 . S
C297 H302 0.931 . S
C298 C297 1.351 . S
C298 N299 1.373 . S
C298 H326 0.930 . S
N299 C298 1.373 . S
N299 C301 1.340 . S
N300 C297 1.368 . S
N300 C301 1.321 . S
N300 Co303 2.135 . S
C301 N299 1.340 . S
C301 N300 1.321 . S
C301 H325 0.930 . S
H302 C297 0.931 . S
Co303 N300 2.135 . S
Co303 N306 2.121 . S
Co303 O311 2.055 . S
Co303 O314 2.039 . S
Co303 N317 2.140 . S
C304 O305 1.227 . S
C304 O314 1.265 . S
O305 C304 1.227 . S
N306 Co303 2.121 . S
N306 C308 1.375 . S
N306 C309 1.313 . S
C307 C308 1.338 . S
C307 N310 1.377 . S
C307 H327 0.930 . S
C308 N306 1.375 . S
C308 C307 1.338 . S
C308 H312 0.931 . S
C309 N306 1.313 . S
C309 N310 1.344 . S
C309 H313 0.930 . S
N310 C307 1.377 . S
N310 C309 1.344 . S
O311 Co303 2.055 . S
O311 C315 1.253 . S
H312 C308 0.931 . S
H313 C309 0.930 . S
O314 Co303 2.039 . S
O314 C304 1.265 . S
C315 O311 1.253 . S
C315 O316 1.227 . S
O316 C315 1.227 . S
N317 Co303 2.140 . S
N317 C320 1.346 . S
N317 C321 1.345 . S
C318 C319 1.387 . S
C318 C322 1.391 . S
C319 C318 1.387 . S
C319 C320 1.369 . S
C319 H328 0.929 . S
C320 N317 1.346 . S
C320 C319 1.369 . S
C320 H323 0.928 . S
C321 N317 1.345 . S
C321 C322 1.371 . S
C321 H324 0.931 . S
C322 C318 1.391 . S
C322 C321 1.371 . S
C322 H329 0.930 . S
H323 C320 0.928 . S
H324 C321 0.931 . S
H325 C301 0.930 . S
H326 C298 0.930 . S
H327 C307 0.930 . S
H328 C319 0.929 . S
H329 C322 0.930 . S
C330 C331 1.351 . S
C330 N333 1.368 . S
C330 H335 0.931 . S
C331 C330 1.351 . S
C331 N332 1.373 . S
C331 H359 0.930 . S
N332 C331 1.373 . S
N332 C334 1.340 . S
N333 C330 1.368 . S
N333 C334 1.321 . S
N333 Co336 2.196 . S
C334 N332 1.340 . S
C334 N333 1.321 . S
C334 H358 0.930 . S
H335 C330 0.931 . S
Co336 N333 2.196 . S
Co336 N339 2.059 1_655 S
Co336 O344 2.054 . S
Co336 O347 2.049 . S
Co336 N350 2.136 1_655 S
C337 O338 1.227 . S
C337 O347 1.265 . S
O338 C337 1.227 . S
N339 Co336 2.059 1_455 S
N339 C341 1.375 . S
N339 C342 1.313 . S
C340 C341 1.338 . S
C340 N343 1.377 . S
C340 H360 0.930 . S
C341 N339 1.375 . S
C341 C340 1.338 . S
C341 H345 0.931 . S
C342 N339 1.313 . S
C342 N343 1.344 . S
C342 H346 0.930 . S
N343 C340 1.377 . S
N343 C342 1.344 . S
O344 Co336 2.054 . S
O344 C348 1.250 1_655 S
H345 C341 0.931 . S
H346 C342 0.930 . S
O347 Co336 2.049 . S
O347 C337 1.265 . S
C348 O344 1.250 1_455 S
C348 O349 1.227 . S
O349 C348 1.227 . S
N350 Co336 2.136 1_455 S
N350 C353 1.346 1_455 S
N350 C354 1.345 . S
C351 C352 1.387 1_455 S
C351 C355 1.391 . S
C352 C351 1.387 1_655 S
C352 C353 1.369 . S
C352 H361 0.929 . S
C353 N350 1.346 1_655 S
C353 C352 1.369 . S
C353 H356 0.928 . S
C354 N350 1.345 . S
C354 C355 1.371 . S
C354 H357 0.931 . S
C355 C351 1.391 . S
C355 C354 1.371 . S
C355 H362 0.930 . S
H356 C353 0.928 . S
H357 C354 0.931 . S
H358 C334 0.930 . S
H359 C331 0.930 . S
H360 C340 0.930 . S
H361 C352 0.929 . S
H362 C355 0.930 . S
C363 C364 1.351 . S
C363 N366 1.368 . S
C363 H368 0.931 . S
C364 C363 1.351 . S
C364 N365 1.373 . S
C364 H392 0.930 . S
N365 C364 1.373 . S
N365 C367 1.340 . S
N366 C363 1.368 . S
N366 C367 1.321 . S
N366 Co369 2.135 . S
C367 N365 1.340 . S
C367 N366 1.321 . S
C367 H391 0.930 . S
H368 C363 0.931 . S
Co369 N366 2.135 . S
Co369 N372 2.121 . S
Co369 O377 2.055 . S
Co369 O380 2.039 . S
Co369 N383 2.140 . S
C370 O371 1.227 . S
C370 O380 1.265 . S
O371 C370 1.227 . S
N372 Co369 2.121 . S
N372 C374 1.375 . S
N372 C375 1.313 . S
C373 C374 1.338 . S
C373 N376 1.377 . S
C373 H393 0.930 . S
C374 N372 1.375 . S
C374 C373 1.338 . S
C374 H378 0.931 . S
C375 N372 1.313 . S
C375 N376 1.344 . S
C375 H379 0.930 . S
N376 C373 1.377 . S
N376 C375 1.344 . S
O377 Co369 2.055 . S
O377 C381 1.253 . S
H378 C374 0.931 . S
H379 C375 0.930 . S
O380 Co369 2.039 . S
O380 C370 1.265 . S
C381 O377 1.253 . S
C381 O382 1.227 . S
O382 C381 1.227 . S
N383 Co369 2.140 . S
N383 C386 1.346 . S
N383 C387 1.345 . S
C384 C385 1.387 . S
C384 C388 1.391 . S
C385 C384 1.387 . S
C385 C386 1.369 . S
C385 H394 0.929 . S
C386 N383 1.346 . S
C386 C385 1.369 . S
C386 H389 0.928 . S
C387 N383 1.345 . S
C387 C388 1.371 . S
C387 H390 0.931 . S
C388 C384 1.391 . S
C388 C387 1.371 . S
C388 H395 0.930 . S
H389 C386 0.928 . S
H390 C387 0.931 . S
H391 C367 0.930 . S
H392 C364 0.930 . S
H393 C373 0.930 . S
H394 C385 0.929 . S
H395 C388 0.930 . S
C396 C397 1.351 . S
C396 N399 1.368 . S
C396 H401 0.931 . S
C397 C396 1.351 . S
C397 N398 1.373 . S
C397 H425 0.930 . S
N398 C397 1.373 . S
N398 C400 1.340 . S
N399 C396 1.368 . S
N399 C400 1.321 . S
N399 Co402 2.196 . S
C400 N398 1.340 . S
C400 N399 1.321 . S
C400 H424 0.930 . S
H401 C396 0.931 . S
Co402 N399 2.196 . S
Co402 N405 2.059 1_455 S
Co402 O410 2.054 . S
Co402 O413 2.049 . S
Co402 N416 2.136 1_455 S
C403 O404 1.227 . S
C403 O413 1.265 . S
O404 C403 1.227 . S
N405 Co402 2.059 1_655 S
N405 C407 1.375 . S
N405 C408 1.313 . S
C406 C407 1.338 . S
C406 N409 1.377 . S
C406 H426 0.930 . S
C407 N405 1.375 . S
C407 C406 1.338 . S
C407 H411 0.931 . S
C408 N405 1.313 . S
C408 N409 1.344 . S
C408 H412 0.930 . S
N409 C406 1.377 . S
N409 C408 1.344 . S
O410 Co402 2.054 . S
O410 C414 1.250 1_455 S
H411 C407 0.931 . S
H412 C408 0.930 . S
O413 Co402 2.049 . S
O413 C403 1.265 . S
C414 O410 1.250 1_655 S
C414 O415 1.227 . S
O415 C414 1.227 . S
N416 Co402 2.136 1_655 S
N416 C419 1.346 1_655 S
N416 C420 1.345 . S
C417 C418 1.387 1_655 S
C417 C421 1.391 . S
C418 C417 1.387 1_455 S
C418 C419 1.369 . S
C418 H427 0.929 . S
C419 N416 1.346 1_455 S
C419 C418 1.369 . S
C419 H422 0.928 . S
C420 N416 1.345 . S
C420 C421 1.371 . S
C420 H423 0.931 . S
C421 C417 1.391 . S
C421 C420 1.371 . S
C421 H428 0.930 . S
H422 C419 0.928 . S
H423 C420 0.931 . S
H424 C400 0.930 . S
H425 C397 0.930 . S
H426 C406 0.930 . S
H427 C418 0.929 . S
H428 C421 0.930 . S
C429 C430 1.351 . S
C429 N432 1.368 . S
C429 H434 0.931 . S
C430 C429 1.351 . S
C430 N431 1.373 . S
C430 H458 0.930 . S
N431 C430 1.373 . S
N431 C433 1.340 . S
N432 C429 1.368 . S
N432 C433 1.321 . S
N432 Co435 2.135 . S
C433 N431 1.340 . S
C433 N432 1.321 . S
C433 H457 0.930 . S
H434 C429 0.931 . S
Co435 N432 2.135 . S
Co435 N438 2.121 . S
Co435 O443 2.055 . S
Co435 O446 2.039 . S
Co435 N449 2.140 . S
C436 O437 1.227 . S
C436 O446 1.265 . S
O437 C436 1.227 . S
N438 Co435 2.121 . S
N438 C440 1.375 . S
N438 C441 1.313 . S
C439 C440 1.338 . S
C439 N442 1.377 . S
C439 H459 0.930 . S
C440 N438 1.375 . S
C440 C439 1.338 . S
C440 H444 0.931 . S
C441 N438 1.313 . S
C441 N442 1.344 . S
C441 H445 0.930 . S
N442 C439 1.377 . S
N442 C441 1.344 . S
O443 Co435 2.055 . S
O443 C447 1.253 . S
H444 C440 0.931 . S
H445 C441 0.930 . S
O446 Co435 2.039 . S
O446 C436 1.265 . S
C447 O443 1.253 . S
C447 O448 1.227 . S
O448 C447 1.227 . S
N449 Co435 2.140 . S
N449 C452 1.346 . S
N449 C453 1.345 . S
C450 C451 1.387 . S
C450 C454 1.391 . S
C451 C450 1.387 . S
C451 C452 1.369 . S
C451 H460 0.929 . S
C452 N449 1.346 . S
C452 C451 1.369 . S
C452 H455 0.928 . S
C453 N449 1.345 . S
C453 C454 1.371 . S
C453 H456 0.931 . S
C454 C450 1.391 . S
C454 C453 1.371 . S
C454 H461 0.930 . S
H455 C452 0.928 . S
H456 C453 0.931 . S
H457 C433 0.930 . S
H458 C430 0.930 . S
H459 C439 0.930 . S
H460 C451 0.929 . S
H461 C454 0.930 . S
C462 C463 1.351 . S
C462 N465 1.368 . S
C462 H467 0.931 . S
C463 C462 1.351 . S
C463 N464 1.373 . S
C463 H491 0.930 . S
N464 C463 1.373 . S
N464 C466 1.340 . S
N465 C462 1.368 . S
N465 C466 1.321 . S
N465 Co468 2.196 . S
C466 N464 1.340 . S
C466 N465 1.321 . S
C466 H490 0.930 . S
H467 C462 0.931 . S
Co468 N465 2.196 . S
Co468 N471 2.059 1_455 S
Co468 O476 2.054 . S
Co468 O479 2.049 . S
Co468 N482 2.136 1_455 S
C469 O470 1.227 . S
C469 O479 1.265 . S
O470 C469 1.227 . S
N471 Co468 2.059 1_655 S
N471 C473 1.375 . S
N471 C474 1.313 . S
C472 C473 1.338 . S
C472 N475 1.377 . S
C472 H492 0.930 . S
C473 N471 1.375 . S
C473 C472 1.338 . S
C473 H477 0.931 . S
C474 N471 1.313 . S
C474 N475 1.344 . S
C474 H478 0.930 . S
N475 C472 1.377 . S
N475 C474 1.344 . S
O476 Co468 2.054 . S
O476 C480 1.250 1_455 S
H477 C473 0.931 . S
H478 C474 0.930 . S
O479 Co468 2.049 . S
O479 C469 1.265 . S
C480 O476 1.250 1_655 S
C480 O481 1.227 . S
O481 C480 1.227 . S
N482 Co468 2.136 1_655 S
N482 C485 1.346 1_655 S
N482 C486 1.345 . S
C483 C484 1.387 1_655 S
C483 C487 1.391 . S
C484 C483 1.387 1_455 S
C484 C485 1.369 . S
C484 H493 0.929 . S
C485 N482 1.346 1_455 S
C485 C484 1.369 . S
C485 H488 0.928 . S
C486 N482 1.345 . S
C486 C487 1.371 . S
C486 H489 0.931 . S
C487 C483 1.391 . S
C487 C486 1.371 . S
C487 H494 0.930 . S
H488 C485 0.928 . S
H489 C486 0.931 . S
H490 C466 0.930 . S
H491 C463 0.930 . S
H492 C472 0.930 . S
H493 C484 0.929 . S
H494 C487 0.930 . S
C495 C496 1.351 . S
C495 N498 1.368 . S
C495 H500 0.931 . S
C496 C495 1.351 . S
C496 N497 1.373 . S
C496 H524 0.930 . S
N497 C496 1.373 . S
N497 C499 1.340 . S
N498 C495 1.368 . S
N498 C499 1.321 . S
N498 Co501 2.135 . S
C499 N497 1.340 . S
C499 N498 1.321 . S
C499 H523 0.930 . S
H500 C495 0.931 . S
Co501 N498 2.135 . S
Co501 N504 2.121 . S
Co501 O509 2.055 . S
Co501 O512 2.039 . S
Co501 N515 2.140 . S
C502 O503 1.227 . S
C502 O512 1.265 . S
O503 C502 1.227 . S
N504 Co501 2.121 . S
N504 C506 1.375 . S
N504 C507 1.313 . S
C505 C506 1.338 . S
C505 N508 1.377 . S
C505 H525 0.930 . S
C506 N504 1.375 . S
C506 C505 1.338 . S
C506 H510 0.931 . S
C507 N504 1.313 . S
C507 N508 1.344 . S
C507 H511 0.930 . S
N508 C505 1.377 . S
N508 C507 1.344 . S
O509 Co501 2.055 . S
O509 C513 1.253 . S
H510 C506 0.931 . S
H511 C507 0.930 . S
O512 Co501 2.039 . S
O512 C502 1.265 . S
C513 O509 1.253 . S
C513 O514 1.227 . S
O514 C513 1.227 . S
N515 Co501 2.140 . S
N515 C518 1.346 . S
N515 C519 1.345 . S
C516 C517 1.387 . S
C516 C520 1.391 . S
C517 C516 1.387 . S
C517 C518 1.369 . S
C517 H526 0.929 . S
C518 N515 1.346 . S
C518 C517 1.369 . S
C518 H521 0.928 . S
C519 N515 1.345 . S
C519 C520 1.371 . S
C519 H522 0.931 . S
C520 C516 1.391 . S
C520 C519 1.371 . S
C520 H527 0.930 . S
H521 C518 0.928 . S
H522 C519 0.931 . S
H523 C499 0.930 . S
H524 C496 0.930 . S
H525 C505 0.930 . S
H526 C517 0.929 . S
H527 C520 0.930 . S
C528 C529 1.351 . S
C528 N531 1.368 . S
C528 H533 0.931 . S
C529 C528 1.351 . S
C529 N530 1.373 . S
C529 H557 0.930 . S
N530 C529 1.373 . S
N530 C532 1.340 . S
N531 C528 1.368 . S
N531 C532 1.321 . S
N531 Co534 2.135 . S
C532 N530 1.340 . S
C532 N531 1.321 . S
C532 H556 0.930 . S
H533 C528 0.931 . S
Co534 N531 2.135 . S
Co534 N537 2.121 . S
Co534 O542 2.055 . S
Co534 O545 2.039 . S
Co534 N548 2.140 . S
C535 O536 1.227 . S
C535 O545 1.265 . S
O536 C535 1.227 . S
N537 Co534 2.121 . S
N537 C539 1.375 . S
N537 C540 1.313 . S
C538 C539 1.338 . S
C538 N541 1.377 . S
C538 H558 0.930 . S
C539 N537 1.375 . S
C539 C538 1.338 . S
C539 H543 0.931 . S
C540 N537 1.313 . S
C540 N541 1.344 . S
C540 H544 0.930 . S
N541 C538 1.377 . S
N541 C540 1.344 . S
O542 Co534 2.055 . S
O542 C546 1.253 . S
H543 C539 0.931 . S
H544 C540 0.930 . S
O545 Co534 2.039 . S
O545 C535 1.265 . S
C546 O542 1.253 . S
C546 O547 1.227 . S
O547 C546 1.227 . S
N548 Co534 2.140 . S
N548 C551 1.346 . S
N548 C552 1.345 . S
C549 C550 1.387 . S
C549 C553 1.391 . S
C550 C549 1.387 . S
C550 C551 1.369 . S
C550 H559 0.929 . S
C551 N548 1.346 . S
C551 C550 1.369 . S
C551 H554 0.928 . S
C552 N548 1.345 . S
C552 C553 1.371 . S
C552 H555 0.931 . S
C553 C549 1.391 . S
C553 C552 1.371 . S
C553 H560 0.930 . S
H554 C551 0.928 . S
H555 C552 0.931 . S
H556 C532 0.930 . S
H557 C529 0.930 . S
H558 C538 0.930 . S
H559 C550 0.929 . S
H560 C553 0.930 . S
C561 C562 1.351 . S
C561 N564 1.368 . S
C561 H566 0.931 . S
C562 C561 1.351 . S
C562 N563 1.373 . S
C562 H590 0.930 . S
N563 C562 1.373 . S
N563 C565 1.340 . S
N564 C561 1.368 . S
N564 C565 1.321 . S
N564 Co567 2.135 . S
C565 N563 1.340 . S
C565 N564 1.321 . S
C565 H589 0.930 . S
H566 C561 0.931 . S
Co567 N564 2.135 . S
Co567 N570 2.121 . S
Co567 O575 2.055 . S
Co567 O578 2.039 . S
Co567 N581 2.140 . S
C568 O569 1.227 . S
C568 O578 1.265 . S
O569 C568 1.227 . S
N570 Co567 2.121 . S
N570 C572 1.375 . S
N570 C573 1.313 . S
C571 C572 1.338 . S
C571 N574 1.377 . S
C571 H591 0.930 . S
C572 N570 1.375 . S
C572 C571 1.338 . S
C572 H576 0.931 . S
C573 N570 1.313 . S
C573 N574 1.344 . S
C573 H577 0.930 . S
N574 C571 1.377 . S
N574 C573 1.344 . S
O575 Co567 2.055 . S
O575 C579 1.253 . S
H576 C572 0.931 . S
H577 C573 0.930 . S
O578 Co567 2.039 . S
O578 C568 1.265 . S
C579 O575 1.253 . S
C579 O580 1.227 . S
O580 C579 1.227 . S
N581 Co567 2.140 . S
N581 C584 1.346 . S
N581 C585 1.345 . S
C582 C583 1.387 . S
C582 C586 1.391 . S
C583 C582 1.387 . S
C583 C584 1.369 . S
C583 H592 0.929 . S
C584 N581 1.346 . S
C584 C583 1.369 . S
C584 H587 0.928 . S
C585 N581 1.345 . S
C585 C586 1.371 . S
C585 H588 0.931 . S
C586 C582 1.391 . S
C586 C585 1.371 . S
C586 H593 0.930 . S
H587 C584 0.928 . S
H588 C585 0.931 . S
H589 C565 0.930 . S
H590 C562 0.930 . S
H591 C571 0.930 . S
H592 C583 0.929 . S
H593 C586 0.930 . S
C594 C595 1.351 . S
C594 N597 1.368 . S
C594 H599 0.931 . S
C595 C594 1.351 . S
C595 N596 1.373 . S
C595 H623 0.930 . S
N596 C595 1.373 . S
N596 C598 1.340 . S
N597 C594 1.368 . S
N597 C598 1.321 . S
N597 Co600 2.135 . S
C598 N596 1.340 . S
C598 N597 1.321 . S
C598 H622 0.930 . S
H599 C594 0.931 . S
Co600 N597 2.135 . S
Co600 N603 2.121 . S
Co600 O608 2.055 . S
Co600 O611 2.039 . S
Co600 N614 2.140 . S
C601 O602 1.227 . S
C601 O611 1.265 . S
O602 C601 1.227 . S
N603 Co600 2.121 . S
N603 C605 1.375 . S
N603 C606 1.313 . S
C604 C605 1.338 . S
C604 N607 1.377 . S
C604 H624 0.930 . S
C605 N603 1.375 . S
C605 C604 1.338 . S
C605 H609 0.931 . S
C606 N603 1.313 . S
C606 N607 1.344 . S
C606 H610 0.930 . S
N607 C604 1.377 . S
N607 C606 1.344 . S
O608 Co600 2.055 . S
O608 C612 1.253 . S
H609 C605 0.931 . S
H610 C606 0.930 . S
O611 Co600 2.039 . S
O611 C601 1.265 . S
C612 O608 1.253 . S
C612 O613 1.227 . S
O613 C612 1.227 . S
N614 Co600 2.140 . S
N614 C617 1.346 . S
N614 C618 1.345 . S
C615 C616 1.387 . S
C615 C619 1.391 . S
C616 C615 1.387 . S
C616 C617 1.369 . S
C616 H625 0.929 . S
C617 N614 1.346 . S
C617 C616 1.369 . S
C617 H620 0.928 . S
C618 N614 1.345 . S
C618 C619 1.371 . S
C618 H621 0.931 . S
C619 C615 1.391 . S
C619 C618 1.371 . S
C619 H626 0.930 . S
H620 C617 0.928 . S
H621 C618 0.931 . S
H622 C598 0.930 . S
H623 C595 0.930 . S
H624 C604 0.930 . S
H625 C616 0.929 . S
H626 C619 0.930 . S
C627 C628 1.351 . S
C627 N630 1.368 . S
C627 H632 0.931 . S
C628 C627 1.351 . S
C628 N629 1.373 . S
C628 H656 0.930 . S
N629 C628 1.373 . S
N629 C631 1.340 . S
N630 C627 1.368 . S
N630 C631 1.321 . S
N630 Co633 2.135 . S
C631 N629 1.340 . S
C631 N630 1.321 . S
C631 H655 0.930 . S
H632 C627 0.931 . S
Co633 N630 2.135 . S
Co633 N636 2.121 . S
Co633 O641 2.055 . S
Co633 O644 2.039 . S
Co633 N647 2.140 . S
C634 O635 1.227 . S
C634 O644 1.265 . S
O635 C634 1.227 . S
N636 Co633 2.121 . S
N636 C638 1.375 . S
N636 C639 1.313 . S
C637 C638 1.338 . S
C637 N640 1.377 . S
C637 H657 0.930 . S
C638 N636 1.375 . S
C638 C637 1.338 . S
C638 H642 0.931 . S
C639 N636 1.313 . S
C639 N640 1.344 . S
C639 H643 0.930 . S
N640 C637 1.377 . S
N640 C639 1.344 . S
O641 Co633 2.055 . S
O641 C645 1.253 . S
H642 C638 0.931 . S
H643 C639 0.930 . S
O644 Co633 2.039 . S
O644 C634 1.265 . S
C645 O641 1.253 . S
C645 O646 1.227 . S
O646 C645 1.227 . S
N647 Co633 2.140 . S
N647 C650 1.346 . S
N647 C651 1.345 . S
C648 C649 1.387 . S
C648 C652 1.391 . S
C649 C648 1.387 . S
C649 C650 1.369 . S
C649 H658 0.929 . S
C650 N647 1.346 . S
C650 C649 1.369 . S
C650 H653 0.928 . S
C651 N647 1.345 . S
C651 C652 1.371 . S
C651 H654 0.931 . S
C652 C648 1.391 . S
C652 C651 1.371 . S
C652 H659 0.930 . S
H653 C650 0.928 . S
H654 C651 0.931 . S
H655 C631 0.930 . S
H656 C628 0.930 . S
H657 C637 0.930 . S
H658 C649 0.929 . S
H659 C652 0.930 . S
C660 C661 1.351 . S
C660 N663 1.368 . S
C660 H665 0.931 . S
C661 C660 1.351 . S
C661 N662 1.373 . S
C661 H689 0.930 . S
N662 C661 1.373 . S
N662 C664 1.340 . S
N663 C660 1.368 . S
N663 C664 1.321 . S
N663 Co666 2.135 . S
C664 N662 1.340 . S
C664 N663 1.321 . S
C664 H688 0.930 . S
H665 C660 0.931 . S
Co666 N663 2.135 . S
Co666 N669 2.121 . S
Co666 O674 2.055 . S
Co666 O677 2.039 . S
Co666 N680 2.140 . S
C667 O668 1.227 . S
C667 O677 1.265 . S
O668 C667 1.227 . S
N669 Co666 2.121 . S
N669 C671 1.375 . S
N669 C672 1.313 . S
C670 C671 1.338 . S
C670 N673 1.377 . S
C670 H690 0.930 . S
C671 N669 1.375 . S
C671 C670 1.338 . S
C671 H675 0.931 . S
C672 N669 1.313 . S
C672 N673 1.344 . S
C672 H676 0.930 . S
N673 C670 1.377 . S
N673 C672 1.344 . S
O674 Co666 2.055 . S
O674 C678 1.253 . S
H675 C671 0.931 . S
H676 C672 0.930 . S
O677 Co666 2.039 . S
O677 C667 1.265 . S
C678 O674 1.253 . S
C678 O679 1.227 . S
O679 C678 1.227 . S
N680 Co666 2.140 . S
N680 C683 1.346 . S
N680 C684 1.345 . S
C681 C682 1.387 . S
C681 C685 1.391 . S
C682 C681 1.387 . S
C682 C683 1.369 . S
C682 H691 0.929 . S
C683 N680 1.346 . S
C683 C682 1.369 . S
C683 H686 0.928 . S
C684 N680 1.345 . S
C684 C685 1.371 . S
C684 H687 0.931 . S
C685 C681 1.391 . S
C685 C684 1.371 . S
C685 H692 0.930 . S
H686 C683 0.928 . S
H687 C684 0.931 . S
H688 C664 0.930 . S
H689 C661 0.930 . S
H690 C670 0.930 . S
H691 C682 0.929 . S
H692 C685 0.930 . S
C693 C694 1.351 . S
C693 N696 1.368 . S
C693 H698 0.931 . S
C694 C693 1.351 . S
C694 N695 1.373 . S
C694 H722 0.930 . S
N695 C694 1.373 . S
N695 C697 1.340 . S
N696 C693 1.368 . S
N696 C697 1.321 . S
N696 Co699 2.135 . S
C697 N695 1.340 . S
C697 N696 1.321 . S
C697 H721 0.930 . S
H698 C693 0.931 . S
Co699 N696 2.135 . S
Co699 N702 2.121 . S
Co699 O707 2.055 . S
Co699 O710 2.039 . S
Co699 N713 2.140 . S
C700 O701 1.227 . S
C700 O710 1.265 . S
O701 C700 1.227 . S
N702 Co699 2.121 . S
N702 C704 1.375 . S
N702 C705 1.313 . S
C703 C704 1.338 . S
C703 N706 1.377 . S
C703 H723 0.930 . S
C704 N702 1.375 . S
C704 C703 1.338 . S
C704 H708 0.931 . S
C705 N702 1.313 . S
C705 N706 1.344 . S
C705 H709 0.930 . S
N706 C703 1.377 . S
N706 C705 1.344 . S
O707 Co699 2.055 . S
O707 C711 1.253 . S
H708 C704 0.931 . S
H709 C705 0.930 . S
O710 Co699 2.039 . S
O710 C700 1.265 . S
C711 O707 1.253 . S
C711 O712 1.227 . S
O712 C711 1.227 . S
N713 Co699 2.140 . S
N713 C716 1.346 . S
N713 C717 1.345 . S
C714 C715 1.387 . S
C714 C718 1.391 . S
C715 C714 1.387 . S
C715 C716 1.369 . S
C715 H724 0.929 . S
C716 N713 1.346 . S
C716 C715 1.369 . S
C716 H719 0.928 . S
C717 N713 1.345 . S
C717 C718 1.371 . S
C717 H720 0.931 . S
C718 C714 1.391 . S
C718 C717 1.371 . S
C718 H725 0.930 . S
H719 C716 0.928 . S
H720 C717 0.931 . S
H721 C697 0.930 . S
H722 C694 0.930 . S
H723 C703 0.930 . S
H724 C715 0.929 . S
H725 C718 0.930 . S
C726 C727 1.351 . S
C726 N729 1.368 . S
C726 H731 0.931 . S
C727 C726 1.351 . S
C727 N728 1.373 . S
C727 H755 0.930 . S
N728 C727 1.373 . S
N728 C730 1.340 . S
N729 C726 1.368 . S
N729 C730 1.321 . S
N729 Co732 2.135 . S
C730 N728 1.340 . S
C730 N729 1.321 . S
C730 H754 0.930 . S
H731 C726 0.931 . S
Co732 N729 2.135 . S
Co732 N735 2.121 . S
Co732 O740 2.055 . S
Co732 O743 2.039 . S
Co732 N746 2.140 . S
C733 O734 1.227 . S
C733 O743 1.265 . S
O734 C733 1.227 . S
N735 Co732 2.121 . S
N735 C737 1.375 . S
N735 C738 1.313 . S
C736 C737 1.338 . S
C736 N739 1.377 . S
C736 H756 0.930 . S
C737 N735 1.375 . S
C737 C736 1.338 . S
C737 H741 0.931 . S
C738 N735 1.313 . S
C738 N739 1.344 . S
C738 H742 0.930 . S
N739 C736 1.377 . S
N739 C738 1.344 . S
O740 Co732 2.055 . S
O740 C744 1.253 . S
H741 C737 0.931 . S
H742 C738 0.930 . S
O743 Co732 2.039 . S
O743 C733 1.265 . S
C744 O740 1.253 . S
C744 O745 1.227 . S
O745 C744 1.227 . S
N746 Co732 2.140 . S
N746 C749 1.346 . S
N746 C750 1.345 . S
C747 C748 1.387 . S
C747 C751 1.391 . S
C748 C747 1.387 . S
C748 C749 1.369 . S
C748 H757 0.929 . S
C749 N746 1.346 . S
C749 C748 1.369 . S
C749 H752 0.928 . S
C750 N746 1.345 . S
C750 C751 1.371 . S
C750 H753 0.931 . S
C751 C747 1.391 . S
C751 C750 1.371 . S
C751 H758 0.930 . S
H752 C749 0.928 . S
H753 C750 0.931 . S
H754 C730 0.930 . S
H755 C727 0.930 . S
H756 C736 0.930 . S
H757 C748 0.929 . S
H758 C751 0.930 . S
C759 C760 1.351 . S
C759 N762 1.368 . S
C759 H764 0.931 . S
C760 C759 1.351 . S
C760 N761 1.373 . S
C760 H788 0.930 . S
N761 C760 1.373 . S
N761 C763 1.340 . S
N762 C759 1.368 . S
N762 C763 1.321 . S
N762 Co765 2.135 . S
C763 N761 1.340 . S
C763 N762 1.321 . S
C763 H787 0.930 . S
H764 C759 0.931 . S
Co765 N762 2.135 . S
Co765 N768 2.121 . S
Co765 O773 2.055 . S
Co765 O776 2.039 . S
Co765 N779 2.140 . S
C766 O767 1.227 . S
C766 O776 1.265 . S
O767 C766 1.227 . S
N768 Co765 2.121 . S
N768 C770 1.375 . S
N768 C771 1.313 . S
C769 C770 1.338 . S
C769 N772 1.377 . S
C769 H789 0.930 . S
C770 N768 1.375 . S
C770 C769 1.338 . S
C770 H774 0.931 . S
C771 N768 1.313 . S
C771 N772 1.344 . S
C771 H775 0.930 . S
N772 C769 1.377 . S
N772 C771 1.344 . S
O773 Co765 2.055 . S
O773 C777 1.253 . S
H774 C770 0.931 . S
H775 C771 0.930 . S
O776 Co765 2.039 . S
O776 C766 1.265 . S
C777 O773 1.253 . S
C777 O778 1.227 . S
O778 C777 1.227 . S
N779 Co765 2.140 . S
N779 C782 1.346 . S
N779 C783 1.345 . S
C780 C781 1.387 . S
C780 C784 1.391 . S
C781 C780 1.387 . S
C781 C782 1.369 . S
C781 H790 0.929 . S
C782 N779 1.346 . S
C782 C781 1.369 . S
C782 H785 0.928 . S
C783 N779 1.345 . S
C783 C784 1.371 . S
C783 H786 0.931 . S
C784 C780 1.391 . S
C784 C783 1.371 . S
C784 H791 0.930 . S
H785 C782 0.928 . S
H786 C783 0.931 . S
H787 C763 0.930 . S
H788 C760 0.930 . S
H789 C769 0.930 . S
H790 C781 0.929 . S
H791 C784 0.930 . S
C792 C793 1.351 . S
C792 N795 1.368 . S
C792 H797 0.931 . S
C793 C792 1.351 . S
C793 N794 1.373 . S
C793 H821 0.930 . S
N794 C793 1.373 . S
N794 C796 1.340 . S
N795 C792 1.368 . S
N795 C796 1.321 . S
N795 Co798 2.135 . S
C796 N794 1.340 . S
C796 N795 1.321 . S
C796 H820 0.930 . S
H797 C792 0.931 . S
Co798 N795 2.135 . S
Co798 N801 2.121 . S
Co798 O806 2.055 . S
Co798 O809 2.039 . S
Co798 N812 2.140 . S
C799 O800 1.227 . S
C799 O809 1.265 . S
O800 C799 1.227 . S
N801 Co798 2.121 . S
N801 C803 1.375 . S
N801 C804 1.313 . S
C802 C803 1.338 . S
C802 N805 1.377 . S
C802 H822 0.930 . S
C803 N801 1.375 . S
C803 C802 1.338 . S
C803 H807 0.931 . S
C804 N801 1.313 . S
C804 N805 1.344 . S
C804 H808 0.930 . S
N805 C802 1.377 . S
N805 C804 1.344 . S
O806 Co798 2.055 . S
O806 C810 1.253 . S
H807 C803 0.931 . S
H808 C804 0.930 . S
O809 Co798 2.039 . S
O809 C799 1.265 . S
C810 O806 1.253 . S
C810 O811 1.227 . S
O811 C810 1.227 . S
N812 Co798 2.140 . S
N812 C815 1.346 . S
N812 C816 1.345 . S
C813 C814 1.387 . S
C813 C817 1.391 . S
C814 C813 1.387 . S
C814 C815 1.369 . S
C814 H823 0.929 . S
C815 N812 1.346 . S
C815 C814 1.369 . S
C815 H818 0.928 . S
C816 N812 1.345 . S
C816 C817 1.371 . S
C816 H819 0.931 . S
C817 C813 1.391 . S
C817 C816 1.371 . S
C817 H824 0.930 . S
H818 C815 0.928 . S
H819 C816 0.931 . S
H820 C796 0.930 . S
H821 C793 0.930 . S
H822 C802 0.930 . S
H823 C814 0.929 . S
H824 C817 0.930 . S
C825 C826 1.351 . S
C825 N828 1.368 . S
C825 H830 0.931 . S
C826 C825 1.351 . S
C826 N827 1.373 . S
C826 H854 0.930 . S
N827 C826 1.373 . S
N827 C829 1.340 . S
N828 C825 1.368 . S
N828 C829 1.321 . S
N828 Co831 2.135 . S
C829 N827 1.340 . S
C829 N828 1.321 . S
C829 H853 0.930 . S
H830 C825 0.931 . S
Co831 N828 2.135 . S
Co831 N834 2.121 . S
Co831 O839 2.055 . S
Co831 O842 2.039 . S
Co831 N845 2.140 . S
C832 O833 1.227 . S
C832 O842 1.265 . S
O833 C832 1.227 . S
N834 Co831 2.121 . S
N834 C836 1.375 . S
N834 C837 1.313 . S
C835 C836 1.338 . S
C835 N838 1.377 . S
C835 H855 0.930 . S
C836 N834 1.375 . S
C836 C835 1.338 . S
C836 H840 0.931 . S
C837 N834 1.313 . S
C837 N838 1.344 . S
C837 H841 0.930 . S
N838 C835 1.377 . S
N838 C837 1.344 . S
O839 Co831 2.055 . S
O839 C843 1.253 . S
H840 C836 0.931 . S
H841 C837 0.930 . S
O842 Co831 2.039 . S
O842 C832 1.265 . S
C843 O839 1.253 . S
C843 O844 1.227 . S
O844 C843 1.227 . S
N845 Co831 2.140 . S
N845 C848 1.346 . S
N845 C849 1.345 . S
C846 C847 1.387 . S
C846 C850 1.391 . S
C847 C846 1.387 . S
C847 C848 1.369 . S
C847 H856 0.929 . S
C848 N845 1.346 . S
C848 C847 1.369 . S
C848 H851 0.928 . S
C849 N845 1.345 . S
C849 C850 1.371 . S
C849 H852 0.931 . S
C850 C846 1.391 . S
C850 C849 1.371 . S
C850 H857 0.930 . S
H851 C848 0.928 . S
H852 C849 0.931 . S
H853 C829 0.930 . S
H854 C826 0.930 . S
H855 C835 0.930 . S
H856 C847 0.929 . S
H857 C850 0.930 . S
C858 C859 1.351 . S
C858 N861 1.368 . S
C858 H863 0.931 . S
C859 C858 1.351 . S
C859 N860 1.373 . S
C859 H887 0.930 . S
N860 C859 1.373 . S
N860 C862 1.340 . S
N861 C858 1.368 . S
N861 C862 1.321 . S
N861 Co864 2.135 . S
C862 N860 1.340 . S
C862 N861 1.321 . S
C862 H886 0.930 . S
H863 C858 0.931 . S
Co864 N861 2.135 . S
Co864 N867 2.121 . S
Co864 O872 2.055 . S
Co864 O875 2.039 . S
Co864 N878 2.140 . S
C865 O866 1.227 . S
C865 O875 1.265 . S
O866 C865 1.227 . S
N867 Co864 2.121 . S
N867 C869 1.375 . S
N867 C870 1.313 . S
C868 C869 1.338 . S
C868 N871 1.377 . S
C868 H888 0.930 . S
C869 N867 1.375 . S
C869 C868 1.338 . S
C869 H873 0.931 . S
C870 N867 1.313 . S
C870 N871 1.344 . S
C870 H874 0.930 . S
N871 C868 1.377 . S
N871 C870 1.344 . S
O872 Co864 2.055 . S
O872 C876 1.253 . S
H873 C869 0.931 . S
H874 C870 0.930 . S
O875 Co864 2.039 . S
O875 C865 1.265 . S
C876 O872 1.253 . S
C876 O877 1.227 . S
O877 C876 1.227 . S
N878 Co864 2.140 . S
N878 C881 1.346 . S
N878 C882 1.345 . S
C879 C880 1.387 . S
C879 C883 1.391 . S
C880 C879 1.387 . S
C880 C881 1.369 . S
C880 H889 0.929 . S
C881 N878 1.346 . S
C881 C880 1.369 . S
C881 H884 0.928 . S
C882 N878 1.345 . S
C882 C883 1.371 . S
C882 H885 0.931 . S
C883 C879 1.391 . S
C883 C882 1.371 . S
C883 H890 0.930 . S
H884 C881 0.928 . S
H885 C882 0.931 . S
H886 C862 0.930 . S
H887 C859 0.930 . S
H888 C868 0.930 . S
H889 C880 0.929 . S
H890 C883 0.930 . S
C891 C892 1.351 . S
C891 N894 1.368 . S
C891 H896 0.931 . S
C892 C891 1.351 . S
C892 N893 1.373 . S
C892 H920 0.930 . S
N893 C892 1.373 . S
N893 C895 1.340 . S
N894 C891 1.368 . S
N894 C895 1.321 . S
N894 Co897 2.135 . S
C895 N893 1.340 . S
C895 N894 1.321 . S
C895 H919 0.930 . S
H896 C891 0.931 . S
Co897 N894 2.135 . S
Co897 N900 2.121 . S
Co897 O905 2.055 . S
Co897 O908 2.039 . S
Co897 N911 2.140 . S
C898 O899 1.227 . S
C898 O908 1.265 . S
O899 C898 1.227 . S
N900 Co897 2.121 . S
N900 C902 1.375 . S
N900 C903 1.313 . S
C901 C902 1.338 . S
C901 N904 1.377 . S
C901 H921 0.930 . S
C902 N900 1.375 . S
C902 C901 1.338 . S
C902 H906 0.931 . S
C903 N900 1.313 . S
C903 N904 1.344 . S
C903 H907 0.930 . S
N904 C901 1.377 . S
N904 C903 1.344 . S
O905 Co897 2.055 . S
O905 C909 1.253 . S
H906 C902 0.931 . S
H907 C903 0.930 . S
O908 Co897 2.039 . S
O908 C898 1.265 . S
C909 O905 1.253 . S
C909 O910 1.227 . S
O910 C909 1.227 . S
N911 Co897 2.140 . S
N911 C914 1.346 . S
N911 C915 1.345 . S
C912 C913 1.387 . S
C912 C916 1.391 . S
C913 C912 1.387 . S
C913 C914 1.369 . S
C913 H922 0.929 . S
C914 N911 1.346 . S
C914 C913 1.369 . S
C914 H917 0.928 . S
C915 N911 1.345 . S
C915 C916 1.371 . S
C915 H918 0.931 . S
C916 C912 1.391 . S
C916 C915 1.371 . S
C916 H923 0.930 . S
H917 C914 0.928 . S
H918 C915 0.931 . S
H919 C895 0.930 . S
H920 C892 0.930 . S
H921 C901 0.930 . S
H922 C913 0.929 . S
H923 C916 0.930 . S
C924 C925 1.351 . S
C924 N927 1.368 . S
C924 H929 0.931 . S
C925 C924 1.351 . S
C925 N926 1.373 . S
C925 H953 0.930 . S
N926 C925 1.373 . S
N926 C928 1.340 . S
N927 C924 1.368 . S
N927 C928 1.321 . S
N927 Co930 2.135 . S
C928 N926 1.340 . S
C928 N927 1.321 . S
C928 H952 0.930 . S
H929 C924 0.931 . S
Co930 N927 2.135 . S
Co930 N933 2.121 . S
Co930 O938 2.055 . S
Co930 O941 2.039 . S
Co930 N944 2.140 . S
C931 O932 1.227 . S
C931 O941 1.265 . S
O932 C931 1.227 . S
N933 Co930 2.121 . S
N933 C935 1.375 . S
N933 C936 1.313 . S
C934 C935 1.338 . S
C934 N937 1.377 . S
C934 H954 0.930 . S
C935 N933 1.375 . S
C935 C934 1.338 . S
C935 H939 0.931 . S
C936 N933 1.313 . S
C936 N937 1.344 . S
C936 H940 0.930 . S
N937 C934 1.377 . S
N937 C936 1.344 . S
O938 Co930 2.055 . S
O938 C942 1.253 . S
H939 C935 0.931 . S
H940 C936 0.930 . S
O941 Co930 2.039 . S
O941 C931 1.265 . S
C942 O938 1.253 . S
C942 O943 1.227 . S
O943 C942 1.227 . S
N944 Co930 2.140 . S
N944 C947 1.346 . S
N944 C948 1.345 . S
C945 C946 1.387 . S
C945 C949 1.391 . S
C946 C945 1.387 . S
C946 C947 1.369 . S
C946 H955 0.929 . S
C947 N944 1.346 . S
C947 C946 1.369 . S
C947 H950 0.928 . S
C948 N944 1.345 . S
C948 C949 1.371 . S
C948 H951 0.931 . S
C949 C945 1.391 . S
C949 C948 1.371 . S
C949 H956 0.930 . S
H950 C947 0.928 . S
H951 C948 0.931 . S
H952 C928 0.930 . S
H953 C925 0.930 . S
H954 C934 0.930 . S
H955 C946 0.929 . S
H956 C949 0.930 . S
C957 C958 1.351 . S
C957 N960 1.368 . S
C957 H962 0.931 . S
C958 C957 1.351 . S
C958 N959 1.373 . S
C958 H986 0.930 . S
N959 C958 1.373 . S
N959 C961 1.340 . S
N960 C957 1.368 . S
N960 C961 1.321 . S
N960 Co963 2.135 . S
C961 N959 1.340 . S
C961 N960 1.321 . S
C961 H985 0.930 . S
H962 C957 0.931 . S
Co963 N960 2.135 . S
Co963 N966 2.121 . S
Co963 O971 2.055 . S
Co963 O974 2.039 . S
Co963 N977 2.140 . S
C964 O965 1.227 . S
C964 O974 1.265 . S
O965 C964 1.227 . S
N966 Co963 2.121 . S
N966 C968 1.375 . S
N966 C969 1.313 . S
C967 C968 1.338 . S
C967 N970 1.377 . S
C967 H987 0.930 . S
C968 N966 1.375 . S
C968 C967 1.338 . S
C968 H972 0.931 . S
C969 N966 1.313 . S
C969 N970 1.344 . S
C969 H973 0.930 . S
N970 C967 1.377 . S
N970 C969 1.344 . S
O971 Co963 2.055 . S
O971 C975 1.253 . S
H972 C968 0.931 . S
H973 C969 0.930 . S
O974 Co963 2.039 . S
O974 C964 1.265 . S
C975 O971 1.253 . S
C975 O976 1.227 . S
O976 C975 1.227 . S
N977 Co963 2.140 . S
N977 C980 1.346 . S
N977 C981 1.345 . S
C978 C979 1.387 . S
C978 C982 1.391 . S
C979 C978 1.387 . S
C979 C980 1.369 . S
C979 H988 0.929 . S
C980 N977 1.346 . S
C980 C979 1.369 . S
C980 H983 0.928 . S
C981 N977 1.345 . S
C981 C982 1.371 . S
C981 H984 0.931 . S
C982 C978 1.391 . S
C982 C981 1.371 . S
C982 H989 0.930 . S
H983 C980 0.928 . S
H984 C981 0.931 . S
H985 C961 0.930 . S
H986 C958 0.930 . S
H987 C967 0.930 . S
H988 C979 0.929 . S
H989 C982 0.930 . S
C990 C991 1.351 . S
C990 N993 1.368 . S
C990 H995 0.931 . S
C991 C990 1.351 . S
C991 N992 1.373 . S
C991 H1019 0.930 . S
N992 C991 1.373 . S
N992 C994 1.340 . S
N993 C990 1.368 . S
N993 C994 1.321 . S
N993 Co996 2.135 . S
C994 N992 1.340 . S
C994 N993 1.321 . S
C994 H1018 0.930 . S
H995 C990 0.931 . S
Co996 N993 2.135 . S
Co996 N999 2.121 . S
Co996 O1004 2.055 . S
Co996 O1007 2.039 . S
Co996 N1010 2.140 . S
C997 O998 1.227 . S
C997 O1007 1.265 . S
O998 C997 1.227 . S
N999 Co996 2.121 . S
N999 C1001 1.375 . S
N999 C1002 1.313 . S
C1000 C1001 1.338 . S
C1000 N1003 1.377 . S
C1000 H1020 0.930 . S
C1001 N999 1.375 . S
C1001 C1000 1.338 . S
C1001 H1005 0.931 . S
C1002 N999 1.313 . S
C1002 N1003 1.344 . S
C1002 H1006 0.930 . S
N1003 C1000 1.377 . S
N1003 C1002 1.344 . S
O1004 Co996 2.055 . S
O1004 C1008 1.253 . S
H1005 C1001 0.931 . S
H1006 C1002 0.930 . S
O1007 Co996 2.039 . S
O1007 C997 1.265 . S
C1008 O1004 1.253 . S
C1008 O1009 1.227 . S
O1009 C1008 1.227 . S
N1010 Co996 2.140 . S
N1010 C1013 1.346 . S
N1010 C1014 1.345 . S
C1011 C1012 1.387 . S
C1011 C1015 1.391 . S
C1012 C1011 1.387 . S
C1012 C1013 1.369 . S
C1012 H1021 0.929 . S
C1013 N1010 1.346 . S
C1013 C1012 1.369 . S
C1013 H1016 0.928 . S
C1014 N1010 1.345 . S
C1014 C1015 1.371 . S
C1014 H1017 0.931 . S
C1015 C1011 1.391 . S
C1015 C1014 1.371 . S
C1015 H1022 0.930 . S
H1016 C1013 0.928 . S
H1017 C1014 0.931 . S
H1018 C994 0.930 . S
H1019 C991 0.930 . S
H1020 C1000 0.930 . S
H1021 C1012 0.929 . S
H1022 C1015 0.930 . S
C1023 C1024 1.351 . S
C1023 N1026 1.368 . S
C1023 H1028 0.931 . S
C1024 C1023 1.351 . S
C1024 N1025 1.373 . S
C1024 H1052 0.930 . S
N1025 C1024 1.373 . S
N1025 C1027 1.340 . S
N1026 C1023 1.368 . S
N1026 C1027 1.321 . S
N1026 Co1029 2.135 . S
C1027 N1025 1.340 . S
C1027 N1026 1.321 . S
C1027 H1051 0.930 . S
H1028 C1023 0.931 . S
Co1029 N1026 2.135 . S
Co1029 N1032 2.121 . S
Co1029 O1037 2.055 . S
Co1029 O1040 2.039 . S
Co1029 N1043 2.140 . S
C1030 O1031 1.227 . S
C1030 O1040 1.265 . S
O1031 C1030 1.227 . S
N1032 Co1029 2.121 . S
N1032 C1034 1.375 . S
N1032 C1035 1.313 . S
C1033 C1034 1.338 . S
C1033 N1036 1.377 . S
C1033 H1053 0.930 . S
C1034 N1032 1.375 . S
C1034 C1033 1.338 . S
C1034 H1038 0.931 . S
C1035 N1032 1.313 . S
C1035 N1036 1.344 . S
C1035 H1039 0.930 . S
N1036 C1033 1.377 . S
N1036 C1035 1.344 . S
O1037 Co1029 2.055 . S
O1037 C1041 1.253 . S
H1038 C1034 0.931 . S
H1039 C1035 0.930 . S
O1040 Co1029 2.039 . S
O1040 C1030 1.265 . S
C1041 O1037 1.253 . S
C1041 O1042 1.227 . S
O1042 C1041 1.227 . S
N1043 Co1029 2.140 . S
N1043 C1046 1.346 . S
N1043 C1047 1.345 . S
C1044 C1045 1.387 . S
C1044 C1048 1.391 . S
C1045 C1044 1.387 . S
C1045 C1046 1.369 . S
C1045 H1054 0.929 . S
C1046 N1043 1.346 . S
C1046 C1045 1.369 . S
C1046 H1049 0.928 . S
C1047 N1043 1.345 . S
C1047 C1048 1.371 . S
C1047 H1050 0.931 . S
C1048 C1044 1.391 . S
C1048 C1047 1.371 . S
C1048 H1055 0.930 . S
H1049 C1046 0.928 . S
H1050 C1047 0.931 . S
H1051 C1027 0.930 . S
H1052 C1024 0.930 . S
H1053 C1033 0.930 . S
H1054 C1045 0.929 . S
H1055 C1048 0.930 . S
H1056 C1064 0.950 . S
H1057 C1069 0.950 . S
H1058 C1066 0.950 . S
H1059 C1068 0.950 . S
H1060 C1070 0.950 . S
H1061 C1072 0.950 . S
H1062 C1074 0.950 . S
H1063 C1075 0.950 . S
C1064 H1056 0.950 . S
C1064 C1065 1.386 1_455 S
C1064 C1066 1.391 . S
C1065 C1064 1.386 1_655 S
C1065 C1069 1.393 . S
C1066 H1058 0.950 . S
C1066 C1064 1.391 . S
C1066 C1067 1.400 1_455 S
C1067 C1066 1.400 1_655 S
C1067 C1068 1.398 . S
C1067 C1073 1.491 . S
C1068 H1059 0.950 . S
C1068 C1067 1.398 . S
C1068 C1069 1.391 . S
C1069 H1057 0.950 . S
C1069 C1065 1.393 . S
C1069 C1068 1.391 . S
C1070 H1060 0.950 . S
C1070 C1071 1.386 . S
C1070 C1072 1.391 . S
C1071 C1070 1.386 . S
C1071 C1075 1.393 1_655 S
C1072 H1061 0.950 . S
C1072 C1070 1.391 . S
C1072 C1073 1.400 . S
C1073 C1067 1.491 . S
C1073 C1072 1.400 . S
C1073 C1074 1.398 1_655 S
C1074 H1062 0.950 . S
C1074 C1073 1.398 1_455 S
C1074 C1075 1.391 . S
C1075 H1063 0.950 . S
C1075 C1071 1.393 1_455 S
C1075 C1074 1.391 . S
H1076 C1084 0.950 . S
H1077 C1089 0.950 . S
H1078 C1086 0.950 . S
H1079 C1088 0.950 . S
H1080 C1090 0.950 . S
H1081 C1092 0.950 . S
H1082 C1094 0.950 . S
H1083 C1095 0.950 . S
C1084 H1076 0.950 . S
C1084 C1085 1.386 . S
C1084 C1086 1.391 . S
C1085 C1084 1.386 . S
C1085 C1089 1.393 . S
C1086 H1078 0.950 . S
C1086 C1084 1.391 . S
C1086 C1087 1.400 . S
C1087 C1086 1.400 . S
C1087 C1088 1.398 . S
C1087 C1093 1.491 . S
C1088 H1079 0.950 . S
C1088 C1087 1.398 . S
C1088 C1089 1.391 . S
C1089 H1077 0.950 . S
C1089 C1085 1.393 . S
C1089 C1088 1.391 . S
C1090 H1080 0.950 . S
C1090 C1091 1.386 . S
C1090 C1092 1.391 . S
C1091 C1090 1.386 . S
C1091 C1095 1.393 . S
C1092 H1081 0.950 . S
C1092 C1090 1.391 . S
C1092 C1093 1.400 . S
C1093 C1087 1.491 . S
C1093 C1092 1.400 . S
C1093 C1094 1.398 . S
C1094 H1082 0.950 . S
C1094 C1093 1.398 . S
C1094 C1095 1.391 . S
C1095 H1083 0.950 . S
C1095 C1091 1.393 . S
C1095 C1094 1.391 . S
H1096 C1104 0.950 . S
H1097 C1109 0.950 . S
H1098 C1106 0.950 . S
H1099 C1108 0.950 . S
H1100 C1110 0.950 . S
H1101 C1112 0.950 . S
H1102 C1114 0.950 . S
H1103 C1115 0.950 . S
C1104 H1096 0.950 . S
C1104 C1105 1.386 1_655 S
C1104 C1106 1.391 . S
C1105 C1104 1.386 1_455 S
C1105 C1109 1.393 . S
C1106 H1098 0.950 . S
C1106 C1104 1.391 . S
C1106 C1107 1.400 1_655 S
C1107 C1106 1.400 1_455 S
C1107 C1108 1.398 . S
C1107 C1113 1.491 . S
C1108 H1099 0.950 . S
C1108 C1107 1.398 . S
C1108 C1109 1.391 . S
C1109 H1097 0.950 . S
C1109 C1105 1.393 . S
C1109 C1108 1.391 . S
C1110 H1100 0.950 . S
C1110 C1111 1.386 . S
C1110 C1112 1.391 . S
C1111 C1110 1.386 . S
C1111 C1115 1.393 1_455 S
C1112 H1101 0.950 . S
C1112 C1110 1.391 . S
C1112 C1113 1.400 . S
C1113 C1107 1.491 . S
C1113 C1112 1.400 . S
C1113 C1114 1.398 1_455 S
C1114 H1102 0.950 . S
C1114 C1113 1.398 1_655 S
C1114 C1115 1.391 . S
C1115 H1103 0.950 . S
C1115 C1111 1.393 1_655 S
C1115 C1114 1.391 . S
H1116 C1124 0.950 . S
H1117 C1129 0.950 . S
H1118 C1126 0.950 . S
H1119 C1128 0.950 . S
H1120 C1130 0.950 . S
H1121 C1132 0.950 . S
H1122 C1134 0.950 . S
H1123 C1135 0.950 . S
C1124 H1116 0.950 . S
C1124 C1125 1.386 . S
C1124 C1126 1.391 . S
C1125 C1124 1.386 . S
C1125 C1129 1.393 . S
C1126 H1118 0.950 . S
C1126 C1124 1.391 . S
C1126 C1127 1.400 . S
C1127 C1126 1.400 . S
C1127 C1128 1.398 . S
C1127 C1133 1.491 . S
C1128 H1119 0.950 . S
C1128 C1127 1.398 . S
C1128 C1129 1.391 . S
C1129 H1117 0.950 . S
C1129 C1125 1.393 . S
C1129 C1128 1.391 . S
C1130 H1120 0.950 . S
C1130 C1131 1.386 . S
C1130 C1132 1.391 . S
C1131 C1130 1.386 . S
C1131 C1135 1.393 . S
C1132 H1121 0.950 . S
C1132 C1130 1.391 . S
C1132 C1133 1.400 . S
C1133 C1127 1.491 . S
C1133 C1132 1.400 . S
C1133 C1134 1.398 . S
C1134 H1122 0.950 . S
C1134 C1133 1.398 . S
C1134 C1135 1.391 . S
C1135 H1123 0.950 . S
C1135 C1131 1.393 . S
C1135 C1134 1.391 . S
H1136 C1144 0.950 . S
H1137 C1149 0.949 1_455 S
H1138 C1146 0.950 . S
H1139 C1148 0.945 1_455 S
H1140 C1150 0.950 1_556 S
H1141 C1152 0.978 . S
H1142 C1154 0.950 . S
H1143 C1155 0.950 . S
C1144 H1136 0.950 . S
C1144 C1145 1.386 . S
C1144 C1146 1.391 . S
C1145 C1144 1.386 . S
C1145 C1149 1.393 . S
C1146 H1138 0.950 . S
C1146 C1144 1.391 . S
C1146 C1147 1.400 . S
C1147 C1146 1.400 . S
C1147 C1148 1.404 . S
C1147 C1153 1.491 . S
C1148 H1139 0.945 1_655 S
C1148 C1147 1.404 . S
C1148 C1149 1.391 . S
C1149 H1137 0.949 1_655 S
C1149 C1145 1.393 . S
C1149 C1148 1.391 . S
C1150 H1140 0.950 1_554 S
C1150 C1151 1.386 1_455 S
C1150 C1152 1.393 . S
C1151 C1150 1.386 1_655 S
C1151 C1155 1.393 . S
C1152 H1141 0.978 . S
C1152 C1150 1.393 . S
C1152 C1153 1.374 1_455 S
C1153 C1147 1.491 . S
C1153 C1152 1.374 1_655 S
C1153 C1154 1.398 . S
C1154 H1142 0.950 . S
C1154 C1153 1.398 . S
C1154 C1155 1.391 . S
C1155 H1143 0.950 . S
C1155 C1151 1.393 . S
C1155 C1154 1.391 . S
H1156 C1164 0.950 . S
H1157 C1169 0.950 . S
H1158 C1166 0.950 . S
H1159 C1168 0.950 . S
H1160 C1170 0.950 . S
H1161 C1172 0.950 . S
H1162 C1174 0.950 . S
H1163 C1175 0.950 . S
C1164 H1156 0.950 . S
C1164 C1165 1.386 . S
C1164 C1166 1.391 . S
C1165 C1164 1.386 . S
C1165 C1169 1.393 . S
C1166 H1158 0.950 . S
C1166 C1164 1.391 . S
C1166 C1167 1.400 . S
C1167 C1166 1.400 . S
C1167 C1168 1.398 . S
C1167 C1173 1.491 . S
C1168 H1159 0.950 . S
C1168 C1167 1.398 . S
C1168 C1169 1.391 . S
C1169 H1157 0.950 . S
C1169 C1165 1.393 . S
C1169 C1168 1.391 . S
C1170 H1160 0.950 . S
C1170 C1171 1.386 . S
C1170 C1172 1.391 . S
C1171 C1170 1.386 . S
C1171 C1175 1.393 . S
C1172 H1161 0.950 . S
C1172 C1170 1.391 . S
C1172 C1173 1.400 . S
C1173 C1167 1.491 . S
C1173 C1172 1.400 . S
C1173 C1174 1.398 . S
C1174 H1162 0.950 . S
C1174 C1173 1.398 . S
C1174 C1175 1.391 . S
C1175 H1163 0.950 . S
C1175 C1171 1.393 . S
C1175 C1174 1.391 . S
H1176 C1184 0.954 1_554 S
H1177 C1189 0.950 . S
H1178 C1186 0.949 . S
H1179 C1188 0.950 . S
H1180 C1190 0.950 . S
H1181 C1192 0.950 . S
H1182 C1194 0.950 1_655 S
H1183 C1195 0.950 1_655 S
C1184 H1176 0.954 1_556 S
C1184 C1185 1.381 1_655 S
C1184 C1186 1.391 . S
C1185 C1184 1.381 1_455 S
C1185 C1189 1.393 . S
C1186 H1178 0.949 . S
C1186 C1184 1.391 . S
C1186 C1187 1.401 1_655 S
C1187 C1186 1.401 1_455 S
C1187 C1188 1.398 . S
C1187 C1193 1.491 . S
C1188 H1179 0.950 . S
C1188 C1187 1.398 . S
C1188 C1189 1.391 . S
C1189 H1177 0.950 . S
C1189 C1185 1.393 . S
C1189 C1188 1.391 . S
C1190 H1180 0.950 . S
C1190 C1191 1.386 . S
C1190 C1192 1.391 . S
C1191 C1190 1.386 . S
C1191 C1195 1.393 . S
C1192 H1181 0.950 . S
C1192 C1190 1.391 . S
C1192 C1193 1.400 . S
C1193 C1187 1.491 . S
C1193 C1192 1.400 . S
C1193 C1194 1.398 . S
C1194 H1182 0.950 1_455 S
C1194 C1193 1.398 . S
C1194 C1195 1.391 . S
C1195 H1183 0.950 1_455 S
C1195 C1191 1.393 . S
C1195 C1194 1.391 . S
H1196 C1204 0.950 . S
H1197 C1209 0.950 1_554 S
H1198 C1206 0.950 . S
H1199 C1208 0.950 . S
H1200 C1210 0.950 . S
H1201 C1212 0.950 . S
H1202 C1214 0.950 . S
H1203 C1215 0.950 . S
C1204 H1196 0.950 . S
C1204 C1205 1.386 . S
C1204 C1206 1.391 . S
C1205 C1204 1.386 . S
C1205 C1209 1.393 . S
C1206 H1198 0.950 . S
C1206 C1204 1.391 . S
C1206 C1207 1.400 . S
C1207 C1206 1.400 . S
C1207 C1208 1.398 . S
C1207 C1213 1.491 . S
C1208 H1199 0.950 . S
C1208 C1207 1.398 . S
C1208 C1209 1.391 . S
C1209 H1197 0.950 1_556 S
C1209 C1205 1.393 . S
C1209 C1208 1.391 . S
C1210 H1200 0.950 . S
C1210 C1211 1.386 . S
C1210 C1212 1.391 . S
C1211 C1210 1.386 . S
C1211 C1215 1.393 . S
C1212 H1201 0.950 . S
C1212 C1210 1.391 . S
C1212 C1213 1.400 . S
C1213 C1207 1.491 . S
C1213 C1212 1.400 . S
C1213 C1214 1.398 . S
C1214 H1202 0.950 . S
C1214 C1213 1.398 . S
C1214 C1215 1.391 . S
C1215 H1203 0.950 . S
C1215 C1211 1.393 . S
C1215 C1214 1.391 . S
H1216 C1224 0.950 . S
H1217 C1229 0.950 . S
H1218 C1226 0.950 . S
H1219 C1228 0.950 . S
H1220 C1230 0.950 . S
H1221 C1232 0.950 . S
H1222 C1234 0.950 . S
H1223 C1235 0.950 . S
C1224 H1216 0.950 . S
C1224 C1225 1.386 . S
C1224 C1226 1.391 . S
C1225 C1224 1.386 . S
C1225 C1229 1.393 . S
C1226 H1218 0.950 . S
C1226 C1224 1.391 . S
C1226 C1227 1.400 . S
C1227 C1226 1.400 . S
C1227 C1228 1.398 . S
C1227 C1233 1.491 . S
C1228 H1219 0.950 . S
C1228 C1227 1.398 . S
C1228 C1229 1.391 . S
C1229 H1217 0.950 . S
C1229 C1225 1.393 . S
C1229 C1228 1.391 . S
C1230 H1220 0.950 . S
C1230 C1231 1.391 . S
C1230 C1232 1.391 . S
C1231 C1230 1.391 . S
C1231 C1235 1.397 . S
C1232 H1221 0.950 . S
C1232 C1230 1.391 . S
C1232 C1233 1.400 . S
C1233 C1227 1.491 . S
C1233 C1232 1.400 . S
C1233 C1234 1.398 . S
C1234 H1222 0.950 . S
C1234 C1233 1.398 . S
C1234 C1235 1.391 . S
C1235 H1223 0.950 . S
C1235 C1231 1.397 . S
C1235 C1234 1.391 . S
H1236 C1244 0.950 . S
H1237 C1249 0.950 . S
H1238 C1246 0.950 . S
H1239 C1248 0.950 . S
H1240 C1250 0.950 . S
H1241 C1252 0.950 . S
H1242 C1254 0.950 . S
H1243 C1255 0.950 1_556 S
C1244 H1236 0.950 . S
C1244 C1245 1.386 . S
C1244 C1246 1.391 . S
C1245 C1244 1.386 . S
C1245 C1249 1.393 . S
C1246 H1238 0.950 . S
C1246 C1244 1.391 . S
C1246 C1247 1.400 . S
C1247 C1246 1.400 . S
C1247 C1248 1.398 . S
C1247 C1253 1.491 . S
C1248 H1239 0.950 . S
C1248 C1247 1.398 . S
C1248 C1249 1.391 . S
C1249 H1237 0.950 . S
C1249 C1245 1.393 . S
C1249 C1248 1.391 . S
C1250 H1240 0.950 . S
C1250 C1251 1.392 . S
C1250 C1252 1.391 . S
C1251 C1250 1.392 . S
C1251 C1255 1.396 . S
C1252 H1241 0.950 . S
C1252 C1250 1.391 . S
C1252 C1253 1.400 . S
C1253 C1247 1.491 . S
C1253 C1252 1.400 . S
C1253 C1254 1.398 . S
C1254 H1242 0.950 . S
C1254 C1253 1.398 . S
C1254 C1255 1.391 . S
C1255 H1243 0.950 1_554 S
C1255 C1251 1.396 . S
C1255 C1254 1.391 . S
H1256 C1264 0.950 1_554 S
H1257 C1269 0.950 . S
H1258 C1266 0.950 . S
H1259 C1268 0.950 . S
H1260 C1270 0.950 . S
H1261 C1272 0.950 . S
H1262 C1274 0.950 . S
H1263 C1275 0.950 . S
C1264 H1256 0.950 1_556 S
C1264 C1265 1.386 . S
C1264 C1266 1.391 . S
C1265 C1264 1.386 . S
C1265 C1269 1.393 . S
C1266 H1258 0.950 . S
C1266 C1264 1.391 . S
C1266 C1267 1.400 . S
C1267 C1266 1.400 . S
C1267 C1268 1.398 . S
C1267 C1273 1.491 . S
C1268 H1259 0.950 . S
C1268 C1267 1.398 . S
C1268 C1269 1.391 . S
C1269 H1257 0.950 . S
C1269 C1265 1.393 . S
C1269 C1268 1.391 . S
C1270 H1260 0.950 . S
C1270 C1271 1.386 . S
C1270 C1272 1.391 . S
C1271 C1270 1.386 . S
C1271 C1275 1.393 . S
C1272 H1261 0.950 . S
C1272 C1270 1.391 . S
C1272 C1273 1.400 . S
C1273 C1267 1.491 . S
C1273 C1272 1.400 . S
C1273 C1274 1.398 . S
C1274 H1262 0.950 . S
C1274 C1273 1.398 . S
C1274 C1275 1.391 . S
C1275 H1263 0.950 . S
C1275 C1271 1.393 . S
C1275 C1274 1.391 . S
H1276 C1284 0.950 . S
H1277 C1289 0.950 . S
H1278 C1286 0.950 . S
H1279 C1288 0.950 . S
H1280 C1290 0.950 . S
H1281 C1292 0.950 . S
H1282 C1294 0.950 . S
H1283 C1295 0.950 . S
C1284 H1276 0.950 . S
C1284 C1285 1.386 . S
C1284 C1286 1.391 . S
C1285 C1284 1.386 . S
C1285 C1289 1.393 . S
C1286 H1278 0.950 . S
C1286 C1284 1.391 . S
C1286 C1287 1.400 . S
C1287 C1286 1.400 . S
C1287 C1288 1.398 . S
C1287 C1293 1.491 . S
C1288 H1279 0.950 . S
C1288 C1287 1.398 . S
C1288 C1289 1.391 . S
C1289 H1277 0.950 . S
C1289 C1285 1.393 . S
C1289 C1288 1.391 . S
C1290 H1280 0.950 . S
C1290 C1291 1.386 . S
C1290 C1292 1.391 . S
C1291 C1290 1.386 . S
C1291 C1295 1.393 . S
C1292 H1281 0.950 . S
C1292 C1290 1.391 . S
C1292 C1293 1.400 . S
C1293 C1287 1.491 . S
C1293 C1292 1.400 . S
C1293 C1294 1.398 . S
C1294 H1282 0.950 . S
C1294 C1293 1.398 . S
C1294 C1295 1.391 . S
C1295 H1283 0.950 . S
C1295 C1291 1.393 . S
C1295 C1294 1.391 . S
H1296 C1304 0.950 . S
H1297 C1309 0.950 . S
H1298 C1306 0.950 . S
H1299 C1308 0.950 . S
H1300 C1310 0.950 . S
H1301 C1312 0.950 . S
H1302 C1314 0.950 . S
H1303 C1315 0.950 . S
C1304 H1296 0.950 . S
C1304 C1305 1.386 . S
C1304 C1306 1.391 . S
C1305 C1304 1.386 . S
C1305 C1309 1.393 . S
C1306 H1298 0.950 . S
C1306 C1304 1.391 . S
C1306 C1307 1.400 . S
C1307 C1306 1.400 . S
C1307 C1308 1.398 . S
C1307 C1313 1.491 . S
C1308 H1299 0.950 . S
C1308 C1307 1.398 . S
C1308 C1309 1.391 . S
C1309 H1297 0.950 . S
C1309 C1305 1.393 . S
C1309 C1308 1.391 . S
C1310 H1300 0.950 . S
C1310 C1311 1.386 . S
C1310 C1312 1.391 . S
C1311 C1310 1.386 . S
C1311 C1315 1.393 . S
C1312 H1301 0.950 . S
C1312 C1310 1.391 . S
C1312 C1313 1.400 . S
C1313 C1307 1.491 . S
C1313 C1312 1.400 . S
C1313 C1314 1.398 . S
C1314 H1302 0.950 . S
C1314 C1313 1.398 . S
C1314 C1315 1.391 . S
C1315 H1303 0.950 . S
C1315 C1311 1.393 . S
C1315 C1314 1.391 . S
H1316 C1324 0.950 . S
H1317 C1329 0.950 . S
H1318 C1326 0.950 . S
H1319 C1328 0.950 . S
H1320 C1330 0.950 . S
H1321 C1332 0.950 . S
H1322 C1334 0.950 . S
H1323 C1335 0.950 . S
C1324 H1316 0.950 . S
C1324 C1325 1.386 . S
C1324 C1326 1.391 . S
C1325 C1324 1.386 . S
C1325 C1329 1.393 . S
C1326 H1318 0.950 . S
C1326 C1324 1.391 . S
C1326 C1327 1.400 . S
C1327 C1326 1.400 . S
C1327 C1328 1.398 . S
C1327 C1333 1.491 . S
C1328 H1319 0.950 . S
C1328 C1327 1.398 . S
C1328 C1329 1.391 . S
C1329 H1317 0.950 . S
C1329 C1325 1.393 . S
C1329 C1328 1.391 . S
C1330 H1320 0.950 . S
C1330 C1331 1.386 . S
C1330 C1332 1.391 . S
C1331 C1330 1.386 . S
C1331 C1335 1.393 . S
C1332 H1321 0.950 . S
C1332 C1330 1.391 . S
C1332 C1333 1.400 . S
C1333 C1327 1.491 . S
C1333 C1332 1.400 . S
C1333 C1334 1.398 . S
C1334 H1322 0.950 . S
C1334 C1333 1.398 . S
C1334 C1335 1.391 . S
C1335 H1323 0.950 . S
C1335 C1331 1.393 . S
C1335 C1334 1.391 . S
H1336 C1344 0.950 . S
H1337 C1349 0.950 . S
H1338 C1346 0.950 . S
H1339 C1348 0.950 . S
H1340 C1350 0.950 . S
H1341 C1352 0.950 . S
H1342 C1354 0.950 . S
H1343 C1355 0.950 . S
C1344 H1336 0.950 . S
C1344 C1345 1.386 . S
C1344 C1346 1.391 . S
C1345 C1344 1.386 . S
C1345 C1349 1.393 . S
C1346 H1338 0.950 . S
C1346 C1344 1.391 . S
C1346 C1347 1.400 . S
C1347 C1346 1.400 . S
C1347 C1348 1.398 . S
C1347 C1353 1.491 . S
C1348 H1339 0.950 . S
C1348 C1347 1.398 . S
C1348 C1349 1.391 . S
C1349 H1337 0.950 . S
C1349 C1345 1.393 . S
C1349 C1348 1.391 . S
C1350 H1340 0.950 . S
C1350 C1351 1.386 . S
C1350 C1352 1.391 . S
C1351 C1350 1.386 . S
C1351 C1355 1.393 . S
C1352 H1341 0.950 . S
C1352 C1350 1.391 . S
C1352 C1353 1.400 . S
C1353 C1347 1.491 . S
C1353 C1352 1.400 . S
C1353 C1354 1.398 . S
C1354 H1342 0.950 . S
C1354 C1353 1.398 . S
C1354 C1355 1.391 . S
C1355 H1343 0.950 . S
C1355 C1351 1.393 . S
C1355 C1354 1.391 . S
H1356 C1364 0.950 . S
H1357 C1369 0.950 . S
H1358 C1366 0.950 . S
H1359 C1368 0.950 . S
H1360 C1370 0.950 . S
H1361 C1372 0.950 . S
H1362 C1374 0.950 . S
H1363 C1375 0.950 . S
C1364 H1356 0.950 . S
C1364 C1365 1.386 . S
C1364 C1366 1.391 . S
C1365 C1364 1.386 . S
C1365 C1369 1.393 . S
C1366 H1358 0.950 . S
C1366 C1364 1.391 . S
C1366 C1367 1.400 . S
C1367 C1366 1.400 . S
C1367 C1368 1.398 . S
C1367 C1373 1.491 . S
C1368 H1359 0.950 . S
C1368 C1367 1.398 . S
C1368 C1369 1.391 . S
C1369 H1357 0.950 . S
C1369 C1365 1.393 . S
C1369 C1368 1.391 . S
C1370 H1360 0.950 . S
C1370 C1371 1.386 . S
C1370 C1372 1.391 . S
C1371 C1370 1.386 . S
C1371 C1375 1.393 . S
C1372 H1361 0.950 . S
C1372 C1370 1.391 . S
C1372 C1373 1.400 . S
C1373 C1367 1.491 . S
C1373 C1372 1.400 . S
C1373 C1374 1.398 . S
C1374 H1362 0.950 . S
C1374 C1373 1.398 . S
C1374 C1375 1.391 . S
C1375 H1363 0.950 . S
C1375 C1371 1.393 . S
C1375 C1374 1.391 . S
H1376 C1384 0.950 . S
H1377 C1389 0.950 . S
H1378 C1386 0.950 . S
H1379 C1388 0.950 . S
H1380 C1390 0.950 . S
H1381 C1392 0.950 . S
H1382 C1394 0.950 . S
H1383 C1395 0.950 . S
C1384 H1376 0.950 . S
C1384 C1385 1.386 . S
C1384 C1386 1.391 . S
C1385 C1384 1.386 . S
C1385 C1389 1.393 . S
C1386 H1378 0.950 . S
C1386 C1384 1.391 . S
C1386 C1387 1.400 . S
C1387 C1386 1.400 . S
C1387 C1388 1.398 . S
C1387 C1393 1.491 . S
C1388 H1379 0.950 . S
C1388 C1387 1.398 . S
C1388 C1389 1.391 . S
C1389 H1377 0.950 . S
C1389 C1385 1.393 . S
C1389 C1388 1.391 . S
C1390 H1380 0.950 . S
C1390 C1391 1.386 . S
C1390 C1392 1.391 . S
C1391 C1390 1.386 . S
C1391 C1395 1.393 . S
C1392 H1381 0.950 . S
C1392 C1390 1.391 . S
C1392 C1393 1.400 . S
C1393 C1387 1.491 . S
C1393 C1392 1.400 . S
C1393 C1394 1.398 . S
C1394 H1382 0.950 . S
C1394 C1393 1.398 . S
C1394 C1395 1.391 . S
C1395 H1383 0.950 . S
C1395 C1391 1.393 . S
C1395 C1394 1.391 . S
H1396 C1404 0.950 . S
H1397 C1409 0.950 . S
H1398 C1406 0.950 . S
H1399 C1408 0.950 . S
H1400 C1410 0.950 . S
H1401 C1412 0.950 . S
H1402 C1414 0.950 . S
H1403 C1415 0.950 . S
C1404 H1396 0.950 . S
C1404 C1405 1.386 . S
C1404 C1406 1.391 . S
C1405 C1404 1.386 . S
C1405 C1409 1.393 . S
C1406 H1398 0.950 . S
C1406 C1404 1.391 . S
C1406 C1407 1.400 . S
C1407 C1406 1.400 . S
C1407 C1408 1.398 . S
C1407 C1413 1.491 . S
C1408 H1399 0.950 . S
C1408 C1407 1.398 . S
C1408 C1409 1.391 . S
C1409 H1397 0.950 . S
C1409 C1405 1.393 . S
C1409 C1408 1.391 . S
C1410 H1400 0.950 . S
C1410 C1411 1.386 . S
C1410 C1412 1.391 . S
C1411 C1410 1.386 . S
C1411 C1415 1.393 . S
C1412 H1401 0.950 . S
C1412 C1410 1.391 . S
C1412 C1413 1.400 . S
C1413 C1407 1.491 . S
C1413 C1412 1.400 . S
C1413 C1414 1.398 . S
C1414 H1402 0.950 . S
C1414 C1413 1.398 . S
C1414 C1415 1.391 . S
C1415 H1403 0.950 . S
C1415 C1411 1.393 . S
C1415 C1414 1.391 . S
H1416 C1424 0.950 . S
H1417 C1429 0.950 . S
H1418 C1426 0.950 . S
H1419 C1428 0.950 . S
H1420 C1430 0.950 . S
H1421 C1432 0.950 . S
H1422 C1434 0.950 . S
H1423 C1435 0.950 . S
C1424 H1416 0.950 . S
C1424 C1425 1.386 . S
C1424 C1426 1.391 . S
C1425 C1424 1.386 . S
C1425 C1429 1.393 . S
C1426 H1418 0.950 . S
C1426 C1424 1.391 . S
C1426 C1427 1.400 . S
C1427 C1426 1.400 . S
C1427 C1428 1.398 . S
C1427 C1433 1.491 . S
C1428 H1419 0.950 . S
C1428 C1427 1.398 . S
C1428 C1429 1.391 . S
C1429 H1417 0.950 . S
C1429 C1425 1.393 . S
C1429 C1428 1.391 . S
C1430 H1420 0.950 . S
C1430 C1431 1.386 . S
C1430 C1432 1.391 . S
C1431 C1430 1.386 . S
C1431 C1435 1.393 . S
C1432 H1421 0.950 . S
C1432 C1430 1.391 . S
C1432 C1433 1.400 . S
C1433 C1427 1.491 . S
C1433 C1432 1.400 . S
C1433 C1434 1.398 . S
C1434 H1422 0.950 . S
C1434 C1433 1.398 . S
C1434 C1435 1.391 . S
C1435 H1423 0.950 . S
C1435 C1431 1.393 . S
C1435 C1434 1.391 . S
H1436 C1444 0.950 . S
H1437 C1449 0.950 . S
H1438 C1446 0.950 . S
H1439 C1448 0.950 . S
H1440 C1450 0.950 . S
H1441 C1452 0.950 . S
H1442 C1454 0.950 . S
H1443 C1455 0.950 . S
C1444 H1436 0.950 . S
C1444 C1445 1.386 . S
C1444 C1446 1.391 . S
C1445 C1444 1.386 . S
C1445 C1449 1.393 . S
C1446 H1438 0.950 . S
C1446 C1444 1.391 . S
C1446 C1447 1.400 . S
C1447 C1446 1.400 . S
C1447 C1448 1.398 . S
C1447 C1453 1.491 . S
C1448 H1439 0.950 . S
C1448 C1447 1.398 . S
C1448 C1449 1.391 . S
C1449 H1437 0.950 . S
C1449 C1445 1.393 . S
C1449 C1448 1.391 . S
C1450 H1440 0.950 . S
C1450 C1451 1.386 . S
C1450 C1452 1.391 . S
C1451 C1450 1.386 . S
C1451 C1455 1.393 . S
C1452 H1441 0.950 . S
C1452 C1450 1.391 . S
C1452 C1453 1.400 . S
C1453 C1447 1.491 . S
C1453 C1452 1.400 . S
C1453 C1454 1.398 . S
C1454 H1442 0.950 . S
C1454 C1453 1.398 . S
C1454 C1455 1.391 . S
C1455 H1443 0.950 . S
C1455 C1451 1.393 . S
C1455 C1454 1.391 . S
H1456 C1464 0.950 . S
H1457 C1469 0.950 . S
H1458 C1466 0.950 . S
H1459 C1468 0.950 . S
H1460 C1470 0.950 . S
H1461 C1472 0.950 . S
H1462 C1474 0.950 . S
H1463 C1475 0.950 . S
C1464 H1456 0.950 . S
C1464 C1465 1.386 . S
C1464 C1466 1.391 . S
C1465 C1464 1.386 . S
C1465 C1469 1.393 . S
C1466 H1458 0.950 . S
C1466 C1464 1.391 . S
C1466 C1467 1.400 . S
C1467 C1466 1.400 . S
C1467 C1468 1.398 . S
C1467 C1473 1.491 . S
C1468 H1459 0.950 . S
C1468 C1467 1.398 . S
C1468 C1469 1.391 . S
C1469 H1457 0.950 . S
C1469 C1465 1.393 . S
C1469 C1468 1.391 . S
C1470 H1460 0.950 . S
C1470 C1471 1.386 . S
C1470 C1472 1.391 . S
C1471 C1470 1.386 . S
C1471 C1475 1.393 . S
C1472 H1461 0.950 . S
C1472 C1470 1.391 . S
C1472 C1473 1.400 . S
C1473 C1467 1.491 . S
C1473 C1472 1.400 . S
C1473 C1474 1.398 . S
C1474 H1462 0.950 . S
C1474 C1473 1.398 . S
C1474 C1475 1.391 . S
C1475 H1463 0.950 . S
C1475 C1471 1.393 . S
C1475 C1474 1.391 . S
H1476 C1484 0.950 . S
H1477 C1489 0.950 . S
H1478 C1486 0.950 . S
H1479 C1488 0.950 . S
H1480 C1490 0.950 . S
H1481 C1492 0.950 . S
H1482 C1494 0.950 . S
H1483 C1495 0.950 . S
C1484 H1476 0.950 . S
C1484 C1485 1.386 . S
C1484 C1486 1.391 . S
C1485 C1484 1.386 . S
C1485 C1489 1.393 . S
C1486 H1478 0.950 . S
C1486 C1484 1.391 . S
C1486 C1487 1.400 . S
C1487 C1486 1.400 . S
C1487 C1488 1.398 . S
C1487 C1493 1.491 . S
C1488 H1479 0.950 . S
C1488 C1487 1.398 . S
C1488 C1489 1.391 . S
C1489 H1477 0.950 . S
C1489 C1485 1.393 . S
C1489 C1488 1.391 . S
C1490 H1480 0.950 . S
C1490 C1491 1.386 . S
C1490 C1492 1.391 . S
C1491 C1490 1.386 . S
C1491 C1495 1.393 . S
C1492 H1481 0.950 . S
C1492 C1490 1.391 . S
C1492 C1493 1.400 . S
C1493 C1487 1.491 . S
C1493 C1492 1.400 . S
C1493 C1494 1.398 . S
C1494 H1482 0.950 . S
C1494 C1493 1.398 . S
C1494 C1495 1.391 . S
C1495 H1483 0.950 . S
C1495 C1491 1.393 . S
C1495 C1494 1.391 . S
H1496 C1504 0.950 . S
H1497 C1509 0.950 . S
H1498 C1506 0.950 . S
H1499 C1508 0.950 . S
H1500 C1510 0.950 . S
H1501 C1512 0.950 . S
H1502 C1514 0.950 . S
H1503 C1515 0.950 . S
C1504 H1496 0.950 . S
C1504 C1505 1.386 . S
C1504 C1506 1.391 . S
C1505 C1504 1.386 . S
C1505 C1509 1.393 . S
C1506 H1498 0.950 . S
C1506 C1504 1.391 . S
C1506 C1507 1.400 . S
C1507 C1506 1.400 . S
C1507 C1508 1.398 . S
C1507 C1513 1.491 . S
C1508 H1499 0.950 . S
C1508 C1507 1.398 . S
C1508 C1509 1.391 . S
C1509 H1497 0.950 . S
C1509 C1505 1.393 . S
C1509 C1508 1.391 . S
C1510 H1500 0.950 . S
C1510 C1511 1.386 . S
C1510 C1512 1.391 . S
C1511 C1510 1.386 . S
C1511 C1515 1.393 . S
C1512 H1501 0.950 . S
C1512 C1510 1.391 . S
C1512 C1513 1.400 . S
C1513 C1507 1.491 . S
C1513 C1512 1.400 . S
C1513 C1514 1.398 . S
C1514 H1502 0.950 . S
C1514 C1513 1.398 . S
C1514 C1515 1.391 . S
C1515 H1503 0.950 . S
C1515 C1511 1.393 . S
C1515 C1514 1.391 . S
H1516 C1524 0.950 . S
H1517 C1529 0.950 . S
H1518 C1526 0.950 . S
H1519 C1528 0.950 . S
H1520 C1530 0.950 . S
H1521 C1532 0.950 . S
H1522 C1534 0.950 . S
H1523 C1535 0.950 . S
C1524 H1516 0.950 . S
C1524 C1525 1.386 . S
C1524 C1526 1.391 . S
C1525 C1524 1.386 . S
C1525 C1529 1.393 . S
C1526 H1518 0.950 . S
C1526 C1524 1.391 . S
C1526 C1527 1.400 . S
C1527 C1526 1.400 . S
C1527 C1528 1.398 . S
C1527 C1533 1.491 . S
C1528 H1519 0.950 . S
C1528 C1527 1.398 . S
C1528 C1529 1.391 . S
C1529 H1517 0.950 . S
C1529 C1525 1.393 . S
C1529 C1528 1.391 . S
C1530 H1520 0.950 . S
C1530 C1531 1.386 . S
C1530 C1532 1.391 . S
C1531 C1530 1.386 . S
C1531 C1535 1.393 . S
C1532 H1521 0.950 . S
C1532 C1530 1.391 . S
C1532 C1533 1.400 . S
C1533 C1527 1.491 . S
C1533 C1532 1.400 . S
C1533 C1534 1.398 . S
C1534 H1522 0.950 . S
C1534 C1533 1.398 . S
C1534 C1535 1.391 . S
C1535 H1523 0.950 . S
C1535 C1531 1.393 . S
C1535 C1534 1.391 . S
H1536 C1544 0.950 . S
H1537 C1549 0.950 . S
H1538 C1546 0.950 . S
H1539 C1548 0.950 . S
H1540 C1550 0.950 . S
H1541 C1552 0.950 . S
H1542 C1554 0.950 . S
H1543 C1555 0.950 . S
C1544 H1536 0.950 . S
C1544 C1545 1.386 . S
C1544 C1546 1.391 . S
C1545 C1544 1.386 . S
C1545 C1549 1.393 . S
C1546 H1538 0.950 . S
C1546 C1544 1.391 . S
C1546 C1547 1.400 . S
C1547 C1546 1.400 . S
C1547 C1548 1.398 . S
C1547 C1553 1.491 . S
C1548 H1539 0.950 . S
C1548 C1547 1.398 . S
C1548 C1549 1.391 . S
C1549 H1537 0.950 . S
C1549 C1545 1.393 . S
C1549 C1548 1.391 . S
C1550 H1540 0.950 . S
C1550 C1551 1.386 . S
C1550 C1552 1.391 . S
C1551 C1550 1.386 . S
C1551 C1555 1.393 . S
C1552 H1541 0.950 . S
C1552 C1550 1.391 . S
C1552 C1553 1.400 . S
C1553 C1547 1.491 . S
C1553 C1552 1.400 . S
C1553 C1554 1.398 . S
C1554 H1542 0.950 . S
C1554 C1553 1.398 . S
C1554 C1555 1.391 . S
C1555 H1543 0.950 . S
C1555 C1551 1.393 . S
C1555 C1554 1.391 . S
H1556 C1564 0.950 . S
H1557 C1569 0.950 . S
H1558 C1566 0.950 . S
H1559 C1568 0.950 . S
H1560 C1570 0.950 . S
H1561 C1572 0.950 . S
H1562 C1574 0.950 . S
H1563 C1575 0.950 . S
C1564 H1556 0.950 . S
C1564 C1565 1.386 . S
C1564 C1566 1.391 . S
C1565 C1564 1.386 . S
C1565 C1569 1.393 . S
C1566 H1558 0.950 . S
C1566 C1564 1.391 . S
C1566 C1567 1.400 . S
C1567 C1566 1.400 . S
C1567 C1568 1.398 . S
C1567 C1573 1.491 . S
C1568 H1559 0.950 . S
C1568 C1567 1.398 . S
C1568 C1569 1.391 . S
C1569 H1557 0.950 . S
C1569 C1565 1.393 . S
C1569 C1568 1.391 . S
C1570 H1560 0.950 . S
C1570 C1571 1.386 . S
C1570 C1572 1.391 . S
C1571 C1570 1.386 . S
C1571 C1575 1.393 . S
C1572 H1561 0.950 . S
C1572 C1570 1.391 . S
C1572 C1573 1.400 . S
C1573 C1567 1.491 . S
C1573 C1572 1.400 . S
C1573 C1574 1.398 . S
C1574 H1562 0.950 . S
C1574 C1573 1.398 . S
C1574 C1575 1.391 . S
C1575 H1563 0.950 . S
C1575 C1571 1.393 . S
C1575 C1574 1.391 . S
H1576 C1584 0.950 . S
H1577 C1589 0.950 . S
H1578 C1586 0.950 . S
H1579 C1588 0.950 . S
H1580 C1590 0.950 . S
H1581 C1592 0.950 . S
H1582 C1594 0.950 . S
H1583 C1595 0.950 . S
C1584 H1576 0.950 . S
C1584 C1585 1.386 . S
C1584 C1586 1.391 . S
C1585 C1584 1.386 . S
C1585 C1589 1.393 . S
C1586 H1578 0.950 . S
C1586 C1584 1.391 . S
C1586 C1587 1.400 . S
C1587 C1586 1.400 . S
C1587 C1588 1.398 . S
C1587 C1593 1.491 . S
C1588 H1579 0.950 . S
C1588 C1587 1.398 . S
C1588 C1589 1.391 . S
C1589 H1577 0.950 . S
C1589 C1585 1.393 . S
C1589 C1588 1.391 . S
C1590 H1580 0.950 . S
C1590 C1591 1.386 . S
C1590 C1592 1.391 . S
C1591 C1590 1.386 . S
C1591 C1595 1.393 . S
C1592 H1581 0.950 . S
C1592 C1590 1.391 . S
C1592 C1593 1.400 . S
C1593 C1587 1.491 . S
C1593 C1592 1.400 . S
C1593 C1594 1.398 . S
C1594 H1582 0.950 . S
C1594 C1593 1.398 . S
C1594 C1595 1.391 . S
C1595 H1583 0.950 . S
C1595 C1591 1.393 . S
C1595 C1594 1.391 . S
H1596 C1604 0.950 . S
H1597 C1609 0.950 . S
H1598 C1606 0.950 . S
H1599 C1608 0.950 . S
H1600 C1610 0.950 . S
H1601 C1612 0.950 . S
H1602 C1614 0.950 . S
H1603 C1615 0.950 . S
C1604 H1596 0.950 . S
C1604 C1605 1.386 . S
C1604 C1606 1.391 . S
C1605 C1604 1.386 . S
C1605 C1609 1.393 . S
C1606 H1598 0.950 . S
C1606 C1604 1.391 . S
C1606 C1607 1.400 . S
C1607 C1606 1.400 . S
C1607 C1608 1.398 . S
C1607 C1613 1.491 . S
C1608 H1599 0.950 . S
C1608 C1607 1.398 . S
C1608 C1609 1.391 . S
C1609 H1597 0.950 . S
C1609 C1605 1.393 . S
C1609 C1608 1.391 . S
C1610 H1600 0.950 . S
C1610 C1611 1.386 . S
C1610 C1612 1.391 . S
C1611 C1610 1.386 . S
C1611 C1615 1.393 . S
C1612 H1601 0.950 . S
C1612 C1610 1.391 . S
C1612 C1613 1.400 . S
C1613 C1607 1.491 . S
C1613 C1612 1.400 . S
C1613 C1614 1.398 . S
C1614 H1602 0.950 . S
C1614 C1613 1.398 . S
C1614 C1615 1.391 . S
C1615 H1603 0.950 . S
C1615 C1611 1.393 . S
C1615 C1614 1.391 . S
H1616 C1624 0.950 . S
H1617 C1629 0.950 . S
H1618 C1626 0.950 . S
H1619 C1628 0.950 . S
H1620 C1630 0.950 . S
H1621 C1632 0.950 . S
H1622 C1634 0.950 . S
H1623 C1635 0.950 . S
C1624 H1616 0.950 . S
C1624 C1625 1.386 . S
C1624 C1626 1.391 . S
C1625 C1624 1.386 . S
C1625 C1629 1.393 . S
C1626 H1618 0.950 . S
C1626 C1624 1.391 . S
C1626 C1627 1.400 . S
C1627 C1626 1.400 . S
C1627 C1628 1.398 . S
C1627 C1633 1.491 . S
C1628 H1619 0.950 . S
C1628 C1627 1.398 . S
C1628 C1629 1.391 . S
C1629 H1617 0.950 . S
C1629 C1625 1.393 . S
C1629 C1628 1.391 . S
C1630 H1620 0.950 . S
C1630 C1631 1.386 . S
C1630 C1632 1.391 . S
C1631 C1630 1.386 . S
C1631 C1635 1.393 . S
C1632 H1621 0.950 . S
C1632 C1630 1.391 . S
C1632 C1633 1.400 . S
C1633 C1627 1.491 . S
C1633 C1632 1.400 . S
C1633 C1634 1.398 . S
C1634 H1622 0.950 . S
C1634 C1633 1.398 . S
C1634 C1635 1.391 . S
C1635 H1623 0.950 . S
C1635 C1631 1.393 . S
C1635 C1634 1.391 . S
H1636 C1644 0.950 . S
H1637 C1649 0.950 . S
H1638 C1646 0.950 . S
H1639 C1648 0.950 . S
H1640 C1650 0.950 . S
H1641 C1652 0.950 . S
H1642 C1654 0.950 . S
H1643 C1655 0.950 . S
C1644 H1636 0.950 . S
C1644 C1645 1.386 . S
C1644 C1646 1.391 . S
C1645 C1644 1.386 . S
C1645 C1649 1.393 . S
C1646 H1638 0.950 . S
C1646 C1644 1.391 . S
C1646 C1647 1.400 . S
C1647 C1646 1.400 . S
C1647 C1648 1.398 . S
C1647 C1653 1.491 . S
C1648 H1639 0.950 . S
C1648 C1647 1.398 . S
C1648 C1649 1.391 . S
C1649 H1637 0.950 . S
C1649 C1645 1.393 . S
C1649 C1648 1.391 . S
C1650 H1640 0.950 . S
C1650 C1651 1.386 . S
C1650 C1652 1.391 . S
C1651 C1650 1.386 . S
C1651 C1655 1.393 . S
C1652 H1641 0.950 . S
C1652 C1650 1.391 . S
C1652 C1653 1.400 . S
C1653 C1647 1.491 . S
C1653 C1652 1.400 . S
C1653 C1654 1.398 . S
C1654 H1642 0.950 . S
C1654 C1653 1.398 . S
C1654 C1655 1.391 . S
C1655 H1643 0.950 . S
C1655 C1651 1.393 . S
C1655 C1654 1.391 . S
H1656 C1664 0.950 . S
H1657 C1669 0.950 . S
H1658 C1666 0.950 . S
H1659 C1668 0.950 . S
H1660 C1670 0.950 . S
H1661 C1672 0.950 . S
H1662 C1674 0.950 . S
H1663 C1675 0.950 . S
C1664 H1656 0.950 . S
C1664 C1665 1.386 . S
C1664 C1666 1.391 . S
C1665 C1664 1.386 . S
C1665 C1669 1.393 . S
C1666 H1658 0.950 . S
C1666 C1664 1.391 . S
C1666 C1667 1.400 . S
C1667 C1666 1.400 . S
C1667 C1668 1.398 . S
C1667 C1673 1.491 . S
C1668 H1659 0.950 . S
C1668 C1667 1.398 . S
C1668 C1669 1.391 . S
C1669 H1657 0.950 . S
C1669 C1665 1.393 . S
C1669 C1668 1.391 . S
C1670 H1660 0.950 . S
C1670 C1671 1.386 . S
C1670 C1672 1.391 . S
C1671 C1670 1.386 . S
C1671 C1675 1.393 . S
C1672 H1661 0.950 . S
C1672 C1670 1.391 . S
C1672 C1673 1.400 . S
C1673 C1667 1.491 . S
C1673 C1672 1.400 . S
C1673 C1674 1.398 . S
C1674 H1662 0.950 . S
C1674 C1673 1.398 . S
C1674 C1675 1.391 . S
C1675 H1663 0.950 . S
C1675 C1671 1.393 . S
C1675 C1674 1.391 . S
H1676 C1684 0.950 . S
H1677 C1689 0.950 . S
H1678 C1686 0.950 . S
H1679 C1688 0.950 . S
H1680 C1690 0.950 . S
H1681 C1692 0.950 . S
H1682 C1694 0.950 . S
H1683 C1695 0.950 . S
C1684 H1676 0.950 . S
C1684 C1685 1.386 . S
C1684 C1686 1.391 . S
C1685 C1684 1.386 . S
C1685 C1689 1.393 . S
C1686 H1678 0.950 . S
C1686 C1684 1.391 . S
C1686 C1687 1.400 . S
C1687 C1686 1.400 . S
C1687 C1688 1.398 . S
C1687 C1693 1.491 . S
C1688 H1679 0.950 . S
C1688 C1687 1.398 . S
C1688 C1689 1.391 . S
C1689 H1677 0.950 . S
C1689 C1685 1.393 . S
C1689 C1688 1.391 . S
C1690 H1680 0.950 . S
C1690 C1691 1.386 . S
C1690 C1692 1.391 . S
C1691 C1690 1.386 . S
C1691 C1695 1.393 . S
C1692 H1681 0.950 . S
C1692 C1690 1.391 . S
C1692 C1693 1.400 . S
C1693 C1687 1.491 . S
C1693 C1692 1.400 . S
C1693 C1694 1.398 . S
C1694 H1682 0.950 . S
C1694 C1693 1.398 . S
C1694 C1695 1.391 . S
C1695 H1683 0.950 . S
C1695 C1691 1.393 . S
C1695 C1694 1.391 . S
H1696 C1704 0.950 . S
H1697 C1709 0.950 . S
H1698 C1706 0.950 . S
H1699 C1708 0.950 . S
H1700 C1710 0.950 . S
H1701 C1712 0.950 . S
H1702 C1714 0.950 . S
H1703 C1715 0.950 . S
C1704 H1696 0.950 . S
C1704 C1705 1.386 1_455 S
C1704 C1706 1.391 . S
C1705 C1704 1.386 1_655 S
C1705 C1709 1.393 . S
C1706 H1698 0.950 . S
C1706 C1704 1.391 . S
C1706 C1707 1.353 1_455 S
C1707 C1706 1.353 1_655 S
C1707 C1708 1.452 . S
C1707 C1713 1.485 1_665 S
C1708 H1699 0.950 . S
C1708 C1707 1.452 . S
C1708 C1709 1.391 . S
C1709 H1697 0.950 . S
C1709 C1705 1.393 . S
C1709 C1708 1.391 . S
C1710 H1700 0.950 . S
C1710 C1711 1.386 1_655 S
C1710 C1712 1.391 . S
C1711 C1710 1.386 1_455 S
C1711 C1715 1.393 . S
C1712 H1701 0.950 . S
C1712 C1710 1.391 . S
C1712 C1713 1.364 1_655 S
C1713 C1707 1.485 1_445 S
C1713 C1712 1.364 1_455 S
C1713 C1714 1.439 . S
C1714 H1702 0.950 . S
C1714 C1713 1.439 . S
C1714 C1715 1.391 . S
C1715 H1703 0.950 . S
C1715 C1711 1.393 . S
C1715 C1714 1.391 . S
H1716 C1724 0.950 . S
H1717 C1729 0.950 . S
H1718 C1726 0.950 . S
H1719 C1728 0.950 . S
H1720 C1730 0.950 . S
H1721 C1732 0.950 . S
H1722 C1734 0.950 . S
H1723 C1735 0.950 . S
C1724 H1716 0.950 . S
C1724 C1725 1.386 . S
C1724 C1726 1.391 . S
C1725 C1724 1.386 . S
C1725 C1729 1.393 . S
C1726 H1718 0.950 . S
C1726 C1724 1.391 . S
C1726 C1727 1.400 . S
C1727 C1726 1.400 . S
C1727 C1728 1.398 . S
C1727 C1733 1.491 . S
C1728 H1719 0.950 . S
C1728 C1727 1.398 . S
C1728 C1729 1.391 . S
C1729 H1717 0.950 . S
C1729 C1725 1.393 . S
C1729 C1728 1.391 . S
C1730 H1720 0.950 . S
C1730 C1731 1.386 . S
C1730 C1732 1.391 . S
C1731 C1730 1.386 . S
C1731 C1735 1.393 . S
C1732 H1721 0.950 . S
C1732 C1730 1.391 . S
C1732 C1733 1.400 . S
C1733 C1727 1.491 . S
C1733 C1732 1.400 . S
C1733 C1734 1.398 . S
C1734 H1722 0.950 . S
C1734 C1733 1.398 . S
C1734 C1735 1.391 . S
C1735 H1723 0.950 . S
C1735 C1731 1.393 . S
C1735 C1734 1.391 . S
H1736 C1744 0.950 . S
H1737 C1749 0.940 1_455 S
H1738 C1746 0.950 . S
H1739 C1748 0.960 . S
H1740 C1750 0.950 . S
H1741 C1752 0.950 . S
H1742 C1754 0.963 . S
H1743 C1755 0.944 1_655 S
C1744 H1736 0.950 . S
C1744 C1745 1.386 . S
C1744 C1746 1.391 . S
C1745 C1744 1.386 . S
C1745 C1749 1.408 . S
C1746 H1738 0.950 . S
C1746 C1744 1.391 . S
C1746 C1747 1.400 . S
C1747 C1746 1.400 . S
C1747 C1748 1.394 1_655 S
C1747 C1753 1.491 1_655 S
C1748 H1739 0.960 . S
C1748 C1747 1.394 1_455 S
C1748 C1749 1.386 1_455 S
C1749 H1737 0.940 1_655 S
C1749 C1745 1.408 . S
C1749 C1748 1.386 1_655 S
C1750 H1740 0.950 . S
C1750 C1751 1.386 . S
C1750 C1752 1.391 . S
C1751 C1750 1.386 . S
C1751 C1755 1.404 . S
C1752 H1741 0.950 . S
C1752 C1750 1.391 . S
C1752 C1753 1.400 . S
C1753 C1747 1.491 1_455 S
C1753 C1752 1.400 . S
C1753 C1754 1.393 1_455 S
C1754 H1742 0.963 . S
C1754 C1753 1.393 1_655 S
C1754 C1755 1.386 1_655 S
C1755 H1743 0.944 1_455 S
C1755 C1751 1.404 . S
C1755 C1754 1.386 1_455 S
H1756 C1764 0.950 . S
H1757 C1769 0.950 . S
H1758 C1766 0.950 1_545 S
H1759 C1768 0.950 . S
H1760 C1770 0.950 . S
H1761 C1772 0.950 1_565 S
H1762 C1774 0.950 . S
H1763 C1775 0.950 . S
C1764 H1756 0.950 . S
C1764 C1765 1.386 . S
C1764 C1766 1.391 . S
C1765 C1764 1.386 . S
C1765 C1769 1.393 . S
C1766 H1758 0.950 1_565 S
C1766 C1764 1.391 . S
C1766 C1767 1.400 . S
C1767 C1766 1.400 . S
C1767 C1768 1.398 . S
C1767 C1773 1.491 1_565 S
C1768 H1759 0.950 . S
C1768 C1767 1.398 . S
C1768 C1769 1.391 . S
C1769 H1757 0.950 . S
C1769 C1765 1.393 . S
C1769 C1768 1.391 . S
C1770 H1760 0.950 . S
C1770 C1771 1.386 . S
C1770 C1772 1.391 . S
C1771 C1770 1.386 . S
C1771 C1775 1.393 . S
C1772 H1761 0.950 1_545 S
C1772 C1770 1.391 . S
C1772 C1773 1.400 . S
C1773 C1767 1.491 1_545 S
C1773 C1772 1.400 . S
C1773 C1774 1.398 . S
C1774 H1762 0.950 . S
C1774 C1773 1.398 . S
C1774 C1775 1.391 . S
C1775 H1763 0.950 . S
C1775 C1771 1.393 . S
C1775 C1774 1.391 . S
H1776 C1784 0.950 . S
H1777 C1789 0.950 . S
H1778 C1786 0.950 . S
H1779 C1788 0.950 . S
H1780 C1790 0.950 . S
H1781 C1792 0.950 . S
H1782 C1794 0.950 . S
H1783 C1795 0.950 . S
C1784 H1776 0.950 . S
C1784 C1785 1.386 . S
C1784 C1786 1.391 . S
C1785 C1784 1.386 . S
C1785 C1789 1.393 . S
C1786 H1778 0.950 . S
C1786 C1784 1.391 . S
C1786 C1787 1.400 . S
C1787 C1786 1.400 . S
C1787 C1788 1.398 . S
C1787 C1793 1.491 . S
C1788 H1779 0.950 . S
C1788 C1787 1.398 . S
C1788 C1789 1.391 . S
C1789 H1777 0.950 . S
C1789 C1785 1.393 . S
C1789 C1788 1.391 . S
C1790 H1780 0.950 . S
C1790 C1791 1.386 . S
C1790 C1792 1.391 . S
C1791 C1790 1.386 . S
C1791 C1795 1.393 . S
C1792 H1781 0.950 . S
C1792 C1790 1.391 . S
C1792 C1793 1.400 . S
C1793 C1787 1.491 . S
C1793 C1792 1.400 . S
C1793 C1794 1.398 . S
C1794 H1782 0.950 . S
C1794 C1793 1.398 . S
C1794 C1795 1.391 . S
C1795 H1783 0.950 . S
C1795 C1791 1.393 . S
C1795 C1794 1.391 . S
H1796 C1804 0.950 . S
H1797 C1809 0.950 . S
H1798 C1806 0.947 1_655 S
H1799 C1808 0.950 . S
H1800 C1810 0.950 . S
H1801 C1812 0.949 1_455 S
H1802 C1814 0.950 . S
H1803 C1815 0.950 . S
C1804 H1796 0.950 . S
C1804 C1805 1.386 . S
C1804 C1806 1.393 . S
C1805 C1804 1.386 . S
C1805 C1809 1.393 . S
C1806 H1798 0.947 1_455 S
C1806 C1804 1.393 . S
C1806 C1807 1.401 . S
C1807 C1806 1.401 . S
C1807 C1808 1.398 . S
C1807 C1813 1.491 1_455 S
C1808 H1799 0.950 . S
C1808 C1807 1.398 . S
C1808 C1809 1.391 . S
C1809 H1797 0.950 . S
C1809 C1805 1.393 . S
C1809 C1808 1.391 . S
C1810 H1800 0.950 . S
C1810 C1811 1.386 . S
C1810 C1812 1.392 . S
C1811 C1810 1.386 . S
C1811 C1815 1.393 . S
C1812 H1801 0.949 1_655 S
C1812 C1810 1.392 . S
C1812 C1813 1.400 . S
C1813 C1807 1.491 1_655 S
C1813 C1812 1.400 . S
C1813 C1814 1.398 . S
C1814 H1802 0.950 . S
C1814 C1813 1.398 . S
C1814 C1815 1.391 . S
C1815 H1803 0.950 . S
C1815 C1811 1.393 . S
C1815 C1814 1.391 . S
H1816 C1824 0.950 . S
H1817 C1829 0.950 . S
H1818 C1826 0.950 . S
H1819 C1828 0.918 1_545 S
H1820 C1830 0.950 . S
H1821 C1832 0.950 . S
H1822 C1834 0.918 1_565 S
H1823 C1835 0.950 . S
C1824 H1816 0.950 . S
C1824 C1825 1.386 . S
C1824 C1826 1.391 . S
C1825 C1824 1.386 . S
C1825 C1829 1.393 . S
C1826 H1818 0.950 . S
C1826 C1824 1.391 . S
C1826 C1827 1.400 . S
C1827 C1826 1.400 . S
C1827 C1828 1.398 . S
C1827 C1833 1.491 1_565 S
C1828 H1819 0.918 1_565 S
C1828 C1827 1.398 . S
C1828 C1829 1.391 . S
C1829 H1817 0.950 . S
C1829 C1825 1.393 . S
C1829 C1828 1.391 . S
C1830 H1820 0.950 . S
C1830 C1831 1.386 . S
C1830 C1832 1.391 . S
C1831 C1830 1.386 . S
C1831 C1835 1.393 . S
C1832 H1821 0.950 . S
C1832 C1830 1.391 . S
C1832 C1833 1.400 . S
C1833 C1827 1.491 1_545 S
C1833 C1832 1.400 . S
C1833 C1834 1.398 . S
C1834 H1822 0.918 1_545 S
C1834 C1833 1.398 . S
C1834 C1835 1.391 . S
C1835 H1823 0.950 . S
C1835 C1831 1.393 . S
C1835 C1834 1.391 . S
H1836 C1844 0.950 . S
H1837 C1849 0.950 . S
H1838 C1846 0.950 . S
H1839 C1848 0.950 . S
H1840 C1850 0.950 . S
H1841 C1852 0.950 . S
H1842 C1854 0.950 . S
H1843 C1855 0.950 . S
C1844 H1836 0.950 . S
C1844 C1845 1.386 . S
C1844 C1846 1.391 . S
C1845 C1844 1.386 . S
C1845 C1849 1.393 1_655 S
C1846 H1838 0.950 . S
C1846 C1844 1.391 . S
C1846 C1847 1.426 . S
C1847 C1846 1.426 . S
C1847 C1848 1.377 1_654 S
C1847 C1853 1.488 1_654 S
C1848 H1839 0.950 . S
C1848 C1847 1.377 1_456 S
C1848 C1849 1.391 1_556 S
C1849 H1837 0.950 . S
C1849 C1845 1.393 1_455 S
C1849 C1848 1.391 1_554 S
C1850 H1840 0.950 . S
C1850 C1851 1.386 . S
C1850 C1852 1.391 . S
C1851 C1850 1.386 . S
C1851 C1855 1.393 1_455 S
C1852 H1841 0.950 . S
C1852 C1850 1.391 . S
C1852 C1853 1.418 . S
C1853 C1847 1.488 1_456 S
C1853 C1852 1.418 . S
C1853 C1854 1.383 1_456 S
C1854 H1842 0.950 . S
C1854 C1853 1.383 1_654 S
C1854 C1855 1.391 1_554 S
C1855 H1843 0.950 . S
C1855 C1851 1.393 1_655 S
C1855 C1854 1.391 1_556 S
H1856 C1864 0.950 . S
H1857 C1869 0.950 . S
H1858 C1866 0.950 . S
H1859 C1868 0.950 1_554 S
H1860 C1870 0.950 . S
H1861 C1872 0.950 . S
H1862 C1874 0.950 1_556 S
H1863 C1875 0.950 . S
C1864 H1856 0.950 . S
C1864 C1865 1.386 . S
C1864 C1866 1.391 . S
C1865 C1864 1.386 . S
C1865 C1869 1.393 . S
C1866 H1858 0.950 . S
C1866 C1864 1.391 . S
C1866 C1867 1.400 . S
C1867 C1866 1.400 . S
C1867 C1868 1.398 . S
C1867 C1873 1.491 1_556 S
C1868 H1859 0.950 1_556 S
C1868 C1867 1.398 . S
C1868 C1869 1.391 . S
C1869 H1857 0.950 . S
C1869 C1865 1.393 . S
C1869 C1868 1.391 . S
C1870 H1860 0.950 . S
C1870 C1871 1.386 . S
C1870 C1872 1.391 . S
C1871 C1870 1.386 . S
C1871 C1875 1.393 . S
C1872 H1861 0.950 . S
C1872 C1870 1.391 . S
C1872 C1873 1.400 . S
C1873 C1867 1.491 1_554 S
C1873 C1872 1.400 . S
C1873 C1874 1.398 . S
C1874 H1862 0.950 1_554 S
C1874 C1873 1.398 . S
C1874 C1875 1.391 . S
C1875 H1863 0.950 . S
C1875 C1871 1.393 . S
C1875 C1874 1.391 . S
H1876 C1884 0.950 . S
H1877 C1889 0.950 . S
H1878 C1886 0.950 . S
H1879 C1888 0.950 . S
H1880 C1890 0.950 . S
H1881 C1892 0.950 . S
H1882 C1894 0.950 . S
H1883 C1895 0.950 . S
C1884 H1876 0.950 . S
C1884 C1885 1.386 . S
C1884 C1886 1.391 . S
C1885 C1884 1.386 . S
C1885 C1889 1.393 . S
C1886 H1878 0.950 . S
C1886 C1884 1.391 . S
C1886 C1887 1.400 . S
C1887 C1886 1.400 . S
C1887 C1888 1.398 . S
C1887 C1893 1.491 . S
C1888 H1879 0.950 . S
C1888 C1887 1.398 . S
C1888 C1889 1.391 . S
C1889 H1877 0.950 . S
C1889 C1885 1.393 . S
C1889 C1888 1.391 . S
C1890 H1880 0.950 . S
C1890 C1891 1.386 . S
C1890 C1892 1.391 . S
C1891 C1890 1.386 . S
C1891 C1895 1.393 . S
C1892 H1881 0.950 . S
C1892 C1890 1.391 . S
C1892 C1893 1.400 . S
C1893 C1887 1.491 . S
C1893 C1892 1.400 . S
C1893 C1894 1.398 . S
C1894 H1882 0.950 . S
C1894 C1893 1.398 . S
C1894 C1895 1.391 . S
C1895 H1883 0.950 . S
C1895 C1891 1.393 . S
C1895 C1894 1.391 . S
H1896 C1904 0.950 . S
H1897 C1909 0.950 . S
H1898 C1906 0.950 . S
H1899 C1908 0.950 1_554 S
H1900 C1910 0.950 . S
H1901 C1912 0.950 . S
H1902 C1914 0.950 1_556 S
H1903 C1915 0.950 . S
C1904 H1896 0.950 . S
C1904 C1905 1.386 . S
C1904 C1906 1.391 . S
C1905 C1904 1.386 . S
C1905 C1909 1.393 . S
C1906 H1898 0.950 . S
C1906 C1904 1.391 . S
C1906 C1907 1.400 . S
C1907 C1906 1.400 . S
C1907 C1908 1.398 . S
C1907 C1913 1.491 1_556 S
C1908 H1899 0.950 1_556 S
C1908 C1907 1.398 . S
C1908 C1909 1.391 . S
C1909 H1897 0.950 . S
C1909 C1905 1.393 . S
C1909 C1908 1.391 . S
C1910 H1900 0.950 . S
C1910 C1911 1.386 . S
C1910 C1912 1.391 . S
C1911 C1910 1.386 . S
C1911 C1915 1.393 . S
C1912 H1901 0.950 . S
C1912 C1910 1.391 . S
C1912 C1913 1.400 . S
C1913 C1907 1.491 1_554 S
C1913 C1912 1.400 . S
C1913 C1914 1.398 . S
C1914 H1902 0.950 1_554 S
C1914 C1913 1.398 . S
C1914 C1915 1.391 . S
C1915 H1903 0.950 . S
C1915 C1911 1.393 . S
C1915 C1914 1.391 . S
H1916 C1924 0.950 . S
H1917 C1929 0.950 . S
H1918 C1926 0.950 . S
H1919 C1928 0.950 . S
H1920 C1930 0.950 . S
H1921 C1932 0.950 . S
H1922 C1934 0.950 . S
H1923 C1935 0.950 . S
C1924 H1916 0.950 . S
C1924 C1925 1.386 . S
C1924 C1926 1.391 . S
C1925 C1924 1.386 . S
C1925 C1929 1.393 . S
C1926 H1918 0.950 . S
C1926 C1924 1.391 . S
C1926 C1927 1.400 . S
C1927 C1926 1.400 . S
C1927 C1928 1.398 . S
C1927 C1933 1.491 . S
C1928 H1919 0.950 . S
C1928 C1927 1.398 . S
C1928 C1929 1.391 . S
C1929 H1917 0.950 . S
C1929 C1925 1.393 . S
C1929 C1928 1.391 . S
C1930 H1920 0.950 . S
C1930 C1931 1.386 . S
C1930 C1932 1.391 . S
C1931 C1930 1.386 . S
C1931 C1935 1.393 . S
C1932 H1921 0.950 . S
C1932 C1930 1.391 . S
C1932 C1933 1.400 . S
C1933 C1927 1.491 . S
C1933 C1932 1.400 . S
C1933 C1934 1.398 . S
C1934 H1922 0.950 . S
C1934 C1933 1.398 . S
C1934 C1935 1.391 . S
C1935 H1923 0.950 . S
C1935 C1931 1.393 . S
C1935 C1934 1.391 . S
H1936 C1944 0.950 . S
H1937 C1949 0.950 . S
H1938 C1946 0.992 . S
H1939 C1948 0.950 . S
H1940 C1950 0.950 . S
H1941 C1952 0.992 . S
H1942 C1954 0.950 . S
H1943 C1955 0.950 . S
C1944 H1936 0.950 . S
C1944 C1945 1.386 . S
C1944 C1946 1.391 . S
C1945 C1944 1.386 . S
C1945 C1949 1.393 . S
C1946 H1938 0.992 . S
C1946 C1944 1.391 . S
C1946 C1947 1.400 . S
C1947 C1946 1.400 . S
C1947 C1948 1.398 1_556 S
C1947 C1953 1.491 1_546 S
C1948 H1939 0.950 . S
C1948 C1947 1.398 1_554 S
C1948 C1949 1.391 1_554 S
C1949 H1937 0.950 . S
C1949 C1945 1.393 . S
C1949 C1948 1.391 1_556 S
C1950 H1940 0.950 . S
C1950 C1951 1.386 . S
C1950 C1952 1.391 . S
C1951 C1950 1.386 . S
C1951 C1955 1.393 . S
C1952 H1941 0.992 . S
C1952 C1950 1.391 . S
C1952 C1953 1.400 . S
C1953 C1947 1.491 1_564 S
C1953 C1952 1.400 . S
C1953 C1954 1.398 1_554 S
C1954 H1942 0.950 . S
C1954 C1953 1.398 1_556 S
C1954 C1955 1.391 1_556 S
C1955 H1943 0.950 . S
C1955 C1951 1.393 . S
C1955 C1954 1.391 1_554 S
H1956 C1964 0.950 . S
H1957 C1969 0.950 . S
H1958 C1966 0.950 . S
H1959 C1968 0.950 . S
H1960 C1970 0.950 . S
H1961 C1972 0.950 . S
H1962 C1974 0.950 . S
H1963 C1975 0.950 . S
C1964 H1956 0.950 . S
C1964 C1965 1.386 . S
C1964 C1966 1.391 . S
C1965 C1964 1.386 . S
C1965 C1969 1.393 . S
C1966 H1958 0.950 . S
C1966 C1964 1.391 . S
C1966 C1967 1.400 . S
C1967 C1966 1.400 . S
C1967 C1968 1.398 . S
C1967 C1973 1.491 . S
C1968 H1959 0.950 . S
C1968 C1967 1.398 . S
C1968 C1969 1.391 . S
C1969 H1957 0.950 . S
C1969 C1965 1.393 . S
C1969 C1968 1.391 . S
C1970 H1960 0.950 . S
C1970 C1971 1.386 . S
C1970 C1972 1.391 . S
C1971 C1970 1.386 . S
C1971 C1975 1.393 . S
C1972 H1961 0.950 . S
C1972 C1970 1.391 . S
C1972 C1973 1.400 . S
C1973 C1967 1.491 . S
C1973 C1972 1.400 . S
C1973 C1974 1.398 . S
C1974 H1962 0.950 . S
C1974 C1973 1.398 . S
C1974 C1975 1.391 . S
C1975 H1963 0.950 . S
C1975 C1971 1.393 . S
C1975 C1974 1.391 . S
H1976 C1984 0.950 . S
H1977 C1989 0.950 . S
H1978 C1986 0.950 . S
H1979 C1988 0.950 . S
H1980 C1990 0.950 . S
H1981 C1992 0.950 . S
H1982 C1994 0.950 . S
H1983 C1995 0.950 . S
C1984 H1976 0.950 . S
C1984 C1985 1.386 . S
C1984 C1986 1.391 . S
C1985 C1984 1.386 . S
C1985 C1989 1.393 . S
C1986 H1978 0.950 . S
C1986 C1984 1.391 . S
C1986 C1987 1.400 . S
C1987 C1986 1.400 . S
C1987 C1988 1.398 . S
C1987 C1993 1.491 . S
C1988 H1979 0.950 . S
C1988 C1987 1.398 . S
C1988 C1989 1.391 . S
C1989 H1977 0.950 . S
C1989 C1985 1.393 . S
C1989 C1988 1.391 . S
C1990 H1980 0.950 . S
C1990 C1991 1.386 . S
C1990 C1992 1.391 . S
C1991 C1990 1.386 . S
C1991 C1995 1.393 . S
C1992 H1981 0.950 . S
C1992 C1990 1.391 . S
C1992 C1993 1.400 . S
C1993 C1987 1.491 . S
C1993 C1992 1.400 . S
C1993 C1994 1.398 . S
C1994 H1982 0.950 . S
C1994 C1993 1.398 . S
C1994 C1995 1.391 . S
C1995 H1983 0.950 . S
C1995 C1991 1.393 . S
C1995 C1994 1.391 . S
H1996 C2004 0.950 . S
H1997 C2009 0.950 . S
H1998 C2006 0.950 . S
H1999 C2008 0.950 . S
H2000 C2010 0.950 . S
H2001 C2012 0.950 . S
H2002 C2014 0.950 . S
H2003 C2015 0.950 . S
C2004 H1996 0.950 . S
C2004 C2005 1.386 . S
C2004 C2006 1.391 . S
C2005 C2004 1.386 . S
C2005 C2009 1.393 . S
C2006 H1998 0.950 . S
C2006 C2004 1.391 . S
C2006 C2007 1.400 . S
C2007 C2006 1.400 . S
C2007 C2008 1.398 . S
C2007 C2013 1.491 . S
C2008 H1999 0.950 . S
C2008 C2007 1.398 . S
C2008 C2009 1.391 . S
C2009 H1997 0.950 . S
C2009 C2005 1.393 . S
C2009 C2008 1.391 . S
C2010 H2000 0.950 . S
C2010 C2011 1.386 . S
C2010 C2012 1.391 . S
C2011 C2010 1.386 . S
C2011 C2015 1.393 . S
C2012 H2001 0.950 . S
C2012 C2010 1.391 . S
C2012 C2013 1.400 . S
C2013 C2007 1.491 . S
C2013 C2012 1.400 . S
C2013 C2014 1.398 . S
C2014 H2002 0.950 . S
C2014 C2013 1.398 . S
C2014 C2015 1.391 . S
C2015 H2003 0.950 . S
C2015 C2011 1.393 . S
C2015 C2014 1.391 . S
H2016 C2024 0.950 . S
H2017 C2029 0.950 . S
H2018 C2026 0.950 . S
H2019 C2028 0.950 . S
H2020 C2030 0.950 . S
H2021 C2032 0.950 . S
H2022 C2034 0.950 . S
H2023 C2035 0.950 . S
C2024 H2016 0.950 . S
C2024 C2025 1.386 . S
C2024 C2026 1.391 . S
C2025 C2024 1.386 . S
C2025 C2029 1.393 . S
C2026 H2018 0.950 . S
C2026 C2024 1.391 . S
C2026 C2027 1.400 . S
C2027 C2026 1.400 . S
C2027 C2028 1.398 . S
C2027 C2033 1.491 . S
C2028 H2019 0.950 . S
C2028 C2027 1.398 . S
C2028 C2029 1.391 . S
C2029 H2017 0.950 . S
C2029 C2025 1.393 . S
C2029 C2028 1.391 . S
C2030 H2020 0.950 . S
C2030 C2031 1.386 . S
C2030 C2032 1.391 . S
C2031 C2030 1.386 . S
C2031 C2035 1.393 . S
C2032 H2021 0.950 . S
C2032 C2030 1.391 . S
C2032 C2033 1.400 . S
C2033 C2027 1.491 . S
C2033 C2032 1.400 . S
C2033 C2034 1.398 . S
C2034 H2022 0.950 . S
C2034 C2033 1.398 . S
C2034 C2035 1.391 . S
C2035 H2023 0.950 . S
C2035 C2031 1.393 . S
C2035 C2034 1.391 . S
H2036 C2044 0.950 . S
H2037 C2049 0.950 . S
H2038 C2046 0.950 . S
H2039 C2048 0.950 . S
H2040 C2050 0.950 . S
H2041 C2052 0.950 . S
H2042 C2054 0.950 . S
H2043 C2055 0.950 . S
C2044 H2036 0.950 . S
C2044 C2045 1.386 . S
C2044 C2046 1.391 . S
C2045 C2044 1.386 . S
C2045 C2049 1.393 . S
C2046 H2038 0.950 . S
C2046 C2044 1.391 . S
C2046 C2047 1.400 . S
C2047 C2046 1.400 . S
C2047 C2048 1.398 . S
C2047 C2053 1.491 . S
C2048 H2039 0.950 . S
C2048 C2047 1.398 . S
C2048 C2049 1.391 . S
C2049 H2037 0.950 . S
C2049 C2045 1.393 . S
C2049 C2048 1.391 . S
C2050 H2040 0.950 . S
C2050 C2051 1.386 . S
C2050 C2052 1.391 . S
C2051 C2050 1.386 . S
C2051 C2055 1.393 . S
C2052 H2041 0.950 . S
C2052 C2050 1.391 . S
C2052 C2053 1.400 . S
C2053 C2047 1.491 . S
C2053 C2052 1.400 . S
C2053 C2054 1.398 . S
C2054 H2042 0.950 . S
C2054 C2053 1.398 . S
C2054 C2055 1.391 . S
C2055 H2043 0.950 . S
C2055 C2051 1.393 . S
C2055 C2054 1.391 . S
H2056 C2064 0.950 . S
H2057 C2069 0.950 . S
H2058 C2066 0.950 . S
H2059 C2068 0.950 . S
H2060 C2070 0.950 . S
H2061 C2072 0.950 . S
H2062 C2074 0.950 . S
H2063 C2075 0.950 . S
C2064 H2056 0.950 . S
C2064 C2065 1.386 . S
C2064 C2066 1.391 . S
C2065 C2064 1.386 . S
C2065 C2069 1.393 . S
C2066 H2058 0.950 . S
C2066 C2064 1.391 . S
C2066 C2067 1.400 . S
C2067 C2066 1.400 . S
C2067 C2068 1.398 . S
C2067 C2073 1.491 . S
C2068 H2059 0.950 . S
C2068 C2067 1.398 . S
C2068 C2069 1.391 . S
C2069 H2057 0.950 . S
C2069 C2065 1.393 . S
C2069 C2068 1.391 . S
C2070 H2060 0.950 . S
C2070 C2071 1.386 . S
C2070 C2072 1.391 . S
C2071 C2070 1.386 . S
C2071 C2075 1.393 . S
C2072 H2061 0.950 . S
C2072 C2070 1.391 . S
C2072 C2073 1.400 . S
C2073 C2067 1.491 . S
C2073 C2072 1.400 . S
C2073 C2074 1.398 . S
C2074 H2062 0.950 . S
C2074 C2073 1.398 . S
C2074 C2075 1.391 . S
C2075 H2063 0.950 . S
C2075 C2071 1.393 . S
C2075 C2074 1.391 . S
H2076 C2084 0.950 . S
H2077 C2089 0.950 . S
H2078 C2086 0.950 . S
H2079 C2088 0.950 . S
H2080 C2090 0.950 . S
H2081 C2092 0.950 . S
H2082 C2094 0.950 . S
H2083 C2095 0.950 . S
C2084 H2076 0.950 . S
C2084 C2085 1.386 . S
C2084 C2086 1.391 . S
C2085 C2084 1.386 . S
C2085 C2089 1.393 . S
C2086 H2078 0.950 . S
C2086 C2084 1.391 . S
C2086 C2087 1.400 . S
C2087 C2086 1.400 . S
C2087 C2088 1.398 . S
C2087 C2093 1.491 . S
C2088 H2079 0.950 . S
C2088 C2087 1.398 . S
C2088 C2089 1.391 . S
C2089 H2077 0.950 . S
C2089 C2085 1.393 . S
C2089 C2088 1.391 . S
C2090 H2080 0.950 . S
C2090 C2091 1.386 . S
C2090 C2092 1.391 . S
C2091 C2090 1.386 . S
C2091 C2095 1.393 . S
C2092 H2081 0.950 . S
C2092 C2090 1.391 . S
C2092 C2093 1.400 . S
C2093 C2087 1.491 . S
C2093 C2092 1.400 . S
C2093 C2094 1.398 . S
C2094 H2082 0.950 . S
C2094 C2093 1.398 . S
C2094 C2095 1.391 . S
C2095 H2083 0.950 . S
C2095 C2091 1.393 . S
C2095 C2094 1.391 . S
H2096 C2104 0.950 . S
H2097 C2109 0.950 . S
H2098 C2106 0.950 . S
H2099 C2108 0.950 . S
H2100 C2110 0.950 . S
H2101 C2112 0.950 . S
H2102 C2114 0.950 . S
H2103 C2115 0.950 . S
C2104 H2096 0.950 . S
C2104 C2105 1.386 . S
C2104 C2106 1.391 . S
C2105 C2104 1.386 . S
C2105 C2109 1.393 . S
C2106 H2098 0.950 . S
C2106 C2104 1.391 . S
C2106 C2107 1.400 . S
C2107 C2106 1.400 . S
C2107 C2108 1.398 . S
C2107 C2113 1.491 . S
C2108 H2099 0.950 . S
C2108 C2107 1.398 . S
C2108 C2109 1.391 . S
C2109 H2097 0.950 . S
C2109 C2105 1.393 . S
C2109 C2108 1.391 . S
C2110 H2100 0.950 . S
C2110 C2111 1.386 . S
C2110 C2112 1.391 . S
C2111 C2110 1.386 . S
C2111 C2115 1.393 . S
C2112 H2101 0.950 . S
C2112 C2110 1.391 . S
C2112 C2113 1.400 . S
C2113 C2107 1.491 . S
C2113 C2112 1.400 . S
C2113 C2114 1.398 . S
C2114 H2102 0.950 . S
C2114 C2113 1.398 . S
C2114 C2115 1.391 . S
C2115 H2103 0.950 . S
C2115 C2111 1.393 . S
C2115 C2114 1.391 . S
H2116 C2124 0.950 . S
H2117 C2129 0.950 . S
H2118 C2126 0.950 . S
H2119 C2128 0.950 . S
H2120 C2130 0.950 . S
H2121 C2132 0.950 . S
H2122 C2134 0.950 . S
H2123 C2135 0.950 . S
C2124 H2116 0.950 . S
C2124 C2125 1.386 . S
C2124 C2126 1.391 . S
C2125 C2124 1.386 . S
C2125 C2129 1.393 . S
C2126 H2118 0.950 . S
C2126 C2124 1.391 . S
C2126 C2127 1.400 . S
C2127 C2126 1.400 . S
C2127 C2128 1.398 . S
C2127 C2133 1.491 . S
C2128 H2119 0.950 . S
C2128 C2127 1.398 . S
C2128 C2129 1.391 . S
C2129 H2117 0.950 . S
C2129 C2125 1.393 . S
C2129 C2128 1.391 . S
C2130 H2120 0.950 . S
C2130 C2131 1.386 . S
C2130 C2132 1.391 . S
C2131 C2130 1.386 . S
C2131 C2135 1.393 . S
C2132 H2121 0.950 . S
C2132 C2130 1.391 . S
C2132 C2133 1.400 . S
C2133 C2127 1.491 . S
C2133 C2132 1.400 . S
C2133 C2134 1.398 . S
C2134 H2122 0.950 . S
C2134 C2133 1.398 . S
C2134 C2135 1.391 . S
C2135 H2123 0.950 . S
C2135 C2131 1.393 . S
C2135 C2134 1.391 . S
H2136 C2144 0.950 . S
H2137 C2149 0.950 . S
H2138 C2146 0.950 . S
H2139 C2148 0.950 . S
H2140 C2150 0.950 . S
H2141 C2152 0.950 . S
H2142 C2154 0.950 . S
H2143 C2155 0.950 . S
C2144 H2136 0.950 . S
C2144 C2145 1.386 . S
C2144 C2146 1.391 . S
C2145 C2144 1.386 . S
C2145 C2149 1.393 . S
C2146 H2138 0.950 . S
C2146 C2144 1.391 . S
C2146 C2147 1.400 . S
C2147 C2146 1.400 . S
C2147 C2148 1.398 . S
C2147 C2153 1.491 . S
C2148 H2139 0.950 . S
C2148 C2147 1.398 . S
C2148 C2149 1.391 . S
C2149 H2137 0.950 . S
C2149 C2145 1.393 . S
C2149 C2148 1.391 . S
C2150 H2140 0.950 . S
C2150 C2151 1.386 . S
C2150 C2152 1.391 . S
C2151 C2150 1.386 . S
C2151 C2155 1.393 . S
C2152 H2141 0.950 . S
C2152 C2150 1.391 . S
C2152 C2153 1.400 . S
C2153 C2147 1.491 . S
C2153 C2152 1.400 . S
C2153 C2154 1.398 . S
C2154 H2142 0.950 . S
C2154 C2153 1.398 . S
C2154 C2155 1.391 . S
C2155 H2143 0.950 . S
C2155 C2151 1.393 . S
C2155 C2154 1.391 . S
H2156 C2164 0.950 . S
H2157 C2169 0.950 . S
H2158 C2166 0.950 . S
H2159 C2168 0.950 . S
H2160 C2170 0.950 . S
H2161 C2172 0.950 . S
H2162 C2174 0.950 . S
H2163 C2175 0.950 . S
C2164 H2156 0.950 . S
C2164 C2165 1.386 . S
C2164 C2166 1.391 . S
C2165 C2164 1.386 . S
C2165 C2169 1.393 . S
C2166 H2158 0.950 . S
C2166 C2164 1.391 . S
C2166 C2167 1.400 . S
C2167 C2166 1.400 . S
C2167 C2168 1.398 . S
C2167 C2173 1.491 . S
C2168 H2159 0.950 . S
C2168 C2167 1.398 . S
C2168 C2169 1.391 . S
C2169 H2157 0.950 . S
C2169 C2165 1.393 . S
C2169 C2168 1.391 . S
C2170 H2160 0.950 . S
C2170 C2171 1.386 . S
C2170 C2172 1.391 . S
C2171 C2170 1.386 . S
C2171 C2175 1.393 . S
C2172 H2161 0.950 . S
C2172 C2170 1.391 . S
C2172 C2173 1.400 . S
C2173 C2167 1.491 . S
C2173 C2172 1.400 . S
C2173 C2174 1.398 . S
C2174 H2162 0.950 . S
C2174 C2173 1.398 . S
C2174 C2175 1.391 . S
C2175 H2163 0.950 . S
C2175 C2171 1.393 . S
C2175 C2174 1.391 . S
H2176 C2184 0.950 . S
H2177 C2189 0.950 . S
H2178 C2186 0.950 . S
H2179 C2188 0.950 . S
H2180 C2190 0.950 . S
H2181 C2192 0.950 . S
H2182 C2194 0.950 . S
H2183 C2195 0.950 . S
C2184 H2176 0.950 . S
C2184 C2185 1.386 . S
C2184 C2186 1.391 . S
C2185 C2184 1.386 . S
C2185 C2189 1.393 . S
C2186 H2178 0.950 . S
C2186 C2184 1.391 . S
C2186 C2187 1.400 . S
C2187 C2186 1.400 . S
C2187 C2188 1.398 . S
C2187 C2193 1.491 . S
C2188 H2179 0.950 . S
C2188 C2187 1.398 . S
C2188 C2189 1.391 . S
C2189 H2177 0.950 . S
C2189 C2185 1.393 . S
C2189 C2188 1.391 . S
C2190 H2180 0.950 . S
C2190 C2191 1.386 . S
C2190 C2192 1.391 . S
C2191 C2190 1.386 . S
C2191 C2195 1.393 . S
C2192 H2181 0.950 . S
C2192 C2190 1.391 . S
C2192 C2193 1.400 . S
C2193 C2187 1.491 . S
C2193 C2192 1.400 . S
C2193 C2194 1.398 . S
C2194 H2182 0.950 . S
C2194 C2193 1.398 . S
C2194 C2195 1.391 . S
C2195 H2183 0.950 . S
C2195 C2191 1.393 . S
C2195 C2194 1.391 . S
H2196 C2204 0.950 . S
H2197 C2209 0.950 . S
H2198 C2206 0.950 . S
H2199 C2208 0.950 . S
H2200 C2210 0.950 . S
H2201 C2212 0.950 . S
H2202 C2214 0.950 . S
H2203 C2215 0.950 . S
C2204 H2196 0.950 . S
C2204 C2205 1.386 . S
C2204 C2206 1.391 . S
C2205 C2204 1.386 . S
C2205 C2209 1.393 . S
C2206 H2198 0.950 . S
C2206 C2204 1.391 . S
C2206 C2207 1.400 . S
C2207 C2206 1.400 . S
C2207 C2208 1.398 . S
C2207 C2213 1.491 . S
C2208 H2199 0.950 . S
C2208 C2207 1.398 . S
C2208 C2209 1.391 . S
C2209 H2197 0.950 . S
C2209 C2205 1.393 . S
C2209 C2208 1.391 . S
C2210 H2200 0.950 . S
C2210 C2211 1.386 . S
C2210 C2212 1.391 . S
C2211 C2210 1.386 . S
C2211 C2215 1.393 . S
C2212 H2201 0.950 . S
C2212 C2210 1.391 . S
C2212 C2213 1.400 . S
C2213 C2207 1.491 . S
C2213 C2212 1.400 . S
C2213 C2214 1.398 . S
C2214 H2202 0.950 . S
C2214 C2213 1.398 . S
C2214 C2215 1.391 . S
C2215 H2203 0.950 . S
C2215 C2211 1.393 . S
C2215 C2214 1.391 . S
H2216 C2224 0.950 . S
H2217 C2229 0.950 . S
H2218 C2226 0.950 . S
H2219 C2228 0.950 . S
H2220 C2230 0.950 . S
H2221 C2232 0.950 . S
H2222 C2234 0.950 . S
H2223 C2235 0.950 . S
C2224 H2216 0.950 . S
C2224 C2225 1.386 . S
C2224 C2226 1.391 . S
C2225 C2224 1.386 . S
C2225 C2229 1.393 . S
C2226 H2218 0.950 . S
C2226 C2224 1.391 . S
C2226 C2227 1.400 . S
C2227 C2226 1.400 . S
C2227 C2228 1.398 . S
C2227 C2233 1.491 . S
C2228 H2219 0.950 . S
C2228 C2227 1.398 . S
C2228 C2229 1.391 . S
C2229 H2217 0.950 . S
C2229 C2225 1.393 . S
C2229 C2228 1.391 . S
C2230 H2220 0.950 . S
C2230 C2231 1.386 . S
C2230 C2232 1.391 . S
C2231 C2230 1.386 . S
C2231 C2235 1.393 . S
C2232 H2221 0.950 . S
C2232 C2230 1.391 . S
C2232 C2233 1.400 . S
C2233 C2227 1.491 . S
C2233 C2232 1.400 . S
C2233 C2234 1.398 . S
C2234 H2222 0.950 . S
C2234 C2233 1.398 . S
C2234 C2235 1.391 . S
C2235 H2223 0.950 . S
C2235 C2231 1.393 . S
C2235 C2234 1.391 . S
H2236 C2244 0.950 . S
H2237 C2249 0.950 . S
H2238 C2246 0.950 . S
H2239 C2248 0.950 . S
H2240 C2250 0.950 . S
H2241 C2252 0.950 . S
H2242 C2254 0.950 . S
H2243 C2255 0.950 . S
C2244 H2236 0.950 . S
C2244 C2245 1.386 . S
C2244 C2246 1.391 . S
C2245 C2244 1.386 . S
C2245 C2249 1.393 . S
C2246 H2238 0.950 . S
C2246 C2244 1.391 . S
C2246 C2247 1.400 . S
C2247 C2246 1.400 . S
C2247 C2248 1.398 . S
C2247 C2253 1.491 . S
C2248 H2239 0.950 . S
C2248 C2247 1.398 . S
C2248 C2249 1.391 . S
C2249 H2237 0.950 . S
C2249 C2245 1.393 . S
C2249 C2248 1.391 . S
C2250 H2240 0.950 . S
C2250 C2251 1.386 . S
C2250 C2252 1.391 . S
C2251 C2250 1.386 . S
C2251 C2255 1.393 . S
C2252 H2241 0.950 . S
C2252 C2250 1.391 . S
C2252 C2253 1.400 . S
C2253 C2247 1.491 . S
C2253 C2252 1.400 . S
C2253 C2254 1.398 . S
C2254 H2242 0.950 . S
C2254 C2253 1.398 . S
C2254 C2255 1.391 . S
C2255 H2243 0.950 . S
C2255 C2251 1.393 . S
C2255 C2254 1.391 . S
H2256 C2264 0.950 . S
H2257 C2269 0.950 . S
H2258 C2266 0.950 . S
H2259 C2268 0.950 . S
H2260 C2270 0.950 . S
H2261 C2272 0.950 . S
H2262 C2274 0.950 . S
H2263 C2275 0.950 . S
C2264 H2256 0.950 . S
C2264 C2265 1.386 . S
C2264 C2266 1.391 . S
C2265 C2264 1.386 . S
C2265 C2269 1.393 . S
C2266 H2258 0.950 . S
C2266 C2264 1.391 . S
C2266 C2267 1.400 . S
C2267 C2266 1.400 . S
C2267 C2268 1.398 . S
C2267 C2273 1.491 . S
C2268 H2259 0.950 . S
C2268 C2267 1.398 . S
C2268 C2269 1.391 . S
C2269 H2257 0.950 . S
C2269 C2265 1.393 . S
C2269 C2268 1.391 . S
C2270 H2260 0.950 . S
C2270 C2271 1.386 . S
C2270 C2272 1.391 . S
C2271 C2270 1.386 . S
C2271 C2275 1.393 . S
C2272 H2261 0.950 . S
C2272 C2270 1.391 . S
C2272 C2273 1.400 . S
C2273 C2267 1.491 . S
C2273 C2272 1.400 . S
C2273 C2274 1.398 . S
C2274 H2262 0.950 . S
C2274 C2273 1.398 . S
C2274 C2275 1.391 . S
C2275 H2263 0.950 . S
C2275 C2271 1.393 . S
C2275 C2274 1.391 . S
H2276 C2284 0.950 . S
H2277 C2289 0.950 . S
H2278 C2286 0.950 . S
H2279 C2288 0.950 . S
H2280 C2290 0.950 . S
H2281 C2292 0.950 . S
H2282 C2294 0.950 . S
H2283 C2295 0.950 . S
C2284 H2276 0.950 . S
C2284 C2285 1.386 . S
C2284 C2286 1.391 . S
C2285 C2284 1.386 . S
C2285 C2289 1.393 . S
C2286 H2278 0.950 . S
C2286 C2284 1.391 . S
C2286 C2287 1.400 . S
C2287 C2286 1.400 . S
C2287 C2288 1.398 . S
C2287 C2293 1.491 . S
C2288 H2279 0.950 . S
C2288 C2287 1.398 . S
C2288 C2289 1.391 . S
C2289 H2277 0.950 . S
C2289 C2285 1.393 . S
C2289 C2288 1.391 . S
C2290 H2280 0.950 . S
C2290 C2291 1.386 . S
C2290 C2292 1.391 . S
C2291 C2290 1.386 . S
C2291 C2295 1.393 . S
C2292 H2281 0.950 . S
C2292 C2290 1.391 . S
C2292 C2293 1.400 . S
C2293 C2287 1.491 . S
C2293 C2292 1.400 . S
C2293 C2294 1.398 . S
C2294 H2282 0.950 . S
C2294 C2293 1.398 . S
C2294 C2295 1.391 . S
C2295 H2283 0.950 . S
C2295 C2291 1.393 . S
C2295 C2294 1.391 . S
H2296 C2304 0.950 . S
H2297 C2309 0.950 . S
H2298 C2306 0.950 . S
H2299 C2308 0.950 . S
H2300 C2310 0.950 . S
H2301 C2312 0.950 . S
H2302 C2314 0.950 . S
H2303 C2315 0.950 . S
C2304 H2296 0.950 . S
C2304 C2305 1.386 . S
C2304 C2306 1.391 . S
C2305 C2304 1.386 . S
C2305 C2309 1.393 . S
C2306 H2298 0.950 . S
C2306 C2304 1.391 . S
C2306 C2307 1.400 . S
C2307 C2306 1.400 . S
C2307 C2308 1.398 . S
C2307 C2313 1.491 . S
C2308 H2299 0.950 . S
C2308 C2307 1.398 . S
C2308 C2309 1.391 . S
C2309 H2297 0.950 . S
C2309 C2305 1.393 . S
C2309 C2308 1.391 . S
C2310 H2300 0.950 . S
C2310 C2311 1.386 . S
C2310 C2312 1.391 . S
C2311 C2310 1.386 . S
C2311 C2315 1.393 . S
C2312 H2301 0.950 . S
C2312 C2310 1.391 . S
C2312 C2313 1.400 . S
C2313 C2307 1.491 . S
C2313 C2312 1.400 . S
C2313 C2314 1.398 . S
C2314 H2302 0.950 . S
C2314 C2313 1.398 . S
C2314 C2315 1.391 . S
C2315 H2303 0.950 . S
C2315 C2311 1.393 . S
C2315 C2314 1.391 . S
H2316 C2324 0.950 . S
H2317 C2329 0.950 . S
H2318 C2326 0.950 . S
H2319 C2328 0.950 . S
H2320 C2330 0.950 . S
H2321 C2332 0.950 . S
H2322 C2334 0.950 . S
H2323 C2335 0.950 . S
C2324 H2316 0.950 . S
C2324 C2325 1.386 . S
C2324 C2326 1.391 . S
C2325 C2324 1.386 . S
C2325 C2329 1.393 . S
C2326 H2318 0.950 . S
C2326 C2324 1.391 . S
C2326 C2327 1.400 . S
C2327 C2326 1.400 . S
C2327 C2328 1.398 . S
C2327 C2333 1.491 . S
C2328 H2319 0.950 . S
C2328 C2327 1.398 . S
C2328 C2329 1.391 . S
C2329 H2317 0.950 . S
C2329 C2325 1.393 . S
C2329 C2328 1.391 . S
C2330 H2320 0.950 . S
C2330 C2331 1.386 . S
C2330 C2332 1.391 . S
C2331 C2330 1.386 . S
C2331 C2335 1.393 . S
C2332 H2321 0.950 . S
C2332 C2330 1.391 . S
C2332 C2333 1.400 . S
C2333 C2327 1.491 . S
C2333 C2332 1.400 . S
C2333 C2334 1.398 . S
C2334 H2322 0.950 . S
C2334 C2333 1.398 . S
C2334 C2335 1.391 . S
C2335 H2323 0.950 . S
C2335 C2331 1.393 . S
C2335 C2334 1.391 . S
H2336 C2344 0.950 . S
H2337 C2349 0.950 . S
H2338 C2346 0.950 . S
H2339 C2348 0.950 . S
H2340 C2350 0.950 1_556 S
H2341 C2352 0.950 . S
H2342 C2354 0.950 . S
H2343 C2355 0.950 . S
C2344 H2336 0.950 . S
C2344 C2345 1.386 . S
C2344 C2346 1.391 . S
C2345 C2344 1.386 . S
C2345 C2349 1.393 1_455 S
C2346 H2338 0.950 . S
C2346 C2344 1.391 . S
C2346 C2347 1.400 . S
C2347 C2346 1.400 . S
C2347 C2348 1.398 1_455 S
C2347 C2353 1.491 . S
C2348 H2339 0.950 . S
C2348 C2347 1.398 1_655 S
C2348 C2349 1.391 . S
C2349 H2337 0.950 . S
C2349 C2345 1.393 1_655 S
C2349 C2348 1.391 . S
C2350 H2340 0.950 1_554 S
C2350 C2351 1.386 1_655 S
C2350 C2352 1.391 . S
C2351 C2350 1.386 1_455 S
C2351 C2355 1.393 . S
C2352 H2341 0.950 . S
C2352 C2350 1.391 . S
C2352 C2353 1.400 1_655 S
C2353 C2347 1.491 . S
C2353 C2352 1.400 1_455 S
C2353 C2354 1.398 . S
C2354 H2342 0.950 . S
C2354 C2353 1.398 . S
C2354 C2355 1.391 . S
C2355 H2343 0.950 . S
C2355 C2351 1.393 . S
C2355 C2354 1.391 . S
H2356 C2364 0.950 . S
H2357 C2369 0.950 . S
H2358 C2366 0.950 . S
H2359 C2368 0.950 . S
H2360 C2370 0.950 . S
H2361 C2372 0.950 . S
H2362 C2374 0.950 . S
H2363 C2375 0.950 . S
C2364 H2356 0.950 . S
C2364 C2365 1.386 . S
C2364 C2366 1.391 . S
C2365 C2364 1.386 . S
C2365 C2369 1.393 . S
C2366 H2358 0.950 . S
C2366 C2364 1.391 . S
C2366 C2367 1.400 . S
C2367 C2366 1.400 . S
C2367 C2368 1.398 . S
C2367 C2373 1.491 . S
C2368 H2359 0.950 . S
C2368 C2367 1.398 . S
C2368 C2369 1.391 . S
C2369 H2357 0.950 . S
C2369 C2365 1.393 . S
C2369 C2368 1.391 . S
C2370 H2360 0.950 . S
C2370 C2371 1.386 . S
C2370 C2372 1.391 . S
C2371 C2370 1.386 . S
C2371 C2375 1.393 . S
C2372 H2361 0.950 . S
C2372 C2370 1.391 . S
C2372 C2373 1.400 . S
C2373 C2367 1.491 . S
C2373 C2372 1.400 . S
C2373 C2374 1.398 . S
C2374 H2362 0.950 . S
C2374 C2373 1.398 . S
C2374 C2375 1.391 . S
C2375 H2363 0.950 . S
C2375 C2371 1.393 . S
C2375 C2374 1.391 . S
H2376 C2384 0.950 . S
H2377 C2389 0.950 1_554 S
H2378 C2386 0.950 . S
H2379 C2388 0.950 . S
H2380 C2390 0.950 . S
H2381 C2392 0.950 . S
H2382 C2394 0.950 . S
H2383 C2395 0.950 . S
C2384 H2376 0.950 . S
C2384 C2385 1.386 1_455 S
C2384 C2386 1.391 . S
C2385 C2384 1.386 1_655 S
C2385 C2389 1.393 . S
C2386 H2378 0.950 . S
C2386 C2384 1.391 . S
C2386 C2387 1.400 1_455 S
C2387 C2386 1.400 1_655 S
C2387 C2388 1.398 . S
C2387 C2393 1.491 . S
C2388 H2379 0.950 . S
C2388 C2387 1.398 . S
C2388 C2389 1.391 . S
C2389 H2377 0.950 1_556 S
C2389 C2385 1.393 . S
C2389 C2388 1.391 . S
C2390 H2380 0.950 . S
C2390 C2391 1.386 . S
C2390 C2392 1.391 . S
C2391 C2390 1.386 . S
C2391 C2395 1.393 1_655 S
C2392 H2381 0.950 . S
C2392 C2390 1.391 . S
C2392 C2393 1.400 . S
C2393 C2387 1.491 . S
C2393 C2392 1.400 . S
C2393 C2394 1.398 1_655 S
C2394 H2382 0.950 . S
C2394 C2393 1.398 1_455 S
C2394 C2395 1.391 . S
C2395 H2383 0.950 . S
C2395 C2391 1.393 1_455 S
C2395 C2394 1.391 . S
H2396 C2404 0.950 . S
H2397 C2409 0.950 . S
H2398 C2406 0.950 . S
H2399 C2408 0.950 . S
H2400 C2410 0.950 . S
H2401 C2412 0.950 . S
H2402 C2414 0.950 . S
H2403 C2415 0.950 . S
C2404 H2396 0.950 . S
C2404 C2405 1.386 . S
C2404 C2406 1.391 . S
C2405 C2404 1.386 . S
C2405 C2409 1.393 . S
C2406 H2398 0.950 . S
C2406 C2404 1.391 . S
C2406 C2407 1.400 . S
C2407 C2406 1.400 . S
C2407 C2408 1.398 . S
C2407 C2413 1.491 . S
C2408 H2399 0.950 . S
C2408 C2407 1.398 . S
C2408 C2409 1.391 . S
C2409 H2397 0.950 . S
C2409 C2405 1.393 . S
C2409 C2408 1.391 . S
C2410 H2400 0.950 . S
C2410 C2411 1.386 . S
C2410 C2412 1.391 . S
C2411 C2410 1.386 . S
C2411 C2415 1.393 . S
C2412 H2401 0.950 . S
C2412 C2410 1.391 . S
C2412 C2413 1.400 . S
C2413 C2407 1.491 . S
C2413 C2412 1.400 . S
C2413 C2414 1.398 . S
C2414 H2402 0.950 . S
C2414 C2413 1.398 . S
C2414 C2415 1.391 . S
C2415 H2403 0.950 . S
C2415 C2411 1.393 . S
C2415 C2414 1.391 . S
H2416 C2424 0.950 . S
H2417 C2429 0.950 . S
H2418 C2426 0.950 . S
H2419 C2428 0.950 . S
H2420 C2430 0.950 . S
H2421 C2432 0.950 . S
H2422 C2434 0.950 . S
H2423 C2435 0.950 . S
C2424 H2416 0.950 . S
C2424 C2425 1.386 . S
C2424 C2426 1.391 . S
C2425 C2424 1.386 . S
C2425 C2429 1.393 1_455 S
C2426 H2418 0.950 . S
C2426 C2424 1.391 . S
C2426 C2427 1.400 . S
C2427 C2426 1.400 . S
C2427 C2428 1.398 1_455 S
C2427 C2433 1.491 . S
C2428 H2419 0.950 . S
C2428 C2427 1.398 1_655 S
C2428 C2429 1.391 . S
C2429 H2417 0.950 . S
C2429 C2425 1.393 1_655 S
C2429 C2428 1.391 . S
C2430 H2420 0.950 . S
C2430 C2431 1.386 1_655 S
C2430 C2432 1.391 . S
C2431 C2430 1.386 1_455 S
C2431 C2435 1.393 . S
C2432 H2421 0.950 . S
C2432 C2430 1.391 . S
C2432 C2433 1.400 1_655 S
C2433 C2427 1.491 . S
C2433 C2432 1.400 1_455 S
C2433 C2434 1.398 . S
C2434 H2422 0.950 . S
C2434 C2433 1.398 . S
C2434 C2435 1.391 . S
C2435 H2423 0.950 . S
C2435 C2431 1.393 . S
C2435 C2434 1.391 . S
H2436 C2444 0.950 . S
H2437 C2449 0.950 . S
H2438 C2446 0.950 . S
H2439 C2448 0.950 . S
H2440 C2450 0.950 . S
H2441 C2452 0.950 . S
H2442 C2454 0.950 . S
H2443 C2455 0.950 . S
C2444 H2436 0.950 . S
C2444 C2445 1.386 . S
C2444 C2446 1.391 . S
C2445 C2444 1.386 . S
C2445 C2449 1.393 . S
C2446 H2438 0.950 . S
C2446 C2444 1.391 . S
C2446 C2447 1.400 . S
C2447 C2446 1.400 . S
C2447 C2448 1.398 . S
C2447 C2453 1.491 . S
C2448 H2439 0.950 . S
C2448 C2447 1.398 . S
C2448 C2449 1.391 . S
C2449 H2437 0.950 . S
C2449 C2445 1.393 . S
C2449 C2448 1.391 . S
C2450 H2440 0.950 . S
C2450 C2451 1.386 . S
C2450 C2452 1.391 . S
C2451 C2450 1.386 . S
C2451 C2455 1.393 . S
C2452 H2441 0.950 . S
C2452 C2450 1.391 . S
C2452 C2453 1.400 . S
C2453 C2447 1.491 . S
C2453 C2452 1.400 . S
C2453 C2454 1.398 . S
C2454 H2442 0.950 . S
C2454 C2453 1.398 . S
C2454 C2455 1.391 . S
C2455 H2443 0.950 . S
C2455 C2451 1.393 . S
C2455 C2454 1.391 . S
H2456 C2464 0.950 . S
H2457 C2469 0.950 . S
H2458 C2466 0.950 . S
H2459 C2468 0.950 . S
H2460 C2470 0.950 . S
H2461 C2472 0.950 . S
H2462 C2474 0.950 . S
H2463 C2475 0.950 . S
C2464 H2456 0.950 . S
C2464 C2465 1.386 . S
C2464 C2466 1.391 . S
C2465 C2464 1.386 . S
C2465 C2469 1.393 1_655 S
C2466 H2458 0.950 . S
C2466 C2464 1.391 . S
C2466 C2467 1.400 . S
C2467 C2466 1.400 . S
C2467 C2468 1.398 1_655 S
C2467 C2473 1.491 . S
C2468 H2459 0.950 . S
C2468 C2467 1.398 1_455 S
C2468 C2469 1.391 . S
C2469 H2457 0.950 . S
C2469 C2465 1.393 1_455 S
C2469 C2468 1.391 . S
C2470 H2460 0.950 . S
C2470 C2471 1.386 1_455 S
C2470 C2472 1.391 . S
C2471 C2470 1.386 1_655 S
C2471 C2475 1.393 . S
C2472 H2461 0.950 . S
C2472 C2470 1.391 . S
C2472 C2473 1.400 1_455 S
C2473 C2467 1.491 . S
C2473 C2472 1.400 1_655 S
C2473 C2474 1.398 . S
C2474 H2462 0.950 . S
C2474 C2473 1.398 . S
C2474 C2475 1.391 . S
C2475 H2463 0.950 . S
C2475 C2471 1.393 . S
C2475 C2474 1.391 . S
H2476 C2484 0.950 . S
H2477 C2489 0.950 . S
H2478 C2486 0.950 . S
H2479 C2488 0.950 . S
H2480 C2490 0.950 . S
H2481 C2492 0.950 . S
H2482 C2494 0.950 . S
H2483 C2495 0.950 . S
C2484 H2476 0.950 . S
C2484 C2485 1.386 . S
C2484 C2486 1.391 . S
C2485 C2484 1.386 . S
C2485 C2489 1.393 . S
C2486 H2478 0.950 . S
C2486 C2484 1.391 . S
C2486 C2487 1.400 . S
C2487 C2486 1.400 . S
C2487 C2488 1.398 . S
C2487 C2493 1.491 . S
C2488 H2479 0.950 . S
C2488 C2487 1.398 . S
C2488 C2489 1.391 . S
C2489 H2477 0.950 . S
C2489 C2485 1.393 . S
C2489 C2488 1.391 . S
C2490 H2480 0.950 . S
C2490 C2491 1.386 . S
C2490 C2492 1.391 . S
C2491 C2490 1.386 . S
C2491 C2495 1.393 . S
C2492 H2481 0.950 . S
C2492 C2490 1.391 . S
C2492 C2493 1.400 . S
C2493 C2487 1.491 . S
C2493 C2492 1.400 . S
C2493 C2494 1.398 . S
C2494 H2482 0.950 . S
C2494 C2493 1.398 . S
C2494 C2495 1.391 . S
C2495 H2483 0.950 . S
C2495 C2491 1.393 . S
C2495 C2494 1.391 . S
H2496 C2504 0.950 . S
H2497 C2509 0.950 . S
H2498 C2506 0.950 . S
H2499 C2508 0.950 . S
H2500 C2510 0.950 . S
H2501 C2512 0.950 . S
H2502 C2514 0.950 . S
H2503 C2515 0.950 . S
C2504 H2496 0.950 . S
C2504 C2505 1.386 . S
C2504 C2506 1.391 . S
C2505 C2504 1.386 . S
C2505 C2509 1.393 . S
C2506 H2498 0.950 . S
C2506 C2504 1.391 . S
C2506 C2507 1.400 . S
C2507 C2506 1.400 . S
C2507 C2508 1.398 . S
C2507 C2513 1.491 . S
C2508 H2499 0.950 . S
C2508 C2507 1.398 . S
C2508 C2509 1.391 . S
C2509 H2497 0.950 . S
C2509 C2505 1.393 . S
C2509 C2508 1.391 . S
C2510 H2500 0.950 . S
C2510 C2511 1.386 . S
C2510 C2512 1.391 . S
C2511 C2510 1.386 . S
C2511 C2515 1.393 . S
C2512 H2501 0.950 . S
C2512 C2510 1.391 . S
C2512 C2513 1.400 . S
C2513 C2507 1.491 . S
C2513 C2512 1.400 . S
C2513 C2514 1.398 . S
C2514 H2502 0.950 . S
C2514 C2513 1.398 . S
C2514 C2515 1.391 . S
C2515 H2503 0.950 . S
C2515 C2511 1.393 . S
C2515 C2514 1.391 . S
H2516 C2524 0.950 . S
H2517 C2529 0.950 . S
H2518 C2526 0.950 . S
H2519 C2528 0.950 . S
H2520 C2530 0.950 . S
H2521 C2532 0.950 . S
H2522 C2534 0.950 . S
H2523 C2535 0.950 . S
C2524 H2516 0.950 . S
C2524 C2525 1.386 . S
C2524 C2526 1.391 . S
C2525 C2524 1.386 . S
C2525 C2529 1.393 . S
C2526 H2518 0.950 . S
C2526 C2524 1.391 . S
C2526 C2527 1.400 . S
C2527 C2526 1.400 . S
C2527 C2528 1.398 . S
C2527 C2533 1.491 . S
C2528 H2519 0.950 . S
C2528 C2527 1.398 . S
C2528 C2529 1.391 . S
C2529 H2517 0.950 . S
C2529 C2525 1.393 . S
C2529 C2528 1.391 . S
C2530 H2520 0.950 . S
C2530 C2531 1.386 . S
C2530 C2532 1.391 . S
C2531 C2530 1.386 . S
C2531 C2535 1.393 . S
C2532 H2521 0.950 . S
C2532 C2530 1.391 . S
C2532 C2533 1.400 . S
C2533 C2527 1.491 . S
C2533 C2532 1.400 . S
C2533 C2534 1.398 . S
C2534 H2522 0.950 . S
C2534 C2533 1.398 . S
C2534 C2535 1.391 . S
C2535 H2523 0.950 . S
C2535 C2531 1.393 . S
C2535 C2534 1.391 . S
H2536 C2544 0.950 . S
H2537 C2549 0.950 . S
H2538 C2546 0.950 . S
H2539 C2548 0.950 . S
H2540 C2550 0.950 . S
H2541 C2552 0.950 . S
H2542 C2554 0.950 . S
H2543 C2555 0.950 . S
C2544 H2536 0.950 . S
C2544 C2545 1.386 . S
C2544 C2546 1.391 . S
C2545 C2544 1.386 . S
C2545 C2549 1.393 . S
C2546 H2538 0.950 . S
C2546 C2544 1.391 . S
C2546 C2547 1.400 . S
C2547 C2546 1.400 . S
C2547 C2548 1.398 . S
C2547 C2553 1.491 . S
C2548 H2539 0.950 . S
C2548 C2547 1.398 . S
C2548 C2549 1.391 . S
C2549 H2537 0.950 . S
C2549 C2545 1.393 . S
C2549 C2548 1.391 . S
C2550 H2540 0.950 . S
C2550 C2551 1.386 . S
C2550 C2552 1.391 . S
C2551 C2550 1.386 . S
C2551 C2555 1.393 . S
C2552 H2541 0.950 . S
C2552 C2550 1.391 . S
C2552 C2553 1.400 . S
C2553 C2547 1.491 . S
C2553 C2552 1.400 . S
C2553 C2554 1.398 . S
C2554 H2542 0.950 . S
C2554 C2553 1.398 . S
C2554 C2555 1.391 . S
C2555 H2543 0.950 . S
C2555 C2551 1.393 . S
C2555 C2554 1.391 . S
H2556 C2564 0.950 . S
H2557 C2569 0.950 . S
H2558 C2566 0.950 . S
H2559 C2568 0.950 . S
H2560 C2570 0.950 . S
H2561 C2572 0.950 . S
H2562 C2574 0.950 . S
H2563 C2575 0.950 . S
C2564 H2556 0.950 . S
C2564 C2565 1.386 . S
C2564 C2566 1.391 . S
C2565 C2564 1.386 . S
C2565 C2569 1.393 . S
C2566 H2558 0.950 . S
C2566 C2564 1.391 . S
C2566 C2567 1.400 . S
C2567 C2566 1.400 . S
C2567 C2568 1.398 . S
C2567 C2573 1.491 . S
C2568 H2559 0.950 . S
C2568 C2567 1.398 . S
C2568 C2569 1.391 . S
C2569 H2557 0.950 . S
C2569 C2565 1.393 . S
C2569 C2568 1.391 . S
C2570 H2560 0.950 . S
C2570 C2571 1.386 . S
C2570 C2572 1.391 . S
C2571 C2570 1.386 . S
C2571 C2575 1.393 . S
C2572 H2561 0.950 . S
C2572 C2570 1.391 . S
C2572 C2573 1.400 . S
C2573 C2567 1.491 . S
C2573 C2572 1.400 . S
C2573 C2574 1.398 . S
C2574 H2562 0.950 . S
C2574 C2573 1.398 . S
C2574 C2575 1.391 . S
C2575 H2563 0.950 . S
C2575 C2571 1.393 . S
C2575 C2574 1.391 . S
H2576 C2584 0.950 . S
H2577 C2589 0.950 1_556 S
H2578 C2586 0.950 . S
H2579 C2588 0.950 . S
H2580 C2590 0.950 . S
H2581 C2592 0.950 . S
H2582 C2594 0.950 . S
H2583 C2595 0.950 . S
C2584 H2576 0.950 . S
C2584 C2585 1.386 . S
C2584 C2586 1.391 . S
C2585 C2584 1.386 . S
C2585 C2589 1.393 . S
C2586 H2578 0.950 . S
C2586 C2584 1.391 . S
C2586 C2587 1.400 . S
C2587 C2586 1.400 . S
C2587 C2588 1.398 . S
C2587 C2593 1.491 . S
C2588 H2579 0.950 . S
C2588 C2587 1.398 . S
C2588 C2589 1.391 . S
C2589 H2577 0.950 1_554 S
C2589 C2585 1.393 . S
C2589 C2588 1.391 . S
C2590 H2580 0.950 . S
C2590 C2591 1.386 . S
C2590 C2592 1.391 . S
C2591 C2590 1.386 . S
C2591 C2595 1.393 . S
C2592 H2581 0.950 . S
C2592 C2590 1.391 . S
C2592 C2593 1.400 . S
C2593 C2587 1.491 . S
C2593 C2592 1.400 . S
C2593 C2594 1.398 . S
C2594 H2582 0.950 . S
C2594 C2593 1.398 . S
C2594 C2595 1.391 . S
C2595 H2583 0.950 . S
C2595 C2591 1.393 . S
C2595 C2594 1.391 . S
H2596 C2604 0.950 . S
H2597 C2609 0.950 . S
H2598 C2606 0.950 . S
H2599 C2608 0.950 . S
H2600 C2610 0.950 . S
H2601 C2612 0.950 . S
H2602 C2614 0.950 . S
H2603 C2615 0.950 . S
C2604 H2596 0.950 . S
C2604 C2605 1.386 . S
C2604 C2606 1.391 . S
C2605 C2604 1.386 . S
C2605 C2609 1.393 . S
C2606 H2598 0.950 . S
C2606 C2604 1.391 . S
C2606 C2607 1.400 . S
C2607 C2606 1.400 . S
C2607 C2608 1.398 . S
C2607 C2613 1.491 . S
C2608 H2599 0.950 . S
C2608 C2607 1.398 . S
C2608 C2609 1.391 . S
C2609 H2597 0.950 . S
C2609 C2605 1.393 . S
C2609 C2608 1.391 . S
C2610 H2600 0.950 . S
C2610 C2611 1.386 . S
C2610 C2612 1.391 . S
C2611 C2610 1.386 . S
C2611 C2615 1.393 . S
C2612 H2601 0.950 . S
C2612 C2610 1.391 . S
C2612 C2613 1.400 . S
C2613 C2607 1.491 . S
C2613 C2612 1.400 . S
C2613 C2614 1.398 . S
C2614 H2602 0.950 . S
C2614 C2613 1.398 . S
C2614 C2615 1.391 . S
C2615 H2603 0.950 . S
C2615 C2611 1.393 . S
C2615 C2614 1.391 . S
H2616 C2624 0.950 . S
H2617 C2629 0.950 1_554 S
H2618 C2626 0.950 . S
H2619 C2628 0.950 . S
H2620 C2630 0.950 . S
H2621 C2632 0.950 . S
H2622 C2634 0.950 . S
H2623 C2635 0.950 . S
C2624 H2616 0.950 . S
C2624 C2625 1.386 . S
C2624 C2626 1.391 . S
C2625 C2624 1.386 . S
C2625 C2629 1.393 . S
C2626 H2618 0.950 . S
C2626 C2624 1.391 . S
C2626 C2627 1.400 . S
C2627 C2626 1.400 . S
C2627 C2628 1.398 . S
C2627 C2633 1.491 . S
C2628 H2619 0.950 . S
C2628 C2627 1.398 . S
C2628 C2629 1.391 . S
C2629 H2617 0.950 1_556 S
C2629 C2625 1.393 . S
C2629 C2628 1.391 . S
C2630 H2620 0.950 . S
C2630 C2631 1.386 . S
C2630 C2632 1.391 . S
C2631 C2630 1.386 . S
C2631 C2635 1.393 . S
C2632 H2621 0.950 . S
C2632 C2630 1.391 . S
C2632 C2633 1.400 . S
C2633 C2627 1.491 . S
C2633 C2632 1.400 . S
C2633 C2634 1.398 . S
C2634 H2622 0.950 . S
C2634 C2633 1.398 . S
C2634 C2635 1.391 . S
C2635 H2623 0.950 . S
C2635 C2631 1.393 . S
C2635 C2634 1.391 . S
H2636 C2644 0.950 . S
H2637 C2649 0.950 . S
H2638 C2646 0.950 . S
H2639 C2648 0.950 . S
H2640 C2650 0.950 . S
H2641 C2652 0.950 . S
H2642 C2654 0.950 . S
H2643 C2655 0.950 . S
C2644 H2636 0.950 . S
C2644 C2645 1.386 . S
C2644 C2646 1.391 . S
C2645 C2644 1.386 . S
C2645 C2649 1.393 . S
C2646 H2638 0.950 . S
C2646 C2644 1.391 . S
C2646 C2647 1.400 . S
C2647 C2646 1.400 . S
C2647 C2648 1.398 . S
C2647 C2653 1.491 . S
C2648 H2639 0.950 . S
C2648 C2647 1.398 . S
C2648 C2649 1.391 . S
C2649 H2637 0.950 . S
C2649 C2645 1.393 . S
C2649 C2648 1.391 . S
C2650 H2640 0.950 . S
C2650 C2651 1.386 . S
C2650 C2652 1.391 . S
C2651 C2650 1.386 . S
C2651 C2655 1.393 . S
C2652 H2641 0.950 . S
C2652 C2650 1.391 . S
C2652 C2653 1.400 . S
C2653 C2647 1.491 . S
C2653 C2652 1.400 . S
C2653 C2654 1.398 . S
C2654 H2642 0.950 . S
C2654 C2653 1.398 . S
C2654 C2655 1.391 . S
C2655 H2643 0.950 . S
C2655 C2651 1.393 . S
C2655 C2654 1.391 . S
C1065 C7 0.764 . S
C1071 C73 0.764 . S
C1085 C40 0.733 . S
C1091 C106 0.733 . S
C1105 C139 0.737 . S
C1111 C205 0.737 . S
C1125 C172 0.746 . S
C1131 C238 0.746 . S
C1145 C337 0.743 . S
C1151 C271 0.743 1_554 S
C1165 C304 0.733 1_554 S
C1171 C370 0.733 . S
C1185 C403 0.744 1_556 S
C1191 C469 0.744 . S
C1205 C436 0.749 1_556 S
C1211 C502 0.750 . S
C1225 C601 0.769 . S
C1231 C535 0.761 1_554 S
C1245 C634 0.766 . S
C1251 C568 0.758 1_554 S
C1265 C667 0.752 1_556 S
C1271 C733 0.752 . S
C1285 C766 0.733 . S
C1291 C700 0.733 1_556 S
C1305 C865 0.769 . S
C1311 C799 0.769 . S
C1325 C898 0.742 . S
C1331 C832 0.741 . S
C1345 C997 0.749 . S
C1351 C931 0.749 . S
C1365 C964 0.755 . S
C1371 C1030 0.755 . S
C1385 N13 1.813 . S
C1391 N46 1.804 . S
C1405 N79 1.810 . S
C1411 N112 1.822 . S
C1425 N178 1.826 . S
C1431 N145 1.813 . S
C1445 N211 1.808 . S
C1451 N244 1.820 . S
C1465 N310 1.812 . S
C1471 N277 1.822 . S
C1485 N343 1.819 . S
C1491 N376 1.820 . S
C1505 N409 1.824 . S
C1511 N442 1.815 . S
C1525 N475 1.828 . S
C1531 N508 1.802 . S
C1545 N541 1.818 . S
C1551 N574 1.813 . S
C1565 N640 1.832 . S
C1571 N607 1.814 . S
C1585 N706 1.831 . S
C1591 N673 1.812 . S
C1605 N739 1.828 . S
C1611 N772 1.825 . S
C1625 N805 1.812 . S
C1631 N838 1.831 . S
C1645 N871 1.820 . S
C1651 N904 1.812 . S
C1665 N937 1.832 . S
C1671 N970 1.816 . S
C1685 N1036 1.821 . S
C1691 N1003 1.811 . S
C1705 C153 1.631 . S
C1711 C21 1.631 . S
C1725 C54 1.641 . S
C1731 C978 1.641 . S
C1745 C483 1.646 . S
C1751 C87 1.646 . S
C1765 C780 1.637 . S
C1771 C120 1.637 . S
C1785 C846 1.632 . S
C1791 C186 1.632 . S
C1805 C351 1.644 . S
C1811 C219 1.643 . S
C1825 C252 1.641 . S
C1831 C648 1.641 . S
C1845 C417 1.640 . S
C1851 C285 1.640 . S
C1865 C318 1.649 . S
C1871 C714 1.649 . S
C1885 C384 1.646 . S
C1891 C1044 1.646 . S
C1905 C582 1.634 . S
C1911 C450 1.634 . S
C1925 C912 1.647 . S
C1931 C516 1.647 . S
C1945 C549 1.646 . S
C1951 C681 1.646 . S
C1965 C615 1.646 . S
C1971 C1011 1.646 . S
C1985 C879 1.633 . S
C1991 C747 1.633 . S
C2005 C813 1.645 . S
C2011 C945 1.645 . S
C2025 N2 1.207 . S
C2031 N629 1.216 . S
C2045 N596 1.203 . S
C2051 N35 1.207 . S
C2065 N68 1.208 . S
C2071 N563 1.218 . S
C2085 N101 1.239 . S
C2091 N530 1.239 . S
C2105 N761 1.212 . S
C2111 N134 1.215 . S
C2125 N167 1.239 . S
C2131 N728 1.239 . S
C2145 N695 1.221 . S
C2151 N200 1.222 . S
C2165 N233 1.233 . S
C2171 N662 1.237 . S
C2185 N266 1.212 . S
C2191 N893 1.215 . S
C2205 N299 1.206 . S
C2211 N860 1.211 . S
C2225 N332 1.224 . S
C2231 N827 1.237 . S
C2245 N365 1.226 . S
C2251 N794 1.219 . S
C2265 N398 1.222 . S
C2271 N1025 1.236 . S
C2285 N992 1.221 . S
C2291 N431 1.228 . S
C2305 N959 1.231 . S
C2311 N464 1.244 . S
C2325 N926 1.224 . S
C2331 N497 1.230 . S
C2345 C18 1.269 . S
C2351 C84 1.268 1_554 S
C2365 C117 1.266 1_554 S
C2371 C51 1.266 . S
C2385 C216 1.269 1_556 S
C2391 C150 1.268 . S
C2405 C183 1.266 . S
C2411 C249 1.267 1_556 S
C2425 C282 1.269 . S
C2431 C348 1.268 . S
C2445 C315 1.267 . S
C2451 C381 1.266 . S
C2465 C480 1.267 . S
C2471 C414 1.268 . S
C2485 C447 1.267 . S
C2491 C513 1.268 . S
C2505 C546 1.266 . S
C2511 C612 1.267 . S
C2525 C579 1.268 . S
C2531 C645 1.267 . S
C2545 C744 1.266 . S
C2551 C678 1.267 . S
C2565 C777 1.266 . S
C2571 C711 1.266 . S
C2585 C876 1.266 1_554 S
C2591 C810 1.267 . S
C2605 C843 1.266 . S
C2611 C909 1.266 1_554 S
C2625 C1008 1.268 1_556 S
C2631 C942 1.267 . S
C2645 C975 1.266 . S
C2651 C1041 1.266 1_556 S
