# Generated by pormake.
# Topology uki, (4)-cn, num edge types: 1
# Building blocks:
#     Node 0, Type 0, BuildingBlock: ESEHIV_clean_sbu_0, # of connection points: 4
#     Node 1, Type 0, BuildingBlock: ESEHIV_clean_sbu_0, # of connection points: 4
#     Node 2, Type 0, BuildingBlock: ESEHIV_clean_sbu_0, # of connection points: 4
#     Node 3, Type 0, BuildingBlock: ESEHIV_clean_sbu_0, # of connection points: 4
#     Node 4, Type 0, BuildingBlock: ESEHIV_clean_sbu_0, # of connection points: 4
#     Node 5, Type 0, BuildingBlock: ESEHIV_clean_sbu_0, # of connection points: 4
#     Node 6, Type 0, BuildingBlock: ESEHIV_clean_sbu_0, # of connection points: 4
#     Node 7, Type 0, BuildingBlock: ESEHIV_clean_sbu_0, # of connection points: 4
#     Node 8, Type 0, BuildingBlock: ESEHIV_clean_sbu_0, # of connection points: 4
#     Node 9, Type 0, BuildingBlock: ESEHIV_clean_sbu_0, # of connection points: 4
#     Node 10, Type 0, BuildingBlock: ESEHIV_clean_sbu_0, # of connection points: 4
#     Node 11, Type 0, BuildingBlock: ESEHIV_clean_sbu_0, # of connection points: 4
#     Node 12, Type 0, BuildingBlock: ESEHIV_clean_sbu_0, # of connection points: 4
#     Node 13, Type 0, BuildingBlock: ESEHIV_clean_sbu_0, # of connection points: 4
#     Node 14, Type 0, BuildingBlock: ESEHIV_clean_sbu_0, # of connection points: 4
#     Node 15, Type 0, BuildingBlock: ESEHIV_clean_sbu_0, # of connection points: 4
#     Edge 16, Type (0, 0), None
#     Edge 17, Type (0, 0), None
#     Edge 18, Type (0, 0), None
#     Edge 19, Type (0, 0), None
#     Edge 20, Type (0, 0), None
#     Edge 21, Type (0, 0), None
#     Edge 22, Type (0, 0), None
#     Edge 23, Type (0, 0), None
#     Edge 24, Type (0, 0), None
#     Edge 25, Type (0, 0), None
#     Edge 26, Type (0, 0), None
#     Edge 27, Type (0, 0), None
#     Edge 28, Type (0, 0), None
#     Edge 29, Type (0, 0), None
#     Edge 30, Type (0, 0), None
#     Edge 31, Type (0, 0), None
#     Edge 32, Type (0, 0), None
#     Edge 33, Type (0, 0), None
#     Edge 34, Type (0, 0), None
#     Edge 35, Type (0, 0), None
#     Edge 36, Type (0, 0), None
#     Edge 37, Type (0, 0), None
#     Edge 38, Type (0, 0), None
#     Edge 39, Type (0, 0), None
#     Edge 40, Type (0, 0), None
#     Edge 41, Type (0, 0), None
#     Edge 42, Type (0, 0), None
#     Edge 43, Type (0, 0), None
#     Edge 44, Type (0, 0), None
#     Edge 45, Type (0, 0), None
#     Edge 46, Type (0, 0), None
#     Edge 47, Type (0, 0), None
# Relax obj value: 0.137
# Max RMSD: 0.222
# Mean RMSD: 0.184
data_MOF--net-uki--node1-ESEHIV_clean_sbu_0--edge1-none
_symmetry_space_group_name_H-M    P1
_symmetry_Int_Tables_number       1
_symmetry_cell_setting            triclinic
loop_
_symmetry_equiv_pos_as_xyz
'x, y, z'
_cell_length_a     18.296855
_cell_length_b     12.499061
_cell_length_c     40.253084
_cell_angle_alpha  90.005881
_cell_angle_beta   90.00889
_cell_angle_gamma 89.999402
loop_
_atom_site_label
_atom_site_type_symbol
_atom_site_fract_x
_atom_site_fract_y
_atom_site_fract_z
_atom_type_partial_charge
Cu0 Cu 0.15618 0.24164 0.32519 0.0
N1 N 0.0808 0.33214 0.31043 0.0
N2 N 1.00715 0.42545 0.27668 0.0
C3 C 0.06383 0.35627 0.27849 0.0
C4 C 0.9876 0.44472 0.30852 0.0
C5 C 1.0336 0.38834 0.32917 0.0
O6 O 0.2388 0.28206 0.29766 0.0
C7 C 0.07799 1.02468 0.31818 0.0
O8 O 0.09074 0.92218 0.31552 0.0
H9 H 0.09262 0.32428 0.25722 0.0
H10 H 1.0325 0.38832 0.356 0.0
N11 N 0.18476 0.26416 0.36955 0.0
N12 N 0.25781 0.27436 0.41403 0.0
C13 C 0.25445 0.26525 0.38066 0.0
C14 C 0.14289 0.27146 0.39701 0.0
C15 C 0.18789 0.27822 0.42457 0.0
C16 C 0.27202 0.37173 0.30019 0.0
O17 O 0.25722 0.43562 0.3252 0.0
H18 H 0.30152 0.25634 0.36465 0.0
H19 H 0.08383 0.26881 0.39713 0.0
O20 O 0.13358 0.0875 0.31947 0.0
H21 H 0.94407 0.49697 0.31663 0.0
H22 H 0.17049 0.28372 0.45019 0.0
Cu23 Cu 0.2748 1.01619 0.72284 0.0
N24 N 0.19663 0.07356 0.69752 0.0
N25 N 0.07544 0.06536 0.68837 0.0
C26 C 0.13765 1.00979 0.69259 0.0
C27 C 0.09471 0.16865 0.69108 0.0
C28 C 0.16934 0.17386 0.69605 0.0
O29 O 0.26692 0.86599 0.71185 0.0
C30 C 0.27444 0.17064 0.77005 0.0
O31 O 0.2885 0.22291 0.74257 0.0
H32 H 0.13837 0.9245 0.6966 0.0
H33 H 0.19882 0.2461 0.70173 0.0
N34 N 0.37775 1.03351 0.71845 0.0
N35 N 0.47348 0.96862 0.74778 0.0
C36 C 0.41351 1.03073 0.74794 0.0
C37 C 0.42171 0.97543 0.69821 0.0
C38 C 0.4802 0.93469 0.71623 0.0
C39 C 0.26984 0.84761 0.68053 0.0
O40 O 0.27452 0.92765 0.6595 0.0
H41 H 0.38971 0.05689 0.77076 0.0
H42 H 0.40739 0.9502 0.67341 0.0
O43 O 0.2586 0.07094 0.76787 0.0
H44 H 0.05684 0.23413 0.69344 0.0
H45 H 0.5194 0.8761 0.70763 0.0
Cu46 Cu 0.92293 0.8454 0.32528 0.0
N47 N 0.99832 0.75485 0.31054 0.0
N48 N 0.07188 0.66135 0.27681 0.0
C49 C 1.01512 0.7304 0.27861 0.0
C50 C 0.09165 0.64251 0.30865 0.0
C51 C 0.04571 0.69901 0.32929 0.0
O52 O 0.84042 0.80528 0.29763 0.0
C53 C 1.00125 0.0624 0.31838 0.0
O54 O 0.98846 0.16497 0.31606 0.0
H55 H 0.98617 0.76209 0.25734 0.0
H56 H 0.047 0.69936 0.35612 0.0
N57 N 0.89421 0.82268 0.36961 0.0
N58 N 0.82116 0.81297 0.41409 0.0
C59 C 0.82451 0.82202 0.38071 0.0
C60 C 0.93606 0.81517 0.39707 0.0
C61 C 0.89107 0.8087 0.42462 0.0
C62 C 0.80713 0.71566 0.30008 0.0
O63 O 0.82169 0.65171 0.3251 0.0
H64 H 0.77746 0.83127 0.3647 0.0
H65 H 0.99512 0.81761 0.3972 0.0
O66 O 0.94567 0.99957 0.31976 0.0
H67 H 0.13531 0.59051 0.31677 0.0
H68 H 0.90848 0.80322 0.45025 0.0
Cu69 Cu 0.80408 0.07122 0.72304 0.0
N70 N 0.8825 1.01458 0.69775 0.0
N71 N 1.00359 1.02326 0.68847 0.0
C72 C 0.94139 0.07862 0.69292 0.0
C73 C 0.98441 0.91987 0.69089 0.0
C74 C 0.90983 0.91437 0.69596 0.0
O75 O 0.81153 0.22134 0.712 0.0
C76 C 0.80502 0.9169 0.77027 0.0
O77 O 0.79165 0.8643 0.74278 0.0
H78 H 0.94059 0.16386 0.69708 0.0
H79 H 0.88042 0.84195 0.70148 0.0
N80 N 0.70118 0.0532 0.71858 0.0
N81 N 0.60543 0.11798 0.7479 0.0
C82 C 0.66543 0.05591 0.74806 0.0
C83 C 0.65713 0.11112 0.69833 0.0
C84 C 0.59865 0.15183 0.71636 0.0
C85 C 0.80856 0.23932 0.68066 0.0
O86 O 0.80401 0.15903 0.65971 0.0
H87 H 0.68923 1.02973 0.77087 0.0
H88 H 0.67135 0.13629 0.67352 0.0
O89 O 0.82037 1.01676 0.76809 0.0
H90 H 1.02236 0.85448 0.69304 0.0
H91 H 0.5594 0.21037 0.70776 0.0
Cu92 Cu 0.15619 0.34513 1.02301 0.0
N93 N 0.08068 0.25483 1.03774 0.0
N94 N 1.00705 0.1616 0.07149 0.0
C95 C 0.06356 0.23105 0.06968 0.0
C96 C 0.9877 0.14188 1.03966 0.0
C97 C 1.03369 0.19822 1.019 0.0
O98 O 0.23904 0.30363 1.05029 0.0
C99 C 0.07837 0.56228 1.03027 0.0
O100 O 0.09122 0.66464 1.03332 0.0
H101 H 0.09222 0.26334 0.09094 0.0
H102 H 1.03279 0.19786 0.99217 0.0
N103 N 0.18452 0.3232 0.97858 0.0
N104 N 0.25752 0.31322 0.93409 0.0
C105 C 0.2542 0.32211 0.96747 0.0
C106 C 0.14261 0.31609 0.95113 0.0
C107 C 0.18759 0.30948 0.92356 0.0
C108 C 0.2718 0.21366 1.04754 0.0
O109 O 0.25586 0.14986 1.02265 0.0
H110 H 0.30128 0.33078 0.98349 0.0
H111 H 0.08355 0.31866 0.95102 0.0
O112 O 0.13389 0.49928 1.02905 0.0
H113 H 0.94433 0.08931 1.03155 0.0
H114 H 0.17016 0.3041 0.89793 0.0
Cu115 Cu 0.30373 1.01538 0.12506 0.0
N116 N 0.38249 0.07136 0.15023 0.0
N117 N 0.50343 0.0628 0.15978 0.0
C118 C 0.44154 1.00738 0.15459 0.0
C119 C 0.48385 0.16623 0.15825 0.0
C120 C 0.40927 0.17162 0.15305 0.0
O121 O 0.31092 0.86526 0.13614 0.0
C122 C 0.30583 0.16931 0.07758 0.0
O123 O 0.29446 0.22314 0.10502 0.0
H124 H 0.44104 0.92252 0.14968 0.0
H125 H 0.37939 0.24421 0.14827 0.0
N126 N 0.20102 1.03431 0.12979 0.0
N127 N 0.10531 0.96946 0.10043 0.0
C128 C 0.16497 1.03227 0.10037 0.0
C129 C 0.15728 0.97559 0.14996 0.0
C130 C 0.09887 0.93478 0.1319 0.0
C131 C 0.30863 0.84728 0.1675 0.0
O132 O 0.30469 0.92757 0.18848 0.0
H133 H 0.18836 0.05968 0.07762 0.0
H134 H 0.17178 0.94984 0.17468 0.0
O135 O 0.31983 0.06906 0.0799 0.0
H136 H 0.52161 0.23204 0.15693 0.0
H137 H 0.06002 0.87555 0.1404 0.0
Cu138 Cu 0.92346 0.7422 1.02277 0.0
N139 N 0.99892 0.83252 1.0376 0.0
N140 N 0.07209 0.92609 0.07151 0.0
C141 C 1.01526 0.85721 0.06956 0.0
C142 C 0.09245 0.94453 1.03973 0.0
C143 C 0.04675 0.88796 1.01897 0.0
O144 O 0.84081 0.78248 1.05034 0.0
C145 C 1.00157 0.52483 1.02963 0.0
O146 O 0.98859 0.42224 1.03164 0.0
H147 H 0.98586 0.8259 0.09076 0.0
H148 H 0.0485 0.88729 0.99215 0.0
N149 N 0.8947 0.76517 0.97845 0.0
N150 N 0.82148 0.77481 0.93401 0.0
C151 C 0.82497 0.76557 0.96738 0.0
C152 C 0.93645 0.77303 0.95097 0.0
C153 C 0.89134 0.77945 0.92344 0.0
C154 C 0.80752 0.87209 1.04777 0.0
O155 O 0.8225 0.93607 1.02281 0.0
H156 H 0.77799 0.75599 0.98341 0.0
H157 H 0.99552 0.77086 0.95081 0.0
O158 O 0.9461 0.58787 1.02814 0.0
H159 H 0.1364 0.99619 1.03174 0.0
H160 H 0.90865 0.78518 0.89781 0.0
Cu161 Cu 0.77468 0.0708 0.12521 0.0
N162 N 0.69656 1.01357 0.15054 0.0
N163 N 0.57541 1.02123 0.15971 0.0
C164 C 0.63742 0.07712 0.15532 0.0
C165 C 0.59499 0.91799 0.15732 0.0
C166 C 0.66962 0.91312 0.15232 0.0
O167 O 0.76684 0.22101 0.13616 0.0
C168 C 0.77428 0.91621 0.07802 0.0
O169 O 0.78799 0.86374 0.1055 0.0
H170 H 0.63788 0.16235 0.15111 0.0
H171 H 0.69939 0.84093 0.1469 0.0
N172 N 0.87761 0.05345 0.12961 0.0
N173 N 0.97324 0.11867 0.10034 0.0
C174 C 0.9133 0.05651 0.10012 0.0
C175 C 0.92159 0.11135 0.14991 0.0
C176 C 0.98008 0.15223 0.13191 0.0
C177 C 0.76974 0.23942 0.16749 0.0
O178 O 0.77432 0.1594 0.18853 0.0
H179 H 0.88948 1.03054 0.07729 0.0
H180 H 0.90731 0.13632 0.17474 0.0
O181 O 0.7585 1.01594 0.08019 0.0
H182 H 0.55729 0.85219 0.15528 0.0
H183 H 1.01937 0.21062 0.14057 0.0
Cu184 Cu 0.65603 0.7419 0.82526 0.0
N185 N 0.58057 0.83224 0.81047 0.0
N186 N 0.50706 0.92549 0.77665 0.0
C187 C 0.56371 0.85628 0.77852 0.0
C188 C 0.48739 0.94484 0.80847 0.0
C189 C 0.5333 0.88848 0.82917 0.0
O190 O 0.73875 0.78277 0.79784 0.0
C191 C 0.57803 0.52476 0.81818 0.0
O192 O 0.59088 0.4223 0.81546 0.0
H193 H 0.59263 0.82432 0.75728 0.0
H194 H 0.53213 0.88854 0.85599 0.0
N195 N 0.68456 0.7643 0.86964 0.0
N196 N 0.75768 0.77439 0.9141 0.0
C197 C 0.75427 0.76527 0.88073 0.0
C198 C 0.64273 0.77172 0.89711 0.0
C199 C 0.68778 0.77842 0.92465 0.0
C200 C 0.7718 0.87255 0.80049 0.0
O201 O 0.75651 0.93643 0.82544 0.0
H202 H 0.80131 0.75632 0.8647 0.0
H203 H 0.58367 0.76926 0.89724 0.0
O204 O 0.63357 0.5877 0.81947 0.0
H205 H 0.44385 0.99715 0.81653 0.0
H206 H 0.67042 0.78406 0.95028 0.0
Cu207 Cu 0.77451 0.51668 0.22263 0.0
N208 N 0.69663 0.57449 0.19717 0.0
N209 N 0.57537 0.56569 0.18807 0.0
C210 C 0.63793 0.51053 0.19176 0.0
C211 C 0.59412 0.66892 0.19159 0.0
C212 C 0.66872 0.67454 0.19654 0.0
O213 O 0.76651 0.36645 0.21171 0.0
C214 C 0.77484 0.67138 0.26965 0.0
O215 O 0.79032 0.72282 0.24216 0.0
H216 H 0.63902 0.42499 0.19513 0.0
H217 H 0.69765 0.74661 0.20292 0.0
N218 N 0.8776 0.53338 0.21853 0.0
N219 N 0.97326 0.46839 0.24786 0.0
C220 C 0.91303 0.5299 0.24809 0.0
C221 C 0.92191 0.47613 0.19821 0.0
C222 C 0.98045 0.43543 0.21623 0.0
C223 C 0.77005 0.34795 0.18041 0.0
O224 O 0.77529 0.42791 0.15938 0.0
H225 H 0.88884 0.55498 0.27095 0.0
H226 H 0.90793 0.45156 0.17331 0.0
O227 O 0.75805 0.57199 0.26757 0.0
H228 H 0.55596 0.7338 0.19466 0.0
H229 H 1.02007 0.3776 0.20753 0.0
Cu230 Cu 0.42311 0.34512 0.82536 0.0
N231 N 0.49856 0.25473 0.81059 0.0
N232 N 0.57196 0.16126 0.77678 0.0
C233 C 0.51522 0.23031 0.77865 0.0
C234 C 0.59189 0.14239 0.80859 0.0
C235 C 0.54606 0.19889 0.82929 0.0
O236 O 0.3405 0.30463 0.7978 0.0
C237 C 0.50125 0.56231 0.8184 0.0
O238 O 0.48835 0.66485 0.81607 0.0
H239 H 0.48611 0.26194 0.75741 0.0
H240 H 0.54747 0.19922 0.85611 0.0
N241 N 0.39441 0.32247 0.8697 0.0
N242 N 0.32128 0.31292 0.91416 0.0
C243 C 0.32469 0.32198 0.88078 0.0
C244 C 0.43622 0.3148 0.89717 0.0
C245 C 0.39117 0.30841 0.92471 0.0
C246 C 0.30733 0.21492 0.80036 0.0
O247 O 0.32232 0.15097 0.82533 0.0
H248 H 0.27768 0.33132 0.86476 0.0
H249 H 0.49528 0.31702 0.89731 0.0
O250 O 0.44572 0.49935 0.8198 0.0
H251 H 0.6356 0.09038 0.81665 0.0
H252 H 0.40854 0.30278 0.95034 0.0
Cu253 Cu 0.30443 0.57071 0.22282 0.0
N254 N 0.38255 0.51357 0.19737 0.0
N255 N 0.50372 0.52281 0.18817 0.0
C256 C 0.44115 0.5778 0.19201 0.0
C257 C 0.48508 0.41948 0.19151 0.0
C258 C 0.41053 0.4136 0.19654 0.0
O259 O 0.31203 0.72085 0.21186 0.0
C260 C 0.30455 0.41607 0.26983 0.0
O261 O 0.28952 0.36443 0.24233 0.0
H262 H 0.43997 0.66332 0.19548 0.0
H263 H 0.38171 0.34137 0.20283 0.0
N264 N 0.20139 0.5534 0.21867 0.0
N265 N 0.10569 0.61828 0.24799 0.0
C266 C 0.16599 0.55688 0.24823 0.0
C267 C 0.15695 0.61041 0.19834 0.0
C268 C 0.09841 0.65107 0.21636 0.0
C269 C 0.30837 0.73896 0.18054 0.0
O270 O 0.30324 0.65874 0.15959 0.0
H271 H 0.19022 0.53192 0.27109 0.0
H272 H 0.17081 0.63486 0.17341 0.0
O273 O 0.321 0.51558 0.26776 0.0
H274 H 0.52334 0.35474 0.19446 0.0
H275 H 0.05871 0.70877 0.20765 0.0
Cu276 Cu 0.65623 0.84528 0.52299 0.0
N277 N 0.58078 0.7549 0.53772 0.0
N278 N 0.50711 0.66166 0.57146 0.0
C279 C 0.56364 0.7311 0.56966 0.0
C280 C 0.4878 0.64195 0.53961 0.0
C281 C 0.53381 0.69829 0.51897 0.0
O282 O 0.73902 0.80408 0.55033 0.0
C283 C 0.57833 0.06232 0.5302 0.0
O284 O 0.59114 0.1647 0.53323 0.0
H285 H 0.59227 0.7634 0.59093 0.0
H286 H 0.53294 0.69794 0.49214 0.0
N287 N 0.68453 0.82327 0.47857 0.0
N288 N 0.75744 0.81333 0.43404 0.0
C289 C 0.75419 0.82218 0.46743 0.0
C290 C 0.64257 0.81618 0.45112 0.0
C291 C 0.68749 0.80958 0.42354 0.0
C292 C 0.7719 0.71417 0.54766 0.0
O293 O 0.75635 0.65034 0.52273 0.0
H294 H 0.8013 0.83082 0.48343 0.0
H295 H 0.58351 0.8188 0.45104 0.0
O296 O 0.63388 0.99939 0.52899 0.0
H297 H 0.44446 0.58936 0.5315 0.0
H298 H 0.67001 0.80421 0.39792 0.0
Cu299 Cu 0.80392 0.51572 0.62519 0.0
N300 N 0.88249 0.57216 0.65043 0.0
N301 N 1.00355 0.56318 0.65981 0.0
C302 C 0.94134 0.50799 0.65518 0.0
C303 C 0.98441 0.66663 0.65752 0.0
C304 C 0.90984 0.67231 0.65241 0.0
O305 O 0.81127 0.3656 0.63625 0.0
C306 C 0.80528 0.6698 0.57785 0.0
O307 O 0.79244 0.72284 0.60531 0.0
H308 H 0.9405 0.42284 0.65085 0.0
H309 H 0.88044 0.74484 0.64702 0.0
N310 N 0.70108 0.5341 0.62974 0.0
N311 N 0.60536 0.46932 0.60038 0.0
C312 C 0.66521 0.53171 0.60028 0.0
C313 C 0.65715 0.47581 0.64994 0.0
C314 C 0.59871 0.43507 0.63189 0.0
C315 C 0.80853 0.34763 0.6676 0.0
O316 O 0.80416 0.42792 0.68856 0.0
H317 H 0.68883 0.55846 0.57749 0.0
H318 H 0.67147 0.45038 0.67471 0.0
O319 O 0.82016 0.56981 0.58009 0.0
H320 H 1.02241 0.732 0.65548 0.0
H321 H 0.55964 0.37621 0.64043 0.0
Cu322 Cu 0.4234 0.24203 0.52276 0.0
N323 N 0.49881 0.33241 0.53759 0.0
N324 N 0.57204 0.42596 0.57147 0.0
C325 C 0.51521 0.35709 0.56955 0.0
C326 C 0.59232 0.44444 0.53968 0.0
C327 C 0.54659 0.38789 0.51894 0.0
O328 O 0.3408 0.28211 0.55037 0.0
C329 C 0.50156 1.02477 0.52959 0.0
O330 O 0.48864 0.92217 0.5316 0.0
H331 H 0.48587 0.32575 0.59076 0.0
H332 H 0.54828 0.38725 0.49213 0.0
N333 N 0.39469 0.26505 0.47844 0.0
N334 N 0.32157 0.27467 0.43397 0.0
C335 C 0.32498 0.2655 0.46734 0.0
C336 C 0.4365 0.27284 0.45097 0.0
C337 C 0.39145 0.27928 0.42343 0.0
C338 C 0.30745 0.37168 0.54787 0.0
O339 O 0.32214 0.43568 0.52288 0.0
H340 H 0.27797 0.25598 0.48335 0.0
H341 H 0.49556 0.27061 0.45083 0.0
O342 O 0.44606 0.08774 0.52811 0.0
H343 H 0.63622 0.49615 0.53166 0.0
H344 H 0.40882 0.28499 0.3978 0.0
Cu345 Cu 0.27457 0.5705 0.62532 0.0
N346 N 0.1966 0.51284 0.6507 0.0
N347 N 0.07537 0.52097 0.65974 0.0
C348 C 0.13767 0.57656 0.65583 0.0
C349 C 0.09453 0.41775 0.65671 0.0
C350 C 0.16916 0.41256 0.65178 0.0
O351 O 0.26658 0.7207 0.63627 0.0
C352 C 0.27473 0.41583 0.57822 0.0
O353 O 0.28953 0.36399 0.60571 0.0
H354 H 0.13845 0.662 0.65213 0.0
H355 H 0.19851 0.34046 0.64583 0.0
N356 N 0.37759 0.5536 0.62957 0.0
N357 N 0.47323 0.61875 0.60028 0.0
C358 C 0.41313 0.55695 0.60004 0.0
C359 C 0.42174 0.61111 0.64989 0.0
C360 C 0.48026 0.65193 0.63189 0.0
C361 C 0.26986 0.7391 0.66759 0.0
O362 O 0.27483 0.65908 0.68861 0.0
H363 H 0.3891 0.53156 0.57719 0.0
H364 H 0.40763 0.63581 0.67477 0.0
O365 O 0.25828 0.51535 0.58034 0.0
H366 H 0.05662 0.35241 0.65407 0.0
H367 H 0.51974 0.70998 0.64059 0.0
loop_
_geom_bond_atom_site_label_1
_geom_bond_atom_site_label_2
_geom_bond_distance
_geom_bond_site_symmetry_2
_ccdc_geom_bond_type
Cu0 N1 1.999 . S
Cu0 O6 1.974 . S
Cu0 N11 1.985 . S
Cu0 O20 1.959 . S
N1 Cu0 1.999 . S
N1 C3 1.263 . S
N1 C5 1.389 1_455 S
N2 C3 1.358 1_655 S
N2 C4 1.400 . S
C3 N1 1.263 . S
C3 N2 1.358 1_455 S
C3 H9 0.930 . S
C4 N2 1.400 . S
C4 C5 1.351 . S
C4 H21 0.930 . S
C5 N1 1.389 1_655 S
C5 C4 1.351 . S
C5 H10 0.930 . S
O6 Cu0 1.974 . S
O6 C16 1.282 . S
C7 O8 1.261 . S
C7 O20 1.251 . S
O8 C7 1.261 . S
H9 C3 0.930 . S
H10 C5 0.930 . S
N11 Cu0 1.985 . S
N11 C13 1.335 . S
N11 C14 1.390 . S
N12 C13 1.345 . S
N12 C15 1.336 . S
C13 N11 1.335 . S
C13 N12 1.345 . S
C13 H18 0.930 . S
C14 N11 1.390 . S
C14 C15 1.346 . S
C14 H19 0.930 . S
C15 N12 1.336 . S
C15 C14 1.346 . S
C15 H22 0.929 . S
C16 O6 1.282 . S
C16 O17 1.216 . S
O17 C16 1.216 . S
H18 C13 0.930 . S
H19 C14 0.930 . S
O20 Cu0 1.959 . S
O20 C7 1.251 . S
H21 C4 0.930 . S
H22 C15 0.929 . S
Cu23 N24 1.999 . S
Cu23 O29 1.974 . S
Cu23 N34 1.985 . S
Cu23 O43 1.959 1_565 S
N24 Cu23 1.999 . S
N24 C26 1.263 . S
N24 C28 1.389 1_565 S
N25 C26 1.358 1_545 S
N25 C27 1.400 . S
C26 N24 1.263 . S
C26 N25 1.358 1_565 S
C26 H32 0.930 . S
C27 N25 1.400 . S
C27 C28 1.351 . S
C27 H44 0.930 . S
C28 N24 1.389 1_545 S
C28 C27 1.351 . S
C28 H33 0.930 . S
O29 Cu23 1.974 . S
O29 C39 1.282 . S
C30 O31 1.261 . S
C30 O43 1.251 . S
O31 C30 1.261 . S
H32 C26 0.930 . S
H33 C28 0.930 . S
N34 Cu23 1.985 . S
N34 C36 1.335 . S
N34 C37 1.390 . S
N35 C36 1.345 . S
N35 C38 1.336 . S
C36 N34 1.335 . S
C36 N35 1.345 . S
C36 H41 0.930 . S
C37 N34 1.390 . S
C37 C38 1.346 . S
C37 H42 0.930 . S
C38 N35 1.336 . S
C38 C37 1.346 . S
C38 H45 0.929 . S
C39 O29 1.282 . S
C39 O40 1.216 . S
O40 C39 1.216 . S
H41 C36 0.930 . S
H42 C37 0.930 . S
O43 Cu23 1.959 1_545 S
O43 C30 1.251 . S
H44 C27 0.930 . S
H45 C38 0.929 . S
Cu46 N47 1.999 . S
Cu46 O52 1.974 . S
Cu46 N57 1.985 . S
Cu46 O66 1.959 . S
N47 Cu46 1.999 . S
N47 C49 1.263 . S
N47 C51 1.389 1_655 S
N48 C49 1.358 1_455 S
N48 C50 1.400 . S
C49 N47 1.263 . S
C49 N48 1.358 1_655 S
C49 H55 0.930 . S
C50 N48 1.400 . S
C50 C51 1.351 . S
C50 H67 0.930 . S
C51 N47 1.389 1_455 S
C51 C50 1.351 . S
C51 H56 0.930 . S
O52 Cu46 1.974 . S
O52 C62 1.282 . S
C53 O54 1.261 . S
C53 O66 1.251 . S
O54 C53 1.261 . S
H55 C49 0.930 . S
H56 C51 0.930 . S
N57 Cu46 1.985 . S
N57 C59 1.335 . S
N57 C60 1.390 . S
N58 C59 1.345 . S
N58 C61 1.336 . S
C59 N57 1.335 . S
C59 N58 1.345 . S
C59 H64 0.930 . S
C60 N57 1.390 . S
C60 C61 1.346 . S
C60 H65 0.930 . S
C61 N58 1.336 . S
C61 C60 1.346 . S
C61 H68 0.929 . S
C62 O52 1.282 . S
C62 O63 1.216 . S
O63 C62 1.216 . S
H64 C59 0.930 . S
H65 C60 0.930 . S
O66 Cu46 1.959 . S
O66 C53 1.251 . S
H67 C50 0.930 . S
H68 C61 0.929 . S
Cu69 N70 1.999 . S
Cu69 O75 1.974 . S
Cu69 N80 1.985 . S
Cu69 O89 1.959 1_545 S
N70 Cu69 1.999 . S
N70 C72 1.263 . S
N70 C74 1.389 1_545 S
N71 C72 1.358 1_565 S
N71 C73 1.400 . S
C72 N70 1.263 . S
C72 N71 1.358 1_545 S
C72 H78 0.930 . S
C73 N71 1.400 . S
C73 C74 1.351 . S
C73 H90 0.930 . S
C74 N70 1.389 1_565 S
C74 C73 1.351 . S
C74 H79 0.930 . S
O75 Cu69 1.974 . S
O75 C85 1.282 . S
C76 O77 1.261 . S
C76 O89 1.251 . S
O77 C76 1.261 . S
H78 C72 0.930 . S
H79 C74 0.930 . S
N80 Cu69 1.985 . S
N80 C82 1.335 . S
N80 C83 1.390 . S
N81 C82 1.345 . S
N81 C84 1.336 . S
C82 N80 1.335 . S
C82 N81 1.345 . S
C82 H87 0.930 . S
C83 N80 1.390 . S
C83 C84 1.346 . S
C83 H88 0.930 . S
C84 N81 1.336 . S
C84 C83 1.346 . S
C84 H91 0.929 . S
C85 O75 1.282 . S
C85 O86 1.216 . S
O86 C85 1.216 . S
H87 C82 0.930 . S
H88 C83 0.930 . S
O89 Cu69 1.959 1_565 S
O89 C76 1.251 . S
H90 C73 0.930 . S
H91 C84 0.929 . S
Cu92 N93 1.999 . S
Cu92 O98 1.974 . S
Cu92 N103 1.985 . S
Cu92 O112 1.959 . S
N93 Cu92 1.999 . S
N93 C95 1.263 1_556 S
N93 C97 1.389 1_455 S
N94 C95 1.358 1_655 S
N94 C96 1.400 1_554 S
C95 N93 1.263 1_554 S
C95 N94 1.358 1_455 S
C95 H101 0.930 . S
C96 N94 1.400 1_556 S
C96 C97 1.351 . S
C96 H113 0.930 . S
C97 N93 1.389 1_655 S
C97 C96 1.351 . S
C97 H102 0.930 . S
O98 Cu92 1.974 . S
O98 C108 1.282 . S
C99 O100 1.261 . S
C99 O112 1.251 . S
O100 C99 1.261 . S
H101 C95 0.930 . S
H102 C97 0.930 . S
N103 Cu92 1.985 . S
N103 C105 1.335 . S
N103 C106 1.390 . S
N104 C105 1.345 . S
N104 C107 1.336 . S
C105 N103 1.335 . S
C105 N104 1.345 . S
C105 H110 0.930 . S
C106 N103 1.390 . S
C106 C107 1.346 . S
C106 H111 0.930 . S
C107 N104 1.336 . S
C107 C106 1.346 . S
C107 H114 0.929 . S
C108 O98 1.282 . S
C108 O109 1.216 1_556 S
O109 C108 1.216 1_554 S
H110 C105 0.930 . S
H111 C106 0.930 . S
O112 Cu92 1.959 . S
O112 C99 1.251 . S
H113 C96 0.930 . S
H114 C107 0.929 . S
Cu115 N116 1.999 . S
Cu115 O121 1.974 . S
Cu115 N126 1.985 . S
Cu115 O135 1.959 1_565 S
N116 Cu115 1.999 . S
N116 C118 1.263 . S
N116 C120 1.389 1_565 S
N117 C118 1.358 1_545 S
N117 C119 1.400 . S
C118 N116 1.263 . S
C118 N117 1.358 1_565 S
C118 H124 0.930 . S
C119 N117 1.400 . S
C119 C120 1.351 . S
C119 H136 0.930 . S
C120 N116 1.389 1_545 S
C120 C119 1.351 . S
C120 H125 0.930 . S
O121 Cu115 1.974 . S
O121 C131 1.282 . S
C122 O123 1.261 . S
C122 O135 1.251 . S
O123 C122 1.261 . S
H124 C118 0.930 . S
H125 C120 0.930 . S
N126 Cu115 1.985 . S
N126 C128 1.335 . S
N126 C129 1.390 . S
N127 C128 1.345 . S
N127 C130 1.336 . S
C128 N126 1.335 . S
C128 N127 1.345 . S
C128 H133 0.930 . S
C129 N126 1.390 . S
C129 C130 1.346 . S
C129 H134 0.930 . S
C130 N127 1.336 . S
C130 C129 1.346 . S
C130 H137 0.929 . S
C131 O121 1.282 . S
C131 O132 1.216 . S
O132 C131 1.216 . S
H133 C128 0.930 . S
H134 C129 0.930 . S
O135 Cu115 1.959 1_545 S
O135 C122 1.251 . S
H136 C119 0.930 . S
H137 C130 0.929 . S
Cu138 N139 1.999 . S
Cu138 O144 1.974 . S
Cu138 N149 1.985 . S
Cu138 O158 1.959 . S
N139 Cu138 1.999 . S
N139 C141 1.263 1_556 S
N139 C143 1.389 1_655 S
N140 C141 1.358 1_455 S
N140 C142 1.400 1_554 S
C141 N139 1.263 1_554 S
C141 N140 1.358 1_655 S
C141 H147 0.930 . S
C142 N140 1.400 1_556 S
C142 C143 1.351 . S
C142 H159 0.930 . S
C143 N139 1.389 1_455 S
C143 C142 1.351 . S
C143 H148 0.930 . S
O144 Cu138 1.974 . S
O144 C154 1.282 . S
C145 O146 1.261 . S
C145 O158 1.251 . S
O146 C145 1.261 . S
H147 C141 0.930 . S
H148 C143 0.930 . S
N149 Cu138 1.985 . S
N149 C151 1.335 . S
N149 C152 1.390 . S
N150 C151 1.345 . S
N150 C153 1.336 . S
C151 N149 1.335 . S
C151 N150 1.345 . S
C151 H156 0.930 . S
C152 N149 1.390 . S
C152 C153 1.346 . S
C152 H157 0.930 . S
C153 N150 1.336 . S
C153 C152 1.346 . S
C153 H160 0.929 . S
C154 O144 1.282 . S
C154 O155 1.216 1_556 S
O155 C154 1.216 1_554 S
H156 C151 0.930 . S
H157 C152 0.930 . S
O158 Cu138 1.959 . S
O158 C145 1.251 . S
H159 C142 0.930 . S
H160 C153 0.929 . S
Cu161 N162 1.999 . S
Cu161 O167 1.974 . S
Cu161 N172 1.985 . S
Cu161 O181 1.959 1_545 S
N162 Cu161 1.999 . S
N162 C164 1.263 . S
N162 C166 1.389 1_545 S
N163 C164 1.358 1_565 S
N163 C165 1.400 . S
C164 N162 1.263 . S
C164 N163 1.358 1_545 S
C164 H170 0.930 . S
C165 N163 1.400 . S
C165 C166 1.351 . S
C165 H182 0.930 . S
C166 N162 1.389 1_565 S
C166 C165 1.351 . S
C166 H171 0.930 . S
O167 Cu161 1.974 . S
O167 C177 1.282 . S
C168 O169 1.261 . S
C168 O181 1.251 . S
O169 C168 1.261 . S
H170 C164 0.930 . S
H171 C166 0.930 . S
N172 Cu161 1.985 . S
N172 C174 1.335 . S
N172 C175 1.390 . S
N173 C174 1.345 . S
N173 C176 1.336 . S
C174 N172 1.335 . S
C174 N173 1.345 . S
C174 H179 0.930 . S
C175 N172 1.390 . S
C175 C176 1.346 . S
C175 H180 0.930 . S
C176 N173 1.336 . S
C176 C175 1.346 . S
C176 H183 0.929 . S
C177 O167 1.282 . S
C177 O178 1.216 . S
O178 C177 1.216 . S
H179 C174 0.930 . S
H180 C175 0.930 . S
O181 Cu161 1.959 1_565 S
O181 C168 1.251 . S
H182 C165 0.930 . S
H183 C176 0.929 . S
Cu184 N185 1.999 . S
Cu184 O190 1.974 . S
Cu184 N195 1.985 . S
Cu184 O204 1.959 . S
N185 Cu184 1.999 . S
N185 C187 1.263 . S
N185 C189 1.389 . S
N186 C187 1.358 . S
N186 C188 1.400 . S
C187 N185 1.263 . S
C187 N186 1.358 . S
C187 H193 0.930 . S
C188 N186 1.400 . S
C188 C189 1.351 . S
C188 H205 0.930 . S
C189 N185 1.389 . S
C189 C188 1.351 . S
C189 H194 0.930 . S
O190 Cu184 1.974 . S
O190 C200 1.282 . S
C191 O192 1.261 . S
C191 O204 1.251 . S
O192 C191 1.261 . S
H193 C187 0.930 . S
H194 C189 0.930 . S
N195 Cu184 1.985 . S
N195 C197 1.335 . S
N195 C198 1.390 . S
N196 C197 1.345 . S
N196 C199 1.336 . S
C197 N195 1.335 . S
C197 N196 1.345 . S
C197 H202 0.930 . S
C198 N195 1.390 . S
C198 C199 1.346 . S
C198 H203 0.930 . S
C199 N196 1.336 . S
C199 C198 1.346 . S
C199 H206 0.929 . S
C200 O190 1.282 . S
C200 O201 1.216 . S
O201 C200 1.216 . S
H202 C197 0.930 . S
H203 C198 0.930 . S
O204 Cu184 1.959 . S
O204 C191 1.251 . S
H205 C188 0.930 . S
H206 C199 0.929 . S
Cu207 N208 1.999 . S
Cu207 O213 1.974 . S
Cu207 N218 1.985 . S
Cu207 O227 1.959 . S
N208 Cu207 1.999 . S
N208 C210 1.263 . S
N208 C212 1.389 . S
N209 C210 1.358 . S
N209 C211 1.400 . S
C210 N208 1.263 . S
C210 N209 1.358 . S
C210 H216 0.930 . S
C211 N209 1.400 . S
C211 C212 1.351 . S
C211 H228 0.930 . S
C212 N208 1.389 . S
C212 C211 1.351 . S
C212 H217 0.930 . S
O213 Cu207 1.974 . S
O213 C223 1.282 . S
C214 O215 1.261 . S
C214 O227 1.251 . S
O215 C214 1.261 . S
H216 C210 0.930 . S
H217 C212 0.930 . S
N218 Cu207 1.985 . S
N218 C220 1.335 . S
N218 C221 1.390 . S
N219 C220 1.345 . S
N219 C222 1.336 . S
C220 N218 1.335 . S
C220 N219 1.345 . S
C220 H225 0.930 . S
C221 N218 1.390 . S
C221 C222 1.346 . S
C221 H226 0.930 . S
C222 N219 1.336 . S
C222 C221 1.346 . S
C222 H229 0.929 . S
C223 O213 1.282 . S
C223 O224 1.216 . S
O224 C223 1.216 . S
H225 C220 0.930 . S
H226 C221 0.930 . S
O227 Cu207 1.959 . S
O227 C214 1.251 . S
H228 C211 0.930 . S
H229 C222 0.929 . S
Cu230 N231 1.999 . S
Cu230 O236 1.974 . S
Cu230 N241 1.985 . S
Cu230 O250 1.959 . S
N231 Cu230 1.999 . S
N231 C233 1.263 . S
N231 C235 1.389 . S
N232 C233 1.358 . S
N232 C234 1.400 . S
C233 N231 1.263 . S
C233 N232 1.358 . S
C233 H239 0.930 . S
C234 N232 1.400 . S
C234 C235 1.351 . S
C234 H251 0.930 . S
C235 N231 1.389 . S
C235 C234 1.351 . S
C235 H240 0.930 . S
O236 Cu230 1.974 . S
O236 C246 1.282 . S
C237 O238 1.261 . S
C237 O250 1.251 . S
O238 C237 1.261 . S
H239 C233 0.930 . S
H240 C235 0.930 . S
N241 Cu230 1.985 . S
N241 C243 1.335 . S
N241 C244 1.390 . S
N242 C243 1.345 . S
N242 C245 1.336 . S
C243 N241 1.335 . S
C243 N242 1.345 . S
C243 H248 0.930 . S
C244 N241 1.390 . S
C244 C245 1.346 . S
C244 H249 0.930 . S
C245 N242 1.336 . S
C245 C244 1.346 . S
C245 H252 0.929 . S
C246 O236 1.282 . S
C246 O247 1.216 . S
O247 C246 1.216 . S
H248 C243 0.930 . S
H249 C244 0.930 . S
O250 Cu230 1.959 . S
O250 C237 1.251 . S
H251 C234 0.930 . S
H252 C245 0.929 . S
Cu253 N254 1.999 . S
Cu253 O259 1.974 . S
Cu253 N264 1.985 . S
Cu253 O273 1.959 . S
N254 Cu253 1.999 . S
N254 C256 1.263 . S
N254 C258 1.389 . S
N255 C256 1.358 . S
N255 C257 1.400 . S
C256 N254 1.263 . S
C256 N255 1.358 . S
C256 H262 0.930 . S
C257 N255 1.400 . S
C257 C258 1.351 . S
C257 H274 0.930 . S
C258 N254 1.389 . S
C258 C257 1.351 . S
C258 H263 0.930 . S
O259 Cu253 1.974 . S
O259 C269 1.282 . S
C260 O261 1.261 . S
C260 O273 1.251 . S
O261 C260 1.261 . S
H262 C256 0.930 . S
H263 C258 0.930 . S
N264 Cu253 1.985 . S
N264 C266 1.335 . S
N264 C267 1.390 . S
N265 C266 1.345 . S
N265 C268 1.336 . S
C266 N264 1.335 . S
C266 N265 1.345 . S
C266 H271 0.930 . S
C267 N264 1.390 . S
C267 C268 1.346 . S
C267 H272 0.930 . S
C268 N265 1.336 . S
C268 C267 1.346 . S
C268 H275 0.929 . S
C269 O259 1.282 . S
C269 O270 1.216 . S
O270 C269 1.216 . S
H271 C266 0.930 . S
H272 C267 0.930 . S
O273 Cu253 1.959 . S
O273 C260 1.251 . S
H274 C257 0.930 . S
H275 C268 0.929 . S
Cu276 N277 1.999 . S
Cu276 O282 1.974 . S
Cu276 N287 1.985 . S
Cu276 O296 1.959 . S
N277 Cu276 1.999 . S
N277 C279 1.263 . S
N277 C281 1.389 . S
N278 C279 1.358 . S
N278 C280 1.400 . S
C279 N277 1.263 . S
C279 N278 1.358 . S
C279 H285 0.930 . S
C280 N278 1.400 . S
C280 C281 1.351 . S
C280 H297 0.930 . S
C281 N277 1.389 . S
C281 C280 1.351 . S
C281 H286 0.930 . S
O282 Cu276 1.974 . S
O282 C292 1.282 . S
C283 O284 1.261 . S
C283 O296 1.251 . S
O284 C283 1.261 . S
H285 C279 0.930 . S
H286 C281 0.930 . S
N287 Cu276 1.985 . S
N287 C289 1.335 . S
N287 C290 1.390 . S
N288 C289 1.345 . S
N288 C291 1.336 . S
C289 N287 1.335 . S
C289 N288 1.345 . S
C289 H294 0.930 . S
C290 N287 1.390 . S
C290 C291 1.346 . S
C290 H295 0.930 . S
C291 N288 1.336 . S
C291 C290 1.346 . S
C291 H298 0.929 . S
C292 O282 1.282 . S
C292 O293 1.216 . S
O293 C292 1.216 . S
H294 C289 0.930 . S
H295 C290 0.930 . S
O296 Cu276 1.959 . S
O296 C283 1.251 . S
H297 C280 0.930 . S
H298 C291 0.929 . S
Cu299 N300 1.999 . S
Cu299 O305 1.974 . S
Cu299 N310 1.985 . S
Cu299 O319 1.959 . S
N300 Cu299 1.999 . S
N300 C302 1.263 . S
N300 C304 1.389 . S
N301 C302 1.358 . S
N301 C303 1.400 . S
C302 N300 1.263 . S
C302 N301 1.358 . S
C302 H308 0.930 . S
C303 N301 1.400 . S
C303 C304 1.351 . S
C303 H320 0.930 . S
C304 N300 1.389 . S
C304 C303 1.351 . S
C304 H309 0.930 . S
O305 Cu299 1.974 . S
O305 C315 1.282 . S
C306 O307 1.261 . S
C306 O319 1.251 . S
O307 C306 1.261 . S
H308 C302 0.930 . S
H309 C304 0.930 . S
N310 Cu299 1.985 . S
N310 C312 1.335 . S
N310 C313 1.390 . S
N311 C312 1.345 . S
N311 C314 1.336 . S
C312 N310 1.335 . S
C312 N311 1.345 . S
C312 H317 0.930 . S
C313 N310 1.390 . S
C313 C314 1.346 . S
C313 H318 0.930 . S
C314 N311 1.336 . S
C314 C313 1.346 . S
C314 H321 0.929 . S
C315 O305 1.282 . S
C315 O316 1.216 . S
O316 C315 1.216 . S
H317 C312 0.930 . S
H318 C313 0.930 . S
O319 Cu299 1.959 . S
O319 C306 1.251 . S
H320 C303 0.930 . S
H321 C314 0.929 . S
Cu322 N323 1.999 . S
Cu322 O328 1.974 . S
Cu322 N333 1.985 . S
Cu322 O342 1.959 . S
N323 Cu322 1.999 . S
N323 C325 1.263 . S
N323 C327 1.389 . S
N324 C325 1.358 . S
N324 C326 1.400 . S
C325 N323 1.263 . S
C325 N324 1.358 . S
C325 H331 0.930 . S
C326 N324 1.400 . S
C326 C327 1.351 . S
C326 H343 0.930 . S
C327 N323 1.389 . S
C327 C326 1.351 . S
C327 H332 0.930 . S
O328 Cu322 1.974 . S
O328 C338 1.282 . S
C329 O330 1.261 . S
C329 O342 1.251 . S
O330 C329 1.261 . S
H331 C325 0.930 . S
H332 C327 0.930 . S
N333 Cu322 1.985 . S
N333 C335 1.335 . S
N333 C336 1.390 . S
N334 C335 1.345 . S
N334 C337 1.336 . S
C335 N333 1.335 . S
C335 N334 1.345 . S
C335 H340 0.930 . S
C336 N333 1.390 . S
C336 C337 1.346 . S
C336 H341 0.930 . S
C337 N334 1.336 . S
C337 C336 1.346 . S
C337 H344 0.929 . S
C338 O328 1.282 . S
C338 O339 1.216 . S
O339 C338 1.216 . S
H340 C335 0.930 . S
H341 C336 0.930 . S
O342 Cu322 1.959 . S
O342 C329 1.251 . S
H343 C326 0.930 . S
H344 C337 0.929 . S
Cu345 N346 1.999 . S
Cu345 O351 1.974 . S
Cu345 N356 1.985 . S
Cu345 O365 1.959 . S
N346 Cu345 1.999 . S
N346 C348 1.263 . S
N346 C350 1.389 . S
N347 C348 1.358 . S
N347 C349 1.400 . S
C348 N346 1.263 . S
C348 N347 1.358 . S
C348 H354 0.930 . S
C349 N347 1.400 . S
C349 C350 1.351 . S
C349 H366 0.930 . S
C350 N346 1.389 . S
C350 C349 1.351 . S
C350 H355 0.930 . S
O351 Cu345 1.974 . S
O351 C361 1.282 . S
C352 O353 1.261 . S
C352 O365 1.251 . S
O353 C352 1.261 . S
H354 C348 0.930 . S
H355 C350 0.930 . S
N356 Cu345 1.985 . S
N356 C358 1.335 . S
N356 C359 1.390 . S
N357 C358 1.345 . S
N357 C360 1.336 . S
C358 N356 1.335 . S
C358 N357 1.345 . S
C358 H363 0.930 . S
C359 N356 1.390 . S
C359 C360 1.346 . S
C359 H364 0.930 . S
C360 N357 1.336 . S
C360 C359 1.346 . S
C360 H367 0.929 . S
C361 O351 1.282 . S
C361 O362 1.216 . S
O362 C361 1.216 . S
H363 C358 0.930 . S
H364 C359 0.930 . S
O365 Cu345 1.959 . S
O365 C352 1.251 . S
H366 C349 0.930 . S
H367 C360 0.929 . S
C16 C260 2.261 . S
N186 N35 1.339 . S
C214 C62 2.261 . S
N232 N81 1.339 . S
C122 C108 2.261 1_554 S
N127 N140 1.339 . S
C154 C168 2.261 1_556 S
N173 N94 1.339 . S
C200 C76 2.261 . S
N2 N219 1.339 . S
C30 C246 2.261 . S
N48 N265 1.339 . S
C306 C292 2.261 . S
N311 N324 1.339 . S
C352 C338 2.261 . S
N278 N357 1.339 . S
N334 N12 1.895 . S
C361 C39 2.428 . S
N288 N58 1.895 . S
C85 C315 2.428 . S
N104 N242 1.896 . S
C269 C131 2.429 . S
N150 N196 1.896 . S
C177 C223 2.429 . S
C53 C7 2.168 1_665 S
N71 N25 1.838 1_665 S
C99 C145 2.168 1_455 S
N117 N163 1.838 1_545 S
C237 C191 2.168 . S
N209 N255 1.838 . S
C329 C283 2.168 1_545 S
N301 N347 1.837 1_655 S
