# Generated by pormake.
# Topology bcs, (6)-cn, num edge types: 1
# Building blocks:
#     Node 0, Type 0, BuildingBlock: MIFKUJ_clean_sbu_0, # of connection points: 6
#     Node 1, Type 0, BuildingBlock: MIFKUJ_clean_sbu_0, # of connection points: 6
#     Node 2, Type 0, BuildingBlock: MIFKUJ_clean_sbu_0, # of connection points: 6
#     Node 3, Type 0, BuildingBlock: MIFKUJ_clean_sbu_0, # of connection points: 6
#     Node 4, Type 0, BuildingBlock: MIFKUJ_clean_sbu_0, # of connection points: 6
#     Node 5, Type 0, BuildingBlock: MIFKUJ_clean_sbu_0, # of connection points: 6
#     Node 6, Type 0, BuildingBlock: MIFKUJ_clean_sbu_0, # of connection points: 6
#     Node 7, Type 0, BuildingBlock: MIFKUJ_clean_sbu_0, # of connection points: 6
#     Node 8, Type 0, BuildingBlock: MIFKUJ_clean_sbu_0, # of connection points: 6
#     Node 9, Type 0, BuildingBlock: MIFKUJ_clean_sbu_0, # of connection points: 6
#     Node 10, Type 0, BuildingBlock: MIFKUJ_clean_sbu_0, # of connection points: 6
#     Node 11, Type 0, BuildingBlock: MIFKUJ_clean_sbu_0, # of connection points: 6
#     Node 12, Type 0, BuildingBlock: MIFKUJ_clean_sbu_0, # of connection points: 6
#     Node 13, Type 0, BuildingBlock: MIFKUJ_clean_sbu_0, # of connection points: 6
#     Node 14, Type 0, BuildingBlock: MIFKUJ_clean_sbu_0, # of connection points: 6
#     Node 15, Type 0, BuildingBlock: MIFKUJ_clean_sbu_0, # of connection points: 6
#     Edge 16, Type (0, 0), BuildingBlock: XIVTED_clean_linker_0, # of connection points: 2
#     Edge 17, Type (0, 0), BuildingBlock: XIVTED_clean_linker_0, # of connection points: 2
#     Edge 18, Type (0, 0), BuildingBlock: XIVTED_clean_linker_0, # of connection points: 2
#     Edge 19, Type (0, 0), BuildingBlock: XIVTED_clean_linker_0, # of connection points: 2
#     Edge 20, Type (0, 0), BuildingBlock: XIVTED_clean_linker_0, # of connection points: 2
#     Edge 21, Type (0, 0), BuildingBlock: XIVTED_clean_linker_0, # of connection points: 2
#     Edge 22, Type (0, 0), BuildingBlock: XIVTED_clean_linker_0, # of connection points: 2
#     Edge 23, Type (0, 0), BuildingBlock: XIVTED_clean_linker_0, # of connection points: 2
#     Edge 24, Type (0, 0), BuildingBlock: XIVTED_clean_linker_0, # of connection points: 2
#     Edge 25, Type (0, 0), BuildingBlock: XIVTED_clean_linker_0, # of connection points: 2
#     Edge 26, Type (0, 0), BuildingBlock: XIVTED_clean_linker_0, # of connection points: 2
#     Edge 27, Type (0, 0), BuildingBlock: XIVTED_clean_linker_0, # of connection points: 2
#     Edge 28, Type (0, 0), BuildingBlock: XIVTED_clean_linker_0, # of connection points: 2
#     Edge 29, Type (0, 0), BuildingBlock: XIVTED_clean_linker_0, # of connection points: 2
#     Edge 30, Type (0, 0), BuildingBlock: XIVTED_clean_linker_0, # of connection points: 2
#     Edge 31, Type (0, 0), BuildingBlock: XIVTED_clean_linker_0, # of connection points: 2
#     Edge 32, Type (0, 0), BuildingBlock: XIVTED_clean_linker_0, # of connection points: 2
#     Edge 33, Type (0, 0), BuildingBlock: XIVTED_clean_linker_0, # of connection points: 2
#     Edge 34, Type (0, 0), BuildingBlock: XIVTED_clean_linker_0, # of connection points: 2
#     Edge 35, Type (0, 0), BuildingBlock: XIVTED_clean_linker_0, # of connection points: 2
#     Edge 36, Type (0, 0), BuildingBlock: XIVTED_clean_linker_0, # of connection points: 2
#     Edge 37, Type (0, 0), BuildingBlock: XIVTED_clean_linker_0, # of connection points: 2
#     Edge 38, Type (0, 0), BuildingBlock: XIVTED_clean_linker_0, # of connection points: 2
#     Edge 39, Type (0, 0), BuildingBlock: XIVTED_clean_linker_0, # of connection points: 2
#     Edge 40, Type (0, 0), BuildingBlock: XIVTED_clean_linker_0, # of connection points: 2
#     Edge 41, Type (0, 0), BuildingBlock: XIVTED_clean_linker_0, # of connection points: 2
#     Edge 42, Type (0, 0), BuildingBlock: XIVTED_clean_linker_0, # of connection points: 2
#     Edge 43, Type (0, 0), BuildingBlock: XIVTED_clean_linker_0, # of connection points: 2
#     Edge 44, Type (0, 0), BuildingBlock: XIVTED_clean_linker_0, # of connection points: 2
#     Edge 45, Type (0, 0), BuildingBlock: XIVTED_clean_linker_0, # of connection points: 2
#     Edge 46, Type (0, 0), BuildingBlock: XIVTED_clean_linker_0, # of connection points: 2
#     Edge 47, Type (0, 0), BuildingBlock: XIVTED_clean_linker_0, # of connection points: 2
#     Edge 48, Type (0, 0), BuildingBlock: XIVTED_clean_linker_0, # of connection points: 2
#     Edge 49, Type (0, 0), BuildingBlock: XIVTED_clean_linker_0, # of connection points: 2
#     Edge 50, Type (0, 0), BuildingBlock: XIVTED_clean_linker_0, # of connection points: 2
#     Edge 51, Type (0, 0), BuildingBlock: XIVTED_clean_linker_0, # of connection points: 2
#     Edge 52, Type (0, 0), BuildingBlock: XIVTED_clean_linker_0, # of connection points: 2
#     Edge 53, Type (0, 0), BuildingBlock: XIVTED_clean_linker_0, # of connection points: 2
#     Edge 54, Type (0, 0), BuildingBlock: XIVTED_clean_linker_0, # of connection points: 2
#     Edge 55, Type (0, 0), BuildingBlock: XIVTED_clean_linker_0, # of connection points: 2
#     Edge 56, Type (0, 0), BuildingBlock: XIVTED_clean_linker_0, # of connection points: 2
#     Edge 57, Type (0, 0), BuildingBlock: XIVTED_clean_linker_0, # of connection points: 2
#     Edge 58, Type (0, 0), BuildingBlock: XIVTED_clean_linker_0, # of connection points: 2
#     Edge 59, Type (0, 0), BuildingBlock: XIVTED_clean_linker_0, # of connection points: 2
#     Edge 60, Type (0, 0), BuildingBlock: XIVTED_clean_linker_0, # of connection points: 2
#     Edge 61, Type (0, 0), BuildingBlock: XIVTED_clean_linker_0, # of connection points: 2
#     Edge 62, Type (0, 0), BuildingBlock: XIVTED_clean_linker_0, # of connection points: 2
#     Edge 63, Type (0, 0), BuildingBlock: XIVTED_clean_linker_0, # of connection points: 2
# Relax obj value: 0.089
# Max RMSD: 0.219
# Mean RMSD: 0.143
data_MOF--net-bcs--node1-MIFKUJ_clean_sbu_0--edge1-XIVTED_clean_linker_0
_symmetry_space_group_name_H-M    P1
_symmetry_Int_Tables_number       1
_symmetry_cell_setting            triclinic
loop_
_symmetry_equiv_pos_as_xyz
'x, y, z'
_cell_length_a     37.643606
_cell_length_b     40.839399
_cell_length_c     36.242457
_cell_angle_alpha  96.840093
_cell_angle_beta   98.248956
_cell_angle_gamma 103.50492
loop_
_atom_site_label
_atom_site_type_symbol
_atom_site_fract_x
_atom_site_fract_y
_atom_site_fract_z
_atom_type_partial_charge
Zn0 Zn 0.96962 -0.00368 0.97545 0.0
Zn1 Zn 0.03744 0.98067 0.0286 0.0
C2 C 0.928 0.02532 0.01847 0.0
O3 O 0.90574 -0.00308 -0.00099 0.0
C4 C 0.06922 0.94718 0.97852 0.0
O5 O 0.09666 0.97007 0.0009 0.0
O6 O 0.93136 0.00124 0.93211 0.0
O7 O 0.01983 0.01004 0.95976 0.0
O8 O 0.05904 0.02713 0.01402 0.0
C9 C 0.93976 0.02325 0.91058 0.0
O10 O 0.97488 0.03799 0.91139 0.0
O11 O 0.9623 0.03184 0.01602 0.0
C12 C 0.05798 0.93405 0.07174 0.0
O13 O 0.02458 0.91889 0.0527 0.0
O14 O 0.07184 0.96509 0.06869 0.0
O15 O 0.98836 0.9734 0.04696 0.0
O16 O 0.95314 0.95015 -0.00783 0.0
O17 O 0.03606 0.9465 0.98274 0.0
C18 C 0.05032 0.02868 0.97904 0.0
C19 C 0.95986 0.95168 0.02781 0.0
Zn20 Zn 0.27244 0.75555 0.20066 0.0
Zn21 Zn 0.22287 0.71842 0.25027 0.0
C22 C 0.21044 0.77852 0.16155 0.0
O23 O 0.20876 0.75298 0.13509 0.0
C24 C 0.27058 0.69204 0.30008 0.0
O25 O 0.25709 0.71039 0.32411 0.0
O26 O 0.31357 0.77656 0.17646 0.0
O27 O 0.2947 0.76161 0.25478 0.0
O28 O 0.24352 0.76707 0.27385 0.0
C29 C 0.33437 0.80524 0.19271 0.0
O30 O 0.32775 0.81946 0.2246 0.0
O31 O 0.23398 0.78354 0.19196 0.0
C32 C 0.1688 0.66723 0.26705 0.0
O33 O 0.18815 0.64978 0.24921 0.0
O34 O 0.17945 0.69953 0.27317 0.0
O35 O 0.20301 0.7072 0.19508 0.0
O36 O 0.2557 0.70723 0.17664 0.0
O37 O 0.26088 0.6918 0.26492 0.0
C38 C 0.27863 0.77472 0.27878 0.0
C39 C 0.22179 0.69313 0.17489 0.0
Zn40 Zn 0.52184 0.95703 0.47817 0.0
Zn41 Zn 0.46277 0.02632 0.52048 0.0
C42 C 0.517 0.91511 0.53498 0.0
O43 O 0.5062 0.94054 0.55164 0.0
C44 C 0.46632 0.06162 0.4572 0.0
O45 O 0.4743 0.03394 0.44208 0.0
O46 O 0.53757 0.95034 0.42782 0.0
O47 O 0.47129 0.96602 0.4794 0.0
O48 O 0.4239 0.98538 0.49056 0.0
C49 C 0.52849 0.92046 0.40899 0.0
O50 O 0.50434 0.89645 0.41995 0.0
O51 O 0.52452 0.91604 0.50207 0.0
C52 C 0.4617 0.07176 0.58332 0.0
O53 O 0.4877 0.08999 0.56814 0.0
O54 O 0.4495 0.04016 0.57047 0.0
O55 O 0.51201 0.01582 0.5206 0.0
O56 O 0.55988 -0.00305 0.5112 0.0
O57 O 0.4611 0.06435 0.4911 0.0
C58 C 0.43658 0.96279 0.47353 0.0
C59 C 0.54665 0.01953 0.52734 0.0
Zn60 Zn 0.192 0.25133 0.7887 0.0
Zn61 Zn 0.26316 0.24598 0.70459 0.0
C62 C 0.1706 0.18714 0.81625 0.0
O63 O 0.17073 0.17522 0.78097 0.0
C64 C 0.31173 0.28731 0.66684 0.0
O65 O 0.33324 0.27214 0.68664 0.0
O66 O 0.17983 0.29551 0.80402 0.0
O67 O 0.24563 0.25934 0.78187 0.0
O68 O 0.29519 0.26316 0.75586 0.0
C69 C 0.18534 0.3094 0.83827 0.0
O70 O 0.20024 0.29479 0.86468 0.0
O71 O 0.1796 0.21929 0.82677 0.0
C72 C 0.27854 0.19592 0.65137 0.0
O73 O 0.26766 0.21476 0.6273 0.0
O74 O 0.27601 0.20281 0.68581 0.0
O75 O 0.21099 0.23756 0.71458 0.0
O76 O 0.15992 0.23091 0.73755 0.0
O77 O 0.27757 0.28108 0.66985 0.0
C78 C 0.28076 0.26675 0.78529 0.0
C79 C 0.17594 0.22735 0.70928 0.0
Zn80 Zn 0.00466 0.0116 0.45028 0.0
Zn81 Zn 0.97843 0.96574 0.52974 0.0
C82 C 0.94058 0.02868 0.41447 0.0
O83 O 0.94266 0.00328 0.38968 0.0
C84 C 0.0431 0.94954 0.56545 0.0
O85 O 0.04163 0.97546 0.58988 0.0
O86 O 0.04049 0.03236 0.41875 0.0
O87 O 0.03247 0.01728 0.50328 0.0
O88 O -0.00101 0.01557 0.54816 0.0
C89 C 0.05714 0.06363 0.42943 0.0
O90 O 0.05064 0.07985 0.46027 0.0
O91 O 0.96377 0.03673 0.44537 0.0
C92 C 0.93024 0.91249 0.55401 0.0
O93 O 0.94321 0.89523 0.52849 0.0
O94 O 0.94145 0.94483 0.56034 0.0
O95 O 0.95245 0.96117 0.4767 0.0
O96 O 0.98486 0.96171 0.43136 0.0
O97 O 0.01927 0.94083 0.53504 0.0
C98 C 0.02231 0.03244 0.53093 0.0
C99 C 0.9626 0.9451 0.44975 0.0
Zn100 Zn 0.27448 0.71743 0.72697 0.0
Zn101 Zn 0.19675 0.76915 0.74891 0.0
C102 C 0.31497 0.70279 0.79073 0.0
O103 O 0.34003 0.72531 0.77886 0.0
C104 C 0.17035 0.78833 0.6762 0.0
O105 O 0.16222 0.75574 0.6623 0.0
O106 O 0.301 0.69577 0.68985 0.0
O107 O 0.21831 0.71028 0.70402 0.0
O108 O 0.17264 0.71973 0.73281 0.0
C109 C 0.30218 0.66512 0.69154 0.0
O110 O 0.28323 0.64823 0.71411 0.0
O111 O 0.28149 0.69535 0.77353 0.0
C112 C 0.14951 0.79203 0.79128 0.0
O113 O 0.1295 0.78247 0.75719 0.0
O114 O 0.18201 0.78738 0.79697 0.0
O115 O 0.24748 0.76765 0.74863 0.0
O116 O 0.30299 0.76765 0.7423 0.0
O117 O 0.18465 0.79825 0.71078 0.0
C118 C 0.18829 0.6989 0.71644 0.0
C119 C 0.28067 0.78421 0.7524 0.0
Zn120 Zn 0.4668 0.01748 -0.00208 0.0
Zn121 Zn 0.51049 0.9672 0.96846 0.0
C122 C 0.4269 0.96223 0.02868 0.0
O123 O 0.39856 0.96464 0.00436 0.0
C124 C 0.55235 0.02219 0.93994 0.0
O125 O 0.57989 0.01569 0.96202 0.0
O126 O 0.43948 0.05138 0.01791 0.0
O127 O 0.52133 0.03839 0.01004 0.0
O128 O 0.53326 -0.01016 0.02232 0.0
C129 C 0.45132 0.06496 0.0523 0.0
O130 O 0.48049 0.05765 0.07063 0.0
O131 O 0.45861 0.98206 0.03058 0.0
C132 C 0.54152 0.92954 0.91471 0.0
O133 O 0.5247 0.94645 0.89235 0.0
O134 O 0.53865 0.93297 0.94953 0.0
O135 O 0.45559 0.94655 0.95485 0.0
O136 O 0.44407 -0.00429 0.94435 0.0
O137 O 0.51964 0.00405 0.93748 0.0
C138 C 0.54106 0.02232 0.02855 0.0
C139 C 0.43638 0.96335 0.93683 0.0
Zn140 Zn 0.21591 0.24829 0.23279 0.0
Zn141 Zn 0.29581 0.23213 0.26646 0.0
C142 C 0.18672 0.27003 0.29591 0.0
O143 O 0.16192 0.24152 0.28053 0.0
C144 C 0.335 0.21388 0.21173 0.0
O145 O 0.35742 0.2411 0.23339 0.0
O146 O 0.17357 0.25871 0.1992 0.0
O147 O 0.2599 0.26442 0.20814 0.0
O148 O 0.30471 0.28106 0.25771 0.0
C149 C 0.17991 0.29093 0.20121 0.0
O150 O 0.21156 0.31009 0.22088 0.0
O151 O 0.21656 0.27797 0.28253 0.0
C152 C 0.33528 0.19394 0.30281 0.0
O153 O 0.30758 0.17201 0.27968 0.0
O154 O 0.33735 0.22567 0.30463 0.0
O155 O 0.25059 0.21133 0.28769 0.0
O156 O 0.20379 0.19938 0.23995 0.0
O157 O 0.30199 0.20415 0.21801 0.0
C158 C 0.29136 0.28348 0.22421 0.0
C159 C 0.21807 0.19435 0.272 0.0
Zn160 Zn 0.48913 0.51999 0.94906 0.0
Zn161 Zn 0.50102 0.45969 0.03804 0.0
C162 C 0.42332 0.54527 0.93147 0.0
O163 O 0.4058 0.51278 0.92317 0.0
C164 C 0.56875 0.43758 0.05615 0.0
O165 O 0.58435 0.47043 0.06535 0.0
O166 O 0.52881 0.53347 0.91847 0.0
O167 O 0.51131 0.51923 0.00234 0.0
O168 O 0.53162 0.50807 0.05753 0.0
C169 C 0.55124 0.56256 0.92996 0.0
O170 O 0.54828 0.58044 0.96145 0.0
O171 O 0.45789 0.55375 0.94481 0.0
C172 C 0.44539 0.41331 0.06037 0.0
O173 O 0.45241 0.39551 0.03088 0.0
O174 O 0.46283 0.44451 0.06978 0.0
O175 O 0.47641 0.45811 0.98425 0.0
O176 O 0.4588 0.47173 0.92905 0.0
O177 O 0.5344 0.42756 0.04185 0.0
C178 C 0.53182 0.52913 0.0344 0.0
C179 C 0.45755 0.44962 0.95115 0.0
Zn180 Zn 0.79108 0.21294 0.23166 0.0
Zn181 Zn 0.71366 0.26015 0.2605 0.0
C182 C 0.81341 0.19102 0.30409 0.0
O183 O 0.82691 0.22377 0.31661 0.0
C184 C 0.67437 0.27904 0.1982 0.0
O185 O 0.64962 0.2532 0.2054 0.0
O186 O 0.81405 0.197 0.18823 0.0
O187 O 0.73898 0.21655 0.21615 0.0
O188 O 0.68852 0.21047 0.23968 0.0
C189 C 0.80343 0.16529 0.17559 0.0
O190 O 0.77764 0.14591 0.18998 0.0
O191 O 0.79579 0.1814 0.27036 0.0
C192 C 0.69734 0.31056 0.31 0.0
O193 O 0.72182 0.32891 0.29328 0.0
O194 O 0.68877 0.27826 0.30143 0.0
O195 O 0.76798 0.26139 0.27928 0.0
O196 O 0.81688 0.26132 0.2532 0.0
O197 O 0.7068 0.28741 0.21807 0.0
C198 C 0.70933 0.19701 0.2215 0.0
C199 C 0.79753 0.278 0.2699 0.0
Zn200 Zn 0.9608 0.51073 0.52447 0.0
Zn201 Zn 0.02359 0.47237 0.45649 0.0
C202 C 0.9494 0.44648 0.55187 0.0
O203 O 0.92686 0.4349 0.51941 0.0
C204 C 0.03666 0.53482 0.42561 0.0
O205 O 0.05292 0.54842 0.46031 0.0
O206 O 0.94073 0.55001 0.54588 0.0
O207 O 0.01038 0.52248 0.50912 0.0
O208 O 0.05562 0.49777 0.50593 0.0
C209 C 0.92395 0.54581 0.57375 0.0
O210 O 0.9228 0.5179 0.58867 0.0
O211 O 0.9651 0.47809 0.5606 0.0
C212 C 0.07371 0.4405 0.42535 0.0
O213 O 0.08888 0.47303 0.42592 0.0
O214 O 0.04333 0.43218 0.4377 0.0
O215 O 0.97265 0.46118 0.47014 0.0
O216 O 0.92809 0.48643 0.47539 0.0
O217 O 0.02313 0.50282 0.41737 0.0
C218 C 0.0395 0.51583 0.52547 0.0
C219 C 0.94345 0.46847 0.4548 0.0
Zn220 Zn 0.7069 0.73424 0.27926 0.0
Zn221 Zn 0.78324 0.72802 0.19982 0.0
C222 C 0.67158 0.66951 0.30034 0.0
O223 O 0.66684 0.65937 0.26378 0.0
C224 C 0.82501 0.7896 0.17895 0.0
O225 O 0.8406 0.79357 0.21454 0.0
O226 O 0.68847 0.77531 0.29357 0.0
O227 O 0.76388 0.74501 0.28215 0.0
O228 O 0.81143 0.74494 0.25216 0.0
C229 C 0.70365 0.80574 0.30965 0.0
O230 O 0.73968 0.81551 0.32162 0.0
O231 O 0.68932 0.70015 0.31383 0.0
C232 C 0.79381 0.67292 0.14786 0.0
O233 O 0.78025 0.68886 0.12198 0.0
O234 O 0.79608 0.68434 0.1825 0.0
O235 O 0.73226 0.7224 0.20962 0.0
O236 O 0.6785 0.71623 0.22605 0.0
O237 O 0.79853 0.76328 0.16541 0.0
C238 C 0.79885 0.75111 0.2824 0.0
C239 C 0.69741 0.71367 0.20019 0.0
Zn240 Zn 0.76157 0.28848 0.71766 0.0
Zn241 Zn 0.73862 0.21241 0.78678 0.0
C242 C 0.69983 0.31743 0.70906 0.0
O243 O 0.68378 0.28744 0.71676 0.0
C244 C 0.77477 0.17059 0.82871 0.0
O245 O 0.75569 0.1807 0.85346 0.0
O246 O 0.81315 0.3005 0.70754 0.0
O247 O 0.76031 0.27338 0.76665 0.0
O248 O 0.75814 0.25791 0.82096 0.0
C249 C 0.83027 0.33152 0.71003 0.0
O250 O 0.81329 0.35547 0.71795 0.0
O251 O 0.73462 0.32497 0.70952 0.0
C252 C 0.66278 0.17368 0.78642 0.0
O253 O 0.66229 0.15906 0.75203 0.0
O254 O 0.69189 0.19502 0.80438 0.0
O255 O 0.72721 0.21627 0.73004 0.0
O256 O 0.7334 0.24629 0.68298 0.0
O257 O 0.77257 0.18126 0.79707 0.0
C258 C 0.76347 0.28176 0.80167 0.0
C259 C 0.72028 0.21879 0.69513 0.0
Zn260 Zn 0.69098 0.74454 0.71842 0.0
Zn261 Zn 0.76893 0.73235 0.75045 0.0
C262 C 0.66471 0.76905 0.78481 0.0
O263 O 0.64231 0.73826 0.77642 0.0
C264 C 0.79413 0.70996 0.68463 0.0
O265 O 0.81847 0.7393 0.69749 0.0
O266 O 0.64687 0.74882 0.68269 0.0
O267 O 0.73386 0.76268 0.69237 0.0
O268 O 0.77872 0.78093 0.74169 0.0
C269 C 0.64859 0.78022 0.68221 0.0
O270 O 0.67744 0.80332 0.70213 0.0
O271 O 0.69049 0.77726 0.76578 0.0
C272 C 0.80568 0.69013 0.78017 0.0
O273 O 0.77301 0.67152 0.76231 0.0
O274 O 0.81293 0.72237 0.78166 0.0
O275 O 0.72779 0.71622 0.77876 0.0
O276 O 0.68223 0.6966 0.73049 0.0
O277 O 0.76602 0.70171 0.70065 0.0
C278 C 0.76455 0.78319 0.70843 0.0
C279 C 0.69738 0.69497 0.76361 0.0
Zn280 Zn 0.4438 0.50479 0.46486 0.0
Zn281 Zn 0.52038 0.47359 0.50445 0.0
C282 C 0.42597 0.53501 0.52926 0.0
O283 O 0.39722 0.50903 0.51597 0.0
C284 C 0.57091 0.45141 0.46502 0.0
O285 O 0.59204 0.47788 0.48888 0.0
O286 O 0.40748 0.52241 0.43063 0.0
O287 O 0.48932 0.50757 0.4402 0.0
O288 O 0.53255 0.52162 0.49126 0.0
C289 C 0.41237 0.53134 0.39887 0.0
O290 O 0.44045 0.52522 0.38401 0.0
O291 O 0.45364 0.53958 0.51229 0.0
C292 C 0.54733 0.43796 0.55651 0.0
O293 O 0.5224 0.41515 0.53137 0.0
O294 O 0.55324 0.46919 0.55232 0.0
O295 O 0.46828 0.44955 0.50959 0.0
O296 O 0.41802 0.45914 0.47791 0.0
O297 O 0.53605 0.44426 0.46417 0.0
C298 C 0.52166 0.52413 0.45707 0.0
C299 C 0.43317 0.44282 0.50054 0.0
Zn300 Zn -0.00366 0.45322 0.007 0.0
Zn301 Zn 0.98087 0.5231 0.97457 0.0
C302 C 0.02057 0.43449 0.93439 0.0
O303 O 0.98581 0.41862 0.92037 0.0
C304 C 0.95776 0.54633 0.04552 0.0
O305 O 0.99257 0.56348 0.0569 0.0
O306 O 0.00386 0.417 0.03877 0.0
O307 O 0.01835 0.4978 0.03986 0.0
O308 O 0.03381 0.52897 -0.00358 0.0
C309 C 0.03807 0.422 0.05252 0.0
O310 O 0.06211 0.44764 0.04405 0.0
O311 O 0.02901 0.45035 0.96801 0.0
C312 C 0.93972 0.55281 0.92727 0.0
O313 O 0.91578 0.52695 0.9355 0.0
O314 O 0.97374 0.55869 0.94215 0.0
O315 O 0.95913 0.47868 0.94155 0.0
O316 O 0.94328 0.44707 0.98451 0.0
O317 O 0.94836 0.52714 0.01365 0.0
C318 C 0.04282 0.51755 0.02648 0.0
C319 C 0.93467 0.45829 0.95418 0.0
H320 H 0.1448 0.11783 0.80037 0.0
H321 H 0.09948 0.0917 0.00639 0.0
H322 H 0.16756 0.20188 0.89195 0.0
H323 H 0.05702 0.01697 0.90562 0.0
H324 H 0.13324 0.13065 0.9686 0.0
H325 H 0.12107 0.07891 0.84221 0.0
C326 C 0.14503 0.12815 0.82938 0.0
C327 C 0.15805 0.1633 0.84251 0.0
C328 C 0.11677 0.10558 0.95497 0.0
C329 C 0.13068 0.11854 0.89092 0.0
C330 C 0.09778 0.0833 0.97655 0.0
C331 C 0.07525 0.05116 0.95906 0.0
C332 C 0.11349 0.09531 0.91586 0.0
C333 C 0.07376 0.04163 0.92024 0.0
C334 C 0.13137 0.10584 0.85332 0.0
C335 C 0.15764 0.17501 0.88054 0.0
N336 N 0.09245 0.06354 0.90006 0.0
N337 N 0.14405 0.1527 0.90339 0.0
H338 H 0.03393 0.86755 0.07968 0.0
H339 H 0.22432 0.84652 0.19105 0.0
H340 H 0.13119 0.95246 0.10952 0.0
H341 H 0.1432 0.76511 0.11528 0.0
H342 H 0.18696 0.88636 0.17376 0.0
H343 H 0.06995 0.83083 0.10584 0.0
C344 C 0.06285 0.87868 0.09204 0.0
C345 C 0.07958 0.91325 0.09194 0.0
C346 C 0.17734 0.85972 0.1612 0.0
C347 C 0.12116 0.87083 0.12229 0.0
C348 C 0.19844 0.83694 0.1712 0.0
C349 C 0.18688 0.80244 0.15447 0.0
C350 C 0.14407 0.84769 0.13497 0.0
C351 C 0.15329 0.79148 0.1287 0.0
C352 C 0.08343 0.85752 0.1069 0.0
C353 C 0.11716 0.92598 0.1088 0.0
N354 N 0.13308 0.81395 0.11989 0.0
N355 N 0.13679 0.90472 0.12321 0.0
H356 H 0.36377 0.9324 0.4745 0.0
H357 H 0.35365 0.7933 0.29681 0.0
H358 H 0.4532 0.92831 0.41343 0.0
H359 H 0.25507 0.811 0.33493 0.0
H360 H 0.39153 0.8368 0.34746 0.0
H361 H 0.32388 0.88299 0.42993 0.0
C362 C 0.37497 0.92088 0.45184 0.0
C363 C 0.41192 0.93356 0.44785 0.0
C364 C 0.36162 0.83119 0.34488 0.0
C365 C 0.36712 0.87786 0.39749 0.0
C366 C 0.33993 0.80629 0.31598 0.0
C367 C 0.30117 0.79903 0.31134 0.0
C368 C 0.34448 0.84902 0.36936 0.0
C369 C 0.28493 0.81627 0.33735 0.0
C370 C 0.35237 0.89283 0.42662 0.0
C371 C 0.4253 0.91825 0.41814 0.0
N372 N 0.30679 0.84084 0.3653 0.0
N373 N 0.40291 0.89114 0.39405 0.0
H374 H 0.3194 0.19947 0.59544 0.0
H375 H 0.4024 0.04325 0.61572 0.0
H376 H 0.29247 0.14244 0.68505 0.0
H377 H 0.46819 0.14003 0.59787 0.0
H378 H 0.35602 0.07209 0.6351 0.0
H379 H 0.36652 0.16883 0.58544 0.0
C380 C 0.32286 0.17999 0.61249 0.0
C381 C 0.3021 0.17343 0.64113 0.0
C382 C 0.38103 0.08689 0.62756 0.0
C383 C 0.35601 0.13865 0.62998 0.0
C384 C 0.40753 0.0706 0.61669 0.0
C385 C 0.43891 0.08919 0.60453 0.0
C386 C 0.38581 0.12163 0.62537 0.0
C387 C 0.44425 0.12456 0.60651 0.0
C388 C 0.35006 0.16291 0.60711 0.0
C389 C 0.30808 0.1482 0.66273 0.0
N390 N 0.41751 0.1395 0.61583 0.0
N391 N 0.33453 0.13149 0.65663 0.0
H392 H 0.10158 0.96507 0.62409 0.0
H393 H 0.12711 0.77579 0.60573 0.0
H394 H 0.04347 0.88587 0.53088 0.0
H395 H 0.18814 0.85763 0.69509 0.0
H396 H 0.10207 0.817 0.5733 0.0
H397 H 0.13906 0.92762 0.64597 0.0
C398 C 0.09696 0.9399 0.60794 0.0
C399 C 0.06906 0.92851 0.57577 0.0
C400 C 0.12128 0.82597 0.59979 0.0
C401 C 0.11177 0.88518 0.60098 0.0
C402 C 0.13563 0.80246 0.61828 0.0
C403 C 0.15916 0.81317 0.6535 0.0
C404 C 0.13053 0.86038 0.61672 0.0
C405 C 0.16953 0.8481 0.6683 0.0
C406 C 0.11843 0.91848 0.62048 0.0
C407 C 0.06458 0.89569 0.55589 0.0
N408 N 0.15483 0.87034 0.65006 0.0
N409 N 0.08539 0.87501 0.56909 0.0
H410 H 0.33947 0.8327 0.74019 0.0
H411 H 0.38312 0.90772 0.94188 0.0
H412 H 0.25087 0.81665 0.80458 0.0
H413 H 0.41871 0.97731 0.86593 0.0
H414 H 0.33426 0.87333 0.89082 0.0
H415 H 0.36893 0.88706 0.78198 0.0
C416 C 0.3257 0.84118 0.7624 0.0
C417 C 0.29311 0.82018 0.76954 0.0
C418 C 0.35219 0.89659 0.88558 0.0
C419 C 0.32674 0.88113 0.81741 0.0
C420 C 0.38015 0.91591 0.9145 0.0
C421 C 0.4047 0.94504 0.9077 0.0
C422 C 0.34989 0.90583 0.84943 0.0
C423 C 0.40001 0.95486 0.87192 0.0
C424 C 0.34231 0.87215 0.78599 0.0
C425 C 0.27603 0.83219 0.79833 0.0
N426 N 0.37364 0.93465 0.84354 0.0
N427 N 0.29371 0.86145 0.82214 0.0
H428 H 0.37947 0.07085 0.03427 0.0
H429 H 0.40726 0.22272 0.20439 0.0
H430 H 0.48004 0.11052 0.11668 0.0
H431 H 0.29817 0.15753 0.1577 0.0
H432 H 0.43404 0.18723 0.16372 0.0
H433 H 0.34895 0.10734 0.07108 0.0
C434 C 0.39519 0.0874 0.05984 0.0
C435 C 0.43241 0.08774 0.07238 0.0
C436 C 0.40421 0.18067 0.16218 0.0
C437 C 0.39788 0.12942 0.1142 0.0
C438 C 0.38876 0.20107 0.18531 0.0
C439 C 0.35028 0.19314 0.18459 0.0
C440 C 0.38118 0.15213 0.13756 0.0
C441 C 0.32796 0.16457 0.15922 0.0
C442 C 0.3777 0.10797 0.0809 0.0
C443 C 0.45135 0.10938 0.10591 0.0
N444 N 0.34374 0.14504 0.13658 0.0
N445 N 0.43398 0.1294 0.12545 0.0
H446 H 0.10842 0.12492 0.45114 0.0
H447 H 0.15402 0.14366 0.24627 0.0
H448 H 0.0626 0.04422 0.35607 0.0
H449 H 0.22964 0.19674 0.34823 0.0
H450 H 0.11527 0.11049 0.28481 0.0
H451 H 0.1485 0.15579 0.41237 0.0
C452 C 0.10685 0.11369 0.42213 0.0
C453 C 0.08224 0.08197 0.40675 0.0
C454 C 0.1405 0.12929 0.29858 0.0
C455 C 0.12761 0.1172 0.36231 0.0
C456 C 0.1625 0.14822 0.27667 0.0
C457 C 0.19508 0.17286 0.29408 0.0
C458 C 0.15088 0.13562 0.33807 0.0
C459 C 0.20486 0.17782 0.3336 0.0
C460 C 0.12978 0.13124 0.40011 0.0
C461 C 0.08135 0.06854 0.36904 0.0
N462 N 0.18267 0.15957 0.35429 0.0
N463 N 0.10354 0.08638 0.34795 0.0
H464 H 0.77194 0.11008 0.12193 0.0
H465 H 0.96372 0.0843 0.06906 0.0
H466 H 0.87611 0.1841 0.16617 0.0
H467 H 0.85502 0.02202 0.01578 0.0
H468 H 0.93383 0.12268 0.10396 0.0
H469 H 0.8031 0.07929 0.08078 0.0
C470 C 0.80143 0.11994 0.1227 0.0
C471 C 0.82156 0.14945 0.14751 0.0
C472 C 0.9167 0.10067 0.08442 0.0
C473 C 0.85786 0.11394 0.10111 0.0
C474 C 0.93371 0.07874 0.06465 0.0
C475 C 0.91186 0.04963 0.03988 0.0
C476 C 0.8777 0.0933 0.07916 0.0
C477 C 0.8731 0.04377 0.03498 0.0
C478 C 0.8193 0.10237 0.09923 0.0
C479 C 0.85966 0.16139 0.14724 0.0
N480 N 0.8574 0.06525 0.05447 0.0
N481 N 0.87679 0.14328 0.12475 0.0
H482 H 0.05233 0.60398 0.43377 0.0
H483 H 0.13191 0.60014 0.24842 0.0
H484 H 0.02658 0.51371 0.3496 0.0
H485 H 0.1316 0.6938 0.3175 0.0
H486 H 0.08371 0.56925 0.27877 0.0
H487 H 0.0704 0.63874 0.38621 0.0
C488 C 0.04986 0.59156 0.40505 0.0
C489 C 0.03921 0.55596 0.39573 0.0
C490 C 0.09361 0.59666 0.2868 0.0
C491 C 0.06023 0.59535 0.34144 0.0
C492 C 0.12136 0.61424 0.26972 0.0
C493 C 0.13639 0.64935 0.28134 0.0
C494 C 0.08146 0.61428 0.31616 0.0
C495 C 0.1212 0.66657 0.30831 0.0
C496 C 0.05999 0.6114 0.37784 0.0
C497 C 0.03551 0.54111 0.35804 0.0
N498 N 0.09502 0.64871 0.32544 0.0
N499 N 0.04696 0.56088 0.33235 0.0
H500 H 0.51596 0.91142 0.60955 0.0
H501 H 0.61059 0.75529 0.6101 0.0
H502 H 0.53739 0.85783 0.50834 0.0
H503 H 0.6201 0.83165 0.70651 0.0
H504 H 0.56876 0.78239 0.57296 0.0
H505 H 0.53865 0.87147 0.64574 0.0
C506 C 0.52488 0.89094 0.59483 0.0
C507 C 0.52534 0.88826 0.556 0.0
C508 C 0.57952 0.79273 0.60245 0.0
C509 C 0.55141 0.84258 0.59725 0.0
C510 C 0.60309 0.77722 0.62357 0.0
C511 C 0.6188 0.79162 0.66109 0.0
C512 C 0.57142 0.82228 0.61945 0.0
C513 C 0.60872 0.82014 0.67743 0.0
C514 C 0.53791 0.8682 0.61552 0.0
C515 C 0.53704 0.86107 0.53836 0.0
N516 N 0.58578 0.83465 0.65647 0.0
N517 N 0.55002 0.83944 0.55922 0.0
H518 H 0.39918 0.41634 0.98027 0.0
H519 H 0.26369 0.30325 0.84525 0.0
H520 H 0.46318 0.40551 0.89217 0.0
H521 H 0.35305 0.26733 0.80693 0.0
H522 H 0.30786 0.34045 0.89811 0.0
H523 H 0.35482 0.36178 0.95127 0.0
C524 C 0.40414 0.40198 0.95525 0.0
C525 C 0.43436 0.41507 0.93815 0.0
C526 C 0.31765 0.3234 0.87915 0.0
C527 C 0.38418 0.35379 0.90483 0.0
C528 C 0.29235 0.3022 0.84893 0.0
C529 C 0.30488 0.28267 0.8216 0.0
C530 C 0.35563 0.32502 0.88158 0.0
C531 C 0.34245 0.2826 0.82708 0.0
C532 C 0.3788 0.37118 0.9386 0.0
C533 C 0.43986 0.3961 0.90578 0.0
N534 N 0.36668 0.3041 0.85602 0.0
N535 N 0.41486 0.36638 0.89004 0.0
H536 H 0.87425 0.76391 0.29292 0.0
H537 H 0.89756 0.90921 0.46621 0.0
H538 H 0.78482 0.77843 0.35027 0.0
H539 H 0.98234 0.9 0.39993 0.0
H540 H 0.86095 0.85264 0.43532 0.0
H541 H 0.91834 0.80365 0.34334 0.0
C542 C 0.86386 0.77508 0.31643 0.0
C543 C 0.82562 0.7688 0.31674 0.0
C544 C 0.8878 0.86276 0.42794 0.0
C545 C 0.87609 0.81467 0.37439 0.0
C546 C 0.90873 0.89504 0.44554 0.0
C547 C 0.94264 0.9095 0.43494 0.0
C548 C 0.90081 0.84503 0.3994 0.0
C549 C 0.95592 0.89002 0.40827 0.0
C550 C 0.88914 0.79782 0.34524 0.0
C551 C 0.81396 0.78336 0.34838 0.0
N552 N 0.93471 0.85889 0.39101 0.0
N553 N 0.8391 0.80626 0.37565 0.0
H554 H 0.43398 0.60354 0.53123 0.0
H555 H 0.32354 0.60761 0.70352 0.0
H556 H 0.40753 0.5221 0.59603 0.0
H557 H 0.33804 0.68708 0.63427 0.0
H558 H 0.36384 0.58103 0.67052 0.0
H559 H 0.40982 0.63988 0.57531 0.0
C560 C 0.42441 0.59385 0.55559 0.0
C561 C 0.42276 0.55999 0.56036 0.0
C562 C 0.35835 0.60431 0.66244 0.0
C563 C 0.3945 0.60069 0.60996 0.0
C564 C 0.33508 0.61943 0.68118 0.0
C565 C 0.32691 0.64934 0.67125 0.0
C566 C 0.37341 0.61886 0.63311 0.0
C567 C 0.34337 0.66383 0.64257 0.0
C568 C 0.4102 0.61436 0.58039 0.0
C569 C 0.4093 0.54816 0.59162 0.0
N570 N 0.3656 0.64824 0.62417 0.0
N571 N 0.39542 0.56837 0.61504 0.0
H572 H 0.51001 0.02985 0.87567 0.0
H573 H 0.65767 0.1982 0.85816 0.0
H574 H 0.60883 0.07975 0.9575 0.0
H575 H 0.6 0.12127 0.76244 0.0
H576 H 0.61879 0.1681 0.89796 0.0
H577 H 0.5245 0.07601 0.83834 0.0
C578 C 0.53442 0.0508 0.886 0.0
C579 C 0.55887 0.05085 0.91909 0.0
C580 C 0.61406 0.15839 0.86803 0.0
C581 C 0.57463 0.10354 0.87753 0.0
C582 C 0.63623 0.1754 0.84526 0.0
C583 C 0.63303 0.16126 0.80729 0.0
C584 C 0.58857 0.12726 0.85259 0.0
C585 C 0.60408 0.13236 0.79187 0.0
C586 C 0.54244 0.07703 0.86487 0.0
C587 C 0.58983 0.07853 0.93164 0.0
N588 N 0.58334 0.11572 0.81489 0.0
N589 N 0.597 0.10377 0.91064 0.0
H590 H 0.01191 0.35301 0.05283 0.0
H591 H 0.17757 0.35633 0.21944 0.0
H592 H 0.09552 0.44268 0.11063 0.0
H593 H 0.11994 0.26362 0.14317 0.0
H594 H 0.13698 0.38632 0.18757 0.0
H595 H 0.04138 0.31821 0.09273 0.0
C596 C 0.03602 0.36535 0.07429 0.0
C597 C 0.05159 0.40062 0.0784 0.0
C598 C 0.13302 0.35939 0.17771 0.0
C599 C 0.08487 0.36148 0.1238 0.0
C600 C 0.15628 0.34222 0.19587 0.0
C601 C 0.15262 0.30758 0.18339 0.0
C602 C 0.1059 0.34203 0.14646 0.0
C603 C 0.12387 0.29046 0.15335 0.0
C604 C 0.05287 0.34555 0.09679 0.0
C605 C 0.0829 0.4155 0.10631 0.0
N606 N 0.10175 0.30801 0.13547 0.0
N607 N 0.09846 0.39588 0.12785 0.0
H608 H 0.60998 0.6184 0.95078 0.0
H609 H 0.63499 0.64148 0.74085 0.0
H610 H 0.55084 0.54235 0.85499 0.0
H611 H 0.71566 0.69537 0.8391 0.0
H612 H 0.60226 0.60545 0.78137 0.0
H613 H 0.64807 0.64774 0.90967 0.0
C614 C 0.60526 0.60771 0.92113 0.0
C615 C 0.5771 0.57805 0.9062 0.0
C616 C 0.62732 0.62501 0.79387 0.0
C617 C 0.62025 0.6117 0.85888 0.0
C618 C 0.64588 0.64563 0.77083 0.0
C619 C 0.67794 0.6716 0.78664 0.0
C620 C 0.6407 0.63081 0.83295 0.0
C621 C 0.69099 0.67575 0.82563 0.0
C622 C 0.62704 0.62443 0.89767 0.0
C623 C 0.57228 0.5652 0.86761 0.0
N624 N 0.67214 0.65582 0.84745 0.0
N625 N 0.59337 0.58237 0.84512 0.0
H626 H 0.61079 0.26295 0.14584 0.0
H627 H 0.64074 0.45021 0.09276 0.0
H628 H 0.71157 0.3425 0.18684 0.0
H629 H 0.54281 0.36818 0.04842 0.0
H630 H 0.67023 0.40982 0.12155 0.0
H631 H 0.58857 0.2996 0.10462 0.0
C632 C 0.62845 0.28806 0.14592 0.0
C633 C 0.66298 0.29978 0.17009 0.0
C634 C 0.64247 0.40058 0.10513 0.0
C635 C 0.63748 0.34214 0.12301 0.0
C636 C 0.62561 0.42362 0.08858 0.0
C637 C 0.58904 0.41267 0.06849 0.0
C638 C 0.62258 0.36636 0.10169 0.0
C639 C 0.57092 0.37787 0.0639 0.0
C640 C 0.61572 0.309 0.1223 0.0
C641 C 0.68473 0.33246 0.16873 0.0
N642 N 0.58771 0.35608 0.08073 0.0
N643 N 0.67142 0.35267 0.14589 0.0
H644 H 0.96936 0.43231 0.40081 0.0
H645 H 0.85446 0.32222 0.24895 0.0
H646 H 0.87132 0.46259 0.42423 0.0
H647 H 0.78053 0.31484 0.33002 0.0
H648 H 0.89052 0.37759 0.28472 0.0
H649 H 0.93176 0.39314 0.34528 0.0
C650 C 0.94014 0.43132 0.39375 0.0
C651 C 0.92329 0.45024 0.41743 0.0
C652 C 0.86602 0.36401 0.29418 0.0
C653 C 0.88028 0.40571 0.35423 0.0
C654 C 0.8454 0.33256 0.27385 0.0
C655 C 0.81468 0.31383 0.28682 0.0
C656 C 0.8557 0.37666 0.32758 0.0
C657 C 0.80381 0.32854 0.31888 0.0
C658 C 0.91876 0.4092 0.36188 0.0
C659 C 0.88534 0.44815 0.40692 0.0
N660 N 0.82455 0.35905 0.33841 0.0
N661 N 0.86485 0.42549 0.37661 0.0
H662 H 0.58544 0.57542 0.48463 0.0
H663 H 0.62496 0.6058 0.27826 0.0
H664 H 0.51569 0.51952 0.38064 0.0
H665 H 0.67613 0.6804 0.37772 0.0
H666 H 0.59126 0.56954 0.31725 0.0
H667 H 0.625 0.61005 0.44765 0.0
C668 C 0.57855 0.5703 0.4541 0.0
C669 C 0.54702 0.54467 0.43574 0.0
C670 C 0.60995 0.59378 0.33064 0.0
C671 C 0.59224 0.58389 0.39339 0.0
C672 C 0.62937 0.61451 0.30838 0.0
C673 C 0.65333 0.64637 0.32463 0.0
C674 C 0.61452 0.60472 0.36965 0.0
C675 C 0.65783 0.65612 0.36392 0.0
C676 C 0.60105 0.59013 0.43304 0.0
C677 C 0.53943 0.5392 0.39609 0.0
N678 N 0.63855 0.63541 0.3851 0.0
N679 N 0.56184 0.55854 0.37634 0.0
H680 H 0.80383 0.33471 0.77646 0.0
H681 H 0.87244 0.42427 0.97706 0.0
H682 H 0.74626 0.30899 0.86715 0.0
H683 H 0.91139 0.46479 0.88125 0.0
H684 H 0.81392 0.39396 0.93644 0.0
H685 H 0.82988 0.39246 0.80998 0.0
C686 C 0.79571 0.34188 0.80284 0.0
C687 C 0.77373 0.31741 0.81932 0.0
C688 C 0.83489 0.41008 0.92436 0.0
C689 C 0.80424 0.38255 0.85915 0.0
C690 C 0.86845 0.42702 0.9475 0.0
C691 C 0.8973 0.44535 0.9319 0.0
C692 C 0.83091 0.41074 0.88535 0.0
C693 C 0.89028 0.44958 0.89397 0.0
C694 C 0.81058 0.37474 0.82226 0.0
C695 C 0.76427 0.32715 0.85414 0.0
N696 N 0.85803 0.43155 0.87164 0.0
N697 N 0.78029 0.35895 0.87342 0.0
H698 H 0.87235 0.85218 0.2031 0.0
H699 H 0.90214 0.89478 -0.00222 0.0
H700 H 0.81187 0.78506 0.10106 0.0
H701 H 0.96138 0.95649 0.10352 0.0
H702 H 0.86498 0.85608 0.03318 0.0
H703 H 0.90098 0.89248 0.16534 0.0
C704 C 0.86493 0.84592 0.17263 0.0
C705 C 0.83983 0.815 0.15528 0.0
C706 C 0.886 0.87823 0.04848 0.0
C707 C 0.87306 0.86136 0.1114 0.0
C708 C 0.90717 0.90034 0.02833 0.0
C709 C 0.93517 0.9288 0.04769 0.0
C710 C 0.89286 0.88482 0.08819 0.0
C711 C 0.94042 0.93476 0.08728 0.0
C712 C 0.88137 0.86906 0.15097 0.0
C713 C 0.83114 0.80859 0.11561 0.0
N714 N 0.91964 0.91299 0.10605 0.0
N715 N 0.84798 0.83148 0.09493 0.0
H716 H 0.82304 0.14835 0.78749 0.0
H717 H 0.87183 0.0227 0.92941 0.0
H718 H 0.77866 0.13781 0.89011 0.0
H719 H 0.94289 0.05965 0.85184 0.0
H720 H 0.82979 0.05643 0.90698 0.0
H721 H 0.86043 0.10849 0.8034 0.0
C722 C 0.82108 0.13765 0.81329 0.0
C723 C 0.7977 0.14654 0.83753 0.0
C724 C 0.85433 0.05681 0.89452 0.0
C725 C 0.84006 0.10068 0.85561 0.0
C726 C 0.87816 0.03726 0.90701 0.0
C727 C 0.91095 0.03835 0.89244 0.0
C728 C 0.86305 0.07729 0.86691 0.0
C729 C 0.91796 0.05815 0.86388 0.0
C730 C 0.84243 0.11492 0.82233 0.0
C731 C 0.7963 0.13181 0.87058 0.0
N732 N 0.89426 0.07691 0.85208 0.0
N733 N 0.81709 0.1096 0.87857 0.0
H734 H 0.73403 0.18431 0.63251 0.0
H735 H 0.53429 0.05323 0.59098 0.0
H736 H 0.64824 0.1923 0.69737 0.0
H737 H 0.61375 0.0549 0.51619 0.0
H738 H 0.57518 0.1049 0.63006 0.0
H739 H 0.68995 0.13724 0.58859 0.0
C740 C 0.70586 0.1758 0.63744 0.0
C741 C 0.69467 0.19081 0.66893 0.0
C742 C 0.58357 0.0942 0.60493 0.0
C743 C 0.64438 0.13802 0.61926 0.0
C744 C 0.5602 0.06495 0.58265 0.0
C745 C 0.57087 0.05033 0.55056 0.0
C746 C 0.61786 0.10854 0.59494 0.0
C747 C 0.60496 0.0655 0.54112 0.0
C748 C 0.68075 0.1492 0.61249 0.0
C749 C 0.65797 0.17994 0.67412 0.0
N750 N 0.62741 0.09392 0.56334 0.0
N751 N 0.634 0.1539 0.64958 0.0
H752 H 0.51107 0.86436 0.35461 0.0
H753 H 0.72131 0.86837 0.35524 0.0
H754 H 0.59944 0.95353 0.40411 0.0
H755 H 0.63093 0.79587 0.27885 0.0
H756 H 0.67803 0.90238 0.37048 0.0
H757 H 0.55459 0.84134 0.32226 0.0
C758 C 0.53948 0.87941 0.35798 0.0
C759 C 0.55178 0.91063 0.3824 0.0
C760 C 0.6679 0.8793 0.34991 0.0
C761 C 0.60204 0.88412 0.34637 0.0
C762 C 0.69256 0.85987 0.34129 0.0
C763 C 0.6796 0.82895 0.31625 0.0
C764 C 0.6301 0.86754 0.33348 0.0
C765 C 0.64207 0.8192 0.29888 0.0
C766 C 0.56438 0.86626 0.3396 0.0
C767 C 0.58885 0.92923 0.38564 0.0
N768 N 0.61861 0.83818 0.30816 0.0
N769 N 0.61293 0.91534 0.3685 0.0
H770 H 0.85509 0.20239 0.37529 0.0
H771 H 0.88316 0.01379 0.35487 0.0
H772 H 0.7965 0.12156 0.28388 0.0
H773 H 0.93915 0.09197 0.44974 0.0
H774 H 0.84582 0.05128 0.3328 0.0
H775 H 0.88029 0.16104 0.40722 0.0
C776 C 0.84709 0.17588 0.36214 0.0
C777 C 0.82405 0.16557 0.32652 0.0
C778 C 0.86596 0.06021 0.35868 0.0
C779 C 0.85311 0.11813 0.36286 0.0
C780 C 0.88736 0.03875 0.37134 0.0
C781 C 0.91464 0.04982 0.40406 0.0
C782 C 0.872 0.09327 0.37858 0.0
C783 C 0.91854 0.08239 0.42431 0.0
C784 C 0.86158 0.15228 0.38039 0.0
C785 C 0.81446 0.13081 0.31108 0.0
N786 N 0.89779 0.10313 0.41099 0.0
N787 N 0.82936 0.10849 0.3291 0.0
H788 H 0.6577 0.14199 0.23427 0.0
H789 H 0.58768 0.08189 0.02267 0.0
H790 H 0.72502 0.17715 0.15294 0.0
H791 H 0.56731 0.00748 0.0973 0.0
H792 H 0.63733 0.11812 0.07147 0.0
H793 H 0.62353 0.09209 0.18707 0.0
C794 C 0.66587 0.1387 0.20688 0.0
C795 C 0.69406 0.16363 0.19736 0.0
C796 C 0.62251 0.09358 0.07697 0.0
C797 C 0.65496 0.10761 0.14356 0.0
C798 C 0.5941 0.07306 0.04927 0.0
C799 C 0.57355 0.04189 0.05626 0.0
C800 C 0.62954 0.08332 0.11229 0.0
C801 C 0.5828 0.03144 0.09106 0.0
C802 C 0.64655 0.11029 0.18012 0.0
C803 C 0.70357 0.15843 0.16149 0.0
N804 N 0.60974 0.05257 0.11834 0.0
N805 N 0.68354 0.13133 0.1356 0.0
H806 H 0.63126 0.76004 0.84622 0.0
H807 H 0.56844 0.93163 0.8489 0.0
H808 H 0.67427 0.83703 0.78098 0.0
H809 H 0.56687 0.87843 0.94487 0.0
H810 H 0.60435 0.89532 0.82191 0.0
H811 H 0.60576 0.80124 0.88198 0.0
C812 C 0.63586 0.78581 0.83987 0.0
C813 C 0.655 0.79518 0.81069 0.0
C814 C 0.59643 0.89172 0.84901 0.0
C815 C 0.62496 0.84205 0.85065 0.0
C816 C 0.57567 0.9123 0.86438 0.0
C817 C 0.56437 0.90796 0.89917 0.0
C818 C 0.60552 0.86605 0.86811 0.0
C819 C 0.57492 0.88264 0.91798 0.0
C820 C 0.62128 0.80927 0.86025 0.0
C821 C 0.66003 0.82883 0.80349 0.0
N822 N 0.59452 0.86233 0.90199 0.0
N823 N 0.64455 0.85086 0.82288 0.0
H824 H 0.88819 0.84668 0.53651 0.0
H825 H 0.82071 0.84111 0.73339 0.0
H826 H 0.91216 0.93687 0.62053 0.0
H827 H 0.75964 0.77331 0.63201 0.0
H828 H 0.85965 0.87413 0.69489 0.0
H829 H 0.84584 0.81633 0.57371 0.0
C830 C 0.8845 0.8601 0.56276 0.0
C831 C 0.90372 0.89431 0.57555 0.0
C832 C 0.83752 0.85215 0.68116 0.0
C833 C 0.85571 0.85972 0.61822 0.0
C834 C 0.81544 0.83331 0.70306 0.0
C835 C 0.78694 0.80458 0.68581 0.0
C836 C 0.8315 0.84162 0.64196 0.0
C837 C 0.78116 0.79549 0.6464 0.0
C838 C 0.86023 0.84282 0.58383 0.0
C839 C 0.89779 0.91052 0.60965 0.0
N840 N 0.80353 0.81375 0.62582 0.0
N841 N 0.87452 0.89296 0.63004 0.0
H842 H 0.18299 0.81641 0.86498 0.0
H843 H 0.02445 0.90726 0.91431 0.0
H844 H 0.08415 0.81095 0.78507 0.0
H845 H 0.13385 0.92846 0.98174 0.0
H846 H 0.04189 0.86605 0.86963 0.0
H847 H 0.16103 0.85135 0.91182 0.0
C848 C 0.15658 0.82236 0.85736 0.0
C849 C 0.13549 0.81087 0.82102 0.0
C850 C 0.06194 0.8797 0.89432 0.0
C851 C 0.1103 0.85105 0.87433 0.0
C852 C 0.05198 0.9031 0.91977 0.0
C853 C 0.07787 0.92147 0.95148 0.0
C854 C 0.09779 0.87442 0.90113 0.0
C855 C 0.11318 0.91519 0.95735 0.0
C856 C 0.14409 0.84239 0.88405 0.0
C857 C 0.10137 0.81929 0.81275 0.0
N858 N 0.12206 0.89221 0.93247 0.0
N859 N 0.08992 0.83902 0.83913 0.0
H860 H 0.98368 0.46365 0.62579 0.0
H861 H 0.85936 0.29255 0.66216 0.0
H862 H 0.92399 0.37724 0.54116 0.0
H863 H 0.88383 0.39077 0.73258 0.0
H864 H 0.91093 0.31426 0.63022 0.0
H865 H 0.97557 0.42734 0.6744 0.0
C866 C 0.96964 0.43687 0.61733 0.0
C867 C 0.95285 0.42367 0.57974 0.0
C868 C 0.90583 0.33061 0.65361 0.0
C869 C 0.94381 0.38235 0.63487 0.0
C870 C 0.87641 0.31832 0.67175 0.0
C871 C 0.86666 0.34053 0.69879 0.0
C872 C 0.92521 0.36514 0.66282 0.0
C873 C 0.8898 0.37338 0.71075 0.0
C874 C 0.96529 0.41616 0.64504 0.0
C875 C 0.93601 0.38867 0.57011 0.0
N876 N 0.91767 0.38501 0.69208 0.0
N877 N 0.9311 0.3693 0.59771 0.0
H878 H 0.4591 0.05702 0.38053 0.0
H879 H 0.37637 0.22027 0.37371 0.0
H880 H 0.45399 0.12359 0.48048 0.0
H881 H 0.35807 0.13792 0.28117 0.0
H882 H 0.41749 0.19286 0.41126 0.0
H883 H 0.43549 0.09483 0.34172 0.0
C884 C 0.45358 0.07988 0.39433 0.0
C885 C 0.45789 0.08689 0.43374 0.0
C886 C 0.40481 0.18114 0.38253 0.0
C887 C 0.43067 0.13012 0.38954 0.0
C888 C 0.38156 0.1968 0.36117 0.0
C889 C 0.3636 0.18101 0.32461 0.0
C890 C 0.41037 0.14993 0.36679 0.0
C891 C 0.371 0.15059 0.30952 0.0
C892 C 0.43996 0.10139 0.37217 0.0
C893 C 0.45049 0.11698 0.45012 0.0
N894 N 0.39368 0.13598 0.33071 0.0
N895 N 0.43683 0.13735 0.42791 0.0
H896 H 0.60602 0.53996 0.04447 0.0
H897 H 0.63179 0.71909 0.1624 0.0
H898 H 0.51904 0.59229 0.04392 0.0
H899 H 0.72011 0.66986 0.15255 0.0
H900 H 0.59439 0.68089 0.10604 0.0
H901 H 0.65192 0.5938 0.06983 0.0
C902 C 0.59683 0.56311 0.04927 0.0
C903 C 0.55906 0.56205 0.04309 0.0
C904 C 0.62239 0.67905 0.11545 0.0
C905 C 0.61084 0.62332 0.07288 0.0
C906 C 0.64365 0.7008 0.14759 0.0
C907 C 0.67889 0.69726 0.16193 0.0
C908 C 0.63624 0.65307 0.09844 0.0
C909 C 0.6933 0.67356 0.14187 0.0
C910 C 0.62292 0.59383 0.06357 0.0
C911 C 0.54813 0.59239 0.04901 0.0
N912 N 0.67159 0.65177 0.11155 0.0
N913 N 0.57395 0.62188 0.06448 0.0
H914 H 0.20098 0.19358 0.65281 0.0
H915 H -0.00244 0.08102 0.5697 0.0
H916 H 0.10191 0.21599 0.68407 0.0
H917 H 0.09504 0.06217 0.53067 0.0
H918 H 0.03471 0.13658 0.60337 0.0
H919 H 0.16273 0.15187 0.59956 0.0
C920 C 0.17127 0.19032 0.64785 0.0
C921 C 0.15446 0.20766 0.67314 0.0
C922 C 0.04798 0.12049 0.58716 0.0
C923 C 0.11055 0.15998 0.61284 0.0
C924 C 0.02681 0.08877 0.56819 0.0
C925 C 0.04356 0.06699 0.5482 0.0
C926 C 0.0863 0.13 0.5868 0.0
C927 C 0.08129 0.07827 0.54623 0.0
C928 C 0.1494 0.16644 0.61757 0.0
C929 C 0.11586 0.20255 0.66561 0.0
N930 N 0.10163 0.10885 0.56592 0.0
N931 N 0.09514 0.1788 0.6364 0.0
H932 H 0.7285 0.3683 0.3601 0.0
H933 H 0.53663 0.39452 0.41176 0.0
H934 H 0.62473 0.29268 0.31978 0.0
H935 H 0.64462 0.45673 0.4673 0.0
H936 H 0.56704 0.35725 0.37645 0.0
H937 H 0.69726 0.40089 0.39945 0.0
C938 C 0.69908 0.35851 0.35979 0.0
C939 C 0.67909 0.3279 0.33675 0.0
C940 C 0.58397 0.379 0.39651 0.0
C941 C 0.64281 0.36541 0.381 0.0
C942 C 0.56666 0.40037 0.4165 0.0
C943 C 0.58812 0.42893 0.44235 0.0
C944 C 0.62293 0.38636 0.40243 0.0
C945 C 0.6269 0.43521 0.44747 0.0
C946 C 0.68121 0.37709 0.38222 0.0
C947 C 0.64109 0.31614 0.33746 0.0
N948 N 0.64298 0.41418 0.42769 0.0
N949 N 0.62398 0.33517 0.3589 0.0
H950 H 0.46122 0.96951 0.10131 0.0
H951 H 0.35238 0.78386 0.12537 0.0
H952 H 0.38286 0.89766 0.0127 0.0
H953 H 0.37734 0.87059 0.21433 0.0
H954 H 0.38592 0.8201 0.08614 0.0
H955 H 0.45037 0.92767 0.1445 0.0
C956 C 0.44213 0.94472 0.09094 0.0
C957 C 0.4223 0.93689 0.05386 0.0
C958 C 0.38457 0.8309 0.11454 0.0
C959 C 0.4109 0.88925 0.10216 0.0
C960 C 0.36551 0.81035 0.13694 0.0
C961 C 0.36118 0.8246 0.17266 0.0
C962 C 0.39942 0.8657 0.12814 0.0
C963 C 0.37942 0.85884 0.18659 0.0
C964 C 0.43612 0.92103 0.11542 0.0
C965 C 0.39802 0.90465 0.04141 0.0
N966 N 0.39734 0.87852 0.16395 0.0
N967 N 0.39293 0.88187 0.06564 0.0
H968 H 0.88123 0.53181 0.87019 0.0
H969 H 0.86884 0.71709 0.8345 0.0
H970 H 0.96739 0.62104 0.92444 0.0
H971 H 0.8034 0.62333 0.76464 0.0
H972 H 0.90771 0.68439 0.86668 0.0
H973 H 0.85417 0.56643 0.83015 0.0
C974 C 0.89459 0.5588 0.87345 0.0
C975 C 0.92635 0.57371 0.90077 0.0
C976 C 0.88508 0.67121 0.84397 0.0
C977 C 0.89522 0.61387 0.85523 0.0
C978 C 0.86296 0.6898 0.82568 0.0
C979 C 0.83245 0.67276 0.79748 0.0
C980 C 0.87635 0.63555 0.83377 0.0
C981 C 0.82611 0.63746 0.78684 0.0
C982 C 0.87921 0.57861 0.85047 0.0
C983 C 0.94281 0.6087 0.90359 0.0
N984 N 0.8476 0.62008 0.80519 0.0
N985 N 0.92668 0.62785 0.8814 0.0
H986 H 0.39522 0.35152 0.04135 0.0
H987 H 0.35159 0.33891 0.24856 0.0
H988 H 0.43879 0.43585 0.1329 0.0
H989 H 0.28274 0.27561 0.14781 0.0
H990 H 0.38808 0.37275 0.20856 0.0
H991 H 0.35742 0.32106 0.08189 0.0
C992 C 0.39666 0.36371 0.06995 0.0
C993 C 0.42021 0.3962 0.08384 0.0
C994 C 0.36484 0.35151 0.19539 0.0
C995 C 0.37726 0.36134 0.13054 0.0
C996 C 0.34421 0.33216 0.21814 0.0
C997 C 0.31407 0.30454 0.20147 0.0
C998 C 0.35556 0.34263 0.15589 0.0
C999 C 0.30556 0.29685 0.16191 0.0
C1000 C 0.37504 0.34633 0.09308 0.0
C1001 C 0.42088 0.41084 0.1211 0.0
N1002 N 0.32631 0.31564 0.14054 0.0
N1003 N 0.39993 0.39314 0.14336 0.0
H1004 H 0.45399 0.61362 0.93542 0.0
H1005 H 0.2748 0.64449 0.81105 0.0
H1006 H 0.3503 0.53658 0.90002 0.0
H1007 H 0.38298 0.71564 0.83537 0.0
H1008 H 0.29872 0.60825 0.85232 0.0
H1009 H 0.42505 0.65471 0.9078 0.0
C1010 C 0.42496 0.60543 0.92232 0.0
C1011 C 0.40465 0.57145 0.91971 0.0
C1012 C 0.31706 0.63199 0.84892 0.0
C1013 C 0.37137 0.61846 0.88776 0.0
C1014 C 0.30338 0.65276 0.82552 0.0
C1015 C 0.32701 0.68299 0.81951 0.0
C1016 C 0.35457 0.6416 0.86646 0.0
C1017 C 0.36383 0.69241 0.83891 0.0
C1018 C 0.40848 0.62892 0.90642 0.0
C1019 C 0.36711 0.56241 0.90243 0.0
N1020 N 0.37653 0.67168 0.86125 0.0
N1021 N 0.35176 0.5857 0.88681 0.0
H1022 H 0.10459 0.51093 0.56601 0.0
H1023 H 0.11392 0.67323 0.7153 0.0
H1024 H 0.01413 0.55833 0.57357 0.0
H1025 H 0.20961 0.64575 0.68063 0.0
H1026 H 0.07446 0.6196 0.67935 0.0
H1027 H 0.1393 0.54801 0.62417 0.0
C1028 C 0.09171 0.52866 0.58026 0.0
C1029 C 0.05689 0.53233 0.56435 0.0
C1030 C 0.10418 0.62509 0.6802 0.0
C1031 C 0.09641 0.57464 0.63062 0.0
C1032 C 0.12679 0.65571 0.70066 0.0
C1033 C 0.16507 0.6644 0.70006 0.0
C1034 C 0.12 0.60294 0.65929 0.0
C1035 C 0.18014 0.64041 0.6811 0.0
C1036 C 0.11156 0.54979 0.61341 0.0
C1037 C 0.04123 0.5552 0.58441 0.0
N1038 N 0.15747 0.61091 0.66102 0.0
N1039 N 0.0614 0.57597 0.61623 0.0
H1040 H 0.37948 0.29484 0.64627 0.0
H1041 H 0.36178 0.4367 0.51473 0.0
H1042 H 0.27965 0.32961 0.62605 0.0
H1043 H 0.45304 0.38957 0.52878 0.0
H1044 H 0.32963 0.39784 0.55345 0.0
H1045 H 0.40579 0.33013 0.60268 0.0
C1046 C 0.36301 0.31 0.63271 0.0
C1047 C 0.32725 0.30926 0.64006 0.0
C1048 C 0.35657 0.39589 0.54771 0.0
C1049 C 0.35754 0.35016 0.58947 0.0
C1050 C 0.37482 0.4179 0.52541 0.0
C1051 C 0.41042 0.41666 0.51875 0.0
C1052 C 0.37407 0.37252 0.56332 0.0
C1053 C 0.42604 0.39196 0.5336 0.0
C1054 C 0.37809 0.33015 0.60756 0.0
C1055 C 0.30732 0.32939 0.62124 0.0
N1056 N 0.40795 0.37115 0.55521 0.0
N1057 N 0.3228 0.34918 0.59692 0.0
H1058 H 0.24817 0.65856 0.11959 0.0
H1059 H 0.06898 0.50757 0.09731 0.0
H1060 H 0.15798 0.64961 0.18234 0.0
H1061 H 0.10405 0.55194 0.00191 0.0
H1062 H 0.12882 0.53794 0.13578 0.0
H1063 H 0.21785 0.60097 0.08424 0.0
C1064 C 0.22261 0.64424 0.12654 0.0
C1065 C 0.20542 0.65875 0.15385 0.0
C1066 C 0.1238 0.53992 0.10602 0.0
C1067 C 0.17269 0.59314 0.11584 0.0
C1068 C 0.08956 0.52308 0.08422 0.0
C1069 C 0.08099 0.52906 0.04713 0.0
C1070 C 0.14883 0.56328 0.09069 0.0
C1071 C 0.10905 0.54825 0.03111 0.0
C1072 C 0.20585 0.61145 0.10688 0.0
C1073 C 0.17244 0.63935 0.16191 0.0
N1074 N 0.14163 0.56565 0.05341 0.0
N1075 N 0.15722 0.60751 0.14303 0.0
H1076 H 0.6243 0.30543 0.69765 0.0
H1077 H 0.61807 0.46833 0.59587 0.0
H1078 H 0.72313 0.38034 0.68788 0.0
H1079 H 0.52604 0.38012 0.58583 0.0
H1080 H 0.65552 0.44272 0.6399 0.0
H1081 H 0.58658 0.33903 0.66727 0.0
C1082 C 0.63812 0.32917 0.68953 0.0
C1083 C 0.67698 0.33987 0.69499 0.0
C1084 C 0.62697 0.42925 0.62834 0.0
C1085 C 0.63379 0.37851 0.65988 0.0
C1086 C 0.60559 0.44394 0.60347 0.0
C1087 C 0.56907 0.42616 0.58705 0.0
C1088 C 0.61141 0.39687 0.637 0.0
C1089 C 0.55424 0.39453 0.59757 0.0
C1090 C 0.61652 0.34833 0.67205 0.0
C1091 C 0.69325 0.37098 0.68396 0.0
N1092 N 0.57547 0.38088 0.62169 0.0
N1093 N 0.67157 0.3891 0.66663 0.0
H1094 H 0.84339 0.64861 0.19258 0.0
H1095 H 0.8829 0.5304 0.01947 0.0
H1096 H 0.78331 0.63375 0.07858 0.0
H1097 H 0.96606 0.58088 0.11716 0.0
H1098 H 0.83695 0.55305 0.04827 0.0
H1099 H 0.87871 0.60875 0.17181 0.0
C1100 C 0.83713 0.63649 0.16333 0.0
C1101 C 0.81084 0.64494 0.13706 0.0
C1102 C 0.86513 0.55866 0.06361 0.0
C1103 C 0.85093 0.59929 0.11337 0.0
C1104 C 0.89138 0.54567 0.04732 0.0
C1105 C 0.9286 0.55432 0.06568 0.0
C1106 C 0.87604 0.58009 0.09866 0.0
C1107 C 0.93783 0.57403 0.10178 0.0
C1108 C 0.85738 0.61386 0.15154 0.0
C1109 C 0.80377 0.62836 0.09959 0.0
N1110 N 0.91178 0.58654 0.11697 0.0
N1111 N 0.82393 0.60648 0.08877 0.0
H1112 H 0.88438 0.54173 0.63114 0.0
H1113 H 0.83714 0.72098 0.6306 0.0
H1114 H 0.91584 0.60523 0.54806 0.0
H1115 H 0.7778 0.64087 0.68305 0.0
H1116 H 0.86667 0.68029 0.59984 0.0
H1117 H 0.84776 0.57976 0.65233 0.0
C1118 C 0.88364 0.5637 0.61728 0.0
C1119 C 0.90326 0.57018 0.58765 0.0
C1120 C 0.84671 0.67149 0.61755 0.0
C1121 C 0.86094 0.61398 0.6119 0.0
C1122 C 0.82974 0.69462 0.63496 0.0
C1123 C 0.80499 0.68425 0.65938 0.0
C1124 C 0.83954 0.63795 0.62536 0.0
C1125 C 0.79646 0.64989 0.66421 0.0
C1126 C 0.86244 0.58531 0.62929 0.0
C1127 C 0.90123 0.59923 0.57102 0.0
N1128 N 0.81419 0.62813 0.64789 0.0
N1129 N 0.88055 0.62016 0.58348 0.0
H1130 H 0.40868 0.54922 0.32791 0.0
H1131 H 0.29269 0.68515 0.37315 0.0
H1132 H 0.36626 0.56386 0.43151 0.0
H1133 H 0.30179 0.64843 0.25903 0.0
H1134 H 0.32715 0.64582 0.39603 0.0
H1135 H 0.37566 0.5893 0.30285 0.0
C1136 C 0.39222 0.56062 0.34527 0.0
C1137 C 0.3901 0.55302 0.38182 0.0
C1138 C 0.32161 0.64631 0.36597 0.0
C1139 C 0.35297 0.5993 0.35361 0.0
C1140 C 0.30205 0.66891 0.35284 0.0
C1141 C 0.29399 0.66993 0.31403 0.0
C1142 C 0.33354 0.62457 0.34022 0.0
C1143 C 0.30719 0.64838 0.28918 0.0
C1144 C 0.37347 0.58351 0.33095 0.0
C1145 C 0.3685 0.56869 0.40309 0.0
N1146 N 0.32629 0.62651 0.30269 0.0
N1147 N 0.35105 0.59122 0.38879 0.0
H1148 H 0.19899 0.35063 0.9066 0.0
H1149 H 0.01495 0.40669 0.86046 0.0
H1150 H 0.13727 0.33505 0.79322 0.0
H1151 H 0.09467 0.44846 0.96309 0.0
H1152 H 0.06282 0.38659 0.8324 0.0
H1153 H 0.16551 0.39247 0.92568 0.0
C1154 C 0.17875 0.35637 0.88561 0.0
C1155 C 0.17024 0.33878 0.84854 0.0
C1156 C 0.07003 0.40072 0.86082 0.0
C1157 C 0.13153 0.38625 0.87017 0.0
C1158 C 0.04266 0.41211 0.87686 0.0
C1159 C 0.05056 0.42848 0.91444 0.0
C1160 C 0.10523 0.40515 0.88284 0.0
C1161 C 0.08713 0.4354 0.9342 0.0
C1162 C 0.15974 0.38037 0.89645 0.0
C1163 C 0.14427 0.34764 0.82229 0.0
N1164 N 0.11289 0.42302 0.91845 0.0
N1165 N 0.12524 0.37025 0.8338 0.0
H1166 H 0.21681 0.33928 0.3137 0.0
H1167 H 0.05396 0.37078 0.42358 0.0
H1168 H 0.13111 0.258 0.3372 0.0
H1169 H 0.13544 0.45115 0.39243 0.0
H1170 H 0.08494 0.32912 0.39729 0.0
H1171 H 0.19129 0.38074 0.3487 0.0
C1172 C 0.19311 0.33011 0.32688 0.0
C1173 C 0.17602 0.2951 0.3224 0.0
C1174 C 0.09607 0.3559 0.39632 0.0
C1175 C 0.14623 0.34246 0.36205 0.0
C1176 C 0.07833 0.37969 0.41127 0.0
C1177 C 0.09199 0.41455 0.41014 0.0
C1178 C 0.12767 0.36703 0.38005 0.0
C1179 C 0.12383 0.42458 0.39398 0.0
C1180 C 0.17831 0.35381 0.3466 0.0
C1181 C 0.14505 0.28476 0.33974 0.0
N1182 N 0.14044 0.401 0.37951 0.0
N1183 N 0.13104 0.30828 0.35856 0.0
loop_
_geom_bond_atom_site_label_1
_geom_bond_atom_site_label_2
_geom_bond_distance
_geom_bond_site_symmetry_2
_ccdc_geom_bond_type
Zn0 O6 1.969 . S
Zn0 O7 1.965 1_655 S
Zn0 O11 2.024 1_556 S
Zn0 O16 1.969 1_546 S
Zn1 O8 1.969 1_564 S
Zn1 O14 1.969 . S
Zn1 O15 1.965 1_455 S
Zn1 O17 2.024 1_554 S
C2 O3 1.229 . S
C2 O11 1.058 . S
O3 C2 1.229 . S
C4 O5 1.229 . S
C4 O17 1.058 . S
O5 C4 1.229 . S
O6 Zn0 1.969 . S
O6 C9 1.267 . S
O7 Zn0 1.965 1_455 S
O7 C18 1.260 . S
O8 Zn1 1.969 1_546 S
O8 C18 1.258 . S
C9 O6 1.267 . S
C9 O10 1.228 . S
O10 C9 1.228 . S
O11 Zn0 2.024 1_554 S
O11 C2 1.058 . S
C12 O13 1.228 . S
C12 O14 1.267 . S
O13 C12 1.228 . S
O14 Zn1 1.969 . S
O14 C12 1.267 . S
O15 Zn1 1.965 1_655 S
O15 C19 1.260 . S
O16 Zn0 1.969 1_564 S
O16 C19 1.258 . S
O17 Zn1 2.024 1_556 S
O17 C4 1.058 . S
C18 O7 1.260 . S
C18 O8 1.258 . S
C19 O15 1.260 . S
C19 O16 1.258 . S
Zn20 O26 1.969 . S
Zn20 O27 1.965 . S
Zn20 O31 2.024 . S
Zn20 O36 1.969 . S
Zn21 O28 1.969 . S
Zn21 O34 1.969 . S
Zn21 O35 1.965 . S
Zn21 O37 2.024 . S
C22 O23 1.229 . S
C22 O31 1.058 . S
O23 C22 1.229 . S
C24 O25 1.229 . S
C24 O37 1.058 . S
O25 C24 1.229 . S
O26 Zn20 1.969 . S
O26 C29 1.267 . S
O27 Zn20 1.965 . S
O27 C38 1.260 . S
O28 Zn21 1.969 . S
O28 C38 1.258 . S
C29 O26 1.267 . S
C29 O30 1.228 . S
O30 C29 1.228 . S
O31 Zn20 2.024 . S
O31 C22 1.058 . S
C32 O33 1.228 . S
C32 O34 1.267 . S
O33 C32 1.228 . S
O34 Zn21 1.969 . S
O34 C32 1.267 . S
O35 Zn21 1.965 . S
O35 C39 1.260 . S
O36 Zn20 1.969 . S
O36 C39 1.258 . S
O37 Zn21 2.024 . S
O37 C24 1.058 . S
C38 O27 1.260 . S
C38 O28 1.258 . S
C39 O35 1.260 . S
C39 O36 1.258 . S
Zn40 O46 1.969 . S
Zn40 O47 1.965 . S
Zn40 O51 2.024 . S
Zn40 O56 1.969 1_565 S
Zn41 O48 1.969 1_545 S
Zn41 O54 1.969 . S
Zn41 O55 1.965 . S
Zn41 O57 2.024 . S
C42 O43 1.229 . S
C42 O51 1.058 . S
O43 C42 1.229 . S
C44 O45 1.229 . S
C44 O57 1.058 . S
O45 C44 1.229 . S
O46 Zn40 1.969 . S
O46 C49 1.267 . S
O47 Zn40 1.965 . S
O47 C58 1.260 . S
O48 Zn41 1.969 1_565 S
O48 C58 1.258 . S
C49 O46 1.267 . S
C49 O50 1.228 . S
O50 C49 1.228 . S
O51 Zn40 2.024 . S
O51 C42 1.058 . S
C52 O53 1.228 . S
C52 O54 1.267 . S
O53 C52 1.228 . S
O54 Zn41 1.969 . S
O54 C52 1.267 . S
O55 Zn41 1.965 . S
O55 C59 1.260 . S
O56 Zn40 1.969 1_545 S
O56 C59 1.258 . S
O57 Zn41 2.024 . S
O57 C44 1.058 . S
C58 O47 1.260 . S
C58 O48 1.258 . S
C59 O55 1.260 . S
C59 O56 1.258 . S
Zn60 O66 1.969 . S
Zn60 O67 1.965 . S
Zn60 O71 2.024 . S
Zn60 O76 1.969 . S
Zn61 O68 1.969 . S
Zn61 O74 1.969 . S
Zn61 O75 1.965 . S
Zn61 O77 2.024 . S
C62 O63 1.229 . S
C62 O71 1.058 . S
O63 C62 1.229 . S
C64 O65 1.229 . S
C64 O77 1.058 . S
O65 C64 1.229 . S
O66 Zn60 1.969 . S
O66 C69 1.267 . S
O67 Zn60 1.965 . S
O67 C78 1.260 . S
O68 Zn61 1.969 . S
O68 C78 1.258 . S
C69 O66 1.267 . S
C69 O70 1.228 . S
O70 C69 1.228 . S
O71 Zn60 2.024 . S
O71 C62 1.058 . S
C72 O73 1.228 . S
C72 O74 1.267 . S
O73 C72 1.228 . S
O74 Zn61 1.969 . S
O74 C72 1.267 . S
O75 Zn61 1.965 . S
O75 C79 1.260 . S
O76 Zn60 1.969 . S
O76 C79 1.258 . S
O77 Zn61 2.024 . S
O77 C64 1.058 . S
C78 O67 1.260 . S
C78 O68 1.258 . S
C79 O75 1.260 . S
C79 O76 1.258 . S
Zn80 O86 1.969 . S
Zn80 O87 1.965 . S
Zn80 O91 2.024 1_455 S
Zn80 O96 1.969 1_445 S
Zn81 O88 1.969 1_665 S
Zn81 O94 1.969 . S
Zn81 O95 1.965 . S
Zn81 O97 2.024 1_655 S
C82 O83 1.229 . S
C82 O91 1.058 . S
O83 C82 1.229 . S
C84 O85 1.229 . S
C84 O97 1.058 . S
O85 C84 1.229 . S
O86 Zn80 1.969 . S
O86 C89 1.267 . S
O87 Zn80 1.965 . S
O87 C98 1.260 . S
O88 Zn81 1.969 1_445 S
O88 C98 1.258 . S
C89 O86 1.267 . S
C89 O90 1.228 . S
O90 C89 1.228 . S
O91 Zn80 2.024 1_655 S
O91 C82 1.058 . S
C92 O93 1.228 . S
C92 O94 1.267 . S
O93 C92 1.228 . S
O94 Zn81 1.969 . S
O94 C92 1.267 . S
O95 Zn81 1.965 . S
O95 C99 1.260 . S
O96 Zn80 1.969 1_665 S
O96 C99 1.258 . S
O97 Zn81 2.024 1_455 S
O97 C84 1.058 . S
C98 O87 1.260 . S
C98 O88 1.258 . S
C99 O95 1.260 . S
C99 O96 1.258 . S
Zn100 O106 1.969 . S
Zn100 O107 1.965 . S
Zn100 O111 2.024 . S
Zn100 O116 1.969 . S
Zn101 O108 1.969 . S
Zn101 O114 1.969 . S
Zn101 O115 1.965 . S
Zn101 O117 2.024 . S
C102 O103 1.229 . S
C102 O111 1.058 . S
O103 C102 1.229 . S
C104 O105 1.229 . S
C104 O117 1.058 . S
O105 C104 1.229 . S
O106 Zn100 1.969 . S
O106 C109 1.267 . S
O107 Zn100 1.965 . S
O107 C118 1.260 . S
O108 Zn101 1.969 . S
O108 C118 1.258 . S
C109 O106 1.267 . S
C109 O110 1.228 . S
O110 C109 1.228 . S
O111 Zn100 2.024 . S
O111 C102 1.058 . S
C112 O113 1.228 . S
C112 O114 1.267 . S
O113 C112 1.228 . S
O114 Zn101 1.969 . S
O114 C112 1.267 . S
O115 Zn101 1.965 . S
O115 C119 1.260 . S
O116 Zn100 1.969 . S
O116 C119 1.258 . S
O117 Zn101 2.024 . S
O117 C104 1.058 . S
C118 O107 1.260 . S
C118 O108 1.258 . S
C119 O115 1.260 . S
C119 O116 1.258 . S
Zn120 O126 1.969 . S
Zn120 O127 1.965 . S
Zn120 O131 2.024 1_545 S
Zn120 O136 1.969 1_544 S
Zn121 O128 1.969 1_566 S
Zn121 O134 1.969 . S
Zn121 O135 1.965 . S
Zn121 O137 2.024 1_565 S
C122 O123 1.229 . S
C122 O131 1.058 . S
O123 C122 1.229 . S
C124 O125 1.229 . S
C124 O137 1.058 . S
O125 C124 1.229 . S
O126 Zn120 1.969 . S
O126 C129 1.267 . S
O127 Zn120 1.965 . S
O127 C138 1.260 . S
O128 Zn121 1.969 1_544 S
O128 C138 1.258 . S
C129 O126 1.267 . S
C129 O130 1.228 . S
O130 C129 1.228 . S
O131 Zn120 2.024 1_565 S
O131 C122 1.058 . S
C132 O133 1.228 . S
C132 O134 1.267 . S
O133 C132 1.228 . S
O134 Zn121 1.969 . S
O134 C132 1.267 . S
O135 Zn121 1.965 . S
O135 C139 1.260 . S
O136 Zn120 1.969 1_566 S
O136 C139 1.258 . S
O137 Zn121 2.024 1_545 S
O137 C124 1.058 . S
C138 O127 1.260 . S
C138 O128 1.258 . S
C139 O135 1.260 . S
C139 O136 1.258 . S
Zn140 O146 1.969 . S
Zn140 O147 1.965 . S
Zn140 O151 2.024 . S
Zn140 O156 1.969 . S
Zn141 O148 1.969 . S
Zn141 O154 1.969 . S
Zn141 O155 1.965 . S
Zn141 O157 2.024 . S
C142 O143 1.229 . S
C142 O151 1.058 . S
O143 C142 1.229 . S
C144 O145 1.229 . S
C144 O157 1.058 . S
O145 C144 1.229 . S
O146 Zn140 1.969 . S
O146 C149 1.267 . S
O147 Zn140 1.965 . S
O147 C158 1.260 . S
O148 Zn141 1.969 . S
O148 C158 1.258 . S
C149 O146 1.267 . S
C149 O150 1.228 . S
O150 C149 1.228 . S
O151 Zn140 2.024 . S
O151 C142 1.058 . S
C152 O153 1.228 . S
C152 O154 1.267 . S
O153 C152 1.228 . S
O154 Zn141 1.969 . S
O154 C152 1.267 . S
O155 Zn141 1.965 . S
O155 C159 1.260 . S
O156 Zn140 1.969 . S
O156 C159 1.258 . S
O157 Zn141 2.024 . S
O157 C144 1.058 . S
C158 O147 1.260 . S
C158 O148 1.258 . S
C159 O155 1.260 . S
C159 O156 1.258 . S
Zn160 O166 1.969 . S
Zn160 O167 1.965 1_556 S
Zn160 O171 2.024 . S
Zn160 O176 1.969 . S
Zn161 O168 1.969 . S
Zn161 O174 1.969 . S
Zn161 O175 1.965 1_554 S
Zn161 O177 2.024 . S
C162 O163 1.229 . S
C162 O171 1.058 . S
O163 C162 1.229 . S
C164 O165 1.229 . S
C164 O177 1.058 . S
O165 C164 1.229 . S
O166 Zn160 1.969 . S
O166 C169 1.267 . S
O167 Zn160 1.965 1_554 S
O167 C178 1.260 . S
O168 Zn161 1.969 . S
O168 C178 1.258 . S
C169 O166 1.267 . S
C169 O170 1.228 . S
O170 C169 1.228 . S
O171 Zn160 2.024 . S
O171 C162 1.058 . S
C172 O173 1.228 . S
C172 O174 1.267 . S
O173 C172 1.228 . S
O174 Zn161 1.969 . S
O174 C172 1.267 . S
O175 Zn161 1.965 1_556 S
O175 C179 1.260 . S
O176 Zn160 1.969 . S
O176 C179 1.258 . S
O177 Zn161 2.024 . S
O177 C164 1.058 . S
C178 O167 1.260 . S
C178 O168 1.258 . S
C179 O175 1.260 . S
C179 O176 1.258 . S
Zn180 O186 1.969 . S
Zn180 O187 1.965 . S
Zn180 O191 2.024 . S
Zn180 O196 1.969 . S
Zn181 O188 1.969 . S
Zn181 O194 1.969 . S
Zn181 O195 1.965 . S
Zn181 O197 2.024 . S
C182 O183 1.229 . S
C182 O191 1.058 . S
O183 C182 1.229 . S
C184 O185 1.229 . S
C184 O197 1.058 . S
O185 C184 1.229 . S
O186 Zn180 1.969 . S
O186 C189 1.267 . S
O187 Zn180 1.965 . S
O187 C198 1.260 . S
O188 Zn181 1.969 . S
O188 C198 1.258 . S
C189 O186 1.267 . S
C189 O190 1.228 . S
O190 C189 1.228 . S
O191 Zn180 2.024 . S
O191 C182 1.058 . S
C192 O193 1.228 . S
C192 O194 1.267 . S
O193 C192 1.228 . S
O194 Zn181 1.969 . S
O194 C192 1.267 . S
O195 Zn181 1.965 . S
O195 C199 1.260 . S
O196 Zn180 1.969 . S
O196 C199 1.258 . S
O197 Zn181 2.024 . S
O197 C184 1.058 . S
C198 O187 1.260 . S
C198 O188 1.258 . S
C199 O195 1.260 . S
C199 O196 1.258 . S
Zn200 O206 1.969 . S
Zn200 O207 1.965 1_655 S
Zn200 O211 2.024 . S
Zn200 O216 1.969 . S
Zn201 O208 1.969 . S
Zn201 O214 1.969 . S
Zn201 O215 1.965 1_455 S
Zn201 O217 2.024 . S
C202 O203 1.229 . S
C202 O211 1.058 . S
O203 C202 1.229 . S
C204 O205 1.229 . S
C204 O217 1.058 . S
O205 C204 1.229 . S
O206 Zn200 1.969 . S
O206 C209 1.267 . S
O207 Zn200 1.965 1_455 S
O207 C218 1.260 . S
O208 Zn201 1.969 . S
O208 C218 1.258 . S
C209 O206 1.267 . S
C209 O210 1.228 . S
O210 C209 1.228 . S
O211 Zn200 2.024 . S
O211 C202 1.058 . S
C212 O213 1.228 . S
C212 O214 1.267 . S
O213 C212 1.228 . S
O214 Zn201 1.969 . S
O214 C212 1.267 . S
O215 Zn201 1.965 1_655 S
O215 C219 1.260 . S
O216 Zn200 1.969 . S
O216 C219 1.258 . S
O217 Zn201 2.024 . S
O217 C204 1.058 . S
C218 O207 1.260 . S
C218 O208 1.258 . S
C219 O215 1.260 . S
C219 O216 1.258 . S
Zn220 O226 1.969 . S
Zn220 O227 1.965 . S
Zn220 O231 2.024 . S
Zn220 O236 1.969 . S
Zn221 O228 1.969 . S
Zn221 O234 1.969 . S
Zn221 O235 1.965 . S
Zn221 O237 2.024 . S
C222 O223 1.229 . S
C222 O231 1.058 . S
O223 C222 1.229 . S
C224 O225 1.229 . S
C224 O237 1.058 . S
O225 C224 1.229 . S
O226 Zn220 1.969 . S
O226 C229 1.267 . S
O227 Zn220 1.965 . S
O227 C238 1.260 . S
O228 Zn221 1.969 . S
O228 C238 1.258 . S
C229 O226 1.267 . S
C229 O230 1.228 . S
O230 C229 1.228 . S
O231 Zn220 2.024 . S
O231 C222 1.058 . S
C232 O233 1.228 . S
C232 O234 1.267 . S
O233 C232 1.228 . S
O234 Zn221 1.969 . S
O234 C232 1.267 . S
O235 Zn221 1.965 . S
O235 C239 1.260 . S
O236 Zn220 1.969 . S
O236 C239 1.258 . S
O237 Zn221 2.024 . S
O237 C224 1.058 . S
C238 O227 1.260 . S
C238 O228 1.258 . S
C239 O235 1.260 . S
C239 O236 1.258 . S
Zn240 O246 1.969 . S
Zn240 O247 1.965 . S
Zn240 O251 2.024 . S
Zn240 O256 1.969 . S
Zn241 O248 1.969 . S
Zn241 O254 1.969 . S
Zn241 O255 1.965 . S
Zn241 O257 2.024 . S
C242 O243 1.229 . S
C242 O251 1.058 . S
O243 C242 1.229 . S
C244 O245 1.229 . S
C244 O257 1.058 . S
O245 C244 1.229 . S
O246 Zn240 1.969 . S
O246 C249 1.267 . S
O247 Zn240 1.965 . S
O247 C258 1.260 . S
O248 Zn241 1.969 . S
O248 C258 1.258 . S
C249 O246 1.267 . S
C249 O250 1.228 . S
O250 C249 1.228 . S
O251 Zn240 2.024 . S
O251 C242 1.058 . S
C252 O253 1.228 . S
C252 O254 1.267 . S
O253 C252 1.228 . S
O254 Zn241 1.969 . S
O254 C252 1.267 . S
O255 Zn241 1.965 . S
O255 C259 1.260 . S
O256 Zn240 1.969 . S
O256 C259 1.258 . S
O257 Zn241 2.024 . S
O257 C244 1.058 . S
C258 O247 1.260 . S
C258 O248 1.258 . S
C259 O255 1.260 . S
C259 O256 1.258 . S
Zn260 O266 1.969 . S
Zn260 O267 1.965 . S
Zn260 O271 2.024 . S
Zn260 O276 1.969 . S
Zn261 O268 1.969 . S
Zn261 O274 1.969 . S
Zn261 O275 1.965 . S
Zn261 O277 2.024 . S
C262 O263 1.229 . S
C262 O271 1.058 . S
O263 C262 1.229 . S
C264 O265 1.229 . S
C264 O277 1.058 . S
O265 C264 1.229 . S
O266 Zn260 1.969 . S
O266 C269 1.267 . S
O267 Zn260 1.965 . S
O267 C278 1.260 . S
O268 Zn261 1.969 . S
O268 C278 1.258 . S
C269 O266 1.267 . S
C269 O270 1.228 . S
O270 C269 1.228 . S
O271 Zn260 2.024 . S
O271 C262 1.058 . S
C272 O273 1.228 . S
C272 O274 1.267 . S
O273 C272 1.228 . S
O274 Zn261 1.969 . S
O274 C272 1.267 . S
O275 Zn261 1.965 . S
O275 C279 1.260 . S
O276 Zn260 1.969 . S
O276 C279 1.258 . S
O277 Zn261 2.024 . S
O277 C264 1.058 . S
C278 O267 1.260 . S
C278 O268 1.258 . S
C279 O275 1.260 . S
C279 O276 1.258 . S
Zn280 O286 1.969 . S
Zn280 O287 1.965 . S
Zn280 O291 2.024 . S
Zn280 O296 1.969 . S
Zn281 O288 1.969 . S
Zn281 O294 1.969 . S
Zn281 O295 1.965 . S
Zn281 O297 2.024 . S
C282 O283 1.229 . S
C282 O291 1.058 . S
O283 C282 1.229 . S
C284 O285 1.229 . S
C284 O297 1.058 . S
O285 C284 1.229 . S
O286 Zn280 1.969 . S
O286 C289 1.267 . S
O287 Zn280 1.965 . S
O287 C298 1.260 . S
O288 Zn281 1.969 . S
O288 C298 1.258 . S
C289 O286 1.267 . S
C289 O290 1.228 . S
O290 C289 1.228 . S
O291 Zn280 2.024 . S
O291 C282 1.058 . S
C292 O293 1.228 . S
C292 O294 1.267 . S
O293 C292 1.228 . S
O294 Zn281 1.969 . S
O294 C292 1.267 . S
O295 Zn281 1.965 . S
O295 C299 1.260 . S
O296 Zn280 1.969 . S
O296 C299 1.258 . S
O297 Zn281 2.024 . S
O297 C284 1.058 . S
C298 O287 1.260 . S
C298 O288 1.258 . S
C299 O295 1.260 . S
C299 O296 1.258 . S
Zn300 O306 1.969 . S
Zn300 O307 1.965 . S
Zn300 O311 2.024 1_554 S
Zn300 O316 1.969 1_454 S
Zn301 O308 1.969 1_656 S
Zn301 O314 1.969 . S
Zn301 O315 1.965 . S
Zn301 O317 2.024 1_556 S
C302 O303 1.229 . S
C302 O311 1.058 . S
O303 C302 1.229 . S
C304 O305 1.229 . S
C304 O317 1.058 . S
O305 C304 1.229 . S
O306 Zn300 1.969 . S
O306 C309 1.267 . S
O307 Zn300 1.965 . S
O307 C318 1.260 . S
O308 Zn301 1.969 1_454 S
O308 C318 1.258 . S
C309 O306 1.267 . S
C309 O310 1.228 . S
O310 C309 1.228 . S
O311 Zn300 2.024 1_556 S
O311 C302 1.058 . S
C312 O313 1.228 . S
C312 O314 1.267 . S
O313 C312 1.228 . S
O314 Zn301 1.969 . S
O314 C312 1.267 . S
O315 Zn301 1.965 . S
O315 C319 1.260 . S
O316 Zn300 1.969 1_656 S
O316 C319 1.258 . S
O317 Zn301 2.024 1_554 S
O317 C304 1.058 . S
C318 O307 1.260 . S
C318 O308 1.258 . S
C319 O315 1.260 . S
C319 O316 1.258 . S
H320 C326 0.930 . S
H321 C330 0.930 . S
H322 C335 0.929 . S
H323 C333 0.929 . S
H324 C328 0.929 . S
H325 C334 0.929 . S
C326 H320 0.930 . S
C326 C327 1.367 . S
C326 C334 1.378 . S
C327 C326 1.367 . S
C327 C335 1.433 . S
C328 H324 0.929 . S
C328 C330 1.378 . S
C328 C332 1.350 . S
C329 C332 1.463 . S
C329 C334 1.350 . S
C329 N337 1.427 . S
C330 H321 0.930 . S
C330 C328 1.378 . S
C330 C331 1.367 . S
C331 C330 1.367 . S
C331 C333 1.433 . S
C332 C328 1.350 . S
C332 C329 1.463 . S
C332 N336 1.427 . S
C333 H323 0.929 . S
C333 C331 1.433 . S
C333 N336 1.384 . S
C334 H325 0.929 . S
C334 C326 1.378 . S
C334 C329 1.350 . S
C335 H322 0.929 . S
C335 C327 1.433 . S
C335 N337 1.384 . S
N336 C332 1.427 . S
N336 C333 1.384 . S
N337 C329 1.427 . S
N337 C335 1.384 . S
H338 C344 0.930 . S
H339 C348 0.930 . S
H340 C353 0.929 . S
H341 C351 0.929 . S
H342 C346 0.929 . S
H343 C352 0.929 . S
C344 H338 0.930 . S
C344 C345 1.367 . S
C344 C352 1.378 . S
C345 C344 1.367 . S
C345 C353 1.433 . S
C346 H342 0.929 . S
C346 C348 1.378 . S
C346 C350 1.350 . S
C347 C350 1.463 . S
C347 C352 1.350 . S
C347 N355 1.427 . S
C348 H339 0.930 . S
C348 C346 1.378 . S
C348 C349 1.367 . S
C349 C348 1.367 . S
C349 C351 1.433 . S
C350 C346 1.350 . S
C350 C347 1.463 . S
C350 N354 1.427 . S
C351 H341 0.929 . S
C351 C349 1.433 . S
C351 N354 1.384 . S
C352 H343 0.929 . S
C352 C344 1.378 . S
C352 C347 1.350 . S
C353 H340 0.929 . S
C353 C345 1.433 . S
C353 N355 1.384 . S
N354 C350 1.427 . S
N354 C351 1.384 . S
N355 C347 1.427 . S
N355 C353 1.384 . S
H356 C362 0.930 . S
H357 C366 0.930 . S
H358 C371 0.929 . S
H359 C369 0.929 . S
H360 C364 0.929 . S
H361 C370 0.929 . S
C362 H356 0.930 . S
C362 C363 1.367 . S
C362 C370 1.378 . S
C363 C362 1.367 . S
C363 C371 1.433 . S
C364 H360 0.929 . S
C364 C366 1.378 . S
C364 C368 1.350 . S
C365 C368 1.463 . S
C365 C370 1.350 . S
C365 N373 1.427 . S
C366 H357 0.930 . S
C366 C364 1.378 . S
C366 C367 1.367 . S
C367 C366 1.367 . S
C367 C369 1.433 . S
C368 C364 1.350 . S
C368 C365 1.463 . S
C368 N372 1.427 . S
C369 H359 0.929 . S
C369 C367 1.433 . S
C369 N372 1.384 . S
C370 H361 0.929 . S
C370 C362 1.378 . S
C370 C365 1.350 . S
C371 H358 0.929 . S
C371 C363 1.433 . S
C371 N373 1.384 . S
N372 C368 1.427 . S
N372 C369 1.384 . S
N373 C365 1.427 . S
N373 C371 1.384 . S
H374 C380 0.930 . S
H375 C384 0.930 . S
H376 C389 0.929 . S
H377 C387 0.929 . S
H378 C382 0.929 . S
H379 C388 0.929 . S
C380 H374 0.930 . S
C380 C381 1.367 . S
C380 C388 1.378 . S
C381 C380 1.367 . S
C381 C389 1.433 . S
C382 H378 0.929 . S
C382 C384 1.378 . S
C382 C386 1.350 . S
C383 C386 1.463 . S
C383 C388 1.350 . S
C383 N391 1.427 . S
C384 H375 0.930 . S
C384 C382 1.378 . S
C384 C385 1.367 . S
C385 C384 1.367 . S
C385 C387 1.433 . S
C386 C382 1.350 . S
C386 C383 1.463 . S
C386 N390 1.427 . S
C387 H377 0.929 . S
C387 C385 1.433 . S
C387 N390 1.384 . S
C388 H379 0.929 . S
C388 C380 1.378 . S
C388 C383 1.350 . S
C389 H376 0.929 . S
C389 C381 1.433 . S
C389 N391 1.384 . S
N390 C386 1.427 . S
N390 C387 1.384 . S
N391 C383 1.427 . S
N391 C389 1.384 . S
H392 C398 0.930 . S
H393 C402 0.930 . S
H394 C407 0.929 . S
H395 C405 0.929 . S
H396 C400 0.929 . S
H397 C406 0.929 . S
C398 H392 0.930 . S
C398 C399 1.367 . S
C398 C406 1.378 . S
C399 C398 1.367 . S
C399 C407 1.433 . S
C400 H396 0.929 . S
C400 C402 1.378 . S
C400 C404 1.350 . S
C401 C404 1.463 . S
C401 C406 1.350 . S
C401 N409 1.427 . S
C402 H393 0.930 . S
C402 C400 1.378 . S
C402 C403 1.367 . S
C403 C402 1.367 . S
C403 C405 1.433 . S
C404 C400 1.350 . S
C404 C401 1.463 . S
C404 N408 1.427 . S
C405 H395 0.929 . S
C405 C403 1.433 . S
C405 N408 1.384 . S
C406 H397 0.929 . S
C406 C398 1.378 . S
C406 C401 1.350 . S
C407 H394 0.929 . S
C407 C399 1.433 . S
C407 N409 1.384 . S
N408 C404 1.427 . S
N408 C405 1.384 . S
N409 C401 1.427 . S
N409 C407 1.384 . S
H410 C416 0.930 . S
H411 C420 0.930 . S
H412 C425 0.929 . S
H413 C423 0.929 . S
H414 C418 0.929 . S
H415 C424 0.929 . S
C416 H410 0.930 . S
C416 C417 1.367 . S
C416 C424 1.378 . S
C417 C416 1.367 . S
C417 C425 1.433 . S
C418 H414 0.929 . S
C418 C420 1.378 . S
C418 C422 1.350 . S
C419 C422 1.463 . S
C419 C424 1.350 . S
C419 N427 1.427 . S
C420 H411 0.930 . S
C420 C418 1.378 . S
C420 C421 1.367 . S
C421 C420 1.367 . S
C421 C423 1.433 . S
C422 C418 1.350 . S
C422 C419 1.463 . S
C422 N426 1.427 . S
C423 H413 0.929 . S
C423 C421 1.433 . S
C423 N426 1.384 . S
C424 H415 0.929 . S
C424 C416 1.378 . S
C424 C419 1.350 . S
C425 H412 0.929 . S
C425 C417 1.433 . S
C425 N427 1.384 . S
N426 C422 1.427 . S
N426 C423 1.384 . S
N427 C419 1.427 . S
N427 C425 1.384 . S
H428 C434 0.930 . S
H429 C438 0.930 . S
H430 C443 0.929 . S
H431 C441 0.929 . S
H432 C436 0.929 . S
H433 C442 0.929 . S
C434 H428 0.930 . S
C434 C435 1.367 . S
C434 C442 1.378 . S
C435 C434 1.367 . S
C435 C443 1.433 . S
C436 H432 0.929 . S
C436 C438 1.378 . S
C436 C440 1.350 . S
C437 C440 1.463 . S
C437 C442 1.350 . S
C437 N445 1.427 . S
C438 H429 0.930 . S
C438 C436 1.378 . S
C438 C439 1.367 . S
C439 C438 1.367 . S
C439 C441 1.433 . S
C440 C436 1.350 . S
C440 C437 1.463 . S
C440 N444 1.427 . S
C441 H431 0.929 . S
C441 C439 1.433 . S
C441 N444 1.384 . S
C442 H433 0.929 . S
C442 C434 1.378 . S
C442 C437 1.350 . S
C443 H430 0.929 . S
C443 C435 1.433 . S
C443 N445 1.384 . S
N444 C440 1.427 . S
N444 C441 1.384 . S
N445 C437 1.427 . S
N445 C443 1.384 . S
H446 C452 0.930 . S
H447 C456 0.930 . S
H448 C461 0.929 . S
H449 C459 0.929 . S
H450 C454 0.929 . S
H451 C460 0.929 . S
C452 H446 0.930 . S
C452 C453 1.367 . S
C452 C460 1.378 . S
C453 C452 1.367 . S
C453 C461 1.433 . S
C454 H450 0.929 . S
C454 C456 1.378 . S
C454 C458 1.350 . S
C455 C458 1.463 . S
C455 C460 1.350 . S
C455 N463 1.427 . S
C456 H447 0.930 . S
C456 C454 1.378 . S
C456 C457 1.367 . S
C457 C456 1.367 . S
C457 C459 1.433 . S
C458 C454 1.350 . S
C458 C455 1.463 . S
C458 N462 1.427 . S
C459 H449 0.929 . S
C459 C457 1.433 . S
C459 N462 1.384 . S
C460 H451 0.929 . S
C460 C452 1.378 . S
C460 C455 1.350 . S
C461 H448 0.929 . S
C461 C453 1.433 . S
C461 N463 1.384 . S
N462 C458 1.427 . S
N462 C459 1.384 . S
N463 C455 1.427 . S
N463 C461 1.384 . S
H464 C470 0.930 . S
H465 C474 0.930 . S
H466 C479 0.929 . S
H467 C477 0.929 . S
H468 C472 0.929 . S
H469 C478 0.929 . S
C470 H464 0.930 . S
C470 C471 1.367 . S
C470 C478 1.378 . S
C471 C470 1.367 . S
C471 C479 1.433 . S
C472 H468 0.929 . S
C472 C474 1.378 . S
C472 C476 1.350 . S
C473 C476 1.463 . S
C473 C478 1.350 . S
C473 N481 1.427 . S
C474 H465 0.930 . S
C474 C472 1.378 . S
C474 C475 1.367 . S
C475 C474 1.367 . S
C475 C477 1.433 . S
C476 C472 1.350 . S
C476 C473 1.463 . S
C476 N480 1.427 . S
C477 H467 0.929 . S
C477 C475 1.433 . S
C477 N480 1.384 . S
C478 H469 0.929 . S
C478 C470 1.378 . S
C478 C473 1.350 . S
C479 H466 0.929 . S
C479 C471 1.433 . S
C479 N481 1.384 . S
N480 C476 1.427 . S
N480 C477 1.384 . S
N481 C473 1.427 . S
N481 C479 1.384 . S
H482 C488 0.930 . S
H483 C492 0.930 . S
H484 C497 0.929 . S
H485 C495 0.929 . S
H486 C490 0.929 . S
H487 C496 0.929 . S
C488 H482 0.930 . S
C488 C489 1.367 . S
C488 C496 1.378 . S
C489 C488 1.367 . S
C489 C497 1.433 . S
C490 H486 0.929 . S
C490 C492 1.378 . S
C490 C494 1.350 . S
C491 C494 1.463 . S
C491 C496 1.350 . S
C491 N499 1.427 . S
C492 H483 0.930 . S
C492 C490 1.378 . S
C492 C493 1.367 . S
C493 C492 1.367 . S
C493 C495 1.433 . S
C494 C490 1.350 . S
C494 C491 1.463 . S
C494 N498 1.427 . S
C495 H485 0.929 . S
C495 C493 1.433 . S
C495 N498 1.384 . S
C496 H487 0.929 . S
C496 C488 1.378 . S
C496 C491 1.350 . S
C497 H484 0.929 . S
C497 C489 1.433 . S
C497 N499 1.384 . S
N498 C494 1.427 . S
N498 C495 1.384 . S
N499 C491 1.427 . S
N499 C497 1.384 . S
H500 C506 0.930 . S
H501 C510 0.930 . S
H502 C515 0.929 . S
H503 C513 0.929 . S
H504 C508 0.929 . S
H505 C514 0.929 . S
C506 H500 0.930 . S
C506 C507 1.367 . S
C506 C514 1.378 . S
C507 C506 1.367 . S
C507 C515 1.433 . S
C508 H504 0.929 . S
C508 C510 1.378 . S
C508 C512 1.350 . S
C509 C512 1.463 . S
C509 C514 1.350 . S
C509 N517 1.427 . S
C510 H501 0.930 . S
C510 C508 1.378 . S
C510 C511 1.367 . S
C511 C510 1.367 . S
C511 C513 1.433 . S
C512 C508 1.350 . S
C512 C509 1.463 . S
C512 N516 1.427 . S
C513 H503 0.929 . S
C513 C511 1.433 . S
C513 N516 1.384 . S
C514 H505 0.929 . S
C514 C506 1.378 . S
C514 C509 1.350 . S
C515 H502 0.929 . S
C515 C507 1.433 . S
C515 N517 1.384 . S
N516 C512 1.427 . S
N516 C513 1.384 . S
N517 C509 1.427 . S
N517 C515 1.384 . S
H518 C524 0.930 . S
H519 C528 0.930 . S
H520 C533 0.929 . S
H521 C531 0.929 . S
H522 C526 0.929 . S
H523 C532 0.929 . S
C524 H518 0.930 . S
C524 C525 1.367 . S
C524 C532 1.378 . S
C525 C524 1.367 . S
C525 C533 1.433 . S
C526 H522 0.929 . S
C526 C528 1.378 . S
C526 C530 1.350 . S
C527 C530 1.463 . S
C527 C532 1.350 . S
C527 N535 1.427 . S
C528 H519 0.930 . S
C528 C526 1.378 . S
C528 C529 1.367 . S
C529 C528 1.367 . S
C529 C531 1.433 . S
C530 C526 1.350 . S
C530 C527 1.463 . S
C530 N534 1.427 . S
C531 H521 0.929 . S
C531 C529 1.433 . S
C531 N534 1.384 . S
C532 H523 0.929 . S
C532 C524 1.378 . S
C532 C527 1.350 . S
C533 H520 0.929 . S
C533 C525 1.433 . S
C533 N535 1.384 . S
N534 C530 1.427 . S
N534 C531 1.384 . S
N535 C527 1.427 . S
N535 C533 1.384 . S
H536 C542 0.930 . S
H537 C546 0.930 . S
H538 C551 0.929 . S
H539 C549 0.929 . S
H540 C544 0.929 . S
H541 C550 0.929 . S
C542 H536 0.930 . S
C542 C543 1.367 . S
C542 C550 1.378 . S
C543 C542 1.367 . S
C543 C551 1.433 . S
C544 H540 0.929 . S
C544 C546 1.378 . S
C544 C548 1.350 . S
C545 C548 1.463 . S
C545 C550 1.350 . S
C545 N553 1.427 . S
C546 H537 0.930 . S
C546 C544 1.378 . S
C546 C547 1.367 . S
C547 C546 1.367 . S
C547 C549 1.433 . S
C548 C544 1.350 . S
C548 C545 1.463 . S
C548 N552 1.427 . S
C549 H539 0.929 . S
C549 C547 1.433 . S
C549 N552 1.384 . S
C550 H541 0.929 . S
C550 C542 1.378 . S
C550 C545 1.350 . S
C551 H538 0.929 . S
C551 C543 1.433 . S
C551 N553 1.384 . S
N552 C548 1.427 . S
N552 C549 1.384 . S
N553 C545 1.427 . S
N553 C551 1.384 . S
H554 C560 0.930 . S
H555 C564 0.930 . S
H556 C569 0.929 . S
H557 C567 0.929 . S
H558 C562 0.929 . S
H559 C568 0.929 . S
C560 H554 0.930 . S
C560 C561 1.367 . S
C560 C568 1.378 . S
C561 C560 1.367 . S
C561 C569 1.433 . S
C562 H558 0.929 . S
C562 C564 1.378 . S
C562 C566 1.350 . S
C563 C566 1.463 . S
C563 C568 1.350 . S
C563 N571 1.427 . S
C564 H555 0.930 . S
C564 C562 1.378 . S
C564 C565 1.367 . S
C565 C564 1.367 . S
C565 C567 1.433 . S
C566 C562 1.350 . S
C566 C563 1.463 . S
C566 N570 1.427 . S
C567 H557 0.929 . S
C567 C565 1.433 . S
C567 N570 1.384 . S
C568 H559 0.929 . S
C568 C560 1.378 . S
C568 C563 1.350 . S
C569 H556 0.929 . S
C569 C561 1.433 . S
C569 N571 1.384 . S
N570 C566 1.427 . S
N570 C567 1.384 . S
N571 C563 1.427 . S
N571 C569 1.384 . S
H572 C578 0.930 . S
H573 C582 0.930 . S
H574 C587 0.929 . S
H575 C585 0.929 . S
H576 C580 0.929 . S
H577 C586 0.929 . S
C578 H572 0.930 . S
C578 C579 1.367 . S
C578 C586 1.378 . S
C579 C578 1.367 . S
C579 C587 1.433 . S
C580 H576 0.929 . S
C580 C582 1.378 . S
C580 C584 1.350 . S
C581 C584 1.463 . S
C581 C586 1.350 . S
C581 N589 1.427 . S
C582 H573 0.930 . S
C582 C580 1.378 . S
C582 C583 1.367 . S
C583 C582 1.367 . S
C583 C585 1.433 . S
C584 C580 1.350 . S
C584 C581 1.463 . S
C584 N588 1.427 . S
C585 H575 0.929 . S
C585 C583 1.433 . S
C585 N588 1.384 . S
C586 H577 0.929 . S
C586 C578 1.378 . S
C586 C581 1.350 . S
C587 H574 0.929 . S
C587 C579 1.433 . S
C587 N589 1.384 . S
N588 C584 1.427 . S
N588 C585 1.384 . S
N589 C581 1.427 . S
N589 C587 1.384 . S
H590 C596 0.930 . S
H591 C600 0.930 . S
H592 C605 0.929 . S
H593 C603 0.929 . S
H594 C598 0.929 . S
H595 C604 0.929 . S
C596 H590 0.930 . S
C596 C597 1.367 . S
C596 C604 1.378 . S
C597 C596 1.367 . S
C597 C605 1.433 . S
C598 H594 0.929 . S
C598 C600 1.378 . S
C598 C602 1.350 . S
C599 C602 1.463 . S
C599 C604 1.350 . S
C599 N607 1.427 . S
C600 H591 0.930 . S
C600 C598 1.378 . S
C600 C601 1.367 . S
C601 C600 1.367 . S
C601 C603 1.433 . S
C602 C598 1.350 . S
C602 C599 1.463 . S
C602 N606 1.427 . S
C603 H593 0.929 . S
C603 C601 1.433 . S
C603 N606 1.384 . S
C604 H595 0.929 . S
C604 C596 1.378 . S
C604 C599 1.350 . S
C605 H592 0.929 . S
C605 C597 1.433 . S
C605 N607 1.384 . S
N606 C602 1.427 . S
N606 C603 1.384 . S
N607 C599 1.427 . S
N607 C605 1.384 . S
H608 C614 0.930 . S
H609 C618 0.930 . S
H610 C623 0.929 . S
H611 C621 0.929 . S
H612 C616 0.929 . S
H613 C622 0.929 . S
C614 H608 0.930 . S
C614 C615 1.367 . S
C614 C622 1.378 . S
C615 C614 1.367 . S
C615 C623 1.433 . S
C616 H612 0.929 . S
C616 C618 1.378 . S
C616 C620 1.350 . S
C617 C620 1.463 . S
C617 C622 1.350 . S
C617 N625 1.427 . S
C618 H609 0.930 . S
C618 C616 1.378 . S
C618 C619 1.367 . S
C619 C618 1.367 . S
C619 C621 1.433 . S
C620 C616 1.350 . S
C620 C617 1.463 . S
C620 N624 1.427 . S
C621 H611 0.929 . S
C621 C619 1.433 . S
C621 N624 1.384 . S
C622 H613 0.929 . S
C622 C614 1.378 . S
C622 C617 1.350 . S
C623 H610 0.929 . S
C623 C615 1.433 . S
C623 N625 1.384 . S
N624 C620 1.427 . S
N624 C621 1.384 . S
N625 C617 1.427 . S
N625 C623 1.384 . S
H626 C632 0.930 . S
H627 C636 0.930 . S
H628 C641 0.929 . S
H629 C639 0.929 . S
H630 C634 0.929 . S
H631 C640 0.929 . S
C632 H626 0.930 . S
C632 C633 1.367 . S
C632 C640 1.378 . S
C633 C632 1.367 . S
C633 C641 1.433 . S
C634 H630 0.929 . S
C634 C636 1.378 . S
C634 C638 1.350 . S
C635 C638 1.463 . S
C635 C640 1.350 . S
C635 N643 1.427 . S
C636 H627 0.930 . S
C636 C634 1.378 . S
C636 C637 1.367 . S
C637 C636 1.367 . S
C637 C639 1.433 . S
C638 C634 1.350 . S
C638 C635 1.463 . S
C638 N642 1.427 . S
C639 H629 0.929 . S
C639 C637 1.433 . S
C639 N642 1.384 . S
C640 H631 0.929 . S
C640 C632 1.378 . S
C640 C635 1.350 . S
C641 H628 0.929 . S
C641 C633 1.433 . S
C641 N643 1.384 . S
N642 C638 1.427 . S
N642 C639 1.384 . S
N643 C635 1.427 . S
N643 C641 1.384 . S
H644 C650 0.930 . S
H645 C654 0.930 . S
H646 C659 0.929 . S
H647 C657 0.929 . S
H648 C652 0.929 . S
H649 C658 0.929 . S
C650 H644 0.930 . S
C650 C651 1.367 . S
C650 C658 1.378 . S
C651 C650 1.367 . S
C651 C659 1.433 . S
C652 H648 0.929 . S
C652 C654 1.378 . S
C652 C656 1.350 . S
C653 C656 1.463 . S
C653 C658 1.350 . S
C653 N661 1.427 . S
C654 H645 0.930 . S
C654 C652 1.378 . S
C654 C655 1.367 . S
C655 C654 1.367 . S
C655 C657 1.433 . S
C656 C652 1.350 . S
C656 C653 1.463 . S
C656 N660 1.427 . S
C657 H647 0.929 . S
C657 C655 1.433 . S
C657 N660 1.384 . S
C658 H649 0.929 . S
C658 C650 1.378 . S
C658 C653 1.350 . S
C659 H646 0.929 . S
C659 C651 1.433 . S
C659 N661 1.384 . S
N660 C656 1.427 . S
N660 C657 1.384 . S
N661 C653 1.427 . S
N661 C659 1.384 . S
H662 C668 0.930 . S
H663 C672 0.930 . S
H664 C677 0.929 . S
H665 C675 0.929 . S
H666 C670 0.929 . S
H667 C676 0.929 . S
C668 H662 0.930 . S
C668 C669 1.367 . S
C668 C676 1.378 . S
C669 C668 1.367 . S
C669 C677 1.433 . S
C670 H666 0.929 . S
C670 C672 1.378 . S
C670 C674 1.350 . S
C671 C674 1.463 . S
C671 C676 1.350 . S
C671 N679 1.427 . S
C672 H663 0.930 . S
C672 C670 1.378 . S
C672 C673 1.367 . S
C673 C672 1.367 . S
C673 C675 1.433 . S
C674 C670 1.350 . S
C674 C671 1.463 . S
C674 N678 1.427 . S
C675 H665 0.929 . S
C675 C673 1.433 . S
C675 N678 1.384 . S
C676 H667 0.929 . S
C676 C668 1.378 . S
C676 C671 1.350 . S
C677 H664 0.929 . S
C677 C669 1.433 . S
C677 N679 1.384 . S
N678 C674 1.427 . S
N678 C675 1.384 . S
N679 C671 1.427 . S
N679 C677 1.384 . S
H680 C686 0.930 . S
H681 C690 0.930 . S
H682 C695 0.929 . S
H683 C693 0.929 . S
H684 C688 0.929 . S
H685 C694 0.929 . S
C686 H680 0.930 . S
C686 C687 1.367 . S
C686 C694 1.378 . S
C687 C686 1.367 . S
C687 C695 1.433 . S
C688 H684 0.929 . S
C688 C690 1.378 . S
C688 C692 1.350 . S
C689 C692 1.463 . S
C689 C694 1.350 . S
C689 N697 1.427 . S
C690 H681 0.930 . S
C690 C688 1.378 . S
C690 C691 1.367 . S
C691 C690 1.367 . S
C691 C693 1.433 . S
C692 C688 1.350 . S
C692 C689 1.463 . S
C692 N696 1.427 . S
C693 H683 0.929 . S
C693 C691 1.433 . S
C693 N696 1.384 . S
C694 H685 0.929 . S
C694 C686 1.378 . S
C694 C689 1.350 . S
C695 H682 0.929 . S
C695 C687 1.433 . S
C695 N697 1.384 . S
N696 C692 1.427 . S
N696 C693 1.384 . S
N697 C689 1.427 . S
N697 C695 1.384 . S
H698 C704 0.930 . S
H699 C708 0.930 . S
H700 C713 0.929 . S
H701 C711 0.929 . S
H702 C706 0.929 . S
H703 C712 0.929 . S
C704 H698 0.930 . S
C704 C705 1.367 . S
C704 C712 1.378 . S
C705 C704 1.367 . S
C705 C713 1.433 . S
C706 H702 0.929 . S
C706 C708 1.378 . S
C706 C710 1.350 . S
C707 C710 1.463 . S
C707 C712 1.350 . S
C707 N715 1.427 . S
C708 H699 0.930 . S
C708 C706 1.378 . S
C708 C709 1.367 . S
C709 C708 1.367 . S
C709 C711 1.433 . S
C710 C706 1.350 . S
C710 C707 1.463 . S
C710 N714 1.427 . S
C711 H701 0.929 . S
C711 C709 1.433 . S
C711 N714 1.384 . S
C712 H703 0.929 . S
C712 C704 1.378 . S
C712 C707 1.350 . S
C713 H700 0.929 . S
C713 C705 1.433 . S
C713 N715 1.384 . S
N714 C710 1.427 . S
N714 C711 1.384 . S
N715 C707 1.427 . S
N715 C713 1.384 . S
H716 C722 0.930 . S
H717 C726 0.930 . S
H718 C731 0.929 . S
H719 C729 0.929 . S
H720 C724 0.929 . S
H721 C730 0.929 . S
C722 H716 0.930 . S
C722 C723 1.367 . S
C722 C730 1.378 . S
C723 C722 1.367 . S
C723 C731 1.433 . S
C724 H720 0.929 . S
C724 C726 1.378 . S
C724 C728 1.350 . S
C725 C728 1.463 . S
C725 C730 1.350 . S
C725 N733 1.427 . S
C726 H717 0.930 . S
C726 C724 1.378 . S
C726 C727 1.367 . S
C727 C726 1.367 . S
C727 C729 1.433 . S
C728 C724 1.350 . S
C728 C725 1.463 . S
C728 N732 1.427 . S
C729 H719 0.929 . S
C729 C727 1.433 . S
C729 N732 1.384 . S
C730 H721 0.929 . S
C730 C722 1.378 . S
C730 C725 1.350 . S
C731 H718 0.929 . S
C731 C723 1.433 . S
C731 N733 1.384 . S
N732 C728 1.427 . S
N732 C729 1.384 . S
N733 C725 1.427 . S
N733 C731 1.384 . S
H734 C740 0.930 . S
H735 C744 0.930 . S
H736 C749 0.929 . S
H737 C747 0.929 . S
H738 C742 0.929 . S
H739 C748 0.929 . S
C740 H734 0.930 . S
C740 C741 1.367 . S
C740 C748 1.378 . S
C741 C740 1.367 . S
C741 C749 1.433 . S
C742 H738 0.929 . S
C742 C744 1.378 . S
C742 C746 1.350 . S
C743 C746 1.463 . S
C743 C748 1.350 . S
C743 N751 1.427 . S
C744 H735 0.930 . S
C744 C742 1.378 . S
C744 C745 1.367 . S
C745 C744 1.367 . S
C745 C747 1.433 . S
C746 C742 1.350 . S
C746 C743 1.463 . S
C746 N750 1.427 . S
C747 H737 0.929 . S
C747 C745 1.433 . S
C747 N750 1.384 . S
C748 H739 0.929 . S
C748 C740 1.378 . S
C748 C743 1.350 . S
C749 H736 0.929 . S
C749 C741 1.433 . S
C749 N751 1.384 . S
N750 C746 1.427 . S
N750 C747 1.384 . S
N751 C743 1.427 . S
N751 C749 1.384 . S
H752 C758 0.930 . S
H753 C762 0.930 . S
H754 C767 0.929 . S
H755 C765 0.929 . S
H756 C760 0.929 . S
H757 C766 0.929 . S
C758 H752 0.930 . S
C758 C759 1.367 . S
C758 C766 1.378 . S
C759 C758 1.367 . S
C759 C767 1.433 . S
C760 H756 0.929 . S
C760 C762 1.378 . S
C760 C764 1.350 . S
C761 C764 1.463 . S
C761 C766 1.350 . S
C761 N769 1.427 . S
C762 H753 0.930 . S
C762 C760 1.378 . S
C762 C763 1.367 . S
C763 C762 1.367 . S
C763 C765 1.433 . S
C764 C760 1.350 . S
C764 C761 1.463 . S
C764 N768 1.427 . S
C765 H755 0.929 . S
C765 C763 1.433 . S
C765 N768 1.384 . S
C766 H757 0.929 . S
C766 C758 1.378 . S
C766 C761 1.350 . S
C767 H754 0.929 . S
C767 C759 1.433 . S
C767 N769 1.384 . S
N768 C764 1.427 . S
N768 C765 1.384 . S
N769 C761 1.427 . S
N769 C767 1.384 . S
H770 C776 0.930 . S
H771 C780 0.930 . S
H772 C785 0.929 . S
H773 C783 0.929 . S
H774 C778 0.929 . S
H775 C784 0.929 . S
C776 H770 0.930 . S
C776 C777 1.367 . S
C776 C784 1.378 . S
C777 C776 1.367 . S
C777 C785 1.433 . S
C778 H774 0.929 . S
C778 C780 1.378 . S
C778 C782 1.350 . S
C779 C782 1.463 . S
C779 C784 1.350 . S
C779 N787 1.427 . S
C780 H771 0.930 . S
C780 C778 1.378 . S
C780 C781 1.367 . S
C781 C780 1.367 . S
C781 C783 1.433 . S
C782 C778 1.350 . S
C782 C779 1.463 . S
C782 N786 1.427 . S
C783 H773 0.929 . S
C783 C781 1.433 . S
C783 N786 1.384 . S
C784 H775 0.929 . S
C784 C776 1.378 . S
C784 C779 1.350 . S
C785 H772 0.929 . S
C785 C777 1.433 . S
C785 N787 1.384 . S
N786 C782 1.427 . S
N786 C783 1.384 . S
N787 C779 1.427 . S
N787 C785 1.384 . S
H788 C794 0.930 . S
H789 C798 0.930 . S
H790 C803 0.929 . S
H791 C801 0.929 . S
H792 C796 0.929 . S
H793 C802 0.929 . S
C794 H788 0.930 . S
C794 C795 1.367 . S
C794 C802 1.378 . S
C795 C794 1.367 . S
C795 C803 1.433 . S
C796 H792 0.929 . S
C796 C798 1.378 . S
C796 C800 1.350 . S
C797 C800 1.463 . S
C797 C802 1.350 . S
C797 N805 1.427 . S
C798 H789 0.930 . S
C798 C796 1.378 . S
C798 C799 1.367 . S
C799 C798 1.367 . S
C799 C801 1.433 . S
C800 C796 1.350 . S
C800 C797 1.463 . S
C800 N804 1.427 . S
C801 H791 0.929 . S
C801 C799 1.433 . S
C801 N804 1.384 . S
C802 H793 0.929 . S
C802 C794 1.378 . S
C802 C797 1.350 . S
C803 H790 0.929 . S
C803 C795 1.433 . S
C803 N805 1.384 . S
N804 C800 1.427 . S
N804 C801 1.384 . S
N805 C797 1.427 . S
N805 C803 1.384 . S
H806 C812 0.930 . S
H807 C816 0.930 . S
H808 C821 0.929 . S
H809 C819 0.929 . S
H810 C814 0.929 . S
H811 C820 0.929 . S
C812 H806 0.930 . S
C812 C813 1.367 . S
C812 C820 1.378 . S
C813 C812 1.367 . S
C813 C821 1.433 . S
C814 H810 0.929 . S
C814 C816 1.378 . S
C814 C818 1.350 . S
C815 C818 1.463 . S
C815 C820 1.350 . S
C815 N823 1.427 . S
C816 H807 0.930 . S
C816 C814 1.378 . S
C816 C817 1.367 . S
C817 C816 1.367 . S
C817 C819 1.433 . S
C818 C814 1.350 . S
C818 C815 1.463 . S
C818 N822 1.427 . S
C819 H809 0.929 . S
C819 C817 1.433 . S
C819 N822 1.384 . S
C820 H811 0.929 . S
C820 C812 1.378 . S
C820 C815 1.350 . S
C821 H808 0.929 . S
C821 C813 1.433 . S
C821 N823 1.384 . S
N822 C818 1.427 . S
N822 C819 1.384 . S
N823 C815 1.427 . S
N823 C821 1.384 . S
H824 C830 0.930 . S
H825 C834 0.930 . S
H826 C839 0.929 . S
H827 C837 0.929 . S
H828 C832 0.929 . S
H829 C838 0.929 . S
C830 H824 0.930 . S
C830 C831 1.367 . S
C830 C838 1.378 . S
C831 C830 1.367 . S
C831 C839 1.433 . S
C832 H828 0.929 . S
C832 C834 1.378 . S
C832 C836 1.350 . S
C833 C836 1.463 . S
C833 C838 1.350 . S
C833 N841 1.427 . S
C834 H825 0.930 . S
C834 C832 1.378 . S
C834 C835 1.367 . S
C835 C834 1.367 . S
C835 C837 1.433 . S
C836 C832 1.350 . S
C836 C833 1.463 . S
C836 N840 1.427 . S
C837 H827 0.929 . S
C837 C835 1.433 . S
C837 N840 1.384 . S
C838 H829 0.929 . S
C838 C830 1.378 . S
C838 C833 1.350 . S
C839 H826 0.929 . S
C839 C831 1.433 . S
C839 N841 1.384 . S
N840 C836 1.427 . S
N840 C837 1.384 . S
N841 C833 1.427 . S
N841 C839 1.384 . S
H842 C848 0.930 . S
H843 C852 0.930 . S
H844 C857 0.929 . S
H845 C855 0.929 . S
H846 C850 0.929 . S
H847 C856 0.929 . S
C848 H842 0.930 . S
C848 C849 1.367 . S
C848 C856 1.378 . S
C849 C848 1.367 . S
C849 C857 1.433 . S
C850 H846 0.929 . S
C850 C852 1.378 . S
C850 C854 1.350 . S
C851 C854 1.463 . S
C851 C856 1.350 . S
C851 N859 1.427 . S
C852 H843 0.930 . S
C852 C850 1.378 . S
C852 C853 1.367 . S
C853 C852 1.367 . S
C853 C855 1.433 . S
C854 C850 1.350 . S
C854 C851 1.463 . S
C854 N858 1.427 . S
C855 H845 0.929 . S
C855 C853 1.433 . S
C855 N858 1.384 . S
C856 H847 0.929 . S
C856 C848 1.378 . S
C856 C851 1.350 . S
C857 H844 0.929 . S
C857 C849 1.433 . S
C857 N859 1.384 . S
N858 C854 1.427 . S
N858 C855 1.384 . S
N859 C851 1.427 . S
N859 C857 1.384 . S
H860 C866 0.930 . S
H861 C870 0.930 . S
H862 C875 0.929 . S
H863 C873 0.929 . S
H864 C868 0.929 . S
H865 C874 0.929 . S
C866 H860 0.930 . S
C866 C867 1.367 . S
C866 C874 1.378 . S
C867 C866 1.367 . S
C867 C875 1.433 . S
C868 H864 0.929 . S
C868 C870 1.378 . S
C868 C872 1.350 . S
C869 C872 1.463 . S
C869 C874 1.350 . S
C869 N877 1.427 . S
C870 H861 0.930 . S
C870 C868 1.378 . S
C870 C871 1.367 . S
C871 C870 1.367 . S
C871 C873 1.433 . S
C872 C868 1.350 . S
C872 C869 1.463 . S
C872 N876 1.427 . S
C873 H863 0.929 . S
C873 C871 1.433 . S
C873 N876 1.384 . S
C874 H865 0.929 . S
C874 C866 1.378 . S
C874 C869 1.350 . S
C875 H862 0.929 . S
C875 C867 1.433 . S
C875 N877 1.384 . S
N876 C872 1.427 . S
N876 C873 1.384 . S
N877 C869 1.427 . S
N877 C875 1.384 . S
H878 C884 0.930 . S
H879 C888 0.930 . S
H880 C893 0.929 . S
H881 C891 0.929 . S
H882 C886 0.929 . S
H883 C892 0.929 . S
C884 H878 0.930 . S
C884 C885 1.367 . S
C884 C892 1.378 . S
C885 C884 1.367 . S
C885 C893 1.433 . S
C886 H882 0.929 . S
C886 C888 1.378 . S
C886 C890 1.350 . S
C887 C890 1.463 . S
C887 C892 1.350 . S
C887 N895 1.427 . S
C888 H879 0.930 . S
C888 C886 1.378 . S
C888 C889 1.367 . S
C889 C888 1.367 . S
C889 C891 1.433 . S
C890 C886 1.350 . S
C890 C887 1.463 . S
C890 N894 1.427 . S
C891 H881 0.929 . S
C891 C889 1.433 . S
C891 N894 1.384 . S
C892 H883 0.929 . S
C892 C884 1.378 . S
C892 C887 1.350 . S
C893 H880 0.929 . S
C893 C885 1.433 . S
C893 N895 1.384 . S
N894 C890 1.427 . S
N894 C891 1.384 . S
N895 C887 1.427 . S
N895 C893 1.384 . S
H896 C902 0.930 . S
H897 C906 0.930 . S
H898 C911 0.929 . S
H899 C909 0.929 . S
H900 C904 0.929 . S
H901 C910 0.929 . S
C902 H896 0.930 . S
C902 C903 1.367 . S
C902 C910 1.378 . S
C903 C902 1.367 . S
C903 C911 1.433 . S
C904 H900 0.929 . S
C904 C906 1.378 . S
C904 C908 1.350 . S
C905 C908 1.463 . S
C905 C910 1.350 . S
C905 N913 1.427 . S
C906 H897 0.930 . S
C906 C904 1.378 . S
C906 C907 1.367 . S
C907 C906 1.367 . S
C907 C909 1.433 . S
C908 C904 1.350 . S
C908 C905 1.463 . S
C908 N912 1.427 . S
C909 H899 0.929 . S
C909 C907 1.433 . S
C909 N912 1.384 . S
C910 H901 0.929 . S
C910 C902 1.378 . S
C910 C905 1.350 . S
C911 H898 0.929 . S
C911 C903 1.433 . S
C911 N913 1.384 . S
N912 C908 1.427 . S
N912 C909 1.384 . S
N913 C905 1.427 . S
N913 C911 1.384 . S
H914 C920 0.930 . S
H915 C924 0.930 . S
H916 C929 0.929 . S
H917 C927 0.929 . S
H918 C922 0.929 . S
H919 C928 0.929 . S
C920 H914 0.930 . S
C920 C921 1.367 . S
C920 C928 1.378 . S
C921 C920 1.367 . S
C921 C929 1.433 . S
C922 H918 0.929 . S
C922 C924 1.378 . S
C922 C926 1.350 . S
C923 C926 1.463 . S
C923 C928 1.350 . S
C923 N931 1.427 . S
C924 H915 0.930 . S
C924 C922 1.378 . S
C924 C925 1.367 . S
C925 C924 1.367 . S
C925 C927 1.433 . S
C926 C922 1.350 . S
C926 C923 1.463 . S
C926 N930 1.427 . S
C927 H917 0.929 . S
C927 C925 1.433 . S
C927 N930 1.384 . S
C928 H919 0.929 . S
C928 C920 1.378 . S
C928 C923 1.350 . S
C929 H916 0.929 . S
C929 C921 1.433 . S
C929 N931 1.384 . S
N930 C926 1.427 . S
N930 C927 1.384 . S
N931 C923 1.427 . S
N931 C929 1.384 . S
H932 C938 0.930 . S
H933 C942 0.930 . S
H934 C947 0.929 . S
H935 C945 0.929 . S
H936 C940 0.929 . S
H937 C946 0.929 . S
C938 H932 0.930 . S
C938 C939 1.367 . S
C938 C946 1.378 . S
C939 C938 1.367 . S
C939 C947 1.433 . S
C940 H936 0.929 . S
C940 C942 1.378 . S
C940 C944 1.350 . S
C941 C944 1.463 . S
C941 C946 1.350 . S
C941 N949 1.427 . S
C942 H933 0.930 . S
C942 C940 1.378 . S
C942 C943 1.367 . S
C943 C942 1.367 . S
C943 C945 1.433 . S
C944 C940 1.350 . S
C944 C941 1.463 . S
C944 N948 1.427 . S
C945 H935 0.929 . S
C945 C943 1.433 . S
C945 N948 1.384 . S
C946 H937 0.929 . S
C946 C938 1.378 . S
C946 C941 1.350 . S
C947 H934 0.929 . S
C947 C939 1.433 . S
C947 N949 1.384 . S
N948 C944 1.427 . S
N948 C945 1.384 . S
N949 C941 1.427 . S
N949 C947 1.384 . S
H950 C956 0.930 . S
H951 C960 0.930 . S
H952 C965 0.929 . S
H953 C963 0.929 . S
H954 C958 0.929 . S
H955 C964 0.929 . S
C956 H950 0.930 . S
C956 C957 1.367 . S
C956 C964 1.378 . S
C957 C956 1.367 . S
C957 C965 1.433 . S
C958 H954 0.929 . S
C958 C960 1.378 . S
C958 C962 1.350 . S
C959 C962 1.463 . S
C959 C964 1.350 . S
C959 N967 1.427 . S
C960 H951 0.930 . S
C960 C958 1.378 . S
C960 C961 1.367 . S
C961 C960 1.367 . S
C961 C963 1.433 . S
C962 C958 1.350 . S
C962 C959 1.463 . S
C962 N966 1.427 . S
C963 H953 0.929 . S
C963 C961 1.433 . S
C963 N966 1.384 . S
C964 H955 0.929 . S
C964 C956 1.378 . S
C964 C959 1.350 . S
C965 H952 0.929 . S
C965 C957 1.433 . S
C965 N967 1.384 . S
N966 C962 1.427 . S
N966 C963 1.384 . S
N967 C959 1.427 . S
N967 C965 1.384 . S
H968 C974 0.930 . S
H969 C978 0.930 . S
H970 C983 0.929 . S
H971 C981 0.929 . S
H972 C976 0.929 . S
H973 C982 0.929 . S
C974 H968 0.930 . S
C974 C975 1.367 . S
C974 C982 1.378 . S
C975 C974 1.367 . S
C975 C983 1.433 . S
C976 H972 0.929 . S
C976 C978 1.378 . S
C976 C980 1.350 . S
C977 C980 1.463 . S
C977 C982 1.350 . S
C977 N985 1.427 . S
C978 H969 0.930 . S
C978 C976 1.378 . S
C978 C979 1.367 . S
C979 C978 1.367 . S
C979 C981 1.433 . S
C980 C976 1.350 . S
C980 C977 1.463 . S
C980 N984 1.427 . S
C981 H971 0.929 . S
C981 C979 1.433 . S
C981 N984 1.384 . S
C982 H973 0.929 . S
C982 C974 1.378 . S
C982 C977 1.350 . S
C983 H970 0.929 . S
C983 C975 1.433 . S
C983 N985 1.384 . S
N984 C980 1.427 . S
N984 C981 1.384 . S
N985 C977 1.427 . S
N985 C983 1.384 . S
H986 C992 0.930 . S
H987 C996 0.930 . S
H988 C1001 0.929 . S
H989 C999 0.929 . S
H990 C994 0.929 . S
H991 C1000 0.929 . S
C992 H986 0.930 . S
C992 C993 1.367 . S
C992 C1000 1.378 . S
C993 C992 1.367 . S
C993 C1001 1.433 . S
C994 H990 0.929 . S
C994 C996 1.378 . S
C994 C998 1.350 . S
C995 C998 1.463 . S
C995 C1000 1.350 . S
C995 N1003 1.427 . S
C996 H987 0.930 . S
C996 C994 1.378 . S
C996 C997 1.367 . S
C997 C996 1.367 . S
C997 C999 1.433 . S
C998 C994 1.350 . S
C998 C995 1.463 . S
C998 N1002 1.427 . S
C999 H989 0.929 . S
C999 C997 1.433 . S
C999 N1002 1.384 . S
C1000 H991 0.929 . S
C1000 C992 1.378 . S
C1000 C995 1.350 . S
C1001 H988 0.929 . S
C1001 C993 1.433 . S
C1001 N1003 1.384 . S
N1002 C998 1.427 . S
N1002 C999 1.384 . S
N1003 C995 1.427 . S
N1003 C1001 1.384 . S
H1004 C1010 0.930 . S
H1005 C1014 0.930 . S
H1006 C1019 0.929 . S
H1007 C1017 0.929 . S
H1008 C1012 0.929 . S
H1009 C1018 0.929 . S
C1010 H1004 0.930 . S
C1010 C1011 1.367 . S
C1010 C1018 1.378 . S
C1011 C1010 1.367 . S
C1011 C1019 1.433 . S
C1012 H1008 0.929 . S
C1012 C1014 1.378 . S
C1012 C1016 1.350 . S
C1013 C1016 1.463 . S
C1013 C1018 1.350 . S
C1013 N1021 1.427 . S
C1014 H1005 0.930 . S
C1014 C1012 1.378 . S
C1014 C1015 1.367 . S
C1015 C1014 1.367 . S
C1015 C1017 1.433 . S
C1016 C1012 1.350 . S
C1016 C1013 1.463 . S
C1016 N1020 1.427 . S
C1017 H1007 0.929 . S
C1017 C1015 1.433 . S
C1017 N1020 1.384 . S
C1018 H1009 0.929 . S
C1018 C1010 1.378 . S
C1018 C1013 1.350 . S
C1019 H1006 0.929 . S
C1019 C1011 1.433 . S
C1019 N1021 1.384 . S
N1020 C1016 1.427 . S
N1020 C1017 1.384 . S
N1021 C1013 1.427 . S
N1021 C1019 1.384 . S
H1022 C1028 0.930 . S
H1023 C1032 0.930 . S
H1024 C1037 0.929 . S
H1025 C1035 0.929 . S
H1026 C1030 0.929 . S
H1027 C1036 0.929 . S
C1028 H1022 0.930 . S
C1028 C1029 1.367 . S
C1028 C1036 1.378 . S
C1029 C1028 1.367 . S
C1029 C1037 1.433 . S
C1030 H1026 0.929 . S
C1030 C1032 1.378 . S
C1030 C1034 1.350 . S
C1031 C1034 1.463 . S
C1031 C1036 1.350 . S
C1031 N1039 1.427 . S
C1032 H1023 0.930 . S
C1032 C1030 1.378 . S
C1032 C1033 1.367 . S
C1033 C1032 1.367 . S
C1033 C1035 1.433 . S
C1034 C1030 1.350 . S
C1034 C1031 1.463 . S
C1034 N1038 1.427 . S
C1035 H1025 0.929 . S
C1035 C1033 1.433 . S
C1035 N1038 1.384 . S
C1036 H1027 0.929 . S
C1036 C1028 1.378 . S
C1036 C1031 1.350 . S
C1037 H1024 0.929 . S
C1037 C1029 1.433 . S
C1037 N1039 1.384 . S
N1038 C1034 1.427 . S
N1038 C1035 1.384 . S
N1039 C1031 1.427 . S
N1039 C1037 1.384 . S
H1040 C1046 0.930 . S
H1041 C1050 0.930 . S
H1042 C1055 0.929 . S
H1043 C1053 0.929 . S
H1044 C1048 0.929 . S
H1045 C1054 0.929 . S
C1046 H1040 0.930 . S
C1046 C1047 1.367 . S
C1046 C1054 1.378 . S
C1047 C1046 1.367 . S
C1047 C1055 1.433 . S
C1048 H1044 0.929 . S
C1048 C1050 1.378 . S
C1048 C1052 1.350 . S
C1049 C1052 1.463 . S
C1049 C1054 1.350 . S
C1049 N1057 1.427 . S
C1050 H1041 0.930 . S
C1050 C1048 1.378 . S
C1050 C1051 1.367 . S
C1051 C1050 1.367 . S
C1051 C1053 1.433 . S
C1052 C1048 1.350 . S
C1052 C1049 1.463 . S
C1052 N1056 1.427 . S
C1053 H1043 0.929 . S
C1053 C1051 1.433 . S
C1053 N1056 1.384 . S
C1054 H1045 0.929 . S
C1054 C1046 1.378 . S
C1054 C1049 1.350 . S
C1055 H1042 0.929 . S
C1055 C1047 1.433 . S
C1055 N1057 1.384 . S
N1056 C1052 1.427 . S
N1056 C1053 1.384 . S
N1057 C1049 1.427 . S
N1057 C1055 1.384 . S
H1058 C1064 0.930 . S
H1059 C1068 0.930 . S
H1060 C1073 0.929 . S
H1061 C1071 0.929 . S
H1062 C1066 0.929 . S
H1063 C1072 0.929 . S
C1064 H1058 0.930 . S
C1064 C1065 1.367 . S
C1064 C1072 1.378 . S
C1065 C1064 1.367 . S
C1065 C1073 1.433 . S
C1066 H1062 0.929 . S
C1066 C1068 1.378 . S
C1066 C1070 1.350 . S
C1067 C1070 1.463 . S
C1067 C1072 1.350 . S
C1067 N1075 1.427 . S
C1068 H1059 0.930 . S
C1068 C1066 1.378 . S
C1068 C1069 1.367 . S
C1069 C1068 1.367 . S
C1069 C1071 1.433 . S
C1070 C1066 1.350 . S
C1070 C1067 1.463 . S
C1070 N1074 1.427 . S
C1071 H1061 0.929 . S
C1071 C1069 1.433 . S
C1071 N1074 1.384 . S
C1072 H1063 0.929 . S
C1072 C1064 1.378 . S
C1072 C1067 1.350 . S
C1073 H1060 0.929 . S
C1073 C1065 1.433 . S
C1073 N1075 1.384 . S
N1074 C1070 1.427 . S
N1074 C1071 1.384 . S
N1075 C1067 1.427 . S
N1075 C1073 1.384 . S
H1076 C1082 0.930 . S
H1077 C1086 0.930 . S
H1078 C1091 0.929 . S
H1079 C1089 0.929 . S
H1080 C1084 0.929 . S
H1081 C1090 0.929 . S
C1082 H1076 0.930 . S
C1082 C1083 1.367 . S
C1082 C1090 1.378 . S
C1083 C1082 1.367 . S
C1083 C1091 1.433 . S
C1084 H1080 0.929 . S
C1084 C1086 1.378 . S
C1084 C1088 1.350 . S
C1085 C1088 1.463 . S
C1085 C1090 1.350 . S
C1085 N1093 1.427 . S
C1086 H1077 0.930 . S
C1086 C1084 1.378 . S
C1086 C1087 1.367 . S
C1087 C1086 1.367 . S
C1087 C1089 1.433 . S
C1088 C1084 1.350 . S
C1088 C1085 1.463 . S
C1088 N1092 1.427 . S
C1089 H1079 0.929 . S
C1089 C1087 1.433 . S
C1089 N1092 1.384 . S
C1090 H1081 0.929 . S
C1090 C1082 1.378 . S
C1090 C1085 1.350 . S
C1091 H1078 0.929 . S
C1091 C1083 1.433 . S
C1091 N1093 1.384 . S
N1092 C1088 1.427 . S
N1092 C1089 1.384 . S
N1093 C1085 1.427 . S
N1093 C1091 1.384 . S
H1094 C1100 0.930 . S
H1095 C1104 0.930 . S
H1096 C1109 0.929 . S
H1097 C1107 0.929 . S
H1098 C1102 0.929 . S
H1099 C1108 0.929 . S
C1100 H1094 0.930 . S
C1100 C1101 1.367 . S
C1100 C1108 1.378 . S
C1101 C1100 1.367 . S
C1101 C1109 1.433 . S
C1102 H1098 0.929 . S
C1102 C1104 1.378 . S
C1102 C1106 1.350 . S
C1103 C1106 1.463 . S
C1103 C1108 1.350 . S
C1103 N1111 1.427 . S
C1104 H1095 0.930 . S
C1104 C1102 1.378 . S
C1104 C1105 1.367 . S
C1105 C1104 1.367 . S
C1105 C1107 1.433 . S
C1106 C1102 1.350 . S
C1106 C1103 1.463 . S
C1106 N1110 1.427 . S
C1107 H1097 0.929 . S
C1107 C1105 1.433 . S
C1107 N1110 1.384 . S
C1108 H1099 0.929 . S
C1108 C1100 1.378 . S
C1108 C1103 1.350 . S
C1109 H1096 0.929 . S
C1109 C1101 1.433 . S
C1109 N1111 1.384 . S
N1110 C1106 1.427 . S
N1110 C1107 1.384 . S
N1111 C1103 1.427 . S
N1111 C1109 1.384 . S
H1112 C1118 0.930 . S
H1113 C1122 0.930 . S
H1114 C1127 0.929 . S
H1115 C1125 0.929 . S
H1116 C1120 0.929 . S
H1117 C1126 0.929 . S
C1118 H1112 0.930 . S
C1118 C1119 1.367 . S
C1118 C1126 1.378 . S
C1119 C1118 1.367 . S
C1119 C1127 1.433 . S
C1120 H1116 0.929 . S
C1120 C1122 1.378 . S
C1120 C1124 1.350 . S
C1121 C1124 1.463 . S
C1121 C1126 1.350 . S
C1121 N1129 1.427 . S
C1122 H1113 0.930 . S
C1122 C1120 1.378 . S
C1122 C1123 1.367 . S
C1123 C1122 1.367 . S
C1123 C1125 1.433 . S
C1124 C1120 1.350 . S
C1124 C1121 1.463 . S
C1124 N1128 1.427 . S
C1125 H1115 0.929 . S
C1125 C1123 1.433 . S
C1125 N1128 1.384 . S
C1126 H1117 0.929 . S
C1126 C1118 1.378 . S
C1126 C1121 1.350 . S
C1127 H1114 0.929 . S
C1127 C1119 1.433 . S
C1127 N1129 1.384 . S
N1128 C1124 1.427 . S
N1128 C1125 1.384 . S
N1129 C1121 1.427 . S
N1129 C1127 1.384 . S
H1130 C1136 0.930 . S
H1131 C1140 0.930 . S
H1132 C1145 0.929 . S
H1133 C1143 0.929 . S
H1134 C1138 0.929 . S
H1135 C1144 0.929 . S
C1136 H1130 0.930 . S
C1136 C1137 1.367 . S
C1136 C1144 1.378 . S
C1137 C1136 1.367 . S
C1137 C1145 1.433 . S
C1138 H1134 0.929 . S
C1138 C1140 1.378 . S
C1138 C1142 1.350 . S
C1139 C1142 1.463 . S
C1139 C1144 1.350 . S
C1139 N1147 1.427 . S
C1140 H1131 0.930 . S
C1140 C1138 1.378 . S
C1140 C1141 1.367 . S
C1141 C1140 1.367 . S
C1141 C1143 1.433 . S
C1142 C1138 1.350 . S
C1142 C1139 1.463 . S
C1142 N1146 1.427 . S
C1143 H1133 0.929 . S
C1143 C1141 1.433 . S
C1143 N1146 1.384 . S
C1144 H1135 0.929 . S
C1144 C1136 1.378 . S
C1144 C1139 1.350 . S
C1145 H1132 0.929 . S
C1145 C1137 1.433 . S
C1145 N1147 1.384 . S
N1146 C1142 1.427 . S
N1146 C1143 1.384 . S
N1147 C1139 1.427 . S
N1147 C1145 1.384 . S
H1148 C1154 0.930 . S
H1149 C1158 0.930 . S
H1150 C1163 0.929 . S
H1151 C1161 0.929 . S
H1152 C1156 0.929 . S
H1153 C1162 0.929 . S
C1154 H1148 0.930 . S
C1154 C1155 1.367 . S
C1154 C1162 1.378 . S
C1155 C1154 1.367 . S
C1155 C1163 1.433 . S
C1156 H1152 0.929 . S
C1156 C1158 1.378 . S
C1156 C1160 1.350 . S
C1157 C1160 1.463 . S
C1157 C1162 1.350 . S
C1157 N1165 1.427 . S
C1158 H1149 0.930 . S
C1158 C1156 1.378 . S
C1158 C1159 1.367 . S
C1159 C1158 1.367 . S
C1159 C1161 1.433 . S
C1160 C1156 1.350 . S
C1160 C1157 1.463 . S
C1160 N1164 1.427 . S
C1161 H1151 0.929 . S
C1161 C1159 1.433 . S
C1161 N1164 1.384 . S
C1162 H1153 0.929 . S
C1162 C1154 1.378 . S
C1162 C1157 1.350 . S
C1163 H1150 0.929 . S
C1163 C1155 1.433 . S
C1163 N1165 1.384 . S
N1164 C1160 1.427 . S
N1164 C1161 1.384 . S
N1165 C1157 1.427 . S
N1165 C1163 1.384 . S
H1166 C1172 0.930 . S
H1167 C1176 0.930 . S
H1168 C1181 0.929 . S
H1169 C1179 0.929 . S
H1170 C1174 0.929 . S
H1171 C1180 0.929 . S
C1172 H1166 0.930 . S
C1172 C1173 1.367 . S
C1172 C1180 1.378 . S
C1173 C1172 1.367 . S
C1173 C1181 1.433 . S
C1174 H1170 0.929 . S
C1174 C1176 1.378 . S
C1174 C1178 1.350 . S
C1175 C1178 1.463 . S
C1175 C1180 1.350 . S
C1175 N1183 1.427 . S
C1176 H1167 0.930 . S
C1176 C1174 1.378 . S
C1176 C1177 1.367 . S
C1177 C1176 1.367 . S
C1177 C1179 1.433 . S
C1178 C1174 1.350 . S
C1178 C1175 1.463 . S
C1178 N1182 1.427 . S
C1179 H1169 0.929 . S
C1179 C1177 1.433 . S
C1179 N1182 1.384 . S
C1180 H1171 0.929 . S
C1180 C1172 1.378 . S
C1180 C1175 1.350 . S
C1181 H1168 0.929 . S
C1181 C1173 1.433 . S
C1181 N1183 1.384 . S
N1182 C1178 1.427 . S
N1182 C1179 1.384 . S
N1183 C1175 1.427 . S
N1183 C1181 1.384 . S
C327 C62 1.739 . S
C331 C18 1.794 . S
C345 C12 1.397 . S
C349 C22 1.396 . S
C363 C58 1.129 . S
C367 C38 1.129 . S
C381 C72 1.271 . S
C385 C52 1.251 . S
C399 C84 1.530 . S
C403 C104 1.503 . S
C417 C119 1.130 . S
C421 C139 1.111 . S
C435 C129 1.466 . S
C439 C144 1.378 . S
C453 C89 1.518 . S
C457 C159 1.526 . S
C471 C189 1.430 . S
C475 C2 1.355 . S
C489 C204 0.737 . S
C493 C32 0.707 . S
C507 C42 1.228 . S
C511 C269 1.229 . S
C525 C179 1.043 . S
C529 C78 1.020 . S
C543 C238 1.179 . S
C547 C99 1.203 . S
C561 C282 1.373 . S
C565 C109 1.460 . S
C579 C124 0.717 . S
C583 C252 0.692 . S
C597 C309 1.197 . S
C601 C149 1.157 . S
C615 C169 1.519 . S
C619 C279 1.523 . S
C633 C184 1.524 . S
C637 C164 1.572 . S
C651 C219 1.099 . S
C655 C199 1.121 . S
C669 C298 1.830 . S
C673 C222 1.775 . S
C687 C258 1.095 . S
C691 C319 1.094 . S
C705 C224 1.738 . S
C709 C19 1.795 . S
C723 C244 1.408 . S
C727 C9 1.403 . S
C741 C259 1.136 . S
C745 C59 1.130 . S
C759 C49 1.241 . S
C763 C229 1.269 . S
C777 C182 1.505 . S
C781 C82 1.531 . S
C795 C198 1.131 . S
C799 C138 1.106 . S
C813 C262 1.400 . S
C817 C132 1.459 . S
C831 C92 1.516 . S
C835 C278 1.531 . S
C849 C112 1.429 . S
C853 C4 1.358 . S
C867 C202 0.733 . S
C871 C249 0.739 . S
C885 C44 1.229 . S
C889 C152 1.226 . S
C903 C178 1.031 . S
C907 C239 1.031 . S
C921 C79 1.182 . S
C925 C98 1.206 . S
C939 C192 1.469 . S
C943 C284 1.393 . S
C957 C122 0.686 . S
C961 C29 0.711 . S
C975 C312 1.204 . S
C979 C272 1.187 . S
C993 C172 1.516 . S
C997 C158 1.520 . S
C1011 C162 1.560 . S
C1015 C102 1.546 . S
C1029 C218 1.110 . S
C1033 C118 1.106 . S
C1047 C64 1.768 . S
C1051 C299 1.820 . S
C1065 C39 1.087 . S
C1069 C318 1.078 . S
C1083 C242 1.224 . S
C1087 C292 1.251 . S
C1101 C232 1.394 . S
C1105 C304 1.305 . S
C1119 C209 1.442 . S
C1123 C264 1.363 . S
C1137 C289 1.248 . S
C1141 C24 1.215 . S
C1155 C69 1.381 . S
C1159 C302 1.311 . S
C1173 C142 1.351 . S
C1177 C212 1.453 . S
