# Generated by pormake.
# Topology lvt, (4)-cn, num edge types: 1
# Building blocks:
#     Node 0, Type 0, BuildingBlock: KOZSID_clean_sbu_0, # of connection points: 4
#     Node 1, Type 0, BuildingBlock: KOZSID_clean_sbu_0, # of connection points: 4
#     Node 2, Type 0, BuildingBlock: KOZSID_clean_sbu_0, # of connection points: 4
#     Node 3, Type 0, BuildingBlock: KOZSID_clean_sbu_0, # of connection points: 4
#     Node 4, Type 0, BuildingBlock: KOZSID_clean_sbu_0, # of connection points: 4
#     Node 5, Type 0, BuildingBlock: KOZSID_clean_sbu_0, # of connection points: 4
#     Node 6, Type 0, BuildingBlock: KOZSID_clean_sbu_0, # of connection points: 4
#     Node 7, Type 0, BuildingBlock: KOZSID_clean_sbu_0, # of connection points: 4
#     Edge 8, Type (0, 0), BuildingBlock: XUDNAN_clean_linker_2, # of connection points: 2
#     Edge 9, Type (0, 0), BuildingBlock: XUDNAN_clean_linker_2, # of connection points: 2
#     Edge 10, Type (0, 0), BuildingBlock: XUDNAN_clean_linker_2, # of connection points: 2
#     Edge 11, Type (0, 0), BuildingBlock: XUDNAN_clean_linker_2, # of connection points: 2
#     Edge 12, Type (0, 0), BuildingBlock: XUDNAN_clean_linker_2, # of connection points: 2
#     Edge 13, Type (0, 0), BuildingBlock: XUDNAN_clean_linker_2, # of connection points: 2
#     Edge 14, Type (0, 0), BuildingBlock: XUDNAN_clean_linker_2, # of connection points: 2
#     Edge 15, Type (0, 0), BuildingBlock: XUDNAN_clean_linker_2, # of connection points: 2
#     Edge 16, Type (0, 0), BuildingBlock: XUDNAN_clean_linker_2, # of connection points: 2
#     Edge 17, Type (0, 0), BuildingBlock: XUDNAN_clean_linker_2, # of connection points: 2
#     Edge 18, Type (0, 0), BuildingBlock: XUDNAN_clean_linker_2, # of connection points: 2
#     Edge 19, Type (0, 0), BuildingBlock: XUDNAN_clean_linker_2, # of connection points: 2
#     Edge 20, Type (0, 0), BuildingBlock: XUDNAN_clean_linker_2, # of connection points: 2
#     Edge 21, Type (0, 0), BuildingBlock: XUDNAN_clean_linker_2, # of connection points: 2
#     Edge 22, Type (0, 0), BuildingBlock: XUDNAN_clean_linker_2, # of connection points: 2
#     Edge 23, Type (0, 0), BuildingBlock: XUDNAN_clean_linker_2, # of connection points: 2
# Relax obj value: 0.003
# Max RMSD: 0.030
# Mean RMSD: 0.020
data_MOF--net-lvt--node1-KOZSID_clean_sbu_0--edge1-XUDNAN_clean_linker_2
_symmetry_space_group_name_H-M    P1
_symmetry_Int_Tables_number       1
_symmetry_cell_setting            triclinic
loop_
_symmetry_equiv_pos_as_xyz
'x, y, z'
_cell_length_a     43.004621
_cell_length_b     43.02749
_cell_length_c     39.422552
_cell_angle_alpha  83.670561
_cell_angle_beta   92.841406
_cell_angle_gamma 86.976444
loop_
_atom_site_label
_atom_site_type_symbol
_atom_site_fract_x
_atom_site_fract_y
_atom_site_fract_z
_atom_type_partial_charge
C0 C 0.04961 0.9495 0.51368 0.0
C1 C 0.06046 0.92403 0.49795 0.0
C2 C 0.04391 0.92535 0.46733 0.0
C3 C 0.02423 0.95163 0.46593 0.0
N4 N 0.02747 0.96742 0.4936 0.0
Co5 Co 1.00389 0.00729 0.50148 0.0
N6 N 0.97746 0.00767 0.45794 0.0
C7 C 0.97745 0.98498 0.43677 0.0
C8 C 0.9577 0.99206 0.4083 0.0
C9 C 0.94447 0.02109 0.41127 0.0
C10 C 0.95679 0.03011 0.44167 0.0
N11 N 0.98139 0.04794 0.50846 0.0
C12 C 0.96041 0.06658 0.48755 0.0
C13 C 0.95092 0.09314 0.50227 0.0
C14 C 0.96725 0.09178 0.53299 0.0
C15 C 0.98554 0.0645 0.53538 0.0
N16 N 0.02945 0.00624 0.54565 0.0
C17 C 0.02711 0.02716 0.5687 0.0
C18 C 0.04567 0.01923 0.59793 0.0
C19 C 0.06044 0.99123 0.59365 0.0
C20 C 0.05018 0.98376 0.56175 0.0
N21 N 0.0357 0.03144 0.4763 0.0
C22 C 0.08241 0.06323 0.44053 0.0
C23 C 0.0739 0.07123 0.47244 0.0
C24 C 0.05074 0.055 0.48989 0.0
C25 C 0.06636 0.03987 0.42653 0.0
C26 C 0.04328 0.02466 0.44445 0.0
N27 N 0.97198 0.98285 0.52664 0.0
C28 C 0.9336 0.97694 0.56999 0.0
C29 C 0.92721 0.94686 0.56193 0.0
C30 C 0.94433 0.93524 0.53624 0.0
C31 C 0.96567 0.95349 0.5188 0.0
C32 C 0.95605 0.99417 0.5525 0.0
H33 H 0.9768 0.943 0.49906 0.0
H34 H 0.95998 0.01663 0.5604 0.0
H35 H 0.04553 0.06163 0.51444 0.0
H36 H 0.03202 0.0073 0.43197 0.0
C37 C 0.99995 0.96002 0.44122 0.0
C38 C 0.05945 0.95435 0.54861 0.0
C39 C 0.94968 0.06081 0.45314 0.0
C40 C 0.00661 0.05358 0.56259 0.0
H41 H 0.07778 0.90578 0.50813 0.0
H42 H 0.04516 0.90846 0.44896 0.0
H43 H 0.95466 0.97855 0.38691 0.0
H44 H 0.92851 0.03441 0.39239 0.0
H45 H 0.93423 0.11182 0.49165 0.0
H46 H 0.96616 0.10879 0.55124 0.0
H47 H 0.04761 0.03191 0.62011 0.0
H48 H 0.07634 0.97761 0.61238 0.0
H49 H 0.08567 0.08922 0.48433 0.0
H50 H 0.07166 0.0332 0.40164 0.0
H51 H 0.92117 0.98751 0.58941 0.0
H52 H 0.94168 0.91183 0.52936 0.0
C53 C 0.19011 0.79183 0.73616 0.0
C54 C 0.16439 0.80343 0.75176 0.0
C55 C 0.16428 0.78689 0.78332 0.0
C56 C 0.1899 0.76631 0.78527 0.0
N57 N 0.2068 0.76914 0.75717 0.0
Co58 Co 0.2449 0.74274 0.74875 0.0
N59 N 0.24426 0.71765 0.79482 0.0
C60 C 0.22345 0.72141 0.81887 0.0
C61 C 0.23073 0.70323 0.84927 0.0
C62 C 0.25832 0.68747 0.84476 0.0
C63 C 0.26619 0.69682 0.8116 0.0
N64 N 0.28234 0.71568 0.73987 0.0
C65 C 0.2998 0.69401 0.76134 0.0
C66 C 0.32425 0.68082 0.74506 0.0
C67 C 0.32281 0.69545 0.71243 0.0
C68 C 0.29752 0.71648 0.71061 0.0
N69 N 0.2464 0.76857 0.70326 0.0
C70 C 0.26799 0.76543 0.67985 0.0
C71 C 0.26257 0.78575 0.65062 0.0
C72 C 0.23574 0.80267 0.65541 0.0
C73 C 0.22628 0.79174 0.68752 0.0
N74 N 0.27253 0.7719 0.76992 0.0
C75 C 0.31528 0.80593 0.80561 0.0
C76 C 0.3231 0.79365 0.77556 0.0
C77 C 0.30141 0.77725 0.758 0.0
C78 C 0.28512 0.80234 0.81644 0.0
C79 C 0.26433 0.7853 0.79845 0.0
N80 N 0.21717 0.7134 0.72764 0.0
C81 C 0.20011 0.68759 0.67879 0.0
C82 C 0.17438 0.67633 0.69559 0.0
C83 C 0.17119 0.68308 0.7292 0.0
C84 C 0.19261 0.70137 0.74457 0.0
C85 C 0.22102 0.70581 0.69513 0.0
H86 H 0.18849 0.70578 0.77004 0.0
H87 H 0.23977 0.71395 0.68061 0.0
H88 H 0.30881 0.76842 0.73528 0.0
H89 H 0.24207 0.78254 0.80873 0.0
C90 C 0.19873 0.74407 0.81307 0.0
C91 C 0.19691 0.80233 0.7009 0.0
C92 C 0.2957 0.68717 0.79786 0.0
C93 C 0.29056 0.74054 0.68412 0.0
H94 H 0.14719 0.82164 0.74116 0.0
H95 H 0.14731 0.78928 0.80239 0.0
H96 H 0.21824 0.70261 0.87248 0.0
H97 H 0.27158 0.67183 0.86421 0.0
H98 H 0.34209 0.66345 0.75614 0.0
H99 H 0.33934 0.69246 0.69304 0.0
H100 H 0.27569 0.78702 0.62782 0.0
H101 H 0.22396 0.82019 0.6367 0.0
H102 H 0.34601 0.79641 0.76577 0.0
H103 H 0.27797 0.81148 0.83956 0.0
H104 H 0.20372 0.68321 0.6527 0.0
H105 H 0.15214 0.67436 0.74376 0.0
C106 C 0.45282 0.0505 0.01696 0.0
C107 C 0.43577 0.07686 1.00113 0.0
C108 C 0.44549 0.08177 0.96862 0.0
C109 C 0.46789 0.05828 0.96651 0.0
N110 N 0.47261 0.03821 0.99546 0.0
Co111 Co 0.50491 1.00234 1.0045 0.0
N112 N 0.52207 0.0119 0.95827 0.0
C113 C 0.51116 0.03462 0.93342 0.0
C114 C 0.52672 0.03475 0.9039 0.0
C115 C 0.54868 0.01044 0.91004 0.0
C116 C 0.54527 0.99683 0.94313 0.0
N117 N 0.53769 0.96697 0.01398 0.0
C118 C 0.55979 0.95649 0.99385 0.0
C119 C 0.5777 0.93102 0.0105 0.0
C120 C 0.56635 0.92496 0.04212 0.0
C121 C 0.54232 0.94702 0.04304 0.0
N122 N 0.48736 0.99243 0.05039 0.0
C123 C 0.4963 0.96805 0.07409 0.0
C124 C 0.4807 0.968 0.10361 0.0
C125 C 0.46098 0.99422 0.09872 0.0
C126 C 0.46579 0.00881 0.06642 0.0
N127 N 0.47592 0.97358 0.98427 0.0
C128 C 0.44206 0.9307 0.9498 0.0
C129 C 0.45946 0.921 0.98037 0.0
C130 C 0.47568 0.94268 0.99726 0.0
C131 C 0.44037 0.96255 0.93791 0.0
C132 C 0.45734 0.98337 0.95534 0.0
N133 N 0.53394 0.03094 0.02442 0.0
C134 C 0.56948 0.04316 0.0702 0.0
C135 C 0.57441 0.07243 0.05264 0.0
C136 C 0.55831 0.08053 0.02089 0.0
C137 C 0.53859 0.05965 0.00736 0.0
C138 C 0.54932 0.02297 0.05576 0.0
H139 H 0.52724 0.06731 0.98302 0.0
H140 H 0.54659 1.00097 0.07035 0.0
H141 H 0.48843 0.93366 0.02037 0.0
H142 H 0.45563 0.00709 0.94426 0.0
C143 C 0.48622 0.05546 0.93857 0.0
C144 C 0.45078 0.03916 0.05299 0.0
C145 C 0.56416 0.9692 0.95862 0.0
C146 C 0.52218 0.94817 0.0697 0.0
H147 H 0.41869 0.09148 0.01225 0.0
H148 H 0.43791 0.10082 0.94923 0.0
H149 H 0.52239 0.05047 0.88055 0.0
H150 H 0.56511 1.00326 0.89207 0.0
H151 H 0.59664 0.91782 1.00056 0.0
H152 H 0.57416 0.90621 0.06176 0.0
H153 H 0.48436 0.95172 0.12662 0.0
H154 H 0.44557 1.00234 0.11721 0.0
H155 H 0.46085 0.89663 0.99107 0.0
H156 H 0.42707 0.97126 0.91442 0.0
H157 H 0.58153 0.03552 0.09471 0.0
H158 H 0.56067 0.1031 0.00642 0.0
C159 C 0.27209 0.30038 0.20204 0.0
C160 C 0.25814 0.31337 0.17076 0.0
C161 C 0.23603 0.29354 0.16184 0.0
C162 C 0.23766 0.26957 0.18796 0.0
N163 N 0.2591 0.27323 0.21308 0.0
Co164 Co 0.26975 0.24277 0.25428 0.0
N165 N 0.23088 0.2206 0.24767 0.0
C166 C 0.21289 0.22232 0.21854 0.0
C167 C 0.18737 0.20455 0.22161 0.0
C168 C 0.18947 0.19072 0.25475 0.0
C169 C 0.21623 0.20093 0.27011 0.0
N170 N 0.28011 0.21225 0.29543 0.0
C171 C 0.26137 0.1933 0.31395 0.0
C172 C 0.27816 0.1762 0.34144 0.0
C173 C 0.30842 0.18453 0.33975 0.0
C174 C 0.30847 0.20629 0.31153 0.0
N175 N 0.30892 0.26464 0.26092 0.0
C176 C 0.33404 0.25313 0.28109 0.0
C177 C 0.35787 0.2731 0.28063 0.0
C178 C 0.34738 0.29857 0.25832 0.0
C179 C 0.31768 0.29258 0.24609 0.0
N180 N 0.24801 0.27068 0.28271 0.0
C181 C 0.21648 0.30819 0.32595 0.0
C182 C 0.24746 0.29664 0.33379 0.0
C183 C 0.26251 0.27775 0.31227 0.0
C184 C 0.20201 0.30108 0.29519 0.0
C185 C 0.21824 0.28262 0.27386 0.0
N186 N 0.29192 0.21482 0.22591 0.0
C187 C 0.331 0.20785 0.18518 0.0
C188 C 0.3294 0.17532 0.19037 0.0
C189 C 0.30749 0.16292 0.21252 0.0
C190 C 0.28908 0.18307 0.23021 0.0
C191 C 0.31199 0.22707 0.20279 0.0
H192 H 0.27321 0.1729 0.24808 0.0
H193 H 0.31441 0.25188 0.19831 0.0
H194 H 0.2859 0.26865 0.31986 0.0
H195 H 0.20648 0.2776 0.25047 0.0
C196 C 0.21757 0.24501 0.19136 0.0
C197 C 0.30012 0.31228 0.21788 0.0
C198 C 0.22819 0.1897 0.30511 0.0
C199 C 0.33282 0.22552 0.30322 0.0
H200 H 0.26398 0.33445 0.1554 0.0
H201 H 0.22051 0.29639 0.13911 0.0
H202 H 0.16874 0.20289 0.20252 0.0
H203 H 0.1732 0.17492 0.26626 0.0
H204 H 0.26947 0.15955 0.36079 0.0
H205 H 0.32774 0.17673 0.35786 0.0
H206 H 0.37998 0.26986 0.29529 0.0
H207 H 0.36041 0.31893 0.25135 0.0
H208 H 0.26031 0.30202 0.3565 0.0
H209 H 0.17811 0.30906 0.28781 0.0
H210 H 0.34734 0.21844 0.16796 0.0
H211 H 0.30554 0.13784 0.21723 0.0
C212 C 0.7822 0.22225 0.30967 0.0
C213 C 0.76996 0.20988 0.33986 0.0
C214 C 0.74119 0.22453 0.3411 0.0
C215 C 0.73749 0.24508 0.31189 0.0
N216 N 0.76204 0.24428 0.29182 0.0
Co217 Co 0.7669 0.27178 0.24802 0.0
N218 N 0.72705 0.29698 0.253 0.0
C219 C 0.70797 0.29315 0.2792 0.0
C220 C 0.68293 0.31448 0.27648 0.0
C221 C 0.68608 0.33305 0.24664 0.0
C222 C 0.71281 0.3217 0.23259 0.0
N223 N 0.77146 0.29863 0.20372 0.0
C224 C 0.75229 0.32212 0.18699 0.0
C225 C 0.76317 0.3326 0.15537 0.0
C226 C 0.79026 0.31553 0.1522 0.0
C227 C 0.79426 0.29541 0.18169 0.0
N228 N 0.80736 0.24735 0.24362 0.0
C229 C 0.82676 0.25128 0.21769 0.0
C230 C 0.85303 0.23153 0.2219 0.0
C231 C 0.85071 0.2144 0.25279 0.0
C232 C 0.82312 0.22492 0.2658 0.0
N233 N 0.74341 0.24207 0.2222 0.0
C234 C 0.7085 0.20504 0.18068 0.0
C235 C 0.73951 0.21096 0.1747 0.0
C236 C 0.75623 0.22929 0.19538 0.0
C237 C 0.69578 0.21661 0.20912 0.0
C238 C 0.71354 0.23477 0.22946 0.0
N239 N 0.7903 0.30133 0.27364 0.0
C240 C 0.83553 0.33177 0.27998 0.0
C241 C 0.82779 0.33784 0.31275 0.0
C242 C 0.79999 0.32665 0.32489 0.0
C243 C 0.78174 0.30853 0.30507 0.0
C244 C 0.81658 0.31384 0.26099 0.0
H245 H 0.76121 0.29994 0.31602 0.0
H246 H 0.82403 0.30979 0.23639 0.0
H247 H 0.77939 0.23306 0.18859 0.0
H248 H 0.70237 0.24309 0.25053 0.0
C249 C 0.71351 0.26841 0.30518 0.0
C250 C 0.81367 0.21373 0.29991 0.0
C251 C 0.72335 0.33487 0.19958 0.0
C252 C 0.81941 0.27353 0.18955 0.0
H253 H 0.78095 0.19289 0.35965 0.0
H254 H 0.72554 0.22172 0.36176 0.0
H255 H 0.66442 0.31613 0.29393 0.0
H256 H 0.67029 0.35259 0.23633 0.0
H257 H 0.75254 0.35049 0.13627 0.0
H258 H 0.80514 0.3174 0.13081 0.0
H259 H 0.87178 0.22998 0.20472 0.0
H260 H 0.86767 0.19651 0.26466 0.0
H261 H 0.75097 0.20173 0.15377 0.0
H262 H 0.67193 0.21256 0.21512 0.0
H263 H 0.85646 0.3405 0.26911 0.0
H264 H 0.79296 0.33075 0.3501 0.0
C265 C 0.69439 0.72667 0.78043 0.0
C266 C 0.66667 0.717 0.76662 0.0
C267 C 0.66338 0.73056 0.73352 0.0
C268 C 0.68918 0.74762 0.7289 0.0
N269 N 0.70859 0.74589 0.75702 0.0
Co270 Co 0.74888 0.76676 0.76058 0.0
N271 N 0.73887 0.79458 0.71699 0.0
C272 C 0.71474 0.79213 0.69447 0.0
C273 C 0.71237 0.8155 0.66771 0.0
C274 C 0.73695 0.83353 0.67316 0.0
C275 C 0.75336 0.81978 0.70275 0.0
N276 N 0.78956 0.78725 0.76386 0.0
C277 C 0.80092 0.81158 0.74399 0.0
C278 C 0.83164 0.81597 0.75423 0.0
C279 C 0.83991 0.79362 0.78092 0.0
C280 C 0.81406 0.77673 0.78551 0.0
N281 N 0.75856 0.73925 0.80449 0.0
C282 C 0.78661 0.73463 0.82156 0.0
C283 C 0.78637 0.71502 0.85142 0.0
C284 C 0.7563 0.70642 0.85328 0.0
C285 C 0.73987 0.72115 0.82418 0.0
N286 N 0.76893 0.73477 0.73525 0.0
C287 C 0.8025 0.68885 0.70386 0.0
C288 C 0.78233 0.68042 0.72976 0.0
C289 C 0.76556 0.70361 0.74477 0.0
C290 C 0.8044 0.72073 0.69297 0.0
C291 C 0.78763 0.7432 0.70903 0.0
N292 N 0.72889 0.7985 0.78614 0.0
C293 C 0.72947 0.8287 0.83426 0.0
C294 C 0.69929 0.84173 0.82469 0.0
C295 C 0.68439 0.83271 0.79519 0.0
C296 C 0.69958 0.81132 0.77628 0.0
C297 C 0.74373 0.80721 0.8148 0.0
H298 H 0.68737 0.80508 0.75378 0.0
H299 H 0.76668 0.79742 0.82331 0.0
H300 H 0.75043 0.69617 0.76467 0.0
H301 H 0.79061 0.76736 0.70064 0.0
C302 C 0.69336 0.76921 0.70069 0.0
C303 C 0.7074 0.71506 0.8149 0.0
C304 C 0.78508 0.82815 0.71265 0.0
C305 C 0.81148 0.75204 0.81104 0.0
H306 H 0.65055 0.7016 0.77909 0.0
H307 H 0.64395 0.72901 0.71537 0.0
H308 H 0.69482 0.81907 0.6468 0.0
H309 H 0.74302 0.85367 0.65637 0.0
H310 H 0.84708 0.83273 0.74302 0.0
H311 H 0.86225 0.78997 0.79512 0.0
H312 H 0.80557 0.70842 0.87007 0.0
H313 H 0.74755 0.69077 0.87354 0.0
H314 H 0.77975 0.65601 0.73866 0.0
H315 H 0.81975 0.72838 0.67313 0.0
H316 H 0.74188 0.83459 0.85704 0.0
H317 H 0.66126 0.8424 0.78645 0.0
C318 C 0.45909 0.52949 0.94798 0.0
C319 C 0.4471 0.51661 0.91965 0.0
C320 C 0.45729 0.48564 0.92354 0.0
C321 C 0.47515 0.48136 0.95369 0.0
N322 N 0.47697 0.50775 0.96894 0.0
Co323 Co 0.50149 0.51219 0.01207 0.0
N324 N 0.52687 0.47258 0.00946 0.0
C325 C 0.51989 0.45019 0.98945 0.0
C326 C 0.54205 0.4258 0.99226 0.0
C327 C 0.56418 0.43303 0.01585 0.0
C328 C 0.55404 0.46138 0.02655 0.0
N329 N 0.5257 0.51664 0.05534 0.0
C330 C 0.55253 0.50135 0.06919 0.0
C331 C 0.56018 0.51061 0.1011 0.0
C332 C 0.53729 0.53225 0.10738 0.0
C333 C 0.51692 0.53496 0.07919 0.0
N334 N 0.47607 0.55163 0.0147 0.0
C335 C 0.47249 0.56608 0.04294 0.0
C336 C 0.45298 0.59265 0.03719 0.0
C337 C 0.44359 0.59495 1.00321 0.0
C338 C 0.45806 0.5696 0.99009 0.0
N339 N 0.47093 0.48848 0.03833 0.0
C340 C 0.42728 0.45594 0.07737 0.0
C341 C 0.41755 0.47935 0.05075 0.0
C342 C 0.43963 0.49514 0.03151 0.0
C343 C 0.4594 0.44891 0.08359 0.0
C344 C 0.48072 0.46544 0.06399 0.0
N345 N 0.53196 0.53591 0.98585 0.0
C346 C 0.56336 0.58076 0.97703 0.0
C347 C 0.5752 0.56994 0.94765 0.0
C348 C 0.56455 0.54181 0.93778 0.0
C349 C 0.54305 0.52528 0.95708 0.0
C350 C 0.54194 0.56338 0.99579 0.0
H351 H 0.53538 0.50387 0.94859 0.0
H352 H 0.53352 0.57217 0.01843 0.0
H353 H 0.43129 0.51293 0.01121 0.0
H354 H 0.5052 0.4597 0.06995 0.0
C355 C 0.49506 0.45512 0.96484 0.0
C356 C 0.45207 0.56188 0.95511 0.0
C357 C 0.56928 0.47553 0.05489 0.0
C358 C 0.49149 0.55682 0.07252 0.0
H359 H 0.43275 0.52826 0.8982 0.0
H360 H 0.45346 0.46872 0.90561 0.0
H361 H 0.54263 0.40569 0.97801 0.0
H362 H 0.58522 0.41883 0.02432 0.0
H363 H 0.57977 0.50206 0.11851 0.0
H364 H 0.53591 0.54479 0.12965 0.0
H365 H 0.44706 0.60895 0.05522 0.0
H366 H 0.42764 0.61298 0.98974 0.0
H367 H 0.39299 0.48535 0.04462 0.0
H368 H 0.46811 0.43125 0.10405 0.0
H369 H 0.57104 0.60218 0.98592 0.0
H370 H 0.57255 0.53263 0.91503 0.0
C371 C 0.0471 0.51217 0.56805 0.0
C372 C 0.0626 0.49658 0.59721 0.0
C373 C 0.05663 0.46556 0.59738 0.0
C374 C 0.0379 0.46402 0.56842 0.0
N375 N 0.03174 0.49208 0.55002 0.0
Co376 Co 1.00506 0.50078 0.50693 0.0
N377 N 0.98559 0.45974 0.51481 0.0
C378 C 0.99635 0.43539 0.53764 0.0
C379 C 0.97886 0.4097 0.53713 0.0
C380 C 0.95605 0.41799 0.51187 0.0
C381 C 0.96105 0.44833 0.49812 0.0
N382 N 0.97797 0.50988 0.46399 0.0
C383 C 0.9539 0.49425 0.45173 0.0
C384 C 0.9424 0.50847 0.41992 0.0
C385 C 0.96027 0.53329 0.41163 0.0
C386 C 0.98161 0.53296 0.43871 0.0
N387 N 0.02516 0.54133 0.49893 0.0
C388 C 0.02477 0.55992 0.46915 0.0
C389 C 0.04037 0.5867 0.47167 0.0
C390 C 0.05117 0.58486 0.5052 0.0
C391 C 0.04146 0.55699 0.5212 0.0
N392 N 0.0377 0.4808 0.48182 0.0
C393 C 0.08413 0.44682 0.45112 0.0
C394 C 0.05259 0.44511 0.44151 0.0
C395 C 0.02989 0.46208 0.45721 0.0
C396 C 0.09206 0.46706 0.47532 0.0
C397 C 0.06858 0.48414 0.48996 0.0
N398 N 0.97287 0.52075 0.53249 0.0
C399 C 0.94225 0.56695 0.5434 0.0
C400 C 0.93405 0.55217 0.57503 0.0
C401 C 0.94437 0.52061 0.58361 0.0
C402 C 0.9639 0.50561 0.56241 0.0
C403 C 0.96126 0.55075 0.52241 0.0
H404 H 0.97251 0.48198 0.57096 0.0
H405 H 0.96747 0.563 0.4986 0.0
H406 H 1.00602 0.4593 0.44993 0.0
H407 H 0.07546 0.49946 0.50852 0.0
C408 C 0.02124 0.43837 0.56107 0.0
C409 C 0.04859 0.54568 0.55726 0.0
C410 C 0.94516 0.46307 0.46603 0.0
C411 C 1.00438 0.55467 0.44194 0.0
H412 H 0.07661 0.50659 0.61634 0.0
H413 H 0.06388 0.44668 0.6171 0.0
H414 H 0.98226 0.38758 0.5532 0.0
H415 H 0.9385 0.40295 0.50344 0.0
H416 H 0.92398 0.50081 0.40366 0.0
H417 H 0.95818 0.5494 0.38842 0.0
H418 H 0.04218 0.60607 0.45202 0.0
H419 H 0.06429 0.60218 0.51667 0.0
H420 H 0.04534 0.42969 0.42303 0.0
H421 H 0.11624 0.46944 0.48316 0.0
H422 H 0.93509 0.59122 0.53526 0.0
H423 H 0.93794 0.50745 0.60695 0.0
H424 H 0.09351 0.12624 0.42555 0.0
H425 H 0.13038 0.03257 0.41337 0.0
H426 H 0.17206 0.05483 0.37924 0.0
H427 H 0.10689 0.15995 0.3408 0.0
H428 H 0.11784 0.1972 0.35301 0.0
H429 H 0.09175 0.17424 0.37838 0.0
H430 H 0.12861 0.17545 0.43212 0.0
H431 H 0.15476 0.19852 0.40691 0.0
H432 H 0.16901 0.16219 0.43124 0.0
H433 H 0.20846 0.08657 0.34444 0.0
H434 H 0.23786 0.12639 0.31146 0.0
H435 H 0.17828 0.20019 0.34476 0.0
C436 C 0.11067 0.11051 0.4161 0.0
C437 C 0.10865 0.07759 0.42217 0.0
C438 C 0.13129 0.05779 0.4089 0.0
C439 C 0.15514 0.07022 0.38954 0.0
C440 C 0.1562 0.10264 0.38346 0.0
C441 C 0.13466 0.12261 0.39633 0.0
C442 C 0.14067 0.1566 0.38477 0.0
C443 C 0.11261 0.17296 0.36294 0.0
C444 C 0.14875 0.17423 0.4156 0.0
C445 C 0.16878 0.15252 0.36335 0.0
C446 C 0.17734 0.12113 0.36312 0.0
C447 C 0.20216 0.11122 0.3447 0.0
C448 C 0.21875 0.13393 0.3261 0.0
C449 C 0.21063 0.16621 0.3261 0.0
C450 C 0.18518 0.17561 0.3448 0.0
H451 H 0.11878 0.95096 0.57936 0.0
H452 H 0.03646 0.89812 0.56921 0.0
H453 H 0.06283 0.85324 0.60631 0.0
H454 H 0.17594 0.88667 0.58015 0.0
H455 H 0.20188 0.90027 0.61192 0.0
H456 H 0.17684 0.92797 0.58405 0.0
H457 H 0.1537 0.94995 0.63661 0.0
H458 H 0.17879 0.92243 0.66464 0.0
H459 H 0.13719 0.92363 0.66876 0.0
H460 H 0.09849 0.81388 0.64363 0.0
H461 H 0.14022 0.7835 0.68072 0.0
H462 H 0.19835 0.86283 0.66974 0.0
C463 C 0.10635 0.92996 0.58521 0.0
C464 C 0.07558 0.92788 0.57165 0.0
C465 C 0.06004 0.90003 0.57947 0.0
C466 C 0.07482 0.8745 0.60047 0.0
C467 C 0.10511 0.87729 0.61364 0.0
C468 C 0.12065 0.90438 0.60655 0.0
C469 C 0.15285 0.90148 0.62457 0.0
C470 C 0.17838 0.90426 0.59862 0.0
C471 C 0.1558 0.92581 0.65017 0.0
C472 C 0.15305 0.86851 0.64278 0.0
C473 C 0.12535 0.8549 0.63591 0.0
C474 C 0.12021 0.82435 0.6493 0.0
C475 C 0.14395 0.80729 0.67028 0.0
C476 C 0.17238 0.82084 0.67788 0.0
C477 C 0.17686 0.85191 0.66408 0.0
H478 H 0.38274 0.93409 0.91875 0.0
H479 H 0.46841 0.87519 0.93458 0.0
H480 H 0.44551 0.83739 0.89915 0.0
H481 H 0.3305 0.87047 0.92243 0.0
H482 H 0.30309 0.89012 0.88997 0.0
H483 H 0.32622 0.91266 0.91648 0.0
H484 H 0.34681 0.94281 0.8624 0.0
H485 H 0.32381 0.92029 0.83572 0.0
H486 H 0.3653 0.92125 0.83144 0.0
H487 H 0.41414 0.80689 0.86032 0.0
H488 H 0.37504 0.78382 0.82407 0.0
H489 H 0.30881 0.8613 0.83465 0.0
C490 C 0.39664 0.91323 0.91473 0.0
C491 C 0.42738 0.90756 0.92952 0.0
C492 C 0.44472 0.87985 0.92388 0.0
C493 C 0.43198 0.85833 0.9036 0.0
C494 C 0.40171 0.86466 0.88931 0.0
C495 C 0.38411 0.89125 0.89486 0.0
C496 C 0.35193 0.89209 0.87699 0.0
C497 C 0.32643 0.89128 0.90303 0.0
C498 C 0.34666 0.92081 0.85004 0.0
C499 C 0.35427 0.86193 0.86036 0.0
C500 C 0.3833 0.84662 0.86759 0.0
C501 C 0.3913 0.81862 0.85458 0.0
C502 C 0.36901 0.8058 0.83383 0.0
C503 C 0.33892 0.82077 0.82647 0.0
C504 C 0.33155 0.84922 0.84002 0.0
H505 H 0.31795 0.12867 0.14899 0.0
H506 H 0.3924 0.17672 0.19523 0.0
H507 H 0.43128 0.14594 0.16668 0.0
H508 H 0.35996 0.05194 0.15215 0.0
H509 H 0.34386 0.04422 0.11103 0.0
H510 H 0.32183 0.06856 0.13676 0.0
H511 H 0.31685 0.11312 0.08661 0.0
H512 H 0.33896 0.08897 0.0608 0.0
H513 H 0.35161 0.12712 0.06786 0.0
H514 H 0.46217 0.11126 0.13219 0.0
H515 H 0.48296 0.07527 0.09271 0.0
H516 H 0.38916 0.05032 0.0668 0.0
C517 C 0.34249 0.13229 0.15341 0.0
C518 C 0.35224 0.15497 0.17446 0.0
C519 C 0.38448 0.1595 0.17918 0.0
C520 C 0.40673 0.14209 0.16313 0.0
C521 C 0.39644 0.12027 0.14214 0.0
C522 C 0.36511 0.1153 0.13712 0.0
C523 C 0.36041 0.09139 0.11194 0.0
C524 C 0.34564 0.0623 0.129 0.0
C525 C 0.3408 0.10603 0.07991 0.0
C526 C 0.39392 0.0838 0.10364 0.0
C527 C 0.41431 0.10064 0.12155 0.0
C528 C 0.44644 0.09792 0.11807 0.0
C529 C 0.45805 0.07751 0.09566 0.0
C530 C 0.43763 0.06026 0.07689 0.0
C531 C 0.40517 0.06336 0.08098 0.0
H532 H 0.90562 0.94783 0.62798 0.0
H533 H 0.89198 0.90247 0.53541 0.0
H534 H 0.85606 0.86768 0.56431 0.0
H535 H 0.90034 0.88114 0.68898 0.0
H536 H 0.87761 0.90112 0.71806 0.0
H537 H 0.90357 0.92252 0.69094 0.0
H538 H 0.8578 0.96134 0.66651 0.0
H539 H 0.83174 0.94021 0.69377 0.0
H540 H 0.82308 0.9465 0.64824 0.0
H541 H 0.82522 0.83434 0.60408 0.0
H542 H 0.79474 0.80969 0.6499 0.0
H543 H 0.81987 0.88106 0.71423 0.0
C544 C 0.8949 0.93095 0.61345 0.0
C545 C 0.903 0.92762 0.57939 0.0
C546 C 0.88787 0.90496 0.56184 0.0
C547 C 0.86692 0.88512 0.57795 0.0
C548 C 0.86021 0.88854 0.61151 0.0
C549 C 0.87306 0.91134 0.62889 0.0
C550 C 0.86055 0.91061 0.66445 0.0
C551 C 0.88711 0.90342 0.69225 0.0
C552 C 0.8422 0.9415 0.66847 0.0
C553 C 0.83909 0.88358 0.66431 0.0
C554 C 0.83977 0.87096 0.63361 0.0
C555 C 0.82386 0.84449 0.62793 0.0
C556 C 0.8065 0.83069 0.65411 0.0
C557 C 0.80427 0.84375 0.68545 0.0
C558 C 0.82081 0.8707 0.69046 0.0
H559 H 0.89018 0.06456 0.4222 0.0
H560 H 0.97316 0.1166 0.43169 0.0
H561 H 0.94658 0.16206 0.39582 0.0
H562 H 0.87216 0.09309 0.33247 0.0
H563 H 0.83056 0.09398 0.33654 0.0
H564 H 0.85575 0.06618 0.36412 0.0
H565 H 0.83224 0.08714 0.41703 0.0
H566 H 0.80729 0.1153 0.38961 0.0
H567 H 0.83314 0.12826 0.42189 0.0
H568 H 0.91023 0.20252 0.36107 0.0
H569 H 0.86884 0.23323 0.3239 0.0
H570 H 0.81153 0.15312 0.33117 0.0
C571 C 0.90284 0.08539 0.41626 0.0
C572 C 0.93378 0.08711 0.42954 0.0
C573 C 0.94946 0.11491 0.42171 0.0
C574 C 0.93453 0.1408 0.40145 0.0
C575 C 0.90403 0.13839 0.38874 0.0
C576 C 0.88853 0.11122 0.39529 0.0
C577 C 0.85636 0.11436 0.37715 0.0
C578 C 0.85355 0.09049 0.35101 0.0
C579 C 0.83075 0.11107 0.40297 0.0
C580 C 0.85612 0.14759 0.3596 0.0
C581 C 0.88369 0.16118 0.36711 0.0
C582 C 0.88867 0.19203 0.35476 0.0
C583 C 0.86507 0.20929 0.33377 0.0
C584 C 0.83704 0.19558 0.32483 0.0
C585 C 0.83259 0.16429 0.33795 0.0
H586 H 0.66404 0.16131 0.19488 0.0
H587 H 0.70991 0.21074 0.11105 0.0
H588 H 0.6814 0.18182 0.07031 0.0
H589 H 0.66303 0.08697 0.16159 0.0
H590 H 0.62481 0.07826 0.17545 0.0
H591 H 0.6487 0.1028 0.19871 0.0
H592 H 0.60455 0.14673 0.191 0.0
H593 H 0.58046 0.12223 0.1679 0.0
H594 H 0.58847 0.16074 0.14864 0.0
H595 H 0.6495 0.147 0.03845 0.0
H596 H 0.61399 0.10985 0.01685 0.0
H597 H 0.58589 0.08401 0.12006 0.0
C598 C 0.66789 0.16625 0.16795 0.0
C599 C 0.68973 0.18808 0.1564 0.0
C600 C 0.69402 0.19365 0.12082 0.0
C601 C 0.67774 0.17747 0.09734 0.0
C602 C 0.65688 0.15583 0.10957 0.0
C603 C 0.65164 0.1503 0.14395 0.0
C604 C 0.62766 0.12581 0.14999 0.0
C605 C 0.64191 0.09674 0.17279 0.0
C606 C 0.59856 0.13971 0.16529 0.0
C607 C 0.62046 0.11845 0.11366 0.0
C608 C 0.6377 0.13607 0.09087 0.0
C609 C 0.63559 0.13331 0.056 0.0
C610 C 0.61512 0.11222 0.04393 0.0
C611 C 0.59665 0.09413 0.06654 0.0
C612 C 0.59967 0.09727 0.10201 0.0
H613 H 0.55906 0.91998 0.92029 0.0
H614 H 0.62421 0.98537 0.95335 0.0
H615 H 0.66577 0.96041 0.92222 0.0
H616 H 0.61322 0.85275 0.92711 0.0
H617 H 0.59716 0.8375 0.88964 0.0
H618 H 0.57259 0.86086 0.91394 0.0
H619 H 0.55729 0.89897 0.85945 0.0
H620 H 0.58181 0.87574 0.83495 0.0
H621 H 0.58745 0.91692 0.8353 0.0
H622 H 0.70037 0.92749 0.88848 0.0
H623 H 0.72546 0.88993 0.85381 0.0
H624 H 0.63778 0.84565 0.84219 0.0
C625 C 0.5821 0.92901 0.92071 0.0
C626 C 0.58867 0.95457 0.93899 0.0
C627 C 0.61893 0.96585 0.9393 0.0
C628 C 0.64258 0.95181 0.92175 0.0
C629 C 0.6355 0.92654 0.90395 0.0
C630 C 0.60596 0.91528 0.9032 0.0
C631 C 0.60458 0.88772 0.88231 0.0
C632 C 0.59641 0.85795 0.90458 0.0
C633 C 0.58141 0.8953 0.85115 0.0
C634 C 0.63795 0.88512 0.87153 0.0
C635 C 0.65539 0.90771 0.88435 0.0
C636 C 0.68692 0.90973 0.87831 0.0
C637 C 0.70103 0.88813 0.85872 0.0
C638 C 0.68372 0.86471 0.84521 0.0
C639 C 0.65165 0.86343 0.85173 0.0
H640 H 0.57802 0.63407 0.9304 0.0
H641 H 0.62663 0.54491 0.91988 0.0
H642 H 0.66546 0.57237 0.88579 0.0
H643 H 0.58976 0.67031 0.84573 0.0
H644 H 0.59555 0.70856 0.85872 0.0
H645 H 0.57161 0.68212 0.88291 0.0
H646 H 0.60578 0.68685 0.93786 0.0
H647 H 0.6298 0.71335 0.91383 0.0
H648 H 0.64731 0.67836 0.93825 0.0
H649 H 0.69874 0.60903 0.85193 0.0
H650 H 0.7243 0.65288 0.82068 0.0
H651 H 0.65532 0.71885 0.85301 0.0
C652 C 0.597 0.62034 0.9212 0.0
C653 C 0.59903 0.58717 0.92778 0.0
C654 C 0.62413 0.5702 0.91484 0.0
C655 C 0.64649 0.58562 0.89558 0.0
C656 C 0.64364 0.61818 0.88934 0.0
C657 C 0.61958 0.63542 0.90174 0.0
C658 C 0.62181 0.67022 0.89079 0.0
C659 C 0.59297 0.68358 0.86819 0.0
C660 C 0.62646 0.68826 0.92205 0.0
C661 C 0.65086 0.6698 0.87033 0.0
C662 C 0.66305 0.63947 0.8699 0.0
C663 C 0.68952 0.63288 0.85231 0.0
C664 C 0.70393 0.65787 0.83472 0.0
C665 C 0.69204 0.68914 0.83493 0.0
C666 C 0.66506 0.69514 0.85287 0.0
H667 H 0.66365 0.33371 0.17175 0.0
H668 H 0.74036 0.39427 0.17995 0.0
H669 H 0.70997 0.43663 0.14275 0.0
H670 H 0.63841 0.35911 0.08484 0.0
H671 H 0.59742 0.35766 0.09199 0.0
H672 H 0.62536 0.33204 0.11867 0.0
H673 H 0.60437 0.35318 0.17273 0.0
H674 H 0.57615 0.37865 0.14624 0.0
H675 H 0.60264 0.39475 0.17563 0.0
H676 H 0.67154 0.4717 0.10267 0.0
H677 H 0.62654 0.49806 0.06691 0.0
H678 H 0.57351 0.41611 0.08911 0.0
C679 C 0.67389 0.35599 0.16581 0.0
C680 C 0.7044 0.36078 0.1784 0.0
C681 C 0.71709 0.39019 0.17025 0.0
C682 C 0.70002 0.4143 0.14918 0.0
C683 C 0.67006 0.40879 0.13692 0.0
C684 C 0.65694 0.38049 0.14534 0.0
C685 C 0.62396 0.38088 0.12976 0.0
C686 C 0.62114 0.35594 0.10484 0.0
C687 C 0.60039 0.37662 0.15776 0.0
C688 C 0.62066 0.41366 0.11096 0.0
C689 C 0.6476 0.42931 0.11509 0.0
C690 C 0.6503 0.45969 0.09939 0.0
C691 C 0.62476 0.47444 0.07909 0.0
C692 C 0.59687 0.45893 0.07488 0.0
C693 C 0.5948 0.42828 0.09137 0.0
H694 H 0.81464 0.38483 0.3539 0.0
H695 H 0.89071 0.32673 0.32143 0.0
H696 H 0.92807 0.35255 0.35676 0.0
H697 H 0.85697 0.45537 0.35446 0.0
H698 H 0.8396 0.46753 0.39191 0.0
H699 H 0.81828 0.44439 0.36436 0.0
H700 H 0.81122 0.40303 0.41588 0.0
H701 H 0.83247 0.42607 0.44359 0.0
H702 H 0.84507 0.38577 0.44127 0.0
H703 H 0.95727 0.38342 0.39565 0.0
H704 H 0.9772 0.41886 0.43542 0.0
H705 H 0.88352 0.459 0.44299 0.0
C706 C 0.83915 0.37751 0.35439 0.0
C707 C 0.84975 0.35385 0.33462 0.0
C708 C 0.88205 0.34508 0.33583 0.0
C709 C 0.90347 0.3595 0.35601 0.0
C710 C 0.89237 0.38281 0.37489 0.0
C711 C 0.86105 0.39193 0.37429 0.0
C712 C 0.85568 0.41802 0.39687 0.0
C713 C 0.84181 0.44811 0.37562 0.0
C714 C 0.83487 0.40759 0.42614 0.0
C715 C 0.88886 0.42196 0.41025 0.0
C716 C 0.90952 0.40124 0.39721 0.0
C717 C 0.94136 0.39987 0.40588 0.0
C718 C 0.9525 0.42021 0.42842 0.0
C719 C 0.93198 0.44187 0.44202 0.0
C720 C 0.89969 0.44275 0.4328 0.0
H721 H 0.8138 0.68252 0.63634 0.0
H722 H 0.83789 0.64092 0.74024 0.0
H723 H 0.87379 0.60199 0.71856 0.0
H724 H 0.81483 0.60895 0.59864 0.0
H725 H 0.83106 0.62503 0.55967 0.0
H726 H 0.80727 0.64981 0.58325 0.0
H727 H 0.85192 0.6877 0.58622 0.0
H728 H 0.8759 0.66295 0.56279 0.0
H729 H 0.88996 0.6728 0.60387 0.0
H730 H 0.90924 0.56965 0.68622 0.0
H731 H 0.93889 0.54283 0.64541 0.0
H732 H 0.88918 0.60202 0.56124 0.0
C733 C 0.82663 0.66516 0.65446 0.0
C734 C 0.82297 0.66473 0.69005 0.0
C735 C 0.84002 0.64151 0.71292 0.0
C736 C 0.86062 0.61941 0.70084 0.0
C737 C 0.86377 0.62053 0.66572 0.0
C738 C 0.84702 0.64253 0.64277 0.0
C739 C 0.85442 0.63801 0.60625 0.0
C740 C 0.82515 0.62997 0.58575 0.0
C741 C 0.86891 0.6671 0.58876 0.0
C742 C 0.87813 0.61022 0.61234 0.0
C743 C 0.8833 0.60077 0.64687 0.0
C744 C 0.90493 0.57643 0.65907 0.0
C745 C 0.92149 0.56105 0.63544 0.0
C746 C 0.91615 0.56949 0.59965 0.0
C747 C 0.89412 0.5947 0.5882 0.0
H748 H 0.42725 0.39298 0.10063 0.0
H749 H 0.37499 0.48166 0.10322 0.0
H750 H 0.33706 0.45493 0.13959 0.0
H751 H 0.36064 0.34579 0.0965 0.0
H752 H 0.37933 0.31271 0.12325 0.0
H753 H 0.40241 0.33888 0.09757 0.0
H754 H 0.43567 0.34822 0.15173 0.0
H755 H 0.41262 0.32215 0.17758 0.0
H756 H 0.41665 0.36165 0.18763 0.0
H757 H 0.30501 0.41833 0.17688 0.0
H758 H 0.2808 0.37439 0.21012 0.0
H759 H 0.35314 0.30969 0.1821 0.0
C760 C 0.40793 0.40683 0.10899 0.0
C761 C 0.40417 0.43951 0.09896 0.0
C762 C 0.37825 0.4566 0.11016 0.0
C763 C 0.35665 0.44163 0.13103 0.0
C764 C 0.36109 0.40944 0.14047 0.0
C765 C 0.38601 0.39221 0.12964 0.0
C766 C 0.38519 0.35781 0.14295 0.0
C767 C 0.38168 0.33761 0.1133 0.0
C768 C 0.41426 0.34682 0.16637 0.0
C769 C 0.35604 0.35839 0.16306 0.0
C770 C 0.34251 0.38842 0.16147 0.0
C771 C 0.31544 0.39475 0.17829 0.0
C772 C 0.30188 0.36977 0.19712 0.0
C773 C 0.31535 0.33889 0.19895 0.0
C774 C 0.34265 0.33321 0.18147 0.0
H775 H 0.30133 0.62966 0.83675 0.0
H776 H 0.35082 0.71323 0.80999 0.0
H777 H 0.39668 0.69018 0.84656 0.0
H778 H 0.33021 0.61729 0.92555 0.0
H779 H 0.33259 0.5752 0.92709 0.0
H780 H 0.30414 0.5982 0.89839 0.0
H781 H 0.32588 0.57227 0.84747 0.0
H782 H 0.35457 0.54938 0.87598 0.0
H783 H 0.36673 0.57397 0.8396 0.0
H784 H 0.43744 0.65742 0.88561 0.0
H785 H 0.46918 0.61819 0.92566 0.0
H786 H 0.39199 0.55741 0.92949 0.0
C787 C 0.32176 0.64314 0.83895 0.0
C788 C 0.32261 0.67328 0.82091 0.0
C789 C 0.34983 0.69012 0.82382 0.0
C790 C 0.37591 0.67723 0.84447 0.0
C791 C 0.37433 0.64748 0.86215 0.0
C792 C 0.34786 0.63073 0.85979 0.0
C793 C 0.35199 0.59946 0.88183 0.0
C794 C 0.32833 0.59743 0.90988 0.0
C795 C 0.34965 0.57216 0.8599 0.0
C796 C 0.38493 0.60113 0.89682 0.0
C797 C 0.39751 0.62892 0.88499 0.0
C798 C 0.42781 0.63558 0.89499 0.0
C799 C 0.44567 0.61324 0.91763 0.0
C800 C 0.4332 0.58467 0.92998 0.0
C801 C 0.4023 0.5788 0.91975 0.0
H802 H 0.18365 0.63204 0.65051 0.0
H803 H 0.11085 0.68073 0.70024 0.0
H804 H 0.07118 0.65206 0.67125 0.0
H805 H 0.1409 0.63268 0.56941 0.0
H806 H 0.1561 0.5943 0.56205 0.0
H807 H 0.17897 0.61813 0.58731 0.0
H808 H 0.18356 0.57346 0.63739 0.0
H809 H 0.16066 0.54952 0.61228 0.0
H810 H 0.14863 0.55752 0.65375 0.0
H811 H 0.03897 0.61862 0.63604 0.0
H812 H 0.01708 0.58261 0.5972 0.0
H813 H 0.11026 0.55612 0.56979 0.0
C814 C 0.15937 0.63683 0.65521 0.0
C815 C 0.15054 0.65861 0.67799 0.0
C816 C 0.11842 0.66382 0.68352 0.0
C817 C 0.09562 0.64777 0.66695 0.0
C818 C 0.10514 0.62651 0.64478 0.0
C819 C 0.13624 0.62099 0.63886 0.0
C820 C 0.1402 0.59704 0.61362 0.0
C821 C 0.15491 0.6114 0.58118 0.0
C822 C 0.1594 0.56765 0.63027 0.0
C823 C 0.10649 0.59004 0.60622 0.0
C824 C 0.0866 0.60729 0.62447 0.0
C825 C 0.05433 0.60497 0.6217 0.0
C826 C 0.04209 0.58453 0.59969 0.0
C827 C 0.06207 0.56673 0.58086 0.0
C828 C 0.09463 0.5695 0.58416 0.0
H829 H 0.1694 0.35564 0.31129 0.0
H830 H 0.22411 0.30266 0.39625 0.0
H831 H 0.19853 0.33425 0.43611 0.0
H832 H 0.16658 0.43036 0.34372 0.0
H833 H 0.12651 0.44043 0.32934 0.0
H834 H 0.15018 0.4148 0.3066 0.0
H835 H 0.10969 0.37244 0.31419 0.0
H836 H 0.08579 0.39803 0.33673 0.0
H837 H 0.09815 0.35927 0.35648 0.0
H838 H 0.16794 0.37211 0.46729 0.0
H839 H 0.13029 0.41008 0.48802 0.0
H840 H 0.09191 0.43573 0.38426 0.0
C841 C 0.17594 0.35036 0.33824 0.0
C842 C 0.19957 0.32684 0.35015 0.0
C843 C 0.20711 0.32112 0.38589 0.0
C844 C 0.19244 0.33882 0.40898 0.0
C845 C 0.16972 0.36195 0.39631 0.0
C846 C 0.16108 0.36746 0.36187 0.0
C847 C 0.13485 0.39282 0.35527 0.0
C848 C 0.14516 0.42129 0.33237 0.0
C849 C 0.10537 0.37986 0.33975 0.0
C850 C 0.13021 0.40067 0.39138 0.0
C851 C 0.15089 0.38284 0.41457 0.0
C852 C 0.15155 0.38614 0.44938 0.0
C853 C 0.13023 0.40792 0.4609 0.0
C854 C 0.10822 0.42589 0.43781 0.0
C855 C 0.10838 0.42222 0.40254 0.0
loop_
_geom_bond_atom_site_label_1
_geom_bond_atom_site_label_2
_geom_bond_distance
_geom_bond_site_symmetry_2
_ccdc_geom_bond_type
C0 C1 1.443 . S
C0 N4 1.376 . S
C0 C38 1.389 . S
C1 C0 1.443 . S
C1 C2 1.340 . S
C1 H41 0.951 . S
C2 C1 1.340 . S
C2 C3 1.439 . S
C2 H42 0.950 . S
C3 C2 1.439 . S
C3 N4 1.374 . S
C3 C37 1.395 1_455 S
N4 C0 1.376 . S
N4 C3 1.374 . S
N4 Co5 2.005 1_565 S
Co5 N4 2.005 1_545 S
Co5 N6 1.994 1_445 S
Co5 N11 2.011 1_455 S
Co5 N16 1.993 . S
Co5 N21 2.284 . S
Co5 N27 2.281 1_445 S
N6 Co5 1.994 1_665 S
N6 C7 1.378 . S
N6 C10 1.381 1_565 S
C7 N6 1.378 . S
C7 C8 1.446 . S
C7 C37 1.391 . S
C8 C7 1.446 . S
C8 C9 1.339 1_565 S
C8 H43 0.949 . S
C9 C8 1.339 1_545 S
C9 C10 1.439 . S
C9 H44 0.950 . S
C10 N6 1.381 1_545 S
C10 C9 1.439 . S
C10 C39 1.392 . S
N11 Co5 2.011 1_655 S
N11 C12 1.376 . S
N11 C15 1.374 . S
C12 N11 1.376 . S
C12 C13 1.443 . S
C12 C39 1.389 . S
C13 C12 1.443 . S
C13 C14 1.340 . S
C13 H45 0.951 . S
C14 C13 1.340 . S
C14 C15 1.439 . S
C14 H46 0.950 . S
C15 N11 1.374 . S
C15 C14 1.439 . S
C15 C40 1.395 1_655 S
N16 Co5 1.993 . S
N16 C17 1.390 . S
N16 C20 1.371 1_545 S
C17 N16 1.390 . S
C17 C18 1.446 . S
C17 C40 1.391 . S
C18 C17 1.446 . S
C18 C19 1.339 1_545 S
C18 H47 0.949 . S
C19 C18 1.339 1_565 S
C19 C20 1.439 . S
C19 H48 0.950 . S
C20 N16 1.371 1_565 S
C20 C19 1.439 . S
C20 C38 1.392 . S
N21 Co5 2.284 . S
N21 C24 1.332 . S
N21 C26 1.332 . S
C22 C23 1.386 . S
C22 C25 1.388 . S
C23 C22 1.386 . S
C23 C24 1.382 . S
C23 H49 0.950 . S
C24 N21 1.332 . S
C24 C23 1.382 . S
C24 H35 0.952 . S
C25 C22 1.388 . S
C25 C26 1.382 . S
C25 H50 0.950 . S
C26 N21 1.332 . S
C26 C25 1.382 . S
C26 H36 0.948 . S
N27 Co5 2.281 1_665 S
N27 C31 1.332 . S
N27 C32 1.332 . S
C28 C29 1.388 . S
C28 C32 1.382 . S
C28 H51 0.950 . S
C29 C28 1.388 . S
C29 C30 1.386 . S
C30 C29 1.386 . S
C30 C31 1.382 . S
C30 H52 0.950 . S
C31 N27 1.332 . S
C31 C30 1.382 . S
C31 H33 0.952 . S
C32 N27 1.332 . S
C32 C28 1.382 . S
C32 H34 0.948 . S
H33 C31 0.952 . S
H34 C32 0.948 . S
H35 C24 0.952 . S
H36 C26 0.948 . S
C37 C3 1.395 1_655 S
C37 C7 1.391 . S
C38 C0 1.389 . S
C38 C20 1.392 . S
C39 C10 1.392 . S
C39 C12 1.389 . S
C40 C15 1.395 1_455 S
C40 C17 1.391 . S
H41 C1 0.951 . S
H42 C2 0.950 . S
H43 C8 0.949 . S
H44 C9 0.950 . S
H45 C13 0.951 . S
H46 C14 0.950 . S
H47 C18 0.949 . S
H48 C19 0.950 . S
H49 C23 0.950 . S
H50 C25 0.950 . S
H51 C28 0.950 . S
H52 C30 0.950 . S
C53 C54 1.443 . S
C53 N57 1.376 . S
C53 C91 1.389 . S
C54 C53 1.443 . S
C54 C55 1.340 . S
C54 H94 0.951 . S
C55 C54 1.340 . S
C55 C56 1.439 . S
C55 H95 0.950 . S
C56 C55 1.439 . S
C56 N57 1.374 . S
C56 C90 1.395 . S
N57 C53 1.376 . S
N57 C56 1.374 . S
N57 Co58 2.008 . S
Co58 N57 2.008 . S
Co58 N59 1.995 . S
Co58 N64 2.008 . S
Co58 N69 1.995 . S
Co58 N74 2.282 . S
Co58 N80 2.282 . S
N59 Co58 1.995 . S
N59 C60 1.376 . S
N59 C63 1.383 . S
C60 N59 1.376 . S
C60 C61 1.446 . S
C60 C90 1.391 . S
C61 C60 1.446 . S
C61 C62 1.339 . S
C61 H96 0.949 . S
C62 C61 1.339 . S
C62 C63 1.439 . S
C62 H97 0.950 . S
C63 N59 1.383 . S
C63 C62 1.439 . S
C63 C92 1.392 . S
N64 Co58 2.008 . S
N64 C65 1.376 . S
N64 C68 1.374 . S
C65 N64 1.376 . S
C65 C66 1.443 . S
C65 C92 1.389 . S
C66 C65 1.443 . S
C66 C67 1.340 . S
C66 H98 0.951 . S
C67 C66 1.340 . S
C67 C68 1.439 . S
C67 H99 0.950 . S
C68 N64 1.374 . S
C68 C67 1.439 . S
C68 C93 1.395 . S
N69 Co58 1.995 . S
N69 C70 1.376 . S
N69 C73 1.383 . S
C70 N69 1.376 . S
C70 C71 1.446 . S
C70 C93 1.391 . S
C71 C70 1.446 . S
C71 C72 1.339 . S
C71 H100 0.949 . S
C72 C71 1.339 . S
C72 C73 1.439 . S
C72 H101 0.950 . S
C73 N69 1.383 . S
C73 C72 1.439 . S
C73 C91 1.392 . S
N74 Co58 2.282 . S
N74 C77 1.332 . S
N74 C79 1.332 . S
C75 C76 1.386 . S
C75 C78 1.388 . S
C76 C75 1.386 . S
C76 C77 1.382 . S
C76 H102 0.950 . S
C77 N74 1.332 . S
C77 C76 1.382 . S
C77 H88 0.952 . S
C78 C75 1.388 . S
C78 C79 1.382 . S
C78 H103 0.950 . S
C79 N74 1.332 . S
C79 C78 1.382 . S
C79 H89 0.948 . S
N80 Co58 2.282 . S
N80 C84 1.332 . S
N80 C85 1.332 . S
C81 C82 1.388 . S
C81 C85 1.382 . S
C81 H104 0.950 . S
C82 C81 1.388 . S
C82 C83 1.386 . S
C83 C82 1.386 . S
C83 C84 1.382 . S
C83 H105 0.950 . S
C84 N80 1.332 . S
C84 C83 1.382 . S
C84 H86 0.952 . S
C85 N80 1.332 . S
C85 C81 1.382 . S
C85 H87 0.948 . S
H86 C84 0.952 . S
H87 C85 0.948 . S
H88 C77 0.952 . S
H89 C79 0.948 . S
C90 C56 1.395 . S
C90 C60 1.391 . S
C91 C53 1.389 . S
C91 C73 1.392 . S
C92 C63 1.392 . S
C92 C65 1.389 . S
C93 C68 1.395 . S
C93 C70 1.391 . S
H94 C54 0.951 . S
H95 C55 0.950 . S
H96 C61 0.949 . S
H97 C62 0.950 . S
H98 C66 0.951 . S
H99 C67 0.950 . S
H100 C71 0.949 . S
H101 C72 0.950 . S
H102 C76 0.950 . S
H103 C78 0.950 . S
H104 C81 0.950 . S
H105 C83 0.950 . S
C106 C107 1.439 1_554 S
C106 N110 1.376 1_554 S
C106 C144 1.389 . S
C107 C106 1.439 1_556 S
C107 C108 1.356 . S
C107 H147 0.942 1_556 S
C108 C107 1.356 . S
C108 C109 1.439 . S
C108 H148 0.950 . S
C109 C108 1.439 . S
C109 N110 1.374 . S
C109 C143 1.395 . S
N110 C106 1.376 1_556 S
N110 C109 1.374 . S
N110 Co111 2.013 1_556 S
Co111 N110 2.013 1_554 S
Co111 N112 1.992 1_554 S
Co111 N117 2.003 1_545 S
Co111 N122 1.997 1_545 S
Co111 N127 2.277 1_544 S
Co111 N133 2.288 . S
N112 Co111 1.992 1_556 S
N112 C113 1.376 . S
N112 C116 1.383 1_545 S
C113 N112 1.376 . S
C113 C114 1.446 . S
C113 C143 1.391 . S
C114 C113 1.446 . S
C114 C115 1.359 . S
C114 H149 0.949 . S
C115 C114 1.359 . S
C115 C116 1.432 1_545 S
C115 H150 0.939 1_545 S
C116 N112 1.383 1_565 S
C116 C115 1.432 1_565 S
C116 C145 1.392 . S
N117 Co111 2.003 1_565 S
N117 C118 1.376 1_554 S
N117 C121 1.374 . S
C118 N117 1.376 1_556 S
C118 C119 1.436 1_556 S
C118 C145 1.389 . S
C119 C118 1.436 1_554 S
C119 C120 1.370 . S
C119 H151 0.934 1_554 S
C120 C119 1.370 . S
C120 C121 1.439 . S
C120 H152 0.950 . S
C121 N117 1.374 . S
C121 C120 1.439 . S
C121 C146 1.395 . S
N122 Co111 1.997 1_565 S
N122 C123 1.376 . S
N122 C126 1.383 1_565 S
C123 N122 1.376 . S
C123 C124 1.446 . S
C123 C146 1.391 . S
C124 C123 1.446 . S
C124 C125 1.340 . S
C124 H153 0.949 . S
C125 C124 1.340 . S
C125 C126 1.438 1_565 S
C125 H154 0.949 1_565 S
C126 N122 1.383 1_545 S
C126 C125 1.438 1_545 S
C126 C144 1.392 . S
N127 Co111 2.277 1_566 S
N127 C130 1.332 . S
N127 C132 1.332 . S
C128 C129 1.386 . S
C128 C131 1.388 . S
C129 C128 1.386 . S
C129 C130 1.382 . S
C129 H155 0.950 . S
C130 N127 1.332 . S
C130 C129 1.382 . S
C130 H141 0.952 1_556 S
C131 C128 1.388 . S
C131 C132 1.382 . S
C131 H156 0.950 . S
C132 N127 1.332 . S
C132 C131 1.382 . S
C132 H142 0.948 . S
N133 Co111 2.288 . S
N133 C137 1.332 . S
N133 C138 1.332 . S
C134 C135 1.388 . S
C134 C138 1.382 . S
C134 H157 0.950 . S
C135 C134 1.388 . S
C135 C136 1.386 . S
C136 C135 1.386 . S
C136 C137 1.382 . S
C136 H158 0.950 . S
C137 N133 1.332 . S
C137 C136 1.382 . S
C137 H139 0.952 1_554 S
C138 N133 1.332 . S
C138 C134 1.382 . S
C138 H140 0.948 . S
H139 C137 0.952 1_556 S
H140 C138 0.948 . S
H141 C130 0.952 1_554 S
H142 C132 0.948 . S
C143 C109 1.395 . S
C143 C113 1.391 . S
C144 C106 1.389 . S
C144 C126 1.392 . S
C145 C116 1.392 . S
C145 C118 1.389 . S
C146 C121 1.395 . S
C146 C123 1.391 . S
H147 C107 0.942 1_554 S
H148 C108 0.950 . S
H149 C114 0.949 . S
H150 C115 0.939 1_565 S
H151 C119 0.934 1_556 S
H152 C120 0.950 . S
H153 C124 0.949 . S
H154 C125 0.949 1_545 S
H155 C129 0.950 . S
H156 C131 0.950 . S
H157 C134 0.950 . S
H158 C136 0.950 . S
C159 C160 1.443 . S
C159 N163 1.376 . S
C159 C197 1.389 . S
C160 C159 1.443 . S
C160 C161 1.340 . S
C160 H200 0.951 . S
C161 C160 1.340 . S
C161 C162 1.439 . S
C161 H201 0.950 . S
C162 C161 1.439 . S
C162 N163 1.374 . S
C162 C196 1.395 . S
N163 C159 1.376 . S
N163 C162 1.374 . S
N163 Co164 2.008 . S
Co164 N163 2.008 . S
Co164 N165 1.995 . S
Co164 N170 2.008 . S
Co164 N175 1.995 . S
Co164 N180 2.282 . S
Co164 N186 2.282 . S
N165 Co164 1.995 . S
N165 C166 1.376 . S
N165 C169 1.383 . S
C166 N165 1.376 . S
C166 C167 1.446 . S
C166 C196 1.391 . S
C167 C166 1.446 . S
C167 C168 1.339 . S
C167 H202 0.949 . S
C168 C167 1.339 . S
C168 C169 1.439 . S
C168 H203 0.950 . S
C169 N165 1.383 . S
C169 C168 1.439 . S
C169 C198 1.392 . S
N170 Co164 2.008 . S
N170 C171 1.376 . S
N170 C174 1.374 . S
C171 N170 1.376 . S
C171 C172 1.443 . S
C171 C198 1.389 . S
C172 C171 1.443 . S
C172 C173 1.340 . S
C172 H204 0.951 . S
C173 C172 1.340 . S
C173 C174 1.439 . S
C173 H205 0.950 . S
C174 N170 1.374 . S
C174 C173 1.439 . S
C174 C199 1.395 . S
N175 Co164 1.995 . S
N175 C176 1.376 . S
N175 C179 1.383 . S
C176 N175 1.376 . S
C176 C177 1.446 . S
C176 C199 1.391 . S
C177 C176 1.446 . S
C177 C178 1.339 . S
C177 H206 0.949 . S
C178 C177 1.339 . S
C178 C179 1.439 . S
C178 H207 0.950 . S
C179 N175 1.383 . S
C179 C178 1.439 . S
C179 C197 1.392 . S
N180 Co164 2.282 . S
N180 C183 1.332 . S
N180 C185 1.332 . S
C181 C182 1.386 . S
C181 C184 1.388 . S
C182 C181 1.386 . S
C182 C183 1.382 . S
C182 H208 0.950 . S
C183 N180 1.332 . S
C183 C182 1.382 . S
C183 H194 0.952 . S
C184 C181 1.388 . S
C184 C185 1.382 . S
C184 H209 0.950 . S
C185 N180 1.332 . S
C185 C184 1.382 . S
C185 H195 0.948 . S
N186 Co164 2.282 . S
N186 C190 1.332 . S
N186 C191 1.332 . S
C187 C188 1.388 . S
C187 C191 1.382 . S
C187 H210 0.950 . S
C188 C187 1.388 . S
C188 C189 1.386 . S
C189 C188 1.386 . S
C189 C190 1.382 . S
C189 H211 0.950 . S
C190 N186 1.332 . S
C190 C189 1.382 . S
C190 H192 0.952 . S
C191 N186 1.332 . S
C191 C187 1.382 . S
C191 H193 0.948 . S
H192 C190 0.952 . S
H193 C191 0.948 . S
H194 C183 0.952 . S
H195 C185 0.948 . S
C196 C162 1.395 . S
C196 C166 1.391 . S
C197 C159 1.389 . S
C197 C179 1.392 . S
C198 C169 1.392 . S
C198 C171 1.389 . S
C199 C174 1.395 . S
C199 C176 1.391 . S
H200 C160 0.951 . S
H201 C161 0.950 . S
H202 C167 0.949 . S
H203 C168 0.950 . S
H204 C172 0.951 . S
H205 C173 0.950 . S
H206 C177 0.949 . S
H207 C178 0.950 . S
H208 C182 0.950 . S
H209 C184 0.950 . S
H210 C187 0.950 . S
H211 C189 0.950 . S
C212 C213 1.443 . S
C212 N216 1.376 . S
C212 C250 1.389 . S
C213 C212 1.443 . S
C213 C214 1.340 . S
C213 H253 0.951 . S
C214 C213 1.340 . S
C214 C215 1.439 . S
C214 H254 0.950 . S
C215 C214 1.439 . S
C215 N216 1.374 . S
C215 C249 1.395 . S
N216 C212 1.376 . S
N216 C215 1.374 . S
N216 Co217 2.008 . S
Co217 N216 2.008 . S
Co217 N218 1.995 . S
Co217 N223 2.008 . S
Co217 N228 1.995 . S
Co217 N233 2.282 . S
Co217 N239 2.282 . S
N218 Co217 1.995 . S
N218 C219 1.376 . S
N218 C222 1.383 . S
C219 N218 1.376 . S
C219 C220 1.446 . S
C219 C249 1.391 . S
C220 C219 1.446 . S
C220 C221 1.339 . S
C220 H255 0.949 . S
C221 C220 1.339 . S
C221 C222 1.439 . S
C221 H256 0.950 . S
C222 N218 1.383 . S
C222 C221 1.439 . S
C222 C251 1.392 . S
N223 Co217 2.008 . S
N223 C224 1.376 . S
N223 C227 1.374 . S
C224 N223 1.376 . S
C224 C225 1.443 . S
C224 C251 1.389 . S
C225 C224 1.443 . S
C225 C226 1.340 . S
C225 H257 0.951 . S
C226 C225 1.340 . S
C226 C227 1.439 . S
C226 H258 0.950 . S
C227 N223 1.374 . S
C227 C226 1.439 . S
C227 C252 1.395 . S
N228 Co217 1.995 . S
N228 C229 1.376 . S
N228 C232 1.383 . S
C229 N228 1.376 . S
C229 C230 1.446 . S
C229 C252 1.391 . S
C230 C229 1.446 . S
C230 C231 1.339 . S
C230 H259 0.949 . S
C231 C230 1.339 . S
C231 C232 1.439 . S
C231 H260 0.950 . S
C232 N228 1.383 . S
C232 C231 1.439 . S
C232 C250 1.392 . S
N233 Co217 2.282 . S
N233 C236 1.332 . S
N233 C238 1.332 . S
C234 C235 1.386 . S
C234 C237 1.388 . S
C235 C234 1.386 . S
C235 C236 1.382 . S
C235 H261 0.950 . S
C236 N233 1.332 . S
C236 C235 1.382 . S
C236 H247 0.952 . S
C237 C234 1.388 . S
C237 C238 1.382 . S
C237 H262 0.950 . S
C238 N233 1.332 . S
C238 C237 1.382 . S
C238 H248 0.948 . S
N239 Co217 2.282 . S
N239 C243 1.332 . S
N239 C244 1.332 . S
C240 C241 1.388 . S
C240 C244 1.382 . S
C240 H263 0.950 . S
C241 C240 1.388 . S
C241 C242 1.386 . S
C242 C241 1.386 . S
C242 C243 1.382 . S
C242 H264 0.950 . S
C243 N239 1.332 . S
C243 C242 1.382 . S
C243 H245 0.952 . S
C244 N239 1.332 . S
C244 C240 1.382 . S
C244 H246 0.948 . S
H245 C243 0.952 . S
H246 C244 0.948 . S
H247 C236 0.952 . S
H248 C238 0.948 . S
C249 C215 1.395 . S
C249 C219 1.391 . S
C250 C212 1.389 . S
C250 C232 1.392 . S
C251 C222 1.392 . S
C251 C224 1.389 . S
C252 C227 1.395 . S
C252 C229 1.391 . S
H253 C213 0.951 . S
H254 C214 0.950 . S
H255 C220 0.949 . S
H256 C221 0.950 . S
H257 C225 0.951 . S
H258 C226 0.950 . S
H259 C230 0.949 . S
H260 C231 0.950 . S
H261 C235 0.950 . S
H262 C237 0.950 . S
H263 C240 0.950 . S
H264 C242 0.950 . S
C265 C266 1.443 . S
C265 N269 1.376 . S
C265 C303 1.389 . S
C266 C265 1.443 . S
C266 C267 1.340 . S
C266 H306 0.951 . S
C267 C266 1.340 . S
C267 C268 1.439 . S
C267 H307 0.950 . S
C268 C267 1.439 . S
C268 N269 1.374 . S
C268 C302 1.395 . S
N269 C265 1.376 . S
N269 C268 1.374 . S
N269 Co270 2.008 . S
Co270 N269 2.008 . S
Co270 N271 1.995 . S
Co270 N276 2.008 . S
Co270 N281 1.995 . S
Co270 N286 2.282 . S
Co270 N292 2.282 . S
N271 Co270 1.995 . S
N271 C272 1.376 . S
N271 C275 1.383 . S
C272 N271 1.376 . S
C272 C273 1.446 . S
C272 C302 1.391 . S
C273 C272 1.446 . S
C273 C274 1.339 . S
C273 H308 0.949 . S
C274 C273 1.339 . S
C274 C275 1.439 . S
C274 H309 0.950 . S
C275 N271 1.383 . S
C275 C274 1.439 . S
C275 C304 1.392 . S
N276 Co270 2.008 . S
N276 C277 1.376 . S
N276 C280 1.374 . S
C277 N276 1.376 . S
C277 C278 1.443 . S
C277 C304 1.389 . S
C278 C277 1.443 . S
C278 C279 1.340 . S
C278 H310 0.951 . S
C279 C278 1.340 . S
C279 C280 1.439 . S
C279 H311 0.950 . S
C280 N276 1.374 . S
C280 C279 1.439 . S
C280 C305 1.395 . S
N281 Co270 1.995 . S
N281 C282 1.376 . S
N281 C285 1.383 . S
C282 N281 1.376 . S
C282 C283 1.446 . S
C282 C305 1.391 . S
C283 C282 1.446 . S
C283 C284 1.339 . S
C283 H312 0.949 . S
C284 C283 1.339 . S
C284 C285 1.439 . S
C284 H313 0.950 . S
C285 N281 1.383 . S
C285 C284 1.439 . S
C285 C303 1.392 . S
N286 Co270 2.282 . S
N286 C289 1.332 . S
N286 C291 1.332 . S
C287 C288 1.386 . S
C287 C290 1.388 . S
C288 C287 1.386 . S
C288 C289 1.382 . S
C288 H314 0.950 . S
C289 N286 1.332 . S
C289 C288 1.382 . S
C289 H300 0.952 . S
C290 C287 1.388 . S
C290 C291 1.382 . S
C290 H315 0.950 . S
C291 N286 1.332 . S
C291 C290 1.382 . S
C291 H301 0.948 . S
N292 Co270 2.282 . S
N292 C296 1.332 . S
N292 C297 1.332 . S
C293 C294 1.388 . S
C293 C297 1.382 . S
C293 H316 0.950 . S
C294 C293 1.388 . S
C294 C295 1.386 . S
C295 C294 1.386 . S
C295 C296 1.382 . S
C295 H317 0.950 . S
C296 N292 1.332 . S
C296 C295 1.382 . S
C296 H298 0.952 . S
C297 N292 1.332 . S
C297 C293 1.382 . S
C297 H299 0.948 . S
H298 C296 0.952 . S
H299 C297 0.948 . S
H300 C289 0.952 . S
H301 C291 0.948 . S
C302 C268 1.395 . S
C302 C272 1.391 . S
C303 C265 1.389 . S
C303 C285 1.392 . S
C304 C275 1.392 . S
C304 C277 1.389 . S
C305 C280 1.395 . S
C305 C282 1.391 . S
H306 C266 0.951 . S
H307 C267 0.950 . S
H308 C273 0.949 . S
H309 C274 0.950 . S
H310 C278 0.951 . S
H311 C279 0.950 . S
H312 C283 0.949 . S
H313 C284 0.950 . S
H314 C288 0.950 . S
H315 C290 0.950 . S
H316 C293 0.950 . S
H317 C295 0.950 . S
C318 C319 1.443 . S
C318 N322 1.376 . S
C318 C356 1.389 . S
C319 C318 1.443 . S
C319 C320 1.340 . S
C319 H359 0.951 . S
C320 C319 1.340 . S
C320 C321 1.439 . S
C320 H360 0.950 . S
C321 C320 1.439 . S
C321 N322 1.374 . S
C321 C355 1.395 . S
N322 C318 1.376 . S
N322 C321 1.374 . S
N322 Co323 2.002 1_556 S
Co323 N322 2.002 1_554 S
Co323 N324 1.993 1_554 S
Co323 N329 2.014 . S
Co323 N334 1.996 . S
Co323 N339 2.285 . S
Co323 N345 2.280 1_554 S
N324 Co323 1.993 1_556 S
N324 C325 1.376 . S
N324 C328 1.383 1_556 S
C325 N324 1.376 . S
C325 C326 1.446 . S
C325 C355 1.391 . S
C326 C325 1.446 . S
C326 C327 1.339 1_556 S
C326 H361 0.949 . S
C327 C326 1.339 1_554 S
C327 C328 1.439 . S
C327 H362 0.950 . S
C328 N324 1.383 1_554 S
C328 C327 1.439 . S
C328 C357 1.392 . S
N329 Co323 2.014 . S
N329 C330 1.376 . S
N329 C333 1.374 . S
C330 N329 1.376 . S
C330 C331 1.443 . S
C330 C357 1.389 . S
C331 C330 1.443 . S
C331 C332 1.340 . S
C331 H363 0.951 . S
C332 C331 1.340 . S
C332 C333 1.439 . S
C332 H364 0.950 . S
C333 N329 1.374 . S
C333 C332 1.439 . S
C333 C358 1.395 . S
N334 Co323 1.996 . S
N334 C335 1.376 . S
N334 C338 1.383 1_554 S
C335 N334 1.376 . S
C335 C336 1.446 . S
C335 C358 1.391 . S
C336 C335 1.446 . S
C336 C337 1.339 1_554 S
C336 H365 0.949 . S
C337 C336 1.339 1_556 S
C337 C338 1.439 . S
C337 H366 0.950 . S
C338 N334 1.383 1_556 S
C338 C337 1.439 . S
C338 C356 1.392 . S
N339 Co323 2.285 . S
N339 C342 1.332 . S
N339 C344 1.332 . S
C340 C341 1.386 . S
C340 C343 1.388 . S
C341 C340 1.386 . S
C341 C342 1.382 . S
C341 H367 0.950 . S
C342 N339 1.332 . S
C342 C341 1.382 . S
C342 H353 0.952 . S
C343 C340 1.388 . S
C343 C344 1.382 . S
C343 H368 0.950 . S
C344 N339 1.332 . S
C344 C343 1.382 . S
C344 H354 0.948 . S
N345 Co323 2.280 1_556 S
N345 C349 1.332 . S
N345 C350 1.332 . S
C346 C347 1.388 . S
C346 C350 1.382 . S
C346 H369 0.950 . S
C347 C346 1.388 . S
C347 C348 1.386 . S
C348 C347 1.386 . S
C348 C349 1.382 . S
C348 H370 0.950 . S
C349 N345 1.332 . S
C349 C348 1.382 . S
C349 H351 0.952 . S
C350 N345 1.332 . S
C350 C346 1.382 . S
C350 H352 0.948 . S
H351 C349 0.952 . S
H352 C350 0.948 . S
H353 C342 0.952 . S
H354 C344 0.948 . S
C355 C321 1.395 . S
C355 C325 1.391 . S
C356 C318 1.389 . S
C356 C338 1.392 . S
C357 C328 1.392 . S
C357 C330 1.389 . S
C358 C333 1.395 . S
C358 C335 1.391 . S
H359 C319 0.951 . S
H360 C320 0.950 . S
H361 C326 0.949 . S
H362 C327 0.950 . S
H363 C331 0.951 . S
H364 C332 0.950 . S
H365 C336 0.949 . S
H366 C337 0.950 . S
H367 C341 0.950 . S
H368 C343 0.950 . S
H369 C346 0.950 . S
H370 C348 0.950 . S
C371 C372 1.443 . S
C371 N375 1.376 . S
C371 C409 1.389 . S
C372 C371 1.443 . S
C372 C373 1.340 . S
C372 H412 0.951 . S
C373 C372 1.340 . S
C373 C374 1.439 . S
C373 H413 0.950 . S
C374 C373 1.439 . S
C374 N375 1.374 . S
C374 C408 1.376 1_455 S
N375 C371 1.376 . S
N375 C374 1.374 . S
N375 Co376 2.008 . S
Co376 N375 2.008 . S
Co376 N377 1.995 1_455 S
Co376 N382 2.008 1_455 S
Co376 N387 1.995 . S
Co376 N392 2.282 . S
Co376 N398 2.282 1_455 S
N377 Co376 1.995 1_655 S
N377 C378 1.376 . S
N377 C381 1.383 . S
C378 N377 1.376 . S
C378 C379 1.446 . S
C378 C408 1.408 . S
C379 C378 1.446 . S
C379 C380 1.339 . S
C379 H414 0.949 . S
C380 C379 1.339 . S
C380 C381 1.439 . S
C380 H415 0.950 . S
C381 N377 1.383 . S
C381 C380 1.439 . S
C381 C410 1.392 . S
N382 Co376 2.008 1_655 S
N382 C383 1.376 . S
N382 C386 1.374 . S
C383 N382 1.376 . S
C383 C384 1.443 . S
C383 C410 1.389 . S
C384 C383 1.443 . S
C384 C385 1.340 . S
C384 H416 0.951 . S
C385 C384 1.340 . S
C385 C386 1.439 . S
C385 H417 0.950 . S
C386 N382 1.374 . S
C386 C385 1.439 . S
C386 C411 1.395 1_655 S
N387 Co376 1.995 . S
N387 C388 1.376 . S
N387 C391 1.383 . S
C388 N387 1.376 . S
C388 C389 1.446 . S
C388 C411 1.391 . S
C389 C388 1.446 . S
C389 C390 1.339 . S
C389 H418 0.949 . S
C390 C389 1.339 . S
C390 C391 1.439 . S
C390 H419 0.950 . S
C391 N387 1.383 . S
C391 C390 1.439 . S
C391 C409 1.392 . S
N392 Co376 2.282 . S
N392 C395 1.332 . S
N392 C397 1.332 . S
C393 C394 1.386 . S
C393 C396 1.388 . S
C394 C393 1.386 . S
C394 C395 1.382 . S
C394 H420 0.950 . S
C395 N392 1.332 . S
C395 C394 1.382 . S
C395 H406 0.952 . S
C396 C393 1.388 . S
C396 C397 1.382 . S
C396 H421 0.950 . S
C397 N392 1.332 . S
C397 C396 1.382 . S
C397 H407 0.948 . S
N398 Co376 2.282 1_655 S
N398 C402 1.332 . S
N398 C403 1.332 . S
C399 C400 1.388 . S
C399 C403 1.382 . S
C399 H422 0.950 . S
C400 C399 1.388 . S
C400 C401 1.386 . S
C401 C400 1.386 . S
C401 C402 1.382 . S
C401 H423 0.950 . S
C402 N398 1.332 . S
C402 C401 1.382 . S
C402 H404 0.952 . S
C403 N398 1.332 . S
C403 C399 1.382 . S
C403 H405 0.948 . S
H404 C402 0.952 . S
H405 C403 0.948 . S
H406 C395 0.952 . S
H407 C397 0.948 . S
C408 C374 1.376 1_655 S
C408 C378 1.408 . S
C409 C371 1.389 . S
C409 C391 1.392 . S
C410 C381 1.392 . S
C410 C383 1.389 . S
C411 C386 1.395 1_455 S
C411 C388 1.391 . S
H412 C372 0.951 . S
H413 C373 0.950 . S
H414 C379 0.949 . S
H415 C380 0.950 . S
H416 C384 0.951 . S
H417 C385 0.950 . S
H418 C389 0.949 . S
H419 C390 0.950 . S
H420 C394 0.950 . S
H421 C396 0.950 . S
H422 C399 0.950 . S
H423 C401 0.950 . S
H424 C436 0.930 . S
H425 C438 0.930 . S
H426 C439 0.930 . S
H427 C443 0.959 . S
H428 C443 0.959 . S
H429 C443 0.961 . S
H430 C444 0.960 . S
H431 C444 0.961 . S
H432 C444 0.959 . S
H433 C447 0.929 . S
H434 C448 0.931 . S
H435 C450 0.930 . S
C436 H424 0.930 . S
C436 C437 1.399 . S
C436 C441 1.399 . S
C437 C436 1.399 . S
C437 C438 1.376 . S
C438 H425 0.930 . S
C438 C437 1.376 . S
C438 C439 1.388 . S
C439 H426 0.930 . S
C439 C438 1.388 . S
C439 C440 1.390 . S
C440 C439 1.390 . S
C440 C441 1.394 . S
C440 C446 1.465 . S
C441 C436 1.399 . S
C441 C440 1.394 . S
C441 C442 1.516 . S
C442 C441 1.516 . S
C442 C443 1.502 . S
C442 C444 1.561 . S
C442 C445 1.526 . S
C443 H427 0.959 . S
C443 H428 0.959 . S
C443 H429 0.961 . S
C443 C442 1.502 . S
C444 H430 0.960 . S
C444 H431 0.961 . S
C444 H432 0.959 . S
C444 C442 1.561 . S
C445 C442 1.526 . S
C445 C446 1.396 . S
C445 C450 1.390 . S
C446 C440 1.465 . S
C446 C445 1.396 . S
C446 C447 1.399 . S
C447 H433 0.929 . S
C447 C446 1.399 . S
C447 C448 1.385 . S
C448 H434 0.931 . S
C448 C447 1.385 . S
C448 C449 1.389 . S
C449 C448 1.389 . S
C449 C450 1.387 . S
C450 H435 0.930 . S
C450 C445 1.390 . S
C450 C449 1.387 . S
H451 C463 0.930 . S
H452 C465 0.930 . S
H453 C466 0.930 . S
H454 C470 0.959 . S
H455 C470 0.959 . S
H456 C470 0.961 . S
H457 C471 0.960 . S
H458 C471 0.961 . S
H459 C471 0.959 . S
H460 C474 0.929 . S
H461 C475 0.931 . S
H462 C477 0.930 . S
C463 H451 0.930 . S
C463 C464 1.399 . S
C463 C468 1.399 . S
C464 C463 1.399 . S
C464 C465 1.376 . S
C465 H452 0.930 . S
C465 C464 1.376 . S
C465 C466 1.388 . S
C466 H453 0.930 . S
C466 C465 1.388 . S
C466 C467 1.390 . S
C467 C466 1.390 . S
C467 C468 1.394 . S
C467 C473 1.465 . S
C468 C463 1.399 . S
C468 C467 1.394 . S
C468 C469 1.516 . S
C469 C468 1.516 . S
C469 C470 1.502 . S
C469 C471 1.561 . S
C469 C472 1.526 . S
C470 H454 0.959 . S
C470 H455 0.959 . S
C470 H456 0.961 . S
C470 C469 1.502 . S
C471 H457 0.960 . S
C471 H458 0.961 . S
C471 H459 0.959 . S
C471 C469 1.561 . S
C472 C469 1.526 . S
C472 C473 1.396 . S
C472 C477 1.390 . S
C473 C467 1.465 . S
C473 C472 1.396 . S
C473 C474 1.399 . S
C474 H460 0.929 . S
C474 C473 1.399 . S
C474 C475 1.385 . S
C475 H461 0.931 . S
C475 C474 1.385 . S
C475 C476 1.389 . S
C476 C475 1.389 . S
C476 C477 1.387 . S
C477 H462 0.930 . S
C477 C472 1.390 . S
C477 C476 1.387 . S
H478 C490 0.930 . S
H479 C492 0.930 . S
H480 C493 0.930 . S
H481 C497 0.959 . S
H482 C497 0.959 . S
H483 C497 0.961 . S
H484 C498 0.960 . S
H485 C498 0.961 . S
H486 C498 0.959 . S
H487 C501 0.929 . S
H488 C502 0.931 . S
H489 C504 0.930 . S
C490 H478 0.930 . S
C490 C491 1.399 . S
C490 C495 1.399 . S
C491 C490 1.399 . S
C491 C492 1.376 . S
C492 H479 0.930 . S
C492 C491 1.376 . S
C492 C493 1.388 . S
C493 H480 0.930 . S
C493 C492 1.388 . S
C493 C494 1.390 . S
C494 C493 1.390 . S
C494 C495 1.394 . S
C494 C500 1.465 . S
C495 C490 1.399 . S
C495 C494 1.394 . S
C495 C496 1.516 . S
C496 C495 1.516 . S
C496 C497 1.502 . S
C496 C498 1.561 . S
C496 C499 1.526 . S
C497 H481 0.959 . S
C497 H482 0.959 . S
C497 H483 0.961 . S
C497 C496 1.502 . S
C498 H484 0.960 . S
C498 H485 0.961 . S
C498 H486 0.959 . S
C498 C496 1.561 . S
C499 C496 1.526 . S
C499 C500 1.396 . S
C499 C504 1.390 . S
C500 C494 1.465 . S
C500 C499 1.396 . S
C500 C501 1.399 . S
C501 H487 0.929 . S
C501 C500 1.399 . S
C501 C502 1.385 . S
C502 H488 0.931 . S
C502 C501 1.385 . S
C502 C503 1.389 . S
C503 C502 1.389 . S
C503 C504 1.387 . S
C504 H489 0.930 . S
C504 C499 1.390 . S
C504 C503 1.387 . S
H505 C517 0.930 . S
H506 C519 0.930 . S
H507 C520 0.930 . S
H508 C524 0.959 . S
H509 C524 0.959 . S
H510 C524 0.961 . S
H511 C525 0.960 . S
H512 C525 0.961 . S
H513 C525 0.959 . S
H514 C528 0.929 . S
H515 C529 0.931 . S
H516 C531 0.930 . S
C517 H505 0.930 . S
C517 C518 1.399 . S
C517 C522 1.399 . S
C518 C517 1.399 . S
C518 C519 1.376 . S
C519 H506 0.930 . S
C519 C518 1.376 . S
C519 C520 1.388 . S
C520 H507 0.930 . S
C520 C519 1.388 . S
C520 C521 1.390 . S
C521 C520 1.390 . S
C521 C522 1.394 . S
C521 C527 1.465 . S
C522 C517 1.399 . S
C522 C521 1.394 . S
C522 C523 1.516 . S
C523 C522 1.516 . S
C523 C524 1.502 . S
C523 C525 1.561 . S
C523 C526 1.526 . S
C524 H508 0.959 . S
C524 H509 0.959 . S
C524 H510 0.961 . S
C524 C523 1.502 . S
C525 H511 0.960 . S
C525 H512 0.961 . S
C525 H513 0.959 . S
C525 C523 1.561 . S
C526 C523 1.526 . S
C526 C527 1.396 . S
C526 C531 1.390 . S
C527 C521 1.465 . S
C527 C526 1.396 . S
C527 C528 1.399 . S
C528 H514 0.929 . S
C528 C527 1.399 . S
C528 C529 1.385 . S
C529 H515 0.931 . S
C529 C528 1.385 . S
C529 C530 1.389 . S
C530 C529 1.389 . S
C530 C531 1.387 . S
C531 H516 0.930 . S
C531 C526 1.390 . S
C531 C530 1.387 . S
H532 C544 0.930 . S
H533 C546 0.930 . S
H534 C547 0.930 . S
H535 C551 0.959 . S
H536 C551 0.959 . S
H537 C551 0.961 . S
H538 C552 0.960 . S
H539 C552 0.961 . S
H540 C552 0.959 . S
H541 C555 0.929 . S
H542 C556 0.931 . S
H543 C558 0.930 . S
C544 H532 0.930 . S
C544 C545 1.399 . S
C544 C549 1.399 . S
C545 C544 1.399 . S
C545 C546 1.376 . S
C546 H533 0.930 . S
C546 C545 1.376 . S
C546 C547 1.388 . S
C547 H534 0.930 . S
C547 C546 1.388 . S
C547 C548 1.390 . S
C548 C547 1.390 . S
C548 C549 1.394 . S
C548 C554 1.465 . S
C549 C544 1.399 . S
C549 C548 1.394 . S
C549 C550 1.516 . S
C550 C549 1.516 . S
C550 C551 1.502 . S
C550 C552 1.561 . S
C550 C553 1.526 . S
C551 H535 0.959 . S
C551 H536 0.959 . S
C551 H537 0.961 . S
C551 C550 1.502 . S
C552 H538 0.960 . S
C552 H539 0.961 . S
C552 H540 0.959 . S
C552 C550 1.561 . S
C553 C550 1.526 . S
C553 C554 1.396 . S
C553 C558 1.390 . S
C554 C548 1.465 . S
C554 C553 1.396 . S
C554 C555 1.399 . S
C555 H541 0.929 . S
C555 C554 1.399 . S
C555 C556 1.385 . S
C556 H542 0.931 . S
C556 C555 1.385 . S
C556 C557 1.389 . S
C557 C556 1.389 . S
C557 C558 1.387 . S
C558 H543 0.930 . S
C558 C553 1.390 . S
C558 C557 1.387 . S
H559 C571 0.930 . S
H560 C573 0.930 . S
H561 C574 0.930 . S
H562 C578 0.959 . S
H563 C578 0.959 . S
H564 C578 0.961 . S
H565 C579 0.960 . S
H566 C579 0.961 . S
H567 C579 0.959 . S
H568 C582 0.929 . S
H569 C583 0.931 . S
H570 C585 0.930 . S
C571 H559 0.930 . S
C571 C572 1.399 . S
C571 C576 1.399 . S
C572 C571 1.399 . S
C572 C573 1.376 . S
C573 H560 0.930 . S
C573 C572 1.376 . S
C573 C574 1.388 . S
C574 H561 0.930 . S
C574 C573 1.388 . S
C574 C575 1.390 . S
C575 C574 1.390 . S
C575 C576 1.394 . S
C575 C581 1.465 . S
C576 C571 1.399 . S
C576 C575 1.394 . S
C576 C577 1.516 . S
C577 C576 1.516 . S
C577 C578 1.502 . S
C577 C579 1.561 . S
C577 C580 1.526 . S
C578 H562 0.959 . S
C578 H563 0.959 . S
C578 H564 0.961 . S
C578 C577 1.502 . S
C579 H565 0.960 . S
C579 H566 0.961 . S
C579 H567 0.959 . S
C579 C577 1.561 . S
C580 C577 1.526 . S
C580 C581 1.396 . S
C580 C585 1.390 . S
C581 C575 1.465 . S
C581 C580 1.396 . S
C581 C582 1.399 . S
C582 H568 0.929 . S
C582 C581 1.399 . S
C582 C583 1.385 . S
C583 H569 0.931 . S
C583 C582 1.385 . S
C583 C584 1.389 . S
C584 C583 1.389 . S
C584 C585 1.387 . S
C585 H570 0.930 . S
C585 C580 1.390 . S
C585 C584 1.387 . S
H586 C598 0.930 . S
H587 C600 0.930 . S
H588 C601 0.930 . S
H589 C605 0.959 . S
H590 C605 0.959 . S
H591 C605 0.961 . S
H592 C606 0.960 . S
H593 C606 0.961 . S
H594 C606 0.959 . S
H595 C609 0.929 . S
H596 C610 0.931 . S
H597 C612 0.930 . S
C598 H586 0.930 . S
C598 C599 1.399 . S
C598 C603 1.399 . S
C599 C598 1.399 . S
C599 C600 1.376 . S
C600 H587 0.930 . S
C600 C599 1.376 . S
C600 C601 1.388 . S
C601 H588 0.930 . S
C601 C600 1.388 . S
C601 C602 1.390 . S
C602 C601 1.390 . S
C602 C603 1.394 . S
C602 C608 1.465 . S
C603 C598 1.399 . S
C603 C602 1.394 . S
C603 C604 1.516 . S
C604 C603 1.516 . S
C604 C605 1.502 . S
C604 C606 1.561 . S
C604 C607 1.526 . S
C605 H589 0.959 . S
C605 H590 0.959 . S
C605 H591 0.961 . S
C605 C604 1.502 . S
C606 H592 0.960 . S
C606 H593 0.961 . S
C606 H594 0.959 . S
C606 C604 1.561 . S
C607 C604 1.526 . S
C607 C608 1.396 . S
C607 C612 1.390 . S
C608 C602 1.465 . S
C608 C607 1.396 . S
C608 C609 1.399 . S
C609 H595 0.929 . S
C609 C608 1.399 . S
C609 C610 1.385 . S
C610 H596 0.931 . S
C610 C609 1.385 . S
C610 C611 1.389 . S
C611 C610 1.389 . S
C611 C612 1.387 . S
C612 H597 0.930 . S
C612 C607 1.390 . S
C612 C611 1.387 . S
H613 C625 0.930 . S
H614 C627 0.930 . S
H615 C628 0.930 . S
H616 C632 0.959 . S
H617 C632 0.959 . S
H618 C632 0.961 . S
H619 C633 0.960 . S
H620 C633 0.961 . S
H621 C633 0.959 . S
H622 C636 0.929 . S
H623 C637 0.931 . S
H624 C639 0.930 . S
C625 H613 0.930 . S
C625 C626 1.399 . S
C625 C630 1.399 . S
C626 C625 1.399 . S
C626 C627 1.376 . S
C627 H614 0.930 . S
C627 C626 1.376 . S
C627 C628 1.388 . S
C628 H615 0.930 . S
C628 C627 1.388 . S
C628 C629 1.390 . S
C629 C628 1.390 . S
C629 C630 1.394 . S
C629 C635 1.465 . S
C630 C625 1.399 . S
C630 C629 1.394 . S
C630 C631 1.516 . S
C631 C630 1.516 . S
C631 C632 1.502 . S
C631 C633 1.561 . S
C631 C634 1.526 . S
C632 H616 0.959 . S
C632 H617 0.959 . S
C632 H618 0.961 . S
C632 C631 1.502 . S
C633 H619 0.960 . S
C633 H620 0.961 . S
C633 H621 0.959 . S
C633 C631 1.561 . S
C634 C631 1.526 . S
C634 C635 1.396 . S
C634 C639 1.390 . S
C635 C629 1.465 . S
C635 C634 1.396 . S
C635 C636 1.399 . S
C636 H622 0.929 . S
C636 C635 1.399 . S
C636 C637 1.385 . S
C637 H623 0.931 . S
C637 C636 1.385 . S
C637 C638 1.389 . S
C638 C637 1.389 . S
C638 C639 1.387 . S
C639 H624 0.930 . S
C639 C634 1.390 . S
C639 C638 1.387 . S
H640 C652 0.930 . S
H641 C654 0.930 . S
H642 C655 0.930 . S
H643 C659 0.959 . S
H644 C659 0.959 . S
H645 C659 0.961 . S
H646 C660 0.960 . S
H647 C660 0.961 . S
H648 C660 0.959 . S
H649 C663 0.929 . S
H650 C664 0.931 . S
H651 C666 0.930 . S
C652 H640 0.930 . S
C652 C653 1.399 . S
C652 C657 1.399 . S
C653 C652 1.399 . S
C653 C654 1.376 . S
C654 H641 0.930 . S
C654 C653 1.376 . S
C654 C655 1.388 . S
C655 H642 0.930 . S
C655 C654 1.388 . S
C655 C656 1.390 . S
C656 C655 1.390 . S
C656 C657 1.394 . S
C656 C662 1.465 . S
C657 C652 1.399 . S
C657 C656 1.394 . S
C657 C658 1.516 . S
C658 C657 1.516 . S
C658 C659 1.502 . S
C658 C660 1.561 . S
C658 C661 1.526 . S
C659 H643 0.959 . S
C659 H644 0.959 . S
C659 H645 0.961 . S
C659 C658 1.502 . S
C660 H646 0.960 . S
C660 H647 0.961 . S
C660 H648 0.959 . S
C660 C658 1.561 . S
C661 C658 1.526 . S
C661 C662 1.396 . S
C661 C666 1.390 . S
C662 C656 1.465 . S
C662 C661 1.396 . S
C662 C663 1.399 . S
C663 H649 0.929 . S
C663 C662 1.399 . S
C663 C664 1.385 . S
C664 H650 0.931 . S
C664 C663 1.385 . S
C664 C665 1.389 . S
C665 C664 1.389 . S
C665 C666 1.387 . S
C666 H651 0.930 . S
C666 C661 1.390 . S
C666 C665 1.387 . S
H667 C679 0.930 . S
H668 C681 0.930 . S
H669 C682 0.930 . S
H670 C686 0.959 . S
H671 C686 0.959 . S
H672 C686 0.961 . S
H673 C687 0.960 . S
H674 C687 0.961 . S
H675 C687 0.959 . S
H676 C690 0.929 . S
H677 C691 0.931 . S
H678 C693 0.930 . S
C679 H667 0.930 . S
C679 C680 1.399 . S
C679 C684 1.399 . S
C680 C679 1.399 . S
C680 C681 1.376 . S
C681 H668 0.930 . S
C681 C680 1.376 . S
C681 C682 1.388 . S
C682 H669 0.930 . S
C682 C681 1.388 . S
C682 C683 1.390 . S
C683 C682 1.390 . S
C683 C684 1.394 . S
C683 C689 1.465 . S
C684 C679 1.399 . S
C684 C683 1.394 . S
C684 C685 1.516 . S
C685 C684 1.516 . S
C685 C686 1.502 . S
C685 C687 1.561 . S
C685 C688 1.526 . S
C686 H670 0.959 . S
C686 H671 0.959 . S
C686 H672 0.961 . S
C686 C685 1.502 . S
C687 H673 0.960 . S
C687 H674 0.961 . S
C687 H675 0.959 . S
C687 C685 1.561 . S
C688 C685 1.526 . S
C688 C689 1.396 . S
C688 C693 1.390 . S
C689 C683 1.465 . S
C689 C688 1.396 . S
C689 C690 1.399 . S
C690 H676 0.929 . S
C690 C689 1.399 . S
C690 C691 1.385 . S
C691 H677 0.931 . S
C691 C690 1.385 . S
C691 C692 1.389 . S
C692 C691 1.389 . S
C692 C693 1.387 . S
C693 H678 0.930 . S
C693 C688 1.390 . S
C693 C692 1.387 . S
H694 C706 0.930 . S
H695 C708 0.930 . S
H696 C709 0.930 . S
H697 C713 0.959 . S
H698 C713 0.959 . S
H699 C713 0.961 . S
H700 C714 0.960 . S
H701 C714 0.961 . S
H702 C714 0.959 . S
H703 C717 0.929 . S
H704 C718 0.931 . S
H705 C720 0.930 . S
C706 H694 0.930 . S
C706 C707 1.399 . S
C706 C711 1.399 . S
C707 C706 1.399 . S
C707 C708 1.376 . S
C708 H695 0.930 . S
C708 C707 1.376 . S
C708 C709 1.388 . S
C709 H696 0.930 . S
C709 C708 1.388 . S
C709 C710 1.390 . S
C710 C709 1.390 . S
C710 C711 1.394 . S
C710 C716 1.465 . S
C711 C706 1.399 . S
C711 C710 1.394 . S
C711 C712 1.516 . S
C712 C711 1.516 . S
C712 C713 1.502 . S
C712 C714 1.561 . S
C712 C715 1.526 . S
C713 H697 0.959 . S
C713 H698 0.959 . S
C713 H699 0.961 . S
C713 C712 1.502 . S
C714 H700 0.960 . S
C714 H701 0.961 . S
C714 H702 0.959 . S
C714 C712 1.561 . S
C715 C712 1.526 . S
C715 C716 1.396 . S
C715 C720 1.390 . S
C716 C710 1.465 . S
C716 C715 1.396 . S
C716 C717 1.399 . S
C717 H703 0.929 . S
C717 C716 1.399 . S
C717 C718 1.385 . S
C718 H704 0.931 . S
C718 C717 1.385 . S
C718 C719 1.389 . S
C719 C718 1.389 . S
C719 C720 1.387 . S
C720 H705 0.930 . S
C720 C715 1.390 . S
C720 C719 1.387 . S
H721 C733 0.930 . S
H722 C735 0.930 . S
H723 C736 0.930 . S
H724 C740 0.959 . S
H725 C740 0.959 . S
H726 C740 0.961 . S
H727 C741 0.960 . S
H728 C741 0.961 . S
H729 C741 0.959 . S
H730 C744 0.929 . S
H731 C745 0.931 . S
H732 C747 0.930 . S
C733 H721 0.930 . S
C733 C734 1.399 . S
C733 C738 1.399 . S
C734 C733 1.399 . S
C734 C735 1.376 . S
C735 H722 0.930 . S
C735 C734 1.376 . S
C735 C736 1.388 . S
C736 H723 0.930 . S
C736 C735 1.388 . S
C736 C737 1.390 . S
C737 C736 1.390 . S
C737 C738 1.394 . S
C737 C743 1.465 . S
C738 C733 1.399 . S
C738 C737 1.394 . S
C738 C739 1.516 . S
C739 C738 1.516 . S
C739 C740 1.502 . S
C739 C741 1.561 . S
C739 C742 1.526 . S
C740 H724 0.959 . S
C740 H725 0.959 . S
C740 H726 0.961 . S
C740 C739 1.502 . S
C741 H727 0.960 . S
C741 H728 0.961 . S
C741 H729 0.959 . S
C741 C739 1.561 . S
C742 C739 1.526 . S
C742 C743 1.396 . S
C742 C747 1.390 . S
C743 C737 1.465 . S
C743 C742 1.396 . S
C743 C744 1.399 . S
C744 H730 0.929 . S
C744 C743 1.399 . S
C744 C745 1.385 . S
C745 H731 0.931 . S
C745 C744 1.385 . S
C745 C746 1.389 . S
C746 C745 1.389 . S
C746 C747 1.387 . S
C747 H732 0.930 . S
C747 C742 1.390 . S
C747 C746 1.387 . S
H748 C760 0.930 . S
H749 C762 0.930 . S
H750 C763 0.930 . S
H751 C767 0.959 . S
H752 C767 0.959 . S
H753 C767 0.961 . S
H754 C768 0.960 . S
H755 C768 0.961 . S
H756 C768 0.959 . S
H757 C771 0.929 . S
H758 C772 0.931 . S
H759 C774 0.930 . S
C760 H748 0.930 . S
C760 C761 1.399 . S
C760 C765 1.399 . S
C761 C760 1.399 . S
C761 C762 1.376 . S
C762 H749 0.930 . S
C762 C761 1.376 . S
C762 C763 1.388 . S
C763 H750 0.930 . S
C763 C762 1.388 . S
C763 C764 1.390 . S
C764 C763 1.390 . S
C764 C765 1.394 . S
C764 C770 1.465 . S
C765 C760 1.399 . S
C765 C764 1.394 . S
C765 C766 1.516 . S
C766 C765 1.516 . S
C766 C767 1.502 . S
C766 C768 1.561 . S
C766 C769 1.526 . S
C767 H751 0.959 . S
C767 H752 0.959 . S
C767 H753 0.961 . S
C767 C766 1.502 . S
C768 H754 0.960 . S
C768 H755 0.961 . S
C768 H756 0.959 . S
C768 C766 1.561 . S
C769 C766 1.526 . S
C769 C770 1.396 . S
C769 C774 1.390 . S
C770 C764 1.465 . S
C770 C769 1.396 . S
C770 C771 1.399 . S
C771 H757 0.929 . S
C771 C770 1.399 . S
C771 C772 1.385 . S
C772 H758 0.931 . S
C772 C771 1.385 . S
C772 C773 1.389 . S
C773 C772 1.389 . S
C773 C774 1.387 . S
C774 H759 0.930 . S
C774 C769 1.390 . S
C774 C773 1.387 . S
H775 C787 0.930 . S
H776 C789 0.930 . S
H777 C790 0.930 . S
H778 C794 0.959 . S
H779 C794 0.959 . S
H780 C794 0.961 . S
H781 C795 0.960 . S
H782 C795 0.961 . S
H783 C795 0.959 . S
H784 C798 0.929 . S
H785 C799 0.931 . S
H786 C801 0.930 . S
C787 H775 0.930 . S
C787 C788 1.399 . S
C787 C792 1.399 . S
C788 C787 1.399 . S
C788 C789 1.376 . S
C789 H776 0.930 . S
C789 C788 1.376 . S
C789 C790 1.388 . S
C790 H777 0.930 . S
C790 C789 1.388 . S
C790 C791 1.390 . S
C791 C790 1.390 . S
C791 C792 1.394 . S
C791 C797 1.465 . S
C792 C787 1.399 . S
C792 C791 1.394 . S
C792 C793 1.516 . S
C793 C792 1.516 . S
C793 C794 1.502 . S
C793 C795 1.561 . S
C793 C796 1.526 . S
C794 H778 0.959 . S
C794 H779 0.959 . S
C794 H780 0.961 . S
C794 C793 1.502 . S
C795 H781 0.960 . S
C795 H782 0.961 . S
C795 H783 0.959 . S
C795 C793 1.561 . S
C796 C793 1.526 . S
C796 C797 1.396 . S
C796 C801 1.390 . S
C797 C791 1.465 . S
C797 C796 1.396 . S
C797 C798 1.399 . S
C798 H784 0.929 . S
C798 C797 1.399 . S
C798 C799 1.385 . S
C799 H785 0.931 . S
C799 C798 1.385 . S
C799 C800 1.389 . S
C800 C799 1.389 . S
C800 C801 1.387 . S
C801 H786 0.930 . S
C801 C796 1.390 . S
C801 C800 1.387 . S
H802 C814 0.930 . S
H803 C816 0.930 . S
H804 C817 0.930 . S
H805 C821 0.959 . S
H806 C821 0.959 . S
H807 C821 0.961 . S
H808 C822 0.960 . S
H809 C822 0.961 . S
H810 C822 0.959 . S
H811 C825 0.929 . S
H812 C826 0.931 . S
H813 C828 0.930 . S
C814 H802 0.930 . S
C814 C815 1.399 . S
C814 C819 1.399 . S
C815 C814 1.399 . S
C815 C816 1.376 . S
C816 H803 0.930 . S
C816 C815 1.376 . S
C816 C817 1.388 . S
C817 H804 0.930 . S
C817 C816 1.388 . S
C817 C818 1.390 . S
C818 C817 1.390 . S
C818 C819 1.394 . S
C818 C824 1.465 . S
C819 C814 1.399 . S
C819 C818 1.394 . S
C819 C820 1.516 . S
C820 C819 1.516 . S
C820 C821 1.502 . S
C820 C822 1.561 . S
C820 C823 1.526 . S
C821 H805 0.959 . S
C821 H806 0.959 . S
C821 H807 0.961 . S
C821 C820 1.502 . S
C822 H808 0.960 . S
C822 H809 0.961 . S
C822 H810 0.959 . S
C822 C820 1.561 . S
C823 C820 1.526 . S
C823 C824 1.396 . S
C823 C828 1.390 . S
C824 C818 1.465 . S
C824 C823 1.396 . S
C824 C825 1.399 . S
C825 H811 0.929 . S
C825 C824 1.399 . S
C825 C826 1.385 . S
C826 H812 0.931 . S
C826 C825 1.385 . S
C826 C827 1.389 . S
C827 C826 1.389 . S
C827 C828 1.387 . S
C828 H813 0.930 . S
C828 C823 1.390 . S
C828 C827 1.387 . S
H829 C841 0.930 . S
H830 C843 0.930 . S
H831 C844 0.930 . S
H832 C848 0.959 . S
H833 C848 0.959 . S
H834 C848 0.961 . S
H835 C849 0.960 . S
H836 C849 0.961 . S
H837 C849 0.959 . S
H838 C852 0.929 . S
H839 C853 0.931 . S
H840 C855 0.930 . S
C841 H829 0.930 . S
C841 C842 1.399 . S
C841 C846 1.399 . S
C842 C841 1.399 . S
C842 C843 1.376 . S
C843 H830 0.930 . S
C843 C842 1.376 . S
C843 C844 1.388 . S
C844 H831 0.930 . S
C844 C843 1.388 . S
C844 C845 1.390 . S
C845 C844 1.390 . S
C845 C846 1.394 . S
C845 C851 1.465 . S
C846 C841 1.399 . S
C846 C845 1.394 . S
C846 C847 1.516 . S
C847 C846 1.516 . S
C847 C848 1.502 . S
C847 C849 1.561 . S
C847 C850 1.526 . S
C848 H832 0.959 . S
C848 H833 0.959 . S
C848 H834 0.961 . S
C848 C847 1.502 . S
C849 H835 0.960 . S
C849 H836 0.961 . S
C849 H837 0.959 . S
C849 C847 1.561 . S
C850 C847 1.526 . S
C850 C851 1.396 . S
C850 C855 1.390 . S
C851 C845 1.465 . S
C851 C850 1.396 . S
C851 C852 1.399 . S
C852 H838 0.929 . S
C852 C851 1.399 . S
C852 C853 1.385 . S
C853 H839 0.931 . S
C853 C852 1.385 . S
C853 C854 1.389 . S
C854 C853 1.389 . S
C854 C855 1.387 . S
C855 H840 0.930 . S
C855 C850 1.390 . S
C855 C854 1.387 . S
C437 C22 1.552 . S
C449 C198 1.563 . S
C464 C38 1.594 . S
C476 C91 1.600 . S
C491 C128 1.391 . S
C503 C75 1.397 . S
C518 C188 1.460 . S
C530 C144 1.460 . S
C545 C29 1.555 . S
C557 C304 1.566 . S
C572 C39 1.599 . S
C584 C250 1.597 . S
C599 C234 1.396 . S
C611 C135 1.391 . S
C626 C145 1.459 . S
C638 C294 1.459 . S
C653 C347 1.510 . S
C665 C303 1.512 . S
C680 C251 1.634 . S
C692 C357 1.631 . S
C707 C241 1.531 . S
C719 C410 1.530 . S
C734 C287 1.332 . S
C746 C400 1.333 . S
C761 C340 1.521 . S
C773 C197 1.513 . S
C788 C92 1.634 . S
C800 C356 1.638 . S
C815 C82 1.531 . S
C827 C409 1.529 . S
C842 C181 1.334 . S
C854 C393 1.328 . S
