# Generated by pormake.
# Topology xfh, (7)-cn, num edge types: 1
# Building blocks:
#     Node 0, Type 0, BuildingBlock: HICVOG_clean_sbu_0, # of connection points: 7
#     Node 1, Type 0, BuildingBlock: HICVOG_clean_sbu_0, # of connection points: 7
#     Node 2, Type 0, BuildingBlock: HICVOG_clean_sbu_0, # of connection points: 7
#     Node 3, Type 0, BuildingBlock: HICVOG_clean_sbu_0, # of connection points: 7
#     Node 4, Type 0, BuildingBlock: HICVOG_clean_sbu_0, # of connection points: 7
#     Node 5, Type 0, BuildingBlock: HICVOG_clean_sbu_0, # of connection points: 7
#     Node 6, Type 0, BuildingBlock: HICVOG_clean_sbu_0, # of connection points: 7
#     Node 7, Type 0, BuildingBlock: HICVOG_clean_sbu_0, # of connection points: 7
#     Node 8, Type 0, BuildingBlock: HICVOG_clean_sbu_0, # of connection points: 7
#     Node 9, Type 0, BuildingBlock: HICVOG_clean_sbu_0, # of connection points: 7
#     Node 10, Type 0, BuildingBlock: HICVOG_clean_sbu_0, # of connection points: 7
#     Node 11, Type 0, BuildingBlock: HICVOG_clean_sbu_0, # of connection points: 7
#     Node 12, Type 0, BuildingBlock: HICVOG_clean_sbu_0, # of connection points: 7
#     Node 13, Type 0, BuildingBlock: HICVOG_clean_sbu_0, # of connection points: 7
#     Node 14, Type 0, BuildingBlock: HICVOG_clean_sbu_0, # of connection points: 7
#     Node 15, Type 0, BuildingBlock: HICVOG_clean_sbu_0, # of connection points: 7
#     Edge 16, Type (0, 0), BuildingBlock: XIVTED_clean_linker_0, # of connection points: 2
#     Edge 17, Type (0, 0), BuildingBlock: XIVTED_clean_linker_0, # of connection points: 2
#     Edge 18, Type (0, 0), BuildingBlock: XIVTED_clean_linker_0, # of connection points: 2
#     Edge 19, Type (0, 0), BuildingBlock: XIVTED_clean_linker_0, # of connection points: 2
#     Edge 20, Type (0, 0), BuildingBlock: XIVTED_clean_linker_0, # of connection points: 2
#     Edge 21, Type (0, 0), BuildingBlock: XIVTED_clean_linker_0, # of connection points: 2
#     Edge 22, Type (0, 0), BuildingBlock: XIVTED_clean_linker_0, # of connection points: 2
#     Edge 23, Type (0, 0), BuildingBlock: XIVTED_clean_linker_0, # of connection points: 2
#     Edge 24, Type (0, 0), BuildingBlock: XIVTED_clean_linker_0, # of connection points: 2
#     Edge 25, Type (0, 0), BuildingBlock: XIVTED_clean_linker_0, # of connection points: 2
#     Edge 26, Type (0, 0), BuildingBlock: XIVTED_clean_linker_0, # of connection points: 2
#     Edge 27, Type (0, 0), BuildingBlock: XIVTED_clean_linker_0, # of connection points: 2
#     Edge 28, Type (0, 0), BuildingBlock: XIVTED_clean_linker_0, # of connection points: 2
#     Edge 29, Type (0, 0), BuildingBlock: XIVTED_clean_linker_0, # of connection points: 2
#     Edge 30, Type (0, 0), BuildingBlock: XIVTED_clean_linker_0, # of connection points: 2
#     Edge 31, Type (0, 0), BuildingBlock: XIVTED_clean_linker_0, # of connection points: 2
#     Edge 32, Type (0, 0), BuildingBlock: XIVTED_clean_linker_0, # of connection points: 2
#     Edge 33, Type (0, 0), BuildingBlock: XIVTED_clean_linker_0, # of connection points: 2
#     Edge 34, Type (0, 0), BuildingBlock: XIVTED_clean_linker_0, # of connection points: 2
#     Edge 35, Type (0, 0), BuildingBlock: XIVTED_clean_linker_0, # of connection points: 2
#     Edge 36, Type (0, 0), BuildingBlock: XIVTED_clean_linker_0, # of connection points: 2
#     Edge 37, Type (0, 0), BuildingBlock: XIVTED_clean_linker_0, # of connection points: 2
#     Edge 38, Type (0, 0), BuildingBlock: XIVTED_clean_linker_0, # of connection points: 2
#     Edge 39, Type (0, 0), BuildingBlock: XIVTED_clean_linker_0, # of connection points: 2
#     Edge 40, Type (0, 0), BuildingBlock: XIVTED_clean_linker_0, # of connection points: 2
#     Edge 41, Type (0, 0), BuildingBlock: XIVTED_clean_linker_0, # of connection points: 2
#     Edge 42, Type (0, 0), BuildingBlock: XIVTED_clean_linker_0, # of connection points: 2
#     Edge 43, Type (0, 0), BuildingBlock: XIVTED_clean_linker_0, # of connection points: 2
#     Edge 44, Type (0, 0), BuildingBlock: XIVTED_clean_linker_0, # of connection points: 2
#     Edge 45, Type (0, 0), BuildingBlock: XIVTED_clean_linker_0, # of connection points: 2
#     Edge 46, Type (0, 0), BuildingBlock: XIVTED_clean_linker_0, # of connection points: 2
#     Edge 47, Type (0, 0), BuildingBlock: XIVTED_clean_linker_0, # of connection points: 2
#     Edge 48, Type (0, 0), BuildingBlock: XIVTED_clean_linker_0, # of connection points: 2
#     Edge 49, Type (0, 0), BuildingBlock: XIVTED_clean_linker_0, # of connection points: 2
#     Edge 50, Type (0, 0), BuildingBlock: XIVTED_clean_linker_0, # of connection points: 2
#     Edge 51, Type (0, 0), BuildingBlock: XIVTED_clean_linker_0, # of connection points: 2
#     Edge 52, Type (0, 0), BuildingBlock: XIVTED_clean_linker_0, # of connection points: 2
#     Edge 53, Type (0, 0), BuildingBlock: XIVTED_clean_linker_0, # of connection points: 2
#     Edge 54, Type (0, 0), BuildingBlock: XIVTED_clean_linker_0, # of connection points: 2
#     Edge 55, Type (0, 0), BuildingBlock: XIVTED_clean_linker_0, # of connection points: 2
#     Edge 56, Type (0, 0), BuildingBlock: XIVTED_clean_linker_0, # of connection points: 2
#     Edge 57, Type (0, 0), BuildingBlock: XIVTED_clean_linker_0, # of connection points: 2
#     Edge 58, Type (0, 0), BuildingBlock: XIVTED_clean_linker_0, # of connection points: 2
#     Edge 59, Type (0, 0), BuildingBlock: XIVTED_clean_linker_0, # of connection points: 2
#     Edge 60, Type (0, 0), BuildingBlock: XIVTED_clean_linker_0, # of connection points: 2
#     Edge 61, Type (0, 0), BuildingBlock: XIVTED_clean_linker_0, # of connection points: 2
#     Edge 62, Type (0, 0), BuildingBlock: XIVTED_clean_linker_0, # of connection points: 2
#     Edge 63, Type (0, 0), BuildingBlock: XIVTED_clean_linker_0, # of connection points: 2
#     Edge 64, Type (0, 0), BuildingBlock: XIVTED_clean_linker_0, # of connection points: 2
#     Edge 65, Type (0, 0), BuildingBlock: XIVTED_clean_linker_0, # of connection points: 2
#     Edge 66, Type (0, 0), BuildingBlock: XIVTED_clean_linker_0, # of connection points: 2
#     Edge 67, Type (0, 0), BuildingBlock: XIVTED_clean_linker_0, # of connection points: 2
#     Edge 68, Type (0, 0), BuildingBlock: XIVTED_clean_linker_0, # of connection points: 2
#     Edge 69, Type (0, 0), BuildingBlock: XIVTED_clean_linker_0, # of connection points: 2
#     Edge 70, Type (0, 0), BuildingBlock: XIVTED_clean_linker_0, # of connection points: 2
#     Edge 71, Type (0, 0), BuildingBlock: XIVTED_clean_linker_0, # of connection points: 2
# Relax obj value: 0.241
# Max RMSD: 0.229
# Mean RMSD: 0.229
data_MOF--net-xfh--node1-HICVOG_clean_sbu_0--edge1-XIVTED_clean_linker_0
_symmetry_space_group_name_H-M    P1
_symmetry_Int_Tables_number       1
_symmetry_cell_setting            triclinic
loop_
_symmetry_equiv_pos_as_xyz
'x, y, z'
_cell_length_a     30.915122
_cell_length_b     30.945362
_cell_length_c     65.794696
_cell_angle_alpha  89.898913
_cell_angle_beta   90.103962
_cell_angle_gamma 90.186308
loop_
_atom_site_label
_atom_site_type_symbol
_atom_site_fract_x
_atom_site_fract_y
_atom_site_fract_z
_atom_type_partial_charge
Zn0 Zn 0.37494 0.04368 0.08425 0.0
C1 C 0.45159 0.11046 0.04738 0.0
N2 N 0.4814 0.10156 0.06177 0.0
C3 C 0.45839 0.08369 0.07674 0.0
N4 N 0.41618 0.08232 0.07232 0.0
N5 N 0.41049 0.10244 0.05484 0.0
C6 C 0.35556 0.14873 0.01605 0.0
O7 O 0.36834 0.10868 0.0185 0.0
O8 O 0.39628 1.02365 0.11104 0.0
Zn9 Zn 0.36039 0.14603 0.05877 0.0
N10 N 0.36837 0.99461 0.06663 0.0
C11 C 0.35366 0.96394 0.0342 0.0
C12 C 0.36156 1.00002 0.04639 0.0
C13 C 0.36753 0.95478 0.07523 0.0
N14 N 0.35162 0.92411 0.0429 0.0
C15 C 0.3586 0.9185 0.06316 0.0
O16 O 0.30031 0.12233 0.07013 0.0
C17 C 0.28893 0.09364 0.08319 0.0
O18 O 0.31578 0.06606 0.08974 0.0
H19 H 0.36142 1.03208 0.03987 0.0
H20 H 0.37136 0.95185 0.09152 0.0
C21 C 0.35055 0.22808 0.08401 0.0
C22 C 0.36733 0.26076 0.09719 0.0
C23 C 0.4352 0.22448 0.09697 0.0
C24 C 0.41894 0.19341 0.08384 0.0
N25 N 0.37713 0.195 0.07753 0.0
N26 N 0.40935 0.25702 0.10317 0.0
H27 H 0.31744 0.2294 0.07872 0.0
C28 C 0.40259 0.05133 0.12492 0.0
O29 O 0.39528 0.09238 0.12112 0.0
O30 O 0.34817 0.17202 0.03149 0.0
H31 H 0.43994 0.1683 0.07866 0.0
H32 H 0.34801 0.96769 0.01807 0.0
H33 H 0.46845 0.22305 0.10208 0.0
Zn34 Zn 0.69049 0.60776 0.3085 0.0
C35 C 0.74576 0.70746 0.32823 0.0
N36 N 0.73038 0.72993 0.31245 0.0
C37 C 0.72445 0.69986 0.29787 0.0
N38 N 0.73239 0.65914 0.30571 0.0
N39 N 0.74878 0.66531 0.324 0.0
C40 C 0.77292 0.64989 0.37689 0.0
O41 O 0.73407 0.63734 0.37124 0.0
O42 O 0.66653 0.59818 0.28077 0.0
Zn43 Zn 0.78705 0.62522 0.33693 0.0
N44 N 0.64055 0.62084 0.3272 0.0
C45 C 0.6075 0.67404 0.34825 0.0
C46 C 0.6386 0.66218 0.33407 0.0
C47 C 0.61041 0.59087 0.33366 0.0
N48 N 0.5785 0.64435 0.35493 0.0
C49 C 0.57829 0.60292 0.34807 0.0
O50 O 0.76547 0.56534 0.34219 0.0
C51 C 0.74153 0.53722 0.33379 0.0
O52 O 0.716 0.54765 0.31917 0.0
H53 H 0.66116 0.68603 0.32868 0.0
H54 H 0.61191 0.55804 0.32809 0.0
C55 C 0.87683 0.61944 0.32744 0.0
C56 C 0.91243 0.61122 0.3148 0.0
C57 C 0.86512 0.60533 0.28654 0.0
C58 C 0.82981 0.61213 0.29927 0.0
N59 N 0.83642 0.61937 0.31941 0.0
N60 N 0.90552 0.6043 0.29463 0.0
H61 H 0.8807 0.62332 0.34368 0.0
C62 C 0.64886 0.56307 0.27521 0.0
O63 O 0.6449 0.5312 0.2883 0.0
O64 O 0.80379 0.64767 0.36424 0.0
H65 H 0.79735 0.61089 0.29319 0.0
H66 H 0.60637 0.70681 0.35393 0.0
H67 H 0.86037 0.59959 0.27048 0.0
Zn68 Zn 0.21115 1.02836 0.58771 0.0
C69 C 0.13636 0.96706 0.54747 0.0
N70 N 0.10622 0.97146 0.5621 0.0
C71 C 0.12825 0.98767 0.57784 0.0
N72 N 0.17041 0.99197 0.57362 0.0
N73 N 0.17698 0.97569 0.55536 0.0
C74 C 0.27258 0.89177 0.52534 0.0
O75 O 0.30429 0.88823 0.53856 0.0
O76 O 0.18982 1.04035 0.61569 0.0
Zn77 Zn 0.22808 0.93363 0.5583 0.0
N78 N 0.21703 0.08058 0.57192 0.0
C79 C 0.22836 0.11354 0.53965 0.0
C80 C 0.22128 0.07679 0.55145 0.0
C81 C 0.22045 0.11961 0.58118 0.0
N82 N 0.23265 0.15247 0.5489 0.0
C83 C 0.22894 0.15664 0.56941 0.0
O84 O 0.2886 0.95913 0.5683 0.0
C85 C 0.2993 0.98386 0.58311 0.0
O86 O 0.27127 1.00684 0.59199 0.0
H87 H 0.22011 0.04536 0.54437 0.0
H88 H 0.21893 0.12117 0.59759 0.0
C89 C 0.24518 0.85402 0.58385 0.0
C90 C 0.2331 0.82177 0.5983 0.0
C91 C 0.16186 0.85046 0.59835 0.0
C92 C 0.17375 0.8816 0.58412 0.0
N93 N 0.21515 0.88389 0.5773 0.0
N94 N 0.19157 0.8217 0.6051 0.0
H95 H 0.27805 0.85578 0.57829 0.0
C96 C 0.18414 1.00777 0.62715 0.0
O97 O 0.19317 0.96905 0.62019 0.0
O98 O 0.23732 0.9092 0.53071 0.0
H99 H 0.14985 0.90386 0.57862 0.0
H100 H 0.23172 0.111 0.52333 0.0
H101 H 0.12903 0.84906 0.60398 0.0
Zn102 Zn 0.78906 0.44717 0.83353 0.0
C103 C 0.86549 0.3793 0.79794 0.0
N104 N 0.86029 0.34888 0.81252 0.0
C105 C 0.83942 0.36979 0.82726 0.0
N106 N 0.83316 0.41133 0.82254 0.0
N107 N 0.8535 0.4193 0.80535 0.0
C108 C 0.89394 0.48263 0.76873 0.0
O109 O 0.8529 0.47472 0.7723 0.0
O110 O 0.77602 0.42915 0.86166 0.0
Zn111 Zn 0.89366 0.4724 0.8105 0.0
N112 N 0.73654 0.44022 0.81812 0.0
C113 C 0.69094 0.40381 0.79448 0.0
C114 C 0.73126 0.40914 0.80376 0.0
C115 C 0.70337 0.46626 0.82352 0.0
N116 N 0.65732 0.42909 0.80033 0.0
C117 C 0.66257 0.4605 0.81459 0.0
O118 O 0.86417 0.53065 0.82102 0.0
C119 C 0.82902 0.53958 0.83045 0.0
O120 O 0.80231 0.50988 0.8349 0.0
H121 H 0.75757 0.38771 0.80014 0.0
H122 H 0.70836 0.48958 0.83556 0.0
C123 C 0.97393 0.49002 0.83578 0.0
C124 C 1.00465 0.47934 0.8512 0.0
C125 C 0.97136 0.41029 0.85428 0.0
C126 C 0.9416 0.42086 0.8392 0.0
N127 N 0.9424 0.46051 0.83032 0.0
N128 N 1.00171 0.43958 0.85994 0.0
H129 H 0.9745 0.52158 0.82868 0.0
C130 C 0.80491 0.42667 0.87529 0.0
O131 O 0.84517 0.43656 0.87084 0.0
O132 O 0.92009 0.48565 0.78354 0.0
H133 H 0.9178 0.39743 0.83477 0.0
H134 H 0.68609 0.37893 0.78317 0.0
H135 H 0.97028 0.37888 0.86151 0.0
Zn136 Zn 0.71035 1.03652 0.90143 0.0
C137 C 0.63426 0.97301 0.93903 0.0
N138 N 0.6044 0.97966 0.92438 0.0
C139 C 0.62736 0.99494 0.90876 0.0
N140 N 0.66953 0.99747 0.91322 0.0
N141 N 0.6753 0.98028 0.93138 0.0
C142 C 0.77346 0.9013 0.96193 0.0
O143 O 0.8059 0.90038 0.94908 0.0
O144 O 0.68869 0.05863 0.87496 0.0
Zn145 Zn 0.72487 0.93625 0.92798 0.0
N146 N 0.71869 0.08378 0.91997 0.0
C147 C 0.73687 0.11131 0.95266 0.0
C148 C 0.72726 0.07647 0.93995 0.0
C149 C 0.71941 0.12431 0.91216 0.0
N150 N 0.73889 0.15183 0.94471 0.0
C151 C 0.73014 0.1593 0.92473 0.0
O152 O 0.78487 0.95881 0.91549 0.0
C153 C 0.79595 0.98653 0.90189 0.0
O154 O 0.76897 1.01375 0.89513 0.0
H155 H 0.72751 0.04387 0.94587 0.0
H156 H 0.71425 0.12875 0.89602 0.0
C157 C 0.73371 0.85227 0.90401 0.0
C158 C 0.7159 0.81754 0.89238 0.0
C159 C 0.6469 0.85118 0.89456 0.0
C160 C 0.66421 0.88421 0.90627 0.0
N161 N 0.70707 0.88496 0.91083 0.0
N162 N 0.67284 0.81896 0.88808 0.0
H163 H 0.7677 0.85267 0.90795 0.0
C164 C 0.68481 1.03129 0.86073 0.0
O165 O 0.69334 0.99043 0.86439 0.0
O166 O 0.73673 0.91448 0.95597 0.0
H167 H 0.64313 0.90888 0.91182 0.0
H168 H 0.74393 0.10604 0.96858 0.0
H169 H 0.61279 0.85076 0.89086 0.0
Zn170 Zn 0.40374 0.4768 0.67998 0.0
C171 C 0.34955 0.37528 0.66021 0.0
N172 N 0.36471 0.35311 0.67611 0.0
C173 C 0.37086 0.38341 0.69056 0.0
N174 N 0.36355 0.42401 0.68246 0.0
N175 N 0.34731 0.4176 0.66416 0.0
C176 C 0.31865 0.42602 0.60974 0.0
O177 O 0.3604 0.43217 0.61228 0.0
O178 O 0.42734 0.48706 0.70774 0.0
Zn179 Zn 0.31644 0.461 0.64937 0.0
N180 N 0.45429 0.46628 0.66094 0.0
C181 C 0.48746 0.41382 0.63951 0.0
C182 C 0.45618 0.42526 0.65366 0.0
C183 C 0.48474 0.49643 0.65483 0.0
N184 N 0.51673 0.4436 0.63321 0.0
C185 C 0.51714 0.48479 0.64039 0.0
O186 O 0.3497 0.51378 0.64046 0.0
C187 C 0.35967 0.54427 0.65246 0.0
O188 O 0.37384 0.53538 0.67031 0.0
H189 H 0.43343 0.40126 0.65876 0.0
H190 H 0.48335 0.52901 0.66072 0.0
C191 C 0.2288 0.48263 0.65726 0.0
C192 C 0.19364 0.49721 0.66883 0.0
C193 C 0.23997 0.50388 0.69746 0.0
C194 C 0.27482 0.48966 0.68583 0.0
N195 N 0.26852 0.47944 0.66596 0.0
N196 N 0.20036 0.50773 0.68867 0.0
H197 H 0.22515 0.47526 0.64128 0.0
C198 C 0.44334 0.52313 0.71307 0.0
O199 O 0.446 0.55466 0.69973 0.0
O200 O 0.29286 0.43586 0.62394 0.0
H201 H 0.30667 0.48722 0.69253 0.0
H202 H 0.48853 0.38128 0.63355 0.0
H203 H 0.24447 0.51233 0.71327 0.0
Zn204 Zn 0.857 0.14504 0.42963 0.0
C205 C 0.95593 0.08645 0.41265 0.0
N206 N 0.97811 0.10527 0.42767 0.0
C207 C 0.94813 0.11175 0.44222 0.0
N208 N 0.90741 0.10235 0.43462 0.0
N209 N 0.91389 0.08278 0.4171 0.0
C210 C 0.90201 0.05106 0.36408 0.0
O211 O 0.89293 0.09184 0.36756 0.0
O212 O 0.84425 0.17228 0.45633 0.0
Zn213 Zn 0.87392 0.04331 0.40471 0.0
N214 N 0.87148 0.19322 0.40995 0.0
C215 C 0.92348 0.2217 0.3867 0.0
C216 C 0.91167 0.19207 0.40166 0.0
C217 C 0.84271 0.22489 0.40404 0.0
N218 N 0.89489 0.25221 0.3806 0.0
C219 C 0.85465 0.25544 0.38878 0.0
O220 O 0.81473 0.0647 0.39839 0.0
C221 C 0.78704 0.09113 0.40512 0.0
O222 O 0.79745 0.11932 0.41854 0.0
H223 H 0.93455 0.16812 0.40646 0.0
H224 H 0.81073 0.22571 0.41066 0.0
C225 C 0.86513 0.9545 0.41362 0.0
C226 C 0.85567 0.91812 0.42559 0.0
C227 C 0.85187 0.9631 0.45468 0.0
C228 C 0.86027 0.99928 0.44259 0.0
N229 N 0.86687 0.99414 0.42233 0.0
N230 N 0.84907 0.92348 0.44588 0.0
H231 H 0.86865 0.95189 0.39732 0.0
C232 C 0.8074 0.18795 0.46048 0.0
O233 O 0.77667 0.18724 0.44667 0.0
O234 O 0.89674 1.02349 0.37815 0.0
H235 H 0.86067 1.03123 0.4492 0.0
H236 H 0.9553 0.22039 0.37992 0.0
H237 H 0.84643 0.96663 0.47083 0.0
Zn238 Zn 0.29273 0.62823 0.15298 0.0
C239 C 0.22189 0.70072 0.18967 0.0
N240 N 0.22802 0.73033 0.17484 0.0
C241 C 0.24693 0.70791 0.16001 0.0
N242 N 0.25136 0.66626 0.16493 0.0
N243 N 0.23201 0.6599 0.18255 0.0
C244 C 0.1484 0.56192 0.21127 0.0
O245 O 0.14695 0.52965 0.19834 0.0
O246 O 0.30474 0.64663 0.12442 0.0
Zn247 Zn 0.18987 0.60846 0.17834 0.0
N248 N 0.34387 0.62979 0.16952 0.0
C249 C 0.37549 0.62112 0.20224 0.0
C250 C 0.33904 0.62392 0.18983 0.0
C251 C 0.38363 0.63137 0.1609 0.0
N252 N 0.41533 0.62151 0.19362 0.0
C253 C 0.42052 0.62633 0.17319 0.0
O254 O 0.21663 0.54852 0.16805 0.0
C255 C 0.24959 0.53805 0.15733 0.0
O256 O 0.27653 0.56647 0.15163 0.0
H257 H 0.3071 0.61982 0.19616 0.0
H258 H 0.38607 0.63318 0.14451 0.0
C259 C 0.10943 0.59216 0.15339 0.0
C260 C 0.07866 0.60309 0.13808 0.0
C261 C 0.11238 0.67187 0.13489 0.0
C262 C 0.14219 0.6611 0.14992 0.0
N263 N 0.1412 0.6214 0.15877 0.0
N264 N 0.08176 0.6428 0.1293 0.0
H265 H 0.10869 0.5606 0.16047 0.0
C266 C 0.27242 0.64668 0.11248 0.0
O267 O 0.23448 0.63442 0.11944 0.0
O268 O 0.16414 0.59793 0.20567 0.0
H269 H 0.16615 0.68439 0.15434 0.0
H270 H 0.37213 0.61664 0.21847 0.0
H271 H 0.1136 0.70328 0.12765 0.0
Zn272 Zn 0.87572 0.56449 0.5873 0.0
C273 C 0.95679 0.6122 0.54621 0.0
N274 N 0.98715 0.60492 0.56056 0.0
C275 C 0.96443 0.59219 0.57676 0.0
N276 N 0.92186 0.59188 0.57294 0.0
N277 N 0.91596 0.60701 0.55439 0.0
C278 C 0.82017 0.68919 0.52303 0.0
O279 O 0.78897 0.69468 0.5363 0.0
O280 O 0.89901 0.53523 0.61188 0.0
Zn281 Zn 0.86484 0.64902 0.5566 0.0
N282 N 0.85063 0.52219 0.56918 0.0
C283 C 0.81914 0.5019 0.53751 0.0
C284 C 0.83887 0.53285 0.54987 0.0
C285 C 0.8441 0.48174 0.57647 0.0
N286 N 0.81197 0.46153 0.54493 0.0
C287 C 0.82439 0.45047 0.56409 0.0
O288 O 0.80477 0.62287 0.56737 0.0
C289 C 0.79628 0.61089 0.58562 0.0
O290 O 0.8274 0.60226 0.59751 0.0
H291 H 0.84418 0.56518 0.54417 0.0
H292 H 0.85303 0.4745 0.59201 0.0
C293 C 0.8523 0.73301 0.58025 0.0
C294 C 0.86872 0.76822 0.59196 0.0
C295 C 0.938 0.73505 0.59173 0.0
C296 C 0.92217 0.70152 0.57984 0.0
N297 N 0.87982 0.70033 0.57428 0.0
N298 N 0.91126 0.76743 0.59728 0.0
H299 H 0.81881 0.73245 0.57546 0.0
C300 C 0.91 0.55984 0.62641 0.0
O301 O 0.90647 0.60189 0.62414 0.0
O302 O 0.855 0.67103 0.52856 0.0
H303 H 0.94408 0.67695 0.57483 0.0
H304 H 0.80923 0.51002 0.5222 0.0
H305 H 0.97169 0.73584 0.59619 0.0
Zn306 Zn 0.18881 0.10459 0.80627 0.0
C307 C 0.24187 0.20529 0.82516 0.0
N308 N 0.22552 0.227 0.80938 0.0
C309 C 0.22135 0.19679 0.79475 0.0
N310 N 0.23023 0.15639 0.80274 0.0
N311 N 0.24654 0.16327 0.82098 0.0
C312 C 0.27729 0.15395 0.87452 0.0
O313 O 0.23652 0.14369 0.87141 0.0
O314 O 0.16455 0.09321 0.77876 0.0
Zn315 Zn 0.28388 0.12309 0.83445 0.0
N316 N 0.13857 0.11721 0.82501 0.0
C317 C 0.10477 0.17017 0.84594 0.0
C318 C 0.13612 0.15855 0.83183 0.0
C319 C 0.10861 0.08697 0.83144 0.0
N320 N 0.07599 0.14024 0.8526 0.0
C321 C 0.07622 0.09879 0.84578 0.0
O322 O 0.26 0.06505 0.84205 0.0
C323 C 0.23841 1.03604 0.83292 0.0
O324 O 0.21556 0.04537 0.81721 0.0
H325 H 0.15845 0.1826 0.82643 0.0
H326 H 0.11043 0.05414 0.82589 0.0
C327 C 0.3728 0.11178 0.82586 0.0
C328 C 0.40893 0.10091 0.81406 0.0
C329 C 0.36337 0.0942 0.78518 0.0
C330 C 0.32747 0.10411 0.7971 0.0
N331 N 0.33299 0.11285 0.81717 0.0
N332 N 0.40313 0.0922 0.79396 0.0
H333 H 0.37575 0.11717 0.84205 0.0
C334 C 0.14946 0.05674 0.77346 0.0
O335 O 0.14848 1.02487 0.78667 0.0
O336 O 0.30453 0.14821 0.86041 0.0
H337 H 0.29544 0.10412 0.7905 0.0
H338 H 0.10327 0.20295 0.85157 0.0
H339 H 0.35953 0.0871 0.76919 0.0
Zn340 Zn 0.70681 0.53687 0.08841 0.0
C341 C 0.63085 0.47208 0.05029 0.0
N342 N 0.60119 0.47982 0.06485 0.0
C343 C 0.62431 0.49643 0.08013 0.0
N344 N 0.66643 0.49825 0.07571 0.0
N345 N 0.67202 0.48002 0.0578 0.0
C346 C 0.72874 0.43743 0.01842 0.0
O347 O 0.71534 0.47713 0.02124 0.0
O348 O 0.68546 0.55233 0.11605 0.0
Zn349 Zn 0.72373 0.43837 0.06093 0.0
N350 N 0.71134 0.5868 0.07115 0.0
C351 C 0.724 0.61623 0.03826 0.0
C352 C 0.71828 0.58064 0.05099 0.0
C353 C 0.71067 0.62703 0.07924 0.0
N354 N 0.72448 0.6565 0.04639 0.0
C355 C 0.71796 0.66297 0.06662 0.0
O356 O 0.78372 0.4639 0.07152 0.0
C357 C 0.79467 0.49104 0.08533 0.0
O358 O 0.76701 0.51624 0.09306 0.0
H359 H 0.72016 0.54831 0.04494 0.0
H360 H 0.70712 0.63055 0.09552 0.0
C361 C 0.73997 0.35844 0.0861 0.0
C362 C 0.72831 0.32717 0.10105 0.0
C363 C 0.65828 0.35844 0.10259 0.0
C364 C 0.66979 0.38881 0.08793 0.0
N365 N 0.71042 0.38923 0.08008 0.0
N366 N 0.68762 0.32878 0.10883 0.0
H367 H 0.77226 0.35887 0.07978 0.0
C368 C 0.68332 0.52091 0.12845 0.0
O369 O 0.6952 0.48231 0.12235 0.0
O370 O 0.73578 0.41323 0.03362 0.0
H371 H 0.64631 0.41212 0.083 0.0
H372 H 0.72945 0.61183 0.02216 0.0
H373 H 0.62611 0.35848 0.10904 0.0
Zn374 Zn 0.29812 0.95691 0.33914 0.0
C375 C 0.35971 0.88113 0.30012 0.0
N376 N 0.35292 0.85135 0.31478 0.0
C377 C 0.33737 0.8743 0.33028 0.0
N378 N 0.3351 0.91637 0.32584 0.0
N379 N 0.35216 0.92211 0.30767 0.0
C380 C 0.39403 0.97665 0.26785 0.0
O381 O 0.35336 0.96723 0.27147 0.0
O382 O 0.28425 0.93527 0.36691 0.0
Zn383 Zn 0.39458 0.97323 0.31015 0.0
N384 N 0.24663 0.96186 0.32288 0.0
C385 C 0.21431 0.97364 0.29051 0.0
C386 C 0.25099 0.96786 0.30254 0.0
C387 C 0.20716 0.96224 0.33183 0.0
N388 N 0.17483 0.97497 0.29947 0.0
C389 C 0.17012 0.96945 0.31989 0.0
O390 O 0.3697 1.0335 0.32005 0.0
C391 C 0.34437 0.04445 0.33456 0.0
O392 O 0.32024 1.01684 0.34322 0.0
H393 H 0.28277 0.96905 0.29581 0.0
H394 H 0.20515 0.95939 0.34819 0.0
C395 C 0.47419 0.9902 0.33553 0.0
C396 C 0.50548 0.97876 0.35049 0.0
C397 C 0.47469 0.90839 0.35194 0.0
C398 C 0.44437 0.91963 0.33721 0.0
N399 N 0.44362 0.96035 0.32944 0.0
N400 N 0.50411 0.93803 0.35826 0.0
H401 H 0.47362 1.02252 0.32923 0.0
C402 C 0.31593 0.93307 0.37916 0.0
O403 O 0.35445 0.9454 0.37298 0.0
O404 O 0.41977 0.98273 0.28259 0.0
H405 H 0.42145 0.89582 0.33213 0.0
H406 H 0.21728 0.97836 0.27428 0.0
H407 H 0.47485 0.87617 0.35834 0.0
Zn408 Zn 0.22619 0.43645 0.42666 0.0
C409 C 0.1269 0.49134 0.40631 0.0
N410 N 0.10392 0.47588 0.4219 0.0
C411 C 0.13359 0.47006 0.43671 0.0
N412 N 0.1746 0.47808 0.42917 0.0
N413 N 0.16895 0.49447 0.41085 0.0
C414 C 0.18591 0.51857 0.35806 0.0
O415 O 0.19883 0.48013 0.364 0.0
O416 O 0.23734 0.41104 0.45414 0.0
Zn417 Zn 0.20916 0.53312 0.39814 0.0
N418 N 0.21265 0.38708 0.4078 0.0
C419 C 0.15917 0.35383 0.38676 0.0
C420 C 0.17115 0.3848 0.40102 0.0
C421 C 0.24263 0.35736 0.40124 0.0
N422 N 0.18888 0.32523 0.37996 0.0
C423 C 0.23043 0.32536 0.38678 0.0
O424 O 0.26901 0.51176 0.3932 0.0
C425 C 0.29691 0.4876 0.40156 0.0
O426 O 0.2863 0.46185 0.41604 0.0
H427 H 0.14725 0.40691 0.40656 0.0
H428 H 0.27554 0.35907 0.40681 0.0
C429 C 0.21306 0.62294 0.40824 0.0
C430 C 0.22104 0.65817 0.42119 0.0
C431 C 0.23008 0.60972 0.44882 0.0
C432 C 0.22369 0.57489 0.43575 0.0
N433 N 0.21488 0.58222 0.41581 0.0
N434 N 0.22936 0.65048 0.4412 0.0
H435 H 0.20806 0.62744 0.3921 0.0
C436 C 0.22846 0.43379 0.46958 0.0
O437 O 0.21416 0.4733 0.4671 0.0
O438 O 0.18718 0.54964 0.37064 0.0
H439 H 0.22641 0.54222 0.44139 0.0
H440 H 0.12628 0.35244 0.38113 0.0
H441 H 0.23695 0.60437 0.46475 0.0
Zn442 Zn 0.89648 0.97529 0.17835 0.0
C443 C 0.84037 0.87521 0.15832 0.0
N444 N 0.85627 0.85247 0.17389 0.0
C445 C 0.863 0.88237 0.18847 0.0
N446 N 0.85495 0.92324 0.18077 0.0
N447 N 0.83779 0.91728 0.16263 0.0
C448 C 0.8185 0.93466 0.10948 0.0
O449 O 0.85662 0.94696 0.11625 0.0
O450 O 0.92097 0.98607 0.20605 0.0
Zn451 Zn 0.79925 0.95676 0.14945 0.0
N452 N 0.94617 0.96288 0.1594 0.0
C453 C 0.97767 0.91127 0.13699 0.0
C454 C 0.94709 0.92228 0.15157 0.0
C455 C 0.97682 0.99285 0.15351 0.0
N456 N 1.00717 0.94101 0.13087 0.0
C457 C 1.00839 0.98165 0.13868 0.0
O458 O 0.81935 1.01747 0.14568 0.0
C459 C 0.84386 0.04555 0.15374 0.0
O460 O 0.87071 1.03508 0.1678 0.0
H461 H 0.92406 0.8984 0.15645 0.0
H462 H 0.9761 1.02509 0.15984 0.0
C463 C 0.70816 0.95888 0.15699 0.0
C464 C 0.67119 0.96444 0.1691 0.0
C465 C 0.7159 0.96902 0.19835 0.0
C466 C 0.75247 0.96494 0.18617 0.0
N467 N 0.74784 0.9595 0.16581 0.0
N468 N 0.67619 0.96936 0.18953 0.0
H469 H 0.70587 0.95656 0.14061 0.0
C470 C 0.8963 0.97814 0.22099 0.0
O471 O 0.85635 0.96555 0.21768 0.0
O472 O 0.78629 0.93576 0.12142 0.0
H473 H 0.78434 0.96681 0.19285 0.0
H474 H 0.97796 0.87913 0.13054 0.0
H475 H 0.71908 0.97321 0.21461 0.0
Zn476 Zn 0.3756 0.5547 0.89873 0.0
C477 C 0.45019 0.61148 0.94036 0.0
N478 N 0.48081 0.60736 0.9259 0.0
C479 C 0.45897 0.59316 0.90969 0.0
N480 N 0.41659 0.58937 0.91352 0.0
N481 N 0.40971 0.60376 0.93211 0.0
C482 C 0.31244 0.68054 0.96447 0.0
O483 O 0.27931 0.6817 0.95195 0.0
O484 O 0.39842 0.54128 0.87114 0.0
Zn485 Zn 0.35772 0.64466 0.93004 0.0
N486 N 0.36731 0.50275 0.91444 0.0
C487 C 0.35238 0.46967 0.94636 0.0
C488 C 0.36048 0.50652 0.93476 0.0
C489 C 0.36571 0.46369 0.90514 0.0
N490 N 0.34987 0.43067 0.93703 0.0
C491 C 0.35632 0.42655 0.91667 0.0
O492 O 0.2977 0.61796 0.91986 0.0
C493 C 0.28757 0.59714 0.90367 0.0
O494 O 0.31637 0.57805 0.89338 0.0
H495 H 0.36048 0.53795 0.94186 0.0
H496 H 0.36948 0.46212 0.88881 0.0
C497 C 0.3395 0.72492 0.90477 0.0
C498 C 0.35165 0.75766 0.89058 0.0
C499 C 0.42346 0.73055 0.89121 0.0
C500 C 0.41154 0.69894 0.9052 0.0
N501 N 0.36984 0.69555 0.91153 0.0
N502 N 0.39346 0.75875 0.88422 0.0
H503 H 0.30641 0.72241 0.90998 0.0
C504 C 0.40418 0.57293 0.85913 0.0
O505 O 0.39461 0.61212 0.86531 0.0
O506 O 0.3487 0.66703 0.95813 0.0
H507 H 0.43569 0.67716 0.91091 0.0
H508 H 0.34695 0.47217 0.96255 0.0
H509 H 0.45653 0.73276 0.88595 0.0
Zn510 Zn 0.7907 0.14508 0.64675 0.0
C511 C 0.71975 0.20581 0.68711 0.0
N512 N 0.71966 0.23745 0.67291 0.0
C513 C 0.73731 0.21876 0.65665 0.0
N514 N 0.74704 0.17736 0.66027 0.0
N515 N 0.7321 0.16714 0.6784 0.0
C516 C 0.70031 0.09955 0.71563 0.0
O517 O 0.74036 0.10974 0.71102 0.0
O518 O 0.79631 0.16594 0.61828 0.0
Zn519 Zn 0.69377 0.11268 0.67405 0.0
N520 N 0.84473 0.1537 0.66092 0.0
C521 C 0.8898 0.19015 0.6848 0.0
C522 C 0.84966 0.18459 0.67541 0.0
C523 C 0.87805 0.12771 0.65566 0.0
N524 N 0.92347 0.16471 0.67922 0.0
C525 C 0.91853 0.13325 0.66497 0.0
O526 O 0.72407 0.05654 0.66188 0.0
C527 C 0.75709 0.05009 0.65051 0.0
O528 O 0.78067 0.0816 0.64498 0.0
H529 H 0.823 0.20539 0.6793 0.0
H530 H 0.87323 0.10396 0.6438 0.0
C531 C 0.6131 0.09261 0.64946 0.0
C532 C 0.57898 0.10396 0.63586 0.0
C533 C 0.60297 0.17691 0.63705 0.0
C534 C 0.63591 0.16574 0.65048 0.0
N535 N 0.64156 0.12392 0.65622 0.0
N536 N 0.57567 0.146 0.63005 0.0
H537 H 0.61733 0.0594 0.65421 0.0
C538 C 0.76322 0.16631 0.60684 0.0
O539 O 0.72614 0.15179 0.61386 0.0
O540 O 0.67229 0.09663 0.7016 0.0
H541 H 0.6568 0.19056 0.65625 0.0
H542 H 0.89433 0.21491 0.6962 0.0
H543 H 0.59898 0.21012 0.63227 0.0
H544 H 0.32849 0.5017 0.15888 0.0
H545 H 0.27748 0.2755 0.10322 0.0
H546 H 0.19727 0.4705 0.14217 0.0
H547 H 0.4023 0.33723 0.109 0.0
H548 H 0.24424 0.33997 0.1192 0.0
H549 H 0.35255 0.43406 0.14433 0.0
C550 C 0.30444 0.4802 0.15237 0.0
C551 C 0.26068 0.49221 0.15187 0.0
C552 C 0.27887 0.33916 0.11684 0.0
C553 C 0.28864 0.41348 0.13432 0.0
C554 C 0.29793 0.3024 0.10757 0.0
C555 C 0.34318 0.30012 0.10476 0.0
C556 C 0.30524 0.37375 0.12348 0.0
C557 C 0.36756 0.33635 0.11098 0.0
C558 C 0.31835 0.44141 0.14384 0.0
C559 C 0.23127 0.46254 0.14313 0.0
N560 N 0.34852 0.37086 0.11999 0.0
N561 N 0.24579 0.4247 0.13454 0.0
H562 H 0.32298 0.495 0.36224 0.0
H563 H 0.55523 0.59104 0.38766 0.0
H564 H 0.37451 0.49254 0.42308 0.0
H565 H 0.52047 0.55004 0.32728 0.0
H566 H 0.49056 0.5548 0.401 0.0
H567 H 0.39467 0.51429 0.34926 0.0
C568 C 0.34962 0.49778 0.37288 0.0
C569 C 0.34247 0.49172 0.39384 0.0
C570 C 0.49733 0.55296 0.38489 0.0
C571 C 0.42527 0.51536 0.37896 0.0
C572 C 0.53444 0.57358 0.37722 0.0
C573 C 0.54384 0.57329 0.35628 0.0
C574 C 0.46821 0.53264 0.37153 0.0
C575 C 0.51513 0.55061 0.34354 0.0
C576 C 0.39067 0.50891 0.36542 0.0
C577 C 0.3784 0.49626 0.40683 0.0
N578 N 0.47844 0.53188 0.35129 0.0
N579 N 0.41792 0.50845 0.39924 0.0
H580 H 0.29233 0.76986 0.57795 0.0
H581 H 0.34118 0.61743 0.67533 0.0
H582 H 0.23939 0.79311 0.63744 0.0
H583 H 0.3561 0.57498 0.61339 0.0
H584 H 0.31706 0.6884 0.66258 0.0
H585 H 0.32925 0.70535 0.59152 0.0
C586 C 0.28931 0.76214 0.59395 0.0
C587 C 0.26271 0.78733 0.60653 0.0
C588 C 0.3261 0.66367 0.65179 0.0
C589 C 0.30477 0.71298 0.62224 0.0
C590 C 0.34021 0.62316 0.65909 0.0
C591 C 0.35075 0.58981 0.64549 0.0
C592 C 0.32305 0.67142 0.63069 0.0
C593 C 0.34822 0.5994 0.62454 0.0
C594 C 0.31004 0.72496 0.60167 0.0
C595 C 0.25948 0.77484 0.62711 0.0
N596 N 0.33474 0.63896 0.61785 0.0
N597 N 0.28004 0.73886 0.63425 0.0
H598 H 0.21163 0.59026 0.92626 0.0
H599 H 0.06183 0.53086 0.82909 0.0
H600 H 0.2585 0.58902 0.86463 0.0
H601 H 1.03088 0.49252 0.89035 0.0
H602 H 0.12777 0.56672 0.84201 0.0
H603 H 0.13944 0.56886 0.91357 0.0
C604 C 0.20663 0.58647 0.91006 0.0
C605 C 0.24153 0.59151 0.89657 0.0
C606 C 0.10616 0.55101 0.85266 0.0
C607 C 0.15865 0.56684 0.88183 0.0
C608 C 0.06819 0.5309 0.84528 0.0
C609 C 1.04038 0.50864 0.8586 0.0
C610 C 0.11635 0.54952 0.87359 0.0
C611 C 0.05118 0.50919 0.87945 0.0
C612 C 0.16544 0.57386 0.90281 0.0
C613 C 0.23284 0.58542 0.87569 0.0
N614 N 0.088 0.52905 0.88624 0.0
N615 N 0.19268 0.57348 0.86904 0.0
H616 H 0.74817 0.57054 0.83611 0.0
H617 H 0.8031 0.80699 0.87995 0.0
H618 H 0.8813 0.61155 0.84052 0.0
H619 H 0.68319 0.73705 0.8873 0.0
H620 H 0.83463 0.7418 0.86378 0.0
H621 H 0.72561 0.63781 0.85132 0.0
C622 C 0.77293 0.59387 0.84016 0.0
C623 C 0.81693 0.58462 0.83704 0.0
C624 C 0.80152 0.74092 0.8691 0.0
C625 C 0.79069 0.66347 0.85514 0.0
C626 C 0.78355 0.77808 0.87849 0.0
C627 C 0.74002 0.77814 0.88498 0.0
C628 C 0.77571 0.70372 0.86607 0.0
C629 C 0.71651 0.73946 0.88238 0.0
C630 C 0.75987 0.6326 0.84903 0.0
C631 C 0.84703 0.61706 0.84252 0.0
N632 N 0.73438 0.70459 0.87315 0.0
N633 N 0.83342 0.65491 0.85142 0.0
H634 H 0.57157 0.54185 0.66117 0.0
H635 H 0.72222 0.59181 0.5632 0.0
H636 H 0.54472 0.49301 0.60119 0.0
H637 H 0.76661 0.60663 0.62493 0.0
H638 H 0.65146 0.56763 0.57625 0.0
H639 H 0.63686 0.578 0.64766 0.0
C640 C 0.57864 0.53961 0.6451 0.0
C641 C 0.55211 0.5144 0.63235 0.0
C642 C 0.67655 0.57664 0.58695 0.0
C643 C 0.62748 0.55553 0.61668 0.0
C644 C 0.71699 0.59079 0.57947 0.0
C645 C 0.75086 0.60147 0.59289 0.0
C646 C 0.66927 0.57356 0.60809 0.0
C647 C 0.7418 0.59876 0.6139 0.0
C648 C 0.6163 0.55988 0.63739 0.0
C649 C 0.56392 0.51207 0.61166 0.0
N650 N 0.70227 0.58521 0.62077 0.0
N651 N 0.60035 0.53212 0.60456 0.0
H652 H 0.80372 0.31355 0.41028 0.0
H653 H 0.74358 0.45985 0.31219 0.0
H654 H 0.84259 0.28091 0.3494 0.0
H655 H 0.75227 0.51058 0.37299 0.0
H656 H 0.76399 0.388 0.32552 0.0
H657 H 0.7689 0.37937 0.39685 0.0
C658 C 0.80401 0.31953 0.39406 0.0
C659 C 0.82609 0.29127 0.381 0.0
C660 C 0.76078 0.41478 0.33597 0.0
C661 C 0.78628 0.36701 0.36542 0.0
C662 C 0.7487 0.45576 0.32837 0.0
C663 C 0.74604 0.49156 0.34144 0.0
C664 C 0.7695 0.40914 0.35689 0.0
C665 C 0.75391 0.4841 0.36228 0.0
C666 C 0.78448 0.35741 0.38639 0.0
C667 C 0.826 0.30157 0.3601 0.0
N668 N 0.76516 0.4441 0.3693 0.0
N669 N 0.80659 0.33827 0.35302 0.0
H670 H 0.87228 0.48823 0.06394 0.0
H671 H 1.01931 0.55569 0.16068 0.0
H672 H 0.82115 0.50614 0.12419 0.0
H673 H 0.05404 0.58669 0.09898 0.0
H674 H 0.95268 0.52084 0.14796 0.0
H675 H 0.9448 0.50786 0.07691 0.0
C676 C 0.87639 0.49527 0.07994 0.0
C677 C 0.84035 0.49546 0.09294 0.0
C678 C 0.97529 0.53464 0.13718 0.0
C679 C 0.92344 0.51792 0.10798 0.0
C680 C 1.01361 0.55414 0.14445 0.0
C681 C 0.04266 0.57404 0.13092 0.0
C682 C 0.96605 0.53432 0.11616 0.0
C683 C 1.03276 0.57175 0.11001 0.0
C684 C 0.91775 0.50686 0.08733 0.0
C685 C 0.84782 0.50562 0.11355 0.0
N686 N 0.99557 0.55244 0.10332 0.0
N687 N 0.88818 0.51633 0.12037 0.0
H688 H 0.83403 1.02745 0.63379 0.0
H689 H 0.78567 0.77715 0.6091 0.0
H690 H 0.71044 0.97135 0.64931 0.0
H691 H 0.89652 0.85071 0.58939 0.0
H692 H 0.75497 0.8442 0.62388 0.0
H693 H 0.85568 0.95994 0.61875 0.0
C694 C 0.81113 1.00089 0.6341 0.0
C695 C 0.76995 1.00593 0.64288 0.0
C696 C 0.78577 0.84557 0.6161 0.0
C697 C 0.79529 0.92634 0.62512 0.0
C698 C 0.80311 0.80735 0.60746 0.0
C699 C 0.8439 0.80804 0.59789 0.0
C700 C 0.80946 0.88464 0.61518 0.0
C701 C 0.86519 0.84817 0.59664 0.0
C702 C 0.82369 0.96188 0.62535 0.0
C703 C 0.74249 0.96932 0.64281 0.0
N704 N 0.848 0.88421 0.60517 0.0
N705 N 0.75556 0.93116 0.63404 0.0
H706 H 0.05619 0.08339 0.88549 0.0
H707 H 0.81912 0.99695 0.86231 0.0
H708 H 1.01555 0.04931 0.82499 0.0
H709 H 0.8754 0.98615 0.922 0.0
H710 H 0.89035 1.0153 0.84846 0.0
H711 H 0.99158 0.04758 0.89923 0.0
C712 C 1.03415 0.06743 0.87509 0.0
C713 C 1.04195 0.06891 0.85401 0.0
C714 C 0.88749 1.00824 0.86453 0.0
C715 C 0.96627 1.02895 0.86973 0.0
C716 C 0.8467 0.99759 0.87249 0.0
C717 C 0.84101 0.98943 0.89339 0.0
C718 C 0.92336 1.01215 0.87755 0.0
C719 C 0.87812 0.99145 0.90578 0.0
C720 C 0.99705 0.04711 0.88298 0.0
C721 C 1.01154 0.04835 0.84133 0.0
N722 N 0.91739 1.00324 0.89776 0.0
N723 N 0.97491 1.02992 0.84933 0.0
H724 H 0.8337 0.07133 0.11451 0.0
H725 H 0.74224 0.30413 0.14052 0.0
H726 H 0.8409 0.12322 0.17512 0.0
H727 H 0.77872 0.26855 0.0797 0.0
H728 H 0.77841 0.23934 0.15357 0.0
H729 H 0.81423 0.14289 0.1016 0.0
C730 C 0.83188 0.09802 0.12511 0.0
C731 C 0.8393 0.09101 0.14599 0.0
C732 C 0.77925 0.24594 0.13741 0.0
C733 C 0.81554 0.17368 0.13119 0.0
C734 C 0.75865 0.2831 0.12991 0.0
C735 C 0.75768 0.2923 0.10894 0.0
C736 C 0.7983 0.2166 0.12386 0.0
C737 C 0.77911 0.26334 0.09597 0.0
C738 C 0.82066 0.139 0.11768 0.0
C739 C 0.83604 0.127 0.15892 0.0
N740 N 0.79785 0.22662 0.10358 0.0
N741 N 0.82376 0.16648 0.15138 0.0
H742 H 0.76391 0.07651 0.36583 0.0
H743 H 0.52584 0.99594 0.39 0.0
H744 H 0.70764 0.09406 0.42507 0.0
H745 H 0.56671 1.02603 0.32907 0.0
H746 H 0.59096 1.03167 0.40328 0.0
H747 H 0.69245 0.05819 0.35223 0.0
C748 C 0.73632 0.07719 0.37596 0.0
C749 C 0.74204 0.08717 0.39667 0.0
C750 C 0.58542 1.03127 0.38702 0.0
C751 C 0.65944 0.06475 0.38113 0.0
C752 C 0.54808 1.01096 0.3794 0.0
C753 C 0.54027 1.00837 0.35834 0.0
C754 C 0.61634 0.04823 0.37354 0.0
C755 C 0.57081 1.02783 0.34539 0.0
C756 C 0.6954 0.06665 0.36814 0.0
C757 C 0.7049 0.08712 0.409 0.0
N758 N 0.60766 0.04623 0.35315 0.0
N759 N 0.66544 0.0754 0.40114 0.0
H760 H 0.33917 0.0717 0.37372 0.0
H761 H 0.24089 0.30138 0.34728 0.0
H762 H 0.33852 0.12098 0.31247 0.0
H763 H 0.28476 0.26927 0.40757 0.0
H764 H 0.27718 0.23695 0.33412 0.0
H765 H 0.32052 0.14364 0.3863 0.0
C766 C 0.33586 0.09793 0.3629 0.0
C767 C 0.34078 0.09011 0.34196 0.0
C768 C 0.27964 0.24427 0.35017 0.0
C769 C 0.31792 0.17308 0.35637 0.0
C770 C 0.25898 0.28122 0.35772 0.0
C771 C 0.26002 0.29122 0.37859 0.0
C772 C 0.30077 0.21596 0.36359 0.0
C773 C 0.28357 0.2634 0.39137 0.0
C774 C 0.32511 0.1391 0.37013 0.0
C775 C 0.33563 0.12545 0.32872 0.0
N776 N 0.30233 0.22682 0.38374 0.0
N777 N 0.32381 0.1651 0.3361 0.0
H778 H 0.06758 1.03057 0.16057 0.0
H779 H 0.21041 0.09762 0.06256 0.0
H780 H 1.03104 0.99771 0.09931 0.0
H781 H 0.26436 0.07919 0.12234 0.0
H782 H 0.13843 0.0783 0.07618 0.0
H783 H 0.13335 0.0659 0.14721 0.0
C784 C 0.07267 1.03188 0.14429 0.0
C785 C 0.04338 1.01134 0.13107 0.0
C786 C 0.16596 0.07921 0.08637 0.0
C787 C 0.119 0.05156 0.1156 0.0
C788 C 0.20701 0.09065 0.07861 0.0
C789 C 0.24365 0.09023 0.0913 0.0
C790 C 0.16122 0.06805 0.10706 0.0
C791 C 0.23714 0.08001 0.11196 0.0
C792 C 0.1105 0.05164 0.13666 0.0
C793 C 0.0525 1.01325 0.11009 0.0
N794 N 0.19707 0.06944 0.11914 0.0
N795 N 0.08923 1.03282 0.10305 0.0
H796 H 0.29772 0.81431 0.91105 0.0
H797 H 0.24237 0.95839 0.81167 0.0
H798 H 0.34055 0.78091 0.85088 0.0
H799 H 0.24716 1.01005 0.8724 0.0
H800 H 0.26219 0.88684 0.8255 0.0
H801 H 0.26269 0.87931 0.89687 0.0
C802 C 0.29866 0.81986 0.8948 0.0
C803 C 0.32187 0.79167 0.88216 0.0
C804 C 0.25827 0.91376 0.83581 0.0
C805 C 0.28209 0.86654 0.86574 0.0
C806 C 0.24657 0.95458 0.82792 0.0
C807 C 0.243 0.99058 0.84083 0.0
C808 C 0.26569 0.90846 0.85685 0.0
C809 C 0.24958 0.98345 0.8618 0.0
C810 C 0.27908 0.8573 0.88671 0.0
C811 C 0.32284 0.80146 0.86122 0.0
N812 N 0.2605 0.94358 0.86908 0.0
N813 N 0.30343 0.83778 0.85372 0.0
H814 H 0.327 0.98926 0.62229 0.0
H815 H 0.55567 0.09263 0.59626 0.0
H816 H 0.37581 0.99187 0.56104 0.0
H817 H 0.52398 0.04802 0.65643 0.0
H818 H 0.49164 0.0551 0.58292 0.0
H819 H 0.39878 1.00944 0.63492 0.0
C820 C 0.35309 0.99333 0.61147 0.0
C821 C 0.34512 0.98845 0.59051 0.0
C822 C 0.49901 0.0527 0.59898 0.0
C823 C 0.42802 1.01313 0.60501 0.0
C824 C 0.53578 0.074 0.60663 0.0
C825 C 0.54584 0.07307 0.62751 0.0
C826 C 0.47084 1.03105 0.61232 0.0
C827 C 0.51818 0.04904 0.64021 0.0
C828 C 0.3942 1.00498 0.61874 0.0
C829 C 0.38035 0.99465 0.5773 0.0
N830 N 0.48176 1.02966 0.6325 0.0
N831 N 0.41992 1.00731 0.58472 0.0
H832 H 0.36021 0.1679 0.88715 0.0
H833 H 0.29307 0.20424 0.00269 0.0
H834 H 0.22745 0.17809 0.90686 0.0
H835 H 0.40374 0.131 0.98293 0.0
H836 H 0.27708 0.222 0.96697 0.0
H837 H 0.38399 0.18324 0.92182 0.0
C838 C 0.33606 0.17399 0.8987 0.0
C839 C 0.29178 0.17023 0.89437 0.0
C840 C 0.30534 0.20287 0.9706 0.0
C841 C 0.31881 0.18825 0.93376 0.0
C842 C 0.31446 0.19281 0.99084 0.0
C843 C 0.3492 0.16554 -0.00451 0.0
C844 C 0.33183 0.18621 0.95521 0.0
C845 C 0.37614 0.15147 0.97979 0.0
C846 C 0.34969 0.18286 0.91841 0.0
C847 C 0.26191 0.17945 0.90976 0.0
N848 N 0.36674 0.16177 0.96028 0.0
N849 N 0.27598 0.18743 0.92894 0.0
H850 H 0.63122 0.48705 0.25551 0.0
H851 H 0.65766 0.59646 0.14626 0.0
H852 H 0.64422 0.62441 0.24548 0.0
H853 H 0.67005 0.4596 0.15768 0.0
H854 H 0.63543 0.60664 0.18155 0.0
H855 H 0.62755 0.47632 0.21872 0.0
C856 C 0.63253 0.515 0.2456 0.0
C857 C 0.63893 0.55658 0.25351 0.0
C858 C 0.64276 0.57435 0.17628 0.0
C859 C 0.63497 0.54455 0.21155 0.0
C860 C 0.65558 0.56854 0.15617 0.0
C861 C 0.66675 0.52726 0.1492 0.0
C862 C 0.64124 0.53865 0.18947 0.0
C863 C 0.66258 0.49212 0.16255 0.0
C864 C 0.63059 0.50884 0.22461 0.0
C865 C 0.6401 0.59168 0.23999 0.0
N866 N 0.65059 0.49867 0.18213 0.0
N867 N 0.63869 0.58482 0.21965 0.0
H868 H 0.3494 0.87676 0.50593 0.0
H869 H 0.24094 0.90414 0.39656 0.0
H870 H 0.21181 0.8856 0.4954 0.0
H871 H 0.37735 0.92094 0.40851 0.0
H872 H 0.23095 0.87987 0.43157 0.0
H873 H 0.36091 0.87476 0.46916 0.0
C874 C 0.32158 0.87744 0.49591 0.0
C875 C 0.27967 0.88226 0.50367 0.0
C876 C 0.26311 0.88862 0.42648 0.0
C877 C 0.29258 0.88023 0.46176 0.0
C878 C 0.26881 0.90265 0.40654 0.0
C879 C 0.30987 0.91561 0.3998 0.0
C880 C 0.29868 0.88774 0.43977 0.0
C881 C 0.34498 0.91208 0.41322 0.0
C882 C 0.32818 0.87648 0.47494 0.0
C883 C 0.24475 0.8827 0.49002 0.0
N884 N 0.33851 0.89891 0.43266 0.0
N885 N 0.25203 0.88228 0.46971 0.0
H886 H 0.96041 0.53248 0.75428 0.0
H887 H 0.90179 0.47632 0.63921 0.0
H888 H 0.86173 0.44182 0.73568 0.0
H889 H 0.9486 0.60154 0.6582 0.0
H890 H 0.91128 0.44988 0.67395 0.0
H891 H 0.97863 0.5446 0.71832 0.0
C892 C 0.94316 0.51467 0.74263 0.0
C893 C 0.90899 0.48687 0.74773 0.0
C894 C 0.92018 0.48291 0.67037 0.0
C895 C 0.93009 0.49968 0.70711 0.0
C896 C 0.91483 0.49802 0.6506 0.0
C897 C 0.92319 0.54152 0.64606 0.0
C898 C 0.9343 0.51145 0.68555 0.0
C899 C 0.94065 0.56807 0.66128 0.0
C900 C 0.95353 0.52155 0.72223 0.0
C901 C 0.88768 0.46426 0.73224 0.0
N902 N 0.94511 0.55275 0.6805 0.0
N903 N 0.89844 0.47133 0.71257 0.0
H904 H 0.88153 0.92429 0.08088 0.0
H905 H 0.71225 0.8905 0.99134 0.0
H906 H 0.74408 0.90944 0.09023 0.0
H907 H 0.8505 0.89367 0.98227 0.0
H908 H 0.724 0.88812 0.02795 0.0
H909 H 0.87174 0.9045 0.04528 0.0
C910 C 0.84929 0.91668 0.07546 0.0
C911 C 0.81341 0.91946 0.0884 0.0
C912 C 0.75183 0.88878 0.01798 0.0
C913 C 0.802 0.89672 0.04771 0.0
C914 C 0.74513 0.89016 -0.00294 0.0
C915 C 0.78047 0.893 0.98376 0.0
C916 C 0.79415 0.89077 0.02569 0.0
C917 C 0.82233 0.89189 0.99199 0.0
C918 C 0.84375 0.9052 0.05515 0.0
C919 C 0.77253 0.90849 0.08067 0.0
N920 N 0.82802 0.89153 0.01247 0.0
N921 N 0.76786 0.89809 0.06075 0.0
H922 H 0.45864 0.6006 0.73195 0.0
H923 H 0.42869 0.49641 0.84199 0.0
H924 H 0.44841 0.46359 0.74361 0.0
H925 H 0.42035 0.63323 0.82965 0.0
H926 H 0.45192 0.48459 0.80704 0.0
H927 H 0.46099 0.61347 0.7686 0.0
C928 C 0.45764 0.57319 0.74219 0.0
C929 C 0.45245 0.53104 0.73475 0.0
C930 C 0.44528 0.51724 0.81201 0.0
C931 C 0.45488 0.54552 0.77658 0.0
C932 C 0.43191 0.524 0.83195 0.0
C933 C 0.42163 0.56577 0.83859 0.0
C934 C 0.44807 0.55244 0.79857 0.0
C935 C 0.4272 0.6004 0.82505 0.0
C936 C 0.45884 0.58056 0.76311 0.0
C937 C 0.45164 0.4967 0.7487 0.0
N938 N 0.43955 0.5929 0.80558 0.0
N939 N 0.45229 0.50474 0.76896 0.0
H940 H 0.83334 0.20425 0.58898 0.0
H941 H 0.72811 0.19752 0.47839 0.0
H942 H 0.70097 0.16687 0.57718 0.0
H943 H 0.86511 0.20694 0.49051 0.0
H944 H 0.71406 0.2055 0.5148 0.0
H945 H 0.8412 0.22446 0.55337 0.0
C946 C 0.80583 0.20049 0.57892 0.0
C947 C 0.76677 0.18276 0.5859 0.0
C948 C 0.74713 0.20652 0.50941 0.0
C949 C 0.77561 0.20581 0.54515 0.0
C950 C 0.75517 0.20214 0.48865 0.0
C951 C 0.79788 0.20069 0.48154 0.0
C952 C 0.78207 0.2097 0.523 0.0
C953 C 0.83172 0.20705 0.49543 0.0
C954 C 0.81032 0.21217 0.5586 0.0
C955 C 0.73191 0.17962 0.57231 0.0
N956 N 0.8231 0.21078 0.51554 0.0
N957 N 0.73734 0.19045 0.55246 0.0
H958 H 0.13339 0.48523 0.23098 0.0
H959 H 0.15834 0.59387 0.34039 0.0
H960 H 0.1419 0.62284 0.24107 0.0
H961 H 0.17404 0.45758 0.32867 0.0
H962 H 0.1356 0.60409 0.30509 0.0
H963 H 0.13079 0.47402 0.26775 0.0
C964 C 0.13393 0.51312 0.2409 0.0
C965 C 0.13875 0.55496 0.23299 0.0
C966 C 0.14377 0.57192 0.3103 0.0
C967 C 0.13609 0.54237 0.27497 0.0
C968 C 0.15688 0.56609 0.33041 0.0
C969 C 0.16913 0.52499 0.3373 0.0
C970 C 0.14296 0.53639 0.29704 0.0
C971 C 0.16575 0.48999 0.32387 0.0
C972 C 0.13262 0.50669 0.26188 0.0
C973 C 0.13896 0.58995 0.24654 0.0
N974 N 0.1534 0.49656 0.30431 0.0
N975 N 0.13824 0.58283 0.26689 0.0
H976 H 0.84937 0.67611 0.39401 0.0
H977 H 0.74387 0.7075 0.50361 0.0
H978 H 0.71265 0.6648 0.40631 0.0
H979 H 0.88066 0.69154 0.49294 0.0
H980 H 0.73205 0.71029 0.46685 0.0
H981 H 0.86098 0.69973 0.42902 0.0
C982 C 0.82178 0.67873 0.40405 0.0
C983 C 0.78013 0.66739 0.39743 0.0
C984 C 0.7647 0.70679 0.47259 0.0
C985 C 0.79315 0.69451 0.43738 0.0
C986 C 0.77148 0.70534 0.49356 0.0
C987 C 0.81318 0.69838 0.50129 0.0
C988 C 0.7999 0.70138 0.45937 0.0
C989 C 0.84784 0.69612 0.48759 0.0
C990 C 0.82841 0.69235 0.424 0.0
C991 C 0.74544 0.67231 0.41093 0.0
N992 N 0.84036 0.6971 0.46728 0.0
N993 N 0.75278 0.68507 0.43035 0.0
H994 H 0.16832 0.94515 0.65558 0.0
H995 H 0.13702 0.11697 0.74376 0.0
H996 H 0.16075 0.08294 0.64582 0.0
H997 H 0.13974 0.97915 0.75395 0.0
H998 H 0.13341 0.10415 0.70729 0.0
H999 H 0.14653 0.95588 0.69086 0.0
C1000 C 0.16181 0.97764 0.66082 0.0
C1001 C 0.16734 1.01332 0.64791 0.0
C1002 C 0.13421 0.07665 0.71747 0.0
C1003 C 0.14231 1.0258 0.68818 0.0
C1004 C 0.13627 0.08395 0.73832 0.0
C1005 C 0.13952 0.04905 0.75186 0.0
C1006 C 0.13598 1.03415 0.7101 0.0
C1007 C 0.13774 1.00698 0.74401 0.0
C1008 C 0.14922 0.98373 0.68095 0.0
C1009 C 0.15773 0.05459 0.65538 0.0
N1010 N 0.13684 1.00069 0.72359 0.0
N1011 N 0.14617 0.05974 0.6751 0.0
H1012 H 0.72366 0.41127 0.88945 0.0
H1013 H 0.79361 0.38481 0.00525 0.0
H1014 H 0.85773 0.41185 0.90811 0.0
H1015 H 0.6818 0.45599 0.98493 0.0
H1016 H 0.81114 0.36856 0.96957 0.0
H1017 H 0.70237 0.39988 0.9247 0.0
C1018 C 0.74869 0.40851 0.90092 0.0
C1019 C 0.79251 0.4139 0.896 0.0
C1020 C 0.7824 0.38701 0.97307 0.0
C1021 C 0.76822 0.40026 0.93614 0.0
C1022 C 0.77236 0.39615 0.99328 0.0
C1023 C 0.73662 0.42215 -0.00223 0.0
C1024 C 0.75574 0.40316 0.95758 0.0
C1025 C 0.70999 0.43632 0.98192 0.0
C1026 C 0.73644 0.40188 0.92098 0.0
C1027 C 0.82354 0.409 0.9114 0.0
N1028 N 0.72015 0.42669 0.96245 0.0
N1029 N 0.81075 0.40296 0.93094 0.0
H1030 H 0.43091 0.10135 0.15653 0.0
H1031 H 0.36731 0.92934 0.23574 0.0
H1032 H 0.40724 0.96882 0.13921 0.0
H1033 H 0.45373 1.03309 0.25248 0.0
H1034 H 0.38426 0.94223 0.20003 0.0
H1035 H 0.44354 0.07738 0.1915 0.0
C1036 C 0.42885 0.0672 0.16005 0.0
C1037 C 0.41667 1.03714 0.14518 0.0
C1038 C 0.40021 0.96167 0.2115 0.0
C1039 C 0.4309 1.00975 0.18488 0.0
C1040 C 0.39028 0.95454 0.23181 0.0
C1041 C 0.40877 0.98067 0.24684 0.0
C1042 C 0.42777 0.99602 0.20624 0.0
C1043 C 0.43874 1.01252 0.24117 0.0
C1044 C 0.43643 0.05353 0.17993 0.0
C1045 C 0.41553 0.99318 0.15036 0.0
N1046 N 0.44661 1.02008 0.22117 0.0
N1047 N 0.42156 0.98087 0.16992 0.0
H1048 H 0.28989 0.37625 0.48215 0.0
H1049 H 0.23401 0.4176 0.59863 0.0
H1050 H 0.18376 0.45397 0.50358 0.0
H1051 H 0.36399 0.39725 0.57675 0.0
H1052 H 0.20648 0.4035 0.56448 0.0
H1053 H 0.30786 0.35813 0.51757 0.0
C1054 C 0.2699 0.38869 0.4943 0.0
C1055 C 0.23589 0.41724 0.49016 0.0
C1056 C 0.24095 0.40142 0.56729 0.0
C1057 C 0.25558 0.39622 0.53019 0.0
C1058 C 0.25673 0.40955 0.58671 0.0
C1059 C 0.30147 0.41011 0.59028 0.0
C1060 C 0.27011 0.39361 0.55144 0.0
C1061 C 0.32933 0.39838 0.57444 0.0
C1062 C 0.28015 0.37841 0.5144 0.0
C1063 C 0.21079 0.4325 0.50628 0.0
N1064 N 0.31322 0.39124 0.55554 0.0
N1065 N 0.22132 0.42201 0.52565 0.0
H1066 H 0.9108 0.96842 0.35043 0.0
H1067 H 0.95322 1.03845 0.23553 0.0
H1068 H 0.92735 0.10146 0.33201 0.0
H1069 H 0.87343 0.93057 0.25377 0.0
H1070 H 0.96931 0.0529 0.27154 0.0
H1071 H 0.9241 0.94588 0.31545 0.0
C1072 C 0.91783 0.99286 0.33909 0.0
C1073 C 0.91659 1.03697 0.34391 0.0
C1074 C 0.94899 1.02562 0.26752 0.0
C1075 C 0.93232 1.01131 0.30414 0.0
C1076 C 0.93989 1.01737 0.24711 0.0
C1077 C 0.91143 0.98381 0.24191 0.0
C1078 C 0.93019 0.99944 0.28256 0.0
C1079 C 0.89491 0.95725 0.25731 0.0
C1080 C 0.92549 0.97994 0.31919 0.0
C1081 C 0.92683 0.06719 0.32875 0.0
N1082 N 0.90439 0.96576 0.277 0.0
N1083 N 0.93376 0.05382 0.30939 0.0
H1084 H 0.20866 0.65727 0.08412 0.0
H1085 H 0.37511 0.68918 -0.00652 0.0
H1086 H 0.34655 0.67059 0.0927 0.0
H1087 H 0.23649 0.68971 0.9854 0.0
H1088 H 0.36485 0.69099 0.03019 0.0
H1089 H 0.21753 0.67694 0.04844 0.0
C1090 C 0.24081 0.66444 0.07851 0.0
C1091 C 0.27706 0.66134 0.09127 0.0
C1092 C 0.33664 0.69127 0.02041 0.0
C1093 C 0.28742 0.68399 0.05048 0.0
C1094 C 0.34248 0.69023 -0.00057 0.0
C1095 C 0.30656 0.6886 0.98638 0.0
C1096 C 0.29459 0.69015 0.02842 0.0
C1097 C 0.26508 0.69055 -0.00509 0.0
C1098 C 0.24583 0.6759 0.05815 0.0
C1099 C 0.31781 0.67183 0.0833 0.0
N1100 N 0.2602 0.69055 0.01543 0.0
N1101 N 0.32196 0.6822 0.06334 0.0
H1102 H 0.63822 0.04578 0.73115 0.0
H1103 H 0.68868 0.11324 0.84563 0.0
H1104 H 0.73447 0.14026 0.74831 0.0
H1105 H 0.6562 0.98218 0.82896 0.0
H1106 H 0.68197 0.13457 0.80996 0.0
H1107 H 0.62286 1.03305 0.76739 0.0
C1108 C 0.65564 0.06414 0.74256 0.0
C1109 C 0.68809 0.09353 0.73695 0.0
C1110 C 0.67568 0.10131 0.81423 0.0
C1111 C 0.67006 0.08011 0.77785 0.0
C1112 C 0.67939 0.08912 0.83452 0.0
C1113 C 0.67402 0.04568 0.84007 0.0
C1114 C 0.6659 0.06996 0.79956 0.0
C1115 C 0.66158 1.01581 0.82514 0.0
C1116 C 0.6469 0.05689 0.76309 0.0
C1117 C 0.70976 0.11675 0.75213 0.0
N1118 N 0.65828 1.02844 0.80543 0.0
N1119 N 0.70035 0.10952 0.77195 0.0
H1120 H 0.57684 0.93254 0.96422 0.0
H1121 H 0.50967 0.15193 0.02271 0.0
H1122 H 0.64736 0.05171 0.95794 0.0
H1123 H 0.43763 1.03334 0.02736 0.0
H1124 H 0.55872 0.11714 -0.0016 0.0
H1125 H 0.52778 0.96793 0.98828 0.0
C1126 C 0.58349 0.96561 0.96865 0.0
C1127 C 0.61799 0.98825 0.95945 0.0
C1128 C 0.53156 0.09887 0.00429 0.0
C1129 C 0.55924 1.03061 0.98641 0.0
C1130 C 0.50269 0.11919 0.01788 0.0
C1131 C 0.46782 0.09647 0.02673 0.0
C1132 C 0.52653 0.05476 -0.00049 0.0
C1133 C 0.46248 0.05311 0.02047 0.0
C1134 C 0.5546 0.98625 0.98208 0.0
C1135 C 0.62286 1.03202 0.96515 0.0
N1136 N 0.49145 1.03382 0.00757 0.0
N1137 N 0.59391 0.0516 0.97798 0.0
H1138 H 0.68413 0.75696 0.27242 0.0
H1139 H 0.90389 0.82476 0.21358 0.0
H1140 H 0.80349 0.68755 0.27905 0.0
H1141 H 0.78474 0.89482 0.2079 0.0
H1142 H 0.86898 0.77596 0.23815 0.0
H1143 H 0.71945 0.8057 0.248 0.0
C1144 C 0.71723 0.75048 0.26803 0.0
C1145 C 0.73991 0.7163 0.27742 0.0
C1146 C 0.85059 0.80264 0.23196 0.0
C1147 C 0.78221 0.77475 0.24999 0.0
C1148 C 0.87095 0.83137 0.2182 0.0
C1149 C 0.84817 0.86573 0.20901 0.0
C1150 C 0.80634 0.80725 0.23659 0.0
C1151 C 0.80459 0.87051 0.21502 0.0
C1152 C 0.73783 0.77919 0.25436 0.0
C1153 C 0.78372 0.71171 0.27172 0.0
N1154 N 0.78527 0.84173 0.22812 0.0
N1155 N 0.80326 0.74047 0.25866 0.0
H1156 H 1.00545 0.15163 0.46796 0.0
H1157 H 0.07985 0.92781 0.52124 0.0
H1158 H 0.93757 1.03144 0.46 0.0
H1159 H 0.14649 0.0483 0.53039 0.0
H1160 H 1.02966 0.9643 0.4979 0.0
H1161 H 0.05575 0.11545 0.49139 0.0
C1162 C 0.9996 0.11811 0.47189 0.0
C1163 C 0.96536 0.09546 0.46242 0.0
C1164 C 0.05589 0.98273 0.50457 0.0
C1165 C 1.02566 0.05228 0.48862 0.0
C1166 C 0.08545 0.96152 0.5176 0.0
C1167 C 0.1193 0.98413 0.52738 0.0
C1168 C 0.05913 1.02764 0.50125 0.0
C1169 C 0.12269 1.02863 0.52269 0.0
C1170 C 1.02921 0.09706 0.48497 0.0
C1171 C 0.96166 0.05117 0.46747 0.0
N1172 N 0.09313 0.0487 0.51025 0.0
N1173 N 0.99131 1.03125 0.47992 0.0
H1174 H 0.68656 0.27244 0.70905 0.0
H1175 H 0.89922 0.30962 0.77818 0.0
H1176 H 0.7919 0.18194 0.71074 0.0
H1177 H 0.79888 0.40463 0.77144 0.0
H1178 H 0.86205 0.26353 0.75336 0.0
H1179 H 0.72508 0.31821 0.73347 0.0
C1180 C 0.7172 0.26123 0.71506 0.0
C1181 C 0.73546 0.22262 0.70755 0.0
C1182 C 0.84831 0.29469 0.75702 0.0
C1183 C 0.78147 0.27691 0.73543 0.0
C1184 C 0.87011 0.32169 0.77098 0.0
C1185 C 0.85263 0.36169 0.77722 0.0
C1186 C 0.80799 0.30705 0.749 0.0
C1187 C 0.81405 0.37443 0.76742 0.0
C1188 C 0.73973 0.28811 0.72877 0.0
C1189 C 0.77595 0.21096 0.71586 0.0
N1190 N 0.79294 0.34717 0.75419 0.0
N1191 N 0.79756 0.23799 0.72904 0.0
H1192 H 0.30065 0.1813 0.7766 0.0
H1193 H 0.29261 0.4007 0.70919 0.0
H1194 H 0.186 0.25829 0.76986 0.0
H1195 H 0.40678 0.32283 0.71567 0.0
H1196 H 0.25411 0.35133 0.73235 0.0
H1197 H 0.33911 0.23093 0.75366 0.0
C1198 C 0.28273 0.20724 0.76953 0.0
C1199 C 0.23906 0.21404 0.77482 0.0
C1200 C 0.28792 0.3455 0.72915 0.0
C1201 C 0.28446 0.27385 0.74916 0.0
C1202 C 0.31043 0.37461 0.71627 0.0
C1203 C 0.35394 0.36735 0.7108 0.0
C1204 C 0.30855 0.30807 0.7367 0.0
C1205 C 0.37392 0.33098 0.71981 0.0
C1206 C 0.30521 0.23655 0.75676 0.0
C1207 C 0.219 0.25045 0.76585 0.0
N1208 N 0.35126 0.30288 0.73199 0.0
N1209 N 0.24165 0.27877 0.75377 0.0
H1210 H 0.29062 0.67775 0.21509 0.0
H1211 H 0.28691 0.90271 0.27742 0.0
H1212 H 0.18751 0.76989 0.20973 0.0
H1213 H 0.39505 0.81575 0.27788 0.0
H1214 H 0.2504 0.85591 0.25261 0.0
H1215 H 0.32685 0.7254 0.23954 0.0
C1216 C 0.27457 0.70704 0.21952 0.0
C1217 C 0.23519 0.71878 0.21023 0.0
C1218 C 0.28256 0.84742 0.25775 0.0
C1219 C 0.27805 0.77564 0.23815 0.0
C1220 C 0.30407 0.87502 0.27165 0.0
C1221 C 0.34521 0.86454 0.27953 0.0
C1222 C 0.30165 0.80812 0.25169 0.0
C1223 C 0.36411 0.82626 0.27196 0.0
C1224 C 0.29588 0.73499 0.23332 0.0
C1225 C 0.21723 0.75854 0.21661 0.0
N1226 N 0.34229 0.79958 0.25881 0.0
N1227 N 0.23869 0.78533 0.22985 0.0
H1228 H 0.93482 0.53729 0.5256 0.0
H1229 H 0.15301 0.54534 0.45765 0.0
H1230 H 1.01829 0.64844 0.52186 0.0
H1231 H 0.06933 0.43428 0.45994 0.0
H1232 H 0.10586 0.58213 0.48202 0.0
H1233 H 0.98137 0.49992 0.5009 0.0
C1234 C 0.96159 0.55479 0.51885 0.0
C1235 C 0.97134 0.59704 0.5255 0.0
C1236 C 0.09815 0.54931 0.4776 0.0
C1237 C 1.0272 0.55288 0.49785 0.0
C1238 C 0.126 0.5277 0.46396 0.0
C1239 C 0.11662 0.48561 0.45702 0.0
C1240 C 0.05972 0.52929 0.48442 0.0
C1241 C 0.07906 0.466 0.46518 0.0
C1242 C 0.98903 0.5329 0.50507 0.0
C1243 C 1.00834 0.61662 0.51683 0.0
N1244 N 0.05217 0.48784 0.47816 0.0
N1245 N 1.03477 0.59452 0.50378 0.0
H1246 H 0.64987 0.54644 0.02847 0.0
H1247 H 0.43144 0.53459 0.96048 0.0
H1248 H 0.56712 0.43464 0.0272 0.0
H1249 H 0.51192 0.6478 0.96471 0.0
H1250 H 0.47894 0.49786 0.98504 0.0
H1251 H 0.60217 0.58208 0.00384 0.0
C1252 C 0.62301 0.52834 0.02231 0.0
C1253 C 0.61408 0.48639 0.02966 0.0
C1254 C 0.48576 0.53111 0.981 0.0
C1255 C 0.55644 0.52881 0.0019 0.0
C1256 C 0.45773 0.55265 0.96726 0.0
C1257 C 0.4662 0.59536 0.9608 0.0
C1258 C 0.52341 0.55186 0.98837 0.0
C1259 C 0.50286 0.61556 0.96956 0.0
C1260 C 0.5948 0.54932 0.00852 0.0
C1261 C 0.57659 0.46624 0.02165 0.0
N1262 N 0.52991 0.59381 0.98256 0.0
N1263 N 0.54936 0.48747 0.0085 0.0
H1264 H 0.2064 0.73946 0.12678 0.0
H1265 H 0.40549 0.87982 0.09348 0.0
H1266 H 0.33222 0.72407 0.154 0.0
H1267 H 0.29417 0.86114 0.05484 0.0
H1268 H 0.38249 0.81816 0.11408 0.0
H1269 H 0.23945 0.78016 0.0988 0.0
C1270 C 0.2411 0.74447 0.12665 0.0
C1271 C 0.2669 0.72871 0.14245 0.0
C1272 C 0.36352 0.82695 0.10086 0.0
C1273 C 0.30475 0.77554 0.11101 0.0
C1274 C 0.37658 0.8622 0.08916 0.0
C1275 C 0.35107 0.87605 0.07276 0.0
C1276 C 0.32431 0.80605 0.09633 0.0
C1277 C 0.31446 0.85167 0.0675 0.0
C1278 C 0.26 0.76737 0.1107 0.0
C1279 C 0.31157 0.73584 0.1419 0.0
N1280 N 0.30156 0.81837 0.07955 0.0
N1281 N 0.32915 0.75927 0.1265 0.0
H1282 H 0.09385 0.45416 0.37251 0.0
H1283 H 0.95269 0.65527 0.34574 0.0
H1284 H 0.11245 0.57694 0.40207 0.0
H1285 H 0.97013 0.54952 0.30392 0.0
H1286 H 1.01596 0.63085 0.36479 0.0
H1287 H 0.05237 0.49031 0.34564 0.0
C1288 C 0.08946 0.48887 0.37309 0.0
C1289 C 0.10629 0.51296 0.38921 0.0
C1290 C 1.0065 0.61349 0.35121 0.0
C1291 C 0.05864 0.55422 0.35913 0.0
C1292 C 0.9703 0.6273 0.34041 0.0
C1293 C 0.95559 0.60359 0.32361 0.0
C1294 C 1.02746 0.57532 0.34534 0.0
C1295 C 0.98015 0.56833 0.31698 0.0
C1296 C 0.06612 0.50952 0.3578 0.0
C1297 C 0.09984 0.55765 0.38966 0.0
N1298 N 1.01437 0.55458 0.32816 0.0
N1299 N 0.07599 0.57692 0.3749 0.0
H1300 H 0.28968 0.21513 0.55759 0.0
H1301 H 0.26342 0.3639 0.65568 0.0
H1302 H 0.19142 0.19344 0.60306 0.0
H1303 H 0.38616 0.33632 0.62774 0.0
H1304 H 0.22727 0.31888 0.62991 0.0
H1305 H 0.31477 0.27836 0.57665 0.0
C1306 C 0.27289 0.22412 0.57138 0.0
C1307 C 0.23916 0.19846 0.57907 0.0
C1308 C 0.262 0.32338 0.62924 0.0
C1309 C 0.26754 0.27044 0.60072 0.0
C1310 C 0.28246 0.34893 0.64382 0.0
C1311 C 0.32747 0.35373 0.64347 0.0
C1312 C 0.28696 0.30275 0.61437 0.0
C1313 C 0.35126 0.33337 0.62822 0.0
C1314 C 0.28737 0.25998 0.58225 0.0
C1315 C 0.21836 0.21168 0.59693 0.0
N1316 N 0.33066 0.30865 0.61418 0.0
N1317 N 0.23317 0.24664 0.60729 0.0
H1318 H 0.65708 0.54661 0.82353 0.0
H1319 H 0.46402 0.50884 0.89892 0.0
H1320 H 0.58313 0.42818 0.82393 0.0
H1321 H 0.50559 0.63659 0.8815 0.0
H1322 H 0.50633 0.47862 0.87085 0.0
H1323 H 0.60014 0.58143 0.84328 0.0
C1324 C 0.62844 0.52821 0.82751 0.0
C1325 C 0.62497 0.48432 0.82246 0.0
C1326 C 0.50565 0.51331 0.87293 0.0
C1327 C 0.56028 0.52357 0.84526 0.0
C1328 C 0.48168 0.5304 0.88892 0.0
C1329 C 0.481 0.57508 0.89205 0.0
C1330 C 0.53003 0.54115 0.86049 0.0
C1331 C 0.50509 0.60194 0.87921 0.0
C1332 C 0.59594 0.54807 0.83873 0.0
C1333 C 0.58703 0.46204 0.82766 0.0
N1334 N 0.52893 0.58452 0.86399 0.0
N1335 N 0.55647 0.48166 0.83919 0.0
H1336 H 0.68051 0.20217 0.89684 0.0
H1337 H 0.88134 0.33911 0.86033 0.0
H1338 H 0.79807 0.21319 0.93186 0.0
H1339 H 0.75484 0.34966 0.83333 0.0
H1340 H 0.84965 0.29866 0.88876 0.0
H1341 H 0.70361 0.26348 0.87609 0.0
C1342 C 0.71084 0.21815 0.90037 0.0
C1343 C 0.73797 0.20219 0.91572 0.0
C1344 C 0.82867 0.31036 0.87678 0.0
C1345 C 0.765 0.27158 0.89189 0.0
C1346 C 0.8468 0.33308 0.86056 0.0
C1347 C 0.82039 0.34769 0.84473 0.0
C1348 C 0.78406 0.30138 0.87675 0.0
C1349 C 0.77599 0.33917 0.84543 0.0
C1350 C 0.72404 0.25312 0.88855 0.0
C1351 C 0.77648 0.22438 0.92 0.0
N1352 N 0.75918 0.31623 0.86114 0.0
N1353 N 0.78941 0.25743 0.90781 0.0
H1354 H 0.15225 0.448 0.63993 0.0
H1355 H 0.99626 0.63696 0.6087 0.0
H1356 H 0.1373 0.56273 0.67639 0.0
H1357 H 0.98277 0.50827 0.5847 0.0
H1358 H 0.04374 0.60889 0.63549 0.0
H1359 H 0.08662 0.46696 0.62125 0.0
C1360 C 0.135 0.47708 0.64407 0.0
C1361 C 0.15082 0.50448 0.65937 0.0
C1362 C 1.02969 0.58655 0.62467 0.0
C1363 C 0.0757 0.52631 0.6381 0.0
C1364 C 1.00265 0.60258 0.60946 0.0
C1365 C 0.98547 0.57459 0.59485 0.0
C1366 C 1.04071 0.54251 0.62472 0.0
C1367 C 0.99518 0.53054 0.59599 0.0
C1368 C 0.09732 0.48769 0.63353 0.0
C1369 C 0.12645 0.541 0.66454 0.0
N1370 N 1.02269 0.51583 0.61055 0.0
N1371 N 0.09053 0.55133 0.65366 0.0
H1372 H 0.79241 0.85985 0.43482 0.0
H1373 H 0.83125 0.72263 0.33372 0.0
H1374 H 0.90028 0.88029 0.39436 0.0
H1375 H 0.70643 0.74091 0.36133 0.0
H1376 H 0.86463 0.76415 0.3615 0.0
H1377 H 0.7696 0.79817 0.41401 0.0
C1378 C 0.81179 0.85078 0.42182 0.0
C1379 C 0.84753 0.87583 0.41593 0.0
C1380 C 0.83003 0.75857 0.3616 0.0
C1381 C 0.82157 0.80597 0.39214 0.0
C1382 C 0.81114 0.73507 0.34584 0.0
C1383 C 0.76635 0.72858 0.34554 0.0
C1384 C 0.80373 0.77568 0.37698 0.0
C1385 C 0.74118 0.7454 0.36126 0.0
C1386 C 0.79859 0.81588 0.4099 0.0
C1387 C 0.87175 0.86254 0.39905 0.0
N1388 N 0.76025 0.76834 0.37642 0.0
N1389 N 0.85799 0.82881 0.38757 0.0
H1390 H 0.61457 0.58305 0.0823 0.0
H1391 H 0.48087 0.56837 0.18559 0.0
H1392 H 0.58793 0.46445 0.11438 0.0
H1393 H 0.45689 0.66522 0.13966 0.0
H1394 H 0.54171 0.54174 0.16552 0.0
H1395 H 0.5759 0.62329 0.10884 0.0
C1396 C 0.60091 0.56577 0.09512 0.0
C1397 C 0.60414 0.52077 0.09646 0.0
C1398 C 0.52353 0.56932 0.16008 0.0
C1399 C 0.56069 0.5659 0.12652 0.0
C1400 C 0.4891 0.58477 0.17155 0.0
C1401 C 0.4631 0.61817 0.16392 0.0
C1402 C 0.53207 0.58777 0.14102 0.0
C1403 C 0.47536 0.63848 0.14574 0.0
C1404 C 0.5791 0.58855 0.11017 0.0
C1405 C 0.58584 0.49927 0.11303 0.0
N1406 N 0.50869 0.62249 0.1347 0.0
N1407 N 0.56477 0.52212 0.12752 0.0
H1408 H 0.75029 0.40347 0.55932 0.0
H1409 H 0.82012 0.23796 0.64621 0.0
H1410 H 0.87657 0.39915 0.58723 0.0
H1411 H 0.68785 0.25752 0.62791 0.0
H1412 H 0.84405 0.28499 0.61875 0.0
H1413 H 0.7302 0.33773 0.57803 0.0
C1414 C 0.77398 0.38818 0.56909 0.0
C1415 C 0.81467 0.40718 0.57222 0.0
C1416 C 0.80979 0.27869 0.62053 0.0
C1417 C 0.79209 0.33266 0.59355 0.0
C1418 C 0.7962 0.25175 0.63621 0.0
C1419 C 0.75213 0.24377 0.63911 0.0
C1420 C 0.77892 0.29848 0.60795 0.0
C1421 C 0.72221 0.263 0.62596 0.0
C1422 C 0.76246 0.35092 0.57982 0.0
C1423 C 0.8444 0.38612 0.58488 0.0
N1424 N 0.73614 0.28978 0.61092 0.0
N1425 N 0.83234 0.35024 0.59527 0.0
H1426 H 0.59924 0.95484 0.87477 0.0
H1427 H 0.44767 0.14822 0.84437 0.0
H1428 H 0.60698 0.07937 0.90368 0.0
H1429 H 0.46699 1.03748 0.80572 0.0
H1430 H 0.51095 0.12716 0.86427 0.0
H1431 H 0.55568 0.98673 0.84746 0.0
C1432 C 0.59219 0.98911 0.87508 0.0
C1433 C 0.60664 1.01485 0.89116 0.0
C1434 C 0.50183 0.10783 0.85124 0.0
C1435 C 0.55619 0.05126 0.86058 0.0
C1436 C 0.46557 0.11972 0.83994 0.0
C1437 C 0.4515 0.09387 0.82371 0.0
C1438 C 0.5237 0.06948 0.84645 0.0
C1439 C 0.47652 0.058 0.81828 0.0
C1440 C 0.5675 1.00735 0.85955 0.0
C1441 C 0.59645 0.05884 0.89129 0.0
N1442 N 0.51093 0.04631 0.82989 0.0
N1443 N 0.57136 0.07568 0.87629 0.0
H1444 H 0.877 0.84125 0.12472 0.0
H1445 H 0.67459 0.70194 0.09801 0.0
H1446 H 0.75436 0.86199 0.15404 0.0
H1447 H 0.77881 0.7217 0.05542 0.0
H1448 H 0.6996 0.76481 0.1172 0.0
H1449 H 0.83998 0.80072 0.09779 0.0
C1450 C 0.84215 0.83746 0.12526 0.0
C1451 C 0.81835 0.85459 0.14133 0.0
C1452 C 0.71643 0.75597 0.1034 0.0
C1453 C 0.77608 0.80808 0.11116 0.0
C1454 C 0.7023 0.72 0.09253 0.0
C1455 C 0.72548 0.70604 0.07547 0.0
C1456 C 0.75439 0.7774 0.09734 0.0
C1457 C 0.76041 0.73114 0.06867 0.0
C1458 C 0.82101 0.81471 0.10991 0.0
C1459 C 0.77344 0.84907 0.14169 0.0
N1460 N 0.77453 0.76507 0.07992 0.0
N1461 N 0.75366 0.82569 0.1269 0.0
H1462 H 0.10899 1.02742 0.30823 0.0
H1463 H 0.97059 1.00051 0.40976 0.0
H1464 H 0.13452 0.92895 0.3532 0.0
H1465 H 0.99102 0.12175 0.37889 0.0
H1466 H 1.01316 0.96391 0.38334 0.0
H1467 H 0.04624 0.05058 0.32798 0.0
C1468 C 0.10089 1.01009 0.32203 0.0
C1469 C 0.12769 0.97712 0.32945 0.0
C1470 C 1.0077 0.99839 0.38222 0.0
C1471 C 0.05642 1.00349 0.35199 0.0
C1472 C 0.98365 1.01911 0.3972 0.0
C1473 C 0.97749 0.06383 0.39616 0.0
C1474 C 1.02551 1.02283 0.36629 0.0
C1475 C 0.99519 0.08708 0.37996 0.0
C1476 C 0.06531 1.02351 0.33332 0.0
C1477 C 0.11549 0.95549 0.34732 0.0
N1478 N 1.01851 0.06625 0.36556 0.0
N1479 N 0.08097 0.96946 0.35816 0.0
H1480 H 0.37551 0.83979 0.36345 0.0
H1481 H 0.17551 0.69847 0.39067 0.0
H1482 H 0.25146 0.86172 0.33542 0.0
H1483 H 0.28139 0.71725 0.43261 0.0
H1484 H 0.19884 0.76271 0.37197 0.0
H1485 H 0.33983 0.79838 0.39046 0.0
C1486 C 0.34063 0.83614 0.36324 0.0
C1487 C 0.31605 0.85386 0.3475 0.0
C1488 C 0.21639 0.75333 0.38553 0.0
C1489 C 0.27527 0.80626 0.37774 0.0
C1490 C 0.20323 0.71657 0.39612 0.0
C1491 C 0.22742 0.70191 0.4128 0.0
C1492 C 0.25437 0.77487 0.39149 0.0
C1493 C 0.26226 0.72715 0.41962 0.0
C1494 C 0.32025 0.81286 0.37863 0.0
C1495 C 0.27113 0.8484 0.34754 0.0
N1496 N 0.27542 0.76188 0.40862 0.0
N1497 N 0.25207 0.82447 0.36235 0.0
H1498 H 0.47044 0.99721 0.07962 0.0
H1499 H 0.60889 1.02022 0.18145 0.0
H1500 H 0.49378 0.11751 0.11069 0.0
H1501 H 0.63585 0.92454 0.13554 0.0
H1502 H 0.5456 0.04323 0.16192 0.0
H1503 H 0.51208 0.95922 0.10611 0.0
C1504 C 0.48385 1.01529 0.09225 0.0
C1505 C 0.4789 0.06016 0.09331 0.0
C1506 C 0.56506 1.01673 0.15635 0.0
C1507 C 0.5257 1.01761 0.12326 0.0
C1508 C 0.60097 1.0034 0.1675 0.0
C1509 C 0.62836 0.97139 0.15974 0.0
C1510 C 0.55644 0.99757 0.13748 0.0
C1511 C 0.61636 0.95038 0.14169 0.0
C1512 C 0.50735 0.9938 0.10726 0.0
C1513 C 0.49704 0.08275 0.1096 0.0
N1514 N 0.58151 0.96429 0.13097 0.0
N1515 N 0.51974 0.06116 0.12403 0.0
H1516 H 0.39864 0.3905 0.88413 0.0
H1517 H 0.20292 0.23891 0.85828 0.0
H1518 H 0.29501 0.36722 0.92668 0.0
H1519 H 0.32687 0.22388 0.8294 0.0
H1520 H 0.23697 0.28425 0.88439 0.0
H1521 H 0.37523 0.32732 0.8647 0.0
C1522 C 0.37122 0.37183 0.88948 0.0
C1523 C 0.34799 0.38464 0.90673 0.0
C1524 C 0.25692 0.27042 0.87257 0.0
C1525 C 0.32106 0.31268 0.88462 0.0
C1526 C 0.23747 0.2448 0.85773 0.0
C1527 C 0.26251 0.22765 0.84207 0.0
C1528 C 0.30131 0.27996 0.87118 0.0
C1529 C 0.30691 0.23644 0.84153 0.0
C1530 C 0.35807 0.33562 0.87848 0.0
C1531 C 0.31349 0.35866 0.91333 0.0
N1532 N 0.32496 0.26248 0.85582 0.0
N1533 N 0.30046 0.32437 0.90202 0.0
H1534 H 0.12651 0.07262 0.58776 0.0
H1535 H 0.92205 0.0467 0.65686 0.0
H1536 H 0.07798 0.94765 0.60571 0.0
H1537 H 0.99997 0.16258 0.65744 0.0
H1538 H 0.98074 1.00865 0.63979 0.0
H1539 H 0.08253 0.10613 0.61435 0.0
C1540 C 0.10713 0.05233 0.59765 0.0
C1541 C 0.1062 1.00749 0.59503 0.0
C1542 C 0.98535 0.04219 0.64396 0.0
C1543 C 0.05497 0.04523 0.62477 0.0
C1544 C 0.95181 0.06392 0.65359 0.0
C1545 C 0.95604 0.10798 0.65813 0.0
C1546 C 1.02293 0.06496 0.6385 0.0
C1547 C 0.99546 0.12866 0.65401 0.0
C1548 C 0.08213 0.0713 0.61278 0.0
C1549 C 0.07974 0.98237 0.60761 0.0
N1550 N 1.02717 0.10718 0.644 0.0
N1551 N 0.05481 1.00164 0.6219 0.0
loop_
_geom_bond_atom_site_label_1
_geom_bond_atom_site_label_2
_geom_bond_distance
_geom_bond_site_symmetry_2
_ccdc_geom_bond_type
Zn0 N4 2.020 1_565 S
Zn0 O8 2.019 . S
Zn0 N10 2.119 . S
Zn0 O18 1.975 1_565 S
C1 N2 1.334 . S
C1 N5 1.336 . S
N2 C1 1.334 . S
N2 C3 1.334 . S
C3 N2 1.334 . S
C3 N4 1.336 . S
N4 Zn0 2.020 1_545 S
N4 C3 1.336 . S
N4 N5 1.354 . S
N5 C1 1.336 . S
N5 N4 1.354 . S
N5 Zn9 2.020 . S
C6 O7 1.244 . S
C6 O30 1.257 . S
O7 C6 1.244 . S
O8 Zn0 2.019 . S
O8 C28 1.257 1_565 S
Zn9 N5 2.020 . S
Zn9 O16 1.975 . S
Zn9 N25 2.119 . S
Zn9 O30 2.019 . S
N10 Zn0 2.119 . S
N10 C12 1.334 . S
N10 C13 1.328 . S
C11 C12 1.391 . S
C11 N14 1.329 . S
C11 H32 0.930 . S
C12 N10 1.334 . S
C12 C11 1.391 . S
C12 H19 0.930 . S
C13 N10 1.328 . S
C13 C15 1.392 . S
C13 H20 0.930 . S
N14 C11 1.329 . S
N14 C15 1.331 . S
C15 C13 1.392 . S
C15 N14 1.331 . S
O16 Zn9 1.975 . S
O16 C17 1.252 . S
C17 O16 1.252 . S
C17 O18 1.252 . S
O18 Zn0 1.975 1_545 S
O18 C17 1.252 . S
H19 C12 0.930 . S
H20 C13 0.930 . S
C21 C22 1.392 . S
C21 N25 1.328 . S
C21 H27 0.930 . S
C22 C21 1.392 . S
C22 N26 1.331 . S
C23 C24 1.391 . S
C23 N26 1.329 . S
C23 H33 0.930 . S
C24 C23 1.391 . S
C24 N25 1.334 . S
C24 H31 0.930 . S
N25 Zn9 2.119 . S
N25 C21 1.328 . S
N25 C24 1.334 . S
N26 C22 1.331 . S
N26 C23 1.329 . S
H27 C21 0.930 . S
C28 O8 1.257 1_545 S
C28 O29 1.244 . S
O29 C28 1.244 . S
O30 C6 1.257 . S
O30 Zn9 2.019 . S
H31 C24 0.930 . S
H32 C11 0.930 . S
H33 C23 0.930 . S
Zn34 N38 2.020 . S
Zn34 O42 2.019 . S
Zn34 N44 2.119 . S
Zn34 O52 1.975 . S
C35 N36 1.334 . S
C35 N39 1.336 . S
N36 C35 1.334 . S
N36 C37 1.334 . S
C37 N36 1.334 . S
C37 N38 1.336 . S
N38 Zn34 2.020 . S
N38 C37 1.336 . S
N38 N39 1.354 . S
N39 C35 1.336 . S
N39 N38 1.354 . S
N39 Zn43 2.020 . S
C40 O41 1.244 . S
C40 O64 1.257 . S
O41 C40 1.244 . S
O42 Zn34 2.019 . S
O42 C62 1.257 . S
Zn43 N39 2.020 . S
Zn43 O50 1.975 . S
Zn43 N59 2.119 . S
Zn43 O64 2.019 . S
N44 Zn34 2.119 . S
N44 C46 1.334 . S
N44 C47 1.328 . S
C45 C46 1.391 . S
C45 N48 1.329 . S
C45 H66 0.930 . S
C46 N44 1.334 . S
C46 C45 1.391 . S
C46 H53 0.930 . S
C47 N44 1.328 . S
C47 C49 1.392 . S
C47 H54 0.930 . S
N48 C45 1.329 . S
N48 C49 1.331 . S
C49 C47 1.392 . S
C49 N48 1.331 . S
O50 Zn43 1.975 . S
O50 C51 1.252 . S
C51 O50 1.252 . S
C51 O52 1.252 . S
O52 Zn34 1.975 . S
O52 C51 1.252 . S
H53 C46 0.930 . S
H54 C47 0.930 . S
C55 C56 1.392 . S
C55 N59 1.328 . S
C55 H61 0.930 . S
C56 C55 1.392 . S
C56 N60 1.331 . S
C57 C58 1.391 . S
C57 N60 1.329 . S
C57 H67 0.930 . S
C58 C57 1.391 . S
C58 N59 1.334 . S
C58 H65 0.930 . S
N59 Zn43 2.119 . S
N59 C55 1.328 . S
N59 C58 1.334 . S
N60 C56 1.331 . S
N60 C57 1.329 . S
H61 C55 0.930 . S
C62 O42 1.257 . S
C62 O63 1.244 . S
O63 C62 1.244 . S
O64 C40 1.257 . S
O64 Zn43 2.019 . S
H65 C58 0.930 . S
H66 C45 0.930 . S
H67 C57 0.930 . S
Zn68 N72 2.020 1_545 S
Zn68 O76 2.019 . S
Zn68 N78 2.119 . S
Zn68 O86 1.975 1_545 S
C69 N70 1.334 . S
C69 N73 1.336 . S
N70 C69 1.334 . S
N70 C71 1.334 . S
C71 N70 1.334 . S
C71 N72 1.336 . S
N72 Zn68 2.020 1_565 S
N72 C71 1.336 . S
N72 N73 1.354 . S
N73 C69 1.336 . S
N73 N72 1.354 . S
N73 Zn77 2.020 . S
C74 O75 1.244 . S
C74 O98 1.257 . S
O75 C74 1.244 . S
O76 Zn68 2.019 . S
O76 C96 1.257 1_545 S
Zn77 N73 2.020 . S
Zn77 O84 1.975 . S
Zn77 N93 2.119 . S
Zn77 O98 2.019 . S
N78 Zn68 2.119 . S
N78 C80 1.334 . S
N78 C81 1.328 . S
C79 C80 1.391 . S
C79 N82 1.329 . S
C79 H100 0.930 . S
C80 N78 1.334 . S
C80 C79 1.391 . S
C80 H87 0.930 . S
C81 N78 1.328 . S
C81 C83 1.392 . S
C81 H88 0.930 . S
N82 C79 1.329 . S
N82 C83 1.331 . S
C83 C81 1.392 . S
C83 N82 1.331 . S
O84 Zn77 1.975 . S
O84 C85 1.252 . S
C85 O84 1.252 . S
C85 O86 1.252 . S
O86 Zn68 1.975 1_565 S
O86 C85 1.252 . S
H87 C80 0.930 . S
H88 C81 0.930 . S
C89 C90 1.392 . S
C89 N93 1.328 . S
C89 H95 0.930 . S
C90 C89 1.392 . S
C90 N94 1.331 . S
C91 C92 1.391 . S
C91 N94 1.329 . S
C91 H101 0.930 . S
C92 C91 1.391 . S
C92 N93 1.334 . S
C92 H99 0.930 . S
N93 Zn77 2.119 . S
N93 C89 1.328 . S
N93 C92 1.334 . S
N94 C90 1.331 . S
N94 C91 1.329 . S
H95 C89 0.930 . S
C96 O76 1.257 1_565 S
C96 O97 1.244 . S
O97 C96 1.244 . S
O98 C74 1.257 . S
O98 Zn77 2.019 . S
H99 C92 0.930 . S
H100 C79 0.930 . S
H101 C91 0.930 . S
Zn102 N106 2.020 . S
Zn102 O110 2.019 . S
Zn102 N112 2.119 . S
Zn102 O120 1.975 . S
C103 N104 1.334 . S
C103 N107 1.336 . S
N104 C103 1.334 . S
N104 C105 1.334 . S
C105 N104 1.334 . S
C105 N106 1.336 . S
N106 Zn102 2.020 . S
N106 C105 1.336 . S
N106 N107 1.354 . S
N107 C103 1.336 . S
N107 N106 1.354 . S
N107 Zn111 2.020 . S
C108 O109 1.244 . S
C108 O132 1.257 . S
O109 C108 1.244 . S
O110 Zn102 2.019 . S
O110 C130 1.257 . S
Zn111 N107 2.020 . S
Zn111 O118 1.975 . S
Zn111 N127 2.119 . S
Zn111 O132 2.019 . S
N112 Zn102 2.119 . S
N112 C114 1.334 . S
N112 C115 1.328 . S
C113 C114 1.391 . S
C113 N116 1.329 . S
C113 H134 0.930 . S
C114 N112 1.334 . S
C114 C113 1.391 . S
C114 H121 0.930 . S
C115 N112 1.328 . S
C115 C117 1.392 . S
C115 H122 0.930 . S
N116 C113 1.329 . S
N116 C117 1.331 . S
C117 C115 1.392 . S
C117 N116 1.331 . S
O118 Zn111 1.975 . S
O118 C119 1.252 . S
C119 O118 1.252 . S
C119 O120 1.252 . S
O120 Zn102 1.975 . S
O120 C119 1.252 . S
H121 C114 0.930 . S
H122 C115 0.930 . S
C123 C124 1.392 . S
C123 N127 1.328 . S
C123 H129 0.930 . S
C124 C123 1.392 . S
C124 N128 1.331 . S
C125 C126 1.391 . S
C125 N128 1.329 . S
C125 H135 0.930 . S
C126 C125 1.391 . S
C126 N127 1.334 . S
C126 H133 0.930 . S
N127 Zn111 2.119 . S
N127 C123 1.328 . S
N127 C126 1.334 . S
N128 C124 1.331 . S
N128 C125 1.329 . S
H129 C123 0.930 . S
C130 O110 1.257 . S
C130 O131 1.244 . S
O131 C130 1.244 . S
O132 C108 1.257 . S
O132 Zn111 2.019 . S
H133 C126 0.930 . S
H134 C113 0.930 . S
H135 C125 0.930 . S
Zn136 N140 2.020 1_545 S
Zn136 O144 2.019 . S
Zn136 N146 2.119 . S
Zn136 O154 1.975 1_545 S
C137 N138 1.334 . S
C137 N141 1.336 . S
N138 C137 1.334 . S
N138 C139 1.334 . S
C139 N138 1.334 . S
C139 N140 1.336 . S
N140 Zn136 2.020 1_565 S
N140 C139 1.336 . S
N140 N141 1.354 . S
N141 C137 1.336 . S
N141 N140 1.354 . S
N141 Zn145 2.020 . S
C142 O143 1.244 . S
C142 O166 1.257 . S
O143 C142 1.244 . S
O144 Zn136 2.019 . S
O144 C164 1.257 1_545 S
Zn145 N141 2.020 . S
Zn145 O152 1.975 . S
Zn145 N161 2.119 . S
Zn145 O166 2.019 . S
N146 Zn136 2.119 . S
N146 C148 1.334 . S
N146 C149 1.328 . S
C147 C148 1.391 . S
C147 N150 1.329 . S
C147 H168 0.930 . S
C148 N146 1.334 . S
C148 C147 1.391 . S
C148 H155 0.930 . S
C149 N146 1.328 . S
C149 C151 1.392 . S
C149 H156 0.930 . S
N150 C147 1.329 . S
N150 C151 1.331 . S
C151 C149 1.392 . S
C151 N150 1.331 . S
O152 Zn145 1.975 . S
O152 C153 1.252 . S
C153 O152 1.252 . S
C153 O154 1.252 . S
O154 Zn136 1.975 1_565 S
O154 C153 1.252 . S
H155 C148 0.930 . S
H156 C149 0.930 . S
C157 C158 1.392 . S
C157 N161 1.328 . S
C157 H163 0.930 . S
C158 C157 1.392 . S
C158 N162 1.331 . S
C159 C160 1.391 . S
C159 N162 1.329 . S
C159 H169 0.930 . S
C160 C159 1.391 . S
C160 N161 1.334 . S
C160 H167 0.930 . S
N161 Zn145 2.119 . S
N161 C157 1.328 . S
N161 C160 1.334 . S
N162 C158 1.331 . S
N162 C159 1.329 . S
H163 C157 0.930 . S
C164 O144 1.257 1_565 S
C164 O165 1.244 . S
O165 C164 1.244 . S
O166 C142 1.257 . S
O166 Zn145 2.019 . S
H167 C160 0.930 . S
H168 C147 0.930 . S
H169 C159 0.930 . S
Zn170 N174 2.020 . S
Zn170 O178 2.019 . S
Zn170 N180 2.119 . S
Zn170 O188 1.975 . S
C171 N172 1.334 . S
C171 N175 1.336 . S
N172 C171 1.334 . S
N172 C173 1.334 . S
C173 N172 1.334 . S
C173 N174 1.336 . S
N174 Zn170 2.020 . S
N174 C173 1.336 . S
N174 N175 1.354 . S
N175 C171 1.336 . S
N175 N174 1.354 . S
N175 Zn179 2.020 . S
C176 O177 1.244 . S
C176 O200 1.257 . S
O177 C176 1.244 . S
O178 Zn170 2.019 . S
O178 C198 1.257 . S
Zn179 N175 2.020 . S
Zn179 O186 1.975 . S
Zn179 N195 2.119 . S
Zn179 O200 2.019 . S
N180 Zn170 2.119 . S
N180 C182 1.334 . S
N180 C183 1.328 . S
C181 C182 1.391 . S
C181 N184 1.329 . S
C181 H202 0.930 . S
C182 N180 1.334 . S
C182 C181 1.391 . S
C182 H189 0.930 . S
C183 N180 1.328 . S
C183 C185 1.392 . S
C183 H190 0.930 . S
N184 C181 1.329 . S
N184 C185 1.331 . S
C185 C183 1.392 . S
C185 N184 1.331 . S
O186 Zn179 1.975 . S
O186 C187 1.252 . S
C187 O186 1.252 . S
C187 O188 1.252 . S
O188 Zn170 1.975 . S
O188 C187 1.252 . S
H189 C182 0.930 . S
H190 C183 0.930 . S
C191 C192 1.392 . S
C191 N195 1.328 . S
C191 H197 0.930 . S
C192 C191 1.392 . S
C192 N196 1.331 . S
C193 C194 1.391 . S
C193 N196 1.329 . S
C193 H203 0.930 . S
C194 C193 1.391 . S
C194 N195 1.334 . S
C194 H201 0.930 . S
N195 Zn179 2.119 . S
N195 C191 1.328 . S
N195 C194 1.334 . S
N196 C192 1.331 . S
N196 C193 1.329 . S
H197 C191 0.930 . S
C198 O178 1.257 . S
C198 O199 1.244 . S
O199 C198 1.244 . S
O200 C176 1.257 . S
O200 Zn179 2.019 . S
H201 C194 0.930 . S
H202 C181 0.930 . S
H203 C193 0.930 . S
Zn204 N208 2.020 . S
Zn204 O212 2.019 . S
Zn204 N214 2.119 . S
Zn204 O222 1.975 . S
C205 N206 1.334 . S
C205 N209 1.336 . S
N206 C205 1.334 . S
N206 C207 1.334 . S
C207 N206 1.334 . S
C207 N208 1.336 . S
N208 Zn204 2.020 . S
N208 C207 1.336 . S
N208 N209 1.354 . S
N209 C205 1.336 . S
N209 N208 1.354 . S
N209 Zn213 2.020 1_545 S
C210 O211 1.244 . S
C210 O234 1.257 1_545 S
O211 C210 1.244 . S
O212 Zn204 2.019 . S
O212 C232 1.257 . S
Zn213 N209 2.020 1_565 S
Zn213 O220 1.975 1_565 S
Zn213 N229 2.119 . S
Zn213 O234 2.019 . S
N214 Zn204 2.119 . S
N214 C216 1.334 . S
N214 C217 1.328 . S
C215 C216 1.391 . S
C215 N218 1.329 . S
C215 H236 0.930 . S
C216 N214 1.334 . S
C216 C215 1.391 . S
C216 H223 0.930 . S
C217 N214 1.328 . S
C217 C219 1.392 . S
C217 H224 0.930 . S
N218 C215 1.329 . S
N218 C219 1.331 . S
C219 C217 1.392 . S
C219 N218 1.331 . S
O220 Zn213 1.975 1_545 S
O220 C221 1.252 . S
C221 O220 1.252 . S
C221 O222 1.252 . S
O222 Zn204 1.975 . S
O222 C221 1.252 . S
H223 C216 0.930 . S
H224 C217 0.930 . S
C225 C226 1.392 . S
C225 N229 1.328 . S
C225 H231 0.930 . S
C226 C225 1.392 . S
C226 N230 1.331 . S
C227 C228 1.391 . S
C227 N230 1.329 . S
C227 H237 0.930 . S
C228 C227 1.391 . S
C228 N229 1.334 . S
C228 H235 0.930 . S
N229 Zn213 2.119 . S
N229 C225 1.328 . S
N229 C228 1.334 . S
N230 C226 1.331 . S
N230 C227 1.329 . S
H231 C225 0.930 . S
C232 O212 1.257 . S
C232 O233 1.244 . S
O233 C232 1.244 . S
O234 C210 1.257 1_565 S
O234 Zn213 2.019 . S
H235 C228 0.930 . S
H236 C215 0.930 . S
H237 C227 0.930 . S
Zn238 N242 2.020 . S
Zn238 O246 2.019 . S
Zn238 N248 2.119 . S
Zn238 O256 1.975 . S
C239 N240 1.334 . S
C239 N243 1.336 . S
N240 C239 1.334 . S
N240 C241 1.334 . S
C241 N240 1.334 . S
C241 N242 1.336 . S
N242 Zn238 2.020 . S
N242 C241 1.336 . S
N242 N243 1.354 . S
N243 C239 1.336 . S
N243 N242 1.354 . S
N243 Zn247 2.020 . S
C244 O245 1.244 . S
C244 O268 1.257 . S
O245 C244 1.244 . S
O246 Zn238 2.019 . S
O246 C266 1.257 . S
Zn247 N243 2.020 . S
Zn247 O254 1.975 . S
Zn247 N263 2.119 . S
Zn247 O268 2.019 . S
N248 Zn238 2.119 . S
N248 C250 1.334 . S
N248 C251 1.328 . S
C249 C250 1.391 . S
C249 N252 1.329 . S
C249 H270 0.930 . S
C250 N248 1.334 . S
C250 C249 1.391 . S
C250 H257 0.930 . S
C251 N248 1.328 . S
C251 C253 1.392 . S
C251 H258 0.930 . S
N252 C249 1.329 . S
N252 C253 1.331 . S
C253 C251 1.392 . S
C253 N252 1.331 . S
O254 Zn247 1.975 . S
O254 C255 1.252 . S
C255 O254 1.252 . S
C255 O256 1.252 . S
O256 Zn238 1.975 . S
O256 C255 1.252 . S
H257 C250 0.930 . S
H258 C251 0.930 . S
C259 C260 1.392 . S
C259 N263 1.328 . S
C259 H265 0.930 . S
C260 C259 1.392 . S
C260 N264 1.331 . S
C261 C262 1.391 . S
C261 N264 1.329 . S
C261 H271 0.930 . S
C262 C261 1.391 . S
C262 N263 1.334 . S
C262 H269 0.930 . S
N263 Zn247 2.119 . S
N263 C259 1.328 . S
N263 C262 1.334 . S
N264 C260 1.331 . S
N264 C261 1.329 . S
H265 C259 0.930 . S
C266 O246 1.257 . S
C266 O267 1.244 . S
O267 C266 1.244 . S
O268 C244 1.257 . S
O268 Zn247 2.019 . S
H269 C262 0.930 . S
H270 C249 0.930 . S
H271 C261 0.930 . S
Zn272 N276 2.020 . S
Zn272 O280 2.019 . S
Zn272 N282 2.119 . S
Zn272 O290 1.975 . S
C273 N274 1.334 . S
C273 N277 1.336 . S
N274 C273 1.334 . S
N274 C275 1.334 . S
C275 N274 1.334 . S
C275 N276 1.336 . S
N276 Zn272 2.020 . S
N276 C275 1.336 . S
N276 N277 1.354 . S
N277 C273 1.336 . S
N277 N276 1.354 . S
N277 Zn281 2.020 . S
C278 O279 1.244 . S
C278 O302 1.257 . S
O279 C278 1.244 . S
O280 Zn272 2.019 . S
O280 C300 1.257 . S
Zn281 N277 2.020 . S
Zn281 O288 1.975 . S
Zn281 N297 2.119 . S
Zn281 O302 2.019 . S
N282 Zn272 2.119 . S
N282 C284 1.334 . S
N282 C285 1.328 . S
C283 C284 1.391 . S
C283 N286 1.329 . S
C283 H304 0.930 . S
C284 N282 1.334 . S
C284 C283 1.391 . S
C284 H291 0.930 . S
C285 N282 1.328 . S
C285 C287 1.392 . S
C285 H292 0.930 . S
N286 C283 1.329 . S
N286 C287 1.331 . S
C287 C285 1.392 . S
C287 N286 1.331 . S
O288 Zn281 1.975 . S
O288 C289 1.252 . S
C289 O288 1.252 . S
C289 O290 1.252 . S
O290 Zn272 1.975 . S
O290 C289 1.252 . S
H291 C284 0.930 . S
H292 C285 0.930 . S
C293 C294 1.392 . S
C293 N297 1.328 . S
C293 H299 0.930 . S
C294 C293 1.392 . S
C294 N298 1.331 . S
C295 C296 1.391 . S
C295 N298 1.329 . S
C295 H305 0.930 . S
C296 C295 1.391 . S
C296 N297 1.334 . S
C296 H303 0.930 . S
N297 Zn281 2.119 . S
N297 C293 1.328 . S
N297 C296 1.334 . S
N298 C294 1.331 . S
N298 C295 1.329 . S
H299 C293 0.930 . S
C300 O280 1.257 . S
C300 O301 1.244 . S
O301 C300 1.244 . S
O302 C278 1.257 . S
O302 Zn281 2.019 . S
H303 C296 0.930 . S
H304 C283 0.930 . S
H305 C295 0.930 . S
Zn306 N310 2.020 . S
Zn306 O314 2.019 . S
Zn306 N316 2.119 . S
Zn306 O324 1.975 . S
C307 N308 1.334 . S
C307 N311 1.336 . S
N308 C307 1.334 . S
N308 C309 1.334 . S
C309 N308 1.334 . S
C309 N310 1.336 . S
N310 Zn306 2.020 . S
N310 C309 1.336 . S
N310 N311 1.354 . S
N311 C307 1.336 . S
N311 N310 1.354 . S
N311 Zn315 2.020 . S
C312 O313 1.244 . S
C312 O336 1.257 . S
O313 C312 1.244 . S
O314 Zn306 2.019 . S
O314 C334 1.257 . S
Zn315 N311 2.020 . S
Zn315 O322 1.975 . S
Zn315 N331 2.119 . S
Zn315 O336 2.019 . S
N316 Zn306 2.119 . S
N316 C318 1.334 . S
N316 C319 1.328 . S
C317 C318 1.391 . S
C317 N320 1.329 . S
C317 H338 0.930 . S
C318 N316 1.334 . S
C318 C317 1.391 . S
C318 H325 0.930 . S
C319 N316 1.328 . S
C319 C321 1.392 . S
C319 H326 0.930 . S
N320 C317 1.329 . S
N320 C321 1.331 . S
C321 C319 1.392 . S
C321 N320 1.331 . S
O322 Zn315 1.975 . S
O322 C323 1.252 . S
C323 O322 1.252 . S
C323 O324 1.252 . S
O324 Zn306 1.975 . S
O324 C323 1.252 . S
H325 C318 0.930 . S
H326 C319 0.930 . S
C327 C328 1.392 . S
C327 N331 1.328 . S
C327 H333 0.930 . S
C328 C327 1.392 . S
C328 N332 1.331 . S
C329 C330 1.391 . S
C329 N332 1.329 . S
C329 H339 0.930 . S
C330 C329 1.391 . S
C330 N331 1.334 . S
C330 H337 0.930 . S
N331 Zn315 2.119 . S
N331 C327 1.328 . S
N331 C330 1.334 . S
N332 C328 1.331 . S
N332 C329 1.329 . S
H333 C327 0.930 . S
C334 O314 1.257 . S
C334 O335 1.244 . S
O335 C334 1.244 . S
O336 C312 1.257 . S
O336 Zn315 2.019 . S
H337 C330 0.930 . S
H338 C317 0.930 . S
H339 C329 0.930 . S
Zn340 N344 2.020 . S
Zn340 O348 2.019 . S
Zn340 N350 2.119 . S
Zn340 O358 1.975 . S
C341 N342 1.334 . S
C341 N345 1.336 . S
N342 C341 1.334 . S
N342 C343 1.334 . S
C343 N342 1.334 . S
C343 N344 1.336 . S
N344 Zn340 2.020 . S
N344 C343 1.336 . S
N344 N345 1.354 . S
N345 C341 1.336 . S
N345 N344 1.354 . S
N345 Zn349 2.020 . S
C346 O347 1.244 . S
C346 O370 1.257 . S
O347 C346 1.244 . S
O348 Zn340 2.019 . S
O348 C368 1.257 . S
Zn349 N345 2.020 . S
Zn349 O356 1.975 . S
Zn349 N365 2.119 . S
Zn349 O370 2.019 . S
N350 Zn340 2.119 . S
N350 C352 1.334 . S
N350 C353 1.328 . S
C351 C352 1.391 . S
C351 N354 1.329 . S
C351 H372 0.930 . S
C352 N350 1.334 . S
C352 C351 1.391 . S
C352 H359 0.930 . S
C353 N350 1.328 . S
C353 C355 1.392 . S
C353 H360 0.930 . S
N354 C351 1.329 . S
N354 C355 1.331 . S
C355 C353 1.392 . S
C355 N354 1.331 . S
O356 Zn349 1.975 . S
O356 C357 1.252 . S
C357 O356 1.252 . S
C357 O358 1.252 . S
O358 Zn340 1.975 . S
O358 C357 1.252 . S
H359 C352 0.930 . S
H360 C353 0.930 . S
C361 C362 1.392 . S
C361 N365 1.328 . S
C361 H367 0.930 . S
C362 C361 1.392 . S
C362 N366 1.331 . S
C363 C364 1.391 . S
C363 N366 1.329 . S
C363 H373 0.930 . S
C364 C363 1.391 . S
C364 N365 1.334 . S
C364 H371 0.930 . S
N365 Zn349 2.119 . S
N365 C361 1.328 . S
N365 C364 1.334 . S
N366 C362 1.331 . S
N366 C363 1.329 . S
H367 C361 0.930 . S
C368 O348 1.257 . S
C368 O369 1.244 . S
O369 C368 1.244 . S
O370 C346 1.257 . S
O370 Zn349 2.019 . S
H371 C364 0.930 . S
H372 C351 0.930 . S
H373 C363 0.930 . S
Zn374 N378 2.020 . S
Zn374 O382 2.019 . S
Zn374 N384 2.119 . S
Zn374 O392 1.975 . S
C375 N376 1.334 . S
C375 N379 1.336 . S
N376 C375 1.334 . S
N376 C377 1.334 . S
C377 N376 1.334 . S
C377 N378 1.336 . S
N378 Zn374 2.020 . S
N378 C377 1.336 . S
N378 N379 1.354 . S
N379 C375 1.336 . S
N379 N378 1.354 . S
N379 Zn383 2.020 . S
C380 O381 1.244 . S
C380 O404 1.257 . S
O381 C380 1.244 . S
O382 Zn374 2.019 . S
O382 C402 1.257 . S
Zn383 N379 2.020 . S
Zn383 O390 1.975 . S
Zn383 N399 2.119 . S
Zn383 O404 2.019 . S
N384 Zn374 2.119 . S
N384 C386 1.334 . S
N384 C387 1.328 . S
C385 C386 1.391 . S
C385 N388 1.329 . S
C385 H406 0.930 . S
C386 N384 1.334 . S
C386 C385 1.391 . S
C386 H393 0.930 . S
C387 N384 1.328 . S
C387 C389 1.392 . S
C387 H394 0.930 . S
N388 C385 1.329 . S
N388 C389 1.331 . S
C389 C387 1.392 . S
C389 N388 1.331 . S
O390 Zn383 1.975 . S
O390 C391 1.252 . S
C391 O390 1.252 . S
C391 O392 1.252 . S
O392 Zn374 1.975 . S
O392 C391 1.252 . S
H393 C386 0.930 . S
H394 C387 0.930 . S
C395 C396 1.392 . S
C395 N399 1.328 . S
C395 H401 0.930 . S
C396 C395 1.392 . S
C396 N400 1.331 . S
C397 C398 1.391 . S
C397 N400 1.329 . S
C397 H407 0.930 . S
C398 C397 1.391 . S
C398 N399 1.334 . S
C398 H405 0.930 . S
N399 Zn383 2.119 . S
N399 C395 1.328 . S
N399 C398 1.334 . S
N400 C396 1.331 . S
N400 C397 1.329 . S
H401 C395 0.930 . S
C402 O382 1.257 . S
C402 O403 1.244 . S
O403 C402 1.244 . S
O404 C380 1.257 . S
O404 Zn383 2.019 . S
H405 C398 0.930 . S
H406 C385 0.930 . S
H407 C397 0.930 . S
Zn408 N412 2.020 . S
Zn408 O416 2.019 . S
Zn408 N418 2.119 . S
Zn408 O426 1.975 . S
C409 N410 1.334 . S
C409 N413 1.336 . S
N410 C409 1.334 . S
N410 C411 1.334 . S
C411 N410 1.334 . S
C411 N412 1.336 . S
N412 Zn408 2.020 . S
N412 C411 1.336 . S
N412 N413 1.354 . S
N413 C409 1.336 . S
N413 N412 1.354 . S
N413 Zn417 2.020 . S
C414 O415 1.244 . S
C414 O438 1.257 . S
O415 C414 1.244 . S
O416 Zn408 2.019 . S
O416 C436 1.257 . S
Zn417 N413 2.020 . S
Zn417 O424 1.975 . S
Zn417 N433 2.119 . S
Zn417 O438 2.019 . S
N418 Zn408 2.119 . S
N418 C420 1.334 . S
N418 C421 1.328 . S
C419 C420 1.391 . S
C419 N422 1.329 . S
C419 H440 0.930 . S
C420 N418 1.334 . S
C420 C419 1.391 . S
C420 H427 0.930 . S
C421 N418 1.328 . S
C421 C423 1.392 . S
C421 H428 0.930 . S
N422 C419 1.329 . S
N422 C423 1.331 . S
C423 C421 1.392 . S
C423 N422 1.331 . S
O424 Zn417 1.975 . S
O424 C425 1.252 . S
C425 O424 1.252 . S
C425 O426 1.252 . S
O426 Zn408 1.975 . S
O426 C425 1.252 . S
H427 C420 0.930 . S
H428 C421 0.930 . S
C429 C430 1.392 . S
C429 N433 1.328 . S
C429 H435 0.930 . S
C430 C429 1.392 . S
C430 N434 1.331 . S
C431 C432 1.391 . S
C431 N434 1.329 . S
C431 H441 0.930 . S
C432 C431 1.391 . S
C432 N433 1.334 . S
C432 H439 0.930 . S
N433 Zn417 2.119 . S
N433 C429 1.328 . S
N433 C432 1.334 . S
N434 C430 1.331 . S
N434 C431 1.329 . S
H435 C429 0.930 . S
C436 O416 1.257 . S
C436 O437 1.244 . S
O437 C436 1.244 . S
O438 C414 1.257 . S
O438 Zn417 2.019 . S
H439 C432 0.930 . S
H440 C419 0.930 . S
H441 C431 0.930 . S
Zn442 N446 2.020 . S
Zn442 O450 2.019 . S
Zn442 N452 2.119 . S
Zn442 O460 1.975 . S
C443 N444 1.334 . S
C443 N447 1.336 . S
N444 C443 1.334 . S
N444 C445 1.334 . S
C445 N444 1.334 . S
C445 N446 1.336 . S
N446 Zn442 2.020 . S
N446 C445 1.336 . S
N446 N447 1.354 . S
N447 C443 1.336 . S
N447 N446 1.354 . S
N447 Zn451 2.020 . S
C448 O449 1.244 . S
C448 O472 1.257 . S
O449 C448 1.244 . S
O450 Zn442 2.019 . S
O450 C470 1.257 . S
Zn451 N447 2.020 . S
Zn451 O458 1.975 . S
Zn451 N467 2.119 . S
Zn451 O472 2.019 . S
N452 Zn442 2.119 . S
N452 C454 1.334 . S
N452 C455 1.328 . S
C453 C454 1.391 . S
C453 N456 1.329 . S
C453 H474 0.930 . S
C454 N452 1.334 . S
C454 C453 1.391 . S
C454 H461 0.930 . S
C455 N452 1.328 . S
C455 C457 1.392 . S
C455 H462 0.930 . S
N456 C453 1.329 . S
N456 C457 1.331 . S
C457 C455 1.392 . S
C457 N456 1.331 . S
O458 Zn451 1.975 . S
O458 C459 1.252 . S
C459 O458 1.252 . S
C459 O460 1.252 . S
O460 Zn442 1.975 . S
O460 C459 1.252 . S
H461 C454 0.930 . S
H462 C455 0.930 . S
C463 C464 1.392 . S
C463 N467 1.328 . S
C463 H469 0.930 . S
C464 C463 1.392 . S
C464 N468 1.331 . S
C465 C466 1.391 . S
C465 N468 1.329 . S
C465 H475 0.930 . S
C466 C465 1.391 . S
C466 N467 1.334 . S
C466 H473 0.930 . S
N467 Zn451 2.119 . S
N467 C463 1.328 . S
N467 C466 1.334 . S
N468 C464 1.331 . S
N468 C465 1.329 . S
H469 C463 0.930 . S
C470 O450 1.257 . S
C470 O471 1.244 . S
O471 C470 1.244 . S
O472 C448 1.257 . S
O472 Zn451 2.019 . S
H473 C466 0.930 . S
H474 C453 0.930 . S
H475 C465 0.930 . S
Zn476 N480 2.020 . S
Zn476 O484 2.019 . S
Zn476 N486 2.119 . S
Zn476 O494 1.975 . S
C477 N478 1.334 . S
C477 N481 1.336 . S
N478 C477 1.334 . S
N478 C479 1.334 . S
C479 N478 1.334 . S
C479 N480 1.336 . S
N480 Zn476 2.020 . S
N480 C479 1.336 . S
N480 N481 1.354 . S
N481 C477 1.336 . S
N481 N480 1.354 . S
N481 Zn485 2.020 . S
C482 O483 1.244 . S
C482 O506 1.257 . S
O483 C482 1.244 . S
O484 Zn476 2.019 . S
O484 C504 1.257 . S
Zn485 N481 2.020 . S
Zn485 O492 1.975 . S
Zn485 N501 2.119 . S
Zn485 O506 2.019 . S
N486 Zn476 2.119 . S
N486 C488 1.334 . S
N486 C489 1.328 . S
C487 C488 1.391 . S
C487 N490 1.329 . S
C487 H508 0.930 . S
C488 N486 1.334 . S
C488 C487 1.391 . S
C488 H495 0.930 . S
C489 N486 1.328 . S
C489 C491 1.392 . S
C489 H496 0.930 . S
N490 C487 1.329 . S
N490 C491 1.331 . S
C491 C489 1.392 . S
C491 N490 1.331 . S
O492 Zn485 1.975 . S
O492 C493 1.252 . S
C493 O492 1.252 . S
C493 O494 1.252 . S
O494 Zn476 1.975 . S
O494 C493 1.252 . S
H495 C488 0.930 . S
H496 C489 0.930 . S
C497 C498 1.392 . S
C497 N501 1.328 . S
C497 H503 0.930 . S
C498 C497 1.392 . S
C498 N502 1.331 . S
C499 C500 1.391 . S
C499 N502 1.329 . S
C499 H509 0.930 . S
C500 C499 1.391 . S
C500 N501 1.334 . S
C500 H507 0.930 . S
N501 Zn485 2.119 . S
N501 C497 1.328 . S
N501 C500 1.334 . S
N502 C498 1.331 . S
N502 C499 1.329 . S
H503 C497 0.930 . S
C504 O484 1.257 . S
C504 O505 1.244 . S
O505 C504 1.244 . S
O506 C482 1.257 . S
O506 Zn485 2.019 . S
H507 C500 0.930 . S
H508 C487 0.930 . S
H509 C499 0.930 . S
Zn510 N514 2.020 . S
Zn510 O518 2.019 . S
Zn510 N520 2.119 . S
Zn510 O528 1.975 . S
C511 N512 1.334 . S
C511 N515 1.336 . S
N512 C511 1.334 . S
N512 C513 1.334 . S
C513 N512 1.334 . S
C513 N514 1.336 . S
N514 Zn510 2.020 . S
N514 C513 1.336 . S
N514 N515 1.354 . S
N515 C511 1.336 . S
N515 N514 1.354 . S
N515 Zn519 2.020 . S
C516 O517 1.244 . S
C516 O540 1.257 . S
O517 C516 1.244 . S
O518 Zn510 2.019 . S
O518 C538 1.257 . S
Zn519 N515 2.020 . S
Zn519 O526 1.975 . S
Zn519 N535 2.119 . S
Zn519 O540 2.019 . S
N520 Zn510 2.119 . S
N520 C522 1.334 . S
N520 C523 1.328 . S
C521 C522 1.391 . S
C521 N524 1.329 . S
C521 H542 0.930 . S
C522 N520 1.334 . S
C522 C521 1.391 . S
C522 H529 0.930 . S
C523 N520 1.328 . S
C523 C525 1.392 . S
C523 H530 0.930 . S
N524 C521 1.329 . S
N524 C525 1.331 . S
C525 C523 1.392 . S
C525 N524 1.331 . S
O526 Zn519 1.975 . S
O526 C527 1.252 . S
C527 O526 1.252 . S
C527 O528 1.252 . S
O528 Zn510 1.975 . S
O528 C527 1.252 . S
H529 C522 0.930 . S
H530 C523 0.930 . S
C531 C532 1.392 . S
C531 N535 1.328 . S
C531 H537 0.930 . S
C532 C531 1.392 . S
C532 N536 1.331 . S
C533 C534 1.391 . S
C533 N536 1.329 . S
C533 H543 0.930 . S
C534 C533 1.391 . S
C534 N535 1.334 . S
C534 H541 0.930 . S
N535 Zn519 2.119 . S
N535 C531 1.328 . S
N535 C534 1.334 . S
N536 C532 1.331 . S
N536 C533 1.329 . S
H537 C531 0.930 . S
C538 O518 1.257 . S
C538 O539 1.244 . S
O539 C538 1.244 . S
O540 C516 1.257 . S
O540 Zn519 2.019 . S
H541 C534 0.930 . S
H542 C521 0.930 . S
H543 C533 0.930 . S
H544 C550 0.930 . S
H545 C554 0.930 . S
H546 C559 0.929 . S
H547 C557 0.929 . S
H548 C552 0.929 . S
H549 C558 0.929 . S
C550 H544 0.930 . S
C550 C551 1.367 . S
C550 C558 1.378 . S
C551 C550 1.367 . S
C551 C559 1.433 . S
C552 H548 0.929 . S
C552 C554 1.378 . S
C552 C556 1.350 . S
C553 C556 1.463 . S
C553 C558 1.350 . S
C553 N561 1.427 . S
C554 H545 0.930 . S
C554 C552 1.378 . S
C554 C555 1.367 . S
C555 C554 1.367 . S
C555 C557 1.433 . S
C556 C552 1.350 . S
C556 C553 1.463 . S
C556 N560 1.427 . S
C557 H547 0.929 . S
C557 C555 1.433 . S
C557 N560 1.384 . S
C558 H549 0.929 . S
C558 C550 1.378 . S
C558 C553 1.350 . S
C559 H546 0.929 . S
C559 C551 1.433 . S
C559 N561 1.384 . S
N560 C556 1.427 . S
N560 C557 1.384 . S
N561 C553 1.427 . S
N561 C559 1.384 . S
H562 C568 0.930 . S
H563 C572 0.930 . S
H564 C577 0.929 . S
H565 C575 0.929 . S
H566 C570 0.929 . S
H567 C576 0.929 . S
C568 H562 0.930 . S
C568 C569 1.367 . S
C568 C576 1.378 . S
C569 C568 1.367 . S
C569 C577 1.433 . S
C570 H566 0.929 . S
C570 C572 1.378 . S
C570 C574 1.350 . S
C571 C574 1.463 . S
C571 C576 1.350 . S
C571 N579 1.427 . S
C572 H563 0.930 . S
C572 C570 1.378 . S
C572 C573 1.367 . S
C573 C572 1.367 . S
C573 C575 1.433 . S
C574 C570 1.350 . S
C574 C571 1.463 . S
C574 N578 1.427 . S
C575 H565 0.929 . S
C575 C573 1.433 . S
C575 N578 1.384 . S
C576 H567 0.929 . S
C576 C568 1.378 . S
C576 C571 1.350 . S
C577 H564 0.929 . S
C577 C569 1.433 . S
C577 N579 1.384 . S
N578 C574 1.427 . S
N578 C575 1.384 . S
N579 C571 1.427 . S
N579 C577 1.384 . S
H580 C586 0.930 . S
H581 C590 0.930 . S
H582 C595 0.929 . S
H583 C593 0.929 . S
H584 C588 0.929 . S
H585 C594 0.929 . S
C586 H580 0.930 . S
C586 C587 1.367 . S
C586 C594 1.378 . S
C587 C586 1.367 . S
C587 C595 1.433 . S
C588 H584 0.929 . S
C588 C590 1.378 . S
C588 C592 1.350 . S
C589 C592 1.463 . S
C589 C594 1.350 . S
C589 N597 1.427 . S
C590 H581 0.930 . S
C590 C588 1.378 . S
C590 C591 1.367 . S
C591 C590 1.367 . S
C591 C593 1.433 . S
C592 C588 1.350 . S
C592 C589 1.463 . S
C592 N596 1.427 . S
C593 H583 0.929 . S
C593 C591 1.433 . S
C593 N596 1.384 . S
C594 H585 0.929 . S
C594 C586 1.378 . S
C594 C589 1.350 . S
C595 H582 0.929 . S
C595 C587 1.433 . S
C595 N597 1.384 . S
N596 C592 1.427 . S
N596 C593 1.384 . S
N597 C589 1.427 . S
N597 C595 1.384 . S
H598 C604 0.930 . S
H599 C608 0.930 . S
H600 C613 0.929 . S
H601 C611 0.929 1_655 S
H602 C606 0.929 . S
H603 C612 0.929 . S
C604 H598 0.930 . S
C604 C605 1.367 . S
C604 C612 1.378 . S
C605 C604 1.367 . S
C605 C613 1.433 . S
C606 H602 0.929 . S
C606 C608 1.378 . S
C606 C610 1.350 . S
C607 C610 1.463 . S
C607 C612 1.350 . S
C607 N615 1.427 . S
C608 H599 0.930 . S
C608 C606 1.378 . S
C608 C609 1.367 . S
C609 C608 1.367 . S
C609 C611 1.433 . S
C610 C606 1.350 . S
C610 C607 1.463 . S
C610 N614 1.427 . S
C611 H601 0.929 1_455 S
C611 C609 1.433 . S
C611 N614 1.384 . S
C612 H603 0.929 . S
C612 C604 1.378 . S
C612 C607 1.350 . S
C613 H600 0.929 . S
C613 C605 1.433 . S
C613 N615 1.384 . S
N614 C610 1.427 . S
N614 C611 1.384 . S
N615 C607 1.427 . S
N615 C613 1.384 . S
H616 C622 0.930 . S
H617 C626 0.930 . S
H618 C631 0.929 . S
H619 C629 0.929 . S
H620 C624 0.929 . S
H621 C630 0.929 . S
C622 H616 0.930 . S
C622 C623 1.367 . S
C622 C630 1.378 . S
C623 C622 1.367 . S
C623 C631 1.433 . S
C624 H620 0.929 . S
C624 C626 1.378 . S
C624 C628 1.350 . S
C625 C628 1.463 . S
C625 C630 1.350 . S
C625 N633 1.427 . S
C626 H617 0.930 . S
C626 C624 1.378 . S
C626 C627 1.367 . S
C627 C626 1.367 . S
C627 C629 1.433 . S
C628 C624 1.350 . S
C628 C625 1.463 . S
C628 N632 1.427 . S
C629 H619 0.929 . S
C629 C627 1.433 . S
C629 N632 1.384 . S
C630 H621 0.929 . S
C630 C622 1.378 . S
C630 C625 1.350 . S
C631 H618 0.929 . S
C631 C623 1.433 . S
C631 N633 1.384 . S
N632 C628 1.427 . S
N632 C629 1.384 . S
N633 C625 1.427 . S
N633 C631 1.384 . S
H634 C640 0.930 . S
H635 C644 0.930 . S
H636 C649 0.929 . S
H637 C647 0.929 . S
H638 C642 0.929 . S
H639 C648 0.929 . S
C640 H634 0.930 . S
C640 C641 1.367 . S
C640 C648 1.378 . S
C641 C640 1.367 . S
C641 C649 1.433 . S
C642 H638 0.929 . S
C642 C644 1.378 . S
C642 C646 1.350 . S
C643 C646 1.463 . S
C643 C648 1.350 . S
C643 N651 1.427 . S
C644 H635 0.930 . S
C644 C642 1.378 . S
C644 C645 1.367 . S
C645 C644 1.367 . S
C645 C647 1.433 . S
C646 C642 1.350 . S
C646 C643 1.463 . S
C646 N650 1.427 . S
C647 H637 0.929 . S
C647 C645 1.433 . S
C647 N650 1.384 . S
C648 H639 0.929 . S
C648 C640 1.378 . S
C648 C643 1.350 . S
C649 H636 0.929 . S
C649 C641 1.433 . S
C649 N651 1.384 . S
N650 C646 1.427 . S
N650 C647 1.384 . S
N651 C643 1.427 . S
N651 C649 1.384 . S
H652 C658 0.930 . S
H653 C662 0.930 . S
H654 C667 0.929 . S
H655 C665 0.929 . S
H656 C660 0.929 . S
H657 C666 0.929 . S
C658 H652 0.930 . S
C658 C659 1.367 . S
C658 C666 1.378 . S
C659 C658 1.367 . S
C659 C667 1.433 . S
C660 H656 0.929 . S
C660 C662 1.378 . S
C660 C664 1.350 . S
C661 C664 1.463 . S
C661 C666 1.350 . S
C661 N669 1.427 . S
C662 H653 0.930 . S
C662 C660 1.378 . S
C662 C663 1.367 . S
C663 C662 1.367 . S
C663 C665 1.433 . S
C664 C660 1.350 . S
C664 C661 1.463 . S
C664 N668 1.427 . S
C665 H655 0.929 . S
C665 C663 1.433 . S
C665 N668 1.384 . S
C666 H657 0.929 . S
C666 C658 1.378 . S
C666 C661 1.350 . S
C667 H654 0.929 . S
C667 C659 1.433 . S
C667 N669 1.384 . S
N668 C664 1.427 . S
N668 C665 1.384 . S
N669 C661 1.427 . S
N669 C667 1.384 . S
H670 C676 0.930 . S
H671 C680 0.930 . S
H672 C685 0.929 . S
H673 C683 0.929 . S
H674 C678 0.929 . S
H675 C684 0.929 . S
C676 H670 0.930 . S
C676 C677 1.367 . S
C676 C684 1.378 . S
C677 C676 1.367 . S
C677 C685 1.433 . S
C678 H674 0.929 . S
C678 C680 1.378 . S
C678 C682 1.350 . S
C679 C682 1.463 . S
C679 C684 1.350 . S
C679 N687 1.427 . S
C680 H671 0.930 . S
C680 C678 1.378 . S
C680 C681 1.367 . S
C681 C680 1.367 . S
C681 C683 1.433 . S
C682 C678 1.350 . S
C682 C679 1.463 . S
C682 N686 1.427 . S
C683 H673 0.929 . S
C683 C681 1.433 . S
C683 N686 1.384 . S
C684 H675 0.929 . S
C684 C676 1.378 . S
C684 C679 1.350 . S
C685 H672 0.929 . S
C685 C677 1.433 . S
C685 N687 1.384 . S
N686 C682 1.427 . S
N686 C683 1.384 . S
N687 C679 1.427 . S
N687 C685 1.384 . S
H688 C694 0.930 . S
H689 C698 0.930 . S
H690 C703 0.929 . S
H691 C701 0.929 . S
H692 C696 0.929 . S
H693 C702 0.929 . S
C694 H688 0.930 . S
C694 C695 1.367 . S
C694 C702 1.378 . S
C695 C694 1.367 . S
C695 C703 1.433 . S
C696 H692 0.929 . S
C696 C698 1.378 . S
C696 C700 1.350 . S
C697 C700 1.463 . S
C697 C702 1.350 . S
C697 N705 1.427 . S
C698 H689 0.930 . S
C698 C696 1.378 . S
C698 C699 1.367 . S
C699 C698 1.367 . S
C699 C701 1.433 . S
C700 C696 1.350 . S
C700 C697 1.463 . S
C700 N704 1.427 . S
C701 H691 0.929 . S
C701 C699 1.433 . S
C701 N704 1.384 . S
C702 H693 0.929 . S
C702 C694 1.378 . S
C702 C697 1.350 . S
C703 H690 0.929 . S
C703 C695 1.433 . S
C703 N705 1.384 . S
N704 C700 1.427 . S
N704 C701 1.384 . S
N705 C697 1.427 . S
N705 C703 1.384 . S
H706 C712 0.930 1_565 S
H707 C716 0.930 . S
H708 C721 0.929 . S
H709 C719 0.929 . S
H710 C714 0.929 . S
H711 C720 0.929 . S
C712 H706 0.930 1_545 S
C712 C713 1.367 . S
C712 C720 1.378 1_545 S
C713 C712 1.367 . S
C713 C721 1.433 . S
C714 H710 0.929 . S
C714 C716 1.378 . S
C714 C718 1.350 . S
C715 C718 1.463 . S
C715 C720 1.350 1_545 S
C715 N723 1.427 . S
C716 H707 0.930 . S
C716 C714 1.378 . S
C716 C717 1.367 1_545 S
C717 C716 1.367 1_565 S
C717 C719 1.433 . S
C718 C714 1.350 . S
C718 C715 1.463 . S
C718 N722 1.427 1_545 S
C719 H709 0.929 . S
C719 C717 1.433 . S
C719 N722 1.384 . S
C720 H711 0.929 . S
C720 C712 1.378 1_565 S
C720 C715 1.350 1_565 S
C721 H708 0.929 . S
C721 C713 1.433 . S
C721 N723 1.384 . S
N722 C718 1.427 1_565 S
N722 C719 1.384 . S
N723 C715 1.427 . S
N723 C721 1.384 . S
H724 C730 0.930 . S
H725 C734 0.930 . S
H726 C739 0.929 . S
H727 C737 0.929 . S
H728 C732 0.929 . S
H729 C738 0.929 . S
C730 H724 0.930 . S
C730 C731 1.367 . S
C730 C738 1.378 . S
C731 C730 1.367 . S
C731 C739 1.433 . S
C732 H728 0.929 . S
C732 C734 1.378 . S
C732 C736 1.350 . S
C733 C736 1.463 . S
C733 C738 1.350 . S
C733 N741 1.427 . S
C734 H725 0.930 . S
C734 C732 1.378 . S
C734 C735 1.367 . S
C735 C734 1.367 . S
C735 C737 1.433 . S
C736 C732 1.350 . S
C736 C733 1.463 . S
C736 N740 1.427 . S
C737 H727 0.929 . S
C737 C735 1.433 . S
C737 N740 1.384 . S
C738 H729 0.929 . S
C738 C730 1.378 . S
C738 C733 1.350 . S
C739 H726 0.929 . S
C739 C731 1.433 . S
C739 N741 1.384 . S
N740 C736 1.427 . S
N740 C737 1.384 . S
N741 C733 1.427 . S
N741 C739 1.384 . S
H742 C748 0.930 . S
H743 C752 0.930 1_545 S
H744 C757 0.929 . S
H745 C755 0.929 . S
H746 C750 0.929 . S
H747 C756 0.929 . S
C748 H742 0.930 . S
C748 C749 1.367 1_565 S
C748 C756 1.378 . S
C749 C748 1.367 1_545 S
C749 C757 1.433 . S
C750 H746 0.929 . S
C750 C752 1.378 1_545 S
C750 C754 1.350 1_545 S
C751 C754 1.463 . S
C751 C756 1.350 . S
C751 N759 1.427 1_565 S
C752 H743 0.930 1_565 S
C752 C750 1.378 1_565 S
C752 C753 1.367 . S
C753 C752 1.367 . S
C753 C755 1.433 . S
C754 C750 1.350 1_565 S
C754 C751 1.463 . S
C754 N758 1.427 . S
C755 H745 0.929 . S
C755 C753 1.433 . S
C755 N758 1.384 . S
C756 H747 0.929 . S
C756 C748 1.378 . S
C756 C751 1.350 . S
C757 H744 0.929 . S
C757 C749 1.433 . S
C757 N759 1.384 . S
N758 C754 1.427 . S
N758 C755 1.384 . S
N759 C751 1.427 1_545 S
N759 C757 1.384 . S
H760 C766 0.930 . S
H761 C770 0.930 . S
H762 C775 0.929 . S
H763 C773 0.929 . S
H764 C768 0.929 . S
H765 C774 0.929 . S
C766 H760 0.930 . S
C766 C767 1.367 . S
C766 C774 1.378 . S
C767 C766 1.367 . S
C767 C775 1.433 . S
C768 H764 0.929 . S
C768 C770 1.378 . S
C768 C772 1.350 . S
C769 C772 1.463 . S
C769 C774 1.350 . S
C769 N777 1.427 . S
C770 H761 0.930 . S
C770 C768 1.378 . S
C770 C771 1.367 . S
C771 C770 1.367 . S
C771 C773 1.433 . S
C772 C768 1.350 . S
C772 C769 1.463 . S
C772 N776 1.427 . S
C773 H763 0.929 . S
C773 C771 1.433 . S
C773 N776 1.384 . S
C774 H765 0.929 . S
C774 C766 1.378 . S
C774 C769 1.350 . S
C775 H762 0.929 . S
C775 C767 1.433 . S
C775 N777 1.384 . S
N776 C772 1.427 . S
N776 C773 1.384 . S
N777 C769 1.427 . S
N777 C775 1.384 . S
H778 C784 0.930 . S
H779 C788 0.930 . S
H780 C793 0.929 1_645 S
H781 C791 0.929 . S
H782 C786 0.929 . S
H783 C792 0.929 . S
C784 H778 0.930 . S
C784 C785 1.367 . S
C784 C792 1.378 . S
C785 C784 1.367 . S
C785 C793 1.433 . S
C786 H782 0.929 . S
C786 C788 1.378 . S
C786 C790 1.350 1_545 S
C787 C790 1.463 . S
C787 C792 1.350 . S
C787 N795 1.427 1_565 S
C788 H779 0.930 . S
C788 C786 1.378 . S
C788 C789 1.367 . S
C789 C788 1.367 . S
C789 C791 1.433 1_545 S
C790 C786 1.350 1_565 S
C790 C787 1.463 . S
C790 N794 1.427 . S
C791 H781 0.929 . S
C791 C789 1.433 1_565 S
C791 N794 1.384 . S
C792 H783 0.929 . S
C792 C784 1.378 . S
C792 C787 1.350 . S
C793 H780 0.929 1_465 S
C793 C785 1.433 . S
C793 N795 1.384 1_565 S
N794 C790 1.427 . S
N794 C791 1.384 . S
N795 C787 1.427 1_545 S
N795 C793 1.384 1_545 S
H796 C802 0.930 . S
H797 C806 0.930 . S
H798 C811 0.929 . S
H799 C809 0.929 . S
H800 C804 0.929 . S
H801 C810 0.929 . S
C802 H796 0.930 . S
C802 C803 1.367 . S
C802 C810 1.378 . S
C803 C802 1.367 . S
C803 C811 1.433 . S
C804 H800 0.929 . S
C804 C806 1.378 . S
C804 C808 1.350 . S
C805 C808 1.463 . S
C805 C810 1.350 . S
C805 N813 1.427 . S
C806 H797 0.930 . S
C806 C804 1.378 . S
C806 C807 1.367 . S
C807 C806 1.367 . S
C807 C809 1.433 . S
C808 C804 1.350 . S
C808 C805 1.463 . S
C808 N812 1.427 . S
C809 H799 0.929 . S
C809 C807 1.433 . S
C809 N812 1.384 . S
C810 H801 0.929 . S
C810 C802 1.378 . S
C810 C805 1.350 . S
C811 H798 0.929 . S
C811 C803 1.433 . S
C811 N813 1.384 . S
N812 C808 1.427 . S
N812 C809 1.384 . S
N813 C805 1.427 . S
N813 C811 1.384 . S
H814 C820 0.930 . S
H815 C824 0.930 1_565 S
H816 C829 0.929 . S
H817 C827 0.929 . S
H818 C822 0.929 . S
H819 C828 0.929 . S
C820 H814 0.930 . S
C820 C821 1.367 1_545 S
C820 C828 1.378 . S
C821 C820 1.367 1_565 S
C821 C829 1.433 . S
C822 H818 0.929 . S
C822 C824 1.378 1_565 S
C822 C826 1.350 1_565 S
C823 C826 1.463 . S
C823 C828 1.350 . S
C823 N831 1.427 1_545 S
C824 H815 0.930 1_545 S
C824 C822 1.378 1_545 S
C824 C825 1.367 . S
C825 C824 1.367 . S
C825 C827 1.433 . S
C826 C822 1.350 1_545 S
C826 C823 1.463 . S
C826 N830 1.427 . S
C827 H817 0.929 . S
C827 C825 1.433 . S
C827 N830 1.384 . S
C828 H819 0.929 . S
C828 C820 1.378 . S
C828 C823 1.350 . S
C829 H816 0.929 . S
C829 C821 1.433 . S
C829 N831 1.384 . S
N830 C826 1.427 . S
N830 C827 1.384 . S
N831 C823 1.427 1_565 S
N831 C829 1.384 . S
H832 C838 0.930 . S
H833 C842 0.930 . S
H834 C847 0.929 . S
H835 C845 0.929 . S
H836 C840 0.914 1_556 S
H837 C846 0.929 . S
C838 H832 0.930 . S
C838 C839 1.367 . S
C838 C846 1.378 . S
C839 C838 1.367 . S
C839 C847 1.433 . S
C840 H836 0.914 1_554 S
C840 C842 1.430 . S
C840 C844 1.314 1_554 S
C841 C844 1.463 . S
C841 C846 1.350 . S
C841 N849 1.427 . S
C842 H833 0.930 . S
C842 C840 1.430 . S
C842 C843 1.367 . S
C843 C842 1.367 . S
C843 C845 1.433 . S
C844 C840 1.314 1_556 S
C844 C841 1.463 . S
C844 N848 1.427 . S
C845 H835 0.929 . S
C845 C843 1.433 . S
C845 N848 1.384 1_554 S
C846 H837 0.929 . S
C846 C838 1.378 . S
C846 C841 1.350 . S
C847 H834 0.929 . S
C847 C839 1.433 . S
C847 N849 1.384 . S
N848 C844 1.427 . S
N848 C845 1.384 1_556 S
N849 C841 1.427 . S
N849 C847 1.384 . S
H850 C856 0.930 . S
H851 C860 0.930 . S
H852 C865 0.929 . S
H853 C863 0.929 . S
H854 C858 0.929 . S
H855 C864 0.929 . S
C856 H850 0.930 . S
C856 C857 1.367 . S
C856 C864 1.378 . S
C857 C856 1.367 . S
C857 C865 1.433 . S
C858 H854 0.929 . S
C858 C860 1.378 . S
C858 C862 1.350 . S
C859 C862 1.463 . S
C859 C864 1.350 . S
C859 N867 1.427 . S
C860 H851 0.930 . S
C860 C858 1.378 . S
C860 C861 1.367 . S
C861 C860 1.367 . S
C861 C863 1.433 . S
C862 C858 1.350 . S
C862 C859 1.463 . S
C862 N866 1.427 . S
C863 H853 0.929 . S
C863 C861 1.433 . S
C863 N866 1.384 . S
C864 H855 0.929 . S
C864 C856 1.378 . S
C864 C859 1.350 . S
C865 H852 0.929 . S
C865 C857 1.433 . S
C865 N867 1.384 . S
N866 C862 1.427 . S
N866 C863 1.384 . S
N867 C859 1.427 . S
N867 C865 1.384 . S
H868 C874 0.930 . S
H869 C878 0.930 . S
H870 C883 0.929 . S
H871 C881 0.929 . S
H872 C876 0.929 . S
H873 C882 0.929 . S
C874 H868 0.930 . S
C874 C875 1.367 . S
C874 C882 1.378 . S
C875 C874 1.367 . S
C875 C883 1.433 . S
C876 H872 0.929 . S
C876 C878 1.378 . S
C876 C880 1.350 . S
C877 C880 1.463 . S
C877 C882 1.350 . S
C877 N885 1.427 . S
C878 H869 0.930 . S
C878 C876 1.378 . S
C878 C879 1.367 . S
C879 C878 1.367 . S
C879 C881 1.433 . S
C880 C876 1.350 . S
C880 C877 1.463 . S
C880 N884 1.427 . S
C881 H871 0.929 . S
C881 C879 1.433 . S
C881 N884 1.384 . S
C882 H873 0.929 . S
C882 C874 1.378 . S
C882 C877 1.350 . S
C883 H870 0.929 . S
C883 C875 1.433 . S
C883 N885 1.384 . S
N884 C880 1.427 . S
N884 C881 1.384 . S
N885 C877 1.427 . S
N885 C883 1.384 . S
H886 C892 0.930 . S
H887 C896 0.930 . S
H888 C901 0.929 . S
H889 C899 0.929 . S
H890 C894 0.929 . S
H891 C900 0.929 . S
C892 H886 0.930 . S
C892 C893 1.367 . S
C892 C900 1.378 . S
C893 C892 1.367 . S
C893 C901 1.433 . S
C894 H890 0.929 . S
C894 C896 1.378 . S
C894 C898 1.350 . S
C895 C898 1.463 . S
C895 C900 1.350 . S
C895 N903 1.427 . S
C896 H887 0.930 . S
C896 C894 1.378 . S
C896 C897 1.367 . S
C897 C896 1.367 . S
C897 C899 1.433 . S
C898 C894 1.350 . S
C898 C895 1.463 . S
C898 N902 1.427 . S
C899 H889 0.929 . S
C899 C897 1.433 . S
C899 N902 1.384 . S
C900 H891 0.929 . S
C900 C892 1.378 . S
C900 C895 1.350 . S
C901 H888 0.929 . S
C901 C893 1.433 . S
C901 N903 1.384 . S
N902 C898 1.427 . S
N902 C899 1.384 . S
N903 C895 1.427 . S
N903 C901 1.384 . S
H904 C910 0.930 . S
H905 C914 0.930 . S
H906 C919 0.929 . S
H907 C917 0.929 . S
H908 C912 0.929 . S
H909 C918 0.929 . S
C910 H904 0.930 . S
C910 C911 1.367 . S
C910 C918 1.378 . S
C911 C910 1.367 . S
C911 C919 1.433 . S
C912 H908 0.929 . S
C912 C914 1.378 1_554 S
C912 C916 1.350 . S
C913 C916 1.463 . S
C913 C918 1.350 . S
C913 N921 1.427 . S
C914 H905 0.930 . S
C914 C912 1.378 1_556 S
C914 C915 1.367 . S
C915 C914 1.367 . S
C915 C917 1.433 . S
C916 C912 1.350 . S
C916 C913 1.463 . S
C916 N920 1.427 . S
C917 H907 0.929 . S
C917 C915 1.433 . S
C917 N920 1.384 1_556 S
C918 H909 0.929 . S
C918 C910 1.378 . S
C918 C913 1.350 . S
C919 H906 0.929 . S
C919 C911 1.433 . S
C919 N921 1.384 . S
N920 C916 1.427 . S
N920 C917 1.384 1_554 S
N921 C913 1.427 . S
N921 C919 1.384 . S
H922 C928 0.930 . S
H923 C932 0.930 . S
H924 C937 0.929 . S
H925 C935 0.929 . S
H926 C930 0.929 . S
H927 C936 0.929 . S
C928 H922 0.930 . S
C928 C929 1.367 . S
C928 C936 1.378 . S
C929 C928 1.367 . S
C929 C937 1.433 . S
C930 H926 0.929 . S
C930 C932 1.378 . S
C930 C934 1.350 . S
C931 C934 1.463 . S
C931 C936 1.350 . S
C931 N939 1.427 . S
C932 H923 0.930 . S
C932 C930 1.378 . S
C932 C933 1.367 . S
C933 C932 1.367 . S
C933 C935 1.433 . S
C934 C930 1.350 . S
C934 C931 1.463 . S
C934 N938 1.427 . S
C935 H925 0.929 . S
C935 C933 1.433 . S
C935 N938 1.384 . S
C936 H927 0.929 . S
C936 C928 1.378 . S
C936 C931 1.350 . S
C937 H924 0.929 . S
C937 C929 1.433 . S
C937 N939 1.384 . S
N938 C934 1.427 . S
N938 C935 1.384 . S
N939 C931 1.427 . S
N939 C937 1.384 . S
H940 C946 0.930 . S
H941 C950 0.930 . S
H942 C955 0.929 . S
H943 C953 0.929 . S
H944 C948 0.929 . S
H945 C954 0.929 . S
C946 H940 0.930 . S
C946 C947 1.367 . S
C946 C954 1.378 . S
C947 C946 1.367 . S
C947 C955 1.433 . S
C948 H944 0.929 . S
C948 C950 1.378 . S
C948 C952 1.350 . S
C949 C952 1.463 . S
C949 C954 1.350 . S
C949 N957 1.427 . S
C950 H941 0.930 . S
C950 C948 1.378 . S
C950 C951 1.367 . S
C951 C950 1.367 . S
C951 C953 1.433 . S
C952 C948 1.350 . S
C952 C949 1.463 . S
C952 N956 1.427 . S
C953 H943 0.929 . S
C953 C951 1.433 . S
C953 N956 1.384 . S
C954 H945 0.929 . S
C954 C946 1.378 . S
C954 C949 1.350 . S
C955 H942 0.929 . S
C955 C947 1.433 . S
C955 N957 1.384 . S
N956 C952 1.427 . S
N956 C953 1.384 . S
N957 C949 1.427 . S
N957 C955 1.384 . S
H958 C964 0.930 . S
H959 C968 0.930 . S
H960 C973 0.929 . S
H961 C971 0.929 . S
H962 C966 0.929 . S
H963 C972 0.929 . S
C964 H958 0.930 . S
C964 C965 1.367 . S
C964 C972 1.378 . S
C965 C964 1.367 . S
C965 C973 1.433 . S
C966 H962 0.929 . S
C966 C968 1.378 . S
C966 C970 1.350 . S
C967 C970 1.463 . S
C967 C972 1.350 . S
C967 N975 1.427 . S
C968 H959 0.930 . S
C968 C966 1.378 . S
C968 C969 1.367 . S
C969 C968 1.367 . S
C969 C971 1.433 . S
C970 C966 1.350 . S
C970 C967 1.463 . S
C970 N974 1.427 . S
C971 H961 0.929 . S
C971 C969 1.433 . S
C971 N974 1.384 . S
C972 H963 0.929 . S
C972 C964 1.378 . S
C972 C967 1.350 . S
C973 H960 0.929 . S
C973 C965 1.433 . S
C973 N975 1.384 . S
N974 C970 1.427 . S
N974 C971 1.384 . S
N975 C967 1.427 . S
N975 C973 1.384 . S
H976 C982 0.930 . S
H977 C986 0.930 . S
H978 C991 0.929 . S
H979 C989 0.929 . S
H980 C984 0.929 . S
H981 C990 0.929 . S
C982 H976 0.930 . S
C982 C983 1.367 . S
C982 C990 1.378 . S
C983 C982 1.367 . S
C983 C991 1.433 . S
C984 H980 0.929 . S
C984 C986 1.378 . S
C984 C988 1.350 . S
C985 C988 1.463 . S
C985 C990 1.350 . S
C985 N993 1.427 . S
C986 H977 0.930 . S
C986 C984 1.378 . S
C986 C987 1.367 . S
C987 C986 1.367 . S
C987 C989 1.433 . S
C988 C984 1.350 . S
C988 C985 1.463 . S
C988 N992 1.427 . S
C989 H979 0.929 . S
C989 C987 1.433 . S
C989 N992 1.384 . S
C990 H981 0.929 . S
C990 C982 1.378 . S
C990 C985 1.350 . S
C991 H978 0.929 . S
C991 C983 1.433 . S
C991 N993 1.384 . S
N992 C988 1.427 . S
N992 C989 1.384 . S
N993 C985 1.427 . S
N993 C991 1.384 . S
H994 C1000 0.930 . S
H995 C1004 0.930 . S
H996 C1009 0.929 . S
H997 C1007 0.929 1_565 S
H998 C1002 0.929 . S
H999 C1008 0.929 . S
C1000 H994 0.930 . S
C1000 C1001 1.367 . S
C1000 C1008 1.378 . S
C1001 C1000 1.367 . S
C1001 C1009 1.433 1_565 S
C1002 H998 0.929 . S
C1002 C1004 1.378 . S
C1002 C1006 1.350 . S
C1003 C1006 1.463 . S
C1003 C1008 1.350 1_545 S
C1003 N1011 1.427 . S
C1004 H995 0.930 . S
C1004 C1002 1.378 . S
C1004 C1005 1.367 . S
C1005 C1004 1.367 . S
C1005 C1007 1.433 . S
C1006 C1002 1.350 . S
C1006 C1003 1.463 . S
C1006 N1010 1.427 1_545 S
C1007 H997 0.929 1_545 S
C1007 C1005 1.433 . S
C1007 N1010 1.384 1_545 S
C1008 H999 0.929 . S
C1008 C1000 1.378 . S
C1008 C1003 1.350 1_565 S
C1009 H996 0.929 . S
C1009 C1001 1.433 1_545 S
C1009 N1011 1.384 . S
N1010 C1006 1.427 1_565 S
N1010 C1007 1.384 1_565 S
N1011 C1003 1.427 . S
N1011 C1009 1.384 . S
H1012 C1018 0.930 . S
H1013 C1022 0.930 . S
H1014 C1027 0.929 . S
H1015 C1025 0.929 . S
H1016 C1020 0.917 1_556 S
H1017 C1026 0.929 . S
C1018 H1012 0.930 . S
C1018 C1019 1.367 . S
C1018 C1026 1.378 . S
C1019 C1018 1.367 . S
C1019 C1027 1.433 . S
C1020 H1016 0.917 1_554 S
C1020 C1022 1.419 . S
C1020 C1024 1.322 1_554 S
C1021 C1024 1.463 . S
C1021 C1026 1.350 . S
C1021 N1029 1.427 . S
C1022 H1013 0.930 . S
C1022 C1020 1.419 . S
C1022 C1023 1.367 . S
C1023 C1022 1.367 . S
C1023 C1025 1.433 . S
C1024 C1020 1.322 1_556 S
C1024 C1021 1.463 . S
C1024 N1028 1.427 . S
C1025 H1015 0.929 . S
C1025 C1023 1.433 . S
C1025 N1028 1.384 1_554 S
C1026 H1017 0.929 . S
C1026 C1018 1.378 . S
C1026 C1021 1.350 . S
C1027 H1014 0.929 . S
C1027 C1019 1.433 . S
C1027 N1029 1.384 . S
N1028 C1024 1.427 . S
N1028 C1025 1.384 1_556 S
N1029 C1021 1.427 . S
N1029 C1027 1.384 . S
H1030 C1036 0.930 . S
H1031 C1040 0.930 . S
H1032 C1045 0.929 . S
H1033 C1043 0.929 1_545 S
H1034 C1038 0.929 . S
H1035 C1044 0.929 . S
C1036 H1030 0.930 . S
C1036 C1037 1.367 . S
C1036 C1044 1.378 . S
C1037 C1036 1.367 . S
C1037 C1045 1.433 1_545 S
C1038 H1034 0.929 . S
C1038 C1040 1.378 . S
C1038 C1042 1.350 . S
C1039 C1042 1.463 . S
C1039 C1044 1.350 1_565 S
C1039 N1047 1.427 . S
C1040 H1031 0.930 . S
C1040 C1038 1.378 . S
C1040 C1041 1.367 . S
C1041 C1040 1.367 . S
C1041 C1043 1.433 . S
C1042 C1038 1.350 . S
C1042 C1039 1.463 . S
C1042 N1046 1.419 1_565 S
C1043 H1033 0.929 1_565 S
C1043 C1041 1.433 . S
C1043 N1046 1.381 1_565 S
C1044 H1035 0.929 . S
C1044 C1036 1.378 . S
C1044 C1039 1.350 1_545 S
C1045 H1032 0.929 . S
C1045 C1037 1.433 1_565 S
C1045 N1047 1.384 . S
N1046 C1042 1.419 1_545 S
N1046 C1043 1.381 1_545 S
N1047 C1039 1.427 . S
N1047 C1045 1.384 . S
H1048 C1054 0.930 . S
H1049 C1058 0.930 . S
H1050 C1063 0.929 . S
H1051 C1061 0.929 . S
H1052 C1056 0.929 . S
H1053 C1062 0.929 . S
C1054 H1048 0.930 . S
C1054 C1055 1.367 . S
C1054 C1062 1.378 . S
C1055 C1054 1.367 . S
C1055 C1063 1.433 . S
C1056 H1052 0.929 . S
C1056 C1058 1.378 . S
C1056 C1060 1.350 . S
C1057 C1060 1.463 . S
C1057 C1062 1.350 . S
C1057 N1065 1.427 . S
C1058 H1049 0.930 . S
C1058 C1056 1.378 . S
C1058 C1059 1.367 . S
C1059 C1058 1.367 . S
C1059 C1061 1.433 . S
C1060 C1056 1.350 . S
C1060 C1057 1.463 . S
C1060 N1064 1.427 . S
C1061 H1051 0.929 . S
C1061 C1059 1.433 . S
C1061 N1064 1.384 . S
C1062 H1053 0.929 . S
C1062 C1054 1.378 . S
C1062 C1057 1.350 . S
C1063 H1050 0.929 . S
C1063 C1055 1.433 . S
C1063 N1065 1.384 . S
N1064 C1060 1.427 . S
N1064 C1061 1.384 . S
N1065 C1057 1.427 . S
N1065 C1063 1.384 . S
H1066 C1072 0.930 . S
H1067 C1076 0.930 1_545 S
H1068 C1081 0.929 . S
H1069 C1079 0.929 . S
H1070 C1074 0.929 . S
H1071 C1080 0.929 . S
C1072 H1066 0.930 . S
C1072 C1073 1.370 . S
C1072 C1080 1.378 . S
C1073 C1072 1.370 . S
C1073 C1081 1.431 1_565 S
C1074 H1070 0.929 . S
C1074 C1076 1.378 1_545 S
C1074 C1078 1.350 1_545 S
C1075 C1078 1.463 . S
C1075 C1080 1.350 . S
C1075 N1083 1.427 1_565 S
C1076 H1067 0.930 1_565 S
C1076 C1074 1.378 1_565 S
C1076 C1077 1.367 . S
C1077 C1076 1.367 . S
C1077 C1079 1.433 . S
C1078 C1074 1.350 1_565 S
C1078 C1075 1.463 . S
C1078 N1082 1.427 . S
C1079 H1069 0.929 . S
C1079 C1077 1.433 . S
C1079 N1082 1.384 . S
C1080 H1071 0.929 . S
C1080 C1072 1.378 . S
C1080 C1075 1.350 . S
C1081 H1068 0.929 . S
C1081 C1073 1.431 1_545 S
C1081 N1083 1.384 . S
N1082 C1078 1.427 . S
N1082 C1079 1.384 . S
N1083 C1075 1.427 1_545 S
N1083 C1081 1.384 . S
H1084 C1090 0.930 . S
H1085 C1094 0.930 . S
H1086 C1099 0.929 . S
H1087 C1097 0.929 . S
H1088 C1092 0.929 . S
H1089 C1098 0.929 . S
C1090 H1084 0.930 . S
C1090 C1091 1.367 . S
C1090 C1098 1.378 . S
C1091 C1090 1.367 . S
C1091 C1099 1.433 . S
C1092 H1088 0.929 . S
C1092 C1094 1.378 1_554 S
C1092 C1096 1.350 . S
C1093 C1096 1.463 . S
C1093 C1098 1.350 . S
C1093 N1101 1.427 . S
C1094 H1085 0.930 . S
C1094 C1092 1.378 1_556 S
C1094 C1095 1.367 . S
C1095 C1094 1.367 . S
C1095 C1097 1.433 . S
C1096 C1092 1.350 . S
C1096 C1093 1.463 . S
C1096 N1100 1.427 . S
C1097 H1087 0.929 . S
C1097 C1095 1.433 . S
C1097 N1100 1.384 1_556 S
C1098 H1089 0.929 . S
C1098 C1090 1.378 . S
C1098 C1093 1.350 . S
C1099 H1086 0.929 . S
C1099 C1091 1.433 . S
C1099 N1101 1.384 . S
N1100 C1096 1.427 . S
N1100 C1097 1.384 1_554 S
N1101 C1093 1.427 . S
N1101 C1099 1.384 . S
H1102 C1108 0.930 . S
H1103 C1112 0.930 . S
H1104 C1117 0.929 . S
H1105 C1115 0.929 . S
H1106 C1110 0.929 . S
H1107 C1116 0.929 1_565 S
C1108 H1102 0.930 . S
C1108 C1109 1.367 . S
C1108 C1116 1.378 . S
C1109 C1108 1.367 . S
C1109 C1117 1.433 . S
C1110 H1106 0.929 . S
C1110 C1112 1.378 . S
C1110 C1114 1.350 . S
C1111 C1114 1.463 . S
C1111 C1116 1.350 . S
C1111 N1119 1.427 . S
C1112 H1103 0.930 . S
C1112 C1110 1.378 . S
C1112 C1113 1.367 1_545 S
C1113 C1112 1.367 1_565 S
C1113 C1115 1.433 . S
C1114 C1110 1.350 . S
C1114 C1111 1.463 . S
C1114 N1118 1.427 1_545 S
C1115 H1105 0.929 . S
C1115 C1113 1.433 . S
C1115 N1118 1.384 . S
C1116 H1107 0.929 1_545 S
C1116 C1108 1.378 . S
C1116 C1111 1.350 . S
C1117 H1104 0.929 . S
C1117 C1109 1.433 . S
C1117 N1119 1.384 . S
N1118 C1114 1.427 1_565 S
N1118 C1115 1.384 . S
N1119 C1111 1.427 . S
N1119 C1117 1.384 . S
H1120 C1126 0.930 . S
H1121 C1130 0.930 . S
H1122 C1135 0.929 . S
H1123 C1133 0.929 . S
H1124 C1128 0.929 1_556 S
H1125 C1134 0.929 1_554 S
C1126 H1120 0.930 . S
C1126 C1127 1.367 . S
C1126 C1134 1.378 . S
C1127 C1126 1.367 . S
C1127 C1135 1.433 1_565 S
C1128 H1124 0.929 1_554 S
C1128 C1130 1.378 . S
C1128 C1132 1.350 . S
C1129 C1132 1.463 1_566 S
C1129 C1134 1.350 . S
C1129 N1137 1.427 1_565 S
C1130 H1121 0.930 . S
C1130 C1128 1.378 . S
C1130 C1131 1.367 . S
C1131 C1130 1.367 . S
C1131 C1133 1.433 1_545 S
C1132 C1128 1.350 . S
C1132 C1129 1.463 1_544 S
C1132 N1136 1.427 1_545 S
C1133 H1123 0.929 . S
C1133 C1131 1.433 1_565 S
C1133 N1136 1.384 . S
C1134 H1125 0.929 1_556 S
C1134 C1126 1.378 . S
C1134 C1129 1.350 . S
C1135 H1122 0.929 . S
C1135 C1127 1.433 1_545 S
C1135 N1137 1.384 . S
N1136 C1132 1.427 1_565 S
N1136 C1133 1.384 . S
N1137 C1129 1.427 1_545 S
N1137 C1135 1.384 . S
H1138 C1144 0.930 . S
H1139 C1148 0.930 . S
H1140 C1153 0.929 . S
H1141 C1151 0.929 . S
H1142 C1146 0.929 . S
H1143 C1152 0.929 . S
C1144 H1138 0.930 . S
C1144 C1145 1.367 . S
C1144 C1152 1.378 . S
C1145 C1144 1.367 . S
C1145 C1153 1.433 . S
C1146 H1142 0.929 . S
C1146 C1148 1.378 . S
C1146 C1150 1.350 . S
C1147 C1150 1.463 . S
C1147 C1152 1.350 . S
C1147 N1155 1.427 . S
C1148 H1139 0.930 . S
C1148 C1146 1.378 . S
C1148 C1149 1.367 . S
C1149 C1148 1.367 . S
C1149 C1151 1.433 . S
C1150 C1146 1.350 . S
C1150 C1147 1.463 . S
C1150 N1154 1.427 . S
C1151 H1141 0.929 . S
C1151 C1149 1.433 . S
C1151 N1154 1.384 . S
C1152 H1143 0.929 . S
C1152 C1144 1.378 . S
C1152 C1147 1.350 . S
C1153 H1140 0.929 . S
C1153 C1145 1.433 . S
C1153 N1155 1.384 . S
N1154 C1150 1.427 . S
N1154 C1151 1.384 . S
N1155 C1147 1.427 . S
N1155 C1153 1.384 . S
H1156 C1162 0.930 . S
H1157 C1166 0.930 . S
H1158 C1171 0.929 1_565 S
H1159 C1169 0.929 1_545 S
H1160 C1164 0.929 . S
H1161 C1170 0.929 . S
C1162 H1156 0.930 . S
C1162 C1163 1.367 . S
C1162 C1170 1.378 . S
C1163 C1162 1.367 . S
C1163 C1171 1.433 . S
C1164 H1160 0.929 . S
C1164 C1166 1.378 . S
C1164 C1168 1.350 . S
C1165 C1168 1.463 1_645 S
C1165 C1170 1.350 . S
C1165 N1173 1.427 1_545 S
C1166 H1157 0.930 . S
C1166 C1164 1.378 . S
C1166 C1167 1.367 . S
C1167 C1166 1.367 . S
C1167 C1169 1.433 . S
C1168 C1164 1.350 . S
C1168 C1165 1.463 1_465 S
C1168 N1172 1.427 1_565 S
C1169 H1159 0.929 1_565 S
C1169 C1167 1.433 . S
C1169 N1172 1.384 1_565 S
C1170 H1161 0.929 . S
C1170 C1162 1.378 . S
C1170 C1165 1.350 . S
C1171 H1158 0.929 1_545 S
C1171 C1163 1.433 . S
C1171 N1173 1.384 1_545 S
N1172 C1168 1.427 1_545 S
N1172 C1169 1.384 1_545 S
N1173 C1165 1.427 1_565 S
N1173 C1171 1.384 1_565 S
H1174 C1180 0.930 . S
H1175 C1184 0.930 . S
H1176 C1189 0.929 . S
H1177 C1187 0.929 . S
H1178 C1182 0.929 . S
H1179 C1188 0.929 . S
C1180 H1174 0.930 . S
C1180 C1181 1.367 . S
C1180 C1188 1.378 . S
C1181 C1180 1.367 . S
C1181 C1189 1.433 . S
C1182 H1178 0.929 . S
C1182 C1184 1.378 . S
C1182 C1186 1.350 . S
C1183 C1186 1.463 . S
C1183 C1188 1.350 . S
C1183 N1191 1.427 . S
C1184 H1175 0.930 . S
C1184 C1182 1.378 . S
C1184 C1185 1.367 . S
C1185 C1184 1.367 . S
C1185 C1187 1.433 . S
C1186 C1182 1.350 . S
C1186 C1183 1.463 . S
C1186 N1190 1.427 . S
C1187 H1177 0.929 . S
C1187 C1185 1.433 . S
C1187 N1190 1.384 . S
C1188 H1179 0.929 . S
C1188 C1180 1.378 . S
C1188 C1183 1.350 . S
C1189 H1176 0.929 . S
C1189 C1181 1.433 . S
C1189 N1191 1.384 . S
N1190 C1186 1.427 . S
N1190 C1187 1.384 . S
N1191 C1183 1.427 . S
N1191 C1189 1.384 . S
H1192 C1198 0.930 . S
H1193 C1202 0.930 . S
H1194 C1207 0.929 . S
H1195 C1205 0.929 . S
H1196 C1200 0.929 . S
H1197 C1206 0.929 . S
C1198 H1192 0.930 . S
C1198 C1199 1.367 . S
C1198 C1206 1.378 . S
C1199 C1198 1.367 . S
C1199 C1207 1.433 . S
C1200 H1196 0.929 . S
C1200 C1202 1.378 . S
C1200 C1204 1.350 . S
C1201 C1204 1.463 . S
C1201 C1206 1.350 . S
C1201 N1209 1.427 . S
C1202 H1193 0.930 . S
C1202 C1200 1.378 . S
C1202 C1203 1.367 . S
C1203 C1202 1.367 . S
C1203 C1205 1.433 . S
C1204 C1200 1.350 . S
C1204 C1201 1.463 . S
C1204 N1208 1.427 . S
C1205 H1195 0.929 . S
C1205 C1203 1.433 . S
C1205 N1208 1.384 . S
C1206 H1197 0.929 . S
C1206 C1198 1.378 . S
C1206 C1201 1.350 . S
C1207 H1194 0.929 . S
C1207 C1199 1.433 . S
C1207 N1209 1.384 . S
N1208 C1204 1.427 . S
N1208 C1205 1.384 . S
N1209 C1201 1.427 . S
N1209 C1207 1.384 . S
H1210 C1216 0.930 . S
H1211 C1220 0.930 . S
H1212 C1225 0.929 . S
H1213 C1223 0.929 . S
H1214 C1218 0.929 . S
H1215 C1224 0.929 . S
C1216 H1210 0.930 . S
C1216 C1217 1.367 . S
C1216 C1224 1.378 . S
C1217 C1216 1.367 . S
C1217 C1225 1.433 . S
C1218 H1214 0.929 . S
C1218 C1220 1.378 . S
C1218 C1222 1.350 . S
C1219 C1222 1.463 . S
C1219 C1224 1.350 . S
C1219 N1227 1.427 . S
C1220 H1211 0.930 . S
C1220 C1218 1.378 . S
C1220 C1221 1.367 . S
C1221 C1220 1.367 . S
C1221 C1223 1.433 . S
C1222 C1218 1.350 . S
C1222 C1219 1.463 . S
C1222 N1226 1.427 . S
C1223 H1213 0.929 . S
C1223 C1221 1.433 . S
C1223 N1226 1.384 . S
C1224 H1215 0.929 . S
C1224 C1216 1.378 . S
C1224 C1219 1.350 . S
C1225 H1212 0.929 . S
C1225 C1217 1.433 . S
C1225 N1227 1.384 . S
N1226 C1222 1.427 . S
N1226 C1223 1.384 . S
N1227 C1219 1.427 . S
N1227 C1225 1.384 . S
H1228 C1234 0.930 . S
H1229 C1238 0.930 . S
H1230 C1243 0.929 . S
H1231 C1241 0.929 . S
H1232 C1236 0.929 . S
H1233 C1242 0.929 . S
C1234 H1228 0.930 . S
C1234 C1235 1.367 . S
C1234 C1242 1.378 . S
C1235 C1234 1.367 . S
C1235 C1243 1.433 . S
C1236 H1232 0.929 . S
C1236 C1238 1.378 . S
C1236 C1240 1.350 . S
C1237 C1240 1.463 1_655 S
C1237 C1242 1.350 . S
C1237 N1245 1.427 . S
C1238 H1229 0.930 . S
C1238 C1236 1.378 . S
C1238 C1239 1.367 . S
C1239 C1238 1.367 . S
C1239 C1241 1.433 . S
C1240 C1236 1.350 . S
C1240 C1237 1.463 1_455 S
C1240 N1244 1.427 . S
C1241 H1231 0.929 . S
C1241 C1239 1.433 . S
C1241 N1244 1.384 . S
C1242 H1233 0.929 . S
C1242 C1234 1.378 . S
C1242 C1237 1.350 . S
C1243 H1230 0.929 . S
C1243 C1235 1.433 . S
C1243 N1245 1.384 . S
N1244 C1240 1.427 . S
N1244 C1241 1.384 . S
N1245 C1237 1.427 . S
N1245 C1243 1.384 . S
H1246 C1252 0.930 . S
H1247 C1256 0.930 . S
H1248 C1261 0.929 . S
H1249 C1259 0.929 . S
H1250 C1254 0.929 . S
H1251 C1260 0.929 . S
C1252 H1246 0.930 . S
C1252 C1253 1.367 . S
C1252 C1260 1.378 . S
C1253 C1252 1.367 . S
C1253 C1261 1.433 . S
C1254 H1250 0.929 . S
C1254 C1256 1.378 . S
C1254 C1258 1.350 . S
C1255 C1258 1.463 1_554 S
C1255 C1260 1.350 . S
C1255 N1263 1.427 . S
C1256 H1247 0.930 . S
C1256 C1254 1.378 . S
C1256 C1257 1.367 . S
C1257 C1256 1.367 . S
C1257 C1259 1.433 . S
C1258 C1254 1.350 . S
C1258 C1255 1.463 1_556 S
C1258 N1262 1.427 . S
C1259 H1249 0.929 . S
C1259 C1257 1.433 . S
C1259 N1262 1.384 . S
C1260 H1251 0.929 . S
C1260 C1252 1.378 . S
C1260 C1255 1.350 . S
C1261 H1248 0.929 . S
C1261 C1253 1.433 . S
C1261 N1263 1.384 . S
N1262 C1258 1.427 . S
N1262 C1259 1.384 . S
N1263 C1255 1.427 . S
N1263 C1261 1.384 . S
H1264 C1270 0.930 . S
H1265 C1274 0.930 . S
H1266 C1279 0.929 . S
H1267 C1277 0.929 . S
H1268 C1272 0.929 . S
H1269 C1278 0.929 . S
C1270 H1264 0.930 . S
C1270 C1271 1.367 . S
C1270 C1278 1.378 . S
C1271 C1270 1.367 . S
C1271 C1279 1.433 . S
C1272 H1268 0.929 . S
C1272 C1274 1.378 . S
C1272 C1276 1.350 . S
C1273 C1276 1.463 . S
C1273 C1278 1.350 . S
C1273 N1281 1.427 . S
C1274 H1265 0.930 . S
C1274 C1272 1.378 . S
C1274 C1275 1.367 . S
C1275 C1274 1.367 . S
C1275 C1277 1.433 . S
C1276 C1272 1.350 . S
C1276 C1273 1.463 . S
C1276 N1280 1.427 . S
C1277 H1267 0.929 . S
C1277 C1275 1.433 . S
C1277 N1280 1.384 . S
C1278 H1269 0.929 . S
C1278 C1270 1.378 . S
C1278 C1273 1.350 . S
C1279 H1266 0.929 . S
C1279 C1271 1.433 . S
C1279 N1281 1.384 . S
N1280 C1276 1.427 . S
N1280 C1277 1.384 . S
N1281 C1273 1.427 . S
N1281 C1279 1.384 . S
H1282 C1288 0.930 . S
H1283 C1292 0.930 . S
H1284 C1297 0.929 . S
H1285 C1295 0.929 . S
H1286 C1290 0.929 . S
H1287 C1296 0.929 . S
C1288 H1282 0.930 . S
C1288 C1289 1.367 . S
C1288 C1296 1.378 . S
C1289 C1288 1.367 . S
C1289 C1297 1.433 . S
C1290 H1286 0.929 . S
C1290 C1292 1.378 . S
C1290 C1294 1.350 . S
C1291 C1294 1.463 1_455 S
C1291 C1296 1.350 . S
C1291 N1299 1.427 . S
C1292 H1283 0.930 . S
C1292 C1290 1.378 . S
C1292 C1293 1.367 . S
C1293 C1292 1.367 . S
C1293 C1295 1.433 . S
C1294 C1290 1.350 . S
C1294 C1291 1.463 1_655 S
C1294 N1298 1.427 . S
C1295 H1285 0.929 . S
C1295 C1293 1.433 . S
C1295 N1298 1.384 . S
C1296 H1287 0.929 . S
C1296 C1288 1.378 . S
C1296 C1291 1.350 . S
C1297 H1284 0.929 . S
C1297 C1289 1.433 . S
C1297 N1299 1.384 . S
N1298 C1294 1.427 . S
N1298 C1295 1.384 . S
N1299 C1291 1.427 . S
N1299 C1297 1.384 . S
H1300 C1306 0.930 . S
H1301 C1310 0.930 . S
H1302 C1315 0.929 . S
H1303 C1313 0.929 . S
H1304 C1308 0.929 . S
H1305 C1314 0.929 . S
C1306 H1300 0.930 . S
C1306 C1307 1.367 . S
C1306 C1314 1.378 . S
C1307 C1306 1.367 . S
C1307 C1315 1.433 . S
C1308 H1304 0.929 . S
C1308 C1310 1.378 . S
C1308 C1312 1.350 . S
C1309 C1312 1.463 . S
C1309 C1314 1.350 . S
C1309 N1317 1.427 . S
C1310 H1301 0.930 . S
C1310 C1308 1.378 . S
C1310 C1311 1.367 . S
C1311 C1310 1.367 . S
C1311 C1313 1.433 . S
C1312 C1308 1.350 . S
C1312 C1309 1.463 . S
C1312 N1316 1.427 . S
C1313 H1303 0.929 . S
C1313 C1311 1.433 . S
C1313 N1316 1.384 . S
C1314 H1305 0.929 . S
C1314 C1306 1.378 . S
C1314 C1309 1.350 . S
C1315 H1302 0.929 . S
C1315 C1307 1.433 . S
C1315 N1317 1.384 . S
N1316 C1312 1.427 . S
N1316 C1313 1.384 . S
N1317 C1309 1.427 . S
N1317 C1315 1.384 . S
H1318 C1324 0.930 . S
H1319 C1328 0.930 . S
H1320 C1333 0.929 . S
H1321 C1331 0.929 . S
H1322 C1326 0.929 . S
H1323 C1332 0.929 . S
C1324 H1318 0.930 . S
C1324 C1325 1.367 . S
C1324 C1332 1.378 . S
C1325 C1324 1.367 . S
C1325 C1333 1.433 . S
C1326 H1322 0.929 . S
C1326 C1328 1.378 . S
C1326 C1330 1.350 . S
C1327 C1330 1.463 . S
C1327 C1332 1.350 . S
C1327 N1335 1.427 . S
C1328 H1319 0.930 . S
C1328 C1326 1.378 . S
C1328 C1329 1.367 . S
C1329 C1328 1.367 . S
C1329 C1331 1.433 . S
C1330 C1326 1.350 . S
C1330 C1327 1.463 . S
C1330 N1334 1.427 . S
C1331 H1321 0.929 . S
C1331 C1329 1.433 . S
C1331 N1334 1.384 . S
C1332 H1323 0.929 . S
C1332 C1324 1.378 . S
C1332 C1327 1.350 . S
C1333 H1320 0.929 . S
C1333 C1325 1.433 . S
C1333 N1335 1.384 . S
N1334 C1330 1.427 . S
N1334 C1331 1.384 . S
N1335 C1327 1.427 . S
N1335 C1333 1.384 . S
H1336 C1342 0.930 . S
H1337 C1346 0.930 . S
H1338 C1351 0.929 . S
H1339 C1349 0.929 . S
H1340 C1344 0.929 . S
H1341 C1350 0.929 . S
C1342 H1336 0.930 . S
C1342 C1343 1.367 . S
C1342 C1350 1.378 . S
C1343 C1342 1.367 . S
C1343 C1351 1.433 . S
C1344 H1340 0.929 . S
C1344 C1346 1.378 . S
C1344 C1348 1.350 . S
C1345 C1348 1.463 . S
C1345 C1350 1.350 . S
C1345 N1353 1.427 . S
C1346 H1337 0.930 . S
C1346 C1344 1.378 . S
C1346 C1347 1.367 . S
C1347 C1346 1.367 . S
C1347 C1349 1.433 . S
C1348 C1344 1.350 . S
C1348 C1345 1.463 . S
C1348 N1352 1.427 . S
C1349 H1339 0.929 . S
C1349 C1347 1.433 . S
C1349 N1352 1.384 . S
C1350 H1341 0.929 . S
C1350 C1342 1.378 . S
C1350 C1345 1.350 . S
C1351 H1338 0.929 . S
C1351 C1343 1.433 . S
C1351 N1353 1.384 . S
N1352 C1348 1.427 . S
N1352 C1349 1.384 . S
N1353 C1345 1.427 . S
N1353 C1351 1.384 . S
H1354 C1360 0.930 . S
H1355 C1364 0.930 . S
H1356 C1369 0.929 . S
H1357 C1367 0.929 . S
H1358 C1362 0.929 . S
H1359 C1368 0.929 . S
C1360 H1354 0.930 . S
C1360 C1361 1.367 . S
C1360 C1368 1.378 . S
C1361 C1360 1.367 . S
C1361 C1369 1.433 . S
C1362 H1358 0.929 . S
C1362 C1364 1.378 . S
C1362 C1366 1.350 . S
C1363 C1366 1.463 1_455 S
C1363 C1368 1.350 . S
C1363 N1371 1.427 . S
C1364 H1355 0.930 . S
C1364 C1362 1.378 . S
C1364 C1365 1.367 . S
C1365 C1364 1.367 . S
C1365 C1367 1.433 . S
C1366 C1362 1.350 . S
C1366 C1363 1.463 1_655 S
C1366 N1370 1.427 . S
C1367 H1357 0.929 . S
C1367 C1365 1.433 . S
C1367 N1370 1.384 . S
C1368 H1359 0.929 . S
C1368 C1360 1.378 . S
C1368 C1363 1.350 . S
C1369 H1356 0.929 . S
C1369 C1361 1.433 . S
C1369 N1371 1.384 . S
N1370 C1366 1.427 . S
N1370 C1367 1.384 . S
N1371 C1363 1.427 . S
N1371 C1369 1.384 . S
H1372 C1378 0.930 . S
H1373 C1382 0.930 . S
H1374 C1387 0.929 . S
H1375 C1385 0.929 . S
H1376 C1380 0.929 . S
H1377 C1386 0.929 . S
C1378 H1372 0.930 . S
C1378 C1379 1.367 . S
C1378 C1386 1.378 . S
C1379 C1378 1.367 . S
C1379 C1387 1.433 . S
C1380 H1376 0.929 . S
C1380 C1382 1.378 . S
C1380 C1384 1.350 . S
C1381 C1384 1.463 . S
C1381 C1386 1.350 . S
C1381 N1389 1.427 . S
C1382 H1373 0.930 . S
C1382 C1380 1.378 . S
C1382 C1383 1.367 . S
C1383 C1382 1.367 . S
C1383 C1385 1.433 . S
C1384 C1380 1.350 . S
C1384 C1381 1.463 . S
C1384 N1388 1.427 . S
C1385 H1375 0.929 . S
C1385 C1383 1.433 . S
C1385 N1388 1.384 . S
C1386 H1377 0.929 . S
C1386 C1378 1.378 . S
C1386 C1381 1.350 . S
C1387 H1374 0.929 . S
C1387 C1379 1.433 . S
C1387 N1389 1.384 . S
N1388 C1384 1.427 . S
N1388 C1385 1.384 . S
N1389 C1381 1.427 . S
N1389 C1387 1.384 . S
H1390 C1396 0.930 . S
H1391 C1400 0.930 . S
H1392 C1405 0.929 . S
H1393 C1403 0.929 . S
H1394 C1398 0.929 . S
H1395 C1404 0.929 . S
C1396 H1390 0.930 . S
C1396 C1397 1.367 . S
C1396 C1404 1.378 . S
C1397 C1396 1.367 . S
C1397 C1405 1.433 . S
C1398 H1394 0.929 . S
C1398 C1400 1.378 . S
C1398 C1402 1.350 . S
C1399 C1402 1.463 . S
C1399 C1404 1.350 . S
C1399 N1407 1.427 . S
C1400 H1391 0.930 . S
C1400 C1398 1.378 . S
C1400 C1401 1.367 . S
C1401 C1400 1.367 . S
C1401 C1403 1.433 . S
C1402 C1398 1.350 . S
C1402 C1399 1.463 . S
C1402 N1406 1.427 . S
C1403 H1393 0.929 . S
C1403 C1401 1.433 . S
C1403 N1406 1.384 . S
C1404 H1395 0.929 . S
C1404 C1396 1.378 . S
C1404 C1399 1.350 . S
C1405 H1392 0.929 . S
C1405 C1397 1.433 . S
C1405 N1407 1.384 . S
N1406 C1402 1.427 . S
N1406 C1403 1.384 . S
N1407 C1399 1.427 . S
N1407 C1405 1.384 . S
H1408 C1414 0.930 . S
H1409 C1418 0.930 . S
H1410 C1423 0.929 . S
H1411 C1421 0.929 . S
H1412 C1416 0.929 . S
H1413 C1422 0.929 . S
C1414 H1408 0.930 . S
C1414 C1415 1.367 . S
C1414 C1422 1.378 . S
C1415 C1414 1.367 . S
C1415 C1423 1.433 . S
C1416 H1412 0.929 . S
C1416 C1418 1.378 . S
C1416 C1420 1.350 . S
C1417 C1420 1.463 . S
C1417 C1422 1.350 . S
C1417 N1425 1.427 . S
C1418 H1409 0.930 . S
C1418 C1416 1.378 . S
C1418 C1419 1.367 . S
C1419 C1418 1.367 . S
C1419 C1421 1.433 . S
C1420 C1416 1.350 . S
C1420 C1417 1.463 . S
C1420 N1424 1.427 . S
C1421 H1411 0.929 . S
C1421 C1419 1.433 . S
C1421 N1424 1.384 . S
C1422 H1413 0.929 . S
C1422 C1414 1.378 . S
C1422 C1417 1.350 . S
C1423 H1410 0.929 . S
C1423 C1415 1.433 . S
C1423 N1425 1.384 . S
N1424 C1420 1.427 . S
N1424 C1421 1.384 . S
N1425 C1417 1.427 . S
N1425 C1423 1.384 . S
H1426 C1432 0.930 . S
H1427 C1436 0.930 . S
H1428 C1441 0.929 . S
H1429 C1439 0.929 . S
H1430 C1434 0.929 . S
H1431 C1440 0.929 . S
C1432 H1426 0.930 . S
C1432 C1433 1.352 1_545 S
C1432 C1440 1.378 . S
C1433 C1432 1.352 1_565 S
C1433 C1441 1.440 . S
C1434 H1430 0.929 . S
C1434 C1436 1.378 . S
C1434 C1438 1.350 . S
C1435 C1438 1.463 . S
C1435 C1440 1.350 . S
C1435 N1443 1.427 . S
C1436 H1427 0.930 . S
C1436 C1434 1.378 . S
C1436 C1437 1.367 . S
C1437 C1436 1.367 . S
C1437 C1439 1.433 . S
C1438 C1434 1.350 . S
C1438 C1435 1.463 . S
C1438 N1442 1.427 . S
C1439 H1429 0.929 . S
C1439 C1437 1.433 . S
C1439 N1442 1.384 . S
C1440 H1431 0.929 . S
C1440 C1432 1.378 . S
C1440 C1435 1.350 . S
C1441 H1428 0.929 . S
C1441 C1433 1.440 . S
C1441 N1443 1.384 1_565 S
N1442 C1438 1.427 . S
N1442 C1439 1.384 . S
N1443 C1435 1.427 . S
N1443 C1441 1.384 1_545 S
H1444 C1450 0.930 . S
H1445 C1454 0.930 . S
H1446 C1459 0.929 . S
H1447 C1457 0.929 . S
H1448 C1452 0.929 . S
H1449 C1458 0.929 . S
C1450 H1444 0.930 . S
C1450 C1451 1.367 . S
C1450 C1458 1.378 . S
C1451 C1450 1.367 . S
C1451 C1459 1.433 . S
C1452 H1448 0.929 . S
C1452 C1454 1.378 . S
C1452 C1456 1.350 . S
C1453 C1456 1.463 . S
C1453 C1458 1.350 . S
C1453 N1461 1.427 . S
C1454 H1445 0.930 . S
C1454 C1452 1.378 . S
C1454 C1455 1.367 . S
C1455 C1454 1.367 . S
C1455 C1457 1.433 . S
C1456 C1452 1.350 . S
C1456 C1453 1.463 . S
C1456 N1460 1.427 . S
C1457 H1447 0.929 . S
C1457 C1455 1.433 . S
C1457 N1460 1.384 . S
C1458 H1449 0.929 . S
C1458 C1450 1.378 . S
C1458 C1453 1.350 . S
C1459 H1446 0.929 . S
C1459 C1451 1.433 . S
C1459 N1461 1.384 . S
N1460 C1456 1.427 . S
N1460 C1457 1.384 . S
N1461 C1453 1.427 . S
N1461 C1459 1.384 . S
H1462 C1468 0.930 . S
H1463 C1472 0.930 1_545 S
H1464 C1477 0.929 . S
H1465 C1475 0.929 . S
H1466 C1470 0.920 1_455 S
H1467 C1476 0.929 . S
C1468 H1462 0.930 . S
C1468 C1469 1.367 . S
C1468 C1476 1.378 . S
C1469 C1468 1.367 . S
C1469 C1477 1.433 . S
C1470 H1466 0.920 1_655 S
C1470 C1472 1.378 . S
C1470 C1474 1.350 . S
C1471 C1474 1.463 1_455 S
C1471 C1476 1.350 . S
C1471 N1479 1.427 . S
C1472 H1463 0.930 1_565 S
C1472 C1470 1.378 . S
C1472 C1473 1.367 1_565 S
C1473 C1472 1.367 1_545 S
C1473 C1475 1.433 1_545 S
C1474 C1470 1.350 . S
C1474 C1471 1.463 1_655 S
C1474 N1478 1.427 . S
C1475 H1465 0.929 . S
C1475 C1473 1.433 1_565 S
C1475 N1478 1.384 . S
C1476 H1467 0.929 . S
C1476 C1468 1.378 . S
C1476 C1471 1.350 . S
C1477 H1464 0.929 . S
C1477 C1469 1.433 . S
C1477 N1479 1.384 . S
N1478 C1474 1.427 . S
N1478 C1475 1.384 . S
N1479 C1471 1.427 . S
N1479 C1477 1.384 . S
H1480 C1486 0.930 . S
H1481 C1490 0.930 . S
H1482 C1495 0.929 . S
H1483 C1493 0.929 . S
H1484 C1488 0.929 . S
H1485 C1494 0.929 . S
C1486 H1480 0.930 . S
C1486 C1487 1.367 . S
C1486 C1494 1.378 . S
C1487 C1486 1.367 . S
C1487 C1495 1.433 . S
C1488 H1484 0.929 . S
C1488 C1490 1.378 . S
C1488 C1492 1.350 . S
C1489 C1492 1.463 . S
C1489 C1494 1.350 . S
C1489 N1497 1.427 . S
C1490 H1481 0.930 . S
C1490 C1488 1.378 . S
C1490 C1491 1.367 . S
C1491 C1490 1.367 . S
C1491 C1493 1.433 . S
C1492 C1488 1.350 . S
C1492 C1489 1.463 . S
C1492 N1496 1.427 . S
C1493 H1483 0.929 . S
C1493 C1491 1.433 . S
C1493 N1496 1.384 . S
C1494 H1485 0.929 . S
C1494 C1486 1.378 . S
C1494 C1489 1.350 . S
C1495 H1482 0.929 . S
C1495 C1487 1.433 . S
C1495 N1497 1.384 . S
N1496 C1492 1.427 . S
N1496 C1493 1.384 . S
N1497 C1489 1.427 . S
N1497 C1495 1.384 . S
H1498 C1504 0.930 . S
H1499 C1508 0.930 . S
H1500 C1513 0.929 . S
H1501 C1511 0.929 . S
H1502 C1506 0.929 . S
H1503 C1512 0.929 . S
C1504 H1498 0.930 . S
C1504 C1505 1.367 1_565 S
C1504 C1512 1.378 . S
C1505 C1504 1.367 1_545 S
C1505 C1513 1.433 . S
C1506 H1502 0.929 . S
C1506 C1508 1.378 . S
C1506 C1510 1.350 . S
C1507 C1510 1.463 . S
C1507 C1512 1.350 . S
C1507 N1515 1.427 . S
C1508 H1499 0.930 . S
C1508 C1506 1.378 . S
C1508 C1509 1.367 . S
C1509 C1508 1.367 . S
C1509 C1511 1.433 . S
C1510 C1506 1.350 . S
C1510 C1507 1.463 . S
C1510 N1514 1.427 . S
C1511 H1501 0.929 . S
C1511 C1509 1.433 . S
C1511 N1514 1.384 . S
C1512 H1503 0.929 . S
C1512 C1504 1.378 . S
C1512 C1507 1.350 . S
C1513 H1500 0.929 . S
C1513 C1505 1.433 . S
C1513 N1515 1.384 1_545 S
N1514 C1510 1.427 . S
N1514 C1511 1.384 . S
N1515 C1507 1.427 . S
N1515 C1513 1.384 1_565 S
H1516 C1522 0.930 . S
H1517 C1526 0.930 . S
H1518 C1531 0.929 . S
H1519 C1529 0.929 . S
H1520 C1524 0.929 . S
H1521 C1530 0.929 . S
C1522 H1516 0.930 . S
C1522 C1523 1.367 . S
C1522 C1530 1.378 . S
C1523 C1522 1.367 . S
C1523 C1531 1.433 . S
C1524 H1520 0.929 . S
C1524 C1526 1.378 . S
C1524 C1528 1.350 . S
C1525 C1528 1.463 . S
C1525 C1530 1.350 . S
C1525 N1533 1.427 . S
C1526 H1517 0.930 . S
C1526 C1524 1.378 . S
C1526 C1527 1.367 . S
C1527 C1526 1.367 . S
C1527 C1529 1.433 . S
C1528 C1524 1.350 . S
C1528 C1525 1.463 . S
C1528 N1532 1.427 . S
C1529 H1519 0.929 . S
C1529 C1527 1.433 . S
C1529 N1532 1.384 . S
C1530 H1521 0.929 . S
C1530 C1522 1.378 . S
C1530 C1525 1.350 . S
C1531 H1518 0.929 . S
C1531 C1523 1.433 . S
C1531 N1533 1.384 . S
N1532 C1528 1.427 . S
N1532 C1529 1.384 . S
N1533 C1525 1.427 . S
N1533 C1531 1.384 . S
H1534 C1540 0.930 . S
H1535 C1544 0.930 . S
H1536 C1549 0.929 . S
H1537 C1547 0.929 . S
H1538 C1542 0.929 1_565 S
H1539 C1548 0.929 . S
C1540 H1534 0.930 . S
C1540 C1541 1.351 1_545 S
C1540 C1548 1.378 . S
C1541 C1540 1.351 1_565 S
C1541 C1549 1.443 . S
C1542 H1538 0.929 1_545 S
C1542 C1544 1.378 . S
C1542 C1546 1.350 . S
C1543 C1546 1.463 1_455 S
C1543 C1548 1.350 . S
C1543 N1551 1.427 1_545 S
C1544 H1535 0.930 . S
C1544 C1542 1.378 . S
C1544 C1545 1.367 . S
C1545 C1544 1.367 . S
C1545 C1547 1.433 . S
C1546 C1542 1.350 . S
C1546 C1543 1.463 1_655 S
C1546 N1550 1.427 . S
C1547 H1537 0.929 . S
C1547 C1545 1.433 . S
C1547 N1550 1.384 . S
C1548 H1539 0.929 . S
C1548 C1540 1.378 . S
C1548 C1543 1.350 . S
C1549 H1536 0.929 . S
C1549 C1541 1.443 . S
C1549 N1551 1.384 . S
N1550 C1546 1.427 . S
N1550 C1547 1.384 . S
N1551 C1543 1.427 1_565 S
N1551 C1549 1.384 . S
C551 C255 2.547 . S
C555 C22 2.324 . S
C569 C425 2.546 . S
C573 C49 2.327 . S
C587 C90 2.339 . S
C591 C187 2.550 . S
C605 C493 2.553 . S
C609 C124 2.338 1_455 S
C623 C119 2.547 . S
C627 C158 2.330 . S
C641 C185 2.338 . S
C645 C289 2.550 . S
C659 C219 2.339 . S
C663 C51 2.551 . S
C677 C357 2.551 . S
C681 C260 2.328 1_655 S
C695 C527 2.547 1_565 S
C699 C294 2.326 . S
C713 C321 2.334 1_655 S
C717 C153 2.548 . S
C731 C459 2.548 1_545 S
C735 C362 2.336 . S
C749 C221 2.549 . S
C753 C396 2.336 . S
C767 C391 2.551 1_545 S
C771 C423 2.328 . S
C785 C457 2.333 1_455 S
C789 C17 2.552 . S
C803 C498 2.338 . S
C807 C323 2.552 1_565 S
C821 C85 2.547 . S
C825 C532 2.329 . S
C839 C312 0.734 . S
C843 C6 0.741 . S
C857 C62 0.739 . S
C861 C368 0.746 . S
C875 C74 0.742 . S
C879 C402 0.738 . S
C893 C108 0.741 . S
C897 C300 0.734 . S
C911 C448 0.734 . S
C915 C142 0.737 . S
C929 C198 0.742 . S
C933 C504 0.739 . S
C947 C538 0.743 . S
C951 C232 0.741 . S
C965 C244 0.741 . S
C969 C414 0.743 . S
C983 C40 0.745 . S
C987 C278 0.740 . S
C1001 C96 0.737 . S
C1005 C334 0.737 . S
C1019 C130 0.733 . S
C1023 C346 0.741 . S
C1037 C28 0.744 . S
C1041 C380 0.736 . S
C1055 C436 0.741 . S
C1059 C176 0.733 . S
C1073 C210 0.734 1_565 S
C1077 C470 0.741 . S
C1091 C266 0.736 . S
C1095 C482 0.737 . S
C1109 C516 0.740 . S
C1113 C164 0.732 . S
C1127 C137 2.811 . S
C1131 C1 2.811 . S
C1145 C37 2.811 . S
C1149 C445 2.811 . S
C1163 C207 2.810 . S
C1167 C69 2.810 . S
C1181 C511 2.808 . S
C1185 C103 2.808 . S
C1199 C309 2.810 . S
C1203 C173 2.810 . S
C1217 C239 2.804 . S
C1221 C375 2.804 . S
C1235 C273 2.799 . S
C1239 C411 2.799 . S
C1253 C341 2.798 . S
C1257 C477 2.798 . S
C1271 C241 0.655 . S
C1275 C15 0.605 . S
C1289 C409 0.642 . S
C1293 C56 0.616 . S
C1307 C83 0.585 . S
C1311 C171 0.644 . S
C1325 C117 0.579 . S
C1329 C479 0.635 . S
C1343 C151 0.616 . S
C1347 C105 0.642 . S
C1361 C192 0.614 . S
C1365 C275 0.648 . S
C1379 C226 0.577 . S
C1383 C35 0.618 . S
C1397 C343 0.607 . S
C1401 C253 0.588 . S
C1415 C287 0.600 . S
C1419 C513 0.655 . S
C1433 C139 0.672 . S
C1437 C328 0.605 . S
C1451 C443 0.649 . S
C1455 C355 0.614 . S
C1469 C389 0.583 . S
C1473 C205 0.609 . S
C1487 C377 0.607 . S
C1491 C430 0.593 . S
C1505 C3 0.616 . S
C1509 C464 0.578 . S
C1523 C491 0.614 . S
C1527 C307 0.649 . S
C1541 C71 0.639 . S
C1545 C525 0.577 . S
