# Generated by pormake.
# Topology cag, (4)-cn, num edge types: 1
# Building blocks:
#     Node 0, Type 0, BuildingBlock: UXUYUI_clean_sbu_0, # of connection points: 4
#     Node 1, Type 0, BuildingBlock: UXUYUI_clean_sbu_0, # of connection points: 4
#     Node 2, Type 0, BuildingBlock: UXUYUI_clean_sbu_0, # of connection points: 4
#     Node 3, Type 0, BuildingBlock: UXUYUI_clean_sbu_0, # of connection points: 4
#     Node 4, Type 0, BuildingBlock: UXUYUI_clean_sbu_0, # of connection points: 4
#     Node 5, Type 0, BuildingBlock: UXUYUI_clean_sbu_0, # of connection points: 4
#     Node 6, Type 0, BuildingBlock: UXUYUI_clean_sbu_0, # of connection points: 4
#     Node 7, Type 0, BuildingBlock: UXUYUI_clean_sbu_0, # of connection points: 4
#     Node 8, Type 0, BuildingBlock: UXUYUI_clean_sbu_0, # of connection points: 4
#     Node 9, Type 0, BuildingBlock: UXUYUI_clean_sbu_0, # of connection points: 4
#     Node 10, Type 0, BuildingBlock: UXUYUI_clean_sbu_0, # of connection points: 4
#     Node 11, Type 0, BuildingBlock: UXUYUI_clean_sbu_0, # of connection points: 4
#     Node 12, Type 0, BuildingBlock: UXUYUI_clean_sbu_0, # of connection points: 4
#     Node 13, Type 0, BuildingBlock: UXUYUI_clean_sbu_0, # of connection points: 4
#     Node 14, Type 0, BuildingBlock: UXUYUI_clean_sbu_0, # of connection points: 4
#     Node 15, Type 0, BuildingBlock: UXUYUI_clean_sbu_0, # of connection points: 4
#     Edge 16, Type (0, 0), BuildingBlock: AJUNOK_clean_linker_0, # of connection points: 2
#     Edge 17, Type (0, 0), BuildingBlock: AJUNOK_clean_linker_0, # of connection points: 2
#     Edge 18, Type (0, 0), BuildingBlock: AJUNOK_clean_linker_0, # of connection points: 2
#     Edge 19, Type (0, 0), BuildingBlock: AJUNOK_clean_linker_0, # of connection points: 2
#     Edge 20, Type (0, 0), BuildingBlock: AJUNOK_clean_linker_0, # of connection points: 2
#     Edge 21, Type (0, 0), BuildingBlock: AJUNOK_clean_linker_0, # of connection points: 2
#     Edge 22, Type (0, 0), BuildingBlock: AJUNOK_clean_linker_0, # of connection points: 2
#     Edge 23, Type (0, 0), BuildingBlock: AJUNOK_clean_linker_0, # of connection points: 2
#     Edge 24, Type (0, 0), BuildingBlock: AJUNOK_clean_linker_0, # of connection points: 2
#     Edge 25, Type (0, 0), BuildingBlock: AJUNOK_clean_linker_0, # of connection points: 2
#     Edge 26, Type (0, 0), BuildingBlock: AJUNOK_clean_linker_0, # of connection points: 2
#     Edge 27, Type (0, 0), BuildingBlock: AJUNOK_clean_linker_0, # of connection points: 2
#     Edge 28, Type (0, 0), BuildingBlock: AJUNOK_clean_linker_0, # of connection points: 2
#     Edge 29, Type (0, 0), BuildingBlock: AJUNOK_clean_linker_0, # of connection points: 2
#     Edge 30, Type (0, 0), BuildingBlock: AJUNOK_clean_linker_0, # of connection points: 2
#     Edge 31, Type (0, 0), BuildingBlock: AJUNOK_clean_linker_0, # of connection points: 2
#     Edge 32, Type (0, 0), BuildingBlock: AJUNOK_clean_linker_0, # of connection points: 2
#     Edge 33, Type (0, 0), BuildingBlock: AJUNOK_clean_linker_0, # of connection points: 2
#     Edge 34, Type (0, 0), BuildingBlock: AJUNOK_clean_linker_0, # of connection points: 2
#     Edge 35, Type (0, 0), BuildingBlock: AJUNOK_clean_linker_0, # of connection points: 2
#     Edge 36, Type (0, 0), BuildingBlock: AJUNOK_clean_linker_0, # of connection points: 2
#     Edge 37, Type (0, 0), BuildingBlock: AJUNOK_clean_linker_0, # of connection points: 2
#     Edge 38, Type (0, 0), BuildingBlock: AJUNOK_clean_linker_0, # of connection points: 2
#     Edge 39, Type (0, 0), BuildingBlock: AJUNOK_clean_linker_0, # of connection points: 2
#     Edge 40, Type (0, 0), BuildingBlock: AJUNOK_clean_linker_0, # of connection points: 2
#     Edge 41, Type (0, 0), BuildingBlock: AJUNOK_clean_linker_0, # of connection points: 2
#     Edge 42, Type (0, 0), BuildingBlock: AJUNOK_clean_linker_0, # of connection points: 2
#     Edge 43, Type (0, 0), BuildingBlock: AJUNOK_clean_linker_0, # of connection points: 2
#     Edge 44, Type (0, 0), BuildingBlock: AJUNOK_clean_linker_0, # of connection points: 2
#     Edge 45, Type (0, 0), BuildingBlock: AJUNOK_clean_linker_0, # of connection points: 2
#     Edge 46, Type (0, 0), BuildingBlock: AJUNOK_clean_linker_0, # of connection points: 2
#     Edge 47, Type (0, 0), BuildingBlock: AJUNOK_clean_linker_0, # of connection points: 2
# Relax obj value: 0.065
# Max RMSD: 0.090
# Mean RMSD: 0.089
data_MOF--net-cag--node1-UXUYUI_clean_sbu_0--edge1-AJUNOK_clean_linker_0
_symmetry_space_group_name_H-M    P1
_symmetry_Int_Tables_number       1
_symmetry_cell_setting            triclinic
loop_
_symmetry_equiv_pos_as_xyz
'x, y, z'
_cell_length_a     50.304871
_cell_length_b     59.412875
_cell_length_c     52.110025
_cell_angle_alpha  89.895811
_cell_angle_beta   89.962684
_cell_angle_gamma 89.933033
loop_
_atom_site_label
_atom_site_type_symbol
_atom_site_fract_x
_atom_site_fract_y
_atom_site_fract_z
_atom_type_partial_charge
Li0 Li 0.31197 0.15914 0.08362 0.0
Li1 Li 0.35334 0.14211 0.10304 0.0
Li2 Li 0.31748 0.11845 0.08805 0.0
Li3 Li 0.31257 0.1393 0.12689 0.0
C4 C 0.34682 0.12729 0.04717 0.0
N5 N 0.36074 0.09962 1.00678 0.0
C6 C 0.36901 0.11322 0.04913 0.0
C7 C 0.33176 0.12737 0.02464 0.0
C8 C 0.37571 0.09934 0.0285 0.0
C9 C 0.33912 0.11324 1.00443 0.0
C10 C 0.34987 0.18346 0.12095 0.0
C11 C 0.38604 0.19772 0.14656 0.0
N12 N 0.38917 0.21499 0.12966 0.0
C13 C 0.35336 0.20141 0.10391 0.0
C14 C 0.36623 0.18165 0.14254 0.0
C15 C 0.37336 0.21717 0.10864 0.0
C16 C 0.27839 0.19634 0.07542 0.0
N17 N 0.29751 0.18345 0.0643 0.0
C18 C 0.29551 0.20552 0.02593 0.0
C19 C 0.3064 0.1878 0.04016 0.0
C20 C 0.27541 0.21897 0.03674 0.0
C21 C 0.26711 0.21434 0.06197 0.0
H22 H 0.27197 0.19264 0.09479 0.0
H23 H 0.32197 0.17754 0.03196 0.0
C24 C 0.40524 0.12999 0.11873 0.0
N25 N 0.39112 0.14503 0.10452 0.0
C26 C 0.43295 0.13104 0.11935 0.0
C27 C 0.43117 0.16291 0.09051 0.0
C28 C 0.40346 0.16116 0.09033 0.0
C29 C 0.44624 0.14768 0.10517 0.0
H30 H 0.39505 0.1169 0.12921 0.0
H31 H 0.3918 0.17247 0.07858 0.0
C32 C 0.26474 0.126 0.08887 0.0
N33 N 0.22118 0.10342 0.06953 0.0
C34 C 0.25718 0.10528 0.09931 0.0
C35 C 0.25007 0.1353 0.06869 0.0
C36 C 0.23514 0.0941 0.08922 0.0
C37 C 0.22811 0.12361 0.05917 0.0
C38 C 0.33779 0.1039 0.14257 0.0
C39 C 0.32282 0.0842 0.14515 0.0
C40 C 0.3512 0.11254 0.16388 0.0
C41 C 0.32149 0.07351 0.16902 0.0
C42 C 0.34929 0.1014 0.18744 0.0
N43 N 0.3346 0.08228 0.1895 0.0
C44 C 0.32782 0.07299 0.07683 0.0
C45 C 0.29418 0.08855 0.05042 0.0
C46 C 0.32631 0.05252 0.06381 0.0
N47 N 0.31166 0.09043 0.07023 0.0
C48 C 0.29198 0.06835 0.03688 0.0
C49 C 0.3081 0.04997 0.04363 0.0
H50 H 0.34244 0.07516 0.0918 0.0
H51 H 0.28242 0.10288 0.04461 0.0
C52 C 0.30357 0.15795 0.17634 0.0
N53 N 0.29748 0.14033 0.16078 0.0
C54 C 0.29432 0.15849 0.20165 0.0
C55 C 0.27239 0.12291 0.19438 0.0
C56 C 0.28169 0.12324 0.16913 0.0
C57 C 0.27894 0.14059 0.211 0.0
H58 H 0.31586 0.17148 0.16921 0.0
H59 H 0.27676 0.10959 0.15639 0.0
O60 O 0.33949 0.14047 0.06747 0.0
O61 O 0.33071 0.16764 0.1164 0.0
O62 O 0.2862 0.13728 0.0985 0.0
O63 O 0.33897 0.11487 0.11945 0.0
H64 H 0.38073 0.11279 0.06653 0.0
H65 H 0.31426 0.13787 0.02296 0.0
H66 H 0.39274 0.08826 0.02981 0.0
H67 H 0.32753 0.11298 0.98695 0.0
H68 H 0.39896 0.19643 0.16308 0.0
H69 H 0.34093 0.20309 0.0871 0.0
H70 H 0.36384 0.16787 0.15591 0.0
H71 H 0.37636 0.23109 0.09555 0.0
H72 H 0.30255 0.20854 1.00659 0.0
H73 H 0.25225 0.22465 0.07135 0.0
H74 H 0.4439 0.1189 0.13073 0.0
H75 H 0.44073 0.17562 0.07881 0.0
H76 H 0.26851 0.0977 0.11467 0.0
H77 H 0.25563 0.15132 0.06039 0.0
H78 H 0.22919 0.07797 0.09697 0.0
H79 H 0.21662 0.13057 0.04351 0.0
H80 H 0.31195 0.07741 0.12904 0.0
H81 H 0.36268 0.12784 0.16233 0.0
H82 H 0.30986 0.05833 0.1713 0.0
H83 H 0.35941 0.108 0.20412 0.0
H84 H 0.33977 0.03903 0.06903 0.0
H85 H 0.27797 0.06717 0.02117 0.0
H86 H 0.29963 0.17245 0.21395 0.0
H87 H 0.26022 0.10899 0.20087 0.0
Li88 Li 0.19357 0.89994 0.5868 0.0
Li89 Li 0.19883 0.87932 0.62769 0.0
Li90 Li 0.19782 0.85838 0.58518 0.0
Li91 Li 0.15742 0.87507 0.60404 0.0
C92 C 0.2484 0.88888 0.59122 0.0
N93 N 0.29784 0.90506 0.57731 0.0
C94 C 0.26338 0.90148 0.6086 0.0
C95 C 0.25876 0.88419 0.56691 0.0
C96 C 0.28828 0.9096 0.60117 0.0
C97 C 0.28373 0.89261 0.5602 0.0
C98 C 0.17114 0.91774 0.6388 0.0
C99 C 0.15774 0.92664 0.68206 0.0
N100 N 0.16904 0.94732 0.6796 0.0
C101 C 0.18247 0.93913 0.63663 0.0
C102 C 0.15851 0.91148 0.66162 0.0
C103 C 0.18124 0.95383 0.6575 0.0
C104 C 0.17794 0.93434 0.55398 0.0
N105 N 0.19898 0.9275 0.56839 0.0
C106 C 0.22345 0.96044 0.55651 0.0
C107 C 0.22145 0.94014 0.57001 0.0
C108 C 0.20206 0.96781 0.54134 0.0
C109 C 0.17908 0.95448 0.54021 0.0
H110 H 0.16014 0.92417 0.55333 0.0
H111 H 0.23764 0.9348 0.58211 0.0
C112 C 0.21668 0.8595 0.67379 0.0
N113 N 0.21456 0.87952 0.66124 0.0
C114 C 0.22759 0.85855 0.69844 0.0
C115 C 0.23385 0.89884 0.69692 0.0
C116 C 0.22328 0.89896 0.67214 0.0
C117 C 0.23613 0.87844 0.71029 0.0
H118 H 0.20985 0.84424 0.66465 0.0
H119 H 0.22209 0.9146 0.66163 0.0
C120 C 0.17003 0.87559 0.54236 0.0
N121 N 0.16856 0.87113 0.48962 0.0
C122 C 0.14751 0.8667 0.53042 0.0
C123 C 0.19168 0.88243 0.52748 0.0
C124 C 0.14719 0.8645 0.50373 0.0
C125 C 0.19059 0.87999 0.50085 0.0
C126 C 0.16228 0.83579 0.62794 0.0
C127 C 0.15628 0.81624 0.61426 0.0
C128 C 0.14949 0.84008 0.65123 0.0
C129 C 0.13719 0.80143 0.62397 0.0
C130 C 0.1305 0.82486 0.66028 0.0
N131 N 0.12478 0.80602 0.64656 0.0
C132 C 0.23717 0.82665 0.57102 0.0
C133 C 0.19623 0.82254 0.54909 0.0
C134 C 0.24789 0.80826 0.55786 0.0
N135 N 0.2118 0.83344 0.56637 0.0
C136 C 0.20619 0.80419 0.53538 0.0
C137 C 0.23228 0.79668 0.53985 0.0
H138 H 0.24903 0.83546 0.58509 0.0
H139 H 0.17597 0.82795 0.54607 0.0
C140 C 0.10581 0.88888 0.61818 0.0
N141 N 0.1197 0.87215 0.60651 0.0
C142 C 0.07812 0.88795 0.61957 0.0
C143 C 0.07941 0.85259 0.59676 0.0
C144 C 0.1071 0.8543 0.59565 0.0
C145 C 0.06455 0.86955 0.60892 0.0
H146 H 0.11617 0.90323 0.62597 0.0
H147 H 0.11854 0.84151 0.58586 0.0
O148 O 0.22405 0.8807 0.59824 0.0
O149 O 0.1722 0.90312 0.61859 0.0
O150 O 0.17068 0.87774 0.56848 0.0
O151 O 0.18061 0.85066 0.61857 0.0
H152 H 0.25578 0.90512 0.62755 0.0
H153 H 0.24776 0.87401 0.55343 0.0
H154 H 0.3 0.91951 0.61437 0.0
H155 H 0.29195 0.88918 0.54142 0.0
H156 H 0.14816 0.92197 0.69988 0.0
H157 H 0.19222 0.94429 0.61909 0.0
H158 H 0.14949 0.89505 0.66355 0.0
H159 H 0.19003 0.9704 0.65614 0.0
H160 H 0.24128 0.9705 0.55838 0.0
H161 H 0.16214 0.95957 0.52874 0.0
H162 H 0.22902 0.84251 0.70828 0.0
H163 H 0.24049 0.91447 0.70545 0.0
H164 H 0.13052 0.86144 0.54168 0.0
H165 H 0.20902 0.88972 0.53637 0.0
H166 H 0.12995 0.85754 0.49424 0.0
H167 H 0.20722 0.8852 0.4891 0.0
H168 H 0.16608 0.81265 0.59625 0.0
H169 H 0.15413 0.85502 0.66215 0.0
H170 H 0.13221 0.78629 0.61351 0.0
H171 H 0.12033 0.82802 0.67821 0.0
H172 H 0.26805 0.80296 0.56199 0.0
H173 H 0.19362 0.79607 0.52131 0.0
H174 H 0.06743 0.90177 0.62834 0.0
H175 H 0.0697 0.83821 0.58813 0.0
Li176 Li 0.31389 0.88003 0.89801 0.0
Li177 Li 0.31869 0.89959 0.93813 0.0
Li178 Li 0.35513 0.87634 0.92265 0.0
Li179 Li 0.31317 0.85894 0.94107 0.0
C180 C 0.34417 0.91586 0.88504 0.0
N181 N 0.35192 0.94023 0.84045 0.0
C182 C 0.33243 0.93706 0.88212 0.0
C183 C 0.36001 0.90715 0.86538 0.0
C184 C 0.33655 0.94909 0.85941 0.0
C185 C 0.36363 0.9197 0.84296 0.0
C186 C 0.26523 0.89275 0.93287 0.0
C187 C 0.22501 0.89634 0.95769 0.0
N188 N 0.2197 0.91617 0.94564 0.0
C189 C 0.25934 0.91308 0.92062 0.0
C190 C 0.24794 0.88422 0.95148 0.0
C191 C 0.23623 0.92471 0.9274 0.0
C192 C 0.29797 0.8598 0.85142 0.0
N193 N 0.29902 0.87977 0.86407 0.0
C194 C 0.27968 0.89875 0.82809 0.0
C195 C 0.28959 0.89898 0.85312 0.0
C196 C 0.27886 0.87846 0.8143 0.0
C197 C 0.28778 0.85872 0.82649 0.0
H198 H 0.30491 0.84462 0.86074 0.0
H199 H 0.2898 0.91454 0.86371 0.0
C200 C 0.33001 0.94415 0.95195 0.0
N201 N 0.31222 0.92734 0.95618 0.0
C202 C 0.32832 0.96427 0.96565 0.0
C203 C 0.29003 0.94949 0.98799 0.0
C204 C 0.29248 0.92963 0.97387 0.0
C205 C 0.3083 0.96703 0.98414 0.0
H206 H 0.34604 0.94169 0.93841 0.0
H207 H 0.27914 0.91581 0.97769 0.0
C208 C 0.34856 0.83505 0.89947 0.0
N209 N 0.38182 0.80136 0.88203 0.0
C210 C 0.35208 0.81545 0.91397 0.0
C211 C 0.36167 0.8374 0.87598 0.0
C212 C 0.36905 0.79863 0.90484 0.0
C213 C 0.37849 0.82021 0.86754 0.0
C214 C 0.34664 0.89007 0.97918 0.0
C215 C 0.36983 0.903 0.9795 0.0
C216 C 0.32909 0.89103 0.99997 0.0
C217 C 0.375 0.91681 1.00058 0.0
C218 C 0.33498 0.90506 0.02069 0.0
N219 N 0.3576 0.91757 0.02055 0.0
C220 C 0.40695 0.89201 0.91314 0.0
C221 C 0.4055 0.85409 0.92717 0.0
C222 C 0.43464 0.89127 0.91177 0.0
N223 N 0.39295 0.87352 0.92046 0.0
C224 C 0.43319 0.85251 0.92576 0.0
C225 C 0.44814 0.87124 0.91782 0.0
H226 H 0.39662 0.90752 0.90885 0.0
H227 H 0.39408 0.83988 0.93388 0.0
C228 C 0.28242 0.81958 0.94633 0.0
N229 N 0.29865 0.83395 0.95913 0.0
C230 C 0.27141 0.80101 0.95895 0.0
C231 C 0.29397 0.81246 0.9977 0.0
C232 C 0.30481 0.83063 0.98424 0.0
C233 C 0.27687 0.79741 0.98511 0.0
H234 H 0.27818 0.82248 0.92624 0.0
H235 H 0.31818 0.84206 0.99384 0.0
O236 O 0.34027 0.90378 0.9071 0.0
O237 O 0.28772 0.8811 0.92658 0.0
O238 O 0.33209 0.85171 0.90814 0.0
O239 O 0.34081 0.87706 0.9583 0.0
H240 H 0.31992 0.94399 0.89704 0.0
H241 H 0.36944 0.89089 0.86744 0.0
H242 H 0.32745 0.96544 0.85681 0.0
H243 H 0.37578 0.91313 0.82756 0.0
H244 H 0.21146 0.89 0.97212 0.0
H245 H 0.27266 0.91996 0.90633 0.0
H246 H 0.25225 0.86846 0.96108 0.0
H247 H 0.23149 0.94056 0.91822 0.0
H248 H 0.27294 0.91438 0.81956 0.0
H249 H 0.28663 0.84254 0.81704 0.0
H250 H 0.34299 0.97729 0.96235 0.0
H251 H 0.27417 0.95103 1.00194 0.0
H252 H 0.34202 0.81334 0.93217 0.0
H253 H 0.35884 0.85229 0.86435 0.0
H254 H 0.3721 0.78343 0.91592 0.0
H255 H 0.38886 0.82184 0.84944 0.0
H256 H 0.38353 0.90259 0.96351 0.0
H257 H 0.31079 0.88149 0.99983 0.0
H258 H 0.3928 0.92701 1.00101 0.0
H259 H 0.32144 0.90615 0.03678 0.0
H260 H 0.44537 0.9064 0.90656 0.0
H261 H 0.44281 0.83681 0.93087 0.0
H262 H 0.25903 0.78947 0.94823 0.0
H263 H 0.29876 0.81033 0.01782 0.0
Li264 Li 0.20064 0.16078 0.43968 0.0
Li265 Li 0.15817 0.1441 0.42176 0.0
Li266 Li 0.19366 0.11997 0.43871 0.0
Li267 Li 0.20041 0.13932 0.39828 0.0
C268 C 0.16472 0.13154 0.47886 0.0
N269 N 0.15035 0.10595 0.52101 0.0
C270 C 0.13885 0.1232 0.48109 0.0
C271 C 0.18319 0.12704 0.49824 0.0
C272 C 0.13198 0.11028 0.50251 0.0
C273 C 0.17558 0.114 0.51934 0.0
C274 C 0.16793 0.18174 0.39047 0.0
C275 C 0.14816 0.18934 0.34917 0.0
N276 N 0.13955 0.20963 0.35793 0.0
C277 C 0.15906 0.20276 0.39898 0.0
C278 C 0.16259 0.17505 0.3653 0.0
C279 C 0.14467 0.21657 0.38228 0.0
C280 C 0.21671 0.20632 0.44624 0.0
N281 N 0.21596 0.18569 0.45757 0.0
C282 C 0.23644 0.2004 0.49541 0.0
C283 C 0.22596 0.18238 0.48151 0.0
C284 C 0.23654 0.22208 0.48461 0.0
C285 C 0.22685 0.22486 0.45952 0.0
H286 H 0.20938 0.20841 0.42691 0.0
H287 H 0.2259 0.16575 0.48983 0.0
C288 C 0.10621 0.12764 0.41589 0.0
N289 N 0.12032 0.14697 0.41885 0.0
C290 C 0.07854 0.12823 0.4142 0.0
C291 C 0.08016 0.16862 0.41906 0.0
C292 C 0.10785 0.16721 0.42093 0.0
C293 C 0.06515 0.14895 0.41545 0.0
H294 H 0.11641 0.11163 0.41546 0.0
H295 H 0.11928 0.18224 0.42445 0.0
C296 C 0.24698 0.12356 0.42213 0.0
N297 N 0.28979 0.09627 0.41045 0.0
C298 C 0.243 0.10303 0.4097 0.0
C299 C 0.27272 0.13021 0.42866 0.0
C300 C 0.26489 0.08947 0.40393 0.0
C301 C 0.29412 0.11618 0.4226 0.0
C302 C 0.16406 0.10315 0.38761 0.0
C303 C 0.17096 0.08036 0.38668 0.0
C304 C 0.14758 0.1122 0.36862 0.0
C305 C 0.1616 0.06709 0.36652 0.0
C306 C 0.1386 0.09837 0.34879 0.0
N307 N 0.14577 0.0763 0.34814 0.0
C308 C 0.1777 0.07793 0.4568 0.0
C309 C 0.22131 0.08753 0.47008 0.0
C310 C 0.17893 0.05774 0.47043 0.0
N311 N 0.19868 0.09231 0.45686 0.0
C312 C 0.22341 0.06744 0.48399 0.0
C313 C 0.202 0.05226 0.48426 0.0
H314 H 0.15984 0.08233 0.44638 0.0
H315 H 0.23751 0.09947 0.47023 0.0
C316 C 0.22822 0.15756 0.3561 0.0
N317 N 0.21685 0.1383 0.36497 0.0
C318 C 0.23974 0.15824 0.33167 0.0
C319 C 0.22791 0.11919 0.326 0.0
C320 C 0.21688 0.11921 0.35059 0.0
C321 C 0.23962 0.13887 0.31622 0.0
H322 H 0.22809 0.17249 0.36795 0.0
H323 H 0.20828 0.10395 0.35803 0.0
O324 O 0.17201 0.14372 0.45764 0.0
O325 O 0.18214 0.16803 0.40659 0.0
O326 O 0.22586 0.13708 0.42809 0.0
O327 O 0.17314 0.11638 0.40722 0.0
H328 H 0.1242 0.1266 0.46645 0.0
H329 H 0.20341 0.13296 0.49669 0.0
H330 H 0.11205 0.10365 0.5044 0.0
H331 H 0.18979 0.11016 0.53429 0.0
H332 H 0.14386 0.18432 0.32967 0.0
H333 H 0.16279 0.20819 0.41845 0.0
H334 H 0.1696 0.15906 0.35818 0.0
H335 H 0.13751 0.23279 0.3887 0.0
H336 H 0.24454 0.19734 0.51435 0.0
H337 H 0.22675 0.24124 0.45038 0.0
H338 H 0.06775 0.11254 0.41253 0.0
H339 H 0.07059 0.18491 0.42049 0.0
H340 H 0.22321 0.09758 0.40466 0.0
H341 H 0.27611 0.14606 0.43836 0.0
H342 H 0.26208 0.07353 0.39431 0.0
H343 H 0.31416 0.12111 0.42755 0.0
H344 H 0.18359 0.073 0.40126 0.0
H345 H 0.14147 0.12962 0.36934 0.0
H346 H 0.16692 0.04947 0.36549 0.0
H347 H 0.12585 0.10518 0.33397 0.0
H348 H 0.16201 0.04648 0.47013 0.0
H349 H 0.24132 0.06405 0.49485 0.0
H350 H 0.24867 0.17375 0.32496 0.0
H351 H 0.22681 0.104 0.31462 0.0
Li352 Li 0.69321 0.90074 0.93897 0.0
Li353 Li 0.69838 0.85953 0.94043 0.0
Li354 Li 0.69846 0.88023 0.89793 0.0
Li355 Li 0.65715 0.87467 0.92271 0.0
C356 C 0.74713 0.89425 0.93018 0.0
N357 N 0.79348 0.91854 0.93641 0.0
C358 C 0.76537 0.88813 0.94918 0.0
C359 C 0.75265 0.91252 0.91412 0.0
C360 C 0.78865 0.90068 0.95209 0.0
C361 C 0.77613 0.92464 0.91763 0.0
C362 C 0.66959 0.87032 0.98251 0.0
C363 C 0.65308 0.84301 0.01286 0.0
N364 N 0.66676 0.85349 0.0319 0.0
C365 C 0.68326 0.88097 1.00242 0.0
C366 C 0.65416 0.85133 0.98779 0.0
C367 C 0.68166 0.87215 0.02724 0.0
C368 C 0.67911 0.94442 0.953 0.0
N369 N 0.69853 0.92875 0.95631 0.0
C370 C 0.722 0.95336 0.98469 0.0
C371 C 0.71964 0.93274 0.97197 0.0
C372 C 0.7024 0.96996 0.98129 0.0
C373 C 0.68066 0.96521 0.96532 0.0
H374 H 0.6622 0.94064 0.94097 0.0
H375 H 0.73442 0.91983 0.97499 0.0
C376 C 0.71177 0.81385 0.94954 0.0
N377 N 0.71363 0.835 0.95931 0.0
C378 C 0.72252 0.79554 0.96284 0.0
C379 C 0.73722 0.82108 0.99592 0.0
C380 C 0.72621 0.8389 0.98196 0.0
C381 C 0.73555 0.79906 0.98631 0.0
H382 H 0.70212 0.81117 0.9313 0.0
H383 H 0.72777 0.85587 0.9892 0.0
C384 C 0.6673 0.91858 0.88863 0.0
N385 N 0.65946 0.95042 0.85065 0.0
C386 C 0.64567 0.91677 0.87194 0.0
C387 C 0.68465 0.93683 0.8863 0.0
C388 C 0.64214 0.93296 0.85277 0.0
C389 C 0.68043 0.95269 0.8669 0.0
C390 C 0.66439 0.83517 0.89767 0.0
C391 C 0.66228 0.83221 0.87115 0.0
C392 C 0.64955 0.82154 0.9142 0.0
C393 C 0.64499 0.81585 0.86159 0.0
C394 C 0.63248 0.80539 0.9039 0.0
N395 N 0.63055 0.80292 0.87803 0.0
C396 C 0.73989 0.87891 0.86086 0.0
C397 C 0.69682 0.88425 0.84352 0.0
C398 C 0.75113 0.87973 0.83634 0.0
N399 N 0.71321 0.88145 0.86403 0.0
C400 C 0.7072 0.88514 0.81866 0.0
C401 C 0.73472 0.88304 0.81485 0.0
H402 H 0.75245 0.87605 0.87736 0.0
H403 H 0.67562 0.88547 0.8464 0.0
C404 C 0.60498 0.87702 0.94164 0.0
N405 N 0.61942 0.87146 0.92052 0.0
C406 C 0.57724 0.87624 0.94101 0.0
C407 C 0.57966 0.86365 0.89702 0.0
C408 C 0.60735 0.86495 0.8984 0.0
C409 C 0.56419 0.86968 0.91841 0.0
H410 H 0.61502 0.88248 0.95887 0.0
H411 H 0.61916 0.86107 0.88167 0.0
O412 O 0.72415 0.88224 0.92717 0.0
O413 O 0.67111 0.8786 0.95805 0.0
O414 O 0.67104 0.90288 0.90753 0.0
O415 O 0.68105 0.85123 0.90738 0.0
H416 H 0.76157 0.87391 0.96161 0.0
H417 H 0.73906 0.91715 0.89896 0.0
H418 H 0.80287 0.89621 0.96681 0.0
H419 H 0.78061 0.93885 0.90537 0.0
H420 H 0.64132 0.82825 0.01719 0.0
H421 H 0.69518 0.89575 0.9987 0.0
H422 H 0.64308 0.84313 0.97271 0.0
H423 H 0.6923 0.88012 0.0428 0.0
H424 H 0.73895 0.9563 0.99703 0.0
H425 H 0.66471 0.97727 0.96277 0.0
H426 H 0.721 0.77884 0.95468 0.0
H427 H 0.74674 0.82449 0.01414 0.0
H428 H 0.6319 0.90289 0.87362 0.0
H429 H 0.70104 0.93888 0.89947 0.0
H430 H 0.62561 0.93165 0.83959 0.0
H431 H 0.69376 0.96685 0.86483 0.0
H432 H 0.67381 0.84243 0.85808 0.0
H433 H 0.65119 0.82344 0.93475 0.0
H434 H 0.64307 0.81344 0.84111 0.0
H435 H 0.62077 0.79481 0.91648 0.0
H436 H 0.77237 0.87741 0.83417 0.0
H437 H 0.69384 0.88753 0.80259 0.0
H438 H 0.56611 0.8812 0.95788 0.0
H439 H 0.5705 0.85803 0.87937 0.0
Li440 Li 0.81522 0.16042 0.43748 0.0
Li441 Li 0.82001 0.11934 0.43734 0.0
Li442 Li 0.85625 0.14485 0.42073 0.0
Li443 Li 0.815 0.13918 0.39542 0.0
C444 C 0.84285 0.15108 0.47988 0.0
N445 N 0.84369 0.17057 0.52795 0.0
C446 C 0.83023 0.1405 0.50052 0.0
C447 C 0.85617 0.17142 0.48373 0.0
C448 C 0.83083 0.15066 0.52468 0.0
C449 C 0.85628 0.18106 0.50816 0.0
C450 C 0.76567 0.12642 0.42557 0.0
C451 C 0.73518 0.09923 0.40797 0.0
N452 N 0.71769 0.10387 0.42717 0.0
C453 C 0.74724 0.13115 0.44491 0.0
C454 C 0.75948 0.11054 0.40677 0.0
C455 C 0.72315 0.11947 0.44548 0.0
C456 C 0.80307 0.20638 0.44576 0.0
N457 N 0.80011 0.18534 0.45564 0.0
C458 C 0.7769 0.20009 0.49202 0.0
C459 C 0.78697 0.18187 0.47812 0.0
C460 C 0.78013 0.22208 0.48256 0.0
C461 C 0.79309 0.22506 0.45889 0.0
H462 H 0.81313 0.20869 0.42763 0.0
H463 H 0.78454 0.16496 0.48541 0.0
C464 C 0.83412 0.07614 0.45382 0.0
N465 N 0.81437 0.09172 0.45556 0.0
C466 C 0.83209 0.05565 0.46679 0.0
C467 C 0.78983 0.06777 0.48397 0.0
C468 C 0.79259 0.08803 0.47048 0.0
C469 C 0.80967 0.05121 0.482 0.0
H470 H 0.85163 0.07974 0.44251 0.0
H471 H 0.77757 0.10091 0.47231 0.0
C472 C 0.85023 0.18217 0.3922 0.0
N473 N 0.88573 0.21027 0.36749 0.0
C474 C 0.85259 0.18156 0.36548 0.0
C475 C 0.86571 0.19723 0.40633 0.0
C476 C 0.8707 0.19588 0.35335 0.0
C477 C 0.88362 0.21124 0.39349 0.0
C478 C 0.84602 0.09789 0.39122 0.0
C479 C 0.86974 0.0951 0.3776 0.0
C480 C 0.82645 0.08125 0.39004 0.0
C481 C 0.87333 0.07579 0.36273 0.0
C482 C 0.83081 0.06217 0.37498 0.0
N483 N 0.85395 0.05987 0.36172 0.0
C484 C 0.90846 0.14611 0.44022 0.0
C485 C 0.90593 0.15079 0.39514 0.0
C486 C 0.93618 0.1471 0.43934 0.0
N487 N 0.89396 0.14791 0.41831 0.0
C488 C 0.93359 0.15219 0.3934 0.0
C489 C 0.94914 0.14998 0.41567 0.0
H490 H 0.89851 0.14345 0.45837 0.0
H491 H 0.89404 0.15172 0.37792 0.0
C492 C 0.77835 0.15065 0.35653 0.0
N493 N 0.80043 0.13814 0.36144 0.0
C494 C 0.76755 0.15134 0.3318 0.0
C495 C 0.80207 0.1259 0.31775 0.0
C496 C 0.81239 0.12595 0.34261 0.0
C497 C 0.77959 0.13901 0.31193 0.0
H498 H 0.76933 0.16033 0.3718 0.0
H499 H 0.83014 0.11644 0.34668 0.0
O500 O 0.84217 0.14155 0.45603 0.0
O501 O 0.78929 0.13777 0.42472 0.0
O502 O 0.83273 0.1682 0.40443 0.0
O503 O 0.8422 0.11675 0.40581 0.0
H504 H 0.81991 0.12471 0.49788 0.0
H505 H 0.86619 0.17972 0.46799 0.0
H506 H 0.82101 0.14273 0.54081 0.0
H507 H 0.86635 0.19687 0.51138 0.0
H508 H 0.73019 0.08683 0.39359 0.0
H509 H 0.75157 0.14359 0.45945 0.0
H510 H 0.77317 0.10709 0.39127 0.0
H511 H 0.7088 0.12283 0.46046 0.0
H512 H 0.76697 0.19702 0.51013 0.0
H513 H 0.79527 0.24163 0.45046 0.0
H514 H 0.84817 0.04357 0.46536 0.0
H515 H 0.77239 0.06506 0.49577 0.0
H516 H 0.8407 0.17008 0.35424 0.0
H517 H 0.86401 0.198 0.42699 0.0
H518 H 0.87284 0.19552 0.3327 0.0
H519 H 0.89584 0.22288 0.40419 0.0
H520 H 0.88516 0.10774 0.37841 0.0
H521 H 0.80824 0.08288 0.40086 0.0
H522 H 0.89154 0.07346 0.35199 0.0
H523 H 0.81583 0.04916 0.37389 0.0
H524 H 0.94739 0.14513 0.45695 0.0
H525 H 0.94268 0.1549 0.37481 0.0
H526 H 0.75024 0.16172 0.32818 0.0
H527 H 0.81162 0.11565 0.30327 0.0
Li528 Li 0.65466 0.14398 0.0996 0.0
Li529 Li 0.69814 0.14111 0.12566 0.0
Li530 Li 0.69592 0.16125 0.08442 0.0
Li531 Li 0.69222 0.1215 0.08514 0.0
C532 C 0.67388 0.191 0.11435 0.0
N533 N 0.67137 0.23708 0.10754 0.0
C534 C 0.69377 0.20481 0.1244 0.0
C535 C 0.65266 0.20062 0.10092 0.0
C536 C 0.69217 0.22807 0.12072 0.0
C537 C 0.65175 0.22395 0.09769 0.0
C538 C 0.6674 0.09481 0.11693 0.0
C539 C 0.68319 0.05713 0.12507 0.0
N540 N 0.6609 0.04872 0.11389 0.0
C541 C 0.64455 0.08581 0.10569 0.0
C542 C 0.68682 0.08039 0.12685 0.0
C543 C 0.64166 0.06246 0.10429 0.0
C544 C 0.60286 0.13766 0.08125 0.0
N545 N 0.61709 0.14608 0.1012 0.0
C546 C 0.57723 0.15687 0.12294 0.0
C547 C 0.60496 0.15559 0.12182 0.0
C548 C 0.56199 0.14823 0.10263 0.0
C549 C 0.57513 0.13849 0.08162 0.0
H550 H 0.6131 0.13011 0.06516 0.0
H551 H 0.61685 0.16208 0.13744 0.0
C552 C 0.73191 0.15617 0.1653 0.0
N553 N 0.71268 0.14099 0.15944 0.0
C554 C 0.74313 0.15652 0.18982 0.0
C555 C 0.71491 0.1253 0.20169 0.0
C556 C 0.70395 0.12578 0.17704 0.0
C557 C 0.73491 0.14074 0.20834 0.0
H558 H 0.73857 0.168 0.15088 0.0
H559 H 0.68857 0.11392 0.17188 0.0
C560 C 0.67541 0.14394 0.03938 0.0
N561 N 0.68627 0.14652 0.98749 0.0
C562 C 0.70097 0.13933 0.03029 0.0
C563 C 0.65535 0.14985 0.0221 0.0
C564 C 0.70607 0.14071 1.00399 0.0
C565 C 0.66124 0.15108 0.99592 0.0
C566 C 0.74708 0.12922 0.09601 0.0
C567 C 0.76452 0.13278 0.0755 0.0
C568 C 0.75476 0.11522 0.11629 0.0
C569 C 0.78912 0.12184 0.07534 0.0
C570 C 0.77955 0.10462 0.11544 0.0
N571 N 0.79605 0.10809 0.09514 0.0
C572 C 0.73508 0.19339 0.07101 0.0
C573 C 0.69408 0.19777 0.04914 0.0
C574 C 0.7458 0.2118 0.05787 0.0
N575 N 0.7097 0.18671 0.06632 0.0
C576 C 0.70405 0.21614 0.03545 0.0
C577 C 0.7303 0.22324 0.03963 0.0
H578 H 0.74697 0.18438 0.08494 0.0
H579 H 0.67381 0.19238 0.04611 0.0
C580 C 0.67826 0.08807 0.05015 0.0
N581 N 0.6983 0.09389 0.06635 0.0
C582 C 0.6798 0.06838 0.03568 0.0
C583 C 0.72232 0.06046 0.0552 0.0
C584 C 0.72002 0.08043 0.06923 0.0
C585 C 0.70213 0.05438 0.03798 0.0
H586 H 0.6608 0.09861 0.0487 0.0
H587 H 0.73544 0.08489 0.08259 0.0
O588 O 0.67553 0.16814 0.11697 0.0
O589 O 0.67098 0.11762 0.11768 0.0
O590 O 0.66999 0.14293 0.0651 0.0
O591 O 0.72311 0.14013 0.09666 0.0
H592 H 0.71041 0.19763 0.13468 0.0
H593 H 0.63726 0.19015 0.09274 0.0
H594 H 0.7075 0.23895 0.12826 0.0
H595 H 0.63553 0.23162 0.08722 0.0
H596 H 0.69815 0.04577 0.13249 0.0
H597 H 0.62937 0.09673 0.09786 0.0
H598 H 0.70462 0.08706 0.13558 0.0
H599 H 0.62417 0.05526 0.09547 0.0
H600 H 0.5678 0.16415 0.13967 0.0
H601 H 0.56406 0.13167 0.0656 0.0
H602 H 0.75792 0.16916 0.19425 0.0
H603 H 0.70802 0.11281 0.2153 0.0
H604 H 0.71663 0.13465 0.0434 0.0
H605 H 0.63548 0.15358 0.02885 0.0
H606 H 0.72577 0.13716 0.9967 0.0
H607 H 0.64593 0.15568 0.98232 0.0
H608 H 0.75922 0.14399 0.05993 0.0
H609 H 0.7417 0.11236 0.13241 0.0
H610 H 0.80275 0.12437 0.05954 0.0
H611 H 0.78565 0.09361 0.13092 0.0
H612 H 0.76612 0.21683 0.06163 0.0
H613 H 0.69133 0.22483 0.0219 0.0
H614 H 0.66346 0.06397 0.02315 0.0
H615 H 0.73974 0.04995 0.05766 0.0
Li616 Li 0.81382 0.88046 0.62771 0.0
Li617 Li 0.85555 0.87508 0.60352 0.0
Li618 Li 0.81883 0.90065 0.58723 0.0
Li619 Li 0.81388 0.85961 0.58539 0.0
C620 C 0.84566 0.91529 0.64059 0.0
N621 N 0.85433 0.93888 0.68548 0.0
C622 C 0.86727 0.9099 0.6563 0.0
C623 C 0.82874 0.93295 0.6475 0.0
C624 C 0.87124 0.92195 0.67897 0.0
C625 C 0.83337 0.94459 0.67032 0.0
C626 C 0.84604 0.83315 0.62605 0.0
C627 C 0.87439 0.80158 0.61603 0.0
N628 N 0.87542 0.79616 0.64138 0.0
C629 C 0.84718 0.82713 0.65197 0.0
C630 C 0.85958 0.82017 0.60791 0.0
C631 C 0.86221 0.80842 0.65935 0.0
C632 C 0.77269 0.88437 0.66508 0.0
N633 N 0.7993 0.88155 0.66171 0.0
C634 C 0.806 0.88001 0.70713 0.0
C635 C 0.81592 0.8792 0.68211 0.0
C636 C 0.77867 0.88321 0.71122 0.0
C637 C 0.7619 0.88525 0.68979 0.0
H638 H 0.75979 0.8858 0.6486 0.0
H639 H 0.8369 0.87647 0.67897 0.0
C640 C 0.90795 0.88215 0.58711 0.0
N641 N 0.89336 0.87182 0.60567 0.0
C642 C 0.93569 0.88118 0.58765 0.0
C643 C 0.933 0.85891 0.62639 0.0
C644 C 0.90531 0.86045 0.62521 0.0
C645 C 0.94858 0.86957 0.60759 0.0
H646 H 0.89798 0.89134 0.57198 0.0
H647 H 0.89345 0.85285 0.64014 0.0
C648 C 0.76622 0.89498 0.59235 0.0
N649 N 0.72309 0.92132 0.57887 0.0
C650 C 0.74886 0.88792 0.57304 0.0
C651 C 0.76137 0.91526 0.60507 0.0
C652 C 0.72723 0.90152 0.56644 0.0
C653 C 0.73955 0.92839 0.59791 0.0
C654 C 0.84707 0.8698 0.54463 0.0
C655 C 0.83371 0.8774 0.52276 0.0
C656 C 0.86689 0.85343 0.54219 0.0
C657 C 0.83985 0.86804 0.49891 0.0
C658 C 0.87249 0.8445 0.518 0.0
N659 N 0.85893 0.85189 0.49704 0.0
C660 C 0.82674 0.94669 0.5765 0.0
C661 C 0.79589 0.92908 0.5487 0.0
C662 C 0.82452 0.96687 0.56288 0.0
N663 N 0.81266 0.92827 0.56916 0.0
C664 C 0.79311 0.94891 0.53448 0.0
C665 C 0.80787 0.96804 0.54131 0.0
H666 H 0.84022 0.94555 0.5926 0.0
H667 H 0.78502 0.91421 0.5431 0.0
C668 C 0.79968 0.81392 0.57587 0.0
N669 N 0.79899 0.83515 0.5661 0.0
C670 C 0.78972 0.79585 0.56173 0.0
C671 C 0.77699 0.8219 0.52832 0.0
C672 C 0.78763 0.83942 0.54292 0.0
C673 C 0.77836 0.79966 0.53747 0.0
H674 H 0.80791 0.81093 0.59468 0.0
H675 H 0.78654 0.8565 0.53585 0.0
O676 O 0.84128 0.90348 0.61846 0.0
O677 O 0.83171 0.85163 0.61853 0.0
O678 O 0.78773 0.88205 0.59885 0.0
O679 O 0.84122 0.87873 0.56818 0.0
H680 H 0.88064 0.89639 0.65124 0.0
H681 H 0.81228 0.9377 0.63534 0.0
H682 H 0.88775 0.91782 0.69142 0.0
H683 H 0.82033 0.95821 0.67596 0.0
H684 H 0.885 0.79143 0.60218 0.0
H685 H 0.83656 0.83676 0.66626 0.0
H686 H 0.85844 0.82427 0.58776 0.0
H687 H 0.86335 0.80364 0.67936 0.0
H688 H 0.81953 0.87777 0.7231 0.0
H689 H 0.74069 0.88765 0.69214 0.0
H690 H 0.94695 0.88977 0.57288 0.0
H691 H 0.94208 0.84946 0.64187 0.0
H692 H 0.752 0.87212 0.56328 0.0
H693 H 0.77434 0.92079 0.62029 0.0
H694 H 0.71372 0.89631 0.55144 0.0
H695 H 0.73568 0.94419 0.6075 0.0
H696 H 0.81855 0.89023 0.52419 0.0
H697 H 0.87804 0.84782 0.55871 0.0
H698 H 0.82946 0.87362 0.48188 0.0
H699 H 0.88771 0.83175 0.51588 0.0
H700 H 0.83635 0.98122 0.56865 0.0
H701 H 0.77976 0.94923 0.51819 0.0
H702 H 0.79106 0.77903 0.56967 0.0
H703 H 0.76749 0.82583 0.51022 0.0
Li704 Li 0.81592 0.65945 0.08382 0.0
Li705 Li 0.85655 0.6438 0.10107 0.0
Li706 Li 0.82175 0.61918 0.0854 0.0
Li707 Li 0.81546 0.63982 0.12466 0.0
C708 C 0.83742 0.63905 0.04 0.0
N709 N 0.82605 0.6344 0.98842 0.0
C710 C 0.85802 0.63696 0.02217 0.0
C711 C 0.81103 0.63877 0.03162 0.0
C712 C 0.85186 0.63463 0.99617 0.0
C713 C 0.80569 0.63641 1.00546 0.0
C714 C 0.84569 0.68891 0.11295 0.0
C715 C 0.85279 0.72697 0.12738 0.0
N716 N 0.86822 0.73092 0.10641 0.0
C717 C 0.86164 0.69334 0.09155 0.0
C718 C 0.84121 0.70584 0.13102 0.0
C719 C 0.87284 0.71468 0.08859 0.0
C720 C 0.7772 0.69256 0.07275 0.0
N721 N 0.80129 0.68442 0.06537 0.0
C722 C 0.80494 0.71279 0.03297 0.0
C723 C 0.81516 0.69406 0.04583 0.0
C724 C 0.78027 0.72177 0.04037 0.0
C725 C 0.76621 0.71128 0.06038 0.0
H726 H 0.76666 0.6846 0.08843 0.0
H727 H 0.83427 0.6873 0.04029 0.0
C728 C 0.90844 0.63238 0.08789 0.0
N729 N 0.89427 0.64632 0.10338 0.0
C730 C 0.93618 0.63266 0.0884 0.0
C731 C 0.93427 0.66173 0.12077 0.0
C732 C 0.90653 0.66071 0.11984 0.0
C733 C 0.94939 0.64758 0.10487 0.0
H734 H 0.89812 0.62096 0.07519 0.0
H735 H 0.89482 0.67132 0.13233 0.0
C736 C 0.76964 0.62255 0.10311 0.0
N737 N 0.72903 0.59409 0.11799 0.0
C738 C 0.77547 0.60193 0.1148 0.0
C739 C 0.74317 0.62868 0.09896 0.0
C740 C 0.75466 0.58778 0.12219 0.0
C741 C 0.72291 0.61406 0.10662 0.0
C742 C 0.8571 0.61149 0.13903 0.0
C743 C 0.86552 0.58948 0.14391 0.0
C744 C 0.86374 0.62866 0.15618 0.0
C745 C 0.88049 0.58499 0.16591 0.0
C746 C 0.87874 0.62349 0.17796 0.0
N747 N 0.88674 0.60195 0.18234 0.0
C748 C 0.83645 0.57611 0.06955 0.0
C749 C 0.79417 0.58719 0.05385 0.0
C750 C 0.83459 0.55554 0.0568 0.0
N751 N 0.81641 0.59139 0.06789 0.0
C752 C 0.79155 0.56684 0.04065 0.0
C753 C 0.81191 0.55069 0.04215 0.0
H754 H 0.85403 0.58006 0.0806 0.0
H755 H 0.77855 0.59968 0.05276 0.0
C756 C 0.78924 0.65883 0.16721 0.0
N757 N 0.79978 0.63935 0.15808 0.0
C758 C 0.77826 0.65962 0.19184 0.0
C759 C 0.78892 0.62021 0.19712 0.0
C760 C 0.79955 0.62015 0.17235 0.0
C761 C 0.77834 0.64019 0.20728 0.0
H762 H 0.78944 0.67378 0.15533 0.0
H763 H 0.80785 0.6048 0.16463 0.0
O764 O 0.84325 0.64121 0.06551 0.0
O765 O 0.83422 0.66823 0.11622 0.0
O766 O 0.78959 0.63679 0.09569 0.0
O767 O 0.84247 0.61604 0.1175 0.0
H768 H 0.87855 0.63712 0.02838 0.0
H769 H 0.79481 0.64036 0.04512 0.0
H770 H 0.86761 0.63299 0.98215 0.0
H771 H 0.78536 0.63616 0.99871 0.0
H772 H 0.84948 0.74024 0.14121 0.0
H773 H 0.86539 0.68045 0.07738 0.0
H774 H 0.8289 0.70268 0.14768 0.0
H775 H 0.88522 0.71834 0.07212 0.0
H776 H 0.81615 0.72009 0.01728 0.0
H777 H 0.74713 0.71772 0.06664 0.0
H778 H 0.94722 0.62149 0.0759 0.0
H779 H 0.94382 0.67319 0.13401 0.0
H780 H 0.7958 0.59682 0.11811 0.0
H781 H 0.73834 0.64458 0.08991 0.0
H782 H 0.75889 0.57179 0.13126 0.0
H783 H 0.70233 0.6186 0.10353 0.0
H784 H 0.86051 0.576 0.13084 0.0
H785 H 0.85735 0.64578 0.15282 0.0
H786 H 0.88713 0.56803 0.16994 0.0
H787 H 0.88401 0.63661 0.19139 0.0
H788 H 0.85097 0.54372 0.05797 0.0
H789 H 0.77379 0.56371 0.02947 0.0
H790 H 0.76969 0.67523 0.19867 0.0
H791 H 0.78938 0.60487 0.20836 0.0
Li792 Li 0.69386 0.40063 0.58587 0.0
Li793 Li 0.69901 0.37999 0.62656 0.0
Li794 Li 0.69878 0.35902 0.58431 0.0
Li795 Li 0.65793 0.37527 0.60301 0.0
C796 C 0.74824 0.38955 0.58785 0.0
N797 N 0.79617 0.40494 0.56874 0.0
C798 C 0.76515 0.4023 0.60334 0.0
C799 C 0.75594 0.38428 0.5628 0.0
C800 C 0.78923 0.41003 0.59328 0.0
C801 C 0.78018 0.3923 0.55345 0.0
C802 C 0.672 0.41732 0.63861 0.0
C803 C 0.65958 0.42461 0.68253 0.0
N804 N 0.67209 0.44486 0.68127 0.0
C805 C 0.68456 0.43828 0.63768 0.0
C806 C 0.65922 0.41048 0.66113 0.0
C807 C 0.68444 0.45194 0.65948 0.0
C808 C 0.67933 0.43371 0.55064 0.0
N809 N 0.69908 0.42815 0.56731 0.0
C810 C 0.7226 0.46197 0.55688 0.0
C811 C 0.72036 0.44191 0.57086 0.0
C812 C 0.70281 0.46775 0.53905 0.0
C813 C 0.68089 0.45341 0.53613 0.0
H814 H 0.66223 0.42286 0.54871 0.0
H815 H 0.7354 0.43758 0.58477 0.0
C816 C 0.71249 0.36161 0.67481 0.0
N817 N 0.71439 0.38055 0.66021 0.0
C818 C 0.72298 0.36113 0.69961 0.0
C819 C 0.73731 0.39962 0.69401 0.0
C820 C 0.72671 0.39931 0.66922 0.0
C821 C 0.7356 0.38031 0.70948 0.0
H822 H 0.70279 0.34685 0.66719 0.0
H823 H 0.72825 0.41409 0.65721 0.0
C824 C 0.66904 0.37504 0.54165 0.0
N825 N 0.66394 0.36881 0.48935 0.0
C826 C 0.64618 0.365 0.53165 0.0
C827 C 0.68914 0.38219 0.52501 0.0
C828 C 0.64403 0.3619 0.50516 0.0
C829 C 0.68623 0.37883 0.49864 0.0
C830 C 0.66327 0.3354 0.6256 0.0
C831 C 0.65976 0.3155 0.61176 0.0
C832 C 0.64825 0.33919 0.64775 0.0
C833 C 0.64094 0.29984 0.62012 0.0
C834 C 0.62959 0.32315 0.65546 0.0
N835 N 0.62634 0.30397 0.64159 0.0
C836 C 0.73869 0.32752 0.57147 0.0
C837 C 0.69905 0.32345 0.54743 0.0
C838 C 0.75037 0.30951 0.55842 0.0
N839 N 0.71357 0.33426 0.56563 0.0
C840 C 0.71001 0.30548 0.53377 0.0
C841 C 0.73608 0.29837 0.53906 0.0
H842 H 0.74963 0.33612 0.58639 0.0
H843 H 0.67885 0.32858 0.54365 0.0
C844 C 0.60624 0.38957 0.61561 0.0
N845 N 0.62022 0.37219 0.6053 0.0
C846 C 0.57853 0.38878 0.61662 0.0
C847 C 0.58002 0.35213 0.59661 0.0
C848 C 0.60773 0.35372 0.59574 0.0
C849 C 0.56513 0.36989 0.60705 0.0
H850 H 0.61658 0.40424 0.62264 0.0
H851 H 0.61922 0.3404 0.58702 0.0
O852 O 0.72463 0.38179 0.59745 0.0
O853 O 0.67213 0.40363 0.61754 0.0
O854 O 0.67146 0.37816 0.56756 0.0
O855 O 0.68139 0.35104 0.61755 0.0
H856 H 0.75967 0.40634 0.62285 0.0
H857 H 0.7435 0.37392 0.55076 0.0
H858 H 0.8024 0.42007 0.605 0.0
H859 H 0.78633 0.3884 0.53406 0.0
H860 H 0.64992 0.41946 0.70013 0.0
H861 H 0.69444 0.44388 0.62038 0.0
H862 H 0.64923 0.3944 0.6621 0.0
H863 H 0.6942 0.46815 0.65908 0.0
H864 H 0.73966 0.47276 0.55982 0.0
H865 H 0.6649 0.45758 0.52303 0.0
H866 H 0.72097 0.346 0.71108 0.0
H867 H 0.74701 0.41471 0.70092 0.0
H868 H 0.63032 0.35954 0.54422 0.0
H869 H 0.70662 0.39052 0.53232 0.0
H870 H 0.62651 0.35403 0.49718 0.0
H871 H 0.70165 0.38427 0.48556 0.0
H872 H 0.67132 0.31223 0.59467 0.0
H873 H 0.65086 0.35442 0.65877 0.0
H874 H 0.6379 0.28442 0.60952 0.0
H875 H 0.61769 0.32594 0.67246 0.0
H876 H 0.77021 0.30417 0.56369 0.0
H877 H 0.69823 0.29729 0.51912 0.0
H878 H 0.56765 0.40284 0.6247 0.0
H879 H 0.57032 0.33749 0.58857 0.0
Li880 Li 0.81341 0.38181 0.89685 0.0
Li881 Li 0.81989 0.40036 0.93699 0.0
Li882 Li 0.85503 0.37755 0.92181 0.0
Li883 Li 0.81252 0.36064 0.94001 0.0
C884 C 0.85461 0.40959 0.88308 0.0
N885 N 0.88265 0.41835 0.83851 0.0
C886 C 0.85849 0.43177 0.87488 0.0
C887 C 0.86503 0.39189 0.86856 0.0
C888 C 0.8727 0.43584 0.85231 0.0
C889 C 0.87915 0.39665 0.84612 0.0
C890 C 0.76734 0.39796 0.93045 0.0
C891 C 0.7285 0.40872 0.95461 0.0
N892 N 0.72655 0.42784 0.94033 0.0
C893 C 0.76486 0.41761 0.91586 0.0
C894 C 0.74897 0.39336 0.94987 0.0
C895 C 0.74413 0.43255 0.92122 0.0
C896 C 0.78782 0.36256 0.85407 0.0
N897 N 0.79818 0.38205 0.86331 0.0
C898 C 0.78782 0.40115 0.82411 0.0
C899 C 0.79795 0.40126 0.84907 0.0
C900 C 0.77764 0.38111 0.81378 0.0
C901 C 0.77737 0.36171 0.82925 0.0
H902 H 0.78783 0.34763 0.86598 0.0
H903 H 0.8058 0.41667 0.85701 0.0
C904 C 0.82756 0.44637 0.94758 0.0
N905 N 0.81348 0.42801 0.95518 0.0
C906 C 0.82573 0.46652 0.96122 0.0
C907 C 0.79471 0.44864 0.99019 0.0
C908 C 0.79703 0.42886 0.9759 0.0
C909 C 0.80948 0.46768 0.98306 0.0
H910 H 0.84084 0.44518 0.93135 0.0
H911 H 0.7863 0.414 0.98183 0.0
C912 C 0.84176 0.33329 0.8992 0.0
N913 N 0.8615 0.29214 0.88336 0.0
C914 C 0.84834 0.31678 0.91725 0.0
C915 C 0.84506 0.3288 0.87305 0.0
C916 C 0.85834 0.29611 0.90888 0.0
C917 C 0.85512 0.30792 0.86544 0.0
C918 C 0.84383 0.38881 0.97999 0.0
C919 C 0.86354 0.40519 0.98269 0.0
C920 C 0.82688 0.38407 1.00057 0.0
C921 C 0.86573 0.41682 1.00587 0.0
C922 C 0.82977 0.39602 0.02347 0.0
N923 N 0.84893 0.41204 0.0256 0.0
C924 C 0.90674 0.39441 0.92152 0.0
C925 C 0.90583 0.35469 0.91779 0.0
C926 C 0.93447 0.39437 0.92124 0.0
N927 N 0.89299 0.37477 0.91995 0.0
C928 C 0.93361 0.35387 0.91734 0.0
C929 C 0.94824 0.37389 0.9194 0.0
H930 H 0.8961 0.41017 0.92313 0.0
H931 H 0.89468 0.33927 0.91669 0.0
C932 C 0.77261 0.32868 0.95129 0.0
N933 N 0.79717 0.33602 0.95814 0.0
C934 C 0.76099 0.31049 0.96411 0.0
C935 C 0.80014 0.30781 0.9908 0.0
C936 C 0.81092 0.32614 0.9776 0.0
C937 C 0.77492 0.29963 0.98398 0.0
H938 H 0.76205 0.33701 0.93588 0.0
H939 H 0.83042 0.33237 0.98267 0.0
O940 O 0.84048 0.40541 0.90507 0.0
O941 O 0.78764 0.38327 0.92568 0.0
O942 O 0.83147 0.35349 0.90702 0.0
O943 O 0.84095 0.37762 0.95724 0.0
H944 H 0.85043 0.4457 0.88574 0.0
H945 H 0.86242 0.37468 0.8746 0.0
H946 H 0.87578 0.45292 0.84574 0.0
H947 H 0.88733 0.38308 0.83476 0.0
H948 H 0.71421 0.40547 0.96968 0.0
H949 H 0.77898 0.42138 0.90078 0.0
H950 H 0.75066 0.37819 0.9613 0.0
H951 H 0.74206 0.44791 0.91021 0.0
H952 H 0.7883 0.41649 0.81288 0.0
H953 H 0.76903 0.34607 0.82231 0.0
H954 H 0.83756 0.48083 0.95525 0.0
H955 H 0.78176 0.44896 1.0068 0.0
H956 H 0.84624 0.32002 0.93753 0.0
H957 H 0.83992 0.34127 0.85875 0.0
H958 H 0.86366 0.28324 0.92267 0.0
H959 H 0.85782 0.30425 0.84528 0.0
H960 H 0.87675 0.40912 0.96694 0.0
H961 H 0.81137 0.37159 0.99874 0.0
H962 H 0.88072 0.4297 1.00815 0.0
H963 H 0.81667 0.39266 0.03948 0.0
H964 H 0.94505 0.41021 0.92238 0.0
H965 H 0.94355 0.33774 0.91592 0.0
H966 H 0.74122 0.30511 0.95866 0.0
H967 H 0.81158 0.29991 1.00595 0.0
Li968 Li 0.7009 0.66076 0.43697 0.0
Li969 Li 0.65916 0.64311 0.41899 0.0
Li970 Li 0.69477 0.61992 0.43545 0.0
Li971 Li 0.70004 0.6387 0.39489 0.0
C972 C 0.67176 0.63345 0.47813 0.0
N973 N 0.66955 0.61247 0.52539 0.0
C974 C 0.65069 0.61902 0.48398 0.0
C975 C 0.69161 0.63736 0.49632 0.0
C976 C 0.64997 0.60852 0.50798 0.0
C977 C 0.69015 0.62656 0.52012 0.0
C978 C 0.66335 0.68278 0.39576 0.0
C979 C 0.62886 0.69403 0.36626 0.0
N980 N 0.6251 0.71321 0.37999 0.0
C981 C 0.6593 0.70269 0.40947 0.0
C982 C 0.64818 0.67848 0.37386 0.0
C983 C 0.63981 0.71784 0.40123 0.0
C984 C 0.7402 0.69308 0.44917 0.0
N985 N 0.71513 0.68604 0.45459 0.0
C986 C 0.70964 0.71565 0.48515 0.0
C987 C 0.69983 0.69683 0.47222 0.0
C988 C 0.73557 0.72332 0.48009 0.0
C989 C 0.751 0.71156 0.46201 0.0
H990 H 0.7519 0.68421 0.43499 0.0
H991 H 0.67989 0.6909 0.47605 0.0
C992 C 0.60732 0.62895 0.40669 0.0
N993 N 0.62138 0.64599 0.41751 0.0
C994 C 0.57959 0.62956 0.40645 0.0
C995 C 0.58119 0.66534 0.42839 0.0
C996 C 0.60894 0.66395 0.42839 0.0
C997 C 0.56621 0.64782 0.41762 0.0
H998 H 0.61761 0.61462 0.3987 0.0
H999 H 0.62056 0.677 0.43746 0.0
C1000 C 0.74784 0.62553 0.43171 0.0
N1001 N 0.79138 0.60089 0.44784 0.0
C1002 C 0.75389 0.60496 0.42012 0.0
C1003 C 0.76395 0.63358 0.45152 0.0
C1004 C 0.77596 0.59274 0.42856 0.0
C1005 C 0.7859 0.62088 0.45938 0.0
C1006 C 0.67344 0.60183 0.38289 0.0
C1007 C 0.68765 0.58158 0.38274 0.0
C1008 C 0.65918 0.60831 0.36108 0.0
C1009 C 0.68749 0.56825 0.36068 0.0
C1010 C 0.65958 0.59455 0.33938 0.0
N1011 N 0.67361 0.57497 0.33963 0.0
C1012 C 0.68136 0.57617 0.45038 0.0
C1013 C 0.71908 0.58953 0.47277 0.0
C1014 C 0.68248 0.55573 0.46356 0.0
N1015 N 0.6998 0.59243 0.45473 0.0
C1016 C 0.72107 0.56925 0.4863 0.0
C1017 C 0.70279 0.55191 0.48151 0.0
H1018 H 0.6655 0.57919 0.43681 0.0
H1019 H 0.73271 0.60301 0.47702 0.0
C1020 C 0.7123 0.65759 0.34656 0.0
N1021 N 0.71494 0.63853 0.36085 0.0
C1022 C 0.72248 0.65859 0.32163 0.0
C1023 C 0.73806 0.62036 0.32646 0.0
C1024 C 0.72779 0.62016 0.35137 0.0
C1025 C 0.73556 0.63979 0.31132 0.0
H1026 H 0.70234 0.6721 0.35452 0.0
H1027 H 0.73008 0.6053 0.36304 0.0
O1028 O 0.67327 0.64332 0.45449 0.0
O1029 O 0.68207 0.66758 0.40375 0.0
O1030 O 0.72638 0.6378 0.42363 0.0
O1031 O 0.6734 0.61518 0.40429 0.0
H1032 H 0.63525 0.61579 0.47 0.0
H1033 H 0.70817 0.64834 0.49196 0.0
H1034 H 0.63389 0.59718 0.51274 0.0
H1035 H 0.70545 0.6293 0.53434 0.0
H1036 H 0.61687 0.69084 0.34943 0.0
H1037 H 0.67096 0.70636 0.42636 0.0
H1038 H 0.65122 0.66327 0.36291 0.0
H1039 H 0.63636 0.73326 0.41173 0.0
H1040 H 0.69698 0.72423 0.49882 0.0
H1041 H 0.77134 0.71636 0.45802 0.0
H1042 H 0.5687 0.61582 0.39778 0.0
H1043 H 0.57151 0.6796 0.43735 0.0
H1044 H 0.74144 0.59832 0.40507 0.0
H1045 H 0.75942 0.6493 0.46097 0.0
H1046 H 0.78076 0.57673 0.41985 0.0
H1047 H 0.79849 0.62688 0.47473 0.0
H1048 H 0.69899 0.57632 0.39931 0.0
H1049 H 0.64796 0.62383 0.36088 0.0
H1050 H 0.69852 0.55261 0.36026 0.0
H1051 H 0.64872 0.59943 0.32234 0.0
H1052 H 0.66732 0.54319 0.46001 0.0
H1053 H 0.73678 0.56713 0.5003 0.0
H1054 H 0.71993 0.67382 0.31044 0.0
H1055 H 0.74818 0.60557 0.31921 0.0
Li1056 Li 0.1913 0.39904 0.93715 0.0
Li1057 Li 0.19598 0.35731 0.93637 0.0
Li1058 Li 0.1973 0.37942 0.89651 0.0
Li1059 Li 0.15698 0.37573 0.91976 0.0
C1060 C 0.24342 0.38111 0.94262 0.0
N1061 N 0.28527 0.38156 0.97692 0.0
C1062 C 0.2386 0.37919 0.96897 0.0
C1063 C 0.2695 0.3832 0.93372 0.0
C1064 C 0.26003 0.37945 0.98599 0.0
C1065 C 0.2904 0.38343 0.95138 0.0
C1066 C 0.1477 0.37054 0.96859 0.0
C1067 C 0.1148 0.34308 0.98102 0.0
N1068 N 0.10043 0.35961 0.99259 0.0
C1069 C 0.1327 0.38721 0.98077 0.0
C1070 C 0.13875 0.34827 0.96879 0.0
C1071 C 0.10882 0.38136 0.99273 0.0
C1072 C 0.17384 0.4386 0.95909 0.0
N1073 N 0.19654 0.42656 0.95565 0.0
C1074 C 0.22153 0.45422 0.97865 0.0
C1075 C 0.2203 0.43422 0.96455 0.0
C1076 C 0.19816 0.46653 0.98335 0.0
C1077 C 0.17419 0.45871 0.97286 0.0
H1078 H 0.15539 0.43254 0.95104 0.0
H1079 H 0.23833 0.42494 0.96082 0.0
C1080 C 0.22639 0.31731 0.9414 0.0
N1081 N 0.21019 0.33185 0.95412 0.0
C1082 C 0.23716 0.29866 0.95414 0.0
C1083 C 0.21438 0.31035 0.99274 0.0
C1084 C 0.20429 0.32885 0.97937 0.0
C1085 C 0.23092 0.29492 0.98007 0.0
H1086 H 0.23093 0.32023 0.92138 0.0
H1087 H 0.19183 0.34091 0.9892 0.0
C1088 C 0.17941 0.42357 0.89418 0.0
N1089 N 0.19544 0.46388 0.87268 0.0
C1090 C 0.16066 0.43824 0.88356 0.0
C1091 C 0.20633 0.42943 0.89393 0.0
C1092 C 0.16916 0.45853 0.87276 0.0
C1093 C 0.21402 0.44988 0.88295 0.0
C1094 C 0.16592 0.34371 0.88138 0.0
C1095 C 0.15149 0.35865 0.86599 0.0
C1096 C 0.16868 0.32127 0.87385 0.0
C1097 C 0.14006 0.35086 0.84327 0.0
C1098 C 0.15694 0.31413 0.85099 0.0
N1099 N 0.14299 0.32895 0.83629 0.0
C1100 C 0.23532 0.36861 0.8583 0.0
C1101 C 0.20071 0.39263 0.84393 0.0
C1102 C 0.24679 0.36861 0.83382 0.0
N1103 N 0.21275 0.38058 0.86289 0.0
C1104 C 0.21169 0.39335 0.81933 0.0
C1105 C 0.23503 0.38128 0.81409 0.0
H1106 H 0.24431 0.35897 0.87365 0.0
H1107 H 0.18243 0.40155 0.84777 0.0
C1108 C 0.10569 0.39372 0.91966 0.0
N1109 N 0.11917 0.374 0.91731 0.0
C1110 C 0.07796 0.39387 0.91987 0.0
C1111 C 0.07844 0.35343 0.91474 0.0
C1112 C 0.10622 0.35406 0.91462 0.0
C1113 C 0.064 0.3735 0.91778 0.0
H1114 H 0.11655 0.4093 0.92183 0.0
H1115 H 0.11746 0.33859 0.91301 0.0
O1116 O 0.22288 0.38047 0.92546 0.0
O1117 O 0.17069 0.37602 0.95601 0.0
O1118 O 0.17119 0.4037 0.90488 0.0
O1119 O 0.17748 0.35088 0.90367 0.0
H1120 H 0.21855 0.3777 0.97623 0.0
H1121 H 0.27354 0.3846 0.91337 0.0
H1122 H 0.25659 0.37802 1.00643 0.0
H1123 H 0.31069 0.38505 0.94476 0.0
H1124 H 0.10754 0.32595 0.98114 0.0
H1125 H 0.13934 0.4045 0.98093 0.0
H1126 H 0.14993 0.3352 0.95915 0.0
H1127 H 0.09693 0.39412 1.0021 0.0
H1128 H 0.24049 0.45983 0.9861 0.0
H1129 H 0.15587 0.46809 0.97517 0.0
H1130 H 0.24994 0.28712 0.94379 0.0
H1131 H 0.20956 0.30825 0.01287 0.0
H1132 H 0.13975 0.43395 0.88365 0.0
H1133 H 0.22117 0.41838 0.90206 0.0
H1134 H 0.15486 0.47003 0.86445 0.0
H1135 H 0.23478 0.45462 0.88261 0.0
H1136 H 0.1491 0.37607 0.87148 0.0
H1137 H 0.17983 0.30952 0.88556 0.0
H1138 H 0.12885 0.36224 0.83117 0.0
H1139 H 0.15892 0.29681 0.84492 0.0
H1140 H 0.26477 0.35903 0.83039 0.0
H1141 H 0.20183 0.40298 0.80444 0.0
H1142 H 0.06755 0.40975 0.92173 0.0
H1143 H 0.06837 0.33739 0.91312 0.0
Li1144 Li 0.3158 0.66073 0.43801 0.0
Li1145 Li 0.32089 0.61957 0.4365 0.0
Li1146 Li 0.35749 0.64569 0.42154 0.0
Li1147 Li 0.31703 0.64042 0.3953 0.0
C1148 C 0.344 0.65061 0.48045 0.0
N1149 N 0.34695 0.66922 0.52892 0.0
C1150 C 0.33235 0.63963 0.50135 0.0
C1151 C 0.35748 0.67088 0.48425 0.0
C1152 C 0.33398 0.64935 0.52569 0.0
C1153 C 0.35865 0.68007 0.50888 0.0
C1154 C 0.26718 0.62649 0.42599 0.0
C1155 C 0.23651 0.59853 0.41035 0.0
N1156 N 0.22002 0.603 0.4304 0.0
C1157 C 0.24976 0.63103 0.44623 0.0
C1158 C 0.26038 0.61031 0.40772 0.0
C1159 C 0.22608 0.61888 0.44822 0.0
C1160 C 0.30091 0.70616 0.44658 0.0
N1161 N 0.29988 0.68504 0.45662 0.0
C1162 C 0.27657 0.69863 0.49352 0.0
C1163 C 0.28783 0.68098 0.47953 0.0
C1164 C 0.27722 0.72063 0.4836 0.0
C1165 C 0.28969 0.72429 0.45982 0.0
H1166 H 0.31035 0.70894 0.42821 0.0
H1167 H 0.28705 0.66404 0.48704 0.0
C1168 C 0.33184 0.5745 0.44928 0.0
N1169 N 0.31453 0.59162 0.4539 0.0
C1170 C 0.32921 0.55398 0.46213 0.0
C1171 C 0.29141 0.56917 0.4849 0.0
C1172 C 0.29463 0.58938 0.47141 0.0
C1173 C 0.3088 0.55114 0.48021 0.0
H1174 H 0.34807 0.57691 0.43598 0.0
H1175 H 0.28169 0.60344 0.47547 0.0
C1176 C 0.35168 0.68419 0.39466 0.0
N1177 N 0.38707 0.71406 0.37261 0.0
C1178 C 0.35563 0.68423 0.36811 0.0
C1179 C 0.36545 0.69955 0.40995 0.0
C1180 C 0.37366 0.69942 0.35733 0.0
C1181 C 0.38334 0.71445 0.39846 0.0
C1182 C 0.34775 0.60096 0.38788 0.0
C1183 C 0.37121 0.6001 0.37353 0.0
C1184 C 0.32831 0.58448 0.38432 0.0
C1185 C 0.37461 0.58298 0.35547 0.0
C1186 C 0.33245 0.56762 0.3661 0.0
N1187 N 0.3553 0.56725 0.35214 0.0
C1188 C 0.4088 0.64554 0.44284 0.0
C1189 C 0.40838 0.65302 0.39816 0.0
C1190 C 0.43654 0.6461 0.44317 0.0
N1191 N 0.39532 0.64891 0.42055 0.0
C1192 C 0.43616 0.65388 0.39765 0.0
C1193 C 0.45054 0.65003 0.4203 0.0
H1194 H 0.39804 0.64192 0.46031 0.0
H1195 H 0.39732 0.65504 0.38055 0.0
C1196 C 0.27766 0.6471 0.35729 0.0
N1197 N 0.30297 0.63973 0.36107 0.0
C1198 C 0.26665 0.64726 0.33265 0.0
C1199 C 0.30794 0.6323 0.31619 0.0
C1200 C 0.31822 0.6326 0.34109 0.0
C1201 C 0.28189 0.6398 0.31173 0.0
H1202 H 0.26603 0.6529 0.37344 0.0
H1203 H 0.33852 0.62751 0.34434 0.0
O1204 O 0.34233 0.64149 0.45641 0.0
O1205 O 0.29047 0.63823 0.42377 0.0
O1206 O 0.33421 0.66936 0.40556 0.0
O1207 O 0.3441 0.61767 0.40559 0.0
H1208 H 0.32202 0.62385 0.49879 0.0
H1209 H 0.36691 0.67942 0.46837 0.0
H1210 H 0.3249 0.6411 0.54201 0.0
H1211 H 0.36889 0.69582 0.51207 0.0
H1212 H 0.23105 0.5859 0.3964 0.0
H1213 H 0.25455 0.64368 0.46037 0.0
H1214 H 0.27323 0.60701 0.39155 0.0
H1215 H 0.21252 0.6221 0.46391 0.0
H1216 H 0.26772 0.69508 0.51204 0.0
H1217 H 0.29051 0.74096 0.45141 0.0
H1218 H 0.34348 0.54069 0.45851 0.0
H1219 H 0.27563 0.56769 0.49895 0.0
H1220 H 0.345 0.6726 0.35595 0.0
H1221 H 0.36235 0.69999 0.43046 0.0
H1222 H 0.37703 0.69955 0.33683 0.0
H1223 H 0.39424 0.72635 0.41009 0.0
H1224 H 0.38657 0.61259 0.37618 0.0
H1225 H 0.31038 0.58453 0.39572 0.0
H1226 H 0.39259 0.5822 0.34412 0.0
H1227 H 0.31754 0.55479 0.36312 0.0
H1228 H 0.44696 0.64326 0.46108 0.0
H1229 H 0.44631 0.65677 0.3796 0.0
H1230 H 0.24638 0.65295 0.33001 0.0
H1231 H 0.32039 0.62664 0.3005 0.0
Li1232 Li 0.1583 0.64199 0.10323 0.0
Li1233 Li 0.20165 0.63716 0.12559 0.0
Li1234 Li 0.1987 0.65832 0.08512 0.0
Li1235 Li 0.19257 0.61867 0.0856 0.0
C1236 C 0.17267 0.6748 0.14079 0.0
N1237 N 0.15517 0.69285 0.18661 0.0
C1238 C 0.16096 0.66095 0.15934 0.0
C1239 C 0.17557 0.69779 0.14558 0.0
C1240 C 0.15223 0.67041 0.18238 0.0
C1241 C 0.16654 0.70661 0.16885 0.0
C1242 C 0.17406 0.59168 0.12054 0.0
C1243 C 0.19827 0.55703 0.12679 0.0
N1244 N 0.17587 0.54519 0.12125 0.0
C1245 C 0.15123 0.57918 0.11512 0.0
C1246 C 0.19775 0.58054 0.12656 0.0
C1247 C 0.15258 0.55569 0.1155 0.0
C1248 C 0.10637 0.62949 0.09254 0.0
N1249 N 0.12049 0.64511 0.1058 0.0
C1250 C 0.08031 0.66324 0.11917 0.0
C1251 C 0.10806 0.66204 0.11866 0.0
C1252 C 0.06522 0.6472 0.10579 0.0
C1253 C 0.07864 0.63018 0.09232 0.0
H1254 H 0.11676 0.61663 0.08181 0.0
H1255 H 0.11952 0.67477 0.12836 0.0
C1256 C 0.23629 0.65242 0.16444 0.0
N1257 N 0.21796 0.63641 0.15866 0.0
C1258 C 0.24722 0.65349 0.18908 0.0
C1259 C 0.2205 0.62139 0.2012 0.0
C1260 C 0.2099 0.62107 0.17643 0.0
C1261 C 0.23919 0.6379 0.20783 0.0
H1262 H 0.24208 0.66457 0.15 0.0
H1263 H 0.19482 0.60887 0.17156 0.0
C1264 C 0.15497 0.65493 0.05287 0.0
N1265 N 0.12326 0.68315 0.02383 0.0
C1266 C 0.14578 0.648 0.02886 0.0
C1267 C 0.14798 0.67621 0.06215 0.0
C1268 C 0.12979 0.66252 0.01445 0.0
C1269 C 0.13195 0.69022 0.04717 0.0
C1270 C 0.24451 0.63377 0.07661 0.0
C1271 C 0.23721 0.63236 0.05078 0.0
C1272 C 0.27141 0.63403 0.08325 0.0
C1273 C 0.25699 0.63123 0.032 0.0
C1274 C 0.29061 0.63286 0.06391 0.0
N1275 N 0.28306 0.6315 0.0389 0.0
C1276 C 0.22544 0.69997 0.08005 0.0
C1277 C 0.21092 0.68439 0.04063 0.0
C1278 C 0.23599 0.71866 0.06726 0.0
N1279 N 0.21307 0.6834 0.06664 0.0
C1280 C 0.22088 0.70286 0.02713 0.0
C1281 C 0.23346 0.72033 0.04049 0.0
H1282 H 0.22705 0.69866 0.1007 0.0
H1283 H 0.20147 0.67085 0.03029 0.0
C1284 C 0.17484 0.58427 0.05369 0.0
N1285 N 0.19679 0.59141 0.06649 0.0
C1286 C 0.17523 0.56392 0.0404 0.0
C1287 C 0.22109 0.55887 0.05302 0.0
C1288 C 0.21975 0.57927 0.06633 0.0
C1289 C 0.19849 0.55088 0.04016 0.0
H1290 H 0.15685 0.59425 0.05425 0.0
H1291 H 0.23683 0.58519 0.07692 0.0
O1292 O 0.18204 0.66588 0.11836 0.0
O1293 O 0.17344 0.61468 0.11936 0.0
O1294 O 0.17053 0.64074 0.06714 0.0
O1295 O 0.22559 0.63504 0.09542 0.0
H1296 H 0.15855 0.64312 0.15598 0.0
H1297 H 0.18474 0.7087 0.13146 0.0
H1298 H 0.14312 0.6599 0.19689 0.0
H1299 H 0.16863 0.72439 0.17281 0.0
H1300 H 0.21652 0.5482 0.1312 0.0
H1301 H 0.13271 0.5875 0.11053 0.0
H1302 H 0.21568 0.58997 0.13053 0.0
H1303 H 0.13511 0.54579 0.11116 0.0
H1304 H 0.07081 0.67649 0.13009 0.0
H1305 H 0.06782 0.61767 0.08143 0.0
H1306 H 0.26179 0.66633 0.19342 0.0
H1307 H 0.21369 0.60921 0.21523 0.0
H1308 H 0.15098 0.63156 0.02145 0.0
H1309 H 0.15483 0.6819 0.08068 0.0
H1310 H 0.12255 0.65738 0.99582 0.0
H1311 H 0.1264 0.70673 0.0541 0.0
H1312 H 0.21652 0.63209 0.04523 0.0
H1313 H 0.27738 0.63515 0.10317 0.0
H1314 H 0.25162 0.63013 0.01195 0.0
H1315 H 0.31151 0.63304 0.06878 0.0
H1316 H 0.24565 0.73182 0.07816 0.0
H1317 H 0.219 0.7034 1.00643 0.0
H1318 H 0.15751 0.55841 0.03042 0.0
H1319 H 0.23934 0.54918 0.05329 0.0
Li1320 Li 0.31588 0.38084 0.62793 0.0
Li1321 Li 0.35667 0.37553 0.60209 0.0
Li1322 Li 0.32004 0.40119 0.58633 0.0
Li1323 Li 0.31548 0.36002 0.58554 0.0
C1324 C 0.3459 0.4213 0.63401 0.0
N1325 N 0.3523 0.45689 0.66749 0.0
C1326 C 0.36939 0.42347 0.6481 0.0
C1327 C 0.32582 0.43739 0.63669 0.0
C1328 C 0.3722 0.44154 0.665 0.0
C1329 C 0.32939 0.45522 0.65378 0.0
C1330 C 0.35121 0.33772 0.63 0.0
C1331 C 0.3841 0.30823 0.62773 0.0
N1332 N 0.38712 0.30923 0.65363 0.0
C1333 C 0.35446 0.33833 0.65662 0.0
C1334 C 0.36596 0.32242 0.61543 0.0
C1335 C 0.37277 0.32382 0.66821 0.0
C1336 C 0.27738 0.37203 0.66614 0.0
N1337 N 0.30152 0.38169 0.66203 0.0
C1338 C 0.30491 0.39153 0.70641 0.0
C1339 C 0.31548 0.39107 0.68163 0.0
C1340 C 0.27995 0.38188 0.71114 0.0
C1341 C 0.26621 0.37184 0.69074 0.0
H1342 H 0.26684 0.36442 0.6503 0.0
H1343 H 0.33502 0.39788 0.67822 0.0
C1344 C 0.40846 0.37443 0.5816 0.0
N1345 N 0.39443 0.37236 0.60378 0.0
C1346 C 0.43617 0.37314 0.58184 0.0
C1347 C 0.43458 0.36752 0.62776 0.0
C1348 C 0.40689 0.36916 0.62667 0.0
C1349 C 0.44952 0.36959 0.60513 0.0
H1350 H 0.39817 0.37744 0.56373 0.0
H1351 H 0.39539 0.36829 0.64415 0.0
C1352 C 0.26608 0.39383 0.59724 0.0
N1353 N 0.21817 0.41642 0.59357 0.0
C1354 C 0.24869 0.38925 0.57701 0.0
C1355 C 0.25886 0.40958 0.61588 0.0
C1356 C 0.22464 0.40094 0.5754 0.0
C1357 C 0.23462 0.4209 0.61363 0.0
C1358 C 0.34353 0.36964 0.54316 0.0
C1359 C 0.33174 0.38029 0.52211 0.0
C1360 C 0.35697 0.34927 0.5397 0.0
C1361 C 0.33323 0.37016 0.49797 0.0
C1362 C 0.35798 0.33966 0.51527 0.0
N1363 N 0.34617 0.35021 0.49509 0.0
C1364 C 0.33118 0.44588 0.57203 0.0
C1365 C 0.29348 0.43079 0.551 0.0
C1366 C 0.32869 0.46602 0.55837 0.0
N1367 N 0.31363 0.42881 0.56827 0.0
C1368 C 0.29039 0.45059 0.53673 0.0
C1369 C 0.30828 0.46844 0.54025 0.0
H1370 H 0.34753 0.44371 0.58524 0.0
H1371 H 0.28028 0.41679 0.54769 0.0
C1372 C 0.30209 0.31432 0.57769 0.0
N1373 N 0.30017 0.33527 0.5673 0.0
C1374 C 0.29155 0.29574 0.56483 0.0
C1375 C 0.2772 0.32059 0.53078 0.0
C1376 C 0.28782 0.33872 0.5444 0.0
C1377 C 0.2789 0.29879 0.54106 0.0
H1378 H 0.31184 0.31201 0.59598 0.0
H1379 H 0.28625 0.35555 0.53667 0.0
O1380 O 0.34279 0.40361 0.6175 0.0
O1381 O 0.33353 0.35192 0.61829 0.0
O1382 O 0.28969 0.38249 0.59912 0.0
O1383 O 0.34202 0.37916 0.567 0.0
H1384 H 0.38523 0.41127 0.64611 0.0
H1385 H 0.30782 0.4363 0.62548 0.0
H1386 H 0.39021 0.44335 0.67614 0.0
H1387 H 0.31398 0.46778 0.65607 0.0
H1388 H 0.39577 0.2964 0.61667 0.0
H1389 H 0.3431 0.34995 0.66821 0.0
H1390 H 0.36347 0.32154 0.59487 0.0
H1391 H 0.3756 0.3242 0.68878 0.0
H1392 H 0.31631 0.39901 0.72182 0.0
H1393 H 0.24693 0.36417 0.69374 0.0
H1394 H 0.44709 0.37496 0.56403 0.0
H1395 H 0.44424 0.36527 0.64616 0.0
H1396 H 0.25381 0.37692 0.56259 0.0
H1397 H 0.27168 0.41289 0.63206 0.0
H1398 H 0.2111 0.3977 0.55972 0.0
H1399 H 0.22883 0.43319 0.62787 0.0
H1400 H 0.32143 0.39613 0.52439 0.0
H1401 H 0.36645 0.34094 0.55572 0.0
H1402 H 0.32406 0.37815 0.48153 0.0
H1403 H 0.36817 0.32383 0.51236 0.0
H1404 H 0.34308 0.47931 0.56138 0.0
H1405 H 0.27435 0.45186 0.52296 0.0
H1406 H 0.29351 0.27914 0.57324 0.0
H1407 H 0.26747 0.32361 0.51255 0.0
C1408 C 0.27999 0.25282 1.00808 0.0
C1409 C 0.26353 0.23792 0.02189 0.0
C1410 C 0.2693 0.27103 0.99432 0.0
C1411 C 0.24177 0.27512 0.99399 0.0
H1412 H 0.30137 0.25062 1.00825 0.0
H1413 H 0.28272 0.28225 0.98427 0.0
S1414 S 0.18982 0.24006 0.02484 0.0
N1415 N 0.21807 0.22767 0.03272 0.0
N1416 N 0.19812 0.26213 1.00729 0.0
C1417 C 0.22504 0.26018 1.00728 0.0
C1418 C 0.23587 0.24155 0.02113 0.0
C1419 C 0.27947 0.75997 0.50095 0.0
C1420 C 0.26525 0.73975 0.49802 0.0
C1421 C 0.26875 0.7782 0.51458 0.0
C1422 C 0.24329 0.77698 0.52573 0.0
H1423 H 0.29921 0.76167 0.49285 0.0
H1424 H 0.28039 0.79346 0.51615 0.0
S1425 S 0.19783 0.72785 0.52366 0.0
N1426 N 0.22414 0.71974 0.50711 0.0
N1427 N 0.20434 0.75369 0.53336 0.0
C1428 C 0.22887 0.75684 0.52302 0.0
C1429 C 0.23976 0.7383 0.50908 0.0
C1430 C 0.28119 0.76493 0.01582 0.0
C1431 C 0.26522 0.7779 0.99918 0.0
C1432 C 0.27073 0.74649 0.0293 0.0
C1433 C 0.24398 0.74017 0.02649 0.0
H1434 H 0.30206 0.76888 0.0182 0.0
H1435 H 0.28379 0.73687 0.0417 0.0
S1436 S 0.19318 0.76939 0.98711 0.0
N1437 N 0.22073 0.78382 0.98207 0.0
N1438 N 0.20138 0.74882 1.00693 0.0
C1439 C 0.22771 0.75305 1.0102 0.0
C1440 C 0.23824 0.77196 0.99666 0.0
C1441 C 0.27449 0.27558 0.50116 0.0
C1442 C 0.26763 0.2793 0.52698 0.0
C1443 C 0.26435 0.25709 0.48761 0.0
C1444 C 0.24687 0.24168 0.49933 0.0
H1445 H 0.28812 0.28686 0.49148 0.0
H1446 H 0.27056 0.25467 0.46789 0.0
S1447 S 0.22078 0.24522 0.56586 0.0
N1448 N 0.24116 0.26688 0.56333 0.0
N1449 N 0.22179 0.23234 0.53783 0.0
C1450 C 0.23945 0.24552 0.52501 0.0
C1451 C 0.24989 0.26426 0.53883 0.0
C1452 C 0.74287 0.74161 0.01794 0.0
C1453 C 0.76916 0.74188 0.02715 0.0
C1454 C 0.73218 0.76016 1.00479 0.0
C1455 C 0.74728 0.77976 1.00058 0.0
H1456 H 0.73059 0.72682 0.02057 0.0
H1457 H 0.71187 0.75919 0.99798 0.0
S1458 S 0.81694 0.78914 0.02131 0.0
N1459 N 0.80983 0.76357 0.03168 0.0
N1460 N 0.78989 0.79826 1.00664 0.0
C1461 C 0.77351 0.78031 1.00989 0.0
C1462 C 0.78442 0.76141 0.0232 0.0
C1463 C 0.74369 0.24102 0.50739 0.0
C1464 C 0.76956 0.24171 0.49711 0.0
C1465 C 0.73309 0.25936 0.52089 0.0
C1466 C 0.74795 0.27913 0.52475 0.0
H1467 H 0.73136 0.22627 0.50473 0.0
H1468 H 0.71313 0.25796 0.52853 0.0
S1469 S 0.81682 0.28945 0.502 0.0
N1470 N 0.81005 0.26365 0.49229 0.0
N1471 N 0.78984 0.29837 0.51692 0.0
C1472 C 0.77388 0.28004 0.51464 0.0
C1473 C 0.78471 0.26132 0.50096 0.0
C1474 C 0.7643 0.27885 0.02471 0.0
C1475 C 0.76327 0.27999 0.99772 0.0
C1476 C 0.75367 0.26044 0.03811 0.0
C1477 C 0.74147 0.24252 0.02505 0.0
H1478 H 0.77317 0.29241 0.0356 0.0
H1479 H 0.75472 0.26034 0.05888 0.0
S1480 S 0.73543 0.23638 0.9545 0.0
N1481 N 0.75038 0.26086 0.95842 0.0
N1482 N 0.73008 0.22646 0.98367 0.0
C1483 C 0.7405 0.24331 0.99811 0.0
C1484 C 0.75145 0.26198 0.98444 0.0
C1485 C 0.75241 0.76368 0.5344 0.0
C1486 C 0.76755 0.78052 0.52222 0.0
C1487 C 0.74217 0.74538 0.52064 0.0
C1488 C 0.7465 0.74315 0.49407 0.0
H1489 H 0.74825 0.76468 0.55476 0.0
H1490 H 0.73099 0.73273 0.53103 0.0
S1491 S 0.78461 0.78275 0.45292 0.0
N1492 N 0.78678 0.79354 0.482 0.0
N1493 N 0.76639 0.75981 0.45594 0.0
C1494 C 0.7614 0.75998 0.48157 0.0
C1495 C 0.77211 0.77851 0.49566 0.0
C1496 C 0.3081 0.02906 1.00192 0.0
C1497 C 0.30689 0.02861 0.02889 0.0
C1498 C 0.30831 1.0091 0.9876 0.0
C1499 C 0.30707 0.98793 0.9997 0.0
H1500 H 0.30948 0.04497 0.9918 0.0
H1501 H 0.30948 0.01023 0.96687 0.0
S1502 S 0.30313 0.97755 0.06983 0.0
N1503 N 0.30377 1.00524 0.06712 0.0
N1504 N 0.30462 0.96772 0.04024 0.0
C1505 C 0.30553 0.98724 0.02664 0.0
C1506 C 0.30538 1.00757 0.04122 0.0
C1507 C 0.18184 1.00482 0.52916 0.0
C1508 C 0.20317 0.98957 0.52728 0.0
C1509 C 0.18185 0.02514 0.51547 0.0
C1510 C 0.20318 0.03103 0.49933 0.0
H1511 H 0.16499 1.00104 0.54139 0.0
H1512 H 0.165 0.03637 0.51758 0.0
S1513 S 0.26333 0.99656 0.48685 0.0
N1514 N 0.24593 0.9815 0.50756 0.0
N1515 N 0.24592 0.01973 0.48176 0.0
C1516 C 0.22472 0.01601 0.49736 0.0
C1517 C 0.22471 0.99529 0.51134 0.0
C1518 C 0.70924 0.99231 0.0216 0.0
C1519 C 0.70402 0.99183 0.99506 0.0
C1520 C 0.7092 0.01265 0.03527 0.0
C1521 C 0.70389 0.03324 0.0229 0.0
H1522 H 0.71265 0.97679 0.03203 0.0
H1523 H 0.7126 0.01219 0.05579 0.0
S1524 S 0.69218 0.04145 0.95324 0.0
N1525 N 0.69567 0.01397 0.9566 0.0
N1526 N 0.69542 0.05212 0.98231 0.0
C1527 C 0.69953 0.03307 0.99626 0.0
C1528 C 0.69963 0.01241 0.98234 0.0
C1529 C 0.80282 0.02994 0.52306 0.0
C1530 C 0.80757 0.02972 0.49645 0.0
C1531 C 0.80261 0.00991 0.5374 0.0
C1532 C 0.80677 0.98891 0.52558 0.0
H1533 H 0.79995 0.04576 0.53299 0.0
H1534 H 0.79929 0.01086 0.55791 0.0
S1535 S 0.81911 0.97917 0.45627 0.0
N1536 N 0.81568 1.00673 0.45872 0.0
N1537 N 0.81545 0.96913 0.48563 0.0
C1538 C 0.81097 0.98844 0.4989 0.0
C1539 C 0.81137 1.00882 0.48436 0.0
C1540 C 0.80389 0.50944 0.98706 0.0
C1541 C 0.8088 0.48849 0.99875 0.0
C1542 C 0.80428 0.52943 1.00136 0.0
C1543 C 0.80996 0.5292 0.02779 0.0
H1544 H 0.7998 0.51039 0.96667 0.0
H1545 H 0.80074 0.54523 0.99153 0.0
S1546 S 0.82391 0.47868 0.06753 0.0
N1547 N 0.81932 0.46868 0.03832 0.0
N1548 N 0.81993 0.50621 0.06522 0.0
C1549 C 0.81463 0.50833 0.03975 0.0
C1550 C 0.81403 0.48798 0.02524 0.0
C1551 C 0.70804 0.50965 0.53634 0.0
C1552 C 0.70451 0.48888 0.52391 0.0
C1553 C 0.7079 0.52994 0.52248 0.0
C1554 C 0.70435 0.53016 0.49567 0.0
H1555 H 0.71017 0.51027 0.55702 0.0
H1556 H 0.70987 0.54559 0.53293 0.0
S1557 S 0.69756 0.47999 0.45383 0.0
N1558 N 0.69942 0.46957 0.48317 0.0
N1559 N 0.69958 0.50758 0.45705 0.0
C1560 C 0.70179 0.50939 0.48295 0.0
C1561 C 0.70177 0.4888 0.49708 0.0
C1562 C 0.21828 0.5244 1.00794 0.0
C1563 C 0.19893 0.5289 0.02674 0.0
C1564 C 0.21813 0.50409 0.99419 0.0
C1565 C 0.19871 0.48752 0.99887 0.0
H1566 H 0.23325 0.5369 1.00341 0.0
H1567 H 0.23298 0.50157 0.9794 0.0
S1568 S 0.14573 0.49015 0.04842 0.0
N1569 N 0.16116 0.51457 0.05074 0.0
N1570 N 0.16107 0.4763 0.02528 0.0
C1571 C 0.17983 0.49157 0.01829 0.0
C1572 C 0.17991 0.51226 0.03212 0.0
C1573 C 0.30633 0.53041 0.52204 0.0
C1574 C 0.30666 0.52986 0.49505 0.0
C1575 C 0.30644 0.51048 0.53652 0.0
C1576 C 0.30647 0.48927 0.52454 0.0
H1577 H 0.30679 0.54638 0.53204 0.0
H1578 H 0.3067 0.51165 0.55727 0.0
S1579 S 0.30629 0.47868 0.45442 0.0
N1580 N 0.30619 0.50638 0.45691 0.0
N1581 N 0.30638 0.46892 0.48412 0.0
C1582 C 0.30614 0.48849 0.49758 0.0
C1583 C 0.30629 0.50878 0.48284 0.0
C1584 C 0.51808 0.12882 0.09888 0.0
C1585 C 0.5325 0.14866 0.10356 0.0
C1586 C 0.49023 0.12866 0.09963 0.0
C1587 C 0.47573 0.14839 0.10482 0.0
H1588 H 0.52842 0.11322 0.09483 0.0
H1589 H 0.47996 0.113 0.0958 0.0
S1590 S 0.50396 0.20478 0.11828 0.0
N1591 N 0.53021 0.1886 0.11341 0.0
N1592 N 0.4778 0.18826 0.11497 0.0
C1593 C 0.48986 0.16836 0.10949 0.0
C1594 C 0.51825 0.1685 0.1089 0.0
C1595 C 0.99292 0.86389 0.58652 0.0
C1596 C 0.97812 0.86884 0.60874 0.0
C1597 C 0.0208 0.86372 0.58688 0.0
C1598 C 0.035 0.86861 0.60945 0.0
H1599 H 0.98287 0.86011 0.56866 0.0
H1600 H 0.03131 0.86021 0.56918 0.0
S1601 S 1.00574 0.8822 0.67297 0.0
N1602 N 0.97981 0.87873 0.65399 0.0
N1603 N 0.03215 0.87776 0.65483 0.0
C1604 C 0.02046 0.87326 0.63191 0.0
C1605 C 0.99207 0.87349 0.63153 0.0
C1606 C 0.49193 0.86058 0.93744 0.0
C1607 C 0.47771 0.87018 0.9169 0.0
C1608 C 0.51981 0.86026 0.93761 0.0
C1609 C 0.53462 0.86951 0.91723 0.0
H1610 H 0.48147 0.85363 0.95381 0.0
H1611 H 0.52985 0.85272 0.95388 0.0
S1612 S 0.50694 0.8962 0.85855 0.0
N1613 N 0.48054 0.8884 0.87516 0.0
N1614 N 0.53288 0.88861 0.87593 0.0
C1615 C 0.52064 0.87896 0.89644 0.0
C1616 C 0.49224 0.87915 0.89619 0.0
C1617 C 0.02126 0.16266 0.43221 0.0
C1618 C 0.03561 0.14987 0.41418 0.0
C1619 C 0.99339 0.16282 0.43232 0.0
C1620 C 0.97871 0.15025 0.41438 0.0
H1621 H 0.03164 0.17223 0.44675 0.0
H1622 H 0.98324 0.17285 0.44665 0.0
S1623 S 1.00675 0.1145 0.36261 0.0
N1624 N 0.03304 0.12506 0.37719 0.0
N1625 N 0.98071 0.12468 0.378 0.0
C1626 C 0.99281 0.13763 0.39601 0.0
C1627 C 0.0212 0.13757 0.3958 0.0
C1628 C 0.02105 0.62802 0.10982 0.0
C1629 C 0.03565 0.64795 0.10593 0.0
C1630 C 0.99319 0.62808 0.10955 0.0
C1631 C 0.97884 0.64809 0.10558 0.0
H1632 H 0.03124 0.61223 0.11327 0.0
H1633 H 0.98277 0.61235 0.11265 0.0
S1634 S 0.00729 0.70455 0.0929 0.0
N1635 N 0.03347 0.68809 0.09676 0.0
N1636 N 0.98107 0.6882 0.0968 0.0
C1637 C 0.99307 0.66813 0.10166 0.0
C1638 C 0.02146 0.66807 0.10172 0.0
C1639 C 0.52135 0.38716 0.59577 0.0
C1640 C 0.53567 0.36929 0.60689 0.0
C1641 C 0.49351 0.38699 0.5951 0.0
C1642 C 0.47897 0.36911 0.60586 0.0
H1643 H 0.53178 0.40127 0.58727 0.0
H1644 H 0.48326 0.4011 0.58635 0.0
S1645 S 0.50699 0.3184 0.63743 0.0
N1646 N 0.53331 0.33328 0.62896 0.0
N1647 N 0.48087 0.33304 0.62786 0.0
C1648 C 0.49301 0.35119 0.61716 0.0
C1649 C 0.5214 0.35124 0.61758 0.0
C1650 C 0.01976 0.36161 0.90026 0.0
C1651 C 0.03451 0.37322 0.91895 0.0
C1652 C 0.99186 0.3617 0.90065 0.0
C1653 C 0.97774 0.37343 0.91974 0.0
H1654 H 0.02985 0.35274 0.88493 0.0
H1655 H 0.98126 0.35289 0.88564 0.0
S1656 S 0.00701 0.40434 0.97465 0.0
N1657 N 0.03294 0.39526 0.95819 0.0
N1658 N 0.98057 0.39553 0.95885 0.0
C1659 C 0.99226 0.38461 0.9389 0.0
C1660 C 0.02062 0.38448 0.93854 0.0
C1661 C 0.52256 0.66689 0.40915 0.0
C1662 C 0.53674 0.64824 0.41867 0.0
C1663 C 0.49465 0.66733 0.40956 0.0
C1664 C 0.48001 0.64929 0.41992 0.0
H1665 H 0.53312 0.6811 0.40102 0.0
H1666 H 0.48444 0.68195 0.40195 0.0
S1667 S 0.50775 0.59671 0.44757 0.0
N1668 N 0.53412 0.61145 0.43897 0.0
N1669 N 0.48175 0.61226 0.43973 0.0
C1670 C 0.49399 0.63064 0.42964 0.0
C1671 C 0.52232 0.63011 0.429 0.0
C1672 C 0.25456 0.15801 0.24789 0.0
C1673 C 0.2699 0.14021 0.23806 0.0
C1674 C 0.24512 0.15756 0.27324 0.0
C1675 C 0.25088 0.13939 0.28976 0.0
H1676 H 0.24937 0.17215 0.23572 0.0
H1677 H 0.23273 0.17133 0.27976 0.0
S1678 S 0.29292 0.0899 0.27385 0.0
N1679 N 0.29192 0.1047 0.24702 0.0
N1680 N 0.27486 0.10404 0.29485 0.0
C1681 C 0.26696 0.12183 0.28029 0.0
C1682 C 0.2763 0.12221 0.25442 0.0
C1683 C 0.24526 0.89036 0.78125 0.0
C1684 C 0.26827 0.87797 0.78756 0.0
C1685 C 0.23505 0.89048 0.75621 0.0
C1686 C 0.24724 0.87799 0.73659 0.0
H1687 H 0.23487 0.89992 0.79582 0.0
H1688 H 0.21731 0.90023 0.7522 0.0
S1689 S 0.30868 0.84392 0.74225 0.0
N1690 N 0.30373 0.85389 0.77143 0.0
N1691 N 0.28387 0.85357 0.72463 0.0
C1692 C 0.27019 0.86557 0.74248 0.0
C1693 C 0.28085 0.86567 0.76788 0.0
C1694 C 0.73476 0.87053 0.76891 0.0
C1695 C 0.74609 0.88367 0.78851 0.0
C1696 C 0.7453 0.8706 0.74398 0.0
C1697 C 0.76757 0.88381 0.73767 0.0
H1698 H 0.71785 0.85982 0.77298 0.0
H1699 H 0.73619 0.85993 0.72964 0.0
S1700 S 0.80312 0.92273 0.78138 0.0
N1701 N 0.77984 0.91125 0.79952 0.0
N1702 N 0.79963 0.9114 0.75267 0.0
C1703 C 0.77881 0.89732 0.75696 0.0
C1704 C 0.76809 0.89724 0.78235 0.0
C1705 C 0.74116 0.1379 0.28117 0.0
C1706 C 0.76871 0.13978 0.28533 0.0
C1707 C 0.73046 0.13821 0.25631 0.0
C1708 C 0.74686 0.14045 0.23453 0.0
H1709 H 0.72772 0.13589 0.29727 0.0
H1710 H 0.7091 0.13688 0.25416 0.0
S1711 S 0.82036 0.14617 0.23488 0.0
N1712 N 0.81214 0.14463 0.2655 0.0
N1713 N 0.79219 0.1442 0.21883 0.0
C1714 C 0.77446 0.14234 0.23841 0.0
C1715 C 0.78534 0.14221 0.26374 0.0
C1716 C 0.74016 0.62323 0.26736 0.0
C1717 C 0.74654 0.64038 0.28487 0.0
C1718 C 0.75037 0.62338 0.2423 0.0
C1719 C 0.76746 0.64063 0.23384 0.0
H1720 H 0.72695 0.6097 0.273 0.0
H1721 H 0.74466 0.60997 0.22938 0.0
S1722 S 0.79195 0.68841 0.27303 0.0
N1723 N 0.77192 0.67446 0.29249 0.0
N1724 N 0.79142 0.67463 0.24554 0.0
C1725 C 0.77424 0.65772 0.25131 0.0
C1726 C 0.76373 0.65762 0.27678 0.0
C1727 C 0.74002 0.3975 0.75316 0.0
C1728 C 0.74675 0.38025 0.73587 0.0
C1729 C 0.75005 0.39763 0.77828 0.0
C1730 C 0.76726 0.38056 0.78704 0.0
H1731 H 0.7266 0.41083 0.74732 0.0
H1732 H 0.744 0.41107 0.79104 0.0
S1733 S 0.79283 0.33274 0.74847 0.0
N1734 N 0.77277 0.34636 0.72874 0.0
N1735 N 0.79186 0.34671 0.77581 0.0
C1736 C 0.7745 0.36343 0.76976 0.0
C1737 C 0.76419 0.36326 0.74423 0.0
C1738 C 0.26128 0.36177 0.74942 0.0
C1739 C 0.26847 0.38208 0.73736 0.0
C1740 C 0.25088 0.3616 0.77444 0.0
C1741 C 0.24684 0.38176 0.78802 0.0
H1742 H 0.26402 0.34591 0.73955 0.0
H1743 H 0.24559 0.34562 0.78308 0.0
S1744 S 0.26216 0.43934 0.76487 0.0
N1745 N 0.27082 0.4228 0.74082 0.0
N1746 N 0.2509 0.4225 0.78766 0.0
C1747 C 0.25381 0.40215 0.77611 0.0
C1748 C 0.26474 0.40231 0.75083 0.0
C1749 C 0.27178 0.62003 0.27045 0.0
C1750 C 0.27079 0.63976 0.28533 0.0
C1751 C 0.2614 0.61954 0.24547 0.0
C1752 C 0.25005 0.63886 0.2343 0.0
H1753 H 0.28041 0.60479 0.2783 0.0
H1754 H 0.2625 0.60398 0.23471 0.0
S1755 S 0.24279 0.69476 0.26508 0.0
N1756 N 0.25764 0.6791 0.28703 0.0
N1757 N 0.23819 0.67819 0.24006 0.0
C1758 C 0.24903 0.65871 0.24891 0.0
C1759 C 0.25934 0.65915 0.27444 0.0
loop_
_geom_bond_atom_site_label_1
_geom_bond_atom_site_label_2
_geom_bond_distance
_geom_bond_site_symmetry_2
_ccdc_geom_bond_type
Li0 N17 1.990 . S
Li0 O60 1.956 . S
Li0 O61 1.970 . S
Li0 O62 1.961 . S
Li1 N25 1.990 . S
Li1 O60 1.970 . S
Li1 O61 1.956 . S
Li1 O63 1.961 . S
Li2 N47 1.990 . S
Li2 O60 1.961 . S
Li2 O62 1.956 . S
Li2 O63 1.970 . S
Li3 N53 1.990 . S
Li3 O61 1.961 . S
Li3 O62 1.970 . S
Li3 O63 1.956 . S
C4 C6 1.348 . S
C4 C7 1.356 . S
C4 O60 1.325 . S
N5 C8 1.314 1_556 S
N5 C9 1.279 . S
C6 C4 1.348 . S
C6 C8 1.353 . S
C6 H64 0.929 . S
C7 C4 1.356 . S
C7 C9 1.358 1_554 S
C7 H65 0.930 . S
C8 N5 1.314 1_554 S
C8 C6 1.353 . S
C8 H66 0.930 . S
C9 N5 1.279 . S
C9 C7 1.358 1_556 S
C9 H67 0.930 . S
C10 C13 1.348 . S
C10 C14 1.356 . S
C10 O61 1.325 . S
C11 N12 1.279 . S
C11 C14 1.358 . S
C11 H68 0.930 . S
N12 C11 1.279 . S
N12 C15 1.314 . S
C13 C10 1.348 . S
C13 C15 1.353 . S
C13 H69 0.929 . S
C14 C10 1.356 . S
C14 C11 1.358 . S
C14 H70 0.930 . S
C15 N12 1.314 . S
C15 C13 1.353 . S
C15 H71 0.930 . S
C16 N17 1.314 . S
C16 C21 1.353 . S
C16 H22 0.930 . S
N17 Li0 1.990 . S
N17 C16 1.314 . S
N17 C19 1.279 . S
C18 C19 1.358 . S
C18 C20 1.356 . S
C18 H72 0.930 . S
C19 N17 1.279 . S
C19 C18 1.358 . S
C19 H23 0.930 . S
C20 C18 1.356 . S
C20 C21 1.348 . S
C21 C16 1.353 . S
C21 C20 1.348 . S
C21 H73 0.929 . S
H22 C16 0.930 . S
H23 C19 0.930 . S
C24 N25 1.314 . S
C24 C26 1.353 . S
C24 H30 0.930 . S
N25 Li1 1.990 . S
N25 C24 1.314 . S
N25 C28 1.279 . S
C26 C24 1.353 . S
C26 C29 1.348 . S
C26 H74 0.929 . S
C27 C28 1.358 . S
C27 C29 1.356 . S
C27 H75 0.930 . S
C28 N25 1.279 . S
C28 C27 1.358 . S
C28 H31 0.930 . S
C29 C26 1.348 . S
C29 C27 1.356 . S
H30 C24 0.930 . S
H31 C28 0.930 . S
C32 C34 1.348 . S
C32 C35 1.356 . S
C32 O62 1.325 . S
N33 C36 1.314 . S
N33 C37 1.279 . S
C34 C32 1.348 . S
C34 C36 1.353 . S
C34 H76 0.929 . S
C35 C32 1.356 . S
C35 C37 1.358 . S
C35 H77 0.930 . S
C36 N33 1.314 . S
C36 C34 1.353 . S
C36 H78 0.930 . S
C37 N33 1.279 . S
C37 C35 1.358 . S
C37 H79 0.930 . S
C38 C39 1.348 . S
C38 C40 1.356 . S
C38 O63 1.325 . S
C39 C38 1.348 . S
C39 C41 1.353 . S
C39 H80 0.929 . S
C40 C38 1.356 . S
C40 C42 1.358 . S
C40 H81 0.930 . S
C41 C39 1.353 . S
C41 N43 1.314 . S
C41 H82 0.930 . S
C42 C40 1.358 . S
C42 N43 1.279 . S
C42 H83 0.930 . S
N43 C41 1.314 . S
N43 C42 1.279 . S
C44 C46 1.353 . S
C44 N47 1.314 . S
C44 H50 0.930 . S
C45 N47 1.279 . S
C45 C48 1.358 . S
C45 H51 0.930 . S
C46 C44 1.353 . S
C46 C49 1.348 . S
C46 H84 0.929 . S
N47 Li2 1.990 . S
N47 C44 1.314 . S
N47 C45 1.279 . S
C48 C45 1.358 . S
C48 C49 1.356 . S
C48 H85 0.930 . S
C49 C46 1.348 . S
C49 C48 1.356 . S
H50 C44 0.930 . S
H51 C45 0.930 . S
C52 N53 1.314 . S
C52 C54 1.353 . S
C52 H58 0.930 . S
N53 Li3 1.990 . S
N53 C52 1.314 . S
N53 C56 1.279 . S
C54 C52 1.353 . S
C54 C57 1.348 . S
C54 H86 0.929 . S
C55 C56 1.358 . S
C55 C57 1.356 . S
C55 H87 0.930 . S
C56 N53 1.279 . S
C56 C55 1.358 . S
C56 H59 0.930 . S
C57 C54 1.348 . S
C57 C55 1.356 . S
H58 C52 0.930 . S
H59 C56 0.930 . S
O60 Li0 1.956 . S
O60 Li1 1.970 . S
O60 Li2 1.961 . S
O60 C4 1.325 . S
O61 Li0 1.970 . S
O61 Li1 1.956 . S
O61 Li3 1.961 . S
O61 C10 1.325 . S
O62 Li0 1.961 . S
O62 Li2 1.956 . S
O62 Li3 1.970 . S
O62 C32 1.325 . S
O63 Li1 1.961 . S
O63 Li2 1.970 . S
O63 Li3 1.956 . S
O63 C38 1.325 . S
H64 C6 0.929 . S
H65 C7 0.930 . S
H66 C8 0.930 . S
H67 C9 0.930 . S
H68 C11 0.930 . S
H69 C13 0.929 . S
H70 C14 0.930 . S
H71 C15 0.930 . S
H72 C18 0.930 . S
H73 C21 0.929 . S
H74 C26 0.929 . S
H75 C27 0.930 . S
H76 C34 0.929 . S
H77 C35 0.930 . S
H78 C36 0.930 . S
H79 C37 0.930 . S
H80 C39 0.929 . S
H81 C40 0.930 . S
H82 C41 0.930 . S
H83 C42 0.930 . S
H84 C46 0.929 . S
H85 C48 0.930 . S
H86 C54 0.929 . S
H87 C55 0.930 . S
Li88 N105 1.990 . S
Li88 O148 1.956 . S
Li88 O149 1.970 . S
Li88 O150 1.961 . S
Li89 N113 1.990 . S
Li89 O148 1.970 . S
Li89 O149 1.956 . S
Li89 O151 1.961 . S
Li90 N135 1.990 . S
Li90 O148 1.961 . S
Li90 O150 1.956 . S
Li90 O151 1.970 . S
Li91 N141 1.990 . S
Li91 O149 1.961 . S
Li91 O150 1.970 . S
Li91 O151 1.956 . S
C92 C94 1.348 . S
C92 C95 1.356 . S
C92 O148 1.325 . S
N93 C96 1.314 . S
N93 C97 1.279 . S
C94 C92 1.348 . S
C94 C96 1.353 . S
C94 H152 0.929 . S
C95 C92 1.356 . S
C95 C97 1.358 . S
C95 H153 0.930 . S
C96 N93 1.314 . S
C96 C94 1.353 . S
C96 H154 0.930 . S
C97 N93 1.279 . S
C97 C95 1.358 . S
C97 H155 0.930 . S
C98 C101 1.348 . S
C98 C102 1.356 . S
C98 O149 1.325 . S
C99 N100 1.279 . S
C99 C102 1.358 . S
C99 H156 0.930 . S
N100 C99 1.279 . S
N100 C103 1.314 . S
C101 C98 1.348 . S
C101 C103 1.353 . S
C101 H157 0.929 . S
C102 C98 1.356 . S
C102 C99 1.358 . S
C102 H158 0.930 . S
C103 N100 1.314 . S
C103 C101 1.353 . S
C103 H159 0.930 . S
C104 N105 1.314 . S
C104 C109 1.353 . S
C104 H110 0.930 . S
N105 Li88 1.990 . S
N105 C104 1.314 . S
N105 C107 1.279 . S
C106 C107 1.358 . S
C106 C108 1.356 . S
C106 H160 0.930 . S
C107 N105 1.279 . S
C107 C106 1.358 . S
C107 H111 0.930 . S
C108 C106 1.356 . S
C108 C109 1.348 . S
C109 C104 1.353 . S
C109 C108 1.348 . S
C109 H161 0.929 . S
H110 C104 0.930 . S
H111 C107 0.930 . S
C112 N113 1.314 . S
C112 C114 1.353 . S
C112 H118 0.930 . S
N113 Li89 1.990 . S
N113 C112 1.314 . S
N113 C116 1.279 . S
C114 C112 1.353 . S
C114 C117 1.348 . S
C114 H162 0.929 . S
C115 C116 1.358 . S
C115 C117 1.356 . S
C115 H163 0.930 . S
C116 N113 1.279 . S
C116 C115 1.358 . S
C116 H119 0.930 . S
C117 C114 1.348 . S
C117 C115 1.356 . S
H118 C112 0.930 . S
H119 C116 0.930 . S
C120 C122 1.348 . S
C120 C123 1.356 . S
C120 O150 1.325 . S
N121 C124 1.314 . S
N121 C125 1.279 . S
C122 C120 1.348 . S
C122 C124 1.353 . S
C122 H164 0.929 . S
C123 C120 1.356 . S
C123 C125 1.358 . S
C123 H165 0.930 . S
C124 N121 1.314 . S
C124 C122 1.353 . S
C124 H166 0.930 . S
C125 N121 1.279 . S
C125 C123 1.358 . S
C125 H167 0.930 . S
C126 C127 1.348 . S
C126 C128 1.356 . S
C126 O151 1.325 . S
C127 C126 1.348 . S
C127 C129 1.353 . S
C127 H168 0.929 . S
C128 C126 1.356 . S
C128 C130 1.358 . S
C128 H169 0.930 . S
C129 C127 1.353 . S
C129 N131 1.314 . S
C129 H170 0.930 . S
C130 C128 1.358 . S
C130 N131 1.279 . S
C130 H171 0.930 . S
N131 C129 1.314 . S
N131 C130 1.279 . S
C132 C134 1.353 . S
C132 N135 1.314 . S
C132 H138 0.930 . S
C133 N135 1.279 . S
C133 C136 1.358 . S
C133 H139 0.930 . S
C134 C132 1.353 . S
C134 C137 1.348 . S
C134 H172 0.929 . S
N135 Li90 1.990 . S
N135 C132 1.314 . S
N135 C133 1.279 . S
C136 C133 1.358 . S
C136 C137 1.356 . S
C136 H173 0.930 . S
C137 C134 1.348 . S
C137 C136 1.356 . S
H138 C132 0.930 . S
H139 C133 0.930 . S
C140 N141 1.314 . S
C140 C142 1.353 . S
C140 H146 0.930 . S
N141 Li91 1.990 . S
N141 C140 1.314 . S
N141 C144 1.279 . S
C142 C140 1.353 . S
C142 C145 1.348 . S
C142 H174 0.929 . S
C143 C144 1.358 . S
C143 C145 1.356 . S
C143 H175 0.930 . S
C144 N141 1.279 . S
C144 C143 1.358 . S
C144 H147 0.930 . S
C145 C142 1.348 . S
C145 C143 1.356 . S
H146 C140 0.930 . S
H147 C144 0.930 . S
O148 Li88 1.956 . S
O148 Li89 1.970 . S
O148 Li90 1.961 . S
O148 C92 1.325 . S
O149 Li88 1.970 . S
O149 Li89 1.956 . S
O149 Li91 1.961 . S
O149 C98 1.325 . S
O150 Li88 1.961 . S
O150 Li90 1.956 . S
O150 Li91 1.970 . S
O150 C120 1.325 . S
O151 Li89 1.961 . S
O151 Li90 1.970 . S
O151 Li91 1.956 . S
O151 C126 1.325 . S
H152 C94 0.929 . S
H153 C95 0.930 . S
H154 C96 0.930 . S
H155 C97 0.930 . S
H156 C99 0.930 . S
H157 C101 0.929 . S
H158 C102 0.930 . S
H159 C103 0.930 . S
H160 C106 0.930 . S
H161 C109 0.929 . S
H162 C114 0.929 . S
H163 C115 0.930 . S
H164 C122 0.929 . S
H165 C123 0.930 . S
H166 C124 0.930 . S
H167 C125 0.930 . S
H168 C127 0.929 . S
H169 C128 0.930 . S
H170 C129 0.930 . S
H171 C130 0.930 . S
H172 C134 0.929 . S
H173 C136 0.930 . S
H174 C142 0.929 . S
H175 C143 0.930 . S
Li176 N193 1.990 . S
Li176 O236 1.956 . S
Li176 O237 1.970 . S
Li176 O238 1.961 . S
Li177 N201 1.990 . S
Li177 O236 1.970 . S
Li177 O237 1.956 . S
Li177 O239 1.961 . S
Li178 N223 1.990 . S
Li178 O236 1.961 . S
Li178 O238 1.956 . S
Li178 O239 1.970 . S
Li179 N229 1.990 . S
Li179 O237 1.961 . S
Li179 O238 1.970 . S
Li179 O239 1.956 . S
C180 C182 1.348 . S
C180 C183 1.356 . S
C180 O236 1.325 . S
N181 C184 1.314 . S
N181 C185 1.279 . S
C182 C180 1.348 . S
C182 C184 1.353 . S
C182 H240 0.929 . S
C183 C180 1.356 . S
C183 C185 1.358 . S
C183 H241 0.930 . S
C184 N181 1.314 . S
C184 C182 1.353 . S
C184 H242 0.930 . S
C185 N181 1.279 . S
C185 C183 1.358 . S
C185 H243 0.930 . S
C186 C189 1.348 . S
C186 C190 1.356 . S
C186 O237 1.325 . S
C187 N188 1.279 . S
C187 C190 1.358 . S
C187 H244 0.930 . S
N188 C187 1.279 . S
N188 C191 1.314 . S
C189 C186 1.348 . S
C189 C191 1.353 . S
C189 H245 0.929 . S
C190 C186 1.356 . S
C190 C187 1.358 . S
C190 H246 0.930 . S
C191 N188 1.314 . S
C191 C189 1.353 . S
C191 H247 0.930 . S
C192 N193 1.314 . S
C192 C197 1.353 . S
C192 H198 0.930 . S
N193 Li176 1.990 . S
N193 C192 1.314 . S
N193 C195 1.279 . S
C194 C195 1.358 . S
C194 C196 1.356 . S
C194 H248 0.930 . S
C195 N193 1.279 . S
C195 C194 1.358 . S
C195 H199 0.930 . S
C196 C194 1.356 . S
C196 C197 1.348 . S
C197 C192 1.353 . S
C197 C196 1.348 . S
C197 H249 0.929 . S
H198 C192 0.930 . S
H199 C195 0.930 . S
C200 N201 1.314 . S
C200 C202 1.353 . S
C200 H206 0.930 . S
N201 Li177 1.990 . S
N201 C200 1.314 . S
N201 C204 1.279 . S
C202 C200 1.353 . S
C202 C205 1.348 . S
C202 H250 0.929 . S
C203 C204 1.358 . S
C203 C205 1.356 . S
C203 H251 0.930 . S
C204 N201 1.279 . S
C204 C203 1.358 . S
C204 H207 0.930 . S
C205 C202 1.348 . S
C205 C203 1.356 . S
H206 C200 0.930 . S
H207 C204 0.930 . S
C208 C210 1.348 . S
C208 C211 1.356 . S
C208 O238 1.325 . S
N209 C212 1.314 . S
N209 C213 1.279 . S
C210 C208 1.348 . S
C210 C212 1.353 . S
C210 H252 0.929 . S
C211 C208 1.356 . S
C211 C213 1.358 . S
C211 H253 0.930 . S
C212 N209 1.314 . S
C212 C210 1.353 . S
C212 H254 0.930 . S
C213 N209 1.279 . S
C213 C211 1.358 . S
C213 H255 0.930 . S
C214 C215 1.348 . S
C214 C216 1.356 . S
C214 O239 1.325 . S
C215 C214 1.348 . S
C215 C217 1.353 . S
C215 H256 0.929 . S
C216 C214 1.356 . S
C216 C218 1.358 1_556 S
C216 H257 0.930 . S
C217 C215 1.353 . S
C217 N219 1.314 1_556 S
C217 H258 0.930 . S
C218 C216 1.358 1_554 S
C218 N219 1.279 . S
C218 H259 0.930 . S
N219 C217 1.314 1_554 S
N219 C218 1.279 . S
C220 C222 1.353 . S
C220 N223 1.314 . S
C220 H226 0.930 . S
C221 N223 1.279 . S
C221 C224 1.358 . S
C221 H227 0.930 . S
C222 C220 1.353 . S
C222 C225 1.348 . S
C222 H260 0.929 . S
N223 Li178 1.990 . S
N223 C220 1.314 . S
N223 C221 1.279 . S
C224 C221 1.358 . S
C224 C225 1.356 . S
C224 H261 0.930 . S
C225 C222 1.348 . S
C225 C224 1.356 . S
H226 C220 0.930 . S
H227 C221 0.930 . S
C228 N229 1.314 . S
C228 C230 1.353 . S
C228 H234 0.930 . S
N229 Li179 1.990 . S
N229 C228 1.314 . S
N229 C232 1.279 . S
C230 C228 1.353 . S
C230 C233 1.348 . S
C230 H262 0.929 . S
C231 C232 1.358 . S
C231 C233 1.356 . S
C231 H263 0.930 . S
C232 N229 1.279 . S
C232 C231 1.358 . S
C232 H235 0.930 . S
C233 C230 1.348 . S
C233 C231 1.356 . S
H234 C228 0.930 . S
H235 C232 0.930 . S
O236 Li176 1.956 . S
O236 Li177 1.970 . S
O236 Li178 1.961 . S
O236 C180 1.325 . S
O237 Li176 1.970 . S
O237 Li177 1.956 . S
O237 Li179 1.961 . S
O237 C186 1.325 . S
O238 Li176 1.961 . S
O238 Li178 1.956 . S
O238 Li179 1.970 . S
O238 C208 1.325 . S
O239 Li177 1.961 . S
O239 Li178 1.970 . S
O239 Li179 1.956 . S
O239 C214 1.325 . S
H240 C182 0.929 . S
H241 C183 0.930 . S
H242 C184 0.930 . S
H243 C185 0.930 . S
H244 C187 0.930 . S
H245 C189 0.929 . S
H246 C190 0.930 . S
H247 C191 0.930 . S
H248 C194 0.930 . S
H249 C197 0.929 . S
H250 C202 0.929 . S
H251 C203 0.930 . S
H252 C210 0.929 . S
H253 C211 0.930 . S
H254 C212 0.930 . S
H255 C213 0.930 . S
H256 C215 0.929 . S
H257 C216 0.930 . S
H258 C217 0.930 . S
H259 C218 0.930 . S
H260 C222 0.929 . S
H261 C224 0.930 . S
H262 C230 0.929 . S
H263 C231 0.930 . S
Li264 N281 1.990 . S
Li264 O324 1.956 . S
Li264 O325 1.970 . S
Li264 O326 1.961 . S
Li265 N289 1.990 . S
Li265 O324 1.970 . S
Li265 O325 1.956 . S
Li265 O327 1.961 . S
Li266 N311 1.990 . S
Li266 O324 1.961 . S
Li266 O326 1.956 . S
Li266 O327 1.970 . S
Li267 N317 1.990 . S
Li267 O325 1.961 . S
Li267 O326 1.970 . S
Li267 O327 1.956 . S
C268 C270 1.348 . S
C268 C271 1.356 . S
C268 O324 1.325 . S
N269 C272 1.314 . S
N269 C273 1.279 . S
C270 C268 1.348 . S
C270 C272 1.353 . S
C270 H328 0.929 . S
C271 C268 1.356 . S
C271 C273 1.358 . S
C271 H329 0.930 . S
C272 N269 1.314 . S
C272 C270 1.353 . S
C272 H330 0.930 . S
C273 N269 1.279 . S
C273 C271 1.358 . S
C273 H331 0.930 . S
C274 C277 1.348 . S
C274 C278 1.356 . S
C274 O325 1.325 . S
C275 N276 1.279 . S
C275 C278 1.358 . S
C275 H332 0.930 . S
N276 C275 1.279 . S
N276 C279 1.314 . S
C277 C274 1.348 . S
C277 C279 1.353 . S
C277 H333 0.929 . S
C278 C274 1.356 . S
C278 C275 1.358 . S
C278 H334 0.930 . S
C279 N276 1.314 . S
C279 C277 1.353 . S
C279 H335 0.930 . S
C280 N281 1.314 . S
C280 C285 1.353 . S
C280 H286 0.930 . S
N281 Li264 1.990 . S
N281 C280 1.314 . S
N281 C283 1.279 . S
C282 C283 1.358 . S
C282 C284 1.356 . S
C282 H336 0.930 . S
C283 N281 1.279 . S
C283 C282 1.358 . S
C283 H287 0.930 . S
C284 C282 1.356 . S
C284 C285 1.348 . S
C285 C280 1.353 . S
C285 C284 1.348 . S
C285 H337 0.929 . S
H286 C280 0.930 . S
H287 C283 0.930 . S
C288 N289 1.314 . S
C288 C290 1.353 . S
C288 H294 0.930 . S
N289 Li265 1.990 . S
N289 C288 1.314 . S
N289 C292 1.279 . S
C290 C288 1.353 . S
C290 C293 1.348 . S
C290 H338 0.929 . S
C291 C292 1.358 . S
C291 C293 1.356 . S
C291 H339 0.930 . S
C292 N289 1.279 . S
C292 C291 1.358 . S
C292 H295 0.930 . S
C293 C290 1.348 . S
C293 C291 1.356 . S
H294 C288 0.930 . S
H295 C292 0.930 . S
C296 C298 1.348 . S
C296 C299 1.356 . S
C296 O326 1.325 . S
N297 C300 1.314 . S
N297 C301 1.279 . S
C298 C296 1.348 . S
C298 C300 1.353 . S
C298 H340 0.929 . S
C299 C296 1.356 . S
C299 C301 1.358 . S
C299 H341 0.930 . S
C300 N297 1.314 . S
C300 C298 1.353 . S
C300 H342 0.930 . S
C301 N297 1.279 . S
C301 C299 1.358 . S
C301 H343 0.930 . S
C302 C303 1.348 . S
C302 C304 1.356 . S
C302 O327 1.325 . S
C303 C302 1.348 . S
C303 C305 1.353 . S
C303 H344 0.929 . S
C304 C302 1.356 . S
C304 C306 1.358 . S
C304 H345 0.930 . S
C305 C303 1.353 . S
C305 N307 1.314 . S
C305 H346 0.930 . S
C306 C304 1.358 . S
C306 N307 1.279 . S
C306 H347 0.930 . S
N307 C305 1.314 . S
N307 C306 1.279 . S
C308 C310 1.353 . S
C308 N311 1.314 . S
C308 H314 0.930 . S
C309 N311 1.279 . S
C309 C312 1.358 . S
C309 H315 0.930 . S
C310 C308 1.353 . S
C310 C313 1.348 . S
C310 H348 0.929 . S
N311 Li266 1.990 . S
N311 C308 1.314 . S
N311 C309 1.279 . S
C312 C309 1.358 . S
C312 C313 1.356 . S
C312 H349 0.930 . S
C313 C310 1.348 . S
C313 C312 1.356 . S
H314 C308 0.930 . S
H315 C309 0.930 . S
C316 N317 1.314 . S
C316 C318 1.353 . S
C316 H322 0.930 . S
N317 Li267 1.990 . S
N317 C316 1.314 . S
N317 C320 1.279 . S
C318 C316 1.353 . S
C318 C321 1.348 . S
C318 H350 0.929 . S
C319 C320 1.358 . S
C319 C321 1.356 . S
C319 H351 0.930 . S
C320 N317 1.279 . S
C320 C319 1.358 . S
C320 H323 0.930 . S
C321 C318 1.348 . S
C321 C319 1.356 . S
H322 C316 0.930 . S
H323 C320 0.930 . S
O324 Li264 1.956 . S
O324 Li265 1.970 . S
O324 Li266 1.961 . S
O324 C268 1.325 . S
O325 Li264 1.970 . S
O325 Li265 1.956 . S
O325 Li267 1.961 . S
O325 C274 1.325 . S
O326 Li264 1.961 . S
O326 Li266 1.956 . S
O326 Li267 1.970 . S
O326 C296 1.325 . S
O327 Li265 1.961 . S
O327 Li266 1.970 . S
O327 Li267 1.956 . S
O327 C302 1.325 . S
H328 C270 0.929 . S
H329 C271 0.930 . S
H330 C272 0.930 . S
H331 C273 0.930 . S
H332 C275 0.930 . S
H333 C277 0.929 . S
H334 C278 0.930 . S
H335 C279 0.930 . S
H336 C282 0.930 . S
H337 C285 0.929 . S
H338 C290 0.929 . S
H339 C291 0.930 . S
H340 C298 0.929 . S
H341 C299 0.930 . S
H342 C300 0.930 . S
H343 C301 0.930 . S
H344 C303 0.929 . S
H345 C304 0.930 . S
H346 C305 0.930 . S
H347 C306 0.930 . S
H348 C310 0.929 . S
H349 C312 0.930 . S
H350 C318 0.929 . S
H351 C319 0.930 . S
Li352 N369 1.990 . S
Li352 O412 1.956 . S
Li352 O413 1.970 . S
Li352 O414 1.961 . S
Li353 N377 1.990 . S
Li353 O412 1.970 . S
Li353 O413 1.956 . S
Li353 O415 1.961 . S
Li354 N399 1.990 . S
Li354 O412 1.961 . S
Li354 O414 1.956 . S
Li354 O415 1.970 . S
Li355 N405 1.990 . S
Li355 O413 1.961 . S
Li355 O414 1.970 . S
Li355 O415 1.956 . S
C356 C358 1.348 . S
C356 C359 1.356 . S
C356 O412 1.325 . S
N357 C360 1.314 . S
N357 C361 1.279 . S
C358 C356 1.348 . S
C358 C360 1.353 . S
C358 H416 0.929 . S
C359 C356 1.356 . S
C359 C361 1.358 . S
C359 H417 0.930 . S
C360 N357 1.314 . S
C360 C358 1.353 . S
C360 H418 0.930 . S
C361 N357 1.279 . S
C361 C359 1.358 . S
C361 H419 0.930 . S
C362 C365 1.348 . S
C362 C366 1.356 . S
C362 O413 1.325 . S
C363 N364 1.279 1_556 S
C363 C366 1.358 . S
C363 H420 0.930 . S
N364 C363 1.279 1_554 S
N364 C367 1.314 . S
C365 C362 1.348 . S
C365 C367 1.353 1_556 S
C365 H421 0.929 . S
C366 C362 1.356 . S
C366 C363 1.358 . S
C366 H422 0.930 . S
C367 N364 1.314 . S
C367 C365 1.353 1_554 S
C367 H423 0.930 . S
C368 N369 1.314 . S
C368 C373 1.353 . S
C368 H374 0.930 . S
N369 Li352 1.990 . S
N369 C368 1.314 . S
N369 C371 1.279 . S
C370 C371 1.358 . S
C370 C372 1.356 . S
C370 H424 0.930 . S
C371 N369 1.279 . S
C371 C370 1.358 . S
C371 H375 0.930 . S
C372 C370 1.356 . S
C372 C373 1.348 . S
C373 C368 1.353 . S
C373 C372 1.348 . S
C373 H425 0.929 . S
H374 C368 0.930 . S
H375 C371 0.930 . S
C376 N377 1.314 . S
C376 C378 1.353 . S
C376 H382 0.930 . S
N377 Li353 1.990 . S
N377 C376 1.314 . S
N377 C380 1.279 . S
C378 C376 1.353 . S
C378 C381 1.348 . S
C378 H426 0.929 . S
C379 C380 1.358 . S
C379 C381 1.356 . S
C379 H427 0.930 1_556 S
C380 N377 1.279 . S
C380 C379 1.358 . S
C380 H383 0.930 . S
C381 C378 1.348 . S
C381 C379 1.356 . S
H382 C376 0.930 . S
H383 C380 0.930 . S
C384 C386 1.348 . S
C384 C387 1.356 . S
C384 O414 1.325 . S
N385 C388 1.314 . S
N385 C389 1.279 . S
C386 C384 1.348 . S
C386 C388 1.353 . S
C386 H428 0.929 . S
C387 C384 1.356 . S
C387 C389 1.358 . S
C387 H429 0.930 . S
C388 N385 1.314 . S
C388 C386 1.353 . S
C388 H430 0.930 . S
C389 N385 1.279 . S
C389 C387 1.358 . S
C389 H431 0.930 . S
C390 C391 1.348 . S
C390 C392 1.356 . S
C390 O415 1.325 . S
C391 C390 1.348 . S
C391 C393 1.353 . S
C391 H432 0.929 . S
C392 C390 1.356 . S
C392 C394 1.358 . S
C392 H433 0.930 . S
C393 C391 1.353 . S
C393 N395 1.314 . S
C393 H434 0.930 . S
C394 C392 1.358 . S
C394 N395 1.279 . S
C394 H435 0.930 . S
N395 C393 1.314 . S
N395 C394 1.279 . S
C396 C398 1.353 . S
C396 N399 1.314 . S
C396 H402 0.930 . S
C397 N399 1.279 . S
C397 C400 1.358 . S
C397 H403 0.930 . S
C398 C396 1.353 . S
C398 C401 1.348 . S
C398 H436 0.929 . S
N399 Li354 1.990 . S
N399 C396 1.314 . S
N399 C397 1.279 . S
C400 C397 1.358 . S
C400 C401 1.356 . S
C400 H437 0.930 . S
C401 C398 1.348 . S
C401 C400 1.356 . S
H402 C396 0.930 . S
H403 C397 0.930 . S
C404 N405 1.314 . S
C404 C406 1.353 . S
C404 H410 0.930 . S
N405 Li355 1.990 . S
N405 C404 1.314 . S
N405 C408 1.279 . S
C406 C404 1.353 . S
C406 C409 1.348 . S
C406 H438 0.929 . S
C407 C408 1.358 . S
C407 C409 1.356 . S
C407 H439 0.930 . S
C408 N405 1.279 . S
C408 C407 1.358 . S
C408 H411 0.930 . S
C409 C406 1.348 . S
C409 C407 1.356 . S
H410 C404 0.930 . S
H411 C408 0.930 . S
O412 Li352 1.956 . S
O412 Li353 1.970 . S
O412 Li354 1.961 . S
O412 C356 1.325 . S
O413 Li352 1.970 . S
O413 Li353 1.956 . S
O413 Li355 1.961 . S
O413 C362 1.325 . S
O414 Li352 1.961 . S
O414 Li354 1.956 . S
O414 Li355 1.970 . S
O414 C384 1.325 . S
O415 Li353 1.961 . S
O415 Li354 1.970 . S
O415 Li355 1.956 . S
O415 C390 1.325 . S
H416 C358 0.929 . S
H417 C359 0.930 . S
H418 C360 0.930 . S
H419 C361 0.930 . S
H420 C363 0.930 . S
H421 C365 0.929 . S
H422 C366 0.930 . S
H423 C367 0.930 . S
H424 C370 0.930 . S
H425 C373 0.929 . S
H426 C378 0.929 . S
H427 C379 0.930 1_554 S
H428 C386 0.929 . S
H429 C387 0.930 . S
H430 C388 0.930 . S
H431 C389 0.930 . S
H432 C391 0.929 . S
H433 C392 0.930 . S
H434 C393 0.930 . S
H435 C394 0.930 . S
H436 C398 0.929 . S
H437 C400 0.930 . S
H438 C406 0.929 . S
H439 C407 0.930 . S
Li440 N457 1.990 . S
Li440 O500 1.956 . S
Li440 O501 1.970 . S
Li440 O502 1.961 . S
Li441 N465 1.990 . S
Li441 O500 1.970 . S
Li441 O501 1.956 . S
Li441 O503 1.961 . S
Li442 N487 1.990 . S
Li442 O500 1.961 . S
Li442 O502 1.956 . S
Li442 O503 1.970 . S
Li443 N493 1.990 . S
Li443 O501 1.961 . S
Li443 O502 1.970 . S
Li443 O503 1.956 . S
C444 C446 1.348 . S
C444 C447 1.356 . S
C444 O500 1.325 . S
N445 C448 1.314 . S
N445 C449 1.279 . S
C446 C444 1.348 . S
C446 C448 1.353 . S
C446 H504 0.929 . S
C447 C444 1.356 . S
C447 C449 1.358 . S
C447 H505 0.930 . S
C448 N445 1.314 . S
C448 C446 1.353 . S
C448 H506 0.930 . S
C449 N445 1.279 . S
C449 C447 1.358 . S
C449 H507 0.930 . S
C450 C453 1.348 . S
C450 C454 1.356 . S
C450 O501 1.325 . S
C451 N452 1.279 . S
C451 C454 1.358 . S
C451 H508 0.930 . S
N452 C451 1.279 . S
N452 C455 1.314 . S
C453 C450 1.348 . S
C453 C455 1.353 . S
C453 H509 0.929 . S
C454 C450 1.356 . S
C454 C451 1.358 . S
C454 H510 0.930 . S
C455 N452 1.314 . S
C455 C453 1.353 . S
C455 H511 0.930 . S
C456 N457 1.314 . S
C456 C461 1.353 . S
C456 H462 0.930 . S
N457 Li440 1.990 . S
N457 C456 1.314 . S
N457 C459 1.279 . S
C458 C459 1.358 . S
C458 C460 1.356 . S
C458 H512 0.930 . S
C459 N457 1.279 . S
C459 C458 1.358 . S
C459 H463 0.930 . S
C460 C458 1.356 . S
C460 C461 1.348 . S
C461 C456 1.353 . S
C461 C460 1.348 . S
C461 H513 0.929 . S
H462 C456 0.930 . S
H463 C459 0.930 . S
C464 N465 1.314 . S
C464 C466 1.353 . S
C464 H470 0.930 . S
N465 Li441 1.990 . S
N465 C464 1.314 . S
N465 C468 1.279 . S
C466 C464 1.353 . S
C466 C469 1.348 . S
C466 H514 0.929 . S
C467 C468 1.358 . S
C467 C469 1.356 . S
C467 H515 0.930 . S
C468 N465 1.279 . S
C468 C467 1.358 . S
C468 H471 0.930 . S
C469 C466 1.348 . S
C469 C467 1.356 . S
H470 C464 0.930 . S
H471 C468 0.930 . S
C472 C474 1.348 . S
C472 C475 1.356 . S
C472 O502 1.325 . S
N473 C476 1.314 . S
N473 C477 1.279 . S
C474 C472 1.348 . S
C474 C476 1.353 . S
C474 H516 0.929 . S
C475 C472 1.356 . S
C475 C477 1.358 . S
C475 H517 0.930 . S
C476 N473 1.314 . S
C476 C474 1.353 . S
C476 H518 0.930 . S
C477 N473 1.279 . S
C477 C475 1.358 . S
C477 H519 0.930 . S
C478 C479 1.348 . S
C478 C480 1.356 . S
C478 O503 1.325 . S
C479 C478 1.348 . S
C479 C481 1.353 . S
C479 H520 0.929 . S
C480 C478 1.356 . S
C480 C482 1.358 . S
C480 H521 0.930 . S
C481 C479 1.353 . S
C481 N483 1.314 . S
C481 H522 0.930 . S
C482 C480 1.358 . S
C482 N483 1.279 . S
C482 H523 0.930 . S
N483 C481 1.314 . S
N483 C482 1.279 . S
C484 C486 1.353 . S
C484 N487 1.314 . S
C484 H490 0.930 . S
C485 N487 1.279 . S
C485 C488 1.358 . S
C485 H491 0.930 . S
C486 C484 1.353 . S
C486 C489 1.348 . S
C486 H524 0.929 . S
N487 Li442 1.990 . S
N487 C484 1.314 . S
N487 C485 1.279 . S
C488 C485 1.358 . S
C488 C489 1.356 . S
C488 H525 0.930 . S
C489 C486 1.348 . S
C489 C488 1.356 . S
H490 C484 0.930 . S
H491 C485 0.930 . S
C492 N493 1.314 . S
C492 C494 1.353 . S
C492 H498 0.930 . S
N493 Li443 1.990 . S
N493 C492 1.314 . S
N493 C496 1.279 . S
C494 C492 1.353 . S
C494 C497 1.348 . S
C494 H526 0.929 . S
C495 C496 1.358 . S
C495 C497 1.356 . S
C495 H527 0.930 . S
C496 N493 1.279 . S
C496 C495 1.358 . S
C496 H499 0.930 . S
C497 C494 1.348 . S
C497 C495 1.356 . S
H498 C492 0.930 . S
H499 C496 0.930 . S
O500 Li440 1.956 . S
O500 Li441 1.970 . S
O500 Li442 1.961 . S
O500 C444 1.325 . S
O501 Li440 1.970 . S
O501 Li441 1.956 . S
O501 Li443 1.961 . S
O501 C450 1.325 . S
O502 Li440 1.961 . S
O502 Li442 1.956 . S
O502 Li443 1.970 . S
O502 C472 1.325 . S
O503 Li441 1.961 . S
O503 Li442 1.970 . S
O503 Li443 1.956 . S
O503 C478 1.325 . S
H504 C446 0.929 . S
H505 C447 0.930 . S
H506 C448 0.930 . S
H507 C449 0.930 . S
H508 C451 0.930 . S
H509 C453 0.929 . S
H510 C454 0.930 . S
H511 C455 0.930 . S
H512 C458 0.930 . S
H513 C461 0.929 . S
H514 C466 0.929 . S
H515 C467 0.930 . S
H516 C474 0.929 . S
H517 C475 0.930 . S
H518 C476 0.930 . S
H519 C477 0.930 . S
H520 C479 0.929 . S
H521 C480 0.930 . S
H522 C481 0.930 . S
H523 C482 0.930 . S
H524 C486 0.929 . S
H525 C488 0.930 . S
H526 C494 0.929 . S
H527 C495 0.930 . S
Li528 N545 1.990 . S
Li528 O588 1.956 . S
Li528 O589 1.970 . S
Li528 O590 1.961 . S
Li529 N553 1.990 . S
Li529 O588 1.970 . S
Li529 O589 1.956 . S
Li529 O591 1.961 . S
Li530 N575 1.990 . S
Li530 O588 1.961 . S
Li530 O590 1.956 . S
Li530 O591 1.970 . S
Li531 N581 1.990 . S
Li531 O589 1.961 . S
Li531 O590 1.970 . S
Li531 O591 1.956 . S
C532 C534 1.348 . S
C532 C535 1.356 . S
C532 O588 1.325 . S
N533 C536 1.314 . S
N533 C537 1.279 . S
C534 C532 1.348 . S
C534 C536 1.353 . S
C534 H592 0.929 . S
C535 C532 1.356 . S
C535 C537 1.358 . S
C535 H593 0.930 . S
C536 N533 1.314 . S
C536 C534 1.353 . S
C536 H594 0.930 . S
C537 N533 1.279 . S
C537 C535 1.358 . S
C537 H595 0.930 . S
C538 C541 1.348 . S
C538 C542 1.356 . S
C538 O589 1.325 . S
C539 N540 1.279 . S
C539 C542 1.358 . S
C539 H596 0.930 . S
N540 C539 1.279 . S
N540 C543 1.314 . S
C541 C538 1.348 . S
C541 C543 1.353 . S
C541 H597 0.929 . S
C542 C538 1.356 . S
C542 C539 1.358 . S
C542 H598 0.930 . S
C543 N540 1.314 . S
C543 C541 1.353 . S
C543 H599 0.930 . S
C544 N545 1.314 . S
C544 C549 1.353 . S
C544 H550 0.930 . S
N545 Li528 1.990 . S
N545 C544 1.314 . S
N545 C547 1.279 . S
C546 C547 1.358 . S
C546 C548 1.356 . S
C546 H600 0.930 . S
C547 N545 1.279 . S
C547 C546 1.358 . S
C547 H551 0.930 . S
C548 C546 1.356 . S
C548 C549 1.348 . S
C549 C544 1.353 . S
C549 C548 1.348 . S
C549 H601 0.929 . S
H550 C544 0.930 . S
H551 C547 0.930 . S
C552 N553 1.314 . S
C552 C554 1.353 . S
C552 H558 0.930 . S
N553 Li529 1.990 . S
N553 C552 1.314 . S
N553 C556 1.279 . S
C554 C552 1.353 . S
C554 C557 1.348 . S
C554 H602 0.929 . S
C555 C556 1.358 . S
C555 C557 1.356 . S
C555 H603 0.930 . S
C556 N553 1.279 . S
C556 C555 1.358 . S
C556 H559 0.930 . S
C557 C554 1.348 . S
C557 C555 1.356 . S
H558 C552 0.930 . S
H559 C556 0.930 . S
C560 C562 1.348 . S
C560 C563 1.356 . S
C560 O590 1.325 . S
N561 C564 1.314 . S
N561 C565 1.279 1_556 S
C562 C560 1.348 . S
C562 C564 1.353 1_554 S
C562 H604 0.929 . S
C563 C560 1.356 . S
C563 C565 1.358 . S
C563 H605 0.930 . S
C564 N561 1.314 . S
C564 C562 1.353 1_556 S
C564 H606 0.930 . S
C565 N561 1.279 1_554 S
C565 C563 1.358 . S
C565 H607 0.930 . S
C566 C567 1.348 . S
C566 C568 1.356 . S
C566 O591 1.325 . S
C567 C566 1.348 . S
C567 C569 1.353 . S
C567 H608 0.929 . S
C568 C566 1.356 . S
C568 C570 1.358 . S
C568 H609 0.930 . S
C569 C567 1.353 . S
C569 N571 1.314 . S
C569 H610 0.930 . S
C570 C568 1.358 . S
C570 N571 1.279 . S
C570 H611 0.930 . S
N571 C569 1.314 . S
N571 C570 1.279 . S
C572 C574 1.353 . S
C572 N575 1.314 . S
C572 H578 0.930 . S
C573 N575 1.279 . S
C573 C576 1.358 . S
C573 H579 0.930 . S
C574 C572 1.353 . S
C574 C577 1.348 . S
C574 H612 0.929 . S
N575 Li530 1.990 . S
N575 C572 1.314 . S
N575 C573 1.279 . S
C576 C573 1.358 . S
C576 C577 1.356 . S
C576 H613 0.930 1_554 S
C577 C574 1.348 . S
C577 C576 1.356 . S
H578 C572 0.930 . S
H579 C573 0.930 . S
C580 N581 1.314 . S
C580 C582 1.353 . S
C580 H586 0.930 . S
N581 Li531 1.990 . S
N581 C580 1.314 . S
N581 C584 1.279 . S
C582 C580 1.353 . S
C582 C585 1.348 . S
C582 H614 0.929 . S
C583 C584 1.358 . S
C583 C585 1.356 . S
C583 H615 0.930 . S
C584 N581 1.279 . S
C584 C583 1.358 . S
C584 H587 0.930 . S
C585 C582 1.348 . S
C585 C583 1.356 . S
H586 C580 0.930 . S
H587 C584 0.930 . S
O588 Li528 1.956 . S
O588 Li529 1.970 . S
O588 Li530 1.961 . S
O588 C532 1.325 . S
O589 Li528 1.970 . S
O589 Li529 1.956 . S
O589 Li531 1.961 . S
O589 C538 1.325 . S
O590 Li528 1.961 . S
O590 Li530 1.956 . S
O590 Li531 1.970 . S
O590 C560 1.325 . S
O591 Li529 1.961 . S
O591 Li530 1.970 . S
O591 Li531 1.956 . S
O591 C566 1.325 . S
H592 C534 0.929 . S
H593 C535 0.930 . S
H594 C536 0.930 . S
H595 C537 0.930 . S
H596 C539 0.930 . S
H597 C541 0.929 . S
H598 C542 0.930 . S
H599 C543 0.930 . S
H600 C546 0.930 . S
H601 C549 0.929 . S
H602 C554 0.929 . S
H603 C555 0.930 . S
H604 C562 0.929 . S
H605 C563 0.930 . S
H606 C564 0.930 . S
H607 C565 0.930 . S
H608 C567 0.929 . S
H609 C568 0.930 . S
H610 C569 0.930 . S
H611 C570 0.930 . S
H612 C574 0.929 . S
H613 C576 0.930 1_556 S
H614 C582 0.929 . S
H615 C583 0.930 . S
Li616 N633 1.990 . S
Li616 O676 1.956 . S
Li616 O677 1.970 . S
Li616 O678 1.961 . S
Li617 N641 1.990 . S
Li617 O676 1.970 . S
Li617 O677 1.956 . S
Li617 O679 1.961 . S
Li618 N663 1.990 . S
Li618 O676 1.961 . S
Li618 O678 1.956 . S
Li618 O679 1.970 . S
Li619 N669 1.990 . S
Li619 O677 1.961 . S
Li619 O678 1.970 . S
Li619 O679 1.956 . S
C620 C622 1.348 . S
C620 C623 1.356 . S
C620 O676 1.325 . S
N621 C624 1.314 . S
N621 C625 1.279 . S
C622 C620 1.348 . S
C622 C624 1.353 . S
C622 H680 0.929 . S
C623 C620 1.356 . S
C623 C625 1.358 . S
C623 H681 0.930 . S
C624 N621 1.314 . S
C624 C622 1.353 . S
C624 H682 0.930 . S
C625 N621 1.279 . S
C625 C623 1.358 . S
C625 H683 0.930 . S
C626 C629 1.348 . S
C626 C630 1.356 . S
C626 O677 1.325 . S
C627 N628 1.279 . S
C627 C630 1.358 . S
C627 H684 0.930 . S
N628 C627 1.279 . S
N628 C631 1.314 . S
C629 C626 1.348 . S
C629 C631 1.353 . S
C629 H685 0.929 . S
C630 C626 1.356 . S
C630 C627 1.358 . S
C630 H686 0.930 . S
C631 N628 1.314 . S
C631 C629 1.353 . S
C631 H687 0.930 . S
C632 N633 1.314 . S
C632 C637 1.353 . S
C632 H638 0.930 . S
N633 Li616 1.990 . S
N633 C632 1.314 . S
N633 C635 1.279 . S
C634 C635 1.358 . S
C634 C636 1.356 . S
C634 H688 0.930 . S
C635 N633 1.279 . S
C635 C634 1.358 . S
C635 H639 0.930 . S
C636 C634 1.356 . S
C636 C637 1.348 . S
C637 C632 1.353 . S
C637 C636 1.348 . S
C637 H689 0.929 . S
H638 C632 0.930 . S
H639 C635 0.930 . S
C640 N641 1.314 . S
C640 C642 1.353 . S
C640 H646 0.930 . S
N641 Li617 1.990 . S
N641 C640 1.314 . S
N641 C644 1.279 . S
C642 C640 1.353 . S
C642 C645 1.348 . S
C642 H690 0.929 . S
C643 C644 1.358 . S
C643 C645 1.356 . S
C643 H691 0.930 . S
C644 N641 1.279 . S
C644 C643 1.358 . S
C644 H647 0.930 . S
C645 C642 1.348 . S
C645 C643 1.356 . S
H646 C640 0.930 . S
H647 C644 0.930 . S
C648 C650 1.348 . S
C648 C651 1.356 . S
C648 O678 1.325 . S
N649 C652 1.314 . S
N649 C653 1.279 . S
C650 C648 1.348 . S
C650 C652 1.353 . S
C650 H692 0.929 . S
C651 C648 1.356 . S
C651 C653 1.358 . S
C651 H693 0.930 . S
C652 N649 1.314 . S
C652 C650 1.353 . S
C652 H694 0.930 . S
C653 N649 1.279 . S
C653 C651 1.358 . S
C653 H695 0.930 . S
C654 C655 1.348 . S
C654 C656 1.356 . S
C654 O679 1.325 . S
C655 C654 1.348 . S
C655 C657 1.353 . S
C655 H696 0.929 . S
C656 C654 1.356 . S
C656 C658 1.358 . S
C656 H697 0.930 . S
C657 C655 1.353 . S
C657 N659 1.314 . S
C657 H698 0.930 . S
C658 C656 1.358 . S
C658 N659 1.279 . S
C658 H699 0.930 . S
N659 C657 1.314 . S
N659 C658 1.279 . S
C660 C662 1.353 . S
C660 N663 1.314 . S
C660 H666 0.930 . S
C661 N663 1.279 . S
C661 C664 1.358 . S
C661 H667 0.930 . S
C662 C660 1.353 . S
C662 C665 1.348 . S
C662 H700 0.929 . S
N663 Li618 1.990 . S
N663 C660 1.314 . S
N663 C661 1.279 . S
C664 C661 1.358 . S
C664 C665 1.356 . S
C664 H701 0.930 . S
C665 C662 1.348 . S
C665 C664 1.356 . S
H666 C660 0.930 . S
H667 C661 0.930 . S
C668 N669 1.314 . S
C668 C670 1.353 . S
C668 H674 0.930 . S
N669 Li619 1.990 . S
N669 C668 1.314 . S
N669 C672 1.279 . S
C670 C668 1.353 . S
C670 C673 1.348 . S
C670 H702 0.929 . S
C671 C672 1.358 . S
C671 C673 1.356 . S
C671 H703 0.930 . S
C672 N669 1.279 . S
C672 C671 1.358 . S
C672 H675 0.930 . S
C673 C670 1.348 . S
C673 C671 1.356 . S
H674 C668 0.930 . S
H675 C672 0.930 . S
O676 Li616 1.956 . S
O676 Li617 1.970 . S
O676 Li618 1.961 . S
O676 C620 1.325 . S
O677 Li616 1.970 . S
O677 Li617 1.956 . S
O677 Li619 1.961 . S
O677 C626 1.325 . S
O678 Li616 1.961 . S
O678 Li618 1.956 . S
O678 Li619 1.970 . S
O678 C648 1.325 . S
O679 Li617 1.961 . S
O679 Li618 1.970 . S
O679 Li619 1.956 . S
O679 C654 1.325 . S
H680 C622 0.929 . S
H681 C623 0.930 . S
H682 C624 0.930 . S
H683 C625 0.930 . S
H684 C627 0.930 . S
H685 C629 0.929 . S
H686 C630 0.930 . S
H687 C631 0.930 . S
H688 C634 0.930 . S
H689 C637 0.929 . S
H690 C642 0.929 . S
H691 C643 0.930 . S
H692 C650 0.929 . S
H693 C651 0.930 . S
H694 C652 0.930 . S
H695 C653 0.930 . S
H696 C655 0.929 . S
H697 C656 0.930 . S
H698 C657 0.930 . S
H699 C658 0.930 . S
H700 C662 0.929 . S
H701 C664 0.930 . S
H702 C670 0.929 . S
H703 C671 0.930 . S
Li704 N721 1.990 . S
Li704 O764 1.956 . S
Li704 O765 1.970 . S
Li704 O766 1.961 . S
Li705 N729 1.990 . S
Li705 O764 1.970 . S
Li705 O765 1.956 . S
Li705 O767 1.961 . S
Li706 N751 1.990 . S
Li706 O764 1.961 . S
Li706 O766 1.956 . S
Li706 O767 1.970 . S
Li707 N757 1.990 . S
Li707 O765 1.961 . S
Li707 O766 1.970 . S
Li707 O767 1.956 . S
C708 C710 1.348 . S
C708 C711 1.356 . S
C708 O764 1.325 . S
N709 C712 1.314 1_556 S
N709 C713 1.279 . S
C710 C708 1.348 . S
C710 C712 1.353 . S
C710 H768 0.929 . S
C711 C708 1.356 . S
C711 C713 1.358 1_554 S
C711 H769 0.930 . S
C712 N709 1.314 1_554 S
C712 C710 1.353 . S
C712 H770 0.930 . S
C713 N709 1.279 . S
C713 C711 1.358 1_556 S
C713 H771 0.930 . S
C714 C717 1.348 . S
C714 C718 1.356 . S
C714 O765 1.325 . S
C715 N716 1.279 . S
C715 C718 1.358 . S
C715 H772 0.930 . S
N716 C715 1.279 . S
N716 C719 1.314 . S
C717 C714 1.348 . S
C717 C719 1.353 . S
C717 H773 0.929 . S
C718 C714 1.356 . S
C718 C715 1.358 . S
C718 H774 0.930 . S
C719 N716 1.314 . S
C719 C717 1.353 . S
C719 H775 0.930 . S
C720 N721 1.314 . S
C720 C725 1.353 . S
C720 H726 0.930 . S
N721 Li704 1.990 . S
N721 C720 1.314 . S
N721 C723 1.279 . S
C722 C723 1.358 . S
C722 C724 1.356 . S
C722 H776 0.930 . S
C723 N721 1.279 . S
C723 C722 1.358 . S
C723 H727 0.930 . S
C724 C722 1.356 . S
C724 C725 1.348 . S
C725 C720 1.353 . S
C725 C724 1.348 . S
C725 H777 0.929 . S
H726 C720 0.930 . S
H727 C723 0.930 . S
C728 N729 1.314 . S
C728 C730 1.353 . S
C728 H734 0.930 . S
N729 Li705 1.990 . S
N729 C728 1.314 . S
N729 C732 1.279 . S
C730 C728 1.353 . S
C730 C733 1.348 . S
C730 H778 0.929 . S
C731 C732 1.358 . S
C731 C733 1.356 . S
C731 H779 0.930 . S
C732 N729 1.279 . S
C732 C731 1.358 . S
C732 H735 0.930 . S
C733 C730 1.348 . S
C733 C731 1.356 . S
H734 C728 0.930 . S
H735 C732 0.930 . S
C736 C738 1.348 . S
C736 C739 1.356 . S
C736 O766 1.325 . S
N737 C740 1.314 . S
N737 C741 1.279 . S
C738 C736 1.348 . S
C738 C740 1.353 . S
C738 H780 0.929 . S
C739 C736 1.356 . S
C739 C741 1.358 . S
C739 H781 0.930 . S
C740 N737 1.314 . S
C740 C738 1.353 . S
C740 H782 0.930 . S
C741 N737 1.279 . S
C741 C739 1.358 . S
C741 H783 0.930 . S
C742 C743 1.348 . S
C742 C744 1.356 . S
C742 O767 1.325 . S
C743 C742 1.348 . S
C743 C745 1.353 . S
C743 H784 0.929 . S
C744 C742 1.356 . S
C744 C746 1.358 . S
C744 H785 0.930 . S
C745 C743 1.353 . S
C745 N747 1.314 . S
C745 H786 0.930 . S
C746 C744 1.358 . S
C746 N747 1.279 . S
C746 H787 0.930 . S
N747 C745 1.314 . S
N747 C746 1.279 . S
C748 C750 1.353 . S
C748 N751 1.314 . S
C748 H754 0.930 . S
C749 N751 1.279 . S
C749 C752 1.358 . S
C749 H755 0.930 . S
C750 C748 1.353 . S
C750 C753 1.348 . S
C750 H788 0.929 . S
N751 Li706 1.990 . S
N751 C748 1.314 . S
N751 C749 1.279 . S
C752 C749 1.358 . S
C752 C753 1.356 . S
C752 H789 0.930 . S
C753 C750 1.348 . S
C753 C752 1.356 . S
H754 C748 0.930 . S
H755 C749 0.930 . S
C756 N757 1.314 . S
C756 C758 1.353 . S
C756 H762 0.930 . S
N757 Li707 1.990 . S
N757 C756 1.314 . S
N757 C760 1.279 . S
C758 C756 1.353 . S
C758 C761 1.348 . S
C758 H790 0.929 . S
C759 C760 1.358 . S
C759 C761 1.356 . S
C759 H791 0.930 . S
C760 N757 1.279 . S
C760 C759 1.358 . S
C760 H763 0.930 . S
C761 C758 1.348 . S
C761 C759 1.356 . S
H762 C756 0.930 . S
H763 C760 0.930 . S
O764 Li704 1.956 . S
O764 Li705 1.970 . S
O764 Li706 1.961 . S
O764 C708 1.325 . S
O765 Li704 1.970 . S
O765 Li705 1.956 . S
O765 Li707 1.961 . S
O765 C714 1.325 . S
O766 Li704 1.961 . S
O766 Li706 1.956 . S
O766 Li707 1.970 . S
O766 C736 1.325 . S
O767 Li705 1.961 . S
O767 Li706 1.970 . S
O767 Li707 1.956 . S
O767 C742 1.325 . S
H768 C710 0.929 . S
H769 C711 0.930 . S
H770 C712 0.930 . S
H771 C713 0.930 . S
H772 C715 0.930 . S
H773 C717 0.929 . S
H774 C718 0.930 . S
H775 C719 0.930 . S
H776 C722 0.930 . S
H777 C725 0.929 . S
H778 C730 0.929 . S
H779 C731 0.930 . S
H780 C738 0.929 . S
H781 C739 0.930 . S
H782 C740 0.930 . S
H783 C741 0.930 . S
H784 C743 0.929 . S
H785 C744 0.930 . S
H786 C745 0.930 . S
H787 C746 0.930 . S
H788 C750 0.929 . S
H789 C752 0.930 . S
H790 C758 0.929 . S
H791 C759 0.930 . S
Li792 N809 1.990 . S
Li792 O852 1.956 . S
Li792 O853 1.970 . S
Li792 O854 1.961 . S
Li793 N817 1.990 . S
Li793 O852 1.970 . S
Li793 O853 1.956 . S
Li793 O855 1.961 . S
Li794 N839 1.990 . S
Li794 O852 1.961 . S
Li794 O854 1.956 . S
Li794 O855 1.970 . S
Li795 N845 1.990 . S
Li795 O853 1.961 . S
Li795 O854 1.970 . S
Li795 O855 1.956 . S
C796 C798 1.348 . S
C796 C799 1.356 . S
C796 O852 1.325 . S
N797 C800 1.314 . S
N797 C801 1.279 . S
C798 C796 1.348 . S
C798 C800 1.353 . S
C798 H856 0.929 . S
C799 C796 1.356 . S
C799 C801 1.358 . S
C799 H857 0.930 . S
C800 N797 1.314 . S
C800 C798 1.353 . S
C800 H858 0.930 . S
C801 N797 1.279 . S
C801 C799 1.358 . S
C801 H859 0.930 . S
C802 C805 1.348 . S
C802 C806 1.356 . S
C802 O853 1.325 . S
C803 N804 1.279 . S
C803 C806 1.358 . S
C803 H860 0.930 . S
N804 C803 1.279 . S
N804 C807 1.314 . S
C805 C802 1.348 . S
C805 C807 1.353 . S
C805 H861 0.929 . S
C806 C802 1.356 . S
C806 C803 1.358 . S
C806 H862 0.930 . S
C807 N804 1.314 . S
C807 C805 1.353 . S
C807 H863 0.930 . S
C808 N809 1.314 . S
C808 C813 1.353 . S
C808 H814 0.930 . S
N809 Li792 1.990 . S
N809 C808 1.314 . S
N809 C811 1.279 . S
C810 C811 1.358 . S
C810 C812 1.356 . S
C810 H864 0.930 . S
C811 N809 1.279 . S
C811 C810 1.358 . S
C811 H815 0.930 . S
C812 C810 1.356 . S
C812 C813 1.348 . S
C813 C808 1.353 . S
C813 C812 1.348 . S
C813 H865 0.929 . S
H814 C808 0.930 . S
H815 C811 0.930 . S
C816 N817 1.314 . S
C816 C818 1.353 . S
C816 H822 0.930 . S
N817 Li793 1.990 . S
N817 C816 1.314 . S
N817 C820 1.279 . S
C818 C816 1.353 . S
C818 C821 1.348 . S
C818 H866 0.929 . S
C819 C820 1.358 . S
C819 C821 1.356 . S
C819 H867 0.930 . S
C820 N817 1.279 . S
C820 C819 1.358 . S
C820 H823 0.930 . S
C821 C818 1.348 . S
C821 C819 1.356 . S
H822 C816 0.930 . S
H823 C820 0.930 . S
C824 C826 1.348 . S
C824 C827 1.356 . S
C824 O854 1.325 . S
N825 C828 1.314 . S
N825 C829 1.279 . S
C826 C824 1.348 . S
C826 C828 1.353 . S
C826 H868 0.929 . S
C827 C824 1.356 . S
C827 C829 1.358 . S
C827 H869 0.930 . S
C828 N825 1.314 . S
C828 C826 1.353 . S
C828 H870 0.930 . S
C829 N825 1.279 . S
C829 C827 1.358 . S
C829 H871 0.930 . S
C830 C831 1.348 . S
C830 C832 1.356 . S
C830 O855 1.325 . S
C831 C830 1.348 . S
C831 C833 1.353 . S
C831 H872 0.929 . S
C832 C830 1.356 . S
C832 C834 1.358 . S
C832 H873 0.930 . S
C833 C831 1.353 . S
C833 N835 1.314 . S
C833 H874 0.930 . S
C834 C832 1.358 . S
C834 N835 1.279 . S
C834 H875 0.930 . S
N835 C833 1.314 . S
N835 C834 1.279 . S
C836 C838 1.353 . S
C836 N839 1.314 . S
C836 H842 0.930 . S
C837 N839 1.279 . S
C837 C840 1.358 . S
C837 H843 0.930 . S
C838 C836 1.353 . S
C838 C841 1.348 . S
C838 H876 0.929 . S
N839 Li794 1.990 . S
N839 C836 1.314 . S
N839 C837 1.279 . S
C840 C837 1.358 . S
C840 C841 1.356 . S
C840 H877 0.930 . S
C841 C838 1.348 . S
C841 C840 1.356 . S
H842 C836 0.930 . S
H843 C837 0.930 . S
C844 N845 1.314 . S
C844 C846 1.353 . S
C844 H850 0.930 . S
N845 Li795 1.990 . S
N845 C844 1.314 . S
N845 C848 1.279 . S
C846 C844 1.353 . S
C846 C849 1.348 . S
C846 H878 0.929 . S
C847 C848 1.358 . S
C847 C849 1.356 . S
C847 H879 0.930 . S
C848 N845 1.279 . S
C848 C847 1.358 . S
C848 H851 0.930 . S
C849 C846 1.348 . S
C849 C847 1.356 . S
H850 C844 0.930 . S
H851 C848 0.930 . S
O852 Li792 1.956 . S
O852 Li793 1.970 . S
O852 Li794 1.961 . S
O852 C796 1.325 . S
O853 Li792 1.970 . S
O853 Li793 1.956 . S
O853 Li795 1.961 . S
O853 C802 1.325 . S
O854 Li792 1.961 . S
O854 Li794 1.956 . S
O854 Li795 1.970 . S
O854 C824 1.325 . S
O855 Li793 1.961 . S
O855 Li794 1.970 . S
O855 Li795 1.956 . S
O855 C830 1.325 . S
H856 C798 0.929 . S
H857 C799 0.930 . S
H858 C800 0.930 . S
H859 C801 0.930 . S
H860 C803 0.930 . S
H861 C805 0.929 . S
H862 C806 0.930 . S
H863 C807 0.930 . S
H864 C810 0.930 . S
H865 C813 0.929 . S
H866 C818 0.929 . S
H867 C819 0.930 . S
H868 C826 0.929 . S
H869 C827 0.930 . S
H870 C828 0.930 . S
H871 C829 0.930 . S
H872 C831 0.929 . S
H873 C832 0.930 . S
H874 C833 0.930 . S
H875 C834 0.930 . S
H876 C838 0.929 . S
H877 C840 0.930 . S
H878 C846 0.929 . S
H879 C847 0.930 . S
Li880 N897 1.990 . S
Li880 O940 1.956 . S
Li880 O941 1.970 . S
Li880 O942 1.961 . S
Li881 N905 1.990 . S
Li881 O940 1.970 . S
Li881 O941 1.956 . S
Li881 O943 1.961 . S
Li882 N927 1.990 . S
Li882 O940 1.961 . S
Li882 O942 1.956 . S
Li882 O943 1.970 . S
Li883 N933 1.990 . S
Li883 O941 1.961 . S
Li883 O942 1.970 . S
Li883 O943 1.956 . S
C884 C886 1.348 . S
C884 C887 1.356 . S
C884 O940 1.325 . S
N885 C888 1.314 . S
N885 C889 1.279 . S
C886 C884 1.348 . S
C886 C888 1.353 . S
C886 H944 0.929 . S
C887 C884 1.356 . S
C887 C889 1.358 . S
C887 H945 0.930 . S
C888 N885 1.314 . S
C888 C886 1.353 . S
C888 H946 0.930 . S
C889 N885 1.279 . S
C889 C887 1.358 . S
C889 H947 0.930 . S
C890 C893 1.348 . S
C890 C894 1.356 . S
C890 O941 1.325 . S
C891 N892 1.279 . S
C891 C894 1.358 . S
C891 H948 0.930 . S
N892 C891 1.279 . S
N892 C895 1.314 . S
C893 C890 1.348 . S
C893 C895 1.353 . S
C893 H949 0.929 . S
C894 C890 1.356 . S
C894 C891 1.358 . S
C894 H950 0.930 . S
C895 N892 1.314 . S
C895 C893 1.353 . S
C895 H951 0.930 . S
C896 N897 1.314 . S
C896 C901 1.353 . S
C896 H902 0.930 . S
N897 Li880 1.990 . S
N897 C896 1.314 . S
N897 C899 1.279 . S
C898 C899 1.358 . S
C898 C900 1.356 . S
C898 H952 0.930 . S
C899 N897 1.279 . S
C899 C898 1.358 . S
C899 H903 0.930 . S
C900 C898 1.356 . S
C900 C901 1.348 . S
C901 C896 1.353 . S
C901 C900 1.348 . S
C901 H953 0.929 . S
H902 C896 0.930 . S
H903 C899 0.930 . S
C904 N905 1.314 . S
C904 C906 1.353 . S
C904 H910 0.930 . S
N905 Li881 1.990 . S
N905 C904 1.314 . S
N905 C908 1.279 . S
C906 C904 1.353 . S
C906 C909 1.348 . S
C906 H954 0.929 . S
C907 C908 1.358 . S
C907 C909 1.356 . S
C907 H955 0.930 . S
C908 N905 1.279 . S
C908 C907 1.358 . S
C908 H911 0.930 . S
C909 C906 1.348 . S
C909 C907 1.356 . S
H910 C904 0.930 . S
H911 C908 0.930 . S
C912 C914 1.348 . S
C912 C915 1.356 . S
C912 O942 1.325 . S
N913 C916 1.314 . S
N913 C917 1.279 . S
C914 C912 1.348 . S
C914 C916 1.353 . S
C914 H956 0.929 . S
C915 C912 1.356 . S
C915 C917 1.358 . S
C915 H957 0.930 . S
C916 N913 1.314 . S
C916 C914 1.353 . S
C916 H958 0.930 . S
C917 N913 1.279 . S
C917 C915 1.358 . S
C917 H959 0.930 . S
C918 C919 1.348 . S
C918 C920 1.356 . S
C918 O943 1.325 . S
C919 C918 1.348 . S
C919 C921 1.353 . S
C919 H960 0.929 . S
C920 C918 1.356 . S
C920 C922 1.358 1_556 S
C920 H961 0.930 . S
C921 C919 1.353 . S
C921 N923 1.314 1_556 S
C921 H962 0.930 . S
C922 C920 1.358 1_554 S
C922 N923 1.279 . S
C922 H963 0.930 . S
N923 C921 1.314 1_554 S
N923 C922 1.279 . S
C924 C926 1.353 . S
C924 N927 1.314 . S
C924 H930 0.930 . S
C925 N927 1.279 . S
C925 C928 1.358 . S
C925 H931 0.930 . S
C926 C924 1.353 . S
C926 C929 1.348 . S
C926 H964 0.929 . S
N927 Li882 1.990 . S
N927 C924 1.314 . S
N927 C925 1.279 . S
C928 C925 1.358 . S
C928 C929 1.356 . S
C928 H965 0.930 . S
C929 C926 1.348 . S
C929 C928 1.356 . S
H930 C924 0.930 . S
H931 C925 0.930 . S
C932 N933 1.314 . S
C932 C934 1.353 . S
C932 H938 0.930 . S
N933 Li883 1.990 . S
N933 C932 1.314 . S
N933 C936 1.279 . S
C934 C932 1.353 . S
C934 C937 1.348 . S
C934 H966 0.929 . S
C935 C936 1.358 . S
C935 C937 1.356 . S
C935 H967 0.930 . S
C936 N933 1.279 . S
C936 C935 1.358 . S
C936 H939 0.930 . S
C937 C934 1.348 . S
C937 C935 1.356 . S
H938 C932 0.930 . S
H939 C936 0.930 . S
O940 Li880 1.956 . S
O940 Li881 1.970 . S
O940 Li882 1.961 . S
O940 C884 1.325 . S
O941 Li880 1.970 . S
O941 Li881 1.956 . S
O941 Li883 1.961 . S
O941 C890 1.325 . S
O942 Li880 1.961 . S
O942 Li882 1.956 . S
O942 Li883 1.970 . S
O942 C912 1.325 . S
O943 Li881 1.961 . S
O943 Li882 1.970 . S
O943 Li883 1.956 . S
O943 C918 1.325 . S
H944 C886 0.929 . S
H945 C887 0.930 . S
H946 C888 0.930 . S
H947 C889 0.930 . S
H948 C891 0.930 . S
H949 C893 0.929 . S
H950 C894 0.930 . S
H951 C895 0.930 . S
H952 C898 0.930 . S
H953 C901 0.929 . S
H954 C906 0.929 . S
H955 C907 0.930 . S
H956 C914 0.929 . S
H957 C915 0.930 . S
H958 C916 0.930 . S
H959 C917 0.930 . S
H960 C919 0.929 . S
H961 C920 0.930 . S
H962 C921 0.930 . S
H963 C922 0.930 . S
H964 C926 0.929 . S
H965 C928 0.930 . S
H966 C934 0.929 . S
H967 C935 0.930 . S
Li968 N985 1.990 . S
Li968 O1028 1.956 . S
Li968 O1029 1.970 . S
Li968 O1030 1.961 . S
Li969 N993 1.990 . S
Li969 O1028 1.970 . S
Li969 O1029 1.956 . S
Li969 O1031 1.961 . S
Li970 N1015 1.990 . S
Li970 O1028 1.961 . S
Li970 O1030 1.956 . S
Li970 O1031 1.970 . S
Li971 N1021 1.990 . S
Li971 O1029 1.961 . S
Li971 O1030 1.970 . S
Li971 O1031 1.956 . S
C972 C974 1.348 . S
C972 C975 1.356 . S
C972 O1028 1.325 . S
N973 C976 1.314 . S
N973 C977 1.279 . S
C974 C972 1.348 . S
C974 C976 1.353 . S
C974 H1032 0.929 . S
C975 C972 1.356 . S
C975 C977 1.358 . S
C975 H1033 0.930 . S
C976 N973 1.314 . S
C976 C974 1.353 . S
C976 H1034 0.930 . S
C977 N973 1.279 . S
C977 C975 1.358 . S
C977 H1035 0.930 . S
C978 C981 1.348 . S
C978 C982 1.356 . S
C978 O1029 1.325 . S
C979 N980 1.279 . S
C979 C982 1.358 . S
C979 H1036 0.930 . S
N980 C979 1.279 . S
N980 C983 1.314 . S
C981 C978 1.348 . S
C981 C983 1.353 . S
C981 H1037 0.929 . S
C982 C978 1.356 . S
C982 C979 1.358 . S
C982 H1038 0.930 . S
C983 N980 1.314 . S
C983 C981 1.353 . S
C983 H1039 0.930 . S
C984 N985 1.314 . S
C984 C989 1.353 . S
C984 H990 0.930 . S
N985 Li968 1.990 . S
N985 C984 1.314 . S
N985 C987 1.279 . S
C986 C987 1.358 . S
C986 C988 1.356 . S
C986 H1040 0.930 . S
C987 N985 1.279 . S
C987 C986 1.358 . S
C987 H991 0.930 . S
C988 C986 1.356 . S
C988 C989 1.348 . S
C989 C984 1.353 . S
C989 C988 1.348 . S
C989 H1041 0.929 . S
H990 C984 0.930 . S
H991 C987 0.930 . S
C992 N993 1.314 . S
C992 C994 1.353 . S
C992 H998 0.930 . S
N993 Li969 1.990 . S
N993 C992 1.314 . S
N993 C996 1.279 . S
C994 C992 1.353 . S
C994 C997 1.348 . S
C994 H1042 0.929 . S
C995 C996 1.358 . S
C995 C997 1.356 . S
C995 H1043 0.930 . S
C996 N993 1.279 . S
C996 C995 1.358 . S
C996 H999 0.930 . S
C997 C994 1.348 . S
C997 C995 1.356 . S
H998 C992 0.930 . S
H999 C996 0.930 . S
C1000 C1002 1.348 . S
C1000 C1003 1.356 . S
C1000 O1030 1.325 . S
N1001 C1004 1.314 . S
N1001 C1005 1.279 . S
C1002 C1000 1.348 . S
C1002 C1004 1.353 . S
C1002 H1044 0.929 . S
C1003 C1000 1.356 . S
C1003 C1005 1.358 . S
C1003 H1045 0.930 . S
C1004 N1001 1.314 . S
C1004 C1002 1.353 . S
C1004 H1046 0.930 . S
C1005 N1001 1.279 . S
C1005 C1003 1.358 . S
C1005 H1047 0.930 . S
C1006 C1007 1.348 . S
C1006 C1008 1.356 . S
C1006 O1031 1.325 . S
C1007 C1006 1.348 . S
C1007 C1009 1.353 . S
C1007 H1048 0.929 . S
C1008 C1006 1.356 . S
C1008 C1010 1.358 . S
C1008 H1049 0.930 . S
C1009 C1007 1.353 . S
C1009 N1011 1.314 . S
C1009 H1050 0.930 . S
C1010 C1008 1.358 . S
C1010 N1011 1.279 . S
C1010 H1051 0.930 . S
N1011 C1009 1.314 . S
N1011 C1010 1.279 . S
C1012 C1014 1.353 . S
C1012 N1015 1.314 . S
C1012 H1018 0.930 . S
C1013 N1015 1.279 . S
C1013 C1016 1.358 . S
C1013 H1019 0.930 . S
C1014 C1012 1.353 . S
C1014 C1017 1.348 . S
C1014 H1052 0.929 . S
N1015 Li970 1.990 . S
N1015 C1012 1.314 . S
N1015 C1013 1.279 . S
C1016 C1013 1.358 . S
C1016 C1017 1.356 . S
C1016 H1053 0.930 . S
C1017 C1014 1.348 . S
C1017 C1016 1.356 . S
H1018 C1012 0.930 . S
H1019 C1013 0.930 . S
C1020 N1021 1.314 . S
C1020 C1022 1.353 . S
C1020 H1026 0.930 . S
N1021 Li971 1.990 . S
N1021 C1020 1.314 . S
N1021 C1024 1.279 . S
C1022 C1020 1.353 . S
C1022 C1025 1.348 . S
C1022 H1054 0.929 . S
C1023 C1024 1.358 . S
C1023 C1025 1.356 . S
C1023 H1055 0.930 . S
C1024 N1021 1.279 . S
C1024 C1023 1.358 . S
C1024 H1027 0.930 . S
C1025 C1022 1.348 . S
C1025 C1023 1.356 . S
H1026 C1020 0.930 . S
H1027 C1024 0.930 . S
O1028 Li968 1.956 . S
O1028 Li969 1.970 . S
O1028 Li970 1.961 . S
O1028 C972 1.325 . S
O1029 Li968 1.970 . S
O1029 Li969 1.956 . S
O1029 Li971 1.961 . S
O1029 C978 1.325 . S
O1030 Li968 1.961 . S
O1030 Li970 1.956 . S
O1030 Li971 1.970 . S
O1030 C1000 1.325 . S
O1031 Li969 1.961 . S
O1031 Li970 1.970 . S
O1031 Li971 1.956 . S
O1031 C1006 1.325 . S
H1032 C974 0.929 . S
H1033 C975 0.930 . S
H1034 C976 0.930 . S
H1035 C977 0.930 . S
H1036 C979 0.930 . S
H1037 C981 0.929 . S
H1038 C982 0.930 . S
H1039 C983 0.930 . S
H1040 C986 0.930 . S
H1041 C989 0.929 . S
H1042 C994 0.929 . S
H1043 C995 0.930 . S
H1044 C1002 0.929 . S
H1045 C1003 0.930 . S
H1046 C1004 0.930 . S
H1047 C1005 0.930 . S
H1048 C1007 0.929 . S
H1049 C1008 0.930 . S
H1050 C1009 0.930 . S
H1051 C1010 0.930 . S
H1052 C1014 0.929 . S
H1053 C1016 0.930 . S
H1054 C1022 0.929 . S
H1055 C1023 0.930 . S
Li1056 N1073 1.990 . S
Li1056 O1116 1.956 . S
Li1056 O1117 1.970 . S
Li1056 O1118 1.961 . S
Li1057 N1081 1.990 . S
Li1057 O1116 1.970 . S
Li1057 O1117 1.956 . S
Li1057 O1119 1.961 . S
Li1058 N1103 1.990 . S
Li1058 O1116 1.961 . S
Li1058 O1118 1.956 . S
Li1058 O1119 1.970 . S
Li1059 N1109 1.990 . S
Li1059 O1117 1.961 . S
Li1059 O1118 1.970 . S
Li1059 O1119 1.956 . S
C1060 C1062 1.348 . S
C1060 C1063 1.356 . S
C1060 O1116 1.325 . S
N1061 C1064 1.314 . S
N1061 C1065 1.279 . S
C1062 C1060 1.348 . S
C1062 C1064 1.353 . S
C1062 H1120 0.929 . S
C1063 C1060 1.356 . S
C1063 C1065 1.358 . S
C1063 H1121 0.930 . S
C1064 N1061 1.314 . S
C1064 C1062 1.353 . S
C1064 H1122 0.930 . S
C1065 N1061 1.279 . S
C1065 C1063 1.358 . S
C1065 H1123 0.930 . S
C1066 C1069 1.348 . S
C1066 C1070 1.356 . S
C1066 O1117 1.325 . S
C1067 N1068 1.279 1_556 S
C1067 C1070 1.358 . S
C1067 H1124 0.930 . S
N1068 C1067 1.279 1_554 S
N1068 C1071 1.314 . S
C1069 C1066 1.348 . S
C1069 C1071 1.353 1_556 S
C1069 H1125 0.929 . S
C1070 C1066 1.356 . S
C1070 C1067 1.358 . S
C1070 H1126 0.930 . S
C1071 N1068 1.314 . S
C1071 C1069 1.353 1_554 S
C1071 H1127 0.930 . S
C1072 N1073 1.314 . S
C1072 C1077 1.353 . S
C1072 H1078 0.930 . S
N1073 Li1056 1.990 . S
N1073 C1072 1.314 . S
N1073 C1075 1.279 . S
C1074 C1075 1.358 . S
C1074 C1076 1.356 . S
C1074 H1128 0.930 . S
C1075 N1073 1.279 . S
C1075 C1074 1.358 . S
C1075 H1079 0.930 . S
C1076 C1074 1.356 . S
C1076 C1077 1.348 . S
C1077 C1072 1.353 . S
C1077 C1076 1.348 . S
C1077 H1129 0.929 . S
H1078 C1072 0.930 . S
H1079 C1075 0.930 . S
C1080 N1081 1.314 . S
C1080 C1082 1.353 . S
C1080 H1086 0.930 . S
N1081 Li1057 1.990 . S
N1081 C1080 1.314 . S
N1081 C1084 1.279 . S
C1082 C1080 1.353 . S
C1082 C1085 1.348 . S
C1082 H1130 0.929 . S
C1083 C1084 1.358 . S
C1083 C1085 1.356 . S
C1083 H1131 0.930 1_556 S
C1084 N1081 1.279 . S
C1084 C1083 1.358 . S
C1084 H1087 0.930 . S
C1085 C1082 1.348 . S
C1085 C1083 1.356 . S
H1086 C1080 0.930 . S
H1087 C1084 0.930 . S
C1088 C1090 1.348 . S
C1088 C1091 1.356 . S
C1088 O1118 1.325 . S
N1089 C1092 1.314 . S
N1089 C1093 1.279 . S
C1090 C1088 1.348 . S
C1090 C1092 1.353 . S
C1090 H1132 0.929 . S
C1091 C1088 1.356 . S
C1091 C1093 1.358 . S
C1091 H1133 0.930 . S
C1092 N1089 1.314 . S
C1092 C1090 1.353 . S
C1092 H1134 0.930 . S
C1093 N1089 1.279 . S
C1093 C1091 1.358 . S
C1093 H1135 0.930 . S
C1094 C1095 1.348 . S
C1094 C1096 1.356 . S
C1094 O1119 1.325 . S
C1095 C1094 1.348 . S
C1095 C1097 1.353 . S
C1095 H1136 0.929 . S
C1096 C1094 1.356 . S
C1096 C1098 1.358 . S
C1096 H1137 0.930 . S
C1097 C1095 1.353 . S
C1097 N1099 1.314 . S
C1097 H1138 0.930 . S
C1098 C1096 1.358 . S
C1098 N1099 1.279 . S
C1098 H1139 0.930 . S
N1099 C1097 1.314 . S
N1099 C1098 1.279 . S
C1100 C1102 1.353 . S
C1100 N1103 1.314 . S
C1100 H1106 0.930 . S
C1101 N1103 1.279 . S
C1101 C1104 1.358 . S
C1101 H1107 0.930 . S
C1102 C1100 1.353 . S
C1102 C1105 1.348 . S
C1102 H1140 0.929 . S
N1103 Li1058 1.990 . S
N1103 C1100 1.314 . S
N1103 C1101 1.279 . S
C1104 C1101 1.358 . S
C1104 C1105 1.356 . S
C1104 H1141 0.930 . S
C1105 C1102 1.348 . S
C1105 C1104 1.356 . S
H1106 C1100 0.930 . S
H1107 C1101 0.930 . S
C1108 N1109 1.314 . S
C1108 C1110 1.353 . S
C1108 H1114 0.930 . S
N1109 Li1059 1.990 . S
N1109 C1108 1.314 . S
N1109 C1112 1.279 . S
C1110 C1108 1.353 . S
C1110 C1113 1.348 . S
C1110 H1142 0.929 . S
C1111 C1112 1.358 . S
C1111 C1113 1.356 . S
C1111 H1143 0.930 . S
C1112 N1109 1.279 . S
C1112 C1111 1.358 . S
C1112 H1115 0.930 . S
C1113 C1110 1.348 . S
C1113 C1111 1.356 . S
H1114 C1108 0.930 . S
H1115 C1112 0.930 . S
O1116 Li1056 1.956 . S
O1116 Li1057 1.970 . S
O1116 Li1058 1.961 . S
O1116 C1060 1.325 . S
O1117 Li1056 1.970 . S
O1117 Li1057 1.956 . S
O1117 Li1059 1.961 . S
O1117 C1066 1.325 . S
O1118 Li1056 1.961 . S
O1118 Li1058 1.956 . S
O1118 Li1059 1.970 . S
O1118 C1088 1.325 . S
O1119 Li1057 1.961 . S
O1119 Li1058 1.970 . S
O1119 Li1059 1.956 . S
O1119 C1094 1.325 . S
H1120 C1062 0.929 . S
H1121 C1063 0.930 . S
H1122 C1064 0.930 . S
H1123 C1065 0.930 . S
H1124 C1067 0.930 . S
H1125 C1069 0.929 . S
H1126 C1070 0.930 . S
H1127 C1071 0.930 . S
H1128 C1074 0.930 . S
H1129 C1077 0.929 . S
H1130 C1082 0.929 . S
H1131 C1083 0.930 1_554 S
H1132 C1090 0.929 . S
H1133 C1091 0.930 . S
H1134 C1092 0.930 . S
H1135 C1093 0.930 . S
H1136 C1095 0.929 . S
H1137 C1096 0.930 . S
H1138 C1097 0.930 . S
H1139 C1098 0.930 . S
H1140 C1102 0.929 . S
H1141 C1104 0.930 . S
H1142 C1110 0.929 . S
H1143 C1111 0.930 . S
Li1144 N1161 1.990 . S
Li1144 O1204 1.956 . S
Li1144 O1205 1.970 . S
Li1144 O1206 1.961 . S
Li1145 N1169 1.990 . S
Li1145 O1204 1.970 . S
Li1145 O1205 1.956 . S
Li1145 O1207 1.961 . S
Li1146 N1191 1.990 . S
Li1146 O1204 1.961 . S
Li1146 O1206 1.956 . S
Li1146 O1207 1.970 . S
Li1147 N1197 1.990 . S
Li1147 O1205 1.961 . S
Li1147 O1206 1.970 . S
Li1147 O1207 1.956 . S
C1148 C1150 1.348 . S
C1148 C1151 1.356 . S
C1148 O1204 1.325 . S
N1149 C1152 1.314 . S
N1149 C1153 1.279 . S
C1150 C1148 1.348 . S
C1150 C1152 1.353 . S
C1150 H1208 0.929 . S
C1151 C1148 1.356 . S
C1151 C1153 1.358 . S
C1151 H1209 0.930 . S
C1152 N1149 1.314 . S
C1152 C1150 1.353 . S
C1152 H1210 0.930 . S
C1153 N1149 1.279 . S
C1153 C1151 1.358 . S
C1153 H1211 0.930 . S
C1154 C1157 1.348 . S
C1154 C1158 1.356 . S
C1154 O1205 1.325 . S
C1155 N1156 1.279 . S
C1155 C1158 1.358 . S
C1155 H1212 0.930 . S
N1156 C1155 1.279 . S
N1156 C1159 1.314 . S
C1157 C1154 1.348 . S
C1157 C1159 1.353 . S
C1157 H1213 0.929 . S
C1158 C1154 1.356 . S
C1158 C1155 1.358 . S
C1158 H1214 0.930 . S
C1159 N1156 1.314 . S
C1159 C1157 1.353 . S
C1159 H1215 0.930 . S
C1160 N1161 1.314 . S
C1160 C1165 1.353 . S
C1160 H1166 0.930 . S
N1161 Li1144 1.990 . S
N1161 C1160 1.314 . S
N1161 C1163 1.279 . S
C1162 C1163 1.358 . S
C1162 C1164 1.356 . S
C1162 H1216 0.930 . S
C1163 N1161 1.279 . S
C1163 C1162 1.358 . S
C1163 H1167 0.930 . S
C1164 C1162 1.356 . S
C1164 C1165 1.348 . S
C1165 C1160 1.353 . S
C1165 C1164 1.348 . S
C1165 H1217 0.929 . S
H1166 C1160 0.930 . S
H1167 C1163 0.930 . S
C1168 N1169 1.314 . S
C1168 C1170 1.353 . S
C1168 H1174 0.930 . S
N1169 Li1145 1.990 . S
N1169 C1168 1.314 . S
N1169 C1172 1.279 . S
C1170 C1168 1.353 . S
C1170 C1173 1.348 . S
C1170 H1218 0.929 . S
C1171 C1172 1.358 . S
C1171 C1173 1.356 . S
C1171 H1219 0.930 . S
C1172 N1169 1.279 . S
C1172 C1171 1.358 . S
C1172 H1175 0.930 . S
C1173 C1170 1.348 . S
C1173 C1171 1.356 . S
H1174 C1168 0.930 . S
H1175 C1172 0.930 . S
C1176 C1178 1.348 . S
C1176 C1179 1.356 . S
C1176 O1206 1.325 . S
N1177 C1180 1.314 . S
N1177 C1181 1.279 . S
C1178 C1176 1.348 . S
C1178 C1180 1.353 . S
C1178 H1220 0.929 . S
C1179 C1176 1.356 . S
C1179 C1181 1.358 . S
C1179 H1221 0.930 . S
C1180 N1177 1.314 . S
C1180 C1178 1.353 . S
C1180 H1222 0.930 . S
C1181 N1177 1.279 . S
C1181 C1179 1.358 . S
C1181 H1223 0.930 . S
C1182 C1183 1.348 . S
C1182 C1184 1.356 . S
C1182 O1207 1.325 . S
C1183 C1182 1.348 . S
C1183 C1185 1.353 . S
C1183 H1224 0.929 . S
C1184 C1182 1.356 . S
C1184 C1186 1.358 . S
C1184 H1225 0.930 . S
C1185 C1183 1.353 . S
C1185 N1187 1.314 . S
C1185 H1226 0.930 . S
C1186 C1184 1.358 . S
C1186 N1187 1.279 . S
C1186 H1227 0.930 . S
N1187 C1185 1.314 . S
N1187 C1186 1.279 . S
C1188 C1190 1.353 . S
C1188 N1191 1.314 . S
C1188 H1194 0.930 . S
C1189 N1191 1.279 . S
C1189 C1192 1.358 . S
C1189 H1195 0.930 . S
C1190 C1188 1.353 . S
C1190 C1193 1.348 . S
C1190 H1228 0.929 . S
N1191 Li1146 1.990 . S
N1191 C1188 1.314 . S
N1191 C1189 1.279 . S
C1192 C1189 1.358 . S
C1192 C1193 1.356 . S
C1192 H1229 0.930 . S
C1193 C1190 1.348 . S
C1193 C1192 1.356 . S
H1194 C1188 0.930 . S
H1195 C1189 0.930 . S
C1196 N1197 1.314 . S
C1196 C1198 1.353 . S
C1196 H1202 0.930 . S
N1197 Li1147 1.990 . S
N1197 C1196 1.314 . S
N1197 C1200 1.279 . S
C1198 C1196 1.353 . S
C1198 C1201 1.348 . S
C1198 H1230 0.929 . S
C1199 C1200 1.358 . S
C1199 C1201 1.356 . S
C1199 H1231 0.930 . S
C1200 N1197 1.279 . S
C1200 C1199 1.358 . S
C1200 H1203 0.930 . S
C1201 C1198 1.348 . S
C1201 C1199 1.356 . S
H1202 C1196 0.930 . S
H1203 C1200 0.930 . S
O1204 Li1144 1.956 . S
O1204 Li1145 1.970 . S
O1204 Li1146 1.961 . S
O1204 C1148 1.325 . S
O1205 Li1144 1.970 . S
O1205 Li1145 1.956 . S
O1205 Li1147 1.961 . S
O1205 C1154 1.325 . S
O1206 Li1144 1.961 . S
O1206 Li1146 1.956 . S
O1206 Li1147 1.970 . S
O1206 C1176 1.325 . S
O1207 Li1145 1.961 . S
O1207 Li1146 1.970 . S
O1207 Li1147 1.956 . S
O1207 C1182 1.325 . S
H1208 C1150 0.929 . S
H1209 C1151 0.930 . S
H1210 C1152 0.930 . S
H1211 C1153 0.930 . S
H1212 C1155 0.930 . S
H1213 C1157 0.929 . S
H1214 C1158 0.930 . S
H1215 C1159 0.930 . S
H1216 C1162 0.930 . S
H1217 C1165 0.929 . S
H1218 C1170 0.929 . S
H1219 C1171 0.930 . S
H1220 C1178 0.929 . S
H1221 C1179 0.930 . S
H1222 C1180 0.930 . S
H1223 C1181 0.930 . S
H1224 C1183 0.929 . S
H1225 C1184 0.930 . S
H1226 C1185 0.930 . S
H1227 C1186 0.930 . S
H1228 C1190 0.929 . S
H1229 C1192 0.930 . S
H1230 C1198 0.929 . S
H1231 C1199 0.930 . S
Li1232 N1249 1.990 . S
Li1232 O1292 1.956 . S
Li1232 O1293 1.970 . S
Li1232 O1294 1.961 . S
Li1233 N1257 1.990 . S
Li1233 O1292 1.970 . S
Li1233 O1293 1.956 . S
Li1233 O1295 1.961 . S
Li1234 N1279 1.990 . S
Li1234 O1292 1.961 . S
Li1234 O1294 1.956 . S
Li1234 O1295 1.970 . S
Li1235 N1285 1.990 . S
Li1235 O1293 1.961 . S
Li1235 O1294 1.970 . S
Li1235 O1295 1.956 . S
C1236 C1238 1.348 . S
C1236 C1239 1.356 . S
C1236 O1292 1.325 . S
N1237 C1240 1.314 . S
N1237 C1241 1.279 . S
C1238 C1236 1.348 . S
C1238 C1240 1.353 . S
C1238 H1296 0.929 . S
C1239 C1236 1.356 . S
C1239 C1241 1.358 . S
C1239 H1297 0.930 . S
C1240 N1237 1.314 . S
C1240 C1238 1.353 . S
C1240 H1298 0.930 . S
C1241 N1237 1.279 . S
C1241 C1239 1.358 . S
C1241 H1299 0.930 . S
C1242 C1245 1.348 . S
C1242 C1246 1.356 . S
C1242 O1293 1.325 . S
C1243 N1244 1.279 . S
C1243 C1246 1.358 . S
C1243 H1300 0.930 . S
N1244 C1243 1.279 . S
N1244 C1247 1.314 . S
C1245 C1242 1.348 . S
C1245 C1247 1.353 . S
C1245 H1301 0.929 . S
C1246 C1242 1.356 . S
C1246 C1243 1.358 . S
C1246 H1302 0.930 . S
C1247 N1244 1.314 . S
C1247 C1245 1.353 . S
C1247 H1303 0.930 . S
C1248 N1249 1.314 . S
C1248 C1253 1.353 . S
C1248 H1254 0.930 . S
N1249 Li1232 1.990 . S
N1249 C1248 1.314 . S
N1249 C1251 1.279 . S
C1250 C1251 1.358 . S
C1250 C1252 1.356 . S
C1250 H1304 0.930 . S
C1251 N1249 1.279 . S
C1251 C1250 1.358 . S
C1251 H1255 0.930 . S
C1252 C1250 1.356 . S
C1252 C1253 1.348 . S
C1253 C1248 1.353 . S
C1253 C1252 1.348 . S
C1253 H1305 0.929 . S
H1254 C1248 0.930 . S
H1255 C1251 0.930 . S
C1256 N1257 1.314 . S
C1256 C1258 1.353 . S
C1256 H1262 0.930 . S
N1257 Li1233 1.990 . S
N1257 C1256 1.314 . S
N1257 C1260 1.279 . S
C1258 C1256 1.353 . S
C1258 C1261 1.348 . S
C1258 H1306 0.929 . S
C1259 C1260 1.358 . S
C1259 C1261 1.356 . S
C1259 H1307 0.930 . S
C1260 N1257 1.279 . S
C1260 C1259 1.358 . S
C1260 H1263 0.930 . S
C1261 C1258 1.348 . S
C1261 C1259 1.356 . S
H1262 C1256 0.930 . S
H1263 C1260 0.930 . S
C1264 C1266 1.348 . S
C1264 C1267 1.356 . S
C1264 O1294 1.325 . S
N1265 C1268 1.314 . S
N1265 C1269 1.279 1_556 S
C1266 C1264 1.348 . S
C1266 C1268 1.353 1_554 S
C1266 H1308 0.929 . S
C1267 C1264 1.356 . S
C1267 C1269 1.358 . S
C1267 H1309 0.930 . S
C1268 N1265 1.314 . S
C1268 C1266 1.353 1_556 S
C1268 H1310 0.930 . S
C1269 N1265 1.279 1_554 S
C1269 C1267 1.358 . S
C1269 H1311 0.930 . S
C1270 C1271 1.348 . S
C1270 C1272 1.356 . S
C1270 O1295 1.325 . S
C1271 C1270 1.348 . S
C1271 C1273 1.353 . S
C1271 H1312 0.929 . S
C1272 C1270 1.356 . S
C1272 C1274 1.358 . S
C1272 H1313 0.930 . S
C1273 C1271 1.353 . S
C1273 N1275 1.314 . S
C1273 H1314 0.930 . S
C1274 C1272 1.358 . S
C1274 N1275 1.279 . S
C1274 H1315 0.930 . S
N1275 C1273 1.314 . S
N1275 C1274 1.279 . S
C1276 C1278 1.353 . S
C1276 N1279 1.314 . S
C1276 H1282 0.930 . S
C1277 N1279 1.279 . S
C1277 C1280 1.358 . S
C1277 H1283 0.930 . S
C1278 C1276 1.353 . S
C1278 C1281 1.348 . S
C1278 H1316 0.929 . S
N1279 Li1234 1.990 . S
N1279 C1276 1.314 . S
N1279 C1277 1.279 . S
C1280 C1277 1.358 . S
C1280 C1281 1.356 . S
C1280 H1317 0.930 1_554 S
C1281 C1278 1.348 . S
C1281 C1280 1.356 . S
H1282 C1276 0.930 . S
H1283 C1277 0.930 . S
C1284 N1285 1.314 . S
C1284 C1286 1.353 . S
C1284 H1290 0.930 . S
N1285 Li1235 1.990 . S
N1285 C1284 1.314 . S
N1285 C1288 1.279 . S
C1286 C1284 1.353 . S
C1286 C1289 1.348 . S
C1286 H1318 0.929 . S
C1287 C1288 1.358 . S
C1287 C1289 1.356 . S
C1287 H1319 0.930 . S
C1288 N1285 1.279 . S
C1288 C1287 1.358 . S
C1288 H1291 0.930 . S
C1289 C1286 1.348 . S
C1289 C1287 1.356 . S
H1290 C1284 0.930 . S
H1291 C1288 0.930 . S
O1292 Li1232 1.956 . S
O1292 Li1233 1.970 . S
O1292 Li1234 1.961 . S
O1292 C1236 1.325 . S
O1293 Li1232 1.970 . S
O1293 Li1233 1.956 . S
O1293 Li1235 1.961 . S
O1293 C1242 1.325 . S
O1294 Li1232 1.961 . S
O1294 Li1234 1.956 . S
O1294 Li1235 1.970 . S
O1294 C1264 1.325 . S
O1295 Li1233 1.961 . S
O1295 Li1234 1.970 . S
O1295 Li1235 1.956 . S
O1295 C1270 1.325 . S
H1296 C1238 0.929 . S
H1297 C1239 0.930 . S
H1298 C1240 0.930 . S
H1299 C1241 0.930 . S
H1300 C1243 0.930 . S
H1301 C1245 0.929 . S
H1302 C1246 0.930 . S
H1303 C1247 0.930 . S
H1304 C1250 0.930 . S
H1305 C1253 0.929 . S
H1306 C1258 0.929 . S
H1307 C1259 0.930 . S
H1308 C1266 0.929 . S
H1309 C1267 0.930 . S
H1310 C1268 0.930 . S
H1311 C1269 0.930 . S
H1312 C1271 0.929 . S
H1313 C1272 0.930 . S
H1314 C1273 0.930 . S
H1315 C1274 0.930 . S
H1316 C1278 0.929 . S
H1317 C1280 0.930 1_556 S
H1318 C1286 0.929 . S
H1319 C1287 0.930 . S
Li1320 N1337 1.990 . S
Li1320 O1380 1.956 . S
Li1320 O1381 1.970 . S
Li1320 O1382 1.961 . S
Li1321 N1345 1.990 . S
Li1321 O1380 1.970 . S
Li1321 O1381 1.956 . S
Li1321 O1383 1.961 . S
Li1322 N1367 1.990 . S
Li1322 O1380 1.961 . S
Li1322 O1382 1.956 . S
Li1322 O1383 1.970 . S
Li1323 N1373 1.990 . S
Li1323 O1381 1.961 . S
Li1323 O1382 1.970 . S
Li1323 O1383 1.956 . S
C1324 C1326 1.348 . S
C1324 C1327 1.356 . S
C1324 O1380 1.325 . S
N1325 C1328 1.314 . S
N1325 C1329 1.279 . S
C1326 C1324 1.348 . S
C1326 C1328 1.353 . S
C1326 H1384 0.929 . S
C1327 C1324 1.356 . S
C1327 C1329 1.358 . S
C1327 H1385 0.930 . S
C1328 N1325 1.314 . S
C1328 C1326 1.353 . S
C1328 H1386 0.930 . S
C1329 N1325 1.279 . S
C1329 C1327 1.358 . S
C1329 H1387 0.930 . S
C1330 C1333 1.348 . S
C1330 C1334 1.356 . S
C1330 O1381 1.325 . S
C1331 N1332 1.279 . S
C1331 C1334 1.358 . S
C1331 H1388 0.930 . S
N1332 C1331 1.279 . S
N1332 C1335 1.314 . S
C1333 C1330 1.348 . S
C1333 C1335 1.353 . S
C1333 H1389 0.929 . S
C1334 C1330 1.356 . S
C1334 C1331 1.358 . S
C1334 H1390 0.930 . S
C1335 N1332 1.314 . S
C1335 C1333 1.353 . S
C1335 H1391 0.930 . S
C1336 N1337 1.314 . S
C1336 C1341 1.353 . S
C1336 H1342 0.930 . S
N1337 Li1320 1.990 . S
N1337 C1336 1.314 . S
N1337 C1339 1.279 . S
C1338 C1339 1.358 . S
C1338 C1340 1.356 . S
C1338 H1392 0.930 . S
C1339 N1337 1.279 . S
C1339 C1338 1.358 . S
C1339 H1343 0.930 . S
C1340 C1338 1.356 . S
C1340 C1341 1.348 . S
C1341 C1336 1.353 . S
C1341 C1340 1.348 . S
C1341 H1393 0.929 . S
H1342 C1336 0.930 . S
H1343 C1339 0.930 . S
C1344 N1345 1.314 . S
C1344 C1346 1.353 . S
C1344 H1350 0.930 . S
N1345 Li1321 1.990 . S
N1345 C1344 1.314 . S
N1345 C1348 1.279 . S
C1346 C1344 1.353 . S
C1346 C1349 1.348 . S
C1346 H1394 0.929 . S
C1347 C1348 1.358 . S
C1347 C1349 1.356 . S
C1347 H1395 0.930 . S
C1348 N1345 1.279 . S
C1348 C1347 1.358 . S
C1348 H1351 0.930 . S
C1349 C1346 1.348 . S
C1349 C1347 1.356 . S
H1350 C1344 0.930 . S
H1351 C1348 0.930 . S
C1352 C1354 1.348 . S
C1352 C1355 1.356 . S
C1352 O1382 1.325 . S
N1353 C1356 1.314 . S
N1353 C1357 1.279 . S
C1354 C1352 1.348 . S
C1354 C1356 1.353 . S
C1354 H1396 0.929 . S
C1355 C1352 1.356 . S
C1355 C1357 1.358 . S
C1355 H1397 0.930 . S
C1356 N1353 1.314 . S
C1356 C1354 1.353 . S
C1356 H1398 0.930 . S
C1357 N1353 1.279 . S
C1357 C1355 1.358 . S
C1357 H1399 0.930 . S
C1358 C1359 1.348 . S
C1358 C1360 1.356 . S
C1358 O1383 1.325 . S
C1359 C1358 1.348 . S
C1359 C1361 1.353 . S
C1359 H1400 0.929 . S
C1360 C1358 1.356 . S
C1360 C1362 1.358 . S
C1360 H1401 0.930 . S
C1361 C1359 1.353 . S
C1361 N1363 1.314 . S
C1361 H1402 0.930 . S
C1362 C1360 1.358 . S
C1362 N1363 1.279 . S
C1362 H1403 0.930 . S
N1363 C1361 1.314 . S
N1363 C1362 1.279 . S
C1364 C1366 1.353 . S
C1364 N1367 1.314 . S
C1364 H1370 0.930 . S
C1365 N1367 1.279 . S
C1365 C1368 1.358 . S
C1365 H1371 0.930 . S
C1366 C1364 1.353 . S
C1366 C1369 1.348 . S
C1366 H1404 0.929 . S
N1367 Li1322 1.990 . S
N1367 C1364 1.314 . S
N1367 C1365 1.279 . S
C1368 C1365 1.358 . S
C1368 C1369 1.356 . S
C1368 H1405 0.930 . S
C1369 C1366 1.348 . S
C1369 C1368 1.356 . S
H1370 C1364 0.930 . S
H1371 C1365 0.930 . S
C1372 N1373 1.314 . S
C1372 C1374 1.353 . S
C1372 H1378 0.930 . S
N1373 Li1323 1.990 . S
N1373 C1372 1.314 . S
N1373 C1376 1.279 . S
C1374 C1372 1.353 . S
C1374 C1377 1.348 . S
C1374 H1406 0.929 . S
C1375 C1376 1.358 . S
C1375 C1377 1.356 . S
C1375 H1407 0.930 . S
C1376 N1373 1.279 . S
C1376 C1375 1.358 . S
C1376 H1379 0.930 . S
C1377 C1374 1.348 . S
C1377 C1375 1.356 . S
H1378 C1372 0.930 . S
H1379 C1376 0.930 . S
O1380 Li1320 1.956 . S
O1380 Li1321 1.970 . S
O1380 Li1322 1.961 . S
O1380 C1324 1.325 . S
O1381 Li1320 1.970 . S
O1381 Li1321 1.956 . S
O1381 Li1323 1.961 . S
O1381 C1330 1.325 . S
O1382 Li1320 1.961 . S
O1382 Li1322 1.956 . S
O1382 Li1323 1.970 . S
O1382 C1352 1.325 . S
O1383 Li1321 1.961 . S
O1383 Li1322 1.970 . S
O1383 Li1323 1.956 . S
O1383 C1358 1.325 . S
H1384 C1326 0.929 . S
H1385 C1327 0.930 . S
H1386 C1328 0.930 . S
H1387 C1329 0.930 . S
H1388 C1331 0.930 . S
H1389 C1333 0.929 . S
H1390 C1334 0.930 . S
H1391 C1335 0.930 . S
H1392 C1338 0.930 . S
H1393 C1341 0.929 . S
H1394 C1346 0.929 . S
H1395 C1347 0.930 . S
H1396 C1354 0.929 . S
H1397 C1355 0.930 . S
H1398 C1356 0.930 . S
H1399 C1357 0.930 . S
H1400 C1359 0.929 . S
H1401 C1360 0.930 . S
H1402 C1361 0.930 . S
H1403 C1362 0.930 . S
H1404 C1366 0.929 . S
H1405 C1368 0.930 . S
H1406 C1374 0.929 . S
H1407 C1375 0.930 . S
C1408 C1409 1.369 . S
C1408 C1410 1.419 1_554 S
C1408 H1412 0.930 . S
C1409 C1408 1.369 . S
C1409 C1418 1.429 . S
C1410 C1408 1.419 1_556 S
C1410 C1411 1.363 . S
C1410 H1413 0.929 . S
C1411 C1410 1.363 . S
C1411 C1417 1.428 . S
H1412 C1408 0.930 . S
H1413 C1410 0.929 . S
S1414 N1415 1.613 1_556 S
S1414 N1416 1.610 . S
N1415 S1414 1.613 1_554 S
N1415 C1418 1.350 . S
N1416 S1414 1.610 . S
N1416 C1417 1.351 . S
C1417 C1411 1.428 . S
C1417 N1416 1.351 . S
C1417 C1418 1.434 1_556 S
C1418 C1409 1.429 . S
C1418 N1415 1.350 . S
C1418 C1417 1.434 1_554 S
C1419 C1420 1.369 . S
C1419 C1421 1.419 . S
C1419 H1423 0.930 . S
C1420 C1419 1.369 . S
C1420 C1429 1.429 . S
C1421 C1419 1.419 . S
C1421 C1422 1.363 . S
C1421 H1424 0.929 . S
C1422 C1421 1.363 . S
C1422 C1428 1.428 . S
H1423 C1419 0.930 . S
H1424 C1421 0.929 . S
S1425 N1426 1.613 . S
S1425 N1427 1.610 . S
N1426 S1425 1.613 . S
N1426 C1429 1.350 . S
N1427 S1425 1.610 . S
N1427 C1428 1.351 . S
C1428 C1422 1.428 . S
C1428 N1427 1.351 . S
C1428 C1429 1.434 . S
C1429 C1420 1.429 . S
C1429 N1426 1.350 . S
C1429 C1428 1.434 . S
C1430 C1431 1.369 1_554 S
C1430 C1432 1.419 . S
C1430 H1434 0.930 . S
C1431 C1430 1.369 1_556 S
C1431 C1440 1.429 . S
C1432 C1430 1.419 . S
C1432 C1433 1.363 . S
C1432 H1435 0.929 . S
C1433 C1432 1.363 . S
C1433 C1439 1.428 1_554 S
H1434 C1430 0.930 . S
H1435 C1432 0.929 . S
S1436 N1437 1.613 . S
S1436 N1438 1.610 . S
N1437 S1436 1.613 . S
N1437 C1440 1.350 . S
N1438 S1436 1.610 . S
N1438 C1439 1.351 . S
C1439 C1433 1.428 1_556 S
C1439 N1438 1.351 . S
C1439 C1440 1.434 . S
C1440 C1431 1.429 . S
C1440 N1437 1.350 . S
C1440 C1439 1.434 . S
C1441 C1442 1.369 . S
C1441 C1443 1.419 . S
C1441 H1445 0.930 . S
C1442 C1441 1.369 . S
C1442 C1451 1.429 . S
C1443 C1441 1.419 . S
C1443 C1444 1.363 . S
C1443 H1446 0.929 . S
C1444 C1443 1.363 . S
C1444 C1450 1.428 . S
H1445 C1441 0.930 . S
H1446 C1443 0.929 . S
S1447 N1448 1.613 . S
S1447 N1449 1.610 . S
N1448 S1447 1.613 . S
N1448 C1451 1.350 . S
N1449 S1447 1.610 . S
N1449 C1450 1.351 . S
C1450 C1444 1.428 . S
C1450 N1449 1.351 . S
C1450 C1451 1.434 . S
C1451 C1442 1.429 . S
C1451 N1448 1.350 . S
C1451 C1450 1.434 . S
C1452 C1453 1.369 . S
C1452 C1454 1.419 1_554 S
C1452 H1456 0.930 . S
C1453 C1452 1.369 . S
C1453 C1462 1.429 . S
C1454 C1452 1.419 1_556 S
C1454 C1455 1.363 . S
C1454 H1457 0.929 . S
C1455 C1454 1.363 . S
C1455 C1461 1.428 . S
H1456 C1452 0.930 . S
H1457 C1454 0.929 . S
S1458 N1459 1.613 . S
S1458 N1460 1.610 1_554 S
N1459 S1458 1.613 . S
N1459 C1462 1.350 . S
N1460 S1458 1.610 1_556 S
N1460 C1461 1.351 . S
C1461 C1455 1.428 . S
C1461 N1460 1.351 . S
C1461 C1462 1.434 1_556 S
C1462 C1453 1.429 . S
C1462 N1459 1.350 . S
C1462 C1461 1.434 1_554 S
C1463 C1464 1.369 . S
C1463 C1465 1.419 . S
C1463 H1467 0.930 . S
C1464 C1463 1.369 . S
C1464 C1473 1.429 . S
C1465 C1463 1.419 . S
C1465 C1466 1.363 . S
C1465 H1468 0.929 . S
C1466 C1465 1.363 . S
C1466 C1472 1.428 . S
H1467 C1463 0.930 . S
H1468 C1465 0.929 . S
S1469 N1470 1.613 . S
S1469 N1471 1.610 . S
N1470 S1469 1.613 . S
N1470 C1473 1.350 . S
N1471 S1469 1.610 . S
N1471 C1472 1.351 . S
C1472 C1466 1.428 . S
C1472 N1471 1.351 . S
C1472 C1473 1.434 . S
C1473 C1464 1.429 . S
C1473 N1470 1.350 . S
C1473 C1472 1.434 . S
C1474 C1475 1.369 1_554 S
C1474 C1476 1.419 . S
C1474 H1478 0.930 . S
C1475 C1474 1.369 1_556 S
C1475 C1484 1.429 . S
C1476 C1474 1.419 . S
C1476 C1477 1.363 . S
C1476 H1479 0.929 . S
C1477 C1476 1.363 . S
C1477 C1483 1.428 1_554 S
H1478 C1474 0.930 . S
H1479 C1476 0.929 . S
S1480 N1481 1.613 . S
S1480 N1482 1.610 . S
N1481 S1480 1.613 . S
N1481 C1484 1.350 . S
N1482 S1480 1.610 . S
N1482 C1483 1.351 . S
C1483 C1477 1.428 1_556 S
C1483 N1482 1.351 . S
C1483 C1484 1.434 . S
C1484 C1475 1.429 . S
C1484 N1481 1.350 . S
C1484 C1483 1.434 . S
C1485 C1486 1.369 . S
C1485 C1487 1.419 . S
C1485 H1489 0.930 . S
C1486 C1485 1.369 . S
C1486 C1495 1.429 . S
C1487 C1485 1.419 . S
C1487 C1488 1.363 . S
C1487 H1490 0.929 . S
C1488 C1487 1.363 . S
C1488 C1494 1.428 . S
H1489 C1485 0.930 . S
H1490 C1487 0.929 . S
S1491 N1492 1.613 . S
S1491 N1493 1.610 . S
N1492 S1491 1.613 . S
N1492 C1495 1.350 . S
N1493 S1491 1.610 . S
N1493 C1494 1.351 . S
C1494 C1488 1.428 . S
C1494 N1493 1.351 . S
C1494 C1495 1.434 . S
C1495 C1486 1.429 . S
C1495 N1492 1.350 . S
C1495 C1494 1.434 . S
C1496 C1497 1.369 . S
C1496 C1498 1.419 1_544 S
C1496 H1500 0.930 . S
C1497 C1496 1.369 . S
C1497 C1506 1.429 . S
C1498 C1496 1.419 1_566 S
C1498 C1499 1.363 . S
C1498 H1501 0.929 . S
C1499 C1498 1.363 . S
C1499 C1505 1.428 . S
H1500 C1496 0.930 . S
H1501 C1498 0.929 . S
S1502 N1503 1.613 1_565 S
S1502 N1504 1.610 1_554 S
N1503 S1502 1.613 1_545 S
N1503 C1506 1.350 . S
N1504 S1502 1.610 1_556 S
N1504 C1505 1.351 . S
C1505 C1499 1.428 . S
C1505 N1504 1.351 . S
C1505 C1506 1.434 1_566 S
C1506 C1497 1.429 . S
C1506 N1503 1.350 . S
C1506 C1505 1.434 1_544 S
C1507 C1508 1.369 . S
C1507 C1509 1.419 1_565 S
C1507 H1511 0.930 . S
C1508 C1507 1.369 . S
C1508 C1517 1.429 . S
C1509 C1507 1.419 1_545 S
C1509 C1510 1.363 . S
C1509 H1512 0.929 . S
C1510 C1509 1.363 . S
C1510 C1516 1.468 . S
H1511 C1507 0.930 . S
H1512 C1509 0.929 . S
S1513 N1514 1.613 . S
S1513 N1515 1.626 . S
N1514 S1513 1.613 . S
N1514 C1517 1.350 . S
N1515 S1513 1.626 . S
N1515 C1516 1.349 1_565 S
C1516 C1510 1.468 . S
C1516 N1515 1.349 1_545 S
C1516 C1517 1.393 1_545 S
C1517 C1508 1.429 . S
C1517 N1514 1.350 . S
C1517 C1516 1.393 1_565 S
C1518 C1519 1.369 . S
C1518 C1520 1.419 1_566 S
C1518 H1522 0.930 . S
C1519 C1518 1.369 . S
C1519 C1528 1.429 . S
C1520 C1518 1.419 1_544 S
C1520 C1521 1.363 . S
C1520 H1523 0.929 . S
C1521 C1520 1.363 . S
C1521 C1527 1.449 . S
H1522 C1518 0.930 . S
H1523 C1520 0.929 . S
S1524 N1525 1.613 1_545 S
S1524 N1526 1.610 . S
N1525 S1524 1.613 1_565 S
N1525 C1528 1.350 . S
N1526 S1524 1.610 . S
N1526 C1527 1.349 1_556 S
C1527 C1521 1.449 . S
C1527 N1526 1.349 1_554 S
C1527 C1528 1.413 1_544 S
C1528 C1519 1.429 . S
C1528 N1525 1.350 . S
C1528 C1527 1.413 1_566 S
C1529 C1530 1.369 . S
C1529 C1531 1.454 . S
C1529 H1533 0.930 . S
C1530 C1529 1.369 . S
C1530 C1539 1.429 1_545 S
C1531 C1529 1.454 . S
C1531 C1532 1.324 1_545 S
C1531 H1534 0.934 . S
C1532 C1531 1.324 1_565 S
C1532 C1538 1.428 . S
H1533 C1529 0.930 . S
H1534 C1531 0.934 . S
S1535 N1536 1.613 . S
S1535 N1537 1.610 . S
N1536 S1535 1.613 . S
N1536 C1539 1.350 . S
N1537 S1535 1.610 . S
N1537 C1538 1.351 . S
C1538 C1532 1.428 . S
C1538 N1537 1.351 . S
C1538 C1539 1.434 . S
C1539 C1530 1.429 1_565 S
C1539 N1536 1.350 . S
C1539 C1538 1.434 . S
C1540 C1541 1.369 . S
C1540 C1542 1.419 . S
C1540 H1544 0.930 . S
C1541 C1540 1.369 . S
C1541 C1550 1.429 1_556 S
C1542 C1540 1.419 . S
C1542 C1543 1.363 1_556 S
C1542 H1545 0.929 . S
C1543 C1542 1.363 1_554 S
C1543 C1549 1.428 . S
H1544 C1540 0.930 . S
H1545 C1542 0.929 . S
S1546 N1547 1.613 . S
S1546 N1548 1.610 . S
N1547 S1546 1.613 . S
N1547 C1550 1.350 . S
N1548 S1546 1.610 . S
N1548 C1549 1.351 . S
C1549 C1543 1.428 . S
C1549 N1548 1.351 . S
C1549 C1550 1.434 . S
C1550 C1541 1.429 1_554 S
C1550 N1547 1.350 . S
C1550 C1549 1.434 . S
C1551 C1552 1.369 . S
C1551 C1553 1.419 . S
C1551 H1555 0.930 . S
C1552 C1551 1.369 . S
C1552 C1561 1.429 . S
C1553 C1551 1.419 . S
C1553 C1554 1.363 . S
C1553 H1556 0.929 . S
C1554 C1553 1.363 . S
C1554 C1560 1.428 . S
H1555 C1551 0.930 . S
H1556 C1553 0.929 . S
S1557 N1558 1.613 . S
S1557 N1559 1.610 . S
N1558 S1557 1.613 . S
N1558 C1561 1.350 . S
N1559 S1557 1.610 . S
N1559 C1560 1.351 . S
C1560 C1554 1.428 . S
C1560 N1559 1.351 . S
C1560 C1561 1.434 . S
C1561 C1552 1.429 . S
C1561 N1558 1.350 . S
C1561 C1560 1.434 . S
C1562 C1563 1.369 1_556 S
C1562 C1564 1.419 . S
C1562 H1566 0.930 . S
C1563 C1562 1.369 1_554 S
C1563 C1572 1.429 . S
C1564 C1562 1.419 . S
C1564 C1565 1.363 . S
C1564 H1567 0.929 . S
C1565 C1564 1.363 . S
C1565 C1571 1.428 1_556 S
H1566 C1562 0.930 . S
H1567 C1564 0.929 . S
S1568 N1569 1.613 . S
S1568 N1570 1.610 . S
N1569 S1568 1.613 . S
N1569 C1572 1.350 . S
N1570 S1568 1.610 . S
N1570 C1571 1.351 . S
C1571 C1565 1.428 1_554 S
C1571 N1570 1.351 . S
C1571 C1572 1.434 . S
C1572 C1563 1.429 . S
C1572 N1569 1.350 . S
C1572 C1571 1.434 . S
C1573 C1574 1.369 . S
C1573 C1575 1.419 . S
C1573 H1577 0.930 . S
C1574 C1573 1.369 . S
C1574 C1583 1.429 . S
C1575 C1573 1.419 . S
C1575 C1576 1.363 . S
C1575 H1578 0.929 . S
C1576 C1575 1.363 . S
C1576 C1582 1.428 . S
H1577 C1573 0.930 . S
H1578 C1575 0.929 . S
S1579 N1580 1.613 . S
S1579 N1581 1.610 . S
N1580 S1579 1.613 . S
N1580 C1583 1.350 . S
N1581 S1579 1.610 . S
N1581 C1582 1.351 . S
C1582 C1576 1.428 . S
C1582 N1581 1.351 . S
C1582 C1583 1.434 . S
C1583 C1574 1.429 . S
C1583 N1580 1.350 . S
C1583 C1582 1.434 . S
C1584 C1585 1.369 . S
C1584 C1586 1.419 . S
C1584 H1588 0.930 . S
C1585 C1584 1.369 . S
C1585 C1594 1.429 . S
C1586 C1584 1.419 . S
C1586 C1587 1.363 . S
C1586 H1589 0.929 . S
C1587 C1586 1.363 . S
C1587 C1593 1.428 . S
H1588 C1584 0.930 . S
H1589 C1586 0.929 . S
S1590 N1591 1.613 . S
S1590 N1592 1.610 . S
N1591 S1590 1.613 . S
N1591 C1594 1.350 . S
N1592 S1590 1.610 . S
N1592 C1593 1.351 . S
C1593 C1587 1.428 . S
C1593 N1592 1.351 . S
C1593 C1594 1.434 . S
C1594 C1585 1.429 . S
C1594 N1591 1.350 . S
C1594 C1593 1.434 . S
C1595 C1596 1.369 . S
C1595 C1597 1.419 1_655 S
C1595 H1599 0.930 . S
C1596 C1595 1.369 . S
C1596 C1605 1.429 . S
C1597 C1595 1.419 1_455 S
C1597 C1598 1.363 . S
C1597 H1600 0.929 . S
C1598 C1597 1.363 . S
C1598 C1604 1.428 . S
H1599 C1595 0.930 . S
H1600 C1597 0.929 . S
S1601 N1602 1.618 . S
S1601 N1603 1.606 1_655 S
N1602 S1601 1.618 . S
N1602 C1605 1.350 . S
N1603 S1601 1.606 1_455 S
N1603 C1604 1.351 . S
C1604 C1598 1.428 . S
C1604 N1603 1.351 . S
C1604 C1605 1.434 1_455 S
C1605 C1596 1.429 . S
C1605 N1602 1.350 . S
C1605 C1604 1.434 1_655 S
C1606 C1607 1.369 . S
C1606 C1608 1.419 . S
C1606 H1610 0.930 . S
C1607 C1606 1.369 . S
C1607 C1616 1.429 . S
C1608 C1606 1.419 . S
C1608 C1609 1.363 . S
C1608 H1611 0.929 . S
C1609 C1608 1.363 . S
C1609 C1615 1.428 . S
H1610 C1606 0.930 . S
H1611 C1608 0.929 . S
S1612 N1613 1.613 . S
S1612 N1614 1.610 . S
N1613 S1612 1.613 . S
N1613 C1616 1.350 . S
N1614 S1612 1.610 . S
N1614 C1615 1.351 . S
C1615 C1609 1.428 . S
C1615 N1614 1.351 . S
C1615 C1616 1.434 . S
C1616 C1607 1.429 . S
C1616 N1613 1.350 . S
C1616 C1615 1.434 . S
C1617 C1618 1.369 . S
C1617 C1619 1.419 1_455 S
C1617 H1621 0.930 . S
C1618 C1617 1.369 . S
C1618 C1627 1.429 . S
C1619 C1617 1.419 1_655 S
C1619 C1620 1.363 . S
C1619 H1622 0.929 . S
C1620 C1619 1.363 . S
C1620 C1626 1.428 . S
H1621 C1617 0.930 . S
H1622 C1619 0.929 . S
S1623 N1624 1.607 1_655 S
S1623 N1625 1.617 . S
N1624 S1623 1.607 1_455 S
N1624 C1627 1.350 . S
N1625 S1623 1.617 . S
N1625 C1626 1.351 . S
C1626 C1620 1.428 . S
C1626 N1625 1.351 . S
C1626 C1627 1.434 1_655 S
C1627 C1618 1.429 . S
C1627 N1624 1.350 . S
C1627 C1626 1.434 1_455 S
C1628 C1629 1.369 . S
C1628 C1630 1.419 1_455 S
C1628 H1632 0.930 . S
C1629 C1628 1.369 . S
C1629 C1638 1.429 . S
C1630 C1628 1.419 1_655 S
C1630 C1631 1.363 . S
C1630 H1633 0.929 . S
C1631 C1630 1.363 . S
C1631 C1637 1.428 . S
H1632 C1628 0.930 . S
H1633 C1630 0.929 . S
S1634 N1635 1.649 . S
S1634 N1636 1.575 1_455 S
N1635 S1634 1.649 . S
N1635 C1638 1.350 . S
N1636 S1634 1.575 1_655 S
N1636 C1637 1.351 . S
C1637 C1631 1.428 . S
C1637 N1636 1.351 . S
C1637 C1638 1.434 1_655 S
C1638 C1629 1.429 . S
C1638 N1635 1.350 . S
C1638 C1637 1.434 1_455 S
C1639 C1640 1.369 . S
C1639 C1641 1.419 . S
C1639 H1643 0.930 . S
C1640 C1639 1.369 . S
C1640 C1649 1.429 . S
C1641 C1639 1.419 . S
C1641 C1642 1.363 . S
C1641 H1644 0.929 . S
C1642 C1641 1.363 . S
C1642 C1648 1.428 . S
H1643 C1639 0.930 . S
H1644 C1641 0.929 . S
S1645 N1646 1.613 . S
S1645 N1647 1.610 . S
N1646 S1645 1.613 . S
N1646 C1649 1.350 . S
N1647 S1645 1.610 . S
N1647 C1648 1.351 . S
C1648 C1642 1.428 . S
C1648 N1647 1.351 . S
C1648 C1649 1.434 . S
C1649 C1640 1.429 . S
C1649 N1646 1.350 . S
C1649 C1648 1.434 . S
C1650 C1651 1.369 . S
C1650 C1652 1.419 1_455 S
C1650 H1654 0.930 . S
C1651 C1650 1.369 . S
C1651 C1660 1.429 . S
C1652 C1650 1.419 1_655 S
C1652 C1653 1.363 . S
C1652 H1655 0.929 . S
C1653 C1652 1.363 . S
C1653 C1659 1.428 . S
H1654 C1650 0.930 . S
H1655 C1652 0.929 . S
S1656 N1657 1.638 . S
S1656 N1658 1.586 1_455 S
N1657 S1656 1.638 . S
N1657 C1660 1.350 . S
N1658 S1656 1.586 1_655 S
N1658 C1659 1.351 . S
C1659 C1653 1.428 . S
C1659 N1658 1.351 . S
C1659 C1660 1.434 1_655 S
C1660 C1651 1.429 . S
C1660 N1657 1.350 . S
C1660 C1659 1.434 1_455 S
C1661 C1662 1.369 . S
C1661 C1663 1.419 . S
C1661 H1665 0.930 . S
C1662 C1661 1.369 . S
C1662 C1671 1.429 . S
C1663 C1661 1.419 . S
C1663 C1664 1.363 . S
C1663 H1666 0.929 . S
C1664 C1663 1.363 . S
C1664 C1670 1.428 . S
H1665 C1661 0.930 . S
H1666 C1663 0.929 . S
S1667 N1668 1.613 . S
S1667 N1669 1.610 . S
N1668 S1667 1.613 . S
N1668 C1671 1.350 . S
N1669 S1667 1.610 . S
N1669 C1670 1.351 . S
C1670 C1664 1.428 . S
C1670 N1669 1.351 . S
C1670 C1671 1.434 . S
C1671 C1662 1.429 . S
C1671 N1668 1.350 . S
C1671 C1670 1.434 . S
C1672 C1673 1.369 . S
C1672 C1674 1.419 . S
C1672 H1676 0.930 . S
C1673 C1672 1.369 . S
C1673 C1682 1.429 . S
C1674 C1672 1.419 . S
C1674 C1675 1.363 . S
C1674 H1677 0.929 . S
C1675 C1674 1.363 . S
C1675 C1681 1.428 . S
H1676 C1672 0.930 . S
H1677 C1674 0.929 . S
S1678 N1679 1.613 . S
S1678 N1680 1.610 . S
N1679 S1678 1.613 . S
N1679 C1682 1.350 . S
N1680 S1678 1.610 . S
N1680 C1681 1.351 . S
C1681 C1675 1.428 . S
C1681 N1680 1.351 . S
C1681 C1682 1.434 . S
C1682 C1673 1.429 . S
C1682 N1679 1.350 . S
C1682 C1681 1.434 . S
C1683 C1684 1.369 . S
C1683 C1685 1.419 . S
C1683 H1687 0.930 . S
C1684 C1683 1.369 . S
C1684 C1693 1.429 . S
C1685 C1683 1.419 . S
C1685 C1686 1.363 . S
C1685 H1688 0.929 . S
C1686 C1685 1.363 . S
C1686 C1692 1.428 . S
H1687 C1683 0.930 . S
H1688 C1685 0.929 . S
S1689 N1690 1.613 . S
S1689 N1691 1.610 . S
N1690 S1689 1.613 . S
N1690 C1693 1.350 . S
N1691 S1689 1.610 . S
N1691 C1692 1.351 . S
C1692 C1686 1.428 . S
C1692 N1691 1.351 . S
C1692 C1693 1.434 . S
C1693 C1684 1.429 . S
C1693 N1690 1.350 . S
C1693 C1692 1.434 . S
C1694 C1695 1.369 . S
C1694 C1696 1.419 . S
C1694 H1698 0.930 . S
C1695 C1694 1.369 . S
C1695 C1704 1.429 . S
C1696 C1694 1.419 . S
C1696 C1697 1.363 . S
C1696 H1699 0.929 . S
C1697 C1696 1.363 . S
C1697 C1703 1.428 . S
H1698 C1694 0.930 . S
H1699 C1696 0.929 . S
S1700 N1701 1.613 . S
S1700 N1702 1.610 . S
N1701 S1700 1.613 . S
N1701 C1704 1.350 . S
N1702 S1700 1.610 . S
N1702 C1703 1.351 . S
C1703 C1697 1.428 . S
C1703 N1702 1.351 . S
C1703 C1704 1.434 . S
C1704 C1695 1.429 . S
C1704 N1701 1.350 . S
C1704 C1703 1.434 . S
C1705 C1706 1.369 . S
C1705 C1707 1.419 . S
C1705 H1709 0.930 . S
C1706 C1705 1.369 . S
C1706 C1715 1.429 . S
C1707 C1705 1.419 . S
C1707 C1708 1.363 . S
C1707 H1710 0.929 . S
C1708 C1707 1.363 . S
C1708 C1714 1.428 . S
H1709 C1705 0.930 . S
H1710 C1707 0.929 . S
S1711 N1712 1.613 . S
S1711 N1713 1.610 . S
N1712 S1711 1.613 . S
N1712 C1715 1.350 . S
N1713 S1711 1.610 . S
N1713 C1714 1.351 . S
C1714 C1708 1.428 . S
C1714 N1713 1.351 . S
C1714 C1715 1.434 . S
C1715 C1706 1.429 . S
C1715 N1712 1.350 . S
C1715 C1714 1.434 . S
C1716 C1717 1.369 . S
C1716 C1718 1.419 . S
C1716 H1720 0.930 . S
C1717 C1716 1.369 . S
C1717 C1726 1.429 . S
C1718 C1716 1.419 . S
C1718 C1719 1.363 . S
C1718 H1721 0.929 . S
C1719 C1718 1.363 . S
C1719 C1725 1.428 . S
H1720 C1716 0.930 . S
H1721 C1718 0.929 . S
S1722 N1723 1.613 . S
S1722 N1724 1.610 . S
N1723 S1722 1.613 . S
N1723 C1726 1.350 . S
N1724 S1722 1.610 . S
N1724 C1725 1.351 . S
C1725 C1719 1.428 . S
C1725 N1724 1.351 . S
C1725 C1726 1.434 . S
C1726 C1717 1.429 . S
C1726 N1723 1.350 . S
C1726 C1725 1.434 . S
C1727 C1728 1.369 . S
C1727 C1729 1.419 . S
C1727 H1731 0.930 . S
C1728 C1727 1.369 . S
C1728 C1737 1.429 . S
C1729 C1727 1.419 . S
C1729 C1730 1.363 . S
C1729 H1732 0.929 . S
C1730 C1729 1.363 . S
C1730 C1736 1.428 . S
H1731 C1727 0.930 . S
H1732 C1729 0.929 . S
S1733 N1734 1.613 . S
S1733 N1735 1.610 . S
N1734 S1733 1.613 . S
N1734 C1737 1.350 . S
N1735 S1733 1.610 . S
N1735 C1736 1.351 . S
C1736 C1730 1.428 . S
C1736 N1735 1.351 . S
C1736 C1737 1.434 . S
C1737 C1728 1.429 . S
C1737 N1734 1.350 . S
C1737 C1736 1.434 . S
C1738 C1739 1.369 . S
C1738 C1740 1.419 . S
C1738 H1742 0.930 . S
C1739 C1738 1.369 . S
C1739 C1748 1.429 . S
C1740 C1738 1.419 . S
C1740 C1741 1.363 . S
C1740 H1743 0.929 . S
C1741 C1740 1.363 . S
C1741 C1747 1.428 . S
H1742 C1738 0.930 . S
H1743 C1740 0.929 . S
S1744 N1745 1.613 . S
S1744 N1746 1.610 . S
N1745 S1744 1.613 . S
N1745 C1748 1.350 . S
N1746 S1744 1.610 . S
N1746 C1747 1.351 . S
C1747 C1741 1.428 . S
C1747 N1746 1.351 . S
C1747 C1748 1.434 . S
C1748 C1739 1.429 . S
C1748 N1745 1.350 . S
C1748 C1747 1.434 . S
C1749 C1750 1.369 . S
C1749 C1751 1.419 . S
C1749 H1753 0.930 . S
C1750 C1749 1.369 . S
C1750 C1759 1.429 . S
C1751 C1749 1.419 . S
C1751 C1752 1.363 . S
C1751 H1754 0.929 . S
C1752 C1751 1.363 . S
C1752 C1758 1.428 . S
H1753 C1749 0.930 . S
H1754 C1751 0.929 . S
S1755 N1756 1.613 . S
S1755 N1757 1.610 . S
N1756 S1755 1.613 . S
N1756 C1759 1.350 . S
N1757 S1755 1.610 . S
N1757 C1758 1.351 . S
C1758 C1752 1.428 . S
C1758 N1757 1.351 . S
C1758 C1759 1.434 . S
C1759 C1750 1.429 . S
C1759 N1756 1.350 . S
C1759 C1758 1.434 . S
C1409 C20 1.363 . S
C1411 C1085 1.359 . S
C1420 C1164 1.362 . S
C1422 C137 1.361 . S
C1431 C233 1.363 . S
C1433 C1281 1.359 . S
C1442 C1377 1.361 . S
C1444 C284 1.361 . S
C1453 C724 1.361 . S
C1455 C381 1.361 . S
C1464 C460 1.359 . S
C1466 C841 1.363 . S
C1475 C937 1.363 . S
C1477 C577 1.359 . S
C1486 C673 1.359 . S
C1488 C988 1.363 . S
C1497 C49 1.515 . S
C1499 C205 1.514 . S
C1508 C108 1.514 . S
C1510 C313 1.515 . S
C1519 C372 1.509 . S
C1521 C585 1.508 . S
C1530 C469 1.511 . S
C1532 C665 1.510 . S
C1541 C909 1.512 . S
C1543 C753 1.514 . S
C1552 C812 1.512 . S
C1554 C1017 1.514 . S
C1563 C1289 1.509 . S
C1565 C1076 1.509 . S
C1574 C1173 1.510 . S
C1576 C1369 1.509 . S
C1585 C548 1.529 . S
C1587 C29 1.529 . S
C1596 C645 1.528 . S
C1598 C145 1.528 . S
C1607 C225 1.529 . S
C1609 C409 1.529 . S
C1618 C293 1.528 . S
C1620 C489 1.529 . S
C1629 C1252 1.529 . S
C1631 C733 1.529 . S
C1640 C849 1.529 . S
C1642 C1349 1.529 . S
C1651 C1113 1.528 . S
C1653 C929 1.528 . S
C1662 C997 1.527 . S
C1664 C1193 1.528 . S
C1673 C57 1.361 . S
C1675 C321 1.363 . S
C1684 C196 1.360 . S
C1686 C117 1.363 . S
C1695 C401 1.350 . S
C1697 C636 1.349 . S
C1706 C497 1.348 . S
C1708 C557 1.351 . S
C1717 C1025 1.362 . S
C1719 C761 1.361 . S
C1728 C821 1.363 . S
C1730 C900 1.361 . S
C1739 C1340 1.349 . S
C1741 C1105 1.349 . S
C1750 C1201 1.351 . S
C1752 C1261 1.348 . S
