# Generated by pormake.
# Topology wkf, (6)-cn, num edge types: 1
# Building blocks:
#     Node 0, Type 0, BuildingBlock: IZENUY_clean_sbu_0, # of connection points: 6
#     Node 1, Type 0, BuildingBlock: IZENUY_clean_sbu_0, # of connection points: 6
#     Node 2, Type 0, BuildingBlock: IZENUY_clean_sbu_0, # of connection points: 6
#     Node 3, Type 0, BuildingBlock: IZENUY_clean_sbu_0, # of connection points: 6
#     Node 4, Type 0, BuildingBlock: IZENUY_clean_sbu_0, # of connection points: 6
#     Node 5, Type 0, BuildingBlock: IZENUY_clean_sbu_0, # of connection points: 6
#     Node 6, Type 0, BuildingBlock: IZENUY_clean_sbu_0, # of connection points: 6
#     Node 7, Type 0, BuildingBlock: IZENUY_clean_sbu_0, # of connection points: 6
#     Node 8, Type 0, BuildingBlock: IZENUY_clean_sbu_0, # of connection points: 6
#     Node 9, Type 0, BuildingBlock: IZENUY_clean_sbu_0, # of connection points: 6
#     Node 10, Type 0, BuildingBlock: IZENUY_clean_sbu_0, # of connection points: 6
#     Node 11, Type 0, BuildingBlock: IZENUY_clean_sbu_0, # of connection points: 6
#     Edge 12, Type (0, 0), BuildingBlock: AJUNOK_clean_linker_0, # of connection points: 2
#     Edge 13, Type (0, 0), BuildingBlock: AJUNOK_clean_linker_0, # of connection points: 2
#     Edge 14, Type (0, 0), BuildingBlock: AJUNOK_clean_linker_0, # of connection points: 2
#     Edge 15, Type (0, 0), BuildingBlock: AJUNOK_clean_linker_0, # of connection points: 2
#     Edge 16, Type (0, 0), BuildingBlock: AJUNOK_clean_linker_0, # of connection points: 2
#     Edge 17, Type (0, 0), BuildingBlock: AJUNOK_clean_linker_0, # of connection points: 2
#     Edge 18, Type (0, 0), BuildingBlock: AJUNOK_clean_linker_0, # of connection points: 2
#     Edge 19, Type (0, 0), BuildingBlock: AJUNOK_clean_linker_0, # of connection points: 2
#     Edge 20, Type (0, 0), BuildingBlock: AJUNOK_clean_linker_0, # of connection points: 2
#     Edge 21, Type (0, 0), BuildingBlock: AJUNOK_clean_linker_0, # of connection points: 2
#     Edge 22, Type (0, 0), BuildingBlock: AJUNOK_clean_linker_0, # of connection points: 2
#     Edge 23, Type (0, 0), BuildingBlock: AJUNOK_clean_linker_0, # of connection points: 2
#     Edge 24, Type (0, 0), BuildingBlock: AJUNOK_clean_linker_0, # of connection points: 2
#     Edge 25, Type (0, 0), BuildingBlock: AJUNOK_clean_linker_0, # of connection points: 2
#     Edge 26, Type (0, 0), BuildingBlock: AJUNOK_clean_linker_0, # of connection points: 2
#     Edge 27, Type (0, 0), BuildingBlock: AJUNOK_clean_linker_0, # of connection points: 2
#     Edge 28, Type (0, 0), BuildingBlock: AJUNOK_clean_linker_0, # of connection points: 2
#     Edge 29, Type (0, 0), BuildingBlock: AJUNOK_clean_linker_0, # of connection points: 2
#     Edge 30, Type (0, 0), BuildingBlock: AJUNOK_clean_linker_0, # of connection points: 2
#     Edge 31, Type (0, 0), BuildingBlock: AJUNOK_clean_linker_0, # of connection points: 2
#     Edge 32, Type (0, 0), BuildingBlock: AJUNOK_clean_linker_0, # of connection points: 2
#     Edge 33, Type (0, 0), BuildingBlock: AJUNOK_clean_linker_0, # of connection points: 2
#     Edge 34, Type (0, 0), BuildingBlock: AJUNOK_clean_linker_0, # of connection points: 2
#     Edge 35, Type (0, 0), BuildingBlock: AJUNOK_clean_linker_0, # of connection points: 2
#     Edge 36, Type (0, 0), BuildingBlock: AJUNOK_clean_linker_0, # of connection points: 2
#     Edge 37, Type (0, 0), BuildingBlock: AJUNOK_clean_linker_0, # of connection points: 2
#     Edge 38, Type (0, 0), BuildingBlock: AJUNOK_clean_linker_0, # of connection points: 2
#     Edge 39, Type (0, 0), BuildingBlock: AJUNOK_clean_linker_0, # of connection points: 2
#     Edge 40, Type (0, 0), BuildingBlock: AJUNOK_clean_linker_0, # of connection points: 2
#     Edge 41, Type (0, 0), BuildingBlock: AJUNOK_clean_linker_0, # of connection points: 2
#     Edge 42, Type (0, 0), BuildingBlock: AJUNOK_clean_linker_0, # of connection points: 2
#     Edge 43, Type (0, 0), BuildingBlock: AJUNOK_clean_linker_0, # of connection points: 2
#     Edge 44, Type (0, 0), BuildingBlock: AJUNOK_clean_linker_0, # of connection points: 2
#     Edge 45, Type (0, 0), BuildingBlock: AJUNOK_clean_linker_0, # of connection points: 2
#     Edge 46, Type (0, 0), BuildingBlock: AJUNOK_clean_linker_0, # of connection points: 2
#     Edge 47, Type (0, 0), BuildingBlock: AJUNOK_clean_linker_0, # of connection points: 2
# Relax obj value: 0.283
# Max RMSD: 0.255
# Mean RMSD: 0.255
data_MOF--net-wkf--node1-IZENUY_clean_sbu_0--edge1-AJUNOK_clean_linker_0
_symmetry_space_group_name_H-M    P1
_symmetry_Int_Tables_number       1
_symmetry_cell_setting            triclinic
loop_
_symmetry_equiv_pos_as_xyz
'x, y, z'
_cell_length_a     20.403851
_cell_length_b     20.356619
_cell_length_c     54.558201
_cell_angle_alpha  89.949905
_cell_angle_beta   90.14672
_cell_angle_gamma 120.0004
loop_
_atom_site_label
_atom_site_type_symbol
_atom_site_fract_x
_atom_site_fract_y
_atom_site_fract_z
_atom_type_partial_charge
Fe0 Fe 0.46026 0.14641 0.36321 0.0
Fe1 Fe 0.30755 0.12918 0.37822 0.0
O2 O 0.38772 0.12018 0.38504 0.0
Fe3 Fe 0.39399 0.08344 0.41367 0.0
O4 O 0.47855 0.16898 0.42143 0.0
O5 O 0.5372 0.18194 0.38641 0.0
O6 O 0.47704 0.24147 0.36196 0.0
C7 C 0.42888 0.2597 0.35607 0.0
C8 C 0.45571 0.02007 0.38105 0.0
O9 O 0.35862 0.21195 0.35747 0.0
C10 C 0.24583 0.99069 0.40474 0.0
O11 O 0.39492 0.11451 0.33656 0.0
O12 O 0.28189 0.06254 0.35329 0.0
O13 O 0.44784 0.0384 0.40255 0.0
O14 O 0.44926 0.05343 0.36274 0.0
C15 C 0.33267 0.17847 0.42539 0.0
O16 O 0.24148 0.04777 0.39753 0.0
O17 O 0.30927 0.99554 0.40738 0.0
C18 C 0.3244 0.06649 0.33592 0.0
O19 O 0.32893 0.19569 0.40335 0.0
O20 O 0.34261 0.12294 0.43025 0.0
C21 C 0.53806 0.19888 0.40893 0.0
Fe22 Fe 0.31393 0.40352 0.5806 0.0
Fe23 Fe 0.31273 0.4653 0.52938 0.0
O24 O 0.26916 0.39454 0.55207 0.0
Fe25 Fe 0.17993 0.31289 0.54627 0.0
O26 O 0.13655 0.33822 0.57076 0.0
O27 O 0.22373 0.35425 0.59784 0.0
O28 O 0.3143 0.48914 0.58759 0.0
C29 C 0.34067 0.54743 0.57445 0.0
C30 C 0.25706 0.25415 0.57425 0.0
O31 O 0.35304 0.54495 0.55167 0.0
C32 C 0.25843 0.3253 0.50427 0.0
O33 O 0.41204 0.45588 0.56879 0.0
O34 O 0.39683 0.45858 0.52904 0.0
O35 O 0.19574 0.24929 0.56682 0.0
O36 O 0.31618 0.31777 0.57521 0.0
C37 C 0.16717 0.429 0.52157 0.0
O38 O 0.27995 0.39592 0.50365 0.0
O39 O 0.22016 0.28462 0.52204 0.0
C40 C 0.43774 0.46623 0.54715 0.0
O41 O 0.23254 0.47901 0.52769 0.0
O42 O 0.14632 0.35945 0.52435 0.0
C43 C 0.15864 0.34488 0.59276 0.0
Fe44 Fe 0.9019 0.31512 0.74761 0.0
Fe45 Fe 0.84454 0.31708 0.69599 0.0
O46 O 0.87243 0.27198 0.7184 0.0
Fe47 Fe 0.86997 0.18568 0.71145 0.0
O48 O 0.83442 0.14335 0.74167 0.0
O49 O 0.82763 0.23196 0.76324 0.0
O50 O 0.83907 0.35424 0.74751 0.0
C51 C 0.77558 0.32873 0.73722 0.0
C52 C -0.00241 0.2537 0.74063 0.0
O53 O 0.76575 0.30368 0.71541 0.0
C54 C 0.93815 0.28133 0.67005 0.0
O55 O 0.97923 0.40087 0.73373 0.0
O56 O 0.90419 0.41283 0.70768 0.0
O57 O 0.96787 0.22074 0.72072 0.0
O58 O 0.96855 0.2835 0.75348 0.0
C59 C 0.74425 0.1639 0.68569 0.0
O60 O 0.92215 0.33186 0.67608 0.0
O61 O 0.9061 0.21623 0.68016 0.0
C62 C 0.96713 0.44006 0.71833 0.0
O63 O 0.77964 0.23198 0.67909 0.0
O64 O 0.77133 0.14034 0.70194 0.0
C65 C 0.81107 0.16361 0.76011 0.0
Fe66 Fe 0.53341 0.84855 0.8619 0.0
Fe67 Fe 0.68591 0.86603 0.87706 0.0
O68 O 0.60577 0.8749 0.88388 0.0
Fe69 Fe 0.59976 0.91173 0.9125 0.0
O70 O 0.51464 0.82699 0.92007 0.0
O71 O 0.45585 0.81278 0.88488 0.0
O72 O 0.5167 0.75365 0.86082 0.0
C73 C 0.56491 0.73575 0.85487 0.0
C74 C 0.54021 0.97641 0.87939 0.0
O75 O 0.63506 0.78432 0.85574 0.0
C76 C 0.74847 0.0033 0.90419 0.0
O77 O 0.59961 0.88121 0.83545 0.0
O78 O 0.7122 0.9346 0.85274 0.0
O79 O 0.54711 0.9584 0.90111 0.0
O80 O 0.54501 0.94122 0.86137 0.0
C81 C 0.65795 0.81366 0.92374 0.0
O82 O 0.75207 0.94587 0.897 0.0
O83 O 0.68536 -0.00073 0.90653 0.0
C84 C 0.66945 0.9318 0.83558 0.0
O85 O 0.66298 0.79812 0.90165 0.0
O86 O 0.64985 0.87014 0.92909 0.0
C87 C 0.45506 0.79743 0.90758 0.0
Fe88 Fe 0.67969 0.52912 0.02863 0.0
Fe89 Fe 0.81277 0.6829 0.04441 0.0
O90 O 0.72541 0.60043 0.05108 0.0
Fe91 Fe 0.68357 0.59096 0.08012 0.0
O92 O 0.68605 0.50645 0.08655 0.0
O93 O 0.64068 0.44989 0.05111 0.0
O94 O 0.75976 0.51523 0.02598 0.0
C95 C 0.82443 0.56606 0.01945 0.0
C96 C 0.55741 0.53031 0.04775 0.0
O97 O 0.84508 0.6356 0.02249 0.0
C98 C 0.73662 0.74005 0.07352 0.0
O99 O 0.71042 0.59674 1.00267 0.0
O100 O 0.76884 0.70881 0.02043 0.0
O101 O 0.58408 0.53675 0.06918 0.0
O102 O 0.59662 0.53792 0.02923 0.0
C103 C 0.84096 0.6541 0.09063 0.0
O104 O 0.79743 0.74631 0.06507 0.0
O105 O 0.67871 0.67569 0.07538 0.0
C106 C 0.73115 0.66701 1.00272 0.0
O107 O 0.86044 0.66087 0.0684 0.0
O108 O 0.77548 0.64216 0.09646 0.0
C109 C 0.65653 0.44769 0.0736 0.0
Fe110 Fe 0.12865 0.81638 0.21075 0.0
Fe111 Fe 0.0837 0.68585 0.2469 0.0
O112 O 0.11947 0.72735 0.21802 0.0
Fe113 Fe 0.14485 0.67992 0.19627 0.0
O114 O 0.24 0.75769 0.1949 0.0
O115 O 0.21012 0.84623 0.18964 0.0
O116 O 0.19649 0.86232 0.23534 0.0
C117 C 0.18125 0.843 0.25753 0.0
C118 C 0.06453 0.73525 0.16894 0.0
O119 O 0.12568 0.77821 0.26314 0.0
C120 C 0.01766 0.55995 0.21437 0.0
O121 O 0.04906 0.8035 0.23047 0.0
O122 O -0.00405 0.68409 0.24114 0.0
O123 O 0.11298 0.71325 0.16955 0.0
O124 O 0.06063 0.7741 0.18626 0.0
C125 C 0.19725 0.65425 0.24198 0.0
O126 O 0.03676 0.58611 0.23592 0.0
O127 O 0.05161 0.59903 0.19604 0.0
C128 C 0.99236 0.74361 0.23865 0.0
O129 O 0.16867 0.68541 0.25437 0.0
O130 O 0.18036 0.63816 0.21945 0.0
C131 C 0.25814 0.82394 0.18873 0.0
Fe132 Fe 0.84702 0.53199 0.5025 0.0
Fe133 Fe 0.8658 0.68404 0.48529 0.0
O134 O 0.87132 0.60138 0.47942 0.0
Fe135 Fe 0.90336 0.5901 0.45054 0.0
O136 O 0.81683 0.50501 0.44472 0.0
O137 O 0.80594 0.45083 0.48067 0.0
O138 O 0.75317 0.51797 0.50534 0.0
C139 C 0.73906 0.56918 0.51119 0.0
C140 C 0.97023 0.5323 0.48346 0.0
O141 O 0.78721 0.63847 0.50751 0.0
C142 C -0.00154 0.73965 0.45619 0.0
O143 O 0.88505 0.60208 0.52782 0.0
O144 O 0.93645 0.71241 0.50898 0.0
O145 O 0.94941 0.53708 0.46196 0.0
O146 O 0.93887 0.54096 0.50184 0.0
C147 C 0.808 0.65161 0.43928 0.0
O148 O 0.94355 0.74597 0.46423 0.0
O149 O 0.99259 0.67539 0.45477 0.0
C150 C 0.93486 0.67215 0.52678 0.0
O151 O 0.79539 0.65944 0.46143 0.0
O152 O 0.86176 0.63973 0.43366 0.0
C153 C 0.78862 0.44715 0.45805 0.0
Fe154 Fe 0.31044 0.8472 0.66941 0.0
Fe155 Fe 0.17615 0.86348 0.65214 0.0
O156 O 0.26643 0.8738 0.64673 0.0
Fe157 Fe 0.31244 0.91244 0.61866 0.0
O158 O 0.314 0.82827 0.61112 0.0
O159 O 0.35348 0.81102 0.64696 0.0
O160 O 0.23245 0.75204 0.67037 0.0
C161 C 0.16629 0.73423 0.67604 0.0
C162 C 0.43486 0.9728 0.65285 0.0
O163 O 0.14343 0.7814 0.67316 0.0
C164 C 0.2535 0.00278 0.6262 0.0
O165 O 0.275 0.88038 0.69527 0.0
O166 O 0.21341 0.92989 0.67699 0.0
O167 O 0.41037 0.95811 0.63101 0.0
O168 O 0.39198 0.93966 0.67049 0.0
C169 C 0.15784 0.81526 0.60516 0.0
O170 O 0.19187 0.9445 0.63244 0.0
O171 O 0.31316 -0.00064 0.62479 0.0
C172 C 0.25169 0.92801 0.69483 0.0
O173 O 0.13524 0.79703 0.62696 0.0
O174 O 0.22306 0.87198 0.60089 0.0
C175 C 0.34206 0.79753 0.62404 0.0
Fe176 Fe 0.45617 0.30785 0.83545 0.0
Fe177 Fe 0.30308 0.17289 0.82065 0.0
O178 O 0.38261 0.26258 0.81386 0.0
Fe179 Fe 0.38699 0.30669 0.78561 0.0
O180 O 0.47112 0.30708 0.77713 0.0
O181 O 0.53209 0.34958 0.81204 0.0
O182 O 0.47248 0.22956 0.83583 0.0
C183 C 0.42474 0.16359 0.84213 0.0
C184 C 0.44923 0.43017 0.81914 0.0
O185 O 0.35459 0.14152 0.8414 0.0
C186 C 0.23905 0.24731 0.79391 0.0
O187 O 0.39159 0.27364 0.86218 0.0
O188 O 0.27793 0.21387 0.8456 0.0
O189 O 0.44047 0.40581 0.7973 0.0
O190 O 0.44534 0.38935 0.83681 0.0
C191 C 0.3277 0.15024 0.77347 0.0
O192 O 0.23622 0.18675 0.80124 0.0
O193 O 0.30148 0.30781 0.79252 0.0
C194 C 0.32143 0.25273 0.86284 0.0
O195 O 0.32497 0.12899 0.79542 0.0
O196 O 0.33641 0.21553 0.76875 0.0
C197 C 0.53077 0.33304 0.78946 0.0
Fe198 Fe 0.12757 0.31203 0.98607 0.0
Fe199 Fe 0.0887 0.40359 0.95053 0.0
O200 O 0.1218 0.39442 0.97953 0.0
Fe201 Fe 0.14806 0.46576 1.002 0.0
O202 O 0.24136 0.47835 1.00448 0.0
O203 O 0.20642 0.35847 1.00849 0.0
O204 O 0.19778 0.33556 0.9623 0.0
C205 C 0.1846 0.34235 0.94009 0.0
C206 C 0.05935 0.32681 0.02708 0.0
O207 O 0.13024 0.35319 0.93423 0.0
C208 C 0.02537 0.46687 0.9829 0.0
O209 O 0.04949 0.24867 0.96505 0.0
O210 O -0.00017 0.31847 0.95538 0.0
O211 O 0.10957 0.39697 0.0278 0.0
O212 O 0.05734 0.2853 1.00963 0.0
C213 C 0.20598 0.54714 0.95705 0.0
O214 O 0.04267 0.4568 0.96149 0.0
O215 O 0.0576 0.45989 1.00143 0.0
C216 C 0.9944 0.25443 0.9567 0.0
O217 O 0.17492 0.48866 0.94397 0.0
O218 O 0.18925 0.5451 0.97963 0.0
C219 C 0.25588 0.42793 1.01095 0.0
Fe220 Fe 0.81758 0.12975 0.15215 0.0
Fe221 Fe 0.6821 0.08213 0.1181 0.0
O222 O 0.72767 0.12014 0.14632 0.0
Fe223 Fe 0.68348 0.14676 0.16882 0.0
O224 O 0.76182 0.24193 0.16972 0.0
O225 O 0.85017 0.21152 0.17339 0.0
O226 O 0.8597 0.19682 0.12718 0.0
C227 C 0.83721 0.17993 0.10527 0.0
C228 C 0.74148 0.06584 0.19468 0.0
O229 O 0.77194 0.12348 0.10067 0.0
C230 C 0.56088 0.01804 0.15215 0.0
O231 O 0.80223 0.04919 0.13228 0.0
O232 O 0.68133 0.99507 0.12402 0.0
O233 O 0.71904 0.11415 0.19484 0.0
O234 O 0.7789 0.06268 0.17685 0.0
C235 C 0.6516 0.19628 0.1234 0.0
O236 O 0.58399 0.03549 0.13028 0.0
O237 O 0.60227 0.05394 0.16986 0.0
C238 C 0.74074 0.99133 0.12563 0.0
O239 O 0.68038 0.16621 0.11062 0.0
O240 O 0.6399 0.1824 0.14627 0.0
C241 C 0.82777 0.25916 0.1758 0.0
Fe242 Fe 0.59358 0.68396 0.28462 0.0
Fe243 Fe 0.53098 0.6845 0.33566 0.0
O244 O 0.60203 0.72853 0.31317 0.0
Fe245 Fe 0.68325 0.81742 0.3195 0.0
O246 O 0.65992 0.86242 0.2949 0.0
O247 O 0.64204 0.77482 0.26765 0.0
O248 O 0.50737 0.68271 0.27757 0.0
C249 C 0.44918 0.65556 0.29067 0.0
C250 C 0.74356 0.7429 0.29107 0.0
O251 O 0.45191 0.6421 0.31331 0.0
C252 C 0.66831 0.73803 0.36159 0.0
O253 O 0.54231 0.58537 0.29666 0.0
O254 O 0.54101 0.60234 0.33636 0.0
O255 O 0.7474 0.80295 0.29925 0.0
O256 O 0.68054 0.68281 0.28962 0.0
C257 C 0.56583 0.82949 0.34325 0.0
O258 O 0.59859 0.71869 0.36165 0.0
O259 O 0.71018 0.7754 0.34388 0.0
C260 C 0.53598 0.56158 0.31851 0.0
O261 O 0.51583 0.76411 0.33691 0.0
O262 O 0.63528 0.84985 0.34101 0.0
C263 C 0.6543 0.84108 0.27285 0.0
C264 C 0.18275 0.89474 0.2992 0.0
C265 C 0.22031 0.9008 0.27704 0.0
C266 C 0.21657 0.94941 0.31768 0.0
C267 C 0.29005 0.01242 0.31504 0.0
H268 H 0.12608 0.84779 0.30226 0.0
H269 H 0.18474 0.94132 0.33436 0.0
S270 S 0.41396 0.05336 0.26074 0.0
N271 N 0.33569 0.97418 0.25351 0.0
N272 N 0.39991 0.07656 0.28844 0.0
C273 C 0.32875 0.01887 0.29303 0.0
C274 C 0.29375 0.96334 0.274 0.0
C275 C 0.29606 0.31983 0.46048 0.0
C276 C 0.27779 0.2884 0.48417 0.0
C277 C 0.31374 0.28417 0.44156 0.0
C278 C 0.31499 0.21632 0.44568 0.0
H279 H 0.29582 0.3718 0.45643 0.0
H280 H 0.32677 0.31021 0.42358 0.0
S281 S 0.27541 0.11307 0.50498 0.0
N282 N 0.26498 0.18672 0.5109 0.0
N283 N 0.298 0.12044 0.47571 0.0
C284 C 0.29813 0.18523 0.46947 0.0
C285 C 0.2796 0.22101 0.48858 0.0
C286 C 0.00017 0.34252 0.63014 0.0
C287 C 0.99455 0.29737 0.65047 0.0
C288 C 0.053 0.35718 0.6114 0.0
C289 C 0.10367 0.3293 0.61274 0.0
H290 H 0.96264 0.36557 0.62849 0.0
H291 H 0.05483 0.39133 0.59589 0.0
S292 S 0.11388 0.21044 0.66253 0.0
N293 N 0.04486 0.22564 0.67089 0.0
N294 N 0.14531 0.25516 0.63617 0.0
C295 C 0.09952 0.28532 0.63318 0.0
C296 C 0.04466 0.26884 0.6519 0.0
C297 C 0.7171 0.03095 0.77339 0.0
C298 C 0.77029 0.1066 0.77958 0.0
C299 C 0.68245 0.97454 0.79152 0.0
C300 C 0.70197 0.99138 0.81637 0.0
H301 H 0.70243 0.01521 0.75435 0.0
H302 H 0.64211 0.91708 0.78599 0.0
S303 S 0.836 0.18098 0.84229 0.0
N304 N 0.83804 0.19558 0.81245 0.0
N305 N 0.77583 0.08974 0.8463 0.0
C306 C 0.75448 0.06697 0.82276 0.0
C307 C 0.78784 0.12455 0.80445 0.0
C308 C 0.70738 0.81185 0.96552 0.0
C309 C 0.67437 0.77376 0.9435 0.0
C310 C 0.72628 0.77701 0.9842 0.0
C311 C 0.71229 0.70205 0.98186 0.0
H312 H 0.71993 0.86972 0.96828 0.0
H313 H 0.75166 0.80937 1.00073 0.0
S314 S 0.62262 0.57593 0.92817 0.0
N315 N 0.62609 0.65614 0.92054 0.0
N316 N 0.66065 0.58997 0.9558 0.0
C317 C 0.67808 0.66273 0.96002 0.0
C318 C 0.65949 0.69872 0.94083 0.0
C319 C 0.94452 0.72026 0.15145 0.0
C320 C 0.01017 0.71479 0.14817 0.0
C321 C 0.89 0.69934 0.13294 0.0
C322 C 0.89885 0.67281 0.1101 0.0
H323 H 0.93434 0.74014 0.16865 0.0
H324 H 0.84093 0.70514 0.13652 0.0
S325 S 0.05941 0.64623 0.09197 0.0
N326 N 0.08006 0.67924 0.12028 0.0
N327 N 0.97795 0.64099 0.08525 0.0
C328 C 0.96406 0.66686 0.10645 0.0
C329 C 0.01945 0.6874 0.12551 0.0
C330 C 0.03353 0.711 0.58888 0.0
C331 C 0.10312 0.77795 0.58467 0.0
C332 C 0.97945 0.6766 0.57014 0.0
C333 C 0.99232 0.70835 0.54653 0.0
H334 H 0.02045 0.68489 0.60685 0.0
H335 H 0.92679 0.6254 0.5743 0.0
S336 S 0.1667 0.88073 0.52537 0.0
N337 N 0.18271 0.87278 0.55458 0.0
N338 N 0.08152 0.80868 0.5196 0.0
C339 C 0.06215 0.77452 0.54193 0.0
C340 C 0.11739 0.80909 0.5609 0.0
C341 C 0.29641 0.97508 0.73792 0.0
C342 C 0.26982 0.98394 0.71502 0.0
C343 C 0.31494 0.02892 0.75674 0.0
C344 C 0.30883 0.09436 0.75327 0.0
H345 H 0.30262 0.92608 0.7414 0.0
H346 H 0.33482 0.01943 0.77408 0.0
S347 S 0.24365 0.14559 0.6965 0.0
N348 N 0.23944 0.06453 0.68994 0.0
N349 N 0.27451 0.1648 0.725 0.0
C350 C 0.28297 0.10417 0.73038 0.0
C351 C 0.26339 0.04927 0.71138 0.0
C352 C 0.18204 0.28517 0.89947 0.0
C353 C 0.22239 0.3221 0.92077 0.0
C354 C 0.2143 0.26176 0.88135 0.0
C355 C 0.28889 0.27504 0.88348 0.0
H356 H 0.12432 0.27293 0.89691 0.0
H357 H 0.18024 0.23363 0.86534 0.0
S358 S 0.42034 0.37416 0.93525 0.0
N359 N 0.34158 0.37323 0.94286 0.0
N360 N 0.40326 0.33066 0.90848 0.0
C361 C 0.33051 0.31322 0.90458 0.0
C362 C 0.29702 0.33625 0.92328 0.0
C363 C 0.96258 0.28435 0.08954 0.0
C364 C 0.89177 0.21907 0.08489 0.0
C365 C 0.01635 0.32007 0.07082 0.0
C366 C 0.00185 0.29126 0.04679 0.0
H367 H 0.97697 0.30796 0.10785 0.0
H368 H 0.07014 0.36956 0.07532 0.0
S369 S 0.82356 0.12556 0.02431 0.0
N370 N 0.80915 0.13003 0.05384 0.0
N371 N 0.90964 0.19646 0.01897 0.0
C372 C 0.93066 0.22726 0.04175 0.0
C373 C 0.87583 0.19142 0.06068 0.0
C374 C 0.66093 0.95791 0.25464 0.0
C375 C 0.67698 0.89834 0.25305 0.0
C376 C 0.68273 0.01263 0.23595 0.0
C377 C 0.72277 0.01068 0.2152 0.0
H378 H 0.63023 0.96156 0.27027 0.0
H379 H 0.6676 0.05637 0.23774 0.0
S380 S 0.78338 0.86863 0.20337 0.0
N381 N 0.73793 0.84235 0.22969 0.0
N382 N 0.77989 0.94463 0.19492 0.0
C383 C 0.74058 0.95199 0.2138 0.0
C384 C 0.71745 0.89602 0.2326 0.0
C385 C 0.80546 0.69846 0.39709 0.0
C386 C 0.76927 0.67045 0.41972 0.0
C387 C 0.77274 0.72115 0.37878 0.0
C388 C 0.70182 0.71606 0.38209 0.0
H389 H 0.86038 0.70433 0.39359 0.0
H390 H 0.80334 0.74226 0.36173 0.0
S391 S 0.58154 0.64243 0.43761 0.0
N392 N 0.65742 0.6365 0.44425 0.0
N393 N 0.59521 0.67808 0.40966 0.0
C394 C 0.66417 0.68666 0.40448 0.0
C395 C 0.69805 0.66426 0.42331 0.0
C396 C 0.46631 0.84724 0.36392 0.0
C397 C 0.54177 0.87872 0.35571 0.0
C398 C 0.43983 0.89269 0.37418 0.0
C399 C 0.4879 0.97101 0.37667 0.0
H400 H 0.42654 0.78719 0.36184 0.0
H401 H 0.38057 0.86705 0.37904 0.0
S402 S 0.69004 0.08182 0.35921 0.0
N403 N 0.66454 0.9935 0.35184 0.0
N404 N 0.61402 0.07862 0.37099 0.0
C405 C 0.56377 0.00304 0.36946 0.0
C406 C 0.59098 0.95694 0.35906 0.0
C407 C 0.55713 0.56451 0.52826 0.0
C408 C 0.51889 0.49784 0.54234 0.0
C409 C 0.63009 0.58944 0.51925 0.0
C410 C 0.66646 0.54739 0.52348 0.0
H411 H 0.52928 0.59628 0.5235 0.0
H412 H 0.65649 0.63978 0.50787 0.0
S413 S 0.59186 0.37126 0.56058 0.0
N414 N 0.52381 0.39276 0.56132 0.0
N415 N 0.66058 0.43821 0.54404 0.0
C416 C 0.62977 0.48203 0.53834 0.0
C417 C 0.55602 0.45761 0.54789 0.0
C418 C 0.04803 0.64286 0.69833 0.0
C419 C 0.11865 0.66041 0.68857 0.0
C420 C 0.00152 0.57295 0.7097 0.0
C421 C 0.02422 0.51836 0.71209 0.0
H422 H 0.02761 0.68262 0.69675 0.0
H423 H 0.94606 0.56037 0.71595 0.0
S424 S 0.20283 0.53475 0.68982 0.0
N425 N 0.20892 0.61621 0.68229 0.0
N426 N 0.1209 0.48547 0.70397 0.0
C427 C 0.09525 0.53554 0.7032 0.0
C428 C 0.14253 0.60634 0.69132 0.0
C429 C 0.41841 0.06661 0.87223 0.0
C430 C 0.45422 0.1164 0.85247 0.0
C431 C 0.45008 0.02555 0.88279 0.0
C432 C 0.51809 0.03322 0.87377 0.0
H433 H 0.36585 0.05936 0.8795 0.0
H434 H 0.41941 0.98496 0.89716 0.0
S435 S 0.63311 0.15524 0.82238 0.0
N436 N 0.56113 0.17045 0.82442 0.0
N437 N 0.62017 0.09424 0.84435 0.0
C438 C 0.55483 0.08394 0.85446 0.0
C439 C 0.52294 0.12516 0.84374 0.0
C440 C 0.38906 0.52835 0.01942 0.0
C441 C 0.33053 0.45268 0.02267 0.0
C442 C 0.46119 0.55444 0.02931 0.0
C443 C 0.47759 0.50664 0.04329 0.0
H444 H 0.38006 0.5675 1.00842 0.0
H445 H 0.50543 0.61181 0.02519 0.0
S446 S 0.34537 0.3051 0.05825 0.0
N447 N 0.2941 0.33087 0.04165 0.0
N448 N 0.43048 0.38094 0.06041 0.0
C449 C 0.41966 0.43179 0.04747 0.0
C450 C 0.34597 0.40454 0.0371 0.0
C451 C 0.90158 0.46391 0.19385 0.0
C452 C 0.96231 0.48007 0.20956 0.0
C453 C 0.85841 0.3921 0.18335 0.0
C454 C 0.87532 0.33389 0.1877 0.0
H455 H 0.88927 0.50819 0.18885 0.0
H456 H 0.81283 0.38304 0.17106 0.0
S457 S 0.02864 0.3479 0.22799 0.0
N458 N 0.03698 0.43284 0.22952 0.0
N459 N 0.95602 0.29704 0.20962 0.0
C460 C 0.93521 0.34896 0.20384 0.0
C461 C 0.97859 0.42224 0.21485 0.0
C462 C 0.0888 0.55583 0.50308 0.0
C463 C 0.02644 0.50889 0.48827 0.0
C464 C 0.13409 0.52935 0.51335 0.0
C465 C 0.11788 0.45413 0.50967 0.0
H466 H 0.10095 0.61274 0.50754 0.0
H467 H 0.18084 0.56773 0.52496 0.0
S468 S 0.96098 0.30908 0.47171 0.0
N469 N 0.95105 0.38467 0.46977 0.0
N470 N 0.03594 0.33387 0.48926 0.0
C471 C 0.05636 0.40695 0.49437 0.0
C472 C 0.01076 0.43462 0.48359 0.0
C473 C 0.54507 -0.00105 0.67889 0.0
C474 C 0.5163 0.0194 0.65857 0.0
C475 C 0.6197 0.04432 0.6868 0.0
C476 C 0.66872 0.11263 0.67487 0.0
H477 H 0.5091 0.94772 0.68914 0.0
H478 H 0.63805 0.02685 0.70295 0.0
S479 S 0.62268 0.189 0.61952 0.0
N480 N 0.54341 0.10967 0.62572 0.0
N481 N 0.68442 0.19632 0.64055 0.0
C482 C 0.64162 0.13242 0.65385 0.0
C483 C 0.56532 0.08539 0.64566 0.0
C484 C 0.56878 0.64392 0.82473 0.0
C485 C 0.53611 0.65822 0.84528 0.0
C486 C 0.53692 0.57034 0.81475 0.0
C487 C 0.47205 0.50925 0.82522 0.0
H488 H 0.61877 0.68977 0.81629 0.0
H489 H 0.56499 0.56059 0.79953 0.0
S490 S 0.36612 0.51686 0.87928 0.0
N491 N 0.43554 0.60501 0.87565 0.0
N492 N 0.37652 0.46786 0.85707 0.0
C493 C 0.43875 0.52334 0.84554 0.0
C494 C 0.47063 0.5975 0.85555 0.0
C495 C 0.9536 0.59143 1.0078 0.0
C496 C 0.87466 0.5436 1.00689 0.0
C497 C 0.00231 0.56785 0.99831 0.0
C498 C 0.97386 0.49653 0.98706 0.0
H499 H 0.97804 0.64588 0.01695 0.0
H500 H 0.0628 0.6044 1.00069 0.0
S501 S 0.77245 0.35244 0.97808 0.0
N502 N 0.7704 0.42289 0.99239 0.0
N503 N 0.86288 0.37983 0.97442 0.0
C504 C 0.89549 0.44978 0.98485 0.0
C505 C 0.84563 0.47303 0.99481 0.0
C506 C 0.42101 0.96626 0.14895 0.0
C507 C 0.48246 0.96061 0.15816 0.0
C508 C 0.34821 0.92289 0.15912 0.0
C509 C 0.33489 0.87218 0.17857 0.0
H510 H 0.42996 0.00689 0.13466 0.0
H511 H 0.30223 0.92905 0.15175 0.0
S512 S 0.47773 0.83693 0.20888 0.0
N513 N 0.52547 0.90057 0.18753 0.0
N514 N 0.38958 0.81886 0.20641 0.0
C515 C 0.39594 0.86518 0.18746 0.0
C516 C 0.46947 0.9094 0.1773 0.0
C517 C 0.44692 0.42164 0.3161 0.0
C518 C 0.51553 0.48313 0.32441 0.0
C519 C 0.41793 0.34915 0.32663 0.0
C520 C 0.45721 0.33622 0.34556 0.0
H521 H 0.41377 0.43044 0.30231 0.0
H522 H 0.36459 0.30314 0.31996 0.0
S523 S 0.63966 0.47951 0.37351 0.0
N524 N 0.62193 0.52673 0.3524 0.0
N525 N 0.56866 0.39137 0.37193 0.0
C526 C 0.52678 0.3973 0.35352 0.0
C527 C 0.55565 0.47052 0.34299 0.0
C528 C 0.06168 0.8715 0.43888 0.0
C529 C 0.06267 0.80389 0.44347 0.0
C530 C 0.11927 0.93068 0.42529 0.0
C531 C 0.17999 0.92439 0.41585 0.0
H532 H 0.01594 0.87882 0.44572 0.0
H533 H 0.11717 0.98238 0.42277 0.0
S534 S 0.2086 0.75871 0.42196 0.0
N535 N 0.12991 0.73433 0.43714 0.0
N536 N 0.23645 0.84442 0.41123 0.0
C537 C 0.18104 0.8567 0.41994 0.0
C538 C 0.12303 0.7969 0.43389 0.0
C539 C 0.18845 0.12199 0.5915 0.0
C540 C 0.2569 0.1897 0.58708 0.0
C541 C 0.18692 0.06269 0.60513 0.0
C542 C 0.2538 0.06896 0.61484 0.0
H543 H 0.13551 0.11467 0.58447 0.0
H544 H 0.13323 0.01095 0.60753 0.0
S545 S 0.44754 0.23531 0.60955 0.0
N546 N 0.39336 0.25951 0.59406 0.0
N547 N 0.38983 0.14939 0.62005 0.0
C548 C 0.32232 0.13687 0.611 0.0
C549 C 0.32408 0.19673 0.59698 0.0
C550 C 0.16743 0.30969 0.78076 0.0
C551 C 0.17497 0.24488 0.78065 0.0
C552 C 0.1123 0.31311 0.76655 0.0
C553 C 0.06308 0.25226 0.7514 0.0
H554 H 0.20435 0.3582 0.79202 0.0
H555 H 0.10734 0.3636 0.76776 0.0
S556 S 0.06321 0.07168 0.74308 0.0
N557 N 0.13142 0.11964 0.7632 0.0
N558 N 0.02725 0.12638 0.73629 0.0
C559 C 0.07134 0.18786 0.75046 0.0
C560 C 0.12717 0.18392 0.76525 0.0
C561 C 0.87271 0.06162 0.92651 0.0
C562 C 0.81461 0.06934 0.9154 0.0
C563 C 0.92982 0.12102 0.94031 0.0
C564 C 0.93094 0.19029 0.94345 0.0
H565 H 0.87285 0.00859 0.92519 0.0
H566 H 0.97333 0.11245 0.94854 0.0
S567 S 0.79301 0.23982 0.91676 0.0
N568 N 0.76341 0.1524 0.9074 0.0
N569 N 0.869 0.26315 0.93349 0.0
C570 C 0.87344 0.19878 0.93201 0.0
C571 C 0.81594 0.13868 0.91791 0.0
C572 C 0.80705 0.93151 0.10447 0.0
C573 C 0.74027 0.92522 0.11415 0.0
C574 C 0.80536 0.87231 0.09076 0.0
C575 C 0.73685 0.80462 0.08625 0.0
H576 H 0.86079 0.98318 0.10697 0.0
H577 H 0.85826 0.87959 0.0838 0.0
S578 S 0.54631 0.75922 0.10832 0.0
N579 N 0.60414 0.84492 0.11905 0.0
N580 N 0.6004 0.73503 0.09288 0.0
C581 C 0.66974 0.79764 0.09603 0.0
C582 C 0.67164 0.85741 0.11012 0.0
C583 C 0.80842 0.67825 0.27289 0.0
C584 C 0.80909 0.74611 0.27822 0.0
C585 C 0.86654 0.67822 0.25938 0.0
C586 C 0.92811 0.74608 0.25051 0.0
H587 H 0.76254 0.62436 0.27924 0.0
H588 H 0.86329 0.62418 0.25611 0.0
S589 S 0.95481 0.93925 0.25821 0.0
N590 N 0.87506 0.88317 0.27271 0.0
N591 N 0.98467 0.88314 0.24736 0.0
C592 C 0.92893 0.81446 0.25529 0.0
C593 C 0.86962 0.81451 0.26921 0.0
C594 C 0.67053 0.32131 0.45945 0.0
C595 C 0.73351 0.37512 0.44634 0.0
C596 C 0.60922 0.26188 0.4472 0.0
C597 C 0.6089 0.25406 0.42144 0.0
H598 H 0.66632 0.32787 0.47899 0.0
H599 H 0.56028 0.22378 0.458 0.0
S600 S 0.7668 0.37338 0.37944 0.0
N601 N 0.797 0.41154 0.40676 0.0
N602 N 0.6813 0.30012 0.38379 0.0
C603 C 0.67436 0.30395 0.40845 0.0
C604 C 0.73677 0.36445 0.4209 0.0
C605 C 0.35461 0.68186 0.62479 0.0
C606 C 0.35839 0.74279 0.61166 0.0
C607 C 0.35337 0.62097 0.61251 0.0
C608 C 0.35593 0.61871 0.58663 0.0
H609 H 0.34788 0.67883 0.64452 0.0
H610 H 0.34696 0.57371 0.62346 0.0
S611 S 0.37907 0.77089 0.54412 0.0
N612 N 0.3751 0.8025 0.57161 0.0
N613 N 0.37152 0.68719 0.54861 0.0
C614 C 0.36591 0.68216 0.57344 0.0
C615 C 0.36736 0.74435 0.58595 0.0
C616 C 0.59528 0.33128 0.75095 0.0
C617 C 0.59825 0.34122 0.77666 0.0
C618 C 0.65281 0.32778 0.73826 0.0
C619 C 0.71609 0.33481 0.75069 0.0
H620 H 0.54708 0.32428 0.74044 0.0
H621 H 0.64724 0.31894 0.71861 0.0
S622 S 0.75299 0.36421 0.81785 0.0
N623 N 0.67079 0.36006 0.81396 0.0
N624 N 0.77955 0.35381 0.79027 0.0
C625 C 0.721 0.34686 0.77635 0.0
C626 C 0.66211 0.35025 0.78928 0.0
C627 C 0.32662 0.68227 0.90692 0.0
C628 C 0.38459 0.74228 0.92011 0.0
C629 C 0.26693 0.62136 0.91914 0.0
C630 C 0.26273 0.61825 0.94502 0.0
H631 H 0.32958 0.68001 0.88714 0.0
H632 H 0.2253 0.57483 0.90812 0.0
S633 S 0.395 0.76714 0.98783 0.0
N634 N 0.42984 0.79964 0.96035 0.0
N635 N 0.31783 0.68447 0.9832 0.0
C636 C 0.31739 0.68059 0.95833 0.0
C637 C 0.3783 0.74269 0.9459 0.0
C638 C 0.63953 0.3122 0.12402 0.0
C639 C 0.63538 0.25109 0.11095 0.0
C640 C 0.64186 0.37357 0.11167 0.0
C641 C 0.64 0.37607 0.08578 0.0
H642 H 0.64591 0.31506 0.14378 0.0
H643 H 0.64856 0.42102 0.12257 0.0
S644 S 0.61629 0.22376 0.04333 0.0
N645 N 0.61904 0.19157 0.07087 0.0
N646 N 0.62462 0.3078 0.04777 0.0
C647 C 0.62947 0.31245 0.07262 0.0
C648 C 0.62696 0.24979 0.08519 0.0
C649 C 0.37351 0.6418 0.25295 0.0
C650 C 0.37769 0.64098 0.2788 0.0
C651 C 0.31218 0.64061 0.24096 0.0
C652 C 0.25293 0.6391 0.25436 0.0
H653 H 0.41949 0.64647 0.24179 0.0
H654 H 0.31352 0.64546 0.22116 0.0
S655 S 0.23104 0.6257 0.32213 0.0
N656 N 0.31316 0.63063 0.31721 0.0
N657 N 0.19754 0.62794 0.29476 0.0
C658 C 0.25366 0.63281 0.28012 0.0
C659 C 0.31605 0.63378 0.29233 0.0
loop_
_geom_bond_atom_site_label_1
_geom_bond_atom_site_label_2
_geom_bond_distance
_geom_bond_site_symmetry_2
_ccdc_geom_bond_type
Fe0 O2 1.918 . S
Fe0 O5 1.997 . S
Fe0 O6 2.002 . S
Fe0 O11 1.976 . S
Fe0 O14 1.996 . S
Fe1 O2 1.918 . S
Fe1 O9 1.997 . S
Fe1 O12 1.996 . S
Fe1 O16 1.976 . S
Fe1 O19 2.002 . S
O2 Fe0 1.918 . S
O2 Fe1 1.918 . S
O2 Fe3 1.918 . S
Fe3 O2 1.918 . S
Fe3 O4 2.002 . S
Fe3 O13 1.976 . S
Fe3 O17 1.996 . S
Fe3 O20 1.997 . S
O4 Fe3 2.002 . S
O4 C21 1.295 . S
O5 Fe0 1.997 . S
O5 C21 1.235 . S
O6 Fe0 2.002 . S
O6 C7 1.295 . S
C7 O6 1.295 . S
C7 O9 1.235 . S
C8 O13 1.287 . S
C8 O14 1.255 . S
O9 Fe1 1.997 . S
O9 C7 1.235 . S
C10 O16 1.287 1_565 S
C10 O17 1.255 1_565 S
O11 Fe0 1.976 . S
O11 C18 1.287 . S
O12 Fe1 1.996 . S
O12 C18 1.255 . S
O13 Fe3 1.976 . S
O13 C8 1.287 . S
O14 Fe0 1.996 . S
O14 C8 1.255 . S
C15 O19 1.295 . S
C15 O20 1.235 . S
O16 Fe1 1.976 . S
O16 C10 1.287 1_545 S
O17 Fe3 1.996 . S
O17 C10 1.255 1_545 S
C18 O11 1.287 . S
C18 O12 1.255 . S
O19 Fe1 2.002 . S
O19 C15 1.295 . S
O20 Fe3 1.997 . S
O20 C15 1.235 . S
C21 O4 1.295 . S
C21 O5 1.235 . S
Fe22 O24 1.918 . S
Fe22 O27 1.997 . S
Fe22 O28 2.002 . S
Fe22 O33 1.976 . S
Fe22 O36 1.996 . S
Fe23 O24 1.918 . S
Fe23 O31 1.997 . S
Fe23 O34 1.996 . S
Fe23 O38 1.976 . S
Fe23 O41 2.002 . S
O24 Fe22 1.918 . S
O24 Fe23 1.918 . S
O24 Fe25 1.918 . S
Fe25 O24 1.918 . S
Fe25 O26 2.002 . S
Fe25 O35 1.976 . S
Fe25 O39 1.996 . S
Fe25 O42 1.997 . S
O26 Fe25 2.002 . S
O26 C43 1.295 . S
O27 Fe22 1.997 . S
O27 C43 1.235 . S
O28 Fe22 2.002 . S
O28 C29 1.295 . S
C29 O28 1.295 . S
C29 O31 1.235 . S
C30 O35 1.287 . S
C30 O36 1.255 . S
O31 Fe23 1.997 . S
O31 C29 1.235 . S
C32 O38 1.287 . S
C32 O39 1.255 . S
O33 Fe22 1.976 . S
O33 C40 1.287 . S
O34 Fe23 1.996 . S
O34 C40 1.255 . S
O35 Fe25 1.976 . S
O35 C30 1.287 . S
O36 Fe22 1.996 . S
O36 C30 1.255 . S
C37 O41 1.295 . S
C37 O42 1.235 . S
O38 Fe23 1.976 . S
O38 C32 1.287 . S
O39 Fe25 1.996 . S
O39 C32 1.255 . S
C40 O33 1.287 . S
C40 O34 1.255 . S
O41 Fe23 2.002 . S
O41 C37 1.295 . S
O42 Fe25 1.997 . S
O42 C37 1.235 . S
C43 O26 1.295 . S
C43 O27 1.235 . S
Fe44 O46 1.918 . S
Fe44 O49 1.997 . S
Fe44 O50 2.002 . S
Fe44 O55 1.976 . S
Fe44 O58 1.996 . S
Fe45 O46 1.918 . S
Fe45 O53 1.997 . S
Fe45 O56 1.996 . S
Fe45 O60 1.976 . S
Fe45 O63 2.002 . S
O46 Fe44 1.918 . S
O46 Fe45 1.918 . S
O46 Fe47 1.918 . S
Fe47 O46 1.918 . S
Fe47 O48 2.002 . S
Fe47 O57 1.976 . S
Fe47 O61 1.996 . S
Fe47 O64 1.997 . S
O48 Fe47 2.002 . S
O48 C65 1.295 . S
O49 Fe44 1.997 . S
O49 C65 1.235 . S
O50 Fe44 2.002 . S
O50 C51 1.295 . S
C51 O50 1.295 . S
C51 O53 1.235 . S
C52 O57 1.287 1_455 S
C52 O58 1.255 1_455 S
O53 Fe45 1.997 . S
O53 C51 1.235 . S
C54 O60 1.287 . S
C54 O61 1.255 . S
O55 Fe44 1.976 . S
O55 C62 1.287 . S
O56 Fe45 1.996 . S
O56 C62 1.255 . S
O57 Fe47 1.976 . S
O57 C52 1.287 1_655 S
O58 Fe44 1.996 . S
O58 C52 1.255 1_655 S
C59 O63 1.295 . S
C59 O64 1.235 . S
O60 Fe45 1.976 . S
O60 C54 1.287 . S
O61 Fe47 1.996 . S
O61 C54 1.255 . S
C62 O55 1.287 . S
C62 O56 1.255 . S
O63 Fe45 2.002 . S
O63 C59 1.295 . S
O64 Fe47 1.997 . S
O64 C59 1.235 . S
C65 O48 1.295 . S
C65 O49 1.235 . S
Fe66 O68 1.918 . S
Fe66 O71 1.997 . S
Fe66 O72 2.002 . S
Fe66 O77 1.976 . S
Fe66 O80 1.996 . S
Fe67 O68 1.918 . S
Fe67 O75 1.997 . S
Fe67 O78 1.996 . S
Fe67 O82 1.976 . S
Fe67 O85 2.002 . S
O68 Fe66 1.918 . S
O68 Fe67 1.918 . S
O68 Fe69 1.918 . S
Fe69 O68 1.918 . S
Fe69 O70 2.002 . S
Fe69 O79 1.976 . S
Fe69 O83 1.996 . S
Fe69 O86 1.997 . S
O70 Fe69 2.002 . S
O70 C87 1.295 . S
O71 Fe66 1.997 . S
O71 C87 1.235 . S
O72 Fe66 2.002 . S
O72 C73 1.295 . S
C73 O72 1.295 . S
C73 O75 1.235 . S
C74 O79 1.287 . S
C74 O80 1.255 . S
O75 Fe67 1.997 . S
O75 C73 1.235 . S
C76 O82 1.287 1_545 S
C76 O83 1.255 1_545 S
O77 Fe66 1.976 . S
O77 C84 1.287 . S
O78 Fe67 1.996 . S
O78 C84 1.255 . S
O79 Fe69 1.976 . S
O79 C74 1.287 . S
O80 Fe66 1.996 . S
O80 C74 1.255 . S
C81 O85 1.295 . S
C81 O86 1.235 . S
O82 Fe67 1.976 . S
O82 C76 1.287 1_565 S
O83 Fe69 1.996 . S
O83 C76 1.255 1_565 S
C84 O77 1.287 . S
C84 O78 1.255 . S
O85 Fe67 2.002 . S
O85 C81 1.295 . S
O86 Fe69 1.997 . S
O86 C81 1.235 . S
C87 O70 1.295 . S
C87 O71 1.235 . S
Fe88 O90 1.918 . S
Fe88 O93 1.997 . S
Fe88 O94 2.002 . S
Fe88 O99 1.976 1_554 S
Fe88 O102 1.996 . S
Fe89 O90 1.918 . S
Fe89 O97 1.997 . S
Fe89 O100 1.996 1_554 S
Fe89 O104 1.976 . S
Fe89 O107 2.002 . S
O90 Fe88 1.918 . S
O90 Fe89 1.918 . S
O90 Fe91 1.918 . S
Fe91 O90 1.918 . S
Fe91 O92 2.002 . S
Fe91 O101 1.976 . S
Fe91 O105 1.996 . S
Fe91 O108 1.997 . S
O92 Fe91 2.002 . S
O92 C109 1.295 . S
O93 Fe88 1.997 . S
O93 C109 1.235 . S
O94 Fe88 2.002 . S
O94 C95 1.295 . S
C95 O94 1.295 . S
C95 O97 1.235 . S
C96 O101 1.287 . S
C96 O102 1.255 . S
O97 Fe89 1.997 . S
O97 C95 1.235 . S
C98 O104 1.287 . S
C98 O105 1.255 . S
O99 Fe88 1.976 1_556 S
O99 C106 1.287 . S
O100 Fe89 1.996 1_556 S
O100 C106 1.255 . S
O101 Fe91 1.976 . S
O101 C96 1.287 . S
O102 Fe88 1.996 . S
O102 C96 1.255 . S
C103 O107 1.295 . S
C103 O108 1.235 . S
O104 Fe89 1.976 . S
O104 C98 1.287 . S
O105 Fe91 1.996 . S
O105 C98 1.255 . S
C106 O99 1.287 . S
C106 O100 1.255 . S
O107 Fe89 2.002 . S
O107 C103 1.295 . S
O108 Fe91 1.997 . S
O108 C103 1.235 . S
C109 O92 1.295 . S
C109 O93 1.235 . S
Fe110 O112 1.918 . S
Fe110 O115 1.997 . S
Fe110 O116 2.002 . S
Fe110 O121 1.976 . S
Fe110 O124 1.996 . S
Fe111 O112 1.918 . S
Fe111 O119 1.997 . S
Fe111 O122 1.996 . S
Fe111 O126 1.976 . S
Fe111 O129 2.002 . S
O112 Fe110 1.918 . S
O112 Fe111 1.918 . S
O112 Fe113 1.918 . S
Fe113 O112 1.918 . S
Fe113 O114 2.002 . S
Fe113 O123 1.976 . S
Fe113 O127 1.996 . S
Fe113 O130 1.997 . S
O114 Fe113 2.002 . S
O114 C131 1.295 . S
O115 Fe110 1.997 . S
O115 C131 1.235 . S
O116 Fe110 2.002 . S
O116 C117 1.295 . S
C117 O116 1.295 . S
C117 O119 1.235 . S
C118 O123 1.287 . S
C118 O124 1.255 . S
O119 Fe111 1.997 . S
O119 C117 1.235 . S
C120 O126 1.287 . S
C120 O127 1.255 . S
O121 Fe110 1.976 . S
O121 C128 1.287 1_455 S
O122 Fe111 1.996 . S
O122 C128 1.255 1_455 S
O123 Fe113 1.976 . S
O123 C118 1.287 . S
O124 Fe110 1.996 . S
O124 C118 1.255 . S
C125 O129 1.295 . S
C125 O130 1.235 . S
O126 Fe111 1.976 . S
O126 C120 1.287 . S
O127 Fe113 1.996 . S
O127 C120 1.255 . S
C128 O121 1.287 1_655 S
C128 O122 1.255 1_655 S
O129 Fe111 2.002 . S
O129 C125 1.295 . S
O130 Fe113 1.997 . S
O130 C125 1.235 . S
C131 O114 1.295 . S
C131 O115 1.235 . S
Fe132 O134 1.918 . S
Fe132 O137 1.997 . S
Fe132 O138 2.002 . S
Fe132 O143 1.976 . S
Fe132 O146 1.996 . S
Fe133 O134 1.918 . S
Fe133 O141 1.997 . S
Fe133 O144 1.996 . S
Fe133 O148 1.976 . S
Fe133 O151 2.002 . S
O134 Fe132 1.918 . S
O134 Fe133 1.918 . S
O134 Fe135 1.918 . S
Fe135 O134 1.918 . S
Fe135 O136 2.002 . S
Fe135 O145 1.976 . S
Fe135 O149 1.996 . S
Fe135 O152 1.997 . S
O136 Fe135 2.002 . S
O136 C153 1.295 . S
O137 Fe132 1.997 . S
O137 C153 1.235 . S
O138 Fe132 2.002 . S
O138 C139 1.295 . S
C139 O138 1.295 . S
C139 O141 1.235 . S
C140 O145 1.287 . S
C140 O146 1.255 . S
O141 Fe133 1.997 . S
O141 C139 1.235 . S
C142 O148 1.287 1_455 S
C142 O149 1.255 1_455 S
O143 Fe132 1.976 . S
O143 C150 1.287 . S
O144 Fe133 1.996 . S
O144 C150 1.255 . S
O145 Fe135 1.976 . S
O145 C140 1.287 . S
O146 Fe132 1.996 . S
O146 C140 1.255 . S
C147 O151 1.295 . S
C147 O152 1.235 . S
O148 Fe133 1.976 . S
O148 C142 1.287 1_655 S
O149 Fe135 1.996 . S
O149 C142 1.255 1_655 S
C150 O143 1.287 . S
C150 O144 1.255 . S
O151 Fe133 2.002 . S
O151 C147 1.295 . S
O152 Fe135 1.997 . S
O152 C147 1.235 . S
C153 O136 1.295 . S
C153 O137 1.235 . S
Fe154 O156 1.918 . S
Fe154 O159 1.997 . S
Fe154 O160 2.002 . S
Fe154 O165 1.976 . S
Fe154 O168 1.996 . S
Fe155 O156 1.918 . S
Fe155 O163 1.997 . S
Fe155 O166 1.996 . S
Fe155 O170 1.976 . S
Fe155 O173 2.002 . S
O156 Fe154 1.918 . S
O156 Fe155 1.918 . S
O156 Fe157 1.918 . S
Fe157 O156 1.918 . S
Fe157 O158 2.002 . S
Fe157 O167 1.976 . S
Fe157 O171 1.996 . S
Fe157 O174 1.997 . S
O158 Fe157 2.002 . S
O158 C175 1.295 . S
O159 Fe154 1.997 . S
O159 C175 1.235 . S
O160 Fe154 2.002 . S
O160 C161 1.295 . S
C161 O160 1.295 . S
C161 O163 1.235 . S
C162 O167 1.287 . S
C162 O168 1.255 . S
O163 Fe155 1.997 . S
O163 C161 1.235 . S
C164 O170 1.287 1_545 S
C164 O171 1.255 1_545 S
O165 Fe154 1.976 . S
O165 C172 1.287 . S
O166 Fe155 1.996 . S
O166 C172 1.255 . S
O167 Fe157 1.976 . S
O167 C162 1.287 . S
O168 Fe154 1.996 . S
O168 C162 1.255 . S
C169 O173 1.295 . S
C169 O174 1.235 . S
O170 Fe155 1.976 . S
O170 C164 1.287 1_565 S
O171 Fe157 1.996 . S
O171 C164 1.255 1_565 S
C172 O165 1.287 . S
C172 O166 1.255 . S
O173 Fe155 2.002 . S
O173 C169 1.295 . S
O174 Fe157 1.997 . S
O174 C169 1.235 . S
C175 O158 1.295 . S
C175 O159 1.235 . S
Fe176 O178 1.918 . S
Fe176 O181 1.997 . S
Fe176 O182 2.002 . S
Fe176 O187 1.976 . S
Fe176 O190 1.996 . S
Fe177 O178 1.918 . S
Fe177 O185 1.997 . S
Fe177 O188 1.996 . S
Fe177 O192 1.976 . S
Fe177 O195 2.002 . S
O178 Fe176 1.918 . S
O178 Fe177 1.918 . S
O178 Fe179 1.918 . S
Fe179 O178 1.918 . S
Fe179 O180 2.002 . S
Fe179 O189 1.976 . S
Fe179 O193 1.996 . S
Fe179 O196 1.997 . S
O180 Fe179 2.002 . S
O180 C197 1.295 . S
O181 Fe176 1.997 . S
O181 C197 1.235 . S
O182 Fe176 2.002 . S
O182 C183 1.295 . S
C183 O182 1.295 . S
C183 O185 1.235 . S
C184 O189 1.287 . S
C184 O190 1.255 . S
O185 Fe177 1.997 . S
O185 C183 1.235 . S
C186 O192 1.287 . S
C186 O193 1.255 . S
O187 Fe176 1.976 . S
O187 C194 1.287 . S
O188 Fe177 1.996 . S
O188 C194 1.255 . S
O189 Fe179 1.976 . S
O189 C184 1.287 . S
O190 Fe176 1.996 . S
O190 C184 1.255 . S
C191 O195 1.295 . S
C191 O196 1.235 . S
O192 Fe177 1.976 . S
O192 C186 1.287 . S
O193 Fe179 1.996 . S
O193 C186 1.255 . S
C194 O187 1.287 . S
C194 O188 1.255 . S
O195 Fe177 2.002 . S
O195 C191 1.295 . S
O196 Fe179 1.997 . S
O196 C191 1.235 . S
C197 O180 1.295 . S
C197 O181 1.235 . S
Fe198 O200 1.918 . S
Fe198 O203 1.997 . S
Fe198 O204 2.002 . S
Fe198 O209 1.976 . S
Fe198 O212 1.996 1_556 S
Fe199 O200 1.918 . S
Fe199 O207 1.997 . S
Fe199 O210 1.996 . S
Fe199 O214 1.976 . S
Fe199 O217 2.002 . S
O200 Fe198 1.918 . S
O200 Fe199 1.918 . S
O200 Fe201 1.918 . S
Fe201 O200 1.918 . S
Fe201 O202 2.002 . S
Fe201 O211 1.976 1_556 S
Fe201 O215 1.996 . S
Fe201 O218 1.997 . S
O202 Fe201 2.002 . S
O202 C219 1.295 . S
O203 Fe198 1.997 . S
O203 C219 1.235 . S
O204 Fe198 2.002 . S
O204 C205 1.295 . S
C205 O204 1.295 . S
C205 O207 1.235 . S
C206 O211 1.287 . S
C206 O212 1.255 . S
O207 Fe199 1.997 . S
O207 C205 1.235 . S
C208 O214 1.287 . S
C208 O215 1.255 . S
O209 Fe198 1.976 . S
O209 C216 1.287 1_455 S
O210 Fe199 1.996 . S
O210 C216 1.255 1_455 S
O211 Fe201 1.976 1_554 S
O211 C206 1.287 . S
O212 Fe198 1.996 1_554 S
O212 C206 1.255 . S
C213 O217 1.295 . S
C213 O218 1.235 . S
O214 Fe199 1.976 . S
O214 C208 1.287 . S
O215 Fe201 1.996 . S
O215 C208 1.255 . S
C216 O209 1.287 1_655 S
C216 O210 1.255 1_655 S
O217 Fe199 2.002 . S
O217 C213 1.295 . S
O218 Fe201 1.997 . S
O218 C213 1.235 . S
C219 O202 1.295 . S
C219 O203 1.235 . S
Fe220 O222 1.918 . S
Fe220 O225 1.997 . S
Fe220 O226 2.002 . S
Fe220 O231 1.976 . S
Fe220 O234 1.996 . S
Fe221 O222 1.918 . S
Fe221 O229 1.997 . S
Fe221 O232 1.996 . S
Fe221 O236 1.976 . S
Fe221 O239 2.002 . S
O222 Fe220 1.918 . S
O222 Fe221 1.918 . S
O222 Fe223 1.918 . S
Fe223 O222 1.918 . S
Fe223 O224 2.002 . S
Fe223 O233 1.976 . S
Fe223 O237 1.996 . S
Fe223 O240 1.997 . S
O224 Fe223 2.002 . S
O224 C241 1.295 . S
O225 Fe220 1.997 . S
O225 C241 1.235 . S
O226 Fe220 2.002 . S
O226 C227 1.295 . S
C227 O226 1.295 . S
C227 O229 1.235 . S
C228 O233 1.287 . S
C228 O234 1.255 . S
O229 Fe221 1.997 . S
O229 C227 1.235 . S
C230 O236 1.287 . S
C230 O237 1.255 . S
O231 Fe220 1.976 . S
O231 C238 1.287 1_545 S
O232 Fe221 1.996 . S
O232 C238 1.255 1_545 S
O233 Fe223 1.976 . S
O233 C228 1.287 . S
O234 Fe220 1.996 . S
O234 C228 1.255 . S
C235 O239 1.295 . S
C235 O240 1.235 . S
O236 Fe221 1.976 . S
O236 C230 1.287 . S
O237 Fe223 1.996 . S
O237 C230 1.255 . S
C238 O231 1.287 1_565 S
C238 O232 1.255 1_565 S
O239 Fe221 2.002 . S
O239 C235 1.295 . S
O240 Fe223 1.997 . S
O240 C235 1.235 . S
C241 O224 1.295 . S
C241 O225 1.235 . S
Fe242 O244 1.918 . S
Fe242 O247 1.997 . S
Fe242 O248 2.002 . S
Fe242 O253 1.976 . S
Fe242 O256 1.996 . S
Fe243 O244 1.918 . S
Fe243 O251 1.997 . S
Fe243 O254 1.996 . S
Fe243 O258 1.976 . S
Fe243 O261 2.002 . S
O244 Fe242 1.918 . S
O244 Fe243 1.918 . S
O244 Fe245 1.918 . S
Fe245 O244 1.918 . S
Fe245 O246 2.002 . S
Fe245 O255 1.976 . S
Fe245 O259 1.996 . S
Fe245 O262 1.997 . S
O246 Fe245 2.002 . S
O246 C263 1.295 . S
O247 Fe242 1.997 . S
O247 C263 1.235 . S
O248 Fe242 2.002 . S
O248 C249 1.295 . S
C249 O248 1.295 . S
C249 O251 1.235 . S
C250 O255 1.287 . S
C250 O256 1.255 . S
O251 Fe243 1.997 . S
O251 C249 1.235 . S
C252 O258 1.287 . S
C252 O259 1.255 . S
O253 Fe242 1.976 . S
O253 C260 1.287 . S
O254 Fe243 1.996 . S
O254 C260 1.255 . S
O255 Fe245 1.976 . S
O255 C250 1.287 . S
O256 Fe242 1.996 . S
O256 C250 1.255 . S
C257 O261 1.295 . S
C257 O262 1.235 . S
O258 Fe243 1.976 . S
O258 C252 1.287 . S
O259 Fe245 1.996 . S
O259 C252 1.255 . S
C260 O253 1.287 . S
C260 O254 1.255 . S
O261 Fe243 2.002 . S
O261 C257 1.295 . S
O262 Fe245 1.997 . S
O262 C257 1.235 . S
C263 O246 1.295 . S
C263 O247 1.235 . S
C264 C265 1.369 . S
C264 C266 1.419 . S
C264 H268 0.930 . S
C265 C264 1.369 . S
C265 C274 1.429 . S
C266 C264 1.419 . S
C266 C267 1.363 1_565 S
C266 H269 0.929 . S
C267 C266 1.363 1_545 S
C267 C273 1.428 . S
H268 C264 0.930 . S
H269 C266 0.929 . S
S270 N271 1.613 . S
S270 N272 1.610 . S
N271 S270 1.613 . S
N271 C274 1.350 1_545 S
N272 S270 1.610 . S
N272 C273 1.351 . S
C273 C267 1.428 . S
C273 N272 1.351 . S
C273 C274 1.434 1_545 S
C274 C265 1.429 . S
C274 N271 1.350 1_565 S
C274 C273 1.434 1_565 S
C275 C276 1.369 . S
C275 C277 1.419 . S
C275 H279 0.930 . S
C276 C275 1.369 . S
C276 C285 1.429 . S
C277 C275 1.419 . S
C277 C278 1.363 . S
C277 H280 0.929 . S
C278 C277 1.363 . S
C278 C284 1.428 . S
H279 C275 0.930 . S
H280 C277 0.929 . S
S281 N282 1.613 . S
S281 N283 1.610 . S
N282 S281 1.613 . S
N282 C285 1.350 . S
N283 S281 1.610 . S
N283 C284 1.351 . S
C284 C278 1.428 . S
C284 N283 1.351 . S
C284 C285 1.434 . S
C285 C276 1.429 . S
C285 N282 1.350 . S
C285 C284 1.434 . S
C286 C287 1.369 . S
C286 C288 1.419 . S
C286 H290 0.930 . S
C287 C286 1.369 . S
C287 C296 1.429 1_655 S
C288 C286 1.419 . S
C288 C289 1.363 1_655 S
C288 H291 0.929 . S
C289 C288 1.363 1_455 S
C289 C295 1.428 . S
H290 C286 0.930 . S
H291 C288 0.929 . S
S292 N293 1.613 . S
S292 N294 1.610 . S
N293 S292 1.613 . S
N293 C296 1.350 . S
N294 S292 1.610 . S
N294 C295 1.351 . S
C295 C289 1.428 . S
C295 N294 1.351 . S
C295 C296 1.434 . S
C296 C287 1.429 1_455 S
C296 N293 1.350 . S
C296 C295 1.434 . S
C297 C298 1.369 . S
C297 C299 1.419 1_545 S
C297 H301 0.930 . S
C298 C297 1.369 . S
C298 C307 1.429 . S
C299 C297 1.419 1_565 S
C299 C300 1.363 . S
C299 H302 0.929 . S
C300 C299 1.363 . S
C300 C306 1.428 . S
H301 C297 0.930 . S
H302 C299 0.929 . S
S303 N304 1.613 . S
S303 N305 1.610 1_545 S
N304 S303 1.613 . S
N304 C307 1.350 . S
N305 S303 1.610 1_565 S
N305 C306 1.351 . S
C306 C300 1.428 . S
C306 N305 1.351 . S
C306 C307 1.434 1_565 S
C307 C298 1.429 . S
C307 N304 1.350 . S
C307 C306 1.434 1_545 S
C308 C309 1.369 . S
C308 C310 1.419 . S
C308 H312 0.930 . S
C309 C308 1.369 . S
C309 C318 1.429 . S
C310 C308 1.419 . S
C310 C311 1.363 . S
C310 H313 0.929 . S
C311 C310 1.363 . S
C311 C317 1.428 . S
H312 C308 0.930 . S
H313 C310 0.929 . S
S314 N315 1.613 . S
S314 N316 1.610 . S
N315 S314 1.613 . S
N315 C318 1.350 . S
N316 S314 1.610 . S
N316 C317 1.351 . S
C317 C311 1.428 . S
C317 N316 1.351 . S
C317 C318 1.434 . S
C318 C309 1.429 . S
C318 N315 1.350 . S
C318 C317 1.434 . S
C319 C320 1.369 1_655 S
C319 C321 1.419 . S
C319 H323 0.930 . S
C320 C319 1.369 1_455 S
C320 C329 1.429 . S
C321 C319 1.419 . S
C321 C322 1.363 . S
C321 H324 0.929 . S
C322 C321 1.363 . S
C322 C328 1.428 1_655 S
H323 C319 0.930 . S
H324 C321 0.929 . S
S325 N326 1.613 . S
S325 N327 1.610 . S
N326 S325 1.613 . S
N326 C329 1.350 . S
N327 S325 1.610 . S
N327 C328 1.351 . S
C328 C322 1.428 1_455 S
C328 N327 1.351 . S
C328 C329 1.434 . S
C329 C320 1.429 . S
C329 N326 1.350 . S
C329 C328 1.434 . S
C330 C331 1.369 . S
C330 C332 1.419 1_455 S
C330 H334 0.930 . S
C331 C330 1.369 . S
C331 C340 1.429 . S
C332 C330 1.419 1_655 S
C332 C333 1.363 . S
C332 H335 0.929 . S
C333 C332 1.363 . S
C333 C339 1.428 1_655 S
H334 C330 0.930 . S
H335 C332 0.929 . S
S336 N337 1.613 . S
S336 N338 1.610 . S
N337 S336 1.613 . S
N337 C340 1.350 . S
N338 S336 1.610 . S
N338 C339 1.351 . S
C339 C333 1.428 1_455 S
C339 N338 1.351 . S
C339 C340 1.434 . S
C340 C331 1.429 . S
C340 N337 1.350 . S
C340 C339 1.434 . S
C341 C342 1.369 . S
C341 C343 1.419 . S
C341 H345 0.930 . S
C342 C341 1.369 . S
C342 C351 1.429 1_565 S
C343 C341 1.419 . S
C343 C344 1.363 1_565 S
C343 H346 0.929 . S
C344 C343 1.363 1_545 S
C344 C350 1.428 . S
H345 C341 0.930 . S
H346 C343 0.929 . S
S347 N348 1.613 . S
S347 N349 1.610 . S
N348 S347 1.613 . S
N348 C351 1.350 . S
N349 S347 1.610 . S
N349 C350 1.351 . S
C350 C344 1.428 . S
C350 N349 1.351 . S
C350 C351 1.434 . S
C351 C342 1.429 1_545 S
C351 N348 1.350 . S
C351 C350 1.434 . S
C352 C353 1.369 . S
C352 C354 1.419 . S
C352 H356 0.930 . S
C353 C352 1.369 . S
C353 C362 1.429 . S
C354 C352 1.419 . S
C354 C355 1.363 . S
C354 H357 0.929 . S
C355 C354 1.363 . S
C355 C361 1.428 . S
H356 C352 0.930 . S
H357 C354 0.929 . S
S358 N359 1.613 . S
S358 N360 1.610 . S
N359 S358 1.613 . S
N359 C362 1.350 . S
N360 S358 1.610 . S
N360 C361 1.351 . S
C361 C355 1.428 . S
C361 N360 1.351 . S
C361 C362 1.434 . S
C362 C353 1.429 . S
C362 N359 1.350 . S
C362 C361 1.434 . S
C363 C364 1.369 . S
C363 C365 1.419 1_655 S
C363 H367 0.930 . S
C364 C363 1.369 . S
C364 C373 1.429 . S
C365 C363 1.419 1_455 S
C365 C366 1.363 . S
C365 H368 0.929 . S
C366 C365 1.363 . S
C366 C372 1.428 . S
H367 C363 0.930 . S
H368 C365 0.929 . S
S369 N370 1.613 . S
S369 N371 1.610 1_655 S
N370 S369 1.613 . S
N370 C373 1.350 . S
N371 S369 1.610 1_455 S
N371 C372 1.351 . S
C372 C366 1.428 . S
C372 N371 1.351 . S
C372 C373 1.434 1_455 S
C373 C364 1.429 . S
C373 N370 1.350 . S
C373 C372 1.434 1_655 S
C374 C375 1.369 . S
C374 C376 1.419 1_565 S
C374 H378 0.930 . S
C375 C374 1.369 . S
C375 C384 1.429 . S
C376 C374 1.419 1_545 S
C376 C377 1.363 . S
C376 H379 0.929 . S
C377 C376 1.363 . S
C377 C383 1.428 . S
H378 C374 0.930 . S
H379 C376 0.929 . S
S380 N381 1.613 . S
S380 N382 1.610 1_565 S
N381 S380 1.613 . S
N381 C384 1.350 . S
N382 S380 1.610 1_545 S
N382 C383 1.351 . S
C383 C377 1.428 . S
C383 N382 1.351 . S
C383 C384 1.434 1_545 S
C384 C375 1.429 . S
C384 N381 1.350 . S
C384 C383 1.434 1_565 S
C385 C386 1.369 . S
C385 C387 1.419 . S
C385 H389 0.930 . S
C386 C385 1.369 . S
C386 C395 1.429 . S
C387 C385 1.419 . S
C387 C388 1.363 . S
C387 H390 0.929 . S
C388 C387 1.363 . S
C388 C394 1.428 . S
H389 C385 0.930 . S
H390 C387 0.929 . S
S391 N392 1.613 . S
S391 N393 1.610 . S
N392 S391 1.613 . S
N392 C395 1.350 . S
N393 S391 1.610 . S
N393 C394 1.351 . S
C394 C388 1.428 . S
C394 N393 1.351 . S
C394 C395 1.434 . S
C395 C386 1.429 . S
C395 N392 1.350 . S
C395 C394 1.434 . S
C396 C397 1.369 . S
C396 C398 1.419 . S
C396 H400 0.930 . S
C397 C396 1.369 . S
C397 C406 1.429 1_565 S
C398 C396 1.419 . S
C398 C399 1.363 1_565 S
C398 H401 0.929 . S
C399 C398 1.363 1_545 S
C399 C405 1.428 . S
H400 C396 0.930 . S
H401 C398 0.929 . S
S402 N403 1.613 . S
S402 N404 1.610 . S
N403 S402 1.613 . S
N403 C406 1.350 . S
N404 S402 1.610 . S
N404 C405 1.351 . S
C405 C399 1.428 . S
C405 N404 1.351 . S
C405 C406 1.434 . S
C406 C397 1.429 1_545 S
C406 N403 1.350 . S
C406 C405 1.434 . S
C407 C408 1.369 . S
C407 C409 1.419 . S
C407 H411 0.930 . S
C408 C407 1.369 . S
C408 C417 1.429 . S
C409 C407 1.419 . S
C409 C410 1.363 . S
C409 H412 0.929 . S
C410 C409 1.363 . S
C410 C416 1.428 . S
H411 C407 0.930 . S
H412 C409 0.929 . S
S413 N414 1.613 . S
S413 N415 1.610 . S
N414 S413 1.613 . S
N414 C417 1.350 . S
N415 S413 1.610 . S
N415 C416 1.351 . S
C416 C410 1.428 . S
C416 N415 1.351 . S
C416 C417 1.434 . S
C417 C408 1.429 . S
C417 N414 1.350 . S
C417 C416 1.434 . S
C418 C419 1.369 . S
C418 C420 1.419 1_455 S
C418 H422 0.930 . S
C419 C418 1.369 . S
C419 C428 1.429 . S
C420 C418 1.419 1_655 S
C420 C421 1.363 . S
C420 H423 0.929 . S
C421 C420 1.363 . S
C421 C427 1.428 1_655 S
H422 C418 0.930 . S
H423 C420 0.929 . S
S424 N425 1.613 . S
S424 N426 1.610 . S
N425 S424 1.613 . S
N425 C428 1.350 . S
N426 S424 1.610 . S
N426 C427 1.351 . S
C427 C421 1.428 1_455 S
C427 N426 1.351 . S
C427 C428 1.434 . S
C428 C419 1.429 . S
C428 N425 1.350 . S
C428 C427 1.434 . S
C429 C430 1.369 . S
C429 C431 1.419 1_545 S
C429 H433 0.930 1_545 S
C430 C429 1.369 . S
C430 C439 1.429 . S
C431 C429 1.419 1_565 S
C431 C432 1.363 . S
C431 H434 0.929 . S
C432 C431 1.363 . S
C432 C438 1.428 1_565 S
H433 C429 0.930 1_565 S
H434 C431 0.929 . S
S435 N436 1.613 . S
S435 N437 1.610 . S
N436 S435 1.613 . S
N436 C439 1.350 . S
N437 S435 1.610 . S
N437 C438 1.351 . S
C438 C432 1.428 1_545 S
C438 N437 1.351 . S
C438 C439 1.434 . S
C439 C430 1.429 . S
C439 N436 1.350 . S
C439 C438 1.434 . S
C440 C441 1.369 1_556 S
C440 C442 1.419 1_556 S
C440 H444 0.930 . S
C441 C440 1.369 1_554 S
C441 C450 1.429 . S
C442 C440 1.419 1_554 S
C442 C443 1.363 . S
C442 H445 0.929 1_554 S
C443 C442 1.363 . S
C443 C449 1.428 . S
H444 C440 0.930 . S
H445 C442 0.929 1_556 S
S446 N447 1.613 . S
S446 N448 1.610 . S
N447 S446 1.613 . S
N447 C450 1.350 . S
N448 S446 1.610 . S
N448 C449 1.351 . S
C449 C443 1.428 . S
C449 N448 1.351 . S
C449 C450 1.434 . S
C450 C441 1.429 . S
C450 N447 1.350 . S
C450 C449 1.434 . S
C451 C452 1.369 . S
C451 C453 1.419 1_455 S
C451 H455 0.930 . S
C452 C451 1.369 . S
C452 C461 1.429 1_455 S
C453 C451 1.419 1_655 S
C453 C454 1.363 . S
C453 H456 0.929 . S
C454 C453 1.363 . S
C454 C460 1.428 . S
H455 C451 0.930 . S
H456 C453 0.929 . S
S457 N458 1.613 . S
S457 N459 1.610 . S
N458 S457 1.613 . S
N458 C461 1.350 . S
N459 S457 1.610 . S
N459 C460 1.351 . S
C460 C454 1.428 . S
C460 N459 1.351 . S
C460 C461 1.434 . S
C461 C452 1.429 1_655 S
C461 N458 1.350 . S
C461 C460 1.434 . S
C462 C463 1.369 1_455 S
C462 C464 1.419 . S
C462 H466 0.930 1_455 S
C463 C462 1.369 1_655 S
C463 C472 1.429 1_655 S
C464 C462 1.419 . S
C464 C465 1.363 . S
C464 H467 0.929 . S
C465 C464 1.363 . S
C465 C471 1.428 . S
H466 C462 0.930 1_655 S
H467 C464 0.929 . S
S468 N469 1.613 1_455 S
S468 N470 1.610 . S
N469 S468 1.613 1_655 S
N469 C472 1.350 1_655 S
N470 S468 1.610 . S
N470 C471 1.351 . S
C471 C465 1.428 . S
C471 N470 1.351 . S
C471 C472 1.434 . S
C472 C463 1.429 1_455 S
C472 N469 1.350 1_455 S
C472 C471 1.434 . S
C473 C474 1.369 . S
C473 C475 1.419 1_565 S
C473 H477 0.930 . S
C474 C473 1.369 . S
C474 C483 1.429 1_565 S
C475 C473 1.419 1_545 S
C475 C476 1.363 . S
C475 H478 0.927 1_545 S
C476 C475 1.363 . S
C476 C482 1.428 . S
H477 C473 0.930 . S
H478 C475 0.927 1_565 S
S479 N480 1.613 . S
S479 N481 1.610 . S
N480 S479 1.613 . S
N480 C483 1.350 . S
N481 S479 1.610 . S
N481 C482 1.351 . S
C482 C476 1.428 . S
C482 N481 1.351 . S
C482 C483 1.434 . S
C483 C474 1.429 1_545 S
C483 N480 1.350 . S
C483 C482 1.434 . S
C484 C485 1.369 . S
C484 C486 1.419 . S
C484 H488 0.930 . S
C485 C484 1.369 . S
C485 C494 1.429 . S
C486 C484 1.419 . S
C486 C487 1.363 . S
C486 H489 0.929 . S
C487 C486 1.363 . S
C487 C493 1.428 . S
H488 C484 0.930 . S
H489 C486 0.929 . S
S490 N491 1.613 . S
S490 N492 1.610 . S
N491 S490 1.613 . S
N491 C494 1.350 . S
N492 S490 1.610 . S
N492 C493 1.351 . S
C493 C487 1.428 . S
C493 N492 1.351 . S
C493 C494 1.434 . S
C494 C485 1.429 . S
C494 N491 1.350 . S
C494 C493 1.434 . S
C495 C496 1.369 1_455 S
C495 C497 1.419 . S
C495 H499 0.930 1_556 S
C496 C495 1.369 1_655 S
C496 C505 1.429 . S
C497 C495 1.419 . S
C497 C498 1.363 . S
C497 H500 0.929 . S
C498 C497 1.363 . S
C498 C504 1.428 1_455 S
H499 C495 0.930 1_554 S
H500 C497 0.929 . S
S501 N502 1.613 . S
S501 N503 1.610 . S
N502 S501 1.613 . S
N502 C505 1.350 . S
N503 S501 1.610 . S
N503 C504 1.351 . S
C504 C498 1.428 1_655 S
C504 N503 1.351 . S
C504 C505 1.434 . S
C505 C496 1.429 . S
C505 N502 1.350 . S
C505 C504 1.434 . S
C506 C507 1.369 . S
C506 C508 1.419 1_545 S
C506 H510 0.930 . S
C507 C506 1.369 . S
C507 C516 1.429 1_545 S
C508 C506 1.419 1_565 S
C508 C509 1.363 . S
C508 H511 0.929 . S
C509 C508 1.363 . S
C509 C515 1.428 . S
H510 C506 0.930 . S
H511 C508 0.929 . S
S512 N513 1.613 . S
S512 N514 1.610 . S
N513 S512 1.613 . S
N513 C516 1.350 . S
N514 S512 1.610 . S
N514 C515 1.351 . S
C515 C509 1.428 . S
C515 N514 1.351 . S
C515 C516 1.434 . S
C516 C507 1.429 1_565 S
C516 N513 1.350 . S
C516 C515 1.434 . S
C517 C518 1.369 . S
C517 C519 1.419 . S
C517 H521 0.930 . S
C518 C517 1.369 . S
C518 C527 1.429 . S
C519 C517 1.419 . S
C519 C520 1.363 . S
C519 H522 0.929 . S
C520 C519 1.363 . S
C520 C526 1.428 . S
H521 C517 0.930 . S
H522 C519 0.929 . S
S523 N524 1.613 . S
S523 N525 1.610 . S
N524 S523 1.613 . S
N524 C527 1.350 . S
N525 S523 1.610 . S
N525 C526 1.351 . S
C526 C520 1.428 . S
C526 N525 1.351 . S
C526 C527 1.434 . S
C527 C518 1.429 . S
C527 N524 1.350 . S
C527 C526 1.434 . S
C528 C529 1.369 . S
C528 C530 1.419 . S
C528 H532 0.930 . S
C529 C528 1.369 . S
C529 C538 1.429 . S
C530 C528 1.419 . S
C530 C531 1.363 . S
C530 H533 0.930 . S
C531 C530 1.363 . S
C531 C537 1.428 . S
H532 C528 0.930 . S
H533 C530 0.930 . S
S534 N535 1.613 . S
S534 N536 1.610 . S
N535 S534 1.613 . S
N535 C538 1.350 . S
N536 S534 1.610 . S
N536 C537 1.351 . S
C537 C531 1.428 . S
C537 N536 1.351 . S
C537 C538 1.434 . S
C538 C529 1.429 . S
C538 N535 1.350 . S
C538 C537 1.434 . S
C539 C540 1.369 . S
C539 C541 1.419 . S
C539 H543 0.930 . S
C540 C539 1.369 . S
C540 C549 1.429 . S
C541 C539 1.419 . S
C541 C542 1.363 . S
C541 H544 0.929 1_545 S
C542 C541 1.363 . S
C542 C548 1.428 . S
H543 C539 0.930 . S
H544 C541 0.929 1_565 S
S545 N546 1.613 . S
S545 N547 1.610 . S
N546 S545 1.613 . S
N546 C549 1.350 . S
N547 S545 1.610 . S
N547 C548 1.351 . S
C548 C542 1.428 . S
C548 N547 1.351 . S
C548 C549 1.434 . S
C549 C540 1.429 . S
C549 N546 1.350 . S
C549 C548 1.434 . S
C550 C551 1.369 . S
C550 C552 1.419 . S
C550 H554 0.930 . S
C551 C550 1.369 . S
C551 C560 1.429 . S
C552 C550 1.419 . S
C552 C553 1.363 . S
C552 H555 0.929 . S
C553 C552 1.363 . S
C553 C559 1.428 . S
H554 C550 0.930 . S
H555 C552 0.929 . S
S556 N557 1.613 . S
S556 N558 1.610 . S
N557 S556 1.613 . S
N557 C560 1.350 . S
N558 S556 1.610 . S
N558 C559 1.351 . S
C559 C553 1.428 . S
C559 N558 1.351 . S
C559 C560 1.434 . S
C560 C551 1.429 . S
C560 N557 1.350 . S
C560 C559 1.434 . S
C561 C562 1.369 . S
C561 C563 1.419 . S
C561 H565 0.930 . S
C562 C561 1.369 . S
C562 C571 1.429 . S
C563 C561 1.419 . S
C563 C564 1.363 . S
C563 H566 0.929 . S
C564 C563 1.363 . S
C564 C570 1.428 . S
H565 C561 0.930 . S
H566 C563 0.929 . S
S567 N568 1.613 . S
S567 N569 1.610 . S
N568 S567 1.613 . S
N568 C571 1.350 . S
N569 S567 1.610 . S
N569 C570 1.351 . S
C570 C564 1.428 . S
C570 N569 1.351 . S
C570 C571 1.434 . S
C571 C562 1.429 . S
C571 N568 1.350 . S
C571 C570 1.434 . S
C572 C573 1.369 . S
C572 C574 1.419 . S
C572 H576 0.930 . S
C573 C572 1.369 . S
C573 C582 1.429 . S
C574 C572 1.419 . S
C574 C575 1.363 . S
C574 H577 0.929 . S
C575 C574 1.363 . S
C575 C581 1.428 . S
H576 C572 0.930 . S
H577 C574 0.929 . S
S578 N579 1.613 . S
S578 N580 1.610 . S
N579 S578 1.613 . S
N579 C582 1.350 . S
N580 S578 1.610 . S
N580 C581 1.351 . S
C581 C575 1.428 . S
C581 N580 1.351 . S
C581 C582 1.434 . S
C582 C573 1.429 . S
C582 N579 1.350 . S
C582 C581 1.434 . S
C583 C584 1.369 . S
C583 C585 1.419 . S
C583 H587 0.930 . S
C584 C583 1.369 . S
C584 C593 1.429 . S
C585 C583 1.419 . S
C585 C586 1.363 . S
C585 H588 0.929 . S
C586 C585 1.363 . S
C586 C592 1.428 . S
H587 C583 0.930 . S
H588 C585 0.929 . S
S589 N590 1.613 . S
S589 N591 1.610 1_655 S
N590 S589 1.613 . S
N590 C593 1.350 . S
N591 S589 1.610 1_455 S
N591 C592 1.351 1_455 S
C592 C586 1.428 . S
C592 N591 1.351 1_655 S
C592 C593 1.434 . S
C593 C584 1.429 . S
C593 N590 1.350 . S
C593 C592 1.434 . S
C594 C595 1.369 . S
C594 C596 1.419 . S
C594 H598 0.930 . S
C595 C594 1.369 . S
C595 C604 1.429 . S
C596 C594 1.419 . S
C596 C597 1.363 . S
C596 H599 0.929 . S
C597 C596 1.363 . S
C597 C603 1.428 . S
H598 C594 0.930 . S
H599 C596 0.929 . S
S600 N601 1.613 . S
S600 N602 1.610 . S
N601 S600 1.613 . S
N601 C604 1.350 . S
N602 S600 1.610 . S
N602 C603 1.351 . S
C603 C597 1.428 . S
C603 N602 1.351 . S
C603 C604 1.434 . S
C604 C595 1.429 . S
C604 N601 1.350 . S
C604 C603 1.434 . S
C605 C606 1.369 . S
C605 C607 1.419 . S
C605 H609 0.930 . S
C606 C605 1.369 . S
C606 C615 1.429 . S
C607 C605 1.419 . S
C607 C608 1.363 . S
C607 H610 0.929 . S
C608 C607 1.363 . S
C608 C614 1.428 . S
H609 C605 0.930 . S
H610 C607 0.929 . S
S611 N612 1.613 . S
S611 N613 1.610 . S
N612 S611 1.613 . S
N612 C615 1.350 . S
N613 S611 1.610 . S
N613 C614 1.351 . S
C614 C608 1.428 . S
C614 N613 1.351 . S
C614 C615 1.434 . S
C615 C606 1.429 . S
C615 N612 1.350 . S
C615 C614 1.434 . S
C616 C617 1.369 . S
C616 C618 1.419 . S
C616 H620 0.930 . S
C617 C616 1.369 . S
C617 C626 1.429 . S
C618 C616 1.419 . S
C618 C619 1.363 . S
C618 H621 0.929 . S
C619 C618 1.363 . S
C619 C625 1.428 . S
H620 C616 0.930 . S
H621 C618 0.929 . S
S622 N623 1.613 . S
S622 N624 1.610 . S
N623 S622 1.613 . S
N623 C626 1.350 . S
N624 S622 1.610 . S
N624 C625 1.351 . S
C625 C619 1.428 . S
C625 N624 1.351 . S
C625 C626 1.434 . S
C626 C617 1.429 . S
C626 N623 1.350 . S
C626 C625 1.434 . S
C627 C628 1.369 . S
C627 C629 1.419 . S
C627 H631 0.930 . S
C628 C627 1.369 . S
C628 C637 1.429 . S
C629 C627 1.419 . S
C629 C630 1.363 . S
C629 H632 0.929 . S
C630 C629 1.363 . S
C630 C636 1.428 . S
H631 C627 0.930 . S
H632 C629 0.929 . S
S633 N634 1.613 . S
S633 N635 1.610 . S
N634 S633 1.613 . S
N634 C637 1.350 . S
N635 S633 1.610 . S
N635 C636 1.351 . S
C636 C630 1.428 . S
C636 N635 1.351 . S
C636 C637 1.434 . S
C637 C628 1.429 . S
C637 N634 1.350 . S
C637 C636 1.434 . S
C638 C639 1.369 . S
C638 C640 1.419 . S
C638 H642 0.930 . S
C639 C638 1.369 . S
C639 C648 1.429 . S
C640 C638 1.419 . S
C640 C641 1.363 . S
C640 H643 0.929 . S
C641 C640 1.363 . S
C641 C647 1.428 . S
H642 C638 0.930 . S
H643 C640 0.929 . S
S644 N645 1.613 . S
S644 N646 1.610 . S
N645 S644 1.613 . S
N645 C648 1.350 . S
N646 S644 1.610 . S
N646 C647 1.351 . S
C647 C641 1.428 . S
C647 N646 1.351 . S
C647 C648 1.434 . S
C648 C639 1.429 . S
C648 N645 1.350 . S
C648 C647 1.434 . S
C649 C650 1.369 . S
C649 C651 1.419 . S
C649 H653 0.930 . S
C650 C649 1.369 . S
C650 C659 1.429 . S
C651 C649 1.419 . S
C651 C652 1.363 . S
C651 H654 0.929 . S
C652 C651 1.363 . S
C652 C658 1.428 . S
H653 C649 0.930 . S
H654 C651 0.929 . S
S655 N656 1.613 . S
S655 N657 1.610 . S
N656 S655 1.613 . S
N656 C659 1.350 . S
N657 S655 1.610 . S
N657 C658 1.351 . S
C658 C652 1.428 . S
C658 N657 1.351 . S
C658 C659 1.434 . S
C659 C650 1.429 . S
C659 N656 1.350 . S
C659 C658 1.434 . S
C265 C117 1.204 . S
C267 C18 1.198 . S
C276 C32 1.191 . S
C278 C15 1.206 . S
C287 C54 1.191 . S
C289 C43 1.206 . S
C298 C65 1.203 . S
C300 C84 1.197 . S
C309 C81 1.208 . S
C311 C106 1.195 . S
C320 C118 1.199 . S
C322 C103 1.205 . S
C331 C169 1.208 . S
C333 C150 1.191 . S
C342 C172 1.190 . S
C344 C191 1.207 . S
C353 C205 1.208 . S
C355 C194 1.195 . S
C364 C227 1.203 . S
C366 C206 1.196 . S
C375 C263 1.203 . S
C377 C228 1.197 . S
C386 C147 1.208 . S
C388 C252 1.194 . S
C397 C257 1.436 . S
C399 C8 1.429 . S
C408 C40 1.432 . S
C410 C139 1.430 . S
C419 C161 1.434 . S
C421 C62 1.428 . S
C430 C183 1.433 . S
C432 C74 1.428 . S
C441 C219 1.431 1_554 S
C443 C96 1.433 . S
C452 C120 1.433 . S
C454 C241 1.433 . S
C463 C140 1.432 . S
C465 C37 1.433 . S
C474 C162 1.433 . S
C476 C59 1.432 . S
C485 C73 1.433 . S
C487 C184 1.428 . S
C496 C95 1.429 1_556 S
C498 C208 1.432 . S
C507 C230 1.429 . S
C509 C131 1.432 . S
C518 C260 1.428 . S
C520 C7 1.433 . S
C529 C142 1.189 . S
C531 C10 1.194 . S
C540 C30 1.193 . S
C542 C164 1.193 . S
C551 C186 1.189 . S
C553 C52 1.192 . S
C562 C76 1.195 . S
C564 C216 1.189 . S
C573 C238 1.189 . S
C575 C98 1.195 . S
C584 C250 1.190 . S
C586 C128 1.192 . S
C595 C153 1.129 . S
C597 C21 1.135 . S
C606 C175 1.129 . S
C608 C29 1.134 . S
C617 C197 1.135 . S
C619 C51 1.128 . S
C628 C87 1.128 . S
C630 C213 1.135 . S
C639 C235 1.130 . S
C641 C109 1.132 . S
C650 C249 1.135 . S
C652 C125 1.129 . S
