# Generated by pormake.
# Topology tfs, (6)-cn, num edge types: 1
# Building blocks:
#     Node 0, Type 0, BuildingBlock: BETGAK_clean_sbu_0, # of connection points: 6
#     Node 1, Type 0, BuildingBlock: BETGAK_clean_sbu_0, # of connection points: 6
#     Node 2, Type 0, BuildingBlock: BETGAK_clean_sbu_0, # of connection points: 6
#     Node 3, Type 0, BuildingBlock: BETGAK_clean_sbu_0, # of connection points: 6
#     Node 4, Type 0, BuildingBlock: BETGAK_clean_sbu_0, # of connection points: 6
#     Node 5, Type 0, BuildingBlock: BETGAK_clean_sbu_0, # of connection points: 6
#     Edge 6, Type (0, 0), BuildingBlock: TEMPAE_clean_linker_10, # of connection points: 2
#     Edge 7, Type (0, 0), BuildingBlock: TEMPAE_clean_linker_10, # of connection points: 2
#     Edge 8, Type (0, 0), BuildingBlock: TEMPAE_clean_linker_10, # of connection points: 2
#     Edge 9, Type (0, 0), BuildingBlock: TEMPAE_clean_linker_10, # of connection points: 2
#     Edge 10, Type (0, 0), BuildingBlock: TEMPAE_clean_linker_10, # of connection points: 2
#     Edge 11, Type (0, 0), BuildingBlock: TEMPAE_clean_linker_10, # of connection points: 2
#     Edge 12, Type (0, 0), BuildingBlock: TEMPAE_clean_linker_10, # of connection points: 2
#     Edge 13, Type (0, 0), BuildingBlock: TEMPAE_clean_linker_10, # of connection points: 2
#     Edge 14, Type (0, 0), BuildingBlock: TEMPAE_clean_linker_10, # of connection points: 2
#     Edge 15, Type (0, 0), BuildingBlock: TEMPAE_clean_linker_10, # of connection points: 2
#     Edge 16, Type (0, 0), BuildingBlock: TEMPAE_clean_linker_10, # of connection points: 2
#     Edge 17, Type (0, 0), BuildingBlock: TEMPAE_clean_linker_10, # of connection points: 2
#     Edge 18, Type (0, 0), BuildingBlock: TEMPAE_clean_linker_10, # of connection points: 2
#     Edge 19, Type (0, 0), BuildingBlock: TEMPAE_clean_linker_10, # of connection points: 2
#     Edge 20, Type (0, 0), BuildingBlock: TEMPAE_clean_linker_10, # of connection points: 2
#     Edge 21, Type (0, 0), BuildingBlock: TEMPAE_clean_linker_10, # of connection points: 2
#     Edge 22, Type (0, 0), BuildingBlock: TEMPAE_clean_linker_10, # of connection points: 2
#     Edge 23, Type (0, 0), BuildingBlock: TEMPAE_clean_linker_10, # of connection points: 2
# Relax obj value: 0.554
# Max RMSD: 0.458
# Mean RMSD: 0.358
data_MOF--net-tfs--node1-BETGAK_clean_sbu_0--edge1-TEMPAE_clean_linker_10
_symmetry_space_group_name_H-M    P1
_symmetry_Int_Tables_number       1
_symmetry_cell_setting            triclinic
loop_
_symmetry_equiv_pos_as_xyz
'x, y, z'
_cell_length_a     53.794568
_cell_length_b     50.306207
_cell_length_c     13.186738
_cell_angle_alpha  99.104916
_cell_angle_beta   91.99021
_cell_angle_gamma 126.87531
loop_
_atom_site_label
_atom_site_type_symbol
_atom_site_fract_x
_atom_site_fract_y
_atom_site_fract_z
_atom_type_partial_charge
La0 La 0.33707 0.46255 0.61253 0.0
La1 La 0.32147 0.50516 0.7362 0.0
C2 C 0.35965 0.43151 0.56167 0.0
C3 C 0.35657 0.40101 0.50931 0.0
C4 C 0.36314 0.39797 0.40761 0.0
C5 C 0.36768 0.37387 0.3677 0.0
C6 C 0.36616 0.35259 0.42909 0.0
C7 C 0.35783 0.35436 0.52841 0.0
C8 C 0.35312 0.37826 0.56802 0.0
C9 C 0.3183 0.48906 0.50177 0.0
C10 C 0.26649 0.42993 0.62542 0.0
C11 C 0.31141 0.54563 0.82218 0.0
C12 C 0.32237 0.58125 0.84493 0.0
C13 C 0.34247 0.60422 0.93833 0.0
C14 C 0.34831 0.63572 0.96841 0.0
C15 C 0.33394 0.64484 0.90627 0.0
C16 C 0.3147 0.62228 0.81121 0.0
C17 C 0.30896 0.59091 0.78106 0.0
C18 C 0.33056 0.46947 0.83919 0.0
C19 C 0.39224 0.54236 0.70253 0.0
O20 O 0.35919 0.4507 0.50602 0.0
O21 O 0.34698 0.43015 0.64589 0.0
O22 O 0.31124 0.45897 0.47281 0.0
O23 O 0.3349 0.50209 0.58983 0.0
O24 O 0.28721 0.42365 0.62274 0.0
O25 O 0.27572 0.46139 0.65123 0.0
O26 O 0.32803 0.5388 0.87038 0.0
O27 O 0.29954 0.52798 0.72556 0.0
O28 O 0.30675 0.46995 0.83954 0.0
O29 O 0.34475 0.48469 0.7707 0.0
O30 O 0.37122 0.54586 0.73641 0.0
O31 O 0.38422 0.51238 0.65372 0.0
H32 H 0.36649 0.41544 0.36085 0.0
H33 H 0.37429 0.37336 0.29117 0.0
H34 H 0.3561 0.33807 0.57721 0.0
H35 H 0.34851 0.38013 0.64712 0.0
H36 H 0.35279 0.59739 -0.00973 0.0
H37 H 0.36355 0.65261 0.04149 0.0
H38 H 0.30279 0.6281 0.76205 0.0
H39 H 0.29284 0.57358 0.70972 0.0
La40 La 0.88036 0.18519 0.36426 0.0
La41 La 0.8141 0.15585 0.24782 0.0
C42 C 0.92846 0.2052 0.48719 0.0
C43 C 0.96273 0.22411 0.49149 0.0
C44 C 0.9792 0.24549 0.42323 0.0
C45 C 1.01194 0.26381 0.43137 0.0
C46 C 1.02879 0.26105 0.50787 0.0
C47 C 1.01192 0.23909 0.57473 0.0
C48 C 0.97929 0.22089 0.56661 0.0
C49 C 0.87009 0.1645 0.16098 0.0
C50 C 0.82032 0.10841 0.34985 0.0
C51 C 0.768 0.13575 0.11482 0.0
C52 C 0.74726 0.1453 0.09876 0.0
C53 C 0.75676 0.17795 0.14344 0.0
C54 C 0.7356 0.18541 0.13483 0.0
C55 C 0.70444 0.1603 0.082 0.0
C56 C 0.69537 0.12784 0.03584 0.0
C57 C 0.71656 0.12048 0.04412 0.0
C58 C 0.82355 0.17884 0.45026 0.0
C59 C 0.87336 0.23423 0.26674 0.0
O60 O 0.9177 0.22264 0.48601 0.0
O61 O 0.91031 0.17537 0.42232 0.0
O62 O 0.89764 0.18801 0.21635 0.0
O63 O 0.8505 0.15153 0.22136 0.0
O64 O 0.84668 0.13619 0.40797 0.0
O65 O 0.80696 0.10966 0.26636 0.0
O66 O 0.7653 0.12307 0.19673 0.0
O67 O 0.79751 0.15742 0.10364 0.0
O68 O 0.79593 0.15756 0.39353 0.0
O69 O 0.8437 0.18905 0.39079 0.0
O70 O 0.84379 0.208 0.22544 0.0
O71 O 0.89156 0.23197 0.32958 0.0
H72 H 0.96682 0.2483 0.36454 0.0
H73 H 1.02415 0.28074 0.37931 0.0
H74 H 1.02393 0.23589 0.63345 0.0
H75 H 0.96695 0.20437 0.61966 0.0
H76 H 0.78033 0.19746 0.18654 0.0
H77 H 0.74361 0.21082 0.17015 0.0
H78 H 0.67154 0.10767 -0.00399 0.0
H79 H 0.70868 0.09503 0.00996 0.0
La80 La 0.66542 0.81371 0.61165 0.0
La81 La 0.63139 0.84473 0.68514 0.0
C82 C 0.68155 0.7763 0.55812 0.0
C83 C 0.71018 0.77896 0.54986 0.0
C84 C 0.71489 0.75973 0.602 0.0
C85 C 0.7397 0.75842 0.58656 0.0
C86 C 0.76019 0.77619 0.51801 0.0
C87 C 0.75633 0.79672 0.46936 0.0
C88 C 0.73155 0.79815 0.48525 0.0
C89 C 0.68546 0.8523 0.80024 0.0
C90 C 0.69641 0.88948 0.60012 0.0
C91 C 0.61489 0.8738 0.80255 0.0
C92 C 0.60345 0.87334 0.90247 0.0
C93 C 0.62196 0.90274 -0.01713 0.0
C94 C 0.6104 0.90508 0.074 0.0
C95 C 0.57995 0.87805 0.08654 0.0
C96 C 0.56205 0.84785 0.00803 0.0
C97 C 0.57371 0.84548 0.91672 0.0
C98 C 0.62339 0.82524 0.48258 0.0
C99 C 0.59667 0.76766 0.68085 0.0
O100 O 0.67693 0.78319 0.65223 0.0
O101 O 0.6741 0.78832 0.4926 0.0
O102 O 0.70336 0.85026 0.74212 0.0
O103 O 0.65774 0.83175 0.75249 0.0
O104 O 0.69512 0.86242 0.56387 0.0
O105 O 0.67683 0.88856 0.66061 0.0
O106 O 0.5957 0.8481 0.72297 0.0
O107 O 0.64404 0.88438 0.80845 0.0
O108 O 0.62021 0.84761 0.52823 0.0
O109 O 0.62758 0.81263 0.55028 0.0
O110 O 0.59752 0.79443 0.7136 0.0
O111 O 0.61899 0.76939 0.63436 0.0
H112 H 0.69863 0.74464 0.65187 0.0
H113 H 0.74176 0.74201 0.62401 0.0
H114 H 0.77194 0.81088 0.41673 0.0
H115 H 0.7286 0.81339 0.44451 0.0
H116 H 0.64495 0.92456 0.97347 0.0
H117 H 0.62463 0.92896 0.13159 0.0
H118 H 0.53864 0.82645 0.01585 0.0
H119 H 0.55905 0.82235 0.85628 0.0
La120 La 0.91053 0.5973 -0.01618 0.0
La121 La 0.93807 0.56023 0.97195 0.0
C122 C 0.87684 0.6165 0.00444 0.0
C123 C 0.87018 0.63434 0.08397 0.0
C124 C 0.84006 0.62571 0.07288 0.0
C125 C 0.83312 0.64331 0.14293 0.0
C126 C 0.85623 0.66994 0.22579 0.0
C127 C 0.88638 0.67819 0.23804 0.0
C128 C 0.89329 0.66038 0.16766 0.0
C129 C 0.94186 0.60514 0.82658 0.0
C130 C 0.97572 0.63539 0.1063 0.0
C131 C 0.97093 0.5399 0.96001 0.0
C132 C 0.96544 0.50823 0.9729 0.0
C133 C 0.98613 0.51048 0.04805 0.0
C134 C 0.97912 0.48111 0.07448 0.0
C135 C 0.95148 0.44886 0.02512 0.0
C136 C 0.9315 0.4464 0.94617 0.0
C137 C 0.93826 0.47589 0.92083 0.0
C138 C 0.90021 0.54777 0.10825 0.0
C139 C 0.86911 0.51839 0.86241 0.0
O140 O 0.90468 0.63458 -0.02323 0.0
O141 O 0.86756 0.58643 0.01372 0.0
O142 O 0.94378 0.62914 0.8884 0.0
O143 O 0.92546 0.579 0.86299 0.0
O144 O 0.94837 0.62911 0.11383 0.0
O145 O 0.97743 0.61478 0.03579 0.0
O146 O 0.97155 0.55778 0.04507 0.0
O147 O 0.95518 0.53843 0.87814 0.0
O148 O 0.90406 0.52588 0.06422 0.0
O149 O 0.92022 0.57579 0.0867 0.0
O150 O 0.89384 0.51871 0.8721 0.0
O151 O 0.87078 0.54548 0.90145 0.0
H152 H 0.822 0.60574 0.0085 0.0
H153 H 0.80987 0.63673 0.13017 0.0
H154 H 0.90455 0.69842 0.30158 0.0
H155 H 0.91667 0.66719 0.17779 0.0
H156 H 1.00713 0.53513 0.08953 0.0
H157 H 0.99495 0.48362 0.13519 0.0
H158 H 0.90993 0.42179 0.90758 0.0
H159 H 0.92168 0.47339 0.86343 0.0
La160 La 0.28606 0.8602 0.96357 0.0
La161 La 0.35579 0.91538 0.01228 0.0
C162 C 0.22752 0.82645 0.95691 0.0
C163 C 0.20193 0.81665 0.87789 0.0
C164 C 0.20798 0.82345 0.7788 0.0
C165 C 0.18306 0.80897 0.69783 0.0
C166 C 0.15168 0.78753 0.71478 0.0
C167 C 0.14589 0.78248 0.81599 0.0
C168 C 0.17086 0.79681 0.89678 0.0
C169 C 0.3172 0.85721 0.81924 0.0
C170 C 0.31723 0.92998 0.88506 0.0
C171 C 0.4151 0.95387 0.05092 0.0
C172 C 0.43741 0.95817 0.13206 0.0
C173 C 0.46665 0.99007 0.17045 0.0
C174 C 0.4885 0.99345 0.24323 0.0
C175 C 0.48135 0.96486 0.27806 0.0
C176 C 0.45121 0.93348 0.24366 0.0
C177 C 0.42953 0.93029 0.17189 0.0
C178 C 0.32468 0.91345 0.16751 0.0
C179 C 0.32688 0.8415 0.04929 0.0
O180 O 0.24142 0.81293 0.92877 0.0
O181 O 0.24774 0.85893 0.00197 0.0
O182 O 0.28967 0.83113 0.83018 0.0
O183 O 0.32286 0.8833 0.87539 0.0
O184 O 0.2915 0.90323 0.91033 0.0
O185 O 0.34485 0.93652 0.90509 0.0
O186 O 0.39818 0.96306 0.08408 0.0
O187 O 0.39813 0.92463 -0.01715 0.0
O188 O 0.34588 0.94042 0.13636 0.0
O189 O 0.31946 0.88901 0.10225 0.0
O190 O 0.35166 0.87029 0.03057 0.0
O191 O 0.29923 0.83538 0.04812 0.0
H192 H 0.23192 0.83856 0.76285 0.0
H193 H 0.1884 0.81314 0.62082 0.0
H194 H 0.12202 0.7666 0.83204 0.0
H195 H 0.16584 0.7913 0.97289 0.0
H196 H 0.47293 1.01208 0.14189 0.0
H197 H 0.51147 1.018 0.26848 0.0
H198 H 0.44494 0.91068 0.26656 0.0
H199 H 0.40693 0.90566 0.14488 0.0
La200 La 0.47859 0.18523 0.16788 0.0
La201 La 0.52613 0.25411 0.10972 0.0
C202 C 0.44483 0.13878 0.2634 0.0
C203 C 0.41511 0.11891 0.30516 0.0
C204 C 0.39695 0.0833 0.2802 0.0
C205 C 0.37272 0.06359 0.33496 0.0
C206 C 0.36612 0.07907 0.41647 0.0
C207 C 0.38284 0.11465 0.43622 0.0
C208 C 0.40712 0.13439 0.38087 0.0
C209 C 0.46963 0.18701 0.97273 0.0
C210 C 0.46579 0.24101 0.1853 0.0
C211 C 0.56161 0.29789 0.00851 0.0
C212 C 0.59227 0.31177 0.97613 0.0
C213 C 0.61477 0.31163 0.03256 0.0
C214 C 0.64398 0.32542 0.00088 0.0
C215 C 0.65099 0.33928 0.91187 0.0
C216 C 0.62785 0.3381 0.85346 0.0
C217 C 0.59873 0.32445 0.88545 0.0
C218 C 0.53333 0.25365 0.30681 0.0
C219 C 0.54061 0.20023 0.09827 0.0
O220 O 0.44338 0.13318 0.16218 0.0
O221 O 0.46633 0.17091 0.30959 0.0
O222 O 0.46261 0.15994 0.0006 0.0
O223 O 0.4793 0.20997 0.05199 0.0
O224 O 0.45879 0.21282 0.21104 0.0
O225 O 0.48879 0.25856 0.13143 0.0
O226 O 0.56154 0.30544 0.10834 0.0
O227 O 0.53923 0.26577 0.96612 0.0
O228 O 0.5402 0.28002 0.27426 0.0
O229 O 0.52503 0.23028 0.22957 0.0
O230 O 0.54683 0.22776 0.07152 0.0
O231 O 0.51666 0.18152 0.14727 0.0
H232 H 0.40282 0.07079 0.2227 0.0
H233 H 0.36083 0.0364 0.31842 0.0
H234 H 0.37822 0.12738 0.49787 0.0
H235 H 0.42074 0.1618 0.40139 0.0
H236 H 0.60988 0.30122 0.1016 0.0
H237 H 0.66125 0.32564 0.04665 0.0
H238 H 0.63267 0.34886 0.78517 0.0
H239 H 0.58138 0.32424 0.84017 0.0
C240 C 0.4589 0.28643 0.20779 0.0
C241 C 0.4477 0.25366 0.2171 0.0
C242 C 0.44337 0.29994 0.24146 0.0
C243 C 0.41558 0.28014 0.28471 0.0
C244 C 0.40376 0.24679 0.29287 0.0
C245 C 0.42006 0.23402 0.25958 0.0
C246 C 0.45716 0.3358 0.23273 0.0
C247 C 0.37407 0.22476 0.33765 0.0
C248 C 0.39706 0.33148 0.46224 0.0
C249 C 0.37616 0.33109 0.39399 0.0
C250 C 0.4091 0.31394 0.42877 0.0
C251 C 0.39985 0.29519 0.32452 0.0
C252 C 0.3778 0.29357 0.25628 0.0
C253 C 0.36643 0.31176 0.29153 0.0
C254 C 0.43293 0.31687 0.50378 0.0
C255 C 0.36697 0.27348 0.14503 0.0
H256 H 0.48035 0.30203 0.17593 0.0
H257 H 0.41117 0.20868 0.26702 0.0
H258 H 0.43962 0.3357 0.18555 0.0
H259 H 0.46307 0.35192 0.3112 0.0
H260 H 0.4788 0.34776 0.19649 0.0
H261 H 0.36714 0.19887 0.3342 0.0
H262 H 0.3775 0.23694 0.42005 0.0
H263 H 0.35442 0.22226 0.29467 0.0
H264 H 0.40509 0.34674 0.54109 0.0
H265 H 0.35008 0.31108 0.23861 0.0
H266 H 0.45612 0.33121 0.47708 0.0
H267 H 0.42584 0.29124 0.5058 0.0
H268 H 0.43584 0.3302 0.58413 0.0
H269 H 0.38694 0.28567 0.10111 0.0
H270 H 0.34747 0.27193 0.10508 0.0
H271 H 0.35897 0.24724 0.14234 0.0
C272 C 0.21908 0.36757 0.59026 0.0
C273 C 0.23193 0.40186 0.59873 0.0
C274 C 0.18612 0.34172 0.57085 0.0
C275 C 0.16564 0.35041 0.55926 0.0
C276 C 0.1786 0.38486 0.56503 0.0
C277 C 0.21138 0.40999 0.58461 0.0
C278 C 0.1732 0.30526 0.56509 0.0
C279 C 0.15781 0.3954 0.55275 0.0
C280 C 0.07923 0.28694 0.43325 0.0
C281 C 0.06387 0.28178 0.52039 0.0
C282 C 0.11233 0.30784 0.44462 0.0
C283 C 0.13065 0.32413 0.54557 0.0
C284 C 0.11527 0.31814 0.63378 0.0
C285 C 0.08219 0.29716 0.62017 0.0
C286 C 0.12773 0.31346 0.3485 0.0
C287 C 0.13379 0.33514 0.74283 0.0
H288 H 0.23469 0.36099 0.60092 0.0
H289 H 0.22088 0.4363 0.58971 0.0
H290 H 0.16001 0.29611 0.6303 0.0
H291 H 0.15637 0.28861 0.49168 0.0
H292 H 0.19208 0.30234 0.56919 0.0
H293 H 0.1716 0.42311 0.55568 0.0
H294 H 0.14144 0.38102 0.47753 0.0
H295 H 0.14325 0.38922 0.61558 0.0
H296 H 0.06535 0.27477 0.35586 0.0
H297 H 0.07071 0.29376 0.68812 0.0
H298 H 0.14559 0.30908 0.35394 0.0
H299 H 0.1402 0.3403 0.34236 0.0
H300 H 0.11037 0.29645 0.27621 0.0
H301 H 0.15175 0.33105 0.753 0.0
H302 H 0.11846 0.32543 0.80306 0.0
H303 H 0.1465 0.36305 0.7562 0.0
C304 C 0.82105 0.0717 0.45659 0.0
C305 C 0.80493 0.07539 0.38107 0.0
C306 C 0.80606 0.04117 0.49112 0.0
C307 C 0.77403 1.01383 0.45045 0.0
C308 C 0.7578 1.01725 0.37295 0.0
C309 C 0.77349 0.04787 0.33887 0.0
C310 C 0.82423 0.03858 0.5736 0.0
C311 C 0.72332 0.98952 0.32979 0.0
C312 C 0.7354 0.92356 0.48551 0.0
C313 C 0.71929 0.92211 0.56848 0.0
C314 C 0.75405 0.95354 0.44782 0.0
C315 C 0.75675 0.98275 0.49451 0.0
C316 C 0.74138 0.98173 0.58035 0.0
C317 C 0.72298 0.95156 0.61631 0.0
C318 C 0.77004 0.95367 0.35593 0.0
C319 C 0.74331 1.01212 0.63178 0.0
H320 H 0.84536 0.09282 0.48966 0.0
H321 H 0.76068 0.05056 0.28144 0.0
H322 H 0.81441 0.0372 0.6469 0.0
H323 H 0.82182 1.01489 0.54909 0.0
H324 H 0.84966 0.06075 0.59006 0.0
H325 H 0.71711 0.99107 0.25081 0.0
H326 H 0.71657 0.96377 0.32585 0.0
H327 H 0.70903 0.99263 0.38173 0.0
H328 H 0.73266 0.901 0.44778 0.0
H329 H 0.7108 0.95091 0.68079 0.0
H330 H 0.79589 0.97364 0.37824 0.0
H331 H 0.76213 0.96008 0.29157 0.0
H332 H 0.76503 0.92869 0.32669 0.0
H333 H 0.73159 1.00792 0.70168 0.0
H334 H 0.73193 1.01753 0.5755 0.0
H335 H 0.76826 0.03513 0.65524 0.0
C336 C 0.86965 0.72565 0.31814 0.0
C337 C 0.84887 0.68989 0.2946 0.0
C338 C 0.86053 0.74465 0.36806 0.0
C339 C 0.82988 0.72738 0.39396 0.0
C340 C 0.80967 0.69137 0.37664 0.0
C341 C 0.8195 0.6731 0.32774 0.0
C342 C 0.88292 0.78304 0.38702 0.0
C343 C 0.77682 0.67193 0.40346 0.0
C344 C 0.80053 0.76802 0.56389 0.0
C345 C 0.7829 0.76992 0.48852 0.0
C346 C 0.81792 0.75643 0.53468 0.0
C347 C 0.81728 0.74616 0.42771 0.0
C348 C 0.80113 0.75007 0.35165 0.0
C349 C 0.78421 0.76199 0.38304 0.0
C350 C 0.8354 0.7533 0.61801 0.0
C351 C 0.79978 0.73932 0.23667 0.0
H352 H 0.89237 0.73879 0.29251 0.0
H353 H 0.80364 0.64547 0.31167 0.0
H354 H 0.87504 0.79152 0.32965 0.0
H355 H 0.88303 0.79483 0.46578 0.0
H356 H 0.90736 0.79268 0.37922 0.0
H357 H 0.765 0.64422 0.39224 0.0
H358 H 0.77753 0.68205 0.48546 0.0
H359 H 0.76229 0.67527 0.3534 0.0
H360 H 0.79989 0.77456 0.64563 0.0
H361 H 0.77039 0.76306 0.32439 0.0
H362 H 0.85914 0.76292 0.60075 0.0
H363 H 0.82236 0.72604 0.61993 0.0
H364 H 0.83796 0.76747 0.69638 0.0
H365 H 0.8238 0.75075 0.2186 0.0
H366 H 0.78866 0.74685 0.18807 0.0
H367 H 0.78597 0.71119 0.2143 0.0
C368 C 0.12583 0.78354 0.5445 0.0
C369 C 0.12528 0.76826 0.62559 0.0
C370 C 0.10226 0.76462 0.45604 0.0
C371 C 0.07753 0.72965 0.44881 0.0
C372 C 0.07639 0.71429 0.53145 0.0
C373 C 0.10032 0.73373 0.61855 0.0
C374 C 0.10404 0.78187 0.36969 0.0
C375 C 0.0502 0.67711 0.527 0.0
C376 C 1.00022 0.68199 0.26635 0.0
C377 C 1.00334 0.66269 0.18617 0.0
C378 C 1.02467 0.70491 0.35043 0.0
C379 C 0.05297 0.70872 0.35433 0.0
C380 C 0.05685 0.69051 0.27137 0.0
C381 C 1.03193 0.66765 0.18817 0.0
C382 C 1.01959 0.7238 0.43742 0.0
C383 C 0.08678 0.69402 0.2728 0.0
H384 H 0.14482 0.8103 0.54993 0.0
H385 H 0.09995 0.72152 0.67984 0.0
H386 H 0.10626 0.7695 0.29686 0.0
H387 H 0.08203 0.77895 0.35403 0.0
H388 H 0.12433 0.80947 0.38855 0.0
H389 H 0.05241 0.66922 0.59875 0.0
H390 H 1.02703 0.67199 0.51596 0.0
H391 H 0.05025 0.66094 0.45934 0.0
H392 H 0.97822 0.6784 0.2655 0.0
H393 H 1.03454 0.65288 0.12652 0.0
H394 H 1.03974 0.7514 0.4562 0.0
H395 H 1.01818 0.71414 0.50873 0.0
H396 H 0.99758 0.72064 0.41764 0.0
H397 H 0.10756 0.72129 0.28705 0.0
H398 H 0.08704 0.68021 0.19874 0.0
H399 H 0.08931 0.68371 0.33746 0.0
C400 C 0.29289 0.95524 0.81758 0.0
C401 C 0.31509 0.94909 0.81537 0.0
C402 C 0.29331 0.97573 0.75469 0.0
C403 C 0.3161 0.98973 0.68779 0.0
C404 C 0.33739 0.98199 0.68203 0.0
C405 C 0.33673 0.96207 0.74612 0.0
C406 C 0.26998 0.98308 0.76151 0.0
C407 C 0.36125 0.995 0.60868 0.0
C408 C 0.31938 1.0244 0.45255 0.0
C409 C 0.3458 0.05862 0.48959 0.0
C410 C 0.30616 1.00186 0.51973 0.0
C411 C 0.3196 1.01394 0.62648 0.0
C412 C 0.34317 0.04939 0.66644 0.0
C413 C 0.35614 0.07131 0.5974 0.0
C414 C 0.28067 0.9645 0.473 0.0
C415 C 0.35793 0.06356 0.7799 0.0
H416 H 0.27597 0.94499 0.87043 0.0
H417 H 0.35334 0.95656 0.74156 0.0
H418 H 0.28256 1.01039 0.7982 0.0
H419 H 0.25832 0.97826 0.68246 0.0
H420 H 0.25165 0.96736 0.80807 0.0
H421 H 0.37719 0.98817 0.61815 0.0
H422 H 0.34883 0.98414 0.52696 0.0
H423 H 0.37596 1.02317 0.62205 0.0
H424 H 0.31057 1.01455 0.36966 0.0
H425 H 0.37644 0.0977 0.62736 0.0
H426 H 0.26631 0.95063 0.53093 0.0
H427 H 0.2918 0.95286 0.44198 0.0
H428 H 0.26488 0.96103 0.4069 0.0
H429 H 0.33986 0.05102 0.83047 0.0
H430 H 0.37069 0.09154 0.80252 0.0
H431 H 0.37508 0.05856 0.79445 0.0
C432 C 0.30232 0.78015 0.03896 0.0
C433 C 0.32944 0.81426 0.05965 0.0
C434 C 0.30455 0.75342 0.02674 0.0
C435 C 0.33461 0.76099 0.03728 0.0
C436 C 0.36199 0.7954 0.06643 0.0
C437 C 0.35908 0.82159 0.07617 0.0
C438 C 0.27474 0.71709 -0.00468 0.0
C439 C 0.39448 0.80467 0.08124 0.0
C440 C 0.33626 0.68679 0.04701 0.0
C441 C 0.33725 0.67661 0.94259 0.0
C442 C 0.33647 0.71492 0.08006 0.0
C443 C 0.33733 0.7331 0.00681 0.0
C444 C 0.33932 0.72362 0.90214 0.0
C445 C 0.33944 0.69569 0.87155 0.0
C446 C 0.33478 0.72453 0.1926 0.0
C447 C 0.34038 0.74239 0.82151 0.0
H448 H 0.27931 0.77417 0.02572 0.0
H449 H 0.38016 0.84778 0.09274 0.0
H450 H 0.27361 0.70583 0.91418 0.0
H451 H 0.27468 0.7014 0.04582 0.0
H452 H 0.25324 0.71537 -0.00033 0.0
H453 H 0.4128 0.83195 0.11995 0.0
H454 H 0.39526 0.78868 0.12832 0.0
H455 H 0.40045 0.79981 0.00429 0.0
H456 H 0.33421 0.67206 0.10243 0.0
H457 H 0.34084 0.68848 0.79128 0.0
H458 H 0.31177 0.71932 0.19836 0.0
H459 H 0.35341 0.75221 0.22452 0.0
H460 H 0.33744 0.7101 0.24175 0.0
H461 H 0.3186 0.74024 0.81347 0.0
H462 H 0.34258 0.7323 0.74395 0.0
H463 H 0.36056 0.76989 0.84666 0.0
C464 C 0.59166 0.21558 0.04814 0.0
C465 C 0.56354 0.19299 0.08485 0.0
C466 C 0.6148 0.21072 0.04318 0.0
C467 C 0.60972 0.18242 0.07492 0.0
C468 C 0.58105 0.159 0.1093 0.0
C469 C 0.55839 0.1646 0.1141 0.0
C470 C 0.64502 0.23639 0.00634 0.0
C471 C 0.57455 0.12834 0.14307 0.0
C472 C 0.65864 0.15369 -0.01143 0.0
C473 C 0.68107 0.16733 0.07827 0.0
C474 C 0.63549 0.15858 -0.01396 0.0
C475 C 0.63474 0.1778 0.07508 0.0
C476 C 0.65762 0.19218 0.16517 0.0
C477 C 0.68038 0.18671 0.16579 0.0
C478 C 0.61158 0.14283 0.88838 0.0
C479 C 0.65778 0.21295 0.2617 0.0
H480 H 0.59602 0.23762 0.02527 0.0
H481 H 0.53678 0.14692 0.14232 0.0
H482 H 0.66525 0.24893 0.06997 0.0
H483 H 0.64896 0.22336 0.94035 0.0
H484 H 0.64492 0.25639 -0.01886 0.0
H485 H 0.5506 0.11176 0.16357 0.0
H486 H 0.57696 0.11296 0.08005 0.0
H487 H 0.59212 0.13684 0.21182 0.0
H488 H 0.65918 0.13913 0.91991 0.0
H489 H 0.6972 0.19697 0.23607 0.0
H490 H 0.61243 0.16289 0.85963 0.0
H491 H 0.5875 0.12474 0.90585 0.0
H492 H 0.61558 0.12896 0.82528 0.0
H493 H 0.65921 0.23447 0.24239 0.0
H494 H 0.67778 0.22339 0.3241 0.0
H495 H 0.63545 0.19691 0.29236 0.0
C496 C 0.57087 0.7114 0.72938 0.0
C497 C 0.56835 0.734 0.68929 0.0
C498 C 0.54373 0.67954 0.73886 0.0
C499 C 0.51351 0.66964 0.70327 0.0
C500 C 0.51105 0.6923 0.66079 0.0
C501 C 0.53849 0.72446 0.65638 0.0
C502 C 0.54736 0.65669 0.78808 0.0
C503 C 0.47942 0.68241 0.61872 0.0
C504 C 0.44212 0.57589 0.62928 0.0
C505 C 0.4249 0.57349 0.70941 0.0
C506 C 0.4714 0.60682 0.62741 0.0
C507 C 0.4843 0.63568 0.70982 0.0
C508 C 0.46785 0.63268 0.79432 0.0
C509 C 0.43806 0.60181 0.79209 0.0
C510 C 0.48756 0.60911 0.53417 0.0
C511 C 0.48124 0.66238 0.88559 0.0
H512 H 0.59405 0.71901 0.75558 0.0
H513 H 0.53663 0.74193 0.62462 0.0
H514 H 0.53446 0.65035 0.85517 0.0
H515 H 0.53685 0.63234 0.73133 0.0
H516 H 0.57243 0.6687 0.81562 0.0
H517 H 0.48166 0.70222 0.5832 0.0
H518 H 0.46609 0.65811 0.55906 0.0
H519 H 0.46529 0.67817 0.6822 0.0
H520 H 0.43193 0.55406 0.56504 0.0
H521 H 0.42491 0.5999 0.85476 0.0
H522 H 0.51253 0.62043 0.55917 0.0
H523 H 0.48743 0.62611 0.49014 0.0
H524 H 0.47579 0.58381 0.48085 0.0
H525 H 0.50616 0.67419 0.91436 0.0
H526 H 0.46768 0.65463 0.95091 0.0
H527 H 0.48085 0.68219 0.86067 0.0
C528 C 0.94107 0.41775 0.16715 0.0
C529 C 0.94243 0.41819 0.06142 0.0
C530 C 0.93107 0.38848 0.20299 0.0
C531 C 0.92281 0.35915 0.13161 0.0
C532 C 0.92492 0.35977 0.02503 0.0
C533 C 0.93435 0.3892 -0.00905 0.0
C534 C 0.92844 0.38861 0.3167 0.0
C535 C 0.91687 0.32924 0.94689 0.0
C536 C 0.91898 0.29161 0.24304 0.0
C537 C 0.88643 0.26702 0.23755 0.0
C538 C 0.93121 0.32158 0.20763 0.0
C539 C 0.9104 0.32732 0.16775 0.0
C540 C 0.87756 0.3028 0.16367 0.0
C541 C 0.86598 0.27286 0.19772 0.0
C542 C 0.96632 0.34683 0.21126 0.0
C543 C 0.85458 0.30815 0.12334 0.0
H544 H 0.94699 0.44007 0.22144 0.0
H545 H 0.93557 0.38965 0.90928 0.0
H546 H 0.90358 0.36896 0.32459 0.0
H547 H 0.94266 0.382 0.35103 0.0
H548 H 0.93644 0.41374 0.36245 0.0
H549 H 0.92178 0.33462 0.86847 0.0
H550 H 0.93056 0.32101 0.9736 0.0
H551 H 0.89155 0.30759 0.94014 0.0
H552 H 0.93487 0.28701 0.27227 0.0
H553 H 0.84077 0.25399 0.19328 0.0
H554 H 0.9754 0.37201 0.25971 0.0
H555 H 0.9715 0.35047 0.13171 0.0
H556 H 0.97928 0.33844 0.24345 0.0
H557 H 0.86058 0.33238 0.16866 0.0
H558 H 0.82983 0.28701 0.128 0.0
H559 H 0.85623 0.31027 0.04101 0.0
C560 C 0.53447 0.97946 0.28906 0.0
C561 C 0.50642 0.96509 0.33002 0.0
C562 C 0.55155 0.96698 0.29713 0.0
C563 C 0.54005 0.9396 0.34714 0.0
C564 C 0.51617 0.93073 0.40817 0.0
C565 C 0.49932 0.94351 0.39848 0.0
C566 C 0.57845 0.97898 0.23652 0.0
C567 C 0.50539 0.90416 0.47124 0.0
C568 C 0.53515 0.8746 0.14764 0.0
C569 C 0.56538 0.88404 0.17162 0.0
C570 C 0.52465 0.88937 0.21312 0.0
C571 C 0.54501 0.91425 0.30494 0.0
C572 C 0.57333 0.91968 0.3376 0.0
C573 C 0.58335 0.90459 0.26998 0.0
C574 C 0.49349 0.88155 0.17635 0.0
C575 C 0.59463 0.94378 0.43858 0.0
H576 H 0.54079 0.99691 0.23846 0.0
H577 H 0.47849 0.93359 0.43485 0.0
H578 H 0.59845 0.98309 0.28328 0.0
H579 H 0.57057 0.95921 0.16473 0.0
H580 H 0.58695 1.00311 0.21352 0.0
H581 H 0.49641 0.90922 0.54038 0.0
H582 H 0.48582 0.87868 0.42306 0.0
H583 H 0.52475 0.90338 0.49727 0.0
H584 H 0.5209 0.85848 0.07248 0.0
H585 H 0.60627 0.9109 0.29094 0.0
H586 H 0.4977 0.9042 0.15442 0.0
H587 H 0.47905 0.87536 0.23935 0.0
H588 H 0.47959 0.85975 0.10778 0.0
H589 H 0.61476 0.96823 0.42245 0.0
H590 H 0.60456 0.93306 0.4762 0.0
H591 H 0.58221 0.94904 0.4938 0.0
C592 C 0.83119 0.45469 0.82366 0.0
C593 C 0.83741 0.48592 0.82124 0.0
C594 C 0.80012 0.42511 0.81633 0.0
C595 C 0.77502 0.42714 0.80721 0.0
C596 C 0.78102 0.45762 0.792 0.0
C597 C 0.81217 0.4866 0.79864 0.0
C598 C 0.79453 0.39271 0.82879 0.0
C599 C 0.75496 0.46085 0.78062 0.0
C600 C 0.68796 0.35376 0.78184 0.0
C601 C 0.68321 0.35785 0.8854 0.0
C602 C 0.71819 0.37458 0.75528 0.0
C603 C 0.74402 0.40046 0.83394 0.0
C604 C 0.73953 0.4035 0.93921 0.0
C605 C 0.70922 0.38205 0.96359 0.0
C606 C 0.7221 0.36993 0.64262 0.0
C607 C 0.7664 0.43087 0.02569 0.0
H608 H 0.85058 0.45386 0.83998 0.0
H609 H 0.8168 0.51053 0.79436 0.0
H610 H 0.79154 0.39006 0.91032 0.0
H611 H 0.77272 0.37008 0.77726 0.0
H612 H 0.81466 0.39285 0.8112 0.0
H613 H 0.76288 0.48457 0.75583 0.0
H614 H 0.73454 0.43871 0.72314 0.0
H615 H 0.74672 0.46123 0.8565 0.0
H616 H 0.66791 0.33477 0.72129 0.0
H617 H 0.70564 0.38552 0.04354 0.0
H618 H 0.74432 0.37342 0.63517 0.0
H619 H 0.72322 0.38936 0.60862 0.0
H620 H 0.70205 0.34432 0.59622 0.0
H621 H 0.78629 0.42964 0.0242 0.0
H622 H 0.75928 0.42855 0.10385 0.0
H623 H 0.77517 0.45638 0.01422 0.0
C624 C 0.36183 0.53357 0.42982 0.0
C625 C 0.3291 0.51021 0.42567 0.0
C626 C 0.37445 0.5387 0.33822 0.0
C627 C 0.35346 0.52265 0.24344 0.0
C628 C 0.32114 0.50767 0.24282 0.0
C629 C 0.30884 0.49985 0.33448 0.0
C630 C 0.40923 0.556 0.34437 0.0
C631 C 0.29878 0.49457 0.14306 0.0
C632 C 0.37083 0.51839 0.97525 0.0
C633 C 0.34986 0.4827 0.94089 0.0
C634 C 0.3756 0.53347 0.07909 0.0
C635 C 0.36203 0.51209 0.14975 0.0
C636 C 0.34848 0.477 0.11856 0.0
C637 C 0.3408 0.46213 0.01233 0.0
C638 C 0.39168 0.57129 0.10774 0.0
C639 C 0.33749 0.45423 0.1952 0.0
H640 H 0.37766 0.54301 0.50183 0.0
H641 H 0.28355 0.48285 0.33234 0.0
H642 H 0.41801 0.56308 0.27104 0.0
H643 H 0.42284 0.57933 0.40812 0.0
H644 H 0.41395 0.53853 0.36335 0.0
H645 H 0.27853 0.49445 0.15816 0.0
H646 H 0.3109 0.51036 0.08559 0.0
H647 H 0.2893 0.46795 0.10852 0.0
H648 H 0.3791 0.53447 0.91945 0.0
H649 H 0.32545 0.43461 -0.01445 0.0
H650 H 0.41743 0.58539 0.1106 0.0
H651 H 0.38759 0.5797 0.1839 0.0
H652 H 0.38377 0.5788 0.04688 0.0
H653 H 0.33762 0.4323 0.16693 0.0
H654 H 0.31296 0.44384 0.20414 0.0
H655 H 0.35263 0.46851 0.27277 0.0
C656 C 0.8365 0.13759 -0.01144 0.0
C657 C 0.86143 0.16687 0.05933 0.0
C658 C 0.82693 0.14008 0.89295 0.0
C659 C 0.84161 0.1728 0.87216 0.0
C660 C 0.86543 0.20248 0.94685 0.0
C661 C 0.87611 0.19905 0.03775 0.0
C662 C 0.80268 0.10787 0.81222 0.0
C663 C 0.88043 0.23778 0.92913 0.0
C664 C 0.85495 0.18298 0.60042 0.0
C665 C 0.8294 0.18097 0.56118 0.0
C666 C 0.85852 0.17926 0.7006 0.0
C667 C 0.83701 0.17594 0.76587 0.0
C668 C 0.81205 0.17607 0.72954 0.0
C669 C 0.80794 0.17756 0.62555 0.0
C670 C 0.88488 0.178 0.73516 0.0
C671 C 0.78975 0.17436 0.79967 0.0
H672 H 0.82517 0.11283 0.00697 0.0
H673 H 0.89542 0.22166 0.09319 0.0
H674 H 0.78353 0.10842 0.78222 0.0
H675 H 0.81389 0.10604 0.74511 0.0
H676 H 0.79215 0.0846 0.84354 0.0
H677 H 0.89439 0.25778 0.00186 0.0
H678 H 0.89637 0.24328 0.87091 0.0
H679 H 0.86211 0.2395 0.89795 0.0
H680 H 0.87115 0.18528 0.55097 0.0
H681 H 0.78812 0.17614 0.59471 0.0
H682 H 0.89705 0.17688 0.67017 0.0
H683 H 0.87556 0.15536 0.76855 0.0
H684 H 0.90261 0.20097 0.79666 0.0
H685 H 0.77397 0.14845 0.8151 0.0
H686 H 0.77495 0.18018 0.76437 0.0
H687 H 0.80305 0.19254 0.87592 0.0
C688 C 0.65624 0.82413 0.36055 0.0
C689 C 0.631 0.8242 0.37783 0.0
C690 C 0.67014 0.83258 0.27301 0.0
C691 C 0.65533 0.83644 0.19345 0.0
C692 C 0.6271 0.83218 0.20362 0.0
C693 C 0.61611 0.82798 0.29893 0.0
C694 C 0.70075 0.83767 0.26717 0.0
C695 C 0.60841 0.83137 0.11399 0.0
C696 C 0.69559 0.88078 -0.01847 0.0
C697 C 0.68969 0.85349 0.90923 0.0
C698 C 0.68624 0.87611 0.07864 0.0
C699 C 0.66855 0.84285 0.09769 0.0
C700 C 0.66401 0.81571 0.02589 0.0
C701 C 0.67638 0.82206 0.93455 0.0
C702 C 0.69387 0.9062 0.15789 0.0
C703 C 0.64455 0.77942 0.04011 0.0
H704 H 0.66671 0.82004 0.41847 0.0
H705 H 0.5959 0.82724 0.31133 0.0
H706 H 0.69588 0.81442 0.21891 0.0
H707 H 0.71704 0.85944 0.23126 0.0
H708 H 0.71288 0.84246 0.34539 0.0
H709 H 0.62196 0.85678 0.09513 0.0
H710 H 0.60428 0.81299 0.04362 0.0
H711 H 0.58531 0.82399 0.13196 0.0
H712 H 0.70562 0.90489 0.95999 0.0
H713 H 0.67166 0.80101 0.87641 0.0
H714 H 0.69955 0.9049 0.23784 0.0
H715 H 0.67327 0.90623 0.15512 0.0
H716 H 0.71409 0.9307 0.14197 0.0
H717 H 0.66055 0.77367 0.06379 0.0
H718 H 0.62971 0.76119 0.96511 0.0
H719 H 0.62884 0.77444 0.09883 0.0
C720 C 0.94674 0.60151 0.63982 0.0
C721 C 0.92983 0.59952 0.71928 0.0
C722 C 0.93191 0.58974 0.53625 0.0
C723 C 0.89927 0.57437 0.51431 0.0
C724 C 0.88246 0.57315 0.59508 0.0
C725 C 0.89834 0.58682 0.6968 0.0
C726 C 0.95088 0.59275 0.45068 0.0
C727 C 0.84778 0.55696 0.57604 0.0
C728 C 0.88495 0.57307 0.23953 0.0
C729 C 0.88418 0.54523 0.19668 0.0
C730 C 0.88467 0.58054 0.34526 0.0
C731 C 0.88322 0.5592 0.40627 0.0
C732 C 0.87495 0.52707 0.35877 0.0
C733 C 0.87582 0.5204 0.2526 0.0
C734 C 0.89186 0.61422 0.39315 0.0
C735 C 0.87044 0.50251 0.42243 0.0
H736 H 0.97103 0.61135 0.65864 0.0
H737 H 0.88551 0.58565 0.75987 0.0
H738 H 0.94178 0.56697 0.4075 0.0
H739 H 0.9486 0.60569 0.39438 0.0
H740 H 0.97628 0.6073 0.48138 0.0
H741 H 0.8362 0.54514 0.64123 0.0
H742 H 0.8451 0.577 0.57218 0.0
H743 H 0.83509 0.53719 0.50246 0.0
H744 H 0.89043 0.59171 0.19471 0.0
H745 H 0.87402 0.49818 0.21761 0.0
H746 H 0.91762 0.63356 0.42061 0.0
H747 H 0.8797 0.61226 0.4609 0.0
H748 H 0.88474 0.62335 0.33568 0.0
H749 H 0.89383 0.51069 0.4562 0.0
H750 H 0.85703 0.47622 0.37385 0.0
H751 H 0.85784 0.50229 0.48764 0.0
C752 C 0.35769 0.91156 0.29129 0.0
C753 C 0.33284 0.91323 0.27326 0.0
C754 C 0.36066 0.89957 0.37515 0.0
C755 C 0.3399 0.89203 0.44748 0.0
C756 C 0.31693 0.89745 0.43597 0.0
C757 C 0.31285 0.90678 0.34594 0.0
C758 C 0.38519 0.89387 0.38185 0.0
C759 C 0.2956 0.89185 0.51546 0.0
C760 C 0.31184 0.83485 0.63262 0.0
C761 C 0.33057 0.85946 0.72416 0.0
C762 C 0.31771 0.84406 0.53672 0.0
C763 C 0.34184 0.87854 0.53561 0.0
C764 C 0.36421 0.90132 0.62586 0.0
C765 C 0.35856 0.89099 0.71971 0.0
C766 C 0.29616 0.81802 0.43845 0.0
C767 C 0.39253 0.93729 0.62608 0.0
H768 H 0.37301 0.91653 0.23375 0.0
H769 H 0.29354 0.90782 0.33077 0.0
H770 H 0.40888 0.91896 0.40545 0.0
H771 H 0.38196 0.8781 0.43763 0.0
H772 H 0.38476 0.88116 0.30408 0.0
H773 H 0.28739 0.90745 0.51357 0.0
H774 H 0.2745 0.86468 0.49751 0.0
H775 H 0.30751 0.89816 0.59557 0.0
H776 H 0.29083 0.80988 0.63616 0.0
H777 H 0.37382 0.90931 0.79103 0.0
H778 H 0.30911 0.8229 0.3714 0.0
H779 H 0.27678 0.81951 0.4205 0.0
H780 H 0.28546 0.79174 0.44745 0.0
H781 H 0.41182 0.93677 0.60213 0.0
H782 H 0.40124 0.95433 0.7048 0.0
H783 H 0.38751 0.94855 0.57077 0.0
C784 C 0.46319 0.16809 0.78016 0.0
C785 C 0.46912 0.19221 0.86666 0.0
C786 C 0.46884 0.17653 0.68271 0.0
C787 C 0.48278 0.21056 0.67478 0.0
C788 C 0.48658 0.23405 0.76127 0.0
C789 C 0.47758 0.22358 0.85383 0.0
C790 C 0.46092 0.14908 0.5911 0.0
C791 C 0.50191 0.27094 0.76075 0.0
C792 C 0.53573 0.23633 0.46949 0.0
C793 C 0.52319 0.24679 0.4068 0.0
C794 C 0.52368 0.22602 0.55996 0.0
C795 C 0.4963 0.22266 0.58116 0.0
C796 C 0.48344 0.23299 0.51631 0.0
C797 C 0.49836 0.24689 0.43362 0.0
C798 C 0.54053 0.21894 0.63198 0.0
C799 C 0.45396 0.22948 0.53155 0.0
H800 H 0.4551 0.1431 0.78896 0.0
H801 H 0.4803 0.24154 0.91967 0.0
H802 H 0.46402 0.15709 0.51603 0.0
H803 H 0.47582 0.14112 0.60442 0.0
H804 H 0.43609 0.1262 0.58511 0.0
H805 H 0.51479 0.28769 0.8392 0.0
H806 H 0.51877 0.28076 0.70505 0.0
H807 H 0.48334 0.27345 0.74048 0.0
H808 H 0.55527 0.23674 0.44862 0.0
H809 H 0.48945 0.25618 0.38689 0.0
H810 H 0.52949 0.1914 0.61212 0.0
H811 H 0.53932 0.22601 0.71479 0.0
H812 H 0.56573 0.23319 0.62333 0.0
H813 H 0.43872 0.21996 0.45524 0.0
H814 H 0.46051 0.25501 0.56426 0.0
H815 H 0.43997 0.21203 0.58304 0.0
loop_
_geom_bond_atom_site_label_1
_geom_bond_atom_site_label_2
_geom_bond_distance
_geom_bond_site_symmetry_2
_ccdc_geom_bond_type
La0 C2 2.928 . S
La0 O20 2.521 . S
La0 O21 2.628 . S
La0 O22 2.554 . S
La0 O23 2.757 . S
La0 O24 2.470 . S
La0 O29 2.482 1_556 S
La0 O31 2.503 . S
La1 C11 2.928 . S
La1 O23 2.482 . S
La1 O25 2.503 . S
La1 O26 2.521 1_556 S
La1 O27 2.628 . S
La1 O28 2.554 1_556 S
La1 O29 2.757 1_556 S
La1 O30 2.470 1_556 S
C2 La0 2.928 . S
C2 C3 1.503 . S
C2 O20 1.261 . S
C2 O21 1.243 . S
C3 C2 1.503 . S
C3 C4 1.394 . S
C3 C8 1.373 . S
C4 C3 1.394 . S
C4 C5 1.380 . S
C4 H32 0.930 . S
C5 C4 1.380 . S
C5 C6 1.376 . S
C5 H33 0.930 . S
C6 C5 1.376 . S
C6 C7 1.370 . S
C7 C6 1.370 . S
C7 C8 1.396 . S
C7 H34 0.929 . S
C8 C3 1.373 . S
C8 C7 1.396 . S
C8 H35 0.929 . S
C9 O22 1.240 . S
C9 O23 1.289 . S
C10 O24 1.258 . S
C10 O25 1.256 . S
C11 La1 2.928 . S
C11 C12 1.503 1_556 S
C11 O26 1.261 1_556 S
C11 O27 1.243 . S
C12 C11 1.503 1_554 S
C12 C13 1.394 . S
C12 C17 1.373 1_554 S
C13 C12 1.394 . S
C13 C14 1.380 . S
C13 H36 0.930 . S
C14 C13 1.380 . S
C14 C15 1.376 . S
C14 H37 0.930 . S
C15 C14 1.376 . S
C15 C16 1.370 1_554 S
C16 C15 1.370 1_556 S
C16 C17 1.396 . S
C16 H38 0.929 . S
C17 C12 1.373 1_556 S
C17 C16 1.396 . S
C17 H39 0.929 . S
C18 O28 1.240 . S
C18 O29 1.289 . S
C19 O30 1.258 . S
C19 O31 1.256 1_554 S
O20 La0 2.521 . S
O20 C2 1.261 . S
O21 La0 2.628 . S
O21 C2 1.243 . S
O22 La0 2.554 . S
O22 C9 1.240 . S
O23 La0 2.757 . S
O23 La1 2.482 . S
O23 C9 1.289 . S
O24 La0 2.470 . S
O24 C10 1.258 . S
O25 La1 2.503 . S
O25 C10 1.256 . S
O26 La1 2.521 1_554 S
O26 C11 1.261 1_554 S
O27 La1 2.628 . S
O27 C11 1.243 . S
O28 La1 2.554 1_554 S
O28 C18 1.240 . S
O29 La0 2.482 1_554 S
O29 La1 2.757 1_554 S
O29 C18 1.289 . S
O30 La1 2.470 1_554 S
O30 C19 1.258 . S
O31 La0 2.503 . S
O31 C19 1.256 1_556 S
H32 C4 0.930 . S
H33 C5 0.930 . S
H34 C7 0.929 . S
H35 C8 0.929 . S
H36 C13 0.930 . S
H37 C14 0.930 . S
H38 C16 0.929 . S
H39 C17 0.929 . S
La40 C42 2.928 . S
La40 O60 2.521 . S
La40 O61 2.628 . S
La40 O62 2.554 1_554 S
La40 O63 2.757 1_554 S
La40 O64 2.470 . S
La40 O69 2.482 . S
La40 O71 2.503 . S
La41 C51 2.928 1_554 S
La41 O63 2.482 1_554 S
La41 O65 2.503 . S
La41 O66 2.521 . S
La41 O67 2.628 1_554 S
La41 O68 2.554 . S
La41 O69 2.757 . S
La41 O70 2.470 . S
C42 La40 2.928 . S
C42 C43 1.503 . S
C42 O60 1.261 . S
C42 O61 1.243 . S
C43 C42 1.503 . S
C43 C44 1.394 . S
C43 C48 1.373 . S
C44 C43 1.394 . S
C44 C45 1.380 . S
C44 H72 0.930 . S
C45 C44 1.380 . S
C45 C46 1.376 . S
C45 H73 0.930 . S
C46 C45 1.376 . S
C46 C47 1.370 . S
C47 C46 1.370 . S
C47 C48 1.396 . S
C47 H74 0.929 . S
C48 C43 1.373 . S
C48 C47 1.396 . S
C48 H75 0.929 . S
C49 O62 1.240 . S
C49 O63 1.289 . S
C50 O64 1.258 . S
C50 O65 1.256 . S
C51 La41 2.928 1_556 S
C51 C52 1.503 . S
C51 O66 1.261 1_556 S
C51 O67 1.243 . S
C52 C51 1.503 . S
C52 C53 1.390 1_556 S
C52 C57 1.373 . S
C53 C52 1.390 1_554 S
C53 C54 1.379 1_554 S
C53 H76 0.935 . S
C54 C53 1.379 1_556 S
C54 C55 1.376 . S
C54 H77 0.930 1_556 S
C55 C54 1.376 . S
C55 C56 1.370 . S
C56 C55 1.370 . S
C56 C57 1.396 . S
C56 H78 0.929 . S
C57 C52 1.373 . S
C57 C56 1.396 . S
C57 H79 0.929 . S
C58 O68 1.240 . S
C58 O69 1.289 . S
C59 O70 1.258 . S
C59 O71 1.256 . S
O60 La40 2.521 . S
O60 C42 1.261 . S
O61 La40 2.628 . S
O61 C42 1.243 . S
O62 La40 2.554 1_556 S
O62 C49 1.240 . S
O63 La40 2.757 1_556 S
O63 La41 2.482 1_556 S
O63 C49 1.289 . S
O64 La40 2.470 . S
O64 C50 1.258 . S
O65 La41 2.503 . S
O65 C50 1.256 . S
O66 La41 2.521 . S
O66 C51 1.261 1_554 S
O67 La41 2.628 1_556 S
O67 C51 1.243 . S
O68 La41 2.554 . S
O68 C58 1.240 . S
O69 La40 2.482 . S
O69 La41 2.757 . S
O69 C58 1.289 . S
O70 La41 2.470 . S
O70 C59 1.258 . S
O71 La40 2.503 . S
O71 C59 1.256 . S
H72 C44 0.930 . S
H73 C45 0.930 . S
H74 C47 0.929 . S
H75 C48 0.929 . S
H76 C53 0.935 . S
H77 C54 0.930 1_554 S
H78 C56 0.929 . S
H79 C57 0.929 . S
La80 C82 2.928 . S
La80 O100 2.521 1_556 S
La80 O101 2.628 . S
La80 O102 2.554 1_556 S
La80 O103 2.757 1_556 S
La80 O104 2.470 1_556 S
La80 O109 2.482 . S
La80 O111 2.502 1_556 S
La81 C91 2.928 . S
La81 O103 2.482 . S
La81 O105 2.502 1_554 S
La81 O106 2.521 1_554 S
La81 O107 2.628 . S
La81 O108 2.554 1_554 S
La81 O109 2.757 1_554 S
La81 O110 2.470 1_554 S
C82 La80 2.928 . S
C82 C83 1.503 . S
C82 O100 1.261 1_556 S
C82 O101 1.243 . S
C83 C82 1.503 . S
C83 C84 1.394 . S
C83 C88 1.373 . S
C84 C83 1.394 . S
C84 C85 1.380 . S
C84 H112 0.930 1_556 S
C85 C84 1.380 . S
C85 C86 1.376 . S
C85 H113 0.930 . S
C86 C85 1.376 . S
C86 C87 1.370 . S
C87 C86 1.370 . S
C87 C88 1.396 . S
C87 H114 0.929 . S
C88 C83 1.373 . S
C88 C87 1.396 . S
C88 H115 0.929 . S
C89 O102 1.240 . S
C89 O103 1.289 . S
C90 O104 1.258 1_556 S
C90 O105 1.256 . S
C91 La81 2.928 . S
C91 C92 1.503 . S
C91 O106 1.261 1_554 S
C91 O107 1.243 . S
C92 C91 1.503 . S
C92 C93 1.394 . S
C92 C97 1.373 . S
C93 C92 1.394 . S
C93 C94 1.380 . S
C93 H116 0.930 1_554 S
C94 C93 1.380 . S
C94 C95 1.376 . S
C94 H117 0.930 . S
C95 C94 1.376 . S
C95 C96 1.370 . S
C96 C95 1.370 . S
C96 C97 1.396 . S
C96 H118 0.929 . S
C97 C92 1.373 . S
C97 C96 1.396 . S
C97 H119 0.929 . S
C98 O108 1.240 . S
C98 O109 1.289 . S
C99 O110 1.258 1_554 S
C99 O111 1.256 . S
O100 La80 2.521 1_554 S
O100 C82 1.261 1_554 S
O101 La80 2.628 . S
O101 C82 1.243 . S
O102 La80 2.554 1_554 S
O102 C89 1.240 . S
O103 La80 2.757 1_554 S
O103 La81 2.482 . S
O103 C89 1.289 . S
O104 La80 2.470 1_554 S
O104 C90 1.258 1_554 S
O105 La81 2.502 1_556 S
O105 C90 1.256 . S
O106 La81 2.521 1_556 S
O106 C91 1.261 1_556 S
O107 La81 2.628 . S
O107 C91 1.243 . S
O108 La81 2.554 1_556 S
O108 C98 1.240 . S
O109 La80 2.482 . S
O109 La81 2.757 1_556 S
O109 C98 1.289 . S
O110 La81 2.470 1_556 S
O110 C99 1.258 1_556 S
O111 La80 2.502 1_554 S
O111 C99 1.256 . S
H112 C84 0.930 1_554 S
H113 C85 0.930 . S
H114 C87 0.929 . S
H115 C88 0.929 . S
H116 C93 0.930 1_556 S
H117 C94 0.930 . S
H118 C96 0.929 . S
H119 C97 0.929 . S
La120 C122 2.928 . S
La120 O140 2.521 1_554 S
La120 O141 2.628 . S
La120 O142 2.554 1_554 S
La120 O143 2.757 1_554 S
La120 O144 2.470 . S
La120 O149 2.482 . S
La120 O151 2.503 1_554 S
La121 C131 2.928 . S
La121 O143 2.482 . S
La121 O145 2.503 1_556 S
La121 O146 2.521 1_556 S
La121 O147 2.628 . S
La121 O148 2.554 1_556 S
La121 O149 2.757 1_556 S
La121 O150 2.470 . S
C122 La120 2.928 . S
C122 C123 1.503 . S
C122 O140 1.261 1_554 S
C122 O141 1.243 . S
C123 C122 1.503 . S
C123 C124 1.394 . S
C123 C128 1.373 . S
C124 C123 1.394 . S
C124 C125 1.380 . S
C124 H152 0.930 1_554 S
C125 C124 1.380 . S
C125 C126 1.376 . S
C125 H153 0.930 . S
C126 C125 1.376 . S
C126 C127 1.370 . S
C127 C126 1.370 . S
C127 C128 1.396 . S
C127 H154 0.929 . S
C128 C123 1.373 . S
C128 C127 1.396 . S
C128 H155 0.929 . S
C129 O142 1.240 . S
C129 O143 1.289 . S
C130 O144 1.258 . S
C130 O145 1.256 . S
C131 La121 2.928 . S
C131 C132 1.503 . S
C131 O146 1.261 1_556 S
C131 O147 1.243 . S
C132 C131 1.503 . S
C132 C133 1.394 . S
C132 C137 1.373 . S
C133 C132 1.394 . S
C133 C134 1.380 . S
C133 H156 0.930 1_556 S
C134 C133 1.380 . S
C134 C135 1.376 . S
C134 H157 0.930 . S
C135 C134 1.376 . S
C135 C136 1.370 . S
C136 C135 1.370 . S
C136 C137 1.396 . S
C136 H158 0.929 . S
C137 C132 1.373 . S
C137 C136 1.396 . S
C137 H159 0.929 . S
C138 O148 1.240 . S
C138 O149 1.289 . S
C139 O150 1.258 . S
C139 O151 1.256 . S
O140 La120 2.521 1_556 S
O140 C122 1.261 1_556 S
O141 La120 2.628 . S
O141 C122 1.243 . S
O142 La120 2.554 1_556 S
O142 C129 1.240 . S
O143 La120 2.757 1_556 S
O143 La121 2.482 . S
O143 C129 1.289 . S
O144 La120 2.470 . S
O144 C130 1.258 . S
O145 La121 2.503 1_554 S
O145 C130 1.256 . S
O146 La121 2.521 1_554 S
O146 C131 1.261 1_554 S
O147 La121 2.628 . S
O147 C131 1.243 . S
O148 La121 2.554 1_554 S
O148 C138 1.240 . S
O149 La120 2.482 . S
O149 La121 2.757 1_554 S
O149 C138 1.289 . S
O150 La121 2.470 . S
O150 C139 1.258 . S
O151 La120 2.503 1_556 S
O151 C139 1.256 . S
H152 C124 0.930 1_556 S
H153 C125 0.930 . S
H154 C127 0.929 . S
H155 C128 0.929 . S
H156 C133 0.930 1_554 S
H157 C134 0.930 . S
H158 C136 0.929 . S
H159 C137 0.929 . S
La160 C162 2.928 . S
La160 O180 2.521 . S
La160 O181 2.628 1_556 S
La160 O182 2.554 . S
La160 O183 2.757 . S
La160 O184 2.470 . S
La160 O189 2.482 1_556 S
La160 O191 2.503 . S
La161 C171 2.928 . S
La161 O183 2.482 1_554 S
La161 O185 2.503 . S
La161 O186 2.521 . S
La161 O187 2.628 1_554 S
La161 O188 2.554 . S
La161 O189 2.757 . S
La161 O190 2.470 . S
C162 La160 2.928 . S
C162 C163 1.503 . S
C162 O180 1.261 . S
C162 O181 1.243 1_556 S
C163 C162 1.503 . S
C163 C164 1.394 . S
C163 C168 1.373 . S
C164 C163 1.394 . S
C164 C165 1.380 . S
C164 H192 0.930 . S
C165 C164 1.380 . S
C165 C166 1.376 . S
C165 H193 0.930 . S
C166 C165 1.376 . S
C166 C167 1.370 . S
C167 C166 1.370 . S
C167 C168 1.396 . S
C167 H194 0.929 1_556 S
C168 C163 1.373 . S
C168 C167 1.396 . S
C168 H195 0.929 1_556 S
C169 O182 1.240 . S
C169 O183 1.289 . S
C170 O184 1.258 . S
C170 O185 1.256 1_556 S
C171 La161 2.928 . S
C171 C172 1.503 . S
C171 O186 1.261 . S
C171 O187 1.243 1_554 S
C172 C171 1.503 . S
C172 C173 1.394 . S
C172 C177 1.373 . S
C173 C172 1.394 . S
C173 C174 1.380 . S
C173 H196 0.930 . S
C174 C173 1.380 . S
C174 C175 1.376 . S
C174 H197 0.930 . S
C175 C174 1.376 . S
C175 C176 1.370 . S
C176 C175 1.370 . S
C176 C177 1.396 . S
C176 H198 0.929 1_554 S
C177 C172 1.373 . S
C177 C176 1.396 . S
C177 H199 0.929 1_554 S
C178 O188 1.240 . S
C178 O189 1.289 . S
C179 O190 1.258 . S
C179 O191 1.256 1_554 S
O180 La160 2.521 . S
O180 C162 1.261 . S
O181 La160 2.628 1_554 S
O181 C162 1.243 1_554 S
O182 La160 2.554 . S
O182 C169 1.240 . S
O183 La160 2.757 . S
O183 La161 2.482 1_556 S
O183 C169 1.289 . S
O184 La160 2.470 . S
O184 C170 1.258 . S
O185 La161 2.503 . S
O185 C170 1.256 1_554 S
O186 La161 2.521 . S
O186 C171 1.261 . S
O187 La161 2.628 1_556 S
O187 C171 1.243 1_556 S
O188 La161 2.554 . S
O188 C178 1.240 . S
O189 La160 2.482 1_554 S
O189 La161 2.757 . S
O189 C178 1.289 . S
O190 La161 2.470 . S
O190 C179 1.258 . S
O191 La160 2.503 . S
O191 C179 1.256 1_556 S
H192 C164 0.930 . S
H193 C165 0.930 . S
H194 C167 0.929 1_554 S
H195 C168 0.929 1_554 S
H196 C173 0.930 . S
H197 C174 0.930 . S
H198 C176 0.929 1_556 S
H199 C177 0.929 1_556 S
La200 C202 2.928 1_556 S
La200 O220 2.521 . S
La200 O221 2.628 1_556 S
La200 O222 2.554 . S
La200 O223 2.757 . S
La200 O224 2.470 . S
La200 O229 2.482 1_556 S
La200 O231 2.503 . S
La201 C211 2.928 1_554 S
La201 O223 2.482 1_554 S
La201 O225 2.503 . S
La201 O226 2.521 . S
La201 O227 2.628 1_554 S
La201 O228 2.554 . S
La201 O229 2.757 . S
La201 O230 2.470 . S
C202 La200 2.928 1_554 S
C202 C203 1.503 . S
C202 O220 1.261 1_554 S
C202 O221 1.243 . S
C203 C202 1.503 . S
C203 C204 1.394 1_544 S
C203 C208 1.373 . S
C204 C203 1.394 1_566 S
C204 C205 1.380 . S
C204 H232 0.930 . S
C205 C204 1.380 . S
C205 C206 1.376 1_556 S
C205 H233 0.930 . S
C206 C205 1.376 1_554 S
C206 C207 1.376 . S
C207 C206 1.376 . S
C207 C208 1.394 1_565 S
C207 H234 0.925 1_565 S
C208 C203 1.373 . S
C208 C207 1.394 1_545 S
C208 H235 0.929 . S
C209 O222 1.240 . S
C209 O223 1.289 . S
C210 O224 1.258 1_554 S
C210 O225 1.256 . S
C211 La201 2.928 1_556 S
C211 C212 1.503 . S
C211 O226 1.261 1_556 S
C211 O227 1.243 . S
C212 C211 1.503 . S
C212 C213 1.394 1_556 S
C212 C217 1.373 . S
C213 C212 1.394 1_554 S
C213 C214 1.380 . S
C213 H236 0.930 . S
C214 C213 1.380 . S
C214 C215 1.376 1_554 S
C214 H237 0.930 . S
C215 C214 1.376 1_556 S
C215 C216 1.370 . S
C216 C215 1.370 . S
C216 C217 1.396 . S
C216 H238 0.929 . S
C217 C212 1.373 . S
C217 C216 1.396 . S
C217 H239 0.929 . S
C218 O228 1.240 . S
C218 O229 1.289 . S
C219 O230 1.258 1_556 S
C219 O231 1.256 . S
O220 La200 2.521 . S
O220 C202 1.261 1_556 S
O221 La200 2.628 1_554 S
O221 C202 1.243 . S
O222 La200 2.554 . S
O222 C209 1.240 . S
O223 La200 2.757 . S
O223 La201 2.482 1_556 S
O223 C209 1.289 . S
O224 La200 2.470 . S
O224 C210 1.258 1_556 S
O225 La201 2.503 . S
O225 C210 1.256 . S
O226 La201 2.521 . S
O226 C211 1.261 1_554 S
O227 La201 2.628 1_556 S
O227 C211 1.243 . S
O228 La201 2.554 . S
O228 C218 1.240 . S
O229 La200 2.482 1_554 S
O229 La201 2.757 . S
O229 C218 1.289 . S
O230 La201 2.470 . S
O230 C219 1.258 1_554 S
O231 La200 2.503 . S
O231 C219 1.256 . S
H232 C204 0.930 . S
H233 C205 0.930 . S
H234 C207 0.925 1_545 S
H235 C208 0.929 . S
H236 C213 0.930 . S
H237 C214 0.930 . S
H238 C216 0.929 . S
H239 C217 0.929 . S
C240 C241 1.391 . S
C240 C242 1.394 . S
C240 H256 0.931 . S
C241 C240 1.391 . S
C241 C245 1.376 . S
C242 C240 1.394 . S
C242 C243 1.369 . S
C242 C246 1.531 . S
C243 C242 1.369 . S
C243 C244 1.410 . S
C243 C251 1.503 . S
C244 C243 1.410 . S
C244 C245 1.392 . S
C244 C247 1.511 . S
C245 C241 1.376 . S
C245 C244 1.392 . S
C245 H257 0.929 . S
C246 C242 1.531 . S
C246 H258 0.960 . S
C246 H259 0.962 . S
C246 H260 0.960 . S
C247 C244 1.511 . S
C247 H261 0.961 . S
C247 H262 0.961 . S
C247 H263 0.961 . S
C248 C249 1.370 . S
C248 C250 1.363 . S
C248 H264 0.931 . S
C249 C248 1.370 . S
C249 C253 1.408 . S
C250 C248 1.363 . S
C250 C251 1.370 . S
C250 C254 1.524 . S
C251 C243 1.503 . S
C251 C250 1.370 . S
C251 C252 1.403 . S
C252 C251 1.403 . S
C252 C253 1.404 . S
C252 C255 1.539 . S
C253 C249 1.408 . S
C253 C252 1.404 . S
C253 H265 0.930 . S
C254 C250 1.524 . S
C254 H266 0.956 . S
C254 H267 0.961 . S
C254 H268 0.961 . S
C255 C252 1.539 . S
C255 H269 0.958 . S
C255 H270 0.961 . S
C255 H271 0.960 . S
H256 C240 0.931 . S
H257 C245 0.929 . S
H258 C246 0.960 . S
H259 C246 0.962 . S
H260 C246 0.960 . S
H261 C247 0.961 . S
H262 C247 0.961 . S
H263 C247 0.961 . S
H264 C248 0.931 . S
H265 C253 0.930 . S
H266 C254 0.956 . S
H267 C254 0.961 . S
H268 C254 0.961 . S
H269 C255 0.958 . S
H270 C255 0.961 . S
H271 C255 0.960 . S
C272 C273 1.391 . S
C272 C274 1.394 . S
C272 H288 0.931 . S
C273 C272 1.391 . S
C273 C277 1.376 . S
C274 C272 1.394 . S
C274 C275 1.369 . S
C274 C278 1.531 . S
C275 C274 1.369 . S
C275 C276 1.410 . S
C275 C283 1.503 . S
C276 C275 1.410 . S
C276 C277 1.392 . S
C276 C279 1.511 . S
C277 C273 1.376 . S
C277 C276 1.392 . S
C277 H289 0.929 . S
C278 C274 1.531 . S
C278 H290 0.960 . S
C278 H291 0.962 . S
C278 H292 0.960 . S
C279 C276 1.511 . S
C279 H293 0.961 . S
C279 H294 0.961 . S
C279 H295 0.961 . S
C280 C281 1.370 . S
C280 C282 1.363 . S
C280 H296 0.931 . S
C281 C280 1.370 . S
C281 C285 1.408 . S
C282 C280 1.363 . S
C282 C283 1.370 . S
C282 C286 1.524 . S
C283 C275 1.503 . S
C283 C282 1.370 . S
C283 C284 1.403 . S
C284 C283 1.403 . S
C284 C285 1.404 . S
C284 C287 1.539 . S
C285 C281 1.408 . S
C285 C284 1.404 . S
C285 H297 0.930 . S
C286 C282 1.524 . S
C286 H298 0.956 . S
C286 H299 0.961 . S
C286 H300 0.961 . S
C287 C284 1.539 . S
C287 H301 0.958 . S
C287 H302 0.961 . S
C287 H303 0.960 . S
H288 C272 0.931 . S
H289 C277 0.929 . S
H290 C278 0.960 . S
H291 C278 0.962 . S
H292 C278 0.960 . S
H293 C279 0.961 . S
H294 C279 0.961 . S
H295 C279 0.961 . S
H296 C280 0.931 . S
H297 C285 0.930 . S
H298 C286 0.956 . S
H299 C286 0.961 . S
H300 C286 0.961 . S
H301 C287 0.958 . S
H302 C287 0.961 . S
H303 C287 0.960 . S
C304 C305 1.391 . S
C304 C306 1.394 . S
C304 H320 0.931 . S
C305 C304 1.391 . S
C305 C309 1.376 . S
C306 C304 1.394 . S
C306 C307 1.369 . S
C306 C310 1.531 . S
C307 C306 1.369 . S
C307 C308 1.410 1_545 S
C307 C315 1.503 . S
C308 C307 1.410 1_565 S
C308 C309 1.392 1_565 S
C308 C311 1.511 . S
C309 C305 1.376 . S
C309 C308 1.392 1_545 S
C309 H321 0.929 1_545 S
C310 C306 1.531 . S
C310 H322 0.960 . S
C310 H323 0.962 . S
C310 H324 0.960 . S
C311 C308 1.511 . S
C311 H325 0.961 . S
C311 H326 0.961 . S
C311 H327 0.961 . S
C312 C313 1.370 . S
C312 C314 1.363 . S
C312 H328 0.931 . S
C313 C312 1.370 . S
C313 C317 1.408 1_565 S
C314 C312 1.363 . S
C314 C315 1.370 1_565 S
C314 C318 1.524 . S
C315 C307 1.503 . S
C315 C314 1.370 1_545 S
C315 C316 1.403 . S
C316 C315 1.403 . S
C316 C317 1.404 . S
C316 C319 1.539 . S
C317 C313 1.408 1_545 S
C317 C316 1.404 . S
C317 H329 0.930 . S
C318 C314 1.524 . S
C318 H330 0.956 . S
C318 H331 0.961 . S
C318 H332 0.961 . S
C319 C316 1.539 . S
C319 H333 0.958 . S
C319 H334 0.961 . S
C319 H335 0.960 . S
H320 C304 0.931 . S
H321 C309 0.929 1_565 S
H322 C310 0.960 . S
H323 C310 0.962 . S
H324 C310 0.960 . S
H325 C311 0.961 . S
H326 C311 0.961 . S
H327 C311 0.961 . S
H328 C312 0.931 . S
H329 C317 0.930 . S
H330 C318 0.956 . S
H331 C318 0.961 . S
H332 C318 0.961 . S
H333 C319 0.958 . S
H334 C319 0.961 . S
H335 C319 0.960 . S
C336 C337 1.391 . S
C336 C338 1.394 . S
C336 H352 0.931 . S
C337 C336 1.391 . S
C337 C341 1.376 . S
C338 C336 1.394 . S
C338 C339 1.369 . S
C338 C342 1.531 . S
C339 C338 1.369 . S
C339 C340 1.410 . S
C339 C347 1.503 . S
C340 C339 1.410 . S
C340 C341 1.392 . S
C340 C343 1.511 . S
C341 C337 1.376 . S
C341 C340 1.392 . S
C341 H353 0.929 . S
C342 C338 1.531 . S
C342 H354 0.960 . S
C342 H355 0.962 . S
C342 H356 0.960 . S
C343 C340 1.511 . S
C343 H357 0.961 . S
C343 H358 0.961 . S
C343 H359 0.961 . S
C344 C345 1.370 . S
C344 C346 1.363 . S
C344 H360 0.931 . S
C345 C344 1.370 . S
C345 C349 1.408 . S
C346 C344 1.363 . S
C346 C347 1.370 . S
C346 C350 1.524 . S
C347 C339 1.503 . S
C347 C346 1.370 . S
C347 C348 1.403 . S
C348 C347 1.403 . S
C348 C349 1.404 . S
C348 C351 1.539 . S
C349 C345 1.408 . S
C349 C348 1.404 . S
C349 H361 0.930 . S
C350 C346 1.524 . S
C350 H362 0.956 . S
C350 H363 0.961 . S
C350 H364 0.961 . S
C351 C348 1.539 . S
C351 H365 0.958 . S
C351 H366 0.961 . S
C351 H367 0.960 . S
H352 C336 0.931 . S
H353 C341 0.929 . S
H354 C342 0.960 . S
H355 C342 0.962 . S
H356 C342 0.960 . S
H357 C343 0.961 . S
H358 C343 0.961 . S
H359 C343 0.961 . S
H360 C344 0.931 . S
H361 C349 0.930 . S
H362 C350 0.956 . S
H363 C350 0.961 . S
H364 C350 0.961 . S
H365 C351 0.958 . S
H366 C351 0.961 . S
H367 C351 0.960 . S
C368 C369 1.391 . S
C368 C370 1.394 1_455 S
C368 H384 0.931 . S
C369 C368 1.391 . S
C369 C373 1.376 . S
C370 C368 1.394 1_655 S
C370 C371 1.388 . S
C370 C374 1.531 . S
C371 C370 1.388 . S
C371 C372 1.388 1_655 S
C371 C379 1.507 . S
C372 C371 1.388 1_455 S
C372 C373 1.392 . S
C372 C375 1.511 . S
C373 C369 1.376 . S
C373 C372 1.392 . S
C373 H385 0.929 . S
C374 C370 1.531 . S
C374 H386 0.960 . S
C374 H387 0.962 . S
C374 H388 0.960 . S
C375 C372 1.511 . S
C375 H389 0.961 . S
C375 H390 0.961 . S
C375 H391 0.961 . S
C376 C377 1.370 . S
C376 C378 1.363 . S
C376 H392 0.931 . S
C377 C376 1.370 . S
C377 C381 1.408 . S
C378 C376 1.363 . S
C378 C379 1.370 . S
C378 C382 1.524 . S
C379 C371 1.507 . S
C379 C378 1.370 . S
C379 C380 1.403 . S
C380 C379 1.403 . S
C380 C381 1.404 . S
C380 C383 1.539 1_655 S
C381 C377 1.408 . S
C381 C380 1.404 . S
C381 H393 0.930 . S
C382 C378 1.524 . S
C382 H394 0.956 . S
C382 H395 0.961 . S
C382 H396 0.961 . S
C383 C380 1.539 1_455 S
C383 H397 0.958 . S
C383 H398 0.961 . S
C383 H399 0.960 . S
H384 C368 0.931 . S
H385 C373 0.929 . S
H386 C374 0.960 . S
H387 C374 0.962 . S
H388 C374 0.960 . S
H389 C375 0.961 . S
H390 C375 0.961 . S
H391 C375 0.961 . S
H392 C376 0.931 . S
H393 C381 0.930 . S
H394 C382 0.956 . S
H395 C382 0.961 . S
H396 C382 0.961 . S
H397 C383 0.958 . S
H398 C383 0.961 . S
H399 C383 0.960 . S
C400 C401 1.391 . S
C400 C402 1.394 . S
C400 H416 0.931 . S
C401 C400 1.391 . S
C401 C405 1.376 . S
C402 C400 1.394 . S
C402 C403 1.369 . S
C402 C406 1.531 . S
C403 C402 1.369 . S
C403 C404 1.410 . S
C403 C411 1.503 . S
C404 C403 1.410 . S
C404 C405 1.392 . S
C404 C407 1.511 . S
C405 C401 1.376 . S
C405 C404 1.392 . S
C405 H417 0.929 . S
C406 C402 1.531 . S
C406 H418 0.960 . S
C406 H419 0.962 . S
C406 H420 0.960 . S
C407 C404 1.511 . S
C407 H421 0.961 . S
C407 H422 0.961 . S
C407 H423 0.961 1_565 S
C408 C409 1.370 . S
C408 C410 1.363 . S
C408 H424 0.931 . S
C409 C408 1.370 . S
C409 C413 1.408 . S
C410 C408 1.363 . S
C410 C411 1.370 . S
C410 C414 1.524 . S
C411 C403 1.503 . S
C411 C410 1.370 . S
C411 C412 1.403 . S
C412 C411 1.403 . S
C412 C413 1.404 . S
C412 C415 1.539 1_565 S
C413 C409 1.408 . S
C413 C412 1.404 . S
C413 H425 0.930 . S
C414 C410 1.524 . S
C414 H426 0.956 . S
C414 H427 0.961 . S
C414 H428 0.961 . S
C415 C412 1.539 1_545 S
C415 H429 0.958 1_545 S
C415 H430 0.961 . S
C415 H431 0.960 . S
H416 C400 0.931 . S
H417 C405 0.929 . S
H418 C406 0.960 . S
H419 C406 0.962 . S
H420 C406 0.960 . S
H421 C407 0.961 . S
H422 C407 0.961 . S
H423 C407 0.961 1_545 S
H424 C408 0.931 . S
H425 C413 0.930 . S
H426 C414 0.956 . S
H427 C414 0.961 . S
H428 C414 0.961 . S
H429 C415 0.958 1_565 S
H430 C415 0.961 . S
H431 C415 0.960 . S
C432 C433 1.391 1_556 S
C432 C434 1.394 . S
C432 H448 0.931 . S
C433 C432 1.391 1_554 S
C433 C437 1.376 . S
C434 C432 1.394 . S
C434 C435 1.369 1_556 S
C434 C438 1.531 . S
C435 C434 1.369 1_554 S
C435 C436 1.410 . S
C435 C443 1.503 . S
C436 C435 1.410 . S
C436 C437 1.392 . S
C436 C439 1.511 . S
C437 C433 1.376 . S
C437 C436 1.392 . S
C437 H449 0.929 . S
C438 C434 1.531 . S
C438 H450 0.960 . S
C438 H451 0.962 . S
C438 H452 0.960 . S
C439 C436 1.511 . S
C439 H453 0.961 . S
C439 H454 0.961 . S
C439 H455 0.961 . S
C440 C441 1.370 . S
C440 C442 1.363 . S
C440 H456 0.931 . S
C441 C440 1.370 . S
C441 C445 1.408 . S
C442 C440 1.363 . S
C442 C443 1.370 . S
C442 C446 1.524 . S
C443 C435 1.503 . S
C443 C442 1.370 . S
C443 C444 1.403 . S
C444 C443 1.403 . S
C444 C445 1.404 . S
C444 C447 1.539 . S
C445 C441 1.408 . S
C445 C444 1.404 . S
C445 H457 0.930 . S
C446 C442 1.524 . S
C446 H458 0.956 1_554 S
C446 H459 0.961 . S
C446 H460 0.961 . S
C447 C444 1.539 . S
C447 H461 0.958 . S
C447 H462 0.961 . S
C447 H463 0.960 . S
H448 C432 0.931 . S
H449 C437 0.929 . S
H450 C438 0.960 . S
H451 C438 0.962 . S
H452 C438 0.960 . S
H453 C439 0.961 . S
H454 C439 0.961 . S
H455 C439 0.961 . S
H456 C440 0.931 . S
H457 C445 0.930 . S
H458 C446 0.956 1_556 S
H459 C446 0.961 . S
H460 C446 0.961 . S
H461 C447 0.958 . S
H462 C447 0.961 . S
H463 C447 0.960 . S
C464 C465 1.391 . S
C464 C466 1.394 . S
C464 H480 0.931 1_556 S
C465 C464 1.391 . S
C465 C469 1.376 . S
C466 C464 1.394 . S
C466 C467 1.369 . S
C466 C470 1.531 1_556 S
C467 C466 1.369 . S
C467 C468 1.410 . S
C467 C475 1.503 . S
C468 C467 1.410 . S
C468 C469 1.392 . S
C468 C471 1.511 . S
C469 C465 1.376 . S
C469 C468 1.392 . S
C469 H481 0.929 . S
C470 C466 1.531 1_554 S
C470 H482 0.960 . S
C470 H483 0.962 . S
C470 H484 0.960 . S
C471 C468 1.511 . S
C471 H485 0.961 . S
C471 H486 0.961 . S
C471 H487 0.961 . S
C472 C473 1.370 . S
C472 C474 1.363 . S
C472 H488 0.931 . S
C473 C472 1.370 . S
C473 C477 1.408 . S
C474 C472 1.363 . S
C474 C475 1.370 . S
C474 C478 1.524 . S
C475 C467 1.503 . S
C475 C474 1.370 . S
C475 C476 1.403 . S
C476 C475 1.403 . S
C476 C477 1.404 . S
C476 C479 1.539 1_556 S
C477 C473 1.408 . S
C477 C476 1.404 . S
C477 H489 0.930 1_556 S
C478 C474 1.524 . S
C478 H490 0.956 . S
C478 H491 0.961 . S
C478 H492 0.961 . S
C479 C476 1.539 1_554 S
C479 H493 0.958 . S
C479 H494 0.961 . S
C479 H495 0.960 . S
H480 C464 0.931 1_554 S
H481 C469 0.929 . S
H482 C470 0.960 . S
H483 C470 0.962 . S
H484 C470 0.960 . S
H485 C471 0.961 . S
H486 C471 0.961 . S
H487 C471 0.961 . S
H488 C472 0.931 . S
H489 C477 0.930 1_554 S
H490 C478 0.956 . S
H491 C478 0.961 . S
H492 C478 0.961 . S
H493 C479 0.958 . S
H494 C479 0.961 . S
H495 C479 0.960 . S
C496 C497 1.391 . S
C496 C498 1.394 . S
C496 H512 0.931 . S
C497 C496 1.391 . S
C497 C501 1.376 1_554 S
C498 C496 1.394 . S
C498 C499 1.369 . S
C498 C502 1.531 . S
C499 C498 1.369 . S
C499 C500 1.410 1_554 S
C499 C507 1.503 . S
C500 C499 1.410 1_556 S
C500 C501 1.392 . S
C500 C503 1.511 . S
C501 C497 1.376 1_556 S
C501 C500 1.392 . S
C501 H513 0.929 . S
C502 C498 1.531 . S
C502 H514 0.960 . S
C502 H515 0.962 . S
C502 H516 0.960 . S
C503 C500 1.511 . S
C503 H517 0.961 . S
C503 H518 0.961 . S
C503 H519 0.961 1_556 S
C504 C505 1.370 1_556 S
C504 C506 1.363 . S
C504 H520 0.931 . S
C505 C504 1.370 1_554 S
C505 C509 1.408 . S
C506 C504 1.363 . S
C506 C507 1.370 1_556 S
C506 C510 1.524 . S
C507 C499 1.503 . S
C507 C506 1.370 1_554 S
C507 C508 1.403 . S
C508 C507 1.403 . S
C508 C509 1.404 . S
C508 C511 1.539 . S
C509 C505 1.408 . S
C509 C508 1.404 . S
C509 H521 0.930 . S
C510 C506 1.524 . S
C510 H522 0.956 . S
C510 H523 0.961 . S
C510 H524 0.961 . S
C511 C508 1.539 . S
C511 H525 0.958 . S
C511 H526 0.961 . S
C511 H527 0.960 . S
H512 C496 0.931 . S
H513 C501 0.929 . S
H514 C502 0.960 . S
H515 C502 0.962 . S
H516 C502 0.960 . S
H517 C503 0.961 . S
H518 C503 0.961 . S
H519 C503 0.961 1_554 S
H520 C504 0.931 . S
H521 C509 0.930 . S
H522 C510 0.956 . S
H523 C510 0.961 . S
H524 C510 0.961 . S
H525 C511 0.958 . S
H526 C511 0.961 . S
H527 C511 0.960 . S
C528 C529 1.391 . S
C528 C530 1.394 . S
C528 H544 0.931 . S
C529 C528 1.391 . S
C529 C533 1.376 . S
C530 C528 1.394 . S
C530 C531 1.369 . S
C530 C534 1.531 . S
C531 C530 1.369 . S
C531 C532 1.410 . S
C531 C539 1.503 . S
C532 C531 1.410 . S
C532 C533 1.392 . S
C532 C535 1.511 . S
C533 C529 1.376 . S
C533 C532 1.392 . S
C533 H545 0.929 . S
C534 C530 1.531 . S
C534 H546 0.960 . S
C534 H547 0.962 1_556 S
C534 H548 0.960 . S
C535 C532 1.511 . S
C535 H549 0.961 . S
C535 H550 0.961 . S
C535 H551 0.961 . S
C536 C537 1.370 1_554 S
C536 C538 1.363 . S
C536 H552 0.931 . S
C537 C536 1.370 1_556 S
C537 C541 1.408 . S
C538 C536 1.363 . S
C538 C539 1.370 1_554 S
C538 C542 1.524 . S
C539 C531 1.503 . S
C539 C538 1.370 1_556 S
C539 C540 1.403 . S
C540 C539 1.403 . S
C540 C541 1.404 . S
C540 C543 1.539 . S
C541 C537 1.408 . S
C541 C540 1.404 . S
C541 H553 0.930 . S
C542 C538 1.524 . S
C542 H554 0.956 . S
C542 H555 0.961 . S
C542 H556 0.961 . S
C543 C540 1.539 . S
C543 H557 0.958 . S
C543 H558 0.961 . S
C543 H559 0.960 . S
H544 C528 0.931 . S
H545 C533 0.929 . S
H546 C534 0.960 . S
H547 C534 0.962 1_554 S
H548 C534 0.960 . S
H549 C535 0.961 . S
H550 C535 0.961 . S
H551 C535 0.961 . S
H552 C536 0.931 . S
H553 C541 0.930 . S
H554 C542 0.956 . S
H555 C542 0.961 . S
H556 C542 0.961 . S
H557 C543 0.958 . S
H558 C543 0.961 . S
H559 C543 0.960 . S
C560 C561 1.391 . S
C560 C562 1.394 . S
C560 H576 0.931 . S
C561 C560 1.391 . S
C561 C565 1.376 . S
C562 C560 1.394 . S
C562 C563 1.369 . S
C562 C566 1.531 . S
C563 C562 1.369 . S
C563 C564 1.410 . S
C563 C571 1.503 . S
C564 C563 1.410 . S
C564 C565 1.392 . S
C564 C567 1.511 . S
C565 C561 1.376 . S
C565 C564 1.392 . S
C565 H577 0.929 . S
C566 C562 1.531 . S
C566 H578 0.960 . S
C566 H579 0.962 . S
C566 H580 0.960 . S
C567 C564 1.511 . S
C567 H581 0.961 . S
C567 H582 0.961 . S
C567 H583 0.961 . S
C568 C569 1.370 . S
C568 C570 1.363 . S
C568 H584 0.931 . S
C569 C568 1.370 . S
C569 C573 1.408 . S
C570 C568 1.363 . S
C570 C571 1.370 . S
C570 C574 1.524 1_554 S
C571 C563 1.503 . S
C571 C570 1.370 . S
C571 C572 1.403 . S
C572 C571 1.403 . S
C572 C573 1.404 . S
C572 C575 1.539 . S
C573 C569 1.408 . S
C573 C572 1.404 . S
C573 H585 0.930 . S
C574 C570 1.524 1_556 S
C574 H586 0.956 . S
C574 H587 0.961 . S
C574 H588 0.961 . S
C575 C572 1.539 . S
C575 H589 0.958 . S
C575 H590 0.961 . S
C575 H591 0.960 . S
H576 C560 0.931 . S
H577 C565 0.929 . S
H578 C566 0.960 . S
H579 C566 0.962 . S
H580 C566 0.960 . S
H581 C567 0.961 . S
H582 C567 0.961 . S
H583 C567 0.961 . S
H584 C568 0.931 . S
H585 C573 0.930 . S
H586 C574 0.956 . S
H587 C574 0.961 . S
H588 C574 0.961 . S
H589 C575 0.958 . S
H590 C575 0.961 . S
H591 C575 0.960 . S
C592 C593 1.391 . S
C592 C594 1.395 . S
C592 H608 0.931 1_556 S
C593 C592 1.391 . S
C593 C597 1.376 . S
C594 C592 1.395 . S
C594 C595 1.372 . S
C594 C598 1.526 1_556 S
C595 C594 1.372 . S
C595 C596 1.410 . S
C595 C603 1.503 . S
C596 C595 1.410 . S
C596 C597 1.392 . S
C596 C599 1.511 . S
C597 C593 1.376 . S
C597 C596 1.392 . S
C597 H609 0.929 . S
C598 C594 1.526 1_554 S
C598 H610 0.960 . S
C598 H611 0.962 . S
C598 H612 0.960 . S
C599 C596 1.511 . S
C599 H613 0.961 . S
C599 H614 0.961 . S
C599 H615 0.961 . S
C600 C601 1.370 . S
C600 C602 1.363 . S
C600 H616 0.931 . S
C601 C600 1.370 . S
C601 C605 1.408 . S
C602 C600 1.363 . S
C602 C603 1.370 . S
C602 C606 1.524 . S
C603 C595 1.503 . S
C603 C602 1.370 . S
C603 C604 1.403 . S
C604 C603 1.403 . S
C604 C605 1.404 . S
C604 C607 1.539 1_556 S
C605 C601 1.408 . S
C605 C604 1.404 . S
C605 H617 0.930 1_556 S
C606 C602 1.524 . S
C606 H618 0.956 . S
C606 H619 0.961 . S
C606 H620 0.961 . S
C607 C604 1.539 1_554 S
C607 H621 0.958 . S
C607 H622 0.961 . S
C607 H623 0.960 . S
H608 C592 0.931 1_554 S
H609 C597 0.929 . S
H610 C598 0.960 . S
H611 C598 0.962 . S
H612 C598 0.960 . S
H613 C599 0.961 . S
H614 C599 0.961 . S
H615 C599 0.961 . S
H616 C600 0.931 . S
H617 C605 0.930 1_554 S
H618 C606 0.956 . S
H619 C606 0.961 . S
H620 C606 0.961 . S
H621 C607 0.958 . S
H622 C607 0.961 . S
H623 C607 0.960 . S
C624 C625 1.391 . S
C624 C626 1.394 . S
C624 H640 0.931 . S
C625 C624 1.391 . S
C625 C629 1.376 . S
C626 C624 1.394 . S
C626 C627 1.369 . S
C626 C630 1.531 . S
C627 C626 1.369 . S
C627 C628 1.410 . S
C627 C635 1.503 . S
C628 C627 1.410 . S
C628 C629 1.392 . S
C628 C631 1.511 . S
C629 C625 1.376 . S
C629 C628 1.392 . S
C629 H641 0.929 . S
C630 C626 1.531 . S
C630 H642 0.960 . S
C630 H643 0.962 . S
C630 H644 0.960 . S
C631 C628 1.511 . S
C631 H645 0.961 . S
C631 H646 0.961 . S
C631 H647 0.961 . S
C632 C633 1.370 . S
C632 C634 1.363 . S
C632 H648 0.931 . S
C633 C632 1.370 . S
C633 C637 1.408 . S
C634 C632 1.363 . S
C634 C635 1.370 . S
C634 C638 1.524 . S
C635 C627 1.503 . S
C635 C634 1.370 . S
C635 C636 1.403 . S
C636 C635 1.403 . S
C636 C637 1.404 . S
C636 C639 1.539 . S
C637 C633 1.408 . S
C637 C636 1.404 . S
C637 H649 0.930 . S
C638 C634 1.524 . S
C638 H650 0.956 . S
C638 H651 0.961 . S
C638 H652 0.961 . S
C639 C636 1.539 . S
C639 H653 0.958 . S
C639 H654 0.961 . S
C639 H655 0.960 . S
H640 C624 0.931 . S
H641 C629 0.929 . S
H642 C630 0.960 . S
H643 C630 0.962 . S
H644 C630 0.960 . S
H645 C631 0.961 . S
H646 C631 0.961 . S
H647 C631 0.961 . S
H648 C632 0.931 . S
H649 C637 0.930 . S
H650 C638 0.956 . S
H651 C638 0.961 . S
H652 C638 0.961 . S
H653 C639 0.958 . S
H654 C639 0.961 . S
H655 C639 0.960 . S
C656 C657 1.391 . S
C656 C658 1.394 . S
C656 H672 0.931 . S
C657 C656 1.391 . S
C657 C661 1.376 . S
C658 C656 1.394 . S
C658 C659 1.369 . S
C658 C662 1.531 . S
C659 C658 1.369 . S
C659 C660 1.410 . S
C659 C667 1.503 . S
C660 C659 1.410 . S
C660 C661 1.392 . S
C660 C663 1.511 . S
C661 C657 1.376 . S
C661 C660 1.392 . S
C661 H673 0.929 . S
C662 C658 1.531 . S
C662 H674 0.960 . S
C662 H675 0.962 . S
C662 H676 0.960 . S
C663 C660 1.511 . S
C663 H677 0.961 . S
C663 H678 0.961 . S
C663 H679 0.961 . S
C664 C665 1.370 . S
C664 C666 1.363 . S
C664 H680 0.931 . S
C665 C664 1.370 . S
C665 C669 1.408 . S
C666 C664 1.363 . S
C666 C667 1.370 . S
C666 C670 1.524 . S
C667 C659 1.503 . S
C667 C666 1.370 . S
C667 C668 1.403 . S
C668 C667 1.403 . S
C668 C669 1.404 . S
C668 C671 1.539 . S
C669 C665 1.408 . S
C669 C668 1.404 . S
C669 H681 0.930 . S
C670 C666 1.524 . S
C670 H682 0.956 . S
C670 H683 0.961 . S
C670 H684 0.961 . S
C671 C668 1.539 . S
C671 H685 0.958 . S
C671 H686 0.961 . S
C671 H687 0.960 . S
H672 C656 0.931 . S
H673 C661 0.929 . S
H674 C662 0.960 . S
H675 C662 0.962 . S
H676 C662 0.960 . S
H677 C663 0.961 . S
H678 C663 0.961 . S
H679 C663 0.961 . S
H680 C664 0.931 . S
H681 C669 0.930 . S
H682 C670 0.956 . S
H683 C670 0.961 . S
H684 C670 0.961 . S
H685 C671 0.958 . S
H686 C671 0.961 . S
H687 C671 0.960 . S
C688 C689 1.391 . S
C688 C690 1.394 . S
C688 H704 0.931 . S
C689 C688 1.391 . S
C689 C693 1.376 . S
C690 C688 1.394 . S
C690 C691 1.369 . S
C690 C694 1.531 . S
C691 C690 1.369 . S
C691 C692 1.410 . S
C691 C699 1.503 . S
C692 C691 1.410 . S
C692 C693 1.392 . S
C692 C695 1.511 . S
C693 C689 1.376 . S
C693 C692 1.392 . S
C693 H705 0.929 . S
C694 C690 1.531 . S
C694 H706 0.960 . S
C694 H707 0.962 . S
C694 H708 0.960 . S
C695 C692 1.511 . S
C695 H709 0.961 . S
C695 H710 0.961 . S
C695 H711 0.961 . S
C696 C697 1.370 . S
C696 C698 1.363 . S
C696 H712 0.931 . S
C697 C696 1.370 . S
C697 C701 1.408 . S
C698 C696 1.363 . S
C698 C699 1.370 . S
C698 C702 1.524 . S
C699 C691 1.503 . S
C699 C698 1.370 . S
C699 C700 1.403 . S
C700 C699 1.403 . S
C700 C701 1.404 . S
C700 C703 1.539 . S
C701 C697 1.408 . S
C701 C700 1.404 . S
C701 H713 0.930 . S
C702 C698 1.524 . S
C702 H714 0.956 . S
C702 H715 0.961 . S
C702 H716 0.961 . S
C703 C700 1.539 . S
C703 H717 0.958 . S
C703 H718 0.961 . S
C703 H719 0.960 . S
H704 C688 0.931 . S
H705 C693 0.929 . S
H706 C694 0.960 . S
H707 C694 0.962 . S
H708 C694 0.960 . S
H709 C695 0.961 . S
H710 C695 0.961 . S
H711 C695 0.961 . S
H712 C696 0.931 . S
H713 C701 0.930 . S
H714 C702 0.956 . S
H715 C702 0.961 . S
H716 C702 0.961 . S
H717 C703 0.958 . S
H718 C703 0.961 . S
H719 C703 0.960 . S
C720 C721 1.391 . S
C720 C722 1.394 . S
C720 H736 0.931 . S
C721 C720 1.391 . S
C721 C725 1.376 . S
C722 C720 1.394 . S
C722 C723 1.369 . S
C722 C726 1.531 . S
C723 C722 1.369 . S
C723 C724 1.410 . S
C723 C731 1.503 . S
C724 C723 1.410 . S
C724 C725 1.392 . S
C724 C727 1.511 . S
C725 C721 1.376 . S
C725 C724 1.392 . S
C725 H737 0.929 . S
C726 C722 1.531 . S
C726 H738 0.960 . S
C726 H739 0.962 . S
C726 H740 0.960 . S
C727 C724 1.511 . S
C727 H741 0.961 . S
C727 H742 0.961 . S
C727 H743 0.961 . S
C728 C729 1.370 . S
C728 C730 1.363 . S
C728 H744 0.931 . S
C729 C728 1.370 . S
C729 C733 1.408 . S
C730 C728 1.363 . S
C730 C731 1.370 . S
C730 C734 1.524 . S
C731 C723 1.503 . S
C731 C730 1.370 . S
C731 C732 1.403 . S
C732 C731 1.403 . S
C732 C733 1.404 . S
C732 C735 1.539 . S
C733 C729 1.408 . S
C733 C732 1.404 . S
C733 H745 0.930 . S
C734 C730 1.524 . S
C734 H746 0.956 . S
C734 H747 0.961 . S
C734 H748 0.961 . S
C735 C732 1.539 . S
C735 H749 0.958 . S
C735 H750 0.961 . S
C735 H751 0.960 . S
H736 C720 0.931 . S
H737 C725 0.929 . S
H738 C726 0.960 . S
H739 C726 0.962 . S
H740 C726 0.960 . S
H741 C727 0.961 . S
H742 C727 0.961 . S
H743 C727 0.961 . S
H744 C728 0.931 . S
H745 C733 0.930 . S
H746 C734 0.956 . S
H747 C734 0.961 . S
H748 C734 0.961 . S
H749 C735 0.958 . S
H750 C735 0.961 . S
H751 C735 0.960 . S
C752 C753 1.391 . S
C752 C754 1.394 . S
C752 H768 0.931 . S
C753 C752 1.391 . S
C753 C757 1.376 . S
C754 C752 1.394 . S
C754 C755 1.369 . S
C754 C758 1.531 . S
C755 C754 1.369 . S
C755 C756 1.410 . S
C755 C763 1.503 . S
C756 C755 1.410 . S
C756 C757 1.392 . S
C756 C759 1.511 . S
C757 C753 1.376 . S
C757 C756 1.392 . S
C757 H769 0.929 . S
C758 C754 1.531 . S
C758 H770 0.960 . S
C758 H771 0.962 . S
C758 H772 0.960 . S
C759 C756 1.511 . S
C759 H773 0.961 . S
C759 H774 0.961 . S
C759 H775 0.961 . S
C760 C761 1.370 . S
C760 C762 1.363 . S
C760 H776 0.931 . S
C761 C760 1.370 . S
C761 C765 1.408 . S
C762 C760 1.363 . S
C762 C763 1.370 . S
C762 C766 1.524 . S
C763 C755 1.503 . S
C763 C762 1.370 . S
C763 C764 1.403 . S
C764 C763 1.403 . S
C764 C765 1.404 . S
C764 C767 1.539 . S
C765 C761 1.408 . S
C765 C764 1.404 . S
C765 H777 0.930 . S
C766 C762 1.524 . S
C766 H778 0.956 . S
C766 H779 0.961 . S
C766 H780 0.961 . S
C767 C764 1.539 . S
C767 H781 0.958 . S
C767 H782 0.961 . S
C767 H783 0.960 . S
H768 C752 0.931 . S
H769 C757 0.929 . S
H770 C758 0.960 . S
H771 C758 0.962 . S
H772 C758 0.960 . S
H773 C759 0.961 . S
H774 C759 0.961 . S
H775 C759 0.961 . S
H776 C760 0.931 . S
H777 C765 0.930 . S
H778 C766 0.956 . S
H779 C766 0.961 . S
H780 C766 0.961 . S
H781 C767 0.958 . S
H782 C767 0.961 . S
H783 C767 0.960 . S
C784 C785 1.391 . S
C784 C786 1.394 . S
C784 H800 0.931 . S
C785 C784 1.391 . S
C785 C789 1.376 . S
C786 C784 1.394 . S
C786 C787 1.369 . S
C786 C790 1.531 . S
C787 C786 1.369 . S
C787 C788 1.410 . S
C787 C795 1.503 . S
C788 C787 1.410 . S
C788 C789 1.392 . S
C788 C791 1.511 . S
C789 C785 1.376 . S
C789 C788 1.392 . S
C789 H801 0.929 . S
C790 C786 1.531 . S
C790 H802 0.960 . S
C790 H803 0.962 . S
C790 H804 0.960 . S
C791 C788 1.511 . S
C791 H805 0.961 . S
C791 H806 0.961 . S
C791 H807 0.961 . S
C792 C793 1.370 . S
C792 C794 1.363 . S
C792 H808 0.931 . S
C793 C792 1.370 . S
C793 C797 1.408 . S
C794 C792 1.363 . S
C794 C795 1.370 . S
C794 C798 1.524 . S
C795 C787 1.503 . S
C795 C794 1.370 . S
C795 C796 1.403 . S
C796 C795 1.403 . S
C796 C797 1.404 . S
C796 C799 1.539 . S
C797 C793 1.408 . S
C797 C796 1.404 . S
C797 H809 0.930 . S
C798 C794 1.524 . S
C798 H810 0.956 . S
C798 H811 0.961 . S
C798 H812 0.961 . S
C799 C796 1.539 . S
C799 H813 0.958 . S
C799 H814 0.961 . S
C799 H815 0.960 . S
H800 C784 0.931 . S
H801 C789 0.929 . S
H802 C790 0.960 . S
H803 C790 0.962 . S
H804 C790 0.960 . S
H805 C791 0.961 . S
H806 C791 0.961 . S
H807 C791 0.961 . S
H808 C792 0.931 . S
H809 C797 0.930 . S
H810 C798 0.956 . S
H811 C798 0.961 . S
H812 C798 0.961 . S
H813 C799 0.958 . S
H814 C799 0.961 . S
H815 C799 0.960 . S
C241 C210 3.733 . S
C249 C6 3.639 . S
C273 C10 3.557 . S
C281 C46 3.377 1_455 S
C305 C50 3.138 . S
C313 C90 3.138 . S
C337 C126 2.401 . S
C345 C86 2.253 . S
C369 C166 2.852 . S
C377 C130 3.296 . S
C401 C170 2.630 . S
C409 C206 2.583 . S
C433 C179 2.454 . S
C441 C15 2.413 . S
C465 C219 3.180 . S
C473 C55 3.196 . S
C497 C99 3.715 . S
C505 C19 3.752 . S
C529 C135 2.021 . S
C537 C59 2.094 1_556 S
C561 C175 0.833 . S
C569 C95 0.830 . S
C593 C139 1.145 . S
C601 C215 1.229 . S
C625 C9 0.474 . S
C633 C18 0.510 . S
C657 C49 0.583 . S
C665 C58 0.486 . S
C689 C98 0.595 . S
C697 C89 0.469 . S
C721 C129 0.367 . S
C729 C138 0.378 . S
C753 C178 0.606 . S
C761 C169 0.594 . S
C785 C209 0.482 . S
C793 C218 0.379 . S
