# Generated by pormake.
# Topology pcl, (4)-cn, num edge types: 1
# Building blocks:
#     Node 0, Type 0, BuildingBlock: GALJAG_clean_sbu_0, # of connection points: 4
#     Node 1, Type 0, BuildingBlock: GALJAG_clean_sbu_0, # of connection points: 4
#     Node 2, Type 0, BuildingBlock: GALJAG_clean_sbu_0, # of connection points: 4
#     Node 3, Type 0, BuildingBlock: GALJAG_clean_sbu_0, # of connection points: 4
#     Node 4, Type 0, BuildingBlock: GALJAG_clean_sbu_0, # of connection points: 4
#     Node 5, Type 0, BuildingBlock: GALJAG_clean_sbu_0, # of connection points: 4
#     Node 6, Type 0, BuildingBlock: GALJAG_clean_sbu_0, # of connection points: 4
#     Node 7, Type 0, BuildingBlock: GALJAG_clean_sbu_0, # of connection points: 4
#     Node 8, Type 0, BuildingBlock: GALJAG_clean_sbu_0, # of connection points: 4
#     Node 9, Type 0, BuildingBlock: GALJAG_clean_sbu_0, # of connection points: 4
#     Node 10, Type 0, BuildingBlock: GALJAG_clean_sbu_0, # of connection points: 4
#     Node 11, Type 0, BuildingBlock: GALJAG_clean_sbu_0, # of connection points: 4
#     Node 12, Type 0, BuildingBlock: GALJAG_clean_sbu_0, # of connection points: 4
#     Node 13, Type 0, BuildingBlock: GALJAG_clean_sbu_0, # of connection points: 4
#     Node 14, Type 0, BuildingBlock: GALJAG_clean_sbu_0, # of connection points: 4
#     Node 15, Type 0, BuildingBlock: GALJAG_clean_sbu_0, # of connection points: 4
#     Edge 16, Type (0, 0), BuildingBlock: ZUJKAS_clean_linker_0, # of connection points: 2
#     Edge 17, Type (0, 0), BuildingBlock: ZUJKAS_clean_linker_0, # of connection points: 2
#     Edge 18, Type (0, 0), BuildingBlock: ZUJKAS_clean_linker_0, # of connection points: 2
#     Edge 19, Type (0, 0), BuildingBlock: ZUJKAS_clean_linker_0, # of connection points: 2
#     Edge 20, Type (0, 0), BuildingBlock: ZUJKAS_clean_linker_0, # of connection points: 2
#     Edge 21, Type (0, 0), BuildingBlock: ZUJKAS_clean_linker_0, # of connection points: 2
#     Edge 22, Type (0, 0), BuildingBlock: ZUJKAS_clean_linker_0, # of connection points: 2
#     Edge 23, Type (0, 0), BuildingBlock: ZUJKAS_clean_linker_0, # of connection points: 2
#     Edge 24, Type (0, 0), BuildingBlock: ZUJKAS_clean_linker_0, # of connection points: 2
#     Edge 25, Type (0, 0), BuildingBlock: ZUJKAS_clean_linker_0, # of connection points: 2
#     Edge 26, Type (0, 0), BuildingBlock: ZUJKAS_clean_linker_0, # of connection points: 2
#     Edge 27, Type (0, 0), BuildingBlock: ZUJKAS_clean_linker_0, # of connection points: 2
#     Edge 28, Type (0, 0), BuildingBlock: ZUJKAS_clean_linker_0, # of connection points: 2
#     Edge 29, Type (0, 0), BuildingBlock: ZUJKAS_clean_linker_0, # of connection points: 2
#     Edge 30, Type (0, 0), BuildingBlock: ZUJKAS_clean_linker_0, # of connection points: 2
#     Edge 31, Type (0, 0), BuildingBlock: ZUJKAS_clean_linker_0, # of connection points: 2
#     Edge 32, Type (0, 0), BuildingBlock: ZUJKAS_clean_linker_0, # of connection points: 2
#     Edge 33, Type (0, 0), BuildingBlock: ZUJKAS_clean_linker_0, # of connection points: 2
#     Edge 34, Type (0, 0), BuildingBlock: ZUJKAS_clean_linker_0, # of connection points: 2
#     Edge 35, Type (0, 0), BuildingBlock: ZUJKAS_clean_linker_0, # of connection points: 2
#     Edge 36, Type (0, 0), BuildingBlock: ZUJKAS_clean_linker_0, # of connection points: 2
#     Edge 37, Type (0, 0), BuildingBlock: ZUJKAS_clean_linker_0, # of connection points: 2
#     Edge 38, Type (0, 0), BuildingBlock: ZUJKAS_clean_linker_0, # of connection points: 2
#     Edge 39, Type (0, 0), BuildingBlock: ZUJKAS_clean_linker_0, # of connection points: 2
#     Edge 40, Type (0, 0), BuildingBlock: ZUJKAS_clean_linker_0, # of connection points: 2
#     Edge 41, Type (0, 0), BuildingBlock: ZUJKAS_clean_linker_0, # of connection points: 2
#     Edge 42, Type (0, 0), BuildingBlock: ZUJKAS_clean_linker_0, # of connection points: 2
#     Edge 43, Type (0, 0), BuildingBlock: ZUJKAS_clean_linker_0, # of connection points: 2
#     Edge 44, Type (0, 0), BuildingBlock: ZUJKAS_clean_linker_0, # of connection points: 2
#     Edge 45, Type (0, 0), BuildingBlock: ZUJKAS_clean_linker_0, # of connection points: 2
#     Edge 46, Type (0, 0), BuildingBlock: ZUJKAS_clean_linker_0, # of connection points: 2
#     Edge 47, Type (0, 0), BuildingBlock: ZUJKAS_clean_linker_0, # of connection points: 2
# Relax obj value: 0.122
# Max RMSD: 0.108
# Mean RMSD: 0.092
data_MOF--net-pcl--node1-GALJAG_clean_sbu_0--edge1-ZUJKAS_clean_linker_0
_symmetry_space_group_name_H-M    P1
_symmetry_Int_Tables_number       1
_symmetry_cell_setting            triclinic
loop_
_symmetry_equiv_pos_as_xyz
'x, y, z'
_cell_length_a     68.856916
_cell_length_b     51.807232
_cell_length_c     56.606767
_cell_angle_alpha  90.002794
_cell_angle_beta   89.98519
_cell_angle_gamma 89.980739
loop_
_atom_site_label
_atom_site_type_symbol
_atom_site_fract_x
_atom_site_fract_y
_atom_site_fract_z
_atom_type_partial_charge
In0 In 0.10939 0.32591 0.07581 0.0
O1 O 0.12338 0.28925 0.06084 0.0
O2 O 0.13396 0.32552 0.04902 0.0
C3 C 0.07296 0.30668 0.07322 0.0
C4 C 0.12179 0.32388 0.12108 0.0
C5 C 0.10778 0.37513 0.06034 0.0
O6 O 0.08423 0.30721 0.05565 0.0
O7 O 0.08024 0.31523 0.09209 0.0
O8 O 0.12206 0.36633 0.07174 0.0
O9 O 0.09429 0.35913 0.05679 0.0
C10 C 0.13528 0.30129 0.04794 0.0
O11 O 0.12623 0.30691 0.10605 0.0
O12 O 0.1111 0.3417 0.11331 0.0
In13 In 0.88915 0.67062 0.57434 0.0
O14 O 0.85972 0.69011 0.56987 0.0
O15 O 0.88027 0.69473 0.54224 0.0
C16 C 0.92718 0.68342 0.57144 0.0
C17 C 0.8782 0.67245 0.62011 0.0
C18 C 0.88671 0.62303 0.55516 0.0
O19 O 0.91397 0.70029 0.57192 0.0
O20 O 0.92119 0.66053 0.57271 0.0
O21 O 0.89148 0.62677 0.5764 0.0
O22 O 0.88297 0.64328 0.54365 0.0
C23 C 0.86343 0.69953 0.54985 0.0
O24 O 0.87236 0.65534 0.60596 0.0
O25 O 0.88966 0.6888 0.61121 0.0
In26 In 0.11151 0.66893 0.92544 0.0
O27 O 0.12021 0.65197 0.88999 0.0
O28 O 0.11757 0.69278 0.89223 0.0
C29 C 0.11143 0.62399 0.94953 0.0
C30 C 0.13965 0.69431 0.94919 0.0
C31 C 0.07341 0.68072 0.92285 0.0
O32 O 0.11949 0.6265 0.92967 0.0
O33 O 0.10349 0.64419 0.95735 0.0
O34 O 0.08565 0.69592 0.93197 0.0
O35 O 0.08049 0.66003 0.9149 0.0
C36 C 0.12148 0.6734 0.87955 0.0
O37 O 0.12188 0.69944 0.95196 0.0
O38 O 0.1431 0.67677 0.93437 0.0
In39 In 0.88865 0.32855 0.42064 0.0
O40 O 0.87748 0.344 0.38567 0.0
O41 O 0.88244 0.30361 0.38806 0.0
C42 C 0.88985 0.37464 0.44287 0.0
C43 C 0.85991 0.304 0.44402 0.0
C44 C 0.92683 0.31632 0.4202 0.0
O45 O 0.88535 0.37229 0.42139 0.0
O46 O 0.89389 0.35374 0.45316 0.0
O47 O 0.91491 0.30565 0.43402 0.0
O48 O 0.91943 0.33275 0.40647 0.0
C49 C 0.87694 0.32237 0.37549 0.0
O50 O 0.87677 0.29462 0.44218 0.0
O51 O 0.85761 0.32545 0.43392 0.0
In52 In 0.82958 0.66309 0.91321 0.0
O53 O 0.81532 0.69275 0.93752 0.0
O54 O 0.79745 0.67342 0.91257 0.0
C55 C 0.86758 0.67346 0.91998 0.0
C56 C 0.82503 0.61813 0.93662 0.0
C57 C 0.82887 0.66897 0.86591 0.0
O58 O 0.85447 0.68972 0.92474 0.0
O59 O 0.86143 0.65213 0.91232 0.0
O60 O 0.82416 0.64811 0.87592 0.0
O61 O 0.83338 0.68706 0.8798 0.0
C62 C 0.79848 0.68951 0.92924 0.0
O63 O 0.82425 0.61959 0.91439 0.0
O64 O 0.82805 0.63931 0.94697 0.0
In65 In 0.17035 0.34041 0.4132 0.0
O66 O 0.17609 0.38378 0.4136 0.0
O67 O 0.17187 0.36481 0.44653 0.0
C68 C 0.17078 0.3339 0.36594 0.0
C69 C 0.20198 0.31538 0.42947 0.0
C70 C 0.13264 0.32916 0.42131 0.0
O71 O 0.1734 0.35561 0.37555 0.0
O72 O 0.16831 0.31547 0.38018 0.0
O73 O 0.14593 0.31259 0.42384 0.0
O74 O 0.13844 0.35118 0.41504 0.0
C75 C 0.17517 0.38571 0.43581 0.0
O76 O 0.18522 0.31161 0.43781 0.0
O77 O 0.20269 0.33137 0.41271 0.0
In78 In 0.83039 0.33097 0.08261 0.0
O79 O 0.8241 0.37424 0.08242 0.0
O80 O 0.83001 0.356 0.04956 0.0
C81 C 0.83011 0.32406 0.12985 0.0
C82 C 0.79879 0.30629 0.06577 0.0
C83 C 0.86803 0.3194 0.07444 0.0
O84 O 0.82792 0.3459 0.12034 0.0
O85 O 0.83198 0.30558 0.11551 0.0
O86 O 0.85454 0.30352 0.07035 0.0
O87 O 0.86246 0.3409 0.08236 0.0
C88 C 0.82597 0.37662 0.06035 0.0
O89 O 0.81568 0.30206 0.05804 0.0
O90 O 0.7979 0.32254 0.08232 0.0
In91 In 0.16853 0.67044 0.58534 0.0
O92 O 0.17373 0.62698 0.58374 0.0
O93 O 0.17101 0.64738 0.55129 0.0
C94 C 0.1673 0.67448 0.63282 0.0
C95 C 0.20092 0.69519 0.57105 0.0
C96 C 0.1313 0.68289 0.57549 0.0
O97 O 0.16966 0.65319 0.62237 0.0
O98 O 0.16597 0.69378 0.61934 0.0
O99 O 0.14475 0.69944 0.57502 0.0
O100 O 0.13673 0.66036 0.58066 0.0
C101 C 0.17361 0.62597 0.56145 0.0
O102 O 0.18439 0.69986 0.5624 0.0
O103 O 0.20101 0.6785 0.58726 0.0
In104 In 0.60765 0.82539 0.07324 0.0
O105 O 0.63026 0.83816 0.10038 0.0
O106 O 0.60892 0.8109 0.1111 0.0
C107 C 0.60402 0.87365 0.0559 0.0
C108 C 0.633 0.79832 0.04627 0.0
C109 C 0.57029 0.80954 0.07525 0.0
O110 O 0.61121 0.86918 0.076 0.0
O111 O 0.5986 0.85386 0.04475 0.0
O112 O 0.5827 0.79843 0.06235 0.0
O113 O 0.57679 0.82824 0.08704 0.0
C114 C 0.62351 0.82426 0.11677 0.0
O115 O 0.6268 0.78999 0.06578 0.0
O116 O 0.62616 0.81985 0.04027 0.0
In117 In 0.39 0.17397 0.57223 0.0
O118 O 0.37051 0.20935 0.56638 0.0
O119 O 0.37478 0.18393 0.53761 0.0
C120 C 0.42824 0.18542 0.57456 0.0
C121 C 0.37542 0.17571 0.61638 0.0
C122 C 0.38915 0.12554 0.55476 0.0
O123 O 0.41632 0.1996 0.56366 0.0
O124 O 0.42081 0.16589 0.58425 0.0
O125 O 0.38122 0.1315 0.5741 0.0
O126 O 0.39754 0.14395 0.54435 0.0
C127 C 0.36655 0.20392 0.54524 0.0
O128 O 0.36771 0.16254 0.60012 0.0
O129 O 0.39036 0.18817 0.61027 0.0
In130 In 0.60548 0.16985 0.92595 0.0
O131 O 0.62036 0.15184 0.89409 0.0
O132 O 0.61284 0.19157 0.89195 0.0
C133 C 0.6008 0.12387 0.94763 0.0
C134 C 0.63435 0.19431 0.94908 0.0
C135 C 0.56799 0.18547 0.92505 0.0
O136 O 0.60181 0.12609 0.92547 0.0
O137 O 0.60193 0.14486 0.95883 0.0
O138 O 0.57939 0.19148 0.9416 0.0
O139 O 0.5756 0.1721 0.90893 0.0
C140 C 0.62037 0.17224 0.88192 0.0
O141 O 0.61892 0.20576 0.9431 0.0
O142 O 0.63511 0.17084 0.94332 0.0
In143 In 0.39356 0.82666 0.42979 0.0
O144 O 0.38426 0.79844 0.45898 0.0
O145 O 0.36345 0.80918 0.43319 0.0
C146 C 0.43158 0.81392 0.43334 0.0
C147 C 0.384 0.82857 0.38353 0.0
C148 C 0.39068 0.87325 0.45061 0.0
O149 O 0.42506 0.83613 0.43765 0.0
O150 O 0.41885 0.79766 0.42732 0.0
O151 O 0.39663 0.87037 0.42968 0.0
O152 O 0.38618 0.85259 0.46109 0.0
C153 C 0.36701 0.79654 0.45168 0.0
O154 O 0.3776 0.84436 0.39856 0.0
O155 O 0.39541 0.81176 0.39174 0.0
In156 In 0.32571 0.15739 0.90907 0.0
O157 O 0.31346 0.11667 0.91366 0.0
O158 O 0.33035 0.13238 0.94159 0.0
C159 C 0.32565 0.16001 0.86144 0.0
C160 C 0.29512 0.18398 0.92626 0.0
C161 C 0.36324 0.1702 0.9159 0.0
O162 O 0.32632 0.13889 0.8725 0.0
O163 O 0.32464 0.17976 0.8744 0.0
O164 O 0.34959 0.18613 0.91915 0.0
O165 O 0.35788 0.14806 0.90929 0.0
C166 C 0.32065 0.11351 0.93396 0.0
O167 O 0.31232 0.1883 0.93286 0.0
O168 O 0.29346 0.16671 0.91072 0.0
In169 In 0.67364 0.84002 0.40816 0.0
O170 O 0.67833 0.88344 0.41138 0.0
O171 O 0.67272 0.86238 0.44286 0.0
C172 C 0.67569 0.83648 0.36064 0.0
C173 C 0.70546 0.81521 0.42423 0.0
C174 C 0.63608 0.82657 0.41456 0.0
O175 O 0.67689 0.85767 0.3715 0.0
O176 O 0.67392 0.81695 0.37378 0.0
O177 O 0.64992 0.81178 0.42009 0.0
O178 O 0.64124 0.84797 0.40605 0.0
C179 C 0.67615 0.88401 0.43351 0.0
O180 O 0.68843 0.80789 0.42902 0.0
O181 O 0.70642 0.83475 0.41099 0.0
In182 In 0.32984 0.83473 0.09082 0.0
O183 O 0.31559 0.87424 0.08566 0.0
O184 O 0.33476 0.8606 0.05898 0.0
C185 C 0.33161 0.83562 0.13849 0.0
C186 C 0.29959 0.80728 0.07386 0.0
C187 C 0.36676 0.81968 0.08305 0.0
O188 O 0.33323 0.8557 0.12605 0.0
O189 O 0.32863 0.81521 0.12692 0.0
O190 O 0.35293 0.8037 0.08409 0.0
O191 O 0.36187 0.84295 0.08581 0.0
C192 C 0.32367 0.87838 0.066 0.0
O193 O 0.31661 0.80481 0.06593 0.0
O194 O 0.29794 0.82313 0.09064 0.0
In195 In 0.67165 0.16473 0.59067 0.0
O196 O 0.67619 0.12117 0.58812 0.0
O197 O 0.67126 0.14187 0.55628 0.0
C198 C 0.67413 0.16991 0.63804 0.0
C199 C 0.70263 0.19069 0.57372 0.0
C200 C 0.6337 0.17595 0.58453 0.0
O201 O 0.67731 0.14883 0.62759 0.0
O202 O 0.67027 0.18859 0.62454 0.0
O203 O 0.64703 0.19081 0.57749 0.0
O204 O 0.63957 0.15557 0.59439 0.0
C205 C 0.67439 0.12033 0.56595 0.0
O206 O 0.68537 0.19766 0.56979 0.0
O207 O 0.70426 0.17097 0.58663 0.0
H208 H 0.05359 0.28848 0.03441 0.0
H209 H 0.01847 0.28206 0.03036 0.0
H210 H 0.01058 0.30288 0.10352 0.0
H211 H 0.04558 0.30871 0.10784 0.0
H212 H 0.98657 0.2627 0.0896 0.0
H213 H 0.98308 0.34505 0.02655 0.0
H214 H 0.99857 0.31875 0.01803 0.0
H215 H 0.00459 0.33787 0.04348 0.0
C216 C 0.04438 0.29128 0.04971 0.0
C217 C 0.05228 0.29938 0.07137 0.0
C218 C 0.02433 0.28774 0.04734 0.0
C219 C 0.0119 0.29251 0.06651 0.0
C220 C 0.01991 0.29919 0.08847 0.0
H221 H 0.89876 0.351 0.08255 0.0
H222 H 0.9332 0.34109 0.07817 0.0
C223 C 0.03991 0.30257 0.0909 0.0
C224 C 0.99052 0.29255 0.06359 0.0
H225 H 0.95356 0.32617 0.03771 0.0
C226 C 0.97931 0.2763 0.07802 0.0
C227 C 0.98113 0.31052 0.04861 0.0
C228 C 0.9924 0.32921 0.0334 0.0
C229 C 0.95896 0.27817 0.07849 0.0
C230 C 0.94964 0.29652 0.06387 0.0
C231 C 0.9608 0.31204 0.04879 0.0
C232 C 0.9286 0.30202 0.06586 0.0
C233 C 0.94768 0.26152 0.09553 0.0
C234 C 0.91456 0.28339 0.06015 0.0
C235 C 0.89477 0.289 0.06271 0.0
C236 C 0.88879 0.31336 0.07091 0.0
C237 C 0.9029 0.33205 0.07623 0.0
C238 C 0.92259 0.32643 0.0737 0.0
H239 H 0.9573 0.25156 0.10837 0.0
H240 H 0.93696 0.27331 0.10547 0.0
H241 H 0.93956 0.24662 0.0855 0.0
H242 H 0.91891 0.26456 0.05372 0.0
H243 H 0.88419 0.27427 0.0584 0.0
H244 H 0.94461 0.73112 0.57126 0.0
H245 H 0.97951 0.74041 0.56719 0.0
H246 H 0.99139 0.65884 0.56245 0.0
H247 H 0.95687 0.64946 0.56645 0.0
H248 H 0.01047 0.72181 0.59702 0.0
H249 H 0.01946 0.68973 0.50445 0.0
H250 H 0.99607 0.69777 0.51695 0.0
H251 H 0.00671 0.66655 0.52219 0.0
C252 C 0.95471 0.71523 0.56925 0.0
C253 C 0.94804 0.68957 0.56911 0.0
C254 C 0.97457 0.72056 0.56691 0.0
C255 C 0.98793 0.70032 0.56408 0.0
C256 C 0.98126 0.67475 0.5641 0.0
H257 H 0.10137 0.64916 0.57143 0.0
H258 H 0.06696 0.65899 0.56644 0.0
C259 C 0.96153 0.66943 0.56656 0.0
C260 C 0.00902 0.70531 0.56218 0.0
H261 H 0.0484 0.68955 0.52856 0.0
C262 C 0.0188 0.71544 0.58184 0.0
C263 C 0.01977 0.69709 0.54227 0.0
C264 C 0.00994 0.68742 0.52016 0.0
C265 C 0.03919 0.71558 0.58285 0.0
C266 C 0.04991 0.70556 0.56361 0.0
C267 C 0.04011 0.6971 0.54333 0.0
C268 C 0.07096 0.70039 0.56547 0.0
C269 C 0.04914 0.72473 0.60506 0.0
C270 C 0.08462 0.72047 0.56623 0.0
C271 C 0.1044 0.71489 0.56901 0.0
C272 C 0.1107 0.68917 0.57115 0.0
C273 C 0.09696 0.66917 0.56992 0.0
C274 C 0.07731 0.67474 0.56702 0.0
H275 H 0.03862 0.72986 0.6192 0.0
H276 H 0.05905 0.70953 0.61183 0.0
H277 H 0.05805 0.74202 0.60102 0.0
H278 H 0.07996 0.74039 0.56485 0.0
H279 H 0.11469 0.73067 0.56989 0.0
H280 H 0.88504 0.7174 0.93682 0.0
H281 H 0.92005 0.72681 0.93799 0.0
H282 H 0.93214 0.65174 0.90859 0.0
H283 H 0.89747 0.64216 0.90744 0.0
H284 H 0.95147 0.69474 0.96087 0.0
H285 H 0.95933 0.70608 0.86389 0.0
H286 H 0.93629 0.7094 0.87892 0.0
H287 H 0.94601 0.67789 0.87284 0.0
C288 C 0.8952 0.7029 0.93071 0.0
C289 C 0.88854 0.67909 0.92196 0.0
C290 C 0.91513 0.70831 0.93138 0.0
C291 C 0.92856 0.69008 0.92306 0.0
C292 C 0.92194 0.66617 0.91477 0.0
H293 H 0.04524 0.65037 0.90406 0.0
H294 H 0.01023 0.65746 0.90468 0.0
C295 C 0.90213 0.66071 0.91423 0.0
C296 C 0.94962 0.69557 0.92296 0.0
H297 H 0.9885 0.69865 0.88574 0.0
C298 C 0.95962 0.69616 0.94452 0.0
C299 C 0.96007 0.69746 0.90155 0.0
C300 C 0.9499 0.69792 0.87795 0.0
C301 C 0.98002 0.69683 0.94518 0.0
C302 C 0.99052 0.69733 0.92368 0.0
C303 C 0.98041 0.69819 0.90218 0.0
C304 C 0.01187 0.69408 0.92296 0.0
C305 C 0.99019 0.6954 0.96875 0.0
C306 C 0.02444 0.71254 0.93276 0.0
C307 C 0.04455 0.7085 0.93247 0.0
C308 C 0.05234 0.68599 0.92229 0.0
C309 C 0.0397 0.66788 0.91207 0.0
C310 C 0.01968 0.67191 0.91238 0.0
H311 H 0.97999 0.69091 0.9834 0.0
H312 H 0.00175 0.68045 0.96838 0.0
H313 H 0.99717 0.71424 0.97258 0.0
H314 H 0.01869 0.72998 0.94067 0.0
H315 H 0.05397 0.72282 0.9404 0.0
H316 H 0.11566 0.28201 0.42888 0.0
H317 H 0.08074 0.27262 0.43168 0.0
H318 H 0.06794 0.3536 0.42347 0.0
H319 H 0.10259 0.36312 0.42069 0.0
H320 H 0.04699 0.32668 0.46118 0.0
H321 H 0.04295 0.27833 0.37335 0.0
H322 H 0.06119 0.2674 0.39383 0.0
H323 H 0.06291 0.29914 0.38139 0.0
C324 C 0.10537 0.29779 0.42784 0.0
C325 C 0.11181 0.32328 0.42446 0.0
C326 C 0.08548 0.29239 0.42934 0.0
C327 C 0.07183 0.31242 0.42758 0.0
C328 C 0.07828 0.3379 0.42484 0.0
H329 H 0.95453 0.33593 0.39098 0.0
H330 H 0.98971 0.33065 0.39402 0.0
C331 C 0.09807 0.34328 0.42321 0.0
C332 C 0.05072 0.30715 0.42795 0.0
H333 H 0.01359 0.28467 0.39371 0.0
C334 C 0.03966 0.31712 0.44666 0.0
C335 C 0.04131 0.29487 0.40883 0.0
C336 C 0.05258 0.28439 0.38808 0.0
C337 C 0.0193 0.31586 0.44639 0.0
C338 C 0.00985 0.30415 0.42698 0.0
C339 C 0.02094 0.29347 0.40862 0.0
C340 C 0.98849 0.30523 0.4243 0.0
C341 C 0.00803 0.32821 0.46627 0.0
C342 C 0.97616 0.29221 0.44004 0.0
C343 C 0.956 0.29519 0.43834 0.0
C344 C 0.94793 0.31124 0.42088 0.0
C345 C 0.96032 0.32352 0.40468 0.0
C346 C 0.98041 0.32048 0.40634 0.0
H347 H 0.01747 0.3399 0.47805 0.0
H348 H 0.99637 0.34082 0.45914 0.0
H349 H 0.00104 0.31293 0.47706 0.0
H350 H 0.98214 0.28012 0.45385 0.0
H351 H 0.94679 0.28542 0.45102 0.0
H352 H 0.39742 0.85137 0.07489 0.0
H353 H 0.43149 0.83947 0.07035 0.0
H354 H 0.41665 0.7591 0.07853 0.0
H355 H 0.38226 0.77091 0.08307 0.0
H356 H 0.44801 0.77731 0.10794 0.0
H357 H 0.45869 0.80331 0.01395 0.0
H358 H 0.44669 0.82813 0.03062 0.0
H359 H 0.43498 0.79742 0.02656 0.0
C360 C 0.40134 0.83113 0.07552 0.0
C361 C 0.38718 0.81205 0.07929 0.0
C362 C 0.4208 0.82436 0.07277 0.0
C363 C 0.42652 0.7984 0.07376 0.0
C364 C 0.41245 0.77923 0.0775 0.0
H365 H 0.55129 0.77441 0.04735 0.0
H366 H 0.51628 0.76522 0.04691 0.0
C367 C 0.39287 0.78599 0.08007 0.0
C368 C 0.44739 0.79187 0.07231 0.0
H369 H 0.48747 0.80186 0.0381 0.0
C370 C 0.45663 0.78212 0.09251 0.0
C371 C 0.45853 0.79781 0.05205 0.0
C372 C 0.4492 0.80701 0.02947 0.0
C373 C 0.47693 0.77997 0.09356 0.0
C374 C 0.48818 0.78804 0.07399 0.0
C375 C 0.47883 0.79592 0.05318 0.0
C376 C 0.50949 0.79129 0.07562 0.0
C377 C 0.48618 0.76987 0.11586 0.0
C378 C 0.5172 0.809 0.09184 0.0
C379 C 0.53704 0.81435 0.09204 0.0
C380 C 0.54958 0.80217 0.07595 0.0
C381 C 0.54195 0.78402 0.06 0.0
C382 C 0.522 0.77875 0.05973 0.0
H383 H 0.47614 0.7569 0.12561 0.0
H384 H 0.49981 0.75922 0.11197 0.0
H385 H 0.48973 0.78635 0.12762 0.0
H386 H 0.50776 0.81935 0.10387 0.0
H387 H 0.54248 0.82848 0.1045 0.0
H388 H 0.60328 0.14774 0.60083 0.0
H389 H 0.56871 0.15762 0.59752 0.0
H390 H 0.58219 0.22749 0.55952 0.0
H391 H 0.61702 0.21771 0.56274 0.0
H392 H 0.54992 0.2057 0.61415 0.0
H393 H 0.54149 0.18699 0.51766 0.0
H394 H 0.56151 0.17382 0.53439 0.0
H395 H 0.56102 0.20755 0.52735 0.0
C396 C 0.59893 0.16518 0.59168 0.0
C397 C 0.61284 0.18194 0.582 0.0
C398 C 0.57918 0.1708 0.58986 0.0
C399 C 0.57296 0.19318 0.57819 0.0
C400 C 0.58676 0.21 0.56841 0.0
H401 H 0.44868 0.22385 0.55231 0.0
H402 H 0.48399 0.23083 0.55331 0.0
C403 C 0.6066 0.20442 0.57031 0.0
C404 C 0.55194 0.19872 0.57674 0.0
H405 H 0.51312 0.19544 0.53939 0.0
C406 C 0.54188 0.20385 0.59776 0.0
C407 C 0.54158 0.19652 0.55528 0.0
C408 C 0.55183 0.19082 0.53231 0.0
C409 C 0.52157 0.20579 0.59807 0.0
C410 C 0.51109 0.20197 0.57687 0.0
C411 C 0.52122 0.19828 0.55561 0.0
C412 C 0.48973 0.19886 0.5769 0.0
C413 C 0.5115 0.21135 0.62118 0.0
C414 C 0.48137 0.17846 0.58962 0.0
C415 C 0.46137 0.17443 0.58904 0.0
C416 C 0.4493 0.19063 0.57562 0.0
C417 C 0.45764 0.21114 0.56289 0.0
C418 C 0.47776 0.21513 0.56343 0.0
H419 H 0.52119 0.2219 0.63354 0.0
H420 H 0.4981 0.2229 0.61843 0.0
H421 H 0.5074 0.19283 0.62969 0.0
H422 H 0.49039 0.16533 0.5997 0.0
H423 H 0.4554 0.15839 0.59894 0.0
H424 H 0.5417 0.17643 0.89016 0.0
H425 H 0.50659 0.18261 0.89175 0.0
H426 H 0.5117 0.21469 0.96179 0.0
H427 H 0.547 0.20837 0.96038 0.0
H428 H 0.48489 0.17507 0.95872 0.0
H429 H 0.47194 0.24646 0.88778 0.0
H430 H 0.48671 0.21998 0.87804 0.0
H431 H 0.49562 0.24129 0.90069 0.0
C432 C 0.53541 0.18521 0.90576 0.0
C433 C 0.54709 0.1919 0.92517 0.0
C434 C 0.51534 0.18891 0.90657 0.0
C435 C 0.50656 0.19946 0.92675 0.0
C436 C 0.51823 0.20673 0.94597 0.0
H437 H 0.37908 0.21723 0.92693 0.0
H438 H 0.41365 0.2274 0.93238 0.0
C439 C 0.53836 0.20313 0.94513 0.0
C440 C 0.48511 0.20033 0.92848 0.0
H441 H 0.44452 0.22005 0.89891 0.0
C442 C 0.47605 0.18531 0.94592 0.0
C443 C 0.47358 0.21393 0.91196 0.0
C444 C 0.48246 0.23154 0.89371 0.0
C445 C 0.45581 0.18223 0.94636 0.0
C446 C 0.44442 0.19426 0.92875 0.0
C447 C 0.45334 0.2106 0.91223 0.0
C448 C 0.42351 0.18836 0.92603 0.0
C449 C 0.44684 0.16562 0.96533 0.0
C450 C 0.41772 0.16317 0.92035 0.0
C451 C 0.39812 0.15736 0.91715 0.0
C452 C 0.38392 0.17666 0.9195 0.0
C453 C 0.38972 0.20195 0.9251 0.0
C454 C 0.40942 0.20779 0.9282 0.0
H455 H 0.45642 0.16416 0.98107 0.0
H456 H 0.43252 0.17337 0.97093 0.0
H457 H 0.4446 0.14585 0.9583 0.0
H458 H 0.42841 0.14801 0.91815 0.0
H459 H 0.39412 0.13772 0.91276 0.0
H460 H 0.46019 0.84515 0.44968 0.0
H461 H 0.49516 0.8379 0.4481 0.0
H462 H 0.48568 0.76273 0.41747 0.0
H463 H 0.4504 0.76994 0.41888 0.0
H464 H 0.51906 0.79742 0.46725 0.0
H465 H 0.52018 0.80206 0.36888 0.0
H466 H 0.49958 0.81289 0.38592 0.0
H467 H 0.5041 0.779 0.38238 0.0
C468 C 0.4655 0.82696 0.44278 0.0
C469 C 0.45258 0.80819 0.43421 0.0
C470 C 0.48549 0.82282 0.44198 0.0
C471 C 0.49298 0.79991 0.43247 0.0
C472 C 0.48015 0.78067 0.42465 0.0
H473 H 0.62091 0.78191 0.4329 0.0
H474 H 0.58641 0.77084 0.43745 0.0
C475 C 0.46004 0.78477 0.42553 0.0
C476 C 0.51426 0.79725 0.42969 0.0
H477 H 0.55022 0.80061 0.38829 0.0
C478 C 0.52594 0.79761 0.45001 0.0
C479 C 0.52309 0.79775 0.40714 0.0
C480 C 0.51119 0.79806 0.38476 0.0
C481 C 0.54624 0.79953 0.44839 0.0
C482 C 0.55501 0.80091 0.42584 0.0
C483 C 0.54339 0.79944 0.40553 0.0
C484 C 0.57589 0.80686 0.42293 0.0
C485 C 0.55807 0.80153 0.47074 0.0
C486 C 0.58132 0.83057 0.41299 0.0
C487 C 0.60089 0.8369 0.41036 0.0
C488 C 0.61543 0.81957 0.41752 0.0
C489 C 0.61 0.79568 0.42732 0.0
C490 C 0.59034 0.78936 0.42998 0.0
H491 H 0.54881 0.80377 0.48668 0.0
H492 H 0.56693 0.78378 0.47287 0.0
H493 H 0.56818 0.81819 0.46972 0.0
H494 H 0.57038 0.84433 0.40745 0.0
H495 H 0.6046 0.85542 0.40271 0.0
H496 H 0.14762 0.2902 0.14099 0.0
H497 H 0.15836 0.2889 0.18232 0.0
H498 H 0.12179 0.3542 0.1982 0.0
H499 H 0.11105 0.35573 0.15703 0.0
H500 H 0.17605 0.33206 0.20998 0.0
H501 H 0.10629 0.29528 0.24615 0.0
H502 H 0.11288 0.29203 0.2154 0.0
H503 H 0.10431 0.32244 0.22651 0.0
C504 C 0.14187 0.30425 0.15331 0.0
C505 C 0.12844 0.323 0.14585 0.0
C506 C 0.14805 0.30351 0.17684 0.0
C507 C 0.14071 0.32131 0.19324 0.0
C508 C 0.12744 0.34015 0.18579 0.0
H509 H 0.17456 0.37088 0.33189 0.0
H510 H 0.16929 0.36592 0.28937 0.0
C511 C 0.12137 0.34103 0.16229 0.0
C512 C 0.14684 0.32032 0.21822 0.0
H513 H 0.12955 0.31019 0.2739 0.0
C514 C 0.16598 0.32708 0.22399 0.0
C515 C 0.13368 0.31353 0.23632 0.0
C516 C 0.11317 0.30519 0.23089 0.0
C517 C 0.17214 0.32807 0.24763 0.0
C518 C 0.15872 0.32233 0.2658 0.0
C519 C 0.13977 0.31473 0.25992 0.0
C520 C 0.16375 0.32484 0.29111 0.0
C521 C 0.1929 0.33526 0.25296 0.0
C522 C 0.16228 0.30341 0.30615 0.0
C523 C 0.1652 0.30621 0.33043 0.0
C524 C 0.16947 0.33055 0.34009 0.0
C525 C 0.17136 0.35188 0.32493 0.0
C526 C 0.16847 0.34905 0.30063 0.0
H527 H 0.20247 0.33224 0.23739 0.0
H528 H 0.19357 0.35599 0.25783 0.0
H529 H 0.19863 0.32382 0.26801 0.0
H530 H 0.15854 0.2846 0.29913 0.0
H531 H 0.16362 0.28943 0.34169 0.0
H532 H 0.88728 0.70855 0.65361 0.0
H533 H 0.87712 0.70905 0.69517 0.0
H534 H 0.84493 0.63866 0.68436 0.0
H535 H 0.855 0.63796 0.64293 0.0
H536 H 0.83726 0.70788 0.71409 0.0
H537 H 0.88211 0.62357 0.74098 0.0
H538 H 0.88668 0.64156 0.71422 0.0
H539 H 0.86704 0.61881 0.71542 0.0
C540 C 0.87805 0.69319 0.66012 0.0
C541 C 0.87201 0.67314 0.64508 0.0
C542 C 0.87223 0.69354 0.68379 0.0
C543 C 0.86046 0.67375 0.6928 0.0
C544 C 0.85423 0.65392 0.67777 0.0
H545 H 0.8189 0.63336 0.83252 0.0
H546 H 0.82476 0.63574 0.78993 0.0
C547 C 0.85996 0.65359 0.65411 0.0
C548 C 0.85474 0.6737 0.71797 0.0
H549 H 0.86026 0.64013 0.76936 0.0
C550 C 0.8423 0.69315 0.72625 0.0
C551 C 0.86131 0.65436 0.73365 0.0
C552 C 0.87515 0.63346 0.72576 0.0
C553 C 0.83598 0.69353 0.74984 0.0
C554 C 0.84264 0.67424 0.76558 0.0
C555 C 0.8551 0.65482 0.75723 0.0
C556 C 0.8373 0.67403 0.79095 0.0
C557 C 0.82191 0.71423 0.75753 0.0
C558 C 0.84224 0.69486 0.80561 0.0
C559 C 0.83878 0.69362 0.82991 0.0
C560 C 0.83054 0.67138 0.84 0.0
C561 C 0.82524 0.65076 0.82524 0.0
C562 C 0.82861 0.65208 0.80092 0.0
H563 H 0.81391 0.7225 0.74226 0.0
H564 H 0.81122 0.70659 0.77044 0.0
H565 H 0.83009 0.73013 0.7661 0.0
H566 H 0.84938 0.71174 0.79841 0.0
H567 H 0.84316 0.70974 0.84088 0.0
H568 H 0.13151 0.63427 0.84986 0.0
H569 H 0.14128 0.63745 0.80847 0.0
H570 H 0.13449 0.72015 0.81118 0.0
H571 H 0.12454 0.71713 0.85272 0.0
H572 H 0.11674 0.69606 0.77168 0.0
H573 H 0.19326 0.66471 0.78258 0.0
H574 H 0.17584 0.64319 0.79558 0.0
H575 H 0.17847 0.67535 0.80707 0.0
C576 C 0.13216 0.65316 0.84169 0.0
C577 C 0.12733 0.67548 0.85453 0.0
C578 C 0.13786 0.65495 0.81809 0.0
C579 C 0.13892 0.67907 0.80693 0.0
C580 C 0.13391 0.70138 0.81959 0.0
H581 H 0.16174 0.71809 0.65903 0.0
H582 H 0.15582 0.72092 0.70161 0.0
C583 C 0.12823 0.69962 0.84327 0.0
C584 C 0.14458 0.68075 0.78176 0.0
H585 H 0.18103 0.66592 0.74319 0.0
C586 C 0.13086 0.68977 0.76542 0.0
C587 C 0.16301 0.67246 0.77375 0.0
C588 C 0.17858 0.6636 0.79066 0.0
C589 C 0.13482 0.68984 0.74111 0.0
C590 C 0.15314 0.6811 0.73305 0.0
C591 C 0.167 0.67256 0.74944 0.0
C592 C 0.1579 0.67975 0.70758 0.0
C593 C 0.11912 0.69833 0.7242 0.0
C594 C 0.16173 0.65578 0.69703 0.0
C595 C 0.16526 0.65412 0.67278 0.0
C596 C 0.16508 0.67645 0.6587 0.0
C597 C 0.16185 0.70054 0.66943 0.0
C598 C 0.15836 0.70218 0.69371 0.0
H599 H 0.10461 0.69877 0.73276 0.0
H600 H 0.12243 0.71808 0.71778 0.0
H601 H 0.11844 0.6853 0.70864 0.0
H602 H 0.16153 0.63826 0.70749 0.0
H603 H 0.16774 0.6353 0.665 0.0
H604 H 0.82832 0.36138 0.16373 0.0
H605 H 0.83399 0.3564 0.20613 0.0
H606 H 0.84115 0.27432 0.19683 0.0
H607 H 0.83576 0.27919 0.15428 0.0
H608 H 0.81477 0.32627 0.24055 0.0
H609 H 0.8919 0.29664 0.22913 0.0
H610 H 0.87791 0.31085 0.20552 0.0
H611 H 0.87434 0.2776 0.21341 0.0
C612 C 0.83097 0.34224 0.17072 0.0
C613 C 0.83175 0.32069 0.15568 0.0
C614 C 0.83419 0.33943 0.19494 0.0
C615 C 0.8383 0.31506 0.20452 0.0
C616 C 0.83837 0.29336 0.18969 0.0
H617 H 0.87499 0.27814 0.34909 0.0
H618 H 0.86415 0.274 0.30795 0.0
C619 C 0.83517 0.29616 0.16543 0.0
C620 C 0.84301 0.31267 0.22995 0.0
H621 H 0.87996 0.29863 0.26807 0.0
C622 C 0.82898 0.32009 0.2466 0.0
C623 C 0.86155 0.30451 0.23774 0.0
C624 C 0.87739 0.29712 0.22058 0.0
C625 C 0.83307 0.31986 0.27087 0.0
C626 C 0.85179 0.31244 0.27862 0.0
C627 C 0.86563 0.30428 0.26203 0.0
C628 C 0.85771 0.31461 0.30368 0.0
C629 C 0.81734 0.32764 0.28802 0.0
C630 C 0.8579 0.33885 0.31472 0.0
C631 C 0.86409 0.34127 0.33808 0.0
C632 C 0.87032 0.3195 0.35082 0.0
C633 C 0.87022 0.29523 0.33971 0.0
C634 C 0.86403 0.29283 0.31627 0.0
H635 H 0.80266 0.3253 0.28018 0.0
H636 H 0.81814 0.31608 0.30451 0.0
H637 H 0.81921 0.34829 0.29272 0.0
H638 H 0.85351 0.35598 0.30514 0.0
H639 H 0.8641 0.36025 0.34611 0.0
H640 H 0.67659 0.8763 0.32915 0.0
H641 H 0.67104 0.8741 0.28648 0.0
H642 H 0.66668 0.79121 0.29071 0.0
H643 H 0.67227 0.79319 0.33342 0.0
H644 H 0.68905 0.81233 0.25021 0.0
H645 H 0.61536 0.8547 0.2618 0.0
H646 H 0.63511 0.87235 0.27487 0.0
H647 H 0.62892 0.84099 0.28604 0.0
C648 C 0.67471 0.85757 0.32096 0.0
C649 C 0.67469 0.83492 0.33463 0.0
C650 C 0.6715 0.85637 0.29662 0.0
C651 C 0.66823 0.83253 0.28559 0.0
C652 C 0.66914 0.80979 0.29897 0.0
H653 H 0.60967 0.79833 0.15505 0.0
H654 H 0.62191 0.79981 0.19557 0.0
C655 C 0.6723 0.81096 0.32334 0.0
C656 C 0.66258 0.83143 0.26043 0.0
H657 H 0.6256 0.84649 0.22277 0.0
C658 C 0.67523 0.81985 0.24412 0.0
C659 C 0.64443 0.84102 0.25273 0.0
C660 C 0.63005 0.85281 0.26973 0.0
C661 C 0.67019 0.81779 0.22014 0.0
C662 C 0.65213 0.82764 0.21244 0.0
C663 C 0.63948 0.8391 0.22879 0.0
C664 C 0.6457 0.82565 0.18759 0.0
C665 C 0.68399 0.80464 0.2033 0.0
C666 C 0.65507 0.8397 0.16973 0.0
C667 C 0.64806 0.83898 0.14655 0.0
C668 C 0.63157 0.82419 0.14093 0.0
C669 C 0.62242 0.80986 0.15883 0.0
C670 C 0.62938 0.81069 0.18197 0.0
H671 H 0.69559 0.79389 0.21276 0.0
H672 H 0.67603 0.79104 0.19164 0.0
H673 H 0.69098 0.81939 0.19191 0.0
H674 H 0.66752 0.85165 0.17383 0.0
H675 H 0.65537 0.85026 0.13311 0.0
H676 H 0.3294 0.12022 0.83017 0.0
H677 H 0.33525 0.12317 0.78758 0.0
H678 H 0.33187 0.20618 0.79156 0.0
H679 H 0.32585 0.20341 0.83412 0.0
H680 H 0.31221 0.18373 0.75173 0.0
H681 H 0.38815 0.14891 0.7618 0.0
H682 H 0.36987 0.12826 0.7743 0.0
H683 H 0.37376 0.15984 0.78651 0.0
C684 C 0.32972 0.13908 0.82193 0.0
C685 C 0.32733 0.1616 0.83548 0.0
C686 C 0.33312 0.14073 0.79765 0.0
C687 C 0.33428 0.1649 0.78656 0.0
C688 C 0.3311 0.18736 0.79985 0.0
H689 H 0.39028 0.20157 0.65419 0.0
H690 H 0.37908 0.19992 0.69518 0.0
C691 C 0.32769 0.18573 0.82414 0.0
C692 C 0.33967 0.16686 0.76133 0.0
H693 H 0.3768 0.15525 0.72284 0.0
C694 C 0.32631 0.1775 0.74535 0.0
C695 C 0.35819 0.15904 0.75322 0.0
C696 C 0.37342 0.14857 0.76983 0.0
C697 C 0.33092 0.18024 0.72131 0.0
C698 C 0.34928 0.17189 0.71313 0.0
C699 C 0.36269 0.16149 0.72918 0.0
C700 C 0.35511 0.17407 0.68805 0.0
C701 C 0.31628 0.19247 0.70494 0.0
C702 C 0.34532 0.16008 0.67049 0.0
C703 C 0.35169 0.16098 0.64705 0.0
C704 C 0.36801 0.17579 0.64085 0.0
C705 C 0.37764 0.19002 0.65844 0.0
C706 C 0.37128 0.18909 0.68184 0.0
H707 H 0.30493 0.20325 0.71482 0.0
H708 H 0.3235 0.20587 0.6924 0.0
H709 H 0.309 0.17714 0.6945 0.0
H710 H 0.33303 0.14801 0.675 0.0
H711 H 0.34403 0.14974 0.63388 0.0
H712 H 0.62066 0.21321 0.85147 0.0
H713 H 0.63244 0.21379 0.81058 0.0
H714 H 0.64984 0.13412 0.81695 0.0
H715 H 0.6379 0.13327 0.85763 0.0
H716 H 0.66989 0.20271 0.79164 0.0
H717 H 0.61374 0.13446 0.75914 0.0
H718 H 0.61196 0.1504 0.78741 0.0
H719 H 0.62753 0.12281 0.78386 0.0
C720 C 0.62703 0.19584 0.84415 0.0
C721 C 0.62821 0.17313 0.85765 0.0
C722 C 0.63378 0.19622 0.82084 0.0
C723 C 0.64173 0.17388 0.81068 0.0
C724 C 0.64342 0.15141 0.82435 0.0
H725 H 0.68057 0.13187 0.67039 0.0
H726 H 0.67485 0.13383 0.71302 0.0
C727 C 0.63665 0.151 0.8476 0.0
C728 C 0.64793 0.17387 0.78564 0.0
H729 H 0.63877 0.14559 0.73237 0.0
C730 C 0.66308 0.1903 0.77863 0.0
C731 C 0.63896 0.15767 0.76876 0.0
C732 C 0.62203 0.14049 0.77505 0.0
C733 C 0.66976 0.19059 0.75517 0.0
C734 C 0.66085 0.17427 0.73834 0.0
C735 C 0.64567 0.15792 0.74538 0.0
C736 C 0.6666 0.17414 0.71314 0.0
C737 C 0.68651 0.20797 0.7487 0.0
C738 C 0.6641 0.19625 0.69915 0.0
C739 C 0.66739 0.1952 0.6748 0.0
C740 C 0.67309 0.17195 0.66403 0.0
C741 C 0.67621 0.15006 0.6782 0.0
C742 C 0.67293 0.15114 0.70253 0.0
H743 H 0.69492 0.21397 0.76451 0.0
H744 H 0.69648 0.19825 0.73609 0.0
H745 H 0.68079 0.22564 0.74008 0.0
H746 H 0.65886 0.21405 0.7069 0.0
H747 H 0.66477 0.21234 0.66431 0.0
H748 H 0.32927 0.79464 0.16864 0.0
H749 H 0.33663 0.79416 0.21093 0.0
H750 H 0.34781 0.87603 0.20898 0.0
H751 H 0.3406 0.87666 0.16663 0.0
H752 H 0.37758 0.84632 0.23019 0.0
H753 H 0.30498 0.82272 0.26716 0.0
H754 H 0.31313 0.80155 0.24404 0.0
H755 H 0.30826 0.83486 0.23752 0.0
C756 C 0.33305 0.8126 0.17728 0.0
C757 C 0.33435 0.8357 0.16435 0.0
C758 C 0.33717 0.81231 0.20145 0.0
C759 C 0.34259 0.8351 0.21308 0.0
C760 C 0.34358 0.85826 0.2003 0.0
H761 H 0.35774 0.86096 0.36314 0.0
H762 H 0.34793 0.86255 0.32162 0.0
C763 C 0.33942 0.85859 0.17615 0.0
C764 C 0.34833 0.83452 0.23826 0.0
H765 H 0.33167 0.82123 0.29374 0.0
C766 C 0.36754 0.84092 0.24411 0.0
C767 C 0.33515 0.82762 0.25633 0.0
C768 C 0.31417 0.8215 0.25106 0.0
C769 C 0.37401 0.84026 0.2676 0.0
C770 C 0.36095 0.83276 0.2856 0.0
C771 C 0.34167 0.82673 0.27981 0.0
C772 C 0.36697 0.83157 0.31065 0.0
C773 C 0.39467 0.8479 0.27304 0.0
C774 C 0.38081 0.81346 0.31818 0.0
C775 C 0.38642 0.81246 0.3419 0.0
C776 C 0.37826 0.82957 0.35842 0.0
C777 C 0.36434 0.8476 0.3508 0.0
C778 C 0.35868 0.8485 0.32713 0.0
H779 H 0.40154 0.85835 0.25807 0.0
H780 H 0.39528 0.86033 0.28901 0.0
H781 H 0.40335 0.83028 0.27663 0.0
H782 H 0.38717 0.80002 0.30573 0.0
H783 H 0.39712 0.79831 0.3473 0.0
H784 H 0.29493 0.2217 0.95999 0.0
H785 H 0.26657 0.24109 0.97917 0.0
H786 H 0.22867 0.19454 0.936 0.0
H787 H 0.25691 0.17538 0.91649 0.0
H788 H 0.21656 0.24544 0.9396 0.0
H789 H 0.23265 0.20396 0.02783 0.0
H790 H 0.25228 0.22242 0.01557 0.0
H791 H 0.24465 0.19314 0.00126 0.0
C792 C 0.28055 0.21571 0.95451 0.0
C793 C 0.27812 0.19693 0.93685 0.0
C794 C 0.26438 0.22666 0.96558 0.0
C795 C 0.24556 0.21886 0.9593 0.0
C796 C 0.24309 0.20069 0.94119 0.0
H797 H 0.14208 0.24947 0.04377 0.0
H798 H 0.16779 0.22842 0.02077 0.0
C799 C 0.25923 0.18978 0.93008 0.0
C800 C 0.22841 0.22956 0.97167 0.0
H801 H 0.20744 0.23529 0.02605 0.0
C802 C 0.2145 0.24315 0.95848 0.0
C803 C 0.2256 0.2261 0.99622 0.0
C804 C 0.23947 0.2104 0.01105 0.0
C805 C 0.19809 0.254 0.96934 0.0
C806 C 0.19574 0.2515 0.99405 0.0
C807 C 0.20937 0.23733 0.00713 0.0
C808 C 0.17955 0.26405 0.00685 0.0
C809 C 0.18335 0.26784 0.95422 0.0
C810 C 0.17772 0.29101 0.00668 0.0
C811 C 0.16309 0.30303 0.01972 0.0
C812 C 0.1501 0.2883 0.03333 0.0
C813 C 0.15186 0.26128 0.03339 0.0
C814 C 0.16652 0.24926 0.0203 0.0
H815 H 0.18428 0.26171 0.93545 0.0
H816 H 0.16835 0.26433 0.96069 0.0
H817 H 0.18618 0.28891 0.95495 0.0
H818 H 0.18788 0.30281 0.99684 0.0
H819 H 0.16216 0.3239 0.01943 0.0
H820 H 0.82765 0.71539 0.56431 0.0
H821 H 0.80246 0.73628 0.54054 0.0
H822 H 0.84071 0.73629 0.48022 0.0
H823 H 0.86607 0.71542 0.50392 0.0
H824 H 0.80521 0.78496 0.51308 0.0
H825 H 0.78944 0.69736 0.45936 0.0
H826 H 0.80179 0.69577 0.48747 0.0
H827 H 0.81446 0.70708 0.46179 0.0
C828 C 0.83075 0.71999 0.54603 0.0
C829 C 0.84878 0.7137 0.53592 0.0
C830 C 0.81637 0.73192 0.53251 0.0
C831 C 0.81972 0.73754 0.50863 0.0
C832 C 0.83784 0.73184 0.49859 0.0
H833 H 0.74327 0.82996 0.41902 0.0
H834 H 0.77187 0.81118 0.43821 0.0
C835 C 0.85231 0.72004 0.51216 0.0
C836 C 0.80401 0.74893 0.49423 0.0
H837 H 0.77144 0.73489 0.45063 0.0
C838 C 0.79789 0.77414 0.4993 0.0
C839 C 0.79445 0.73455 0.47649 0.0
C840 C 0.8002 0.70711 0.47094 0.0
C841 C 0.78231 0.78539 0.48709 0.0
C842 C 0.77276 0.77104 0.4693 0.0
C843 C 0.77893 0.74584 0.46418 0.0
C844 C 0.75575 0.7815 0.45657 0.0
C845 C 0.77582 0.81226 0.49371 0.0
C846 C 0.73736 0.77052 0.46009 0.0
C847 C 0.72102 0.78116 0.44917 0.0
C848 C 0.72286 0.80285 0.43442 0.0
C849 C 0.74141 0.8133 0.43036 0.0
C850 C 0.75773 0.80269 0.44136 0.0
H851 H 0.78232 0.81876 0.51066 0.0
H852 H 0.78031 0.82596 0.47967 0.0
H853 H 0.75976 0.81314 0.49524 0.0
H854 H 0.73559 0.75409 0.47173 0.0
H855 H 0.70692 0.77267 0.45258 0.0
H856 H 0.26149 0.81241 0.08617 0.0
H857 H 0.23332 0.79246 0.06712 0.0
H858 H 0.27131 0.75265 0.01871 0.0
H859 H 0.29956 0.7724 0.03772 0.0
H860 H 0.22327 0.79764 0.01855 0.0
H861 H 0.2351 0.6953 0.04387 0.0
H862 H 0.24681 0.72182 0.05892 0.0
H863 H 0.25586 0.71081 0.03089 0.0
C864 C 0.26385 0.79917 0.07164 0.0
C865 C 0.28272 0.79389 0.06345 0.0
C866 C 0.24775 0.78785 0.06077 0.0
C867 C 0.25027 0.77091 0.0417 0.0
C868 C 0.2691 0.76535 0.03367 0.0
H869 H 0.17858 0.68811 0.94354 0.0
H870 H 0.20463 0.70787 0.96655 0.0
C871 C 0.2852 0.77671 0.04449 0.0
C872 C 0.23318 0.76005 0.02939 0.0
H873 H 0.21125 0.70335 0.01442 0.0
C874 C 0.2205 0.77705 0.01778 0.0
C875 C 0.2297 0.7332 0.02846 0.0
C876 C 0.24247 0.71419 0.04136 0.0
C877 C 0.20472 0.76782 0.00457 0.0
C878 C 0.20137 0.74091 0.00337 0.0
C879 C 0.21389 0.72396 0.01534 0.0
C880 C 0.18539 0.72979 0.98916 0.0
C881 C 0.19219 0.78686 0.99135 0.0
C882 C 0.16591 0.73557 0.99427 0.0
C883 C 0.15095 0.72441 0.98101 0.0
C884 C 0.15528 0.70711 0.96263 0.0
C885 C 0.1748 0.70139 0.95759 0.0
C886 C 0.1897 0.71262 0.97074 0.0
H887 H 0.19945 0.8059 0.98941 0.0
H888 H 0.18847 0.77947 0.97351 0.0
H889 H 0.17846 0.78988 0.00124 0.0
H890 H 0.16226 0.74838 0.00872 0.0
H891 H 0.13603 0.729 0.9854 0.0
H892 H 0.74072 0.17655 0.5767 0.0
H893 H 0.76831 0.19568 0.55584 0.0
H894 H 0.73033 0.25279 0.52516 0.0
H895 H 0.7026 0.23348 0.54564 0.0
H896 H 0.7536 0.22838 0.49232 0.0
H897 H 0.79769 0.26258 0.56824 0.0
H898 H 0.79103 0.22911 0.56977 0.0
H899 H 0.77249 0.2535 0.57117 0.0
C900 C 0.7383 0.19339 0.56575 0.0
C901 C 0.71952 0.20356 0.56281 0.0
C902 C 0.75409 0.20437 0.55394 0.0
C903 C 0.7514 0.22584 0.53919 0.0
C904 C 0.73271 0.23628 0.53654 0.0
H905 H 0.82234 0.31974 0.44782 0.0
H906 H 0.79631 0.29962 0.47066 0.0
C907 C 0.71691 0.22527 0.54828 0.0
C908 C 0.76781 0.2365 0.52539 0.0
H909 H 0.8126 0.26427 0.53042 0.0
C910 C 0.76647 0.23632 0.50065 0.0
C911 C 0.78462 0.24668 0.53632 0.0
C912 C 0.78655 0.24824 0.56284 0.0
C913 C 0.78153 0.24596 0.48651 0.0
C914 C 0.79826 0.25629 0.49744 0.0
C915 C 0.79974 0.25623 0.52215 0.0
C916 C 0.81405 0.26813 0.48347 0.0
C917 C 0.77954 0.24479 0.45998 0.0
C918 C 0.83271 0.25724 0.48342 0.0
C919 C 0.84765 0.26868 0.47034 0.0
C920 C 0.84415 0.29133 0.45735 0.0
C921 C 0.82546 0.30223 0.45758 0.0
C922 C 0.81055 0.29073 0.47054 0.0
H923 H 0.76818 0.23083 0.45443 0.0
H924 H 0.77538 0.26414 0.45326 0.0
H925 H 0.79352 0.23928 0.4516 0.0
H926 H 0.83568 0.23985 0.49342 0.0
H927 H 0.86194 0.25994 0.47057 0.0
H928 H 0.64486 0.80989 0.00166 0.0
H929 H 0.67151 0.79025 0.97949 0.0
H930 H 0.68239 0.73807 0.03741 0.0
H931 H 0.65534 0.75716 0.0594 0.0
H932 H 0.70904 0.78991 0.99136 0.0
H933 H 0.68325 0.68914 0.98206 0.0
H934 H 0.6675 0.71506 0.9914 0.0
H935 H 0.68363 0.69985 0.01219 0.0
C936 C 0.65274 0.79395 0.00952 0.0
C937 C 0.64801 0.78498 0.03222 0.0
C938 C 0.66798 0.7828 0.99685 0.0
C939 C 0.67881 0.76251 0.00667 0.0
C940 C 0.67395 0.75328 0.02924 0.0
H941 H 0.79633 0.71971 0.96866 0.0
H942 H 0.76713 0.73816 0.98659 0.0
C943 C 0.65856 0.76429 0.04184 0.0
C944 C 0.69595 0.75223 0.99388 0.0
H945 H 0.71667 0.69681 0.9732 0.0
C946 C 0.71064 0.76957 0.98723 0.0
C947 C 0.69792 0.72576 0.98825 0.0
C948 C 0.68215 0.70641 0.99363 0.0
C949 C 0.72742 0.76111 0.9755 0.0
C950 C 0.72978 0.73448 0.97081 0.0
C951 C 0.71492 0.7172 0.97702 0.0
C952 C 0.74758 0.72408 0.95956 0.0
C953 C 0.7423 0.78084 0.96795 0.0
C954 C 0.74624 0.70965 0.93864 0.0
C955 C 0.76287 0.69886 0.92851 0.0
C956 C 0.78113 0.7023 0.93914 0.0
C957 C 0.78247 0.71696 0.95995 0.0
C958 C 0.76582 0.72761 0.97016 0.0
H959 H 0.73581 0.80041 0.96642 0.0
H960 H 0.754 0.78177 0.98139 0.0
H961 H 0.74893 0.7756 0.95071 0.0
H962 H 0.7323 0.70662 0.93022 0.0
H963 H 0.76138 0.68758 0.91249 0.0
H964 H 0.35732 0.19672 0.49893 0.0
H965 H 0.3312 0.21744 0.47665 0.0
H966 H 0.31659 0.26345 0.53766 0.0
H967 H 0.34297 0.24318 0.55989 0.0
H968 H 0.29291 0.21483 0.48734 0.0
H969 H 0.31655 0.31704 0.48543 0.0
H970 H 0.33272 0.291 0.49331 0.0
H971 H 0.31594 0.30376 0.5147 0.0
C972 C 0.34876 0.21158 0.50747 0.0
C973 C 0.35218 0.21838 0.53113 0.0
C974 C 0.33383 0.22336 0.49473 0.0
C975 C 0.32207 0.24216 0.50542 0.0
C976 C 0.32574 0.2494 0.5289 0.0
H977 H 0.20453 0.28371 0.46789 0.0
H978 H 0.23398 0.26535 0.48529 0.0
C979 C 0.34076 0.23772 0.54162 0.0
C980 C 0.30509 0.2527 0.49258 0.0
H981 H 0.28351 0.30877 0.47492 0.0
C982 C 0.29092 0.23536 0.48445 0.0
C983 C 0.30264 0.27945 0.4886 0.0
C984 C 0.31786 0.29888 0.49575 0.0
C985 C 0.27413 0.24408 0.47292 0.0
C986 C 0.27127 0.2709 0.4699 0.0
C987 C 0.28565 0.28822 0.4775 0.0
C988 C 0.25338 0.28143 0.45903 0.0
C989 C 0.25973 0.22447 0.4639 0.0
C990 C 0.25457 0.29692 0.43877 0.0
C991 C 0.2378 0.3076 0.42891 0.0
C992 C 0.21955 0.30302 0.43922 0.0
C993 C 0.21837 0.28739 0.45945 0.0
C994 C 0.23517 0.2768 0.46935 0.0
H995 H 0.26655 0.2052 0.4615 0.0
H996 H 0.24778 0.22237 0.47691 0.0
H997 H 0.25335 0.23065 0.4468 0.0
H998 H 0.2685 0.30081 0.4306 0.0
H999 H 0.23916 0.31964 0.41335 0.0
H1000 H 0.76115 0.31203 0.08 0.0
H1001 H 0.73207 0.2939 0.06143 0.0
H1002 H 0.76782 0.25566 0.00956 0.0
H1003 H 0.79697 0.27377 0.02795 0.0
H1004 H 0.73559 0.2848 0.99092 0.0
H1005 H 0.71392 0.21727 0.06265 0.0
H1006 H 0.71848 0.25007 0.07145 0.0
H1007 H 0.73808 0.23062 0.06047 0.0
C1008 C 0.76282 0.29958 0.06476 0.0
C1009 C 0.78133 0.29423 0.05545 0.0
C1010 C 0.74621 0.2892 0.05423 0.0
C1011 C 0.74785 0.27331 0.03427 0.0
C1012 C 0.7663 0.26785 0.02501 0.0
H1013 H 0.66749 0.17208 0.96538 0.0
H1014 H 0.69427 0.1928 0.98636 0.0
C1015 C 0.78292 0.27813 0.03556 0.0
C1016 C 0.73032 0.2629 0.02259 0.0
H1017 H 0.6926 0.22099 0.03012 0.0
C1018 C 0.72612 0.27092 -0.00053 0.0
C1019 C 0.71814 0.24472 0.03384 0.0
C1020 C 0.72237 0.23494 0.05841 0.0
C1021 C 0.71003 0.26111 0.98721 0.0
C1022 C 0.6978 0.243 0.99849 0.0
C1023 C 0.70196 0.23506 0.02164 0.0
C1024 C 0.68131 0.23083 0.98603 0.0
C1025 C 0.70652 0.26961 0.96207 0.0
C1026 C 0.66508 0.24539 0.97909 0.0
C1027 C 0.6497 0.23358 0.96708 0.0
C1028 C 0.65036 0.20706 0.96189 0.0
C1029 C 0.66658 0.19257 0.96907 0.0
C1030 C 0.68187 0.20434 0.98109 0.0
H1031 H 0.71922 0.28 0.95458 0.0
H1032 H 0.7032 0.25273 0.95067 0.0
H1033 H 0.69381 0.28277 0.96158 0.0
H1034 H 0.66431 0.26582 0.98302 0.0
H1035 H 0.63734 0.24518 0.96184 0.0
H1036 H 0.23791 0.68845 0.58726 0.0
H1037 H 0.26791 0.70583 0.57028 0.0
H1038 H 0.23455 0.74496 0.51662 0.0
H1039 H 0.20455 0.7281 0.53374 0.0
H1040 H 0.2822 0.69758 0.52572 0.0
H1041 H 0.26987 0.80203 0.54006 0.0
H1042 H 0.25571 0.77754 0.55481 0.0
H1043 H 0.25001 0.78686 0.52497 0.0
C1044 C 0.23697 0.70106 0.57203 0.0
C1045 C 0.21889 0.70704 0.56188 0.0
C1046 C 0.25411 0.7109 0.56234 0.0
C1047 C 0.25343 0.72697 0.5424 0.0
C1048 C 0.23538 0.73309 0.53234 0.0
H1049 H 0.32899 0.79221 0.43951 0.0
H1050 H 0.30268 0.77359 0.46289 0.0
C1051 C 0.21825 0.72335 0.54207 0.0
C1052 C 0.27161 0.73625 0.53129 0.0
H1053 H 0.29447 0.79071 0.51191 0.0
C1054 C 0.28504 0.71795 0.52299 0.0
C1055 C 0.27531 0.76284 0.52786 0.0
C1056 C 0.26206 0.78345 0.53761 0.0
C1057 C 0.30167 0.72553 0.5104 0.0
C1058 C 0.3049 0.75204 0.50618 0.0
C1059 C 0.29181 0.77036 0.51508 0.0
C1060 C 0.32125 0.76124 0.49153 0.0
C1061 C 0.31529 0.70522 0.50092 0.0
C1062 C 0.34042 0.76012 0.49986 0.0
C1063 C 0.35554 0.7708 0.48653 0.0
C1064 C 0.35163 0.78275 0.46474 0.0
C1065 C 0.33246 0.78313 0.45622 0.0
C1066 C 0.31741 0.77256 0.46955 0.0
H1067 H 0.30938 0.6854 0.50309 0.0
H1068 H 0.31825 0.70867 0.4819 0.0
H1069 H 0.32934 0.70638 0.51046 0.0
H1070 H 0.34359 0.75165 0.51692 0.0
H1071 H 0.37016 0.77034 0.49356 0.0
H1072 H 0.13107 0.57987 0.93876 0.0
H1073 H 0.12955 0.53841 0.95932 0.0
H1074 H 0.08878 0.57043 0.00925 0.0
H1075 H 0.09067 0.6122 0.98915 0.0
H1076 H 0.11624 0.54153 0.03092 0.0
H1077 H 0.08532 0.48742 0.95537 0.0
H1078 H 0.10772 0.50322 0.94809 0.0
H1079 H 0.08674 0.52219 0.9558 0.0
C1080 C 0.1218 0.57807 0.95413 0.0
C1081 C 0.11089 0.59918 0.96229 0.0
C1082 C 0.12084 0.55434 0.96576 0.0
C1083 C 0.10873 0.55119 0.98549 0.0
C1084 C 0.09812 0.57241 0.99395 0.0
H1085 H 0.07711 0.39983 0.03993 0.0
H1086 H 0.07647 0.44354 0.02358 0.0
C1087 C 0.0992 0.59623 0.98246 0.0
C1088 C 0.10726 0.52583 0.99743 0.0
H1089 H 0.0971 0.46228 0.98762 0.0
C1090 C 0.11193 0.52421 0.02152 0.0
C1091 C 0.10129 0.50336 0.98522 0.0
C1092 C 0.09478 0.50412 0.95976 0.0
C1093 C 0.11126 0.50058 0.03361 0.0
C1094 C 0.10626 0.4779 0.02108 0.0
C1095 C 0.10113 0.47964 0.99714 0.0
C1096 C 0.1064 0.45206 0.03231 0.0
C1097 C 0.11567 0.50024 0.05972 0.0
C1098 C 0.12344 0.44233 0.04261 0.0
C1099 C 0.12378 0.41748 0.05217 0.0
C1100 C 0.10717 0.40178 0.05122 0.0
C1101 C 0.09013 0.41152 0.0409 0.0
C1102 C 0.08975 0.43646 0.03155 0.0
H1103 H 0.11318 0.51947 0.06788 0.0
H1104 H 0.1066 0.48578 0.06911 0.0
H1105 H 0.13117 0.49515 0.06237 0.0
H1106 H 0.13661 0.45375 0.04282 0.0
H1107 H 0.13716 0.41038 0.05984 0.0
H1108 H 0.89563 0.57706 0.57606 0.0
H1109 H 0.89649 0.53435 0.55752 0.0
H1110 H 0.87761 0.56771 0.49161 0.0
H1111 H 0.87694 0.6105 0.5099 0.0
H1112 H 0.86656 0.5066 0.5349 0.0
H1113 H 0.92728 0.52842 0.47352 0.0
H1114 H 0.92151 0.54862 0.49855 0.0
H1115 H 0.90738 0.55078 0.47191 0.0
C1116 C 0.89164 0.57528 0.55762 0.0
C1117 C 0.88633 0.59711 0.54437 0.0
C1118 C 0.89214 0.55089 0.54709 0.0
C1119 C 0.88744 0.54799 0.52312 0.0
C1120 C 0.88168 0.56966 0.51 0.0
H1121 H 0.8807 0.42163 0.42432 0.0
H1122 H 0.88013 0.46327 0.44468 0.0
C1123 C 0.88119 0.59404 0.52051 0.0
C1124 C 0.88845 0.52227 0.51185 0.0
H1125 H 0.91074 0.48875 0.46758 0.0
C1126 C 0.87629 0.5026 0.52027 0.0
C1127 C 0.90121 0.51719 0.49282 0.0
C1128 C 0.91523 0.53727 0.48376 0.0
C1129 C 0.87615 0.47808 0.50972 0.0
C1130 C 0.88876 0.47309 0.49052 0.0
C1131 C 0.90106 0.4927 0.48226 0.0
C1132 C 0.88918 0.44778 0.47843 0.0
C1133 C 0.86216 0.45797 0.51877 0.0
C1134 C 0.89473 0.42538 0.49061 0.0
C1135 C 0.89504 0.40155 0.47904 0.0
C1136 C 0.88994 0.39982 0.45505 0.0
C1137 C 0.88467 0.42236 0.44282 0.0
C1138 C 0.88434 0.44615 0.45441 0.0
H1139 H 0.85041 0.46667 0.52962 0.0
H1140 H 0.85546 0.44715 0.50392 0.0
H1141 H 0.87014 0.44399 0.53 0.0
H1142 H 0.89889 0.42634 0.50904 0.0
H1143 H 0.89926 0.38451 0.48886 0.0
H1144 H 0.82759 0.38564 0.01294 0.0
H1145 H 0.82563 0.42734 0.99271 0.0
H1146 H 0.81804 0.46571 0.05967 0.0
H1147 H 0.82003 0.42408 0.08009 0.0
H1148 H 0.79449 0.46595 0.99503 0.0
H1149 H 0.86579 0.50157 0.02783 0.0
H1150 H 0.85922 0.46783 0.02835 0.0
H1151 H 0.84926 0.4896 0.04985 0.0
C1152 C 0.82546 0.40295 0.02335 0.0
C1153 C 0.82407 0.40165 0.0481 0.0
C1154 C 0.82431 0.42671 0.01177 0.0
C1155 C 0.8219 0.44954 0.02475 0.0
C1156 C 0.82015 0.44828 0.04941 0.0
H1157 H 0.82371 0.61115 0.98432 0.0
H1158 H 0.82144 0.57031 0.00583 0.0
C1159 C 0.82122 0.42451 0.06102 0.0
C1160 C 0.82148 0.47469 0.01244 0.0
H1161 H 0.84711 0.53043 0.00502 0.0
C1162 C 0.80596 0.4801 0.99718 0.0
C1163 C 0.83647 0.49302 0.01538 0.0
C1164 C 0.85374 0.48777 0.03109 0.0
C1165 C 0.80493 0.50361 0.9849 0.0
C1166 C 0.82007 0.52184 0.9876 0.0
C1167 C 0.83552 0.51643 0.003 0.0
C1168 C 0.82038 0.54654 0.97442 0.0
C1169 C 0.78747 0.50887 0.96953 0.0
C1170 C 0.8206 0.54671 0.94961 0.0
C1171 C 0.82179 0.57003 0.93728 0.0
C1172 C 0.82302 0.59354 0.94956 0.0
C1173 C 0.82278 0.59333 0.97438 0.0
C1174 C 0.82148 0.57003 0.98669 0.0
H1175 H 0.77487 0.49674 0.97471 0.0
H1176 H 0.78312 0.52948 0.97046 0.0
H1177 H 0.79113 0.50425 0.95091 0.0
H1178 H 0.82025 0.52878 0.93979 0.0
H1179 H 0.82208 0.5696 0.91815 0.0
H1180 H 0.17974 0.43364 0.41649 0.0
H1181 H 0.18184 0.47496 0.43742 0.0
H1182 H 0.17707 0.43522 0.50411 0.0
H1183 H 0.17505 0.39388 0.48338 0.0
H1184 H 0.15306 0.49484 0.46894 0.0
H1185 H 0.22464 0.48309 0.51289 0.0
H1186 H 0.21725 0.46366 0.48796 0.0
H1187 H 0.20807 0.45666 0.51697 0.0
C1188 C 0.17931 0.4337 0.43562 0.0
C1189 C 0.17725 0.41056 0.44832 0.0
C1190 C 0.18051 0.45729 0.44752 0.0
C1191 C 0.17985 0.45806 0.47228 0.0
C1192 C 0.17796 0.43497 0.485 0.0
H1193 H 0.17584 0.57707 0.57926 0.0
H1194 H 0.17772 0.53659 0.55701 0.0
C1195 C 0.17669 0.4114 0.47313 0.0
C1196 C 0.18006 0.48311 0.48481 0.0
H1197 H 0.20533 0.51866 0.52519 0.0
C1198 C 0.16455 0.50019 0.4811 0.0
C1199 C 0.19502 0.48984 0.50075 0.0
C1200 C 0.21229 0.47248 0.5048 0.0
C1201 C 0.16335 0.52366 0.49336 0.0
C1202 C 0.17832 0.53044 0.50933 0.0
C1203 C 0.1939 0.5134 0.51292 0.0
C1204 C 0.17791 0.555 0.52269 0.0
C1205 C 0.14578 0.54061 0.48961 0.0
C1206 C 0.17779 0.57874 0.51077 0.0
C1207 C 0.1766 0.60184 0.5234 0.0
C1208 C 0.17573 0.60159 0.5482 0.0
C1209 C 0.17644 0.57784 0.56015 0.0
C1210 C 0.17753 0.55472 0.54748 0.0
H1211 H 0.13346 0.52967 0.48186 0.0
H1212 H 0.14092 0.54942 0.50649 0.0
H1213 H 0.14958 0.55641 0.47721 0.0
H1214 H 0.17853 0.57939 0.49166 0.0
H1215 H 0.17625 0.61987 0.51373 0.0
H1216 H 0.59587 0.07665 0.9272 0.0
H1217 H 0.59476 0.03463 0.9469 0.0
H1218 H 0.6019 0.07198 0.01446 0.0
H1219 H 0.60256 0.11409 0.99493 0.0
H1220 H 0.6232 0.01246 0.97337 0.0
H1221 H 0.55652 0.02433 0.02738 0.0
H1222 H 0.56266 0.04596 0.00353 0.0
H1223 H 0.57414 0.04935 0.0319 0.0
C1224 C 0.59698 0.07592 0.94628 0.0
C1225 C 0.59922 0.09863 0.95955 0.0
C1226 C 0.59636 0.05192 0.9575 0.0
C1227 C 0.59797 0.05021 0.98217 0.0
C1228 C 0.60016 0.07288 0.99547 0.0
H1229 H 0.6124 0.91959 0.07742 0.0
H1230 H 0.61086 0.96288 0.05989 0.0
C1231 C 0.60065 0.09691 0.98427 0.0
C1232 C 0.59841 0.02459 0.99379 0.0
H1233 H 0.576 0.98741 0.03553 0.0
C1234 C 0.61281 0.00695 0.98687 0.0
C1235 C 0.58488 0.01749 0.01147 0.0
C1236 C 0.56856 0.03517 0.01888 0.0
C1237 C 0.61414 0.98246 0.99728 0.0
C1238 C 0.60066 0.97542 0.01493 0.0
C1239 C 0.58634 0.99303 0.02202 0.0
C1240 C 0.60096 0.9495 0.02577 0.0
C1241 C 0.63006 0.96432 0.98952 0.0
C1242 C 0.59562 0.92786 0.01241 0.0
C1243 C 0.59638 0.90323 0.02235 0.0
C1244 C 0.60256 0.89985 0.04582 0.0
C1245 C 0.60764 0.92163 0.05928 0.0
C1246 C 0.60675 0.94632 0.04933 0.0
H1247 H 0.64142 0.97436 0.97901 0.0
H1248 H 0.63701 0.95507 0.00506 0.0
H1249 H 0.62372 0.94881 0.97842 0.0
H1250 H 0.59096 0.93004 0.99424 0.0
H1251 H 0.59235 0.88682 0.01157 0.0
H1252 H 0.40204 0.91958 0.43253 0.0
H1253 H 0.40068 0.9618 0.45179 0.0
H1254 H 0.37482 0.92696 0.51344 0.0
H1255 H 0.37648 0.88454 0.49446 0.0
H1256 H 0.36874 0.98863 0.46846 0.0
H1257 H 0.42038 0.967 0.54126 0.0
H1258 H 0.41792 0.9465 0.51565 0.0
H1259 H 0.4003 0.94502 0.53905 0.0
C1260 C 0.39611 0.9209 0.45021 0.0
C1261 C 0.38947 0.89877 0.46206 0.0
C1262 C 0.39533 0.94502 0.46117 0.0
C1263 C 0.38793 0.94742 0.48416 0.0
C1264 C 0.38098 0.92542 0.49589 0.0
H1265 H 0.37332 0.08236 0.57469 0.0
H1266 H 0.37205 0.0388 0.55779 0.0
C1267 C 0.38183 0.90125 0.48498 0.0
C1268 C 0.38726 0.97307 0.49561 0.0
H1269 H 0.40452 0.00752 0.54256 0.0
C1270 C 0.37657 0.99278 0.48466 0.0
C1271 C 0.39746 0.97836 0.51677 0.0
C1272 C 0.40981 0.9582 0.52881 0.0
C1273 C 0.37577 0.01768 0.49431 0.0
C1274 C 0.38613 0.02302 0.51529 0.0
C1275 C 0.39658 0.00325 0.52648 0.0
C1276 C 0.38684 0.04926 0.52546 0.0
C1277 C 0.36376 0.03805 0.48208 0.0
C1278 C 0.39582 0.06935 0.51297 0.0
C1279 C 0.39663 0.09414 0.52256 0.0
C1280 C 0.38849 0.09922 0.54485 0.0
C1281 C 0.37966 0.079 0.55744 0.0
C1282 C 0.37893 0.05416 0.54785 0.0
H1283 H 0.35302 0.02941 0.46975 0.0
H1284 H 0.3559 0.05017 0.49515 0.0
H1285 H 0.37349 0.05081 0.4717 0.0
H1286 H 0.4023 0.0658 0.49583 0.0
H1287 H 0.40359 0.10932 0.5125 0.0
H1288 H 0.2946 0.9139 0.07095 0.0
H1289 H 0.28963 0.95322 0.0476 0.0
H1290 H 0.34162 0.93648 0.00782 0.0
H1291 H 0.34608 0.89672 0.03027 0.0
H1292 H 0.31035 0.99484 0.04355 0.0
H1293 H 0.30539 0.95104 0.95494 0.0
H1294 H 0.30472 0.9319 0.98154 0.0
H1295 H 0.32763 0.94174 0.96896 0.0
C1296 C 0.30484 0.91856 0.05706 0.0
C1297 C 0.32062 0.90221 0.05225 0.0
C1298 C 0.302 0.94099 0.04374 0.0
C1299 C 0.31499 0.94753 0.02555 0.0
C1300 C 0.331 0.93142 0.02114 0.0
H1301 H 0.34143 0.0981 0.97226 0.0
H1302 H 0.33794 0.05811 0.99462 0.0
C1303 C 0.33364 0.90881 0.03414 0.0
C1304 C 0.31248 0.9718 0.01195 0.0
H1305 H 0.31347 0.99636 0.95603 0.0
C1306 C 0.31074 0.99513 0.0244 0.0
C1307 C 0.3125 0.97222 0.98693 0.0
C1308 C 0.31243 0.94783 0.97236 0.0
C1309 C 0.30997 0.0189 0.01257 0.0
C1310 C 0.31172 0.01943 0.98765 0.0
C1311 C 0.3125 0.99604 0.97516 0.0
C1312 C 0.31353 0.04394 0.97425 0.0
C1313 C 0.30719 0.04314 0.02698 0.0
C1314 C 0.3015 0.04889 0.95472 0.0
C1315 C 0.30383 0.07149 0.9415 0.0
C1316 C 0.31812 0.08959 0.94773 0.0
C1317 C 0.33014 0.08462 0.96724 0.0
C1318 C 0.32803 0.06187 0.98018 0.0
H1319 H 0.29919 0.03903 0.04361 0.0
H1320 H 0.32161 0.05103 0.03192 0.0
H1321 H 0.29911 0.0581 0.01695 0.0
H1322 H 0.29032 0.03526 0.94968 0.0
H1323 H 0.29437 0.07487 0.92652 0.0
H1324 H 0.67402 0.11459 0.51808 0.0
H1325 H 0.67528 0.07431 0.49561 0.0
H1326 H 0.67824 0.03098 0.56058 0.0
H1327 H 0.67744 0.07128 0.58319 0.0
H1328 H 0.70422 0.01367 0.52732 0.0
H1329 H 0.63084 0.02366 0.4879 0.0
H1330 H 0.64636 0.05079 0.48226 0.0
H1331 H 0.63905 0.0436 0.51205 0.0
C1332 C 0.67493 0.09648 0.52758 0.0
C1333 C 0.6755 0.09604 0.55239 0.0
C1334 C 0.67553 0.07348 0.51472 0.0
C1335 C 0.67645 0.04964 0.52644 0.0
C1336 C 0.6774 0.04918 0.55121 0.0
H1337 H 0.67453 0.8894 0.48143 0.0
H1338 H 0.67546 0.9296 0.50419 0.0
C1339 C 0.67692 0.07219 0.56409 0.0
C1340 C 0.67661 0.02519 0.51287 0.0
H1341 H 0.65073 0.99001 0.47274 0.0
C1342 C 0.69249 0.00842 0.51548 0.0
C1343 C 0.66124 0.01838 0.49747 0.0
C1344 C 0.64332 0.03492 0.49488 0.0
C1345 C 0.69357 0.9852 0.50276 0.0
C1346 C 0.67832 0.97859 0.48721 0.0
C1347 C 0.66244 0.99529 0.48461 0.0
C1348 C 0.67845 0.95427 0.47356 0.0
C1349 C 0.71114 0.96811 0.50569 0.0
C1350 C 0.67961 0.95494 0.44884 0.0
C1351 C 0.6791 0.93205 0.43581 0.0
C1352 C 0.67721 0.90814 0.44731 0.0
C1353 C 0.67603 0.90754 0.4721 0.0
C1354 C 0.67666 0.93044 0.48512 0.0
H1355 H 0.7233 0.97834 0.51456 0.0
H1356 H 0.70717 0.95112 0.51662 0.0
H1357 H 0.71625 0.96091 0.48828 0.0
H1358 H 0.68089 0.9732 0.43964 0.0
H1359 H 0.67999 0.9331 0.41673 0.0
loop_
_geom_bond_atom_site_label_1
_geom_bond_atom_site_label_2
_geom_bond_distance
_geom_bond_site_symmetry_2
_ccdc_geom_bond_type
In0 O1 2.294 . S
In0 O2 2.326 . S
In0 O6 2.266 . S
In0 O7 2.326 . S
In0 O8 2.266 . S
In0 O9 2.326 . S
In0 O11 2.294 . S
In0 O12 2.326 . S
O1 In0 2.294 . S
O1 C10 1.240 . S
O2 In0 2.326 . S
O2 C10 1.252 . S
C3 O6 1.252 . S
C3 O7 1.260 . S
C4 O11 1.240 . S
C4 O12 1.252 . S
C5 O8 1.252 . S
C5 O9 1.260 . S
O6 In0 2.266 . S
O6 C3 1.252 . S
O7 In0 2.326 . S
O7 C3 1.260 . S
O8 In0 2.266 . S
O8 C5 1.252 . S
O9 In0 2.326 . S
O9 C5 1.260 . S
C10 O1 1.240 . S
C10 O2 1.252 . S
O11 In0 2.294 . S
O11 C4 1.240 . S
O12 In0 2.326 . S
O12 C4 1.252 . S
In13 O14 2.294 . S
In13 O15 2.326 . S
In13 O19 2.266 . S
In13 O20 2.326 . S
In13 O21 2.266 . S
In13 O22 2.326 . S
In13 O24 2.294 . S
In13 O25 2.326 . S
O14 In13 2.294 . S
O14 C23 1.240 . S
O15 In13 2.326 . S
O15 C23 1.252 . S
C16 O19 1.252 . S
C16 O20 1.260 . S
C17 O24 1.240 . S
C17 O25 1.252 . S
C18 O21 1.252 . S
C18 O22 1.260 . S
O19 In13 2.266 . S
O19 C16 1.252 . S
O20 In13 2.326 . S
O20 C16 1.260 . S
O21 In13 2.266 . S
O21 C18 1.252 . S
O22 In13 2.326 . S
O22 C18 1.260 . S
C23 O14 1.240 . S
C23 O15 1.252 . S
O24 In13 2.294 . S
O24 C17 1.240 . S
O25 In13 2.326 . S
O25 C17 1.252 . S
In26 O27 2.294 . S
In26 O28 2.326 . S
In26 O32 2.266 . S
In26 O33 2.326 . S
In26 O34 2.266 . S
In26 O35 2.326 . S
In26 O37 2.294 . S
In26 O38 2.326 . S
O27 In26 2.294 . S
O27 C36 1.240 . S
O28 In26 2.326 . S
O28 C36 1.252 . S
C29 O32 1.252 . S
C29 O33 1.260 . S
C30 O37 1.240 . S
C30 O38 1.252 . S
C31 O34 1.252 . S
C31 O35 1.260 . S
O32 In26 2.266 . S
O32 C29 1.252 . S
O33 In26 2.326 . S
O33 C29 1.260 . S
O34 In26 2.266 . S
O34 C31 1.252 . S
O35 In26 2.326 . S
O35 C31 1.260 . S
C36 O27 1.240 . S
C36 O28 1.252 . S
O37 In26 2.294 . S
O37 C30 1.240 . S
O38 In26 2.326 . S
O38 C30 1.252 . S
In39 O40 2.294 . S
In39 O41 2.326 . S
In39 O45 2.266 . S
In39 O46 2.326 . S
In39 O47 2.266 . S
In39 O48 2.326 . S
In39 O50 2.294 . S
In39 O51 2.326 . S
O40 In39 2.294 . S
O40 C49 1.240 . S
O41 In39 2.326 . S
O41 C49 1.252 . S
C42 O45 1.252 . S
C42 O46 1.260 . S
C43 O50 1.240 . S
C43 O51 1.252 . S
C44 O47 1.252 . S
C44 O48 1.260 . S
O45 In39 2.266 . S
O45 C42 1.252 . S
O46 In39 2.326 . S
O46 C42 1.260 . S
O47 In39 2.266 . S
O47 C44 1.252 . S
O48 In39 2.326 . S
O48 C44 1.260 . S
C49 O40 1.240 . S
C49 O41 1.252 . S
O50 In39 2.294 . S
O50 C43 1.240 . S
O51 In39 2.326 . S
O51 C43 1.252 . S
In52 O53 2.294 . S
In52 O54 2.326 . S
In52 O58 2.266 . S
In52 O59 2.326 . S
In52 O60 2.266 . S
In52 O61 2.326 . S
In52 O63 2.294 . S
In52 O64 2.326 . S
O53 In52 2.294 . S
O53 C62 1.240 . S
O54 In52 2.326 . S
O54 C62 1.252 . S
C55 O58 1.252 . S
C55 O59 1.260 . S
C56 O63 1.240 . S
C56 O64 1.252 . S
C57 O60 1.252 . S
C57 O61 1.260 . S
O58 In52 2.266 . S
O58 C55 1.252 . S
O59 In52 2.326 . S
O59 C55 1.260 . S
O60 In52 2.266 . S
O60 C57 1.252 . S
O61 In52 2.326 . S
O61 C57 1.260 . S
C62 O53 1.240 . S
C62 O54 1.252 . S
O63 In52 2.294 . S
O63 C56 1.240 . S
O64 In52 2.326 . S
O64 C56 1.252 . S
In65 O66 2.294 . S
In65 O67 2.326 . S
In65 O71 2.266 . S
In65 O72 2.326 . S
In65 O73 2.266 . S
In65 O74 2.326 . S
In65 O76 2.294 . S
In65 O77 2.326 . S
O66 In65 2.294 . S
O66 C75 1.240 . S
O67 In65 2.326 . S
O67 C75 1.252 . S
C68 O71 1.252 . S
C68 O72 1.260 . S
C69 O76 1.240 . S
C69 O77 1.252 . S
C70 O73 1.252 . S
C70 O74 1.260 . S
O71 In65 2.266 . S
O71 C68 1.252 . S
O72 In65 2.326 . S
O72 C68 1.260 . S
O73 In65 2.266 . S
O73 C70 1.252 . S
O74 In65 2.326 . S
O74 C70 1.260 . S
C75 O66 1.240 . S
C75 O67 1.252 . S
O76 In65 2.294 . S
O76 C69 1.240 . S
O77 In65 2.326 . S
O77 C69 1.252 . S
In78 O79 2.294 . S
In78 O80 2.326 . S
In78 O84 2.266 . S
In78 O85 2.326 . S
In78 O86 2.266 . S
In78 O87 2.326 . S
In78 O89 2.294 . S
In78 O90 2.326 . S
O79 In78 2.294 . S
O79 C88 1.240 . S
O80 In78 2.326 . S
O80 C88 1.252 . S
C81 O84 1.252 . S
C81 O85 1.260 . S
C82 O89 1.240 . S
C82 O90 1.252 . S
C83 O86 1.252 . S
C83 O87 1.260 . S
O84 In78 2.266 . S
O84 C81 1.252 . S
O85 In78 2.326 . S
O85 C81 1.260 . S
O86 In78 2.266 . S
O86 C83 1.252 . S
O87 In78 2.326 . S
O87 C83 1.260 . S
C88 O79 1.240 . S
C88 O80 1.252 . S
O89 In78 2.294 . S
O89 C82 1.240 . S
O90 In78 2.326 . S
O90 C82 1.252 . S
In91 O92 2.294 . S
In91 O93 2.326 . S
In91 O97 2.266 . S
In91 O98 2.326 . S
In91 O99 2.266 . S
In91 O100 2.326 . S
In91 O102 2.294 . S
In91 O103 2.326 . S
O92 In91 2.294 . S
O92 C101 1.240 . S
O93 In91 2.326 . S
O93 C101 1.252 . S
C94 O97 1.252 . S
C94 O98 1.260 . S
C95 O102 1.240 . S
C95 O103 1.252 . S
C96 O99 1.252 . S
C96 O100 1.260 . S
O97 In91 2.266 . S
O97 C94 1.252 . S
O98 In91 2.326 . S
O98 C94 1.260 . S
O99 In91 2.266 . S
O99 C96 1.252 . S
O100 In91 2.326 . S
O100 C96 1.260 . S
C101 O92 1.240 . S
C101 O93 1.252 . S
O102 In91 2.294 . S
O102 C95 1.240 . S
O103 In91 2.326 . S
O103 C95 1.252 . S
In104 O105 2.294 . S
In104 O106 2.326 . S
In104 O110 2.266 . S
In104 O111 2.326 . S
In104 O112 2.266 . S
In104 O113 2.326 . S
In104 O115 2.294 . S
In104 O116 2.326 . S
O105 In104 2.294 . S
O105 C114 1.240 . S
O106 In104 2.326 . S
O106 C114 1.252 . S
C107 O110 1.252 . S
C107 O111 1.260 . S
C108 O115 1.240 . S
C108 O116 1.252 . S
C109 O112 1.252 . S
C109 O113 1.260 . S
O110 In104 2.266 . S
O110 C107 1.252 . S
O111 In104 2.326 . S
O111 C107 1.260 . S
O112 In104 2.266 . S
O112 C109 1.252 . S
O113 In104 2.326 . S
O113 C109 1.260 . S
C114 O105 1.240 . S
C114 O106 1.252 . S
O115 In104 2.294 . S
O115 C108 1.240 . S
O116 In104 2.326 . S
O116 C108 1.252 . S
In117 O118 2.294 . S
In117 O119 2.326 . S
In117 O123 2.266 . S
In117 O124 2.326 . S
In117 O125 2.266 . S
In117 O126 2.326 . S
In117 O128 2.294 . S
In117 O129 2.326 . S
O118 In117 2.294 . S
O118 C127 1.240 . S
O119 In117 2.326 . S
O119 C127 1.252 . S
C120 O123 1.252 . S
C120 O124 1.260 . S
C121 O128 1.240 . S
C121 O129 1.252 . S
C122 O125 1.252 . S
C122 O126 1.260 . S
O123 In117 2.266 . S
O123 C120 1.252 . S
O124 In117 2.326 . S
O124 C120 1.260 . S
O125 In117 2.266 . S
O125 C122 1.252 . S
O126 In117 2.326 . S
O126 C122 1.260 . S
C127 O118 1.240 . S
C127 O119 1.252 . S
O128 In117 2.294 . S
O128 C121 1.240 . S
O129 In117 2.326 . S
O129 C121 1.252 . S
In130 O131 2.294 . S
In130 O132 2.326 . S
In130 O136 2.266 . S
In130 O137 2.326 . S
In130 O138 2.266 . S
In130 O139 2.326 . S
In130 O141 2.294 . S
In130 O142 2.326 . S
O131 In130 2.294 . S
O131 C140 1.240 . S
O132 In130 2.326 . S
O132 C140 1.252 . S
C133 O136 1.252 . S
C133 O137 1.260 . S
C134 O141 1.240 . S
C134 O142 1.252 . S
C135 O138 1.252 . S
C135 O139 1.260 . S
O136 In130 2.266 . S
O136 C133 1.252 . S
O137 In130 2.326 . S
O137 C133 1.260 . S
O138 In130 2.266 . S
O138 C135 1.252 . S
O139 In130 2.326 . S
O139 C135 1.260 . S
C140 O131 1.240 . S
C140 O132 1.252 . S
O141 In130 2.294 . S
O141 C134 1.240 . S
O142 In130 2.326 . S
O142 C134 1.252 . S
In143 O144 2.294 . S
In143 O145 2.326 . S
In143 O149 2.266 . S
In143 O150 2.326 . S
In143 O151 2.266 . S
In143 O152 2.326 . S
In143 O154 2.294 . S
In143 O155 2.326 . S
O144 In143 2.294 . S
O144 C153 1.240 . S
O145 In143 2.326 . S
O145 C153 1.252 . S
C146 O149 1.252 . S
C146 O150 1.260 . S
C147 O154 1.240 . S
C147 O155 1.252 . S
C148 O151 1.252 . S
C148 O152 1.260 . S
O149 In143 2.266 . S
O149 C146 1.252 . S
O150 In143 2.326 . S
O150 C146 1.260 . S
O151 In143 2.266 . S
O151 C148 1.252 . S
O152 In143 2.326 . S
O152 C148 1.260 . S
C153 O144 1.240 . S
C153 O145 1.252 . S
O154 In143 2.294 . S
O154 C147 1.240 . S
O155 In143 2.326 . S
O155 C147 1.252 . S
In156 O157 2.294 . S
In156 O158 2.326 . S
In156 O162 2.266 . S
In156 O163 2.326 . S
In156 O164 2.266 . S
In156 O165 2.326 . S
In156 O167 2.294 . S
In156 O168 2.326 . S
O157 In156 2.294 . S
O157 C166 1.240 . S
O158 In156 2.326 . S
O158 C166 1.252 . S
C159 O162 1.252 . S
C159 O163 1.260 . S
C160 O167 1.240 . S
C160 O168 1.252 . S
C161 O164 1.252 . S
C161 O165 1.260 . S
O162 In156 2.266 . S
O162 C159 1.252 . S
O163 In156 2.326 . S
O163 C159 1.260 . S
O164 In156 2.266 . S
O164 C161 1.252 . S
O165 In156 2.326 . S
O165 C161 1.260 . S
C166 O157 1.240 . S
C166 O158 1.252 . S
O167 In156 2.294 . S
O167 C160 1.240 . S
O168 In156 2.326 . S
O168 C160 1.252 . S
In169 O170 2.294 . S
In169 O171 2.326 . S
In169 O175 2.266 . S
In169 O176 2.326 . S
In169 O177 2.266 . S
In169 O178 2.326 . S
In169 O180 2.294 . S
In169 O181 2.326 . S
O170 In169 2.294 . S
O170 C179 1.240 . S
O171 In169 2.326 . S
O171 C179 1.252 . S
C172 O175 1.252 . S
C172 O176 1.260 . S
C173 O180 1.240 . S
C173 O181 1.252 . S
C174 O177 1.252 . S
C174 O178 1.260 . S
O175 In169 2.266 . S
O175 C172 1.252 . S
O176 In169 2.326 . S
O176 C172 1.260 . S
O177 In169 2.266 . S
O177 C174 1.252 . S
O178 In169 2.326 . S
O178 C174 1.260 . S
C179 O170 1.240 . S
C179 O171 1.252 . S
O180 In169 2.294 . S
O180 C173 1.240 . S
O181 In169 2.326 . S
O181 C173 1.252 . S
In182 O183 2.294 . S
In182 O184 2.326 . S
In182 O188 2.266 . S
In182 O189 2.326 . S
In182 O190 2.266 . S
In182 O191 2.326 . S
In182 O193 2.294 . S
In182 O194 2.326 . S
O183 In182 2.294 . S
O183 C192 1.240 . S
O184 In182 2.326 . S
O184 C192 1.252 . S
C185 O188 1.252 . S
C185 O189 1.260 . S
C186 O193 1.240 . S
C186 O194 1.252 . S
C187 O190 1.252 . S
C187 O191 1.260 . S
O188 In182 2.266 . S
O188 C185 1.252 . S
O189 In182 2.326 . S
O189 C185 1.260 . S
O190 In182 2.266 . S
O190 C187 1.252 . S
O191 In182 2.326 . S
O191 C187 1.260 . S
C192 O183 1.240 . S
C192 O184 1.252 . S
O193 In182 2.294 . S
O193 C186 1.240 . S
O194 In182 2.326 . S
O194 C186 1.252 . S
In195 O196 2.294 . S
In195 O197 2.326 . S
In195 O201 2.266 . S
In195 O202 2.326 . S
In195 O203 2.266 . S
In195 O204 2.326 . S
In195 O206 2.294 . S
In195 O207 2.326 . S
O196 In195 2.294 . S
O196 C205 1.240 . S
O197 In195 2.326 . S
O197 C205 1.252 . S
C198 O201 1.252 . S
C198 O202 1.260 . S
C199 O206 1.240 . S
C199 O207 1.252 . S
C200 O203 1.252 . S
C200 O204 1.260 . S
O201 In195 2.266 . S
O201 C198 1.252 . S
O202 In195 2.326 . S
O202 C198 1.260 . S
O203 In195 2.266 . S
O203 C200 1.252 . S
O204 In195 2.326 . S
O204 C200 1.260 . S
C205 O196 1.240 . S
C205 O197 1.252 . S
O206 In195 2.294 . S
O206 C199 1.240 . S
O207 In195 2.326 . S
O207 C199 1.252 . S
H208 C216 0.929 . S
H209 C218 0.930 . S
H210 C220 0.930 . S
H211 C223 0.929 . S
H212 C226 0.930 . S
H213 C228 0.960 . S
H214 C228 0.960 . S
H215 C228 0.960 . S
C216 H208 0.929 . S
C216 C217 1.377 . S
C216 C218 1.384 . S
C217 C216 1.377 . S
C217 C223 1.390 . S
C218 H209 0.930 . S
C218 C216 1.384 . S
C218 C219 1.372 . S
C219 C218 1.372 . S
C219 C220 1.400 . S
C219 C224 1.490 1_455 S
C220 H210 0.930 . S
C220 C219 1.400 . S
C220 C223 1.386 . S
H221 C237 0.930 . S
H222 C238 0.931 . S
C223 H211 0.929 . S
C223 C217 1.390 . S
C223 C220 1.386 . S
C224 C219 1.490 1_655 S
C224 C226 1.395 . S
C224 C227 1.403 . S
H225 C231 0.930 . S
C226 H212 0.930 . S
C226 C224 1.395 . S
C226 C229 1.403 . S
C227 C224 1.403 . S
C227 C228 1.524 . S
C227 C231 1.400 . S
C228 H213 0.960 . S
C228 H214 0.960 . S
C228 H215 0.960 . S
C228 C227 1.524 . S
C229 C226 1.403 . S
C229 C230 1.392 . S
C229 C233 1.495 . S
C230 C229 1.392 . S
C230 C231 1.385 . S
C230 C232 1.478 . S
C231 H225 0.930 . S
C231 C227 1.400 . S
C231 C230 1.385 . S
C232 C230 1.478 . S
C232 C234 1.381 . S
C232 C238 1.383 . S
C233 C229 1.495 . S
C233 H239 0.959 . S
C233 H240 0.961 . S
C233 H241 0.960 . S
C234 C232 1.381 . S
C234 C235 1.394 . S
C234 H242 0.930 . S
C235 C234 1.394 . S
C235 C236 1.383 . S
C235 H243 0.929 . S
C236 C235 1.383 . S
C236 C237 1.377 . S
C237 H221 0.930 . S
C237 C236 1.377 . S
C237 C238 1.379 . S
C238 H222 0.931 . S
C238 C232 1.383 . S
C238 C237 1.379 . S
H239 C233 0.959 . S
H240 C233 0.961 . S
H241 C233 0.960 . S
H242 C234 0.930 . S
H243 C235 0.929 . S
H244 C252 0.929 . S
H245 C254 0.930 . S
H246 C256 0.930 . S
H247 C259 0.929 . S
H248 C262 0.930 . S
H249 C264 0.960 . S
H250 C264 0.960 . S
H251 C264 0.960 . S
C252 H244 0.929 . S
C252 C253 1.377 . S
C252 C254 1.384 . S
C253 C252 1.377 . S
C253 C259 1.390 . S
C254 H245 0.930 . S
C254 C252 1.384 . S
C254 C255 1.372 . S
C255 C254 1.372 . S
C255 C256 1.400 . S
C255 C260 1.490 1_655 S
C256 H246 0.930 . S
C256 C255 1.400 . S
C256 C259 1.386 . S
H257 C273 0.930 . S
H258 C274 0.931 . S
C259 H247 0.929 . S
C259 C253 1.390 . S
C259 C256 1.386 . S
C260 C255 1.490 1_455 S
C260 C262 1.395 . S
C260 C263 1.403 . S
H261 C267 0.930 . S
C262 H248 0.930 . S
C262 C260 1.395 . S
C262 C265 1.403 . S
C263 C260 1.403 . S
C263 C264 1.524 . S
C263 C267 1.400 . S
C264 H249 0.960 . S
C264 H250 0.960 . S
C264 H251 0.960 . S
C264 C263 1.524 . S
C265 C262 1.403 . S
C265 C266 1.392 . S
C265 C269 1.495 . S
C266 C265 1.392 . S
C266 C267 1.385 . S
C266 C268 1.478 . S
C267 H261 0.930 . S
C267 C263 1.400 . S
C267 C266 1.385 . S
C268 C266 1.478 . S
C268 C270 1.381 . S
C268 C274 1.383 . S
C269 C265 1.495 . S
C269 H275 0.959 . S
C269 H276 0.961 . S
C269 H277 0.960 . S
C270 C268 1.381 . S
C270 C271 1.394 . S
C270 H278 0.930 . S
C271 C270 1.394 . S
C271 C272 1.383 . S
C271 H279 0.929 . S
C272 C271 1.383 . S
C272 C273 1.377 . S
C273 H257 0.930 . S
C273 C272 1.377 . S
C273 C274 1.379 . S
C274 H258 0.931 . S
C274 C268 1.383 . S
C274 C273 1.379 . S
H275 C269 0.959 . S
H276 C269 0.961 . S
H277 C269 0.960 . S
H278 C270 0.930 . S
H279 C271 0.929 . S
H280 C288 0.929 . S
H281 C290 0.930 . S
H282 C292 0.930 . S
H283 C295 0.929 . S
H284 C298 0.930 . S
H285 C300 0.960 . S
H286 C300 0.960 . S
H287 C300 0.960 . S
C288 H280 0.929 . S
C288 C289 1.377 . S
C288 C290 1.384 . S
C289 C288 1.377 . S
C289 C295 1.390 . S
C290 H281 0.930 . S
C290 C288 1.384 . S
C290 C291 1.372 . S
C291 C290 1.372 . S
C291 C292 1.400 . S
C291 C296 1.490 . S
C292 H282 0.930 . S
C292 C291 1.400 . S
C292 C295 1.386 . S
H293 C309 0.930 . S
H294 C310 0.931 . S
C295 H283 0.929 . S
C295 C289 1.390 . S
C295 C292 1.386 . S
C296 C291 1.490 . S
C296 C298 1.395 . S
C296 C299 1.403 . S
H297 C303 0.930 . S
C298 H284 0.930 . S
C298 C296 1.395 . S
C298 C301 1.403 . S
C299 C296 1.403 . S
C299 C300 1.524 . S
C299 C303 1.400 . S
C300 H285 0.960 . S
C300 H286 0.960 . S
C300 H287 0.960 . S
C300 C299 1.524 . S
C301 C298 1.403 . S
C301 C302 1.392 . S
C301 C305 1.495 . S
C302 C301 1.392 . S
C302 C303 1.385 . S
C302 C304 1.478 1_655 S
C303 H297 0.930 . S
C303 C299 1.400 . S
C303 C302 1.385 . S
C304 C302 1.478 1_455 S
C304 C306 1.381 . S
C304 C310 1.383 . S
C305 C301 1.495 . S
C305 H311 0.959 . S
C305 H312 0.961 . S
C305 H313 0.960 . S
C306 C304 1.381 . S
C306 C307 1.394 . S
C306 H314 0.930 . S
C307 C306 1.394 . S
C307 C308 1.383 . S
C307 H315 0.929 . S
C308 C307 1.383 . S
C308 C309 1.377 . S
C309 H293 0.930 . S
C309 C308 1.377 . S
C309 C310 1.379 . S
C310 H294 0.931 . S
C310 C304 1.383 . S
C310 C309 1.379 . S
H311 C305 0.959 . S
H312 C305 0.961 . S
H313 C305 0.960 . S
H314 C306 0.930 . S
H315 C307 0.929 . S
H316 C324 0.929 . S
H317 C326 0.930 . S
H318 C328 0.930 . S
H319 C331 0.929 . S
H320 C334 0.930 . S
H321 C336 0.960 . S
H322 C336 0.960 . S
H323 C336 0.960 . S
C324 H316 0.929 . S
C324 C325 1.377 . S
C324 C326 1.384 . S
C325 C324 1.377 . S
C325 C331 1.390 . S
C326 H317 0.930 . S
C326 C324 1.384 . S
C326 C327 1.372 . S
C327 C326 1.372 . S
C327 C328 1.400 . S
C327 C332 1.490 . S
C328 H318 0.930 . S
C328 C327 1.400 . S
C328 C331 1.386 . S
H329 C345 0.930 . S
H330 C346 0.931 . S
C331 H319 0.929 . S
C331 C325 1.390 . S
C331 C328 1.386 . S
C332 C327 1.490 . S
C332 C334 1.395 . S
C332 C335 1.403 . S
H333 C339 0.930 . S
C334 H320 0.930 . S
C334 C332 1.395 . S
C334 C337 1.403 . S
C335 C332 1.403 . S
C335 C336 1.524 . S
C335 C339 1.400 . S
C336 H321 0.960 . S
C336 H322 0.960 . S
C336 H323 0.960 . S
C336 C335 1.524 . S
C337 C334 1.403 . S
C337 C338 1.392 . S
C337 C341 1.495 . S
C338 C337 1.392 . S
C338 C339 1.385 . S
C338 C340 1.478 1_455 S
C339 H333 0.930 . S
C339 C335 1.400 . S
C339 C338 1.385 . S
C340 C338 1.478 1_655 S
C340 C342 1.381 . S
C340 C346 1.383 . S
C341 C337 1.495 . S
C341 H347 0.959 . S
C341 H348 0.961 . S
C341 H349 0.960 . S
C342 C340 1.381 . S
C342 C343 1.394 . S
C342 H350 0.930 . S
C343 C342 1.394 . S
C343 C344 1.383 . S
C343 H351 0.929 . S
C344 C343 1.383 . S
C344 C345 1.377 . S
C345 H329 0.930 . S
C345 C344 1.377 . S
C345 C346 1.379 . S
C346 H330 0.931 . S
C346 C340 1.383 . S
C346 C345 1.379 . S
H347 C341 0.959 . S
H348 C341 0.961 . S
H349 C341 0.960 . S
H350 C342 0.930 . S
H351 C343 0.929 . S
H352 C360 0.929 . S
H353 C362 0.930 . S
H354 C364 0.930 . S
H355 C367 0.929 . S
H356 C370 0.930 . S
H357 C372 0.960 . S
H358 C372 0.960 . S
H359 C372 0.960 . S
C360 H352 0.929 . S
C360 C361 1.377 . S
C360 C362 1.384 . S
C361 C360 1.377 . S
C361 C367 1.390 . S
C362 H353 0.930 . S
C362 C360 1.384 . S
C362 C363 1.372 . S
C363 C362 1.372 . S
C363 C364 1.400 . S
C363 C368 1.490 . S
C364 H354 0.930 . S
C364 C363 1.400 . S
C364 C367 1.386 . S
H365 C381 0.930 . S
H366 C382 0.931 . S
C367 H355 0.929 . S
C367 C361 1.390 . S
C367 C364 1.386 . S
C368 C363 1.490 . S
C368 C370 1.395 . S
C368 C371 1.403 . S
H369 C375 0.930 . S
C370 H356 0.930 . S
C370 C368 1.395 . S
C370 C373 1.403 . S
C371 C368 1.403 . S
C371 C372 1.524 . S
C371 C375 1.400 . S
C372 H357 0.960 . S
C372 H358 0.960 . S
C372 H359 0.960 . S
C372 C371 1.524 . S
C373 C370 1.403 . S
C373 C374 1.392 . S
C373 C377 1.495 . S
C374 C373 1.392 . S
C374 C375 1.385 . S
C374 C376 1.478 . S
C375 H369 0.930 . S
C375 C371 1.400 . S
C375 C374 1.385 . S
C376 C374 1.478 . S
C376 C378 1.381 . S
C376 C382 1.383 . S
C377 C373 1.495 . S
C377 H383 0.959 . S
C377 H384 0.961 . S
C377 H385 0.960 . S
C378 C376 1.381 . S
C378 C379 1.394 . S
C378 H386 0.930 . S
C379 C378 1.394 . S
C379 C380 1.383 . S
C379 H387 0.929 . S
C380 C379 1.383 . S
C380 C381 1.377 . S
C381 H365 0.930 . S
C381 C380 1.377 . S
C381 C382 1.379 . S
C382 H366 0.931 . S
C382 C376 1.383 . S
C382 C381 1.379 . S
H383 C377 0.959 . S
H384 C377 0.961 . S
H385 C377 0.960 . S
H386 C378 0.930 . S
H387 C379 0.929 . S
H388 C396 0.929 . S
H389 C398 0.930 . S
H390 C400 0.930 . S
H391 C403 0.929 . S
H392 C406 0.930 . S
H393 C408 0.960 . S
H394 C408 0.960 . S
H395 C408 0.960 . S
C396 H388 0.929 . S
C396 C397 1.377 . S
C396 C398 1.384 . S
C397 C396 1.377 . S
C397 C403 1.390 . S
C398 H389 0.930 . S
C398 C396 1.384 . S
C398 C399 1.372 . S
C399 C398 1.372 . S
C399 C400 1.400 . S
C399 C404 1.490 . S
C400 H390 0.930 . S
C400 C399 1.400 . S
C400 C403 1.386 . S
H401 C417 0.930 . S
H402 C418 0.931 . S
C403 H391 0.929 . S
C403 C397 1.390 . S
C403 C400 1.386 . S
C404 C399 1.490 . S
C404 C406 1.395 . S
C404 C407 1.403 . S
H405 C411 0.930 . S
C406 H392 0.930 . S
C406 C404 1.395 . S
C406 C409 1.403 . S
C407 C404 1.403 . S
C407 C408 1.524 . S
C407 C411 1.400 . S
C408 H393 0.960 . S
C408 H394 0.960 . S
C408 H395 0.960 . S
C408 C407 1.524 . S
C409 C406 1.403 . S
C409 C410 1.392 . S
C409 C413 1.495 . S
C410 C409 1.392 . S
C410 C411 1.385 . S
C410 C412 1.478 . S
C411 H405 0.930 . S
C411 C407 1.400 . S
C411 C410 1.385 . S
C412 C410 1.478 . S
C412 C414 1.381 . S
C412 C418 1.383 . S
C413 C409 1.495 . S
C413 H419 0.959 . S
C413 H420 0.961 . S
C413 H421 0.960 . S
C414 C412 1.381 . S
C414 C415 1.394 . S
C414 H422 0.930 . S
C415 C414 1.394 . S
C415 C416 1.383 . S
C415 H423 0.929 . S
C416 C415 1.383 . S
C416 C417 1.377 . S
C417 H401 0.930 . S
C417 C416 1.377 . S
C417 C418 1.379 . S
C418 H402 0.931 . S
C418 C412 1.383 . S
C418 C417 1.379 . S
H419 C413 0.959 . S
H420 C413 0.961 . S
H421 C413 0.960 . S
H422 C414 0.930 . S
H423 C415 0.929 . S
H424 C432 0.929 . S
H425 C434 0.930 . S
H426 C436 0.930 . S
H427 C439 0.929 . S
H428 C442 0.930 . S
H429 C444 0.960 . S
H430 C444 0.960 . S
H431 C444 0.960 . S
C432 H424 0.929 . S
C432 C433 1.377 . S
C432 C434 1.384 . S
C433 C432 1.377 . S
C433 C439 1.390 . S
C434 H425 0.930 . S
C434 C432 1.384 . S
C434 C435 1.372 . S
C435 C434 1.372 . S
C435 C436 1.400 . S
C435 C440 1.490 . S
C436 H426 0.930 . S
C436 C435 1.400 . S
C436 C439 1.386 . S
H437 C453 0.930 . S
H438 C454 0.931 . S
C439 H427 0.929 . S
C439 C433 1.390 . S
C439 C436 1.386 . S
C440 C435 1.490 . S
C440 C442 1.395 . S
C440 C443 1.403 . S
H441 C447 0.930 . S
C442 H428 0.930 . S
C442 C440 1.395 . S
C442 C445 1.403 . S
C443 C440 1.403 . S
C443 C444 1.524 . S
C443 C447 1.400 . S
C444 H429 0.960 . S
C444 H430 0.960 . S
C444 H431 0.960 . S
C444 C443 1.524 . S
C445 C442 1.403 . S
C445 C446 1.392 . S
C445 C449 1.495 . S
C446 C445 1.392 . S
C446 C447 1.385 . S
C446 C448 1.478 . S
C447 H441 0.930 . S
C447 C443 1.400 . S
C447 C446 1.385 . S
C448 C446 1.478 . S
C448 C450 1.381 . S
C448 C454 1.383 . S
C449 C445 1.495 . S
C449 H455 0.959 . S
C449 H456 0.961 . S
C449 H457 0.960 . S
C450 C448 1.381 . S
C450 C451 1.394 . S
C450 H458 0.930 . S
C451 C450 1.394 . S
C451 C452 1.383 . S
C451 H459 0.929 . S
C452 C451 1.383 . S
C452 C453 1.377 . S
C453 H437 0.930 . S
C453 C452 1.377 . S
C453 C454 1.379 . S
C454 H438 0.931 . S
C454 C448 1.383 . S
C454 C453 1.379 . S
H455 C449 0.959 . S
H456 C449 0.961 . S
H457 C449 0.960 . S
H458 C450 0.930 . S
H459 C451 0.929 . S
H460 C468 0.929 . S
H461 C470 0.930 . S
H462 C472 0.930 . S
H463 C475 0.929 . S
H464 C478 0.930 . S
H465 C480 0.960 . S
H466 C480 0.960 . S
H467 C480 0.960 . S
C468 H460 0.929 . S
C468 C469 1.377 . S
C468 C470 1.384 . S
C469 C468 1.377 . S
C469 C475 1.390 . S
C470 H461 0.930 . S
C470 C468 1.384 . S
C470 C471 1.372 . S
C471 C470 1.372 . S
C471 C472 1.400 . S
C471 C476 1.490 . S
C472 H462 0.930 . S
C472 C471 1.400 . S
C472 C475 1.386 . S
H473 C489 0.930 . S
H474 C490 0.931 . S
C475 H463 0.929 . S
C475 C469 1.390 . S
C475 C472 1.386 . S
C476 C471 1.490 . S
C476 C478 1.395 . S
C476 C479 1.403 . S
H477 C483 0.930 . S
C478 H464 0.930 . S
C478 C476 1.395 . S
C478 C481 1.403 . S
C479 C476 1.403 . S
C479 C480 1.524 . S
C479 C483 1.400 . S
C480 H465 0.960 . S
C480 H466 0.960 . S
C480 H467 0.960 . S
C480 C479 1.524 . S
C481 C478 1.403 . S
C481 C482 1.392 . S
C481 C485 1.495 . S
C482 C481 1.392 . S
C482 C483 1.385 . S
C482 C484 1.478 . S
C483 H477 0.930 . S
C483 C479 1.400 . S
C483 C482 1.385 . S
C484 C482 1.478 . S
C484 C486 1.381 . S
C484 C490 1.383 . S
C485 C481 1.495 . S
C485 H491 0.959 . S
C485 H492 0.961 . S
C485 H493 0.960 . S
C486 C484 1.381 . S
C486 C487 1.394 . S
C486 H494 0.930 . S
C487 C486 1.394 . S
C487 C488 1.383 . S
C487 H495 0.929 . S
C488 C487 1.383 . S
C488 C489 1.377 . S
C489 H473 0.930 . S
C489 C488 1.377 . S
C489 C490 1.379 . S
C490 H474 0.931 . S
C490 C484 1.383 . S
C490 C489 1.379 . S
H491 C485 0.959 . S
H492 C485 0.961 . S
H493 C485 0.960 . S
H494 C486 0.930 . S
H495 C487 0.929 . S
H496 C504 0.929 . S
H497 C506 0.930 . S
H498 C508 0.930 . S
H499 C511 0.929 . S
H500 C514 0.930 . S
H501 C516 0.960 . S
H502 C516 0.960 . S
H503 C516 0.960 . S
C504 H496 0.929 . S
C504 C505 1.377 . S
C504 C506 1.384 . S
C505 C504 1.377 . S
C505 C511 1.390 . S
C506 H497 0.930 . S
C506 C504 1.384 . S
C506 C507 1.372 . S
C507 C506 1.372 . S
C507 C508 1.400 . S
C507 C512 1.490 . S
C508 H498 0.930 . S
C508 C507 1.400 . S
C508 C511 1.386 . S
H509 C525 0.930 . S
H510 C526 0.931 . S
C511 H499 0.929 . S
C511 C505 1.390 . S
C511 C508 1.386 . S
C512 C507 1.490 . S
C512 C514 1.395 . S
C512 C515 1.403 . S
H513 C519 0.930 . S
C514 H500 0.930 . S
C514 C512 1.395 . S
C514 C517 1.403 . S
C515 C512 1.403 . S
C515 C516 1.524 . S
C515 C519 1.400 . S
C516 H501 0.960 . S
C516 H502 0.960 . S
C516 H503 0.960 . S
C516 C515 1.524 . S
C517 C514 1.403 . S
C517 C518 1.392 . S
C517 C521 1.495 . S
C518 C517 1.392 . S
C518 C519 1.385 . S
C518 C520 1.478 . S
C519 H513 0.930 . S
C519 C515 1.400 . S
C519 C518 1.385 . S
C520 C518 1.478 . S
C520 C522 1.381 . S
C520 C526 1.383 . S
C521 C517 1.495 . S
C521 H527 0.959 . S
C521 H528 0.961 . S
C521 H529 0.960 . S
C522 C520 1.381 . S
C522 C523 1.394 . S
C522 H530 0.930 . S
C523 C522 1.394 . S
C523 C524 1.383 . S
C523 H531 0.929 . S
C524 C523 1.383 . S
C524 C525 1.377 . S
C525 H509 0.930 . S
C525 C524 1.377 . S
C525 C526 1.379 . S
C526 H510 0.931 . S
C526 C520 1.383 . S
C526 C525 1.379 . S
H527 C521 0.959 . S
H528 C521 0.961 . S
H529 C521 0.960 . S
H530 C522 0.930 . S
H531 C523 0.929 . S
H532 C540 0.929 . S
H533 C542 0.930 . S
H534 C544 0.930 . S
H535 C547 0.929 . S
H536 C550 0.930 . S
H537 C552 0.960 . S
H538 C552 0.960 . S
H539 C552 0.960 . S
C540 H532 0.929 . S
C540 C541 1.377 . S
C540 C542 1.384 . S
C541 C540 1.377 . S
C541 C547 1.390 . S
C542 H533 0.930 . S
C542 C540 1.384 . S
C542 C543 1.372 . S
C543 C542 1.372 . S
C543 C544 1.400 . S
C543 C548 1.490 . S
C544 H534 0.930 . S
C544 C543 1.400 . S
C544 C547 1.386 . S
H545 C561 0.930 . S
H546 C562 0.931 . S
C547 H535 0.929 . S
C547 C541 1.390 . S
C547 C544 1.386 . S
C548 C543 1.490 . S
C548 C550 1.395 . S
C548 C551 1.403 . S
H549 C555 0.930 . S
C550 H536 0.930 . S
C550 C548 1.395 . S
C550 C553 1.403 . S
C551 C548 1.403 . S
C551 C552 1.524 . S
C551 C555 1.400 . S
C552 H537 0.960 . S
C552 H538 0.960 . S
C552 H539 0.960 . S
C552 C551 1.524 . S
C553 C550 1.403 . S
C553 C554 1.392 . S
C553 C557 1.495 . S
C554 C553 1.392 . S
C554 C555 1.385 . S
C554 C556 1.478 . S
C555 H549 0.930 . S
C555 C551 1.400 . S
C555 C554 1.385 . S
C556 C554 1.478 . S
C556 C558 1.381 . S
C556 C562 1.383 . S
C557 C553 1.495 . S
C557 H563 0.959 . S
C557 H564 0.961 . S
C557 H565 0.960 . S
C558 C556 1.381 . S
C558 C559 1.394 . S
C558 H566 0.930 . S
C559 C558 1.394 . S
C559 C560 1.383 . S
C559 H567 0.929 . S
C560 C559 1.383 . S
C560 C561 1.377 . S
C561 H545 0.930 . S
C561 C560 1.377 . S
C561 C562 1.379 . S
C562 H546 0.931 . S
C562 C556 1.383 . S
C562 C561 1.379 . S
H563 C557 0.959 . S
H564 C557 0.961 . S
H565 C557 0.960 . S
H566 C558 0.930 . S
H567 C559 0.929 . S
H568 C576 0.929 . S
H569 C578 0.930 . S
H570 C580 0.930 . S
H571 C583 0.929 . S
H572 C586 0.930 . S
H573 C588 0.960 . S
H574 C588 0.960 . S
H575 C588 0.960 . S
C576 H568 0.929 . S
C576 C577 1.377 . S
C576 C578 1.384 . S
C577 C576 1.377 . S
C577 C583 1.390 . S
C578 H569 0.930 . S
C578 C576 1.384 . S
C578 C579 1.372 . S
C579 C578 1.372 . S
C579 C580 1.400 . S
C579 C584 1.490 . S
C580 H570 0.930 . S
C580 C579 1.400 . S
C580 C583 1.386 . S
H581 C597 0.930 . S
H582 C598 0.931 . S
C583 H571 0.929 . S
C583 C577 1.390 . S
C583 C580 1.386 . S
C584 C579 1.490 . S
C584 C586 1.395 . S
C584 C587 1.403 . S
H585 C591 0.930 . S
C586 H572 0.930 . S
C586 C584 1.395 . S
C586 C589 1.403 . S
C587 C584 1.403 . S
C587 C588 1.524 . S
C587 C591 1.400 . S
C588 H573 0.960 . S
C588 H574 0.960 . S
C588 H575 0.960 . S
C588 C587 1.524 . S
C589 C586 1.403 . S
C589 C590 1.392 . S
C589 C593 1.495 . S
C590 C589 1.392 . S
C590 C591 1.385 . S
C590 C592 1.478 . S
C591 H585 0.930 . S
C591 C587 1.400 . S
C591 C590 1.385 . S
C592 C590 1.478 . S
C592 C594 1.381 . S
C592 C598 1.383 . S
C593 C589 1.495 . S
C593 H599 0.959 . S
C593 H600 0.961 . S
C593 H601 0.960 . S
C594 C592 1.381 . S
C594 C595 1.394 . S
C594 H602 0.930 . S
C595 C594 1.394 . S
C595 C596 1.383 . S
C595 H603 0.929 . S
C596 C595 1.383 . S
C596 C597 1.377 . S
C597 H581 0.930 . S
C597 C596 1.377 . S
C597 C598 1.379 . S
C598 H582 0.931 . S
C598 C592 1.383 . S
C598 C597 1.379 . S
H599 C593 0.959 . S
H600 C593 0.961 . S
H601 C593 0.960 . S
H602 C594 0.930 . S
H603 C595 0.929 . S
H604 C612 0.929 . S
H605 C614 0.930 . S
H606 C616 0.930 . S
H607 C619 0.929 . S
H608 C622 0.930 . S
H609 C624 0.960 . S
H610 C624 0.960 . S
H611 C624 0.960 . S
C612 H604 0.929 . S
C612 C613 1.377 . S
C612 C614 1.384 . S
C613 C612 1.377 . S
C613 C619 1.390 . S
C614 H605 0.930 . S
C614 C612 1.384 . S
C614 C615 1.372 . S
C615 C614 1.372 . S
C615 C616 1.400 . S
C615 C620 1.490 . S
C616 H606 0.930 . S
C616 C615 1.400 . S
C616 C619 1.386 . S
H617 C633 0.930 . S
H618 C634 0.931 . S
C619 H607 0.929 . S
C619 C613 1.390 . S
C619 C616 1.386 . S
C620 C615 1.490 . S
C620 C622 1.395 . S
C620 C623 1.403 . S
H621 C627 0.930 . S
C622 H608 0.930 . S
C622 C620 1.395 . S
C622 C625 1.403 . S
C623 C620 1.403 . S
C623 C624 1.524 . S
C623 C627 1.400 . S
C624 H609 0.960 . S
C624 H610 0.960 . S
C624 H611 0.960 . S
C624 C623 1.524 . S
C625 C622 1.403 . S
C625 C626 1.392 . S
C625 C629 1.495 . S
C626 C625 1.392 . S
C626 C627 1.385 . S
C626 C628 1.478 . S
C627 H621 0.930 . S
C627 C623 1.400 . S
C627 C626 1.385 . S
C628 C626 1.478 . S
C628 C630 1.381 . S
C628 C634 1.383 . S
C629 C625 1.495 . S
C629 H635 0.959 . S
C629 H636 0.961 . S
C629 H637 0.960 . S
C630 C628 1.381 . S
C630 C631 1.394 . S
C630 H638 0.930 . S
C631 C630 1.394 . S
C631 C632 1.383 . S
C631 H639 0.929 . S
C632 C631 1.383 . S
C632 C633 1.377 . S
C633 H617 0.930 . S
C633 C632 1.377 . S
C633 C634 1.379 . S
C634 H618 0.931 . S
C634 C628 1.383 . S
C634 C633 1.379 . S
H635 C629 0.959 . S
H636 C629 0.961 . S
H637 C629 0.960 . S
H638 C630 0.930 . S
H639 C631 0.929 . S
H640 C648 0.929 . S
H641 C650 0.930 . S
H642 C652 0.930 . S
H643 C655 0.929 . S
H644 C658 0.930 . S
H645 C660 0.960 . S
H646 C660 0.960 . S
H647 C660 0.960 . S
C648 H640 0.929 . S
C648 C649 1.377 . S
C648 C650 1.384 . S
C649 C648 1.377 . S
C649 C655 1.390 . S
C650 H641 0.930 . S
C650 C648 1.384 . S
C650 C651 1.372 . S
C651 C650 1.372 . S
C651 C652 1.400 . S
C651 C656 1.490 . S
C652 H642 0.930 . S
C652 C651 1.400 . S
C652 C655 1.386 . S
H653 C669 0.930 . S
H654 C670 0.931 . S
C655 H643 0.929 . S
C655 C649 1.390 . S
C655 C652 1.386 . S
C656 C651 1.490 . S
C656 C658 1.395 . S
C656 C659 1.403 . S
H657 C663 0.930 . S
C658 H644 0.930 . S
C658 C656 1.395 . S
C658 C661 1.403 . S
C659 C656 1.403 . S
C659 C660 1.524 . S
C659 C663 1.400 . S
C660 H645 0.960 . S
C660 H646 0.960 . S
C660 H647 0.960 . S
C660 C659 1.524 . S
C661 C658 1.403 . S
C661 C662 1.392 . S
C661 C665 1.495 . S
C662 C661 1.392 . S
C662 C663 1.385 . S
C662 C664 1.478 . S
C663 H657 0.930 . S
C663 C659 1.400 . S
C663 C662 1.385 . S
C664 C662 1.478 . S
C664 C666 1.381 . S
C664 C670 1.383 . S
C665 C661 1.495 . S
C665 H671 0.959 . S
C665 H672 0.961 . S
C665 H673 0.960 . S
C666 C664 1.381 . S
C666 C667 1.394 . S
C666 H674 0.930 . S
C667 C666 1.394 . S
C667 C668 1.383 . S
C667 H675 0.929 . S
C668 C667 1.383 . S
C668 C669 1.377 . S
C669 H653 0.930 . S
C669 C668 1.377 . S
C669 C670 1.379 . S
C670 H654 0.931 . S
C670 C664 1.383 . S
C670 C669 1.379 . S
H671 C665 0.959 . S
H672 C665 0.961 . S
H673 C665 0.960 . S
H674 C666 0.930 . S
H675 C667 0.929 . S
H676 C684 0.929 . S
H677 C686 0.930 . S
H678 C688 0.930 . S
H679 C691 0.929 . S
H680 C694 0.930 . S
H681 C696 0.960 . S
H682 C696 0.960 . S
H683 C696 0.960 . S
C684 H676 0.929 . S
C684 C685 1.377 . S
C684 C686 1.384 . S
C685 C684 1.377 . S
C685 C691 1.390 . S
C686 H677 0.930 . S
C686 C684 1.384 . S
C686 C687 1.372 . S
C687 C686 1.372 . S
C687 C688 1.400 . S
C687 C692 1.490 . S
C688 H678 0.930 . S
C688 C687 1.400 . S
C688 C691 1.386 . S
H689 C705 0.930 . S
H690 C706 0.931 . S
C691 H679 0.929 . S
C691 C685 1.390 . S
C691 C688 1.386 . S
C692 C687 1.490 . S
C692 C694 1.395 . S
C692 C695 1.403 . S
H693 C699 0.930 . S
C694 H680 0.930 . S
C694 C692 1.395 . S
C694 C697 1.403 . S
C695 C692 1.403 . S
C695 C696 1.524 . S
C695 C699 1.400 . S
C696 H681 0.960 . S
C696 H682 0.960 . S
C696 H683 0.960 . S
C696 C695 1.524 . S
C697 C694 1.403 . S
C697 C698 1.392 . S
C697 C701 1.495 . S
C698 C697 1.392 . S
C698 C699 1.385 . S
C698 C700 1.478 . S
C699 H693 0.930 . S
C699 C695 1.400 . S
C699 C698 1.385 . S
C700 C698 1.478 . S
C700 C702 1.381 . S
C700 C706 1.383 . S
C701 C697 1.495 . S
C701 H707 0.959 . S
C701 H708 0.961 . S
C701 H709 0.960 . S
C702 C700 1.381 . S
C702 C703 1.394 . S
C702 H710 0.930 . S
C703 C702 1.394 . S
C703 C704 1.383 . S
C703 H711 0.929 . S
C704 C703 1.383 . S
C704 C705 1.377 . S
C705 H689 0.930 . S
C705 C704 1.377 . S
C705 C706 1.379 . S
C706 H690 0.931 . S
C706 C700 1.383 . S
C706 C705 1.379 . S
H707 C701 0.959 . S
H708 C701 0.961 . S
H709 C701 0.960 . S
H710 C702 0.930 . S
H711 C703 0.929 . S
H712 C720 0.929 . S
H713 C722 0.930 . S
H714 C724 0.930 . S
H715 C727 0.929 . S
H716 C730 0.930 . S
H717 C732 0.960 . S
H718 C732 0.960 . S
H719 C732 0.960 . S
C720 H712 0.929 . S
C720 C721 1.377 . S
C720 C722 1.384 . S
C721 C720 1.377 . S
C721 C727 1.390 . S
C722 H713 0.930 . S
C722 C720 1.384 . S
C722 C723 1.372 . S
C723 C722 1.372 . S
C723 C724 1.400 . S
C723 C728 1.490 . S
C724 H714 0.930 . S
C724 C723 1.400 . S
C724 C727 1.386 . S
H725 C741 0.930 . S
H726 C742 0.931 . S
C727 H715 0.929 . S
C727 C721 1.390 . S
C727 C724 1.386 . S
C728 C723 1.490 . S
C728 C730 1.395 . S
C728 C731 1.403 . S
H729 C735 0.930 . S
C730 H716 0.930 . S
C730 C728 1.395 . S
C730 C733 1.403 . S
C731 C728 1.403 . S
C731 C732 1.524 . S
C731 C735 1.400 . S
C732 H717 0.960 . S
C732 H718 0.960 . S
C732 H719 0.960 . S
C732 C731 1.524 . S
C733 C730 1.403 . S
C733 C734 1.392 . S
C733 C737 1.495 . S
C734 C733 1.392 . S
C734 C735 1.385 . S
C734 C736 1.478 . S
C735 H729 0.930 . S
C735 C731 1.400 . S
C735 C734 1.385 . S
C736 C734 1.478 . S
C736 C738 1.381 . S
C736 C742 1.383 . S
C737 C733 1.495 . S
C737 H743 0.959 . S
C737 H744 0.961 . S
C737 H745 0.960 . S
C738 C736 1.381 . S
C738 C739 1.394 . S
C738 H746 0.930 . S
C739 C738 1.394 . S
C739 C740 1.383 . S
C739 H747 0.929 . S
C740 C739 1.383 . S
C740 C741 1.377 . S
C741 H725 0.930 . S
C741 C740 1.377 . S
C741 C742 1.379 . S
C742 H726 0.931 . S
C742 C736 1.383 . S
C742 C741 1.379 . S
H743 C737 0.959 . S
H744 C737 0.961 . S
H745 C737 0.960 . S
H746 C738 0.930 . S
H747 C739 0.929 . S
H748 C756 0.929 . S
H749 C758 0.930 . S
H750 C760 0.930 . S
H751 C763 0.929 . S
H752 C766 0.930 . S
H753 C768 0.960 . S
H754 C768 0.960 . S
H755 C768 0.960 . S
C756 H748 0.929 . S
C756 C757 1.377 . S
C756 C758 1.384 . S
C757 C756 1.377 . S
C757 C763 1.390 . S
C758 H749 0.930 . S
C758 C756 1.384 . S
C758 C759 1.372 . S
C759 C758 1.372 . S
C759 C760 1.400 . S
C759 C764 1.490 . S
C760 H750 0.930 . S
C760 C759 1.400 . S
C760 C763 1.386 . S
H761 C777 0.930 . S
H762 C778 0.931 . S
C763 H751 0.929 . S
C763 C757 1.390 . S
C763 C760 1.386 . S
C764 C759 1.490 . S
C764 C766 1.395 . S
C764 C767 1.403 . S
H765 C771 0.930 . S
C766 H752 0.930 . S
C766 C764 1.395 . S
C766 C769 1.403 . S
C767 C764 1.403 . S
C767 C768 1.524 . S
C767 C771 1.400 . S
C768 H753 0.960 . S
C768 H754 0.960 . S
C768 H755 0.960 . S
C768 C767 1.524 . S
C769 C766 1.403 . S
C769 C770 1.392 . S
C769 C773 1.495 . S
C770 C769 1.392 . S
C770 C771 1.385 . S
C770 C772 1.478 . S
C771 H765 0.930 . S
C771 C767 1.400 . S
C771 C770 1.385 . S
C772 C770 1.478 . S
C772 C774 1.381 . S
C772 C778 1.383 . S
C773 C769 1.495 . S
C773 H779 0.959 . S
C773 H780 0.961 . S
C773 H781 0.960 . S
C774 C772 1.381 . S
C774 C775 1.394 . S
C774 H782 0.930 . S
C775 C774 1.394 . S
C775 C776 1.383 . S
C775 H783 0.929 . S
C776 C775 1.383 . S
C776 C777 1.377 . S
C777 H761 0.930 . S
C777 C776 1.377 . S
C777 C778 1.379 . S
C778 H762 0.931 . S
C778 C772 1.383 . S
C778 C777 1.379 . S
H779 C773 0.959 . S
H780 C773 0.961 . S
H781 C773 0.960 . S
H782 C774 0.930 . S
H783 C775 0.929 . S
H784 C792 0.929 . S
H785 C794 0.930 . S
H786 C796 0.930 . S
H787 C799 0.929 . S
H788 C802 0.930 . S
H789 C804 0.960 . S
H790 C804 0.960 . S
H791 C804 0.960 . S
C792 H784 0.929 . S
C792 C793 1.377 . S
C792 C794 1.384 . S
C793 C792 1.377 . S
C793 C799 1.390 . S
C794 H785 0.930 . S
C794 C792 1.384 . S
C794 C795 1.372 . S
C795 C794 1.372 . S
C795 C796 1.400 . S
C795 C800 1.490 . S
C796 H786 0.930 . S
C796 C795 1.400 . S
C796 C799 1.386 . S
H797 C813 0.930 . S
H798 C814 0.931 . S
C799 H787 0.929 . S
C799 C793 1.390 . S
C799 C796 1.386 . S
C800 C795 1.490 . S
C800 C802 1.395 . S
C800 C803 1.403 1_556 S
H801 C807 0.930 . S
C802 H788 0.930 . S
C802 C800 1.395 . S
C802 C805 1.403 . S
C803 C800 1.403 1_554 S
C803 C804 1.524 . S
C803 C807 1.400 . S
C804 H789 0.960 . S
C804 H790 0.960 . S
C804 H791 0.960 . S
C804 C803 1.524 . S
C805 C802 1.403 . S
C805 C806 1.392 1_556 S
C805 C809 1.495 . S
C806 C805 1.392 1_554 S
C806 C807 1.385 . S
C806 C808 1.478 . S
C807 H801 0.930 . S
C807 C803 1.400 . S
C807 C806 1.385 . S
C808 C806 1.478 . S
C808 C810 1.381 . S
C808 C814 1.383 . S
C809 C805 1.495 . S
C809 H815 0.959 . S
C809 H816 0.961 . S
C809 H817 0.960 . S
C810 C808 1.381 . S
C810 C811 1.394 . S
C810 H818 0.930 . S
C811 C810 1.394 . S
C811 C812 1.383 . S
C811 H819 0.929 . S
C812 C811 1.383 . S
C812 C813 1.377 . S
C813 H797 0.930 . S
C813 C812 1.377 . S
C813 C814 1.379 . S
C814 H798 0.931 . S
C814 C808 1.383 . S
C814 C813 1.379 . S
H815 C809 0.959 . S
H816 C809 0.961 . S
H817 C809 0.960 . S
H818 C810 0.930 . S
H819 C811 0.929 . S
H820 C828 0.929 . S
H821 C830 0.930 . S
H822 C832 0.930 . S
H823 C835 0.929 . S
H824 C838 0.930 . S
H825 C840 0.960 . S
H826 C840 0.960 . S
H827 C840 0.960 . S
C828 H820 0.929 . S
C828 C829 1.377 . S
C828 C830 1.384 . S
C829 C828 1.377 . S
C829 C835 1.390 . S
C830 H821 0.930 . S
C830 C828 1.384 . S
C830 C831 1.372 . S
C831 C830 1.372 . S
C831 C832 1.400 . S
C831 C836 1.490 . S
C832 H822 0.930 . S
C832 C831 1.400 . S
C832 C835 1.386 . S
H833 C849 0.930 . S
H834 C850 0.931 . S
C835 H823 0.929 . S
C835 C829 1.390 . S
C835 C832 1.386 . S
C836 C831 1.490 . S
C836 C838 1.395 . S
C836 C839 1.403 . S
H837 C843 0.930 . S
C838 H824 0.930 . S
C838 C836 1.395 . S
C838 C841 1.403 . S
C839 C836 1.403 . S
C839 C840 1.524 . S
C839 C843 1.400 . S
C840 H825 0.960 . S
C840 H826 0.960 . S
C840 H827 0.960 . S
C840 C839 1.524 . S
C841 C838 1.403 . S
C841 C842 1.392 . S
C841 C845 1.495 . S
C842 C841 1.392 . S
C842 C843 1.385 . S
C842 C844 1.478 . S
C843 H837 0.930 . S
C843 C839 1.400 . S
C843 C842 1.385 . S
C844 C842 1.478 . S
C844 C846 1.381 . S
C844 C850 1.383 . S
C845 C841 1.495 . S
C845 H851 0.959 . S
C845 H852 0.961 . S
C845 H853 0.960 . S
C846 C844 1.381 . S
C846 C847 1.394 . S
C846 H854 0.930 . S
C847 C846 1.394 . S
C847 C848 1.383 . S
C847 H855 0.929 . S
C848 C847 1.383 . S
C848 C849 1.377 . S
C849 H833 0.930 . S
C849 C848 1.377 . S
C849 C850 1.379 . S
C850 H834 0.931 . S
C850 C844 1.383 . S
C850 C849 1.379 . S
H851 C845 0.959 . S
H852 C845 0.961 . S
H853 C845 0.960 . S
H854 C846 0.930 . S
H855 C847 0.929 . S
H856 C864 0.929 . S
H857 C866 0.930 . S
H858 C868 0.930 . S
H859 C871 0.929 . S
H860 C874 0.930 . S
H861 C876 0.960 . S
H862 C876 0.960 . S
H863 C876 0.960 . S
C864 H856 0.929 . S
C864 C865 1.377 . S
C864 C866 1.384 . S
C865 C864 1.377 . S
C865 C871 1.390 . S
C866 H857 0.930 . S
C866 C864 1.384 . S
C866 C867 1.372 . S
C867 C866 1.372 . S
C867 C868 1.400 . S
C867 C872 1.490 . S
C868 H858 0.930 . S
C868 C867 1.400 . S
C868 C871 1.386 . S
H869 C885 0.930 . S
H870 C886 0.931 . S
C871 H859 0.929 . S
C871 C865 1.390 . S
C871 C868 1.386 . S
C872 C867 1.490 . S
C872 C874 1.395 . S
C872 C875 1.403 . S
H873 C879 0.930 . S
C874 H860 0.930 . S
C874 C872 1.395 . S
C874 C877 1.403 1_554 S
C875 C872 1.403 . S
C875 C876 1.524 . S
C875 C879 1.400 1_554 S
C876 H861 0.960 . S
C876 H862 0.960 . S
C876 H863 0.960 . S
C876 C875 1.524 . S
C877 C874 1.403 1_556 S
C877 C878 1.392 . S
C877 C881 1.495 . S
C878 C877 1.392 . S
C878 C879 1.385 . S
C878 C880 1.478 . S
C879 H873 0.930 . S
C879 C875 1.400 1_556 S
C879 C878 1.385 . S
C880 C878 1.478 . S
C880 C882 1.381 . S
C880 C886 1.383 . S
C881 C877 1.495 . S
C881 H887 0.959 . S
C881 H888 0.961 . S
C881 H889 0.960 . S
C882 C880 1.381 . S
C882 C883 1.394 . S
C882 H890 0.955 . S
C883 C882 1.394 . S
C883 C884 1.383 . S
C883 H891 0.929 . S
C884 C883 1.383 . S
C884 C885 1.377 . S
C885 H869 0.930 . S
C885 C884 1.377 . S
C885 C886 1.379 . S
C886 H870 0.931 . S
C886 C880 1.383 . S
C886 C885 1.379 . S
H887 C881 0.959 . S
H888 C881 0.961 . S
H889 C881 0.960 . S
H890 C882 0.955 . S
H891 C883 0.929 . S
H892 C900 0.929 . S
H893 C902 0.930 . S
H894 C904 0.930 . S
H895 C907 0.929 . S
H896 C910 0.930 . S
H897 C912 0.960 . S
H898 C912 0.960 . S
H899 C912 0.960 . S
C900 H892 0.929 . S
C900 C901 1.377 . S
C900 C902 1.384 . S
C901 C900 1.377 . S
C901 C907 1.390 . S
C902 H893 0.930 . S
C902 C900 1.384 . S
C902 C903 1.372 . S
C903 C902 1.372 . S
C903 C904 1.400 . S
C903 C908 1.490 . S
C904 H894 0.930 . S
C904 C903 1.400 . S
C904 C907 1.386 . S
H905 C921 0.930 . S
H906 C922 0.931 . S
C907 H895 0.929 . S
C907 C901 1.390 . S
C907 C904 1.386 . S
C908 C903 1.490 . S
C908 C910 1.395 . S
C908 C911 1.403 . S
H909 C915 0.930 . S
C910 H896 0.930 . S
C910 C908 1.395 . S
C910 C913 1.403 . S
C911 C908 1.403 . S
C911 C912 1.524 . S
C911 C915 1.400 . S
C912 H897 0.960 . S
C912 H898 0.960 . S
C912 H899 0.960 . S
C912 C911 1.524 . S
C913 C910 1.403 . S
C913 C914 1.392 . S
C913 C917 1.495 . S
C914 C913 1.392 . S
C914 C915 1.385 . S
C914 C916 1.478 . S
C915 H909 0.930 . S
C915 C911 1.400 . S
C915 C914 1.385 . S
C916 C914 1.478 . S
C916 C918 1.381 . S
C916 C922 1.383 . S
C917 C913 1.495 . S
C917 H923 0.959 . S
C917 H924 0.961 . S
C917 H925 0.960 . S
C918 C916 1.381 . S
C918 C919 1.394 . S
C918 H926 0.930 . S
C919 C918 1.394 . S
C919 C920 1.383 . S
C919 H927 0.929 . S
C920 C919 1.383 . S
C920 C921 1.377 . S
C921 H905 0.930 . S
C921 C920 1.377 . S
C921 C922 1.379 . S
C922 H906 0.931 . S
C922 C916 1.383 . S
C922 C921 1.379 . S
H923 C917 0.959 . S
H924 C917 0.961 . S
H925 C917 0.960 . S
H926 C918 0.930 . S
H927 C919 0.929 . S
H928 C936 0.929 . S
H929 C938 0.930 . S
H930 C940 0.930 . S
H931 C943 0.929 . S
H932 C946 0.930 . S
H933 C948 0.960 . S
H934 C948 0.960 . S
H935 C948 0.960 1_554 S
C936 H928 0.929 . S
C936 C937 1.377 . S
C936 C938 1.384 . S
C937 C936 1.377 . S
C937 C943 1.390 . S
C938 H929 0.930 . S
C938 C936 1.384 . S
C938 C939 1.372 . S
C939 C938 1.372 . S
C939 C940 1.400 . S
C939 C944 1.490 . S
C940 H930 0.930 . S
C940 C939 1.400 . S
C940 C943 1.386 . S
H941 C957 0.930 . S
H942 C958 0.931 . S
C943 H931 0.929 . S
C943 C937 1.390 . S
C943 C940 1.386 . S
C944 C939 1.490 . S
C944 C946 1.395 . S
C944 C947 1.403 1_554 S
H945 C951 0.930 . S
C946 H932 0.930 . S
C946 C944 1.395 . S
C946 C949 1.403 1_554 S
C947 C944 1.403 1_556 S
C947 C948 1.524 . S
C947 C951 1.400 . S
C948 H933 0.960 . S
C948 H934 0.960 . S
C948 H935 0.960 1_556 S
C948 C947 1.524 . S
C949 C946 1.403 1_556 S
C949 C950 1.392 . S
C949 C953 1.495 . S
C950 C949 1.392 . S
C950 C951 1.385 . S
C950 C952 1.478 . S
C951 H945 0.930 . S
C951 C947 1.400 . S
C951 C950 1.385 . S
C952 C950 1.478 . S
C952 C954 1.381 . S
C952 C958 1.383 . S
C953 C949 1.495 . S
C953 H959 0.959 1_556 S
C953 H960 0.961 1_556 S
C953 H961 0.960 . S
C954 C952 1.381 . S
C954 C955 1.394 . S
C954 H962 0.930 . S
C955 C954 1.394 . S
C955 C956 1.383 . S
C955 H963 0.929 . S
C956 C955 1.383 . S
C956 C957 1.377 . S
C957 H941 0.930 . S
C957 C956 1.377 . S
C957 C958 1.379 . S
C958 H942 0.931 . S
C958 C952 1.383 . S
C958 C957 1.379 . S
H959 C953 0.959 1_554 S
H960 C953 0.961 1_554 S
H961 C953 0.960 . S
H962 C954 0.930 . S
H963 C955 0.929 . S
H964 C972 0.929 . S
H965 C974 0.930 . S
H966 C976 0.930 . S
H967 C979 0.929 . S
H968 C982 0.930 . S
H969 C984 0.960 . S
H970 C984 0.960 . S
H971 C984 0.960 . S
C972 H964 0.929 . S
C972 C973 1.377 . S
C972 C974 1.384 . S
C973 C972 1.377 . S
C973 C979 1.390 . S
C974 H965 0.930 . S
C974 C972 1.384 . S
C974 C975 1.372 . S
C975 C974 1.372 . S
C975 C976 1.400 . S
C975 C980 1.490 . S
C976 H966 0.930 . S
C976 C975 1.400 . S
C976 C979 1.386 . S
H977 C993 0.930 . S
H978 C994 0.931 . S
C979 H967 0.929 . S
C979 C973 1.390 . S
C979 C976 1.386 . S
C980 C975 1.490 . S
C980 C982 1.395 . S
C980 C983 1.403 . S
H981 C987 0.930 . S
C982 H968 0.930 . S
C982 C980 1.395 . S
C982 C985 1.403 . S
C983 C980 1.403 . S
C983 C984 1.524 . S
C983 C987 1.400 . S
C984 H969 0.960 . S
C984 H970 0.960 . S
C984 H971 0.960 . S
C984 C983 1.524 . S
C985 C982 1.403 . S
C985 C986 1.392 . S
C985 C989 1.495 . S
C986 C985 1.392 . S
C986 C987 1.385 . S
C986 C988 1.478 . S
C987 H981 0.930 . S
C987 C983 1.400 . S
C987 C986 1.385 . S
C988 C986 1.478 . S
C988 C990 1.381 . S
C988 C994 1.383 . S
C989 C985 1.495 . S
C989 H995 0.959 . S
C989 H996 0.961 . S
C989 H997 0.960 . S
C990 C988 1.381 . S
C990 C991 1.394 . S
C990 H998 0.930 . S
C991 C990 1.394 . S
C991 C992 1.383 . S
C991 H999 0.929 . S
C992 C991 1.383 . S
C992 C993 1.377 . S
C993 H977 0.930 . S
C993 C992 1.377 . S
C993 C994 1.379 . S
C994 H978 0.931 . S
C994 C988 1.383 . S
C994 C993 1.379 . S
H995 C989 0.959 . S
H996 C989 0.961 . S
H997 C989 0.960 . S
H998 C990 0.930 . S
H999 C991 0.929 . S
H1000 C1008 0.929 . S
H1001 C1010 0.930 . S
H1002 C1012 0.930 . S
H1003 C1015 0.929 . S
H1004 C1018 0.930 . S
H1005 C1020 0.960 . S
H1006 C1020 0.960 . S
H1007 C1020 0.960 . S
C1008 H1000 0.929 . S
C1008 C1009 1.377 . S
C1008 C1010 1.384 . S
C1009 C1008 1.377 . S
C1009 C1015 1.390 . S
C1010 H1001 0.930 . S
C1010 C1008 1.384 . S
C1010 C1011 1.372 . S
C1011 C1010 1.372 . S
C1011 C1012 1.400 . S
C1011 C1016 1.490 . S
C1012 H1002 0.930 . S
C1012 C1011 1.400 . S
C1012 C1015 1.386 . S
H1013 C1029 0.930 . S
H1014 C1030 0.931 . S
C1015 H1003 0.929 . S
C1015 C1009 1.390 . S
C1015 C1012 1.386 . S
C1016 C1011 1.490 . S
C1016 C1018 1.395 1_554 S
C1016 C1019 1.403 . S
H1017 C1023 0.930 . S
C1018 H1004 0.930 . S
C1018 C1016 1.395 1_556 S
C1018 C1021 1.403 . S
C1019 C1016 1.403 . S
C1019 C1020 1.524 . S
C1019 C1023 1.400 . S
C1020 H1005 0.960 . S
C1020 H1006 0.960 . S
C1020 H1007 0.960 . S
C1020 C1019 1.524 . S
C1021 C1018 1.403 . S
C1021 C1022 1.392 . S
C1021 C1025 1.495 . S
C1022 C1021 1.392 . S
C1022 C1023 1.385 1_556 S
C1022 C1024 1.478 . S
C1023 H1017 0.930 . S
C1023 C1019 1.400 . S
C1023 C1022 1.385 1_554 S
C1024 C1022 1.478 . S
C1024 C1026 1.381 . S
C1024 C1030 1.383 . S
C1025 C1021 1.495 . S
C1025 H1031 0.959 . S
C1025 H1032 0.961 . S
C1025 H1033 0.960 . S
C1026 C1024 1.381 . S
C1026 C1027 1.394 . S
C1026 H1034 0.930 . S
C1027 C1026 1.394 . S
C1027 C1028 1.383 . S
C1027 H1035 0.929 . S
C1028 C1027 1.383 . S
C1028 C1029 1.377 . S
C1029 H1013 0.930 . S
C1029 C1028 1.377 . S
C1029 C1030 1.379 . S
C1030 H1014 0.931 . S
C1030 C1024 1.383 . S
C1030 C1029 1.379 . S
H1031 C1025 0.959 . S
H1032 C1025 0.961 . S
H1033 C1025 0.960 . S
H1034 C1026 0.930 . S
H1035 C1027 0.929 . S
H1036 C1044 0.929 . S
H1037 C1046 0.930 . S
H1038 C1048 0.930 . S
H1039 C1051 0.929 . S
H1040 C1054 0.930 . S
H1041 C1056 0.960 . S
H1042 C1056 0.960 . S
H1043 C1056 0.960 . S
C1044 H1036 0.929 . S
C1044 C1045 1.377 . S
C1044 C1046 1.384 . S
C1045 C1044 1.377 . S
C1045 C1051 1.390 . S
C1046 H1037 0.930 . S
C1046 C1044 1.384 . S
C1046 C1047 1.372 . S
C1047 C1046 1.372 . S
C1047 C1048 1.400 . S
C1047 C1052 1.490 . S
C1048 H1038 0.930 . S
C1048 C1047 1.400 . S
C1048 C1051 1.386 . S
H1049 C1065 0.930 . S
H1050 C1066 0.931 . S
C1051 H1039 0.929 . S
C1051 C1045 1.390 . S
C1051 C1048 1.386 . S
C1052 C1047 1.490 . S
C1052 C1054 1.395 . S
C1052 C1055 1.403 . S
H1053 C1059 0.930 . S
C1054 H1040 0.930 . S
C1054 C1052 1.395 . S
C1054 C1057 1.403 . S
C1055 C1052 1.403 . S
C1055 C1056 1.524 . S
C1055 C1059 1.400 . S
C1056 H1041 0.960 . S
C1056 H1042 0.960 . S
C1056 H1043 0.960 . S
C1056 C1055 1.524 . S
C1057 C1054 1.403 . S
C1057 C1058 1.392 . S
C1057 C1061 1.495 . S
C1058 C1057 1.392 . S
C1058 C1059 1.385 . S
C1058 C1060 1.478 . S
C1059 H1053 0.930 . S
C1059 C1055 1.400 . S
C1059 C1058 1.385 . S
C1060 C1058 1.478 . S
C1060 C1062 1.381 . S
C1060 C1066 1.383 . S
C1061 C1057 1.495 . S
C1061 H1067 0.959 . S
C1061 H1068 0.961 . S
C1061 H1069 0.960 . S
C1062 C1060 1.381 . S
C1062 C1063 1.394 . S
C1062 H1070 0.930 . S
C1063 C1062 1.394 . S
C1063 C1064 1.383 . S
C1063 H1071 0.929 . S
C1064 C1063 1.383 . S
C1064 C1065 1.377 . S
C1065 H1049 0.930 . S
C1065 C1064 1.377 . S
C1065 C1066 1.379 . S
C1066 H1050 0.931 . S
C1066 C1060 1.383 . S
C1066 C1065 1.379 . S
H1067 C1061 0.959 . S
H1068 C1061 0.961 . S
H1069 C1061 0.960 . S
H1070 C1062 0.930 . S
H1071 C1063 0.929 . S
H1072 C1080 0.929 . S
H1073 C1082 0.930 . S
H1074 C1084 0.930 . S
H1075 C1087 0.929 . S
H1076 C1090 0.930 . S
H1077 C1092 0.960 . S
H1078 C1092 0.960 . S
H1079 C1092 0.960 . S
C1080 H1072 0.929 . S
C1080 C1081 1.377 . S
C1080 C1082 1.384 . S
C1081 C1080 1.377 . S
C1081 C1087 1.390 . S
C1082 H1073 0.930 . S
C1082 C1080 1.384 . S
C1082 C1083 1.372 . S
C1083 C1082 1.372 . S
C1083 C1084 1.400 . S
C1083 C1088 1.490 . S
C1084 H1074 0.930 . S
C1084 C1083 1.400 . S
C1084 C1087 1.386 . S
H1085 C1101 0.930 . S
H1086 C1102 0.931 . S
C1087 H1075 0.929 . S
C1087 C1081 1.390 . S
C1087 C1084 1.386 . S
C1088 C1083 1.490 . S
C1088 C1090 1.395 1_556 S
C1088 C1091 1.403 . S
H1089 C1095 0.930 . S
C1090 H1076 0.930 . S
C1090 C1088 1.395 1_554 S
C1090 C1093 1.403 . S
C1091 C1088 1.403 . S
C1091 C1092 1.524 . S
C1091 C1095 1.400 . S
C1092 H1077 0.960 . S
C1092 H1078 0.960 . S
C1092 H1079 0.960 . S
C1092 C1091 1.524 . S
C1093 C1090 1.403 . S
C1093 C1094 1.392 . S
C1093 C1097 1.495 . S
C1094 C1093 1.392 . S
C1094 C1095 1.385 1_554 S
C1094 C1096 1.478 . S
C1095 H1089 0.930 . S
C1095 C1091 1.400 . S
C1095 C1094 1.385 1_556 S
C1096 C1094 1.478 . S
C1096 C1098 1.381 . S
C1096 C1102 1.383 . S
C1097 C1093 1.495 . S
C1097 H1103 0.959 . S
C1097 H1104 0.961 . S
C1097 H1105 0.960 . S
C1098 C1096 1.381 . S
C1098 C1099 1.394 . S
C1098 H1106 0.930 . S
C1099 C1098 1.394 . S
C1099 C1100 1.383 . S
C1099 H1107 0.929 . S
C1100 C1099 1.383 . S
C1100 C1101 1.377 . S
C1101 H1085 0.930 . S
C1101 C1100 1.377 . S
C1101 C1102 1.379 . S
C1102 H1086 0.931 . S
C1102 C1096 1.383 . S
C1102 C1101 1.379 . S
H1103 C1097 0.959 . S
H1104 C1097 0.961 . S
H1105 C1097 0.960 . S
H1106 C1098 0.930 . S
H1107 C1099 0.929 . S
H1108 C1116 0.929 . S
H1109 C1118 0.930 . S
H1110 C1120 0.930 . S
H1111 C1123 0.929 . S
H1112 C1126 0.930 . S
H1113 C1128 0.960 . S
H1114 C1128 0.960 . S
H1115 C1128 0.960 . S
C1116 H1108 0.929 . S
C1116 C1117 1.377 . S
C1116 C1118 1.384 . S
C1117 C1116 1.377 . S
C1117 C1123 1.390 . S
C1118 H1109 0.930 . S
C1118 C1116 1.384 . S
C1118 C1119 1.372 . S
C1119 C1118 1.372 . S
C1119 C1120 1.400 . S
C1119 C1124 1.490 . S
C1120 H1110 0.930 . S
C1120 C1119 1.400 . S
C1120 C1123 1.386 . S
H1121 C1137 0.930 . S
H1122 C1138 0.931 . S
C1123 H1111 0.929 . S
C1123 C1117 1.390 . S
C1123 C1120 1.386 . S
C1124 C1119 1.490 . S
C1124 C1126 1.395 . S
C1124 C1127 1.403 . S
H1125 C1131 0.930 . S
C1126 H1112 0.930 . S
C1126 C1124 1.395 . S
C1126 C1129 1.403 . S
C1127 C1124 1.403 . S
C1127 C1128 1.524 . S
C1127 C1131 1.400 . S
C1128 H1113 0.960 . S
C1128 H1114 0.960 . S
C1128 H1115 0.960 . S
C1128 C1127 1.524 . S
C1129 C1126 1.403 . S
C1129 C1130 1.392 . S
C1129 C1133 1.495 . S
C1130 C1129 1.392 . S
C1130 C1131 1.385 . S
C1130 C1132 1.478 . S
C1131 H1125 0.930 . S
C1131 C1127 1.400 . S
C1131 C1130 1.385 . S
C1132 C1130 1.478 . S
C1132 C1134 1.381 . S
C1132 C1138 1.383 . S
C1133 C1129 1.495 . S
C1133 H1139 0.959 . S
C1133 H1140 0.961 . S
C1133 H1141 0.960 . S
C1134 C1132 1.381 . S
C1134 C1135 1.394 . S
C1134 H1142 0.930 . S
C1135 C1134 1.394 . S
C1135 C1136 1.383 . S
C1135 H1143 0.929 . S
C1136 C1135 1.383 . S
C1136 C1137 1.377 . S
C1137 H1121 0.930 . S
C1137 C1136 1.377 . S
C1137 C1138 1.379 . S
C1138 H1122 0.931 . S
C1138 C1132 1.383 . S
C1138 C1137 1.379 . S
H1139 C1133 0.959 . S
H1140 C1133 0.961 . S
H1141 C1133 0.960 . S
H1142 C1134 0.930 . S
H1143 C1135 0.929 . S
H1144 C1152 0.929 . S
H1145 C1154 0.930 1_556 S
H1146 C1156 0.930 . S
H1147 C1159 0.929 . S
H1148 C1162 0.930 . S
H1149 C1164 0.960 . S
H1150 C1164 0.960 . S
H1151 C1164 0.960 . S
C1152 H1144 0.929 . S
C1152 C1153 1.377 . S
C1152 C1154 1.384 . S
C1153 C1152 1.377 . S
C1153 C1159 1.390 . S
C1154 H1145 0.930 1_554 S
C1154 C1152 1.384 . S
C1154 C1155 1.372 . S
C1155 C1154 1.372 . S
C1155 C1156 1.400 . S
C1155 C1160 1.490 . S
C1156 H1146 0.930 . S
C1156 C1155 1.400 . S
C1156 C1159 1.386 . S
H1157 C1173 0.930 . S
H1158 C1174 0.931 1_554 S
C1159 H1147 0.929 . S
C1159 C1153 1.390 . S
C1159 C1156 1.386 . S
C1160 C1155 1.490 . S
C1160 C1162 1.395 1_554 S
C1160 C1163 1.403 . S
H1161 C1167 0.930 1_554 S
C1162 H1148 0.930 . S
C1162 C1160 1.395 1_556 S
C1162 C1165 1.403 . S
C1163 C1160 1.403 . S
C1163 C1164 1.524 . S
C1163 C1167 1.397 1_554 S
C1164 H1149 0.960 . S
C1164 H1150 0.960 . S
C1164 H1151 0.960 . S
C1164 C1163 1.524 . S
C1165 C1162 1.403 . S
C1165 C1166 1.392 . S
C1165 C1169 1.495 . S
C1166 C1165 1.392 . S
C1166 C1167 1.389 . S
C1166 C1168 1.478 . S
C1167 H1161 0.930 1_556 S
C1167 C1163 1.397 1_556 S
C1167 C1166 1.389 . S
C1168 C1166 1.478 . S
C1168 C1170 1.381 . S
C1168 C1174 1.383 . S
C1169 C1165 1.495 . S
C1169 H1175 0.959 . S
C1169 H1176 0.961 . S
C1169 H1177 0.960 . S
C1170 C1168 1.381 . S
C1170 C1171 1.394 . S
C1170 H1178 0.930 . S
C1171 C1170 1.394 . S
C1171 C1172 1.383 . S
C1171 H1179 0.929 . S
C1172 C1171 1.383 . S
C1172 C1173 1.377 . S
C1173 H1157 0.930 . S
C1173 C1172 1.377 . S
C1173 C1174 1.379 . S
C1174 H1158 0.931 1_556 S
C1174 C1168 1.383 . S
C1174 C1173 1.379 . S
H1175 C1169 0.959 . S
H1176 C1169 0.961 . S
H1177 C1169 0.960 . S
H1178 C1170 0.930 . S
H1179 C1171 0.929 . S
H1180 C1188 0.929 . S
H1181 C1190 0.930 . S
H1182 C1192 0.930 . S
H1183 C1195 0.929 . S
H1184 C1198 0.930 . S
H1185 C1200 0.960 . S
H1186 C1200 0.960 . S
H1187 C1200 0.960 . S
C1188 H1180 0.929 . S
C1188 C1189 1.377 . S
C1188 C1190 1.384 . S
C1189 C1188 1.377 . S
C1189 C1195 1.390 . S
C1190 H1181 0.930 . S
C1190 C1188 1.384 . S
C1190 C1191 1.372 . S
C1191 C1190 1.372 . S
C1191 C1192 1.400 . S
C1191 C1196 1.490 . S
C1192 H1182 0.930 . S
C1192 C1191 1.400 . S
C1192 C1195 1.386 . S
H1193 C1209 0.930 . S
H1194 C1210 0.931 . S
C1195 H1183 0.929 . S
C1195 C1189 1.390 . S
C1195 C1192 1.386 . S
C1196 C1191 1.490 . S
C1196 C1198 1.395 . S
C1196 C1199 1.403 . S
H1197 C1203 0.930 . S
C1198 H1184 0.930 . S
C1198 C1196 1.395 . S
C1198 C1201 1.403 . S
C1199 C1196 1.403 . S
C1199 C1200 1.524 . S
C1199 C1203 1.400 . S
C1200 H1185 0.960 . S
C1200 H1186 0.960 . S
C1200 H1187 0.960 . S
C1200 C1199 1.524 . S
C1201 C1198 1.403 . S
C1201 C1202 1.392 . S
C1201 C1205 1.495 . S
C1202 C1201 1.392 . S
C1202 C1203 1.385 . S
C1202 C1204 1.478 . S
C1203 H1197 0.930 . S
C1203 C1199 1.400 . S
C1203 C1202 1.385 . S
C1204 C1202 1.478 . S
C1204 C1206 1.381 . S
C1204 C1210 1.383 . S
C1205 C1201 1.495 . S
C1205 H1211 0.959 . S
C1205 H1212 0.961 . S
C1205 H1213 0.960 . S
C1206 C1204 1.381 . S
C1206 C1207 1.394 . S
C1206 H1214 0.930 . S
C1207 C1206 1.394 . S
C1207 C1208 1.383 . S
C1207 H1215 0.929 . S
C1208 C1207 1.383 . S
C1208 C1209 1.377 . S
C1209 H1193 0.930 . S
C1209 C1208 1.377 . S
C1209 C1210 1.379 . S
C1210 H1194 0.931 . S
C1210 C1204 1.383 . S
C1210 C1209 1.379 . S
H1211 C1205 0.959 . S
H1212 C1205 0.961 . S
H1213 C1205 0.960 . S
H1214 C1206 0.930 . S
H1215 C1207 0.929 . S
H1216 C1224 0.929 . S
H1217 C1226 0.930 . S
H1218 C1228 0.930 1_554 S
H1219 C1231 0.929 . S
H1220 C1234 0.930 . S
H1221 C1236 0.960 . S
H1222 C1236 0.960 1_556 S
H1223 C1236 0.960 . S
C1224 H1216 0.929 . S
C1224 C1225 1.377 . S
C1224 C1226 1.384 . S
C1225 C1224 1.377 . S
C1225 C1231 1.390 . S
C1226 H1217 0.930 . S
C1226 C1224 1.384 . S
C1226 C1227 1.372 . S
C1227 C1226 1.372 . S
C1227 C1228 1.400 . S
C1227 C1232 1.490 . S
C1228 H1218 0.930 1_556 S
C1228 C1227 1.400 . S
C1228 C1231 1.386 . S
H1229 C1245 0.930 . S
H1230 C1246 0.931 . S
C1231 H1219 0.929 . S
C1231 C1225 1.390 . S
C1231 C1228 1.386 . S
C1232 C1227 1.490 . S
C1232 C1234 1.395 . S
C1232 C1235 1.403 1_556 S
H1233 C1239 0.930 . S
C1234 H1220 0.930 . S
C1234 C1232 1.395 . S
C1234 C1237 1.403 1_545 S
C1235 C1232 1.403 1_554 S
C1235 C1236 1.524 . S
C1235 C1239 1.400 1_545 S
C1236 H1221 0.960 . S
C1236 H1222 0.960 1_554 S
C1236 H1223 0.960 . S
C1236 C1235 1.524 . S
C1237 C1234 1.403 1_565 S
C1237 C1238 1.392 1_556 S
C1237 C1241 1.495 . S
C1238 C1237 1.392 1_554 S
C1238 C1239 1.385 . S
C1238 C1240 1.478 . S
C1239 H1233 0.930 . S
C1239 C1235 1.400 1_565 S
C1239 C1238 1.385 . S
C1240 C1238 1.478 . S
C1240 C1242 1.381 . S
C1240 C1246 1.383 . S
C1241 C1237 1.495 . S
C1241 H1247 0.959 . S
C1241 H1248 0.961 . S
C1241 H1249 0.960 . S
C1242 C1240 1.381 . S
C1242 C1243 1.394 . S
C1242 H1250 0.930 1_554 S
C1243 C1242 1.394 . S
C1243 C1244 1.383 . S
C1243 H1251 0.929 . S
C1244 C1243 1.383 . S
C1244 C1245 1.377 . S
C1245 H1229 0.930 . S
C1245 C1244 1.377 . S
C1245 C1246 1.379 . S
C1246 H1230 0.931 . S
C1246 C1240 1.383 . S
C1246 C1245 1.379 . S
H1247 C1241 0.959 . S
H1248 C1241 0.961 . S
H1249 C1241 0.960 . S
H1250 C1242 0.930 1_556 S
H1251 C1243 0.929 . S
H1252 C1260 0.929 . S
H1253 C1262 0.930 . S
H1254 C1264 0.930 . S
H1255 C1267 0.929 . S
H1256 C1270 0.930 . S
H1257 C1272 0.960 . S
H1258 C1272 0.960 . S
H1259 C1272 0.960 . S
C1260 H1252 0.929 . S
C1260 C1261 1.377 . S
C1260 C1262 1.384 . S
C1261 C1260 1.377 . S
C1261 C1267 1.390 . S
C1262 H1253 0.930 . S
C1262 C1260 1.384 . S
C1262 C1263 1.372 . S
C1263 C1262 1.372 . S
C1263 C1264 1.400 . S
C1263 C1268 1.490 . S
C1264 H1254 0.930 . S
C1264 C1263 1.400 . S
C1264 C1267 1.386 . S
H1265 C1281 0.930 . S
H1266 C1282 0.931 . S
C1267 H1255 0.929 . S
C1267 C1261 1.390 . S
C1267 C1264 1.386 . S
C1268 C1263 1.490 . S
C1268 C1270 1.395 . S
C1268 C1271 1.403 . S
H1269 C1275 0.930 . S
C1270 H1256 0.930 . S
C1270 C1268 1.395 . S
C1270 C1273 1.403 1_565 S
C1271 C1268 1.403 . S
C1271 C1272 1.524 . S
C1271 C1275 1.400 1_565 S
C1272 H1257 0.960 . S
C1272 H1258 0.960 . S
C1272 H1259 0.960 . S
C1272 C1271 1.524 . S
C1273 C1270 1.403 1_545 S
C1273 C1274 1.392 . S
C1273 C1277 1.495 . S
C1274 C1273 1.392 . S
C1274 C1275 1.385 . S
C1274 C1276 1.478 . S
C1275 H1269 0.930 . S
C1275 C1271 1.400 1_545 S
C1275 C1274 1.385 . S
C1276 C1274 1.478 . S
C1276 C1278 1.381 . S
C1276 C1282 1.383 . S
C1277 C1273 1.495 . S
C1277 H1283 0.959 . S
C1277 H1284 0.961 . S
C1277 H1285 0.960 . S
C1278 C1276 1.381 . S
C1278 C1279 1.394 . S
C1278 H1286 0.930 . S
C1279 C1278 1.394 . S
C1279 C1280 1.383 . S
C1279 H1287 0.929 . S
C1280 C1279 1.383 . S
C1280 C1281 1.377 . S
C1281 H1265 0.930 . S
C1281 C1280 1.377 . S
C1281 C1282 1.379 . S
C1282 H1266 0.931 . S
C1282 C1276 1.383 . S
C1282 C1281 1.379 . S
H1283 C1277 0.959 . S
H1284 C1277 0.961 . S
H1285 C1277 0.960 . S
H1286 C1278 0.930 . S
H1287 C1279 0.929 . S
H1288 C1296 0.929 . S
H1289 C1298 0.930 . S
H1290 C1300 0.930 . S
H1291 C1303 0.929 . S
H1292 C1306 0.930 . S
H1293 C1308 0.960 . S
H1294 C1308 0.960 . S
H1295 C1308 0.960 . S
C1296 H1288 0.929 . S
C1296 C1297 1.377 . S
C1296 C1298 1.384 . S
C1297 C1296 1.377 . S
C1297 C1303 1.390 . S
C1298 H1289 0.930 . S
C1298 C1296 1.384 . S
C1298 C1299 1.372 . S
C1299 C1298 1.372 . S
C1299 C1300 1.400 . S
C1299 C1304 1.490 . S
C1300 H1290 0.930 . S
C1300 C1299 1.400 . S
C1300 C1303 1.386 . S
H1301 C1317 0.930 . S
H1302 C1318 0.931 . S
C1303 H1291 0.929 . S
C1303 C1297 1.390 . S
C1303 C1300 1.386 . S
C1304 C1299 1.490 . S
C1304 C1306 1.395 . S
C1304 C1307 1.403 1_554 S
H1305 C1311 0.930 . S
C1306 H1292 0.930 . S
C1306 C1304 1.395 . S
C1306 C1309 1.403 1_565 S
C1307 C1304 1.403 1_556 S
C1307 C1308 1.524 . S
C1307 C1311 1.400 1_565 S
C1308 H1293 0.960 . S
C1308 H1294 0.960 . S
C1308 H1295 0.960 . S
C1308 C1307 1.524 . S
C1309 C1306 1.403 1_545 S
C1309 C1310 1.392 1_554 S
C1309 C1313 1.495 . S
C1310 C1309 1.392 1_556 S
C1310 C1311 1.385 . S
C1310 C1312 1.478 . S
C1311 H1305 0.930 . S
C1311 C1307 1.400 1_545 S
C1311 C1310 1.385 . S
C1312 C1310 1.478 . S
C1312 C1314 1.381 . S
C1312 C1318 1.383 . S
C1313 C1309 1.495 . S
C1313 H1319 0.959 . S
C1313 H1320 0.961 . S
C1313 H1321 0.960 . S
C1314 C1312 1.381 . S
C1314 C1315 1.394 . S
C1314 H1322 0.930 . S
C1315 C1314 1.394 . S
C1315 C1316 1.383 . S
C1315 H1323 0.929 . S
C1316 C1315 1.383 . S
C1316 C1317 1.377 . S
C1317 H1301 0.930 . S
C1317 C1316 1.377 . S
C1317 C1318 1.379 . S
C1318 H1302 0.931 . S
C1318 C1312 1.383 . S
C1318 C1317 1.379 . S
H1319 C1313 0.959 . S
H1320 C1313 0.961 . S
H1321 C1313 0.960 . S
H1322 C1314 0.930 . S
H1323 C1315 0.929 . S
H1324 C1332 0.929 . S
H1325 C1334 0.930 . S
H1326 C1336 0.930 . S
H1327 C1339 0.929 . S
H1328 C1342 0.930 . S
H1329 C1344 0.960 . S
H1330 C1344 0.960 . S
H1331 C1344 0.960 . S
C1332 H1324 0.929 . S
C1332 C1333 1.377 . S
C1332 C1334 1.384 . S
C1333 C1332 1.377 . S
C1333 C1339 1.390 . S
C1334 H1325 0.930 . S
C1334 C1332 1.384 . S
C1334 C1335 1.372 . S
C1335 C1334 1.372 . S
C1335 C1336 1.400 . S
C1335 C1340 1.490 . S
C1336 H1326 0.930 . S
C1336 C1335 1.400 . S
C1336 C1339 1.386 . S
H1337 C1353 0.930 . S
H1338 C1354 0.931 . S
C1339 H1327 0.929 . S
C1339 C1333 1.390 . S
C1339 C1336 1.386 . S
C1340 C1335 1.490 . S
C1340 C1342 1.395 . S
C1340 C1343 1.403 . S
H1341 C1347 0.930 . S
C1342 H1328 0.930 . S
C1342 C1340 1.395 . S
C1342 C1345 1.403 1_545 S
C1343 C1340 1.403 . S
C1343 C1344 1.524 . S
C1343 C1347 1.400 1_545 S
C1344 H1329 0.960 . S
C1344 H1330 0.960 . S
C1344 H1331 0.960 . S
C1344 C1343 1.524 . S
C1345 C1342 1.403 1_565 S
C1345 C1346 1.392 . S
C1345 C1349 1.495 . S
C1346 C1345 1.392 . S
C1346 C1347 1.385 . S
C1346 C1348 1.478 . S
C1347 H1341 0.930 . S
C1347 C1343 1.400 1_565 S
C1347 C1346 1.385 . S
C1348 C1346 1.478 . S
C1348 C1350 1.381 . S
C1348 C1354 1.383 . S
C1349 C1345 1.495 . S
C1349 H1355 0.959 . S
C1349 H1356 0.961 . S
C1349 H1357 0.960 . S
C1350 C1348 1.381 . S
C1350 C1351 1.394 . S
C1350 H1358 0.930 . S
C1351 C1350 1.394 . S
C1351 C1352 1.383 . S
C1351 H1359 0.929 . S
C1352 C1351 1.383 . S
C1352 C1353 1.377 . S
C1353 H1337 0.930 . S
C1353 C1352 1.377 . S
C1353 C1354 1.379 . S
C1354 H1338 0.931 . S
C1354 C1348 1.383 . S
C1354 C1353 1.379 . S
H1355 C1349 0.959 . S
H1356 C1349 0.961 . S
H1357 C1349 0.960 . S
H1358 C1350 0.930 . S
H1359 C1351 0.929 . S
C217 C3 1.449 . S
C236 C83 1.442 . S
C253 C16 1.449 . S
C272 C96 1.439 . S
C289 C55 1.447 . S
C308 C31 1.450 . S
C325 C70 1.448 . S
C344 C44 1.443 . S
C361 C187 1.447 . S
C380 C109 1.437 . S
C397 C200 1.446 . S
C416 C120 1.439 . S
C433 C135 1.448 . S
C452 C161 1.435 . S
C469 C146 1.446 . S
C488 C174 1.449 . S
C505 C4 1.556 . S
C524 C68 1.554 . S
C541 C17 1.551 . S
C560 C57 1.549 . S
C577 C36 1.551 . S
C596 C94 1.542 . S
C613 C81 1.551 . S
C632 C49 1.545 . S
C649 C172 1.554 . S
C668 C114 1.562 . S
C685 C159 1.553 . S
C704 C121 1.559 . S
C721 C140 1.551 . S
C740 C198 1.548 . S
C757 C185 1.554 . S
C776 C147 1.542 . S
C793 C160 1.456 . S
C812 C10 1.447 . S
C829 C23 1.460 . S
C848 C173 1.455 . S
C865 C186 1.459 . S
C884 C30 1.462 . S
C901 C199 1.457 . S
C920 C43 1.460 . S
C937 C108 1.457 . S
C956 C62 1.452 . S
C973 C127 1.458 . S
C992 C69 1.455 . S
C1009 C82 1.457 . S
C1028 C134 1.462 . S
C1045 C95 1.458 . S
C1064 C153 1.456 . S
C1081 C29 1.779 . S
C1100 C5 1.769 . S
C1117 C18 1.781 . S
C1136 C42 1.783 . S
C1153 C88 1.302 . S
C1172 C56 1.305 . S
C1189 C75 1.305 . S
C1208 C101 1.304 . S
C1225 C133 1.779 . S
C1244 C107 1.778 . S
C1261 C148 1.781 . S
C1280 C122 1.783 . S
C1297 C192 1.305 . S
C1316 C166 1.310 . S
C1333 C205 1.304 . S
C1352 C179 1.311 . S
