# Generated by pormake.
# Topology uoj, (4)-cn, num edge types: 1
# Building blocks:
#     Node 0, Type 0, BuildingBlock: ESEHIV_clean_sbu_0, # of connection points: 4
#     Node 1, Type 0, BuildingBlock: ESEHIV_clean_sbu_0, # of connection points: 4
#     Node 2, Type 0, BuildingBlock: ESEHIV_clean_sbu_0, # of connection points: 4
#     Node 3, Type 0, BuildingBlock: ESEHIV_clean_sbu_0, # of connection points: 4
#     Node 4, Type 0, BuildingBlock: ESEHIV_clean_sbu_0, # of connection points: 4
#     Node 5, Type 0, BuildingBlock: ESEHIV_clean_sbu_0, # of connection points: 4
#     Node 6, Type 0, BuildingBlock: ESEHIV_clean_sbu_0, # of connection points: 4
#     Node 7, Type 0, BuildingBlock: ESEHIV_clean_sbu_0, # of connection points: 4
#     Edge 8, Type (0, 0), BuildingBlock: XIVTED_clean_linker_0, # of connection points: 2
#     Edge 9, Type (0, 0), BuildingBlock: XIVTED_clean_linker_0, # of connection points: 2
#     Edge 10, Type (0, 0), BuildingBlock: XIVTED_clean_linker_0, # of connection points: 2
#     Edge 11, Type (0, 0), BuildingBlock: XIVTED_clean_linker_0, # of connection points: 2
#     Edge 12, Type (0, 0), BuildingBlock: XIVTED_clean_linker_0, # of connection points: 2
#     Edge 13, Type (0, 0), BuildingBlock: XIVTED_clean_linker_0, # of connection points: 2
#     Edge 14, Type (0, 0), BuildingBlock: XIVTED_clean_linker_0, # of connection points: 2
#     Edge 15, Type (0, 0), BuildingBlock: XIVTED_clean_linker_0, # of connection points: 2
#     Edge 16, Type (0, 0), BuildingBlock: XIVTED_clean_linker_0, # of connection points: 2
#     Edge 17, Type (0, 0), BuildingBlock: XIVTED_clean_linker_0, # of connection points: 2
#     Edge 18, Type (0, 0), BuildingBlock: XIVTED_clean_linker_0, # of connection points: 2
#     Edge 19, Type (0, 0), BuildingBlock: XIVTED_clean_linker_0, # of connection points: 2
#     Edge 20, Type (0, 0), BuildingBlock: XIVTED_clean_linker_0, # of connection points: 2
#     Edge 21, Type (0, 0), BuildingBlock: XIVTED_clean_linker_0, # of connection points: 2
#     Edge 22, Type (0, 0), BuildingBlock: XIVTED_clean_linker_0, # of connection points: 2
#     Edge 23, Type (0, 0), BuildingBlock: XIVTED_clean_linker_0, # of connection points: 2
# Relax obj value: 0.035
# Max RMSD: 0.223
# Mean RMSD: 0.223
data_MOF--net-uoj--node1-ESEHIV_clean_sbu_0--edge1-XIVTED_clean_linker_0
_symmetry_space_group_name_H-M    P1
_symmetry_Int_Tables_number       1
_symmetry_cell_setting            triclinic
loop_
_symmetry_equiv_pos_as_xyz
'x, y, z'
_cell_length_a     35.051075
_cell_length_b     35.050826
_cell_length_c     44.830462
_cell_angle_alpha  89.926999
_cell_angle_beta   89.864194
_cell_angle_gamma 90.038059
loop_
_atom_site_label
_atom_site_type_symbol
_atom_site_fract_x
_atom_site_fract_y
_atom_site_fract_z
_atom_type_partial_charge
Cu0 Cu 0.04478 0.30939 0.43576 0.0
N1 N 0.99657 0.28725 0.43276 0.0
N2 N 0.94318 0.25589 0.4449 0.0
C3 C 0.9795 0.26405 0.45273 0.0
C4 C 0.93733 0.27462 0.41899 0.0
C5 C 0.97034 0.29388 0.41155 0.0
O6 O 0.07303 0.28206 0.46642 0.0
C7 C 0.05627 0.38359 0.46231 0.0
O8 O 0.08331 0.36778 0.47833 0.0
H9 H 0.99298 0.25456 0.47313 0.0
H10 H 0.97469 0.31217 0.39238 0.0
N11 N 0.07062 0.30436 0.39953 0.0
N12 N 0.1033 0.31836 0.35806 0.0
C13 C 0.08268 0.33233 0.3811 0.0
C14 C 0.08381 0.27168 0.38772 0.0
C15 C 0.10404 0.2802 0.36217 0.0
C16 C 0.10925 0.28318 0.46822 0.0
O17 O 0.12848 0.3057 0.45019 0.0
H18 H 0.07759 0.36235 0.3851 0.0
H19 H 0.07968 0.24371 0.39743 0.0
O20 O 0.03746 0.36337 0.44396 0.0
H21 H 0.91102 0.2746 0.40639 0.0
H22 H 0.1183 0.2599 0.34781 0.0
Cu23 Cu 0.30619 0.99456 0.60367 0.0
N24 N 0.2847 0.04314 0.606 0.0
N25 N 0.25383 0.09655 0.59342 0.0
C26 C 0.26016 0.05949 0.58673 0.0
C27 C 0.27507 0.10363 0.61786 0.0
C28 C 0.294 0.07062 0.6256 0.0
O29 O 0.27818 0.96547 0.57382 0.0
C30 C 0.38284 0.9745 0.58713 0.0
O31 O 0.36995 0.93944 0.58503 0.0
H32 H 0.24859 0.04503 0.56744 0.0
H33 H 0.31409 0.06713 0.64367 0.0
N34 N 0.30161 0.97024 0.64061 0.0
N35 N 0.31557 0.93819 0.68231 0.0
C36 C 0.32966 0.95743 0.65856 0.0
C37 C 0.2688 0.95903 0.65352 0.0
C38 C 0.27729 0.93918 0.67919 0.0
C39 C 0.27646 0.92918 0.57421 0.0
O40 O 0.29588 0.91017 0.59436 0.0
H41 H 0.35973 0.96093 0.65374 0.0
H42 H 0.2407 0.96417 0.64443 0.0
O43 O 0.35996 1.00126 0.59401 0.0
H44 H 0.27719 0.13087 0.62909 0.0
H45 H 0.25689 0.92628 0.69431 0.0
Cu46 Cu 0.98803 0.73546 0.43391 0.0
N47 N 0.03784 0.75443 0.43424 0.0
N48 N 0.09147 0.7837 0.44842 0.0
C49 C 0.05361 0.77961 0.45331 0.0
C50 C 0.09965 0.76041 0.42533 0.0
C51 C 0.06652 0.74251 0.4166 0.0
O52 O 0.95558 0.76563 0.45997 0.0
C53 C 1.01352 0.66681 0.46148 0.0
O54 O 0.03892 0.68892 0.47427 0.0
H55 H 0.03803 0.79338 0.47116 0.0
H56 H 0.06364 0.72142 0.39915 0.0
N57 N 0.96827 0.73982 0.39547 0.0
N58 N 0.93897 0.72588 0.35262 0.0
C59 C 0.95471 0.7118 0.37783 0.0
C60 C 0.96113 0.77258 0.38088 0.0
C61 C 0.94299 0.7641 0.35447 0.0
C62 C 0.95675 0.7655 0.48833 0.0
O63 O 0.98107 0.74306 0.50205 0.0
H64 H 0.95493 0.68191 0.38393 0.0
H65 H 0.96774 0.80071 0.38932 0.0
O66 O 0.98844 0.6816 0.44453 0.0
H67 H 0.12768 0.7563 0.41566 0.0
H68 H 0.93314 0.78449 0.33806 0.0
Cu69 Cu 0.73381 0.04909 0.60714 0.0
N70 N 0.75603 1.00097 0.61111 0.0
N71 N 0.78977 0.94867 0.60008 0.0
C72 C 0.77748 0.98309 0.59047 0.0
C73 C 0.77551 0.94494 0.62796 0.0
C74 C 0.75467 0.97724 0.63467 0.0
O75 O 0.76247 0.07638 0.57682 0.0
C76 C 0.66618 1.01635 0.58302 0.0
O77 O 0.68934 0.99003 0.57267 0.0
H78 H 0.78424 0.99542 0.56895 0.0
H79 H 0.73957 0.98305 0.65524 0.0
N80 N 0.73829 0.0758 0.64292 0.0
N81 N 0.72365 0.10852 0.68415 0.0
C82 C 0.71013 0.08712 0.66143 0.0
C83 C 0.77063 0.09028 0.65433 0.0
C84 C 0.76171 0.11051 0.67974 0.0
C85 C 0.75386 0.10952 0.56746 0.0
O86 O 0.72264 0.12602 0.57731 0.0
H87 H 0.68027 0.08088 0.65773 0.0
H88 H 0.79862 0.08694 0.64447 0.0
O89 O 0.67991 0.04446 0.5974 0.0
H90 H 0.77937 0.92045 0.64236 0.0
H91 H 0.78171 0.12561 0.69381 0.0
Cu92 Cu 0.49521 0.80882 0.93202 0.0
N93 N 0.54583 0.79393 0.93802 0.0
N94 N 0.59776 0.76226 0.95286 0.0
C95 C 0.55979 0.76032 0.94781 0.0
C96 C 0.60805 0.79815 0.94546 0.0
C97 C 0.57604 0.8175 0.93623 0.0
O98 O 0.46004 0.78095 0.95777 0.0
C99 C 0.50128 0.88032 0.96229 0.0
O100 O 0.51196 0.86005 0.98547 0.0
H101 H 0.54221 0.73568 0.95272 0.0
H102 H 0.57457 0.84718 0.92971 0.0
N103 N 0.48116 0.79993 0.89254 0.0
N104 N 0.45629 0.80963 0.84729 0.0
C105 C 0.46747 0.82589 0.87314 0.0
C106 C 0.47881 0.76613 0.87851 0.0
C107 C 0.46339 0.772 0.85058 0.0
C108 C 0.46769 0.76861 0.98381 0.0
O109 O 0.50118 0.7758 0.99561 0.0
H110 H 0.46419 0.85585 0.8784 0.0
H111 H 0.48672 0.73903 0.88826 0.0
O112 O 0.49188 0.86344 0.93831 0.0
H113 H 0.63655 0.80983 0.94723 0.0
H114 H 0.45741 0.75022 0.83415 0.0
Cu115 Cu 0.80181 0.54111 0.10722 0.0
N116 N 0.78669 0.4902 0.10333 0.0
N117 N 0.75942 0.43618 0.08753 0.0
C118 C 0.75843 0.47476 0.0869 0.0
C119 C 0.78904 0.42719 0.10539 0.0
C120 C 0.80568 0.46048 0.11509 0.0
O121 O 0.77268 0.57557 0.08196 0.0
C122 C 0.87251 0.52776 0.07746 0.0
O123 O 0.85194 0.50906 0.05786 0.0
H124 H 0.7385 0.49136 0.07387 0.0
H125 H 0.83068 0.46297 0.12906 0.0
N126 N 0.79468 0.55677 0.14658 0.0
N127 N 0.80606 0.58326 0.191 0.0
C128 C 0.82146 0.57055 0.16521 0.0
C129 C 0.76128 0.56063 0.16107 0.0
C130 C 0.76819 0.57705 0.18848 0.0
C131 C 0.76428 0.57061 0.05463 0.0
O132 O 0.77626 0.53995 0.04066 0.0
H133 H 0.85137 0.57286 0.15941 0.0
H134 H 0.73375 0.55312 0.15193 0.0
O135 O 0.85604 0.54441 0.09915 0.0
H136 H 0.79838 0.39859 0.11079 0.0
H137 H 0.74694 0.58438 0.20507 0.0
Cu138 Cu 0.5353 0.23625 0.93141 0.0
N139 N 0.48438 0.2509 0.93468 0.0
N140 N 0.43189 0.2816 0.94957 0.0
C141 C 0.47038 0.28246 0.94787 0.0
C142 C 0.42139 0.24834 0.93687 0.0
C143 C 0.45384 0.22951 0.92766 0.0
O144 O 0.56501 0.26503 0.96005 0.0
C145 C 0.52923 0.16555 0.96242 0.0
O146 O 0.51963 0.18654 0.9855 0.0
H147 H 0.4881 0.30465 0.95732 0.0
H148 H 0.45522 0.20156 0.91752 0.0
N149 N 0.5537 0.24618 0.89313 0.0
N150 N 0.5822 0.23759 0.84898 0.0
C151 C 0.5686 0.22065 0.87393 0.0
C152 C 0.55783 0.28041 0.87994 0.0
C153 C 0.57545 0.27522 0.8527 0.0
C154 C 0.60063 0.25983 0.96341 0.0
O155 O 0.61772 0.23298 0.94794 0.0
H156 H 0.57071 0.19044 0.87868 0.0
H157 H 0.54936 0.30728 0.88976 0.0
O158 O 0.53819 0.18173 0.93799 0.0
H159 H 0.39237 0.23809 0.93483 0.0
H160 H 0.58292 0.29746 0.83696 0.0
Cu161 Cu 0.22894 0.49982 0.10705 0.0
N162 N 0.2437 0.55053 0.10104 0.0
N163 N 0.2745 0.60298 0.08585 0.0
C164 C 0.27693 0.56497 0.09076 0.0
C165 C 0.23871 0.61277 0.09389 0.0
C166 C 0.2199 0.58046 0.10328 0.0
O167 O 0.25602 0.46469 0.0808 0.0
C168 C 0.15758 0.50102 0.07631 0.0
O169 O 0.17805 0.50502 0.05194 0.0
H170 H 0.30161 0.54771 0.08542 0.0
H171 H 0.19038 0.5786 0.11024 0.0
N172 N 0.23832 0.48537 0.1464 0.0
N173 N 0.22918 0.46012 0.19168 0.0
C174 C 0.21264 0.4712 0.1659 0.0
C175 C 0.27222 0.48341 0.16029 0.0
C176 C 0.2667 0.46776 0.18823 0.0
C177 C 0.26844 0.47284 0.05485 0.0
O178 O 0.26198 0.50682 0.04358 0.0
H179 H 0.18269 0.4676 0.16078 0.0
H180 H 0.29916 0.49184 0.15045 0.0
O181 O 0.17422 0.49711 0.1013 0.0
H182 H 0.22668 0.64115 0.09245 0.0
H183 H 0.28864 0.46208 0.20459 0.0
H184 H 0.15662 0.46999 0.21154 0.0
H185 H 0.16951 0.30037 0.33011 0.0
H186 H 0.26001 0.40717 0.22866 0.0
H187 H 0.08025 0.38488 0.33269 0.0
H188 H 0.20066 0.33605 0.28999 0.0
H189 H 0.12569 0.43625 0.25304 0.0
C190 C 0.17278 0.44909 0.22402 0.0
C191 C 0.21096 0.4414 0.21663 0.0
C192 C 0.17431 0.34689 0.29936 0.0
C193 C 0.17576 0.4026 0.26401 0.0
C194 C 0.15637 0.32637 0.32213 0.0
C195 C 0.12215 0.3396 0.3347 0.0
C196 C 0.15771 0.3807 0.28872 0.0
C197 C 0.10672 0.37383 0.32376 0.0
C198 C 0.1552 0.43001 0.24778 0.0
C199 C 0.23069 0.41429 0.23375 0.0
N200 N 0.12446 0.39307 0.30124 0.0
N201 N 0.2128 0.3957 0.25646 0.0
H202 H 0.2958 0.87315 0.71114 0.0
H203 H 0.46751 0.88197 0.82742 0.0
H204 H 0.38362 0.9591 0.70616 0.0
H205 H 0.40251 0.77978 0.81068 0.0
H206 H 0.43409 0.91353 0.78616 0.0
H207 H 0.33131 0.84128 0.75088 0.0
C208 C 0.3225 0.8854 0.71852 0.0
C209 C 0.33672 0.91891 0.7054 0.0
C210 C 0.42732 0.88414 0.79144 0.0
C211 C 0.37759 0.88256 0.75094 0.0
C212 C 0.44621 0.86621 0.81507 0.0
C213 C 0.4378 0.82818 0.82248 0.0
C214 C 0.39935 0.8641 0.77543 0.0
C215 C 0.41018 0.80896 0.80555 0.0
C216 C 0.3429 0.86706 0.74106 0.0
C217 C 0.3718 0.93321 0.71555 0.0
N218 N 0.39176 0.82719 0.783 0.0
N219 N 0.39091 0.91513 0.73789 0.0
H220 H 0.87751 0.7488 0.32086 0.0
H221 H 0.87791 0.57016 0.21096 0.0
H222 H 0.9559 0.65515 0.3318 0.0
H223 H 0.77877 0.64047 0.22559 0.0
H224 H 0.91089 0.6044 0.25116 0.0
H225 H 0.84484 0.71313 0.2816 0.0
C226 C 0.88796 0.72079 0.31485 0.0
C227 C 0.91951 0.70492 0.32954 0.0
C228 C 0.88185 0.61216 0.24562 0.0
C229 C 0.88229 0.66392 0.28459 0.0
C230 C 0.86314 0.59281 0.22262 0.0
C231 C 0.82553 0.60244 0.215 0.0
C232 C 0.86305 0.64183 0.2607 0.0
C233 C 0.80757 0.63184 0.23096 0.0
C234 C 0.86915 0.70033 0.29261 0.0
C235 C 0.93153 0.66825 0.32115 0.0
N236 N 0.82658 0.65067 0.25287 0.0
N237 N 0.91309 0.64907 0.29905 0.0
H238 H 0.63737 0.26835 0.81381 0.0
H239 H 0.65734 0.08426 0.70939 0.0
H240 H 0.57212 0.16554 0.82806 0.0
H241 H 0.74042 0.17497 0.71216 0.0
H242 H 0.6215 0.11599 0.74936 0.0
H243 H 0.67111 0.23703 0.77285 0.0
C244 C 0.62992 0.23927 0.80819 0.0
C245 C 0.60185 0.21956 0.82443 0.0
C246 C 0.64761 0.12889 0.74122 0.0
C247 C 0.64055 0.18337 0.77754 0.0
C248 C 0.66793 0.11091 0.7183 0.0
C249 C 0.70201 0.1269 0.70749 0.0
C250 C 0.66119 0.16337 0.75314 0.0
C251 C 0.71461 0.16134 0.72007 0.0
C252 C 0.6494 0.22129 0.78493 0.0
C253 C 0.59381 0.18167 0.81635 0.0
N254 N 0.69416 0.17846 0.7421 0.0
N255 N 0.61296 0.16485 0.79342 0.0
H256 H 0.1882 0.08324 0.56325 0.0
H257 H 0.18312 0.28862 0.48736 0.0
H258 H 0.26894 0.17166 0.58508 0.0
H259 H 0.08235 0.2186 0.49576 0.0
H260 H 0.21767 0.2436 0.51918 0.0
H261 H 0.15149 0.12978 0.53405 0.0
C262 C 0.19817 0.11243 0.56184 0.0
C263 C 0.23158 0.12365 0.57663 0.0
C264 C 0.18793 0.23824 0.5142 0.0
C265 C 0.19005 0.17686 0.5432 0.0
C266 C 0.16821 0.26387 0.496 0.0
C267 C 0.12977 0.2574 0.48891 0.0
C268 C 0.16932 0.20548 0.52496 0.0
C269 C 0.1119 0.22482 0.50077 0.0
C270 C 0.17715 0.13899 0.54537 0.0
C271 C 0.24314 0.16191 0.5743 0.0
N272 N 0.13192 0.19988 0.51797 0.0
N273 N 0.22261 0.18705 0.5577 0.0
H274 H 0.27892 0.85382 0.55894 0.0
H275 H 0.07898 0.85205 0.4751 0.0
H276 H 0.21521 0.95712 0.54299 0.0
H277 H 0.16486 0.76592 0.46101 0.0
H278 H 0.12509 0.88901 0.50454 0.0
H279 H 0.23418 0.819 0.52722 0.0
C280 C 0.25559 0.86921 0.54867 0.0
C281 C 0.25083 0.90845 0.55358 0.0
C282 C 0.13382 0.86209 0.49486 0.0
C283 C 0.19917 0.86861 0.51761 0.0
C284 C 0.10749 0.84094 0.47826 0.0
C285 C 0.11817 0.80596 0.46555 0.0
C286 C 0.17082 0.84776 0.49924 0.0
C287 C 0.15558 0.79294 0.47012 0.0
C288 C 0.23012 0.84933 0.53052 0.0
C289 C 0.22007 0.92693 0.53966 0.0
N290 N 0.18044 0.81367 0.48677 0.0
N291 N 0.19517 0.90677 0.52253 0.0
H292 H 0.79635 0.94131 0.53993 0.0
H293 H 0.95057 0.77289 0.54921 0.0
H294 H 0.8366 0.89409 0.62303 0.0
H295 H 0.90537 0.81742 0.46672 0.0
H296 H 0.90936 0.8169 0.57681 0.0
H297 H 0.83663 0.89632 0.51294 0.0
C298 C 0.81379 0.92164 0.55256 0.0
C299 C 0.8131 0.92171 0.58389 0.0
C300 C 0.90843 0.81697 0.55267 0.0
C301 C 0.85925 0.86959 0.55296 0.0
C302 C 0.93196 0.79183 0.53688 0.0
C303 C 0.9315 0.7914 0.50556 0.0
C304 C 0.88429 0.84197 0.53706 0.0
C305 C 0.90675 0.81666 0.49083 0.0
C306 C 0.83666 0.89573 0.53709 0.0
C307 C 0.83589 0.89492 0.59893 0.0
N308 N 0.88426 0.84089 0.50668 0.0
N309 N 0.85809 0.87006 0.58335 0.0
H310 H 0.74197 0.17712 0.53788 0.0
H311 H 0.95751 0.19549 0.48106 0.0
H312 H 0.82662 0.08947 0.55156 0.0
H313 H 0.86632 0.26546 0.44693 0.0
H314 H 0.91074 0.15879 0.50988 0.0
H315 H 0.78774 0.21224 0.50689 0.0
C316 C 0.77009 0.16517 0.53429 0.0
C317 C 0.78043 0.13028 0.54738 0.0
C318 C 0.90094 0.18208 0.49599 0.0
C319 C 0.83308 0.17053 0.51218 0.0
C320 C 0.92766 0.20317 0.47969 0.0
C321 C 0.91582 0.23358 0.46155 0.0
C322 C 0.86208 0.19174 0.49449 0.0
C323 C 0.87667 0.24201 0.46036 0.0
C324 C 0.79619 0.18521 0.51656 0.0
C325 C 0.81732 0.1162 0.5419 0.0
N326 N 0.85125 0.22138 0.47674 0.0
N327 N 0.84234 0.13647 0.52491 0.0
H328 H 0.26077 0.66287 0.04923 0.0
H329 H 0.47951 0.72336 0.03292 0.0
H330 H 0.35176 0.59857 0.08984 0.0
H331 H 0.39172 0.75938 0.9717 0.0
H332 H 0.4327 0.68273 0.05843 0.0
H333 H 0.30799 0.70389 0.02515 0.0
C334 C 0.29073 0.65758 0.05329 0.0
C335 C 0.30236 0.62735 0.07171 0.0
C336 C 0.42376 0.69956 0.03942 0.0
C337 C 0.35669 0.67422 0.04403 0.0
C338 C 0.45037 0.7229 0.02493 0.0
C339 C 0.43952 0.74483 1.00011 0.0
C340 C 0.3859 0.69855 0.02928 0.0
C341 C 0.40141 0.74292 0.99067 0.0
C342 C 0.31769 0.68084 0.03933 0.0
C343 C 0.34163 0.62143 0.07569 0.0
N344 N 0.37598 0.72033 1.00533 0.0
N345 N 0.36744 0.6448 0.06209 0.0
H346 H 0.75012 0.64429 0.07105 0.0
H347 H 0.5936 0.68534 0.94634 0.0
H348 H 0.72342 0.56169 1.00289 0.0
H349 H 0.65608 0.77433 0.99111 0.0
H350 H 0.63472 0.63762 0.97057 0.0
H351 H 0.70946 0.69068 0.04572 0.0
C352 C 0.7357 0.63589 0.05074 0.0
C353 C 0.74027 0.59907 0.03902 0.0
C354 C 0.63944 0.66764 0.97493 0.0
C355 C 0.69331 0.652 1.01008 0.0
C356 C 0.61592 0.69476 0.96127 0.0
C357 C 0.62163 0.73379 0.9666 0.0
C358 C 0.6683 0.6797 0.99449 0.0
C359 C 0.65104 0.74459 0.98605 0.0
C360 C 0.71259 0.66244 0.03625 0.0
C361 C 0.72088 0.58984 1.01259 0.0
N362 N 0.67307 0.71772 0.99942 0.0
N363 N 0.69801 0.61606 0.99909 0.0
H364 H 0.77925 0.36584 0.06755 0.0
H365 H 0.57622 0.32387 0.99298 0.0
H366 H 0.68642 0.44659 0.06864 0.0
H367 H 0.67592 0.25382 0.97909 0.0
H368 H 0.61427 0.36667 0.02409 0.0
H369 H 0.73993 0.32209 0.03863 0.0
C370 C 0.75046 0.37428 0.06195 0.0
C371 C 0.73611 0.40998 0.07068 0.0
C372 C 0.62779 0.3419 1.01427 0.0
C373 C 0.69088 0.35993 0.03718 0.0
C374 C 0.60606 0.31735 0.99657 0.0
C375 C 0.6229 0.28517 0.98332 0.0
C376 C 0.66662 0.33414 1.01896 0.0
C377 C 0.66172 0.27829 0.98875 0.0
C378 C 0.72809 0.34934 0.04521 0.0
C379 C 0.69876 0.41954 0.0622 0.0
N380 N 0.68222 0.30253 1.00614 0.0
N381 N 0.67741 0.39463 0.04599 0.0
H382 H 0.36709 0.26699 0.9806 0.0
H383 H 0.31617 0.48603 1.00751 0.0
H384 H 0.44088 0.35837 0.95177 0.0
H385 H 0.27358 0.39571 0.06403 0.0
H386 H 0.35587 0.4394 0.98114 0.0
H387 H 0.32616 0.31369 1.00566 0.0
C388 C 0.37449 0.29694 0.97937 0.0
C389 C 0.40738 0.30889 0.96408 0.0
C390 C 0.33779 0.42985 0.9993 0.0
C391 C 0.36068 0.36242 0.99259 0.0
C392 C 0.31498 0.45637 1.01426 0.0
C393 C 0.29155 0.44475 0.03804 0.0
C394 C 0.33669 0.39132 1.00785 0.0
C395 C 0.29132 0.40595 0.04591 0.0
C396 C 0.3513 0.32351 0.99383 0.0
C397 C 0.41594 0.34801 0.96352 0.0
N398 N 0.3134 0.3806 0.03076 0.0
N399 N 0.3926 0.37344 0.97742 0.0
H400 H 0.96882 0.61208 0.43521 0.0
H401 H 0.09369 0.43705 0.49617 0.0
H402 H 0.06508 0.62554 0.49418 0.0
H403 H 1.0007 0.42477 0.43393 0.0
H404 H 0.0812 0.50566 0.49831 0.0
H405 H 0.97733 0.54296 0.43733 0.0
C406 C 0.99157 0.60053 0.4488 0.0
C407 C 1.01636 0.62475 0.46445 0.0
C408 C 0.06344 0.48792 0.48427 0.0
C409 C 0.02644 0.54545 0.46682 0.0
C410 C 0.07055 0.4487 0.48305 0.0
C411 C 0.04831 0.42504 0.46476 0.0
C412 C 0.03384 0.50367 0.46711 0.0
C413 C 1.01869 0.44185 0.44827 0.0
C414 C 0.99649 0.561 0.44993 0.0
C415 C 0.04534 0.60804 0.48167 0.0
N416 N 1.0124 0.48006 0.44979 0.0
N417 N 0.04967 0.56948 0.48228 0.0
H418 H 0.62702 0.95587 0.55937 0.0
H419 H 0.42058 0.04201 0.5965 0.0
H420 H 0.60968 0.06595 0.60028 0.0
H421 H 0.43945 0.92529 0.56964 0.0
H422 H 0.48921 0.05367 0.59294 0.0
H423 H 0.55794 0.94676 0.55783 0.0
C424 C 0.60872 0.97828 0.56784 0.0
C425 C 0.62428 1.01168 0.5801 0.0
C426 C 0.47832 0.02555 0.58772 0.0
C427 C 0.54497 1.00134 0.57844 0.0
C428 C 0.43909 1.01887 0.58967 0.0
C429 C 0.42415 0.98254 0.58347 0.0
C430 C 0.50291 0.99576 0.57937 0.0
C431 C 0.44963 0.9537 0.57474 0.0
C432 C 0.56923 0.97298 0.56704 0.0
C433 C 0.59902 0.03968 0.59073 0.0
N434 N 0.48771 0.96091 0.57301 0.0
N435 N 0.56067 0.03384 0.58972 0.0
H436 H 0.51824 0.11993 1.01167 0.0
H437 H 0.4941 0.92975 0.91545 0.0
H438 H 0.53343 0.11505 0.91615 0.0
H439 H 0.51376 0.92716 1.01047 0.0
H440 H 0.50132 0.99893 0.91614 0.0
H441 H 0.5106 0.05032 1.01248 0.0
C442 C 0.52011 0.10426 0.99091 0.0
C443 C 0.5265 0.12339 0.9638 0.0
C444 C 0.50403 0.98327 0.93686 0.0
C445 C 0.5173 0.04398 0.96456 0.0
C446 C 0.49971 0.94373 0.93653 0.0
C447 C 0.50342 0.92253 0.96296 0.0
C448 C 0.51179 1.002 0.96384 0.0
C449 C 0.51079 0.94234 0.98957 0.0
C450 C 0.51576 0.06457 0.9914 0.0
C451 C 0.52866 0.10159 0.93759 0.0
N452 N 0.51468 0.981 0.98935 0.0
N453 N 0.52384 0.06317 0.93862 0.0
H454 H 0.11085 0.4997 0.02717 0.0
H455 H 0.92309 0.54985 0.12042 0.0
H456 H 0.10835 0.50986 0.12312 0.0
H457 H 0.91813 0.50216 0.03176 0.0
H458 H 0.99238 0.54344 0.11948 0.0
H459 H 0.04128 0.50748 0.02638 0.0
C460 C 0.09571 0.50346 0.04805 0.0
C461 C 0.11547 0.50405 0.07526 0.0
C462 C 0.97615 0.53444 0.1002 0.0
C463 C 0.03615 0.51346 0.07443 0.0
C464 C 0.93657 0.53829 0.10064 0.0
C465 C 0.91471 0.5264 0.07615 0.0
C466 C 0.9942 0.51895 0.07499 0.0
C467 C 0.93385 0.51154 0.05117 0.0
C468 C 0.05605 0.50786 0.04756 0.0
C469 C 0.09436 0.50904 0.10163 0.0
N470 N 0.97255 0.50827 0.05121 0.0
N471 N 0.05594 0.51377 0.10053 0.0
loop_
_geom_bond_atom_site_label_1
_geom_bond_atom_site_label_2
_geom_bond_distance
_geom_bond_site_symmetry_2
_ccdc_geom_bond_type
Cu0 N1 2.002 . S
Cu0 O6 1.974 . S
Cu0 N11 1.985 . S
Cu0 O20 1.959 . S
N1 Cu0 2.002 . S
N1 C3 1.263 . S
N1 C5 1.386 1_455 S
N2 C3 1.358 1_655 S
N2 C4 1.400 . S
C3 N1 1.263 . S
C3 N2 1.358 1_455 S
C3 H9 0.930 . S
C4 N2 1.400 . S
C4 C5 1.351 . S
C4 H21 0.930 . S
C5 N1 1.386 1_655 S
C5 C4 1.351 . S
C5 H10 0.930 . S
O6 Cu0 1.974 . S
O6 C16 1.282 . S
C7 O8 1.261 . S
C7 O20 1.251 . S
O8 C7 1.261 . S
H9 C3 0.930 . S
H10 C5 0.930 . S
N11 Cu0 1.985 . S
N11 C13 1.335 . S
N11 C14 1.390 . S
N12 C13 1.345 . S
N12 C15 1.336 . S
C13 N11 1.335 . S
C13 N12 1.345 . S
C13 H18 0.930 . S
C14 N11 1.390 . S
C14 C15 1.346 . S
C14 H19 0.930 . S
C15 N12 1.336 . S
C15 C14 1.346 . S
C15 H22 0.929 . S
C16 O6 1.282 . S
C16 O17 1.216 . S
O17 C16 1.216 . S
H18 C13 0.930 . S
H19 C14 0.930 . S
O20 Cu0 1.959 . S
O20 C7 1.251 . S
H21 C4 0.930 . S
H22 C15 0.929 . S
Cu23 N24 2.002 . S
Cu23 O29 1.974 . S
Cu23 N34 1.985 . S
Cu23 O43 1.959 . S
N24 Cu23 2.002 . S
N24 C26 1.263 . S
N24 C28 1.386 1_565 S
N25 C26 1.358 1_545 S
N25 C27 1.400 . S
C26 N24 1.263 . S
C26 N25 1.358 1_565 S
C26 H32 0.930 . S
C27 N25 1.400 . S
C27 C28 1.351 . S
C27 H44 0.930 . S
C28 N24 1.386 1_545 S
C28 C27 1.351 . S
C28 H33 0.930 . S
O29 Cu23 1.974 . S
O29 C39 1.282 . S
C30 O31 1.261 . S
C30 O43 1.251 . S
O31 C30 1.261 . S
H32 C26 0.930 . S
H33 C28 0.930 . S
N34 Cu23 1.985 . S
N34 C36 1.335 . S
N34 C37 1.390 . S
N35 C36 1.345 . S
N35 C38 1.336 . S
C36 N34 1.335 . S
C36 N35 1.345 . S
C36 H41 0.930 . S
C37 N34 1.390 . S
C37 C38 1.346 . S
C37 H42 0.930 . S
C38 N35 1.336 . S
C38 C37 1.346 . S
C38 H45 0.929 . S
C39 O29 1.282 . S
C39 O40 1.216 . S
O40 C39 1.216 . S
H41 C36 0.930 . S
H42 C37 0.930 . S
O43 Cu23 1.959 . S
O43 C30 1.251 . S
H44 C27 0.930 . S
H45 C38 0.929 . S
Cu46 N47 2.002 . S
Cu46 O52 1.974 . S
Cu46 N57 1.985 . S
Cu46 O66 1.959 . S
N47 Cu46 2.002 . S
N47 C49 1.263 . S
N47 C51 1.386 1_655 S
N48 C49 1.358 1_455 S
N48 C50 1.400 . S
C49 N47 1.263 . S
C49 N48 1.358 1_655 S
C49 H55 0.930 . S
C50 N48 1.400 . S
C50 C51 1.351 . S
C50 H67 0.930 . S
C51 N47 1.386 1_455 S
C51 C50 1.351 . S
C51 H56 0.930 . S
O52 Cu46 1.974 . S
O52 C62 1.282 . S
C53 O54 1.261 . S
C53 O66 1.251 . S
O54 C53 1.261 . S
H55 C49 0.930 . S
H56 C51 0.930 . S
N57 Cu46 1.985 . S
N57 C59 1.335 . S
N57 C60 1.390 . S
N58 C59 1.345 . S
N58 C61 1.336 . S
C59 N57 1.335 . S
C59 N58 1.345 . S
C59 H64 0.930 . S
C60 N57 1.390 . S
C60 C61 1.346 . S
C60 H65 0.930 . S
C61 N58 1.336 . S
C61 C60 1.346 . S
C61 H68 0.929 . S
C62 O52 1.282 . S
C62 O63 1.216 . S
O63 C62 1.216 . S
H64 C59 0.930 . S
H65 C60 0.930 . S
O66 Cu46 1.959 . S
O66 C53 1.251 . S
H67 C50 0.930 . S
H68 C61 0.929 . S
Cu69 N70 2.002 . S
Cu69 O75 1.974 . S
Cu69 N80 1.985 . S
Cu69 O89 1.959 . S
N70 Cu69 2.002 . S
N70 C72 1.263 . S
N70 C74 1.386 1_545 S
N71 C72 1.358 1_565 S
N71 C73 1.400 . S
C72 N70 1.263 . S
C72 N71 1.358 1_545 S
C72 H78 0.930 . S
C73 N71 1.400 . S
C73 C74 1.351 . S
C73 H90 0.930 . S
C74 N70 1.386 1_565 S
C74 C73 1.351 . S
C74 H79 0.930 . S
O75 Cu69 1.974 . S
O75 C85 1.282 . S
C76 O77 1.261 . S
C76 O89 1.251 . S
O77 C76 1.261 . S
H78 C72 0.930 . S
H79 C74 0.930 . S
N80 Cu69 1.985 . S
N80 C82 1.335 . S
N80 C83 1.390 . S
N81 C82 1.345 . S
N81 C84 1.336 . S
C82 N80 1.335 . S
C82 N81 1.345 . S
C82 H87 0.930 . S
C83 N80 1.390 . S
C83 C84 1.346 . S
C83 H88 0.930 . S
C84 N81 1.336 . S
C84 C83 1.346 . S
C84 H91 0.929 . S
C85 O75 1.282 . S
C85 O86 1.216 . S
O86 C85 1.216 . S
H87 C82 0.930 . S
H88 C83 0.930 . S
O89 Cu69 1.959 . S
O89 C76 1.251 . S
H90 C73 0.930 . S
H91 C84 0.929 . S
Cu92 N93 1.999 . S
Cu92 O98 1.974 . S
Cu92 N103 1.985 . S
Cu92 O112 1.959 . S
N93 Cu92 1.999 . S
N93 C95 1.263 . S
N93 C97 1.389 . S
N94 C95 1.358 . S
N94 C96 1.400 . S
C95 N93 1.263 . S
C95 N94 1.358 . S
C95 H101 0.930 . S
C96 N94 1.400 . S
C96 C97 1.351 . S
C96 H113 0.930 . S
C97 N93 1.389 . S
C97 C96 1.351 . S
C97 H102 0.930 . S
O98 Cu92 1.974 . S
O98 C108 1.282 . S
C99 O100 1.261 . S
C99 O112 1.251 . S
O100 C99 1.261 . S
H101 C95 0.930 . S
H102 C97 0.930 . S
N103 Cu92 1.985 . S
N103 C105 1.335 . S
N103 C106 1.390 . S
N104 C105 1.345 . S
N104 C107 1.336 . S
C105 N103 1.335 . S
C105 N104 1.345 . S
C105 H110 0.930 . S
C106 N103 1.390 . S
C106 C107 1.346 . S
C106 H111 0.930 . S
C107 N104 1.336 . S
C107 C106 1.346 . S
C107 H114 0.929 . S
C108 O98 1.282 . S
C108 O109 1.216 . S
O109 C108 1.216 . S
H110 C105 0.930 . S
H111 C106 0.930 . S
O112 Cu92 1.959 . S
O112 C99 1.251 . S
H113 C96 0.930 . S
H114 C107 0.929 . S
Cu115 N116 1.999 . S
Cu115 O121 1.974 . S
Cu115 N126 1.985 . S
Cu115 O135 1.959 . S
N116 Cu115 1.999 . S
N116 C118 1.263 . S
N116 C120 1.389 . S
N117 C118 1.358 . S
N117 C119 1.400 . S
C118 N116 1.263 . S
C118 N117 1.358 . S
C118 H124 0.930 . S
C119 N117 1.400 . S
C119 C120 1.351 . S
C119 H136 0.930 . S
C120 N116 1.389 . S
C120 C119 1.351 . S
C120 H125 0.930 . S
O121 Cu115 1.974 . S
O121 C131 1.282 . S
C122 O123 1.261 . S
C122 O135 1.251 . S
O123 C122 1.261 . S
H124 C118 0.930 . S
H125 C120 0.930 . S
N126 Cu115 1.985 . S
N126 C128 1.335 . S
N126 C129 1.390 . S
N127 C128 1.345 . S
N127 C130 1.336 . S
C128 N126 1.335 . S
C128 N127 1.345 . S
C128 H133 0.930 . S
C129 N126 1.390 . S
C129 C130 1.346 . S
C129 H134 0.930 . S
C130 N127 1.336 . S
C130 C129 1.346 . S
C130 H137 0.929 . S
C131 O121 1.282 . S
C131 O132 1.216 . S
O132 C131 1.216 . S
H133 C128 0.930 . S
H134 C129 0.930 . S
O135 Cu115 1.959 . S
O135 C122 1.251 . S
H136 C119 0.930 . S
H137 C130 0.929 . S
Cu138 N139 1.999 . S
Cu138 O144 1.974 . S
Cu138 N149 1.985 . S
Cu138 O158 1.959 . S
N139 Cu138 1.999 . S
N139 C141 1.263 . S
N139 C143 1.389 . S
N140 C141 1.358 . S
N140 C142 1.400 . S
C141 N139 1.263 . S
C141 N140 1.358 . S
C141 H147 0.930 . S
C142 N140 1.400 . S
C142 C143 1.351 . S
C142 H159 0.930 . S
C143 N139 1.389 . S
C143 C142 1.351 . S
C143 H148 0.930 . S
O144 Cu138 1.974 . S
O144 C154 1.282 . S
C145 O146 1.261 . S
C145 O158 1.251 . S
O146 C145 1.261 . S
H147 C141 0.930 . S
H148 C143 0.930 . S
N149 Cu138 1.985 . S
N149 C151 1.335 . S
N149 C152 1.390 . S
N150 C151 1.345 . S
N150 C153 1.336 . S
C151 N149 1.335 . S
C151 N150 1.345 . S
C151 H156 0.930 . S
C152 N149 1.390 . S
C152 C153 1.346 . S
C152 H157 0.930 . S
C153 N150 1.336 . S
C153 C152 1.346 . S
C153 H160 0.929 . S
C154 O144 1.282 . S
C154 O155 1.216 . S
O155 C154 1.216 . S
H156 C151 0.930 . S
H157 C152 0.930 . S
O158 Cu138 1.959 . S
O158 C145 1.251 . S
H159 C142 0.930 . S
H160 C153 0.929 . S
Cu161 N162 1.999 . S
Cu161 O167 1.974 . S
Cu161 N172 1.985 . S
Cu161 O181 1.959 . S
N162 Cu161 1.999 . S
N162 C164 1.263 . S
N162 C166 1.389 . S
N163 C164 1.358 . S
N163 C165 1.400 . S
C164 N162 1.263 . S
C164 N163 1.358 . S
C164 H170 0.930 . S
C165 N163 1.400 . S
C165 C166 1.351 . S
C165 H182 0.930 . S
C166 N162 1.389 . S
C166 C165 1.351 . S
C166 H171 0.930 . S
O167 Cu161 1.974 . S
O167 C177 1.282 . S
C168 O169 1.261 . S
C168 O181 1.251 . S
O169 C168 1.261 . S
H170 C164 0.930 . S
H171 C166 0.930 . S
N172 Cu161 1.985 . S
N172 C174 1.335 . S
N172 C175 1.390 . S
N173 C174 1.345 . S
N173 C176 1.336 . S
C174 N172 1.335 . S
C174 N173 1.345 . S
C174 H179 0.930 . S
C175 N172 1.390 . S
C175 C176 1.346 . S
C175 H180 0.930 . S
C176 N173 1.336 . S
C176 C175 1.346 . S
C176 H183 0.929 . S
C177 O167 1.282 . S
C177 O178 1.216 . S
O178 C177 1.216 . S
H179 C174 0.930 . S
H180 C175 0.930 . S
O181 Cu161 1.959 . S
O181 C168 1.251 . S
H182 C165 0.930 . S
H183 C176 0.929 . S
H184 C190 0.930 . S
H185 C194 0.930 . S
H186 C199 0.929 . S
H187 C197 0.929 . S
H188 C192 0.929 . S
H189 C198 0.929 . S
C190 H184 0.930 . S
C190 C191 1.367 . S
C190 C198 1.378 . S
C191 C190 1.367 . S
C191 C199 1.433 . S
C192 H188 0.929 . S
C192 C194 1.378 . S
C192 C196 1.350 . S
C193 C196 1.463 . S
C193 C198 1.350 . S
C193 N201 1.427 . S
C194 H185 0.930 . S
C194 C192 1.378 . S
C194 C195 1.367 . S
C195 C194 1.367 . S
C195 C197 1.433 . S
C196 C192 1.350 . S
C196 C193 1.463 . S
C196 N200 1.427 . S
C197 H187 0.929 . S
C197 C195 1.433 . S
C197 N200 1.384 . S
C198 H189 0.929 . S
C198 C190 1.378 . S
C198 C193 1.350 . S
C199 H186 0.929 . S
C199 C191 1.433 . S
C199 N201 1.384 . S
N200 C196 1.427 . S
N200 C197 1.384 . S
N201 C193 1.427 . S
N201 C199 1.384 . S
H202 C208 0.930 . S
H203 C212 0.930 . S
H204 C217 0.929 . S
H205 C215 0.929 . S
H206 C210 0.929 . S
H207 C216 0.929 . S
C208 H202 0.930 . S
C208 C209 1.367 . S
C208 C216 1.378 . S
C209 C208 1.367 . S
C209 C217 1.433 . S
C210 H206 0.929 . S
C210 C212 1.378 . S
C210 C214 1.350 . S
C211 C214 1.463 . S
C211 C216 1.350 . S
C211 N219 1.427 . S
C212 H203 0.930 . S
C212 C210 1.378 . S
C212 C213 1.367 . S
C213 C212 1.367 . S
C213 C215 1.433 . S
C214 C210 1.350 . S
C214 C211 1.463 . S
C214 N218 1.427 . S
C215 H205 0.929 . S
C215 C213 1.433 . S
C215 N218 1.384 . S
C216 H207 0.929 . S
C216 C208 1.378 . S
C216 C211 1.350 . S
C217 H204 0.929 . S
C217 C209 1.433 . S
C217 N219 1.384 . S
N218 C214 1.427 . S
N218 C215 1.384 . S
N219 C211 1.427 . S
N219 C217 1.384 . S
H220 C226 0.930 . S
H221 C230 0.930 . S
H222 C235 0.929 . S
H223 C233 0.929 . S
H224 C228 0.929 . S
H225 C234 0.929 . S
C226 H220 0.930 . S
C226 C227 1.367 . S
C226 C234 1.378 . S
C227 C226 1.367 . S
C227 C235 1.433 . S
C228 H224 0.929 . S
C228 C230 1.378 . S
C228 C232 1.350 . S
C229 C232 1.463 . S
C229 C234 1.350 . S
C229 N237 1.427 . S
C230 H221 0.930 . S
C230 C228 1.378 . S
C230 C231 1.367 . S
C231 C230 1.367 . S
C231 C233 1.433 . S
C232 C228 1.350 . S
C232 C229 1.463 . S
C232 N236 1.427 . S
C233 H223 0.929 . S
C233 C231 1.433 . S
C233 N236 1.384 . S
C234 H225 0.929 . S
C234 C226 1.378 . S
C234 C229 1.350 . S
C235 H222 0.929 . S
C235 C227 1.433 . S
C235 N237 1.384 . S
N236 C232 1.427 . S
N236 C233 1.384 . S
N237 C229 1.427 . S
N237 C235 1.384 . S
H238 C244 0.930 . S
H239 C248 0.930 . S
H240 C253 0.929 . S
H241 C251 0.929 . S
H242 C246 0.929 . S
H243 C252 0.929 . S
C244 H238 0.930 . S
C244 C245 1.367 . S
C244 C252 1.378 . S
C245 C244 1.367 . S
C245 C253 1.433 . S
C246 H242 0.929 . S
C246 C248 1.378 . S
C246 C250 1.350 . S
C247 C250 1.463 . S
C247 C252 1.350 . S
C247 N255 1.427 . S
C248 H239 0.930 . S
C248 C246 1.378 . S
C248 C249 1.367 . S
C249 C248 1.367 . S
C249 C251 1.433 . S
C250 C246 1.350 . S
C250 C247 1.463 . S
C250 N254 1.427 . S
C251 H241 0.929 . S
C251 C249 1.433 . S
C251 N254 1.384 . S
C252 H243 0.929 . S
C252 C244 1.378 . S
C252 C247 1.350 . S
C253 H240 0.929 . S
C253 C245 1.433 . S
C253 N255 1.384 . S
N254 C250 1.427 . S
N254 C251 1.384 . S
N255 C247 1.427 . S
N255 C253 1.384 . S
H256 C262 0.930 . S
H257 C266 0.930 . S
H258 C271 0.929 . S
H259 C269 0.929 . S
H260 C264 0.929 . S
H261 C270 0.929 . S
C262 H256 0.930 . S
C262 C263 1.367 . S
C262 C270 1.378 . S
C263 C262 1.367 . S
C263 C271 1.433 . S
C264 H260 0.929 . S
C264 C266 1.378 . S
C264 C268 1.350 . S
C265 C268 1.463 . S
C265 C270 1.350 . S
C265 N273 1.427 . S
C266 H257 0.930 . S
C266 C264 1.378 . S
C266 C267 1.367 . S
C267 C266 1.367 . S
C267 C269 1.433 . S
C268 C264 1.350 . S
C268 C265 1.463 . S
C268 N272 1.427 . S
C269 H259 0.929 . S
C269 C267 1.433 . S
C269 N272 1.384 . S
C270 H261 0.929 . S
C270 C262 1.378 . S
C270 C265 1.350 . S
C271 H258 0.929 . S
C271 C263 1.433 . S
C271 N273 1.384 . S
N272 C268 1.427 . S
N272 C269 1.384 . S
N273 C265 1.427 . S
N273 C271 1.384 . S
H274 C280 0.930 . S
H275 C284 0.930 . S
H276 C289 0.929 . S
H277 C287 0.929 . S
H278 C282 0.929 . S
H279 C288 0.929 . S
C280 H274 0.930 . S
C280 C281 1.367 . S
C280 C288 1.378 . S
C281 C280 1.367 . S
C281 C289 1.433 . S
C282 H278 0.929 . S
C282 C284 1.378 . S
C282 C286 1.350 . S
C283 C286 1.463 . S
C283 C288 1.350 . S
C283 N291 1.427 . S
C284 H275 0.930 . S
C284 C282 1.378 . S
C284 C285 1.367 . S
C285 C284 1.367 . S
C285 C287 1.433 . S
C286 C282 1.350 . S
C286 C283 1.463 . S
C286 N290 1.427 . S
C287 H277 0.929 . S
C287 C285 1.433 . S
C287 N290 1.384 . S
C288 H279 0.929 . S
C288 C280 1.378 . S
C288 C283 1.350 . S
C289 H276 0.929 . S
C289 C281 1.433 . S
C289 N291 1.384 . S
N290 C286 1.427 . S
N290 C287 1.384 . S
N291 C283 1.427 . S
N291 C289 1.384 . S
H292 C298 0.930 . S
H293 C302 0.930 . S
H294 C307 0.929 . S
H295 C305 0.929 . S
H296 C300 0.929 . S
H297 C306 0.929 . S
C298 H292 0.930 . S
C298 C299 1.367 . S
C298 C306 1.378 . S
C299 C298 1.367 . S
C299 C307 1.433 . S
C300 H296 0.929 . S
C300 C302 1.378 . S
C300 C304 1.350 . S
C301 C304 1.463 . S
C301 C306 1.350 . S
C301 N309 1.427 . S
C302 H293 0.930 . S
C302 C300 1.378 . S
C302 C303 1.367 . S
C303 C302 1.367 . S
C303 C305 1.433 . S
C304 C300 1.350 . S
C304 C301 1.463 . S
C304 N308 1.427 . S
C305 H295 0.929 . S
C305 C303 1.433 . S
C305 N308 1.384 . S
C306 H297 0.929 . S
C306 C298 1.378 . S
C306 C301 1.350 . S
C307 H294 0.929 . S
C307 C299 1.433 . S
C307 N309 1.384 . S
N308 C304 1.427 . S
N308 C305 1.384 . S
N309 C301 1.427 . S
N309 C307 1.384 . S
H310 C316 0.930 . S
H311 C320 0.930 . S
H312 C325 0.929 . S
H313 C323 0.929 . S
H314 C318 0.929 . S
H315 C324 0.929 . S
C316 H310 0.930 . S
C316 C317 1.367 . S
C316 C324 1.378 . S
C317 C316 1.367 . S
C317 C325 1.433 . S
C318 H314 0.929 . S
C318 C320 1.378 . S
C318 C322 1.350 . S
C319 C322 1.463 . S
C319 C324 1.350 . S
C319 N327 1.427 . S
C320 H311 0.930 . S
C320 C318 1.378 . S
C320 C321 1.367 . S
C321 C320 1.367 . S
C321 C323 1.433 . S
C322 C318 1.350 . S
C322 C319 1.463 . S
C322 N326 1.427 . S
C323 H313 0.929 . S
C323 C321 1.433 . S
C323 N326 1.384 . S
C324 H315 0.929 . S
C324 C316 1.378 . S
C324 C319 1.350 . S
C325 H312 0.929 . S
C325 C317 1.433 . S
C325 N327 1.384 . S
N326 C322 1.427 . S
N326 C323 1.384 . S
N327 C319 1.427 . S
N327 C325 1.384 . S
H328 C334 0.930 . S
H329 C338 0.930 . S
H330 C343 0.929 . S
H331 C341 0.929 . S
H332 C336 0.929 1_554 S
H333 C342 0.929 . S
C334 H328 0.930 . S
C334 C335 1.367 1_556 S
C334 C342 1.378 . S
C335 C334 1.367 1_554 S
C335 C343 1.433 . S
C336 H332 0.929 1_556 S
C336 C338 1.378 . S
C336 C340 1.350 . S
C337 C340 1.463 . S
C337 C342 1.350 . S
C337 N345 1.427 1_556 S
C338 H329 0.930 . S
C338 C336 1.378 . S
C338 C339 1.367 . S
C339 C338 1.367 . S
C339 C341 1.433 . S
C340 C336 1.350 . S
C340 C337 1.463 . S
C340 N344 1.427 . S
C341 H331 0.929 . S
C341 C339 1.433 . S
C341 N344 1.384 . S
C342 H333 0.929 . S
C342 C334 1.378 . S
C342 C337 1.350 . S
C343 H330 0.929 . S
C343 C335 1.433 . S
C343 N345 1.384 . S
N344 C340 1.427 . S
N344 C341 1.384 . S
N345 C337 1.427 1_554 S
N345 C343 1.384 . S
H346 C352 0.930 . S
H347 C356 0.930 . S
H348 C361 0.929 . S
H349 C359 0.929 . S
H350 C354 0.929 . S
H351 C360 0.929 . S
C352 H346 0.930 . S
C352 C353 1.367 . S
C352 C360 1.378 . S
C353 C352 1.367 . S
C353 C361 1.433 . S
C354 H350 0.929 . S
C354 C356 1.378 . S
C354 C358 1.350 1_556 S
C355 C358 1.463 . S
C355 C360 1.350 . S
C355 N363 1.427 . S
C356 H347 0.930 . S
C356 C354 1.378 . S
C356 C357 1.367 . S
C357 C356 1.367 . S
C357 C359 1.433 1_556 S
C358 C354 1.350 1_554 S
C358 C355 1.463 . S
C358 N362 1.427 . S
C359 H349 0.929 . S
C359 C357 1.433 1_554 S
C359 N362 1.384 . S
C360 H351 0.929 . S
C360 C352 1.378 . S
C360 C355 1.350 . S
C361 H348 0.929 . S
C361 C353 1.433 . S
C361 N363 1.384 . S
N362 C358 1.427 . S
N362 C359 1.384 . S
N363 C355 1.427 . S
N363 C361 1.384 . S
H364 C370 0.930 . S
H365 C374 0.930 . S
H366 C379 0.929 . S
H367 C377 0.929 . S
H368 C372 0.929 . S
H369 C378 0.929 . S
C370 H364 0.930 . S
C370 C371 1.367 1_556 S
C370 C378 1.378 . S
C371 C370 1.367 1_554 S
C371 C379 1.433 . S
C372 H368 0.929 . S
C372 C374 1.378 . S
C372 C376 1.350 . S
C373 C376 1.463 . S
C373 C378 1.350 . S
C373 N381 1.427 1_556 S
C374 H365 0.930 . S
C374 C372 1.378 . S
C374 C375 1.367 . S
C375 C374 1.367 . S
C375 C377 1.433 . S
C376 C372 1.350 . S
C376 C373 1.463 . S
C376 N380 1.427 . S
C377 H367 0.929 . S
C377 C375 1.433 . S
C377 N380 1.384 . S
C378 H369 0.929 . S
C378 C370 1.378 . S
C378 C373 1.350 . S
C379 H366 0.929 . S
C379 C371 1.433 . S
C379 N381 1.384 . S
N380 C376 1.427 . S
N380 C377 1.384 . S
N381 C373 1.427 1_554 S
N381 C379 1.384 . S
H382 C388 0.930 . S
H383 C392 0.930 . S
H384 C397 0.929 . S
H385 C395 0.929 . S
H386 C390 0.929 1_556 S
H387 C396 0.929 . S
C388 H382 0.930 . S
C388 C389 1.367 1_554 S
C388 C396 1.378 . S
C389 C388 1.367 1_556 S
C389 C397 1.433 . S
C390 H386 0.929 1_554 S
C390 C392 1.378 . S
C390 C394 1.350 . S
C391 C394 1.463 . S
C391 C396 1.350 . S
C391 N399 1.427 1_554 S
C392 H383 0.930 . S
C392 C390 1.378 . S
C392 C393 1.367 . S
C393 C392 1.367 . S
C393 C395 1.433 . S
C394 C390 1.350 . S
C394 C391 1.463 . S
C394 N398 1.427 . S
C395 H385 0.929 . S
C395 C393 1.433 . S
C395 N398 1.384 . S
C396 H387 0.929 . S
C396 C388 1.378 . S
C396 C391 1.350 . S
C397 H384 0.929 . S
C397 C389 1.433 . S
C397 N399 1.384 . S
N398 C394 1.427 . S
N398 C395 1.384 . S
N399 C391 1.427 1_556 S
N399 C397 1.384 . S
H400 C406 0.930 . S
H401 C410 0.930 . S
H402 C415 0.929 . S
H403 C413 0.929 . S
H404 C408 0.929 . S
H405 C414 0.929 . S
C406 H400 0.930 . S
C406 C407 1.367 . S
C406 C414 1.378 . S
C407 C406 1.367 . S
C407 C415 1.433 1_655 S
C408 H404 0.929 . S
C408 C410 1.378 . S
C408 C412 1.350 . S
C409 C412 1.463 1_655 S
C409 C414 1.350 . S
C409 N417 1.427 1_655 S
C410 H401 0.930 . S
C410 C408 1.378 . S
C410 C411 1.367 . S
C411 C410 1.367 . S
C411 C413 1.433 1_455 S
C412 C408 1.350 . S
C412 C409 1.463 1_455 S
C412 N416 1.427 1_455 S
C413 H403 0.929 . S
C413 C411 1.433 1_655 S
C413 N416 1.384 . S
C414 H405 0.929 . S
C414 C406 1.378 . S
C414 C409 1.350 . S
C415 H402 0.929 . S
C415 C407 1.433 1_455 S
C415 N417 1.384 . S
N416 C412 1.427 1_655 S
N416 C413 1.384 . S
N417 C409 1.427 1_455 S
N417 C415 1.384 . S
H418 C424 0.930 . S
H419 C428 0.930 . S
H420 C433 0.929 . S
H421 C431 0.929 . S
H422 C426 0.929 . S
H423 C432 0.929 . S
C424 H418 0.930 . S
C424 C425 1.367 1_565 S
C424 C432 1.378 . S
C425 C424 1.367 1_545 S
C425 C433 1.433 . S
C426 H422 0.929 . S
C426 C428 1.378 . S
C426 C430 1.350 1_545 S
C427 C430 1.463 1_545 S
C427 C432 1.350 1_545 S
C427 N435 1.427 . S
C428 H419 0.930 . S
C428 C426 1.378 . S
C428 C429 1.367 1_545 S
C429 C428 1.367 1_565 S
C429 C431 1.433 . S
C430 C426 1.350 1_565 S
C430 C427 1.463 1_565 S
C430 N434 1.427 . S
C431 H421 0.929 . S
C431 C429 1.433 . S
C431 N434 1.384 . S
C432 H423 0.929 . S
C432 C424 1.378 . S
C432 C427 1.350 1_565 S
C433 H420 0.929 . S
C433 C425 1.433 . S
C433 N435 1.384 . S
N434 C430 1.427 . S
N434 C431 1.384 . S
N435 C427 1.427 . S
N435 C433 1.384 . S
H436 C442 0.930 . S
H437 C446 0.930 . S
H438 C451 0.929 . S
H439 C449 0.929 . S
H440 C444 0.929 . S
H441 C450 0.929 . S
C442 H436 0.930 . S
C442 C443 1.367 . S
C442 C450 1.378 . S
C443 C442 1.367 . S
C443 C451 1.433 . S
C444 H440 0.929 . S
C444 C446 1.378 . S
C444 C448 1.350 . S
C445 C448 1.463 1_545 S
C445 C450 1.350 . S
C445 N453 1.427 . S
C446 H437 0.930 . S
C446 C444 1.378 . S
C446 C447 1.367 . S
C447 C446 1.367 . S
C447 C449 1.433 . S
C448 C444 1.350 . S
C448 C445 1.463 1_565 S
C448 N452 1.427 . S
C449 H439 0.929 . S
C449 C447 1.433 . S
C449 N452 1.384 . S
C450 H441 0.929 . S
C450 C442 1.378 . S
C450 C445 1.350 . S
C451 H438 0.929 . S
C451 C443 1.433 . S
C451 N453 1.384 . S
N452 C448 1.427 . S
N452 C449 1.384 . S
N453 C445 1.427 . S
N453 C451 1.384 . S
H454 C460 0.930 . S
H455 C464 0.930 . S
H456 C469 0.929 . S
H457 C467 0.929 . S
H458 C462 0.929 . S
H459 C468 0.929 . S
C460 H454 0.930 . S
C460 C461 1.367 . S
C460 C468 1.378 . S
C461 C460 1.367 . S
C461 C469 1.433 . S
C462 H458 0.929 . S
C462 C464 1.378 . S
C462 C466 1.350 . S
C463 C466 1.463 1_455 S
C463 C468 1.350 . S
C463 N471 1.427 . S
C464 H455 0.930 . S
C464 C462 1.378 . S
C464 C465 1.367 . S
C465 C464 1.367 . S
C465 C467 1.433 . S
C466 C462 1.350 . S
C466 C463 1.463 1_655 S
C466 N470 1.427 . S
C467 H457 0.929 . S
C467 C465 1.433 . S
C467 N470 1.384 . S
C468 H459 0.929 . S
C468 C460 1.378 . S
C468 C463 1.350 . S
C469 H456 0.929 . S
C469 C461 1.433 . S
C469 N471 1.384 . S
N470 C466 1.427 . S
N470 C467 1.384 . S
N471 C463 1.427 . S
N471 C469 1.384 . S
C191 N173 1.761 . S
C195 N12 1.755 . S
C209 N35 1.755 . S
C213 N104 1.760 . S
C227 N58 1.751 . S
C231 N127 1.758 . S
C245 N150 1.750 . S
C249 N81 1.757 . S
C263 N25 1.630 . S
C267 C16 1.708 . S
C281 C39 1.707 . S
C285 N48 1.635 . S
C299 N71 1.641 . S
C303 C62 1.708 . S
C317 C85 1.707 . S
C321 N2 1.633 . S
C335 N163 1.638 . S
C339 C108 1.712 . S
C353 C131 1.710 . S
C357 N94 1.628 . S
C371 N117 1.635 . S
C375 C154 1.714 . S
C389 N140 1.640 . S
C393 C177 1.710 . S
C407 C53 1.830 . S
C411 C7 1.826 . S
C425 C76 1.829 . S
C429 C30 1.833 . S
C443 C145 1.828 . S
C447 C99 1.833 . S
C461 C168 1.828 . S
C465 C122 1.833 . S
