# Generated by pormake.
# Topology wge, (5)-cn, num edge types: 1
# Building blocks:
#     Node 0, Type 0, BuildingBlock: XOMCOT_clean_sbu_0, # of connection points: 5
#     Node 1, Type 0, BuildingBlock: XOMCOT_clean_sbu_0, # of connection points: 5
#     Node 2, Type 0, BuildingBlock: XOMCOT_clean_sbu_0, # of connection points: 5
#     Node 3, Type 0, BuildingBlock: XOMCOT_clean_sbu_0, # of connection points: 5
#     Node 4, Type 0, BuildingBlock: XOMCOT_clean_sbu_0, # of connection points: 5
#     Node 5, Type 0, BuildingBlock: XOMCOT_clean_sbu_0, # of connection points: 5
#     Node 6, Type 0, BuildingBlock: XOMCOT_clean_sbu_0, # of connection points: 5
#     Node 7, Type 0, BuildingBlock: XOMCOT_clean_sbu_0, # of connection points: 5
#     Node 8, Type 0, BuildingBlock: XOMCOT_clean_sbu_0, # of connection points: 5
#     Node 9, Type 0, BuildingBlock: XOMCOT_clean_sbu_0, # of connection points: 5
#     Node 10, Type 0, BuildingBlock: XOMCOT_clean_sbu_0, # of connection points: 5
#     Node 11, Type 0, BuildingBlock: XOMCOT_clean_sbu_0, # of connection points: 5
#     Node 12, Type 0, BuildingBlock: XOMCOT_clean_sbu_0, # of connection points: 5
#     Node 13, Type 0, BuildingBlock: XOMCOT_clean_sbu_0, # of connection points: 5
#     Node 14, Type 0, BuildingBlock: XOMCOT_clean_sbu_0, # of connection points: 5
#     Node 15, Type 0, BuildingBlock: XOMCOT_clean_sbu_0, # of connection points: 5
#     Node 16, Type 0, BuildingBlock: XOMCOT_clean_sbu_0, # of connection points: 5
#     Node 17, Type 0, BuildingBlock: XOMCOT_clean_sbu_0, # of connection points: 5
#     Node 18, Type 0, BuildingBlock: XOMCOT_clean_sbu_0, # of connection points: 5
#     Node 19, Type 0, BuildingBlock: XOMCOT_clean_sbu_0, # of connection points: 5
#     Node 20, Type 0, BuildingBlock: XOMCOT_clean_sbu_0, # of connection points: 5
#     Node 21, Type 0, BuildingBlock: XOMCOT_clean_sbu_0, # of connection points: 5
#     Node 22, Type 0, BuildingBlock: XOMCOT_clean_sbu_0, # of connection points: 5
#     Node 23, Type 0, BuildingBlock: XOMCOT_clean_sbu_0, # of connection points: 5
#     Node 24, Type 0, BuildingBlock: XOMCOT_clean_sbu_0, # of connection points: 5
#     Node 25, Type 0, BuildingBlock: XOMCOT_clean_sbu_0, # of connection points: 5
#     Node 26, Type 0, BuildingBlock: XOMCOT_clean_sbu_0, # of connection points: 5
#     Node 27, Type 0, BuildingBlock: XOMCOT_clean_sbu_0, # of connection points: 5
#     Node 28, Type 0, BuildingBlock: XOMCOT_clean_sbu_0, # of connection points: 5
#     Node 29, Type 0, BuildingBlock: XOMCOT_clean_sbu_0, # of connection points: 5
#     Node 30, Type 0, BuildingBlock: XOMCOT_clean_sbu_0, # of connection points: 5
#     Node 31, Type 0, BuildingBlock: XOMCOT_clean_sbu_0, # of connection points: 5
#     Edge 32, Type (0, 0), BuildingBlock: XIVTED_clean_linker_0, # of connection points: 2
#     Edge 33, Type (0, 0), BuildingBlock: XIVTED_clean_linker_0, # of connection points: 2
#     Edge 34, Type (0, 0), BuildingBlock: XIVTED_clean_linker_0, # of connection points: 2
#     Edge 35, Type (0, 0), BuildingBlock: XIVTED_clean_linker_0, # of connection points: 2
#     Edge 36, Type (0, 0), BuildingBlock: XIVTED_clean_linker_0, # of connection points: 2
#     Edge 37, Type (0, 0), BuildingBlock: XIVTED_clean_linker_0, # of connection points: 2
#     Edge 38, Type (0, 0), BuildingBlock: XIVTED_clean_linker_0, # of connection points: 2
#     Edge 39, Type (0, 0), BuildingBlock: XIVTED_clean_linker_0, # of connection points: 2
#     Edge 40, Type (0, 0), BuildingBlock: XIVTED_clean_linker_0, # of connection points: 2
#     Edge 41, Type (0, 0), BuildingBlock: XIVTED_clean_linker_0, # of connection points: 2
#     Edge 42, Type (0, 0), BuildingBlock: XIVTED_clean_linker_0, # of connection points: 2
#     Edge 43, Type (0, 0), BuildingBlock: XIVTED_clean_linker_0, # of connection points: 2
#     Edge 44, Type (0, 0), BuildingBlock: XIVTED_clean_linker_0, # of connection points: 2
#     Edge 45, Type (0, 0), BuildingBlock: XIVTED_clean_linker_0, # of connection points: 2
#     Edge 46, Type (0, 0), BuildingBlock: XIVTED_clean_linker_0, # of connection points: 2
#     Edge 47, Type (0, 0), BuildingBlock: XIVTED_clean_linker_0, # of connection points: 2
#     Edge 48, Type (0, 0), BuildingBlock: XIVTED_clean_linker_0, # of connection points: 2
#     Edge 49, Type (0, 0), BuildingBlock: XIVTED_clean_linker_0, # of connection points: 2
#     Edge 50, Type (0, 0), BuildingBlock: XIVTED_clean_linker_0, # of connection points: 2
#     Edge 51, Type (0, 0), BuildingBlock: XIVTED_clean_linker_0, # of connection points: 2
#     Edge 52, Type (0, 0), BuildingBlock: XIVTED_clean_linker_0, # of connection points: 2
#     Edge 53, Type (0, 0), BuildingBlock: XIVTED_clean_linker_0, # of connection points: 2
#     Edge 54, Type (0, 0), BuildingBlock: XIVTED_clean_linker_0, # of connection points: 2
#     Edge 55, Type (0, 0), BuildingBlock: XIVTED_clean_linker_0, # of connection points: 2
#     Edge 56, Type (0, 0), BuildingBlock: XIVTED_clean_linker_0, # of connection points: 2
#     Edge 57, Type (0, 0), BuildingBlock: XIVTED_clean_linker_0, # of connection points: 2
#     Edge 58, Type (0, 0), BuildingBlock: XIVTED_clean_linker_0, # of connection points: 2
#     Edge 59, Type (0, 0), BuildingBlock: XIVTED_clean_linker_0, # of connection points: 2
#     Edge 60, Type (0, 0), BuildingBlock: XIVTED_clean_linker_0, # of connection points: 2
#     Edge 61, Type (0, 0), BuildingBlock: XIVTED_clean_linker_0, # of connection points: 2
#     Edge 62, Type (0, 0), BuildingBlock: XIVTED_clean_linker_0, # of connection points: 2
#     Edge 63, Type (0, 0), BuildingBlock: XIVTED_clean_linker_0, # of connection points: 2
#     Edge 64, Type (0, 0), BuildingBlock: XIVTED_clean_linker_0, # of connection points: 2
#     Edge 65, Type (0, 0), BuildingBlock: XIVTED_clean_linker_0, # of connection points: 2
#     Edge 66, Type (0, 0), BuildingBlock: XIVTED_clean_linker_0, # of connection points: 2
#     Edge 67, Type (0, 0), BuildingBlock: XIVTED_clean_linker_0, # of connection points: 2
#     Edge 68, Type (0, 0), BuildingBlock: XIVTED_clean_linker_0, # of connection points: 2
#     Edge 69, Type (0, 0), BuildingBlock: XIVTED_clean_linker_0, # of connection points: 2
#     Edge 70, Type (0, 0), BuildingBlock: XIVTED_clean_linker_0, # of connection points: 2
#     Edge 71, Type (0, 0), BuildingBlock: XIVTED_clean_linker_0, # of connection points: 2
#     Edge 72, Type (0, 0), BuildingBlock: XIVTED_clean_linker_0, # of connection points: 2
#     Edge 73, Type (0, 0), BuildingBlock: XIVTED_clean_linker_0, # of connection points: 2
#     Edge 74, Type (0, 0), BuildingBlock: XIVTED_clean_linker_0, # of connection points: 2
#     Edge 75, Type (0, 0), BuildingBlock: XIVTED_clean_linker_0, # of connection points: 2
#     Edge 76, Type (0, 0), BuildingBlock: XIVTED_clean_linker_0, # of connection points: 2
#     Edge 77, Type (0, 0), BuildingBlock: XIVTED_clean_linker_0, # of connection points: 2
#     Edge 78, Type (0, 0), BuildingBlock: XIVTED_clean_linker_0, # of connection points: 2
#     Edge 79, Type (0, 0), BuildingBlock: XIVTED_clean_linker_0, # of connection points: 2
#     Edge 80, Type (0, 0), BuildingBlock: XIVTED_clean_linker_0, # of connection points: 2
#     Edge 81, Type (0, 0), BuildingBlock: XIVTED_clean_linker_0, # of connection points: 2
#     Edge 82, Type (0, 0), BuildingBlock: XIVTED_clean_linker_0, # of connection points: 2
#     Edge 83, Type (0, 0), BuildingBlock: XIVTED_clean_linker_0, # of connection points: 2
#     Edge 84, Type (0, 0), BuildingBlock: XIVTED_clean_linker_0, # of connection points: 2
#     Edge 85, Type (0, 0), BuildingBlock: XIVTED_clean_linker_0, # of connection points: 2
#     Edge 86, Type (0, 0), BuildingBlock: XIVTED_clean_linker_0, # of connection points: 2
#     Edge 87, Type (0, 0), BuildingBlock: XIVTED_clean_linker_0, # of connection points: 2
#     Edge 88, Type (0, 0), BuildingBlock: XIVTED_clean_linker_0, # of connection points: 2
#     Edge 89, Type (0, 0), BuildingBlock: XIVTED_clean_linker_0, # of connection points: 2
#     Edge 90, Type (0, 0), BuildingBlock: XIVTED_clean_linker_0, # of connection points: 2
#     Edge 91, Type (0, 0), BuildingBlock: XIVTED_clean_linker_0, # of connection points: 2
#     Edge 92, Type (0, 0), BuildingBlock: XIVTED_clean_linker_0, # of connection points: 2
#     Edge 93, Type (0, 0), BuildingBlock: XIVTED_clean_linker_0, # of connection points: 2
#     Edge 94, Type (0, 0), BuildingBlock: XIVTED_clean_linker_0, # of connection points: 2
#     Edge 95, Type (0, 0), BuildingBlock: XIVTED_clean_linker_0, # of connection points: 2
#     Edge 96, Type (0, 0), BuildingBlock: XIVTED_clean_linker_0, # of connection points: 2
#     Edge 97, Type (0, 0), BuildingBlock: XIVTED_clean_linker_0, # of connection points: 2
#     Edge 98, Type (0, 0), BuildingBlock: XIVTED_clean_linker_0, # of connection points: 2
#     Edge 99, Type (0, 0), BuildingBlock: XIVTED_clean_linker_0, # of connection points: 2
#     Edge 100, Type (0, 0), BuildingBlock: XIVTED_clean_linker_0, # of connection points: 2
#     Edge 101, Type (0, 0), BuildingBlock: XIVTED_clean_linker_0, # of connection points: 2
#     Edge 102, Type (0, 0), BuildingBlock: XIVTED_clean_linker_0, # of connection points: 2
#     Edge 103, Type (0, 0), BuildingBlock: XIVTED_clean_linker_0, # of connection points: 2
#     Edge 104, Type (0, 0), BuildingBlock: XIVTED_clean_linker_0, # of connection points: 2
#     Edge 105, Type (0, 0), BuildingBlock: XIVTED_clean_linker_0, # of connection points: 2
#     Edge 106, Type (0, 0), BuildingBlock: XIVTED_clean_linker_0, # of connection points: 2
#     Edge 107, Type (0, 0), BuildingBlock: XIVTED_clean_linker_0, # of connection points: 2
#     Edge 108, Type (0, 0), BuildingBlock: XIVTED_clean_linker_0, # of connection points: 2
#     Edge 109, Type (0, 0), BuildingBlock: XIVTED_clean_linker_0, # of connection points: 2
#     Edge 110, Type (0, 0), BuildingBlock: XIVTED_clean_linker_0, # of connection points: 2
#     Edge 111, Type (0, 0), BuildingBlock: XIVTED_clean_linker_0, # of connection points: 2
# Relax obj value: 0.102
# Max RMSD: 0.135
# Mean RMSD: 0.135
data_MOF--net-wge--node1-XOMCOT_clean_sbu_0--edge1-XIVTED_clean_linker_0
_symmetry_space_group_name_H-M    P1
_symmetry_Int_Tables_number       1
_symmetry_cell_setting            triclinic
loop_
_symmetry_equiv_pos_as_xyz
'x, y, z'
_cell_length_a     68.995647
_cell_length_b     69.100692
_cell_length_c     41.527251
_cell_angle_alpha  89.967837
_cell_angle_beta   89.966436
_cell_angle_gamma 89.960648
loop_
_atom_site_label
_atom_site_type_symbol
_atom_site_fract_x
_atom_site_fract_y
_atom_site_fract_z
_atom_type_partial_charge
Co0 Co 0.24477 0.1218 0.0523 0.0
C1 C 0.26416 0.12289 0.11519 0.0
C2 C 0.27682 0.10167 0.08426 0.0
C3 C 0.28335 0.09846 0.11516 0.0
N4 N 0.2648 0.11712 0.08418 0.0
N5 N 0.27524 0.11182 0.13452 0.0
H6 H 0.25358 0.13286 0.12461 0.0
H7 H 0.2789 0.09196 0.06415 0.0
C8 C 0.28092 0.11775 0.0121 0.0
O9 O 0.2899 0.12924 0.03242 0.0
N10 N 0.22468 0.12581 0.02109 0.0
C11 C 0.2108 0.13951 0.02151 0.0
C12 C 0.19978 0.13763 0.99404 0.0
C13 C 0.22193 0.11571 0.99385 0.0
N14 N 0.20684 0.12266 0.97672 0.0
C15 C 0.24845 0.16122 0.07365 0.0
C16 C 0.25968 0.17702 0.01546 0.0
C17 C 0.25719 0.18938 0.04197 0.0
C18 C 0.25144 0.18115 0.07129 0.0
C19 C 0.25667 0.15703 0.01896 0.0
N20 N 0.25171 0.14921 0.04813 0.0
H21 H 0.24244 0.15574 0.09568 0.0
H22 H 0.25763 0.14801 0.99781 0.0
H23 H 0.20896 0.15019 0.0403 0.0
H24 H 0.23105 0.10377 0.98647 0.0
O25 O 0.22565 0.12374 0.08647 0.0
O26 O 0.23419 0.09647 0.06255 0.0
O27 O 0.26301 0.11372 0.01637 0.0
C28 C 0.22387 0.10504 0.08462 0.0
H29 H 0.29191 0.08625 0.12318 0.0
H30 H 0.18748 0.14651 0.98749 0.0
H31 H 0.26372 0.18273 0.99211 0.0
H32 H 0.2484 0.19014 0.09205 0.0
Co33 Co 0.15277 0.99559 0.30343 0.0
C34 C 0.15002 0.01693 0.36436 0.0
C35 C 0.17211 0.02854 0.33391 0.0
C36 C 0.17446 0.03607 0.36438 0.0
N37 N 0.15667 0.01653 0.33383 0.0
N38 N 0.16056 0.02861 0.38345 0.0
H39 H 0.13976 1.0067 0.37395 0.0
H40 H 0.18233 0.02998 0.31431 0.0
C41 C 0.1565 0.0309 0.26122 0.0
O42 O 0.14485 0.04014 0.281 0.0
N43 N 0.14943 0.97458 0.27379 0.0
C44 C 0.13687 0.95978 0.27632 0.0
C45 C 0.13948 0.94771 0.25032 0.0
C46 C 0.15952 0.97141 0.24663 0.0
N47 N 0.15374 0.95506 0.23163 0.0
C48 C 0.11314 0.9974 0.32388 0.0
C49 C 0.09708 1.00812 0.26562 0.0
C50 C 0.0847 1.00414 0.29161 0.0
C51 C 0.09307 0.99893 0.32107 0.0
C52 C 0.11724 1.00636 0.26947 0.0
N53 N 0.12514 1.00154 0.29866 0.0
H54 H 0.11879 0.99166 0.34599 0.0
H55 H 0.1263 1.00793 0.24846 0.0
H56 H 0.12663 0.95786 0.2958 0.0
H57 H 0.17075 0.98102 0.23809 0.0
O58 O 0.15127 0.97739 0.33895 0.0
O59 O 0.17842 0.98597 0.31461 0.0
O60 O 0.16057 0.01309 0.26632 0.0
C61 C 0.17002 0.97595 0.33723 0.0
H62 H 0.18651 0.04481 0.37253 0.0
H63 H 0.13163 0.93443 0.24591 0.0
H64 H 0.09123 1.01159 0.24212 0.0
H65 H 0.08414 0.99548 0.34176 0.0
Co66 Co 0.28122 0.90544 0.55364 0.0
C67 C 0.26146 0.90406 0.61625 0.0
C68 C 0.24876 0.9252 0.58519 0.0
C69 C 0.24192 0.92821 0.61597 0.0
N70 N 0.26099 0.90992 0.58527 0.0
N71 N 0.25007 0.91491 0.63542 0.0
H72 H 0.27205 0.89415 0.62578 0.0
H73 H 0.24668 0.93491 0.56506 0.0
C74 C 0.24512 0.90898 0.51306 0.0
O75 O 0.23602 0.8976 0.53342 0.0
N76 N 0.3015 0.90158 0.52268 0.0
C77 C 0.31561 0.88813 0.52355 0.0
C78 C 0.32666 0.88994 0.49608 0.0
C79 C 0.30414 0.91147 0.49516 0.0
N80 N 0.31939 0.90461 0.4783 0.0
C81 C 0.27913 0.8661 0.57562 0.0
C82 C 0.26791 0.84953 0.51807 0.0
C83 C 0.27206 0.83737 0.54428 0.0
C84 C 0.27748 0.84602 0.57341 0.0
C85 C 0.26974 0.86968 0.52133 0.0
N86 N 0.2749 0.87785 0.55013 0.0
H87 H 0.28503 0.87195 0.59744 0.0
H88 H 0.26801 0.87854 0.50012 0.0
H89 H 0.31759 0.87766 0.54264 0.0
H90 H 0.29483 0.92317 0.48738 0.0
O91 O 0.30026 0.90422 0.588 0.0
O92 O 0.29122 0.93108 0.56325 0.0
O93 O 0.26302 0.91297 0.51741 0.0
C94 C 0.30167 0.92294 0.58557 0.0
H95 H 0.23309 0.94026 0.62387 0.0
H96 H 0.33913 0.8812 0.48982 0.0
H97 H 0.26424 0.8435 0.49479 0.0
H98 H 0.28101 0.83732 0.5943 0.0
Co99 Co 0.37384 0.03299 0.80133 0.0
C100 C 0.37637 1.01219 0.86293 0.0
C101 C 0.35453 1.00017 0.83247 0.0
C102 C 0.35221 0.99267 0.86298 0.0
N103 N 0.36983 1.01237 0.83234 0.0
N104 N 0.36597 1.00037 0.88204 0.0
H105 H 0.38645 0.02259 0.87249 0.0
H106 H 0.3444 0.99848 0.81282 0.0
C107 C 0.37016 0.99737 0.76019 0.0
O108 O 0.38202 0.9885 0.78009 0.0
N109 N 0.37728 0.05366 0.77101 0.0
C110 C 0.39054 0.06791 0.77219 0.0
C111 C 0.38834 0.07938 0.74529 0.0
C112 C 0.36715 0.05658 0.74381 0.0
N113 N 0.37367 0.07215 0.72746 0.0
C114 C 0.4136 0.02992 0.82161 0.0
C115 C 0.42898 0.01887 0.76302 0.0
C116 C 0.44154 0.02114 0.78934 0.0
C117 C 0.43354 0.02689 0.81884 0.0
C118 C 0.40901 0.02193 0.76693 0.0
N119 N 0.40138 0.02665 0.79634 0.0
H120 H 0.40826 0.03589 0.84376 0.0
H121 H 0.39984 0.02111 0.74594 0.0
H122 H 0.40121 0.06967 0.79104 0.0
H123 H 0.35518 0.04754 0.73631 0.0
O124 O 0.37558 0.0515 0.83637 0.0
O125 O 0.34833 0.04286 0.81242 0.0
O126 O 0.36584 0.01517 0.76482 0.0
C127 C 0.35681 0.05295 0.83481 0.0
H128 H 0.34031 0.98372 0.87114 0.0
H129 H 0.39715 0.09177 0.73901 0.0
H130 H 0.43452 0.0149 0.73953 0.0
H131 H 0.4427 0.02981 0.83943 0.0
Co132 Co 0.2435 0.90492 0.95049 0.0
C133 C 0.26452 0.90351 0.88914 0.0
C134 C 0.27585 0.92541 0.92017 0.0
C135 C 0.28309 0.92838 0.88962 0.0
N136 N 0.26419 0.90972 0.9199 0.0
N137 N 0.27581 0.9146 0.8702 0.0
H138 H 0.25452 0.89308 0.87945 0.0
H139 H 0.27723 0.93533 0.94017 0.0
C140 C 0.27928 0.90798 0.99181 0.0
O141 O 0.2885 0.89703 0.97096 0.0
N142 N 0.22271 0.90071 0.98035 0.0
C143 C 0.20787 0.88824 0.9774 0.0
C144 C 0.19594 0.89033 0.00377 0.0
C145 C 0.21971 0.91023 0.00808 0.0
N146 N 0.20342 0.90419 0.02308 0.0
C147 C 0.24536 0.86562 0.92742 0.0
C148 C 0.25761 0.84879 0.98421 0.0
C149 C 0.25426 0.83681 0.95749 0.0
C150 C 0.24794 0.84556 0.92888 0.0
C151 C 0.25492 0.86886 0.98165 0.0
N152 N 0.24958 0.87722 0.9531 0.0
H153 H 0.23894 0.87157 0.90602 0.0
H154 H 0.25646 0.87748 0.00312 0.0
H155 H 0.20579 0.87846 0.95736 0.0
H156 H 0.22937 0.92131 0.01696 0.0
O157 O 0.22501 0.90471 0.91503 0.0
O158 O 0.23384 0.93079 0.94214 0.0
O159 O 0.26129 0.91176 0.9877 0.0
C160 C 0.22367 0.92336 0.91888 0.0
H161 H 0.29155 0.9407 0.88175 0.0
H162 H 0.18264 0.88245 0.00798 0.0
H163 H 0.2621 0.84272 0.00707 0.0
H164 H 0.24421 0.83692 0.90805 0.0
Co165 Co 0.37437 0.99468 0.19776 0.0
C166 C 0.37878 0.01427 0.1364 0.0
C167 C 0.35755 0.02848 0.16581 0.0
C168 C 0.35613 0.03557 0.13486 0.0
N169 N 0.37161 0.01497 0.16649 0.0
N170 N 0.36938 0.02642 0.11641 0.0
H171 H 0.38887 1.00327 0.12838 0.0
H172 H 0.34764 0.03144 0.18539 0.0
C173 C 0.37223 0.01449 0.26273 0.0
O174 O 0.38564 1.00268 0.27366 0.0
N175 N 0.37673 0.97394 0.22878 0.0
C176 C 0.39041 0.96004 0.23073 0.0
C177 C 0.38597 0.94794 0.25596 0.0
C178 C 0.36383 0.9697 0.25213 0.0
N179 N 0.36933 0.95413 0.26951 0.0
C180 C 0.41457 0.98879 0.18333 0.0
C181 C 0.42953 0.01993 0.21665 0.0
C182 C 0.44234 1.00741 0.2007 0.0
C183 C 0.43455 0.99189 0.18344 0.0
C184 C 0.40947 0.01651 0.21535 0.0
N185 N 0.40222 1.00045 0.20028 0.0
H186 H 0.40913 0.97674 0.16958 0.0
H187 H 0.39998 0.02711 0.22592 0.0
H188 H 0.40274 0.95845 0.21507 0.0
H189 H 0.35078 0.978 0.25643 0.0
O190 O 0.37486 0.97565 0.16338 0.0
O191 O 0.34823 0.98586 0.18739 0.0
O192 O 0.36712 0.01379 0.2331 0.0
C193 C 0.35609 0.97502 0.16532 0.0
H194 H 0.34509 0.04537 0.12605 0.0
H195 H 0.3946 0.93582 0.26414 0.0
H196 H 0.43493 0.03252 0.2293 0.0
H197 H 0.44387 0.98199 0.1704 0.0
Co198 Co 0.28141 0.12034 0.44849 0.0
C199 C 0.26021 0.12056 0.38727 0.0
C200 C 0.24923 0.09897 0.41927 0.0
C201 C 0.24183 0.09556 0.38896 0.0
N202 N 0.26073 0.11478 0.41826 0.0
N203 N 0.24887 0.10919 0.36895 0.0
H204 H 0.27011 0.13088 0.37698 0.0
H205 H 0.24802 0.0893 0.43965 0.0
C206 C 0.24594 0.11702 0.49032 0.0
O207 O 0.23661 0.12786 0.46943 0.0
N208 N 0.30219 0.12526 0.47803 0.0
C209 C 0.31582 0.13913 0.47595 0.0
C210 C 0.32802 0.13741 0.50206 0.0
C211 C 0.30624 0.1152 0.50489 0.0
N212 N 0.32196 0.12233 0.52013 0.0
C213 C 0.27776 0.15948 0.4246 0.0
C214 C 0.26704 0.17633 0.4822 0.0
C215 C 0.26947 0.18824 0.45514 0.0
C216 C 0.27485 0.17951 0.42604 0.0
C217 C 0.26983 0.15628 0.47958 0.0
N218 N 0.27456 0.14791 0.45076 0.0
H219 H 0.28376 0.1536 0.40283 0.0
H220 H 0.26903 0.14769 0.50124 0.0
H221 H 0.31684 0.14968 0.45678 0.0
H222 H 0.29772 0.10305 0.51319 0.0
O223 O 0.29979 0.12085 0.41283 0.0
O224 O 0.29171 0.0947 0.44048 0.0
O225 O 0.26393 0.11331 0.48605 0.0
C226 C 0.30164 0.10225 0.417 0.0
H227 H 0.23341 0.0831 0.38167 0.0
H228 H 0.34052 0.14636 0.50705 0.0
H229 H 0.26334 0.18246 0.5054 0.0
H230 H 0.27778 0.18819 0.40487 0.0
Co231 Co 0.15182 0.03066 0.6982 0.0
C232 C 0.14749 1.01097 0.63705 0.0
C233 C 0.16915 0.99718 0.66615 0.0
C234 C 0.17074 0.99033 0.63507 0.0
N235 N 0.15472 1.0103 0.6671 0.0
N236 N 0.15724 0.99925 0.6168 0.0
H237 H 0.13716 0.02178 0.62923 0.0
H238 H 0.17921 0.99444 0.68559 0.0
C239 C 0.15427 1.01119 0.76335 0.0
O240 O 0.1407 0.02289 0.77407 0.0
N241 N 0.14931 0.0515 0.72898 0.0
C242 C 0.13554 0.06533 0.73078 0.0
C243 C 0.13993 0.07758 0.75578 0.0
C244 C 0.16221 0.05596 0.75218 0.0
N245 N 0.15663 0.07158 0.76933 0.0
C246 C 0.1114 0.03596 0.68463 0.0
C247 C 0.09726 1.00456 0.71841 0.0
C248 C 0.0841 0.01693 0.70297 0.0
C249 C 0.09146 0.03256 0.68541 0.0
C250 C 0.11724 1.00826 0.71642 0.0
N251 N 0.12408 0.02448 0.70123 0.0
H252 H 0.11655 0.04805 0.67064 0.0
H253 H 0.127 0.99775 0.72656 0.0
H254 H 0.1232 0.06677 0.71513 0.0
H255 H 0.17534 0.04778 0.75652 0.0
O256 O 0.15096 0.04956 0.66358 0.0
O257 O 0.17779 0.03976 0.68745 0.0
O258 O 0.15942 1.01181 0.73372 0.0
C259 C 0.16974 0.0504 0.6653 0.0
H260 H 0.18209 0.98097 0.62605 0.0
H261 H 0.13124 0.08971 0.76379 0.0
H262 H 0.09219 0.99187 0.73119 0.0
H263 H 0.08185 0.0423 0.67264 0.0
Co264 Co 0.78326 0.90116 0.95048 0.0
C265 C 0.76513 0.89872 0.88796 0.0
C266 C 0.7503 0.91927 0.91779 0.0
C267 C 0.74427 0.92177 0.88638 0.0
N268 N 0.76356 0.90496 0.91847 0.0
N269 N 0.75399 0.90909 0.86772 0.0
H270 H 0.77595 0.88838 0.88018 0.0
H271 H 0.74699 0.92872 0.9378 0.0
C272 C 0.76045 0.9012 0.01295 0.0
O273 O 0.76936 0.88535 0.02228 0.0
N274 N 0.80337 0.89774 0.9825 0.0
C275 C 0.81897 0.88596 0.98137 0.0
C276 C 0.83023 0.88917 0.00808 0.0
C277 C 0.80584 0.90849 0.00928 0.0
N278 N 0.82191 0.90329 0.02565 0.0
C279 C 0.78934 0.86091 0.93766 0.0
C280 C 0.75454 0.84701 0.96088 0.0
C281 C 0.7681 0.83379 0.94851 0.0
C282 C 0.7856 0.84111 0.93653 0.0
C283 C 0.75887 0.86689 0.96133 0.0
N284 N 0.77661 0.87355 0.95151 0.0
H285 H 0.8024 0.86603 0.92637 0.0
H286 H 0.74772 0.87686 0.96887 0.0
H287 H 0.82268 0.87629 0.96205 0.0
H288 H 0.7961 0.91996 0.01653 0.0
O289 O 0.80279 0.9006 0.91677 0.0
O290 O 0.79296 0.92711 0.94147 0.0
O291 O 0.76391 0.90851 0.98522 0.0
C292 C 0.80372 0.91931 0.9192 0.0
H293 H 0.73531 0.93349 0.87752 0.0
H294 H 0.84385 0.88213 0.0135 0.0
H295 H 0.74049 0.84211 0.96919 0.0
H296 H 0.79642 0.83161 0.92617 0.0
Co297 Co 0.87099 0.02973 0.698 0.0
C298 C 0.8713 1.00975 0.63575 0.0
C299 C 0.84918 0.9987 0.66673 0.0
C300 C 0.84563 0.99226 0.6359 0.0
N301 N 0.86536 1.0097 0.66669 0.0
N302 N 0.85954 0.99939 0.61649 0.0
H303 H 0.88201 0.01955 0.62633 0.0
H304 H 0.83931 0.99738 0.68685 0.0
C305 C 0.86642 0.99376 0.73817 0.0
O306 O 0.8771 0.98457 0.71687 0.0
N307 N 0.87601 0.04985 0.72863 0.0
C308 C 0.89004 0.06335 0.72726 0.0
C309 C 0.88846 0.07503 0.754 0.0
C310 C 0.86605 0.05342 0.75579 0.0
N311 N 0.87339 0.06871 0.7719 0.0
C312 C 0.91009 0.02613 0.6751 0.0
C313 C 0.92653 1.01225 0.73112 0.0
C314 C 0.93858 0.0154 0.70432 0.0
C315 C 0.92999 0.02264 0.6762 0.0
C316 C 0.90657 0.01607 0.72903 0.0
N317 N 0.89837 0.02219 0.70078 0.0
H318 H 0.90441 0.03304 0.65394 0.0
H319 H 0.89793 0.0147 0.75056 0.0
H320 H 0.90068 0.06457 0.70823 0.0
H321 H 0.85351 0.04517 0.76327 0.0
O322 O 0.87282 0.04855 0.66343 0.0
O323 O 0.84567 0.04091 0.68858 0.0
O324 O 0.86303 1.01185 0.73459 0.0
C325 C 0.85418 0.0508 0.66591 0.0
H326 H 0.83284 0.98457 0.62791 0.0
H327 H 0.89783 0.08705 0.75998 0.0
H328 H 0.93244 1.00707 0.75369 0.0
H329 H 0.93866 0.02641 0.65538 0.0
Co330 Co 0.74622 0.12236 0.44484 0.0
C331 C 0.7669 0.12318 0.38311 0.0
C332 C 0.77841 0.10154 0.41449 0.0
C333 C 0.78533 0.09819 0.38384 0.0
N334 N 0.76684 0.11732 0.41411 0.0
N335 N 0.77793 0.11181 0.36419 0.0
H336 H 0.75676 0.13345 0.3733 0.0
H337 H 0.77985 0.09172 0.43463 0.0
C338 C 0.78142 0.11755 0.48699 0.0
O339 O 0.79101 0.12879 0.46704 0.0
N340 N 0.7255 0.12674 0.47474 0.0
C341 C 0.71209 0.14088 0.4738 0.0
C342 C 0.69979 0.13854 0.49965 0.0
C343 C 0.7212 0.11591 0.50064 0.0
N344 N 0.70555 0.12281 0.5164 0.0
C345 C 0.75083 0.16177 0.42372 0.0
C346 C 0.76133 0.17728 0.48244 0.0
C347 C 0.75934 0.18976 0.45594 0.0
C348 C 0.75398 0.18166 0.42633 0.0
C349 C 0.75815 0.15735 0.4787 0.0
N350 N 0.75354 0.14965 0.44931 0.0
H351 H 0.74508 0.15641 0.40143 0.0
H352 H 0.75864 0.14828 0.49986 0.0
H353 H 0.7113 0.15204 0.45558 0.0
H354 H 0.72951 0.10336 0.50791 0.0
O355 O 0.72787 0.12454 0.40955 0.0
O356 O 0.73546 0.0972 0.4342 0.0
O357 O 0.76349 0.11396 0.4819 0.0
C358 C 0.72571 0.10587 0.41155 0.0
H359 H 0.7936 0.0857 0.37613 0.0
H360 H 0.68741 0.14754 0.50535 0.0
H361 H 0.76506 0.18287 0.50599 0.0
H362 H 0.75133 0.19074 0.40552 0.0
Co363 Co 0.65602 0.99343 0.1973 0.0
C364 C 0.65765 1.01077 0.13317 0.0
C365 C 0.67678 0.02531 0.16553 0.0
C366 C 0.68128 0.03092 0.13454 0.0
N367 N 0.66176 0.01275 0.16474 0.0
N368 N 0.6694 0.02142 0.11436 0.0
H369 H 0.64807 0.99989 0.12359 0.0
H370 H 0.68549 0.02833 0.18655 0.0
C371 C 0.65913 0.03028 0.23625 0.0
O372 O 0.6485 0.03929 0.21468 0.0
N373 N 0.65081 0.97397 0.229 0.0
C374 C 0.63698 0.96025 0.22774 0.0
C375 C 0.63838 0.94899 0.25499 0.0
C376 C 0.66047 0.97094 0.25661 0.0
N377 N 0.65314 0.95578 0.27307 0.0
C378 C 0.61729 0.99631 0.17198 0.0
C379 C 0.59976 1.01015 0.22717 0.0
C380 C 0.58813 1.00661 0.20004 0.0
C381 C 0.59727 0.99945 0.17227 0.0
C382 C 0.61977 1.0066 0.22594 0.0
N383 N 0.62848 1.00041 0.19818 0.0
H384 H 0.62354 0.98962 0.15104 0.0
H385 H 0.62805 1.00825 0.24778 0.0
H386 H 0.62666 0.95857 0.20836 0.0
H387 H 0.67286 0.97941 0.26408 0.0
O388 O 0.65566 0.97346 0.16419 0.0
O389 O 0.68179 0.98307 0.19057 0.0
O390 O 0.66283 1.01225 0.23302 0.0
C391 C 0.67431 0.97214 0.16834 0.0
H392 H 0.69373 0.0394 0.12726 0.0
H393 H 0.62914 0.93689 0.26111 0.0
H394 H 0.59352 0.01544 0.24941 0.0
H395 H 0.58898 0.99553 0.15115 0.0
Co396 Co 0.78041 0.12243 0.049 0.0
C397 C 0.7602 0.12399 0.11119 0.0
C398 C 0.74809 0.10244 0.08035 0.0
C399 C 0.7413 0.09937 0.11116 0.0
N400 N 0.75996 0.11799 0.08028 0.0
N401 N 0.74908 0.11295 0.13046 0.0
H402 H 0.77057 0.13412 0.12069 0.0
H403 H 0.74632 0.09258 0.06036 0.0
C404 C 0.7446 0.1189 0.00812 0.0
O405 O 0.7356 0.1303 0.02858 0.0
N406 N 0.80096 0.12621 0.01851 0.0
C407 C 0.81484 0.13989 0.01931 0.0
C408 C 0.82685 0.13726 0.99318 0.0
C409 C 0.8047 0.11537 0.99238 0.0
N410 N 0.82045 0.12182 0.97636 0.0
C411 C 0.7781 0.16178 0.07046 0.0
C412 C 0.7675 0.17823 0.01245 0.0
C413 C 0.77158 0.1904 0.0386 0.0
C414 C 0.77664 0.18183 0.06797 0.0
C415 C 0.76915 0.15807 0.01599 0.0
N416 N 0.77403 0.14997 0.045 0.0
H417 H 0.78384 0.15599 0.09245 0.0
H418 H 0.76756 0.14915 0.99484 0.0
H419 H 0.81616 0.1509 0.03766 0.0
H420 H 0.79595 0.10313 0.98519 0.0
O421 O 0.79914 0.12395 0.08369 0.0
O422 O 0.79049 0.09687 0.05932 0.0
O423 O 0.76248 0.11476 0.01245 0.0
C424 C 0.8007 0.10525 0.0817 0.0
H425 H 0.73285 0.0871 0.11923 0.0
H426 H 0.8395 0.14584 0.98738 0.0
H427 H 0.7641 0.18423 0.98903 0.0
H428 H 0.78013 0.1906 0.08879 0.0
Co429 Co 0.65486 0.03271 0.79659 0.0
C430 C 0.65659 0.01469 0.86037 0.0
C431 C 0.6749 0.99982 0.82713 0.0
C432 C 0.67951 0.99378 0.85786 0.0
N433 N 0.6603 0.01286 0.8286 0.0
N434 N 0.66814 1.00348 0.87859 0.0
H435 H 0.64756 0.02586 0.87059 0.0
H436 H 0.6834 0.99671 0.80589 0.0
C437 C 0.65788 0.99678 0.75608 0.0
O438 O 0.64609 0.98824 0.77648 0.0
N439 N 0.65008 0.05272 0.76553 0.0
C440 C 0.63632 0.06651 0.76701 0.0
C441 C 0.63788 0.07802 0.74007 0.0
C442 C 0.65988 0.05596 0.7381 0.0
N443 N 0.65268 0.07132 0.72194 0.0
C444 C 0.616 0.02682 0.82006 0.0
C445 C 0.59927 0.01839 0.76128 0.0
C446 C 0.58733 0.01942 0.7886 0.0
C447 C 0.59603 0.02368 0.81827 0.0
C448 C 0.61926 0.02155 0.76418 0.0
N449 N 0.62753 0.0253 0.79348 0.0
H450 H 0.6219 0.03146 0.84267 0.0
H451 H 0.62798 0.02164 0.74257 0.0
H452 H 0.62583 0.06798 0.78623 0.0
H453 H 0.67221 0.04743 0.73045 0.0
O454 O 0.65304 0.05192 0.83057 0.0
O455 O 0.68018 0.04364 0.80577 0.0
O456 O 0.66264 0.01449 0.76045 0.0
C457 C 0.67174 0.05388 0.82807 0.0
H458 H 0.69177 0.98486 0.86458 0.0
H459 H 0.62866 0.09017 0.7341 0.0
H460 H 0.59323 0.01538 0.73775 0.0
H461 H 0.58738 0.02542 0.83984 0.0
Co462 Co 0.74481 0.90251 0.55001 0.0
C463 C 0.76398 0.90206 0.61257 0.0
C464 C 0.7765 0.92342 0.58172 0.0
C465 C 0.78268 0.92685 0.61278 0.0
N466 N 0.76479 0.90774 0.58158 0.0
N467 N 0.77447 0.91353 0.63202 0.0
H468 H 0.7538 0.89162 0.62173 0.0
H469 H 0.77842 0.93317 0.5616 0.0
C470 C 0.78111 0.90686 0.51022 0.0
O471 O 0.79041 0.89616 0.53135 0.0
N472 N 0.72471 0.89778 0.51922 0.0
C473 C 0.71124 0.8837 0.52014 0.0
C474 C 0.69923 0.88587 0.49392 0.0
C475 C 0.72075 0.90839 0.49294 0.0
N476 N 0.70523 0.90143 0.47695 0.0
C477 C 0.74726 0.86345 0.57328 0.0
C478 C 0.76255 0.8468 0.51845 0.0
C479 C 0.7588 0.83488 0.54518 0.0
C480 C 0.75077 0.84356 0.57265 0.0
C481 C 0.75861 0.86672 0.52002 0.0
N482 N 0.75184 0.87503 0.54775 0.0
H483 H 0.73992 0.86926 0.59397 0.0
H484 H 0.76051 0.87524 0.49849 0.0
H485 H 0.71012 0.87279 0.53872 0.0
H486 H 0.72913 0.92089 0.48571 0.0
O487 O 0.72565 0.90149 0.58434 0.0
O488 O 0.73429 0.92809 0.55856 0.0
O489 O 0.76295 0.91002 0.51365 0.0
C490 C 0.72398 0.92015 0.58125 0.0
H491 H 0.79047 0.9395 0.62105 0.0
H492 H 0.68681 0.87695 0.48821 0.0
H493 H 0.76836 0.84085 0.49636 0.0
H494 H 0.74652 0.835 0.59332 0.0
Co495 Co 0.87085 0.99846 0.30358 0.0
C496 C 0.87225 0.01923 0.36518 0.0
C497 C 0.85074 0.03106 0.33385 0.0
C498 C 0.84769 0.03827 0.36438 0.0
N499 N 0.86625 0.01912 0.33428 0.0
N500 N 0.86124 0.03068 0.38398 0.0
H501 H 0.88231 1.00891 0.37508 0.0
H502 H 0.84089 0.03263 0.31378 0.0
C503 C 0.8672 0.03381 0.26178 0.0
O504 O 0.8787 0.04297 0.28185 0.0
N505 N 0.87478 0.97778 0.27355 0.0
C506 C 0.88849 0.96394 0.27465 0.0
C507 C 0.88622 0.95211 0.24827 0.0
C508 C 0.8643 0.97423 0.24696 0.0
N509 N 0.87102 0.95865 0.23089 0.0
C510 C 0.91031 1.00138 0.32484 0.0
C511 C 0.92652 1.01109 0.26618 0.0
C512 C 0.93884 1.00749 0.29237 0.0
C513 C 0.9304 1.00287 0.32207 0.0
C514 C 0.90637 1.00942 0.27001 0.0
N515 N 0.89839 1.00497 0.29931 0.0
H516 H 0.90461 0.99598 0.34714 0.0
H517 H 0.89737 1.01061 0.24887 0.0
H518 H 0.89944 0.96266 0.29317 0.0
H519 H 0.85188 0.98278 0.23984 0.0
O520 O 0.87251 0.98 0.3387 0.0
O521 O 0.84535 0.9883 0.31403 0.0
O522 O 0.86304 0.01602 0.26668 0.0
C523 C 0.85379 0.97824 0.33655 0.0
H524 H 0.83542 0.04686 0.37211 0.0
H525 H 0.89528 0.93987 0.24211 0.0
H526 H 0.93242 0.01413 0.24253 0.0
H527 H 0.93928 0.99976 0.34294 0.0
Co528 Co 0.74512 0.62229 0.55116 0.0
C529 C 0.76608 0.62682 0.61112 0.0
C530 C 0.77916 0.60487 0.58175 0.0
C531 C 0.78697 0.60379 0.61226 0.0
N532 N 0.76591 0.61917 0.58139 0.0
N533 N 0.77851 0.61749 0.63071 0.0
H534 H 0.75546 0.63726 0.61935 0.0
H535 H 0.78148 0.59466 0.5624 0.0
C536 C 0.76663 0.62178 0.48719 0.0
O537 O 0.75763 0.63761 0.47799 0.0
N538 N 0.72387 0.6251 0.52101 0.0
C539 C 0.70728 0.63513 0.52518 0.0
C540 C 0.69526 0.6318 0.49946 0.0
C541 C 0.72128 0.61516 0.49341 0.0
N542 N 0.70412 0.61931 0.47933 0.0
C543 C 0.73871 0.66281 0.56138 0.0
C544 C 0.77293 0.67635 0.53527 0.0
C545 C 0.75934 0.68972 0.54694 0.0
C546 C 0.74225 0.68267 0.56071 0.0
C547 C 0.76896 0.65644 0.53715 0.0
N548 N 0.75144 0.64991 0.54819 0.0
H549 H 0.72586 0.65788 0.57352 0.0
H550 H 0.78014 0.64636 0.53012 0.0
H551 H 0.70345 0.64349 0.54612 0.0
H552 H 0.73161 0.60482 0.48418 0.0
O553 O 0.72678 0.62328 0.58664 0.0
O554 O 0.73587 0.59646 0.56199 0.0
O555 O 0.76347 0.61455 0.51508 0.0
C556 C 0.72563 0.60455 0.58464 0.0
H557 H 0.79672 0.59267 0.62091 0.0
H558 H 0.68081 0.63761 0.49658 0.0
H559 H 0.78668 0.68121 0.52565 0.0
H560 H 0.73163 0.69247 0.57089 0.0
Co561 Co 0.65311 0.49238 0.79828 0.0
C562 C 0.65142 0.51304 0.85999 0.0
C563 C 0.6732 0.52478 0.82905 0.0
C564 C 0.67608 0.53192 0.85965 0.0
N565 N 0.65762 0.51294 0.82918 0.0
N566 N 0.66237 0.52439 0.87901 0.0
H567 H 0.64117 0.50284 0.86966 0.0
H568 H 0.68316 0.52634 0.8091 0.0
C569 C 0.65681 0.52807 0.75702 0.0
O570 O 0.64539 0.53721 0.77729 0.0
N571 N 0.64922 0.47177 0.76807 0.0
C572 C 0.63588 0.4576 0.76958 0.0
C573 C 0.6379 0.44604 0.74276 0.0
C574 C 0.65921 0.46871 0.74077 0.0
N575 N 0.65254 0.45312 0.72468 0.0
C576 C 0.61362 0.49509 0.82013 0.0
C577 C 0.59735 0.5067 0.76254 0.0
C578 C 0.58515 0.50394 0.78924 0.0
C579 C 0.59362 0.49795 0.81823 0.0
C580 C 0.61742 0.50383 0.7656 0.0
N581 N 0.62549 0.49877 0.79452 0.0
H582 H 0.6193 0.48889 0.84189 0.0
H583 H 0.6263 0.50503 0.74429 0.0
H584 H 0.62533 0.45593 0.78865 0.0
H585 H 0.67124 0.47762 0.73307 0.0
O586 O 0.65191 0.47381 0.83339 0.0
O587 O 0.67877 0.48248 0.80822 0.0
O588 O 0.66072 0.51017 0.76147 0.0
C589 C 0.67066 0.47239 0.83101 0.0
H590 H 0.68832 0.54047 0.86759 0.0
H591 H 0.62903 0.43365 0.73678 0.0
H592 H 0.59145 0.51089 0.73941 0.0
H593 H 0.58476 0.49468 0.83907 0.0
Co594 Co 0.78193 0.40389 0.04937 0.0
C595 C 0.76136 0.4028 0.1113 0.0
C596 C 0.74983 0.42458 0.08019 0.0
C597 C 0.74272 0.42766 0.11078 0.0
N598 N 0.7615 0.40886 0.08043 0.0
N599 N 0.75011 0.41393 0.13024 0.0
H600 H 0.77148 0.3925 0.12106 0.0
H601 H 0.74834 0.43446 0.06014 0.0
C602 C 0.74616 0.40769 0.00873 0.0
O603 O 0.73731 0.39631 0.02941 0.0
N604 N 0.80248 0.39952 0.01911 0.0
C605 C 0.81622 0.38571 0.02072 0.0
C606 C 0.82814 0.38751 0.99431 0.0
C607 C 0.8062 0.40963 0.99216 0.0
N608 N 0.82181 0.40257 0.97644 0.0
C609 C 0.77865 0.36456 0.07104 0.0
C610 C 0.76818 0.34841 0.01276 0.0
C611 C 0.77171 0.33611 0.039 0.0
C612 C 0.77675 0.34453 0.0685 0.0
C613 C 0.77027 0.3685 0.01636 0.0
N614 N 0.77503 0.37647 0.0455 0.0
H615 H 0.78435 0.37021 0.09315 0.0
H616 H 0.7691 0.37745 0.99516 0.0
H617 H 0.81747 0.3751 0.03976 0.0
H618 H 0.79751 0.42173 0.98409 0.0
O619 O 0.80055 0.40211 0.08424 0.0
O620 O 0.79249 0.42927 0.05947 0.0
O621 O 0.76409 0.41177 0.01271 0.0
C622 C 0.8025 0.42077 0.08202 0.0
H623 H 0.73426 0.43999 0.11863 0.0
H624 H 0.84064 0.37861 0.98895 0.0
H625 H 0.76486 0.34253 0.98923 0.0
H626 H 0.77985 0.33566 0.08938 0.0
Co627 Co 0.87146 0.53077 0.3004 0.0
C628 C 0.8743 0.50979 0.36158 0.0
C629 C 0.85299 0.49725 0.33065 0.0
C630 C 0.85057 0.48974 0.36114 0.0
N631 N 0.86798 0.50982 0.33087 0.0
N632 N 0.86398 0.49779 0.3805 0.0
H633 H 0.8841 0.52041 0.37126 0.0
H634 H 0.84306 0.49535 0.31077 0.0
C635 C 0.86939 0.49518 0.25831 0.0
O636 O 0.88087 0.48609 0.27854 0.0
N637 N 0.87437 0.55178 0.27068 0.0
C638 C 0.88667 0.56681 0.27307 0.0
C639 C 0.88383 0.57878 0.24699 0.0
C640 C 0.86416 0.55473 0.24361 0.0
N641 N 0.86965 0.57114 0.22851 0.0
C642 C 0.91109 0.5302 0.32231 0.0
C643 C 0.92781 0.51859 0.26506 0.0
C644 C 0.93989 0.52191 0.29169 0.0
C645 C 0.93119 0.52796 0.3205 0.0
C646 C 0.90768 0.52093 0.26798 0.0
N647 N 0.8994 0.52589 0.29678 0.0
H648 H 0.90511 0.5363 0.34396 0.0
H649 H 0.89891 0.51931 0.24666 0.0
H650 H 0.8969 0.56893 0.29248 0.0
H651 H 0.85308 0.54493 0.23508 0.0
O652 O 0.87132 0.54935 0.33572 0.0
O653 O 0.84524 0.53902 0.30995 0.0
O654 O 0.86497 0.51292 0.26319 0.0
C655 C 0.85254 0.54968 0.33269 0.0
H656 H 0.83879 0.48055 0.36904 0.0
H657 H 0.89143 0.59217 0.24232 0.0
H658 H 0.93383 0.51432 0.24204 0.0
H659 H 0.93991 0.53166 0.34128 0.0
Co660 Co 0.74404 0.40272 0.4456 0.0
C661 C 0.76449 0.40238 0.38356 0.0
C662 C 0.7762 0.42365 0.41536 0.0
C663 C 0.78323 0.42712 0.38483 0.0
N664 N 0.76448 0.408 0.41467 0.0
N665 N 0.77571 0.41372 0.36492 0.0
H666 H 0.75426 0.3923 0.37353 0.0
H667 H 0.77775 0.43329 0.4357 0.0
C668 C 0.77955 0.40692 0.4869 0.0
O669 O 0.7887 0.39557 0.46656 0.0
N670 N 0.7235 0.39812 0.47579 0.0
C671 C 0.71005 0.38404 0.47459 0.0
C672 C 0.69802 0.38596 0.50087 0.0
C673 C 0.71949 0.4085 0.50231 0.0
N674 N 0.70399 0.40137 0.5182 0.0
C675 C 0.74894 0.36349 0.42367 0.0
C676 C 0.75957 0.34759 0.48209 0.0
C677 C 0.75791 0.33535 0.45526 0.0
C678 C 0.75243 0.34363 0.42582 0.0
C679 C 0.75606 0.36751 0.4788 0.0
N680 N 0.75144 0.37541 0.44954 0.0
H681 H 0.74316 0.36898 0.40147 0.0
H682 H 0.7564 0.37641 0.50015 0.0
H683 H 0.70907 0.37317 0.45592 0.0
H684 H 0.72792 0.42087 0.50996 0.0
O685 O 0.7255 0.40073 0.41056 0.0
O686 O 0.73316 0.42795 0.43544 0.0
O687 O 0.76162 0.41085 0.48243 0.0
C688 C 0.72335 0.41939 0.41277 0.0
H689 H 0.79171 0.43952 0.37739 0.0
H690 H 0.68569 0.3769 0.5065 0.0
H691 H 0.76336 0.34185 0.50551 0.0
H692 H 0.75001 0.3347 0.40478 0.0
Co693 Co 0.87415 0.49176 0.69543 0.0
C694 C 0.87639 0.51253 0.63387 0.0
C695 C 0.8547 0.52455 0.6647 0.0
C696 C 0.85199 0.53178 0.63411 0.0
N697 N 0.8701 0.51247 0.66462 0.0
N698 N 0.86563 0.52406 0.61481 0.0
H699 H 0.88651 0.50218 0.62424 0.0
H700 H 0.8447 0.52622 0.68457 0.0
C701 C 0.87079 0.52743 0.73693 0.0
O702 O 0.88238 0.53653 0.71689 0.0
N703 N 0.87758 0.47104 0.72562 0.0
C704 C 0.89072 0.45666 0.72438 0.0
C705 C 0.88842 0.4452 0.75126 0.0
C706 C 0.86741 0.46819 0.75279 0.0
N707 N 0.87379 0.45254 0.7691 0.0
C708 C 0.91364 0.49297 0.67388 0.0
C709 C 0.93042 0.50385 0.73143 0.0
C710 C 0.94253 0.49934 0.70528 0.0
C711 C 0.93377 0.49411 0.67616 0.0
C712 C 0.91018 0.50251 0.7281 0.0
N713 N 0.90192 0.49751 0.69929 0.0
H714 H 0.90769 0.48718 0.65203 0.0
H715 H 0.90132 0.5045 0.74926 0.0
H716 H 0.90136 0.4548 0.70549 0.0
H717 H 0.85548 0.4773 0.76026 0.0
O718 O 0.87516 0.47322 0.66034 0.0
O719 O 0.84832 0.4823 0.68513 0.0
O720 O 0.86675 0.50959 0.73227 0.0
C721 C 0.8564 0.47206 0.66248 0.0
H722 H 0.83986 0.54049 0.6261 0.0
H723 H 0.8971 0.4327 0.75749 0.0
H724 H 0.93653 0.50741 0.7547 0.0
H725 H 0.94242 0.49032 0.65532 0.0
Co726 Co 0.78209 0.62115 0.94322 0.0
C727 C 0.76104 0.62676 0.88359 0.0
C728 C 0.74802 0.6043 0.91198 0.0
C729 C 0.74029 0.60366 0.88139 0.0
N730 N 0.7612 0.61864 0.91299 0.0
N731 N 0.74871 0.61767 0.86355 0.0
H732 H 0.77164 0.63732 0.87581 0.0
H733 H 0.74578 0.59375 0.93086 0.0
C734 C 0.75887 0.62149 0.00572 0.0
O735 O 0.76655 0.63813 0.01408 0.0
N736 N 0.80356 0.62325 0.97335 0.0
C737 C 0.82149 0.63015 0.96711 0.0
C738 C 0.83309 0.62729 0.99351 0.0
C739 C 0.80491 0.61544 0.00307 0.0
N740 N 0.82262 0.61809 0.01619 0.0
C741 C 0.79031 0.66167 0.93839 0.0
C742 C 0.75385 0.6754 0.95377 0.0
C743 C 0.76847 0.68872 0.94594 0.0
C744 C 0.78685 0.68153 0.93812 0.0
C745 C 0.75791 0.65545 0.95335 0.0
N746 N 0.77622 0.64881 0.94698 0.0
H747 H 0.80421 0.65669 0.93028 0.0
H748 H 0.74623 0.64536 0.95762 0.0
H749 H 0.82641 0.63589 0.94436 0.0
H750 H 0.79346 0.60737 0.01452 0.0
O751 O 0.80025 0.6223 0.90751 0.0
O752 O 0.79096 0.59533 0.93158 0.0
O753 O 0.7636 0.61341 0.97912 0.0
C754 C 0.8012 0.60353 0.90903 0.0
H755 H 0.73069 0.59258 0.87218 0.0
H756 H 0.84831 0.6309 0.99518 0.0
H757 H 0.73928 0.68031 0.95904 0.0
H758 H 0.79851 0.69122 0.9314 0.0
Co759 Co 0.65523 0.53089 0.19498 0.0
C760 C 0.65279 0.51077 0.13294 0.0
C761 C 0.67379 0.49766 0.16384 0.0
C762 C 0.67637 0.49052 0.13316 0.0
N763 N 0.65887 0.51034 0.16378 0.0
N764 N 0.66316 0.49891 0.11381 0.0
H765 H 0.64311 0.52158 0.12341 0.0
H766 H 0.68357 0.49543 0.18383 0.0
C767 C 0.65747 0.49485 0.23616 0.0
O768 O 0.64594 0.48597 0.2158 0.0
N769 N 0.65216 0.5515 0.22544 0.0
C770 C 0.63995 0.56662 0.22324 0.0
C771 C 0.64248 0.57814 0.24993 0.0
C772 C 0.66199 0.55394 0.25305 0.0
N773 N 0.65634 0.57012 0.26867 0.0
C774 C 0.61563 0.53002 0.17306 0.0
C775 C 0.59896 0.51842 0.23038 0.0
C776 C 0.58686 0.52176 0.20377 0.0
C777 C 0.59553 0.52778 0.17492 0.0
C778 C 0.6191 0.52072 0.22739 0.0
N779 N 0.62735 0.52574 0.19858 0.0
H780 H 0.62156 0.53614 0.15141 0.0
H781 H 0.62791 0.51906 0.24867 0.0
H782 H 0.62999 0.56911 0.20357 0.0
H783 H 0.6729 0.54394 0.26154 0.0
O784 O 0.65506 0.54987 0.16027 0.0
O785 O 0.68135 0.53953 0.18544 0.0
O786 O 0.66194 0.51261 0.23161 0.0
C787 C 0.67384 0.55038 0.16308 0.0
H788 H 0.68811 0.48129 0.1252 0.0
H789 H 0.63486 0.59151 0.2548 0.0
H790 H 0.59295 0.51417 0.25341 0.0
H791 H 0.58679 0.53147 0.15415 0.0
Co792 Co 0.28303 0.40182 0.44411 0.0
C793 C 0.26191 0.39599 0.38442 0.0
C794 C 0.24772 0.41698 0.41427 0.0
C795 C 0.23993 0.41798 0.38376 0.0
N796 N 0.26169 0.40336 0.41438 0.0
N797 N 0.24913 0.40495 0.36495 0.0
H798 H 0.27306 0.3862 0.37593 0.0
H799 H 0.24495 0.42698 0.43376 0.0
C800 C 0.25948 0.40078 0.5063 0.0
O801 O 0.2667 0.38378 0.51386 0.0
N802 N 0.30499 0.40097 0.47361 0.0
C803 C 0.32363 0.39709 0.4656 0.0
C804 C 0.33545 0.40109 0.49129 0.0
C805 C 0.30596 0.40775 0.50408 0.0
N806 N 0.32426 0.40767 0.51535 0.0
C807 C 0.29344 0.36146 0.44645 0.0
C808 C 0.25653 0.34682 0.45484 0.0
C809 C 0.27222 0.33388 0.45372 0.0
C810 C 0.29082 0.3415 0.44923 0.0
C811 C 0.25985 0.36684 0.4525 0.0
N812 N 0.27825 0.37402 0.44936 0.0
H813 H 0.30774 0.36667 0.44109 0.0
H814 H 0.24761 0.37659 0.45343 0.0
H815 H 0.32865 0.39244 0.4422 0.0
H816 H 0.29401 0.41401 0.51717 0.0
O817 O 0.30078 0.40086 0.40779 0.0
O818 O 0.29075 0.42775 0.43138 0.0
O819 O 0.26471 0.40935 0.48038 0.0
C820 C 0.30105 0.41969 0.40878 0.0
H821 H 0.22972 0.42875 0.37535 0.0
H822 H 0.35108 0.39976 0.49203 0.0
H823 H 0.24186 0.34155 0.45785 0.0
H824 H 0.30327 0.33203 0.44697 0.0
Co825 Co 0.37269 0.53458 0.19844 0.0
C826 C 0.37247 0.51602 0.13517 0.0
C827 C 0.35355 0.50139 0.16777 0.0
C828 C 0.34946 0.4952 0.13698 0.0
N829 N 0.36817 0.51442 0.16675 0.0
N830 N 0.36118 0.50477 0.1166 0.0
H831 H 0.3817 0.5271 0.12524 0.0
H832 H 0.34468 0.49847 0.18866 0.0
C833 C 0.36987 0.49857 0.23926 0.0
O834 O 0.3819 0.48994 0.21935 0.0
N835 N 0.37652 0.55482 0.22934 0.0
C836 C 0.38928 0.56949 0.22765 0.0
C837 C 0.38672 0.58112 0.25423 0.0
C838 C 0.36637 0.55764 0.25654 0.0
N839 N 0.37229 0.57364 0.2724 0.0
C840 C 0.41196 0.53083 0.17577 0.0
C841 C 0.4286 0.52105 0.23404 0.0
C842 C 0.44067 0.52304 0.20698 0.0
C843 C 0.43199 0.52808 0.17762 0.0
C844 C 0.40852 0.52388 0.23109 0.0
N845 N 0.40029 0.52816 0.20195 0.0
H846 H 0.40608 0.53607 0.15349 0.0
H847 H 0.3997 0.52321 0.25256 0.0
H848 H 0.39956 0.57165 0.2083 0.0
H849 H 0.35493 0.54806 0.2644 0.0
O850 O 0.37387 0.5537 0.16413 0.0
O851 O 0.347 0.54456 0.18882 0.0
O852 O 0.36522 0.51628 0.23465 0.0
C853 C 0.3551 0.55501 0.16646 0.0
H854 H 0.33728 0.48631 0.12986 0.0
H855 H 0.3947 0.59424 0.25931 0.0
H856 H 0.43458 0.51747 0.2574 0.0
H857 H 0.44069 0.53067 0.15634 0.0
Co858 Co 0.24375 0.62294 0.94768 0.0
C859 C 0.26421 0.62405 0.88575 0.0
C860 C 0.27612 0.6026 0.91707 0.0
C861 C 0.28312 0.59941 0.88643 0.0
N862 N 0.26427 0.61816 0.91671 0.0
N863 N 0.27546 0.61292 0.86682 0.0
H864 H 0.25391 0.63418 0.87599 0.0
H865 H 0.27778 0.59283 0.93724 0.0
C866 C 0.27961 0.61971 0.98854 0.0
O867 O 0.28847 0.63101 0.96774 0.0
N868 N 0.22315 0.62709 0.97792 0.0
C869 C 0.20925 0.64075 0.97646 0.0
C870 C 0.19733 0.63867 0.00283 0.0
C871 C 0.21951 0.6168 0.00471 0.0
N872 N 0.20381 0.62358 0.02049 0.0
C873 C 0.2466 0.66225 0.92518 0.0
C874 C 0.25807 0.6788 0.98259 0.0
C875 C 0.25529 0.69086 0.95576 0.0
C876 C 0.24938 0.68225 0.92685 0.0
C877 C 0.25522 0.65875 0.97981 0.0
N878 N 0.25022 0.65053 0.95098 0.0
H879 H 0.24046 0.65648 0.90347 0.0
H880 H 0.25636 0.64999 0.00125 0.0
H881 H 0.2079 0.65143 0.95754 0.0
H882 H 0.22833 0.60474 0.01259 0.0
O883 O 0.22508 0.62407 0.91271 0.0
O884 O 0.23369 0.59729 0.93805 0.0
O885 O 0.2617 0.61556 0.98452 0.0
C886 C 0.22356 0.60537 0.91526 0.0
H887 H 0.29164 0.5871 0.87868 0.0
H888 H 0.18471 0.64739 0.00828 0.0
H889 H 0.26223 0.68478 0.00567 0.0
H890 H 0.24607 0.69097 0.90588 0.0
Co891 Co 0.15752 0.49203 0.69787 0.0
C892 C 0.1543 0.51358 0.63724 0.0
C893 C 0.17609 0.52555 0.66786 0.0
C894 C 0.17831 0.53328 0.63749 0.0
N895 N 0.16095 0.51318 0.66775 0.0
N896 N 0.16461 0.5256 0.61831 0.0
H897 H 0.14418 0.50325 0.62761 0.0
H898 H 0.18622 0.52716 0.68755 0.0
C899 C 0.15921 0.52764 0.73987 0.0
O900 O 0.14769 0.53646 0.71938 0.0
N901 N 0.15455 0.47072 0.72719 0.0
C902 C 0.14504 0.45405 0.72128 0.0
C903 C 0.14711 0.44204 0.74751 0.0
C904 C 0.16204 0.46883 0.75692 0.0
N905 N 0.15767 0.45148 0.76976 0.0
C906 C 0.118 0.49156 0.67592 0.0
C907 C 0.1008 0.50301 0.73288 0.0
C908 C 0.08886 0.49847 0.70659 0.0
C909 C 0.09782 0.49274 0.67783 0.0
C910 C 0.12103 0.50159 0.72994 0.0
N911 N 0.12952 0.49657 0.70131 0.0
H912 H 0.12421 0.48564 0.6543 0.0
H913 H 0.1297 0.50373 0.75123 0.0
H914 H 0.13732 0.45077 0.69929 0.0
H915 H 0.17093 0.47962 0.76866 0.0
O916 O 0.15788 0.47379 0.66209 0.0
O917 O 0.18387 0.48389 0.68823 0.0
O918 O 0.16379 0.5099 0.73535 0.0
C919 C 0.17662 0.47339 0.6652 0.0
H920 H 0.19014 0.54238 0.62948 0.0
H921 H 0.14129 0.42759 0.75018 0.0
H922 H 0.09457 0.50681 0.75597 0.0
H923 H 0.08931 0.48882 0.65693 0.0
Co924 Co 0.28069 0.62308 0.55289 0.0
C925 C 0.25948 0.62481 0.61408 0.0
C926 C 0.24794 0.60311 0.58288 0.0
C927 C 0.24057 0.60019 0.61335 0.0
N928 N 0.25982 0.61864 0.58329 0.0
N929 N 0.24798 0.61385 0.63288 0.0
H930 H 0.26962 0.63504 0.62393 0.0
H931 H 0.24652 0.59321 0.56287 0.0
C932 C 0.24507 0.62035 0.51126 0.0
O933 O 0.23606 0.63165 0.53187 0.0
N934 N 0.30165 0.62694 0.52322 0.0
C935 C 0.31658 0.63928 0.52645 0.0
C936 C 0.32863 0.63716 0.50027 0.0
C937 C 0.30472 0.61746 0.49546 0.0
N938 N 0.32114 0.62341 0.48074 0.0
C939 C 0.27931 0.66235 0.57534 0.0
C940 C 0.26842 0.67946 0.51801 0.0
C941 C 0.27267 0.69137 0.54444 0.0
C942 C 0.27796 0.68246 0.57344 0.0
C943 C 0.26998 0.65926 0.52095 0.0
N944 N 0.27489 0.65082 0.54968 0.0
H945 H 0.28513 0.65627 0.59708 0.0
H946 H 0.26821 0.65059 0.49957 0.0
H947 H 0.31863 0.64902 0.54654 0.0
H948 H 0.29501 0.6065 0.48633 0.0
O949 O 0.29907 0.62367 0.58831 0.0
O950 O 0.29019 0.59719 0.56244 0.0
O951 O 0.26295 0.61615 0.51562 0.0
C952 C 0.30036 0.60498 0.58544 0.0
H953 H 0.23198 0.58794 0.62112 0.0
H954 H 0.34201 0.64496 0.49634 0.0
H955 H 0.26489 0.6857 0.49481 0.0
H956 H 0.2816 0.69098 0.59445 0.0
Co957 Co 0.15389 0.53306 0.30179 0.0
C958 C 0.15291 0.51302 0.36416 0.0
C959 C 0.17416 0.50075 0.33277 0.0
C960 C 0.17733 0.4938 0.36342 0.0
N961 N 0.1587 0.51277 0.33313 0.0
N962 N 0.16396 0.50168 0.38308 0.0
H963 H 0.1429 0.52345 0.37392 0.0
H964 H 0.18386 0.4989 0.31255 0.0
C965 C 0.15775 0.49719 0.26096 0.0
O966 O 0.14633 0.48813 0.28131 0.0
N967 N 0.14972 0.5534 0.27113 0.0
C968 C 0.13613 0.56737 0.27226 0.0
C969 C 0.13805 0.5788 0.24526 0.0
C970 C 0.15976 0.55646 0.24387 0.0
N971 N 0.15289 0.57185 0.22744 0.0
C972 C 0.11452 0.52975 0.32395 0.0
C973 C 0.09821 0.51833 0.26632 0.0
C974 C 0.08603 0.52097 0.29308 0.0
C975 C 0.09453 0.52684 0.3221 0.0
C976 C 0.11827 0.52128 0.2693 0.0
N977 N 0.12635 0.52631 0.29821 0.0
H978 H 0.12021 0.53582 0.34578 0.0
H979 H 0.12713 0.5202 0.24795 0.0
H980 H 0.12549 0.56899 0.2912 0.0
H981 H 0.17197 0.5477 0.23647 0.0
O982 O 0.1524 0.55188 0.33645 0.0
O983 O 0.17941 0.54338 0.31156 0.0
O984 O 0.16169 0.51509 0.26528 0.0
C985 C 0.17112 0.55355 0.33408 0.0
H986 H 0.18953 0.4851 0.37111 0.0
H987 H 0.129 0.59103 0.23898 0.0
H988 H 0.09231 0.51419 0.24317 0.0
H989 H 0.08571 0.53001 0.34303 0.0
Co990 Co 0.2439 0.40287 0.05237 0.0
C991 C 0.266 0.39875 0.1123 0.0
C992 C 0.27719 0.42157 0.08292 0.0
C993 C 0.28507 0.42324 0.11327 0.0
N994 N 0.26519 0.40614 0.08228 0.0
N995 N 0.27787 0.40888 0.13166 0.0
H996 H 0.25592 0.38824 0.12152 0.0
H997 H 0.27836 0.43221 0.06392 0.0
C998 C 0.27925 0.40612 0.01015 0.0
O999 O 0.28822 0.39425 0.02989 0.0
N1000 N 0.22247 0.40006 0.0232 0.0
C1001 C 0.20575 0.39055 0.0289 0.0
C1002 C 0.19374 0.39287 0.00269 0.0
C1003 C 0.22061 0.4078 0.99363 0.0
N1004 N 0.20325 0.40357 0.98068 0.0
C1005 C 0.24514 0.36298 0.07207 0.0
C1006 C 0.25704 0.34748 0.01406 0.0
C1007 C 0.25418 0.33497 0.04029 0.0
C1008 C 0.24789 0.34303 0.06943 0.0
C1009 C 0.2542 0.36748 0.01784 0.0
N1010 N 0.24923 0.37517 0.04708 0.0
H1011 H 0.23888 0.36841 0.09398 0.0
H1012 H 0.25554 0.37662 0.99689 0.0
H1013 H 0.20243 0.38265 0.0507 0.0
H1014 H 0.23143 0.41673 0.98205 0.0
O1015 O 0.22603 0.40175 0.08853 0.0
O1016 O 0.23493 0.42867 0.06397 0.0
O1017 O 0.26145 0.41046 0.01509 0.0
C1018 C 0.22495 0.42051 0.08687 0.0
H1019 H 0.2938 0.43515 0.12196 0.0
H1020 H 0.17927 0.38709 -0.00015 0.0
H1021 H 0.26137 0.34191 0.99078 0.0
H1022 H 0.24446 0.33392 0.08988 0.0
Co1023 Co 0.37107 0.49306 0.80013 0.0
C1024 C 0.37165 0.51246 0.86266 0.0
C1025 C 0.3527 0.52699 0.82998 0.0
C1026 C 0.3489 0.53359 0.86066 0.0
N1027 N 0.36713 0.51375 0.83113 0.0
N1028 N 0.36063 0.52409 0.88109 0.0
H1029 H 0.38074 0.50133 0.87277 0.0
H1030 H 0.34371 0.52978 0.80918 0.0
C1031 C 0.36883 0.52857 0.75817 0.0
O1032 O 0.38117 0.53705 0.77768 0.0
N1033 N 0.37434 0.47226 0.77002 0.0
C1034 C 0.385 0.45609 0.77424 0.0
C1035 C 0.38239 0.44425 0.74792 0.0
C1036 C 0.36555 0.47022 0.74135 0.0
N1037 N 0.37028 0.4533 0.72741 0.0
C1038 C 0.41061 0.49659 0.82165 0.0
C1039 C 0.4268 0.50503 0.76243 0.0
C1040 C 0.43908 0.5035 0.78928 0.0
C1041 C 0.43064 0.49911 0.81913 0.0
C1042 C 0.40674 0.50243 0.76606 0.0
N1043 N 0.39873 0.49889 0.79565 0.0
H1044 H 0.40487 0.49187 0.84436 0.0
H1045 H 0.39774 0.50278 0.74481 0.0
H1046 H 0.39385 0.45305 0.79513 0.0
H1047 H 0.35553 0.48061 0.73121 0.0
O1048 O 0.37222 0.47444 0.83518 0.0
O1049 O 0.34529 0.48364 0.81075 0.0
O1050 O 0.36368 0.51106 0.76343 0.0
C1051 C 0.35344 0.4733 0.83321 0.0
H1052 H 0.33685 0.54269 0.86776 0.0
H1053 H 0.38893 0.43021 0.74399 0.0
H1054 H 0.4326 0.50809 0.73874 0.0
H1055 H 0.43951 0.49688 0.84031 0.0
H1056 H 0.17942 0.01607 0.21289 0.0
H1057 H 0.20031 0.11941 0.13197 0.0
H1058 H 0.15382 0.06948 0.24599 0.0
H1059 H 0.22106 0.06561 0.09216 0.0
H1060 H 0.18304 0.10127 0.1736 0.0
H1061 H 0.19467 0.03375 0.1685 0.0
C1062 C 0.17694 0.0315 0.21082 0.0
C1063 C 0.1653 0.04127 0.23337 0.0
C1064 C 0.19125 0.09339 0.15566 0.0
C1065 C 0.18285 0.06167 0.18247 0.0
C1066 C 0.20111 0.10376 0.1318 0.0
C1067 C 0.21213 0.09404 0.10842 0.0
C1068 C 0.19249 0.07308 0.15643 0.0
C1069 C 0.21268 0.07372 0.10958 0.0
C1070 C 0.18565 0.04159 0.18539 0.0
C1071 C 0.16263 0.06129 0.22928 0.0
N1072 N 0.2031 0.06394 0.13324 0.0
N1073 N 0.17138 0.0708 0.20449 0.0
H1074 H 0.15582 0.95294 0.38535 0.0
H1075 H 0.25974 0.93134 0.46395 0.0
H1076 H 0.20956 0.97326 0.34442 0.0
H1077 H 0.20626 0.90674 0.49908 0.0
H1078 H 0.2418 0.94661 0.41995 0.0
H1079 H 0.17413 0.93579 0.42686 0.0
C1080 C 0.1715 0.9537 0.38495 0.0
C1081 C 0.18116 0.96455 0.36127 0.0
C1082 C 0.23399 0.93782 0.4372 0.0
C1083 C 0.2023 0.94499 0.4091 0.0
C1084 C 0.24423 0.92908 0.46241 0.0
C1085 C 0.23452 0.91772 0.48542 0.0
C1086 C 0.21383 0.93532 0.43493 0.0
C1087 C 0.2144 0.91534 0.48199 0.0
C1088 C 0.18196 0.94389 0.40873 0.0
C1089 C 0.2015 0.96503 0.36211 0.0
N1090 N 0.20475 0.92411 0.45738 0.0
N1091 N 0.21138 0.95548 0.38568 0.0
H1092 H 0.30399 0.96247 0.59132 0.0
H1093 H 0.37338 0.9587 0.74637 0.0
H1094 H 0.32551 0.90956 0.63336 0.0
H1095 H 0.34678 1.01127 0.71165 0.0
H1096 H 0.3579 0.94087 0.70262 0.0
H1097 H 0.32149 0.98091 0.63248 0.0
C1098 C 0.31253 0.95473 0.60901 0.0
C1099 C 0.31329 0.93442 0.60882 0.0
C1100 C 0.35547 0.95632 0.70448 0.0
C1101 C 0.33331 0.95546 0.65618 0.0
C1102 C 0.36436 0.96654 0.72949 0.0
C1103 C 0.36137 0.98655 0.73287 0.0
C1104 C 0.3435 0.96611 0.68246 0.0
C1105 C 0.34947 0.99586 0.71014 0.0
C1106 C 0.32246 0.96527 0.6326 0.0
C1107 C 0.3245 0.92519 0.63251 0.0
N1108 N 0.34097 0.98557 0.68597 0.0
N1109 N 0.33402 0.93575 0.65519 0.0
H1110 H 0.37086 0.07571 0.88346 0.0
H1111 H 0.26664 0.09541 0.96273 0.0
H1112 H 0.31729 0.05543 0.842 0.0
H1113 H 0.31978 0.12038 0.99835 0.0
H1114 H 0.28481 0.08071 0.91841 0.0
H1115 H 0.35236 0.09226 0.9255 0.0
C1116 C 0.35519 0.07486 0.88303 0.0
C1117 C 0.34563 0.06418 0.85906 0.0
C1118 C 0.29249 0.08946 0.93585 0.0
C1119 C 0.32428 0.08301 0.90748 0.0
C1120 C 0.28212 0.09786 0.96125 0.0
C1121 C 0.29166 0.10916 0.98447 0.0
C1122 C 0.31263 0.09225 0.93361 0.0
C1123 C 0.31176 0.1118 0.9811 0.0
C1124 C 0.34462 0.0843 0.90711 0.0
C1125 C 0.32528 0.06354 0.85989 0.0
N1126 N 0.32155 0.10337 0.95631 0.0
N1127 N 0.31531 0.07273 0.88375 0.0
H1128 H 0.21058 0.96018 0.92929 0.0
H1129 H 0.17521 0.97841 0.74892 0.0
H1130 H 0.21106 0.91493 0.85783 0.0
H1131 H 0.1551 1.01261 0.82917 0.0
H1132 H 0.19129 0.95639 0.78693 0.0
H1133 H 0.19304 0.98107 0.89153 0.0
C1134 C 0.20691 0.95461 0.90569 0.0
C1135 C 0.21218 0.93574 0.89677 0.0
C1136 C 0.18327 0.96867 0.79617 0.0
C1137 C 0.19238 0.95971 0.85318 0.0
C1138 C 0.17414 0.98127 0.7745 0.0
C1139 C 0.16372 0.99736 0.78586 0.0
C1140 C 0.18228 0.97236 0.82942 0.0
C1141 C 0.16284 1.00033 0.8193 0.0
C1142 C 0.19688 0.96653 0.88417 0.0
C1143 C 0.20711 0.92931 0.86581 0.0
N1144 N 0.17211 0.98807 0.83983 0.0
N1145 N 0.19764 0.94132 0.84503 0.0
H1146 H 0.26491 0.93077 0.04071 0.0
H1147 H 0.36937 0.95042 0.1188 0.0
H1148 H 0.318 0.90504 0.00615 0.0
H1149 H 0.3164 0.97372 0.15815 0.0
H1150 H 0.35051 0.93319 0.07824 0.0
H1151 H 0.28311 0.94603 0.08448 0.0
C1152 C 0.28037 0.92823 0.04236 0.0
C1153 C 0.28991 0.91659 0.01954 0.0
C1154 C 0.34294 0.94197 0.09581 0.0
C1155 C 0.31089 0.93416 0.0697 0.0
C1156 C 0.35373 0.95183 0.11907 0.0
C1157 C 0.34447 0.96355 0.14201 0.0
C1158 C 0.32267 0.94386 0.0952 0.0
C1159 C 0.32415 0.96481 0.14102 0.0
C1160 C 0.29076 0.93698 0.06741 0.0
C1161 C 0.30998 0.91387 0.02306 0.0
N1162 N 0.31395 0.95517 0.11793 0.0
N1163 N 0.31977 0.92263 0.0475 0.0
H1164 H 0.3156 0.06583 0.42807 0.0
H1165 H 0.35118 0.04715 0.24786 0.0
H1166 H 0.31405 0.11057 0.35568 0.0
H1167 H 0.37145 0.01346 0.32861 0.0
H1168 H 0.33491 0.06923 0.28553 0.0
H1169 H 0.33353 0.04507 0.39066 0.0
C1170 C 0.31911 0.07132 0.40433 0.0
C1171 C 0.31341 0.09001 0.39506 0.0
C1172 C 0.34302 0.05706 0.29496 0.0
C1173 C 0.33369 0.06616 0.35185 0.0
C1174 C 0.35226 0.04441 0.27348 0.0
C1175 C 0.36278 0.02844 0.28506 0.0
C1176 C 0.34398 0.05352 0.32827 0.0
C1177 C 0.36366 0.02564 0.31855 0.0
C1178 C 0.32938 0.05947 0.38301 0.0
C1179 C 0.31833 0.09633 0.36394 0.0
N1180 N 0.35427 0.03794 0.3389 0.0
N1181 N 0.32802 0.08438 0.34335 0.0
H1182 H 0.15617 0.07443 0.61813 0.0
H1183 H 0.26048 0.0945 0.53944 0.0
H1184 H 0.20938 0.05209 0.65804 0.0
H1185 H 0.20721 0.11975 0.50471 0.0
H1186 H 0.24238 0.07931 0.58348 0.0
H1187 H 0.17487 0.09153 0.57709 0.0
C1188 C 0.17182 0.07322 0.61842 0.0
C1189 C 0.1812 0.0618 0.64166 0.0
C1190 C 0.23467 0.08824 0.56631 0.0
C1191 C 0.20282 0.08132 0.59433 0.0
C1192 C 0.245 0.09694 0.5411 0.0
C1193 C 0.23538 0.10844 0.51817 0.0
C1194 C 0.21452 0.09096 0.56863 0.0
C1195 C 0.21529 0.11104 0.52171 0.0
C1196 C 0.18252 0.08299 0.5949 0.0
C1197 C 0.20153 0.06076 0.64068 0.0
N1198 N 0.20557 0.10233 0.54629 0.0
N1199 N 0.21165 0.07031 0.61735 0.0
H1200 H 0.86944 0.95504 0.75162 0.0
H1201 H 0.8048 0.95895 0.91249 0.0
H1202 H 0.84482 1.00792 0.78889 0.0
H1203 H 0.82726 0.90635 0.87082 0.0
H1204 H 0.82078 0.97751 0.86961 0.0
H1205 H 0.85544 0.93741 0.79692 0.0
C1206 C 0.86113 0.963 0.76937 0.0
C1207 C 0.8583 0.98305 0.76625 0.0
C1208 C 0.82231 0.96192 0.86998 0.0
C1209 C 0.84212 0.96279 0.81856 0.0
C1210 C 0.81327 0.95132 0.89457 0.0
C1211 C 0.81473 0.93104 0.89538 0.0
C1212 C 0.83292 0.9522 0.84599 0.0
C1213 C 0.82577 0.92194 0.8713 0.0
C1214 C 0.85311 0.95288 0.7953 0.0
C1215 C 0.84736 0.99248 0.79017 0.0
N1216 N 0.83435 0.93254 0.84765 0.0
N1217 N 0.83966 0.98228 0.81523 0.0
H1218 H 0.76597 0.09515 0.53551 0.0
H1219 H 0.86881 0.07402 0.61849 0.0
H1220 H 0.81999 0.11969 0.50271 0.0
H1221 H 0.81465 0.05381 0.65802 0.0
H1222 H 0.85096 0.09102 0.57632 0.0
H1223 H 0.78322 0.08004 0.58057 0.0
C1224 C 0.78144 0.09742 0.53778 0.0
C1225 C 0.79152 0.10872 0.51512 0.0
C1226 C 0.84292 0.083 0.5943 0.0
C1227 C 0.81141 0.09136 0.56678 0.0
C1228 C 0.85312 0.07329 0.61849 0.0
C1229 C 0.84323 0.0625 0.64197 0.0
C1230 C 0.82259 0.08186 0.59325 0.0
C1231 C 0.82289 0.06204 0.64055 0.0
C1232 C 0.79128 0.08879 0.56358 0.0
C1233 C 0.81157 0.11113 0.51947 0.0
N1234 N 0.81325 0.07148 0.61653 0.0
N1235 N 0.82082 0.10249 0.54462 0.0
H1236 H 0.70414 0.12027 0.36158 0.0
H1237 H 0.67946 0.0159 0.28785 0.0
H1238 H 0.72112 0.06654 0.40637 0.0
H1239 H 0.65817 0.06947 0.24768 0.0
H1240 H 0.69445 0.03413 0.33168 0.0
H1241 H 0.68689 0.10196 0.32013 0.0
C1242 C 0.70412 0.10462 0.36287 0.0
C1243 C 0.71408 0.09494 0.38759 0.0
C1244 C 0.68644 0.04191 0.31337 0.0
C1245 C 0.69444 0.07381 0.3399 0.0
C1246 C 0.67787 0.0315 0.28825 0.0
C1247 C 0.66754 0.04114 0.26386 0.0
C1248 C 0.68481 0.06218 0.31418 0.0
C1249 C 0.66596 0.06138 0.26587 0.0
C1250 C 0.69427 0.09415 0.33913 0.0
C1251 C 0.7136 0.07462 0.38786 0.0
N1252 N 0.67456 0.07121 0.29044 0.0
N1253 N 0.70404 0.06475 0.36434 0.0
H1254 H 0.75431 0.94006 0.0181 0.0
H1255 H 0.66563 0.93794 0.13792 0.0
H1256 H 0.73635 0.88549 0.05868 0.0
H1257 H 0.71093 0.9804 0.14835 0.0
H1258 H 0.68641 0.9199 0.09996 0.0
H1259 H 0.73319 0.9569 0.05662 0.0
C1260 C 0.74578 0.93162 0.03492 0.0
C1261 C 0.7471 0.91135 0.03527 0.0
C1262 C 0.69175 0.93313 0.11076 0.0
C1263 C 0.72272 0.9305 0.07887 0.0
C1264 C 0.67995 0.9434 0.13229 0.0
C1265 C 0.6867 0.96053 0.14654 0.0
C1266 C 0.71009 0.94045 0.10261 0.0
C1267 C 0.7053 0.9671 0.13827 0.0
C1268 C 0.73386 0.94123 0.05695 0.0
C1269 C 0.73582 0.90113 0.05776 0.0
N1270 N 0.71625 0.9572 0.11655 0.0
N1271 N 0.72393 0.91081 0.07849 0.0
H1272 H 0.80303 0.06578 0.08921 0.0
H1273 H 0.87035 0.07231 0.24652 0.0
H1274 H 0.82415 0.11936 0.12925 0.0
H1275 H 0.84469 0.01906 0.21295 0.0
H1276 H 0.85544 0.08935 0.20132 0.0
H1277 H 0.82013 0.04803 0.13175 0.0
C1278 C 0.81141 0.07381 0.10674 0.0
C1279 C 0.81216 0.0941 0.10561 0.0
C1280 C 0.85309 0.07393 0.20376 0.0
C1281 C 0.83169 0.07388 0.15452 0.0
C1282 C 0.86165 0.06416 0.2296 0.0
C1283 C 0.85875 0.04419 0.23372 0.0
C1284 C 0.84156 0.06372 0.18166 0.0
C1285 C 0.84729 0.03446 0.21089 0.0
C1286 C 0.82111 0.06367 0.13111 0.0
C1287 C 0.82315 0.10372 0.12912 0.0
N1288 N 0.83911 0.04431 0.18592 0.0
N1289 N 0.83243 0.09355 0.15258 0.0
H1290 H 0.71124 0.05636 0.83483 0.0
H1291 H 0.70587 0.12211 0.99401 0.0
H1292 H 0.65779 0.07715 0.8762 0.0
H1293 H 0.75887 0.09668 0.95847 0.0
H1294 H 0.68838 0.10762 0.9489 0.0
H1295 H 0.72923 0.073 0.87746 0.0
C1296 C 0.70329 0.06461 0.85265 0.0
C1297 C 0.68295 0.06539 0.85184 0.0
C1298 C 0.70384 0.10523 0.9509 0.0
C1299 C 0.70348 0.08438 0.90098 0.0
C1300 C 0.71387 0.11355 0.97668 0.0
C1301 C 0.73391 0.11061 0.9802 0.0
C1302 C 0.71387 0.09391 0.92823 0.0
C1303 C 0.74344 0.09932 0.95688 0.0
C1304 C 0.71357 0.07403 0.87711 0.0
C1305 C 0.67344 0.07618 0.87577 0.0
N1306 N 0.73334 0.09139 0.93196 0.0
N1307 N 0.68376 0.08518 0.89934 0.0
H1308 H 0.65419 0.95801 0.74342 0.0
H1309 H 0.72164 0.95971 0.5858 0.0
H1310 H 0.68091 1.00994 0.7065 0.0
H1311 H 0.7006 0.90732 0.63018 0.0
H1312 H 0.70475 0.97864 0.62708 0.0
H1313 H 0.66904 0.9396 0.69965 0.0
C1314 C 0.66312 0.96559 0.72605 0.0
C1315 C 0.66632 0.9856 0.72882 0.0
C1316 C 0.70373 0.96301 0.62769 0.0
C1317 C 0.68343 0.96448 0.67837 0.0
C1318 C 0.7133 0.95218 0.60402 0.0
C1319 C 0.71251 0.93187 0.60443 0.0
C1320 C 0.69321 0.95349 0.65199 0.0
C1321 C 0.70159 0.92293 0.62881 0.0
C1322 C 0.67163 0.95502 0.70105 0.0
C1323 C 0.67807 0.99455 0.70548 0.0
N1324 N 0.69242 0.93377 0.65158 0.0
N1325 N 0.68619 0.98394 0.68131 0.0
H1326 H 0.82019 0.90584 0.49793 0.0
H1327 H 0.8143 0.97431 0.3419 0.0
H1328 H 0.76652 0.92874 0.46045 0.0
H1329 H 0.86794 0.95539 0.385 0.0
H1330 H 0.79638 0.95604 0.38283 0.0
H1331 H 0.8377 0.92214 0.45454 0.0
C1332 C 0.81204 0.9142 0.4805 0.0
C1333 C 0.79181 0.91592 0.483 0.0
C1334 C 0.81207 0.95581 0.38325 0.0
C1335 C 0.81188 0.93473 0.43307 0.0
C1336 C 0.82231 0.9662 0.35981 0.0
C1337 C 0.84266 0.96638 0.35996 0.0
C1338 C 0.82224 0.94545 0.40703 0.0
C1339 C 0.85226 0.95567 0.3839 0.0
C1340 C 0.82208 0.92356 0.45572 0.0
C1341 C 0.78211 0.92701 0.45961 0.0
N1342 N 0.84199 0.94569 0.40643 0.0
N1343 N 0.79222 0.936 0.43572 0.0
H1344 H 0.67974 0.5137 0.70829 0.0
H1345 H 0.70199 0.61815 0.6324 0.0
H1346 H 0.65464 0.56689 0.74338 0.0
H1347 H 0.72327 0.56496 0.59109 0.0
H1348 H 0.68445 0.59944 0.67291 0.0
H1349 H 0.6956 0.53192 0.66507 0.0
C1350 C 0.67749 0.52919 0.70689 0.0
C1351 C 0.66583 0.53875 0.72968 0.0
C1352 C 0.69286 0.59181 0.65493 0.0
C1353 C 0.68408 0.55975 0.68015 0.0
C1354 C 0.7029 0.60251 0.63171 0.0
C1355 C 0.71413 0.59313 0.60821 0.0
C1356 C 0.69408 0.5715 0.65492 0.0
C1357 C 0.71476 0.57281 0.60867 0.0
C1358 C 0.68656 0.53959 0.68215 0.0
C1359 C 0.66346 0.55886 0.72647 0.0
N1360 N 0.70496 0.56268 0.6317 0.0
N1361 N 0.67255 0.56865 0.70234 0.0
H1362 H 0.71026 0.47021 0.83649 0.0
H1363 H 0.70735 0.40435 0.99575 0.0
H1364 H 0.65749 0.44962 0.88043 0.0
H1365 H 0.75979 0.43018 0.95879 0.0
H1366 H 0.68925 0.41892 0.95141 0.0
H1367 H 0.72894 0.45373 0.87855 0.0
C1368 C 0.7026 0.46207 0.85479 0.0
C1369 C 0.68226 0.46128 0.85485 0.0
C1370 C 0.70472 0.42139 0.95292 0.0
C1371 C 0.70358 0.44243 0.90327 0.0
C1372 C 0.71511 0.41302 0.97827 0.0
C1373 C 0.73517 0.41604 0.98117 0.0
C1374 C 0.7144 0.43286 0.93005 0.0
C1375 C 0.74435 0.42747 0.95766 0.0
C1376 C 0.71328 0.45273 0.8789 0.0
C1377 C 0.67314 0.45061 0.87935 0.0
N1378 N 0.73391 0.43546 0.93315 0.0
N1379 N 0.68384 0.44166 0.90252 0.0
H1380 H 0.84713 0.50992 0.20918 0.0
H1381 H 0.82575 0.40642 0.12975 0.0
H1382 H 0.87221 0.45652 0.24351 0.0
H1383 H 0.80567 0.46022 0.08891 0.0
H1384 H 0.84311 0.42459 0.17114 0.0
H1385 H 0.83212 0.49216 0.1648 0.0
C1386 C 0.84957 0.49447 0.20737 0.0
C1387 C 0.86096 0.48473 0.23029 0.0
C1388 C 0.83503 0.43247 0.15303 0.0
C1389 C 0.84365 0.46422 0.17938 0.0
C1390 C 0.82511 0.42208 0.12932 0.0
C1391 C 0.81424 0.4318 0.10573 0.0
C1392 C 0.83401 0.45278 0.15344 0.0
C1393 C 0.81391 0.45212 0.10652 0.0
C1394 C 0.84098 0.48433 0.18194 0.0
C1395 C 0.86357 0.46468 0.2265 0.0
N1396 N 0.82355 0.46192 0.13006 0.0
N1397 N 0.85493 0.45512 0.2017 0.0
H1398 H 0.79034 0.6377 0.44124 0.0
H1399 H 0.81654 0.53978 0.35383 0.0
H1400 H 0.77301 0.58292 0.48176 0.0
H1401 H 0.86002 0.58421 0.36292 0.0
H1402 H 0.79601 0.55744 0.39222 0.0
H1403 H 0.81198 0.62039 0.4038 0.0
C1404 C 0.79107 0.62205 0.4422 0.0
C1405 C 0.77993 0.61171 0.46468 0.0
C1406 C 0.81003 0.56332 0.38571 0.0
C1407 C 0.80417 0.59193 0.42159 0.0
C1408 C 0.82168 0.55334 0.36371 0.0
C1409 C 0.83996 0.5606 0.35518 0.0
C1410 C 0.81645 0.58096 0.39855 0.0
C1411 C 0.84602 0.57813 0.36896 0.0
C1412 C 0.80344 0.61223 0.42099 0.0
C1413 C 0.78145 0.59144 0.46496 0.0
N1414 N 0.83418 0.58787 0.3897 0.0
N1415 N 0.79314 0.58219 0.44348 0.0
H1416 H 0.67949 0.50917 0.28588 0.0
H1417 H 0.70086 0.40514 0.36387 0.0
H1418 H 0.65481 0.45602 0.25 0.0
H1419 H 0.71978 0.45881 0.40648 0.0
H1420 H 0.68382 0.42351 0.32219 0.0
H1421 H 0.69427 0.49108 0.33015 0.0
C1422 C 0.6771 0.49371 0.28732 0.0
C1423 C 0.66587 0.48414 0.26401 0.0
C1424 C 0.69158 0.4313 0.34076 0.0
C1425 C 0.68292 0.46324 0.31481 0.0
C1426 C 0.7013 0.4208 0.36464 0.0
C1427 C 0.71175 0.43043 0.38882 0.0
C1428 C 0.69237 0.45163 0.3408 0.0
C1429 C 0.71186 0.45076 0.38842 0.0
C1430 C 0.68555 0.48337 0.31269 0.0
C1431 C 0.66331 0.46406 0.26732 0.0
N1432 N 0.70242 0.46066 0.36474 0.0
N1433 N 0.67183 0.4543 0.29208 0.0
H1434 H 0.86984 0.44861 0.61437 0.0
H1435 H 0.7653 0.42984 0.53579 0.0
H1436 H 0.81676 0.47041 0.65563 0.0
H1437 H 0.81826 0.40393 0.50103 0.0
H1438 H 0.78359 0.44474 0.57986 0.0
H1439 H 0.85099 0.43206 0.57294 0.0
C1440 C 0.85419 0.44981 0.61488 0.0
C1441 C 0.84489 0.4609 0.63863 0.0
C1442 C 0.79119 0.43574 0.56265 0.0
C1443 C 0.8231 0.44204 0.59085 0.0
C1444 C 0.78075 0.42722 0.53742 0.0
C1445 C 0.79023 0.4156 0.51451 0.0
C1446 C 0.8113 0.43272 0.565 0.0
C1447 C 0.81029 0.41275 0.51802 0.0
C1448 C 0.84341 0.44035 0.59113 0.0
C1449 C 0.82455 0.46196 0.6379 0.0
N1450 N 0.82011 0.42128 0.54262 0.0
N1451 N 0.81435 0.45274 0.61434 0.0
H1452 H 0.84762 0.51302 0.78529 0.0
H1453 H 0.82488 0.6173 0.86141 0.0
H1454 H 0.8729 0.56624 0.75075 0.0
H1455 H 0.80349 0.56398 0.90208 0.0
H1456 H 0.84259 0.59871 0.82091 0.0
H1457 H 0.8315 0.53117 0.82829 0.0
C1458 C 0.84986 0.5285 0.78677 0.0
C1459 C 0.86165 0.53808 0.76419 0.0
C1460 C 0.83411 0.59103 0.83875 0.0
C1461 C 0.84309 0.55903 0.81348 0.0
C1462 C 0.82397 0.60166 0.86194 0.0
C1463 C 0.81267 0.59221 0.88528 0.0
C1464 C 0.83292 0.57072 0.83862 0.0
C1465 C 0.81205 0.57188 0.88464 0.0
C1466 C 0.84064 0.53887 0.81138 0.0
C1467 C 0.86399 0.55819 0.7675 0.0
N1468 N 0.82196 0.56184 0.86164 0.0
N1469 N 0.85475 0.56796 0.7915 0.0
H1470 H 0.665 0.5842 0.13171 0.0
H1471 H 0.75505 0.58242 0.01375 0.0
H1472 H 0.71049 0.54193 0.14282 0.0
H1473 H 0.73339 0.63685 0.04963 0.0
H1474 H 0.73437 0.56539 0.05267 0.0
H1475 H 0.68563 0.60207 0.09344 0.0
C1476 C 0.67931 0.57871 0.1261 0.0
C1477 C 0.68613 0.56166 0.14061 0.0
C1478 C 0.73414 0.58106 0.05192 0.0
C1479 C 0.70946 0.58165 0.0964 0.0
C1480 C 0.74583 0.59078 0.02964 0.0
C1481 C 0.74595 0.61109 0.0285 0.0
C1482 C 0.72206 0.59167 0.07261 0.0
C1483 C 0.7338 0.62119 0.04984 0.0
C1484 C 0.69106 0.58891 0.1044 0.0
C1485 C 0.70477 0.55513 0.13244 0.0
N1486 N 0.72218 0.61138 0.07082 0.0
N1487 N 0.7157 0.56499 0.1106 0.0
H1488 H 0.34567 0.51192 0.28699 0.0
H1489 H 0.32484 0.40657 0.36066 0.0
H1490 H 0.37287 0.45969 0.25223 0.0
H1491 H 0.3023 0.45923 0.40202 0.0
H1492 H 0.34224 0.42578 0.32049 0.0
H1493 H 0.32952 0.49299 0.32898 0.0
C1494 C 0.34832 0.49649 0.28821 0.0
C1495 C 0.36067 0.48742 0.2659 0.0
C1496 C 0.33355 0.43317 0.33841 0.0
C1497 C 0.34207 0.46557 0.31401 0.0
C1498 C 0.32359 0.42219 0.36138 0.0
C1499 C 0.31209 0.43128 0.38483 0.0
C1500 C 0.33198 0.45346 0.33866 0.0
C1501 C 0.31102 0.45159 0.38447 0.0
C1502 C 0.33908 0.48567 0.31225 0.0
C1503 C 0.36352 0.46735 0.26883 0.0
N1504 N 0.32077 0.46197 0.36173 0.0
N1505 N 0.35425 0.45713 0.29228 0.0
H1506 H 0.3155 0.55678 0.16045 0.0
H1507 H 0.31841 0.62321 0.00174 0.0
H1508 H 0.36822 0.57838 0.11774 0.0
H1509 H 0.26601 0.59718 0.03845 0.0
H1510 H 0.33649 0.60866 0.04614 0.0
H1511 H 0.29684 0.57326 0.11837 0.0
C1512 C 0.32316 0.56515 0.14243 0.0
C1513 C 0.34349 0.56623 0.14274 0.0
C1514 C 0.32103 0.60615 0.04458 0.0
C1515 C 0.32217 0.58506 0.09423 0.0
C1516 C 0.31065 0.6145 0.01919 0.0
C1517 C 0.2906 0.61142 0.01619 0.0
C1518 C 0.31137 0.59462 0.06739 0.0
C1519 C 0.28144 0.59994 0.03966 0.0
C1520 C 0.31248 0.57449 0.1183 0.0
C1521 C 0.35259 0.57718 0.11857 0.0
N1522 N 0.29187 0.59197 0.06419 0.0
N1523 N 0.3419 0.58611 0.09534 0.0
H1524 H 0.20032 0.61867 0.86657 0.0
H1525 H 0.18184 0.51386 0.78948 0.0
H1526 H 0.22141 0.56579 0.9093 0.0
H1527 H 0.15554 0.56632 0.75377 0.0
H1528 H 0.19633 0.53241 0.83354 0.0
H1529 H 0.18373 0.59964 0.82533 0.0
C1530 C 0.20134 0.60303 0.86746 0.0
C1531 C 0.21226 0.59384 0.89156 0.0
C1532 C 0.18732 0.53985 0.81616 0.0
C1533 C 0.19337 0.57186 0.844 0.0
C1534 C 0.17903 0.52925 0.79092 0.0
C1535 C 0.16743 0.5385 0.76771 0.0
C1536 C 0.18414 0.55991 0.81823 0.0
C1537 C 0.16434 0.55852 0.771 0.0
C1538 C 0.19187 0.59216 0.84382 0.0
C1539 C 0.2131 0.57351 0.8913 0.0
N1540 N 0.17269 0.56852 0.7956 0.0
N1541 N 0.20389 0.56324 0.86784 0.0
H1542 H 0.2135 0.48193 0.64593 0.0
H1543 H 0.23364 0.38515 0.54925 0.0
H1544 H 0.16801 0.43995 0.63278 0.0
H1545 H 0.25656 0.43979 0.51662 0.0
H1546 H 0.21313 0.40261 0.58815 0.0
H1547 H 0.23349 0.46423 0.60672 0.0
C1548 C 0.20781 0.46888 0.63502 0.0
C1549 C 0.1891 0.46236 0.64262 0.0
C1550 C 0.22264 0.41072 0.57238 0.0
C1551 C 0.21196 0.44194 0.59823 0.0
C1552 C 0.23437 0.4008 0.55031 0.0
C1553 C 0.24675 0.41105 0.52957 0.0
C1554 C 0.22375 0.43098 0.57443 0.0
C1555 C 0.24711 0.43133 0.53196 0.0
C1556 C 0.21915 0.45889 0.61254 0.0
C1557 C 0.18234 0.44548 0.62751 0.0
N1558 N 0.23597 0.44061 0.55421 0.0
N1559 N 0.19384 0.43572 0.60629 0.0
H1560 H 0.37305 0.56713 0.74401 0.0
H1561 H 0.3021 0.56536 0.59076 0.0
H1562 H 0.34448 0.51539 0.71045 0.0
H1563 H 0.32434 0.61772 0.63344 0.0
H1564 H 0.31956 0.54643 0.63145 0.0
H1565 H 0.35744 0.58542 0.70083 0.0
C1566 C 0.36357 0.55956 0.72749 0.0
C1567 C 0.36006 0.53965 0.73105 0.0
C1568 C 0.32069 0.56206 0.63183 0.0
C1569 C 0.34205 0.56063 0.6813 0.0
C1570 C 0.31077 0.57288 0.60852 0.0
C1571 C 0.31176 0.59318 0.60863 0.0
C1572 C 0.33177 0.57158 0.65541 0.0
C1573 C 0.32315 0.60211 0.63237 0.0
C1574 C 0.35461 0.57006 0.70283 0.0
C1575 C 0.34759 0.53071 0.7088 0.0
N1576 N 0.33267 0.59128 0.65474 0.0
N1577 N 0.33904 0.54125 0.68495 0.0
H1578 H 0.20631 0.62355 0.49744 0.0
H1579 H 0.21069 0.55629 0.3399 0.0
H1580 H 0.25915 0.59786 0.46173 0.0
H1581 H 0.15748 0.57669 0.38264 0.0
H1582 H 0.22897 0.57345 0.38163 0.0
H1583 H 0.18857 0.60855 0.45308 0.0
C1584 C 0.21424 0.61484 0.48021 0.0
C1585 C 0.2343 0.61196 0.4835 0.0
C1586 C 0.2133 0.57427 0.38179 0.0
C1587 C 0.21395 0.59464 0.43239 0.0
C1588 C 0.20284 0.56452 0.35786 0.0
C1589 C 0.18249 0.56506 0.35768 0.0
C1590 C 0.20337 0.5847 0.40574 0.0
C1591 C 0.17314 0.57588 0.38175 0.0
C1592 C 0.20406 0.60622 0.45486 0.0
C1593 C 0.2437 0.60047 0.46031 0.0
N1594 N 0.18362 0.58522 0.40476 0.0
N1595 N 0.23346 0.59223 0.43583 0.0
H1596 H 0.18047 0.51143 0.21182 0.0
H1597 H 0.20199 0.40688 0.1356 0.0
H1598 H 0.15561 0.45833 0.24769 0.0
H1599 H 0.22274 0.46007 0.09355 0.0
H1600 H 0.18496 0.42561 0.17674 0.0
H1601 H 0.19603 0.49313 0.16841 0.0
C1602 C 0.17822 0.49594 0.21057 0.0
C1603 C 0.1667 0.48644 0.23361 0.0
C1604 C 0.19315 0.43324 0.15846 0.0
C1605 C 0.1846 0.46533 0.18385 0.0
C1606 C 0.20289 0.42252 0.13489 0.0
C1607 C 0.21381 0.4319 0.11098 0.0
C1608 C 0.19436 0.45355 0.15837 0.0
C1609 C 0.21446 0.45222 0.11143 0.0
C1610 C 0.18711 0.48549 0.18571 0.0
C1611 C 0.16432 0.46632 0.23057 0.0
N1612 N 0.20494 0.46235 0.13478 0.0
N1613 N 0.17323 0.45647 0.20632 0.0
H1614 H 0.31782 0.40242 0.99534 0.0
H1615 H 0.31386 0.47188 0.84033 0.0
H1616 H 0.26531 0.42986 0.96206 0.0
H1617 H 0.36683 0.44944 0.88096 0.0
H1618 H 0.29547 0.45485 0.88219 0.0
H1619 H 0.33555 0.41774 0.95127 0.0
C1620 C 0.30996 0.4116 0.9787 0.0
C1621 C 0.28999 0.41484 0.98258 0.0
C1622 C 0.31111 0.45358 0.88186 0.0
C1623 C 0.31034 0.43254 0.93177 0.0
C1624 C 0.32162 0.46324 0.85786 0.0
C1625 C 0.34194 0.46206 0.85703 0.0
C1626 C 0.32095 0.44258 0.9052 0.0
C1627 C 0.3512 0.45074 0.88057 0.0
C1628 C 0.32014 0.4204 0.95351 0.0
C1629 C 0.28068 0.42694 0.96015 0.0
N1630 N 0.34066 0.44149 0.90363 0.0
N1631 N 0.29092 0.43534 0.93578 0.0
H1632 H 0.25061 0.0776 0.33007 0.0
H1633 H 0.27179 0.14243 0.17408 0.0
H1634 H 0.24964 0.13996 0.32932 0.0
H1635 H 0.27383 0.08009 0.17319 0.0
H1636 H 0.26364 0.14158 0.23126 0.0
H1637 H 0.25771 0.07782 0.27222 0.0
C1638 C 0.25145 0.09132 0.31755 0.0
C1639 C 0.24953 0.10882 0.33437 0.0
C1640 C 0.266 0.12806 0.2187 0.0
C1641 C 0.25814 0.10922 0.26864 0.0
C1642 C 0.27075 0.12857 0.18615 0.0
C1643 C 0.27353 0.11134 0.169 0.0
C1644 C 0.2639 0.11014 0.2343 0.0
C1645 C 0.27205 0.09372 0.18565 0.0
C1646 C 0.25575 0.09145 0.28466 0.0
C1647 C 0.25113 0.12619 0.31716 0.0
N1648 N 0.2672 0.09356 0.2174 0.0
N1649 N 0.25545 0.12596 0.28531 0.0
H1650 H 0.19163 0.02725 0.42344 0.0
H1651 H 0.12626 1.00552 0.57862 0.0
H1652 H 0.12917 0.02657 0.42187 0.0
H1653 H 0.18839 0.99888 0.57687 0.0
H1654 H 0.127 0.0145 0.52163 0.0
H1655 H 0.19085 0.01946 0.48091 0.0
C1656 C 0.17776 0.02592 0.4354 0.0
C1657 C 0.16041 0.02759 0.41801 0.0
C1658 C 0.14046 1.01091 0.53361 0.0
C1659 C 0.15939 0.01818 0.48339 0.0
C1660 C 0.14001 1.00569 0.56603 0.0
C1661 C 0.15725 1.00136 0.58237 0.0
C1662 C 0.15832 1.01195 0.51747 0.0
C1663 C 0.17473 1.00182 0.56507 0.0
C1664 C 0.1773 0.02119 0.46807 0.0
C1665 C 0.14283 0.02532 0.43451 0.0
N1666 N 0.17484 1.00718 0.5336 0.0
N1667 N 0.14275 0.02063 0.46625 0.0
H1668 H 0.25014 0.94652 0.67438 0.0
H1669 H 0.27447 0.88356 0.83119 0.0
H1670 H 0.25403 0.88425 0.67494 0.0
H1671 H 0.27386 0.94593 0.83078 0.0
H1672 H 0.26714 0.88366 0.77365 0.0
H1673 H 0.2576 0.9468 0.73203 0.0
C1674 C 0.25217 0.93289 0.68679 0.0
C1675 C 0.25144 0.9153 0.66996 0.0
C1676 C 0.26877 0.89735 0.786 0.0
C1677 C 0.26045 0.91553 0.73556 0.0
C1678 C 0.27306 0.89727 0.81876 0.0
C1679 C 0.27482 0.91473 0.83564 0.0
C1680 C 0.26607 0.91506 0.76998 0.0
C1681 C 0.27287 0.93215 0.81854 0.0
C1682 C 0.25669 0.93307 0.71958 0.0
C1683 C 0.25458 0.89809 0.68707 0.0
N1684 N 0.26843 0.93188 0.78665 0.0
N1685 N 0.25902 0.89863 0.71888 0.0
H1686 H 0.33501 1.00098 0.92234 0.0
H1687 H 0.40035 0.01992 0.07828 0.0
H1688 H 0.39745 1.0026 0.92014 0.0
H1689 H 0.33841 0.02809 0.07629 0.0
H1690 H 0.39964 1.01192 0.02089 0.0
H1691 H 0.33587 1.00799 0.98008 0.0
C1692 C 0.34891 1.00238 0.9342 0.0
C1693 C 0.36621 1.00117 0.91659 0.0
C1694 C 0.38622 0.01564 0.03292 0.0
C1695 C 0.36732 1.00966 0.98227 0.0
C1696 C 0.38666 0.02028 0.06556 0.0
C1697 C 0.36946 0.02477 0.08192 0.0
C1698 C 0.3684 0.01529 0.0166 0.0
C1699 C 0.35204 0.02501 0.06448 0.0
C1700 C 0.3494 1.00666 0.96702 0.0
C1701 C 0.38382 1.0035 0.93297 0.0
N1702 N 0.35194 0.02017 0.03279 0.0
N1703 N 0.38394 1.0077 0.96488 0.0
H1704 H 0.74016 0.9138 0.66279 0.0
H1705 H 0.78824 0.90698 0.83632 0.0
H1706 H 0.80178 0.91743 0.67817 0.0
H1707 H 0.727 0.9159 0.8219 0.0
H1708 H 0.79349 0.91016 0.77857 0.0
H1709 H 0.73497 0.91434 0.7209 0.0
C1710 C 0.7526 0.91468 0.67861 0.0
C1711 C 0.77145 0.91522 0.66602 0.0
C1712 C 0.7789 0.91143 0.78794 0.0
C1713 C 0.76568 0.91591 0.73235 0.0
C1714 C 0.77585 0.90937 0.82085 0.0
C1715 C 0.75706 0.91076 0.83367 0.0
C1716 C 0.76303 0.91477 0.76762 0.0
C1717 C 0.74164 0.91457 0.81276 0.0
C1718 C 0.74964 0.91511 0.7117 0.0
C1719 C 0.78708 0.91686 0.68723 0.0
N1720 N 0.74493 0.91628 0.78062 0.0
N1721 N 0.78387 0.91692 0.71953 0.0
H1722 H 0.89195 0.02872 0.42362 0.0
H1723 H 0.8277 1.00326 0.57849 0.0
H1724 H 0.82949 0.02864 0.42256 0.0
H1725 H 0.89013 1.00121 0.5764 0.0
H1726 H 0.82766 1.01246 0.52154 0.0
H1727 H 0.89133 0.02011 0.48064 0.0
C1728 C 0.87811 0.02719 0.43567 0.0
C1729 C 0.86078 0.02939 0.41849 0.0
C1730 C 0.84136 1.00983 0.53347 0.0
C1731 C 0.85984 0.01916 0.4835 0.0
C1732 C 0.84137 1.00431 0.56583 0.0
C1733 C 0.85897 1.00142 0.58207 0.0
C1734 C 0.85908 1.01247 0.51736 0.0
C1735 C 0.87629 1.00339 0.56472 0.0
C1736 C 0.87772 0.02214 0.4681 0.0
C1737 C 0.84318 0.02728 0.43506 0.0
N1738 N 0.87592 1.00889 0.53338 0.0
N1739 N 0.84315 0.0221 0.46666 0.0
H1740 H 0.77591 0.08003 0.32572 0.0
H1741 H 0.75151 0.14376 0.16976 0.0
H1742 H 0.77569 0.1424 0.32424 0.0
H1743 H 0.75126 0.08139 0.16943 0.0
H1744 H 0.75988 0.14332 0.22688 0.0
H1745 H 0.76781 0.07988 0.26828 0.0
C1746 C 0.77458 0.09368 0.31312 0.0
C1747 C 0.7765 0.11129 0.32966 0.0
C1748 C 0.75784 0.1297 0.21447 0.0
C1749 C 0.76674 0.11124 0.26434 0.0
C1750 C 0.75296 0.12997 0.18196 0.0
C1751 C 0.75065 0.11262 0.16497 0.0
C1752 C 0.76057 0.11189 0.23017 0.0
C1753 C 0.75267 0.0951 0.18177 0.0
C1754 C 0.7697 0.0936 0.28046 0.0
C1755 C 0.77423 0.12855 0.31233 0.0
N1756 N 0.75766 0.09518 0.21345 0.0
N1757 N 0.76938 0.1281 0.2807 0.0
H1758 H 0.67051 0.03743 0.91033 0.0
H1759 H 0.6696 0.98732 0.08267 0.0
H1760 H 0.6739 0.97568 0.92343 0.0
H1761 H 0.67629 0.0488 0.06928 0.0
H1762 H 0.67237 0.98264 0.02461 0.0
H1763 H 0.67389 0.04191 0.9683 0.0
C1764 C 0.67192 0.0248 0.92558 0.0
C1765 C 0.6715 1.00612 0.91239 0.0
C1766 C 0.67332 0.99717 0.03427 0.0
C1767 C 0.6755 1.0111 0.97868 0.0
C1768 C 0.67157 0.99986 0.06734 0.0
C1769 C 0.67226 0.01855 0.08048 0.0
C1770 C 0.67563 0.01331 0.01413 0.0
C1771 C 0.67549 0.03423 0.05985 0.0
C1772 C 0.674 0.02736 0.95861 0.0
C1773 C 0.67398 0.99026 0.93292 0.0
N1774 N 0.67682 0.03129 0.02755 0.0
N1775 N 0.67563 0.99309 0.96521 0.0
H1776 H 0.78018 0.58684 0.67136 0.0
H1777 H 0.75352 0.64949 0.82679 0.0
H1778 H 0.77299 0.64881 0.66845 0.0
H1779 H 0.74854 0.58737 0.82222 0.0
H1780 H 0.76238 0.64996 0.76963 0.0
H1781 H 0.77191 0.58714 0.7285 0.0
C1782 C 0.77731 0.60057 0.68295 0.0
C1783 C 0.77729 0.61785 0.66523 0.0
C1784 C 0.75911 0.63626 0.78105 0.0
C1785 C 0.76728 0.61825 0.73033 0.0
C1786 C 0.75396 0.63601 0.81351 0.0
C1787 C 0.7502 0.61841 0.82909 0.0
C1788 C 0.76074 0.61871 0.76422 0.0
C1789 C 0.75103 0.60129 0.81102 0.0
C1790 C 0.77228 0.60071 0.71544 0.0
C1791 C 0.77307 0.63519 0.68133 0.0
N1792 N 0.75641 0.60185 0.77959 0.0
N1793 N 0.76814 0.63496 0.71299 0.0
H1794 H 0.6946 0.49818 0.07439 0.0
H1795 H 0.63131 0.52269 0.91805 0.0
H1796 H 0.63231 0.50319 0.07477 0.0
H1797 H 0.69377 0.52248 0.9183 0.0
H1798 H 0.63146 0.51524 0.97558 0.0
H1799 H 0.69472 0.50542 0.01665 0.0
C1800 C 0.68093 0.5004 0.06215 0.0
C1801 C 0.66339 0.50006 0.07926 0.0
C1802 C 0.64516 0.517 0.96319 0.0
C1803 C 0.66344 0.50881 0.01358 0.0
C1804 C 0.64505 0.52134 0.93045 0.0
C1805 C 0.66252 0.52327 0.91355 0.0
C1806 C 0.66291 0.51439 0.97915 0.0
C1807 C 0.67998 0.52138 0.93057 0.0
C1808 C 0.68102 0.50479 0.02932 0.0
C1809 C 0.64612 0.50343 0.06239 0.0
N1810 N 0.67974 0.51688 0.96245 0.0
N1811 N 0.64658 0.50773 0.03053 0.0
H1812 H 0.77457 0.44565 0.32668 0.0
H1813 H 0.75163 0.3829 0.16923 0.0
H1814 H 0.77329 0.38329 0.32473 0.0
H1815 H 0.75192 0.44527 0.16964 0.0
H1816 H 0.75906 0.38297 0.22671 0.0
H1817 H 0.76718 0.44614 0.26899 0.0
C1818 C 0.77314 0.43207 0.31394 0.0
C1819 C 0.77457 0.41438 0.33039 0.0
C1820 C 0.75734 0.39668 0.21438 0.0
C1821 C 0.76563 0.41481 0.26479 0.0
C1822 C 0.753 0.39661 0.18166 0.0
C1823 C 0.75113 0.41407 0.16479 0.0
C1824 C 0.75997 0.41438 0.23039 0.0
C1825 C 0.753 0.43149 0.18188 0.0
C1826 C 0.76867 0.43235 0.28114 0.0
C1827 C 0.7722 0.39721 0.31289 0.0
N1828 N 0.75748 0.43121 0.21376 0.0
N1829 N 0.76777 0.39785 0.2811 0.0
H1830 H 0.89659 0.5218 0.57563 0.0
H1831 H 0.83261 0.49755 0.42006 0.0
H1832 H 0.83413 0.52235 0.57576 0.0
H1833 H 0.89498 0.50118 0.41937 0.0
H1834 H 0.83272 0.50489 0.47773 0.0
H1835 H 0.89622 0.51393 0.51827 0.0
C1836 C 0.88281 0.52054 0.56333 0.0
C1837 C 0.8654 0.5228 0.58029 0.0
C1838 C 0.8464 0.50392 0.46502 0.0
C1839 C 0.86475 0.51344 0.51492 0.0
C1840 C 0.84635 0.49945 0.43223 0.0
C1841 C 0.86385 0.49872 0.41505 0.0
C1842 C 0.86407 0.50763 0.48063 0.0
C1843 C 0.88121 0.50171 0.43182 0.0
C1844 C 0.88257 0.51595 0.5307 0.0
C1845 C 0.84788 0.521 0.56342 0.0
N1846 N 0.88089 0.50612 0.46364 0.0
N1847 N 0.84799 0.51627 0.53166 0.0
H1848 H 0.27714 0.37688 0.16858 0.0
H1849 H 0.24602 0.43613 0.32554 0.0
H1850 H 0.27524 0.43916 0.17289 0.0
H1851 H 0.25675 0.37465 0.32594 0.0
H1852 H 0.25442 0.43718 0.26848 0.0
H1853 H 0.26899 0.37549 0.22592 0.0
C1854 C 0.27536 0.39025 0.18188 0.0
C1855 C 0.27696 0.40813 0.16617 0.0
C1856 C 0.2548 0.42342 0.28097 0.0
C1857 C 0.26718 0.40674 0.23134 0.0
C1858 C 0.24971 0.42277 0.31343 0.0
C1859 C 0.25063 0.40523 0.33043 0.0
C1860 C 0.26081 0.40641 0.26537 0.0
C1861 C 0.25593 0.38844 0.31365 0.0
C1862 C 0.27059 0.38947 0.21445 0.0
C1863 C 0.27443 0.42509 0.18424 0.0
N1864 N 0.2609 0.38944 0.28206 0.0
N1865 N 0.26946 0.42397 0.21584 0.0
H1866 H 0.35499 0.55226 0.92524 0.0
H1867 H 0.35402 0.47695 0.07248 0.0
H1868 H 0.35906 0.4904 0.9139 0.0
H1869 H 0.361 0.53855 0.08382 0.0
H1870 H 0.35069 0.48171 0.01406 0.0
H1871 H 0.35201 0.54769 0.9838 0.0
C1872 C 0.35518 0.53777 0.93518 0.0
C1873 C 0.35776 0.52175 0.91508 0.0
C1874 C 0.35293 0.49418 0.0294 0.0
C1875 C 0.35425 0.5163 0.98135 0.0
C1876 C 0.35478 0.49143 0.06258 0.0
C1877 C 0.35827 0.50729 0.08265 0.0
C1878 C 0.35436 0.51296 0.01649 0.0
C1879 C 0.35894 0.52587 0.06895 0.0
C1880 C 0.35353 0.53513 0.96843 0.0
C1881 C 0.3577 0.50317 0.92879 0.0
N1882 N 0.35711 0.52819 0.0367 0.0
N1883 N 0.35608 0.50096 0.9611 0.0
H1884 H 0.24955 0.64471 0.67216 0.0
H1885 H 0.27394 0.58118 0.82828 0.0
H1886 H 0.24987 0.58234 0.67191 0.0
H1887 H 0.27284 0.64355 0.82704 0.0
H1888 H 0.26593 0.58099 0.77083 0.0
H1889 H 0.25739 0.64437 0.72949 0.0
C1890 C 0.25098 0.63095 0.68443 0.0
C1891 C 0.24903 0.61356 0.66741 0.0
C1892 C 0.2676 0.59472 0.78307 0.0
C1893 C 0.25838 0.61295 0.7328 0.0
C1894 C 0.27244 0.59483 0.81573 0.0
C1895 C 0.27409 0.61244 0.83231 0.0
C1896 C 0.26442 0.61235 0.76701 0.0
C1897 C 0.2716 0.6297 0.81507 0.0
C1898 C 0.25558 0.63072 0.71705 0.0
C1899 C 0.25102 0.59607 0.68428 0.0
N1900 N 0.2668 0.62922 0.78342 0.0
N1901 N 0.25576 0.5962 0.71605 0.0
H1902 H 0.19578 0.5022 0.42161 0.0
H1903 H 0.1332 0.52332 0.58014 0.0
H1904 H 0.13336 0.50492 0.423 0.0
H1905 H 0.19561 0.52541 0.57801 0.0
H1906 H 0.13303 0.51655 0.52238 0.0
H1907 H 0.19619 0.50934 0.47934 0.0
C1908 C 0.18216 0.50391 0.43422 0.0
C1909 C 0.16448 0.50292 0.41762 0.0
C1910 C 0.14678 0.51868 0.53441 0.0
C1911 C 0.16484 0.51155 0.48333 0.0
C1912 C 0.14684 0.52263 0.56729 0.0
C1913 C 0.16441 0.52498 0.58373 0.0
C1914 C 0.16445 0.51688 0.51787 0.0
C1915 C 0.18175 0.52395 0.56612 0.0
C1916 C 0.1824 0.50825 0.46706 0.0
C1917 C 0.14727 0.50565 0.43498 0.0
N1918 N 0.18134 0.51981 0.53414 0.0
N1919 N 0.14787 0.5099 0.46685 0.0
H1920 H 0.18743 0.14301 0.93097 0.0
H1921 H 0.17879 0.05216 0.81258 0.0
H1922 H 0.21078 0.08646 0.9522 0.0
H1923 H 0.15471 0.10843 0.79157 0.0
H1924 H 0.19207 0.06495 0.86264 0.0
H1925 H 0.17615 0.13092 0.87906 0.0
C1926 C 0.1901 0.12803 0.92483 0.0
C1927 C 0.20005 0.11573 0.94606 0.0
C1928 C 0.18396 0.07454 0.84701 0.0
C1929 C 0.18738 0.10184 0.88648 0.0
C1930 C 0.1765 0.06727 0.81828 0.0
C1931 C 0.16559 0.07925 0.79786 0.0
C1932 C 0.18047 0.09391 0.85544 0.0
C1933 C 0.1628 0.09863 0.8068 0.0
C1934 C 0.18378 0.12117 0.89507 0.0
C1935 C 0.20339 0.09653 0.93651 0.0
N1936 N 0.17015 0.10535 0.83498 0.0
N1937 N 0.19704 0.09018 0.90746 0.0
H1938 H 0.18767 0.96432 0.20165 0.0
H1939 H 0.1759 0.88723 0.06104 0.0
H1940 H 0.13714 0.92771 0.19307 0.0
H1941 H 0.21317 0.93737 0.05469 0.0
H1942 H 0.16352 0.89934 0.11224 0.0
H1943 H 0.19945 0.95181 0.1507 0.0
C1944 C 0.17892 0.95377 0.18914 0.0
C1945 C 0.16121 0.94726 0.20186 0.0
C1946 C 0.17441 0.90764 0.09948 0.0
C1947 C 0.17497 0.93256 0.14344 0.0
C1948 C 0.18147 0.90078 0.07012 0.0
C1949 C 0.19574 0.91119 0.05324 0.0
C1950 C 0.1818 0.9249 0.11225 0.0
C1951 C 0.20249 0.92857 0.06677 0.0
C1952 C 0.18576 0.94656 0.15999 0.0
C1953 C 0.1509 0.93312 0.18455 0.0
N1954 N 0.19552 0.93481 0.09548 0.0
N1955 N 0.15795 0.92623 0.15624 0.0
H1956 H 0.34728 0.97391 0.31248 0.0
H1957 H 0.33904 0.88404 0.43315 0.0
H1958 H 0.37114 0.91743 0.29249 0.0
H1959 H 0.31501 0.94051 0.45274 0.0
H1960 H 0.35022 0.89574 0.3809 0.0
H1961 H 0.33403 0.96151 0.36288 0.0
C1962 C 0.34952 0.95883 0.31847 0.0
C1963 C 0.36037 0.94669 0.29824 0.0
C1964 C 0.34247 0.90556 0.39661 0.0
C1965 C 0.34553 0.93247 0.35621 0.0
C1966 C 0.3362 0.89892 0.42657 0.0
C1967 C 0.32611 0.91132 0.44744 0.0
C1968 C 0.33867 0.92476 0.38747 0.0
C1969 C 0.32254 0.93038 0.43733 0.0
C1970 C 0.34208 0.95179 0.3474 0.0
C1971 C 0.36311 0.92736 0.30757 0.0
N1972 N 0.32885 0.93653 0.40811 0.0
N1973 N 0.35579 0.92086 0.33592 0.0
H1974 H 0.35562 0.05151 0.68073 0.0
H1975 H 0.34276 0.14273 0.564 0.0
H1976 H 0.37595 0.10885 0.70423 0.0
H1977 H 0.32041 0.08573 0.54355 0.0
H1978 H 0.35625 0.13046 0.61446 0.0
H1979 H 0.34348 0.06374 0.6296 0.0
C1980 C 0.35743 0.06671 0.67526 0.0
C1981 C 0.36672 0.0792 0.69696 0.0
C1982 C 0.3484 0.12065 0.5989 0.0
C1983 C 0.35305 0.09328 0.6381 0.0
C1984 C 0.3408 0.12762 0.57 0.0
C1985 C 0.33036 0.11526 0.54957 0.0
C1986 C 0.3456 0.10117 0.60735 0.0
C1987 C 0.32806 0.09585 0.55877 0.0
C1988 C 0.3506 0.07367 0.64592 0.0
C1989 C 0.36903 0.09868 0.68816 0.0
N1990 N 0.33561 0.08942 0.58697 0.0
N1991 N 0.36219 0.10514 0.65942 0.0
H1992 H 0.84415 0.88513 0.0701 0.0
H1993 H 0.85052 0.97766 0.18482 0.0
H1994 H 0.81559 0.93935 0.04962 0.0
H1995 H 0.87466 0.92183 0.20888 0.0
H1996 H 0.83803 0.96412 0.1348 0.0
H1997 H 0.85619 0.89867 0.1204 0.0
C1998 C 0.8405 0.89993 0.07608 0.0
C1999 C 0.8289 0.91115 0.05552 0.0
C2000 C 0.84604 0.95483 0.15106 0.0
C2001 C 0.84248 0.92669 0.11332 0.0
C2002 C 0.85309 0.96252 0.17975 0.0
C2003 C 0.86364 0.95086 0.20121 0.0
C2004 C 0.84959 0.93533 0.14367 0.0
C2005 C 0.86683 0.93143 0.19295 0.0
C2006 C 0.84727 0.90761 0.10494 0.0
C2007 C 0.82432 0.93012 0.06485 0.0
N2008 N 0.85983 0.92428 0.16483 0.0
N2009 N 0.83118 0.93732 0.09305 0.0
H2010 H 0.81798 0.08472 0.95541 0.0
H2011 H 0.87725 0.1056 0.79351 0.0
H2012 H 0.84176 0.14062 0.93113 0.0
H2013 H 0.85383 0.04974 0.81899 0.0
H2014 H 0.86502 0.11863 0.84427 0.0
H2015 H 0.83135 0.07163 0.90568 0.0
C2016 C 0.82593 0.09428 0.93956 0.0
C2017 C 0.82867 0.11384 0.94741 0.0
C2018 C 0.86258 0.10351 0.83875 0.0
C2019 C 0.84423 0.09887 0.89049 0.0
C2020 C 0.86965 0.09604 0.80984 0.0
C2021 C 0.8665 0.07656 0.80189 0.0
C2022 C 0.85231 0.09141 0.85989 0.0
C2023 C 0.85632 0.06491 0.82382 0.0
C2024 C 0.83368 0.08676 0.91122 0.0
C2025 C 0.83945 0.12543 0.9262 0.0
N2026 N 0.84958 0.07252 0.85179 0.0
N2027 N 0.84679 0.11778 0.89865 0.0
H2028 H 0.70665 0.08556 0.53693 0.0
H2029 H 0.64936 0.10821 0.70004 0.0
H2030 H 0.68485 0.14219 0.56172 0.0
H2031 H 0.67136 0.05176 0.67455 0.0
H2032 H 0.6613 0.1208 0.6488 0.0
H2033 H 0.69311 0.07283 0.5868 0.0
C2034 C 0.69909 0.09535 0.55292 0.0
C2035 C 0.697 0.11501 0.54521 0.0
C2036 C 0.66349 0.10565 0.65442 0.0
C2037 C 0.68126 0.10047 0.60229 0.0
C2038 C 0.65658 0.09843 0.68361 0.0
C2039 C 0.65942 0.07891 0.69168 0.0
C2040 C 0.67328 0.09326 0.63313 0.0
C2041 C 0.66913 0.06697 0.6696 0.0
C2042 C 0.69125 0.08804 0.58133 0.0
C2043 C 0.68667 0.12692 0.56656 0.0
N2044 N 0.67572 0.07434 0.64136 0.0
N2045 N 0.67925 0.11947 0.59421 0.0
H2046 H 0.67179 0.97548 0.32021 0.0
H2047 H 0.68446 0.88201 0.43188 0.0
H2048 H 0.64992 0.91895 0.29519 0.0
H2049 H 0.70664 0.93858 0.45593 0.0
H2050 H 0.67071 0.89541 0.3825 0.0
H2051 H 0.684 0.96229 0.37072 0.0
C2052 C 0.66963 0.96027 0.32527 0.0
C2053 C 0.65991 0.94827 0.30334 0.0
C2054 C 0.67858 0.90489 0.39861 0.0
C2055 C 0.67368 0.9331 0.36131 0.0
C2056 C 0.68634 0.89726 0.42689 0.0
C2057 C 0.69679 0.90917 0.44802 0.0
C2058 C 0.68126 0.92457 0.39145 0.0
C2059 C 0.69898 0.92879 0.44012 0.0
C2060 C 0.6765 0.95276 0.35421 0.0
C2061 C 0.65717 0.92875 0.31149 0.0
N2062 N 0.6913 0.93587 0.41246 0.0
N2063 N 0.66408 0.92175 0.33979 0.0
H2064 H 0.69029 0.56065 0.29829 0.0
H2065 H 0.67483 0.63432 0.44317 0.0
H2066 H 0.63888 0.59583 0.30903 0.0
H2067 H 0.7166 0.58768 0.44575 0.0
H2068 H 0.66296 0.62217 0.39195 0.0
H2069 H 0.70172 0.57227 0.35018 0.0
C2070 C 0.6813 0.5707 0.3115 0.0
C2071 C 0.66349 0.57717 0.29909 0.0
C2072 C 0.67469 0.61458 0.40384 0.0
C2073 C 0.67676 0.5908 0.35847 0.0
C2074 C 0.68145 0.62145 0.43327 0.0
C2075 C 0.69677 0.61204 0.44916 0.0
C2076 C 0.6834 0.59827 0.3899 0.0
C2077 C 0.70495 0.59562 0.43447 0.0
C2078 C 0.68792 0.5774 0.34115 0.0
C2079 C 0.65277 0.59058 0.31727 0.0
N2080 N 0.69819 0.58931 0.40564 0.0
N2081 N 0.6596 0.59696 0.34601 0.0
H2082 H 0.68361 0.38125 0.56305 0.0
H2083 H 0.6706 0.47342 0.67747 0.0
H2084 H 0.70541 0.43821 0.54059 0.0
H2085 H 0.65016 0.41628 0.7022 0.0
H2086 H 0.68275 0.4608 0.62658 0.0
H2087 H 0.67021 0.39391 0.61327 0.0
C2088 C 0.68547 0.39644 0.56855 0.0
C2089 C 0.69571 0.40867 0.5476 0.0
C2090 C 0.6756 0.45101 0.64311 0.0
C2091 C 0.68057 0.42322 0.60515 0.0
C2092 C 0.66876 0.45819 0.67231 0.0
C2093 C 0.65944 0.44587 0.69428 0.0
C2094 C 0.67313 0.43134 0.63573 0.0
C2095 C 0.6571 0.42633 0.6859 0.0
C2096 C 0.67791 0.40363 0.59732 0.0
C2097 C 0.6979 0.42818 0.55621 0.0
N2098 N 0.66395 0.41965 0.65731 0.0
N2099 N 0.69041 0.43484 0.58431 0.0
H2100 H 0.84235 0.38211 0.93227 0.0
H2101 H 0.8557 0.47329 0.81575 0.0
H2102 H 0.81983 0.43909 0.95267 0.0
H2103 H 0.87573 0.41581 0.79223 0.0
H2104 H 0.84323 0.46109 0.86669 0.0
H2105 H 0.85575 0.39433 0.88176 0.0
C2106 C 0.84032 0.39721 0.92624 0.0
C2107 C 0.82992 0.40959 0.94673 0.0
C2108 C 0.85035 0.45112 0.8504 0.0
C2109 C 0.84506 0.42362 0.88884 0.0
C2110 C 0.85738 0.45807 0.82117 0.0
C2111 C 0.86668 0.44553 0.79953 0.0
C2112 C 0.85263 0.43148 0.85816 0.0
C2113 C 0.86881 0.42602 0.80827 0.0
C2114 C 0.84788 0.40415 0.89731 0.0
C2115 C 0.8275 0.42896 0.93744 0.0
N2116 N 0.8618 0.41958 0.8369 0.0
N2117 N 0.83502 0.43538 0.90919 0.0
H2118 H 0.83467 0.56341 0.20123 0.0
H2119 H 0.85301 0.63237 0.05021 0.0
H2120 H 0.88738 0.59609 0.18731 0.0
H2121 H 0.80736 0.58965 0.05404 0.0
H2122 H 0.86428 0.62145 0.10272 0.0
H2123 H 0.82285 0.57522 0.14961 0.0
C2124 C 0.84384 0.57299 0.18734 0.0
C2125 C 0.86216 0.57863 0.19865 0.0
C2126 C 0.85181 0.61447 0.09201 0.0
C2127 C 0.84851 0.59244 0.13964 0.0
C2128 C 0.8454 0.62062 0.0619 0.0
C2129 C 0.82925 0.61187 0.04741 0.0
C2130 C 0.84192 0.59954 0.10793 0.0
C2131 C 0.81973 0.597 0.06423 0.0
C2132 C 0.83701 0.57979 0.15789 0.0
C2133 C 0.87312 0.59147 0.1798 0.0
N2134 N 0.82623 0.59131 0.09358 0.0
N2135 N 0.86613 0.59791 0.15119 0.0
H2136 H 0.35408 0.43187 0.52618 0.0
H2137 H 0.3569 0.41757 0.7139 0.0
H2138 H 0.30912 0.39926 0.57346 0.0
H2139 H 0.36843 0.47346 0.67211 0.0
H2140 H 0.34483 0.4063 0.66134 0.0
H2141 H 0.36532 0.4434 0.57896 0.0
C2142 C 0.34668 0.42714 0.5478 0.0
C2143 C 0.33073 0.41468 0.54587 0.0
C2144 C 0.35001 0.42101 0.66383 0.0
C2145 C 0.34357 0.42735 0.60564 0.0
C2146 C 0.35697 0.42735 0.69352 0.0
C2147 C 0.36358 0.44639 0.69695 0.0
C2148 C 0.35026 0.4337 0.63746 0.0
C2149 C 0.36331 0.4587 0.67016 0.0
C2150 C 0.35299 0.43374 0.57767 0.0
C2151 C 0.32142 0.40896 0.57429 0.0
N2152 N 0.35694 0.45208 0.6413 0.0
N2153 N 0.32813 0.41517 0.60323 0.0
H2154 H 0.34911 0.64032 0.44363 0.0
H2155 H 0.33816 0.56411 0.30161 0.0
H2156 H 0.31126 0.59053 0.44834 0.0
H2157 H 0.38874 0.60049 0.31209 0.0
H2158 H 0.32602 0.57625 0.35255 0.0
H2159 H 0.36186 0.62833 0.39268 0.0
C2160 C 0.34349 0.62685 0.43425 0.0
C2161 C 0.32897 0.6165 0.45062 0.0
C2162 C 0.3398 0.58153 0.34368 0.0
C2163 C 0.34337 0.60293 0.39184 0.0
C2164 C 0.34685 0.57453 0.31452 0.0
C2165 C 0.36468 0.58111 0.3023 0.0
C2166 C 0.35048 0.59539 0.36074 0.0
C2167 C 0.37489 0.59505 0.32018 0.0
C2168 C 0.35078 0.62007 0.40501 0.0
C2169 C 0.32216 0.59927 0.43667 0.0
N2170 N 0.36762 0.60175 0.34847 0.0
N2171 N 0.32937 0.59309 0.40807 0.0
H2172 H 0.18282 0.64345 0.06486 0.0
H2173 H 0.17165 0.55168 0.18083 0.0
H2174 H 0.20637 0.58698 0.04378 0.0
H2175 H 0.14987 0.60852 0.20433 0.0
H2176 H 0.1838 0.56428 0.1299 0.0
H2177 H 0.16964 0.63077 0.11522 0.0
C2178 C 0.18512 0.62836 0.0707 0.0
C2179 C 0.19576 0.61627 0.05007 0.0
C2180 C 0.17636 0.57401 0.14618 0.0
C2181 C 0.18088 0.60171 0.10781 0.0
C2182 C 0.16952 0.56684 0.1754 0.0
C2183 C 0.15981 0.57909 0.19703 0.0
C2184 C 0.1735 0.59359 0.13844 0.0
C2185 C 0.15711 0.59853 0.1883 0.0
C2186 C 0.17769 0.62116 0.09955 0.0
C2187 C 0.19852 0.5969 0.05912 0.0
N2188 N 0.16396 0.60519 0.1597 0.0
N2189 N 0.19112 0.59022 0.0873 0.0
H2190 H 0.1544 0.46979 0.82666 0.0
H2191 H 0.22163 0.39995 0.92394 0.0
H2192 H 0.17439 0.4171 0.78229 0.0
H2193 H 0.16926 0.42115 0.96804 0.0
H2194 H 0.2097 0.41117 0.87123 0.0
H2195 H 0.1649 0.45727 0.87943 0.0
C2196 C 0.16105 0.45561 0.82821 0.0
C2197 C 0.16356 0.44433 0.80054 0.0
C2198 C 0.20085 0.41327 0.8925 0.0
C2199 C 0.17583 0.43029 0.85982 0.0
C2200 C 0.20763 0.40699 0.92232 0.0
C2201 C 0.19627 0.40965 0.9499 0.0
C2202 C 0.18292 0.42277 0.8907 0.0
C2203 C 0.17824 0.41879 0.94703 0.0
C2204 C 0.1669 0.44849 0.85807 0.0
C2205 C 0.17216 0.42605 0.80336 0.0
N2206 N 0.17217 0.42531 0.91787 0.0
N2207 N 0.17826 0.41963 0.83255 0.0
H2208 H 0.27385 0.21425 0.08522 0.0
H2209 H 0.24408 0.31086 0.99001 0.0
H2210 H 0.24566 0.2135 0.99252 0.0
H2211 H 0.27047 0.31021 0.08418 0.0
H2212 H 0.24684 0.27548 0.98803 0.0
H2213 H 0.2749 0.2495 0.08292 0.0
C2214 C 0.26791 0.2215 0.0643 0.0
C2215 C 0.2595 0.21081 0.03916 0.0
C2216 C 0.25212 0.28311 0.00904 0.0
C2217 C 0.26071 0.25144 0.03628 0.0
C2218 C 0.25065 0.30333 0.01011 0.0
C2219 C 0.25692 0.31359 0.03742 0.0
C2220 C 0.25997 0.27302 0.03541 0.0
C2221 C 0.26513 0.30296 0.06286 0.0
C2222 C 0.26857 0.24168 0.06295 0.0
C2223 C 0.25238 0.22107 0.0124 0.0
N2224 N 0.26634 0.28334 0.06127 0.0
N2225 N 0.25301 0.2408 0.01177 0.0
H2226 H 0.96273 0.03271 0.2592 0.0
H2227 H 0.05933 0.97706 0.31413 0.0
H2228 H 0.96398 0.98065 0.31655 0.0
H2229 H 0.06104 0.03052 0.26053 0.0
H2230 H 0.02415 0.97756 0.31166 0.0
H2231 H 0.99834 0.03158 0.25573 0.0
C2232 C 0.97046 0.02101 0.27091 0.0
C2233 C 0.96033 1.00691 0.28859 0.0
C2234 C 0.03212 0.98923 0.30036 0.0
C2235 C 1.00097 1.00552 0.28471 0.0
C2236 C 0.05228 0.98899 0.30191 0.0
C2237 C 0.0632 1.00395 0.28798 0.0
C2238 C 0.02257 1.00455 0.28477 0.0
C2239 C 0.05319 0.01872 0.27166 0.0
C2240 C 0.99077 0.02042 0.26902 0.0
C2241 C 0.97112 0.9921 0.30329 0.0
N2242 N 0.03341 0.01875 0.27071 0.0
N2243 N 0.99074 0.99184 0.30107 0.0
H2244 H 0.29968 0.71635 0.56866 0.0
H2245 H 0.24596 0.81374 0.51252 0.0
H2246 H 0.24675 0.71562 0.5134 0.0
H2247 H 0.29862 0.8118 0.5684 0.0
H2248 H 0.24625 0.77817 0.50993 0.0
H2249 H 0.29969 0.7515 0.56651 0.0
C2250 C 0.28795 0.72359 0.55619 0.0
C2251 C 0.27302 0.71292 0.54161 0.0
C2252 C 0.25773 0.78558 0.52271 0.0
C2253 C 0.27306 0.75356 0.53869 0.0
C2254 C 0.25761 0.80588 0.52409 0.0
C2255 C 0.27214 0.81584 0.54109 0.0
C2256 C 0.27255 0.77516 0.53826 0.0
C2257 C 0.28685 0.80483 0.55567 0.0
C2258 C 0.28802 0.74374 0.5548 0.0
C2259 C 0.25854 0.72322 0.52501 0.0
N2260 N 0.28663 0.78521 0.55398 0.0
N2261 N 0.25884 0.74297 0.52417 0.0
H2262 H 0.46539 0.03258 0.73956 0.0
H2263 H 0.56288 1.001 0.83082 0.0
H2264 H 0.46658 1.00399 0.83193 0.0
H2265 H 0.56264 0.03274 0.74129 0.0
H2266 H 0.52755 0.99967 0.82911 0.0
H2267 H 0.5008 0.03025 0.73706 0.0
C2268 C 0.47305 0.0256 0.75914 0.0
C2269 C 0.46293 0.01858 0.7861 0.0
C2270 C 0.5352 1.00685 0.80972 0.0
C2271 C 0.50356 0.01604 0.78353 0.0
C2272 C 0.55541 1.00768 0.81075 0.0
C2273 C 0.56584 0.01713 0.7863 0.0
C2274 C 0.52517 0.01555 0.78408 0.0
C2275 C 0.5553 0.02517 0.76057 0.0
C2276 C 0.4933 0.02439 0.75779 0.0
C2277 C 0.47373 1.00988 0.8109 0.0
N2278 N 0.53557 0.02431 0.76025 0.0
N2279 N 0.49339 1.00893 0.80906 0.0
H2280 H 0.24429 0.81253 0.00763 0.0
H2281 H 0.27089 0.71556 0.91092 0.0
H2282 H 0.26879 0.81185 0.91199 0.0
H2283 H 0.24458 0.71535 0.00522 0.0
H2284 H 0.27205 0.75084 0.91262 0.0
H2285 H 0.24629 0.77715 0.00902 0.0
C2286 C 0.25029 0.805 0.98704 0.0
C2287 C 0.25632 0.8153 0.95958 0.0
C2288 C 0.26609 0.74312 0.93304 0.0
C2289 C 0.25844 0.77463 0.96092 0.0
C2290 C 0.26536 0.72292 0.93204 0.0
C2291 C 0.25749 0.71236 0.95786 0.0
C2292 C 0.25888 0.75303 0.96005 0.0
C2293 C 0.25091 0.72279 0.98483 0.0
C2294 C 0.25131 0.78475 0.98779 0.0
C2295 C 0.26369 0.8046 0.9335 0.0
N2296 N 0.25164 0.74251 0.98512 0.0
N2297 N 0.2645 0.78494 0.9348 0.0
H2298 H 0.56392 0.01813 0.15081 0.0
H2299 H 0.46567 0.0134 0.25329 0.0
H2300 H 0.56279 1.00155 0.25113 0.0
H2301 H 0.46762 1.00781 0.14996 0.0
H2302 H 0.50129 0.01518 0.25414 0.0
H2303 H 0.52863 0.02022 0.15142 0.0
C2304 C 0.55635 0.01487 0.173 0.0
C2305 C 0.56658 1.0094 0.20087 0.0
C2306 C 0.49388 0.01369 0.23129 0.0
C2307 C 0.5259 1.01229 0.2018 0.0
C2308 C 0.47359 0.01281 0.23078 0.0
C2309 C 0.4637 1.01036 0.20153 0.0
C2310 C 0.50432 1.01244 0.20228 0.0
C2311 C 0.47467 1.00952 0.17306 0.0
C2312 C 0.53614 0.0162 0.17332 0.0
C2313 C 0.55574 1.00599 0.22907 0.0
N2314 N 0.49435 1.01057 0.17414 0.0
N2315 N 0.53604 1.00745 0.22879 0.0
H2316 H 0.28393 0.21209 0.50218 0.0
H2317 H 0.24573 0.3108 0.42247 0.0
H2318 H 0.25159 0.21347 0.41336 0.0
H2319 H 0.29268 0.30831 0.49082 0.0
H2320 H 0.24342 0.27531 0.42442 0.0
H2321 H 0.28293 0.2475 0.50394 0.0
C2322 C 0.27641 0.21982 0.48325 0.0
C2323 C 0.26785 0.20975 0.45756 0.0
C2324 C 0.25415 0.28257 0.4391 0.0
C2325 C 0.26671 0.25039 0.45937 0.0
C2326 C 0.25538 0.30281 0.43816 0.0
C2327 C 0.26948 0.31253 0.4564 0.0
C2328 C 0.2669 0.27197 0.45879 0.0
C2329 C 0.28173 0.30141 0.47612 0.0
C2330 C 0.27597 0.24005 0.48414 0.0
C2331 C 0.25853 0.22062 0.43347 0.0
N2332 N 0.28015 0.28178 0.47681 0.0
N2333 N 0.25818 0.24032 0.43498 0.0
H2334 H 0.06141 1.01097 0.7564 0.0
H2335 H 0.96273 1.00252 0.65616 0.0
H2336 H 0.0584 0.0156 0.65301 0.0
H2337 H 0.96374 0.02108 0.75545 0.0
H2338 H 0.99802 1.00086 0.65663 0.0
H2339 H 0.02584 1.00828 0.75828 0.0
C2340 C 0.05327 1.01117 0.73411 0.0
C2341 C 0.06282 0.0136 0.70451 0.0
C2342 C 0.9905 1.00521 0.67836 0.0
C2343 C 0.0223 1.01042 0.70645 0.0
C2344 C 0.9703 1.00627 0.67812 0.0
C2345 C 0.96006 1.01229 0.70566 0.0
C2346 C 1.00074 1.00995 0.70645 0.0
C2347 C 0.97086 0.0163 0.73364 0.0
C2348 C 0.03302 1.00976 0.73521 0.0
C2349 C 0.05159 0.01392 0.67634 0.0
N2350 N 0.99059 0.01514 0.73327 0.0
N2351 N 0.03198 1.01232 0.678 0.0
H2352 H 0.75162 0.81014 0.99462 0.0
H2353 H 0.7785 0.71357 0.89778 0.0
H2354 H 0.77567 0.80897 0.89873 0.0
H2355 H 0.75017 0.71221 0.99031 0.0
H2356 H 0.77557 0.74869 0.89715 0.0
H2357 H 0.74871 0.77467 0.99297 0.0
C2358 C 0.75606 0.80247 0.97309 0.0
C2359 C 0.76417 0.81257 0.94696 0.0
C2360 C 0.76985 0.74081 0.91758 0.0
C2361 C 0.76103 0.77202 0.945 0.0
C2362 C 0.77158 0.72071 0.91797 0.0
C2363 C 0.76477 0.70994 0.9443 0.0
C2364 C 0.76137 0.75043 0.94385 0.0
C2365 C 0.75562 0.71996 0.96954 0.0
C2366 C 0.75448 0.78223 0.97223 0.0
C2367 C 0.76974 0.80184 0.91976 0.0
N2368 N 0.75437 0.73968 0.96888 0.0
N2369 N 0.7682 0.78225 0.91961 0.0
H2370 H 0.74738 0.21353 0.50549 0.0
H2371 H 0.77594 0.31114 0.41234 0.0
H2372 H 0.77639 0.21498 0.41343 0.0
H2373 H 0.74636 0.31069 0.50391 0.0
H2374 H 0.77817 0.27592 0.41448 0.0
H2375 H 0.74906 0.24892 0.50771 0.0
C2376 C 0.75434 0.22123 0.48593 0.0
C2377 C 0.76165 0.21117 0.45912 0.0
C2378 C 0.77128 0.28349 0.43423 0.0
C2379 C 0.7634 0.25181 0.46135 0.0
C2380 C 0.76993 0.30364 0.43297 0.0
C2381 C 0.76081 0.31398 0.45786 0.0
C2382 C 0.76339 0.2734 0.46054 0.0
C2383 C 0.75363 0.30341 0.48425 0.0
C2384 C 0.75517 0.24148 0.48713 0.0
C2385 C 0.77026 0.22206 0.43434 0.0
N2386 N 0.75495 0.28373 0.48478 0.0
N2387 N 0.77081 0.2417 0.43601 0.0
H2388 H 0.79913 0.21511 0.06147 0.0
H2389 H 0.74573 0.31283 0.00638 0.0
H2390 H 0.7457 0.21466 0.00758 0.0
H2391 H 0.79804 0.31038 0.06309 0.0
H2392 H 0.74594 0.27726 0.00315 0.0
H2393 H 0.79942 0.25024 0.05905 0.0
C2394 C 0.78736 0.22242 0.04921 0.0
C2395 C 0.77218 0.21187 0.03517 0.0
C2396 C 0.75736 0.28456 0.01625 0.0
C2397 C 0.77251 0.25245 0.032 0.0
C2398 C 0.75729 0.30485 0.018 0.0
C2399 C 0.77173 0.31463 0.03543 0.0
C2400 C 0.77207 0.27402 0.03184 0.0
C2401 C 0.78634 0.30352 0.05003 0.0
C2402 C 0.78759 0.24256 0.04769 0.0
C2403 C 0.75765 0.22221 0.0188 0.0
N2404 N 0.78609 0.28392 0.04796 0.0
N2405 N 0.75809 0.24196 0.01787 0.0
H2406 H 0.7703 0.81107 0.59478 0.0
H2407 H 0.76815 0.71224 0.4945 0.0
H2408 H 0.75532 0.8095 0.49381 0.0
H2409 H 0.75812 0.71535 0.59681 0.0
H2410 H 0.77044 0.74782 0.49281 0.0
H2411 H 0.77274 0.77588 0.59467 0.0
C2412 C 0.76748 0.80341 0.57253 0.0
C2413 C 0.76223 0.81347 0.54438 0.0
C2414 C 0.7679 0.74066 0.51562 0.0
C2415 C 0.76556 0.77291 0.54405 0.0
C2416 C 0.76673 0.72042 0.51663 0.0
C2417 C 0.76288 0.71091 0.54582 0.0
C2418 C 0.76556 0.75139 0.54412 0.0
C2419 C 0.76098 0.72214 0.57379 0.0
C2420 C 0.76901 0.78327 0.57251 0.0
C2421 C 0.75948 0.80255 0.51611 0.0
N2422 N 0.76237 0.74175 0.57226 0.0
N2423 N 0.7611 0.78288 0.5167 0.0
H2424 H 0.5606 0.52045 0.83327 0.0
H2425 H 0.46315 0.49088 0.7404 0.0
H2426 H 0.56059 0.4927 0.74024 0.0
H2427 H 0.46429 0.52082 0.83156 0.0
H2428 H 0.49858 0.4928 0.73818 0.0
H2429 H 0.52527 0.52189 0.83156 0.0
C2430 C 0.55317 0.51467 0.81241 0.0
C2431 C 0.56366 0.50631 0.78696 0.0
C2432 C 0.49106 0.49903 0.75858 0.0
C2433 C 0.52296 0.50796 0.78478 0.0
C2434 C 0.47078 0.49806 0.75979 0.0
C2435 C 0.4606 0.50559 0.78633 0.0
C2436 C 0.50132 0.50761 0.78409 0.0
C2437 C 0.47143 0.51449 0.81089 0.0
C2438 C 0.53295 0.51557 0.81139 0.0
C2439 C 0.55317 0.49938 0.76033 0.0
N2440 N 0.49111 0.51517 0.80922 0.0
N2441 N 0.53342 0.50022 0.76004 0.0
H2442 H 0.06132 0.50497 0.33749 0.0
H2443 H 0.96411 0.53221 0.24157 0.0
H2444 H 0.06153 0.53187 0.2437 0.0
H2445 H 0.96498 0.5071 0.33673 0.0
H2446 H 0.99955 0.5302 0.23994 0.0
H2447 H 0.02599 0.50378 0.33575 0.0
C2448 C 0.05395 0.51062 0.31646 0.0
C2449 C 0.06452 0.51868 0.29082 0.0
C2450 C 0.99197 0.52506 0.26112 0.0
C2451 C 0.02379 0.51727 0.28859 0.0
C2452 C 0.97169 0.52609 0.262 0.0
C2453 C 0.96144 0.5199 0.28941 0.0
C2454 C 1.00216 0.51774 0.28779 0.0
C2455 C 0.97219 0.51234 0.31528 0.0
C2456 C 0.03372 0.50987 0.31544 0.0
C2457 C 0.05407 0.52541 0.26396 0.0
N2458 N 0.99187 0.51152 0.31385 0.0
N2459 N 0.03432 0.52467 0.26364 0.0
H2460 H 0.0652 0.52482 0.73774 0.0
H2461 H 0.96734 0.47191 0.68177 0.0
H2462 H 0.06307 0.47215 0.6821 0.0
H2463 H 0.967 0.52502 0.73632 0.0
H2464 H 1.00256 0.47154 0.68403 0.0
H2465 H 0.0296 0.52484 0.7401 0.0
C2466 C 0.0573 0.51322 0.72617 0.0
C2467 C 0.06724 0.49858 0.70937 0.0
C2468 C 0.99487 0.48331 0.69556 0.0
C2469 C 0.02647 0.49855 0.71191 0.0
C2470 C 0.97468 0.4836 0.69412 0.0
C2471 C 0.9641 0.49869 0.70845 0.0
C2472 C 1.00482 0.49824 0.71147 0.0
C2473 C 0.97453 0.51311 0.72491 0.0
C2474 C 0.03697 0.51329 0.72742 0.0
C2475 C 0.05615 0.48398 0.69472 0.0
N2476 N 0.99431 0.5126 0.72579 0.0
N2477 N 0.03648 0.48438 0.69629 0.0
H2478 H 0.46518 0.53463 0.25589 0.0
H2479 H 0.56185 0.50661 0.15909 0.0
H2480 H 0.46549 0.50654 0.16309 0.0
H2481 H 0.5626 0.53261 0.25351 0.0
H2482 H 0.52653 0.50545 0.16139 0.0
H2483 H 0.50063 0.5327 0.25699 0.0
C2484 C 0.47263 0.52785 0.2359 0.0
C2485 C 0.46221 0.52084 0.20925 0.0
C2486 C 0.53438 0.51134 0.18171 0.0
C2487 C 0.50296 0.51882 0.21021 0.0
C2488 C 0.5546 0.51209 0.18035 0.0
C2489 C 0.56532 0.51984 0.20605 0.0
C2490 C 0.5246 0.51847 0.20893 0.0
C2491 C 0.55502 0.52638 0.2332 0.0
C2492 C 0.49293 0.52687 0.23647 0.0
C2493 C 0.47282 0.51246 0.18391 0.0
N2494 N 0.53527 0.52567 0.23383 0.0
N2495 N 0.49252 0.51176 0.18498 0.0
loop_
_geom_bond_atom_site_label_1
_geom_bond_atom_site_label_2
_geom_bond_distance
_geom_bond_site_symmetry_2
_ccdc_geom_bond_type
Co0 N4 2.148 . S
Co0 N10 2.128 . S
Co0 N20 2.194 . S
Co0 O25 2.351 . S
Co0 O26 2.155 . S
Co0 O27 2.096 . S
C1 N4 1.301 . S
C1 N5 1.328 . S
C1 H6 0.930 . S
C2 C3 1.333 . S
C2 N4 1.317 . S
C2 H7 0.930 . S
C3 C2 1.333 . S
C3 N5 1.350 . S
C3 H29 0.931 . S
N4 Co0 2.148 . S
N4 C1 1.301 . S
N4 C2 1.317 . S
N5 C1 1.328 . S
N5 C3 1.350 . S
H6 C1 0.930 . S
H7 C2 0.930 . S
C8 O9 1.224 . S
C8 O27 1.247 . S
O9 C8 1.224 . S
N10 Co0 2.128 . S
N10 C11 1.355 . S
N10 C13 1.311 1_554 S
C11 N10 1.355 . S
C11 C12 1.363 1_554 S
C11 H23 0.929 . S
C12 C11 1.363 1_556 S
C12 N14 1.375 . S
C12 H30 0.931 . S
C13 N10 1.311 1_556 S
C13 N14 1.347 . S
C13 H24 0.929 . S
N14 C12 1.375 . S
N14 C13 1.347 . S
C15 C18 1.365 . S
C15 N20 1.328 . S
C15 H21 0.929 . S
C16 C17 1.362 . S
C16 C19 1.378 . S
C16 H31 0.929 . S
C17 C16 1.362 . S
C17 C18 1.366 . S
C18 C15 1.365 . S
C18 C17 1.366 . S
C18 H32 0.930 . S
C19 C16 1.378 . S
C19 N20 1.315 . S
C19 H22 0.930 . S
N20 Co0 2.194 . S
N20 C15 1.328 . S
N20 C19 1.315 . S
H21 C15 0.929 . S
H22 C19 0.930 . S
H23 C11 0.929 . S
H24 C13 0.929 . S
O25 Co0 2.351 . S
O25 C28 1.244 . S
O26 Co0 2.155 . S
O26 C28 1.240 . S
O27 Co0 2.096 . S
O27 C8 1.247 . S
C28 O25 1.244 . S
C28 O26 1.240 . S
H29 C3 0.931 . S
H30 C12 0.931 . S
H31 C16 0.929 . S
H32 C18 0.930 . S
Co33 N37 2.148 . S
Co33 N43 2.128 . S
Co33 N53 2.194 . S
Co33 O58 2.351 . S
Co33 O59 2.155 . S
Co33 O60 2.096 . S
C34 N37 1.301 . S
C34 N38 1.328 . S
C34 H39 0.930 . S
C35 C36 1.309 1_565 S
C35 N37 1.317 . S
C35 H40 0.925 1_565 S
C36 C35 1.309 1_545 S
C36 N38 1.305 1_545 S
C36 H62 0.992 . S
N37 Co33 2.148 . S
N37 C34 1.301 . S
N37 C35 1.317 . S
N38 C34 1.328 . S
N38 C36 1.305 1_565 S
H39 C34 0.930 . S
H40 C35 0.925 1_545 S
C41 O42 1.224 . S
C41 O60 1.247 . S
O42 C41 1.224 . S
N43 Co33 2.128 . S
N43 C44 1.355 . S
N43 C46 1.311 . S
C44 N43 1.355 . S
C44 C45 1.363 . S
C44 H56 0.929 . S
C45 C44 1.363 . S
C45 N47 1.375 . S
C45 H63 0.931 . S
C46 N43 1.311 . S
C46 N47 1.347 . S
C46 H57 0.929 . S
N47 C45 1.375 . S
N47 C46 1.347 . S
C48 C51 1.365 . S
C48 N53 1.328 . S
C48 H54 0.929 . S
C49 C50 1.362 . S
C49 C52 1.378 . S
C49 H64 0.929 . S
C50 C49 1.362 . S
C50 C51 1.366 . S
C51 C48 1.365 . S
C51 C50 1.366 . S
C51 H65 0.930 . S
C52 C49 1.378 . S
C52 N53 1.315 . S
C52 H55 0.930 . S
N53 Co33 2.194 . S
N53 C48 1.328 . S
N53 C52 1.315 . S
H54 C48 0.929 . S
H55 C52 0.930 . S
H56 C44 0.929 . S
H57 C46 0.929 . S
O58 Co33 2.351 . S
O58 C61 1.244 . S
O59 Co33 2.155 . S
O59 C61 1.240 . S
O60 Co33 2.096 . S
O60 C41 1.247 . S
C61 O58 1.244 . S
C61 O59 1.240 . S
H62 C36 0.992 . S
H63 C45 0.931 . S
H64 C49 0.929 . S
H65 C51 0.930 . S
Co66 N70 2.148 . S
Co66 N76 2.128 . S
Co66 N86 2.194 . S
Co66 O91 2.351 . S
Co66 O92 2.155 . S
Co66 O93 2.096 . S
C67 N70 1.301 . S
C67 N71 1.328 . S
C67 H72 0.930 . S
C68 C69 1.333 . S
C68 N70 1.317 . S
C68 H73 0.930 . S
C69 C68 1.333 . S
C69 N71 1.350 . S
C69 H95 0.931 . S
N70 Co66 2.148 . S
N70 C67 1.301 . S
N70 C68 1.317 . S
N71 C67 1.328 . S
N71 C69 1.350 . S
H72 C67 0.930 . S
H73 C68 0.930 . S
C74 O75 1.224 . S
C74 O93 1.247 . S
O75 C74 1.224 . S
N76 Co66 2.128 . S
N76 C77 1.355 . S
N76 C79 1.311 . S
C77 N76 1.355 . S
C77 C78 1.363 . S
C77 H89 0.929 . S
C78 C77 1.363 . S
C78 N80 1.375 . S
C78 H96 0.931 . S
C79 N76 1.311 . S
C79 N80 1.347 . S
C79 H90 0.929 . S
N80 C78 1.375 . S
N80 C79 1.347 . S
C81 C84 1.365 . S
C81 N86 1.328 . S
C81 H87 0.929 . S
C82 C83 1.362 . S
C82 C85 1.378 . S
C82 H97 0.929 . S
C83 C82 1.362 . S
C83 C84 1.366 . S
C84 C81 1.365 . S
C84 C83 1.366 . S
C84 H98 0.930 . S
C85 C82 1.378 . S
C85 N86 1.315 . S
C85 H88 0.930 . S
N86 Co66 2.194 . S
N86 C81 1.328 . S
N86 C85 1.315 . S
H87 C81 0.929 . S
H88 C85 0.930 . S
H89 C77 0.929 . S
H90 C79 0.929 . S
O91 Co66 2.351 . S
O91 C94 1.244 . S
O92 Co66 2.155 . S
O92 C94 1.240 . S
O93 Co66 2.096 . S
O93 C74 1.247 . S
C94 O91 1.244 . S
C94 O92 1.240 . S
H95 C69 0.931 . S
H96 C78 0.931 . S
H97 C82 0.929 . S
H98 C84 0.930 . S
Co99 N103 2.148 . S
Co99 N109 2.128 . S
Co99 N119 2.194 . S
Co99 O124 2.351 . S
Co99 O125 2.155 . S
Co99 O126 2.096 . S
C100 N103 1.301 . S
C100 N104 1.328 . S
C100 H105 0.930 . S
C101 C102 1.309 1_545 S
C101 N103 1.317 . S
C101 H106 0.925 1_545 S
C102 C101 1.309 1_565 S
C102 N104 1.305 1_565 S
C102 H128 0.992 . S
N103 Co99 2.148 . S
N103 C100 1.301 . S
N103 C101 1.317 . S
N104 C100 1.328 . S
N104 C102 1.305 1_545 S
H105 C100 0.930 . S
H106 C101 0.925 1_565 S
C107 O108 1.224 . S
C107 O126 1.247 . S
O108 C107 1.224 . S
N109 Co99 2.128 . S
N109 C110 1.355 . S
N109 C112 1.311 . S
C110 N109 1.355 . S
C110 C111 1.363 . S
C110 H122 0.929 . S
C111 C110 1.363 . S
C111 N113 1.375 . S
C111 H129 0.931 . S
C112 N109 1.311 . S
C112 N113 1.347 . S
C112 H123 0.929 . S
N113 C111 1.375 . S
N113 C112 1.347 . S
C114 C117 1.365 . S
C114 N119 1.328 . S
C114 H120 0.929 . S
C115 C116 1.362 . S
C115 C118 1.378 . S
C115 H130 0.929 . S
C116 C115 1.362 . S
C116 C117 1.366 . S
C117 C114 1.365 . S
C117 C116 1.366 . S
C117 H131 0.930 . S
C118 C115 1.378 . S
C118 N119 1.315 . S
C118 H121 0.930 . S
N119 Co99 2.194 . S
N119 C114 1.328 . S
N119 C118 1.315 . S
H120 C114 0.929 . S
H121 C118 0.930 . S
H122 C110 0.929 . S
H123 C112 0.929 . S
O124 Co99 2.351 . S
O124 C127 1.244 . S
O125 Co99 2.155 . S
O125 C127 1.240 . S
O126 Co99 2.096 . S
O126 C107 1.247 . S
C127 O124 1.244 . S
C127 O125 1.240 . S
H128 C102 0.992 . S
H129 C111 0.931 . S
H130 C115 0.929 . S
H131 C117 0.930 . S
Co132 N136 2.148 . S
Co132 N142 2.128 . S
Co132 N152 2.194 . S
Co132 O157 2.351 . S
Co132 O158 2.155 . S
Co132 O159 2.096 . S
C133 N136 1.301 . S
C133 N137 1.328 . S
C133 H138 0.930 . S
C134 C135 1.333 . S
C134 N136 1.317 . S
C134 H139 0.930 . S
C135 C134 1.333 . S
C135 N137 1.350 . S
C135 H161 0.931 . S
N136 Co132 2.148 . S
N136 C133 1.301 . S
N136 C134 1.317 . S
N137 C133 1.328 . S
N137 C135 1.350 . S
H138 C133 0.930 . S
H139 C134 0.930 . S
C140 O141 1.224 . S
C140 O159 1.247 . S
O141 C140 1.224 . S
N142 Co132 2.128 . S
N142 C143 1.355 . S
N142 C145 1.311 1_556 S
C143 N142 1.355 . S
C143 C144 1.363 1_556 S
C143 H155 0.929 . S
C144 C143 1.363 1_554 S
C144 N146 1.375 . S
C144 H162 0.931 . S
C145 N142 1.311 1_554 S
C145 N146 1.347 . S
C145 H156 0.929 . S
N146 C144 1.375 . S
N146 C145 1.347 . S
C147 C150 1.365 . S
C147 N152 1.328 . S
C147 H153 0.929 . S
C148 C149 1.362 . S
C148 C151 1.378 . S
C148 H163 0.929 . S
C149 C148 1.362 . S
C149 C150 1.366 . S
C150 C147 1.365 . S
C150 C149 1.366 . S
C150 H164 0.930 . S
C151 C148 1.378 . S
C151 N152 1.315 . S
C151 H154 0.930 . S
N152 Co132 2.194 . S
N152 C147 1.328 . S
N152 C151 1.315 . S
H153 C147 0.929 . S
H154 C151 0.930 . S
H155 C143 0.929 . S
H156 C145 0.929 . S
O157 Co132 2.351 . S
O157 C160 1.244 . S
O158 Co132 2.155 . S
O158 C160 1.240 . S
O159 Co132 2.096 . S
O159 C140 1.247 . S
C160 O157 1.244 . S
C160 O158 1.240 . S
H161 C135 0.931 . S
H162 C144 0.931 . S
H163 C148 0.929 . S
H164 C150 0.930 . S
Co165 N169 2.148 . S
Co165 N175 2.128 . S
Co165 N185 2.194 . S
Co165 O190 2.351 . S
Co165 O191 2.155 . S
Co165 O192 2.096 . S
C166 N169 1.301 . S
C166 N170 1.328 . S
C166 H171 0.930 . S
C167 C168 1.309 1_565 S
C167 N169 1.317 . S
C167 H172 0.925 1_565 S
C168 C167 1.309 1_545 S
C168 N170 1.305 1_545 S
C168 H194 0.992 . S
N169 Co165 2.148 . S
N169 C166 1.301 . S
N169 C167 1.317 . S
N170 C166 1.328 . S
N170 C168 1.305 1_565 S
H171 C166 0.930 . S
H172 C167 0.925 1_545 S
C173 O174 1.224 . S
C173 O192 1.247 . S
O174 C173 1.224 . S
N175 Co165 2.128 . S
N175 C176 1.355 . S
N175 C178 1.311 . S
C176 N175 1.355 . S
C176 C177 1.363 . S
C176 H188 0.929 . S
C177 C176 1.363 . S
C177 N179 1.375 . S
C177 H195 0.931 . S
C178 N175 1.311 . S
C178 N179 1.347 . S
C178 H189 0.929 . S
N179 C177 1.375 . S
N179 C178 1.347 . S
C180 C183 1.365 . S
C180 N185 1.328 . S
C180 H186 0.929 . S
C181 C182 1.362 . S
C181 C184 1.378 . S
C181 H196 0.929 . S
C182 C181 1.362 . S
C182 C183 1.366 . S
C183 C180 1.365 . S
C183 C182 1.366 . S
C183 H197 0.930 . S
C184 C181 1.378 . S
C184 N185 1.315 . S
C184 H187 0.930 . S
N185 Co165 2.194 . S
N185 C180 1.328 . S
N185 C184 1.315 . S
H186 C180 0.929 . S
H187 C184 0.930 . S
H188 C176 0.929 . S
H189 C178 0.929 . S
O190 Co165 2.351 . S
O190 C193 1.244 . S
O191 Co165 2.155 . S
O191 C193 1.240 . S
O192 Co165 2.096 . S
O192 C173 1.247 . S
C193 O190 1.244 . S
C193 O191 1.240 . S
H194 C168 0.992 . S
H195 C177 0.931 . S
H196 C181 0.929 . S
H197 C183 0.930 . S
Co198 N202 2.148 . S
Co198 N208 2.128 . S
Co198 N218 2.194 . S
Co198 O223 2.351 . S
Co198 O224 2.155 . S
Co198 O225 2.096 . S
C199 N202 1.301 . S
C199 N203 1.328 . S
C199 H204 0.930 . S
C200 C201 1.333 . S
C200 N202 1.317 . S
C200 H205 0.930 . S
C201 C200 1.333 . S
C201 N203 1.350 . S
C201 H227 0.931 . S
N202 Co198 2.148 . S
N202 C199 1.301 . S
N202 C200 1.317 . S
N203 C199 1.328 . S
N203 C201 1.350 . S
H204 C199 0.930 . S
H205 C200 0.930 . S
C206 O207 1.224 . S
C206 O225 1.247 . S
O207 C206 1.224 . S
N208 Co198 2.128 . S
N208 C209 1.355 . S
N208 C211 1.311 . S
C209 N208 1.355 . S
C209 C210 1.363 . S
C209 H221 0.929 . S
C210 C209 1.363 . S
C210 N212 1.375 . S
C210 H228 0.931 . S
C211 N208 1.311 . S
C211 N212 1.347 . S
C211 H222 0.929 . S
N212 C210 1.375 . S
N212 C211 1.347 . S
C213 C216 1.365 . S
C213 N218 1.328 . S
C213 H219 0.929 . S
C214 C215 1.362 . S
C214 C217 1.378 . S
C214 H229 0.929 . S
C215 C214 1.362 . S
C215 C216 1.366 . S
C216 C213 1.365 . S
C216 C215 1.366 . S
C216 H230 0.930 . S
C217 C214 1.378 . S
C217 N218 1.315 . S
C217 H220 0.930 . S
N218 Co198 2.194 . S
N218 C213 1.328 . S
N218 C217 1.315 . S
H219 C213 0.929 . S
H220 C217 0.930 . S
H221 C209 0.929 . S
H222 C211 0.929 . S
O223 Co198 2.351 . S
O223 C226 1.244 . S
O224 Co198 2.155 . S
O224 C226 1.240 . S
O225 Co198 2.096 . S
O225 C206 1.247 . S
C226 O223 1.244 . S
C226 O224 1.240 . S
H227 C201 0.931 . S
H228 C210 0.931 . S
H229 C214 0.929 . S
H230 C216 0.930 . S
Co231 N235 2.148 . S
Co231 N241 2.128 . S
Co231 N251 2.194 . S
Co231 O256 2.351 . S
Co231 O257 2.155 . S
Co231 O258 2.096 . S
C232 N235 1.301 . S
C232 N236 1.328 . S
C232 H237 0.930 . S
C233 C234 1.309 1_545 S
C233 N235 1.317 . S
C233 H238 0.925 1_545 S
C234 C233 1.309 1_565 S
C234 N236 1.305 1_565 S
C234 H260 0.992 . S
N235 Co231 2.148 . S
N235 C232 1.301 . S
N235 C233 1.317 . S
N236 C232 1.328 . S
N236 C234 1.305 1_545 S
H237 C232 0.930 . S
H238 C233 0.925 1_565 S
C239 O240 1.224 . S
C239 O258 1.247 . S
O240 C239 1.224 . S
N241 Co231 2.128 . S
N241 C242 1.355 . S
N241 C244 1.311 . S
C242 N241 1.355 . S
C242 C243 1.363 . S
C242 H254 0.929 . S
C243 C242 1.363 . S
C243 N245 1.375 . S
C243 H261 0.931 . S
C244 N241 1.311 . S
C244 N245 1.347 . S
C244 H255 0.929 . S
N245 C243 1.375 . S
N245 C244 1.347 . S
C246 C249 1.365 . S
C246 N251 1.328 . S
C246 H252 0.929 . S
C247 C248 1.362 . S
C247 C250 1.378 . S
C247 H262 0.929 . S
C248 C247 1.362 . S
C248 C249 1.366 . S
C249 C246 1.365 . S
C249 C248 1.366 . S
C249 H263 0.930 . S
C250 C247 1.378 . S
C250 N251 1.315 . S
C250 H253 0.930 . S
N251 Co231 2.194 . S
N251 C246 1.328 . S
N251 C250 1.315 . S
H252 C246 0.929 . S
H253 C250 0.930 . S
H254 C242 0.929 . S
H255 C244 0.929 . S
O256 Co231 2.351 . S
O256 C259 1.244 . S
O257 Co231 2.155 . S
O257 C259 1.240 . S
O258 Co231 2.096 . S
O258 C239 1.247 . S
C259 O256 1.244 . S
C259 O257 1.240 . S
H260 C234 0.992 . S
H261 C243 0.931 . S
H262 C247 0.929 . S
H263 C249 0.930 . S
Co264 N268 2.148 . S
Co264 N274 2.128 . S
Co264 N284 2.194 . S
Co264 O289 2.351 . S
Co264 O290 2.155 . S
Co264 O291 2.096 . S
C265 N268 1.301 . S
C265 N269 1.328 . S
C265 H270 0.930 . S
C266 C267 1.333 . S
C266 N268 1.317 . S
C266 H271 0.930 . S
C267 C266 1.333 . S
C267 N269 1.350 . S
C267 H293 0.931 . S
N268 Co264 2.148 . S
N268 C265 1.301 . S
N268 C266 1.317 . S
N269 C265 1.328 . S
N269 C267 1.350 . S
H270 C265 0.930 . S
H271 C266 0.930 . S
C272 O273 1.224 . S
C272 O291 1.247 . S
O273 C272 1.224 . S
N274 Co264 2.128 . S
N274 C275 1.355 . S
N274 C277 1.311 1_556 S
C275 N274 1.355 . S
C275 C276 1.363 1_556 S
C275 H287 0.929 . S
C276 C275 1.363 1_554 S
C276 N278 1.375 . S
C276 H294 0.931 . S
C277 N274 1.311 1_554 S
C277 N278 1.347 . S
C277 H288 0.929 . S
N278 C276 1.375 . S
N278 C277 1.347 . S
C279 C282 1.365 . S
C279 N284 1.328 . S
C279 H285 0.929 . S
C280 C281 1.362 . S
C280 C283 1.378 . S
C280 H295 0.929 . S
C281 C280 1.362 . S
C281 C282 1.366 . S
C282 C279 1.365 . S
C282 C281 1.366 . S
C282 H296 0.930 . S
C283 C280 1.378 . S
C283 N284 1.315 . S
C283 H286 0.930 . S
N284 Co264 2.194 . S
N284 C279 1.328 . S
N284 C283 1.315 . S
H285 C279 0.929 . S
H286 C283 0.930 . S
H287 C275 0.929 . S
H288 C277 0.929 . S
O289 Co264 2.351 . S
O289 C292 1.244 . S
O290 Co264 2.155 . S
O290 C292 1.240 . S
O291 Co264 2.096 . S
O291 C272 1.247 . S
C292 O289 1.244 . S
C292 O290 1.240 . S
H293 C267 0.931 . S
H294 C276 0.931 . S
H295 C280 0.929 . S
H296 C282 0.930 . S
Co297 N301 2.148 . S
Co297 N307 2.128 . S
Co297 N317 2.194 . S
Co297 O322 2.351 . S
Co297 O323 2.155 . S
Co297 O324 2.096 . S
C298 N301 1.301 . S
C298 N302 1.328 . S
C298 H303 0.930 . S
C299 C300 1.309 1_545 S
C299 N301 1.317 . S
C299 H304 0.925 1_545 S
C300 C299 1.309 1_565 S
C300 N302 1.305 1_565 S
C300 H326 0.992 . S
N301 Co297 2.148 . S
N301 C298 1.301 . S
N301 C299 1.317 . S
N302 C298 1.328 . S
N302 C300 1.305 1_545 S
H303 C298 0.930 . S
H304 C299 0.925 1_565 S
C305 O306 1.224 . S
C305 O324 1.247 . S
O306 C305 1.224 . S
N307 Co297 2.128 . S
N307 C308 1.355 . S
N307 C310 1.311 . S
C308 N307 1.355 . S
C308 C309 1.363 . S
C308 H320 0.929 . S
C309 C308 1.363 . S
C309 N311 1.375 . S
C309 H327 0.931 . S
C310 N307 1.311 . S
C310 N311 1.347 . S
C310 H321 0.929 . S
N311 C309 1.375 . S
N311 C310 1.347 . S
C312 C315 1.365 . S
C312 N317 1.328 . S
C312 H318 0.929 . S
C313 C314 1.362 . S
C313 C316 1.378 . S
C313 H328 0.929 . S
C314 C313 1.362 . S
C314 C315 1.366 . S
C315 C312 1.365 . S
C315 C314 1.366 . S
C315 H329 0.930 . S
C316 C313 1.378 . S
C316 N317 1.315 . S
C316 H319 0.930 . S
N317 Co297 2.194 . S
N317 C312 1.328 . S
N317 C316 1.315 . S
H318 C312 0.929 . S
H319 C316 0.930 . S
H320 C308 0.929 . S
H321 C310 0.929 . S
O322 Co297 2.351 . S
O322 C325 1.244 . S
O323 Co297 2.155 . S
O323 C325 1.240 . S
O324 Co297 2.096 . S
O324 C305 1.247 . S
C325 O322 1.244 . S
C325 O323 1.240 . S
H326 C300 0.992 . S
H327 C309 0.931 . S
H328 C313 0.929 . S
H329 C315 0.930 . S
Co330 N334 2.148 . S
Co330 N340 2.128 . S
Co330 N350 2.194 . S
Co330 O355 2.351 . S
Co330 O356 2.155 . S
Co330 O357 2.096 . S
C331 N334 1.301 . S
C331 N335 1.328 . S
C331 H336 0.930 . S
C332 C333 1.333 . S
C332 N334 1.317 . S
C332 H337 0.930 . S
C333 C332 1.333 . S
C333 N335 1.350 . S
C333 H359 0.931 . S
N334 Co330 2.148 . S
N334 C331 1.301 . S
N334 C332 1.317 . S
N335 C331 1.328 . S
N335 C333 1.350 . S
H336 C331 0.930 . S
H337 C332 0.930 . S
C338 O339 1.224 . S
C338 O357 1.247 . S
O339 C338 1.224 . S
N340 Co330 2.128 . S
N340 C341 1.355 . S
N340 C343 1.311 . S
C341 N340 1.355 . S
C341 C342 1.363 . S
C341 H353 0.929 . S
C342 C341 1.363 . S
C342 N344 1.375 . S
C342 H360 0.931 . S
C343 N340 1.311 . S
C343 N344 1.347 . S
C343 H354 0.929 . S
N344 C342 1.375 . S
N344 C343 1.347 . S
C345 C348 1.365 . S
C345 N350 1.328 . S
C345 H351 0.929 . S
C346 C347 1.362 . S
C346 C349 1.378 . S
C346 H361 0.929 . S
C347 C346 1.362 . S
C347 C348 1.366 . S
C348 C345 1.365 . S
C348 C347 1.366 . S
C348 H362 0.930 . S
C349 C346 1.378 . S
C349 N350 1.315 . S
C349 H352 0.930 . S
N350 Co330 2.194 . S
N350 C345 1.328 . S
N350 C349 1.315 . S
H351 C345 0.929 . S
H352 C349 0.930 . S
H353 C341 0.929 . S
H354 C343 0.929 . S
O355 Co330 2.351 . S
O355 C358 1.244 . S
O356 Co330 2.155 . S
O356 C358 1.240 . S
O357 Co330 2.096 . S
O357 C338 1.247 . S
C358 O355 1.244 . S
C358 O356 1.240 . S
H359 C333 0.931 . S
H360 C342 0.931 . S
H361 C346 0.929 . S
H362 C348 0.930 . S
Co363 N367 2.148 . S
Co363 N373 2.128 . S
Co363 N383 2.194 . S
Co363 O388 2.351 . S
Co363 O389 2.155 . S
Co363 O390 2.096 . S
C364 N367 1.301 . S
C364 N368 1.328 . S
C364 H369 0.930 . S
C365 C366 1.309 1_565 S
C365 N367 1.317 . S
C365 H370 0.925 1_565 S
C366 C365 1.309 1_545 S
C366 N368 1.305 1_545 S
C366 H392 0.992 . S
N367 Co363 2.148 . S
N367 C364 1.301 . S
N367 C365 1.317 . S
N368 C364 1.328 . S
N368 C366 1.305 1_565 S
H369 C364 0.930 . S
H370 C365 0.925 1_545 S
C371 O372 1.224 . S
C371 O390 1.247 . S
O372 C371 1.224 . S
N373 Co363 2.128 . S
N373 C374 1.355 . S
N373 C376 1.311 . S
C374 N373 1.355 . S
C374 C375 1.363 . S
C374 H386 0.929 . S
C375 C374 1.363 . S
C375 N377 1.375 . S
C375 H393 0.931 . S
C376 N373 1.311 . S
C376 N377 1.347 . S
C376 H387 0.929 . S
N377 C375 1.375 . S
N377 C376 1.347 . S
C378 C381 1.365 . S
C378 N383 1.328 . S
C378 H384 0.929 . S
C379 C380 1.362 . S
C379 C382 1.378 . S
C379 H394 0.929 . S
C380 C379 1.362 . S
C380 C381 1.366 . S
C381 C378 1.365 . S
C381 C380 1.366 . S
C381 H395 0.930 . S
C382 C379 1.378 . S
C382 N383 1.315 . S
C382 H385 0.930 . S
N383 Co363 2.194 . S
N383 C378 1.328 . S
N383 C382 1.315 . S
H384 C378 0.929 . S
H385 C382 0.930 . S
H386 C374 0.929 . S
H387 C376 0.929 . S
O388 Co363 2.351 . S
O388 C391 1.244 . S
O389 Co363 2.155 . S
O389 C391 1.240 . S
O390 Co363 2.096 . S
O390 C371 1.247 . S
C391 O388 1.244 . S
C391 O389 1.240 . S
H392 C366 0.992 . S
H393 C375 0.931 . S
H394 C379 0.929 . S
H395 C381 0.930 . S
Co396 N400 2.148 . S
Co396 N406 2.128 . S
Co396 N416 2.194 . S
Co396 O421 2.351 . S
Co396 O422 2.155 . S
Co396 O423 2.096 . S
C397 N400 1.301 . S
C397 N401 1.328 . S
C397 H402 0.930 . S
C398 C399 1.333 . S
C398 N400 1.317 . S
C398 H403 0.930 . S
C399 C398 1.333 . S
C399 N401 1.350 . S
C399 H425 0.931 . S
N400 Co396 2.148 . S
N400 C397 1.301 . S
N400 C398 1.317 . S
N401 C397 1.328 . S
N401 C399 1.350 . S
H402 C397 0.930 . S
H403 C398 0.930 . S
C404 O405 1.224 . S
C404 O423 1.247 . S
O405 C404 1.224 . S
N406 Co396 2.128 . S
N406 C407 1.355 . S
N406 C409 1.311 1_554 S
C407 N406 1.355 . S
C407 C408 1.363 1_554 S
C407 H419 0.929 . S
C408 C407 1.363 1_556 S
C408 N410 1.375 . S
C408 H426 0.931 . S
C409 N406 1.311 1_556 S
C409 N410 1.347 . S
C409 H420 0.929 . S
N410 C408 1.375 . S
N410 C409 1.347 . S
C411 C414 1.365 . S
C411 N416 1.328 . S
C411 H417 0.929 . S
C412 C413 1.362 . S
C412 C415 1.378 . S
C412 H427 0.929 . S
C413 C412 1.362 . S
C413 C414 1.366 . S
C414 C411 1.365 . S
C414 C413 1.366 . S
C414 H428 0.930 . S
C415 C412 1.378 . S
C415 N416 1.315 . S
C415 H418 0.930 . S
N416 Co396 2.194 . S
N416 C411 1.328 . S
N416 C415 1.315 . S
H417 C411 0.929 . S
H418 C415 0.930 . S
H419 C407 0.929 . S
H420 C409 0.929 . S
O421 Co396 2.351 . S
O421 C424 1.244 . S
O422 Co396 2.155 . S
O422 C424 1.240 . S
O423 Co396 2.096 . S
O423 C404 1.247 . S
C424 O421 1.244 . S
C424 O422 1.240 . S
H425 C399 0.931 . S
H426 C408 0.931 . S
H427 C412 0.929 . S
H428 C414 0.930 . S
Co429 N433 2.148 . S
Co429 N439 2.128 . S
Co429 N449 2.194 . S
Co429 O454 2.351 . S
Co429 O455 2.155 . S
Co429 O456 2.096 . S
C430 N433 1.301 . S
C430 N434 1.328 . S
C430 H435 0.930 . S
C431 C432 1.309 1_545 S
C431 N433 1.317 . S
C431 H436 0.925 1_545 S
C432 C431 1.309 1_565 S
C432 N434 1.305 1_565 S
C432 H458 0.992 . S
N433 Co429 2.148 . S
N433 C430 1.301 . S
N433 C431 1.317 . S
N434 C430 1.328 . S
N434 C432 1.305 1_545 S
H435 C430 0.930 . S
H436 C431 0.925 1_565 S
C437 O438 1.224 . S
C437 O456 1.247 . S
O438 C437 1.224 . S
N439 Co429 2.128 . S
N439 C440 1.355 . S
N439 C442 1.311 . S
C440 N439 1.355 . S
C440 C441 1.363 . S
C440 H452 0.929 . S
C441 C440 1.363 . S
C441 N443 1.375 . S
C441 H459 0.931 . S
C442 N439 1.311 . S
C442 N443 1.347 . S
C442 H453 0.929 . S
N443 C441 1.375 . S
N443 C442 1.347 . S
C444 C447 1.365 . S
C444 N449 1.328 . S
C444 H450 0.929 . S
C445 C446 1.362 . S
C445 C448 1.378 . S
C445 H460 0.929 . S
C446 C445 1.362 . S
C446 C447 1.366 . S
C447 C444 1.365 . S
C447 C446 1.366 . S
C447 H461 0.930 . S
C448 C445 1.378 . S
C448 N449 1.315 . S
C448 H451 0.930 . S
N449 Co429 2.194 . S
N449 C444 1.328 . S
N449 C448 1.315 . S
H450 C444 0.929 . S
H451 C448 0.930 . S
H452 C440 0.929 . S
H453 C442 0.929 . S
O454 Co429 2.351 . S
O454 C457 1.244 . S
O455 Co429 2.155 . S
O455 C457 1.240 . S
O456 Co429 2.096 . S
O456 C437 1.247 . S
C457 O454 1.244 . S
C457 O455 1.240 . S
H458 C432 0.992 . S
H459 C441 0.931 . S
H460 C445 0.929 . S
H461 C447 0.930 . S
Co462 N466 2.148 . S
Co462 N472 2.128 . S
Co462 N482 2.194 . S
Co462 O487 2.351 . S
Co462 O488 2.155 . S
Co462 O489 2.096 . S
C463 N466 1.301 . S
C463 N467 1.328 . S
C463 H468 0.930 . S
C464 C465 1.333 . S
C464 N466 1.317 . S
C464 H469 0.930 . S
C465 C464 1.333 . S
C465 N467 1.350 . S
C465 H491 0.931 . S
N466 Co462 2.148 . S
N466 C463 1.301 . S
N466 C464 1.317 . S
N467 C463 1.328 . S
N467 C465 1.350 . S
H468 C463 0.930 . S
H469 C464 0.930 . S
C470 O471 1.224 . S
C470 O489 1.247 . S
O471 C470 1.224 . S
N472 Co462 2.128 . S
N472 C473 1.355 . S
N472 C475 1.311 . S
C473 N472 1.355 . S
C473 C474 1.363 . S
C473 H485 0.929 . S
C474 C473 1.363 . S
C474 N476 1.375 . S
C474 H492 0.931 . S
C475 N472 1.311 . S
C475 N476 1.347 . S
C475 H486 0.929 . S
N476 C474 1.375 . S
N476 C475 1.347 . S
C477 C480 1.365 . S
C477 N482 1.328 . S
C477 H483 0.929 . S
C478 C479 1.362 . S
C478 C481 1.378 . S
C478 H493 0.929 . S
C479 C478 1.362 . S
C479 C480 1.366 . S
C480 C477 1.365 . S
C480 C479 1.366 . S
C480 H494 0.930 . S
C481 C478 1.378 . S
C481 N482 1.315 . S
C481 H484 0.930 . S
N482 Co462 2.194 . S
N482 C477 1.328 . S
N482 C481 1.315 . S
H483 C477 0.929 . S
H484 C481 0.930 . S
H485 C473 0.929 . S
H486 C475 0.929 . S
O487 Co462 2.351 . S
O487 C490 1.244 . S
O488 Co462 2.155 . S
O488 C490 1.240 . S
O489 Co462 2.096 . S
O489 C470 1.247 . S
C490 O487 1.244 . S
C490 O488 1.240 . S
H491 C465 0.931 . S
H492 C474 0.931 . S
H493 C478 0.929 . S
H494 C480 0.930 . S
Co495 N499 2.148 . S
Co495 N505 2.128 . S
Co495 N515 2.194 . S
Co495 O520 2.351 . S
Co495 O521 2.155 . S
Co495 O522 2.096 . S
C496 N499 1.301 . S
C496 N500 1.328 . S
C496 H501 0.930 . S
C497 C498 1.309 1_565 S
C497 N499 1.317 . S
C497 H502 0.925 1_565 S
C498 C497 1.309 1_545 S
C498 N500 1.305 1_545 S
C498 H524 0.992 . S
N499 Co495 2.148 . S
N499 C496 1.301 . S
N499 C497 1.317 . S
N500 C496 1.328 . S
N500 C498 1.305 1_565 S
H501 C496 0.930 . S
H502 C497 0.925 1_545 S
C503 O504 1.224 . S
C503 O522 1.247 . S
O504 C503 1.224 . S
N505 Co495 2.128 . S
N505 C506 1.355 . S
N505 C508 1.311 . S
C506 N505 1.355 . S
C506 C507 1.363 . S
C506 H518 0.929 . S
C507 C506 1.363 . S
C507 N509 1.375 . S
C507 H525 0.931 . S
C508 N505 1.311 . S
C508 N509 1.347 . S
C508 H519 0.929 . S
N509 C507 1.375 . S
N509 C508 1.347 . S
C510 C513 1.365 . S
C510 N515 1.328 . S
C510 H516 0.929 . S
C511 C512 1.362 . S
C511 C514 1.378 . S
C511 H526 0.929 . S
C512 C511 1.362 . S
C512 C513 1.366 . S
C513 C510 1.365 . S
C513 C512 1.366 . S
C513 H527 0.930 . S
C514 C511 1.378 . S
C514 N515 1.315 . S
C514 H517 0.930 . S
N515 Co495 2.194 . S
N515 C510 1.328 . S
N515 C514 1.315 . S
H516 C510 0.929 . S
H517 C514 0.930 . S
H518 C506 0.929 . S
H519 C508 0.929 . S
O520 Co495 2.351 . S
O520 C523 1.244 . S
O521 Co495 2.155 . S
O521 C523 1.240 . S
O522 Co495 2.096 . S
O522 C503 1.247 . S
C523 O520 1.244 . S
C523 O521 1.240 . S
H524 C498 0.992 . S
H525 C507 0.931 . S
H526 C511 0.929 . S
H527 C513 0.930 . S
Co528 N532 2.148 . S
Co528 N538 2.128 . S
Co528 N548 2.194 . S
Co528 O553 2.351 . S
Co528 O554 2.155 . S
Co528 O555 2.096 . S
C529 N532 1.301 . S
C529 N533 1.328 . S
C529 H534 0.930 . S
C530 C531 1.333 . S
C530 N532 1.317 . S
C530 H535 0.930 . S
C531 C530 1.333 . S
C531 N533 1.350 . S
C531 H557 0.931 . S
N532 Co528 2.148 . S
N532 C529 1.301 . S
N532 C530 1.317 . S
N533 C529 1.328 . S
N533 C531 1.350 . S
H534 C529 0.930 . S
H535 C530 0.930 . S
C536 O537 1.224 . S
C536 O555 1.247 . S
O537 C536 1.224 . S
N538 Co528 2.128 . S
N538 C539 1.355 . S
N538 C541 1.311 . S
C539 N538 1.355 . S
C539 C540 1.363 . S
C539 H551 0.929 . S
C540 C539 1.363 . S
C540 N542 1.375 . S
C540 H558 0.931 . S
C541 N538 1.311 . S
C541 N542 1.347 . S
C541 H552 0.929 . S
N542 C540 1.375 . S
N542 C541 1.347 . S
C543 C546 1.365 . S
C543 N548 1.328 . S
C543 H549 0.929 . S
C544 C545 1.362 . S
C544 C547 1.378 . S
C544 H559 0.929 . S
C545 C544 1.362 . S
C545 C546 1.366 . S
C546 C543 1.365 . S
C546 C545 1.366 . S
C546 H560 0.930 . S
C547 C544 1.378 . S
C547 N548 1.315 . S
C547 H550 0.930 . S
N548 Co528 2.194 . S
N548 C543 1.328 . S
N548 C547 1.315 . S
H549 C543 0.929 . S
H550 C547 0.930 . S
H551 C539 0.929 . S
H552 C541 0.929 . S
O553 Co528 2.351 . S
O553 C556 1.244 . S
O554 Co528 2.155 . S
O554 C556 1.240 . S
O555 Co528 2.096 . S
O555 C536 1.247 . S
C556 O553 1.244 . S
C556 O554 1.240 . S
H557 C531 0.931 . S
H558 C540 0.931 . S
H559 C544 0.929 . S
H560 C546 0.930 . S
Co561 N565 2.148 . S
Co561 N571 2.128 . S
Co561 N581 2.194 . S
Co561 O586 2.351 . S
Co561 O587 2.155 . S
Co561 O588 2.096 . S
C562 N565 1.301 . S
C562 N566 1.328 . S
C562 H567 0.930 . S
C563 C564 1.333 . S
C563 N565 1.317 . S
C563 H568 0.930 . S
C564 C563 1.333 . S
C564 N566 1.350 . S
C564 H590 0.931 . S
N565 Co561 2.148 . S
N565 C562 1.301 . S
N565 C563 1.317 . S
N566 C562 1.328 . S
N566 C564 1.350 . S
H567 C562 0.930 . S
H568 C563 0.930 . S
C569 O570 1.224 . S
C569 O588 1.247 . S
O570 C569 1.224 . S
N571 Co561 2.128 . S
N571 C572 1.355 . S
N571 C574 1.311 . S
C572 N571 1.355 . S
C572 C573 1.363 . S
C572 H584 0.929 . S
C573 C572 1.363 . S
C573 N575 1.375 . S
C573 H591 0.931 . S
C574 N571 1.311 . S
C574 N575 1.347 . S
C574 H585 0.929 . S
N575 C573 1.375 . S
N575 C574 1.347 . S
C576 C579 1.365 . S
C576 N581 1.328 . S
C576 H582 0.929 . S
C577 C578 1.362 . S
C577 C580 1.378 . S
C577 H592 0.929 . S
C578 C577 1.362 . S
C578 C579 1.366 . S
C579 C576 1.365 . S
C579 C578 1.366 . S
C579 H593 0.930 . S
C580 C577 1.378 . S
C580 N581 1.315 . S
C580 H583 0.930 . S
N581 Co561 2.194 . S
N581 C576 1.328 . S
N581 C580 1.315 . S
H582 C576 0.929 . S
H583 C580 0.930 . S
H584 C572 0.929 . S
H585 C574 0.929 . S
O586 Co561 2.351 . S
O586 C589 1.244 . S
O587 Co561 2.155 . S
O587 C589 1.240 . S
O588 Co561 2.096 . S
O588 C569 1.247 . S
C589 O586 1.244 . S
C589 O587 1.240 . S
H590 C564 0.931 . S
H591 C573 0.931 . S
H592 C577 0.929 . S
H593 C579 0.930 . S
Co594 N598 2.148 . S
Co594 N604 2.128 . S
Co594 N614 2.194 . S
Co594 O619 2.351 . S
Co594 O620 2.155 . S
Co594 O621 2.096 . S
C595 N598 1.301 . S
C595 N599 1.328 . S
C595 H600 0.930 . S
C596 C597 1.333 . S
C596 N598 1.317 . S
C596 H601 0.930 . S
C597 C596 1.333 . S
C597 N599 1.350 . S
C597 H623 0.931 . S
N598 Co594 2.148 . S
N598 C595 1.301 . S
N598 C596 1.317 . S
N599 C595 1.328 . S
N599 C597 1.350 . S
H600 C595 0.930 . S
H601 C596 0.930 . S
C602 O603 1.224 . S
C602 O621 1.247 . S
O603 C602 1.224 . S
N604 Co594 2.128 . S
N604 C605 1.355 . S
N604 C607 1.311 1_554 S
C605 N604 1.355 . S
C605 C606 1.363 1_554 S
C605 H617 0.929 . S
C606 C605 1.363 1_556 S
C606 N608 1.375 . S
C606 H624 0.931 . S
C607 N604 1.311 1_556 S
C607 N608 1.347 . S
C607 H618 0.929 . S
N608 C606 1.375 . S
N608 C607 1.347 . S
C609 C612 1.365 . S
C609 N614 1.328 . S
C609 H615 0.929 . S
C610 C611 1.362 . S
C610 C613 1.378 . S
C610 H625 0.929 . S
C611 C610 1.362 . S
C611 C612 1.366 . S
C612 C609 1.365 . S
C612 C611 1.366 . S
C612 H626 0.930 . S
C613 C610 1.378 . S
C613 N614 1.315 . S
C613 H616 0.930 . S
N614 Co594 2.194 . S
N614 C609 1.328 . S
N614 C613 1.315 . S
H615 C609 0.929 . S
H616 C613 0.930 . S
H617 C605 0.929 . S
H618 C607 0.929 . S
O619 Co594 2.351 . S
O619 C622 1.244 . S
O620 Co594 2.155 . S
O620 C622 1.240 . S
O621 Co594 2.096 . S
O621 C602 1.247 . S
C622 O619 1.244 . S
C622 O620 1.240 . S
H623 C597 0.931 . S
H624 C606 0.931 . S
H625 C610 0.929 . S
H626 C612 0.930 . S
Co627 N631 2.148 . S
Co627 N637 2.128 . S
Co627 N647 2.194 . S
Co627 O652 2.351 . S
Co627 O653 2.155 . S
Co627 O654 2.096 . S
C628 N631 1.301 . S
C628 N632 1.328 . S
C628 H633 0.930 . S
C629 C630 1.333 . S
C629 N631 1.317 . S
C629 H634 0.930 . S
C630 C629 1.333 . S
C630 N632 1.350 . S
C630 H656 0.931 . S
N631 Co627 2.148 . S
N631 C628 1.301 . S
N631 C629 1.317 . S
N632 C628 1.328 . S
N632 C630 1.350 . S
H633 C628 0.930 . S
H634 C629 0.930 . S
C635 O636 1.224 . S
C635 O654 1.247 . S
O636 C635 1.224 . S
N637 Co627 2.128 . S
N637 C638 1.355 . S
N637 C640 1.311 . S
C638 N637 1.355 . S
C638 C639 1.363 . S
C638 H650 0.929 . S
C639 C638 1.363 . S
C639 N641 1.375 . S
C639 H657 0.931 . S
C640 N637 1.311 . S
C640 N641 1.347 . S
C640 H651 0.929 . S
N641 C639 1.375 . S
N641 C640 1.347 . S
C642 C645 1.365 . S
C642 N647 1.328 . S
C642 H648 0.929 . S
C643 C644 1.362 . S
C643 C646 1.378 . S
C643 H658 0.929 . S
C644 C643 1.362 . S
C644 C645 1.366 . S
C645 C642 1.365 . S
C645 C644 1.366 . S
C645 H659 0.930 . S
C646 C643 1.378 . S
C646 N647 1.315 . S
C646 H649 0.930 . S
N647 Co627 2.194 . S
N647 C642 1.328 . S
N647 C646 1.315 . S
H648 C642 0.929 . S
H649 C646 0.930 . S
H650 C638 0.929 . S
H651 C640 0.929 . S
O652 Co627 2.351 . S
O652 C655 1.244 . S
O653 Co627 2.155 . S
O653 C655 1.240 . S
O654 Co627 2.096 . S
O654 C635 1.247 . S
C655 O652 1.244 . S
C655 O653 1.240 . S
H656 C630 0.931 . S
H657 C639 0.931 . S
H658 C643 0.929 . S
H659 C645 0.930 . S
Co660 N664 2.148 . S
Co660 N670 2.128 . S
Co660 N680 2.194 . S
Co660 O685 2.351 . S
Co660 O686 2.155 . S
Co660 O687 2.096 . S
C661 N664 1.301 . S
C661 N665 1.328 . S
C661 H666 0.930 . S
C662 C663 1.333 . S
C662 N664 1.317 . S
C662 H667 0.930 . S
C663 C662 1.333 . S
C663 N665 1.350 . S
C663 H689 0.931 . S
N664 Co660 2.148 . S
N664 C661 1.301 . S
N664 C662 1.317 . S
N665 C661 1.328 . S
N665 C663 1.350 . S
H666 C661 0.930 . S
H667 C662 0.930 . S
C668 O669 1.224 . S
C668 O687 1.247 . S
O669 C668 1.224 . S
N670 Co660 2.128 . S
N670 C671 1.355 . S
N670 C673 1.311 . S
C671 N670 1.355 . S
C671 C672 1.363 . S
C671 H683 0.929 . S
C672 C671 1.363 . S
C672 N674 1.375 . S
C672 H690 0.931 . S
C673 N670 1.311 . S
C673 N674 1.347 . S
C673 H684 0.929 . S
N674 C672 1.375 . S
N674 C673 1.347 . S
C675 C678 1.365 . S
C675 N680 1.328 . S
C675 H681 0.929 . S
C676 C677 1.362 . S
C676 C679 1.378 . S
C676 H691 0.929 . S
C677 C676 1.362 . S
C677 C678 1.366 . S
C678 C675 1.365 . S
C678 C677 1.366 . S
C678 H692 0.930 . S
C679 C676 1.378 . S
C679 N680 1.315 . S
C679 H682 0.930 . S
N680 Co660 2.194 . S
N680 C675 1.328 . S
N680 C679 1.315 . S
H681 C675 0.929 . S
H682 C679 0.930 . S
H683 C671 0.929 . S
H684 C673 0.929 . S
O685 Co660 2.351 . S
O685 C688 1.244 . S
O686 Co660 2.155 . S
O686 C688 1.240 . S
O687 Co660 2.096 . S
O687 C668 1.247 . S
C688 O685 1.244 . S
C688 O686 1.240 . S
H689 C663 0.931 . S
H690 C672 0.931 . S
H691 C676 0.929 . S
H692 C678 0.930 . S
Co693 N697 2.148 . S
Co693 N703 2.128 . S
Co693 N713 2.194 . S
Co693 O718 2.351 . S
Co693 O719 2.155 . S
Co693 O720 2.096 . S
C694 N697 1.301 . S
C694 N698 1.328 . S
C694 H699 0.930 . S
C695 C696 1.333 . S
C695 N697 1.317 . S
C695 H700 0.930 . S
C696 C695 1.333 . S
C696 N698 1.350 . S
C696 H722 0.931 . S
N697 Co693 2.148 . S
N697 C694 1.301 . S
N697 C695 1.317 . S
N698 C694 1.328 . S
N698 C696 1.350 . S
H699 C694 0.930 . S
H700 C695 0.930 . S
C701 O702 1.224 . S
C701 O720 1.247 . S
O702 C701 1.224 . S
N703 Co693 2.128 . S
N703 C704 1.355 . S
N703 C706 1.311 . S
C704 N703 1.355 . S
C704 C705 1.363 . S
C704 H716 0.929 . S
C705 C704 1.363 . S
C705 N707 1.375 . S
C705 H723 0.931 . S
C706 N703 1.311 . S
C706 N707 1.347 . S
C706 H717 0.929 . S
N707 C705 1.375 . S
N707 C706 1.347 . S
C708 C711 1.365 . S
C708 N713 1.328 . S
C708 H714 0.929 . S
C709 C710 1.362 . S
C709 C712 1.378 . S
C709 H724 0.929 . S
C710 C709 1.362 . S
C710 C711 1.366 . S
C711 C708 1.365 . S
C711 C710 1.366 . S
C711 H725 0.930 . S
C712 C709 1.378 . S
C712 N713 1.315 . S
C712 H715 0.930 . S
N713 Co693 2.194 . S
N713 C708 1.328 . S
N713 C712 1.315 . S
H714 C708 0.929 . S
H715 C712 0.930 . S
H716 C704 0.929 . S
H717 C706 0.929 . S
O718 Co693 2.351 . S
O718 C721 1.244 . S
O719 Co693 2.155 . S
O719 C721 1.240 . S
O720 Co693 2.096 . S
O720 C701 1.247 . S
C721 O718 1.244 . S
C721 O719 1.240 . S
H722 C696 0.931 . S
H723 C705 0.931 . S
H724 C709 0.929 . S
H725 C711 0.930 . S
Co726 N730 2.148 . S
Co726 N736 2.128 . S
Co726 N746 2.194 . S
Co726 O751 2.351 . S
Co726 O752 2.155 . S
Co726 O753 2.096 . S
C727 N730 1.301 . S
C727 N731 1.328 . S
C727 H732 0.930 . S
C728 C729 1.333 . S
C728 N730 1.317 . S
C728 H733 0.930 . S
C729 C728 1.333 . S
C729 N731 1.350 . S
C729 H755 0.931 . S
N730 Co726 2.148 . S
N730 C727 1.301 . S
N730 C728 1.317 . S
N731 C727 1.328 . S
N731 C729 1.350 . S
H732 C727 0.930 . S
H733 C728 0.930 . S
C734 O735 1.224 . S
C734 O753 1.247 . S
O735 C734 1.224 . S
N736 Co726 2.128 . S
N736 C737 1.355 . S
N736 C739 1.311 1_556 S
C737 N736 1.355 . S
C737 C738 1.363 1_556 S
C737 H749 0.929 . S
C738 C737 1.363 1_554 S
C738 N740 1.375 . S
C738 H756 0.931 . S
C739 N736 1.311 1_554 S
C739 N740 1.347 . S
C739 H750 0.929 . S
N740 C738 1.375 . S
N740 C739 1.347 . S
C741 C744 1.365 . S
C741 N746 1.328 . S
C741 H747 0.929 . S
C742 C743 1.362 . S
C742 C745 1.378 . S
C742 H757 0.929 . S
C743 C742 1.362 . S
C743 C744 1.366 . S
C744 C741 1.365 . S
C744 C743 1.366 . S
C744 H758 0.930 . S
C745 C742 1.378 . S
C745 N746 1.315 . S
C745 H748 0.930 . S
N746 Co726 2.194 . S
N746 C741 1.328 . S
N746 C745 1.315 . S
H747 C741 0.929 . S
H748 C745 0.930 . S
H749 C737 0.929 . S
H750 C739 0.929 . S
O751 Co726 2.351 . S
O751 C754 1.244 . S
O752 Co726 2.155 . S
O752 C754 1.240 . S
O753 Co726 2.096 . S
O753 C734 1.247 . S
C754 O751 1.244 . S
C754 O752 1.240 . S
H755 C729 0.931 . S
H756 C738 0.931 . S
H757 C742 0.929 . S
H758 C744 0.930 . S
Co759 N763 2.148 . S
Co759 N769 2.128 . S
Co759 N779 2.194 . S
Co759 O784 2.351 . S
Co759 O785 2.155 . S
Co759 O786 2.096 . S
C760 N763 1.301 . S
C760 N764 1.328 . S
C760 H765 0.930 . S
C761 C762 1.333 . S
C761 N763 1.317 . S
C761 H766 0.930 . S
C762 C761 1.333 . S
C762 N764 1.350 . S
C762 H788 0.931 . S
N763 Co759 2.148 . S
N763 C760 1.301 . S
N763 C761 1.317 . S
N764 C760 1.328 . S
N764 C762 1.350 . S
H765 C760 0.930 . S
H766 C761 0.930 . S
C767 O768 1.224 . S
C767 O786 1.247 . S
O768 C767 1.224 . S
N769 Co759 2.128 . S
N769 C770 1.355 . S
N769 C772 1.311 . S
C770 N769 1.355 . S
C770 C771 1.363 . S
C770 H782 0.929 . S
C771 C770 1.363 . S
C771 N773 1.375 . S
C771 H789 0.931 . S
C772 N769 1.311 . S
C772 N773 1.347 . S
C772 H783 0.929 . S
N773 C771 1.375 . S
N773 C772 1.347 . S
C774 C777 1.365 . S
C774 N779 1.328 . S
C774 H780 0.929 . S
C775 C776 1.362 . S
C775 C778 1.378 . S
C775 H790 0.929 . S
C776 C775 1.362 . S
C776 C777 1.366 . S
C777 C774 1.365 . S
C777 C776 1.366 . S
C777 H791 0.930 . S
C778 C775 1.378 . S
C778 N779 1.315 . S
C778 H781 0.930 . S
N779 Co759 2.194 . S
N779 C774 1.328 . S
N779 C778 1.315 . S
H780 C774 0.929 . S
H781 C778 0.930 . S
H782 C770 0.929 . S
H783 C772 0.929 . S
O784 Co759 2.351 . S
O784 C787 1.244 . S
O785 Co759 2.155 . S
O785 C787 1.240 . S
O786 Co759 2.096 . S
O786 C767 1.247 . S
C787 O784 1.244 . S
C787 O785 1.240 . S
H788 C762 0.931 . S
H789 C771 0.931 . S
H790 C775 0.929 . S
H791 C777 0.930 . S
Co792 N796 2.148 . S
Co792 N802 2.128 . S
Co792 N812 2.194 . S
Co792 O817 2.351 . S
Co792 O818 2.155 . S
Co792 O819 2.096 . S
C793 N796 1.301 . S
C793 N797 1.328 . S
C793 H798 0.930 . S
C794 C795 1.333 . S
C794 N796 1.317 . S
C794 H799 0.930 . S
C795 C794 1.333 . S
C795 N797 1.350 . S
C795 H821 0.931 . S
N796 Co792 2.148 . S
N796 C793 1.301 . S
N796 C794 1.317 . S
N797 C793 1.328 . S
N797 C795 1.350 . S
H798 C793 0.930 . S
H799 C794 0.930 . S
C800 O801 1.224 . S
C800 O819 1.247 . S
O801 C800 1.224 . S
N802 Co792 2.128 . S
N802 C803 1.355 . S
N802 C805 1.311 . S
C803 N802 1.355 . S
C803 C804 1.363 . S
C803 H815 0.929 . S
C804 C803 1.363 . S
C804 N806 1.375 . S
C804 H822 0.931 . S
C805 N802 1.311 . S
C805 N806 1.347 . S
C805 H816 0.929 . S
N806 C804 1.375 . S
N806 C805 1.347 . S
C807 C810 1.365 . S
C807 N812 1.328 . S
C807 H813 0.929 . S
C808 C809 1.362 . S
C808 C811 1.378 . S
C808 H823 0.929 . S
C809 C808 1.362 . S
C809 C810 1.366 . S
C810 C807 1.365 . S
C810 C809 1.366 . S
C810 H824 0.930 . S
C811 C808 1.378 . S
C811 N812 1.315 . S
C811 H814 0.930 . S
N812 Co792 2.194 . S
N812 C807 1.328 . S
N812 C811 1.315 . S
H813 C807 0.929 . S
H814 C811 0.930 . S
H815 C803 0.929 . S
H816 C805 0.929 . S
O817 Co792 2.351 . S
O817 C820 1.244 . S
O818 Co792 2.155 . S
O818 C820 1.240 . S
O819 Co792 2.096 . S
O819 C800 1.247 . S
C820 O817 1.244 . S
C820 O818 1.240 . S
H821 C795 0.931 . S
H822 C804 0.931 . S
H823 C808 0.929 . S
H824 C810 0.930 . S
Co825 N829 2.148 . S
Co825 N835 2.128 . S
Co825 N845 2.194 . S
Co825 O850 2.351 . S
Co825 O851 2.155 . S
Co825 O852 2.096 . S
C826 N829 1.301 . S
C826 N830 1.328 . S
C826 H831 0.930 . S
C827 C828 1.333 . S
C827 N829 1.317 . S
C827 H832 0.930 . S
C828 C827 1.333 . S
C828 N830 1.350 . S
C828 H854 0.931 . S
N829 Co825 2.148 . S
N829 C826 1.301 . S
N829 C827 1.317 . S
N830 C826 1.328 . S
N830 C828 1.350 . S
H831 C826 0.930 . S
H832 C827 0.930 . S
C833 O834 1.224 . S
C833 O852 1.247 . S
O834 C833 1.224 . S
N835 Co825 2.128 . S
N835 C836 1.355 . S
N835 C838 1.311 . S
C836 N835 1.355 . S
C836 C837 1.363 . S
C836 H848 0.929 . S
C837 C836 1.363 . S
C837 N839 1.375 . S
C837 H855 0.931 . S
C838 N835 1.311 . S
C838 N839 1.347 . S
C838 H849 0.929 . S
N839 C837 1.375 . S
N839 C838 1.347 . S
C840 C843 1.365 . S
C840 N845 1.328 . S
C840 H846 0.929 . S
C841 C842 1.362 . S
C841 C844 1.378 . S
C841 H856 0.929 . S
C842 C841 1.362 . S
C842 C843 1.366 . S
C843 C840 1.365 . S
C843 C842 1.366 . S
C843 H857 0.930 . S
C844 C841 1.378 . S
C844 N845 1.315 . S
C844 H847 0.930 . S
N845 Co825 2.194 . S
N845 C840 1.328 . S
N845 C844 1.315 . S
H846 C840 0.929 . S
H847 C844 0.930 . S
H848 C836 0.929 . S
H849 C838 0.929 . S
O850 Co825 2.351 . S
O850 C853 1.244 . S
O851 Co825 2.155 . S
O851 C853 1.240 . S
O852 Co825 2.096 . S
O852 C833 1.247 . S
C853 O850 1.244 . S
C853 O851 1.240 . S
H854 C828 0.931 . S
H855 C837 0.931 . S
H856 C841 0.929 . S
H857 C843 0.930 . S
Co858 N862 2.148 . S
Co858 N868 2.128 . S
Co858 N878 2.194 . S
Co858 O883 2.351 . S
Co858 O884 2.155 . S
Co858 O885 2.096 . S
C859 N862 1.301 . S
C859 N863 1.328 . S
C859 H864 0.930 . S
C860 C861 1.333 . S
C860 N862 1.317 . S
C860 H865 0.930 . S
C861 C860 1.333 . S
C861 N863 1.350 . S
C861 H887 0.931 . S
N862 Co858 2.148 . S
N862 C859 1.301 . S
N862 C860 1.317 . S
N863 C859 1.328 . S
N863 C861 1.350 . S
H864 C859 0.930 . S
H865 C860 0.930 . S
C866 O867 1.224 . S
C866 O885 1.247 . S
O867 C866 1.224 . S
N868 Co858 2.128 . S
N868 C869 1.355 . S
N868 C871 1.311 1_556 S
C869 N868 1.355 . S
C869 C870 1.363 1_556 S
C869 H881 0.929 . S
C870 C869 1.363 1_554 S
C870 N872 1.375 . S
C870 H888 0.931 . S
C871 N868 1.311 1_554 S
C871 N872 1.347 . S
C871 H882 0.929 . S
N872 C870 1.375 . S
N872 C871 1.347 . S
C873 C876 1.365 . S
C873 N878 1.328 . S
C873 H879 0.929 . S
C874 C875 1.362 . S
C874 C877 1.378 . S
C874 H889 0.929 . S
C875 C874 1.362 . S
C875 C876 1.366 . S
C876 C873 1.365 . S
C876 C875 1.366 . S
C876 H890 0.930 . S
C877 C874 1.378 . S
C877 N878 1.315 . S
C877 H880 0.930 . S
N878 Co858 2.194 . S
N878 C873 1.328 . S
N878 C877 1.315 . S
H879 C873 0.929 . S
H880 C877 0.930 . S
H881 C869 0.929 . S
H882 C871 0.929 . S
O883 Co858 2.351 . S
O883 C886 1.244 . S
O884 Co858 2.155 . S
O884 C886 1.240 . S
O885 Co858 2.096 . S
O885 C866 1.247 . S
C886 O883 1.244 . S
C886 O884 1.240 . S
H887 C861 0.931 . S
H888 C870 0.931 . S
H889 C874 0.929 . S
H890 C876 0.930 . S
Co891 N895 2.148 . S
Co891 N901 2.128 . S
Co891 N911 2.194 . S
Co891 O916 2.351 . S
Co891 O917 2.155 . S
Co891 O918 2.096 . S
C892 N895 1.301 . S
C892 N896 1.328 . S
C892 H897 0.930 . S
C893 C894 1.333 . S
C893 N895 1.317 . S
C893 H898 0.930 . S
C894 C893 1.333 . S
C894 N896 1.350 . S
C894 H920 0.931 . S
N895 Co891 2.148 . S
N895 C892 1.301 . S
N895 C893 1.317 . S
N896 C892 1.328 . S
N896 C894 1.350 . S
H897 C892 0.930 . S
H898 C893 0.930 . S
C899 O900 1.224 . S
C899 O918 1.247 . S
O900 C899 1.224 . S
N901 Co891 2.128 . S
N901 C902 1.355 . S
N901 C904 1.311 . S
C902 N901 1.355 . S
C902 C903 1.363 . S
C902 H914 0.929 . S
C903 C902 1.363 . S
C903 N905 1.375 . S
C903 H921 0.931 . S
C904 N901 1.311 . S
C904 N905 1.347 . S
C904 H915 0.929 . S
N905 C903 1.375 . S
N905 C904 1.347 . S
C906 C909 1.365 . S
C906 N911 1.328 . S
C906 H912 0.929 . S
C907 C908 1.362 . S
C907 C910 1.378 . S
C907 H922 0.929 . S
C908 C907 1.362 . S
C908 C909 1.366 . S
C909 C906 1.365 . S
C909 C908 1.366 . S
C909 H923 0.930 . S
C910 C907 1.378 . S
C910 N911 1.315 . S
C910 H913 0.930 . S
N911 Co891 2.194 . S
N911 C906 1.328 . S
N911 C910 1.315 . S
H912 C906 0.929 . S
H913 C910 0.930 . S
H914 C902 0.929 . S
H915 C904 0.929 . S
O916 Co891 2.351 . S
O916 C919 1.244 . S
O917 Co891 2.155 . S
O917 C919 1.240 . S
O918 Co891 2.096 . S
O918 C899 1.247 . S
C919 O916 1.244 . S
C919 O917 1.240 . S
H920 C894 0.931 . S
H921 C903 0.931 . S
H922 C907 0.929 . S
H923 C909 0.930 . S
Co924 N928 2.148 . S
Co924 N934 2.128 . S
Co924 N944 2.194 . S
Co924 O949 2.351 . S
Co924 O950 2.155 . S
Co924 O951 2.096 . S
C925 N928 1.301 . S
C925 N929 1.328 . S
C925 H930 0.930 . S
C926 C927 1.333 . S
C926 N928 1.317 . S
C926 H931 0.930 . S
C927 C926 1.333 . S
C927 N929 1.350 . S
C927 H953 0.931 . S
N928 Co924 2.148 . S
N928 C925 1.301 . S
N928 C926 1.317 . S
N929 C925 1.328 . S
N929 C927 1.350 . S
H930 C925 0.930 . S
H931 C926 0.930 . S
C932 O933 1.224 . S
C932 O951 1.247 . S
O933 C932 1.224 . S
N934 Co924 2.128 . S
N934 C935 1.355 . S
N934 C937 1.311 . S
C935 N934 1.355 . S
C935 C936 1.363 . S
C935 H947 0.929 . S
C936 C935 1.363 . S
C936 N938 1.375 . S
C936 H954 0.931 . S
C937 N934 1.311 . S
C937 N938 1.347 . S
C937 H948 0.929 . S
N938 C936 1.375 . S
N938 C937 1.347 . S
C939 C942 1.365 . S
C939 N944 1.328 . S
C939 H945 0.929 . S
C940 C941 1.362 . S
C940 C943 1.378 . S
C940 H955 0.929 . S
C941 C940 1.362 . S
C941 C942 1.366 . S
C942 C939 1.365 . S
C942 C941 1.366 . S
C942 H956 0.930 . S
C943 C940 1.378 . S
C943 N944 1.315 . S
C943 H946 0.930 . S
N944 Co924 2.194 . S
N944 C939 1.328 . S
N944 C943 1.315 . S
H945 C939 0.929 . S
H946 C943 0.930 . S
H947 C935 0.929 . S
H948 C937 0.929 . S
O949 Co924 2.351 . S
O949 C952 1.244 . S
O950 Co924 2.155 . S
O950 C952 1.240 . S
O951 Co924 2.096 . S
O951 C932 1.247 . S
C952 O949 1.244 . S
C952 O950 1.240 . S
H953 C927 0.931 . S
H954 C936 0.931 . S
H955 C940 0.929 . S
H956 C942 0.930 . S
Co957 N961 2.148 . S
Co957 N967 2.128 . S
Co957 N977 2.194 . S
Co957 O982 2.351 . S
Co957 O983 2.155 . S
Co957 O984 2.096 . S
C958 N961 1.301 . S
C958 N962 1.328 . S
C958 H963 0.930 . S
C959 C960 1.333 . S
C959 N961 1.317 . S
C959 H964 0.930 . S
C960 C959 1.333 . S
C960 N962 1.350 . S
C960 H986 0.931 . S
N961 Co957 2.148 . S
N961 C958 1.301 . S
N961 C959 1.317 . S
N962 C958 1.328 . S
N962 C960 1.350 . S
H963 C958 0.930 . S
H964 C959 0.930 . S
C965 O966 1.224 . S
C965 O984 1.247 . S
O966 C965 1.224 . S
N967 Co957 2.128 . S
N967 C968 1.355 . S
N967 C970 1.311 . S
C968 N967 1.355 . S
C968 C969 1.363 . S
C968 H980 0.929 . S
C969 C968 1.363 . S
C969 N971 1.375 . S
C969 H987 0.931 . S
C970 N967 1.311 . S
C970 N971 1.347 . S
C970 H981 0.929 . S
N971 C969 1.375 . S
N971 C970 1.347 . S
C972 C975 1.365 . S
C972 N977 1.328 . S
C972 H978 0.929 . S
C973 C974 1.362 . S
C973 C976 1.378 . S
C973 H988 0.929 . S
C974 C973 1.362 . S
C974 C975 1.366 . S
C975 C972 1.365 . S
C975 C974 1.366 . S
C975 H989 0.930 . S
C976 C973 1.378 . S
C976 N977 1.315 . S
C976 H979 0.930 . S
N977 Co957 2.194 . S
N977 C972 1.328 . S
N977 C976 1.315 . S
H978 C972 0.929 . S
H979 C976 0.930 . S
H980 C968 0.929 . S
H981 C970 0.929 . S
O982 Co957 2.351 . S
O982 C985 1.244 . S
O983 Co957 2.155 . S
O983 C985 1.240 . S
O984 Co957 2.096 . S
O984 C965 1.247 . S
C985 O982 1.244 . S
C985 O983 1.240 . S
H986 C960 0.931 . S
H987 C969 0.931 . S
H988 C973 0.929 . S
H989 C975 0.930 . S
Co990 N994 2.148 . S
Co990 N1000 2.128 . S
Co990 N1010 2.194 . S
Co990 O1015 2.351 . S
Co990 O1016 2.155 . S
Co990 O1017 2.096 . S
C991 N994 1.301 . S
C991 N995 1.328 . S
C991 H996 0.930 . S
C992 C993 1.333 . S
C992 N994 1.317 . S
C992 H997 0.930 . S
C993 C992 1.333 . S
C993 N995 1.350 . S
C993 H1019 0.931 . S
N994 Co990 2.148 . S
N994 C991 1.301 . S
N994 C992 1.317 . S
N995 C991 1.328 . S
N995 C993 1.350 . S
H996 C991 0.930 . S
H997 C992 0.930 . S
C998 O999 1.224 . S
C998 O1017 1.247 . S
O999 C998 1.224 . S
N1000 Co990 2.128 . S
N1000 C1001 1.355 . S
N1000 C1003 1.311 1_554 S
C1001 N1000 1.355 . S
C1001 C1002 1.363 1_554 S
C1001 H1013 0.929 . S
C1002 C1001 1.363 1_556 S
C1002 N1004 1.375 . S
C1002 H1020 0.931 . S
C1003 N1000 1.311 1_556 S
C1003 N1004 1.347 . S
C1003 H1014 0.929 . S
N1004 C1002 1.375 . S
N1004 C1003 1.347 . S
C1005 C1008 1.365 . S
C1005 N1010 1.328 . S
C1005 H1011 0.929 . S
C1006 C1007 1.362 . S
C1006 C1009 1.378 . S
C1006 H1021 0.929 . S
C1007 C1006 1.362 . S
C1007 C1008 1.366 . S
C1008 C1005 1.365 . S
C1008 C1007 1.366 . S
C1008 H1022 0.930 . S
C1009 C1006 1.378 . S
C1009 N1010 1.315 . S
C1009 H1012 0.930 . S
N1010 Co990 2.194 . S
N1010 C1005 1.328 . S
N1010 C1009 1.315 . S
H1011 C1005 0.929 . S
H1012 C1009 0.930 . S
H1013 C1001 0.929 . S
H1014 C1003 0.929 . S
O1015 Co990 2.351 . S
O1015 C1018 1.244 . S
O1016 Co990 2.155 . S
O1016 C1018 1.240 . S
O1017 Co990 2.096 . S
O1017 C998 1.247 . S
C1018 O1015 1.244 . S
C1018 O1016 1.240 . S
H1019 C993 0.931 . S
H1020 C1002 0.931 . S
H1021 C1006 0.929 . S
H1022 C1008 0.930 . S
Co1023 N1027 2.148 . S
Co1023 N1033 2.128 . S
Co1023 N1043 2.194 . S
Co1023 O1048 2.351 . S
Co1023 O1049 2.155 . S
Co1023 O1050 2.096 . S
C1024 N1027 1.301 . S
C1024 N1028 1.328 . S
C1024 H1029 0.930 . S
C1025 C1026 1.333 . S
C1025 N1027 1.317 . S
C1025 H1030 0.930 . S
C1026 C1025 1.333 . S
C1026 N1028 1.350 . S
C1026 H1052 0.931 . S
N1027 Co1023 2.148 . S
N1027 C1024 1.301 . S
N1027 C1025 1.317 . S
N1028 C1024 1.328 . S
N1028 C1026 1.350 . S
H1029 C1024 0.930 . S
H1030 C1025 0.930 . S
C1031 O1032 1.224 . S
C1031 O1050 1.247 . S
O1032 C1031 1.224 . S
N1033 Co1023 2.128 . S
N1033 C1034 1.355 . S
N1033 C1036 1.311 . S
C1034 N1033 1.355 . S
C1034 C1035 1.363 . S
C1034 H1046 0.929 . S
C1035 C1034 1.363 . S
C1035 N1037 1.375 . S
C1035 H1053 0.931 . S
C1036 N1033 1.311 . S
C1036 N1037 1.347 . S
C1036 H1047 0.929 . S
N1037 C1035 1.375 . S
N1037 C1036 1.347 . S
C1038 C1041 1.365 . S
C1038 N1043 1.328 . S
C1038 H1044 0.929 . S
C1039 C1040 1.362 . S
C1039 C1042 1.378 . S
C1039 H1054 0.929 . S
C1040 C1039 1.362 . S
C1040 C1041 1.366 . S
C1041 C1038 1.365 . S
C1041 C1040 1.366 . S
C1041 H1055 0.930 . S
C1042 C1039 1.378 . S
C1042 N1043 1.315 . S
C1042 H1045 0.930 . S
N1043 Co1023 2.194 . S
N1043 C1038 1.328 . S
N1043 C1042 1.315 . S
H1044 C1038 0.929 . S
H1045 C1042 0.930 . S
H1046 C1034 0.929 . S
H1047 C1036 0.929 . S
O1048 Co1023 2.351 . S
O1048 C1051 1.244 . S
O1049 Co1023 2.155 . S
O1049 C1051 1.240 . S
O1050 Co1023 2.096 . S
O1050 C1031 1.247 . S
C1051 O1048 1.244 . S
C1051 O1049 1.240 . S
H1052 C1026 0.931 . S
H1053 C1035 0.931 . S
H1054 C1039 0.929 . S
H1055 C1041 0.930 . S
H1056 C1062 0.930 1_565 S
H1057 C1066 0.930 . S
H1058 C1071 0.929 . S
H1059 C1069 0.929 . S
H1060 C1064 0.929 . S
H1061 C1070 0.929 . S
C1062 H1056 0.930 1_545 S
C1062 C1063 1.367 . S
C1062 C1070 1.378 . S
C1063 C1062 1.367 . S
C1063 C1071 1.433 . S
C1064 H1060 0.929 . S
C1064 C1066 1.378 . S
C1064 C1068 1.350 . S
C1065 C1068 1.463 . S
C1065 C1070 1.350 . S
C1065 N1073 1.427 . S
C1066 H1057 0.930 . S
C1066 C1064 1.378 . S
C1066 C1067 1.367 . S
C1067 C1066 1.367 . S
C1067 C1069 1.433 . S
C1068 C1064 1.350 . S
C1068 C1065 1.463 . S
C1068 N1072 1.427 . S
C1069 H1059 0.929 . S
C1069 C1067 1.433 . S
C1069 N1072 1.384 . S
C1070 H1061 0.929 . S
C1070 C1062 1.378 . S
C1070 C1065 1.350 . S
C1071 H1058 0.929 . S
C1071 C1063 1.433 . S
C1071 N1073 1.384 . S
N1072 C1068 1.427 . S
N1072 C1069 1.384 . S
N1073 C1065 1.427 . S
N1073 C1071 1.384 . S
H1074 C1080 0.930 . S
H1075 C1084 0.930 . S
H1076 C1089 0.929 . S
H1077 C1087 0.929 . S
H1078 C1082 0.929 . S
H1079 C1088 0.929 . S
C1080 H1074 0.930 . S
C1080 C1081 1.367 . S
C1080 C1088 1.378 . S
C1081 C1080 1.367 . S
C1081 C1089 1.433 . S
C1082 H1078 0.929 . S
C1082 C1084 1.378 . S
C1082 C1086 1.350 . S
C1083 C1086 1.463 . S
C1083 C1088 1.350 . S
C1083 N1091 1.427 . S
C1084 H1075 0.930 . S
C1084 C1082 1.378 . S
C1084 C1085 1.367 . S
C1085 C1084 1.367 . S
C1085 C1087 1.433 . S
C1086 C1082 1.350 . S
C1086 C1083 1.463 . S
C1086 N1090 1.427 . S
C1087 H1077 0.929 . S
C1087 C1085 1.433 . S
C1087 N1090 1.384 . S
C1088 H1079 0.929 . S
C1088 C1080 1.378 . S
C1088 C1083 1.350 . S
C1089 H1076 0.929 . S
C1089 C1081 1.433 . S
C1089 N1091 1.384 . S
N1090 C1086 1.427 . S
N1090 C1087 1.384 . S
N1091 C1083 1.427 . S
N1091 C1089 1.384 . S
H1092 C1098 0.930 . S
H1093 C1102 0.930 . S
H1094 C1107 0.929 . S
H1095 C1105 0.929 1_545 S
H1096 C1100 0.929 . S
H1097 C1106 0.929 . S
C1098 H1092 0.930 . S
C1098 C1099 1.367 . S
C1098 C1106 1.378 . S
C1099 C1098 1.367 . S
C1099 C1107 1.433 . S
C1100 H1096 0.929 . S
C1100 C1102 1.378 . S
C1100 C1104 1.350 . S
C1101 C1104 1.463 . S
C1101 C1106 1.350 . S
C1101 N1109 1.427 . S
C1102 H1093 0.930 . S
C1102 C1100 1.378 . S
C1102 C1103 1.367 . S
C1103 C1102 1.367 . S
C1103 C1105 1.433 . S
C1104 C1100 1.350 . S
C1104 C1101 1.463 . S
C1104 N1108 1.427 . S
C1105 H1095 0.929 1_565 S
C1105 C1103 1.433 . S
C1105 N1108 1.384 . S
C1106 H1097 0.929 . S
C1106 C1098 1.378 . S
C1106 C1101 1.350 . S
C1107 H1094 0.929 . S
C1107 C1099 1.433 . S
C1107 N1109 1.384 . S
N1108 C1104 1.427 . S
N1108 C1105 1.384 . S
N1109 C1101 1.427 . S
N1109 C1107 1.384 . S
H1110 C1116 0.930 . S
H1111 C1120 0.930 . S
H1112 C1125 0.929 . S
H1113 C1123 0.929 . S
H1114 C1118 0.929 . S
H1115 C1124 0.929 . S
C1116 H1110 0.930 . S
C1116 C1117 1.367 . S
C1116 C1124 1.378 . S
C1117 C1116 1.367 . S
C1117 C1125 1.433 . S
C1118 H1114 0.929 . S
C1118 C1120 1.378 . S
C1118 C1122 1.350 . S
C1119 C1122 1.463 . S
C1119 C1124 1.350 . S
C1119 N1127 1.427 . S
C1120 H1111 0.930 . S
C1120 C1118 1.378 . S
C1120 C1121 1.367 . S
C1121 C1120 1.367 . S
C1121 C1123 1.433 . S
C1122 C1118 1.350 . S
C1122 C1119 1.463 . S
C1122 N1126 1.427 . S
C1123 H1113 0.929 . S
C1123 C1121 1.433 . S
C1123 N1126 1.384 . S
C1124 H1115 0.929 . S
C1124 C1116 1.378 . S
C1124 C1119 1.350 . S
C1125 H1112 0.929 . S
C1125 C1117 1.433 . S
C1125 N1127 1.384 . S
N1126 C1122 1.427 . S
N1126 C1123 1.384 . S
N1127 C1119 1.427 . S
N1127 C1125 1.384 . S
H1128 C1134 0.930 . S
H1129 C1138 0.930 . S
H1130 C1143 0.929 . S
H1131 C1141 0.929 1_545 S
H1132 C1136 0.929 . S
H1133 C1142 0.929 . S
C1134 H1128 0.930 . S
C1134 C1135 1.367 . S
C1134 C1142 1.378 . S
C1135 C1134 1.367 . S
C1135 C1143 1.433 . S
C1136 H1132 0.929 . S
C1136 C1138 1.378 . S
C1136 C1140 1.350 . S
C1137 C1140 1.463 . S
C1137 C1142 1.350 . S
C1137 N1145 1.427 . S
C1138 H1129 0.930 . S
C1138 C1136 1.378 . S
C1138 C1139 1.367 . S
C1139 C1138 1.367 . S
C1139 C1141 1.433 . S
C1140 C1136 1.350 . S
C1140 C1137 1.463 . S
C1140 N1144 1.427 . S
C1141 H1131 0.929 1_565 S
C1141 C1139 1.433 . S
C1141 N1144 1.384 . S
C1142 H1133 0.929 . S
C1142 C1134 1.378 . S
C1142 C1137 1.350 . S
C1143 H1130 0.929 . S
C1143 C1135 1.433 . S
C1143 N1145 1.384 . S
N1144 C1140 1.427 . S
N1144 C1141 1.384 . S
N1145 C1137 1.427 . S
N1145 C1143 1.384 . S
H1146 C1152 0.930 . S
H1147 C1156 0.930 . S
H1148 C1161 0.929 . S
H1149 C1159 0.929 . S
H1150 C1154 0.929 . S
H1151 C1160 0.929 . S
C1152 H1146 0.930 . S
C1152 C1153 1.367 . S
C1152 C1160 1.378 . S
C1153 C1152 1.367 . S
C1153 C1161 1.433 1_554 S
C1154 H1150 0.929 . S
C1154 C1156 1.378 . S
C1154 C1158 1.350 . S
C1155 C1158 1.463 . S
C1155 C1160 1.350 . S
C1155 N1163 1.427 . S
C1156 H1147 0.930 . S
C1156 C1154 1.378 . S
C1156 C1157 1.367 . S
C1157 C1156 1.367 . S
C1157 C1159 1.433 . S
C1158 C1154 1.350 . S
C1158 C1155 1.463 . S
C1158 N1162 1.427 . S
C1159 H1149 0.929 . S
C1159 C1157 1.433 . S
C1159 N1162 1.384 . S
C1160 H1151 0.929 . S
C1160 C1152 1.378 . S
C1160 C1155 1.350 . S
C1161 H1148 0.929 . S
C1161 C1153 1.433 1_556 S
C1161 N1163 1.384 1_556 S
N1162 C1158 1.427 . S
N1162 C1159 1.384 . S
N1163 C1155 1.427 . S
N1163 C1161 1.384 1_554 S
H1164 C1170 0.930 . S
H1165 C1174 0.930 . S
H1166 C1179 0.929 . S
H1167 C1177 0.929 1_565 S
H1168 C1172 0.929 . S
H1169 C1178 0.929 . S
C1170 H1164 0.930 . S
C1170 C1171 1.367 . S
C1170 C1178 1.378 . S
C1171 C1170 1.367 . S
C1171 C1179 1.433 . S
C1172 H1168 0.929 . S
C1172 C1174 1.378 . S
C1172 C1176 1.350 . S
C1173 C1176 1.463 . S
C1173 C1178 1.350 . S
C1173 N1181 1.427 . S
C1174 H1165 0.930 . S
C1174 C1172 1.378 . S
C1174 C1175 1.367 . S
C1175 C1174 1.367 . S
C1175 C1177 1.433 . S
C1176 C1172 1.350 . S
C1176 C1173 1.463 . S
C1176 N1180 1.427 . S
C1177 H1167 0.929 1_545 S
C1177 C1175 1.433 . S
C1177 N1180 1.384 . S
C1178 H1169 0.929 . S
C1178 C1170 1.378 . S
C1178 C1173 1.350 . S
C1179 H1166 0.929 . S
C1179 C1171 1.433 . S
C1179 N1181 1.384 . S
N1180 C1176 1.427 . S
N1180 C1177 1.384 . S
N1181 C1173 1.427 . S
N1181 C1179 1.384 . S
H1182 C1188 0.930 . S
H1183 C1192 0.930 . S
H1184 C1197 0.929 . S
H1185 C1195 0.929 . S
H1186 C1190 0.929 . S
H1187 C1196 0.929 . S
C1188 H1182 0.930 . S
C1188 C1189 1.367 . S
C1188 C1196 1.378 . S
C1189 C1188 1.367 . S
C1189 C1197 1.433 . S
C1190 H1186 0.929 . S
C1190 C1192 1.378 . S
C1190 C1194 1.350 . S
C1191 C1194 1.463 . S
C1191 C1196 1.350 . S
C1191 N1199 1.427 . S
C1192 H1183 0.930 . S
C1192 C1190 1.378 . S
C1192 C1193 1.367 . S
C1193 C1192 1.367 . S
C1193 C1195 1.433 . S
C1194 C1190 1.350 . S
C1194 C1191 1.463 . S
C1194 N1198 1.427 . S
C1195 H1185 0.929 . S
C1195 C1193 1.433 . S
C1195 N1198 1.384 . S
C1196 H1187 0.929 . S
C1196 C1188 1.378 . S
C1196 C1191 1.350 . S
C1197 H1184 0.929 . S
C1197 C1189 1.433 . S
C1197 N1199 1.384 . S
N1198 C1194 1.427 . S
N1198 C1195 1.384 . S
N1199 C1191 1.427 . S
N1199 C1197 1.384 . S
H1200 C1206 0.930 . S
H1201 C1210 0.930 . S
H1202 C1215 0.900 1_545 S
H1203 C1213 0.929 . S
H1204 C1208 0.929 . S
H1205 C1214 0.929 . S
C1206 H1200 0.930 . S
C1206 C1207 1.367 . S
C1206 C1214 1.378 . S
C1207 C1206 1.367 . S
C1207 C1215 1.442 . S
C1208 H1204 0.929 . S
C1208 C1210 1.378 . S
C1208 C1212 1.350 . S
C1209 C1212 1.463 . S
C1209 C1214 1.350 . S
C1209 N1217 1.427 . S
C1210 H1201 0.930 . S
C1210 C1208 1.378 . S
C1210 C1211 1.367 . S
C1211 C1210 1.367 . S
C1211 C1213 1.433 . S
C1212 C1208 1.350 . S
C1212 C1209 1.463 . S
C1212 N1216 1.427 . S
C1213 H1203 0.929 . S
C1213 C1211 1.433 . S
C1213 N1216 1.384 . S
C1214 H1205 0.929 . S
C1214 C1206 1.378 . S
C1214 C1209 1.350 . S
C1215 H1202 0.900 1_565 S
C1215 C1207 1.442 . S
C1215 N1217 1.406 . S
N1216 C1212 1.427 . S
N1216 C1213 1.384 . S
N1217 C1209 1.427 . S
N1217 C1215 1.406 . S
H1218 C1224 0.930 . S
H1219 C1228 0.930 . S
H1220 C1233 0.929 . S
H1221 C1231 0.929 . S
H1222 C1226 0.929 . S
H1223 C1232 0.929 . S
C1224 H1218 0.930 . S
C1224 C1225 1.367 . S
C1224 C1232 1.378 . S
C1225 C1224 1.367 . S
C1225 C1233 1.433 . S
C1226 H1222 0.929 . S
C1226 C1228 1.378 . S
C1226 C1230 1.350 . S
C1227 C1230 1.463 . S
C1227 C1232 1.350 . S
C1227 N1235 1.427 . S
C1228 H1219 0.930 . S
C1228 C1226 1.378 . S
C1228 C1229 1.367 . S
C1229 C1228 1.367 . S
C1229 C1231 1.433 . S
C1230 C1226 1.350 . S
C1230 C1227 1.463 . S
C1230 N1234 1.427 . S
C1231 H1221 0.929 . S
C1231 C1229 1.433 . S
C1231 N1234 1.384 . S
C1232 H1223 0.929 . S
C1232 C1224 1.378 . S
C1232 C1227 1.350 . S
C1233 H1220 0.929 . S
C1233 C1225 1.433 . S
C1233 N1235 1.384 . S
N1234 C1230 1.427 . S
N1234 C1231 1.384 . S
N1235 C1227 1.427 . S
N1235 C1233 1.384 . S
H1236 C1242 0.930 . S
H1237 C1246 0.930 1_565 S
H1238 C1251 0.929 . S
H1239 C1249 0.929 . S
H1240 C1244 0.929 . S
H1241 C1250 0.929 . S
C1242 H1236 0.930 . S
C1242 C1243 1.367 . S
C1242 C1250 1.378 . S
C1243 C1242 1.367 . S
C1243 C1251 1.433 . S
C1244 H1240 0.929 . S
C1244 C1246 1.378 . S
C1244 C1248 1.350 . S
C1245 C1248 1.463 . S
C1245 C1250 1.350 . S
C1245 N1253 1.427 . S
C1246 H1237 0.930 1_545 S
C1246 C1244 1.378 . S
C1246 C1247 1.367 . S
C1247 C1246 1.367 . S
C1247 C1249 1.433 . S
C1248 C1244 1.350 . S
C1248 C1245 1.463 . S
C1248 N1252 1.427 . S
C1249 H1239 0.929 . S
C1249 C1247 1.433 . S
C1249 N1252 1.384 . S
C1250 H1241 0.929 . S
C1250 C1242 1.378 . S
C1250 C1245 1.350 . S
C1251 H1238 0.929 . S
C1251 C1243 1.433 . S
C1251 N1253 1.384 . S
N1252 C1248 1.427 . S
N1252 C1249 1.384 . S
N1253 C1245 1.427 . S
N1253 C1251 1.384 . S
H1254 C1260 0.930 . S
H1255 C1264 0.930 . S
H1256 C1269 0.929 . S
H1257 C1267 0.929 . S
H1258 C1262 0.929 . S
H1259 C1268 0.929 . S
C1260 H1254 0.930 . S
C1260 C1261 1.367 . S
C1260 C1268 1.378 . S
C1261 C1260 1.367 . S
C1261 C1269 1.433 . S
C1262 H1258 0.929 . S
C1262 C1264 1.378 . S
C1262 C1266 1.350 . S
C1263 C1266 1.463 . S
C1263 C1268 1.350 . S
C1263 N1271 1.427 . S
C1264 H1255 0.930 . S
C1264 C1262 1.378 . S
C1264 C1265 1.367 . S
C1265 C1264 1.367 . S
C1265 C1267 1.433 . S
C1266 C1262 1.350 . S
C1266 C1263 1.463 . S
C1266 N1270 1.427 . S
C1267 H1257 0.929 . S
C1267 C1265 1.433 . S
C1267 N1270 1.384 . S
C1268 H1259 0.929 . S
C1268 C1260 1.378 . S
C1268 C1263 1.350 . S
C1269 H1256 0.929 . S
C1269 C1261 1.433 . S
C1269 N1271 1.384 . S
N1270 C1266 1.427 . S
N1270 C1267 1.384 . S
N1271 C1263 1.427 . S
N1271 C1269 1.384 . S
H1272 C1278 0.930 . S
H1273 C1282 0.930 . S
H1274 C1287 0.929 . S
H1275 C1285 0.929 1_565 S
H1276 C1280 0.929 . S
H1277 C1286 0.929 . S
C1278 H1272 0.930 . S
C1278 C1279 1.367 . S
C1278 C1286 1.378 . S
C1279 C1278 1.367 . S
C1279 C1287 1.433 . S
C1280 H1276 0.929 . S
C1280 C1282 1.378 . S
C1280 C1284 1.350 . S
C1281 C1284 1.463 . S
C1281 C1286 1.350 . S
C1281 N1289 1.427 . S
C1282 H1273 0.930 . S
C1282 C1280 1.378 . S
C1282 C1283 1.367 . S
C1283 C1282 1.367 . S
C1283 C1285 1.433 . S
C1284 C1280 1.350 . S
C1284 C1281 1.463 . S
C1284 N1288 1.427 . S
C1285 H1275 0.929 1_545 S
C1285 C1283 1.433 . S
C1285 N1288 1.384 . S
C1286 H1277 0.929 . S
C1286 C1278 1.378 . S
C1286 C1281 1.350 . S
C1287 H1274 0.929 . S
C1287 C1279 1.433 . S
C1287 N1289 1.384 . S
N1288 C1284 1.427 . S
N1288 C1285 1.384 . S
N1289 C1281 1.427 . S
N1289 C1287 1.384 . S
H1290 C1296 0.930 . S
H1291 C1300 0.930 1_554 S
H1292 C1305 0.929 . S
H1293 C1303 0.929 . S
H1294 C1298 0.929 . S
H1295 C1304 0.929 . S
C1296 H1290 0.930 . S
C1296 C1297 1.367 . S
C1296 C1304 1.378 . S
C1297 C1296 1.367 . S
C1297 C1305 1.433 . S
C1298 H1294 0.929 . S
C1298 C1300 1.378 . S
C1298 C1302 1.350 . S
C1299 C1302 1.463 . S
C1299 C1304 1.350 . S
C1299 N1307 1.427 . S
C1300 H1291 0.930 1_556 S
C1300 C1298 1.378 . S
C1300 C1301 1.367 . S
C1301 C1300 1.367 . S
C1301 C1303 1.433 . S
C1302 C1298 1.350 . S
C1302 C1299 1.463 . S
C1302 N1306 1.427 . S
C1303 H1293 0.929 . S
C1303 C1301 1.433 . S
C1303 N1306 1.384 . S
C1304 H1295 0.929 . S
C1304 C1296 1.378 . S
C1304 C1299 1.350 . S
C1305 H1292 0.929 . S
C1305 C1297 1.433 . S
C1305 N1307 1.384 . S
N1306 C1302 1.427 . S
N1306 C1303 1.384 . S
N1307 C1299 1.427 . S
N1307 C1305 1.384 . S
H1308 C1314 0.930 . S
H1309 C1318 0.930 . S
H1310 C1323 0.929 1_545 S
H1311 C1321 0.929 . S
H1312 C1316 0.929 . S
H1313 C1322 0.929 . S
C1314 H1308 0.930 . S
C1314 C1315 1.367 . S
C1314 C1322 1.378 . S
C1315 C1314 1.367 . S
C1315 C1323 1.433 . S
C1316 H1312 0.929 . S
C1316 C1318 1.378 . S
C1316 C1320 1.350 . S
C1317 C1320 1.463 . S
C1317 C1322 1.350 . S
C1317 N1325 1.427 . S
C1318 H1309 0.930 . S
C1318 C1316 1.378 . S
C1318 C1319 1.367 . S
C1319 C1318 1.367 . S
C1319 C1321 1.433 . S
C1320 C1316 1.350 . S
C1320 C1317 1.463 . S
C1320 N1324 1.427 . S
C1321 H1311 0.929 . S
C1321 C1319 1.433 . S
C1321 N1324 1.384 . S
C1322 H1313 0.929 . S
C1322 C1314 1.378 . S
C1322 C1317 1.350 . S
C1323 H1310 0.929 1_565 S
C1323 C1315 1.433 . S
C1323 N1325 1.384 . S
N1324 C1320 1.427 . S
N1324 C1321 1.384 . S
N1325 C1317 1.427 . S
N1325 C1323 1.384 . S
H1326 C1332 0.930 . S
H1327 C1336 0.930 . S
H1328 C1341 0.929 . S
H1329 C1339 0.929 . S
H1330 C1334 0.929 . S
H1331 C1340 0.929 . S
C1332 H1326 0.930 . S
C1332 C1333 1.367 . S
C1332 C1340 1.378 . S
C1333 C1332 1.367 . S
C1333 C1341 1.433 . S
C1334 H1330 0.929 . S
C1334 C1336 1.378 . S
C1334 C1338 1.350 . S
C1335 C1338 1.463 . S
C1335 C1340 1.350 . S
C1335 N1343 1.427 . S
C1336 H1327 0.930 . S
C1336 C1334 1.378 . S
C1336 C1337 1.367 . S
C1337 C1336 1.367 . S
C1337 C1339 1.433 . S
C1338 C1334 1.350 . S
C1338 C1335 1.463 . S
C1338 N1342 1.427 . S
C1339 H1329 0.929 . S
C1339 C1337 1.433 . S
C1339 N1342 1.384 . S
C1340 H1331 0.929 . S
C1340 C1332 1.378 . S
C1340 C1335 1.350 . S
C1341 H1328 0.929 . S
C1341 C1333 1.433 . S
C1341 N1343 1.384 . S
N1342 C1338 1.427 . S
N1342 C1339 1.384 . S
N1343 C1335 1.427 . S
N1343 C1341 1.384 . S
H1344 C1350 0.930 . S
H1345 C1354 0.930 . S
H1346 C1359 0.929 . S
H1347 C1357 0.929 . S
H1348 C1352 0.929 . S
H1349 C1358 0.929 . S
C1350 H1344 0.930 . S
C1350 C1351 1.367 . S
C1350 C1358 1.378 . S
C1351 C1350 1.367 . S
C1351 C1359 1.433 . S
C1352 H1348 0.929 . S
C1352 C1354 1.378 . S
C1352 C1356 1.350 . S
C1353 C1356 1.463 . S
C1353 C1358 1.350 . S
C1353 N1361 1.427 . S
C1354 H1345 0.930 . S
C1354 C1352 1.378 . S
C1354 C1355 1.367 . S
C1355 C1354 1.367 . S
C1355 C1357 1.433 . S
C1356 C1352 1.350 . S
C1356 C1353 1.463 . S
C1356 N1360 1.427 . S
C1357 H1347 0.929 . S
C1357 C1355 1.433 . S
C1357 N1360 1.384 . S
C1358 H1349 0.929 . S
C1358 C1350 1.378 . S
C1358 C1353 1.350 . S
C1359 H1346 0.929 . S
C1359 C1351 1.433 . S
C1359 N1361 1.384 . S
N1360 C1356 1.427 . S
N1360 C1357 1.384 . S
N1361 C1353 1.427 . S
N1361 C1359 1.384 . S
H1362 C1368 0.930 . S
H1363 C1372 0.930 1_554 S
H1364 C1377 0.929 . S
H1365 C1375 0.929 . S
H1366 C1370 0.929 . S
H1367 C1376 0.929 . S
C1368 H1362 0.930 . S
C1368 C1369 1.367 . S
C1368 C1376 1.378 . S
C1369 C1368 1.367 . S
C1369 C1377 1.433 . S
C1370 H1366 0.929 . S
C1370 C1372 1.378 . S
C1370 C1374 1.350 . S
C1371 C1374 1.463 . S
C1371 C1376 1.350 . S
C1371 N1379 1.427 . S
C1372 H1363 0.930 1_556 S
C1372 C1370 1.378 . S
C1372 C1373 1.367 . S
C1373 C1372 1.367 . S
C1373 C1375 1.433 . S
C1374 C1370 1.350 . S
C1374 C1371 1.463 . S
C1374 N1378 1.427 . S
C1375 H1365 0.929 . S
C1375 C1373 1.433 . S
C1375 N1378 1.384 . S
C1376 H1367 0.929 . S
C1376 C1368 1.378 . S
C1376 C1371 1.350 . S
C1377 H1364 0.929 . S
C1377 C1369 1.433 . S
C1377 N1379 1.384 . S
N1378 C1374 1.427 . S
N1378 C1375 1.384 . S
N1379 C1371 1.427 . S
N1379 C1377 1.384 . S
H1380 C1386 0.930 . S
H1381 C1390 0.930 . S
H1382 C1395 0.929 . S
H1383 C1393 0.929 . S
H1384 C1388 0.929 . S
H1385 C1394 0.929 . S
C1386 H1380 0.930 . S
C1386 C1387 1.367 . S
C1386 C1394 1.378 . S
C1387 C1386 1.367 . S
C1387 C1395 1.433 . S
C1388 H1384 0.929 . S
C1388 C1390 1.378 . S
C1388 C1392 1.350 . S
C1389 C1392 1.463 . S
C1389 C1394 1.350 . S
C1389 N1397 1.427 . S
C1390 H1381 0.930 . S
C1390 C1388 1.378 . S
C1390 C1391 1.367 . S
C1391 C1390 1.367 . S
C1391 C1393 1.433 . S
C1392 C1388 1.350 . S
C1392 C1389 1.463 . S
C1392 N1396 1.427 . S
C1393 H1383 0.929 . S
C1393 C1391 1.433 . S
C1393 N1396 1.384 . S
C1394 H1385 0.929 . S
C1394 C1386 1.378 . S
C1394 C1389 1.350 . S
C1395 H1382 0.929 . S
C1395 C1387 1.433 . S
C1395 N1397 1.384 . S
N1396 C1392 1.427 . S
N1396 C1393 1.384 . S
N1397 C1389 1.427 . S
N1397 C1395 1.384 . S
H1398 C1404 0.930 . S
H1399 C1408 0.930 . S
H1400 C1413 0.929 . S
H1401 C1411 0.929 . S
H1402 C1406 0.929 . S
H1403 C1412 0.929 . S
C1404 H1398 0.930 . S
C1404 C1405 1.367 . S
C1404 C1412 1.378 . S
C1405 C1404 1.367 . S
C1405 C1413 1.433 . S
C1406 H1402 0.929 . S
C1406 C1408 1.378 . S
C1406 C1410 1.350 . S
C1407 C1410 1.463 . S
C1407 C1412 1.350 . S
C1407 N1415 1.427 . S
C1408 H1399 0.930 . S
C1408 C1406 1.378 . S
C1408 C1409 1.367 . S
C1409 C1408 1.367 . S
C1409 C1411 1.433 . S
C1410 C1406 1.350 . S
C1410 C1407 1.463 . S
C1410 N1414 1.427 . S
C1411 H1401 0.929 . S
C1411 C1409 1.433 . S
C1411 N1414 1.384 . S
C1412 H1403 0.929 . S
C1412 C1404 1.378 . S
C1412 C1407 1.350 . S
C1413 H1400 0.929 . S
C1413 C1405 1.433 . S
C1413 N1415 1.384 . S
N1414 C1410 1.427 . S
N1414 C1411 1.384 . S
N1415 C1407 1.427 . S
N1415 C1413 1.384 . S
H1416 C1422 0.930 . S
H1417 C1426 0.930 . S
H1418 C1431 0.929 . S
H1419 C1429 0.929 . S
H1420 C1424 0.929 . S
H1421 C1430 0.929 . S
C1422 H1416 0.930 . S
C1422 C1423 1.367 . S
C1422 C1430 1.378 . S
C1423 C1422 1.367 . S
C1423 C1431 1.433 . S
C1424 H1420 0.929 . S
C1424 C1426 1.378 . S
C1424 C1428 1.350 . S
C1425 C1428 1.463 . S
C1425 C1430 1.350 . S
C1425 N1433 1.427 . S
C1426 H1417 0.930 . S
C1426 C1424 1.378 . S
C1426 C1427 1.367 . S
C1427 C1426 1.367 . S
C1427 C1429 1.433 . S
C1428 C1424 1.350 . S
C1428 C1425 1.463 . S
C1428 N1432 1.427 . S
C1429 H1419 0.929 . S
C1429 C1427 1.433 . S
C1429 N1432 1.384 . S
C1430 H1421 0.929 . S
C1430 C1422 1.378 . S
C1430 C1425 1.350 . S
C1431 H1418 0.929 . S
C1431 C1423 1.433 . S
C1431 N1433 1.384 . S
N1432 C1428 1.427 . S
N1432 C1429 1.384 . S
N1433 C1425 1.427 . S
N1433 C1431 1.384 . S
H1434 C1440 0.930 . S
H1435 C1444 0.930 . S
H1436 C1449 0.929 . S
H1437 C1447 0.929 . S
H1438 C1442 0.929 . S
H1439 C1448 0.929 . S
C1440 H1434 0.930 . S
C1440 C1441 1.367 . S
C1440 C1448 1.378 . S
C1441 C1440 1.367 . S
C1441 C1449 1.433 . S
C1442 H1438 0.929 . S
C1442 C1444 1.378 . S
C1442 C1446 1.350 . S
C1443 C1446 1.463 . S
C1443 C1448 1.350 . S
C1443 N1451 1.427 . S
C1444 H1435 0.930 . S
C1444 C1442 1.378 . S
C1444 C1445 1.367 . S
C1445 C1444 1.367 . S
C1445 C1447 1.433 . S
C1446 C1442 1.350 . S
C1446 C1443 1.463 . S
C1446 N1450 1.427 . S
C1447 H1437 0.929 . S
C1447 C1445 1.433 . S
C1447 N1450 1.384 . S
C1448 H1439 0.929 . S
C1448 C1440 1.378 . S
C1448 C1443 1.350 . S
C1449 H1436 0.929 . S
C1449 C1441 1.433 . S
C1449 N1451 1.384 . S
N1450 C1446 1.427 . S
N1450 C1447 1.384 . S
N1451 C1443 1.427 . S
N1451 C1449 1.384 . S
H1452 C1458 0.930 . S
H1453 C1462 0.930 . S
H1454 C1467 0.929 . S
H1455 C1465 0.929 . S
H1456 C1460 0.929 . S
H1457 C1466 0.929 . S
C1458 H1452 0.930 . S
C1458 C1459 1.367 . S
C1458 C1466 1.378 . S
C1459 C1458 1.367 . S
C1459 C1467 1.433 . S
C1460 H1456 0.929 . S
C1460 C1462 1.378 . S
C1460 C1464 1.350 . S
C1461 C1464 1.463 . S
C1461 C1466 1.350 . S
C1461 N1469 1.427 . S
C1462 H1453 0.930 . S
C1462 C1460 1.378 . S
C1462 C1463 1.367 . S
C1463 C1462 1.367 . S
C1463 C1465 1.433 . S
C1464 C1460 1.350 . S
C1464 C1461 1.463 . S
C1464 N1468 1.427 . S
C1465 H1455 0.929 . S
C1465 C1463 1.433 . S
C1465 N1468 1.384 . S
C1466 H1457 0.929 . S
C1466 C1458 1.378 . S
C1466 C1461 1.350 . S
C1467 H1454 0.929 . S
C1467 C1459 1.433 . S
C1467 N1469 1.384 . S
N1468 C1464 1.427 . S
N1468 C1465 1.384 . S
N1469 C1461 1.427 . S
N1469 C1467 1.384 . S
H1470 C1476 0.930 . S
H1471 C1480 0.930 . S
H1472 C1485 0.929 . S
H1473 C1483 0.929 . S
H1474 C1478 0.929 . S
H1475 C1484 0.929 . S
C1476 H1470 0.930 . S
C1476 C1477 1.367 . S
C1476 C1484 1.378 . S
C1477 C1476 1.367 . S
C1477 C1485 1.433 . S
C1478 H1474 0.929 . S
C1478 C1480 1.378 . S
C1478 C1482 1.350 . S
C1479 C1482 1.463 . S
C1479 C1484 1.350 . S
C1479 N1487 1.427 . S
C1480 H1471 0.930 . S
C1480 C1478 1.378 . S
C1480 C1481 1.367 . S
C1481 C1480 1.367 . S
C1481 C1483 1.433 . S
C1482 C1478 1.350 . S
C1482 C1479 1.463 . S
C1482 N1486 1.427 . S
C1483 H1473 0.929 . S
C1483 C1481 1.433 . S
C1483 N1486 1.384 . S
C1484 H1475 0.929 . S
C1484 C1476 1.378 . S
C1484 C1479 1.350 . S
C1485 H1472 0.929 . S
C1485 C1477 1.433 . S
C1485 N1487 1.384 . S
N1486 C1482 1.427 . S
N1486 C1483 1.384 . S
N1487 C1479 1.427 . S
N1487 C1485 1.384 . S
H1488 C1494 0.930 . S
H1489 C1498 0.930 . S
H1490 C1503 0.929 . S
H1491 C1501 0.929 . S
H1492 C1496 0.929 . S
H1493 C1502 0.929 . S
C1494 H1488 0.930 . S
C1494 C1495 1.367 . S
C1494 C1502 1.378 . S
C1495 C1494 1.367 . S
C1495 C1503 1.433 . S
C1496 H1492 0.929 . S
C1496 C1498 1.378 . S
C1496 C1500 1.350 . S
C1497 C1500 1.463 . S
C1497 C1502 1.350 . S
C1497 N1505 1.427 . S
C1498 H1489 0.930 . S
C1498 C1496 1.378 . S
C1498 C1499 1.367 . S
C1499 C1498 1.367 . S
C1499 C1501 1.433 . S
C1500 C1496 1.350 . S
C1500 C1497 1.463 . S
C1500 N1504 1.427 . S
C1501 H1491 0.929 . S
C1501 C1499 1.433 . S
C1501 N1504 1.384 . S
C1502 H1493 0.929 . S
C1502 C1494 1.378 . S
C1502 C1497 1.350 . S
C1503 H1490 0.929 . S
C1503 C1495 1.433 . S
C1503 N1505 1.384 . S
N1504 C1500 1.427 . S
N1504 C1501 1.384 . S
N1505 C1497 1.427 . S
N1505 C1503 1.384 . S
H1506 C1512 0.930 . S
H1507 C1516 0.930 . S
H1508 C1521 0.929 . S
H1509 C1519 0.929 1_556 S
H1510 C1514 0.929 . S
H1511 C1520 0.929 . S
C1512 H1506 0.930 . S
C1512 C1513 1.367 . S
C1512 C1520 1.378 . S
C1513 C1512 1.367 . S
C1513 C1521 1.433 . S
C1514 H1510 0.929 . S
C1514 C1516 1.378 . S
C1514 C1518 1.350 . S
C1515 C1518 1.463 . S
C1515 C1520 1.350 . S
C1515 N1523 1.427 . S
C1516 H1507 0.930 . S
C1516 C1514 1.378 . S
C1516 C1517 1.367 . S
C1517 C1516 1.367 . S
C1517 C1519 1.433 . S
C1518 C1514 1.350 . S
C1518 C1515 1.463 . S
C1518 N1522 1.427 . S
C1519 H1509 0.929 1_554 S
C1519 C1517 1.433 . S
C1519 N1522 1.384 . S
C1520 H1511 0.929 . S
C1520 C1512 1.378 . S
C1520 C1515 1.350 . S
C1521 H1508 0.929 . S
C1521 C1513 1.433 . S
C1521 N1523 1.384 . S
N1522 C1518 1.427 . S
N1522 C1519 1.384 . S
N1523 C1515 1.427 . S
N1523 C1521 1.384 . S
H1524 C1530 0.930 . S
H1525 C1534 0.930 . S
H1526 C1539 0.929 . S
H1527 C1537 0.929 . S
H1528 C1532 0.929 . S
H1529 C1538 0.929 . S
C1530 H1524 0.930 . S
C1530 C1531 1.367 . S
C1530 C1538 1.378 . S
C1531 C1530 1.367 . S
C1531 C1539 1.433 . S
C1532 H1528 0.929 . S
C1532 C1534 1.378 . S
C1532 C1536 1.350 . S
C1533 C1536 1.463 . S
C1533 C1538 1.350 . S
C1533 N1541 1.427 . S
C1534 H1525 0.930 . S
C1534 C1532 1.378 . S
C1534 C1535 1.367 . S
C1535 C1534 1.367 . S
C1535 C1537 1.433 . S
C1536 C1532 1.350 . S
C1536 C1533 1.463 . S
C1536 N1540 1.427 . S
C1537 H1527 0.929 . S
C1537 C1535 1.433 . S
C1537 N1540 1.384 . S
C1538 H1529 0.929 . S
C1538 C1530 1.378 . S
C1538 C1533 1.350 . S
C1539 H1526 0.929 . S
C1539 C1531 1.433 . S
C1539 N1541 1.384 . S
N1540 C1536 1.427 . S
N1540 C1537 1.384 . S
N1541 C1533 1.427 . S
N1541 C1539 1.384 . S
H1542 C1548 0.930 . S
H1543 C1552 0.930 . S
H1544 C1557 0.929 . S
H1545 C1555 0.929 . S
H1546 C1550 0.929 . S
H1547 C1556 0.929 . S
C1548 H1542 0.930 . S
C1548 C1549 1.367 . S
C1548 C1556 1.378 . S
C1549 C1548 1.367 . S
C1549 C1557 1.433 . S
C1550 H1546 0.929 . S
C1550 C1552 1.378 . S
C1550 C1554 1.350 . S
C1551 C1554 1.463 . S
C1551 C1556 1.350 . S
C1551 N1559 1.427 . S
C1552 H1543 0.930 . S
C1552 C1550 1.378 . S
C1552 C1553 1.367 . S
C1553 C1552 1.367 . S
C1553 C1555 1.433 . S
C1554 C1550 1.350 . S
C1554 C1551 1.463 . S
C1554 N1558 1.427 . S
C1555 H1545 0.929 . S
C1555 C1553 1.433 . S
C1555 N1558 1.384 . S
C1556 H1547 0.929 . S
C1556 C1548 1.378 . S
C1556 C1551 1.350 . S
C1557 H1544 0.929 . S
C1557 C1549 1.433 . S
C1557 N1559 1.384 . S
N1558 C1554 1.427 . S
N1558 C1555 1.384 . S
N1559 C1551 1.427 . S
N1559 C1557 1.384 . S
H1560 C1566 0.930 . S
H1561 C1570 0.930 . S
H1562 C1575 0.929 . S
H1563 C1573 0.929 . S
H1564 C1568 0.929 . S
H1565 C1574 0.929 . S
C1566 H1560 0.930 . S
C1566 C1567 1.367 . S
C1566 C1574 1.378 . S
C1567 C1566 1.367 . S
C1567 C1575 1.433 . S
C1568 H1564 0.929 . S
C1568 C1570 1.378 . S
C1568 C1572 1.350 . S
C1569 C1572 1.463 . S
C1569 C1574 1.350 . S
C1569 N1577 1.427 . S
C1570 H1561 0.930 . S
C1570 C1568 1.378 . S
C1570 C1571 1.367 . S
C1571 C1570 1.367 . S
C1571 C1573 1.433 . S
C1572 C1568 1.350 . S
C1572 C1569 1.463 . S
C1572 N1576 1.427 . S
C1573 H1563 0.929 . S
C1573 C1571 1.433 . S
C1573 N1576 1.384 . S
C1574 H1565 0.929 . S
C1574 C1566 1.378 . S
C1574 C1569 1.350 . S
C1575 H1562 0.929 . S
C1575 C1567 1.433 . S
C1575 N1577 1.384 . S
N1576 C1572 1.427 . S
N1576 C1573 1.384 . S
N1577 C1569 1.427 . S
N1577 C1575 1.384 . S
H1578 C1584 0.930 . S
H1579 C1588 0.930 . S
H1580 C1593 0.929 . S
H1581 C1591 0.929 . S
H1582 C1586 0.929 . S
H1583 C1592 0.929 . S
C1584 H1578 0.930 . S
C1584 C1585 1.367 . S
C1584 C1592 1.378 . S
C1585 C1584 1.367 . S
C1585 C1593 1.433 . S
C1586 H1582 0.929 . S
C1586 C1588 1.378 . S
C1586 C1590 1.350 . S
C1587 C1590 1.463 . S
C1587 C1592 1.350 . S
C1587 N1595 1.427 . S
C1588 H1579 0.930 . S
C1588 C1586 1.378 . S
C1588 C1589 1.367 . S
C1589 C1588 1.367 . S
C1589 C1591 1.433 . S
C1590 C1586 1.350 . S
C1590 C1587 1.463 . S
C1590 N1594 1.427 . S
C1591 H1581 0.929 . S
C1591 C1589 1.433 . S
C1591 N1594 1.384 . S
C1592 H1583 0.929 . S
C1592 C1584 1.378 . S
C1592 C1587 1.350 . S
C1593 H1580 0.929 . S
C1593 C1585 1.433 . S
C1593 N1595 1.384 . S
N1594 C1590 1.427 . S
N1594 C1591 1.384 . S
N1595 C1587 1.427 . S
N1595 C1593 1.384 . S
H1596 C1602 0.930 . S
H1597 C1606 0.930 . S
H1598 C1611 0.929 . S
H1599 C1609 0.929 . S
H1600 C1604 0.929 . S
H1601 C1610 0.929 . S
C1602 H1596 0.930 . S
C1602 C1603 1.367 . S
C1602 C1610 1.378 . S
C1603 C1602 1.367 . S
C1603 C1611 1.433 . S
C1604 H1600 0.929 . S
C1604 C1606 1.378 . S
C1604 C1608 1.350 . S
C1605 C1608 1.463 . S
C1605 C1610 1.350 . S
C1605 N1613 1.427 . S
C1606 H1597 0.930 . S
C1606 C1604 1.378 . S
C1606 C1607 1.367 . S
C1607 C1606 1.367 . S
C1607 C1609 1.433 . S
C1608 C1604 1.350 . S
C1608 C1605 1.463 . S
C1608 N1612 1.427 . S
C1609 H1599 0.929 . S
C1609 C1607 1.433 . S
C1609 N1612 1.384 . S
C1610 H1601 0.929 . S
C1610 C1602 1.378 . S
C1610 C1605 1.350 . S
C1611 H1598 0.929 . S
C1611 C1603 1.433 . S
C1611 N1613 1.384 . S
N1612 C1608 1.427 . S
N1612 C1609 1.384 . S
N1613 C1605 1.427 . S
N1613 C1611 1.384 . S
H1614 C1620 0.902 1_554 S
H1615 C1624 0.930 . S
H1616 C1629 0.929 . S
H1617 C1627 0.929 . S
H1618 C1622 0.929 . S
H1619 C1628 0.929 . S
C1620 H1614 0.902 1_556 S
C1620 C1621 1.376 . S
C1620 C1628 1.398 . S
C1621 C1620 1.376 . S
C1621 C1629 1.433 . S
C1622 H1618 0.929 . S
C1622 C1624 1.378 . S
C1622 C1626 1.350 . S
C1623 C1626 1.463 . S
C1623 C1628 1.350 . S
C1623 N1631 1.427 . S
C1624 H1615 0.930 . S
C1624 C1622 1.378 . S
C1624 C1625 1.367 . S
C1625 C1624 1.367 . S
C1625 C1627 1.433 . S
C1626 C1622 1.350 . S
C1626 C1623 1.463 . S
C1626 N1630 1.427 . S
C1627 H1617 0.929 . S
C1627 C1625 1.433 . S
C1627 N1630 1.384 . S
C1628 H1619 0.929 . S
C1628 C1620 1.398 . S
C1628 C1623 1.350 . S
C1629 H1616 0.929 . S
C1629 C1621 1.433 . S
C1629 N1631 1.384 . S
N1630 C1626 1.427 . S
N1630 C1627 1.384 . S
N1631 C1623 1.427 . S
N1631 C1629 1.384 . S
H1632 C1638 0.930 . S
H1633 C1642 0.930 . S
H1634 C1647 0.929 . S
H1635 C1645 0.929 . S
H1636 C1640 0.929 . S
H1637 C1646 0.929 . S
C1638 H1632 0.930 . S
C1638 C1639 1.367 . S
C1638 C1646 1.378 . S
C1639 C1638 1.367 . S
C1639 C1647 1.433 . S
C1640 H1636 0.929 . S
C1640 C1642 1.378 . S
C1640 C1644 1.350 . S
C1641 C1644 1.463 . S
C1641 C1646 1.350 . S
C1641 N1649 1.427 . S
C1642 H1633 0.930 . S
C1642 C1640 1.378 . S
C1642 C1643 1.367 . S
C1643 C1642 1.367 . S
C1643 C1645 1.433 . S
C1644 C1640 1.350 . S
C1644 C1641 1.463 . S
C1644 N1648 1.427 . S
C1645 H1635 0.929 . S
C1645 C1643 1.433 . S
C1645 N1648 1.384 . S
C1646 H1637 0.929 . S
C1646 C1638 1.378 . S
C1646 C1641 1.350 . S
C1647 H1634 0.929 . S
C1647 C1639 1.433 . S
C1647 N1649 1.384 . S
N1648 C1644 1.427 . S
N1648 C1645 1.384 . S
N1649 C1641 1.427 . S
N1649 C1647 1.384 . S
H1650 C1656 0.930 . S
H1651 C1660 0.930 . S
H1652 C1665 0.924 1_545 S
H1653 C1663 0.924 1_565 S
H1654 C1658 0.929 . S
H1655 C1664 0.929 . S
C1656 H1650 0.930 . S
C1656 C1657 1.367 . S
C1656 C1664 1.378 . S
C1657 C1656 1.367 . S
C1657 C1665 1.443 . S
C1658 H1654 0.929 . S
C1658 C1660 1.378 . S
C1658 C1662 1.350 . S
C1659 C1662 1.463 1_565 S
C1659 C1664 1.350 . S
C1659 N1667 1.427 1_565 S
C1660 H1651 0.930 . S
C1660 C1658 1.378 . S
C1660 C1661 1.367 . S
C1661 C1660 1.367 . S
C1661 C1663 1.443 . S
C1662 C1658 1.350 . S
C1662 C1659 1.463 1_545 S
C1662 N1666 1.427 1_545 S
C1663 H1653 0.924 1_545 S
C1663 C1661 1.443 . S
C1663 N1666 1.380 1_545 S
C1664 H1655 0.929 . S
C1664 C1656 1.378 . S
C1664 C1659 1.350 . S
C1665 H1652 0.924 1_565 S
C1665 C1657 1.443 . S
C1665 N1667 1.380 1_565 S
N1666 C1662 1.427 1_565 S
N1666 C1663 1.380 1_565 S
N1667 C1659 1.427 1_545 S
N1667 C1665 1.380 1_545 S
H1668 C1674 0.930 . S
H1669 C1678 0.930 . S
H1670 C1683 0.929 . S
H1671 C1681 0.929 . S
H1672 C1676 0.929 . S
H1673 C1682 0.929 . S
C1674 H1668 0.930 . S
C1674 C1675 1.367 . S
C1674 C1682 1.378 . S
C1675 C1674 1.367 . S
C1675 C1683 1.433 . S
C1676 H1672 0.929 . S
C1676 C1678 1.378 . S
C1676 C1680 1.350 . S
C1677 C1680 1.463 . S
C1677 C1682 1.350 . S
C1677 N1685 1.427 . S
C1678 H1669 0.930 . S
C1678 C1676 1.378 . S
C1678 C1679 1.367 . S
C1679 C1678 1.367 . S
C1679 C1681 1.433 . S
C1680 C1676 1.350 . S
C1680 C1677 1.463 . S
C1680 N1684 1.427 . S
C1681 H1671 0.929 . S
C1681 C1679 1.433 . S
C1681 N1684 1.384 . S
C1682 H1673 0.929 . S
C1682 C1674 1.378 . S
C1682 C1677 1.350 . S
C1683 H1670 0.929 . S
C1683 C1675 1.433 . S
C1683 N1685 1.384 . S
N1684 C1680 1.427 . S
N1684 C1681 1.384 . S
N1685 C1677 1.427 . S
N1685 C1683 1.384 . S
H1686 C1692 0.930 . S
H1687 C1696 0.930 . S
H1688 C1701 0.929 . S
H1689 C1699 0.929 . S
H1690 C1694 0.929 . S
H1691 C1700 0.929 . S
C1692 H1686 0.930 . S
C1692 C1693 1.367 . S
C1692 C1700 1.378 . S
C1693 C1692 1.367 . S
C1693 C1701 1.433 1_545 S
C1694 H1690 0.929 . S
C1694 C1696 1.378 . S
C1694 C1698 1.350 . S
C1695 C1698 1.463 1_546 S
C1695 C1700 1.350 . S
C1695 N1703 1.427 1_545 S
C1696 H1687 0.930 . S
C1696 C1694 1.378 . S
C1696 C1697 1.367 . S
C1697 C1696 1.367 . S
C1697 C1699 1.433 1_565 S
C1698 C1694 1.350 . S
C1698 C1695 1.463 1_564 S
C1698 N1702 1.427 1_565 S
C1699 H1689 0.929 . S
C1699 C1697 1.433 1_545 S
C1699 N1702 1.384 . S
C1700 H1691 0.929 . S
C1700 C1692 1.378 . S
C1700 C1695 1.350 . S
C1701 H1688 0.929 . S
C1701 C1693 1.433 1_565 S
C1701 N1703 1.384 . S
N1702 C1698 1.427 1_545 S
N1702 C1699 1.384 . S
N1703 C1695 1.427 1_565 S
N1703 C1701 1.384 . S
H1704 C1710 0.930 . S
H1705 C1714 0.930 . S
H1706 C1719 0.929 . S
H1707 C1717 0.929 . S
H1708 C1712 0.929 . S
H1709 C1718 0.929 . S
C1710 H1704 0.930 . S
C1710 C1711 1.367 . S
C1710 C1718 1.378 . S
C1711 C1710 1.367 . S
C1711 C1719 1.433 . S
C1712 H1708 0.929 . S
C1712 C1714 1.378 . S
C1712 C1716 1.350 . S
C1713 C1716 1.463 . S
C1713 C1718 1.350 . S
C1713 N1721 1.427 . S
C1714 H1705 0.930 . S
C1714 C1712 1.378 . S
C1714 C1715 1.367 . S
C1715 C1714 1.367 . S
C1715 C1717 1.433 . S
C1716 C1712 1.350 . S
C1716 C1713 1.463 . S
C1716 N1720 1.427 . S
C1717 H1707 0.929 . S
C1717 C1715 1.433 . S
C1717 N1720 1.384 . S
C1718 H1709 0.929 . S
C1718 C1710 1.378 . S
C1718 C1713 1.350 . S
C1719 H1706 0.929 . S
C1719 C1711 1.433 . S
C1719 N1721 1.384 . S
N1720 C1716 1.427 . S
N1720 C1717 1.384 . S
N1721 C1713 1.427 . S
N1721 C1719 1.384 . S
H1722 C1728 0.930 . S
H1723 C1732 0.930 . S
H1724 C1737 0.929 . S
H1725 C1735 0.929 . S
H1726 C1730 0.935 . S
H1727 C1736 0.935 . S
C1728 H1722 0.930 . S
C1728 C1729 1.367 . S
C1728 C1736 1.374 1_565 S
C1729 C1728 1.367 . S
C1729 C1737 1.433 . S
C1730 H1726 0.935 . S
C1730 C1732 1.374 1_565 S
C1730 C1734 1.348 1_565 S
C1731 C1734 1.463 1_565 S
C1731 C1736 1.348 1_565 S
C1731 N1739 1.427 . S
C1732 H1723 0.930 . S
C1732 C1730 1.374 1_545 S
C1732 C1733 1.367 . S
C1733 C1732 1.367 . S
C1733 C1735 1.433 . S
C1734 C1730 1.348 1_545 S
C1734 C1731 1.463 1_545 S
C1734 N1738 1.427 . S
C1735 H1725 0.929 . S
C1735 C1733 1.433 . S
C1735 N1738 1.384 . S
C1736 H1727 0.935 . S
C1736 C1728 1.374 1_545 S
C1736 C1731 1.348 1_545 S
C1737 H1724 0.929 . S
C1737 C1729 1.433 . S
C1737 N1739 1.384 . S
N1738 C1734 1.427 . S
N1738 C1735 1.384 . S
N1739 C1731 1.427 . S
N1739 C1737 1.384 . S
H1740 C1746 0.930 . S
H1741 C1750 0.930 . S
H1742 C1755 0.929 . S
H1743 C1753 0.929 . S
H1744 C1748 0.929 . S
H1745 C1754 0.929 . S
C1746 H1740 0.930 . S
C1746 C1747 1.367 . S
C1746 C1754 1.378 . S
C1747 C1746 1.367 . S
C1747 C1755 1.433 . S
C1748 H1744 0.929 . S
C1748 C1750 1.378 . S
C1748 C1752 1.350 . S
C1749 C1752 1.463 . S
C1749 C1754 1.350 . S
C1749 N1757 1.427 . S
C1750 H1741 0.930 . S
C1750 C1748 1.378 . S
C1750 C1751 1.367 . S
C1751 C1750 1.367 . S
C1751 C1753 1.433 . S
C1752 C1748 1.350 . S
C1752 C1749 1.463 . S
C1752 N1756 1.427 . S
C1753 H1743 0.929 . S
C1753 C1751 1.433 . S
C1753 N1756 1.384 . S
C1754 H1745 0.929 . S
C1754 C1746 1.378 . S
C1754 C1749 1.350 . S
C1755 H1742 0.929 . S
C1755 C1747 1.433 . S
C1755 N1757 1.384 . S
N1756 C1752 1.427 . S
N1756 C1753 1.384 . S
N1757 C1749 1.427 . S
N1757 C1755 1.384 . S
H1758 C1764 0.930 . S
H1759 C1768 0.930 . S
H1760 C1773 0.929 . S
H1761 C1771 0.929 . S
H1762 C1766 0.929 . S
H1763 C1772 0.929 . S
C1764 H1758 0.930 . S
C1764 C1765 1.367 . S
C1764 C1772 1.378 . S
C1765 C1764 1.367 . S
C1765 C1773 1.433 1_545 S
C1766 H1762 0.929 . S
C1766 C1768 1.378 . S
C1766 C1770 1.350 . S
C1767 C1770 1.463 1_546 S
C1767 C1772 1.350 . S
C1767 N1775 1.427 1_545 S
C1768 H1759 0.930 . S
C1768 C1766 1.378 . S
C1768 C1769 1.367 . S
C1769 C1768 1.367 . S
C1769 C1771 1.433 1_565 S
C1770 C1766 1.350 . S
C1770 C1767 1.463 1_564 S
C1770 N1774 1.427 1_565 S
C1771 H1761 0.929 . S
C1771 C1769 1.433 1_545 S
C1771 N1774 1.384 . S
C1772 H1763 0.929 . S
C1772 C1764 1.378 . S
C1772 C1767 1.350 . S
C1773 H1760 0.929 . S
C1773 C1765 1.433 1_565 S
C1773 N1775 1.384 . S
N1774 C1770 1.427 1_545 S
N1774 C1771 1.384 . S
N1775 C1767 1.427 1_565 S
N1775 C1773 1.384 . S
H1776 C1782 0.930 . S
H1777 C1786 0.930 . S
H1778 C1791 0.929 . S
H1779 C1789 0.929 . S
H1780 C1784 0.929 . S
H1781 C1790 0.929 . S
C1782 H1776 0.930 . S
C1782 C1783 1.367 . S
C1782 C1790 1.378 . S
C1783 C1782 1.367 . S
C1783 C1791 1.433 . S
C1784 H1780 0.929 . S
C1784 C1786 1.378 . S
C1784 C1788 1.350 . S
C1785 C1788 1.463 . S
C1785 C1790 1.350 . S
C1785 N1793 1.427 . S
C1786 H1777 0.930 . S
C1786 C1784 1.378 . S
C1786 C1787 1.367 . S
C1787 C1786 1.367 . S
C1787 C1789 1.433 . S
C1788 C1784 1.350 . S
C1788 C1785 1.463 . S
C1788 N1792 1.427 . S
C1789 H1779 0.929 . S
C1789 C1787 1.433 . S
C1789 N1792 1.384 . S
C1790 H1781 0.929 . S
C1790 C1782 1.378 . S
C1790 C1785 1.350 . S
C1791 H1778 0.929 . S
C1791 C1783 1.433 . S
C1791 N1793 1.384 . S
N1792 C1788 1.427 . S
N1792 C1789 1.384 . S
N1793 C1785 1.427 . S
N1793 C1791 1.384 . S
H1794 C1800 0.930 . S
H1795 C1804 0.930 . S
H1796 C1809 0.929 . S
H1797 C1807 0.929 . S
H1798 C1802 0.929 . S
H1799 C1808 0.929 . S
C1800 H1794 0.930 . S
C1800 C1801 1.367 . S
C1800 C1808 1.378 . S
C1801 C1800 1.367 . S
C1801 C1809 1.433 . S
C1802 H1798 0.929 . S
C1802 C1804 1.378 . S
C1802 C1806 1.350 . S
C1803 C1806 1.463 1_554 S
C1803 C1808 1.350 . S
C1803 N1811 1.427 . S
C1804 H1795 0.930 . S
C1804 C1802 1.378 . S
C1804 C1805 1.367 . S
C1805 C1804 1.367 . S
C1805 C1807 1.433 . S
C1806 C1802 1.350 . S
C1806 C1803 1.463 1_556 S
C1806 N1810 1.427 . S
C1807 H1797 0.929 . S
C1807 C1805 1.433 . S
C1807 N1810 1.384 . S
C1808 H1799 0.929 . S
C1808 C1800 1.378 . S
C1808 C1803 1.350 . S
C1809 H1796 0.929 . S
C1809 C1801 1.433 . S
C1809 N1811 1.384 . S
N1810 C1806 1.427 . S
N1810 C1807 1.384 . S
N1811 C1803 1.427 . S
N1811 C1809 1.384 . S
H1812 C1818 0.930 . S
H1813 C1822 0.930 . S
H1814 C1827 0.929 . S
H1815 C1825 0.929 . S
H1816 C1820 0.929 . S
H1817 C1826 0.929 . S
C1818 H1812 0.930 . S
C1818 C1819 1.367 . S
C1818 C1826 1.378 . S
C1819 C1818 1.367 . S
C1819 C1827 1.433 . S
C1820 H1816 0.929 . S
C1820 C1822 1.378 . S
C1820 C1824 1.350 . S
C1821 C1824 1.463 . S
C1821 C1826 1.350 . S
C1821 N1829 1.427 . S
C1822 H1813 0.930 . S
C1822 C1820 1.378 . S
C1822 C1823 1.367 . S
C1823 C1822 1.367 . S
C1823 C1825 1.433 . S
C1824 C1820 1.350 . S
C1824 C1821 1.463 . S
C1824 N1828 1.427 . S
C1825 H1815 0.929 . S
C1825 C1823 1.433 . S
C1825 N1828 1.384 . S
C1826 H1817 0.929 . S
C1826 C1818 1.378 . S
C1826 C1821 1.350 . S
C1827 H1814 0.929 . S
C1827 C1819 1.433 . S
C1827 N1829 1.384 . S
N1828 C1824 1.427 . S
N1828 C1825 1.384 . S
N1829 C1821 1.427 . S
N1829 C1827 1.384 . S
H1830 C1836 0.930 . S
H1831 C1840 0.930 . S
H1832 C1845 0.929 . S
H1833 C1843 0.929 . S
H1834 C1838 0.929 . S
H1835 C1844 0.929 . S
C1836 H1830 0.930 . S
C1836 C1837 1.367 . S
C1836 C1844 1.378 . S
C1837 C1836 1.367 . S
C1837 C1845 1.433 . S
C1838 H1834 0.929 . S
C1838 C1840 1.378 . S
C1838 C1842 1.350 . S
C1839 C1842 1.463 . S
C1839 C1844 1.350 . S
C1839 N1847 1.427 . S
C1840 H1831 0.930 . S
C1840 C1838 1.378 . S
C1840 C1841 1.367 . S
C1841 C1840 1.367 . S
C1841 C1843 1.433 . S
C1842 C1838 1.350 . S
C1842 C1839 1.463 . S
C1842 N1846 1.427 . S
C1843 H1833 0.929 . S
C1843 C1841 1.433 . S
C1843 N1846 1.384 . S
C1844 H1835 0.929 . S
C1844 C1836 1.378 . S
C1844 C1839 1.350 . S
C1845 H1832 0.929 . S
C1845 C1837 1.433 . S
C1845 N1847 1.384 . S
N1846 C1842 1.427 . S
N1846 C1843 1.384 . S
N1847 C1839 1.427 . S
N1847 C1845 1.384 . S
H1848 C1854 0.930 . S
H1849 C1858 0.930 . S
H1850 C1863 0.929 . S
H1851 C1861 0.929 . S
H1852 C1856 0.929 . S
H1853 C1862 0.929 . S
C1854 H1848 0.930 . S
C1854 C1855 1.367 . S
C1854 C1862 1.378 . S
C1855 C1854 1.367 . S
C1855 C1863 1.433 . S
C1856 H1852 0.929 . S
C1856 C1858 1.378 . S
C1856 C1860 1.350 . S
C1857 C1860 1.463 . S
C1857 C1862 1.350 . S
C1857 N1865 1.427 . S
C1858 H1849 0.930 . S
C1858 C1856 1.378 . S
C1858 C1859 1.367 . S
C1859 C1858 1.367 . S
C1859 C1861 1.433 . S
C1860 C1856 1.350 . S
C1860 C1857 1.463 . S
C1860 N1864 1.427 . S
C1861 H1851 0.929 . S
C1861 C1859 1.433 . S
C1861 N1864 1.384 . S
C1862 H1853 0.929 . S
C1862 C1854 1.378 . S
C1862 C1857 1.350 . S
C1863 H1850 0.929 . S
C1863 C1855 1.433 . S
C1863 N1865 1.384 . S
N1864 C1860 1.427 . S
N1864 C1861 1.384 . S
N1865 C1857 1.427 . S
N1865 C1863 1.384 . S
H1866 C1872 0.930 . S
H1867 C1876 0.930 . S
H1868 C1881 0.929 . S
H1869 C1879 0.929 . S
H1870 C1874 0.929 . S
H1871 C1880 0.929 . S
C1872 H1866 0.930 . S
C1872 C1873 1.367 . S
C1872 C1880 1.378 . S
C1873 C1872 1.367 . S
C1873 C1881 1.433 . S
C1874 H1870 0.929 . S
C1874 C1876 1.378 . S
C1874 C1878 1.350 . S
C1875 C1878 1.463 1_556 S
C1875 C1880 1.350 . S
C1875 N1883 1.427 . S
C1876 H1867 0.930 . S
C1876 C1874 1.378 . S
C1876 C1877 1.367 . S
C1877 C1876 1.367 . S
C1877 C1879 1.433 . S
C1878 C1874 1.350 . S
C1878 C1875 1.463 1_554 S
C1878 N1882 1.427 . S
C1879 H1869 0.929 . S
C1879 C1877 1.433 . S
C1879 N1882 1.384 . S
C1880 H1871 0.929 . S
C1880 C1872 1.378 . S
C1880 C1875 1.350 . S
C1881 H1868 0.929 . S
C1881 C1873 1.433 . S
C1881 N1883 1.384 . S
N1882 C1878 1.427 . S
N1882 C1879 1.384 . S
N1883 C1875 1.427 . S
N1883 C1881 1.384 . S
H1884 C1890 0.930 . S
H1885 C1894 0.930 . S
H1886 C1899 0.929 . S
H1887 C1897 0.929 . S
H1888 C1892 0.929 . S
H1889 C1898 0.929 . S
C1890 H1884 0.930 . S
C1890 C1891 1.367 . S
C1890 C1898 1.378 . S
C1891 C1890 1.367 . S
C1891 C1899 1.433 . S
C1892 H1888 0.929 . S
C1892 C1894 1.378 . S
C1892 C1896 1.350 . S
C1893 C1896 1.463 . S
C1893 C1898 1.350 . S
C1893 N1901 1.427 . S
C1894 H1885 0.930 . S
C1894 C1892 1.378 . S
C1894 C1895 1.367 . S
C1895 C1894 1.367 . S
C1895 C1897 1.433 . S
C1896 C1892 1.350 . S
C1896 C1893 1.463 . S
C1896 N1900 1.427 . S
C1897 H1887 0.929 . S
C1897 C1895 1.433 . S
C1897 N1900 1.384 . S
C1898 H1889 0.929 . S
C1898 C1890 1.378 . S
C1898 C1893 1.350 . S
C1899 H1886 0.929 . S
C1899 C1891 1.433 . S
C1899 N1901 1.384 . S
N1900 C1896 1.427 . S
N1900 C1897 1.384 . S
N1901 C1893 1.427 . S
N1901 C1899 1.384 . S
H1902 C1908 0.930 . S
H1903 C1912 0.930 . S
H1904 C1917 0.929 . S
H1905 C1915 0.929 . S
H1906 C1910 0.929 . S
H1907 C1916 0.929 . S
C1908 H1902 0.930 . S
C1908 C1909 1.367 . S
C1908 C1916 1.378 . S
C1909 C1908 1.367 . S
C1909 C1917 1.433 . S
C1910 H1906 0.929 . S
C1910 C1912 1.378 . S
C1910 C1914 1.350 . S
C1911 C1914 1.463 . S
C1911 C1916 1.350 . S
C1911 N1919 1.427 . S
C1912 H1903 0.930 . S
C1912 C1910 1.378 . S
C1912 C1913 1.367 . S
C1913 C1912 1.367 . S
C1913 C1915 1.433 . S
C1914 C1910 1.350 . S
C1914 C1911 1.463 . S
C1914 N1918 1.427 . S
C1915 H1905 0.929 . S
C1915 C1913 1.433 . S
C1915 N1918 1.384 . S
C1916 H1907 0.929 . S
C1916 C1908 1.378 . S
C1916 C1911 1.350 . S
C1917 H1904 0.929 . S
C1917 C1909 1.433 . S
C1917 N1919 1.384 . S
N1918 C1914 1.427 . S
N1918 C1915 1.384 . S
N1919 C1911 1.427 . S
N1919 C1917 1.384 . S
H1920 C1926 0.930 . S
H1921 C1930 0.930 . S
H1922 C1935 0.929 . S
H1923 C1933 0.929 . S
H1924 C1928 0.929 . S
H1925 C1934 0.929 . S
C1926 H1920 0.930 . S
C1926 C1927 1.367 . S
C1926 C1934 1.378 . S
C1927 C1926 1.367 . S
C1927 C1935 1.433 . S
C1928 H1924 0.929 . S
C1928 C1930 1.378 . S
C1928 C1932 1.350 . S
C1929 C1932 1.463 . S
C1929 C1934 1.350 . S
C1929 N1937 1.427 . S
C1930 H1921 0.930 . S
C1930 C1928 1.378 . S
C1930 C1931 1.367 . S
C1931 C1930 1.367 . S
C1931 C1933 1.433 . S
C1932 C1928 1.350 . S
C1932 C1929 1.463 . S
C1932 N1936 1.427 . S
C1933 H1923 0.929 . S
C1933 C1931 1.433 . S
C1933 N1936 1.384 . S
C1934 H1925 0.929 . S
C1934 C1926 1.378 . S
C1934 C1929 1.350 . S
C1935 H1922 0.929 . S
C1935 C1927 1.433 . S
C1935 N1937 1.384 . S
N1936 C1932 1.427 . S
N1936 C1933 1.384 . S
N1937 C1929 1.427 . S
N1937 C1935 1.384 . S
H1938 C1944 0.930 . S
H1939 C1948 0.930 . S
H1940 C1953 0.929 . S
H1941 C1951 0.929 . S
H1942 C1946 0.929 . S
H1943 C1952 0.929 . S
C1944 H1938 0.930 . S
C1944 C1945 1.367 . S
C1944 C1952 1.378 . S
C1945 C1944 1.367 . S
C1945 C1953 1.433 . S
C1946 H1942 0.929 . S
C1946 C1948 1.378 . S
C1946 C1950 1.350 . S
C1947 C1950 1.463 . S
C1947 C1952 1.350 . S
C1947 N1955 1.427 . S
C1948 H1939 0.930 . S
C1948 C1946 1.378 . S
C1948 C1949 1.367 . S
C1949 C1948 1.367 . S
C1949 C1951 1.433 . S
C1950 C1946 1.350 . S
C1950 C1947 1.463 . S
C1950 N1954 1.427 . S
C1951 H1941 0.929 . S
C1951 C1949 1.433 . S
C1951 N1954 1.384 . S
C1952 H1943 0.929 . S
C1952 C1944 1.378 . S
C1952 C1947 1.350 . S
C1953 H1940 0.929 . S
C1953 C1945 1.433 . S
C1953 N1955 1.384 . S
N1954 C1950 1.427 . S
N1954 C1951 1.384 . S
N1955 C1947 1.427 . S
N1955 C1953 1.384 . S
H1956 C1962 0.930 . S
H1957 C1966 0.930 . S
H1958 C1971 0.929 . S
H1959 C1969 0.929 . S
H1960 C1964 0.929 . S
H1961 C1970 0.929 . S
C1962 H1956 0.930 . S
C1962 C1963 1.367 . S
C1962 C1970 1.378 . S
C1963 C1962 1.367 . S
C1963 C1971 1.433 . S
C1964 H1960 0.929 . S
C1964 C1966 1.378 . S
C1964 C1968 1.350 . S
C1965 C1968 1.463 . S
C1965 C1970 1.350 . S
C1965 N1973 1.427 . S
C1966 H1957 0.930 . S
C1966 C1964 1.378 . S
C1966 C1967 1.367 . S
C1967 C1966 1.367 . S
C1967 C1969 1.433 . S
C1968 C1964 1.350 . S
C1968 C1965 1.463 . S
C1968 N1972 1.427 . S
C1969 H1959 0.929 . S
C1969 C1967 1.433 . S
C1969 N1972 1.384 . S
C1970 H1961 0.929 . S
C1970 C1962 1.378 . S
C1970 C1965 1.350 . S
C1971 H1958 0.929 . S
C1971 C1963 1.433 . S
C1971 N1973 1.384 . S
N1972 C1968 1.427 . S
N1972 C1969 1.384 . S
N1973 C1965 1.427 . S
N1973 C1971 1.384 . S
H1974 C1980 0.930 . S
H1975 C1984 0.930 . S
H1976 C1989 0.929 . S
H1977 C1987 0.929 . S
H1978 C1982 0.929 . S
H1979 C1988 0.929 . S
C1980 H1974 0.930 . S
C1980 C1981 1.367 . S
C1980 C1988 1.378 . S
C1981 C1980 1.367 . S
C1981 C1989 1.433 . S
C1982 H1978 0.929 . S
C1982 C1984 1.378 . S
C1982 C1986 1.350 . S
C1983 C1986 1.463 . S
C1983 C1988 1.350 . S
C1983 N1991 1.427 . S
C1984 H1975 0.930 . S
C1984 C1982 1.378 . S
C1984 C1985 1.367 . S
C1985 C1984 1.367 . S
C1985 C1987 1.433 . S
C1986 C1982 1.350 . S
C1986 C1983 1.463 . S
C1986 N1990 1.427 . S
C1987 H1977 0.929 . S
C1987 C1985 1.433 . S
C1987 N1990 1.384 . S
C1988 H1979 0.929 . S
C1988 C1980 1.378 . S
C1988 C1983 1.350 . S
C1989 H1976 0.929 . S
C1989 C1981 1.433 . S
C1989 N1991 1.384 . S
N1990 C1986 1.427 . S
N1990 C1987 1.384 . S
N1991 C1983 1.427 . S
N1991 C1989 1.384 . S
H1992 C1998 0.930 . S
H1993 C2002 0.930 . S
H1994 C2007 0.929 . S
H1995 C2005 0.929 . S
H1996 C2000 0.929 . S
H1997 C2006 0.929 . S
C1998 H1992 0.930 . S
C1998 C1999 1.367 . S
C1998 C2006 1.378 . S
C1999 C1998 1.367 . S
C1999 C2007 1.433 . S
C2000 H1996 0.929 . S
C2000 C2002 1.378 . S
C2000 C2004 1.350 . S
C2001 C2004 1.463 . S
C2001 C2006 1.350 . S
C2001 N2009 1.427 . S
C2002 H1993 0.930 . S
C2002 C2000 1.378 . S
C2002 C2003 1.367 . S
C2003 C2002 1.367 . S
C2003 C2005 1.433 . S
C2004 C2000 1.350 . S
C2004 C2001 1.463 . S
C2004 N2008 1.427 . S
C2005 H1995 0.929 . S
C2005 C2003 1.433 . S
C2005 N2008 1.384 . S
C2006 H1997 0.929 . S
C2006 C1998 1.378 . S
C2006 C2001 1.350 . S
C2007 H1994 0.929 . S
C2007 C1999 1.433 . S
C2007 N2009 1.384 . S
N2008 C2004 1.427 . S
N2008 C2005 1.384 . S
N2009 C2001 1.427 . S
N2009 C2007 1.384 . S
H2010 C2016 0.930 . S
H2011 C2020 0.930 . S
H2012 C2025 0.929 . S
H2013 C2023 0.929 . S
H2014 C2018 0.929 . S
H2015 C2024 0.929 . S
C2016 H2010 0.930 . S
C2016 C2017 1.367 . S
C2016 C2024 1.378 . S
C2017 C2016 1.367 . S
C2017 C2025 1.433 . S
C2018 H2014 0.929 . S
C2018 C2020 1.378 . S
C2018 C2022 1.350 . S
C2019 C2022 1.463 . S
C2019 C2024 1.350 . S
C2019 N2027 1.427 . S
C2020 H2011 0.930 . S
C2020 C2018 1.378 . S
C2020 C2021 1.367 . S
C2021 C2020 1.367 . S
C2021 C2023 1.433 . S
C2022 C2018 1.350 . S
C2022 C2019 1.463 . S
C2022 N2026 1.427 . S
C2023 H2013 0.929 . S
C2023 C2021 1.433 . S
C2023 N2026 1.384 . S
C2024 H2015 0.929 . S
C2024 C2016 1.378 . S
C2024 C2019 1.350 . S
C2025 H2012 0.929 . S
C2025 C2017 1.433 . S
C2025 N2027 1.384 . S
N2026 C2022 1.427 . S
N2026 C2023 1.384 . S
N2027 C2019 1.427 . S
N2027 C2025 1.384 . S
H2028 C2034 0.930 . S
H2029 C2038 0.930 . S
H2030 C2043 0.929 . S
H2031 C2041 0.929 . S
H2032 C2036 0.929 . S
H2033 C2042 0.929 . S
C2034 H2028 0.930 . S
C2034 C2035 1.367 . S
C2034 C2042 1.378 . S
C2035 C2034 1.367 . S
C2035 C2043 1.433 . S
C2036 H2032 0.929 . S
C2036 C2038 1.378 . S
C2036 C2040 1.350 . S
C2037 C2040 1.463 . S
C2037 C2042 1.350 . S
C2037 N2045 1.427 . S
C2038 H2029 0.930 . S
C2038 C2036 1.378 . S
C2038 C2039 1.367 . S
C2039 C2038 1.367 . S
C2039 C2041 1.433 . S
C2040 C2036 1.350 . S
C2040 C2037 1.463 . S
C2040 N2044 1.427 . S
C2041 H2031 0.929 . S
C2041 C2039 1.433 . S
C2041 N2044 1.384 . S
C2042 H2033 0.929 . S
C2042 C2034 1.378 . S
C2042 C2037 1.350 . S
C2043 H2030 0.929 . S
C2043 C2035 1.433 . S
C2043 N2045 1.384 . S
N2044 C2040 1.427 . S
N2044 C2041 1.384 . S
N2045 C2037 1.427 . S
N2045 C2043 1.384 . S
H2046 C2052 0.930 . S
H2047 C2056 0.930 . S
H2048 C2061 0.929 . S
H2049 C2059 0.929 . S
H2050 C2054 0.929 . S
H2051 C2060 0.929 . S
C2052 H2046 0.930 . S
C2052 C2053 1.367 . S
C2052 C2060 1.378 . S
C2053 C2052 1.367 . S
C2053 C2061 1.433 . S
C2054 H2050 0.929 . S
C2054 C2056 1.378 . S
C2054 C2058 1.350 . S
C2055 C2058 1.463 . S
C2055 C2060 1.350 . S
C2055 N2063 1.427 . S
C2056 H2047 0.930 . S
C2056 C2054 1.378 . S
C2056 C2057 1.367 . S
C2057 C2056 1.367 . S
C2057 C2059 1.433 . S
C2058 C2054 1.350 . S
C2058 C2055 1.463 . S
C2058 N2062 1.427 . S
C2059 H2049 0.929 . S
C2059 C2057 1.433 . S
C2059 N2062 1.384 . S
C2060 H2051 0.929 . S
C2060 C2052 1.378 . S
C2060 C2055 1.350 . S
C2061 H2048 0.929 . S
C2061 C2053 1.433 . S
C2061 N2063 1.384 . S
N2062 C2058 1.427 . S
N2062 C2059 1.384 . S
N2063 C2055 1.427 . S
N2063 C2061 1.384 . S
H2064 C2070 0.930 . S
H2065 C2074 0.930 . S
H2066 C2079 0.929 . S
H2067 C2077 0.929 . S
H2068 C2072 0.929 . S
H2069 C2078 0.929 . S
C2070 H2064 0.930 . S
C2070 C2071 1.367 . S
C2070 C2078 1.378 . S
C2071 C2070 1.367 . S
C2071 C2079 1.433 . S
C2072 H2068 0.929 . S
C2072 C2074 1.378 . S
C2072 C2076 1.350 . S
C2073 C2076 1.463 . S
C2073 C2078 1.350 . S
C2073 N2081 1.427 . S
C2074 H2065 0.930 . S
C2074 C2072 1.378 . S
C2074 C2075 1.367 . S
C2075 C2074 1.367 . S
C2075 C2077 1.433 . S
C2076 C2072 1.350 . S
C2076 C2073 1.463 . S
C2076 N2080 1.427 . S
C2077 H2067 0.929 . S
C2077 C2075 1.433 . S
C2077 N2080 1.384 . S
C2078 H2069 0.929 . S
C2078 C2070 1.378 . S
C2078 C2073 1.350 . S
C2079 H2066 0.929 . S
C2079 C2071 1.433 . S
C2079 N2081 1.384 . S
N2080 C2076 1.427 . S
N2080 C2077 1.384 . S
N2081 C2073 1.427 . S
N2081 C2079 1.384 . S
H2082 C2088 0.930 . S
H2083 C2092 0.930 . S
H2084 C2097 0.929 . S
H2085 C2095 0.929 . S
H2086 C2090 0.929 . S
H2087 C2096 0.929 . S
C2088 H2082 0.930 . S
C2088 C2089 1.367 . S
C2088 C2096 1.378 . S
C2089 C2088 1.367 . S
C2089 C2097 1.433 . S
C2090 H2086 0.929 . S
C2090 C2092 1.378 . S
C2090 C2094 1.350 . S
C2091 C2094 1.463 . S
C2091 C2096 1.350 . S
C2091 N2099 1.427 . S
C2092 H2083 0.930 . S
C2092 C2090 1.378 . S
C2092 C2093 1.367 . S
C2093 C2092 1.367 . S
C2093 C2095 1.433 . S
C2094 C2090 1.350 . S
C2094 C2091 1.463 . S
C2094 N2098 1.427 . S
C2095 H2085 0.929 . S
C2095 C2093 1.433 . S
C2095 N2098 1.384 . S
C2096 H2087 0.929 . S
C2096 C2088 1.378 . S
C2096 C2091 1.350 . S
C2097 H2084 0.929 . S
C2097 C2089 1.433 . S
C2097 N2099 1.384 . S
N2098 C2094 1.427 . S
N2098 C2095 1.384 . S
N2099 C2091 1.427 . S
N2099 C2097 1.384 . S
H2100 C2106 0.930 . S
H2101 C2110 0.930 . S
H2102 C2115 0.929 . S
H2103 C2113 0.929 . S
H2104 C2108 0.929 . S
H2105 C2114 0.929 . S
C2106 H2100 0.930 . S
C2106 C2107 1.367 . S
C2106 C2114 1.378 . S
C2107 C2106 1.367 . S
C2107 C2115 1.433 . S
C2108 H2104 0.929 . S
C2108 C2110 1.378 . S
C2108 C2112 1.350 . S
C2109 C2112 1.463 . S
C2109 C2114 1.350 . S
C2109 N2117 1.427 . S
C2110 H2101 0.930 . S
C2110 C2108 1.378 . S
C2110 C2111 1.367 . S
C2111 C2110 1.367 . S
C2111 C2113 1.433 . S
C2112 C2108 1.350 . S
C2112 C2109 1.463 . S
C2112 N2116 1.427 . S
C2113 H2103 0.929 . S
C2113 C2111 1.433 . S
C2113 N2116 1.384 . S
C2114 H2105 0.929 . S
C2114 C2106 1.378 . S
C2114 C2109 1.350 . S
C2115 H2102 0.929 . S
C2115 C2107 1.433 . S
C2115 N2117 1.384 . S
N2116 C2112 1.427 . S
N2116 C2113 1.384 . S
N2117 C2109 1.427 . S
N2117 C2115 1.384 . S
H2118 C2124 0.930 . S
H2119 C2128 0.930 . S
H2120 C2133 0.929 . S
H2121 C2131 0.929 . S
H2122 C2126 0.929 . S
H2123 C2132 0.929 . S
C2124 H2118 0.930 . S
C2124 C2125 1.367 . S
C2124 C2132 1.378 . S
C2125 C2124 1.367 . S
C2125 C2133 1.433 . S
C2126 H2122 0.929 . S
C2126 C2128 1.378 . S
C2126 C2130 1.350 . S
C2127 C2130 1.463 . S
C2127 C2132 1.350 . S
C2127 N2135 1.427 . S
C2128 H2119 0.930 . S
C2128 C2126 1.378 . S
C2128 C2129 1.367 . S
C2129 C2128 1.367 . S
C2129 C2131 1.433 . S
C2130 C2126 1.350 . S
C2130 C2127 1.463 . S
C2130 N2134 1.427 . S
C2131 H2121 0.929 . S
C2131 C2129 1.433 . S
C2131 N2134 1.384 . S
C2132 H2123 0.929 . S
C2132 C2124 1.378 . S
C2132 C2127 1.350 . S
C2133 H2120 0.929 . S
C2133 C2125 1.433 . S
C2133 N2135 1.384 . S
N2134 C2130 1.427 . S
N2134 C2131 1.384 . S
N2135 C2127 1.427 . S
N2135 C2133 1.384 . S
H2136 C2142 0.930 . S
H2137 C2146 0.930 . S
H2138 C2151 0.929 . S
H2139 C2149 0.929 . S
H2140 C2144 0.929 . S
H2141 C2150 0.929 . S
C2142 H2136 0.930 . S
C2142 C2143 1.367 . S
C2142 C2150 1.378 . S
C2143 C2142 1.367 . S
C2143 C2151 1.433 . S
C2144 H2140 0.929 . S
C2144 C2146 1.378 . S
C2144 C2148 1.350 . S
C2145 C2148 1.463 . S
C2145 C2150 1.350 . S
C2145 N2153 1.427 . S
C2146 H2137 0.930 . S
C2146 C2144 1.378 . S
C2146 C2147 1.367 . S
C2147 C2146 1.367 . S
C2147 C2149 1.433 . S
C2148 C2144 1.350 . S
C2148 C2145 1.463 . S
C2148 N2152 1.427 . S
C2149 H2139 0.929 . S
C2149 C2147 1.433 . S
C2149 N2152 1.384 . S
C2150 H2141 0.929 . S
C2150 C2142 1.378 . S
C2150 C2145 1.350 . S
C2151 H2138 0.929 . S
C2151 C2143 1.433 . S
C2151 N2153 1.384 . S
N2152 C2148 1.427 . S
N2152 C2149 1.384 . S
N2153 C2145 1.427 . S
N2153 C2151 1.384 . S
H2154 C2160 0.930 . S
H2155 C2164 0.930 . S
H2156 C2169 0.929 . S
H2157 C2167 0.929 . S
H2158 C2162 0.929 . S
H2159 C2168 0.929 . S
C2160 H2154 0.930 . S
C2160 C2161 1.367 . S
C2160 C2168 1.378 . S
C2161 C2160 1.367 . S
C2161 C2169 1.433 . S
C2162 H2158 0.929 . S
C2162 C2164 1.378 . S
C2162 C2166 1.350 . S
C2163 C2166 1.463 . S
C2163 C2168 1.350 . S
C2163 N2171 1.427 . S
C2164 H2155 0.930 . S
C2164 C2162 1.378 . S
C2164 C2165 1.367 . S
C2165 C2164 1.367 . S
C2165 C2167 1.433 . S
C2166 C2162 1.350 . S
C2166 C2163 1.463 . S
C2166 N2170 1.427 . S
C2167 H2157 0.929 . S
C2167 C2165 1.433 . S
C2167 N2170 1.384 . S
C2168 H2159 0.929 . S
C2168 C2160 1.378 . S
C2168 C2163 1.350 . S
C2169 H2156 0.929 . S
C2169 C2161 1.433 . S
C2169 N2171 1.384 . S
N2170 C2166 1.427 . S
N2170 C2167 1.384 . S
N2171 C2163 1.427 . S
N2171 C2169 1.384 . S
H2172 C2178 0.930 . S
H2173 C2182 0.930 . S
H2174 C2187 0.929 . S
H2175 C2185 0.929 . S
H2176 C2180 0.929 . S
H2177 C2186 0.929 . S
C2178 H2172 0.930 . S
C2178 C2179 1.367 . S
C2178 C2186 1.378 . S
C2179 C2178 1.367 . S
C2179 C2187 1.433 . S
C2180 H2176 0.929 . S
C2180 C2182 1.378 . S
C2180 C2184 1.350 . S
C2181 C2184 1.463 . S
C2181 C2186 1.350 . S
C2181 N2189 1.427 . S
C2182 H2173 0.930 . S
C2182 C2180 1.378 . S
C2182 C2183 1.367 . S
C2183 C2182 1.367 . S
C2183 C2185 1.433 . S
C2184 C2180 1.350 . S
C2184 C2181 1.463 . S
C2184 N2188 1.427 . S
C2185 H2175 0.929 . S
C2185 C2183 1.433 . S
C2185 N2188 1.384 . S
C2186 H2177 0.929 . S
C2186 C2178 1.378 . S
C2186 C2181 1.350 . S
C2187 H2174 0.929 . S
C2187 C2179 1.433 . S
C2187 N2189 1.384 . S
N2188 C2184 1.427 . S
N2188 C2185 1.384 . S
N2189 C2181 1.427 . S
N2189 C2187 1.384 . S
H2190 C2196 0.930 . S
H2191 C2200 0.930 . S
H2192 C2205 0.929 . S
H2193 C2203 0.929 . S
H2194 C2198 0.929 . S
H2195 C2204 0.929 . S
C2196 H2190 0.930 . S
C2196 C2197 1.367 . S
C2196 C2204 1.378 . S
C2197 C2196 1.367 . S
C2197 C2205 1.433 . S
C2198 H2194 0.929 . S
C2198 C2200 1.378 . S
C2198 C2202 1.350 . S
C2199 C2202 1.463 . S
C2199 C2204 1.350 . S
C2199 N2207 1.427 . S
C2200 H2191 0.930 . S
C2200 C2198 1.378 . S
C2200 C2201 1.367 . S
C2201 C2200 1.367 . S
C2201 C2203 1.433 . S
C2202 C2198 1.350 . S
C2202 C2199 1.463 . S
C2202 N2206 1.427 . S
C2203 H2193 0.929 . S
C2203 C2201 1.433 . S
C2203 N2206 1.384 . S
C2204 H2195 0.929 . S
C2204 C2196 1.378 . S
C2204 C2199 1.350 . S
C2205 H2192 0.929 . S
C2205 C2197 1.433 . S
C2205 N2207 1.384 . S
N2206 C2202 1.427 . S
N2206 C2203 1.384 . S
N2207 C2199 1.427 . S
N2207 C2205 1.384 . S
H2208 C2214 0.930 . S
H2209 C2218 0.930 . S
H2210 C2223 0.929 . S
H2211 C2221 0.929 . S
H2212 C2216 0.929 . S
H2213 C2222 0.929 . S
C2214 H2208 0.930 . S
C2214 C2215 1.367 . S
C2214 C2222 1.378 . S
C2215 C2214 1.367 . S
C2215 C2223 1.433 . S
C2216 H2212 0.929 . S
C2216 C2218 1.378 . S
C2216 C2220 1.350 . S
C2217 C2220 1.463 . S
C2217 C2222 1.350 . S
C2217 N2225 1.427 . S
C2218 H2209 0.930 . S
C2218 C2216 1.378 . S
C2218 C2219 1.367 . S
C2219 C2218 1.367 . S
C2219 C2221 1.433 . S
C2220 C2216 1.350 . S
C2220 C2217 1.463 . S
C2220 N2224 1.427 . S
C2221 H2211 0.929 . S
C2221 C2219 1.433 . S
C2221 N2224 1.384 . S
C2222 H2213 0.929 . S
C2222 C2214 1.378 . S
C2222 C2217 1.350 . S
C2223 H2210 0.929 . S
C2223 C2215 1.433 . S
C2223 N2225 1.384 . S
N2224 C2220 1.427 . S
N2224 C2221 1.384 . S
N2225 C2217 1.427 . S
N2225 C2223 1.384 . S
H2226 C2232 0.930 . S
H2227 C2236 0.930 . S
H2228 C2241 0.929 . S
H2229 C2239 0.929 . S
H2230 C2234 0.929 . S
H2231 C2240 0.929 . S
C2232 H2226 0.930 . S
C2232 C2233 1.367 . S
C2232 C2240 1.378 . S
C2233 C2232 1.367 . S
C2233 C2241 1.433 . S
C2234 H2230 0.929 . S
C2234 C2236 1.378 . S
C2234 C2238 1.350 . S
C2235 C2238 1.463 1_655 S
C2235 C2240 1.350 . S
C2235 N2243 1.427 . S
C2236 H2227 0.930 . S
C2236 C2234 1.378 . S
C2236 C2237 1.367 . S
C2237 C2236 1.367 . S
C2237 C2239 1.433 . S
C2238 C2234 1.350 . S
C2238 C2235 1.463 1_455 S
C2238 N2242 1.427 . S
C2239 H2229 0.929 . S
C2239 C2237 1.433 . S
C2239 N2242 1.384 . S
C2240 H2231 0.929 . S
C2240 C2232 1.378 . S
C2240 C2235 1.350 . S
C2241 H2228 0.929 . S
C2241 C2233 1.433 . S
C2241 N2243 1.384 . S
N2242 C2238 1.427 . S
N2242 C2239 1.384 . S
N2243 C2235 1.427 . S
N2243 C2241 1.384 . S
H2244 C2250 0.930 . S
H2245 C2254 0.930 . S
H2246 C2259 0.929 . S
H2247 C2257 0.929 . S
H2248 C2252 0.929 . S
H2249 C2258 0.929 . S
C2250 H2244 0.930 . S
C2250 C2251 1.367 . S
C2250 C2258 1.378 . S
C2251 C2250 1.367 . S
C2251 C2259 1.433 . S
C2252 H2248 0.929 . S
C2252 C2254 1.378 . S
C2252 C2256 1.350 . S
C2253 C2256 1.463 . S
C2253 C2258 1.350 . S
C2253 N2261 1.427 . S
C2254 H2245 0.930 . S
C2254 C2252 1.378 . S
C2254 C2255 1.367 . S
C2255 C2254 1.367 . S
C2255 C2257 1.433 . S
C2256 C2252 1.350 . S
C2256 C2253 1.463 . S
C2256 N2260 1.427 . S
C2257 H2247 0.929 . S
C2257 C2255 1.433 . S
C2257 N2260 1.384 . S
C2258 H2249 0.929 . S
C2258 C2250 1.378 . S
C2258 C2253 1.350 . S
C2259 H2246 0.929 . S
C2259 C2251 1.433 . S
C2259 N2261 1.384 . S
N2260 C2256 1.427 . S
N2260 C2257 1.384 . S
N2261 C2253 1.427 . S
N2261 C2259 1.384 . S
H2262 C2268 0.930 . S
H2263 C2272 0.930 . S
H2264 C2277 0.929 . S
H2265 C2275 0.929 . S
H2266 C2270 0.929 . S
H2267 C2276 0.929 . S
C2268 H2262 0.930 . S
C2268 C2269 1.367 . S
C2268 C2276 1.378 . S
C2269 C2268 1.367 . S
C2269 C2277 1.433 . S
C2270 H2266 0.929 . S
C2270 C2272 1.378 . S
C2270 C2274 1.350 . S
C2271 C2274 1.463 . S
C2271 C2276 1.350 . S
C2271 N2279 1.427 . S
C2272 H2263 0.930 . S
C2272 C2270 1.378 . S
C2272 C2273 1.367 . S
C2273 C2272 1.367 . S
C2273 C2275 1.433 . S
C2274 C2270 1.350 . S
C2274 C2271 1.463 . S
C2274 N2278 1.427 . S
C2275 H2265 0.929 . S
C2275 C2273 1.433 . S
C2275 N2278 1.384 . S
C2276 H2267 0.929 . S
C2276 C2268 1.378 . S
C2276 C2271 1.350 . S
C2277 H2264 0.929 . S
C2277 C2269 1.433 . S
C2277 N2279 1.384 . S
N2278 C2274 1.427 . S
N2278 C2275 1.384 . S
N2279 C2271 1.427 . S
N2279 C2277 1.384 . S
H2280 C2286 0.930 . S
H2281 C2290 0.930 . S
H2282 C2295 0.929 . S
H2283 C2293 0.929 . S
H2284 C2288 0.929 . S
H2285 C2294 0.929 . S
C2286 H2280 0.930 . S
C2286 C2287 1.367 . S
C2286 C2294 1.378 . S
C2287 C2286 1.367 . S
C2287 C2295 1.433 . S
C2288 H2284 0.929 . S
C2288 C2290 1.378 . S
C2288 C2292 1.350 . S
C2289 C2292 1.463 . S
C2289 C2294 1.350 . S
C2289 N2297 1.427 . S
C2290 H2281 0.930 . S
C2290 C2288 1.378 . S
C2290 C2291 1.367 . S
C2291 C2290 1.367 . S
C2291 C2293 1.433 . S
C2292 C2288 1.350 . S
C2292 C2289 1.463 . S
C2292 N2296 1.427 . S
C2293 H2283 0.929 . S
C2293 C2291 1.433 . S
C2293 N2296 1.384 . S
C2294 H2285 0.929 . S
C2294 C2286 1.378 . S
C2294 C2289 1.350 . S
C2295 H2282 0.929 . S
C2295 C2287 1.433 . S
C2295 N2297 1.384 . S
N2296 C2292 1.427 . S
N2296 C2293 1.384 . S
N2297 C2289 1.427 . S
N2297 C2295 1.384 . S
H2298 C2304 0.930 . S
H2299 C2308 0.930 . S
H2300 C2313 0.929 . S
H2301 C2311 0.929 . S
H2302 C2306 0.929 . S
H2303 C2312 0.929 . S
C2304 H2298 0.930 . S
C2304 C2305 1.367 . S
C2304 C2312 1.378 . S
C2305 C2304 1.367 . S
C2305 C2313 1.433 . S
C2306 H2302 0.929 . S
C2306 C2308 1.378 . S
C2306 C2310 1.350 . S
C2307 C2310 1.463 . S
C2307 C2312 1.350 . S
C2307 N2315 1.427 . S
C2308 H2299 0.930 . S
C2308 C2306 1.378 . S
C2308 C2309 1.367 . S
C2309 C2308 1.367 . S
C2309 C2311 1.433 . S
C2310 C2306 1.350 . S
C2310 C2307 1.463 . S
C2310 N2314 1.427 . S
C2311 H2301 0.929 . S
C2311 C2309 1.433 . S
C2311 N2314 1.384 . S
C2312 H2303 0.929 . S
C2312 C2304 1.378 . S
C2312 C2307 1.350 . S
C2313 H2300 0.929 . S
C2313 C2305 1.433 . S
C2313 N2315 1.384 . S
N2314 C2310 1.427 . S
N2314 C2311 1.384 . S
N2315 C2307 1.427 . S
N2315 C2313 1.384 . S
H2316 C2322 0.930 . S
H2317 C2326 0.930 . S
H2318 C2331 0.929 . S
H2319 C2329 0.929 . S
H2320 C2324 0.929 . S
H2321 C2330 0.929 . S
C2322 H2316 0.930 . S
C2322 C2323 1.367 . S
C2322 C2330 1.378 . S
C2323 C2322 1.367 . S
C2323 C2331 1.433 . S
C2324 H2320 0.929 . S
C2324 C2326 1.378 . S
C2324 C2328 1.350 . S
C2325 C2328 1.463 . S
C2325 C2330 1.350 . S
C2325 N2333 1.427 . S
C2326 H2317 0.930 . S
C2326 C2324 1.378 . S
C2326 C2327 1.367 . S
C2327 C2326 1.367 . S
C2327 C2329 1.433 . S
C2328 C2324 1.350 . S
C2328 C2325 1.463 . S
C2328 N2332 1.427 . S
C2329 H2319 0.929 . S
C2329 C2327 1.433 . S
C2329 N2332 1.384 . S
C2330 H2321 0.929 . S
C2330 C2322 1.378 . S
C2330 C2325 1.350 . S
C2331 H2318 0.929 . S
C2331 C2323 1.433 . S
C2331 N2333 1.384 . S
N2332 C2328 1.427 . S
N2332 C2329 1.384 . S
N2333 C2325 1.427 . S
N2333 C2331 1.384 . S
H2334 C2340 0.930 . S
H2335 C2344 0.930 . S
H2336 C2349 0.929 . S
H2337 C2347 0.929 . S
H2338 C2342 0.929 . S
H2339 C2348 0.929 . S
C2340 H2334 0.930 . S
C2340 C2341 1.367 . S
C2340 C2348 1.378 . S
C2341 C2340 1.367 . S
C2341 C2349 1.433 . S
C2342 H2338 0.929 . S
C2342 C2344 1.378 . S
C2342 C2346 1.350 . S
C2343 C2346 1.463 1_455 S
C2343 C2348 1.350 . S
C2343 N2351 1.427 . S
C2344 H2335 0.930 . S
C2344 C2342 1.378 . S
C2344 C2345 1.367 . S
C2345 C2344 1.367 . S
C2345 C2347 1.433 . S
C2346 C2342 1.350 . S
C2346 C2343 1.463 1_655 S
C2346 N2350 1.427 . S
C2347 H2337 0.929 . S
C2347 C2345 1.433 . S
C2347 N2350 1.384 . S
C2348 H2339 0.929 . S
C2348 C2340 1.378 . S
C2348 C2343 1.350 . S
C2349 H2336 0.929 . S
C2349 C2341 1.433 . S
C2349 N2351 1.384 . S
N2350 C2346 1.427 . S
N2350 C2347 1.384 . S
N2351 C2343 1.427 . S
N2351 C2349 1.384 . S
H2352 C2358 0.930 . S
H2353 C2362 0.930 . S
H2354 C2367 0.929 . S
H2355 C2365 0.929 . S
H2356 C2360 0.929 . S
H2357 C2366 0.929 . S
C2358 H2352 0.930 . S
C2358 C2359 1.367 . S
C2358 C2366 1.378 . S
C2359 C2358 1.367 . S
C2359 C2367 1.433 . S
C2360 H2356 0.929 . S
C2360 C2362 1.378 . S
C2360 C2364 1.350 . S
C2361 C2364 1.463 . S
C2361 C2366 1.350 . S
C2361 N2369 1.427 . S
C2362 H2353 0.930 . S
C2362 C2360 1.378 . S
C2362 C2363 1.367 . S
C2363 C2362 1.367 . S
C2363 C2365 1.433 . S
C2364 C2360 1.350 . S
C2364 C2361 1.463 . S
C2364 N2368 1.427 . S
C2365 H2355 0.929 . S
C2365 C2363 1.433 . S
C2365 N2368 1.384 . S
C2366 H2357 0.929 . S
C2366 C2358 1.378 . S
C2366 C2361 1.350 . S
C2367 H2354 0.929 . S
C2367 C2359 1.433 . S
C2367 N2369 1.384 . S
N2368 C2364 1.427 . S
N2368 C2365 1.384 . S
N2369 C2361 1.427 . S
N2369 C2367 1.384 . S
H2370 C2376 0.930 . S
H2371 C2380 0.930 . S
H2372 C2385 0.929 . S
H2373 C2383 0.929 . S
H2374 C2378 0.929 . S
H2375 C2384 0.929 . S
C2376 H2370 0.930 . S
C2376 C2377 1.367 . S
C2376 C2384 1.378 . S
C2377 C2376 1.367 . S
C2377 C2385 1.433 . S
C2378 H2374 0.929 . S
C2378 C2380 1.378 . S
C2378 C2382 1.350 . S
C2379 C2382 1.463 . S
C2379 C2384 1.350 . S
C2379 N2387 1.427 . S
C2380 H2371 0.930 . S
C2380 C2378 1.378 . S
C2380 C2381 1.367 . S
C2381 C2380 1.367 . S
C2381 C2383 1.433 . S
C2382 C2378 1.350 . S
C2382 C2379 1.463 . S
C2382 N2386 1.427 . S
C2383 H2373 0.929 . S
C2383 C2381 1.433 . S
C2383 N2386 1.384 . S
C2384 H2375 0.929 . S
C2384 C2376 1.378 . S
C2384 C2379 1.350 . S
C2385 H2372 0.929 . S
C2385 C2377 1.433 . S
C2385 N2387 1.384 . S
N2386 C2382 1.427 . S
N2386 C2383 1.384 . S
N2387 C2379 1.427 . S
N2387 C2385 1.384 . S
H2388 C2394 0.930 . S
H2389 C2398 0.930 . S
H2390 C2403 0.929 . S
H2391 C2401 0.929 . S
H2392 C2396 0.929 . S
H2393 C2402 0.929 . S
C2394 H2388 0.930 . S
C2394 C2395 1.367 . S
C2394 C2402 1.378 . S
C2395 C2394 1.367 . S
C2395 C2403 1.433 . S
C2396 H2392 0.929 . S
C2396 C2398 1.378 . S
C2396 C2400 1.350 . S
C2397 C2400 1.463 . S
C2397 C2402 1.350 . S
C2397 N2405 1.427 . S
C2398 H2389 0.930 . S
C2398 C2396 1.378 . S
C2398 C2399 1.367 . S
C2399 C2398 1.367 . S
C2399 C2401 1.433 . S
C2400 C2396 1.350 . S
C2400 C2397 1.463 . S
C2400 N2404 1.427 . S
C2401 H2391 0.929 . S
C2401 C2399 1.433 . S
C2401 N2404 1.384 . S
C2402 H2393 0.929 . S
C2402 C2394 1.378 . S
C2402 C2397 1.350 . S
C2403 H2390 0.929 . S
C2403 C2395 1.433 . S
C2403 N2405 1.384 . S
N2404 C2400 1.427 . S
N2404 C2401 1.384 . S
N2405 C2397 1.427 . S
N2405 C2403 1.384 . S
H2406 C2412 0.930 . S
H2407 C2416 0.930 . S
H2408 C2421 0.929 . S
H2409 C2419 0.929 . S
H2410 C2414 0.929 . S
H2411 C2420 0.929 . S
C2412 H2406 0.930 . S
C2412 C2413 1.367 . S
C2412 C2420 1.378 . S
C2413 C2412 1.367 . S
C2413 C2421 1.433 . S
C2414 H2410 0.929 . S
C2414 C2416 1.378 . S
C2414 C2418 1.350 . S
C2415 C2418 1.463 . S
C2415 C2420 1.350 . S
C2415 N2423 1.427 . S
C2416 H2407 0.930 . S
C2416 C2414 1.378 . S
C2416 C2417 1.367 . S
C2417 C2416 1.367 . S
C2417 C2419 1.433 . S
C2418 C2414 1.350 . S
C2418 C2415 1.463 . S
C2418 N2422 1.427 . S
C2419 H2409 0.929 . S
C2419 C2417 1.433 . S
C2419 N2422 1.384 . S
C2420 H2411 0.929 . S
C2420 C2412 1.378 . S
C2420 C2415 1.350 . S
C2421 H2408 0.929 . S
C2421 C2413 1.433 . S
C2421 N2423 1.384 . S
N2422 C2418 1.427 . S
N2422 C2419 1.384 . S
N2423 C2415 1.427 . S
N2423 C2421 1.384 . S
H2424 C2430 0.930 . S
H2425 C2434 0.930 . S
H2426 C2439 0.929 . S
H2427 C2437 0.929 . S
H2428 C2432 0.929 . S
H2429 C2438 0.929 . S
C2430 H2424 0.930 . S
C2430 C2431 1.367 . S
C2430 C2438 1.378 . S
C2431 C2430 1.367 . S
C2431 C2439 1.433 . S
C2432 H2428 0.929 . S
C2432 C2434 1.378 . S
C2432 C2436 1.350 . S
C2433 C2436 1.463 . S
C2433 C2438 1.350 . S
C2433 N2441 1.427 . S
C2434 H2425 0.930 . S
C2434 C2432 1.378 . S
C2434 C2435 1.367 . S
C2435 C2434 1.367 . S
C2435 C2437 1.433 . S
C2436 C2432 1.350 . S
C2436 C2433 1.463 . S
C2436 N2440 1.427 . S
C2437 H2427 0.929 . S
C2437 C2435 1.433 . S
C2437 N2440 1.384 . S
C2438 H2429 0.929 . S
C2438 C2430 1.378 . S
C2438 C2433 1.350 . S
C2439 H2426 0.929 . S
C2439 C2431 1.433 . S
C2439 N2441 1.384 . S
N2440 C2436 1.427 . S
N2440 C2437 1.384 . S
N2441 C2433 1.427 . S
N2441 C2439 1.384 . S
H2442 C2448 0.930 . S
H2443 C2452 0.930 . S
H2444 C2457 0.929 . S
H2445 C2455 0.929 . S
H2446 C2450 0.929 . S
H2447 C2456 0.929 . S
C2448 H2442 0.930 . S
C2448 C2449 1.367 . S
C2448 C2456 1.378 . S
C2449 C2448 1.367 . S
C2449 C2457 1.433 . S
C2450 H2446 0.929 . S
C2450 C2452 1.378 . S
C2450 C2454 1.350 . S
C2451 C2454 1.463 1_455 S
C2451 C2456 1.350 . S
C2451 N2459 1.427 . S
C2452 H2443 0.930 . S
C2452 C2450 1.378 . S
C2452 C2453 1.367 . S
C2453 C2452 1.367 . S
C2453 C2455 1.433 . S
C2454 C2450 1.350 . S
C2454 C2451 1.463 1_655 S
C2454 N2458 1.427 . S
C2455 H2445 0.929 . S
C2455 C2453 1.433 . S
C2455 N2458 1.384 . S
C2456 H2447 0.929 . S
C2456 C2448 1.378 . S
C2456 C2451 1.350 . S
C2457 H2444 0.929 . S
C2457 C2449 1.433 . S
C2457 N2459 1.384 . S
N2458 C2454 1.427 . S
N2458 C2455 1.384 . S
N2459 C2451 1.427 . S
N2459 C2457 1.384 . S
H2460 C2466 0.930 . S
H2461 C2470 0.930 . S
H2462 C2475 0.929 . S
H2463 C2473 0.929 . S
H2464 C2468 0.929 . S
H2465 C2474 0.929 . S
C2466 H2460 0.930 . S
C2466 C2467 1.367 . S
C2466 C2474 1.378 . S
C2467 C2466 1.367 . S
C2467 C2475 1.433 . S
C2468 H2464 0.929 . S
C2468 C2470 1.378 . S
C2468 C2472 1.350 . S
C2469 C2472 1.463 1_455 S
C2469 C2474 1.350 . S
C2469 N2477 1.427 . S
C2470 H2461 0.930 . S
C2470 C2468 1.378 . S
C2470 C2471 1.367 . S
C2471 C2470 1.367 . S
C2471 C2473 1.433 . S
C2472 C2468 1.350 . S
C2472 C2469 1.463 1_655 S
C2472 N2476 1.427 . S
C2473 H2463 0.929 . S
C2473 C2471 1.433 . S
C2473 N2476 1.384 . S
C2474 H2465 0.929 . S
C2474 C2466 1.378 . S
C2474 C2469 1.350 . S
C2475 H2462 0.929 . S
C2475 C2467 1.433 . S
C2475 N2477 1.384 . S
N2476 C2472 1.427 . S
N2476 C2473 1.384 . S
N2477 C2469 1.427 . S
N2477 C2475 1.384 . S
H2478 C2484 0.930 . S
H2479 C2488 0.930 . S
H2480 C2493 0.929 . S
H2481 C2491 0.929 . S
H2482 C2486 0.929 . S
H2483 C2492 0.929 . S
C2484 H2478 0.930 . S
C2484 C2485 1.367 . S
C2484 C2492 1.378 . S
C2485 C2484 1.367 . S
C2485 C2493 1.433 . S
C2486 H2482 0.929 . S
C2486 C2488 1.378 . S
C2486 C2490 1.350 . S
C2487 C2490 1.463 . S
C2487 C2492 1.350 . S
C2487 N2495 1.427 . S
C2488 H2479 0.930 . S
C2488 C2486 1.378 . S
C2488 C2489 1.367 . S
C2489 C2488 1.367 . S
C2489 C2491 1.433 . S
C2490 C2486 1.350 . S
C2490 C2487 1.463 . S
C2490 N2494 1.427 . S
C2491 H2481 0.929 . S
C2491 C2489 1.433 . S
C2491 N2494 1.384 . S
C2492 H2483 0.929 . S
C2492 C2484 1.378 . S
C2492 C2487 1.350 . S
C2493 H2480 0.929 . S
C2493 C2485 1.433 . S
C2493 N2495 1.384 . S
N2494 C2490 1.427 . S
N2494 C2491 1.384 . S
N2495 C2487 1.427 . S
N2495 C2493 1.384 . S
C1063 C41 2.008 1_545 S
C1067 C28 1.991 . S
C1081 C61 1.994 . S
C1085 C74 2.011 . S
C1099 C94 1.992 . S
C1103 C107 2.011 1_565 S
C1117 C127 1.994 . S
C1121 C8 2.011 1_556 S
C1135 C160 1.988 . S
C1139 C239 2.009 1_565 S
C1153 C140 2.008 1_554 S
C1157 C193 1.991 . S
C1171 C226 1.988 . S
C1175 C173 2.009 1_545 S
C1189 C259 1.990 . S
C1193 C206 2.007 . S
C1207 C305 2.011 1_565 S
C1211 C292 1.990 . S
C1225 C338 2.011 . S
C1229 C325 1.995 . S
C1243 C358 1.994 . S
C1247 C371 2.010 1_545 S
C1261 C272 2.011 1_554 S
C1265 C391 1.995 . S
C1279 C424 1.993 . S
C1283 C503 2.011 1_545 S
C1297 C457 1.993 . S
C1301 C404 2.011 1_556 S
C1315 C437 2.009 1_565 S
C1319 C490 1.988 . S
C1333 C470 2.007 . S
C1337 C523 1.988 . S
C1351 C569 2.008 . S
C1355 C556 1.991 . S
C1369 C589 1.989 . S
C1373 C602 2.010 1_556 S
C1387 C635 2.008 . S
C1391 C622 1.991 . S
C1405 C536 2.009 . S
C1409 C655 1.988 . S
C1423 C767 2.010 . S
C1427 C688 1.994 . S
C1441 C721 1.994 . S
C1445 C668 2.011 . S
C1459 C701 2.011 . S
C1463 C754 1.994 . S
C1477 C787 1.995 . S
C1481 C734 2.011 1_554 S
C1495 C833 2.009 . S
C1499 C820 1.993 . S
C1513 C853 1.988 . S
C1517 C866 2.007 1_554 S
C1531 C886 1.994 . S
C1535 C899 2.011 . S
C1549 C919 1.987 . S
C1553 C800 2.008 . S
C1567 C1031 2.010 . S
C1571 C952 1.989 . S
C1585 C932 2.010 . S
C1589 C985 1.989 . S
C1603 C965 2.007 . S
C1607 C1018 1.990 . S
C1621 C998 2.011 1_556 S
C1625 C1051 1.992 . S
C1639 N203 0.862 . S
C1643 N5 0.870 . S
C1657 N38 0.866 . S
C1661 N236 0.875 . S
C1675 N71 0.862 . S
C1679 N137 0.871 . S
C1693 N104 0.870 . S
C1697 N170 0.873 . S
C1711 N467 0.872 . S
C1715 N269 0.871 . S
C1729 N500 0.872 . S
C1733 N302 0.862 . S
C1747 N335 0.863 . S
C1751 N401 0.873 . S
C1765 N434 0.873 . S
C1769 N368 0.870 . S
C1783 N533 0.862 . S
C1787 N731 0.871 . S
C1801 N764 0.867 . S
C1805 N566 0.874 . S
C1819 N665 0.862 . S
C1823 N599 0.869 . S
C1837 N698 0.871 . S
C1841 N632 0.862 . S
C1855 N995 0.868 . S
C1859 N797 0.862 . S
C1873 N1028 0.862 . S
C1877 N830 0.868 . S
C1891 N929 0.870 . S
C1895 N863 0.862 . S
C1909 N962 0.862 . S
C1913 N896 0.870 . S
C1927 N14 0.964 . S
C1931 N245 0.969 . S
C1945 N47 0.968 . S
C1949 N146 0.962 . S
C1963 N179 0.970 . S
C1967 N80 0.964 . S
C1981 N113 0.969 . S
C1985 N212 0.963 . S
C1999 N278 0.964 . S
C2003 N509 0.970 . S
C2017 N410 0.964 . S
C2021 N311 0.959 . S
C2035 N344 0.966 . S
C2039 N443 0.960 . S
C2053 N377 0.970 . S
C2057 N476 0.964 . S
C2071 N773 0.967 . S
C2075 N542 0.961 . S
C2089 N674 0.968 . S
C2093 N575 0.970 . S
C2107 N608 0.967 . S
C2111 N707 0.970 . S
C2125 N641 0.966 . S
C2129 N740 0.960 . S
C2143 N806 0.960 . S
C2147 N1037 0.960 . S
C2161 N938 0.963 . S
C2165 N839 0.969 . S
C2179 N872 0.964 . S
C2183 N971 0.970 . S
C2197 N905 0.969 . S
C2201 N1004 0.970 . S
C2215 C17 1.337 . S
C2219 C1007 1.345 . S
C2233 C512 1.337 . S
C2237 C50 1.344 . S
C2251 C941 1.342 . S
C2255 C83 1.339 . S
C2269 C116 1.341 . S
C2273 C446 1.340 . S
C2287 C149 1.344 . S
C2291 C875 1.337 . S
C2305 C380 1.339 . S
C2309 C182 1.342 . S
C2323 C215 1.345 . S
C2327 C809 1.336 . S
C2341 C248 1.344 . S
C2345 C314 1.337 . S
C2359 C281 1.340 . S
C2363 C743 1.341 . S
C2377 C347 1.341 . S
C2381 C677 1.340 . S
C2395 C413 1.342 . S
C2399 C611 1.339 . S
C2413 C479 1.341 . S
C2417 C545 1.340 . S
C2431 C578 1.337 . S
C2435 C1040 1.344 . S
C2449 C974 1.336 . S
C2453 C644 1.345 . S
C2467 C908 1.337 . S
C2471 C710 1.344 . S
C2485 C842 1.341 . S
C2489 C776 1.340 . S
