# Generated by pormake.
# Topology uoj, (4)-cn, num edge types: 1
# Building blocks:
#     Node 0, Type 0, BuildingBlock: CEKHIL_clean_sbu_0, # of connection points: 4
#     Node 1, Type 0, BuildingBlock: CEKHIL_clean_sbu_0, # of connection points: 4
#     Node 2, Type 0, BuildingBlock: CEKHIL_clean_sbu_0, # of connection points: 4
#     Node 3, Type 0, BuildingBlock: CEKHIL_clean_sbu_0, # of connection points: 4
#     Node 4, Type 0, BuildingBlock: CEKHIL_clean_sbu_0, # of connection points: 4
#     Node 5, Type 0, BuildingBlock: CEKHIL_clean_sbu_0, # of connection points: 4
#     Node 6, Type 0, BuildingBlock: CEKHIL_clean_sbu_0, # of connection points: 4
#     Node 7, Type 0, BuildingBlock: CEKHIL_clean_sbu_0, # of connection points: 4
#     Edge 8, Type (0, 0), BuildingBlock: CIFDUS_clean_linker_0, # of connection points: 2
#     Edge 9, Type (0, 0), BuildingBlock: CIFDUS_clean_linker_0, # of connection points: 2
#     Edge 10, Type (0, 0), BuildingBlock: CIFDUS_clean_linker_0, # of connection points: 2
#     Edge 11, Type (0, 0), BuildingBlock: CIFDUS_clean_linker_0, # of connection points: 2
#     Edge 12, Type (0, 0), BuildingBlock: CIFDUS_clean_linker_0, # of connection points: 2
#     Edge 13, Type (0, 0), BuildingBlock: CIFDUS_clean_linker_0, # of connection points: 2
#     Edge 14, Type (0, 0), BuildingBlock: CIFDUS_clean_linker_0, # of connection points: 2
#     Edge 15, Type (0, 0), BuildingBlock: CIFDUS_clean_linker_0, # of connection points: 2
#     Edge 16, Type (0, 0), BuildingBlock: CIFDUS_clean_linker_0, # of connection points: 2
#     Edge 17, Type (0, 0), BuildingBlock: CIFDUS_clean_linker_0, # of connection points: 2
#     Edge 18, Type (0, 0), BuildingBlock: CIFDUS_clean_linker_0, # of connection points: 2
#     Edge 19, Type (0, 0), BuildingBlock: CIFDUS_clean_linker_0, # of connection points: 2
#     Edge 20, Type (0, 0), BuildingBlock: CIFDUS_clean_linker_0, # of connection points: 2
#     Edge 21, Type (0, 0), BuildingBlock: CIFDUS_clean_linker_0, # of connection points: 2
#     Edge 22, Type (0, 0), BuildingBlock: CIFDUS_clean_linker_0, # of connection points: 2
#     Edge 23, Type (0, 0), BuildingBlock: CIFDUS_clean_linker_0, # of connection points: 2
# Relax obj value: 0.110
# Max RMSD: 0.136
# Mean RMSD: 0.134
data_MOF--net-uoj--node1-CEKHIL_clean_sbu_0--edge1-CIFDUS_clean_linker_0
_symmetry_space_group_name_H-M    P1
_symmetry_Int_Tables_number       1
_symmetry_cell_setting            triclinic
loop_
_symmetry_equiv_pos_as_xyz
'x, y, z'
_cell_length_a     28.99071
_cell_length_b     28.697321
_cell_length_c     30.920719
_cell_angle_alpha  90.0227
_cell_angle_beta   89.867258
_cell_angle_gamma 88.754911
loop_
_atom_site_label
_atom_site_type_symbol
_atom_site_fract_x
_atom_site_fract_y
_atom_site_fract_z
_atom_type_partial_charge
Co0 Co 0.05881 0.2858 0.41908 0.0
O1 O 0.09749 0.32025 0.38098 0.0
O2 O 0.02907 0.29309 0.36323 0.0
C3 C 0.11491 0.23791 0.44357 0.0
O4 O 0.01003 0.248 0.45054 0.0
Co5 Co 0.07873 0.28643 0.5185 0.0
O6 O 0.0362 0.2334 0.51784 0.0
C7 C 0.03349 0.36783 0.47674 0.0
C8 C 0.06569 0.31571 0.35202 0.0
C9 C 0.00751 0.22704 0.48732 0.0
O10 O 0.03018 0.34557 0.4408 0.0
O11 O 0.05417 0.35148 0.51017 0.0
O12 O 0.09434 0.22842 0.4074 0.0
O13 O 0.10357 0.27712 0.46124 0.0
Co14 Co 0.27561 0.92843 0.57992 0.0
O15 O 0.21549 0.9102 0.59653 0.0
O16 O 0.24854 0.89078 0.53432 0.0
C17 C 0.3098 0.91166 0.64328 0.0
O18 O 0.33903 0.94145 0.55454 0.0
Co19 Co 0.31401 0.01322 0.63147 0.0
O20 O 0.36927 -0.00211 0.59631 0.0
C21 C 0.24479 0.02915 0.56392 0.0
C22 C 0.21252 0.88927 0.55964 0.0
C23 C 0.37184 0.96882 0.56513 0.0
O24 O 0.24865 0.98627 0.55236 0.0
O25 O 0.26461 0.04566 0.59733 0.0
O26 O 0.30395 0.87885 0.61495 0.0
O27 O 0.29014 0.95116 0.6344 0.0
Co28 Co 0.92089 0.71948 0.40775 0.0
O29 O 0.87463 0.69332 0.37139 0.0
O30 O 0.94435 0.71399 0.34955 0.0
C31 C 0.87491 0.77117 0.44234 0.0
O32 O 0.97711 0.748 0.436 0.0
Co33 Co 0.91243 0.70935 0.50807 0.0
O34 O 0.96402 0.75351 0.50761 0.0
C35 C 0.93932 0.62844 0.4545 0.0
C36 C 0.90479 0.69582 0.34044 0.0
C37 C 0.98833 0.76171 0.47412 0.0
O38 O 0.94424 0.65494 0.42143 0.0
O39 O 0.92331 0.64281 0.49087 0.0
O40 O 0.89146 0.78151 0.40446 0.0
O41 O 0.88275 0.72912 0.45522 0.0
Co42 Co 0.7149 0.07623 0.58914 0.0
O43 O 0.77347 0.10443 0.59667 0.0
O44 O 0.72945 0.11333 0.53858 0.0
C45 C 0.68668 0.09218 0.65588 0.0
O46 O 0.65239 0.05228 0.57082 0.0
Co47 Co 0.69219 0.99068 0.647 0.0
O48 O 0.63411 0.99153 0.61336 0.0
C49 C 0.75791 0.9798 0.57524 0.0
C50 C 0.76832 0.12126 0.55802 0.0
C51 C 0.62542 0.01935 0.58213 0.0
O52 O 0.74673 0.02073 0.56152 0.0
O53 O 0.74362 0.96347 0.61124 0.0
O54 O 0.68384 0.12358 0.6256 0.0
O55 O 0.71015 0.05506 0.646 0.0
Co56 Co 0.43266 0.7809 0.91969 0.0
O57 O 0.39246 0.81395 0.88106 0.0
O58 O 0.4652 0.7934 0.86639 0.0
C59 C 0.38294 0.72568 0.9379 0.0
O60 O 0.48352 0.74514 0.95145 0.0
Co61 Co 0.40964 0.77951 0.01643 0.0
O62 O 0.45589 0.72775 0.01725 0.0
C63 C 0.44759 0.86423 0.97964 0.0
C64 C 0.42668 0.81325 0.85399 0.0
C65 C 0.48597 0.72277 0.98743 0.0
O66 O 0.45283 0.84174 0.9441 0.0
O67 O 0.42884 0.84665 0.01323 0.0
O68 O 0.40702 0.72264 0.9026 0.0
O69 O 0.38562 0.76456 0.95926 0.0
Co70 Co 0.78923 0.56004 0.05971 0.0
O71 O 0.80948 0.60812 0.09746 0.0
O72 O 0.80266 0.53392 0.1162 0.0
C73 C 0.72798 0.5988 0.03281 0.0
O74 O 0.76776 0.50162 0.02858 0.0
Co75 Co 0.79467 0.57852 0.96152 0.0
O76 O 0.75705 0.52194 0.95903 0.0
C77 C 0.87929 0.55395 0.00775 0.0
C78 C 0.81371 0.57617 0.12684 0.0
C79 C 0.75341 0.49298 0.99004 0.0
O80 O 0.85469 0.54785 0.04167 0.0
O81 O 0.86264 0.56834 0.97176 0.0
O82 O 0.72554 0.57737 0.06969 0.0
O83 O 0.76886 0.60114 0.01593 0.0
Co84 Co 0.56951 0.19956 0.94818 0.0
O85 O 0.6102 0.16789 0.90835 0.0
O86 O 0.53747 0.18755 0.89432 0.0
C87 C 0.61878 0.25536 0.96687 0.0
O88 O 0.51813 0.23418 0.98119 0.0
Co89 Co 0.59444 0.20107 0.04509 0.0
O90 O 0.54504 0.2497 0.04766 0.0
C91 C 0.55552 0.11622 0.00852 0.0
C92 C 0.57645 0.16925 0.88095 0.0
C93 C 0.51462 0.25462 0.01823 0.0
O94 O 0.55005 0.13815 0.97259 0.0
O95 O 0.57526 0.13412 0.04139 0.0
O96 O 0.59445 0.25863 0.93183 0.0
O97 O 0.61643 0.21609 0.98746 0.0
Co98 Co 0.20907 0.42772 0.07306 0.0
O99 O 0.17579 0.38336 0.10726 0.0
O100 O 0.18863 0.45642 0.12631 0.0
C101 C 0.26979 0.38123 0.05558 0.0
O102 O 0.24244 0.48313 0.04793 0.0
Co103 Co 0.22449 0.4109 0.97488 0.0
O104 O 0.26105 0.46834 0.97853 0.0
C105 C 0.13385 0.44479 0.00524 0.0
C106 C 0.17094 0.41643 0.13572 0.0
C107 C 0.26145 0.49439 0.01194 0.0
O108 O 0.15037 0.44821 0.04364 0.0
O109 O 0.15677 0.42725 0.97353 0.0
O110 O 0.26778 0.40198 0.09292 0.0
O111 O 0.2329 0.38481 0.03225 0.0
H112 H 0.1074 0.35129 0.15527 0.0
H113 H 0.18533 0.46277 0.21082 0.0
H114 H 0.15637 0.4435 0.2827 0.0
H115 H 0.11455 0.39074 0.33029 0.0
H116 H 0.03365 0.28123 0.27554 0.0
H117 H 0.05736 0.30442 0.20254 0.0
C118 C 0.1176 0.37158 0.18312 0.0
C119 C 0.14892 0.40796 0.17796 0.0
C120 C 0.10033 0.36065 0.22433 0.0
C121 C 0.16135 0.43454 0.21406 0.0
C122 C 0.14493 0.42346 0.25516 0.0
C123 C 0.10164 0.37236 0.30228 0.0
C124 C 0.07296 0.33401 0.30806 0.0
C125 C 0.11525 0.38598 0.26074 0.0
C126 C 0.0558 0.31087 0.27171 0.0
C127 C 0.06962 0.32392 0.23008 0.0
H128 H 0.3745 0.84427 0.66017 0.0
H129 H 0.30251 0.96271 0.71661 0.0
H130 H 0.33756 0.94571 0.78663 0.0
H131 H 0.38123 0.89205 0.83329 0.0
H132 H 0.45569 0.77502 0.77773 0.0
H133 H 0.42795 0.79698 0.70545 0.0
C134 C 0.36694 0.86649 0.68779 0.0
C135 C 0.33533 0.90402 0.68371 0.0
C136 C 0.38765 0.85681 0.72787 0.0
C137 C 0.32644 0.93333 0.71925 0.0
C138 C 0.3464 0.92364 0.75925 0.0
C139 C 0.39213 0.87206 0.80511 0.0
C140 C 0.41989 0.83192 0.81037 0.0
C141 C 0.37599 0.88478 0.76413 0.0
C142 C 0.43441 0.80626 0.77402 0.0
C143 C 0.41819 0.81853 0.73291 0.0
H144 H 0.85129 0.62268 0.32219 0.0
H145 H 0.93721 0.72564 0.26289 0.0
H146 H 0.91785 0.69585 0.1911 0.0
H147 H 0.87357 0.64313 0.1456 0.0
H148 H 0.79128 0.53693 0.20442 0.0
H149 H 0.81266 0.5649 0.27652 0.0
C150 C 0.86569 0.63851 0.29346 0.0
C151 C 0.89492 0.67673 0.29744 0.0
C152 C 0.85523 0.62053 0.25256 0.0
C153 C 0.91439 0.69637 0.26033 0.0
C154 C 0.90332 0.67939 0.21942 0.0
C155 C 0.86059 0.62595 0.17428 0.0
C156 C 0.83051 0.58851 0.17005 0.0
C157 C 0.87338 0.64188 0.21522 0.0
C158 C 0.8145 0.56585 0.20715 0.0
C159 C 0.82649 0.58201 0.24822 0.0
H160 H 0.63583 0.10238 0.85349 0.0
H161 H 0.53614 0.20411 0.80741 0.0
H162 H 0.56084 0.18905 0.7326 0.0
H163 H 0.61578 0.15099 0.68097 0.0
H164 H 0.71251 0.04685 0.72866 0.0
H165 H 0.68411 0.05883 0.80206 0.0
C166 C 0.61903 0.12073 0.82697 0.0
C167 C 0.58451 0.15445 0.83579 0.0
C168 C 0.63334 0.11186 0.78438 0.0
C169 C 0.56265 0.17774 0.80127 0.0
C170 C 0.57708 0.16945 0.75858 0.0
C171 C 0.63038 0.13088 0.70749 0.0
C172 C 0.66663 0.09857 0.69952 0.0
C173 C 0.61322 0.13734 0.74983 0.0
C174 C 0.68475 0.0721 0.73397 0.0
C175 C 0.66856 0.07891 0.776 0.0
H176 H 0.24113 0.123 0.56982 0.0
H177 H 0.18884 0.00831 0.49535 0.0
H178 H 0.14592 0.06314 0.44927 0.0
H179 H 0.12176 0.144 0.43155 0.0
H180 H 0.17415 0.25719 0.50779 0.0
H181 H 0.21901 0.20237 0.55154 0.0
C182 C 0.22025 0.10978 0.54366 0.0
C183 C 0.21797 0.06164 0.53628 0.0
C184 C 0.19592 0.14124 0.51741 0.0
C185 C 0.19109 0.04528 0.50185 0.0
C186 C 0.1666 0.07657 0.47543 0.0
C187 C 0.14345 0.1565 0.45743 0.0
C188 C 0.14473 0.20436 0.46658 0.0
C189 C 0.16868 0.12467 0.48301 0.0
C190 C 0.17255 0.22036 0.50035 0.0
C191 C 0.19812 0.18911 0.52543 0.0
H192 H 0.1889 0.84554 0.4834 0.0
H193 H 0.13684 0.884 0.60992 0.0
H194 H 0.06318 0.85066 0.59335 0.0
H195 H 0.01345 0.80972 0.54473 0.0
H196 H 0.06215 0.76855 0.41813 0.0
H197 H 0.13668 0.80423 0.43278 0.0
C198 C 0.16143 0.84638 0.50725 0.0
C199 C 0.16871 0.86707 0.54791 0.0
C200 C 0.11836 0.82689 0.49756 0.0
C201 C 0.13258 0.86817 0.57841 0.0
C202 C 0.09017 0.84918 0.56903 0.0
C203 C 0.04023 0.80844 0.52015 0.0
C204 C 0.03225 0.78622 0.48054 0.0
C205 C 0.08274 0.82836 0.52891 0.0
C206 C 0.06731 0.78558 0.44895 0.0
C207 C 0.11003 0.80575 0.4574 0.0
H208 H 0.7789 0.88885 0.58895 0.0
H209 H 0.79794 1e-05 0.49691 0.0
H210 H 0.83653 0.94531 0.44725 0.0
H211 H 0.86193 0.86473 0.42898 0.0
H212 H 0.83974 0.75487 0.52174 0.0
H213 H 0.80509 0.81045 0.57194 0.0
C214 C 0.79174 0.90145 0.55822 0.0
C215 C 0.78528 0.94843 0.54667 0.0
C216 C 0.813 0.86991 0.5297 0.0
C217 C 0.80229 0.96392 0.50662 0.0
C218 C 0.82422 0.93266 0.47813 0.0
C219 C 0.8494 0.85311 0.46015 0.0
C220 C 0.85328 0.80578 0.47154 0.0
C221 C 0.82916 0.88537 0.48909 0.0
C222 C 0.83715 0.79111 0.51211 0.0
C223 C 0.81735 0.82285 0.54095 0.0
H224 H 0.85761 0.10503 0.57469 0.0
H225 H 0.76713 0.18514 0.49139 0.0
H226 H 0.83427 0.22212 0.45806 0.0
H227 H 0.91896 0.23517 0.45694 0.0
H228 H 0.00716 0.15291 0.54103 0.0
H229 H 0.94059 0.11244 0.56909 0.0
C230 C 0.85247 0.1307 0.54929 0.0
C231 C 0.80759 0.14322 0.53613 0.0
C232 C 0.89088 0.15104 0.53021 0.0
C233 C 0.80147 0.17544 0.50235 0.0
C234 C 0.83982 0.19644 0.48331 0.0
C235 C 0.92355 0.20769 0.4807 0.0
C236 C 0.96787 0.19733 0.49721 0.0
C237 C 0.88476 0.18493 0.49743 0.0
C238 C 0.97336 0.16184 0.52817 0.0
C239 C 0.93532 0.13878 0.54437 0.0
H240 H 0.26717 0.54536 0.93953 0.0
H241 H 0.30089 0.54787 0.0752 0.0
H242 H 0.33758 0.62361 0.06589 0.0
H243 H 0.36508 0.68648 0.01699 0.0
H244 H 0.33041 0.68066 0.88152 0.0
H245 H 0.28816 0.60945 0.89308 0.0
C246 C 0.28261 0.56238 0.96712 0.0
C247 C 0.28221 0.54073 0.00775 0.0
C248 C 0.30309 0.60561 0.96157 0.0
C249 C 0.30121 0.56378 0.04344 0.0
C250 C 0.32211 0.60705 0.03813 0.0
C251 C 0.34734 0.66999 0.99042 0.0
C252 C 0.35087 0.68842 0.94847 0.0
C253 C 0.32384 0.62806 0.99712 0.0
C254 C 0.32827 0.66675 0.91404 0.0
C255 C 0.3043 0.62596 0.92053 0.0
H256 H 0.64091 0.58917 0.06007 0.0
H257 H 0.72197 0.65795 0.96296 0.0
H258 H 0.65264 0.70016 0.9375 0.0
H259 H 0.57013 0.72182 0.94735 0.0
H260 H 0.49163 0.65356 0.04699 0.0
H261 H 0.55909 0.60666 0.06692 0.0
C262 C 0.64351 0.61319 0.03313 0.0
C263 C 0.68648 0.62096 0.01374 0.0
C264 C 0.60403 0.63758 0.01934 0.0
C265 C 0.68918 0.65165 0.97852 0.0
C266 C 0.64963 0.67583 0.9641 0.0
C267 C 0.56773 0.69628 0.97305 0.0
C268 C 0.52607 0.6916 0.99599 0.0
C269 C 0.60702 0.66975 0.9849 0.0
C270 C 0.52343 0.65835 0.02922 0.0
C271 C 0.56195 0.63142 0.04062 0.0
H272 H 0.73166 0.42144 0.04577 0.0
H273 H 0.72595 0.46288 0.91128 0.0
H274 H 0.68635 0.39237 0.89317 0.0
H275 H 0.65017 0.32124 0.91466 0.0
H276 H 0.65402 0.27599 0.0475 0.0
H277 H 0.698 0.34541 0.067 0.0
C278 C 0.72194 0.41486 0.01252 0.0
C279 C 0.73149 0.44799 0.98015 0.0
C280 C 0.6988 0.37366 0.00194 0.0
C281 C 0.71884 0.43859 0.93713 0.0
C282 C 0.69614 0.3981 0.92654 0.0
C283 C 0.66065 0.32639 0.94797 0.0
C284 C 0.64852 0.294 0.97971 0.0
C285 C 0.68544 0.36587 0.95865 0.0
C286 C 0.66303 0.30065 0.02252 0.0
C287 C 0.68794 0.34038 0.03362 0.0
H288 H 0.43448 0.26439 0.97161 0.0
H289 H 0.50086 0.3098 0.08889 0.0
H290 H 0.43156 0.35308 0.10989 0.0
H291 H 0.35155 0.37613 0.09689 0.0
H292 H 0.28349 0.33199 0.98043 0.0
H293 H 0.35399 0.29031 0.95724 0.0
C294 C 0.43389 0.28403 0.00158 0.0
C295 C 0.47293 0.2834 0.02866 0.0
C296 C 0.39355 0.30894 0.01382 0.0
C297 C 0.47141 0.30918 0.06742 0.0
C298 C 0.43171 0.33406 0.07959 0.0
C299 C 0.35206 0.35746 0.06637 0.0
C300 C 0.31231 0.35687 0.04057 0.0
C301 C 0.39249 0.33375 0.05334 0.0
C302 C 0.31367 0.33278 0.00098 0.0
C303 C 0.35396 0.30898 0.98771 0.0
H304 H 0.95636 0.56843 0.52013 0.0
H305 H 0.95575 0.57822 0.38072 0.0
H306 H 0.98292 0.49726 0.37533 0.0
H307 H 0.0093 0.42491 0.41034 0.0
H308 H 0.01205 0.4167 0.54985 0.0
H309 H 0.98127 0.49616 0.55496 0.0
C310 C 0.96182 0.55283 0.48852 0.0
C311 C 0.95418 0.57925 0.45092 0.0
C312 C 0.97791 0.50671 0.48565 0.0
C313 C 0.96175 0.55863 0.4102 0.0
C314 C 0.97716 0.51237 0.40707 0.0
C315 C 0.0028 0.44038 0.44185 0.0
C316 C 0.01301 0.41506 0.47962 0.0
C317 C 0.98572 0.48626 0.44461 0.0
C318 C 0.00477 0.43564 0.52025 0.0
C319 C 0.98711 0.481 0.52324 0.0
H320 H 0.57931 0.93972 0.56915 0.0
H321 H 0.57208 0.08772 0.54484 0.0
H322 H 0.49118 0.08178 0.52375 0.0
H323 H 0.41974 0.03783 0.52973 0.0
H324 H 0.42613 0.891 0.55831 0.0
H325 H 0.51051 0.89245 0.55847 0.0
C326 C 0.56021 0.97047 0.55833 0.0
C327 C 0.58093 0.01434 0.55982 0.0
C328 C 0.51368 0.96685 0.54697 0.0
C329 C 0.55653 0.05373 0.54456 0.0
C330 C 0.51028 0.05035 0.53263 0.0
C331 C 0.43985 0.00578 0.53383 0.0
C332 C 0.41726 0.9645 0.54446 0.0
C333 C 0.488 0.00756 0.53607 0.0
C334 C 0.44305 0.92304 0.54979 0.0
C335 C 0.49123 0.92413 0.55073 0.0
H336 H 0.51937 0.06535 0.94371 0.0
H337 H 0.54941 0.05968 0.08033 0.0
H338 H 0.51646 0.98192 0.08443 0.0
H339 H 0.47963 0.91478 0.04843 0.0
H340 H 0.45218 0.92243 0.91135 0.0
H341 H 0.48311 0.00034 0.90854 0.0
C342 C 0.51879 0.04735 0.97455 0.0
C343 C 0.5369 0.06853 0.01163 0.0
C344 C 0.49996 0.00291 0.97666 0.0
C345 C 0.53587 0.04424 0.05116 0.0
C346 C 0.51688 -0.0002 0.05358 0.0
C347 C 0.4801 0.93379 0.01814 0.0
C348 C 0.46372 0.91276 0.98018 0.0
C349 C 0.49876 0.97873 0.01647 0.0
C350 C 0.4649 0.93761 0.94101 0.0
C351 C 0.48257 0.98223 0.93929 0.0
H352 H 0.07921 0.49208 0.06206 0.0
H353 H 0.08288 0.44171 0.93041 0.0
H354 H 0.00567 0.47498 0.91806 0.0
H355 H 0.93567 0.51589 0.94587 0.0
H356 H 0.93297 0.56364 0.07825 0.0
H357 H 0.0117 0.53453 0.08877 0.0
C358 C 0.06329 0.48818 0.03059 0.0
C359 C 0.08681 0.46405 0.99736 0.0
C360 C 0.01914 0.50733 0.02371 0.0
C361 C 0.06553 0.45987 0.95672 0.0
C362 C 0.02141 0.47901 0.94956 0.0
C363 C 0.95275 0.52054 0.9767 0.0
C364 C 0.92872 0.54179 0.01123 0.0
C365 C -0.00222 0.50265 0.98291 0.0
C366 C 0.95083 0.54716 0.05126 0.0
C367 C 0.99574 0.53042 0.05737 0.0
loop_
_geom_bond_atom_site_label_1
_geom_bond_atom_site_label_2
_geom_bond_distance
_geom_bond_site_symmetry_2
_ccdc_geom_bond_type
Co0 O1 2.216 . S
Co0 O2 2.091 . S
Co0 O4 2.004 . S
Co0 O10 2.021 . S
Co0 O12 2.137 . S
Co0 O13 2.244 . S
O1 Co0 2.216 . S
O1 C8 1.247 . S
O2 Co0 2.091 . S
O2 C8 1.261 . S
C3 O12 1.247 . S
C3 O13 1.272 . S
O4 Co0 2.004 . S
O4 C9 1.259 . S
Co5 O6 2.061 . S
Co5 O11 2.052 . S
Co5 O13 2.135 . S
O6 Co5 2.061 . S
O6 C9 1.235 . S
C7 O10 1.238 . S
C7 O11 1.241 . S
C8 O1 1.247 . S
C8 O2 1.261 . S
C9 O4 1.259 . S
C9 O6 1.235 . S
O10 Co0 2.021 . S
O10 C7 1.238 . S
O11 Co5 2.052 . S
O11 C7 1.241 . S
O12 Co0 2.137 . S
O12 C3 1.247 . S
O13 Co0 2.244 . S
O13 C3 1.272 . S
O13 Co5 2.135 . S
Co14 O15 2.216 . S
Co14 O16 2.091 . S
Co14 O18 2.004 . S
Co14 O24 2.021 . S
Co14 O26 2.137 . S
Co14 O27 2.244 . S
O15 Co14 2.216 . S
O15 C22 1.247 . S
O16 Co14 2.091 . S
O16 C22 1.261 . S
C17 O26 1.247 . S
C17 O27 1.272 . S
O18 Co14 2.004 . S
O18 C23 1.259 . S
Co19 O20 2.061 1_545 S
Co19 O25 2.052 . S
Co19 O27 2.135 1_545 S
O20 Co19 2.061 1_565 S
O20 C23 1.235 . S
C21 O24 1.238 1_545 S
C21 O25 1.241 . S
C22 O15 1.247 . S
C22 O16 1.261 . S
C23 O18 1.259 . S
C23 O20 1.235 . S
O24 Co14 2.021 . S
O24 C21 1.238 1_565 S
O25 Co19 2.052 . S
O25 C21 1.241 . S
O26 Co14 2.137 . S
O26 C17 1.247 . S
O27 Co14 2.244 . S
O27 C17 1.272 . S
O27 Co19 2.135 1_565 S
Co28 O29 2.216 . S
Co28 O30 2.091 . S
Co28 O32 2.004 . S
Co28 O38 2.021 . S
Co28 O40 2.137 . S
Co28 O41 2.244 . S
O29 Co28 2.216 . S
O29 C36 1.247 . S
O30 Co28 2.091 . S
O30 C36 1.261 . S
C31 O40 1.247 . S
C31 O41 1.272 . S
O32 Co28 2.004 . S
O32 C37 1.259 . S
Co33 O34 2.061 . S
Co33 O39 2.052 . S
Co33 O41 2.135 . S
O34 Co33 2.061 . S
O34 C37 1.235 . S
C35 O38 1.238 . S
C35 O39 1.241 . S
C36 O29 1.247 . S
C36 O30 1.261 . S
C37 O32 1.259 . S
C37 O34 1.235 . S
O38 Co28 2.021 . S
O38 C35 1.238 . S
O39 Co33 2.052 . S
O39 C35 1.241 . S
O40 Co28 2.137 . S
O40 C31 1.247 . S
O41 Co28 2.244 . S
O41 C31 1.272 . S
O41 Co33 2.135 . S
Co42 O43 2.216 . S
Co42 O44 2.091 . S
Co42 O46 2.004 . S
Co42 O52 2.021 . S
Co42 O54 2.137 . S
Co42 O55 2.244 . S
O43 Co42 2.216 . S
O43 C50 1.247 . S
O44 Co42 2.091 . S
O44 C50 1.261 . S
C45 O54 1.247 . S
C45 O55 1.272 . S
O46 Co42 2.004 . S
O46 C51 1.259 . S
Co47 O48 2.061 1_565 S
Co47 O53 2.052 . S
Co47 O55 2.135 1_565 S
O48 Co47 2.061 1_545 S
O48 C51 1.235 . S
C49 O52 1.238 1_565 S
C49 O53 1.241 . S
C50 O43 1.247 . S
C50 O44 1.261 . S
C51 O46 1.259 . S
C51 O48 1.235 . S
O52 Co42 2.021 . S
O52 C49 1.238 1_545 S
O53 Co47 2.052 . S
O53 C49 1.241 . S
O54 Co42 2.137 . S
O54 C45 1.247 . S
O55 Co42 2.244 . S
O55 C45 1.272 . S
O55 Co47 2.135 1_545 S
Co56 O57 2.216 . S
Co56 O58 2.091 . S
Co56 O60 2.004 . S
Co56 O66 2.021 . S
Co56 O68 2.137 . S
Co56 O69 2.246 1_556 S
O57 Co56 2.216 . S
O57 C64 1.247 . S
O58 Co56 2.091 . S
O58 C64 1.261 . S
C59 O68 1.247 . S
C59 O69 1.273 1_556 S
O60 Co56 2.004 . S
O60 C65 1.259 . S
Co61 O62 2.061 . S
Co61 O67 2.052 . S
Co61 O69 2.133 . S
O62 Co61 2.061 . S
O62 C65 1.235 1_554 S
C63 O66 1.238 . S
C63 O67 1.241 1_556 S
C64 O57 1.247 . S
C64 O58 1.261 . S
C65 O60 1.259 . S
C65 O62 1.235 1_556 S
O66 Co56 2.021 . S
O66 C63 1.238 . S
O67 Co61 2.052 . S
O67 C63 1.241 1_554 S
O68 Co56 2.137 . S
O68 C59 1.247 . S
O69 Co56 2.246 1_554 S
O69 C59 1.273 1_554 S
O69 Co61 2.133 . S
Co70 O71 2.216 . S
Co70 O72 2.091 . S
Co70 O74 2.004 . S
Co70 O80 2.021 . S
Co70 O82 2.137 . S
Co70 O83 2.244 . S
O71 Co70 2.216 . S
O71 C78 1.247 . S
O72 Co70 2.091 . S
O72 C78 1.261 . S
C73 O82 1.247 . S
C73 O83 1.272 . S
O74 Co70 2.004 . S
O74 C79 1.259 . S
Co75 O76 2.061 . S
Co75 O81 2.052 . S
Co75 O83 2.135 1_556 S
O76 Co75 2.061 . S
O76 C79 1.235 1_556 S
C77 O80 1.238 . S
C77 O81 1.241 1_554 S
C78 O71 1.247 . S
C78 O72 1.261 . S
C79 O74 1.259 . S
C79 O76 1.235 1_554 S
O80 Co70 2.021 . S
O80 C77 1.238 . S
O81 Co75 2.052 . S
O81 C77 1.241 1_556 S
O82 Co70 2.137 . S
O82 C73 1.247 . S
O83 Co70 2.244 . S
O83 C73 1.272 . S
O83 Co75 2.135 1_554 S
Co84 O85 2.216 . S
Co84 O86 2.091 . S
Co84 O88 2.004 . S
Co84 O94 2.021 . S
Co84 O96 2.137 . S
Co84 O97 2.246 1_556 S
O85 Co84 2.216 . S
O85 C92 1.247 . S
O86 Co84 2.091 . S
O86 C92 1.261 . S
C87 O96 1.247 . S
C87 O97 1.273 1_556 S
O88 Co84 2.004 . S
O88 C93 1.259 . S
Co89 O90 2.061 . S
Co89 O95 2.052 . S
Co89 O97 2.133 . S
O90 Co89 2.061 . S
O90 C93 1.235 1_554 S
C91 O94 1.238 . S
C91 O95 1.241 1_556 S
C92 O85 1.247 . S
C92 O86 1.261 . S
C93 O88 1.259 . S
C93 O90 1.235 1_556 S
O94 Co84 2.021 . S
O94 C91 1.238 . S
O95 Co89 2.052 . S
O95 C91 1.241 1_554 S
O96 Co84 2.137 . S
O96 C87 1.247 . S
O97 Co84 2.246 1_554 S
O97 C87 1.273 1_554 S
O97 Co89 2.133 . S
Co98 O99 2.216 . S
Co98 O100 2.091 . S
Co98 O102 2.004 . S
Co98 O108 2.021 . S
Co98 O110 2.137 . S
Co98 O111 2.244 . S
O99 Co98 2.216 . S
O99 C106 1.247 . S
O100 Co98 2.091 . S
O100 C106 1.261 . S
C101 O110 1.247 . S
C101 O111 1.272 . S
O102 Co98 2.004 . S
O102 C107 1.259 . S
Co103 O104 2.061 . S
Co103 O109 2.052 . S
Co103 O111 2.135 1_556 S
O104 Co103 2.061 . S
O104 C107 1.235 1_556 S
C105 O108 1.238 . S
C105 O109 1.241 1_554 S
C106 O99 1.247 . S
C106 O100 1.261 . S
C107 O102 1.259 . S
C107 O104 1.235 1_554 S
O108 Co98 2.021 . S
O108 C105 1.238 . S
O109 Co103 2.052 . S
O109 C105 1.241 1_556 S
O110 Co98 2.137 . S
O110 C101 1.247 . S
O111 Co98 2.244 . S
O111 C101 1.272 . S
O111 Co103 2.135 1_554 S
H112 C118 0.930 . S
H113 C121 0.930 . S
H114 C122 0.930 . S
H115 C123 0.930 . S
H116 C126 0.930 . S
H117 C127 0.930 . S
C118 H112 0.930 . S
C118 C119 1.355 . S
C118 C120 1.415 . S
C119 C118 1.355 . S
C119 C121 1.419 . S
C120 C118 1.415 . S
C120 C125 1.425 . S
C120 C127 1.409 . S
C121 H113 0.930 . S
C121 C119 1.419 . S
C121 C122 1.362 . S
C122 H114 0.930 . S
C122 C121 1.362 . S
C122 C125 1.409 . S
C123 H115 0.930 . S
C123 C124 1.355 . S
C123 C125 1.415 . S
C124 C123 1.355 . S
C124 C126 1.419 . S
C125 C120 1.425 . S
C125 C122 1.409 . S
C125 C123 1.415 . S
C126 H116 0.930 . S
C126 C124 1.419 . S
C126 C127 1.362 . S
C127 H117 0.930 . S
C127 C120 1.409 . S
C127 C126 1.362 . S
H128 C134 0.930 . S
H129 C137 0.930 . S
H130 C138 0.930 . S
H131 C139 0.930 . S
H132 C142 0.930 . S
H133 C143 0.930 . S
C134 H128 0.930 . S
C134 C135 1.355 . S
C134 C136 1.415 . S
C135 C134 1.355 . S
C135 C137 1.419 . S
C136 C134 1.415 . S
C136 C141 1.425 . S
C136 C143 1.409 . S
C137 H129 0.930 . S
C137 C135 1.419 . S
C137 C138 1.362 . S
C138 H130 0.930 . S
C138 C137 1.362 . S
C138 C141 1.409 . S
C139 H131 0.930 . S
C139 C140 1.355 . S
C139 C141 1.415 . S
C140 C139 1.355 . S
C140 C142 1.419 . S
C141 C136 1.425 . S
C141 C138 1.409 . S
C141 C139 1.415 . S
C142 H132 0.930 . S
C142 C140 1.419 . S
C142 C143 1.362 . S
C143 H133 0.930 . S
C143 C136 1.409 . S
C143 C142 1.362 . S
H144 C150 0.930 . S
H145 C153 0.930 . S
H146 C154 0.930 . S
H147 C155 0.930 . S
H148 C158 0.930 . S
H149 C159 0.930 . S
C150 H144 0.930 . S
C150 C151 1.355 . S
C150 C152 1.415 . S
C151 C150 1.355 . S
C151 C153 1.419 . S
C152 C150 1.415 . S
C152 C157 1.425 . S
C152 C159 1.409 . S
C153 H145 0.930 . S
C153 C151 1.419 . S
C153 C154 1.362 . S
C154 H146 0.930 . S
C154 C153 1.362 . S
C154 C157 1.409 . S
C155 H147 0.930 . S
C155 C156 1.355 . S
C155 C157 1.415 . S
C156 C155 1.355 . S
C156 C158 1.419 . S
C157 C152 1.425 . S
C157 C154 1.409 . S
C157 C155 1.415 . S
C158 H148 0.930 . S
C158 C156 1.419 . S
C158 C159 1.362 . S
C159 H149 0.930 . S
C159 C152 1.409 . S
C159 C158 1.362 . S
H160 C166 0.930 . S
H161 C169 0.930 . S
H162 C170 0.930 . S
H163 C171 0.930 . S
H164 C174 0.930 . S
H165 C175 0.930 . S
C166 H160 0.930 . S
C166 C167 1.355 . S
C166 C168 1.415 . S
C167 C166 1.355 . S
C167 C169 1.419 . S
C168 C166 1.415 . S
C168 C173 1.425 . S
C168 C175 1.409 . S
C169 H161 0.930 . S
C169 C167 1.419 . S
C169 C170 1.362 . S
C170 H162 0.930 . S
C170 C169 1.362 . S
C170 C173 1.409 . S
C171 H163 0.930 . S
C171 C172 1.355 . S
C171 C173 1.415 . S
C172 C171 1.355 . S
C172 C174 1.419 . S
C173 C168 1.425 . S
C173 C170 1.409 . S
C173 C171 1.415 . S
C174 H164 0.930 . S
C174 C172 1.419 . S
C174 C175 1.362 . S
C175 H165 0.930 . S
C175 C168 1.409 . S
C175 C174 1.362 . S
H176 C182 0.930 . S
H177 C185 0.930 . S
H178 C186 0.930 . S
H179 C187 0.930 . S
H180 C190 0.930 . S
H181 C191 0.930 . S
C182 H176 0.930 . S
C182 C183 1.355 . S
C182 C184 1.415 . S
C183 C182 1.355 . S
C183 C185 1.419 . S
C184 C182 1.415 . S
C184 C189 1.425 . S
C184 C191 1.409 . S
C185 H177 0.930 . S
C185 C183 1.419 . S
C185 C186 1.362 . S
C186 H178 0.930 . S
C186 C185 1.362 . S
C186 C189 1.409 . S
C187 H179 0.930 . S
C187 C188 1.355 . S
C187 C189 1.415 . S
C188 C187 1.355 . S
C188 C190 1.419 . S
C189 C184 1.425 . S
C189 C186 1.409 . S
C189 C187 1.415 . S
C190 H180 0.930 . S
C190 C188 1.419 . S
C190 C191 1.362 . S
C191 H181 0.930 . S
C191 C184 1.409 . S
C191 C190 1.362 . S
H192 C198 0.930 . S
H193 C201 0.930 . S
H194 C202 0.930 . S
H195 C203 0.930 . S
H196 C206 0.930 . S
H197 C207 0.930 . S
C198 H192 0.930 . S
C198 C199 1.355 . S
C198 C200 1.415 . S
C199 C198 1.355 . S
C199 C201 1.419 . S
C200 C198 1.415 . S
C200 C205 1.425 . S
C200 C207 1.409 . S
C201 H193 0.930 . S
C201 C199 1.419 . S
C201 C202 1.362 . S
C202 H194 0.930 . S
C202 C201 1.362 . S
C202 C205 1.409 . S
C203 H195 0.930 . S
C203 C204 1.355 . S
C203 C205 1.415 . S
C204 C203 1.355 . S
C204 C206 1.419 . S
C205 C200 1.425 . S
C205 C202 1.409 . S
C205 C203 1.415 . S
C206 H196 0.930 . S
C206 C204 1.419 . S
C206 C207 1.362 . S
C207 H197 0.930 . S
C207 C200 1.409 . S
C207 C206 1.362 . S
H208 C214 0.930 . S
H209 C217 0.930 . S
H210 C218 0.930 . S
H211 C219 0.930 . S
H212 C222 0.930 . S
H213 C223 0.930 . S
C214 H208 0.930 . S
C214 C215 1.355 . S
C214 C216 1.415 . S
C215 C214 1.355 . S
C215 C217 1.419 . S
C216 C214 1.415 . S
C216 C221 1.425 . S
C216 C223 1.409 . S
C217 H209 0.930 . S
C217 C215 1.419 . S
C217 C218 1.362 . S
C218 H210 0.930 . S
C218 C217 1.362 . S
C218 C221 1.409 . S
C219 H211 0.930 . S
C219 C220 1.355 . S
C219 C221 1.415 . S
C220 C219 1.355 . S
C220 C222 1.419 . S
C221 C216 1.425 . S
C221 C218 1.409 . S
C221 C219 1.415 . S
C222 H212 0.930 . S
C222 C220 1.419 . S
C222 C223 1.362 . S
C223 H213 0.930 . S
C223 C216 1.409 . S
C223 C222 1.362 . S
H224 C230 0.930 . S
H225 C233 0.930 . S
H226 C234 0.930 . S
H227 C235 0.930 . S
H228 C238 0.930 . S
H229 C239 0.930 . S
C230 H224 0.930 . S
C230 C231 1.355 . S
C230 C232 1.415 . S
C231 C230 1.355 . S
C231 C233 1.419 . S
C232 C230 1.415 . S
C232 C237 1.425 . S
C232 C239 1.409 . S
C233 H225 0.930 . S
C233 C231 1.419 . S
C233 C234 1.362 . S
C234 H226 0.930 . S
C234 C233 1.362 . S
C234 C237 1.409 . S
C235 H227 0.930 . S
C235 C236 1.355 . S
C235 C237 1.415 . S
C236 C235 1.355 . S
C236 C238 1.419 . S
C237 C232 1.425 . S
C237 C234 1.409 . S
C237 C235 1.415 . S
C238 H228 0.930 . S
C238 C236 1.419 . S
C238 C239 1.362 . S
C239 H229 0.930 . S
C239 C232 1.409 . S
C239 C238 1.362 . S
H240 C246 0.930 . S
H241 C249 0.930 . S
H242 C250 0.930 . S
H243 C251 0.930 . S
H244 C254 0.930 . S
H245 C255 0.930 . S
C246 H240 0.930 . S
C246 C247 1.355 1_556 S
C246 C248 1.415 . S
C247 C246 1.355 1_554 S
C247 C249 1.419 . S
C248 C246 1.415 . S
C248 C253 1.425 1_556 S
C248 C255 1.409 . S
C249 H241 0.930 . S
C249 C247 1.419 . S
C249 C250 1.362 . S
C250 H242 0.930 . S
C250 C249 1.362 . S
C250 C253 1.409 . S
C251 H243 0.930 . S
C251 C252 1.355 1_554 S
C251 C253 1.415 . S
C252 C251 1.355 1_556 S
C252 C254 1.419 . S
C253 C248 1.425 1_554 S
C253 C250 1.409 . S
C253 C251 1.415 . S
C254 H244 0.930 . S
C254 C252 1.419 . S
C254 C255 1.362 . S
C255 H245 0.930 . S
C255 C248 1.409 . S
C255 C254 1.362 . S
H256 C262 0.930 . S
H257 C265 0.930 . S
H258 C266 0.931 . S
H259 C267 0.930 . S
H260 C270 0.930 . S
H261 C271 0.930 . S
C262 H256 0.930 . S
C262 C263 1.355 . S
C262 C264 1.415 1_554 S
C263 C262 1.355 . S
C263 C265 1.419 . S
C264 C262 1.415 1_556 S
C264 C269 1.425 . S
C264 C271 1.409 . S
C265 H257 0.930 . S
C265 C263 1.419 . S
C265 C266 1.362 . S
C266 H258 0.931 . S
C266 C265 1.362 . S
C266 C269 1.409 1_554 S
C267 H259 0.930 . S
C267 C268 1.355 . S
C267 C269 1.415 . S
C268 C267 1.355 . S
C268 C270 1.419 . S
C269 C264 1.425 . S
C269 C266 1.409 1_556 S
C269 C267 1.415 . S
C270 H260 0.930 . S
C270 C268 1.419 . S
C270 C271 1.362 . S
C271 H261 0.930 . S
C271 C264 1.409 . S
C271 C270 1.362 . S
H272 C278 0.930 . S
H273 C281 0.930 . S
H274 C282 0.930 . S
H275 C283 0.930 . S
H276 C286 0.930 . S
H277 C287 0.930 . S
C278 H272 0.930 . S
C278 C279 1.355 . S
C278 C280 1.415 . S
C279 C278 1.355 . S
C279 C281 1.419 1_554 S
C280 C278 1.415 . S
C280 C285 1.425 1_554 S
C280 C287 1.409 . S
C281 H273 0.930 . S
C281 C279 1.419 1_556 S
C281 C282 1.362 . S
C282 H274 0.930 . S
C282 C281 1.362 . S
C282 C285 1.409 . S
C283 H275 0.930 . S
C283 C284 1.355 . S
C283 C285 1.415 . S
C284 C283 1.355 . S
C284 C286 1.419 1_556 S
C285 C280 1.425 1_556 S
C285 C282 1.409 . S
C285 C283 1.415 . S
C286 H276 0.930 . S
C286 C284 1.419 1_554 S
C286 C287 1.362 . S
C287 H277 0.930 . S
C287 C280 1.409 . S
C287 C286 1.362 . S
H288 C294 0.930 . S
H289 C297 0.930 . S
H290 C298 0.930 . S
H291 C299 0.930 . S
H292 C302 0.930 . S
H293 C303 0.930 . S
C294 H288 0.930 . S
C294 C295 1.355 . S
C294 C296 1.415 . S
C295 C294 1.355 . S
C295 C297 1.419 1_556 S
C296 C294 1.415 . S
C296 C301 1.425 1_556 S
C296 C303 1.409 . S
C297 H289 0.930 . S
C297 C295 1.419 1_554 S
C297 C298 1.362 . S
C298 H290 0.930 . S
C298 C297 1.362 . S
C298 C301 1.409 . S
C299 H291 0.930 . S
C299 C300 1.355 . S
C299 C301 1.415 . S
C300 C299 1.355 . S
C300 C302 1.419 1_554 S
C301 C296 1.425 1_554 S
C301 C298 1.409 . S
C301 C299 1.415 . S
C302 H292 0.930 . S
C302 C300 1.419 1_556 S
C302 C303 1.362 . S
C303 H293 0.930 . S
C303 C296 1.409 . S
C303 C302 1.362 . S
H304 C310 0.930 . S
H305 C313 0.930 1_455 S
H306 C314 0.930 . S
H307 C315 0.930 . S
H308 C318 0.930 1_655 S
H309 C319 0.930 . S
C310 H304 0.930 . S
C310 C311 1.355 . S
C310 C312 1.415 . S
C311 C310 1.355 . S
C311 C313 1.419 . S
C312 C310 1.415 . S
C312 C317 1.425 1_655 S
C312 C319 1.409 . S
C313 H305 0.930 1_655 S
C313 C311 1.419 . S
C313 C314 1.362 1_655 S
C314 H306 0.930 . S
C314 C313 1.362 1_455 S
C314 C317 1.409 . S
C315 H307 0.930 . S
C315 C316 1.355 . S
C315 C317 1.415 . S
C316 C315 1.355 . S
C316 C318 1.419 . S
C317 C312 1.425 1_455 S
C317 C314 1.409 . S
C317 C315 1.415 . S
C318 H308 0.930 1_455 S
C318 C316 1.419 . S
C318 C319 1.362 1_455 S
C319 H309 0.930 . S
C319 C312 1.409 . S
C319 C318 1.362 1_655 S
H320 C326 0.930 . S
H321 C329 0.930 . S
H322 C330 0.930 . S
H323 C331 0.930 . S
H324 C334 0.930 . S
H325 C335 0.930 . S
C326 H320 0.930 . S
C326 C327 1.355 1_565 S
C326 C328 1.415 . S
C327 C326 1.355 1_545 S
C327 C329 1.419 . S
C328 C326 1.415 . S
C328 C333 1.425 1_565 S
C328 C335 1.409 . S
C329 H321 0.930 . S
C329 C327 1.419 . S
C329 C330 1.362 . S
C330 H322 0.930 . S
C330 C329 1.362 . S
C330 C333 1.409 . S
C331 H323 0.930 . S
C331 C332 1.355 1_545 S
C331 C333 1.415 . S
C332 C331 1.355 1_565 S
C332 C334 1.419 . S
C333 C328 1.425 1_545 S
C333 C330 1.409 . S
C333 C331 1.415 . S
C334 H324 0.930 . S
C334 C332 1.419 . S
C334 C335 1.362 . S
C335 H325 0.930 . S
C335 C328 1.409 . S
C335 C334 1.362 . S
H336 C342 0.930 . S
H337 C345 0.930 . S
H338 C346 0.930 . S
H339 C347 0.930 . S
H340 C350 0.930 . S
H341 C351 0.930 . S
C342 H336 0.930 . S
C342 C343 1.355 . S
C342 C344 1.415 . S
C343 C342 1.355 . S
C343 C345 1.419 1_556 S
C344 C342 1.415 . S
C344 C349 1.425 1_546 S
C344 C351 1.409 1_545 S
C345 H337 0.930 . S
C345 C343 1.419 1_554 S
C345 C346 1.362 . S
C346 H338 0.930 . S
C346 C345 1.362 . S
C346 C349 1.409 1_545 S
C347 H339 0.930 . S
C347 C348 1.355 1_554 S
C347 C349 1.415 . S
C348 C347 1.355 1_556 S
C348 C350 1.419 . S
C349 C344 1.425 1_564 S
C349 C346 1.409 1_565 S
C349 C347 1.415 . S
C350 H340 0.930 . S
C350 C348 1.419 . S
C350 C351 1.362 . S
C351 H341 0.930 . S
C351 C344 1.409 1_565 S
C351 C350 1.362 . S
H352 C358 0.930 . S
H353 C361 0.930 . S
H354 C362 0.930 . S
H355 C363 0.930 . S
H356 C366 0.930 . S
H357 C367 0.930 . S
C358 H352 0.930 . S
C358 C359 1.355 . S
C358 C360 1.415 . S
C359 C358 1.355 . S
C359 C361 1.419 . S
C360 C358 1.415 . S
C360 C365 1.425 1_455 S
C360 C367 1.409 . S
C361 H353 0.930 . S
C361 C359 1.419 . S
C361 C362 1.362 1_455 S
C362 H354 0.930 . S
C362 C361 1.362 1_655 S
C362 C365 1.409 . S
C363 H355 0.930 . S
C363 C364 1.355 . S
C363 C365 1.415 . S
C364 C363 1.355 . S
C364 C366 1.419 . S
C365 C360 1.425 1_655 S
C365 C362 1.409 . S
C365 C363 1.415 . S
C366 H356 0.930 . S
C366 C364 1.419 . S
C366 C367 1.362 1_655 S
C367 H357 0.930 . S
C367 C360 1.409 . S
C367 C366 1.362 1_455 S
C119 C106 1.547 . S
C124 C8 1.536 . S
C135 C17 1.541 . S
C140 C64 1.521 . S
C151 C36 1.538 . S
C156 C78 1.540 . S
C167 C92 1.530 . S
C172 C45 1.536 . S
C183 C21 1.422 . S
C188 C3 1.422 . S
C199 C22 1.434 . S
C204 C37 1.467 1_455 S
C215 C49 1.434 . S
C220 C31 1.431 . S
C231 C50 1.448 . S
C236 C9 1.472 1_655 S
C247 C107 1.527 . S
C252 C59 1.449 . S
C263 C73 1.480 . S
C268 C65 1.498 . S
C279 C79 1.523 . S
C284 C87 1.448 . S
C295 C93 1.494 . S
C300 C101 1.461 . S
C311 C35 1.119 . S
C316 C7 1.116 . S
C327 C51 1.131 . S
C332 C23 1.077 . S
C343 C91 1.147 . S
C348 C63 1.159 . S
C359 C105 1.217 . S
C364 C77 1.216 . S
