# Generated by pormake.
# Topology qtz-x, (6)-cn, num edge types: 1
# Building blocks:
#     Node 0, Type 0, BuildingBlock: BETFEN_clean_sbu_0, # of connection points: 6
#     Node 1, Type 0, BuildingBlock: BETFEN_clean_sbu_0, # of connection points: 6
#     Node 2, Type 0, BuildingBlock: BETFEN_clean_sbu_0, # of connection points: 6
#     Edge 3, Type (0, 0), BuildingBlock: CIFDUS_clean_linker_0, # of connection points: 2
#     Edge 4, Type (0, 0), BuildingBlock: CIFDUS_clean_linker_0, # of connection points: 2
#     Edge 5, Type (0, 0), BuildingBlock: CIFDUS_clean_linker_0, # of connection points: 2
#     Edge 6, Type (0, 0), BuildingBlock: CIFDUS_clean_linker_0, # of connection points: 2
#     Edge 7, Type (0, 0), BuildingBlock: CIFDUS_clean_linker_0, # of connection points: 2
#     Edge 8, Type (0, 0), BuildingBlock: CIFDUS_clean_linker_0, # of connection points: 2
#     Edge 9, Type (0, 0), BuildingBlock: CIFDUS_clean_linker_0, # of connection points: 2
#     Edge 10, Type (0, 0), BuildingBlock: CIFDUS_clean_linker_0, # of connection points: 2
#     Edge 11, Type (0, 0), BuildingBlock: CIFDUS_clean_linker_0, # of connection points: 2
# Relax obj value: 0.276
# Max RMSD: 0.281
# Mean RMSD: 0.254
data_MOF--net-qtz-x--node1-BETFEN_clean_sbu_0--edge1-CIFDUS_clean_linker_0
_symmetry_space_group_name_H-M    P1
_symmetry_Int_Tables_number       1
_symmetry_cell_setting            triclinic
loop_
_symmetry_equiv_pos_as_xyz
'x, y, z'
_cell_length_a     13.220276
_cell_length_b     13.114768
_cell_length_c     48.346081
_cell_angle_alpha  66.143398
_cell_angle_beta   116.60736
_cell_angle_gamma 121.41624
loop_
_atom_site_label
_atom_site_type_symbol
_atom_site_fract_x
_atom_site_fract_y
_atom_site_fract_z
_atom_type_partial_charge
Pr0 Pr 1.0391 0.64121 0.20024 0.0
Pr1 Pr 0.32348 0.81896 0.19032 0.0
C2 C 0.86435 0.45084 0.22676 0.0
C3 C 0.84804 0.41714 0.25833 0.0
C4 C 0.73032 0.37336 0.26138 0.0
C5 C 0.71717 0.34621 0.29124 0.0
C6 C 0.8219 0.36418 0.31848 0.0
C7 C 0.93884 0.40582 0.31536 0.0
C8 C 0.95164 0.43127 0.2858 0.0
C9 C 0.11536 0.89248 0.19567 0.0
C10 C 0.30428 0.72975 0.26233 0.0
C11 C 0.50511 0.01087 0.16792 0.0
C12 C 0.53772 0.02352 0.1411 0.0
C13 C 0.51341 0.91714 0.1343 0.0
C14 C 0.5185 0.92195 0.10571 0.0
C15 C 0.548 0.03331 0.08319 0.0
C16 C 0.57548 0.14078 0.09026 0.0
C17 C 0.57017 0.1358 0.1191 0.0
C18 C 0.25005 0.56846 0.19534 0.0
C19 C 0.06902 0.72338 0.12779 0.0
O20 O 0.96093 0.44508 0.22709 0.0
O21 O 0.84668 0.54768 0.20654 0.0
O22 O 0.17392 0.84227 0.19519 0.0
O23 O 1.00554 0.80827 0.1973 0.0
O24 O 0.37536 0.8067 0.24372 0.0
O25 O 0.18461 0.65773 0.25161 0.0
O26 O 0.39516 0.00854 0.1598 0.0
O27 O 0.52704 0.92685 0.1934 0.0
O28 O 0.19082 0.61711 0.1963 0.0
O29 O 0.35857 0.65384 0.19285 0.0
O30 O 0.99183 0.65219 0.14553 0.0
O31 O 0.18731 0.79606 0.13924 0.0
H32 H 0.64881 0.36118 0.24066 0.0
H33 H 0.62578 0.31405 0.29291 0.0
H34 H 1.02078 0.41801 0.33596 0.0
H35 H 1.04334 0.46262 0.28452 0.0
H36 H 0.48441 0.82873 0.15043 0.0
H37 H 0.49415 0.83713 0.10071 0.0
H38 H 0.59905 0.22791 0.07334 0.0
H39 H 0.58642 0.21828 0.12367 0.0
Pr40 Pr 0.87793 0.19871 0.563 0.0
Pr41 Pr 0.72881 0.90178 0.56058 0.0
C42 C 0.93383 0.42051 0.56837 0.0
C43 C 0.9976 0.48929 0.59347 0.0
C44 C 0.1142 0.49582 0.61523 0.0
C45 C 0.16689 0.55106 0.64072 0.0
C46 C 0.10341 0.59954 0.64515 0.0
C47 C 0.98873 0.59666 0.62257 0.0
C48 C 0.93672 0.54246 0.59696 0.0
C49 C 1.04287 0.10936 0.5683 0.0
C50 C 0.85451 -0.02613 0.63067 0.0
C51 C 0.66103 0.69273 0.54642 0.0
C52 C 0.62222 0.67056 0.51481 0.0
C53 C 0.51167 0.5704 0.50504 0.0
C54 C 0.46151 0.56185 0.47325 0.0
C55 C 0.52031 0.65424 0.45051 0.0
C56 C 0.63404 0.75158 0.46077 0.0
C57 C 0.68442 0.75951 0.49251 0.0
C58 C 0.56653 -0.00861 0.55688 0.0
C59 C 0.75427 0.12566 0.49307 0.0
O60 O 0.82911 0.32522 0.57045 0.0
O61 O 1.00206 0.40153 0.55964 0.0
O62 O 0.92792 0.05088 0.56596 0.0
O63 O 0.07736 0.22132 0.56899 0.0
O64 O 0.80983 0.88616 0.61576 0.0
O65 O 0.87992 0.09118 0.61597 0.0
O66 O 0.77768 0.76571 0.55743 0.0
O67 O 0.5841 0.71475 0.55079 0.0
O68 O 0.67932 0.04977 0.55708 0.0
O69 O 0.53375 0.87718 0.55866 0.0
O70 O 0.80157 0.21381 0.50792 0.0
O71 O 0.72622 0.00884 0.50789 0.0
H72 H 0.16327 0.45558 0.61305 0.0
H73 H 0.25631 0.55364 0.65729 0.0
H74 H 0.93632 0.63169 0.62532 0.0
H75 H 0.84665 0.53836 0.58044 0.0
H76 H 0.46119 0.50168 0.52169 0.0
H77 H 0.37493 0.48444 0.46636 0.0
H78 H 0.68132 0.82548 0.44403 0.0
H79 H 0.76903 0.83889 0.49918 0.0
Pr80 Pr 0.85448 0.89887 0.87039 0.0
Pr81 Pr 1.03856 0.75898 0.88757 0.0
C82 C 0.66109 0.94079 0.85981 0.0
C83 C 0.60812 0.93276 0.88207 0.0
C84 C 0.61958 0.0406 0.8851 0.0
C85 C 0.59742 0.03994 0.91082 0.0
C86 C 0.56181 0.931 0.93365 0.0
C87 C 0.5407 0.82135 0.92918 0.0
C88 C 0.56429 0.82227 0.90373 0.0
C89 C 0.10427 0.06374 0.87519 0.0
C90 C 0.99529 0.79306 0.94676 0.0
C91 C 0.22595 0.7166 0.8938 0.0
C92 C 0.2593 0.70783 0.86968 0.0
C93 C 0.23643 0.59289 0.86805 0.0
C94 C 0.24781 0.58019 0.84238 0.0
C95 C 0.2846 0.68265 0.81801 0.0
C96 C 0.31564 0.79893 0.82084 0.0
C97 C 0.30183 0.81126 0.84616 0.0
C98 C 0.78758 0.59499 0.88171 0.0
C99 C 0.90383 0.87318 0.81117 0.0
O100 O 0.64707 0.83761 0.85746 0.0
O101 O 0.77301 0.02801 0.86096 0.0
O102 O 1.05463 0.94945 0.87829 0.0
O103 O 1.02041 0.09876 0.87001 0.0
O104 O 1.06486 0.77344 0.93789 0.0
O105 O 0.90462 0.82825 0.92627 0.0
O106 O 0.2404 0.82501 0.89253 0.0
O107 O 0.12244 0.62822 0.89946 0.0
O108 O 0.83785 0.70909 0.87881 0.0
O109 O 0.87179 0.55921 0.88765 0.0
O110 O 0.84016 0.90111 0.81977 0.0
O111 O 0.98388 0.82432 0.83171 0.0
H112 H 0.65366 0.12701 0.86875 0.0
H113 H 0.61619 0.12613 0.91392 0.0
H114 H 0.51078 0.73553 0.94611 0.0
H115 H 0.55259 0.73719 0.90184 0.0
H116 H 0.20391 0.51165 0.88587 0.0
H117 H 0.22166 0.48892 0.84093 0.0
H118 H 0.34736 0.88035 0.80299 0.0
H119 H 0.32171 0.90163 0.84682 0.0
H120 H 0.98294 0.00313 0.19252 0.0
H121 H 0.34904 0.07876 0.19773 0.0
H122 H 0.42236 0.29269 0.19836 0.0
H123 H 0.38288 0.45869 0.19797 0.0
H124 H 1.01609 0.38277 0.19228 0.0
H125 H 0.94299 0.1692 0.19162 0.0
C126 C 0.07878 0.06649 0.19366 0.0
C127 C 0.1601 0.02452 0.19479 0.0
C128 C 0.1204 0.18947 0.19425 0.0
C129 C 0.28401 0.10827 0.19643 0.0
C130 C 0.3261 0.2307 0.19698 0.0
C131 C 0.28695 0.39532 0.19672 0.0
C132 C 0.20552 0.43698 0.19571 0.0
C133 C 0.24529 0.27241 0.196 0.0
C134 C 0.08143 0.35333 0.19379 0.0
C135 C 1.03941 0.2311 0.19315 0.0
H136 H 0.34573 0.85183 0.57045 0.0
H137 H 0.59785 0.22854 0.54601 0.0
H138 H 0.46175 0.29629 0.54863 0.0
H139 H 0.26716 0.24896 0.55654 0.0
H140 H 1.01282 0.87225 0.57987 0.0
H141 H 0.15145 0.80429 0.57848 0.0
C142 C 0.37148 0.94905 0.56576 0.0
C143 C 0.48474 0.03507 0.5587 0.0
C144 C 0.29062 -0.01274 0.56669 0.0
C145 C 0.51456 0.16024 0.55246 0.0
C146 C 0.43532 0.19895 0.55357 0.0
C147 C 0.24171 0.15176 0.56134 0.0
C148 C 0.12745 0.06581 0.56783 0.0
C149 C 0.32285 0.11344 0.56059 0.0
C150 C 0.09747 0.94053 0.57405 0.0
C151 C 0.17779 0.9017 0.57352 0.0
H152 H 0.23967 0.28414 0.8912 0.0
H153 H 0.25647 0.03659 0.85769 0.0
H154 H 0.46762 0.18122 0.85551 0.0
H155 H 0.65133 0.37552 0.86511 0.0
H156 H 0.63383 0.62491 0.89765 0.0
H157 H 0.42118 0.48152 0.89927 0.0
C158 C 0.29058 0.26133 0.88388 0.0
C159 C 0.23444 0.14804 0.87562 0.0
C160 C 0.41215 0.34514 0.88276 0.0
C161 C 0.30001 0.12052 0.86555 0.0
C162 C 0.42028 0.20386 0.86401 0.0
C163 C 0.60012 0.39878 0.8722 0.0
C164 C 0.65663 0.51169 0.88065 0.0
C165 C 0.47794 0.31577 0.87293 0.0
C166 C 0.59016 0.54044 0.89006 0.0
C167 C 0.46927 0.45782 0.89128 0.0
H168 H 0.46735 0.05427 0.94228 0.0
H169 H 0.66138 0.81853 0.99281 0.0
H170 H 0.67754 0.83322 1.04329 0.0
H171 H 0.64215 0.91655 0.07313 0.0
H172 H 0.44644 0.15026 1.02387 0.0
H173 H 0.42945 0.13683 0.97273 0.0
C174 C 0.51291 0.00616 0.96439 0.0
C175 C 0.56198 0.93441 0.96384 0.0
C176 C 0.52353 0.01637 0.99347 0.0
C177 C 0.62039 0.87204 0.9926 0.0
C178 C 0.63101 0.88151 1.02149 0.0
C179 C 0.59521 0.96413 0.0512 0.0
C180 C 0.54569 0.0342 0.05222 0.0
C181 C 0.5836 0.95385 1.02218 0.0
C182 C 0.48693 0.09709 1.02366 0.0
C183 C 0.47606 0.08839 0.99447 0.0
H184 H 0.87927 0.34408 0.45774 0.0
H185 H 0.59692 -0.02208 0.45076 0.0
H186 H 0.58684 0.02067 0.39574 0.0
H187 H 0.66692 0.15887 0.35009 0.0
H188 H 0.95612 0.52116 0.35811 0.0
H189 H 0.95461 0.48381 0.41175 0.0
C190 C 0.81401 0.27436 0.44402 0.0
C191 C 0.73882 0.15797 0.4585 0.0
C192 C 0.81055 0.29876 0.41243 0.0
C193 C 0.65628 0.06819 0.44038 0.0
C194 C 0.65039 0.09257 0.40881 0.0
C195 C 0.72831 0.22998 0.36348 0.0
C196 C 0.81191 0.34253 0.35013 0.0
C197 C 0.72835 0.20697 0.39467 0.0
C198 C 0.89192 0.43333 0.36795 0.0
C199 C 0.89079 0.41213 0.39862 0.0
H200 H 0.93458 0.76362 0.77924 0.0
H201 H 0.84101 0.05442 0.76533 0.0
H202 H 0.82389 0.11405 0.70918 0.0
H203 H 0.83439 0.08444 0.6637 0.0
H204 H 0.90815 0.78311 0.67558 0.0
H205 H 0.93493 0.72746 0.73258 0.0
C206 C 0.91018 0.83984 0.76388 0.0
C207 C 0.8891 0.90434 0.77666 0.0
C208 C 0.89742 0.87218 0.73117 0.0
C209 C 0.85672 0.00235 0.75626 0.0
C210 C 0.84742 0.03701 0.72408 0.0
C211 C 0.85699 0.0069 0.67876 0.0
C212 C 0.87125 0.93929 0.66538 0.0
C213 C 0.86756 -0.02722 0.71125 0.0
C214 C 0.89763 0.83736 0.68523 0.0
C215 C 0.91268 0.80536 0.71785 0.0
H216 H 0.83761 0.73175 0.97943 0.0
H217 H 0.21873 0.82441 0.99248 0.0
H218 H 0.2723 0.8096 0.04879 0.0
H219 H 0.21383 0.77324 0.09432 0.0
H220 H 0.83297 0.67021 0.08375 0.0
H221 H 0.77609 0.68348 1.02685 0.0
C222 C 0.93229 0.74838 0.99464 0.0
C223 C 1.02403 0.77942 0.98146 0.0
C224 C 0.96246 0.73722 1.02755 0.0
C225 C 0.14593 0.79962 1.00174 0.0
C226 C 0.17687 0.7915 1.03405 0.0
C227 C 0.11798 0.75371 0.07969 0.0
C228 C 1.02806 0.72189 0.0935 0.0
C229 C 0.08621 0.76069 0.0472 0.0
C230 C 0.90423 0.69481 0.07399 0.0
C231 C 0.87195 0.70321 1.04133 0.0
H232 H 0.1901 0.64725 0.30705 0.0
H233 H 0.5507 0.7969 0.29556 0.0
H234 H 0.64836 0.78238 0.3526 0.0
H235 H 0.63181 0.72598 0.40582 0.0
H236 H 0.27234 0.58507 0.41712 0.0
H237 H 0.17433 0.59486 0.36035 0.0
C238 C 0.28982 0.67541 0.31705 0.0
C239 C 0.36256 0.722 0.29701 0.0
C240 C 0.34577 0.66739 0.34995 0.0
C241 C 0.49224 0.76091 0.31035 0.0
C242 C 0.54829 0.7522 0.34303 0.0
C243 C 0.53201 0.69771 0.39593 0.0
C244 C 0.45999 0.65403 0.416 0.0
C245 C 0.47601 0.70553 0.36307 0.0
C246 C 0.33037 0.6165 0.40257 0.0
C247 C 0.27397 0.62291 0.36996 0.0
H248 H 0.21005 0.80504 0.75719 0.0
H249 H 0.3446 0.52203 0.81223 0.0
H250 H 0.30607 0.47567 0.76343 0.0
H251 H 0.21773 0.50393 0.70552 0.0
H252 H 0.09601 0.79577 0.65057 0.0
H253 H 0.1497 0.85221 0.69925 0.0
C254 C 0.23453 0.73549 0.75868 0.0
C255 C 0.27891 0.66629 0.78852 0.0
C256 C 0.21358 0.71016 0.73055 0.0
C257 C 0.30768 0.57502 0.78968 0.0
C258 C 0.28626 0.54879 0.76176 0.0
C259 C 0.20537 0.5817 0.70402 0.0
C260 C 0.15116 0.64428 0.67432 0.0
C261 C 0.23658 0.61395 0.73209 0.0
C262 C 0.13474 0.74396 0.67307 0.0
C263 C 0.16566 0.77655 0.7009 0.0
loop_
_geom_bond_atom_site_label_1
_geom_bond_atom_site_label_2
_geom_bond_distance
_geom_bond_site_symmetry_2
_ccdc_geom_bond_type
Pr0 C2 2.880 . S
Pr0 O20 2.562 . S
Pr0 O21 2.490 . S
Pr0 O22 2.695 1_655 S
Pr0 O23 2.512 . S
Pr0 O25 2.437 1_655 S
Pr0 O28 2.436 . S
Pr0 O30 2.438 . S
Pr1 C11 2.880 . S
Pr1 O22 2.436 . S
Pr1 O24 2.438 . S
Pr1 O26 2.562 . S
Pr1 O27 2.490 . S
Pr1 O28 2.695 1_455 S
Pr1 O29 2.512 . S
Pr1 O31 2.437 1_455 S
C2 Pr0 2.880 . S
C2 C3 1.491 . S
C2 O20 1.254 . S
C2 O21 1.225 . S
C3 C2 1.491 . S
C3 C4 1.392 . S
C3 C8 1.356 . S
C4 C3 1.392 . S
C4 C5 1.368 . S
C4 H32 0.929 . S
C5 C4 1.368 . S
C5 C6 1.386 . S
C5 H33 0.929 . S
C6 C5 1.386 . S
C6 C7 1.373 . S
C7 C6 1.373 . S
C7 C8 1.409 . S
C7 H34 0.931 . S
C8 C3 1.356 . S
C8 C7 1.409 . S
C8 H35 0.930 . S
C9 O22 1.270 1_655 S
C9 O23 1.248 . S
C10 O24 1.267 . S
C10 O25 1.278 . S
C11 Pr1 2.880 . S
C11 C12 1.491 . S
C11 O26 1.254 . S
C11 O27 1.225 . S
C12 C11 1.491 . S
C12 C13 1.392 . S
C12 C17 1.356 1_565 S
C13 C12 1.392 . S
C13 C14 1.368 . S
C13 H36 0.929 . S
C14 C13 1.368 . S
C14 C15 1.386 1_565 S
C14 H37 0.929 . S
C15 C14 1.386 1_545 S
C15 C16 1.373 . S
C16 C15 1.373 . S
C16 C17 1.409 . S
C16 H38 0.931 . S
C17 C12 1.356 1_545 S
C17 C16 1.409 . S
C17 H39 0.930 . S
C18 O28 1.270 1_455 S
C18 O29 1.248 . S
C19 O30 1.267 . S
C19 O31 1.278 . S
O20 Pr0 2.562 . S
O20 C2 1.254 . S
O21 Pr0 2.490 . S
O21 C2 1.225 . S
O22 Pr0 2.695 1_455 S
O22 Pr1 2.436 . S
O22 C9 1.270 1_455 S
O23 Pr0 2.512 . S
O23 C9 1.248 . S
O24 Pr1 2.438 . S
O24 C10 1.267 . S
O25 Pr0 2.437 1_455 S
O25 C10 1.278 . S
O26 Pr1 2.562 . S
O26 C11 1.254 . S
O27 Pr1 2.490 . S
O27 C11 1.225 . S
O28 Pr0 2.436 . S
O28 Pr1 2.695 1_655 S
O28 C18 1.270 1_655 S
O29 Pr1 2.512 . S
O29 C18 1.248 . S
O30 Pr0 2.438 . S
O30 C19 1.267 . S
O31 Pr1 2.437 1_655 S
O31 C19 1.278 . S
H32 C4 0.929 . S
H33 C5 0.929 . S
H34 C7 0.931 . S
H35 C8 0.930 . S
H36 C13 0.929 . S
H37 C14 0.929 . S
H38 C16 0.931 . S
H39 C17 0.930 . S
Pr40 C42 2.880 . S
Pr40 O60 2.562 . S
Pr40 O61 2.490 1_655 S
Pr40 O62 2.695 1_545 S
Pr40 O63 2.512 1_655 S
Pr40 O65 2.437 . S
Pr40 O68 2.436 . S
Pr40 O70 2.438 . S
Pr41 C51 2.880 . S
Pr41 O62 2.436 . S
Pr41 O64 2.438 . S
Pr41 O66 2.562 . S
Pr41 O67 2.490 . S
Pr41 O68 2.695 1_565 S
Pr41 O69 2.512 . S
Pr41 O71 2.437 1_565 S
C42 Pr40 2.880 . S
C42 C43 1.491 . S
C42 O60 1.254 . S
C42 O61 1.225 1_655 S
C43 C42 1.491 . S
C43 C44 1.391 1_655 S
C43 C48 1.357 . S
C44 C43 1.391 1_455 S
C44 C45 1.368 . S
C44 H72 0.929 . S
C45 C44 1.368 . S
C45 C46 1.386 . S
C45 H73 0.929 . S
C46 C45 1.386 . S
C46 C47 1.373 1_455 S
C47 C46 1.373 1_655 S
C47 C48 1.409 . S
C47 H74 0.931 . S
C48 C43 1.357 . S
C48 C47 1.409 . S
C48 H75 0.930 . S
C49 O62 1.270 1_445 S
C49 O63 1.248 . S
C50 O64 1.267 . S
C50 O65 1.278 1_565 S
C51 Pr41 2.880 . S
C51 C52 1.491 . S
C51 O66 1.254 . S
C51 O67 1.225 . S
C52 C51 1.491 . S
C52 C53 1.392 . S
C52 C57 1.356 . S
C53 C52 1.392 . S
C53 C54 1.368 . S
C53 H76 0.929 . S
C54 C53 1.368 . S
C54 C55 1.386 . S
C54 H77 0.929 . S
C55 C54 1.386 . S
C55 C56 1.373 . S
C56 C55 1.373 . S
C56 C57 1.409 . S
C56 H78 0.931 . S
C57 C52 1.356 . S
C57 C56 1.409 . S
C57 H79 0.930 . S
C58 O68 1.270 1_565 S
C58 O69 1.248 . S
C59 O70 1.267 . S
C59 O71 1.278 . S
O60 Pr40 2.562 . S
O60 C42 1.254 . S
O61 Pr40 2.490 1_455 S
O61 C42 1.225 1_455 S
O62 Pr40 2.695 1_565 S
O62 Pr41 2.436 . S
O62 C49 1.270 1_665 S
O63 Pr40 2.512 1_455 S
O63 C49 1.248 . S
O64 Pr41 2.438 . S
O64 C50 1.267 . S
O65 Pr40 2.437 . S
O65 C50 1.278 1_545 S
O66 Pr41 2.562 . S
O66 C51 1.254 . S
O67 Pr41 2.490 . S
O67 C51 1.225 . S
O68 Pr40 2.436 . S
O68 Pr41 2.695 1_545 S
O68 C58 1.270 1_545 S
O69 Pr41 2.512 . S
O69 C58 1.248 . S
O70 Pr40 2.438 . S
O70 C59 1.267 . S
O71 Pr41 2.437 1_545 S
O71 C59 1.278 . S
H72 C44 0.929 . S
H73 C45 0.929 . S
H74 C47 0.931 . S
H75 C48 0.930 . S
H76 C53 0.929 . S
H77 C54 0.929 . S
H78 C56 0.931 . S
H79 C57 0.930 . S
Pr80 C82 2.880 . S
Pr80 O100 2.562 . S
Pr80 O101 2.490 . S
Pr80 O102 2.695 1_655 S
Pr80 O103 2.512 1_655 S
Pr80 O105 2.437 . S
Pr80 O108 2.436 1_545 S
Pr80 O110 2.438 . S
Pr81 C91 2.880 . S
Pr81 O102 2.436 1_565 S
Pr81 O104 2.438 . S
Pr81 O106 2.562 . S
Pr81 O107 2.490 . S
Pr81 O108 2.695 1_455 S
Pr81 O109 2.512 1_455 S
Pr81 O111 2.437 1_455 S
C82 Pr80 2.880 . S
C82 C83 1.491 . S
C82 O100 1.254 . S
C82 O101 1.225 . S
C83 C82 1.491 . S
C83 C84 1.392 . S
C83 C88 1.356 . S
C84 C83 1.392 . S
C84 C85 1.368 . S
C84 H112 0.929 . S
C85 C84 1.368 . S
C85 C86 1.386 . S
C85 H113 0.929 . S
C86 C85 1.386 . S
C86 C87 1.373 . S
C87 C86 1.373 . S
C87 C88 1.409 . S
C87 H114 0.931 . S
C88 C83 1.356 . S
C88 C87 1.409 . S
C88 H115 0.930 1_545 S
C89 O102 1.270 . S
C89 O103 1.248 . S
C90 O104 1.267 . S
C90 O105 1.278 1_465 S
C91 Pr81 2.880 . S
C91 C92 1.491 . S
C91 O106 1.254 . S
C91 O107 1.225 . S
C92 C91 1.491 . S
C92 C93 1.392 . S
C92 C97 1.356 . S
C93 C92 1.392 . S
C93 C94 1.368 . S
C93 H116 0.929 . S
C94 C93 1.368 . S
C94 C95 1.386 . S
C94 H117 0.929 . S
C95 C94 1.386 . S
C95 C96 1.373 . S
C96 C95 1.373 . S
C96 C97 1.409 . S
C96 H118 0.931 . S
C97 C92 1.356 . S
C97 C96 1.409 . S
C97 H119 0.930 . S
C98 O108 1.270 . S
C98 O109 1.248 . S
C99 O110 1.267 . S
C99 O111 1.278 1_545 S
O100 Pr80 2.562 . S
O100 C82 1.254 . S
O101 Pr80 2.490 . S
O101 C82 1.225 . S
O102 Pr80 2.695 1_455 S
O102 Pr81 2.436 1_545 S
O102 C89 1.270 . S
O103 Pr80 2.512 1_455 S
O103 C89 1.248 . S
O104 Pr81 2.438 . S
O104 C90 1.267 . S
O105 Pr80 2.437 . S
O105 C90 1.278 1_645 S
O106 Pr81 2.562 . S
O106 C91 1.254 . S
O107 Pr81 2.490 . S
O107 C91 1.225 . S
O108 Pr80 2.436 1_565 S
O108 Pr81 2.695 1_655 S
O108 C98 1.270 . S
O109 Pr81 2.512 1_655 S
O109 C98 1.248 . S
O110 Pr80 2.438 . S
O110 C99 1.267 . S
O111 Pr81 2.437 1_655 S
O111 C99 1.278 1_565 S
H112 C84 0.929 . S
H113 C85 0.929 . S
H114 C87 0.931 . S
H115 C88 0.930 1_565 S
H116 C93 0.929 . S
H117 C94 0.929 . S
H118 C96 0.931 . S
H119 C97 0.930 . S
H120 C126 0.930 . S
H121 C129 0.930 . S
H122 C130 0.930 . S
H123 C131 0.930 . S
H124 C134 0.930 . S
H125 C135 0.930 . S
C126 H120 0.930 . S
C126 C127 1.355 1_655 S
C126 C128 1.415 . S
C127 C126 1.355 1_455 S
C127 C129 1.419 . S
C128 C126 1.415 . S
C128 C133 1.425 1_655 S
C128 C135 1.409 . S
C129 H121 0.930 . S
C129 C127 1.419 . S
C129 C130 1.362 . S
C130 H122 0.930 . S
C130 C129 1.362 . S
C130 C133 1.409 . S
C131 H123 0.930 . S
C131 C132 1.355 1_455 S
C131 C133 1.415 . S
C132 C131 1.355 1_655 S
C132 C134 1.419 . S
C133 C128 1.425 1_455 S
C133 C130 1.409 . S
C133 C131 1.415 . S
C134 H124 0.930 . S
C134 C132 1.419 . S
C134 C135 1.362 . S
C135 H125 0.930 . S
C135 C128 1.409 . S
C135 C134 1.362 . S
H136 C142 0.930 . S
H137 C145 0.930 . S
H138 C146 0.930 . S
H139 C147 0.930 . S
H140 C150 0.930 . S
H141 C151 0.930 . S
C142 H136 0.930 . S
C142 C143 1.355 1_565 S
C142 C144 1.415 . S
C143 C142 1.355 1_545 S
C143 C145 1.419 . S
C144 C142 1.415 . S
C144 C149 1.425 1_565 S
C144 C151 1.409 . S
C145 H137 0.930 . S
C145 C143 1.419 . S
C145 C146 1.362 . S
C146 H138 0.930 . S
C146 C145 1.362 . S
C146 C149 1.409 . S
C147 H139 0.930 . S
C147 C148 1.355 . S
C147 C149 1.415 . S
C148 C147 1.355 . S
C148 C150 1.419 1_545 S
C149 C144 1.425 1_545 S
C149 C146 1.409 . S
C149 C147 1.415 . S
C150 H140 0.930 . S
C150 C148 1.419 1_565 S
C150 C151 1.362 . S
C151 H141 0.930 . S
C151 C144 1.409 . S
C151 C150 1.362 . S
H152 C158 0.930 . S
H153 C161 0.930 . S
H154 C162 0.930 . S
H155 C163 0.930 . S
H156 C166 0.930 . S
H157 C167 0.930 . S
C158 H152 0.930 . S
C158 C159 1.355 . S
C158 C160 1.415 . S
C159 C158 1.355 . S
C159 C161 1.419 . S
C160 C158 1.415 . S
C160 C165 1.425 . S
C160 C167 1.409 . S
C161 H153 0.930 . S
C161 C159 1.419 . S
C161 C162 1.362 . S
C162 H154 0.930 . S
C162 C161 1.362 . S
C162 C165 1.409 . S
C163 H155 0.930 . S
C163 C164 1.355 . S
C163 C165 1.415 . S
C164 C163 1.355 . S
C164 C166 1.419 . S
C165 C160 1.425 . S
C165 C162 1.409 . S
C165 C163 1.415 . S
C166 H156 0.930 . S
C166 C164 1.419 . S
C166 C167 1.362 . S
C167 H157 0.930 . S
C167 C160 1.409 . S
C167 C166 1.362 . S
H168 C174 0.930 . S
H169 C177 0.930 . S
H170 C178 0.930 1_554 S
H171 C179 0.930 . S
H172 C182 0.930 . S
H173 C183 0.930 . S
C174 H168 0.930 . S
C174 C175 1.355 . S
C174 C176 1.415 . S
C175 C174 1.355 . S
C175 C177 1.419 . S
C176 C174 1.415 . S
C176 C181 1.425 . S
C176 C183 1.409 . S
C177 H169 0.930 . S
C177 C175 1.419 . S
C177 C178 1.362 . S
C178 H170 0.930 1_556 S
C178 C177 1.362 . S
C178 C181 1.409 . S
C179 H171 0.930 . S
C179 C180 1.355 1_554 S
C179 C181 1.415 1_554 S
C180 C179 1.355 1_556 S
C180 C182 1.419 . S
C181 C176 1.425 . S
C181 C178 1.409 . S
C181 C179 1.415 1_556 S
C182 H172 0.930 . S
C182 C180 1.419 . S
C182 C183 1.362 . S
C183 H173 0.930 . S
C183 C176 1.409 . S
C183 C182 1.362 . S
H184 C190 0.930 . S
H185 C193 0.930 . S
H186 C194 0.930 . S
H187 C195 0.930 . S
H188 C198 0.930 . S
H189 C199 0.930 . S
C190 H184 0.930 . S
C190 C191 1.355 . S
C190 C192 1.415 . S
C191 C190 1.355 . S
C191 C193 1.419 . S
C192 C190 1.415 . S
C192 C197 1.425 . S
C192 C199 1.409 . S
C193 H185 0.930 . S
C193 C191 1.419 . S
C193 C194 1.362 . S
C194 H186 0.930 . S
C194 C193 1.362 . S
C194 C197 1.409 . S
C195 H187 0.930 . S
C195 C196 1.355 . S
C195 C197 1.415 . S
C196 C195 1.355 . S
C196 C198 1.419 . S
C197 C192 1.425 . S
C197 C194 1.409 . S
C197 C195 1.415 . S
C198 H188 0.930 . S
C198 C196 1.419 . S
C198 C199 1.362 . S
C199 H189 0.930 . S
C199 C192 1.409 . S
C199 C198 1.362 . S
H200 C206 0.930 . S
H201 C209 0.930 1_455 S
H202 C210 0.932 . S
H203 C211 0.930 . S
H204 C214 0.930 . S
H205 C215 0.930 . S
C206 H200 0.930 . S
C206 C207 1.355 1_565 S
C206 C208 1.415 . S
C207 C206 1.355 1_545 S
C207 C209 1.419 . S
C208 C206 1.415 . S
C208 C213 1.425 . S
C208 C215 1.409 . S
C209 H201 0.930 1_655 S
C209 C207 1.419 . S
C209 C210 1.361 1_655 S
C210 H202 0.932 . S
C210 C209 1.361 1_455 S
C210 C213 1.408 1_445 S
C211 H203 0.930 . S
C211 C212 1.355 . S
C211 C213 1.415 . S
C212 C211 1.355 . S
C212 C214 1.419 . S
C213 C208 1.425 . S
C213 C210 1.408 1_665 S
C213 C211 1.415 . S
C214 H204 0.930 . S
C214 C212 1.419 . S
C214 C215 1.362 . S
C215 H205 0.930 . S
C215 C208 1.409 . S
C215 C214 1.362 . S
H216 C222 0.930 . S
H217 C225 0.930 . S
H218 C226 0.930 1_554 S
H219 C227 0.930 1_455 S
H220 C230 0.930 . S
H221 C231 0.930 . S
C222 H216 0.930 . S
C222 C223 1.355 . S
C222 C224 1.415 . S
C223 C222 1.355 . S
C223 C225 1.419 1_655 S
C224 C222 1.415 . S
C224 C229 1.420 1_556 S
C224 C231 1.409 . S
C225 H217 0.930 . S
C225 C223 1.419 1_455 S
C225 C226 1.362 . S
C226 H218 0.930 1_556 S
C226 C225 1.362 . S
C226 C229 1.402 1_456 S
C227 H219 0.930 1_655 S
C227 C228 1.355 . S
C227 C229 1.426 . S
C228 C227 1.355 . S
C228 C230 1.419 . S
C229 C224 1.420 1_554 S
C229 C226 1.402 1_654 S
C229 C227 1.426 . S
C230 H220 0.930 . S
C230 C228 1.419 . S
C230 C231 1.362 1_554 S
C231 H221 0.930 . S
C231 C224 1.409 . S
C231 C230 1.362 1_556 S
H232 C238 0.930 . S
H233 C241 0.930 . S
H234 C242 0.930 . S
H235 C243 0.930 . S
H236 C246 0.930 . S
H237 C247 0.930 . S
C238 H232 0.930 . S
C238 C239 1.355 . S
C238 C240 1.415 . S
C239 C238 1.355 . S
C239 C241 1.419 . S
C240 C238 1.415 . S
C240 C245 1.425 . S
C240 C247 1.409 . S
C241 H233 0.930 . S
C241 C239 1.419 . S
C241 C242 1.362 . S
C242 H234 0.930 . S
C242 C241 1.362 . S
C242 C245 1.409 . S
C243 H235 0.930 . S
C243 C244 1.355 . S
C243 C245 1.415 . S
C244 C243 1.355 . S
C244 C246 1.419 . S
C245 C240 1.425 . S
C245 C242 1.409 . S
C245 C243 1.415 . S
C246 H236 0.930 . S
C246 C244 1.419 . S
C246 C247 1.362 . S
C247 H237 0.930 . S
C247 C240 1.409 . S
C247 C246 1.362 . S
H248 C254 0.930 . S
H249 C257 0.930 . S
H250 C258 0.930 . S
H251 C259 0.930 . S
H252 C262 0.930 1_655 S
H253 C263 0.930 . S
C254 H248 0.930 . S
C254 C255 1.355 . S
C254 C256 1.415 . S
C255 C254 1.355 . S
C255 C257 1.419 . S
C256 C254 1.415 . S
C256 C261 1.425 . S
C256 C263 1.409 . S
C257 H249 0.930 . S
C257 C255 1.419 . S
C257 C258 1.362 . S
C258 H250 0.930 . S
C258 C257 1.362 . S
C258 C261 1.409 . S
C259 H251 0.930 . S
C259 C260 1.355 . S
C259 C261 1.415 . S
C260 C259 1.355 . S
C260 C262 1.419 . S
C261 C256 1.425 . S
C261 C258 1.409 . S
C261 C259 1.415 . S
C262 H252 0.930 1_455 S
C262 C260 1.419 . S
C262 C263 1.362 . S
C263 H253 0.930 . S
C263 C256 1.409 . S
C263 C262 1.362 . S
C127 C9 1.731 1_445 S
C132 C18 1.731 1_655 S
C143 C58 1.782 1_545 S
C148 C49 1.782 . S
C159 C89 1.456 . S
C164 C98 1.456 . S
C175 C86 1.007 . S
C180 C15 1.043 1_556 S
C191 C59 2.038 . S
C196 C6 1.945 . S
C207 C99 2.555 . S
C212 C50 2.560 . S
C223 C90 2.513 1_655 S
C228 C19 2.445 . S
C239 C10 1.930 . S
C244 C55 1.767 . S
C255 C95 0.993 . S
C260 C46 0.995 . S
