# Generated by pormake.
# Topology uno, (4)-cn, num edge types: 1
# Building blocks:
#     Node 0, Type 0, BuildingBlock: QUQFOY_clean_sbu_1, # of connection points: 4
#     Node 1, Type 0, BuildingBlock: QUQFOY_clean_sbu_1, # of connection points: 4
#     Node 2, Type 0, BuildingBlock: QUQFOY_clean_sbu_1, # of connection points: 4
#     Node 3, Type 0, BuildingBlock: QUQFOY_clean_sbu_1, # of connection points: 4
#     Node 4, Type 0, BuildingBlock: QUQFOY_clean_sbu_1, # of connection points: 4
#     Node 5, Type 0, BuildingBlock: QUQFOY_clean_sbu_1, # of connection points: 4
#     Node 6, Type 0, BuildingBlock: QUQFOY_clean_sbu_1, # of connection points: 4
#     Node 7, Type 0, BuildingBlock: QUQFOY_clean_sbu_1, # of connection points: 4
#     Node 8, Type 0, BuildingBlock: QUQFOY_clean_sbu_1, # of connection points: 4
#     Node 9, Type 0, BuildingBlock: QUQFOY_clean_sbu_1, # of connection points: 4
#     Node 10, Type 0, BuildingBlock: QUQFOY_clean_sbu_1, # of connection points: 4
#     Node 11, Type 0, BuildingBlock: QUQFOY_clean_sbu_1, # of connection points: 4
#     Node 12, Type 0, BuildingBlock: QUQFOY_clean_sbu_1, # of connection points: 4
#     Node 13, Type 0, BuildingBlock: QUQFOY_clean_sbu_1, # of connection points: 4
#     Node 14, Type 0, BuildingBlock: QUQFOY_clean_sbu_1, # of connection points: 4
#     Node 15, Type 0, BuildingBlock: QUQFOY_clean_sbu_1, # of connection points: 4
#     Node 16, Type 0, BuildingBlock: QUQFOY_clean_sbu_1, # of connection points: 4
#     Node 17, Type 0, BuildingBlock: QUQFOY_clean_sbu_1, # of connection points: 4
#     Node 18, Type 0, BuildingBlock: QUQFOY_clean_sbu_1, # of connection points: 4
#     Node 19, Type 0, BuildingBlock: QUQFOY_clean_sbu_1, # of connection points: 4
#     Node 20, Type 0, BuildingBlock: QUQFOY_clean_sbu_1, # of connection points: 4
#     Node 21, Type 0, BuildingBlock: QUQFOY_clean_sbu_1, # of connection points: 4
#     Node 22, Type 0, BuildingBlock: QUQFOY_clean_sbu_1, # of connection points: 4
#     Node 23, Type 0, BuildingBlock: QUQFOY_clean_sbu_1, # of connection points: 4
#     Edge 24, Type (0, 0), BuildingBlock: EZIPEK_clean_linker_0, # of connection points: 2
#     Edge 25, Type (0, 0), BuildingBlock: EZIPEK_clean_linker_0, # of connection points: 2
#     Edge 26, Type (0, 0), BuildingBlock: EZIPEK_clean_linker_0, # of connection points: 2
#     Edge 27, Type (0, 0), BuildingBlock: EZIPEK_clean_linker_0, # of connection points: 2
#     Edge 28, Type (0, 0), BuildingBlock: EZIPEK_clean_linker_0, # of connection points: 2
#     Edge 29, Type (0, 0), BuildingBlock: EZIPEK_clean_linker_0, # of connection points: 2
#     Edge 30, Type (0, 0), BuildingBlock: EZIPEK_clean_linker_0, # of connection points: 2
#     Edge 31, Type (0, 0), BuildingBlock: EZIPEK_clean_linker_0, # of connection points: 2
#     Edge 32, Type (0, 0), BuildingBlock: EZIPEK_clean_linker_0, # of connection points: 2
#     Edge 33, Type (0, 0), BuildingBlock: EZIPEK_clean_linker_0, # of connection points: 2
#     Edge 34, Type (0, 0), BuildingBlock: EZIPEK_clean_linker_0, # of connection points: 2
#     Edge 35, Type (0, 0), BuildingBlock: EZIPEK_clean_linker_0, # of connection points: 2
#     Edge 36, Type (0, 0), BuildingBlock: EZIPEK_clean_linker_0, # of connection points: 2
#     Edge 37, Type (0, 0), BuildingBlock: EZIPEK_clean_linker_0, # of connection points: 2
#     Edge 38, Type (0, 0), BuildingBlock: EZIPEK_clean_linker_0, # of connection points: 2
#     Edge 39, Type (0, 0), BuildingBlock: EZIPEK_clean_linker_0, # of connection points: 2
#     Edge 40, Type (0, 0), BuildingBlock: EZIPEK_clean_linker_0, # of connection points: 2
#     Edge 41, Type (0, 0), BuildingBlock: EZIPEK_clean_linker_0, # of connection points: 2
#     Edge 42, Type (0, 0), BuildingBlock: EZIPEK_clean_linker_0, # of connection points: 2
#     Edge 43, Type (0, 0), BuildingBlock: EZIPEK_clean_linker_0, # of connection points: 2
#     Edge 44, Type (0, 0), BuildingBlock: EZIPEK_clean_linker_0, # of connection points: 2
#     Edge 45, Type (0, 0), BuildingBlock: EZIPEK_clean_linker_0, # of connection points: 2
#     Edge 46, Type (0, 0), BuildingBlock: EZIPEK_clean_linker_0, # of connection points: 2
#     Edge 47, Type (0, 0), BuildingBlock: EZIPEK_clean_linker_0, # of connection points: 2
#     Edge 48, Type (0, 0), BuildingBlock: EZIPEK_clean_linker_0, # of connection points: 2
#     Edge 49, Type (0, 0), BuildingBlock: EZIPEK_clean_linker_0, # of connection points: 2
#     Edge 50, Type (0, 0), BuildingBlock: EZIPEK_clean_linker_0, # of connection points: 2
#     Edge 51, Type (0, 0), BuildingBlock: EZIPEK_clean_linker_0, # of connection points: 2
#     Edge 52, Type (0, 0), BuildingBlock: EZIPEK_clean_linker_0, # of connection points: 2
#     Edge 53, Type (0, 0), BuildingBlock: EZIPEK_clean_linker_0, # of connection points: 2
#     Edge 54, Type (0, 0), BuildingBlock: EZIPEK_clean_linker_0, # of connection points: 2
#     Edge 55, Type (0, 0), BuildingBlock: EZIPEK_clean_linker_0, # of connection points: 2
#     Edge 56, Type (0, 0), BuildingBlock: EZIPEK_clean_linker_0, # of connection points: 2
#     Edge 57, Type (0, 0), BuildingBlock: EZIPEK_clean_linker_0, # of connection points: 2
#     Edge 58, Type (0, 0), BuildingBlock: EZIPEK_clean_linker_0, # of connection points: 2
#     Edge 59, Type (0, 0), BuildingBlock: EZIPEK_clean_linker_0, # of connection points: 2
#     Edge 60, Type (0, 0), BuildingBlock: EZIPEK_clean_linker_0, # of connection points: 2
#     Edge 61, Type (0, 0), BuildingBlock: EZIPEK_clean_linker_0, # of connection points: 2
#     Edge 62, Type (0, 0), BuildingBlock: EZIPEK_clean_linker_0, # of connection points: 2
#     Edge 63, Type (0, 0), BuildingBlock: EZIPEK_clean_linker_0, # of connection points: 2
#     Edge 64, Type (0, 0), BuildingBlock: EZIPEK_clean_linker_0, # of connection points: 2
#     Edge 65, Type (0, 0), BuildingBlock: EZIPEK_clean_linker_0, # of connection points: 2
#     Edge 66, Type (0, 0), BuildingBlock: EZIPEK_clean_linker_0, # of connection points: 2
#     Edge 67, Type (0, 0), BuildingBlock: EZIPEK_clean_linker_0, # of connection points: 2
#     Edge 68, Type (0, 0), BuildingBlock: EZIPEK_clean_linker_0, # of connection points: 2
#     Edge 69, Type (0, 0), BuildingBlock: EZIPEK_clean_linker_0, # of connection points: 2
#     Edge 70, Type (0, 0), BuildingBlock: EZIPEK_clean_linker_0, # of connection points: 2
#     Edge 71, Type (0, 0), BuildingBlock: EZIPEK_clean_linker_0, # of connection points: 2
# Relax obj value: 0.292
# Max RMSD: 0.241
# Mean RMSD: 0.241
data_MOF--net-uno--node1-QUQFOY_clean_sbu_1--edge1-EZIPEK_clean_linker_0
_symmetry_space_group_name_H-M    P1
_symmetry_Int_Tables_number       1
_symmetry_cell_setting            triclinic
loop_
_symmetry_equiv_pos_as_xyz
'x, y, z'
_cell_length_a     41.685338
_cell_length_b     41.86839
_cell_length_c     41.92699
_cell_angle_alpha  90.061493
_cell_angle_beta   89.940396
_cell_angle_gamma 90.175438
loop_
_atom_site_label
_atom_site_type_symbol
_atom_site_fract_x
_atom_site_fract_y
_atom_site_fract_z
_atom_type_partial_charge
O0 O 0.09821 0.19704 0.26371 0.0
Cd1 Cd 0.10912 0.19268 0.31124 0.0
Cd2 Cd 0.09003 0.12934 0.24379 0.0
O3 O 0.08405 0.1741 0.21875 0.0
O4 O 0.10291 0.23455 0.33288 0.0
O5 O 0.06626 0.19564 0.33216 0.0
C6 C 0.07318 0.22568 0.33609 0.0
C7 C 0.08091 0.07423 0.24235 0.0
C8 C 0.09147 0.19964 0.23444 0.0
C9 C 0.14243 0.14094 0.2915 0.0
O10 O 0.11296 0.14037 0.2843 0.0
O11 O 0.14966 0.16098 0.31331 0.0
O12 O 0.10568 0.08672 0.22838 0.0
O13 O 0.05892 0.09345 0.2529 0.0
O14 O 0.19955 0.75103 0.41366 0.0
Cd15 Cd 0.17464 0.71122 0.42342 0.0
Cd16 Cd 0.12995 0.76039 0.43723 0.0
O17 O 0.17217 0.78879 0.43878 0.0
O18 O 0.21175 0.68272 0.43464 0.0
O19 O 0.17552 0.69931 0.46969 0.0
C20 C 0.20355 0.68708 0.46413 0.0
C21 C 0.07579 0.76268 0.45589 0.0
C22 C 0.19684 0.77962 0.42287 0.0
C23 C 0.12962 0.72666 0.37326 0.0
O24 O 0.12464 0.75065 0.39088 0.0
O25 O 0.14534 0.70251 0.38358 0.0
O26 O 0.09027 0.78761 0.44478 0.0
O27 O 0.09352 0.738 0.46127 0.0
O28 O 0.41185 0.81494 0.76368 0.0
Cd29 Cd 0.42297 0.8456 0.79885 0.0
Cd30 Cd 0.44127 0.88011 0.75017 0.0
O31 O 0.44689 0.83427 0.72918 0.0
O32 O 0.43395 0.81608 0.83521 0.0
O33 O 0.47037 0.84241 0.80674 0.0
C34 C 0.4637 0.81983 0.82687 0.0
C35 C 0.46156 0.93295 0.75282 0.0
C36 C 0.42681 0.81246 0.73753 0.0
C37 C 0.37692 0.89112 0.77325 0.0
O38 O 0.39419 0.88752 0.74878 0.0
O39 O 0.38642 0.88087 0.80048 0.0
O40 O 0.45923 0.91553 0.77825 0.0
O41 O 0.45798 0.91845 0.72574 0.0
O42 O 0.3034 0.24318 0.9255 0.0
Cd43 Cd 0.31478 0.2903 0.9136 0.0
Cd44 Cd 0.38173 0.23785 0.93986 0.0
O45 O 0.33903 0.21054 0.94902 0.0
O46 O 0.27516 0.31512 0.92383 0.0
O47 O 0.3196 0.31657 0.95315 0.0
C48 C 0.28909 0.32207 0.9506 0.0
C49 C 0.43663 0.23372 0.95266 0.0
C50 C 0.31048 0.21655 0.93861 0.0
C51 C 0.36819 0.27749 0.87928 0.0
O52 O 0.37069 0.27323 0.90914 0.0
O53 O 0.34399 0.29417 0.87157 0.0
O54 O 0.42361 0.21603 0.93081 0.0
O55 O 0.41763 0.25149 0.96947 0.0
O56 O 0.11196 0.87378 0.21637 0.0
Cd57 Cd 0.10094 0.8828 0.26155 0.0
Cd58 Cd 0.1084 0.81863 0.1967 0.0
O59 O 0.14611 0.85112 0.186 0.0
O60 O 0.11743 0.92626 0.27419 0.0
O61 O 0.06644 0.91642 0.26213 0.0
C62 C 0.08902 0.93701 0.26786 0.0
C63 C 0.06873 0.78819 0.17281 0.0
C64 C 0.14063 0.87253 0.20675 0.0
C65 C 0.10834 0.81054 0.27449 0.0
O66 O 0.1092 0.80644 0.24444 0.0
O67 O 0.10404 0.83848 0.28703 0.0
O68 O 0.09845 0.77914 0.1717 0.0
O69 O 0.06265 0.81703 0.18235 0.0
O70 O 0.39259 0.75705 0.62612 0.0
Cd71 Cd 0.38508 0.76682 0.5798 0.0
Cd72 Cd 0.33906 0.71962 0.59519 0.0
O73 O 0.37135 0.70887 0.63205 0.0
O74 O 0.42531 0.79248 0.56955 0.0
O75 O 0.41932 0.74267 0.55434 0.0
C76 C 0.43828 0.76686 0.55827 0.0
C77 C 0.3062 0.69173 0.55906 0.0
C78 C 0.38877 0.73188 0.64237 0.0
C79 C 0.31836 0.78836 0.59446 0.0
O80 O 0.31552 0.76057 0.6061 0.0
O81 O 0.34285 0.7956 0.57722 0.0
O82 O 0.30239 0.68842 0.58949 0.0
O83 O 0.33161 0.70668 0.54935 0.0
O84 O 0.39478 0.12229 0.75471 0.0
Cd85 Cd 0.44188 0.12746 0.76305 0.0
Cd86 Cd 0.42518 0.17303 0.71669 0.0
O87 O 0.38572 0.1434 0.70732 0.0
O88 O 0.44698 0.08595 0.78796 0.0
O89 O 0.46923 0.09344 0.74097 0.0
C90 C 0.46134 0.07384 0.76351 0.0
C91 C 0.46686 0.19767 0.68842 0.0
C92 C 0.37631 0.12709 0.73137 0.0
C93 C 0.43006 0.19413 0.78501 0.0
O94 O 0.41665 0.19729 0.75807 0.0
O95 O 0.44792 0.16973 0.79063 0.0
O96 O 0.43764 0.20763 0.68566 0.0
O97 O 0.47155 0.17102 0.7034 0.0
O98 O 0.12192 0.26153 0.12814 0.0
Cd99 Cd 0.12894 0.25369 0.08123 0.0
Cd100 Cd 0.16919 0.3027 0.09506 0.0
O101 O 0.13801 0.31156 0.13345 0.0
O102 O 0.0881 0.22929 0.07181 0.0
O103 O 0.09715 0.27817 0.05404 0.0
C104 C 0.07705 0.25503 0.05893 0.0
C105 C 0.19793 0.32864 0.05508 0.0
C106 C 0.12387 0.28679 0.14458 0.0
C107 C 0.19636 0.23745 0.09357 0.0
O108 O 0.19646 0.26474 0.10659 0.0
O109 O 0.17275 0.22858 0.07598 0.0
O110 O 0.20247 0.33602 0.08473 0.0
O111 O 0.17313 0.31128 0.04808 0.0
O112 O 0.25883 0.10355 0.20546 0.0
Cd113 Cd 0.30063 0.0988 0.18068 0.0
Cd114 Cd 0.25801 0.07978 0.13602 0.0
O115 O 0.23047 0.069 0.17736 0.0
O116 O 0.33078 0.08547 0.2154 0.0
O117 O 0.31514 0.05338 0.17622 0.0
C118 C 0.32779 0.05675 0.20427 0.0
C119 C 0.26155 0.06383 0.08187 0.0
C120 C 0.23394 0.08638 0.20242 0.0
C121 C 0.28274 0.14697 0.13609 0.0
O122 O 0.25993 0.12742 0.13234 0.0
O123 O 0.30771 0.13912 0.15189 0.0
O124 O 0.23432 0.07092 0.09478 0.0
O125 O 0.28569 0.06024 0.10089 0.0
O126 O 0.25098 0.91354 0.30174 0.0
Cd127 Cd 0.29236 0.91943 0.32748 0.0
Cd128 Cd 0.24511 0.93477 0.37145 0.0
O129 O 0.21519 0.93966 0.33079 0.0
O130 O 0.32345 0.93051 0.29267 0.0
O131 O 0.30923 0.96432 0.3308 0.0
C132 C 0.32233 0.95952 0.30318 0.0
C133 C 0.2505 0.95504 0.42365 0.0
C134 C 0.22296 0.92482 0.30511 0.0
C135 C 0.27761 0.86993 0.37247 0.0
O136 O 0.2539 0.88802 0.37738 0.0
O137 O 0.30125 0.8791 0.35535 0.0
O138 O 0.224 0.94198 0.41433 0.0
O139 O 0.27151 0.96191 0.40192 0.0
O140 O 0.25429 0.91914 0.68962 0.0
Cd141 Cd 0.20542 0.91282 0.6863 0.0
Cd142 Cd 0.26649 0.92416 0.61688 0.0
O143 O 0.29583 0.92934 0.65792 0.0
O144 O 0.18729 0.92503 0.72873 0.0
O145 O 0.18193 0.95416 0.68461 0.0
C146 C 0.1799 0.95199 0.71544 0.0
C147 C 0.27145 0.93845 0.56185 0.0
C148 C 0.28413 0.92405 0.68585 0.0
C149 C 0.21752 0.87465 0.63662 0.0
O150 O 0.22485 0.90345 0.63071 0.0
O151 O 0.19728 0.87105 0.6591 0.0
O152 O 0.28537 0.91381 0.57402 0.0
O153 O 0.25656 0.95644 0.58213 0.0
O154 O 0.22575 0.10413 0.88233 0.0
Cd155 Cd 0.27035 0.08818 0.88901 0.0
Cd156 Cd 0.20279 0.10147 0.82887 0.0
O157 O 0.19541 0.13956 0.86211 0.0
O158 O 0.28736 0.10322 0.93138 0.0
O159 O 0.26982 0.05389 0.92318 0.0
C160 C 0.27903 0.07581 0.94307 0.0
C161 C 0.17632 0.06262 0.8001 0.0
C162 C 0.21642 0.13285 0.88294 0.0
C163 C 0.28032 0.09621 0.8164 0.0
O164 O 0.25009 0.09949 0.81427 0.0
O165 O 0.29406 0.08993 0.84338 0.0
O166 O 0.17551 0.09218 0.79082 0.0
O167 O 0.18667 0.05654 0.82863 0.0
O168 O 0.69836 0.24913 0.91472 0.0
Cd169 Cd 0.67559 0.20715 0.92127 0.0
Cd170 Cd 0.6296 0.2497 0.93788 0.0
O171 O 0.67104 0.27627 0.95018 0.0
O172 O 0.71296 0.1783 0.93262 0.0
O173 O 0.67586 0.19248 0.9675 0.0
C174 C 0.70353 0.17954 0.96202 0.0
C175 C 0.57676 0.24522 0.95855 0.0
C176 C 0.69641 0.27291 0.93316 0.0
C177 C 0.63364 0.22485 0.87007 0.0
O178 O 0.62674 0.24674 0.88976 0.0
O179 O 0.64912 0.2001 0.87923 0.0
O180 O 0.58769 0.27196 0.94769 0.0
O181 O 0.59692 0.22196 0.96138 0.0
O182 O 0.91937 0.3084 0.24911 0.0
Cd183 Cd 0.92211 0.33322 0.2907 0.0
Cd184 Cd 0.94324 0.37951 0.24781 0.0
O185 O 0.95121 0.33817 0.21886 0.0
O186 O 0.93522 0.29928 0.32207 0.0
O187 O 0.96676 0.33941 0.30718 0.0
C188 C 0.96371 0.31169 0.32069 0.0
C189 C 0.96078 0.43388 0.25127 0.0
C190 C 0.93438 0.31268 0.22316 0.0
C191 C 0.87453 0.37877 0.27047 0.0
O192 O 0.89563 0.38434 0.2496 0.0
O193 O 0.8808 0.36156 0.29489 0.0
O194 O 0.95341 0.42084 0.22431 0.0
O195 O 0.96337 0.41484 0.2754 0.0
O196 O 0.81242 0.76099 0.41001 0.0
Cd197 Cd 0.83887 0.80062 0.41704 0.0
Cd198 Cd 0.88261 0.75061 0.43336 0.0
O199 O 0.83934 0.72339 0.43574 0.0
O200 O 0.80272 0.83064 0.42739 0.0
O201 O 0.83914 0.81521 0.46261 0.0
C202 C 0.81124 0.82764 0.45693 0.0
C203 C 0.9348 0.75091 0.45607 0.0
C204 C 0.81438 0.73271 0.42036 0.0
C205 C 0.88609 0.78374 0.36862 0.0
O206 O 0.89063 0.76049 0.38724 0.0
O207 O 0.86863 0.80746 0.377 0.0
O208 O 0.92374 0.72597 0.44159 0.0
O209 O 0.91464 0.77356 0.46222 0.0
O210 O 0.88918 0.62065 0.24853 0.0
Cd211 Cd 0.93512 0.62705 0.26134 0.0
Cd212 Cd 0.92088 0.6727 0.21002 0.0
O213 O 0.87986 0.64464 0.20237 0.0
O214 O 0.94018 0.58639 0.28766 0.0
O215 O 0.9645 0.59336 0.24154 0.0
C216 C 0.95642 0.57423 0.26441 0.0
C217 C 0.96223 0.69747 0.18203 0.0
C218 C 0.87083 0.62657 0.22531 0.0
C219 C 0.9239 0.6961 0.27848 0.0
O220 O 0.9147 0.69896 0.24987 0.0
O221 O 0.9376 0.67038 0.2882 0.0
O222 O 0.93304 0.70751 0.17911 0.0
O223 O 0.96664 0.67011 0.19583 0.0
O224 O 0.61834 0.37453 0.71045 0.0
Cd225 Cd 0.60716 0.38369 0.75572 0.0
Cd226 Cd 0.61397 0.31819 0.69332 0.0
O227 O 0.65191 0.3498 0.68112 0.0
O228 O 0.62367 0.42662 0.76934 0.0
O229 O 0.57288 0.41746 0.75604 0.0
C230 C 0.59563 0.4377 0.76231 0.0
C231 C 0.57148 0.28951 0.67227 0.0
C232 C 0.64706 0.37199 0.70123 0.0
C233 C 0.61609 0.31216 0.77092 0.0
O234 O 0.61638 0.3066 0.74108 0.0
O235 O 0.61138 0.34045 0.78234 0.0
O236 O 0.60028 0.27791 0.67146 0.0
O237 O 0.56811 0.31953 0.67926 0.0
O238 O 0.60525 0.70184 0.76105 0.0
Cd239 Cd 0.60777 0.6961 0.80956 0.0
Cd240 Cd 0.5982 0.62977 0.74391 0.0
O241 O 0.59889 0.67312 0.71706 0.0
O242 O 0.59634 0.73816 0.82962 0.0
O243 O 0.56329 0.69634 0.82752 0.0
C244 C 0.56752 0.7267 0.8325 0.0
C245 C 0.59091 0.57491 0.73855 0.0
C246 C 0.60313 0.70033 0.73098 0.0
C247 C 0.63959 0.64185 0.79741 0.0
O248 O 0.61063 0.64051 0.78869 0.0
O249 O 0.6459 0.66339 0.818 0.0
O250 O 0.61774 0.58822 0.73036 0.0
O251 O 0.56681 0.59324 0.7453 0.0
O252 O 0.87449 0.2268 0.10847 0.0
Cd253 Cd 0.8827 0.26608 0.08328 0.0
Cd254 Cd 0.82236 0.20122 0.10565 0.0
O255 O 0.85428 0.19978 0.14633 0.0
O256 O 0.92505 0.28747 0.09109 0.0
O257 O 0.91673 0.25383 0.05138 0.0
C258 C 0.93697 0.27015 0.06833 0.0
C259 C 0.79623 0.17221 0.06667 0.0
C260 C 0.87503 0.2205 0.13787 0.0
C261 C 0.81084 0.27734 0.08876 0.0
O262 O 0.8092 0.24806 0.09662 0.0
O263 O 0.83768 0.29003 0.07977 0.0
O264 O 0.78299 0.17624 0.09441 0.0
O265 O 0.82671 0.17816 0.064 0.0
O266 O 0.62491 0.76186 0.61888 0.0
Cd267 Cd 0.63183 0.75226 0.57272 0.0
Cd268 Cd 0.67494 0.80231 0.58801 0.0
O269 O 0.64316 0.811 0.626 0.0
O270 O 0.59016 0.72792 0.56556 0.0
O271 O 0.5995 0.77535 0.54461 0.0
C272 C 0.57906 0.75305 0.55156 0.0
C273 C 0.7083 0.82901 0.55168 0.0
C274 C 0.62796 0.78639 0.63615 0.0
C275 C 0.6986 0.73487 0.58862 0.0
O276 O 0.69968 0.76292 0.59976 0.0
O277 O 0.67524 0.7258 0.5707 0.0
O278 O 0.71109 0.83397 0.58202 0.0
O279 O 0.68319 0.81356 0.54194 0.0
O280 O 0.74724 0.59797 0.70266 0.0
Cd281 Cd 0.78984 0.59159 0.68047 0.0
Cd282 Cd 0.74322 0.5776 0.62972 0.0
O283 O 0.7118 0.57491 0.67045 0.0
O284 O 0.81647 0.58087 0.71903 0.0
O285 O 0.80649 0.54661 0.68002 0.0
C286 C 0.81607 0.55163 0.70902 0.0
C287 C 0.74446 0.55971 0.57506 0.0
C288 C 0.71898 0.58842 0.69715 0.0
C289 C 0.77889 0.64156 0.63359 0.0
O290 O 0.75573 0.62368 0.62571 0.0
O291 O 0.80044 0.63218 0.65315 0.0
O292 O 0.71911 0.57227 0.58755 0.0
O293 O 0.76721 0.55262 0.59473 0.0
O294 O 0.74959 0.40342 0.81 0.0
Cd295 Cd 0.78682 0.41683 0.83823 0.0
Cd296 Cd 0.7391 0.43619 0.87267 0.0
O297 O 0.71621 0.44055 0.8272 0.0
O298 O 0.82284 0.42486 0.80718 0.0
O299 O 0.79539 0.46347 0.83107 0.0
C300 C 0.81497 0.45476 0.80867 0.0
C301 C 0.75048 0.46084 0.92301 0.0
C302 C 0.72392 0.41923 0.80644 0.0
C303 C 0.76509 0.37439 0.88773 0.0
O304 O 0.73947 0.38925 0.88189 0.0
O305 O 0.79187 0.38522 0.87729 0.0
O306 O 0.7215 0.45286 0.91499 0.0
O307 O 0.77176 0.45977 0.90047 0.0
O308 O 0.75511 0.3954 0.11253 0.0
Cd309 Cd 0.76527 0.44176 0.11753 0.0
Cd310 Cd 0.71575 0.42786 0.1657 0.0
O311 O 0.7071 0.38895 0.13463 0.0
O312 O 0.79217 0.44964 0.07733 0.0
O313 O 0.74231 0.46543 0.08124 0.0
C314 C 0.76697 0.46058 0.06316 0.0
C315 C 0.68897 0.46093 0.20291 0.0
C316 C 0.73073 0.3783 0.11809 0.0
C317 C 0.78464 0.4274 0.18509 0.0
O318 O 0.75639 0.41698 0.18821 0.0
O319 O 0.79311 0.44371 0.16043 0.0
O320 O 0.68612 0.43019 0.20399 0.0
O321 O 0.7023 0.47298 0.17774 0.0
O322 O 0.75292 0.62401 0.38678 0.0
Cd323 Cd 0.76309 0.57766 0.38136 0.0
Cd324 Cd 0.71309 0.59059 0.3361 0.0
O325 O 0.70507 0.63113 0.36502 0.0
O326 O 0.78747 0.57121 0.42317 0.0
O327 O 0.73937 0.55095 0.41487 0.0
C328 C 0.76216 0.55759 0.43479 0.0
C329 C 0.6845 0.5496 0.30914 0.0
C330 C 0.72877 0.64138 0.38163 0.0
C331 C 0.78047 0.58889 0.31232 0.0
O332 O 0.75211 0.59915 0.30977 0.0
O333 O 0.78971 0.57402 0.33759 0.0
O334 O 0.68102 0.57937 0.30162 0.0
O335 O 0.70108 0.54401 0.33464 0.0
C336 C 0.13938 0.26887 0.19786 0.0
C337 C 0.11556 0.28266 0.17858 0.0
C338 C 0.0747 0.24797 0.20229 0.0
C339 C 0.09911 0.23076 0.21833 0.0
N340 N 0.15228 0.23556 0.24285 0.0
N341 N 0.06083 0.29778 0.17589 0.0
C342 C 0.13071 0.24462 0.22007 0.0
C343 C 0.08314 0.27619 0.18531 0.0
N344 N 0.17063 0.27767 0.19328 0.0
N345 N 0.04366 0.23756 0.20329 0.0
H346 H 0.0679 0.31894 0.16464 0.0
H347 H 0.03671 0.29635 0.18225 0.0
H348 H 0.03642 0.21802 0.21699 0.0
H349 H 0.02547 0.24766 0.18964 0.0
H350 H 0.19009 0.26573 0.2032 0.0
H351 H 0.17689 0.29654 0.17823 0.0
H352 H 0.17425 0.24696 0.24622 0.0
H353 H 0.14747 0.21958 0.26111 0.0
C354 C 0.08924 0.74473 0.33516 0.0
C355 C 0.12013 0.73158 0.33959 0.0
C356 C 0.13848 0.76048 0.2923 0.0
C357 C 0.11112 0.78101 0.29461 0.0
N358 N 0.0571 0.78812 0.31393 0.0
N359 N 0.17372 0.72392 0.32011 0.0
C360 C 0.08526 0.77155 0.31459 0.0
C361 C 0.14437 0.73793 0.31695 0.0
N362 N 0.06429 0.73207 0.35206 0.0
N363 N 0.1583 0.76139 0.26639 0.0
H364 H 0.17793 0.70553 0.33628 0.0
H365 H 0.19398 0.73131 0.3075 0.0
H366 H 0.1541 0.77533 0.24645 0.0
H367 H 0.17676 0.74508 0.26271 0.0
H368 H 0.04049 0.73886 0.34922 0.0
H369 H 0.06766 0.71264 0.36732 0.0
H370 H 0.03842 0.7844 0.32996 0.0
H371 H 0.0526 0.80632 0.29758 0.0
C372 C 0.43307 0.74177 0.67978 0.0
C373 C 0.40017 0.73438 0.6756 0.0
C374 C 0.38539 0.7753 0.71392 0.0
C375 C 0.41831 0.78467 0.71678 0.0
N376 N 0.47377 0.7692 0.71097 0.0
N377 N 0.34786 0.73336 0.69871 0.0
C378 C 0.44239 0.76544 0.70247 0.0
C379 C 0.37756 0.74698 0.69697 0.0
N380 N 0.45497 0.72758 0.66023 0.0
N381 N 0.36138 0.79465 0.72487 0.0
H382 H 0.34214 0.71294 0.68554 0.0
H383 H 0.33062 0.74011 0.71541 0.0
H384 H 0.36524 0.81784 0.73308 0.0
H385 H 0.33714 0.78921 0.72249 0.0
H386 H 0.47891 0.73459 0.65887 0.0
H387 H 0.44823 0.70948 0.64439 0.0
H388 H 0.49188 0.75396 0.70327 0.0
H389 H 0.48123 0.78564 0.72814 0.0
C390 C 0.40226 0.27026 0.82893 0.0
C391 C 0.38523 0.25665 0.85496 0.0
C392 C 0.40119 0.20259 0.83679 0.0
C393 C 0.41873 0.21595 0.81108 0.0
N394 N 0.43211 0.26244 0.77964 0.0
N395 N 0.36903 0.20993 0.88319 0.0
C396 C 0.41826 0.24985 0.8064 0.0
C397 C 0.38546 0.22301 0.85878 0.0
N398 N 0.40434 0.30277 0.82656 0.0
N399 N 0.3957 0.17028 0.8381 0.0
H400 H 0.34898 0.22124 0.89223 0.0
H401 H 0.37653 0.18891 0.89405 0.0
H402 H 0.40461 0.1538 0.82182 0.0
H403 H 0.37975 0.15953 0.85395 0.0
H404 H 0.41895 0.31471 0.81034 0.0
H405 H 0.39286 0.31819 0.8424 0.0
H406 H 0.42902 0.28588 0.77208 0.0
H407 H 0.44569 0.24889 0.76385 0.0
C408 C 0.17911 0.10536 0.2161 0.0
C409 C 0.20789 0.09134 0.2266 0.0
C410 C 0.19265 0.10631 0.282 0.0
C411 C 0.16707 0.12507 0.27006 0.0
N412 N 0.14928 0.15306 0.22352 0.0
N413 N 0.24426 0.08213 0.27063 0.0
C414 C 0.16356 0.1272 0.23647 0.0
C415 C 0.21527 0.09272 0.25999 0.0
N416 N 0.16751 0.10008 0.18613 0.0
N417 N 0.19539 0.10126 0.31401 0.0
H418 H 0.26087 0.07119 0.2557 0.0
H419 H 0.25246 0.08595 0.2938 0.0
H420 H 0.17949 0.11106 0.33051 0.0
H421 H 0.21187 0.08539 0.32381 0.0
H422 H 0.14565 0.10951 0.17859 0.0
H423 H 0.1773 0.08345 0.17049 0.0
H424 H 0.14795 0.15716 0.199 0.0
H425 H 0.145 0.17263 0.23784 0.0
C426 C 0.24513 0.81536 0.42951 0.0
C427 C 0.22117 0.80192 0.40958 0.0
C428 C 0.25151 0.81937 0.36219 0.0
C429 C 0.27229 0.83664 0.38225 0.0
N430 N 0.2979 0.84041 0.43262 0.0
N431 N 0.2012 0.79061 0.35656 0.0
C432 C 0.27192 0.83105 0.4153 0.0
C433 C 0.22461 0.80328 0.37567 0.0
N434 N 0.24169 0.8142 0.46183 0.0
N435 N 0.25718 0.81999 0.33011 0.0
H436 H 0.17985 0.7812 0.36554 0.0
H437 H 0.20171 0.7909 0.33179 0.0
H438 H 0.27704 0.83203 0.32073 0.0
H439 H 0.24414 0.80719 0.31325 0.0
H440 H 0.25692 0.82617 0.47743 0.0
H441 H 0.22207 0.80337 0.47286 0.0
H442 H 0.30157 0.83393 0.45628 0.0
H443 H 0.31739 0.85166 0.4216 0.0
C444 C 0.32447 0.94277 0.72714 0.0
C445 C 0.30495 0.91812 0.71426 0.0
C446 C 0.32109 0.88263 0.75833 0.0
C447 C 0.34493 0.90474 0.76692 0.0
N448 N 0.36403 0.95835 0.76745 0.0
N449 N 0.28507 0.86379 0.71733 0.0
C450 C 0.34449 0.9359 0.75396 0.0
C451 C 0.30273 0.88805 0.7303 0.0
N452 N 0.32423 0.97228 0.7133 0.0
N453 N 0.31734 0.8558 0.77644 0.0
H454 H 0.27345 0.86585 0.69553 0.0
H455 H 0.28415 0.84076 0.72654 0.0
H456 H 0.33129 0.85194 0.79674 0.0
H457 H 0.29886 0.83931 0.77341 0.0
H458 H 0.33909 0.99098 0.72004 0.0
H459 H 0.30902 0.97814 0.69447 0.0
H460 H 0.36533 0.98208 0.76039 0.0
H461 H 0.37827 0.9529 0.7872 0.0
C462 C 0.22958 0.17512 0.92555 0.0
C463 C 0.23777 0.15798 0.89748 0.0
C464 C 0.29405 0.16948 0.90725 0.0
C465 C 0.28669 0.1904 0.9325 0.0
N466 N 0.24568 0.21608 0.9638 0.0
N467 N 0.27597 0.15556 0.85501 0.0
C468 C 0.25375 0.19416 0.94115 0.0
C469 C 0.26952 0.16006 0.88634 0.0
N470 N 0.19915 0.17311 0.93729 0.0
N471 N 0.32413 0.15768 0.90347 0.0
H472 H 0.25716 0.15336 0.8389 0.0
H473 H 0.29886 0.15891 0.84539 0.0
H474 H 0.34133 0.16011 0.92133 0.0
H475 H 0.32977 0.14156 0.8853 0.0
H476 H 0.19241 0.18269 0.95923 0.0
H477 H 0.18116 0.16033 0.92554 0.0
H478 H 0.22208 0.22239 0.96895 0.0
H479 H 0.26305 0.22875 0.9765 0.0
C480 C 0.17749 0.86661 0.25373 0.0
C481 C 0.16646 0.88563 0.22815 0.0
C482 C 0.19171 0.93265 0.25368 0.0
C483 C 0.19878 0.91396 0.28107 0.0
N484 N 0.193 0.86418 0.30919 0.0
N485 N 0.16545 0.93636 0.20173 0.0
C486 C 0.18994 0.88129 0.28164 0.0
C487 C 0.17438 0.91865 0.22753 0.0
N488 N 0.17811 0.83428 0.25055 0.0
N489 N 0.20159 0.9637 0.25291 0.0
H490 H 0.15472 0.92601 0.18173 0.0
H491 H 0.16805 0.961 0.20011 0.0
H492 H 0.21144 0.97478 0.27288 0.0
H493 H 0.20015 0.97836 0.23297 0.0
H494 H 0.18923 0.81937 0.26704 0.0
H495 H 0.17148 0.82302 0.2294 0.0
H496 H 0.1833 0.8414 0.31195 0.0
H497 H 0.20204 0.87406 0.33023 0.0
C498 C 0.27299 0.82687 0.58098 0.0
C499 C 0.29294 0.81188 0.6039 0.0
C500 C 0.25423 0.82692 0.64563 0.0
C501 C 0.23856 0.84803 0.6243 0.0
N502 N 0.23079 0.86543 0.57014 0.0
N503 N 0.30466 0.8024 0.65947 0.0
C504 C 0.24744 0.84726 0.59146 0.0
C505 C 0.28412 0.81339 0.63663 0.0
N506 N 0.27715 0.8202 0.5494 0.0
N507 N 0.24032 0.81838 0.67388 0.0
H508 H 0.32757 0.79384 0.65425 0.0
H509 H 0.30022 0.8051 0.68375 0.0
H510 H 0.21744 0.8254 0.6807 0.0
H511 H 0.24987 0.80081 0.68866 0.0
H512 H 0.26087 0.82706 0.53197 0.0
H513 H 0.29546 0.80555 0.5409 0.0
H514 H 0.23767 0.86854 0.54648 0.0
H515 H 0.21025 0.87813 0.57648 0.0
C516 C 0.29602 0.1308 0.76837 0.0
C517 C 0.29934 0.10181 0.78643 0.0
C518 C 0.33998 0.08432 0.74782 0.0
C519 C 0.34295 0.11602 0.73664 0.0
N520 N 0.322 0.16911 0.73329 0.0
N521 N 0.32001 0.04816 0.78873 0.0
C522 C 0.31981 0.13889 0.74535 0.0
C523 C 0.31991 0.07755 0.77458 0.0
N524 N 0.2702 0.15049 0.77229 0.0
N525 N 0.35801 0.06138 0.73335 0.0
H526 H 0.30392 0.04179 0.80672 0.0
H527 H 0.33616 0.03013 0.78315 0.0
H528 H 0.37151 0.06664 0.71301 0.0
H529 H 0.3583 0.03752 0.73995 0.0
H530 H 0.26556 0.16978 0.75735 0.0
H531 H 0.25111 0.1461 0.78748 0.0
H532 H 0.30941 0.1885 0.7425 0.0
H533 H 0.33751 0.17489 0.71463 0.0
C534 C 0.27266 0.1867 0.09402 0.0
C535 C 0.27479 0.17998 0.12704 0.0
C536 C 0.22552 0.20945 0.13698 0.0
C537 C 0.2223 0.21549 0.10374 0.0
N538 N 0.24597 0.21569 0.05128 0.0
N539 N 0.26076 0.19423 0.18041 0.0
C540 C 0.247 0.20605 0.08236 0.0
C541 C 0.25399 0.19523 0.1486 0.0
N542 N 0.29456 0.17313 0.07399 0.0
N543 N 0.20048 0.21541 0.1572 0.0
H544 H 0.28151 0.18322 0.18892 0.0
H545 H 0.24778 0.20682 0.19753 0.0
H546 H 0.17848 0.22426 0.14938 0.0
H547 H 0.20031 0.20852 0.18106 0.0
H548 H 0.29339 0.17422 0.04923 0.0
H549 H 0.31383 0.15992 0.08283 0.0
H550 H 0.26425 0.21145 0.03493 0.0
H551 H 0.22725 0.2294 0.04215 0.0
C552 C 0.74297 0.35097 0.93721 0.0
C553 C 0.76151 0.34645 0.90911 0.0
C554 C 0.75113 0.28946 0.91297 0.0
C555 C 0.72426 0.29591 0.93314 0.0
N556 N 0.70239 0.33067 0.97345 0.0
N557 N 0.78572 0.31036 0.87148 0.0
C558 C 0.72283 0.32595 0.9485 0.0
C559 C 0.76703 0.31527 0.89775 0.0
N560 N 0.74466 0.37958 0.95255 0.0
N561 N 0.76217 0.25901 0.90944 0.0
H562 H 0.79856 0.32874 0.86053 0.0
H563 H 0.78719 0.28834 0.85994 0.0
H564 H 0.75339 0.24013 0.92316 0.0
H565 H 0.78278 0.25348 0.8965 0.0
H566 H 0.73388 0.38452 0.97439 0.0
H567 H 0.75949 0.3976 0.94398 0.0
H568 H 0.69616 0.35313 0.98208 0.0
H569 H 0.69263 0.31178 0.98643 0.0
C570 C 0.82861 0.36788 0.23668 0.0
C571 C 0.84192 0.38773 0.26049 0.0
C572 C 0.8139 0.43355 0.23722 0.0
C573 C 0.80748 0.41536 0.20936 0.0
N574 N 0.80727 0.36404 0.18298 0.0
N575 N 0.84636 0.43931 0.2849 0.0
C576 C 0.81423 0.38202 0.20935 0.0
C577 C 0.8337 0.42044 0.26153 0.0
N578 N 0.83123 0.33554 0.23991 0.0
N579 N 0.79991 0.46263 0.24128 0.0
H580 H 0.85984 0.42973 0.30356 0.0
H581 H 0.84446 0.46413 0.28489 0.0
H582 H 0.78639 0.47373 0.22356 0.0
H583 H 0.79922 0.47384 0.26346 0.0
H584 H 0.82041 0.31907 0.22471 0.0
H585 H 0.84201 0.32537 0.25994 0.0
H586 H 0.8129 0.33998 0.18078 0.0
H587 H 0.7976 0.37374 0.16221 0.0
C588 C 0.76713 0.69683 0.43392 0.0
C589 C 0.78751 0.71106 0.41076 0.0
C590 C 0.75009 0.69371 0.36849 0.0
C591 C 0.7335 0.67508 0.39097 0.0
N592 N 0.71647 0.66951 0.44467 0.0
N593 N 0.79909 0.72203 0.35522 0.0
C594 C 0.73896 0.68031 0.4237 0.0
C595 C 0.77878 0.7098 0.37779 0.0
N596 N 0.77519 0.69803 0.4654 0.0
N597 N 0.73869 0.6947 0.33803 0.0
H598 H 0.82178 0.73105 0.36063 0.0
H599 H 0.79477 0.72102 0.33085 0.0
H600 H 0.71783 0.68239 0.33162 0.0
H601 H 0.7478 0.70955 0.3203 0.0
H602 H 0.7636 0.68442 0.48267 0.0
H603 H 0.79497 0.71071 0.47387 0.0
H604 H 0.71676 0.67443 0.46901 0.0
H605 H 0.69582 0.65786 0.43652 0.0
C606 C 0.8141 0.57421 0.26415 0.0
C607 C 0.8022 0.59777 0.28545 0.0
C608 C 0.8189 0.63952 0.2475 0.0
C609 C 0.83724 0.61686 0.23092 0.0
N610 N 0.84632 0.56269 0.21668 0.0
N611 N 0.79376 0.65363 0.29757 0.0
C612 C 0.83226 0.58403 0.23688 0.0
C613 C 0.80429 0.6307 0.27686 0.0
N614 N 0.80772 0.54277 0.2698 0.0
N615 N 0.81691 0.66974 0.23558 0.0
H616 H 0.78515 0.64836 0.32033 0.0
H617 H 0.79609 0.67797 0.29334 0.0
H618 H 0.82812 0.67593 0.21416 0.0
H619 H 0.80193 0.68727 0.24494 0.0
H620 H 0.81453 0.52457 0.25449 0.0
H621 H 0.79464 0.5349 0.28952 0.0
H622 H 0.84612 0.53806 0.2197 0.0
H623 H 0.85846 0.57051 0.19629 0.0
C624 C 0.68682 0.36381 0.74553 0.0
C625 C 0.67301 0.38457 0.72289 0.0
C626 C 0.6945 0.43033 0.75399 0.0
C627 C 0.7028 0.40918 0.77921 0.0
N628 N 0.69996 0.35577 0.80085 0.0
N629 N 0.66594 0.43804 0.7037 0.0
C630 C 0.69693 0.37596 0.77543 0.0
C631 C 0.67767 0.41809 0.72656 0.0
N632 N 0.69203 0.33263 0.73808 0.0
N633 N 0.70307 0.46176 0.75603 0.0
H634 H 0.65577 0.42937 0.68265 0.0
H635 H 0.66547 0.4628 0.70577 0.0
H636 H 0.71532 0.47117 0.77558 0.0
H637 H 0.69942 0.47828 0.73792 0.0
H638 H 0.70601 0.31786 0.75244 0.0
H639 H 0.68644 0.32287 0.71593 0.0
H640 H 0.69312 0.3318 0.79986 0.0
H641 H 0.70577 0.36375 0.82373 0.0
C642 C 0.58631 0.76867 0.673 0.0
C643 C 0.61745 0.78159 0.66951 0.0
C644 C 0.63375 0.75143 0.71659 0.0
C645 C 0.60638 0.73094 0.71269 0.0
N646 N 0.55378 0.72366 0.68978 0.0
N647 N 0.67085 0.78738 0.69007 0.0
C648 C 0.58162 0.74077 0.69177 0.0
C649 C 0.64097 0.77418 0.69244 0.0
N650 N 0.56163 0.78306 0.65749 0.0
N651 N 0.65227 0.7504 0.74338 0.0
H652 H 0.6761 0.80559 0.67393 0.0
H653 H 0.69046 0.7793 0.70316 0.0
H654 H 0.64662 0.73697 0.76335 0.0
H655 H 0.67087 0.7665 0.7477 0.0
H656 H 0.53772 0.77626 0.6601 0.0
H657 H 0.56551 0.80428 0.64502 0.0
H658 H 0.53672 0.72752 0.67209 0.0
H659 H 0.54832 0.70478 0.70509 0.0
C660 C 0.59643 0.24517 0.82957 0.0
C661 C 0.62723 0.23297 0.83616 0.0
C662 C 0.64757 0.26409 0.79115 0.0
C663 C 0.61947 0.28367 0.79218 0.0
N664 N 0.5649 0.28976 0.81073 0.0
N665 N 0.68276 0.2292 0.82099 0.0
C666 C 0.59311 0.27329 0.81093 0.0
C667 C 0.65295 0.24154 0.81594 0.0
N668 N 0.57047 0.22897 0.84072 0.0
N669 N 0.66843 0.26571 0.76614 0.0
H670 H 0.68702 0.21097 0.83733 0.0
H671 H 0.70327 0.23791 0.80967 0.0
H672 H 0.66429 0.27945 0.74604 0.0
H673 H 0.68761 0.25003 0.76336 0.0
H674 H 0.54688 0.23508 0.83529 0.0
H675 H 0.57351 0.20687 0.85182 0.0
H676 H 0.54613 0.28478 0.82641 0.0
H677 H 0.56083 0.30939 0.79601 0.0
C678 C 0.93227 0.25621 0.20137 0.0
C679 C 0.92649 0.28956 0.197 0.0
C680 C 0.88328 0.27596 0.16001 0.0
C681 C 0.89125 0.24309 0.161 0.0
N682 N 0.92576 0.20192 0.18117 0.0
N683 N 0.90025 0.33076 0.16652 0.0
C684 C 0.91656 0.23317 0.18128 0.0
C685 C 0.90372 0.29921 0.17398 0.0
N686 N 0.95207 0.24656 0.22538 0.0
N687 N 0.85404 0.28464 0.14884 0.0
H688 H 0.91422 0.34877 0.17661 0.0
H689 H 0.88576 0.33857 0.14786 0.0
H690 H 0.83673 0.26735 0.14459 0.0
H691 H 0.84556 0.30799 0.14881 0.0
H692 H 0.95431 0.22286 0.23255 0.0
H693 H 0.96521 0.26269 0.23913 0.0
H694 H 0.94606 0.19362 0.19298 0.0
H695 H 0.91401 0.18457 0.1676 0.0
C696 C 0.87424 0.76256 0.31597 0.0
C697 C 0.89696 0.77766 0.33559 0.0
C698 C 0.93923 0.74247 0.3145 0.0
C699 C 0.91519 0.72319 0.30002 0.0
N700 N 0.85909 0.71432 0.28787 0.0
N701 N 0.95151 0.79012 0.34619 0.0
C702 C 0.8825 0.73345 0.30049 0.0
C703 C 0.92982 0.7703 0.33197 0.0
N704 N 0.84446 0.77571 0.3134 0.0
N705 N 0.97072 0.73399 0.31178 0.0
H706 H 0.94394 0.81093 0.35769 0.0
H707 H 0.97624 0.7872 0.34546 0.0
H708 H 0.97808 0.71349 0.29975 0.0
H709 H 0.98968 0.74676 0.32158 0.0
H710 H 0.82691 0.76761 0.29768 0.0
H711 H 0.8387 0.79699 0.32507 0.0
H712 H 0.8348 0.71974 0.28866 0.0
H713 H 0.86363 0.69153 0.27893 0.0
C714 C 0.67169 0.59497 0.77548 0.0
C715 C 0.66455 0.62818 0.77523 0.0
C716 C 0.68567 0.63164 0.72053 0.0
C717 C 0.69461 0.59901 0.72114 0.0
N718 N 0.70102 0.55072 0.75144 0.0
N719 N 0.6759 0.67916 0.75166 0.0
C720 C 0.68909 0.58097 0.74938 0.0
C721 C 0.67476 0.64678 0.74891 0.0
N722 N 0.66146 0.57676 0.80048 0.0
N723 N 0.68767 0.64839 0.69267 0.0
H724 H 0.67082 0.69058 0.77313 0.0
H725 H 0.68602 0.69391 0.73433 0.0
H726 H 0.69596 0.63828 0.67146 0.0
H727 H 0.67772 0.67104 0.69004 0.0
H728 H 0.66261 0.55193 0.80073 0.0
H729 H 0.65042 0.58672 0.82051 0.0
H730 H 0.70112 0.53744 0.77242 0.0
H731 H 0.71227 0.53951 0.73222 0.0
C732 C 0.76921 0.31693 0.06969 0.0
C733 C 0.78148 0.29737 0.09447 0.0
C734 C 0.74416 0.32264 0.13263 0.0
C735 C 0.7348 0.3444 0.10873 0.0
N736 N 0.72948 0.35639 0.05338 0.0
N737 N 0.76997 0.27333 0.1466 0.0
C738 C 0.74409 0.33901 0.07669 0.0
C739 C 0.76548 0.29729 0.12489 0.0
N740 N 0.7817 0.31451 0.03963 0.0
N741 N 0.73488 0.32782 0.16348 0.0
H742 H 0.78482 0.25379 0.14359 0.0
H743 H 0.7559 0.27083 0.167 0.0
H744 H 0.71741 0.34449 0.16962 0.0
H745 H 0.74547 0.31667 0.18301 0.0
H746 H 0.7762 0.32997 0.02104 0.0
H747 H 0.79831 0.29703 0.0333 0.0
H748 H 0.73368 0.35345 0.02912 0.0
H749 H 0.71112 0.37247 0.05876 0.0
C750 C 0.75684 0.6938 0.6449 0.0
C751 C 0.7748 0.67503 0.62355 0.0
C752 C 0.74776 0.70116 0.57858 0.0
C753 C 0.72427 0.71306 0.59995 0.0
N754 N 0.70664 0.72118 0.65444 0.0
N755 N 0.79108 0.66332 0.57011 0.0
C756 C 0.72918 0.70998 0.63352 0.0
C757 C 0.77197 0.68032 0.59033 0.0
N758 N 0.76541 0.69434 0.67629 0.0
N759 N 0.74765 0.71055 0.54746 0.0
H760 H 0.80951 0.64884 0.57874 0.0
H761 H 0.78789 0.66269 0.54548 0.0
H762 H 0.72996 0.72524 0.53785 0.0
H763 H 0.76685 0.70622 0.53224 0.0
H764 H 0.75478 0.70908 0.69326 0.0
H765 H 0.78562 0.68212 0.68441 0.0
H766 H 0.70816 0.71852 0.67905 0.0
H767 H 0.68488 0.73095 0.64714 0.0
C768 C 0.07604 0.99329 0.28619 0.0
C769 C 0.08407 0.97189 0.26128 0.0
C770 C 0.08415 0.01693 0.22314 0.0
C771 C 0.07958 0.03882 0.24863 0.0
N772 N 0.07649 0.04784 0.30559 0.0
N773 N 0.09755 0.96316 0.20606 0.0
C774 C 0.07659 0.02699 0.28047 0.0
C775 C 0.08859 0.98372 0.22975 0.0
N776 N 0.06751 0.98135 0.31531 0.0
N777 N 0.08298 0.02777 0.1924 0.0
H778 H 0.09907 0.93854 0.20936 0.0
H779 H 0.10539 0.97053 0.18366 0.0
H780 H 0.07894 0.05166 0.18667 0.0
H781 H 0.083 0.01292 0.17249 0.0
H782 H 0.05777 0.99527 0.33347 0.0
H783 H 0.06757 0.95694 0.32033 0.0
H784 H 0.07789 0.04063 0.32931 0.0
H785 H 0.07811 0.07252 0.30295 0.0
C786 C 0.25451 0.7116 0.53611 0.0
C787 C 0.27826 0.68739 0.53694 0.0
C788 C 0.2497 0.65941 0.49343 0.0
C789 C 0.22847 0.68583 0.49011 0.0
N790 N 0.21855 0.74146 0.50286 0.0
N791 N 0.3002 0.63923 0.51471 0.0
C792 C 0.23283 0.71302 0.51011 0.0
C793 C 0.27639 0.66154 0.51504 0.0
N794 N 0.25263 0.73376 0.55999 0.0
N795 N 0.24386 0.63204 0.47666 0.0
H796 H 0.31909 0.6396 0.53103 0.0
H797 H 0.30224 0.62162 0.49727 0.0
H798 H 0.22431 0.6296 0.46133 0.0
H799 H 0.25661 0.61097 0.47998 0.0
H800 H 0.23357 0.74968 0.56218 0.0
H801 H 0.26806 0.73422 0.57943 0.0
H802 H 0.22378 0.76265 0.51486 0.0
H803 H 0.20485 0.74521 0.48251 0.0
C804 C 0.44631 0.02227 0.73491 0.0
C805 C 0.46394 0.03794 0.75952 0.0
C806 C 0.48331 0.98496 0.77748 0.0
C807 C 0.46333 0.96921 0.75475 0.0
N808 N 0.4184 0.97433 0.71848 0.0
N809 N 0.49558 0.03341 0.8073 0.0
C810 C 0.44302 0.98825 0.73507 0.0
C811 C 0.48115 0.01897 0.78183 0.0
N812 N 0.43176 0.03971 0.71153 0.0
N813 N 0.50555 0.96772 0.79399 0.0
H814 H 0.49658 0.05814 0.81009 0.0
H815 H 0.50481 0.02082 0.82662 0.0
H816 H 0.509 0.94332 0.79048 0.0
H817 H 0.52281 0.97804 0.8087 0.0
H818 H 0.42253 0.02945 0.69081 0.0
H819 H 0.43063 0.06453 0.7115 0.0
H820 H 0.40084 0.98734 0.70658 0.0
H821 H 0.41255 0.9502 0.71999 0.0
C822 C 0.22107 0.35268 1.0042 0.0
C823 C 0.22443 0.33247 0.03116 0.0
C824 C 0.27159 0.30744 0.00642 0.0
C825 C 0.26909 0.32834 0.97972 0.0
N826 N 0.24568 0.3753 0.95651 0.0
N827 N 0.25844 0.2969 0.0615 0.0
C828 C 0.24506 0.35237 0.97965 0.0
C829 C 0.25169 0.31227 0.03354 0.0
N830 N 0.19475 0.37187 1.00192 0.0
N831 N 0.29086 0.28104 1.0051 0.0
H832 H 0.24412 0.29818 0.08175 0.0
H833 H 0.28008 0.28522 0.06564 0.0
H834 H 0.30429 0.27441 0.98528 0.0
H835 H 0.29081 0.26327 0.02244 0.0
H836 H 0.18889 0.38469 0.98149 0.0
H837 H 0.17787 0.37374 0.02022 0.0
H838 H 0.23079 0.39521 0.95655 0.0
H839 H 0.26323 0.37586 0.93875 0.0
C840 C 0.25541 0.0936 0.0296 0.0
C841 C 0.26605 0.06588 0.04616 0.0
C842 C 0.28867 0.04571 0.99535 0.0
C843 C 0.27486 0.07176 0.97857 0.0
N844 N 0.23708 0.11538 0.97957 0.0
N845 N 0.28891 0.0132 0.04346 0.0
C846 C 0.25602 0.09427 0.99568 0.0
C847 C 0.28171 0.04128 0.02863 0.0
N848 N 0.24597 0.12014 0.0461 0.0
N849 N 0.30931 0.02577 0.9798 0.0
H850 H 0.28382 0.00904 0.06746 0.0
H851 H 0.29724 0.99311 0.03138 0.0
H852 H 0.31507 0.02849 0.95574 0.0
H853 H 0.32276 0.00833 0.9913 0.0
H854 H 0.24125 0.14193 0.03509 0.0
H855 H 0.24641 0.12171 0.07086 0.0
H856 H 0.22061 0.13028 0.99086 0.0
H857 H 0.23476 0.11514 0.95485 0.0
C858 C 0.29783 1.00088 0.26807 0.0
C859 C 0.32608 0.98641 0.27999 0.0
C860 C 0.35751 0.01828 0.24134 0.0
C861 C 0.32861 0.02917 0.22708 0.0
N862 N 0.27146 0.02041 0.22131 0.0
N863 N 0.38309 0.97858 0.27537 0.0
C864 C 0.29893 0.01734 0.23872 0.0
C865 C 0.3561 0.99418 0.26573 0.0
N866 N 0.26952 0.99922 0.28441 0.0
N867 N 0.38611 0.03083 0.23158 0.0
H868 H 0.38283 0.96207 0.29401 0.0
H869 H 0.40512 0.98076 0.26384 0.0
H870 H 0.38772 0.04721 0.2129 0.0
H871 H 0.40779 0.02621 0.24298 0.0
H872 H 0.25019 0.01392 0.27875 0.0
H873 H 0.26587 0.98606 0.30509 0.0
H874 H 0.2498 0.0099 0.22803 0.0
H875 H 0.27088 0.02979 0.19846 0.0
C876 C 0.25603 0.97349 0.51371 0.0
C877 C 0.27047 0.94483 0.52579 0.0
C878 C 0.2803 0.92975 0.46939 0.0
C879 C 0.25953 0.9541 0.4584 0.0
N880 N 0.22438 0.99757 0.47144 0.0
N881 N 0.29171 0.89212 0.51066 0.0
C882 C 0.24609 0.97525 0.48103 0.0
C883 C 0.28153 0.92205 0.50252 0.0
N884 N 0.25395 1.00015 0.53237 0.0
N885 N 0.29918 0.91346 0.44833 0.0
H886 H 0.29427 0.88296 0.53334 0.0
H887 H 0.2953 0.87431 0.4937 0.0
H888 H 0.29824 0.9165 0.42373 0.0
H889 H 0.31823 0.89927 0.45589 0.0
H890 H 0.24519 0.02185 0.52395 0.0
H891 H 0.26584 1.00236 0.55408 0.0
H892 H 0.21135 0.01145 0.48752 0.0
H893 H 0.21786 1.00046 0.44759 0.0
C894 C 0.19915 0.00666 0.73166 0.0
C895 C 0.17644 0.98147 0.7355 0.0
C896 C 0.15107 0.01114 0.77987 0.0
C897 C 0.17398 0.0361 0.77615 0.0
N898 N 0.2227 0.05569 0.75138 0.0
N899 N 0.12888 0.96066 0.76053 0.0
C900 C 0.19833 0.03365 0.75234 0.0
C901 C 0.15194 0.98391 0.75903 0.0
N902 N 0.2222 1.00466 0.70844 0.0
N903 N 0.12892 0.01335 0.80384 0.0
H904 H 0.12871 0.94092 0.74532 0.0
H905 H 0.10891 0.96145 0.77536 0.0
H906 H 0.12674 0.03363 0.81817 0.0
H907 H 0.1133 0.99511 0.81039 0.0
H908 H 0.23501 0.02425 0.69992 0.0
H909 H 0.22826 0.98358 0.69674 0.0
H910 H 0.24387 0.05278 0.73856 0.0
H911 H 0.22327 0.07639 0.76502 0.0
C912 C 0.99385 0.2736 0.09019 0.0
C913 C 0.97305 0.26685 0.06409 0.0
C914 C 0.02119 0.24881 0.03417 0.0
C915 C 0.0415 0.26086 0.05848 0.0
N916 N 0.04532 0.29452 0.10509 0.0
N917 N 0.96999 0.25449 0.00751 0.0
C918 C 0.02727 0.27658 0.0848 0.0
C919 C 0.98751 0.25609 0.03494 0.0
N920 N 0.98275 0.27424 0.12088 0.0
N921 N 0.03389 0.23075 0.01023 0.0
H922 H 0.94659 0.26287 0.00575 0.0
H923 H 0.9801 0.24887 0.98548 0.0
H924 H 0.05843 0.22614 0.00853 0.0
H925 H 0.01977 0.21856 0.99369 0.0
H926 H 0.99799 0.27749 0.14034 0.0
H927 H 0.95998 0.26634 0.12742 0.0
H928 H 0.0344 0.30998 0.12128 0.0
H929 H 0.07008 0.29707 0.10298 0.0
C930 C 0.52236 0.24536 0.987 0.0
C931 C 0.54121 0.23937 0.95948 0.0
C932 C 0.49205 0.23367 0.92795 0.0
C933 C 0.4727 0.23576 0.95582 0.0
N934 N 0.47113 0.23707 0.01351 0.0
N935 N 0.54279 0.21681 0.90671 0.0
C936 C 0.4883 0.23991 0.98592 0.0
C937 C 0.52567 0.22998 0.931 0.0
N938 N 0.53688 0.25614 0.01411 0.0
N939 N 0.47908 0.23768 0.89828 0.0
H940 H 0.56755 0.21349 0.9078 0.0
H941 H 0.53139 0.20567 0.88754 0.0
H942 H 0.45539 0.24457 0.89448 0.0
H943 H 0.4931 0.23863 0.87767 0.0
H944 H 0.52418 0.26414 0.03396 0.0
H945 H 0.56171 0.25899 0.01579 0.0
H946 H 0.4817 0.23716 0.03601 0.0
H947 H 0.44686 0.23109 0.01393 0.0
C948 C 0.02192 0.25067 0.35827 0.0
C949 C 0.04679 0.25005 0.33496 0.0
C950 C 0.016 0.28792 0.30219 0.0
C951 C 0.9928 0.2914 0.32688 0.0
N952 N 0.97553 0.27847 0.38016 0.0
N953 N 0.06906 0.27237 0.28615 0.0
C954 C 0.99624 0.27332 0.35542 0.0
C955 C 0.04452 0.27035 0.30776 0.0
N956 N 0.0227 0.22946 0.38299 0.0
N957 N 0.00961 0.29866 0.27203 0.0
H958 H 0.08883 0.25738 0.28558 0.0
H959 H 0.07059 0.29061 0.26929 0.0
H960 H 0.98832 0.30965 0.26547 0.0
H961 H 0.02365 0.29301 0.25224 0.0
H962 H 1.00363 0.2259 0.39865 0.0
H963 H 0.04195 0.21406 0.38678 0.0
H964 H 0.97827 0.26836 0.40266 0.0
H965 H 0.95699 0.2951 0.37896 0.0
C966 C 0.02345 0.74398 0.48275 0.0
C967 C 0.03942 0.76106 0.45789 0.0
C968 C 0.98633 0.77649 0.43684 0.0
C969 C 0.97056 0.75605 0.45895 0.0
N970 N 0.97487 0.71683 0.50055 0.0
N971 N 0.03409 0.78501 0.40551 0.0
C972 C 0.98941 0.73862 0.48109 0.0
C973 C 0.02035 0.77523 0.43349 0.0
N974 N 0.04043 0.73408 0.50872 0.0
N975 N 0.96897 0.79695 0.41837 0.0
H976 H 0.02073 0.79277 0.38603 0.0
H977 H 0.05812 0.78139 0.39982 0.0
H978 H 0.944 0.79768 0.41829 0.0
H979 H 0.9797 0.8152 0.40519 0.0
H980 H 0.02973 0.72408 0.52884 0.0
H981 H 0.06477 0.73899 0.51169 0.0
H982 H 0.98757 0.70073 0.5146 0.0
H983 H 0.95006 0.71345 0.50095 0.0
C984 C 0.48887 0.74487 0.53025 0.0
C985 C 0.4745 0.76414 0.55445 0.0
C986 C 0.52885 0.78121 0.57067 0.0
C987 C 0.54326 0.75862 0.5498 0.0
N988 N 0.53603 0.71557 0.51241 0.0
N989 N 0.48349 0.79125 0.60483 0.0
C990 C 0.52292 0.73927 0.53055 0.0
C991 C 0.49518 0.77995 0.5765 0.0
N992 N 0.47044 0.73304 0.50605 0.0
N993 N 0.54707 0.80375 0.58573 0.0
H994 H 0.46016 0.78706 0.61271 0.0
H995 H 0.4982 0.80068 0.62262 0.0
H996 H 0.57196 0.8049 0.58421 0.0
H997 H 0.53685 0.823 0.59782 0.0
H998 H 0.47998 0.72121 0.48636 0.0
H999 H 0.4461 0.73812 0.50379 0.0
H1000 H 0.5223 0.69831 0.50076 0.0
H1001 H 0.56074 0.71201 0.51073 0.0
C1002 C 0.03911 0.74379 0.20003 0.0
C1003 C 0.04246 0.76373 0.17281 0.0
C1004 C 0.99444 0.7382 0.14938 0.0
C1005 C 0.9899 0.72017 0.17783 0.0
N1006 N 1.00227 0.71543 0.23402 0.0
N1007 N 0.02084 0.78334 0.12344 0.0
C1008 C 0.01076 0.72548 0.20413 0.0
C1009 C 0.01928 0.76204 0.14803 0.0
N1010 N 0.06276 0.74244 0.22257 0.0
N1011 N 0.97565 0.73197 0.12344 0.0
H1012 H 0.03934 0.80006 0.12133 0.0
H1013 H 1.00291 0.78578 0.10636 0.0
H1014 H 0.95766 0.7146 0.12365 0.0
H1015 H 0.97947 0.74213 0.1011 0.0
H1016 H 0.06304 0.72541 0.24069 0.0
H1017 H 0.08354 0.75619 0.22186 0.0
H1018 H 0.01485 0.72198 0.25448 0.0
H1019 H 0.98061 0.70416 0.23918 0.0
C1020 C 0.5059 0.22741 0.65192 0.0
C1021 C 0.49417 0.22039 0.68299 0.0
C1022 C 0.52949 0.26196 0.70532 0.0
C1023 C 0.54339 0.26719 0.67474 0.0
N1024 N 0.54741 0.25258 0.61938 0.0
N1025 N 0.49965 0.22681 0.74001 0.0
C1026 C 0.53236 0.24915 0.64812 0.0
C1027 C 0.50735 0.23651 0.70981 0.0
N1028 N 0.49161 0.21345 0.62612 0.0
N1029 N 0.53714 0.28141 0.73045 0.0
H1030 H 0.48297 0.209 0.74497 0.0
H1031 H 0.51175 0.2346 0.76033 0.0
H1032 H 0.55492 0.29883 0.72979 0.0
H1033 H 0.52397 0.28193 0.75158 0.0
H1034 H 0.49671 0.21968 0.60262 0.0
H1035 H 0.47313 0.19673 0.62837 0.0
H1036 H 0.54299 0.23793 0.59979 0.0
H1037 H 0.56578 0.26916 0.61569 0.0
C1038 C 0.5885 0.49428 0.78217 0.0
C1039 C 0.59136 0.47269 0.7563 0.0
C1040 C 0.59004 0.51796 0.71844 0.0
C1041 C 0.58936 0.53964 0.74442 0.0
N1042 N 0.59109 0.54905 0.8012 0.0
N1043 N 0.59654 0.46337 0.69975 0.0
C1044 C 0.58919 0.52793 0.77635 0.0
C1045 C 0.59239 0.4844 0.72438 0.0
N1046 N 0.58432 0.48246 0.81229 0.0
N1047 N 0.5876 0.52956 0.68805 0.0
H1048 H 0.59697 0.43868 0.70287 0.0
H1049 H 0.6015 0.47015 0.6764 0.0
H1050 H 0.5862 0.55391 0.68302 0.0
H1051 H 0.58474 0.51533 0.66791 0.0
H1052 H 0.57862 0.49647 0.83199 0.0
H1053 H 0.58413 0.45804 0.81724 0.0
H1054 H 0.59503 0.54234 0.82475 0.0
H1055 H 0.59103 0.57375 0.79814 0.0
C1056 C 0.73251 0.14626 1.00461 0.0
C1057 C 0.72755 0.17575 0.98866 0.0
C1058 C 0.77269 0.19921 0.0186 0.0
C1059 C 0.77529 0.17112 0.03749 0.0
N1060 N 0.75583 0.11847 0.05014 0.0
N1061 N 0.73764 0.23238 0.98769 0.0
C1062 C 0.75459 0.14475 0.03097 0.0
C1063 C 0.74638 0.20265 0.99751 0.0
N1064 N 0.71627 0.11978 0.9945 0.0
N1065 N 0.79478 0.22333 0.02096 0.0
H1066 H 0.71673 0.23607 0.97502 0.0
H1067 H 0.74826 0.25343 0.9958 0.0
H1068 H 0.81335 0.22404 0.03741 0.0
H1069 H 0.79625 0.24182 1.00438 0.0
H1070 H 0.72076 0.09687 1.00297 0.0
H1071 H 0.69956 0.12062 0.976 0.0
H1072 H 0.73933 0.09979 0.04899 0.0
H1073 H 0.77267 0.11617 0.0684 0.0
C1074 C 0.98187 0.52035 0.2784 0.0
C1075 C 0.95917 0.53843 0.26078 0.0
C1076 C 0.9352 0.48801 0.24155 0.0
C1077 C 0.96066 0.46995 0.25518 0.0
N1078 N 0.01053 0.47011 0.28425 0.0
N1079 N 0.91728 0.53882 0.22106 0.0
C1080 C 0.98455 0.48646 0.27318 0.0
C1081 C 0.93699 0.52203 0.24085 0.0
N1082 N 1.00074 0.5355 0.30032 0.0
N1083 N 0.9078 0.473 0.23154 0.0
H1084 H 0.91637 0.56368 0.22061 0.0
H1085 H 0.90392 0.52786 0.20309 0.0
H1086 H 0.9039 0.44854 0.23399 0.0
H1087 H 0.88725 0.48532 0.22464 0.0
H1088 H 0.01522 0.52344 0.31652 0.0
H1089 H 1.00011 0.56018 0.30379 0.0
H1090 H 0.03024 0.48114 0.29485 0.0
H1091 H 0.01375 0.44575 0.28024 0.0
C1092 C 0.76138 0.80919 0.53159 0.0
C1093 C 0.73682 0.83258 0.53006 0.0
C1094 C 0.76508 0.85718 0.48441 0.0
C1095 C 0.78674 0.83092 0.4832 0.0
N1096 N 0.79752 0.7768 0.50083 0.0
N1097 N 0.71383 0.87783 0.50339 0.0
C1098 C 0.78295 0.80565 0.50564 0.0
C1099 C 0.73822 0.85631 0.50592 0.0
N1100 N 0.76405 0.78972 0.55757 0.0
N1101 N 0.77064 0.8833 0.46572 0.0
H1102 H 0.69481 0.87854 0.51959 0.0
H1103 H 0.71153 0.8936 0.48434 0.0
H1104 H 0.79042 0.885 0.45056 0.0
H1105 H 0.75747 0.90433 0.46743 0.0
H1106 H 0.78359 0.77464 0.56109 0.0
H1107 H 0.74886 0.79096 0.5772 0.0
H1108 H 0.79296 0.75688 0.51502 0.0
H1109 H 0.81059 0.77108 0.48049 0.0
C1110 C 0.73786 0.58342 0.51934 0.0
C1111 C 0.74885 0.55788 0.53896 0.0
C1112 C 0.77194 0.53307 0.49013 0.0
C1113 C 0.75676 0.55622 0.47054 0.0
N1114 N 0.71929 0.59994 0.46741 0.0
N1115 N 0.77262 0.50541 0.54113 0.0
C1116 C 0.7377 0.58006 0.48545 0.0
C1117 C 0.76505 0.53192 0.52381 0.0
N1118 N 0.73012 0.61225 0.5326 0.0
N1119 N 0.79304 0.51216 0.47664 0.0
H1120 H 0.7667 0.5029 0.56515 0.0
H1121 H 0.78175 0.48464 0.53095 0.0
H1122 H 0.79758 0.51164 0.45216 0.0
H1123 H 0.80765 0.49708 0.48995 0.0
H1124 H 0.72504 0.63243 0.51896 0.0
H1125 H 0.73308 0.61745 0.55672 0.0
H1126 H 0.70175 0.6145 0.4775 0.0
H1127 H 0.71929 0.5997 0.44256 0.0
C1128 C 0.84367 0.52509 0.75653 0.0
C1129 C 0.81975 0.5244 0.73224 0.0
C1130 C 0.80077 0.47287 0.75347 0.0
C1131 C 0.8206 0.47647 0.78076 0.0
N1132 N 0.8603 0.50694 0.80919 0.0
N1133 N 0.76977 0.5007 0.71398 0.0
C1134 C 0.84193 0.50289 0.78255 0.0
C1135 C 0.79697 0.49892 0.73212 0.0
N1136 N 0.86852 0.54628 0.75427 0.0
N1137 N 0.78466 0.44489 0.74815 0.0
H1138 H 0.76283 0.52096 0.70145 0.0
H1139 H 0.7516 0.48363 0.71472 0.0
H1140 H 0.78598 0.42527 0.76328 0.0
H1141 H 0.77268 0.43999 0.72688 0.0
H1142 H 0.88813 0.54621 0.76963 0.0
H1143 H 0.8711 0.56186 0.73503 0.0
H1144 H 0.87377 0.52745 0.81362 0.0
H1145 H 0.86058 0.49029 0.82771 0.0
C1146 C 0.78237 0.44248 0.00664 0.0
C1147 C 0.76531 0.46394 0.02688 0.0
C1148 C 0.7397 0.48593 0.97809 0.0
C1149 C 0.75922 0.46646 0.95804 0.0
N1150 N 0.80808 0.43482 0.95572 0.0
N1151 N 0.73368 0.51206 0.02957 0.0
C1152 C 0.78377 0.44809 0.97306 0.0
C1153 C 0.7456 0.48738 0.01192 0.0
N1154 N 0.79486 0.41479 0.01855 0.0
N1155 N 0.7157 0.50361 0.96488 0.0
H1156 H 0.73927 0.51537 0.05356 0.0
H1157 H 0.72148 0.53129 0.01959 0.0
H1158 H 0.7128 0.50602 0.94029 0.0
H1159 H 0.69801 0.5148 0.97841 0.0
H1160 H 0.80483 0.39721 1.00397 0.0
H1161 H 0.79107 0.40699 0.04182 0.0
H1162 H 0.82753 0.42355 0.96652 0.0
H1163 H 0.81091 0.43772 0.9313 0.0
C1164 C 0.65881 0.52968 0.25699 0.0
C1165 C 0.67582 0.52305 0.28571 0.0
C1166 C 0.69643 0.47359 0.26172 0.0
C1167 C 0.68197 0.48128 0.23188 0.0
N1168 N 0.6475 0.51569 0.20148 0.0
N1169 N 0.69413 0.47992 0.31897 0.0
C1170 C 0.66238 0.50902 0.22972 0.0
C1171 C 0.6895 0.4923 0.28923 0.0
N1172 N 0.6373 0.55423 0.25684 0.0
N1173 N 0.71881 0.44987 0.26367 0.0
H1174 H 0.68517 0.49093 0.33942 0.0
H1175 H 0.70191 0.4566 0.32283 0.0
H1176 H 0.72638 0.4364 0.2442 0.0
H1177 H 0.73257 0.446 0.28405 0.0
H1178 H 0.62294 0.56029 0.23754 0.0
H1179 H 0.63116 0.5665 0.27762 0.0
H1180 H 0.63559 0.5369 0.19662 0.0
H1181 H 0.64768 0.49994 0.1822 0.0
C1182 C 0.51224 0.79672 0.85608 0.0
C1183 C 0.48776 0.7938 0.83271 0.0
C1184 C 0.51565 0.74755 0.80969 0.0
C1185 C 0.5392 0.74884 0.83421 0.0
N1186 N 0.55662 0.7714 0.88412 0.0
N1187 N 0.46147 0.76001 0.79395 0.0
C1188 C 0.53653 0.77254 0.85846 0.0
C1189 C 0.48793 0.76709 0.81181 0.0
N1190 N 0.5124 0.82271 0.87575 0.0
N1191 N 0.52062 0.72948 0.78293 0.0
H1192 H 0.44025 0.77289 0.79553 0.0
H1193 H 0.45932 0.73913 0.78053 0.0
H1194 H 0.54136 0.7163 0.77882 0.0
H1195 H 0.50581 0.73058 0.76295 0.0
H1196 H 0.53119 0.82816 0.89117 0.0
H1197 H 0.4942 0.83978 0.87536 0.0
H1198 H 0.55417 0.786 0.90408 0.0
H1199 H 0.57417 0.75386 0.88657 0.0
loop_
_geom_bond_atom_site_label_1
_geom_bond_atom_site_label_2
_geom_bond_distance
_geom_bond_site_symmetry_2
_ccdc_geom_bond_type
O0 Cd1 2.223 . S
O0 C8 1.315 . S
Cd1 O0 2.223 . S
Cd1 O4 2.297 . S
Cd1 O5 2.439 . S
Cd1 O11 2.240 . S
Cd2 O3 2.240 . S
Cd2 O10 2.223 . S
Cd2 O12 2.297 . S
Cd2 O13 2.439 . S
O3 Cd2 2.240 . S
O3 C8 1.279 . S
O4 Cd1 2.297 . S
O4 C6 1.247 . S
O5 Cd1 2.439 . S
O5 C6 1.208 . S
C6 O4 1.247 . S
C6 O5 1.208 . S
C7 O12 1.247 . S
C7 O13 1.208 . S
C8 O0 1.315 . S
C8 O3 1.279 . S
C9 O10 1.315 . S
C9 O11 1.279 . S
O10 Cd2 2.223 . S
O10 C9 1.315 . S
O11 Cd1 2.240 . S
O11 C9 1.279 . S
O12 Cd2 2.297 . S
O12 C7 1.247 . S
O13 Cd2 2.439 . S
O13 C7 1.208 . S
O14 Cd15 2.223 . S
O14 C22 1.315 . S
Cd15 O14 2.223 . S
Cd15 O18 2.297 . S
Cd15 O19 2.439 . S
Cd15 O25 2.240 . S
Cd16 O17 2.240 . S
Cd16 O24 2.223 . S
Cd16 O26 2.297 . S
Cd16 O27 2.439 . S
O17 Cd16 2.240 . S
O17 C22 1.279 . S
O18 Cd15 2.297 . S
O18 C20 1.247 . S
O19 Cd15 2.439 . S
O19 C20 1.208 . S
C20 O18 1.247 . S
C20 O19 1.208 . S
C21 O26 1.247 . S
C21 O27 1.208 . S
C22 O14 1.315 . S
C22 O17 1.279 . S
C23 O24 1.315 . S
C23 O25 1.279 . S
O24 Cd16 2.223 . S
O24 C23 1.315 . S
O25 Cd15 2.240 . S
O25 C23 1.279 . S
O26 Cd16 2.297 . S
O26 C21 1.247 . S
O27 Cd16 2.439 . S
O27 C21 1.208 . S
O28 Cd29 2.223 . S
O28 C36 1.315 . S
Cd29 O28 2.223 . S
Cd29 O32 2.297 . S
Cd29 O33 2.439 . S
Cd29 O39 2.240 . S
Cd30 O31 2.240 . S
Cd30 O38 2.223 . S
Cd30 O40 2.297 . S
Cd30 O41 2.439 . S
O31 Cd30 2.240 . S
O31 C36 1.279 . S
O32 Cd29 2.297 . S
O32 C34 1.247 . S
O33 Cd29 2.439 . S
O33 C34 1.208 . S
C34 O32 1.247 . S
C34 O33 1.208 . S
C35 O40 1.247 . S
C35 O41 1.208 . S
C36 O28 1.315 . S
C36 O31 1.279 . S
C37 O38 1.315 . S
C37 O39 1.279 . S
O38 Cd30 2.223 . S
O38 C37 1.315 . S
O39 Cd29 2.240 . S
O39 C37 1.279 . S
O40 Cd30 2.297 . S
O40 C35 1.247 . S
O41 Cd30 2.439 . S
O41 C35 1.208 . S
O42 Cd43 2.223 . S
O42 C50 1.315 . S
Cd43 O42 2.223 . S
Cd43 O46 2.297 . S
Cd43 O47 2.439 . S
Cd43 O53 2.240 . S
Cd44 O45 2.240 . S
Cd44 O52 2.223 . S
Cd44 O54 2.297 . S
Cd44 O55 2.439 . S
O45 Cd44 2.240 . S
O45 C50 1.279 . S
O46 Cd43 2.297 . S
O46 C48 1.247 . S
O47 Cd43 2.439 . S
O47 C48 1.208 . S
C48 O46 1.247 . S
C48 O47 1.208 . S
C49 O54 1.247 . S
C49 O55 1.208 . S
C50 O42 1.315 . S
C50 O45 1.279 . S
C51 O52 1.315 . S
C51 O53 1.279 . S
O52 Cd44 2.223 . S
O52 C51 1.315 . S
O53 Cd43 2.240 . S
O53 C51 1.279 . S
O54 Cd44 2.297 . S
O54 C49 1.247 . S
O55 Cd44 2.439 . S
O55 C49 1.208 . S
O56 Cd57 2.223 . S
O56 C64 1.315 . S
Cd57 O56 2.223 . S
Cd57 O60 2.297 . S
Cd57 O61 2.439 . S
Cd57 O67 2.240 . S
Cd58 O59 2.240 . S
Cd58 O66 2.223 . S
Cd58 O68 2.297 . S
Cd58 O69 2.439 . S
O59 Cd58 2.240 . S
O59 C64 1.279 . S
O60 Cd57 2.297 . S
O60 C62 1.247 . S
O61 Cd57 2.439 . S
O61 C62 1.208 . S
C62 O60 1.247 . S
C62 O61 1.208 . S
C63 O68 1.247 . S
C63 O69 1.208 . S
C64 O56 1.315 . S
C64 O59 1.279 . S
C65 O66 1.315 . S
C65 O67 1.279 . S
O66 Cd58 2.223 . S
O66 C65 1.315 . S
O67 Cd57 2.240 . S
O67 C65 1.279 . S
O68 Cd58 2.297 . S
O68 C63 1.247 . S
O69 Cd58 2.439 . S
O69 C63 1.208 . S
O70 Cd71 2.223 . S
O70 C78 1.315 . S
Cd71 O70 2.223 . S
Cd71 O74 2.297 . S
Cd71 O75 2.439 . S
Cd71 O81 2.240 . S
Cd72 O73 2.240 . S
Cd72 O80 2.223 . S
Cd72 O82 2.297 . S
Cd72 O83 2.439 . S
O73 Cd72 2.240 . S
O73 C78 1.279 . S
O74 Cd71 2.297 . S
O74 C76 1.247 . S
O75 Cd71 2.439 . S
O75 C76 1.208 . S
C76 O74 1.247 . S
C76 O75 1.208 . S
C77 O82 1.247 . S
C77 O83 1.208 . S
C78 O70 1.315 . S
C78 O73 1.279 . S
C79 O80 1.315 . S
C79 O81 1.279 . S
O80 Cd72 2.223 . S
O80 C79 1.315 . S
O81 Cd71 2.240 . S
O81 C79 1.279 . S
O82 Cd72 2.297 . S
O82 C77 1.247 . S
O83 Cd72 2.439 . S
O83 C77 1.208 . S
O84 Cd85 2.223 . S
O84 C92 1.315 . S
Cd85 O84 2.223 . S
Cd85 O88 2.297 . S
Cd85 O89 2.439 . S
Cd85 O95 2.240 . S
Cd86 O87 2.240 . S
Cd86 O94 2.223 . S
Cd86 O96 2.297 . S
Cd86 O97 2.439 . S
O87 Cd86 2.240 . S
O87 C92 1.279 . S
O88 Cd85 2.297 . S
O88 C90 1.247 . S
O89 Cd85 2.439 . S
O89 C90 1.208 . S
C90 O88 1.247 . S
C90 O89 1.208 . S
C91 O96 1.247 . S
C91 O97 1.208 . S
C92 O84 1.315 . S
C92 O87 1.279 . S
C93 O94 1.315 . S
C93 O95 1.279 . S
O94 Cd86 2.223 . S
O94 C93 1.315 . S
O95 Cd85 2.240 . S
O95 C93 1.279 . S
O96 Cd86 2.297 . S
O96 C91 1.247 . S
O97 Cd86 2.439 . S
O97 C91 1.208 . S
O98 Cd99 2.223 . S
O98 C106 1.315 . S
Cd99 O98 2.223 . S
Cd99 O102 2.297 . S
Cd99 O103 2.439 . S
Cd99 O109 2.240 . S
Cd100 O101 2.240 . S
Cd100 O108 2.223 . S
Cd100 O110 2.297 . S
Cd100 O111 2.439 . S
O101 Cd100 2.240 . S
O101 C106 1.279 . S
O102 Cd99 2.297 . S
O102 C104 1.247 . S
O103 Cd99 2.439 . S
O103 C104 1.208 . S
C104 O102 1.247 . S
C104 O103 1.208 . S
C105 O110 1.247 . S
C105 O111 1.208 . S
C106 O98 1.315 . S
C106 O101 1.279 . S
C107 O108 1.315 . S
C107 O109 1.279 . S
O108 Cd100 2.223 . S
O108 C107 1.315 . S
O109 Cd99 2.240 . S
O109 C107 1.279 . S
O110 Cd100 2.297 . S
O110 C105 1.247 . S
O111 Cd100 2.439 . S
O111 C105 1.208 . S
O112 Cd113 2.223 . S
O112 C120 1.315 . S
Cd113 O112 2.223 . S
Cd113 O116 2.297 . S
Cd113 O117 2.439 . S
Cd113 O123 2.240 . S
Cd114 O115 2.240 . S
Cd114 O122 2.223 . S
Cd114 O124 2.297 . S
Cd114 O125 2.439 . S
O115 Cd114 2.240 . S
O115 C120 1.279 . S
O116 Cd113 2.297 . S
O116 C118 1.247 . S
O117 Cd113 2.439 . S
O117 C118 1.208 . S
C118 O116 1.247 . S
C118 O117 1.208 . S
C119 O124 1.247 . S
C119 O125 1.208 . S
C120 O112 1.315 . S
C120 O115 1.279 . S
C121 O122 1.315 . S
C121 O123 1.279 . S
O122 Cd114 2.223 . S
O122 C121 1.315 . S
O123 Cd113 2.240 . S
O123 C121 1.279 . S
O124 Cd114 2.297 . S
O124 C119 1.247 . S
O125 Cd114 2.439 . S
O125 C119 1.208 . S
O126 Cd127 2.223 . S
O126 C134 1.315 . S
Cd127 O126 2.223 . S
Cd127 O130 2.297 . S
Cd127 O131 2.439 . S
Cd127 O137 2.240 . S
Cd128 O129 2.240 . S
Cd128 O136 2.223 . S
Cd128 O138 2.297 . S
Cd128 O139 2.439 . S
O129 Cd128 2.240 . S
O129 C134 1.279 . S
O130 Cd127 2.297 . S
O130 C132 1.247 . S
O131 Cd127 2.439 . S
O131 C132 1.208 . S
C132 O130 1.247 . S
C132 O131 1.208 . S
C133 O138 1.247 . S
C133 O139 1.208 . S
C134 O126 1.315 . S
C134 O129 1.279 . S
C135 O136 1.315 . S
C135 O137 1.279 . S
O136 Cd128 2.223 . S
O136 C135 1.315 . S
O137 Cd127 2.240 . S
O137 C135 1.279 . S
O138 Cd128 2.297 . S
O138 C133 1.247 . S
O139 Cd128 2.439 . S
O139 C133 1.208 . S
O140 Cd141 2.223 . S
O140 C148 1.315 . S
Cd141 O140 2.223 . S
Cd141 O144 2.297 . S
Cd141 O145 2.439 . S
Cd141 O151 2.240 . S
Cd142 O143 2.240 . S
Cd142 O150 2.223 . S
Cd142 O152 2.297 . S
Cd142 O153 2.439 . S
O143 Cd142 2.240 . S
O143 C148 1.279 . S
O144 Cd141 2.297 . S
O144 C146 1.247 . S
O145 Cd141 2.439 . S
O145 C146 1.208 . S
C146 O144 1.247 . S
C146 O145 1.208 . S
C147 O152 1.247 . S
C147 O153 1.208 . S
C148 O140 1.315 . S
C148 O143 1.279 . S
C149 O150 1.315 . S
C149 O151 1.279 . S
O150 Cd142 2.223 . S
O150 C149 1.315 . S
O151 Cd141 2.240 . S
O151 C149 1.279 . S
O152 Cd142 2.297 . S
O152 C147 1.247 . S
O153 Cd142 2.439 . S
O153 C147 1.208 . S
O154 Cd155 2.223 . S
O154 C162 1.315 . S
Cd155 O154 2.223 . S
Cd155 O158 2.297 . S
Cd155 O159 2.439 . S
Cd155 O165 2.240 . S
Cd156 O157 2.240 . S
Cd156 O164 2.223 . S
Cd156 O166 2.297 . S
Cd156 O167 2.439 . S
O157 Cd156 2.240 . S
O157 C162 1.279 . S
O158 Cd155 2.297 . S
O158 C160 1.247 . S
O159 Cd155 2.439 . S
O159 C160 1.208 . S
C160 O158 1.247 . S
C160 O159 1.208 . S
C161 O166 1.247 . S
C161 O167 1.208 . S
C162 O154 1.315 . S
C162 O157 1.279 . S
C163 O164 1.315 . S
C163 O165 1.279 . S
O164 Cd156 2.223 . S
O164 C163 1.315 . S
O165 Cd155 2.240 . S
O165 C163 1.279 . S
O166 Cd156 2.297 . S
O166 C161 1.247 . S
O167 Cd156 2.439 . S
O167 C161 1.208 . S
O168 Cd169 2.223 . S
O168 C176 1.315 . S
Cd169 O168 2.223 . S
Cd169 O172 2.297 . S
Cd169 O173 2.439 . S
Cd169 O179 2.240 . S
Cd170 O171 2.240 . S
Cd170 O178 2.223 . S
Cd170 O180 2.297 . S
Cd170 O181 2.439 . S
O171 Cd170 2.240 . S
O171 C176 1.279 . S
O172 Cd169 2.297 . S
O172 C174 1.247 . S
O173 Cd169 2.439 . S
O173 C174 1.208 . S
C174 O172 1.247 . S
C174 O173 1.208 . S
C175 O180 1.247 . S
C175 O181 1.208 . S
C176 O168 1.315 . S
C176 O171 1.279 . S
C177 O178 1.315 . S
C177 O179 1.279 . S
O178 Cd170 2.223 . S
O178 C177 1.315 . S
O179 Cd169 2.240 . S
O179 C177 1.279 . S
O180 Cd170 2.297 . S
O180 C175 1.247 . S
O181 Cd170 2.439 . S
O181 C175 1.208 . S
O182 Cd183 2.223 . S
O182 C190 1.315 . S
Cd183 O182 2.223 . S
Cd183 O186 2.297 . S
Cd183 O187 2.439 . S
Cd183 O193 2.240 . S
Cd184 O185 2.240 . S
Cd184 O192 2.223 . S
Cd184 O194 2.297 . S
Cd184 O195 2.439 . S
O185 Cd184 2.240 . S
O185 C190 1.279 . S
O186 Cd183 2.297 . S
O186 C188 1.247 . S
O187 Cd183 2.439 . S
O187 C188 1.208 . S
C188 O186 1.247 . S
C188 O187 1.208 . S
C189 O194 1.247 . S
C189 O195 1.208 . S
C190 O182 1.315 . S
C190 O185 1.279 . S
C191 O192 1.315 . S
C191 O193 1.279 . S
O192 Cd184 2.223 . S
O192 C191 1.315 . S
O193 Cd183 2.240 . S
O193 C191 1.279 . S
O194 Cd184 2.297 . S
O194 C189 1.247 . S
O195 Cd184 2.439 . S
O195 C189 1.208 . S
O196 Cd197 2.223 . S
O196 C204 1.315 . S
Cd197 O196 2.223 . S
Cd197 O200 2.297 . S
Cd197 O201 2.439 . S
Cd197 O207 2.240 . S
Cd198 O199 2.240 . S
Cd198 O206 2.223 . S
Cd198 O208 2.297 . S
Cd198 O209 2.439 . S
O199 Cd198 2.240 . S
O199 C204 1.279 . S
O200 Cd197 2.297 . S
O200 C202 1.247 . S
O201 Cd197 2.439 . S
O201 C202 1.208 . S
C202 O200 1.247 . S
C202 O201 1.208 . S
C203 O208 1.247 . S
C203 O209 1.208 . S
C204 O196 1.315 . S
C204 O199 1.279 . S
C205 O206 1.315 . S
C205 O207 1.279 . S
O206 Cd198 2.223 . S
O206 C205 1.315 . S
O207 Cd197 2.240 . S
O207 C205 1.279 . S
O208 Cd198 2.297 . S
O208 C203 1.247 . S
O209 Cd198 2.439 . S
O209 C203 1.208 . S
O210 Cd211 2.223 . S
O210 C218 1.315 . S
Cd211 O210 2.223 . S
Cd211 O214 2.297 . S
Cd211 O215 2.439 . S
Cd211 O221 2.240 . S
Cd212 O213 2.240 . S
Cd212 O220 2.223 . S
Cd212 O222 2.297 . S
Cd212 O223 2.439 . S
O213 Cd212 2.240 . S
O213 C218 1.279 . S
O214 Cd211 2.297 . S
O214 C216 1.247 . S
O215 Cd211 2.439 . S
O215 C216 1.208 . S
C216 O214 1.247 . S
C216 O215 1.208 . S
C217 O222 1.247 . S
C217 O223 1.208 . S
C218 O210 1.315 . S
C218 O213 1.279 . S
C219 O220 1.315 . S
C219 O221 1.279 . S
O220 Cd212 2.223 . S
O220 C219 1.315 . S
O221 Cd211 2.240 . S
O221 C219 1.279 . S
O222 Cd212 2.297 . S
O222 C217 1.247 . S
O223 Cd212 2.439 . S
O223 C217 1.208 . S
O224 Cd225 2.223 . S
O224 C232 1.315 . S
Cd225 O224 2.223 . S
Cd225 O228 2.297 . S
Cd225 O229 2.439 . S
Cd225 O235 2.240 . S
Cd226 O227 2.240 . S
Cd226 O234 2.223 . S
Cd226 O236 2.297 . S
Cd226 O237 2.439 . S
O227 Cd226 2.240 . S
O227 C232 1.279 . S
O228 Cd225 2.297 . S
O228 C230 1.247 . S
O229 Cd225 2.439 . S
O229 C230 1.208 . S
C230 O228 1.247 . S
C230 O229 1.208 . S
C231 O236 1.247 . S
C231 O237 1.208 . S
C232 O224 1.315 . S
C232 O227 1.279 . S
C233 O234 1.315 . S
C233 O235 1.279 . S
O234 Cd226 2.223 . S
O234 C233 1.315 . S
O235 Cd225 2.240 . S
O235 C233 1.279 . S
O236 Cd226 2.297 . S
O236 C231 1.247 . S
O237 Cd226 2.439 . S
O237 C231 1.208 . S
O238 Cd239 2.223 . S
O238 C246 1.315 . S
Cd239 O238 2.223 . S
Cd239 O242 2.297 . S
Cd239 O243 2.439 . S
Cd239 O249 2.240 . S
Cd240 O241 2.240 . S
Cd240 O248 2.223 . S
Cd240 O250 2.297 . S
Cd240 O251 2.439 . S
O241 Cd240 2.240 . S
O241 C246 1.279 . S
O242 Cd239 2.297 . S
O242 C244 1.247 . S
O243 Cd239 2.439 . S
O243 C244 1.208 . S
C244 O242 1.247 . S
C244 O243 1.208 . S
C245 O250 1.247 . S
C245 O251 1.208 . S
C246 O238 1.315 . S
C246 O241 1.279 . S
C247 O248 1.315 . S
C247 O249 1.279 . S
O248 Cd240 2.223 . S
O248 C247 1.315 . S
O249 Cd239 2.240 . S
O249 C247 1.279 . S
O250 Cd240 2.297 . S
O250 C245 1.247 . S
O251 Cd240 2.439 . S
O251 C245 1.208 . S
O252 Cd253 2.223 . S
O252 C260 1.315 . S
Cd253 O252 2.223 . S
Cd253 O256 2.297 . S
Cd253 O257 2.439 . S
Cd253 O263 2.240 . S
Cd254 O255 2.240 . S
Cd254 O262 2.223 . S
Cd254 O264 2.297 . S
Cd254 O265 2.439 . S
O255 Cd254 2.240 . S
O255 C260 1.279 . S
O256 Cd253 2.297 . S
O256 C258 1.247 . S
O257 Cd253 2.439 . S
O257 C258 1.208 . S
C258 O256 1.247 . S
C258 O257 1.208 . S
C259 O264 1.247 . S
C259 O265 1.208 . S
C260 O252 1.315 . S
C260 O255 1.279 . S
C261 O262 1.315 . S
C261 O263 1.279 . S
O262 Cd254 2.223 . S
O262 C261 1.315 . S
O263 Cd253 2.240 . S
O263 C261 1.279 . S
O264 Cd254 2.297 . S
O264 C259 1.247 . S
O265 Cd254 2.439 . S
O265 C259 1.208 . S
O266 Cd267 2.223 . S
O266 C274 1.315 . S
Cd267 O266 2.223 . S
Cd267 O270 2.297 . S
Cd267 O271 2.439 . S
Cd267 O277 2.240 . S
Cd268 O269 2.240 . S
Cd268 O276 2.223 . S
Cd268 O278 2.297 . S
Cd268 O279 2.439 . S
O269 Cd268 2.240 . S
O269 C274 1.279 . S
O270 Cd267 2.297 . S
O270 C272 1.247 . S
O271 Cd267 2.439 . S
O271 C272 1.208 . S
C272 O270 1.247 . S
C272 O271 1.208 . S
C273 O278 1.247 . S
C273 O279 1.208 . S
C274 O266 1.315 . S
C274 O269 1.279 . S
C275 O276 1.315 . S
C275 O277 1.279 . S
O276 Cd268 2.223 . S
O276 C275 1.315 . S
O277 Cd267 2.240 . S
O277 C275 1.279 . S
O278 Cd268 2.297 . S
O278 C273 1.247 . S
O279 Cd268 2.439 . S
O279 C273 1.208 . S
O280 Cd281 2.223 . S
O280 C288 1.315 . S
Cd281 O280 2.223 . S
Cd281 O284 2.297 . S
Cd281 O285 2.439 . S
Cd281 O291 2.240 . S
Cd282 O283 2.240 . S
Cd282 O290 2.223 . S
Cd282 O292 2.297 . S
Cd282 O293 2.439 . S
O283 Cd282 2.240 . S
O283 C288 1.279 . S
O284 Cd281 2.297 . S
O284 C286 1.247 . S
O285 Cd281 2.439 . S
O285 C286 1.208 . S
C286 O284 1.247 . S
C286 O285 1.208 . S
C287 O292 1.247 . S
C287 O293 1.208 . S
C288 O280 1.315 . S
C288 O283 1.279 . S
C289 O290 1.315 . S
C289 O291 1.279 . S
O290 Cd282 2.223 . S
O290 C289 1.315 . S
O291 Cd281 2.240 . S
O291 C289 1.279 . S
O292 Cd282 2.297 . S
O292 C287 1.247 . S
O293 Cd282 2.439 . S
O293 C287 1.208 . S
O294 Cd295 2.223 . S
O294 C302 1.315 . S
Cd295 O294 2.223 . S
Cd295 O298 2.297 . S
Cd295 O299 2.439 . S
Cd295 O305 2.240 . S
Cd296 O297 2.240 . S
Cd296 O304 2.223 . S
Cd296 O306 2.297 . S
Cd296 O307 2.439 . S
O297 Cd296 2.240 . S
O297 C302 1.279 . S
O298 Cd295 2.297 . S
O298 C300 1.247 . S
O299 Cd295 2.439 . S
O299 C300 1.208 . S
C300 O298 1.247 . S
C300 O299 1.208 . S
C301 O306 1.247 . S
C301 O307 1.208 . S
C302 O294 1.315 . S
C302 O297 1.279 . S
C303 O304 1.315 . S
C303 O305 1.279 . S
O304 Cd296 2.223 . S
O304 C303 1.315 . S
O305 Cd295 2.240 . S
O305 C303 1.279 . S
O306 Cd296 2.297 . S
O306 C301 1.247 . S
O307 Cd296 2.439 . S
O307 C301 1.208 . S
O308 Cd309 2.223 . S
O308 C316 1.315 . S
Cd309 O308 2.223 . S
Cd309 O312 2.297 . S
Cd309 O313 2.439 . S
Cd309 O319 2.240 . S
Cd310 O311 2.240 . S
Cd310 O318 2.223 . S
Cd310 O320 2.297 . S
Cd310 O321 2.439 . S
O311 Cd310 2.240 . S
O311 C316 1.279 . S
O312 Cd309 2.297 . S
O312 C314 1.247 . S
O313 Cd309 2.439 . S
O313 C314 1.208 . S
C314 O312 1.247 . S
C314 O313 1.208 . S
C315 O320 1.247 . S
C315 O321 1.208 . S
C316 O308 1.315 . S
C316 O311 1.279 . S
C317 O318 1.315 . S
C317 O319 1.279 . S
O318 Cd310 2.223 . S
O318 C317 1.315 . S
O319 Cd309 2.240 . S
O319 C317 1.279 . S
O320 Cd310 2.297 . S
O320 C315 1.247 . S
O321 Cd310 2.439 . S
O321 C315 1.208 . S
O322 Cd323 2.223 . S
O322 C330 1.315 . S
Cd323 O322 2.223 . S
Cd323 O326 2.297 . S
Cd323 O327 2.439 . S
Cd323 O333 2.240 . S
Cd324 O325 2.240 . S
Cd324 O332 2.223 . S
Cd324 O334 2.297 . S
Cd324 O335 2.439 . S
O325 Cd324 2.240 . S
O325 C330 1.279 . S
O326 Cd323 2.297 . S
O326 C328 1.247 . S
O327 Cd323 2.439 . S
O327 C328 1.208 . S
C328 O326 1.247 . S
C328 O327 1.208 . S
C329 O334 1.247 . S
C329 O335 1.208 . S
C330 O322 1.315 . S
C330 O325 1.279 . S
C331 O332 1.315 . S
C331 O333 1.279 . S
O332 Cd324 2.223 . S
O332 C331 1.315 . S
O333 Cd323 2.240 . S
O333 C331 1.279 . S
O334 Cd324 2.297 . S
O334 C329 1.247 . S
O335 Cd324 2.439 . S
O335 C329 1.208 . S
C336 C337 1.363 . S
C336 C342 1.379 . S
C336 N344 1.356 . S
C337 C336 1.363 . S
C337 C343 1.363 . S
C338 C339 1.363 . S
C338 C343 1.379 . S
C338 N345 1.356 . S
C339 C338 1.363 . S
C339 C342 1.363 . S
N340 C342 1.356 . S
N340 H352 0.984 . S
N340 H353 0.985 . S
N341 C343 1.356 . S
N341 H346 0.984 . S
N341 H347 0.985 . S
C342 C336 1.379 . S
C342 C339 1.363 . S
C342 N340 1.356 . S
C343 C337 1.363 . S
C343 C338 1.379 . S
C343 N341 1.356 . S
N344 C336 1.356 . S
N344 H350 0.984 . S
N344 H351 0.984 . S
N345 C338 1.356 . S
N345 H348 0.984 . S
N345 H349 0.985 . S
H346 N341 0.984 . S
H347 N341 0.985 . S
H348 N345 0.984 . S
H349 N345 0.985 . S
H350 N344 0.984 . S
H351 N344 0.984 . S
H352 N340 0.984 . S
H353 N340 0.985 . S
C354 C355 1.363 . S
C354 C360 1.379 . S
C354 N362 1.356 . S
C355 C354 1.363 . S
C355 C361 1.363 . S
C356 C357 1.363 . S
C356 C361 1.379 . S
C356 N363 1.356 . S
C357 C356 1.363 . S
C357 C360 1.363 . S
N358 C360 1.356 . S
N358 H370 0.984 . S
N358 H371 0.985 . S
N359 C361 1.356 . S
N359 H364 0.984 . S
N359 H365 0.985 . S
C360 C354 1.379 . S
C360 C357 1.363 . S
C360 N358 1.356 . S
C361 C355 1.363 . S
C361 C356 1.379 . S
C361 N359 1.356 . S
N362 C354 1.356 . S
N362 H368 0.984 . S
N362 H369 0.984 . S
N363 C356 1.356 . S
N363 H366 0.984 . S
N363 H367 0.985 . S
H364 N359 0.984 . S
H365 N359 0.985 . S
H366 N363 0.984 . S
H367 N363 0.985 . S
H368 N362 0.984 . S
H369 N362 0.984 . S
H370 N358 0.984 . S
H371 N358 0.985 . S
C372 C373 1.363 . S
C372 C378 1.379 . S
C372 N380 1.356 . S
C373 C372 1.363 . S
C373 C379 1.363 . S
C374 C375 1.363 . S
C374 C379 1.379 . S
C374 N381 1.356 . S
C375 C374 1.363 . S
C375 C378 1.363 . S
N376 C378 1.356 . S
N376 H388 0.984 . S
N376 H389 0.985 . S
N377 C379 1.356 . S
N377 H382 0.984 . S
N377 H383 0.985 . S
C378 C372 1.379 . S
C378 C375 1.363 . S
C378 N376 1.356 . S
C379 C373 1.363 . S
C379 C374 1.379 . S
C379 N377 1.356 . S
N380 C372 1.356 . S
N380 H386 0.984 . S
N380 H387 0.984 . S
N381 C374 1.356 . S
N381 H384 0.984 . S
N381 H385 0.985 . S
H382 N377 0.984 . S
H383 N377 0.985 . S
H384 N381 0.984 . S
H385 N381 0.985 . S
H386 N380 0.984 . S
H387 N380 0.984 . S
H388 N376 0.984 . S
H389 N376 0.985 . S
C390 C391 1.363 . S
C390 C396 1.379 . S
C390 N398 1.356 . S
C391 C390 1.363 . S
C391 C397 1.363 . S
C392 C393 1.363 . S
C392 C397 1.379 . S
C392 N399 1.356 . S
C393 C392 1.363 . S
C393 C396 1.363 . S
N394 C396 1.356 . S
N394 H406 0.984 . S
N394 H407 0.985 . S
N395 C397 1.356 . S
N395 H400 0.984 . S
N395 H401 0.985 . S
C396 C390 1.379 . S
C396 C393 1.363 . S
C396 N394 1.356 . S
C397 C391 1.363 . S
C397 C392 1.379 . S
C397 N395 1.356 . S
N398 C390 1.356 . S
N398 H404 0.984 . S
N398 H405 0.984 . S
N399 C392 1.356 . S
N399 H402 0.984 . S
N399 H403 0.985 . S
H400 N395 0.984 . S
H401 N395 0.985 . S
H402 N399 0.984 . S
H403 N399 0.985 . S
H404 N398 0.984 . S
H405 N398 0.984 . S
H406 N394 0.984 . S
H407 N394 0.985 . S
C408 C409 1.363 . S
C408 C414 1.379 . S
C408 N416 1.356 . S
C409 C408 1.363 . S
C409 C415 1.363 . S
C410 C411 1.363 . S
C410 C415 1.379 . S
C410 N417 1.356 . S
C411 C410 1.363 . S
C411 C414 1.363 . S
N412 C414 1.356 . S
N412 H424 0.984 . S
N412 H425 0.985 . S
N413 C415 1.356 . S
N413 H418 0.984 . S
N413 H419 0.985 . S
C414 C408 1.379 . S
C414 C411 1.363 . S
C414 N412 1.356 . S
C415 C409 1.363 . S
C415 C410 1.379 . S
C415 N413 1.356 . S
N416 C408 1.356 . S
N416 H422 0.984 . S
N416 H423 0.984 . S
N417 C410 1.356 . S
N417 H420 0.984 . S
N417 H421 0.985 . S
H418 N413 0.984 . S
H419 N413 0.985 . S
H420 N417 0.984 . S
H421 N417 0.985 . S
H422 N416 0.984 . S
H423 N416 0.984 . S
H424 N412 0.984 . S
H425 N412 0.985 . S
C426 C427 1.363 . S
C426 C432 1.379 . S
C426 N434 1.356 . S
C427 C426 1.363 . S
C427 C433 1.363 . S
C428 C429 1.363 . S
C428 C433 1.379 . S
C428 N435 1.356 . S
C429 C428 1.363 . S
C429 C432 1.363 . S
N430 C432 1.356 . S
N430 H442 0.984 . S
N430 H443 0.985 . S
N431 C433 1.356 . S
N431 H436 0.984 . S
N431 H437 0.985 . S
C432 C426 1.379 . S
C432 C429 1.363 . S
C432 N430 1.356 . S
C433 C427 1.363 . S
C433 C428 1.379 . S
C433 N431 1.356 . S
N434 C426 1.356 . S
N434 H440 0.984 . S
N434 H441 0.984 . S
N435 C428 1.356 . S
N435 H438 0.984 . S
N435 H439 0.985 . S
H436 N431 0.984 . S
H437 N431 0.985 . S
H438 N435 0.984 . S
H439 N435 0.985 . S
H440 N434 0.984 . S
H441 N434 0.984 . S
H442 N430 0.984 . S
H443 N430 0.985 . S
C444 C445 1.363 . S
C444 C450 1.379 . S
C444 N452 1.356 . S
C445 C444 1.363 . S
C445 C451 1.363 . S
C446 C447 1.363 . S
C446 C451 1.379 . S
C446 N453 1.356 . S
C447 C446 1.363 . S
C447 C450 1.363 . S
N448 C450 1.356 . S
N448 H460 0.984 . S
N448 H461 0.985 . S
N449 C451 1.356 . S
N449 H454 0.984 . S
N449 H455 0.985 . S
C450 C444 1.379 . S
C450 C447 1.363 . S
C450 N448 1.356 . S
C451 C445 1.363 . S
C451 C446 1.379 . S
C451 N449 1.356 . S
N452 C444 1.356 . S
N452 H458 0.984 . S
N452 H459 0.984 . S
N453 C446 1.356 . S
N453 H456 0.984 . S
N453 H457 0.985 . S
H454 N449 0.984 . S
H455 N449 0.985 . S
H456 N453 0.984 . S
H457 N453 0.985 . S
H458 N452 0.984 . S
H459 N452 0.984 . S
H460 N448 0.984 . S
H461 N448 0.985 . S
C462 C463 1.363 . S
C462 C468 1.379 . S
C462 N470 1.356 . S
C463 C462 1.363 . S
C463 C469 1.363 . S
C464 C465 1.363 . S
C464 C469 1.379 . S
C464 N471 1.356 . S
C465 C464 1.363 . S
C465 C468 1.363 . S
N466 C468 1.356 . S
N466 H478 0.984 . S
N466 H479 0.985 . S
N467 C469 1.356 . S
N467 H472 0.984 . S
N467 H473 0.985 . S
C468 C462 1.379 . S
C468 C465 1.363 . S
C468 N466 1.356 . S
C469 C463 1.363 . S
C469 C464 1.379 . S
C469 N467 1.356 . S
N470 C462 1.356 . S
N470 H476 0.984 . S
N470 H477 0.984 . S
N471 C464 1.356 . S
N471 H474 0.984 . S
N471 H475 0.985 . S
H472 N467 0.984 . S
H473 N467 0.985 . S
H474 N471 0.984 . S
H475 N471 0.985 . S
H476 N470 0.984 . S
H477 N470 0.984 . S
H478 N466 0.984 . S
H479 N466 0.985 . S
C480 C481 1.363 . S
C480 C486 1.379 . S
C480 N488 1.356 . S
C481 C480 1.363 . S
C481 C487 1.363 . S
C482 C483 1.363 . S
C482 C487 1.379 . S
C482 N489 1.356 . S
C483 C482 1.363 . S
C483 C486 1.363 . S
N484 C486 1.356 . S
N484 H496 0.984 . S
N484 H497 0.985 . S
N485 C487 1.356 . S
N485 H490 0.984 . S
N485 H491 0.985 . S
C486 C480 1.379 . S
C486 C483 1.363 . S
C486 N484 1.356 . S
C487 C481 1.363 . S
C487 C482 1.379 . S
C487 N485 1.356 . S
N488 C480 1.356 . S
N488 H494 0.984 . S
N488 H495 0.984 . S
N489 C482 1.356 . S
N489 H492 0.984 . S
N489 H493 0.985 . S
H490 N485 0.984 . S
H491 N485 0.985 . S
H492 N489 0.984 . S
H493 N489 0.985 . S
H494 N488 0.984 . S
H495 N488 0.984 . S
H496 N484 0.984 . S
H497 N484 0.985 . S
C498 C499 1.363 . S
C498 C504 1.379 . S
C498 N506 1.356 . S
C499 C498 1.363 . S
C499 C505 1.363 . S
C500 C501 1.363 . S
C500 C505 1.379 . S
C500 N507 1.356 . S
C501 C500 1.363 . S
C501 C504 1.363 . S
N502 C504 1.356 . S
N502 H514 0.984 . S
N502 H515 0.985 . S
N503 C505 1.356 . S
N503 H508 0.984 . S
N503 H509 0.985 . S
C504 C498 1.379 . S
C504 C501 1.363 . S
C504 N502 1.356 . S
C505 C499 1.363 . S
C505 C500 1.379 . S
C505 N503 1.356 . S
N506 C498 1.356 . S
N506 H512 0.984 . S
N506 H513 0.984 . S
N507 C500 1.356 . S
N507 H510 0.984 . S
N507 H511 0.985 . S
H508 N503 0.984 . S
H509 N503 0.985 . S
H510 N507 0.984 . S
H511 N507 0.985 . S
H512 N506 0.984 . S
H513 N506 0.984 . S
H514 N502 0.984 . S
H515 N502 0.985 . S
C516 C517 1.363 . S
C516 C522 1.379 . S
C516 N524 1.356 . S
C517 C516 1.363 . S
C517 C523 1.363 . S
C518 C519 1.363 . S
C518 C523 1.379 . S
C518 N525 1.356 . S
C519 C518 1.363 . S
C519 C522 1.363 . S
N520 C522 1.356 . S
N520 H532 0.984 . S
N520 H533 0.985 . S
N521 C523 1.356 . S
N521 H526 0.984 . S
N521 H527 0.985 . S
C522 C516 1.379 . S
C522 C519 1.363 . S
C522 N520 1.356 . S
C523 C517 1.363 . S
C523 C518 1.379 . S
C523 N521 1.356 . S
N524 C516 1.356 . S
N524 H530 0.984 . S
N524 H531 0.984 . S
N525 C518 1.356 . S
N525 H528 0.984 . S
N525 H529 0.985 . S
H526 N521 0.984 . S
H527 N521 0.985 . S
H528 N525 0.984 . S
H529 N525 0.985 . S
H530 N524 0.984 . S
H531 N524 0.984 . S
H532 N520 0.984 . S
H533 N520 0.985 . S
C534 C535 1.363 . S
C534 C540 1.379 . S
C534 N542 1.356 . S
C535 C534 1.363 . S
C535 C541 1.363 . S
C536 C537 1.363 . S
C536 C541 1.379 . S
C536 N543 1.356 . S
C537 C536 1.363 . S
C537 C540 1.363 . S
N538 C540 1.356 . S
N538 H550 0.984 . S
N538 H551 0.985 . S
N539 C541 1.356 . S
N539 H544 0.984 . S
N539 H545 0.985 . S
C540 C534 1.379 . S
C540 C537 1.363 . S
C540 N538 1.356 . S
C541 C535 1.363 . S
C541 C536 1.379 . S
C541 N539 1.356 . S
N542 C534 1.356 . S
N542 H548 0.984 . S
N542 H549 0.984 . S
N543 C536 1.356 . S
N543 H546 0.984 . S
N543 H547 0.985 . S
H544 N539 0.984 . S
H545 N539 0.985 . S
H546 N543 0.984 . S
H547 N543 0.985 . S
H548 N542 0.984 . S
H549 N542 0.984 . S
H550 N538 0.984 . S
H551 N538 0.985 . S
C552 C553 1.363 . S
C552 C558 1.379 . S
C552 N560 1.356 . S
C553 C552 1.363 . S
C553 C559 1.363 . S
C554 C555 1.363 . S
C554 C559 1.379 . S
C554 N561 1.356 . S
C555 C554 1.363 . S
C555 C558 1.363 . S
N556 C558 1.356 . S
N556 H568 0.984 . S
N556 H569 0.985 . S
N557 C559 1.356 . S
N557 H562 0.984 . S
N557 H563 0.985 . S
C558 C552 1.379 . S
C558 C555 1.363 . S
C558 N556 1.356 . S
C559 C553 1.363 . S
C559 C554 1.379 . S
C559 N557 1.356 . S
N560 C552 1.356 . S
N560 H566 0.984 . S
N560 H567 0.984 . S
N561 C554 1.356 . S
N561 H564 0.984 . S
N561 H565 0.985 . S
H562 N557 0.984 . S
H563 N557 0.985 . S
H564 N561 0.984 . S
H565 N561 0.985 . S
H566 N560 0.984 . S
H567 N560 0.984 . S
H568 N556 0.984 . S
H569 N556 0.985 . S
C570 C571 1.363 . S
C570 C576 1.379 . S
C570 N578 1.356 . S
C571 C570 1.363 . S
C571 C577 1.363 . S
C572 C573 1.363 . S
C572 C577 1.379 . S
C572 N579 1.356 . S
C573 C572 1.363 . S
C573 C576 1.363 . S
N574 C576 1.356 . S
N574 H586 0.984 . S
N574 H587 0.985 . S
N575 C577 1.356 . S
N575 H580 0.984 . S
N575 H581 0.985 . S
C576 C570 1.379 . S
C576 C573 1.363 . S
C576 N574 1.356 . S
C577 C571 1.363 . S
C577 C572 1.379 . S
C577 N575 1.356 . S
N578 C570 1.356 . S
N578 H584 0.984 . S
N578 H585 0.984 . S
N579 C572 1.356 . S
N579 H582 0.984 . S
N579 H583 0.985 . S
H580 N575 0.984 . S
H581 N575 0.985 . S
H582 N579 0.984 . S
H583 N579 0.985 . S
H584 N578 0.984 . S
H585 N578 0.984 . S
H586 N574 0.984 . S
H587 N574 0.985 . S
C588 C589 1.363 . S
C588 C594 1.379 . S
C588 N596 1.356 . S
C589 C588 1.363 . S
C589 C595 1.363 . S
C590 C591 1.363 . S
C590 C595 1.379 . S
C590 N597 1.356 . S
C591 C590 1.363 . S
C591 C594 1.363 . S
N592 C594 1.356 . S
N592 H604 0.984 . S
N592 H605 0.985 . S
N593 C595 1.356 . S
N593 H598 0.984 . S
N593 H599 0.985 . S
C594 C588 1.379 . S
C594 C591 1.363 . S
C594 N592 1.356 . S
C595 C589 1.363 . S
C595 C590 1.379 . S
C595 N593 1.356 . S
N596 C588 1.356 . S
N596 H602 0.984 . S
N596 H603 0.984 . S
N597 C590 1.356 . S
N597 H600 0.984 . S
N597 H601 0.985 . S
H598 N593 0.984 . S
H599 N593 0.985 . S
H600 N597 0.984 . S
H601 N597 0.985 . S
H602 N596 0.984 . S
H603 N596 0.984 . S
H604 N592 0.984 . S
H605 N592 0.985 . S
C606 C607 1.363 . S
C606 C612 1.379 . S
C606 N614 1.356 . S
C607 C606 1.363 . S
C607 C613 1.363 . S
C608 C609 1.363 . S
C608 C613 1.379 . S
C608 N615 1.356 . S
C609 C608 1.363 . S
C609 C612 1.363 . S
N610 C612 1.356 . S
N610 H622 0.984 . S
N610 H623 0.985 . S
N611 C613 1.356 . S
N611 H616 0.984 . S
N611 H617 0.985 . S
C612 C606 1.379 . S
C612 C609 1.363 . S
C612 N610 1.356 . S
C613 C607 1.363 . S
C613 C608 1.379 . S
C613 N611 1.356 . S
N614 C606 1.356 . S
N614 H620 0.984 . S
N614 H621 0.984 . S
N615 C608 1.356 . S
N615 H618 0.984 . S
N615 H619 0.985 . S
H616 N611 0.984 . S
H617 N611 0.985 . S
H618 N615 0.984 . S
H619 N615 0.985 . S
H620 N614 0.984 . S
H621 N614 0.984 . S
H622 N610 0.984 . S
H623 N610 0.985 . S
C624 C625 1.363 . S
C624 C630 1.379 . S
C624 N632 1.356 . S
C625 C624 1.363 . S
C625 C631 1.363 . S
C626 C627 1.363 . S
C626 C631 1.379 . S
C626 N633 1.356 . S
C627 C626 1.363 . S
C627 C630 1.363 . S
N628 C630 1.356 . S
N628 H640 0.984 . S
N628 H641 0.985 . S
N629 C631 1.356 . S
N629 H634 0.984 . S
N629 H635 0.985 . S
C630 C624 1.379 . S
C630 C627 1.363 . S
C630 N628 1.356 . S
C631 C625 1.363 . S
C631 C626 1.379 . S
C631 N629 1.356 . S
N632 C624 1.356 . S
N632 H638 0.984 . S
N632 H639 0.984 . S
N633 C626 1.356 . S
N633 H636 0.984 . S
N633 H637 0.985 . S
H634 N629 0.984 . S
H635 N629 0.985 . S
H636 N633 0.984 . S
H637 N633 0.985 . S
H638 N632 0.984 . S
H639 N632 0.984 . S
H640 N628 0.984 . S
H641 N628 0.985 . S
C642 C643 1.363 . S
C642 C648 1.379 . S
C642 N650 1.356 . S
C643 C642 1.363 . S
C643 C649 1.363 . S
C644 C645 1.363 . S
C644 C649 1.379 . S
C644 N651 1.356 . S
C645 C644 1.363 . S
C645 C648 1.363 . S
N646 C648 1.356 . S
N646 H658 0.984 . S
N646 H659 0.985 . S
N647 C649 1.356 . S
N647 H652 0.984 . S
N647 H653 0.985 . S
C648 C642 1.379 . S
C648 C645 1.363 . S
C648 N646 1.356 . S
C649 C643 1.363 . S
C649 C644 1.379 . S
C649 N647 1.356 . S
N650 C642 1.356 . S
N650 H656 0.984 . S
N650 H657 0.984 . S
N651 C644 1.356 . S
N651 H654 0.984 . S
N651 H655 0.985 . S
H652 N647 0.984 . S
H653 N647 0.985 . S
H654 N651 0.984 . S
H655 N651 0.985 . S
H656 N650 0.984 . S
H657 N650 0.984 . S
H658 N646 0.984 . S
H659 N646 0.985 . S
C660 C661 1.363 . S
C660 C666 1.379 . S
C660 N668 1.356 . S
C661 C660 1.363 . S
C661 C667 1.363 . S
C662 C663 1.363 . S
C662 C667 1.379 . S
C662 N669 1.356 . S
C663 C662 1.363 . S
C663 C666 1.363 . S
N664 C666 1.356 . S
N664 H676 0.984 . S
N664 H677 0.985 . S
N665 C667 1.356 . S
N665 H670 0.984 . S
N665 H671 0.985 . S
C666 C660 1.379 . S
C666 C663 1.363 . S
C666 N664 1.356 . S
C667 C661 1.363 . S
C667 C662 1.379 . S
C667 N665 1.356 . S
N668 C660 1.356 . S
N668 H674 0.984 . S
N668 H675 0.984 . S
N669 C662 1.356 . S
N669 H672 0.984 . S
N669 H673 0.985 . S
H670 N665 0.984 . S
H671 N665 0.985 . S
H672 N669 0.984 . S
H673 N669 0.985 . S
H674 N668 0.984 . S
H675 N668 0.984 . S
H676 N664 0.984 . S
H677 N664 0.985 . S
C678 C679 1.363 . S
C678 C684 1.379 . S
C678 N686 1.356 . S
C679 C678 1.363 . S
C679 C685 1.363 . S
C680 C681 1.363 . S
C680 C685 1.379 . S
C680 N687 1.356 . S
C681 C680 1.363 . S
C681 C684 1.363 . S
N682 C684 1.356 . S
N682 H694 0.984 . S
N682 H695 0.985 . S
N683 C685 1.356 . S
N683 H688 0.984 . S
N683 H689 0.985 . S
C684 C678 1.379 . S
C684 C681 1.363 . S
C684 N682 1.356 . S
C685 C679 1.363 . S
C685 C680 1.379 . S
C685 N683 1.356 . S
N686 C678 1.356 . S
N686 H692 0.984 . S
N686 H693 0.984 . S
N687 C680 1.356 . S
N687 H690 0.984 . S
N687 H691 0.985 . S
H688 N683 0.984 . S
H689 N683 0.985 . S
H690 N687 0.984 . S
H691 N687 0.985 . S
H692 N686 0.984 . S
H693 N686 0.984 . S
H694 N682 0.984 . S
H695 N682 0.985 . S
C696 C697 1.363 . S
C696 C702 1.379 . S
C696 N704 1.356 . S
C697 C696 1.363 . S
C697 C703 1.363 . S
C698 C699 1.363 . S
C698 C703 1.379 . S
C698 N705 1.356 . S
C699 C698 1.363 . S
C699 C702 1.363 . S
N700 C702 1.356 . S
N700 H712 0.984 . S
N700 H713 0.985 . S
N701 C703 1.356 . S
N701 H706 0.984 . S
N701 H707 0.985 . S
C702 C696 1.379 . S
C702 C699 1.363 . S
C702 N700 1.356 . S
C703 C697 1.363 . S
C703 C698 1.379 . S
C703 N701 1.356 . S
N704 C696 1.356 . S
N704 H710 0.984 . S
N704 H711 0.984 . S
N705 C698 1.356 . S
N705 H708 0.984 . S
N705 H709 0.985 . S
H706 N701 0.984 . S
H707 N701 0.985 . S
H708 N705 0.984 . S
H709 N705 0.985 . S
H710 N704 0.984 . S
H711 N704 0.984 . S
H712 N700 0.984 . S
H713 N700 0.985 . S
C714 C715 1.363 . S
C714 C720 1.379 . S
C714 N722 1.356 . S
C715 C714 1.363 . S
C715 C721 1.363 . S
C716 C717 1.363 . S
C716 C721 1.379 . S
C716 N723 1.356 . S
C717 C716 1.363 . S
C717 C720 1.363 . S
N718 C720 1.356 . S
N718 H730 0.984 . S
N718 H731 0.985 . S
N719 C721 1.356 . S
N719 H724 0.984 . S
N719 H725 0.985 . S
C720 C714 1.379 . S
C720 C717 1.363 . S
C720 N718 1.356 . S
C721 C715 1.363 . S
C721 C716 1.379 . S
C721 N719 1.356 . S
N722 C714 1.356 . S
N722 H728 0.984 . S
N722 H729 0.984 . S
N723 C716 1.356 . S
N723 H726 0.984 . S
N723 H727 0.985 . S
H724 N719 0.984 . S
H725 N719 0.985 . S
H726 N723 0.984 . S
H727 N723 0.985 . S
H728 N722 0.984 . S
H729 N722 0.984 . S
H730 N718 0.984 . S
H731 N718 0.985 . S
C732 C733 1.363 . S
C732 C738 1.379 . S
C732 N740 1.356 . S
C733 C732 1.363 . S
C733 C739 1.363 . S
C734 C735 1.363 . S
C734 C739 1.379 . S
C734 N741 1.356 . S
C735 C734 1.363 . S
C735 C738 1.363 . S
N736 C738 1.356 . S
N736 H748 0.984 . S
N736 H749 0.985 . S
N737 C739 1.356 . S
N737 H742 0.984 . S
N737 H743 0.985 . S
C738 C732 1.379 . S
C738 C735 1.363 . S
C738 N736 1.356 . S
C739 C733 1.363 . S
C739 C734 1.379 . S
C739 N737 1.356 . S
N740 C732 1.356 . S
N740 H746 0.984 . S
N740 H747 0.984 . S
N741 C734 1.356 . S
N741 H744 0.984 . S
N741 H745 0.985 . S
H742 N737 0.984 . S
H743 N737 0.985 . S
H744 N741 0.984 . S
H745 N741 0.985 . S
H746 N740 0.984 . S
H747 N740 0.984 . S
H748 N736 0.984 . S
H749 N736 0.985 . S
C750 C751 1.363 . S
C750 C756 1.379 . S
C750 N758 1.356 . S
C751 C750 1.363 . S
C751 C757 1.363 . S
C752 C753 1.363 . S
C752 C757 1.379 . S
C752 N759 1.356 . S
C753 C752 1.363 . S
C753 C756 1.363 . S
N754 C756 1.356 . S
N754 H766 0.984 . S
N754 H767 0.985 . S
N755 C757 1.356 . S
N755 H760 0.984 . S
N755 H761 0.985 . S
C756 C750 1.379 . S
C756 C753 1.363 . S
C756 N754 1.356 . S
C757 C751 1.363 . S
C757 C752 1.379 . S
C757 N755 1.356 . S
N758 C750 1.356 . S
N758 H764 0.984 . S
N758 H765 0.984 . S
N759 C752 1.356 . S
N759 H762 0.984 . S
N759 H763 0.985 . S
H760 N755 0.984 . S
H761 N755 0.985 . S
H762 N759 0.984 . S
H763 N759 0.985 . S
H764 N758 0.984 . S
H765 N758 0.984 . S
H766 N754 0.984 . S
H767 N754 0.985 . S
C768 C769 1.363 . S
C768 C774 1.379 1_565 S
C768 N776 1.356 . S
C769 C768 1.363 . S
C769 C775 1.363 . S
C770 C771 1.363 . S
C770 C775 1.379 1_545 S
C770 N777 1.356 . S
C771 C770 1.363 . S
C771 C774 1.363 . S
N772 C774 1.356 . S
N772 H784 0.984 1_545 S
N772 H785 0.985 . S
N773 C775 1.356 . S
N773 H778 0.984 . S
N773 H779 0.985 1_565 S
C774 C768 1.379 1_545 S
C774 C771 1.363 . S
C774 N772 1.356 . S
C775 C769 1.363 . S
C775 C770 1.379 1_565 S
C775 N773 1.356 . S
N776 C768 1.356 . S
N776 H782 0.984 . S
N776 H783 0.984 . S
N777 C770 1.356 . S
N777 H780 0.984 . S
N777 H781 0.985 . S
H778 N773 0.984 . S
H779 N773 0.985 1_545 S
H780 N777 0.984 . S
H781 N777 0.985 . S
H782 N776 0.984 . S
H783 N776 0.984 . S
H784 N772 0.984 1_565 S
H785 N772 0.985 . S
C786 C787 1.363 . S
C786 C792 1.379 . S
C786 N794 1.356 . S
C787 C786 1.363 . S
C787 C793 1.363 . S
C788 C789 1.363 . S
C788 C793 1.379 . S
C788 N795 1.356 . S
C789 C788 1.363 . S
C789 C792 1.363 . S
N790 C792 1.356 . S
N790 H802 0.984 . S
N790 H803 0.985 . S
N791 C793 1.356 . S
N791 H796 0.984 . S
N791 H797 0.985 . S
C792 C786 1.379 . S
C792 C789 1.363 . S
C792 N790 1.356 . S
C793 C787 1.363 . S
C793 C788 1.379 . S
C793 N791 1.356 . S
N794 C786 1.356 . S
N794 H800 0.984 . S
N794 H801 0.984 . S
N795 C788 1.356 . S
N795 H798 0.984 . S
N795 H799 0.985 . S
H796 N791 0.984 . S
H797 N791 0.985 . S
H798 N795 0.984 . S
H799 N795 0.985 . S
H800 N794 0.984 . S
H801 N794 0.984 . S
H802 N790 0.984 . S
H803 N790 0.985 . S
C804 C805 1.363 . S
C804 C810 1.379 1_545 S
C804 N812 1.356 . S
C805 C804 1.363 . S
C805 C811 1.363 . S
C806 C807 1.363 . S
C806 C811 1.379 1_565 S
C806 N813 1.356 . S
C807 C806 1.363 . S
C807 C810 1.363 . S
N808 C810 1.356 . S
N808 H820 0.984 . S
N808 H821 0.985 . S
N809 C811 1.356 . S
N809 H814 0.984 . S
N809 H815 0.985 . S
C810 C804 1.379 1_565 S
C810 C807 1.363 . S
C810 N808 1.356 . S
C811 C805 1.363 . S
C811 C806 1.379 1_545 S
C811 N809 1.356 . S
N812 C804 1.356 . S
N812 H818 0.984 1_545 S
N812 H819 0.984 . S
N813 C806 1.356 . S
N813 H816 0.984 . S
N813 H817 0.985 1_565 S
H814 N809 0.984 . S
H815 N809 0.985 . S
H816 N813 0.984 . S
H817 N813 0.985 1_545 S
H818 N812 0.984 1_565 S
H819 N812 0.984 . S
H820 N808 0.984 . S
H821 N808 0.985 . S
C822 C823 1.363 1_556 S
C822 C828 1.379 . S
C822 N830 1.356 1_556 S
C823 C822 1.363 1_554 S
C823 C829 1.363 . S
C824 C825 1.363 1_554 S
C824 C829 1.379 . S
C824 N831 1.356 1_554 S
C825 C824 1.363 1_556 S
C825 C828 1.363 . S
N826 C828 1.356 . S
N826 H838 0.984 . S
N826 H839 0.985 . S
N827 C829 1.356 . S
N827 H832 0.984 . S
N827 H833 0.985 . S
C828 C822 1.379 . S
C828 C825 1.363 . S
C828 N826 1.356 . S
C829 C823 1.363 . S
C829 C824 1.379 . S
C829 N827 1.356 . S
N830 C822 1.356 1_554 S
N830 H836 0.984 1_554 S
N830 H837 0.984 . S
N831 C824 1.356 1_556 S
N831 H834 0.984 . S
N831 H835 0.985 1_556 S
H832 N827 0.984 . S
H833 N827 0.985 . S
H834 N831 0.984 . S
H835 N831 0.985 1_554 S
H836 N830 0.984 1_556 S
H837 N830 0.984 . S
H838 N826 0.984 . S
H839 N826 0.985 . S
C840 C841 1.363 . S
C840 C846 1.379 1_554 S
C840 N848 1.356 . S
C841 C840 1.363 . S
C841 C847 1.363 . S
C842 C843 1.363 . S
C842 C847 1.379 1_556 S
C842 N849 1.356 . S
C843 C842 1.363 . S
C843 C846 1.363 . S
N844 C846 1.356 . S
N844 H856 0.984 . S
N844 H857 0.985 . S
N845 C847 1.356 . S
N845 H850 0.984 . S
N845 H851 0.985 . S
C846 C840 1.379 1_556 S
C846 C843 1.363 . S
C846 N844 1.356 . S
C847 C841 1.363 . S
C847 C842 1.379 1_554 S
C847 N845 1.356 . S
N848 C840 1.356 . S
N848 H854 0.984 . S
N848 H855 0.984 . S
N849 C842 1.356 . S
N849 H852 0.984 . S
N849 H853 0.985 . S
H850 N845 0.984 . S
H851 N845 0.985 . S
H852 N849 0.984 . S
H853 N849 0.985 . S
H854 N848 0.984 . S
H855 N848 0.984 . S
H856 N844 0.984 . S
H857 N844 0.985 . S
C858 C859 1.363 . S
C858 C864 1.379 1_565 S
C858 N866 1.356 . S
C859 C858 1.363 . S
C859 C865 1.363 . S
C860 C861 1.363 . S
C860 C865 1.379 1_545 S
C860 N867 1.356 . S
C861 C860 1.363 . S
C861 C864 1.363 . S
N862 C864 1.356 . S
N862 H874 0.984 . S
N862 H875 0.985 . S
N863 C865 1.356 . S
N863 H868 0.984 . S
N863 H869 0.985 . S
C864 C858 1.379 1_545 S
C864 C861 1.363 . S
C864 N862 1.356 . S
C865 C859 1.363 . S
C865 C860 1.379 1_565 S
C865 N863 1.356 . S
N866 C858 1.356 . S
N866 H872 0.984 . S
N866 H873 0.984 . S
N867 C860 1.356 . S
N867 H870 0.984 . S
N867 H871 0.985 . S
H868 N863 0.984 . S
H869 N863 0.985 . S
H870 N867 0.984 . S
H871 N867 0.985 . S
H872 N866 0.984 . S
H873 N866 0.984 . S
H874 N862 0.984 . S
H875 N862 0.985 . S
C876 C877 1.363 . S
C876 C882 1.379 . S
C876 N884 1.356 . S
C877 C876 1.363 . S
C877 C883 1.363 . S
C878 C879 1.363 . S
C878 C883 1.379 . S
C878 N885 1.356 . S
C879 C878 1.363 . S
C879 C882 1.363 . S
N880 C882 1.356 . S
N880 H892 0.984 . S
N880 H893 0.985 . S
N881 C883 1.356 . S
N881 H886 0.984 . S
N881 H887 0.985 . S
C882 C876 1.379 . S
C882 C879 1.363 . S
C882 N880 1.356 . S
C883 C877 1.363 . S
C883 C878 1.379 . S
C883 N881 1.356 . S
N884 C876 1.356 . S
N884 H890 0.984 . S
N884 H891 0.984 . S
N885 C878 1.356 . S
N885 H888 0.984 . S
N885 H889 0.985 . S
H886 N881 0.984 . S
H887 N881 0.985 . S
H888 N885 0.984 . S
H889 N885 0.985 . S
H890 N884 0.984 . S
H891 N884 0.984 . S
H892 N880 0.984 . S
H893 N880 0.985 . S
C894 C895 1.363 1_545 S
C894 C900 1.379 . S
C894 N902 1.356 . S
C895 C894 1.363 1_565 S
C895 C901 1.363 . S
C896 C897 1.363 1_565 S
C896 C901 1.379 . S
C896 N903 1.356 . S
C897 C896 1.363 1_545 S
C897 C900 1.363 . S
N898 C900 1.356 . S
N898 H910 0.984 . S
N898 H911 0.985 . S
N899 C901 1.356 . S
N899 H904 0.984 . S
N899 H905 0.985 . S
C900 C894 1.379 . S
C900 C897 1.363 . S
C900 N898 1.356 . S
C901 C895 1.363 . S
C901 C896 1.379 . S
C901 N899 1.356 . S
N902 C894 1.356 . S
N902 H908 0.984 . S
N902 H909 0.984 1_545 S
N903 C896 1.356 . S
N903 H906 0.984 1_565 S
N903 H907 0.985 . S
H904 N899 0.984 . S
H905 N899 0.985 . S
H906 N903 0.984 1_545 S
H907 N903 0.985 . S
H908 N902 0.984 . S
H909 N902 0.984 1_565 S
H910 N898 0.984 . S
H911 N898 0.985 . S
C912 C913 1.363 . S
C912 C918 1.379 1_655 S
C912 N920 1.356 . S
C913 C912 1.363 . S
C913 C919 1.363 . S
C914 C915 1.363 . S
C914 C919 1.379 1_455 S
C914 N921 1.356 . S
C915 C914 1.363 . S
C915 C918 1.363 . S
N916 C918 1.356 . S
N916 H928 0.984 . S
N916 H929 0.985 . S
N917 C919 1.356 . S
N917 H922 0.984 . S
N917 H923 0.985 . S
C918 C912 1.379 1_455 S
C918 C915 1.363 . S
C918 N916 1.356 . S
C919 C913 1.363 . S
C919 C914 1.379 1_655 S
C919 N917 1.356 . S
N920 C912 1.356 . S
N920 H926 0.984 . S
N920 H927 0.984 . S
N921 C914 1.356 . S
N921 H924 0.984 . S
N921 H925 0.985 . S
H922 N917 0.984 . S
H923 N917 0.985 . S
H924 N921 0.984 . S
H925 N921 0.985 . S
H926 N920 0.984 . S
H927 N920 0.984 . S
H928 N916 0.984 . S
H929 N916 0.985 . S
C930 C931 1.363 . S
C930 C936 1.379 . S
C930 N938 1.356 . S
C931 C930 1.363 . S
C931 C937 1.363 . S
C932 C933 1.363 . S
C932 C937 1.379 . S
C932 N939 1.356 . S
C933 C932 1.363 . S
C933 C936 1.363 . S
N934 C936 1.356 . S
N934 H946 0.984 . S
N934 H947 0.985 . S
N935 C937 1.356 . S
N935 H940 0.984 . S
N935 H941 0.985 . S
C936 C930 1.379 . S
C936 C933 1.363 . S
C936 N934 1.356 . S
C937 C931 1.363 . S
C937 C932 1.379 . S
C937 N935 1.356 . S
N938 C930 1.356 . S
N938 H944 0.984 . S
N938 H945 0.984 . S
N939 C932 1.356 . S
N939 H942 0.984 . S
N939 H943 0.985 . S
H940 N935 0.984 . S
H941 N935 0.985 . S
H942 N939 0.984 . S
H943 N939 0.985 . S
H944 N938 0.984 . S
H945 N938 0.984 . S
H946 N934 0.984 . S
H947 N934 0.985 . S
C948 C949 1.363 1_655 S
C948 C954 1.379 . S
C948 N956 1.356 1_655 S
C949 C948 1.363 1_455 S
C949 C955 1.363 . S
C950 C951 1.363 1_455 S
C950 C955 1.379 . S
C950 N957 1.356 1_455 S
C951 C950 1.363 1_655 S
C951 C954 1.363 . S
N952 C954 1.356 . S
N952 H964 0.984 . S
N952 H965 0.985 . S
N953 C955 1.356 . S
N953 H958 0.984 . S
N953 H959 0.985 . S
C954 C948 1.379 . S
C954 C951 1.363 . S
C954 N952 1.356 . S
C955 C949 1.363 . S
C955 C950 1.379 . S
C955 N953 1.356 . S
N956 C948 1.356 1_455 S
N956 H962 0.984 1_455 S
N956 H963 0.984 . S
N957 C950 1.356 1_655 S
N957 H960 0.984 . S
N957 H961 0.985 1_655 S
H958 N953 0.984 . S
H959 N953 0.985 . S
H960 N957 0.984 . S
H961 N957 0.985 1_455 S
H962 N956 0.984 1_655 S
H963 N956 0.984 . S
H964 N952 0.984 . S
H965 N952 0.985 . S
C966 C967 1.363 . S
C966 C972 1.379 1_455 S
C966 N974 1.356 . S
C967 C966 1.363 . S
C967 C973 1.363 . S
C968 C969 1.363 . S
C968 C973 1.379 1_655 S
C968 N975 1.356 . S
C969 C968 1.363 . S
C969 C972 1.363 . S
N970 C972 1.356 . S
N970 H982 0.984 . S
N970 H983 0.985 . S
N971 C973 1.356 . S
N971 H976 0.984 . S
N971 H977 0.985 . S
C972 C966 1.379 1_655 S
C972 C969 1.363 . S
C972 N970 1.356 . S
C973 C967 1.363 . S
C973 C968 1.379 1_455 S
C973 N971 1.356 . S
N974 C966 1.356 . S
N974 H980 0.984 . S
N974 H981 0.984 . S
N975 C968 1.356 . S
N975 H978 0.984 . S
N975 H979 0.985 . S
H976 N971 0.984 . S
H977 N971 0.985 . S
H978 N975 0.984 . S
H979 N975 0.985 . S
H980 N974 0.984 . S
H981 N974 0.984 . S
H982 N970 0.984 . S
H983 N970 0.985 . S
C984 C985 1.363 . S
C984 C990 1.379 . S
C984 N992 1.356 . S
C985 C984 1.363 . S
C985 C991 1.363 . S
C986 C987 1.363 . S
C986 C991 1.379 . S
C986 N993 1.356 . S
C987 C986 1.363 . S
C987 C990 1.363 . S
N988 C990 1.356 . S
N988 H1000 0.984 . S
N988 H1001 0.985 . S
N989 C991 1.356 . S
N989 H994 0.984 . S
N989 H995 0.985 . S
C990 C984 1.379 . S
C990 C987 1.363 . S
C990 N988 1.356 . S
C991 C985 1.363 . S
C991 C986 1.379 . S
C991 N989 1.356 . S
N992 C984 1.356 . S
N992 H998 0.984 . S
N992 H999 0.984 . S
N993 C986 1.356 . S
N993 H996 0.984 . S
N993 H997 0.985 . S
H994 N989 0.984 . S
H995 N989 0.985 . S
H996 N993 0.984 . S
H997 N993 0.985 . S
H998 N992 0.984 . S
H999 N992 0.984 . S
H1000 N988 0.984 . S
H1001 N988 0.985 . S
C1002 C1003 1.363 . S
C1002 C1008 1.379 . S
C1002 N1010 1.356 . S
C1003 C1002 1.363 . S
C1003 C1009 1.363 1_455 S
C1004 C1005 1.363 . S
C1004 C1009 1.379 . S
C1004 N1011 1.356 . S
C1005 C1004 1.363 . S
C1005 C1008 1.363 1_655 S
N1006 C1008 1.356 1_655 S
N1006 H1018 0.984 1_655 S
N1006 H1019 0.985 . S
N1007 C1009 1.356 1_455 S
N1007 H1012 0.984 . S
N1007 H1013 0.985 1_455 S
C1008 C1002 1.379 . S
C1008 C1005 1.363 1_455 S
C1008 N1006 1.356 1_455 S
C1009 C1003 1.363 1_655 S
C1009 C1004 1.379 . S
C1009 N1007 1.356 1_655 S
N1010 C1002 1.356 . S
N1010 H1016 0.984 . S
N1010 H1017 0.984 . S
N1011 C1004 1.356 . S
N1011 H1014 0.984 . S
N1011 H1015 0.985 . S
H1012 N1007 0.984 . S
H1013 N1007 0.985 1_655 S
H1014 N1011 0.984 . S
H1015 N1011 0.985 . S
H1016 N1010 0.984 . S
H1017 N1010 0.984 . S
H1018 N1006 0.984 1_455 S
H1019 N1006 0.985 . S
C1020 C1021 1.363 . S
C1020 C1026 1.379 . S
C1020 N1028 1.356 . S
C1021 C1020 1.363 . S
C1021 C1027 1.363 . S
C1022 C1023 1.363 . S
C1022 C1027 1.379 . S
C1022 N1029 1.356 . S
C1023 C1022 1.363 . S
C1023 C1026 1.363 . S
N1024 C1026 1.356 . S
N1024 H1036 0.984 . S
N1024 H1037 0.985 . S
N1025 C1027 1.356 . S
N1025 H1030 0.984 . S
N1025 H1031 0.985 . S
C1026 C1020 1.379 . S
C1026 C1023 1.363 . S
C1026 N1024 1.356 . S
C1027 C1021 1.363 . S
C1027 C1022 1.379 . S
C1027 N1025 1.356 . S
N1028 C1020 1.356 . S
N1028 H1034 0.984 . S
N1028 H1035 0.984 . S
N1029 C1022 1.356 . S
N1029 H1032 0.984 . S
N1029 H1033 0.985 . S
H1030 N1025 0.984 . S
H1031 N1025 0.985 . S
H1032 N1029 0.984 . S
H1033 N1029 0.985 . S
H1034 N1028 0.984 . S
H1035 N1028 0.984 . S
H1036 N1024 0.984 . S
H1037 N1024 0.985 . S
C1038 C1039 1.363 . S
C1038 C1044 1.379 . S
C1038 N1046 1.356 . S
C1039 C1038 1.363 . S
C1039 C1045 1.363 . S
C1040 C1041 1.363 . S
C1040 C1045 1.379 . S
C1040 N1047 1.356 . S
C1041 C1040 1.363 . S
C1041 C1044 1.363 . S
N1042 C1044 1.356 . S
N1042 H1054 0.984 . S
N1042 H1055 0.985 . S
N1043 C1045 1.356 . S
N1043 H1048 0.984 . S
N1043 H1049 0.985 . S
C1044 C1038 1.379 . S
C1044 C1041 1.363 . S
C1044 N1042 1.356 . S
C1045 C1039 1.363 . S
C1045 C1040 1.379 . S
C1045 N1043 1.356 . S
N1046 C1038 1.356 . S
N1046 H1052 0.984 . S
N1046 H1053 0.984 . S
N1047 C1040 1.356 . S
N1047 H1050 0.984 . S
N1047 H1051 0.985 . S
H1048 N1043 0.984 . S
H1049 N1043 0.985 . S
H1050 N1047 0.984 . S
H1051 N1047 0.985 . S
H1052 N1046 0.984 . S
H1053 N1046 0.984 . S
H1054 N1042 0.984 . S
H1055 N1042 0.985 . S
C1056 C1057 1.363 1_554 S
C1056 C1062 1.379 . S
C1056 N1064 1.356 1_554 S
C1057 C1056 1.363 1_556 S
C1057 C1063 1.363 . S
C1058 C1059 1.363 1_556 S
C1058 C1063 1.379 . S
C1058 N1065 1.356 1_556 S
C1059 C1058 1.363 1_554 S
C1059 C1062 1.363 . S
N1060 C1062 1.356 . S
N1060 H1072 0.984 . S
N1060 H1073 0.985 . S
N1061 C1063 1.356 . S
N1061 H1066 0.984 . S
N1061 H1067 0.985 . S
C1062 C1056 1.379 . S
C1062 C1059 1.363 . S
C1062 N1060 1.356 . S
C1063 C1057 1.363 . S
C1063 C1058 1.379 . S
C1063 N1061 1.356 . S
N1064 C1056 1.356 1_556 S
N1064 H1070 0.984 1_556 S
N1064 H1071 0.984 . S
N1065 C1058 1.356 1_554 S
N1065 H1068 0.984 . S
N1065 H1069 0.985 1_554 S
H1066 N1061 0.984 . S
H1067 N1061 0.985 . S
H1068 N1065 0.984 . S
H1069 N1065 0.985 1_556 S
H1070 N1064 0.984 1_554 S
H1071 N1064 0.984 . S
H1072 N1060 0.984 . S
H1073 N1060 0.985 . S
C1074 C1075 1.363 . S
C1074 C1080 1.379 . S
C1074 N1082 1.356 . S
C1075 C1074 1.363 . S
C1075 C1081 1.363 . S
C1076 C1077 1.363 . S
C1076 C1081 1.379 . S
C1076 N1083 1.356 . S
C1077 C1076 1.363 . S
C1077 C1080 1.363 . S
N1078 C1080 1.356 . S
N1078 H1090 0.984 . S
N1078 H1091 0.985 . S
N1079 C1081 1.356 . S
N1079 H1084 0.984 . S
N1079 H1085 0.985 . S
C1080 C1074 1.379 . S
C1080 C1077 1.363 . S
C1080 N1078 1.356 . S
C1081 C1075 1.363 . S
C1081 C1076 1.379 . S
C1081 N1079 1.356 . S
N1082 C1074 1.356 . S
N1082 H1088 0.984 . S
N1082 H1089 0.984 . S
N1083 C1076 1.356 . S
N1083 H1086 0.984 . S
N1083 H1087 0.985 . S
H1084 N1079 0.984 . S
H1085 N1079 0.985 . S
H1086 N1083 0.984 . S
H1087 N1083 0.985 . S
H1088 N1082 0.984 . S
H1089 N1082 0.984 . S
H1090 N1078 0.984 . S
H1091 N1078 0.985 . S
C1092 C1093 1.363 . S
C1092 C1098 1.379 . S
C1092 N1100 1.356 . S
C1093 C1092 1.363 . S
C1093 C1099 1.363 . S
C1094 C1095 1.363 . S
C1094 C1099 1.379 . S
C1094 N1101 1.356 . S
C1095 C1094 1.363 . S
C1095 C1098 1.363 . S
N1096 C1098 1.356 . S
N1096 H1108 0.984 . S
N1096 H1109 0.985 . S
N1097 C1099 1.356 . S
N1097 H1102 0.984 . S
N1097 H1103 0.985 . S
C1098 C1092 1.379 . S
C1098 C1095 1.363 . S
C1098 N1096 1.356 . S
C1099 C1093 1.363 . S
C1099 C1094 1.379 . S
C1099 N1097 1.356 . S
N1100 C1092 1.356 . S
N1100 H1106 0.984 . S
N1100 H1107 0.984 . S
N1101 C1094 1.356 . S
N1101 H1104 0.984 . S
N1101 H1105 0.985 . S
H1102 N1097 0.984 . S
H1103 N1097 0.985 . S
H1104 N1101 0.984 . S
H1105 N1101 0.985 . S
H1106 N1100 0.984 . S
H1107 N1100 0.984 . S
H1108 N1096 0.984 . S
H1109 N1096 0.985 . S
C1110 C1111 1.363 . S
C1110 C1116 1.379 . S
C1110 N1118 1.356 . S
C1111 C1110 1.363 . S
C1111 C1117 1.363 . S
C1112 C1113 1.363 . S
C1112 C1117 1.379 . S
C1112 N1119 1.356 . S
C1113 C1112 1.363 . S
C1113 C1116 1.363 . S
N1114 C1116 1.356 . S
N1114 H1126 0.984 . S
N1114 H1127 0.985 . S
N1115 C1117 1.356 . S
N1115 H1120 0.984 . S
N1115 H1121 0.985 . S
C1116 C1110 1.379 . S
C1116 C1113 1.363 . S
C1116 N1114 1.356 . S
C1117 C1111 1.363 . S
C1117 C1112 1.379 . S
C1117 N1115 1.356 . S
N1118 C1110 1.356 . S
N1118 H1124 0.984 . S
N1118 H1125 0.984 . S
N1119 C1112 1.356 . S
N1119 H1122 0.984 . S
N1119 H1123 0.985 . S
H1120 N1115 0.984 . S
H1121 N1115 0.985 . S
H1122 N1119 0.984 . S
H1123 N1119 0.985 . S
H1124 N1118 0.984 . S
H1125 N1118 0.984 . S
H1126 N1114 0.984 . S
H1127 N1114 0.985 . S
C1128 C1129 1.363 . S
C1128 C1134 1.379 . S
C1128 N1136 1.356 . S
C1129 C1128 1.363 . S
C1129 C1135 1.363 . S
C1130 C1131 1.363 . S
C1130 C1135 1.379 . S
C1130 N1137 1.356 . S
C1131 C1130 1.363 . S
C1131 C1134 1.363 . S
N1132 C1134 1.356 . S
N1132 H1144 0.984 . S
N1132 H1145 0.985 . S
N1133 C1135 1.356 . S
N1133 H1138 0.984 . S
N1133 H1139 0.985 . S
C1134 C1128 1.379 . S
C1134 C1131 1.363 . S
C1134 N1132 1.356 . S
C1135 C1129 1.363 . S
C1135 C1130 1.379 . S
C1135 N1133 1.356 . S
N1136 C1128 1.356 . S
N1136 H1142 0.984 . S
N1136 H1143 0.984 . S
N1137 C1130 1.356 . S
N1137 H1140 0.984 . S
N1137 H1141 0.985 . S
H1138 N1133 0.984 . S
H1139 N1133 0.985 . S
H1140 N1137 0.984 . S
H1141 N1137 0.985 . S
H1142 N1136 0.984 . S
H1143 N1136 0.984 . S
H1144 N1132 0.984 . S
H1145 N1132 0.985 . S
C1146 C1147 1.363 . S
C1146 C1152 1.379 1_554 S
C1146 N1154 1.356 . S
C1147 C1146 1.363 . S
C1147 C1153 1.363 . S
C1148 C1149 1.363 . S
C1148 C1153 1.379 1_556 S
C1148 N1155 1.356 . S
C1149 C1148 1.363 . S
C1149 C1152 1.363 . S
N1150 C1152 1.356 . S
N1150 H1162 0.984 . S
N1150 H1163 0.985 . S
N1151 C1153 1.356 . S
N1151 H1156 0.984 . S
N1151 H1157 0.985 . S
C1152 C1146 1.379 1_556 S
C1152 C1149 1.363 . S
C1152 N1150 1.356 . S
C1153 C1147 1.363 . S
C1153 C1148 1.379 1_554 S
C1153 N1151 1.356 . S
N1154 C1146 1.356 . S
N1154 H1160 0.984 . S
N1154 H1161 0.984 . S
N1155 C1148 1.356 . S
N1155 H1158 0.984 . S
N1155 H1159 0.985 . S
H1156 N1151 0.984 . S
H1157 N1151 0.985 . S
H1158 N1155 0.984 . S
H1159 N1155 0.985 . S
H1160 N1154 0.984 . S
H1161 N1154 0.984 . S
H1162 N1150 0.984 . S
H1163 N1150 0.985 . S
C1164 C1165 1.363 . S
C1164 C1170 1.379 . S
C1164 N1172 1.356 . S
C1165 C1164 1.363 . S
C1165 C1171 1.363 . S
C1166 C1167 1.363 . S
C1166 C1171 1.379 . S
C1166 N1173 1.356 . S
C1167 C1166 1.363 . S
C1167 C1170 1.363 . S
N1168 C1170 1.356 . S
N1168 H1180 0.984 . S
N1168 H1181 0.985 . S
N1169 C1171 1.356 . S
N1169 H1174 0.984 . S
N1169 H1175 0.985 . S
C1170 C1164 1.379 . S
C1170 C1167 1.363 . S
C1170 N1168 1.356 . S
C1171 C1165 1.363 . S
C1171 C1166 1.379 . S
C1171 N1169 1.356 . S
N1172 C1164 1.356 . S
N1172 H1178 0.984 . S
N1172 H1179 0.984 . S
N1173 C1166 1.356 . S
N1173 H1176 0.984 . S
N1173 H1177 0.985 . S
H1174 N1169 0.984 . S
H1175 N1169 0.985 . S
H1176 N1173 0.984 . S
H1177 N1173 0.985 . S
H1178 N1172 0.984 . S
H1179 N1172 0.984 . S
H1180 N1168 0.984 . S
H1181 N1168 0.985 . S
C1182 C1183 1.363 . S
C1182 C1188 1.379 . S
C1182 N1190 1.356 . S
C1183 C1182 1.363 . S
C1183 C1189 1.363 . S
C1184 C1185 1.363 . S
C1184 C1189 1.379 . S
C1184 N1191 1.356 . S
C1185 C1184 1.363 . S
C1185 C1188 1.363 . S
N1186 C1188 1.356 . S
N1186 H1198 0.984 . S
N1186 H1199 0.985 . S
N1187 C1189 1.356 . S
N1187 H1192 0.984 . S
N1187 H1193 0.985 . S
C1188 C1182 1.379 . S
C1188 C1185 1.363 . S
C1188 N1186 1.356 . S
C1189 C1183 1.363 . S
C1189 C1184 1.379 . S
C1189 N1187 1.356 . S
N1190 C1182 1.356 . S
N1190 H1196 0.984 . S
N1190 H1197 0.984 . S
N1191 C1184 1.356 . S
N1191 H1194 0.984 . S
N1191 H1195 0.985 . S
H1192 N1187 0.984 . S
H1193 N1187 0.985 . S
H1194 N1191 0.984 . S
H1195 N1191 0.985 . S
H1196 N1190 0.984 . S
H1197 N1190 0.984 . S
H1198 N1186 0.984 . S
H1199 N1186 0.985 . S
C337 C106 0.991 . S
C339 C8 1.197 . S
C355 C23 0.991 . S
C357 C65 1.197 . S
C373 C78 0.991 . S
C375 C36 1.197 . S
C391 C51 0.990 . S
C393 C93 1.197 . S
C409 C120 1.197 . S
C411 C9 0.991 . S
C427 C22 1.197 . S
C429 C135 0.990 . S
C445 C148 1.197 . S
C447 C37 0.990 . S
C463 C162 0.991 . S
C465 C50 1.197 . S
C481 C64 0.991 . S
C483 C134 1.197 . S
C499 C79 1.197 . S
C501 C149 0.991 . S
C517 C163 1.197 . S
C519 C92 0.991 . S
C535 C121 0.991 . S
C537 C107 1.197 . S
C553 C303 0.990 . S
C555 C176 1.197 . S
C571 C191 0.990 . S
C573 C317 1.197 . S
C589 C204 1.197 . S
C591 C330 0.991 . S
C607 C331 1.197 . S
C609 C218 0.991 . S
C625 C232 0.991 . S
C627 C302 1.197 . S
C643 C274 0.991 . S
C645 C246 1.197 . S
C661 C177 0.991 . S
C663 C233 1.197 . S
C679 C190 1.197 . S
C681 C260 0.991 . S
C697 C205 0.990 . S
C699 C219 1.197 . S
C715 C247 0.991 . S
C717 C288 1.197 . S
C733 C261 1.197 . S
C735 C316 0.991 . S
C751 C289 0.991 . S
C753 C275 1.197 . S
C769 C62 1.729 . S
C771 C7 1.729 . S
C787 C77 1.812 . S
C789 C20 1.812 . S
C805 C90 1.729 . S
C807 C35 1.729 . S
C823 C105 1.812 . S
C825 C48 1.812 . S
C841 C119 1.729 . S
C843 C160 1.729 . S
C859 C132 1.812 . S
C861 C118 1.812 . S
C877 C147 1.729 . S
C879 C133 1.729 . S
C895 C146 1.812 . S
C897 C161 1.812 . S
C913 C258 1.729 . S
C915 C104 1.729 . S
C931 C175 1.729 . S
C933 C49 1.729 . S
C949 C6 1.812 . S
C951 C188 1.812 . S
C967 C21 1.729 . S
C969 C203 1.729 . S
C985 C76 1.729 . S
C987 C272 1.729 . S
C1003 C63 1.812 . S
C1005 C217 1.812 . S
C1021 C91 1.812 . S
C1023 C231 1.812 . S
C1039 C230 1.729 . S
C1041 C245 1.729 . S
C1057 C174 1.812 . S
C1059 C259 1.812 . S
C1075 C216 1.729 . S
C1077 C189 1.729 . S
C1093 C273 1.812 . S
C1095 C202 1.812 . S
C1111 C287 1.729 . S
C1113 C328 1.729 . S
C1129 C286 1.812 . S
C1131 C300 1.812 . S
C1147 C314 1.729 . S
C1149 C301 1.729 . S
C1165 C329 1.812 . S
C1167 C315 1.812 . S
C1183 C34 1.812 . S
C1185 C244 1.812 . S
