# Generated by pormake.
# Topology unf, (4)-cn, num edge types: 1
# Building blocks:
#     Node 0, Type 0, BuildingBlock: NAHDIM_clean_sbu_0, # of connection points: 4
#     Node 1, Type 0, BuildingBlock: NAHDIM_clean_sbu_0, # of connection points: 4
#     Node 2, Type 0, BuildingBlock: NAHDIM_clean_sbu_0, # of connection points: 4
#     Node 3, Type 0, BuildingBlock: NAHDIM_clean_sbu_0, # of connection points: 4
#     Node 4, Type 0, BuildingBlock: NAHDIM_clean_sbu_0, # of connection points: 4
#     Node 5, Type 0, BuildingBlock: NAHDIM_clean_sbu_0, # of connection points: 4
#     Node 6, Type 0, BuildingBlock: NAHDIM_clean_sbu_0, # of connection points: 4
#     Node 7, Type 0, BuildingBlock: NAHDIM_clean_sbu_0, # of connection points: 4
#     Node 8, Type 0, BuildingBlock: NAHDIM_clean_sbu_0, # of connection points: 4
#     Node 9, Type 0, BuildingBlock: NAHDIM_clean_sbu_0, # of connection points: 4
#     Node 10, Type 0, BuildingBlock: NAHDIM_clean_sbu_0, # of connection points: 4
#     Node 11, Type 0, BuildingBlock: NAHDIM_clean_sbu_0, # of connection points: 4
#     Edge 12, Type (0, 0), BuildingBlock: MIFKUJ_clean_linker_0, # of connection points: 2
#     Edge 13, Type (0, 0), BuildingBlock: MIFKUJ_clean_linker_0, # of connection points: 2
#     Edge 14, Type (0, 0), BuildingBlock: MIFKUJ_clean_linker_0, # of connection points: 2
#     Edge 15, Type (0, 0), BuildingBlock: MIFKUJ_clean_linker_0, # of connection points: 2
#     Edge 16, Type (0, 0), BuildingBlock: MIFKUJ_clean_linker_0, # of connection points: 2
#     Edge 17, Type (0, 0), BuildingBlock: MIFKUJ_clean_linker_0, # of connection points: 2
#     Edge 18, Type (0, 0), BuildingBlock: MIFKUJ_clean_linker_0, # of connection points: 2
#     Edge 19, Type (0, 0), BuildingBlock: MIFKUJ_clean_linker_0, # of connection points: 2
#     Edge 20, Type (0, 0), BuildingBlock: MIFKUJ_clean_linker_0, # of connection points: 2
#     Edge 21, Type (0, 0), BuildingBlock: MIFKUJ_clean_linker_0, # of connection points: 2
#     Edge 22, Type (0, 0), BuildingBlock: MIFKUJ_clean_linker_0, # of connection points: 2
#     Edge 23, Type (0, 0), BuildingBlock: MIFKUJ_clean_linker_0, # of connection points: 2
#     Edge 24, Type (0, 0), BuildingBlock: MIFKUJ_clean_linker_0, # of connection points: 2
#     Edge 25, Type (0, 0), BuildingBlock: MIFKUJ_clean_linker_0, # of connection points: 2
#     Edge 26, Type (0, 0), BuildingBlock: MIFKUJ_clean_linker_0, # of connection points: 2
#     Edge 27, Type (0, 0), BuildingBlock: MIFKUJ_clean_linker_0, # of connection points: 2
#     Edge 28, Type (0, 0), BuildingBlock: MIFKUJ_clean_linker_0, # of connection points: 2
#     Edge 29, Type (0, 0), BuildingBlock: MIFKUJ_clean_linker_0, # of connection points: 2
#     Edge 30, Type (0, 0), BuildingBlock: MIFKUJ_clean_linker_0, # of connection points: 2
#     Edge 31, Type (0, 0), BuildingBlock: MIFKUJ_clean_linker_0, # of connection points: 2
#     Edge 32, Type (0, 0), BuildingBlock: MIFKUJ_clean_linker_0, # of connection points: 2
#     Edge 33, Type (0, 0), BuildingBlock: MIFKUJ_clean_linker_0, # of connection points: 2
#     Edge 34, Type (0, 0), BuildingBlock: MIFKUJ_clean_linker_0, # of connection points: 2
#     Edge 35, Type (0, 0), BuildingBlock: MIFKUJ_clean_linker_0, # of connection points: 2
# Relax obj value: 0.238
# Max RMSD: 0.179
# Mean RMSD: 0.179
data_MOF--net-unf--node1-NAHDIM_clean_sbu_0--edge1-MIFKUJ_clean_linker_0
_symmetry_space_group_name_H-M    P1
_symmetry_Int_Tables_number       1
_symmetry_cell_setting            triclinic
loop_
_symmetry_equiv_pos_as_xyz
'x, y, z'
_cell_length_a     47.918554
_cell_length_b     47.906225
_cell_length_c     48.575788
_cell_angle_alpha  89.969858
_cell_angle_beta   90.063885
_cell_angle_gamma 120.03238
loop_
_atom_site_label
_atom_site_type_symbol
_atom_site_fract_x
_atom_site_fract_y
_atom_site_fract_z
_atom_type_partial_charge
C0 C 0.07617 0.37987 0.15171 0.0
O1 O 0.07733 0.40673 0.14409 0.0
O2 O 0.03889 0.39533 0.09395 0.0
Zn3 Zn 0.03847 0.35381 0.10157 0.0
O4 O 0.06338 0.34659 0.07189 0.0
C5 C 0.97444 0.31933 0.08162 0.0
O6 O 0.98565 0.34608 0.0673 0.0
O7 O 0.05976 0.35444 0.13755 0.0
C8 C 0.06381 0.35401 0.0467 0.0
O9 O 0.04718 0.36755 0.03865 0.0
C10 C 0.0631 0.42017 0.08398 0.0
O11 O 0.09041 0.4203 0.0809 0.0
O12 O 0.9927 0.31685 0.09928 0.0
C13 C 0.61374 0.6943 0.1482 0.0
O14 O 0.58613 0.67487 0.13616 0.0
O15 O 0.60061 0.63654 0.09353 0.0
Zn16 Zn 0.63937 0.68029 0.10012 0.0
O17 O 0.63964 0.71098 0.07185 0.0
C18 C 0.6801 0.66567 0.07062 0.0
O19 O 0.65604 0.65733 0.05337 0.0
O20 O 0.63972 0.6988 0.13722 0.0
C21 C 0.66554 0.73683 0.06614 0.0
O22 O 0.69227 0.74328 0.07896 0.0
C23 C 0.57614 0.63367 0.08076 0.0
O24 O 0.57503 0.65974 0.07433 0.0
O25 O 0.67887 0.67672 0.09407 0.0
C26 C 0.29353 0.9006 0.15134 0.0
O27 O 0.30381 0.88808 0.13267 0.0
O28 O 0.36231 0.95061 0.10489 0.0
Zn29 Zn 0.32263 0.95315 0.11399 0.0
O30 O 0.2909 0.93294 0.08314 0.0
C31 C 0.35835 0.02021 0.10096 0.0
O32 O 0.37835 0.01154 0.09102 0.0
O33 O 0.30037 0.92975 0.14872 0.0
C34 C 0.29877 0.94044 0.0581 0.0
O35 O 0.32878 0.96149 0.05184 0.0
C36 C 0.3618 0.92958 0.08861 0.0
O37 O 0.3339 0.90542 0.08069 0.0
O38 O 0.33355 -0.00042 0.11404 0.0
C39 C 0.62141 0.91326 0.35275 0.0
O40 O 0.59576 0.90318 0.36833 0.0
O41 O 0.6094 0.96186 0.40332 0.0
Zn42 Zn 0.64765 0.95588 0.39757 0.0
O43 O 0.64599 0.9244 0.4258 0.0
C44 C 0.68561 0.01061 0.42814 0.0
O45 O 0.65976 0.99439 0.44344 0.0
O46 O 0.64763 0.93775 0.36034 0.0
C47 C 0.67096 0.92656 0.43702 0.0
O48 O 0.69956 0.95011 0.42983 0.0
C49 C 0.58574 0.94218 0.41802 0.0
O50 O 0.58454 0.91559 0.42659 0.0
O51 O 0.68706 0.9988 0.40511 0.0
C52 C 0.04804 0.68823 0.33844 0.0
O53 O 0.0488 0.66262 0.34702 0.0
O54 O 0.01742 0.64217 0.39984 0.0
Zn55 Zn 0.01674 0.68282 0.39075 0.0
O56 O 0.04693 0.71727 0.41687 0.0
C57 C 0.95402 0.65352 0.41375 0.0
O58 O 0.96529 0.63664 0.42582 0.0
O59 O 0.03373 0.69934 0.35291 0.0
C60 C 0.04135 0.71889 0.44221 0.0
O61 O 0.01353 0.69746 0.45275 0.0
C62 C 0.04089 0.64281 0.41262 0.0
O63 O 0.06703 0.67068 0.41716 0.0
O64 O 0.9717 0.67519 0.3965 0.0
C65 C 0.3056 0.39272 0.34868 0.0
O66 O 0.31741 0.41654 0.3665 0.0
O67 O 0.36643 0.40404 0.40125 0.0
Zn68 Zn 0.32492 0.36428 0.39061 0.0
O69 O 0.29112 0.35769 0.41825 0.0
C70 C 0.35384 0.32698 0.40681 0.0
O71 O 0.37423 0.35433 0.41873 0.0
O72 O 0.3079 0.36792 0.35374 0.0
C73 C 0.29021 0.34802 0.44278 0.0
O74 O 0.31232 0.34138 0.45117 0.0
C75 C 0.36678 0.42501 0.4175 0.0
O76 O 0.33937 0.42298 0.42456 0.0
O77 O 0.33087 0.3255 0.39252 0.0
C78 C 0.9409 0.6323 0.84863 0.0
O79 O 0.934 0.60811 0.8653 0.0
O80 O 0.99452 0.63692 0.9068 0.0
Zn81 Zn 0.98182 0.66896 0.89343 0.0
O82 O 0.9474 0.66676 0.91821 0.0
C83 C 0.04685 0.72308 0.88541 0.0
O84 O 0.05071 0.70326 0.86929 0.0
O85 O 0.96295 0.66043 0.85539 0.0
C86 C 0.95207 0.67443 0.9435 0.0
O87 O 0.98072 0.68447 0.95427 0.0
C88 C 0.97476 0.61267 0.92094 0.0
O89 O 0.94538 0.60742 0.92467 0.0
O90 O 0.01968 0.71357 0.89673 0.0
C91 C 0.37498 0.28851 0.85186 0.0
O92 O 0.39847 0.30185 0.86994 0.0
O93 O 0.37306 0.34032 0.90845 0.0
Zn94 Zn 0.34033 0.2956 0.89609 0.0
O95 O 0.34256 0.26346 0.92112 0.0
C96 C 0.29032 0.31159 0.88945 0.0
O97 O 0.31185 0.33462 0.87373 0.0
O98 O 0.34772 0.28529 0.85783 0.0
C99 C 0.32927 0.25641 0.94466 0.0
O100 O 0.31297 0.27018 0.95301 0.0
C101 C 0.39647 0.34503 0.92387 0.0
O102 O 0.40088 0.32073 0.92967 0.0
O103 O 0.29682 0.29124 0.89999 0.0
C104 C 0.6969 0.0867 0.84354 0.0
O105 O 0.67824 0.09464 0.85717 0.0
O106 O 0.63699 0.03412 0.89566 0.0
Zn107 Zn 0.68213 0.04313 0.88888 0.0
O108 O 0.71088 0.07389 0.9179 0.0
C109 C 0.6577 0.97465 0.89454 0.0
O110 O 0.62981 0.97264 0.88948 0.0
O111 O 0.70042 0.06369 0.85238 0.0
C112 C 0.71208 0.06489 0.94228 0.0
O113 O 0.69406 0.03434 0.94894 0.0
C114 C 0.63166 0.05344 0.90955 0.0
O115 O 0.65606 0.08156 0.9167 0.0
O116 O 0.68324 0.00207 0.89383 0.0
C117 C 0.37874 0.07591 0.64739 0.0
O118 O 0.40584 0.08077 0.63641 0.0
O119 O 0.39038 0.03497 0.5906 0.0
Zn120 Zn 0.35095 0.03838 0.59815 0.0
O121 O 0.34817 0.06783 0.57007 0.0
C122 C 0.31308 0.97571 0.57574 0.0
O123 O 0.34038 0.98497 0.56279 0.0
O124 O 0.35225 0.05728 0.63535 0.0
C125 C 0.35164 0.06571 0.54435 0.0
O126 O 0.35742 0.04335 0.53509 0.0
C127 C 0.41522 0.05715 0.5787 0.0
O128 O 0.41702 0.08497 0.57378 0.0
O129 O 0.31154 0.99441 0.59348 0.0
C130 C 0.92884 0.31356 0.65502 0.0
O131 O 0.91914 0.32858 0.63833 0.0
O132 O 0.97484 0.36736 0.5991 0.0
Zn133 Zn 0.97083 0.32488 0.61011 0.0
O134 O 0.9389 0.29009 0.58512 0.0
C135 C 0.03297 0.34731 0.58739 0.0
O136 O 0.02469 0.36634 0.5748 0.0
O137 O 0.95311 0.31106 0.64824 0.0
C138 C 0.94393 0.28664 0.56 0.0
O139 O 0.97182 0.30677 0.54878 0.0
C140 C 0.95424 0.36864 0.58343 0.0
O141 O 0.92776 0.34183 0.57702 0.0
O142 O 0.01387 0.32731 0.60509 0.0
C143 C 0.69422 0.61191 0.67007 0.0
O144 O 0.67598 0.5853 0.65624 0.0
O145 O 0.63408 0.6007 0.61755 0.0
Zn146 Zn 0.67725 0.63973 0.62546 0.0
O147 O 0.70748 0.64168 0.5961 0.0
C148 C 0.64765 0.67822 0.61426 0.0
O149 O 0.62122 0.64992 0.61357 0.0
O150 O 0.69665 0.63819 0.66173 0.0
C151 C 0.70493 0.64903 0.57144 0.0
O152 O 0.68253 0.65616 0.56526 0.0
C153 C 0.63194 0.57764 0.60302 0.0
O154 O 0.65832 0.57712 0.59671 0.0
O155 O 0.67413 0.6799 0.62088 0.0
H156 H 0.08275 0.37958 0.99511 0.0
H157 H 0.11851 0.37225 0.96372 0.0
H158 H 0.12505 0.30778 0.02209 0.0
H159 H 0.09033 0.31584 0.05381 0.0
H160 H 0.18214 0.34889 0.00457 0.0
H161 H 0.0793 0.2813 0.96114 0.0
H162 H 0.02756 0.26899 0.93998 0.0
H163 H 0.078 0.33989 0.87729 0.0
H164 H 0.13006 0.35292 0.8983 0.0
H165 H 0.24563 0.27211 0.92694 0.0
H166 H 0.20361 0.27925 0.94826 0.0
H167 H 0.22724 0.35998 0.89486 0.0
H168 H 0.26981 0.35327 0.87337 0.0
H169 H 0.15678 0.31499 0.90691 0.0
H170 H 0.25993 0.38082 0.95082 0.0
H171 H 0.3109 0.39037 0.97173 0.0
H172 H 0.25808 0.31977 0.03402 0.0
H173 H 0.20676 0.30941 0.01318 0.0
C174 C 0.09168 0.36369 0.00114 0.0
C175 C 0.08385 0.34837 0.02695 0.0
C176 C 0.11199 0.35941 0.98314 0.0
C177 C 0.12428 0.33926 0.99046 0.0
C178 C 0.11597 0.32354 0.01604 0.0
C179 C 0.09608 0.32813 0.03414 0.0
C180 C 0.14688 0.33539 0.97216 0.0
C181 C 0.17634 0.34117 0.98331 0.0
C182 C 0.13982 0.3262 0.94415 0.0
C183 C 0.10856 0.31832 0.93146 0.0
C184 C 0.07935 0.29444 0.94296 0.0
C185 C 0.04997 0.2873 0.93098 0.0
C186 C 0.04949 0.30371 0.90735 0.0
C187 C 0.07841 0.32723 0.89562 0.0
C188 C 0.10786 0.33449 0.90754 0.0
C189 C 0.24158 0.29102 0.91928 0.0
C190 C 0.26138 0.31243 0.89871 0.0
C191 C 0.21751 0.29502 0.93149 0.0
C192 C 0.21268 0.32032 0.92327 0.0
C193 C 0.23073 0.34032 0.90141 0.0
C194 C 0.25507 0.33651 0.88927 0.0
C195 C 0.19133 0.32778 0.93966 0.0
C196 C 0.16239 0.32287 0.92814 0.0
C197 C 0.19866 0.33756 0.96743 0.0
C198 C 0.2295 0.34414 0.98029 0.0
C199 C 0.25918 0.36715 0.96885 0.0
C200 C 0.28814 0.37274 0.9807 0.0
C201 C 0.28773 0.35563 0.00415 0.0
C202 C 0.25836 0.33297 0.01584 0.0
C203 C 0.22933 0.32726 0.00402 0.0
H204 H 0.31017 0.35999 0.0133 0.0
H205 H 0.02672 0.29815 0.89811 0.0
H206 H 0.61378 0.73224 0.03836 0.0
H207 H 0.61342 0.77052 0.00537 0.0
H208 H 0.71644 0.83076 0.01415 0.0
H209 H 0.71695 0.79287 0.04761 0.0
H210 H 0.68715 0.86564 0.01681 0.0
H211 H 0.68303 0.78417 0.95659 0.0
H212 H 0.66161 0.72866 0.93954 0.0
H213 H 0.5702 0.72153 0.92309 0.0
H214 H 0.59095 0.77688 0.9404 0.0
H215 H 0.71117 0.97121 0.90826 0.0
H216 H 0.71287 0.92768 0.93293 0.0
H217 H 0.60908 0.87114 0.93069 0.0
H218 H 0.60707 0.9145 0.90581 0.0
H219 H 0.63929 0.83401 0.9234 0.0
H220 H 0.64195 0.91353 0.98539 0.0
H221 H 0.66241 0.96885 0.00256 0.0
H222 H 0.75564 0.97903 0.0161 0.0
H223 H 0.73584 0.92389 0.99856 0.0
C224 C 0.6364 0.75357 0.03321 0.0
C225 C 0.66541 0.75953 0.04561 0.0
C226 C 0.63616 0.77534 0.01423 0.0
C227 C 0.66496 0.8033 0.00706 0.0
C228 C 0.69396 0.80929 0.01937 0.0
C229 C 0.69421 0.78759 0.03845 0.0
C230 C 0.66468 0.82684 0.98744 0.0
C231 C 0.67718 0.85881 0.99623 0.0
C232 C 0.65086 0.81771 0.96085 0.0
C233 C 0.63847 0.78459 0.95002 0.0
C234 C 0.6583 0.7707 0.94949 0.0
C235 C 0.64628 0.73927 0.93976 0.0
C236 C 0.61454 0.72155 0.9303 0.0
C237 C 0.59478 0.73528 0.93045 0.0
C238 C 0.60667 0.7667 0.94019 0.0
C239 C 0.6887 0.9493 0.91254 0.0
C240 C 0.65895 0.94646 0.90536 0.0
C241 C 0.68974 0.92447 0.92665 0.0
C242 C 0.66108 0.89646 0.93394 0.0
C243 C 0.63145 0.89262 0.92526 0.0
C244 C 0.63036 0.91748 0.91111 0.0
C245 C 0.662 0.87268 0.95278 0.0
C246 C 0.64948 0.84076 0.94391 0.0
C247 C 0.67568 0.88175 0.97938 0.0
C248 C 0.6875 0.9147 0.99042 0.0
C249 C 0.66687 0.92764 0.99186 0.0
C250 C 0.67834 0.95895 0.00167 0.0
C251 C 0.71032 0.97746 0.01037 0.0
C252 C 0.73088 0.96466 0.00933 0.0
C253 C 0.71954 0.93337 -0.00053 0.0
H254 H 0.71916 0.00168 0.018 0.0
H255 H 0.60527 0.6972 0.92281 0.0
H256 H 0.30917 0.93177 0.00431 0.0
H257 H 0.2684 0.9007 0.96942 0.0
H258 H 0.19322 0.88306 0.02762 0.0
H259 H 0.2338 0.91253 0.06283 0.0
H260 H 0.1786 0.83037 0.00469 0.0
H261 H 0.21472 0.93661 0.97062 0.0
H262 H 0.25502 0.99131 0.95539 0.0
H263 H 0.28235 0.95139 0.88855 0.0
H264 H 0.24254 0.89638 0.90365 0.0
H265 H 0.0463 0.76877 0.91845 0.0
H266 H 0.09253 0.81381 0.94064 0.0
H267 H 0.15691 0.79296 0.8948 0.0
H268 H 0.11063 0.74749 0.87239 0.0
H269 H 0.17797 0.86562 0.90866 0.0
H270 H 0.14072 0.75775 0.94816 0.0
H271 H 0.09594 0.7052 0.9635 0.0
H272 H 0.06668 0.75299 0.02173 0.0
H273 H 0.11098 0.80585 0.00639 0.0
C274 C 0.28392 0.92144 0.00951 0.0
C275 C 0.27456 0.92429 0.03627 0.0
C276 C 0.26064 0.90385 0.98953 0.0
C277 C 0.22766 0.88967 0.99578 0.0
C278 C 0.21846 0.89354 0.02231 0.0
C279 C 0.24165 0.91043 0.04241 0.0
C280 C 0.20258 0.86919 0.9754 0.0
C281 C 0.17848 0.83841 0.98383 0.0
C282 C 0.20242 0.87929 0.94797 0.0
C283 C 0.22584 0.91235 0.93842 0.0
C284 C 0.22944 0.93948 0.95275 0.0
C285 C 0.25219 0.97054 0.94415 0.0
C286 C 0.2713 0.97482 0.92107 0.0
C287 C 0.26757 0.94804 0.90646 0.0
C288 C 0.24489 0.9169 0.91501 0.0
C289 C 0.07027 0.77417 0.91248 0.0
C290 C 0.07479 0.75412 0.89407 0.0
C291 C 0.09666 0.80009 0.92506 0.0
C292 C 0.12798 0.80646 0.91943 0.0
C293 C 0.13284 0.78843 0.89923 0.0
C294 C 0.10636 0.76233 0.88663 0.0
C295 C 0.15439 0.82743 0.9383 0.0
C296 C 0.17855 0.85796 0.92956 0.0
C297 C 0.15439 0.81754 0.9657 0.0
C298 C 0.12896 0.78571 0.97598 0.0
C299 C 0.12466 0.75703 0.96417 0.0
C300 C 0.09936 0.72721 0.97283 0.0
C301 C 0.07839 0.72579 0.99347 0.0
C302 C 0.0829 0.75415 0.0057 0.0
C303 C 0.10812 0.78403 0.99706 0.0
H304 H 0.05866 0.70272 -0.0 0.0
H305 H 0.28896 0.99889 0.91448 0.0
H306 H 0.69892 0.7393 0.60838 0.0
H307 H 0.70033 0.78362 0.58242 0.0
H308 H 0.59808 0.726 0.56735 0.0
H309 H 0.59652 0.68135 0.59291 0.0
H310 H 0.63001 0.75005 0.52081 0.0
H311 H 0.62917 0.7924 0.60966 0.0
H312 H 0.64683 0.80951 0.65744 0.0
H313 H 0.74069 0.88042 0.62867 0.0
H314 H 0.72374 0.86343 0.58072 0.0
H315 H 0.61555 0.87359 0.45434 0.0
H316 H 0.61009 0.83343 0.48814 0.0
H317 H 0.71301 0.88499 0.50082 0.0
H318 H 0.71876 0.92552 0.46709 0.0
H319 H 0.67889 0.86441 0.54965 0.0
H320 H 0.68042 0.82003 0.46131 0.0
H321 H 0.66291 0.80298 0.41349 0.0
H322 H 0.56753 0.73554 0.44173 0.0
H323 H 0.58436 0.75254 0.48973 0.0
C324 C 0.6766 0.73625 0.60002 0.0
C325 C 0.64763 0.70674 0.60262 0.0
C326 C 0.67743 0.76168 0.58525 0.0
C327 C 0.64928 0.75816 0.57304 0.0
C328 C 0.62008 0.72921 0.57661 0.0
C329 C 0.61923 0.70376 0.59134 0.0
C330 C 0.65088 0.78352 0.55453 0.0
C331 C 0.64012 0.77494 0.5273 0.0
C332 C 0.66495 0.81615 0.56277 0.0
C333 C 0.67525 0.82643 0.59159 0.0
C334 C 0.65366 0.81146 0.61353 0.0
C335 C 0.66353 0.82117 0.64064 0.0
C336 C 0.69489 0.84598 0.64609 0.0
C337 C 0.71642 0.86118 0.62442 0.0
C338 C 0.70668 0.85154 0.59727 0.0
C339 C 0.63706 0.87648 0.46433 0.0
C340 C 0.66764 0.90263 0.45788 0.0
C341 C 0.63387 0.85347 0.48362 0.0
C342 C 0.66118 0.85612 0.49676 0.0
C343 C 0.69166 0.88256 0.49086 0.0
C344 C 0.6949 0.90557 0.4715 0.0
C345 C 0.65795 0.83081 0.5161 0.0
C346 C 0.66852 0.83943 0.54335 0.0
C347 C 0.64371 0.79817 0.50793 0.0
C348 C 0.63356 0.78782 0.47909 0.0
C349 C 0.65564 0.80176 0.45731 0.0
C350 C 0.64585 0.79207 0.43017 0.0
C351 C 0.6141 0.76826 0.42457 0.0
C352 C 0.5921 0.75403 0.4461 0.0
C353 C 0.60175 0.76367 0.47327 0.0
H354 H 0.60657 0.76079 0.40354 0.0
H355 H 0.70248 0.85348 0.6671 0.0
H356 H 0.10338 0.76161 0.42779 0.0
H357 H 0.14639 0.8009 0.45715 0.0
H358 H 0.0808 0.77162 0.52589 0.0
H359 H 0.03729 0.73198 0.49654 0.0
H360 H 0.11981 0.83934 0.51965 0.0
H361 H 0.1324 0.74642 0.5251 0.0
H362 H 0.13666 0.70092 0.50623 0.0
H363 H 0.22218 0.76699 0.4621 0.0
H364 H 0.21816 0.81287 0.48035 0.0
H365 H 0.25549 0.9426 0.60321 0.0
H366 H 0.20657 0.89421 0.58743 0.0
H367 H 0.25597 0.89359 0.51335 0.0
H368 H 0.30481 0.94095 0.52935 0.0
H369 H 0.22059 0.83501 0.53027 0.0
H370 H 0.20381 0.92593 0.51694 0.0
H371 H 0.19959 0.97286 0.53199 0.0
H372 H 0.1229 0.91251 0.58722 0.0
H373 H 0.12693 0.86527 0.5727 0.0
C374 C 0.09796 0.76351 0.44912 0.0
C375 C 0.06692 0.74357 0.45987 0.0
C376 C 0.12263 0.7859 0.46589 0.0
C377 C 0.11681 0.7888 0.49374 0.0
C378 C 0.08573 0.76955 0.50446 0.0
C379 C 0.06097 0.74693 0.48768 0.0
C380 C 0.14349 0.81212 0.51138 0.0
C381 C 0.14163 0.83811 0.52254 0.0
C382 C 0.17205 0.81064 0.51465 0.0
C383 C 0.17487 0.78309 0.504 0.0
C384 C 0.15201 0.75125 0.51125 0.0
C385 C 0.15439 0.72538 0.50067 0.0
C386 C 0.17965 0.73106 0.48295 0.0
C387 C 0.20263 0.76262 0.47583 0.0
C388 C 0.20034 0.78857 0.48632 0.0
C389 C 0.2559 0.93189 0.58369 0.0
C390 C 0.28395 0.94553 0.5675 0.0
C391 C 0.22793 0.90435 0.57464 0.0
C392 C 0.22744 0.89049 0.54902 0.0
C393 C 0.25573 0.90372 0.53323 0.0
C394 C 0.28369 0.93085 0.54241 0.0
C395 C 0.19744 0.86297 0.53782 0.0
C396 C 0.1986 0.83604 0.52791 0.0
C397 C 0.16842 0.86385 0.53533 0.0
C398 C 0.16593 0.89219 0.54399 0.0
C399 C 0.1862 0.92273 0.53243 0.0
C400 C 0.18382 0.94937 0.54084 0.0
C401 C 0.16106 0.94569 0.56062 0.0
C402 C 0.14056 0.91534 0.57195 0.0
C403 C 0.14287 0.88863 0.56364 0.0
H404 H 0.15926 0.96634 0.5671 0.0
H405 H 0.18143 0.711 0.47477 0.0
H406 H 0.06038 0.31415 0.6103 0.0
H407 H 0.10562 0.30951 0.59169 0.0
H408 H 0.11515 0.37305 0.52496 0.0
H409 H 0.07081 0.37832 0.5434 0.0
H410 H 0.10722 0.30952 0.51039 0.0
H411 H 0.16815 0.40333 0.56979 0.0
H412 H 0.18236 0.43082 0.6148 0.0
H413 H 0.20641 0.36147 0.64567 0.0
H414 H 0.19189 0.33329 0.6009 0.0
H415 H 0.24588 0.36654 0.43329 0.0
H416 H 0.2029 0.36062 0.4636 0.0
H417 H 0.23267 0.31579 0.52507 0.0
H418 H 0.27656 0.32227 0.49485 0.0
H419 H 0.21813 0.35835 0.54819 0.0
H420 H 0.16595 0.26939 0.4876 0.0
H421 H 0.15159 0.24048 0.44326 0.0
H422 H 0.10938 0.29637 0.4159 0.0
H423 H 0.1239 0.32597 0.45992 0.0
C424 C 0.07243 0.32743 0.59187 0.0
C425 C 0.06194 0.34648 0.57825 0.0
C426 C 0.0982 0.32476 0.58132 0.0
C427 C 0.11344 0.34082 0.55694 0.0
C428 C 0.10352 0.3604 0.54376 0.0
C429 C 0.07822 0.36344 0.55442 0.0
C430 C 0.13866 0.33624 0.54393 0.0
C431 C 0.1315 0.32016 0.51858 0.0
C432 C 0.16982 0.34902 0.55531 0.0
C433 C 0.1785 0.36595 0.58216 0.0
C434 C 0.17612 0.39373 0.58628 0.0
C435 C 0.18431 0.4095 0.61172 0.0
C436 C 0.19516 0.39783 0.63312 0.0
C437 C 0.19793 0.37043 0.6291 0.0
C438 C 0.18973 0.35457 0.6037 0.0
C439 C 0.24336 0.35536 0.45322 0.0
C440 C 0.26447 0.34461 0.46157 0.0
C441 C 0.21866 0.35188 0.4705 0.0
C442 C 0.21419 0.33716 0.49636 0.0
C443 C 0.23561 0.327 0.5051 0.0
C444 C 0.26058 0.33066 0.48781 0.0
C445 C 0.18707 0.3328 0.51395 0.0
C446 C 0.19373 0.34701 0.54019 0.0
C447 C 0.15521 0.31791 0.50356 0.0
C448 C 0.14616 0.30001 0.47706 0.0
C449 C 0.15378 0.27566 0.47207 0.0
C450 C 0.14559 0.25913 0.44699 0.0
C451 C 0.12962 0.26661 0.42676 0.0
C452 C 0.12174 0.29059 0.43159 0.0
C453 C 0.1299 0.30722 0.45663 0.0
H454 H 0.12331 0.25379 0.40735 0.0
H455 H 0.20151 0.41007 0.6528 0.0
H456 H 0.68954 0.64398 0.02169 0.0
H457 H 0.73715 0.64239 0.00661 0.0
H458 H 0.78273 0.68042 0.08506 0.0
H459 H 0.73509 0.68261 0.10027 0.0
H460 H 0.82304 0.7115 0.04322 0.0
H461 H 0.75587 0.60187 0.06904 0.0
H462 H 0.70604 0.54896 0.07112 0.0
H463 H 0.7093 0.53856 0.98358 0.0
H464 H 0.7589 0.59163 0.9809 0.0
H465 H 0.95308 0.68902 0.9982 0.0
H466 H 0.90827 0.68458 0.02582 0.0
H467 H 0.84589 0.64926 0.95482 0.0
H468 H 0.89019 0.65328 0.92723 0.0
H469 H 0.81666 0.6143 0.00073 0.0
H470 H 0.87906 0.72712 0.97484 0.0
H471 H 0.92854 0.78034 0.97253 0.0
H472 H 0.93396 0.78423 0.06081 0.0
H473 H 0.8847 0.7308 0.06362 0.0
C474 C 0.70955 0.65182 0.03587 0.0
C475 C 0.70852 0.6634 0.0622 0.0
C476 C 0.73671 0.65071 0.02725 0.0
C477 C 0.7633 0.66085 0.04485 0.0
C478 C 0.76237 0.67234 0.07122 0.0
C479 C 0.73514 0.67351 0.07988 0.0
C480 C 0.79251 0.6608 0.03495 0.0
C481 C 0.82183 0.69007 0.0345 0.0
C482 C 0.7908 0.63293 0.02326 0.0
C483 C 0.76104 0.60086 0.02477 0.0
C484 C 0.74585 0.58841 0.0502 0.0
C485 C 0.71766 0.55837 0.05149 0.0
C486 C 0.70449 0.54043 0.02749 0.0
C487 C 0.71953 0.55248 0.00216 0.0
C488 C 0.74772 0.58252 0.00075 0.0
C489 C 0.9298 0.68025 0.98851 0.0
C490 C 0.92523 0.67162 0.96051 0.0
C491 C 0.90426 0.67778 0.0043 0.0
C492 C 0.87384 0.66675 0.9923 0.0
C493 C 0.86916 0.65772 0.96449 0.0
C494 C 0.89458 0.66019 0.94872 0.0
C495 C 0.84683 0.66515 0.00834 0.0
C496 C 0.81796 0.63554 0.00995 0.0
C497 C 0.84896 0.69268 0.02112 0.0
C498 C 0.87845 0.72483 0.01943 0.0
C499 C 0.89096 0.73922 0.99375 0.0
C500 C 0.91893 0.76943 0.99235 0.0
C501 C 0.93444 0.78561 0.01651 0.0
C502 C 0.92196 0.77164 0.04212 0.0
C503 C 0.89401 0.74141 0.04362 0.0
H504 H 0.9561 0.809 0.01539 0.0
H505 H 0.68265 0.51719 0.02853 0.0
H506 H 0.29964 0.23131 0.99396 0.0
H507 H 0.3061 0.19357 0.0235 0.0
H508 H 0.37407 0.19267 0.96581 0.0
H509 H 0.36714 0.22967 0.93588 0.0
H510 H 0.33371 0.13369 0.98233 0.0
H511 H 0.39838 0.23599 0.02651 0.0
H512 H 0.40946 0.28744 0.04747 0.0
H513 H 0.3383 0.23596 0.10966 0.0
H514 H 0.32641 0.18419 0.08881 0.0
H515 H 0.40215 0.0642 0.06528 0.0
H516 H 0.39905 0.10783 0.04227 0.0
H517 H 0.31711 0.08914 0.09214 0.0
H518 H 0.31958 0.04488 0.11507 0.0
H519 H 0.36382 0.15768 0.08088 0.0
H520 H 0.2996 0.05509 0.03542 0.0
H521 H 0.29082 0.00432 0.01466 0.0
H522 H 0.36399 0.05782 0.95448 0.0
H523 H 0.37369 0.10895 0.97523 0.0
C524 C 0.31595 0.22306 0.98757 0.0
C525 C 0.33292 0.23353 0.96262 0.0
C526 C 0.31973 0.20161 0.00453 0.0
C527 C 0.34089 0.19061 0.99703 0.0
C528 C 0.35762 0.20084 0.97201 0.0
C529 C 0.35368 0.22205 0.95496 0.0
C530 C 0.34546 0.16823 0.01507 0.0
C531 C 0.34066 0.13917 0.00378 0.0
C532 C 0.35398 0.17509 0.04321 0.0
C533 C 0.36128 0.2062 0.05593 0.0
C534 C 0.38492 0.23564 0.04453 0.0
C535 C 0.39137 0.26486 0.05641 0.0
C536 C 0.37454 0.26497 0.07984 0.0
C537 C 0.35128 0.23584 0.09149 0.0
C538 C 0.34469 0.20655 0.07966 0.0
C539 C 0.38383 0.0697 0.0718 0.0
C540 C 0.36074 0.0507 0.09167 0.0
C541 C 0.38214 0.09467 0.05862 0.0
C542 C 0.35759 0.10129 0.06531 0.0
C543 C 0.33616 0.08423 0.08671 0.0
C544 C 0.33759 0.05894 0.09973 0.0
C545 C 0.35231 0.12355 0.04799 0.0
C546 C 0.35687 0.15239 0.05942 0.0
C547 C 0.34381 0.11665 0.01991 0.0
C548 C 0.33761 0.08589 0.00707 0.0
C549 C 0.31402 0.05605 0.0179 0.0
C550 C 0.30885 0.0272 0.00613 0.0
C551 C 0.32688 0.02785 0.98331 0.0
C552 C 0.35004 0.05736 0.97216 0.0
C553 C 0.3554 0.08628 0.98393 0.0
H554 H 0.32288 0.0055 0.97425 0.0
H555 H 0.37958 0.2876 0.08902 0.0
H556 H 0.93233 0.3166 0.04262 0.0
H557 H 0.88204 0.26985 0.02828 0.0
H558 H 0.89295 0.21238 0.09121 0.0
H559 H 0.94411 0.25923 0.10536 0.0
H560 H 0.87873 0.18178 0.04381 0.0
H561 H 0.83296 0.2325 0.09568 0.0
H562 H 0.82536 0.2769 0.11221 0.0
H563 H 0.79815 0.2893 0.03085 0.0
H564 H 0.80601 0.24528 0.01372 0.0
H565 H 0.72776 0.0533 0.99363 0.0
H566 H 0.76647 0.09296 0.02613 0.0
H567 H 0.78466 0.16952 0.96938 0.0
H568 H 0.7462 0.13026 0.93692 0.0
H569 H 0.77859 0.18447 0.02356 0.0
H570 H 0.83487 0.14045 0.97159 0.0
H571 H 0.84237 0.09587 0.95531 0.0
H572 H 0.84874 0.07034 0.0389 0.0
H573 H 0.8409 0.11458 0.05566 0.0
C574 C 0.92392 0.29418 0.05372 0.0
C575 C 0.94229 0.29163 0.07511 0.0
C576 C 0.89496 0.26745 0.04559 0.0
C577 C 0.88344 0.23766 0.0589 0.0
C578 C 0.90132 0.23517 0.08073 0.0
C579 C 0.93049 0.26196 0.08882 0.0
C580 C 0.85409 0.20882 0.04835 0.0
C581 C 0.85654 0.18205 0.04006 0.0
C582 C 0.8252 0.20922 0.04319 0.0
C583 C 0.82023 0.23564 0.05339 0.0
C584 C 0.82555 0.24482 0.08127 0.0
C585 C 0.82116 0.26991 0.09075 0.0
C586 C 0.81131 0.28593 0.07258 0.0
C587 C 0.80576 0.27686 0.0449 0.0
C588 C 0.81012 0.25179 0.0353 0.0
C589 C 0.73985 0.0786 0.98819 0.0
C590 C 0.73412 0.08864 0.96263 0.0
C591 C 0.76194 0.10119 0.00675 0.0
C592 C 0.77848 0.13412 6e-05 0.0
C593 C 0.77205 0.14422 0.97494 0.0
C594 C 0.7502 0.12171 0.95635 0.0
C595 C 0.80379 0.1582 0.01836 0.0
C596 C 0.80053 0.184 0.02803 0.0
C597 C 0.83184 0.15685 0.02495 0.0
C598 C 0.83692 0.13054 0.01487 0.0
C599 C 0.83765 0.12517 0.98648 0.0
C600 C 0.842 0.1 0.97717 0.0
C601 C 0.84592 0.08021 0.99606 0.0
C602 C 0.84563 0.08564 0.0243 0.0
C603 C 0.84126 0.11077 0.03371 0.0
H604 H 0.84927 0.06072 0.98881 0.0
H605 H 0.80794 0.30536 0.07996 0.0
H606 H 0.33722 0.11265 0.55659 0.0
H607 H 0.33605 0.15185 0.52528 0.0
H608 H 0.36171 0.11093 0.45755 0.0
H609 H 0.3632 0.0716 0.48887 0.0
H610 H 0.3972 0.17632 0.45777 0.0
H611 H 0.28635 0.09653 0.46167 0.0
H612 H 0.23487 0.05819 0.48375 0.0
H613 H 0.23261 0.1364 0.52479 0.0
H614 H 0.28434 0.17519 0.50329 0.0
H615 H 0.31329 0.26543 0.38862 0.0
H616 H 0.31269 0.21619 0.4031 0.0
H617 H 0.3962 0.2727 0.45413 0.0
H618 H 0.39751 0.32185 0.43921 0.0
H619 H 0.30245 0.1919 0.45266 0.0
H620 H 0.43968 0.23678 0.46285 0.0
H621 H 0.49025 0.27324 0.43859 0.0
H622 H 0.43755 0.26065 0.36369 0.0
H623 H 0.3867 0.22376 0.38739 0.0
C624 C 0.34251 0.11185 0.53503 0.0
C625 C 0.35024 0.08896 0.5252 0.0
C626 C 0.34169 0.1342 0.51713 0.0
C627 C 0.34844 0.13403 0.48905 0.0
C628 C 0.35632 0.11135 0.47915 0.0
C629 C 0.35706 0.08886 0.49705 0.0
C630 C 0.34803 0.15825 0.47038 0.0
C631 C 0.37644 0.17963 0.45643 0.0
C632 C 0.32064 0.16197 0.46812 0.0
C633 C 0.28935 0.13876 0.48096 0.0
C634 C 0.27499 0.10555 0.47554 0.0
C635 C 0.24574 0.08373 0.48794 0.0
C636 C 0.2305 0.09485 0.50569 0.0
C637 C 0.24445 0.12782 0.51104 0.0
C638 C 0.27371 0.14974 0.49871 0.0
C639 C 0.33187 0.26739 0.40253 0.0
C640 C 0.35535 0.29753 0.41289 0.0
C641 C 0.33144 0.23923 0.41084 0.0
C642 C 0.35451 0.24074 0.42955 0.0
C643 C 0.3785 0.27092 0.43927 0.0
C644 C 0.37907 0.29904 0.43087 0.0
C645 C 0.35205 0.21082 0.44084 0.0
C646 C 0.32308 0.18835 0.45352 0.0
C647 C 0.37877 0.20583 0.44152 0.0
C648 C 0.40933 0.22763 0.42697 0.0
C649 C 0.43889 0.24162 0.44116 0.0
C650 C 0.4676 0.26241 0.42752 0.0
C651 C 0.46711 0.26931 0.39963 0.0
C652 C 0.43789 0.25536 0.38531 0.0
C653 C 0.40911 0.23455 0.39885 0.0
H654 H 0.48936 0.28543 0.38911 0.0
H655 H 0.20786 0.07792 0.51528 0.0
H656 H 0.88222 0.24481 0.57591 0.0
H657 H 0.84051 0.19962 0.54998 0.0
H658 H 0.90585 0.22234 0.48166 0.0
H659 H 0.94782 0.26822 0.50738 0.0
H660 H 0.84531 0.20639 0.4645 0.0
H661 H 0.89213 0.16114 0.52392 0.0
H662 H 0.9116 0.15179 0.56806 0.0
H663 H 0.8163 0.11048 0.60189 0.0
H664 H 0.79633 0.11996 0.55805 0.0
H665 H 0.74385 0.04989 0.4032 0.0
H666 H 0.78966 0.09876 0.42235 0.0
H667 H 0.7345 0.08879 0.49554 0.0
H668 H 0.68899 0.04012 0.47681 0.0
H669 H 0.79391 0.09785 0.5074 0.0
H670 H 0.74775 0.14557 0.44888 0.0
H671 H 0.72822 0.15545 0.40501 0.0
H672 H 0.82215 0.19194 0.36944 0.0
H673 H 0.84214 0.18185 0.41302 0.0
C674 C 0.88779 0.24031 0.55535 0.0
C675 C 0.91845 0.25993 0.54379 0.0
C676 C 0.86391 0.2144 0.54058 0.0
C677 C 0.87028 0.20732 0.51409 0.0
C678 C 0.90054 0.22735 0.50213 0.0
C679 C 0.92448 0.25346 0.51689 0.0
C680 C 0.84538 0.17854 0.49932 0.0
C681 C 0.83442 0.18254 0.47362 0.0
C682 C 0.83094 0.14755 0.51144 0.0
C683 C 0.84279 0.14147 0.53775 0.0
C684 C 0.87536 0.15024 0.54082 0.0
C685 C 0.88648 0.14489 0.56578 0.0
C686 C 0.86521 0.1306 0.58778 0.0
C687 C 0.83275 0.12155 0.58483 0.0
C688 C 0.82151 0.12686 0.55992 0.0
C689 C 0.74146 0.05827 0.42329 0.0
C690 C 0.71286 0.04108 0.43855 0.0
C691 C 0.76758 0.08621 0.43414 0.0
C692 C 0.76541 0.09734 0.46034 0.0
C693 C 0.7367 0.0805 0.47534 0.0
C694 C 0.71067 0.05271 0.46454 0.0
C695 C 0.79332 0.12577 0.47286 0.0
C696 C 0.80497 0.12164 0.49814 0.0
C697 C 0.80833 0.15654 0.46031 0.0
C698 C 0.79634 0.16259 0.4341 0.0
C699 C 0.76417 0.15541 0.43162 0.0
C700 C 0.75303 0.16112 0.40683 0.0
C701 C 0.7739 0.17422 0.38442 0.0
C702 C 0.80599 0.18173 0.3868 0.0
C703 C 0.81724 0.17604 0.41154 0.0
H704 H 0.76524 0.17863 0.36525 0.0
H705 H 0.87387 0.1265 0.60709 0.0
H706 H 0.91975 0.67947 0.39055 0.0
H707 H 0.87012 0.67586 0.40822 0.0
H708 H 0.86939 0.61637 0.47531 0.0
H709 H 0.91779 0.61878 0.4573 0.0
H710 H 0.81091 0.59491 0.45894 0.0
H711 H 0.9017 0.70114 0.48036 0.0
H712 H 0.94808 0.75429 0.46858 0.0
H713 H 0.88648 0.77611 0.41999 0.0
H714 H 0.8398 0.72289 0.43127 0.0
H715 H 0.74657 0.62616 0.57599 0.0
H716 H 0.78181 0.62475 0.54054 0.0
H717 H 0.74733 0.66902 0.48274 0.0
H718 H 0.71168 0.67048 0.51824 0.0
H719 H 0.81546 0.69738 0.48453 0.0
H720 H 0.72236 0.59312 0.4738 0.0
H721 H 0.67776 0.54096 0.48989 0.0
H722 H 0.74573 0.51594 0.52241 0.0
H723 H 0.79076 0.56816 0.5069 0.0
C724 C 0.90871 0.66532 0.40887 0.0
C725 C 0.9228 0.64962 0.42265 0.0
C726 C 0.88045 0.66337 0.419 0.0
C727 C 0.86629 0.64625 0.44335 0.0
C728 C 0.87977 0.62966 0.45647 0.0
C729 C 0.90761 0.63119 0.44618 0.0
C730 C 0.83857 0.64676 0.4564 0.0
C731 C 0.81191 0.61733 0.4645 0.0
C732 C 0.83939 0.67597 0.46304 0.0
C733 C 0.86739 0.70794 0.45636 0.0
C734 C 0.89812 0.71721 0.46702 0.0
C735 C 0.92444 0.74734 0.46046 0.0
C736 C 0.92025 0.76852 0.44347 0.0
C737 C 0.88971 0.75965 0.43309 0.0
C738 C 0.86331 0.72952 0.43956 0.0
C739 C 0.7464 0.6356 0.55576 0.0
C740 C 0.72633 0.64843 0.5499 0.0
C741 C 0.76643 0.63461 0.53549 0.0
C742 C 0.76684 0.64644 0.50899 0.0
C743 C 0.74716 0.65963 0.50307 0.0
C744 C 0.72683 0.66039 0.52333 0.0
C745 C 0.78867 0.64564 0.48795 0.0
C746 C 0.81409 0.67497 0.47833 0.0
C747 C 0.787 0.61638 0.48031 0.0
C748 C 0.75996 0.58465 0.48925 0.0
C749 C 0.72781 0.57658 0.4845 0.0
C750 C 0.70244 0.54698 0.49352 0.0
C751 C 0.7089 0.52516 0.50718 0.0
C752 C 0.74076 0.53286 0.5118 0.0
C753 C 0.76622 0.56243 0.50286 0.0
H754 H 0.68923 0.50228 0.51417 0.0
H755 H 0.94066 0.79184 0.43841 0.0
H756 H 0.26728 0.34263 0.31441 0.0
H757 H 0.22899 0.34086 0.28028 0.0
H758 H 0.26036 0.44091 0.29615 0.0
H759 H 0.29817 0.44266 0.33082 0.0
H760 H 0.19696 0.40629 0.29731 0.0
H761 H 0.27925 0.41559 0.23551 0.0
H762 H 0.31766 0.40111 0.21567 0.0
H763 H 0.23955 0.30708 0.19494 0.0
H764 H 0.20068 0.32084 0.21499 0.0
H765 H 0.11737 0.43088 0.18389 0.0
H766 H 0.15613 0.43259 0.21751 0.0
H767 H 0.12149 0.33145 0.20408 0.0
H768 H 0.08287 0.32957 0.17018 0.0
H769 H 0.18633 0.36633 0.20154 0.0
H770 H 0.10415 0.35717 0.2633 0.0
H771 H 0.06576 0.3717 0.28309 0.0
H772 H 0.1439 0.46574 0.30376 0.0
H773 H 0.18275 0.45192 0.28375 0.0
C774 C 0.26641 0.36441 0.31034 0.0
C775 C 0.28571 0.39277 0.32539 0.0
C776 C 0.24453 0.36338 0.29075 0.0
C777 C 0.24188 0.3908 0.28555 0.0
C778 C 0.26191 0.41943 0.2999 0.0
C779 C 0.28361 0.42043 0.31962 0.0
C780 C 0.21696 0.38914 0.26637 0.0
C781 C 0.19497 0.39804 0.27623 0.0
C782 C 0.21375 0.37747 0.23911 0.0
C783 C 0.23708 0.36916 0.227 0.0
C784 C 0.27028 0.39174 0.22692 0.0
C785 C 0.29213 0.38367 0.21559 0.0
C786 C 0.28106 0.35317 0.20411 0.0
C787 C 0.24809 0.33069 0.20387 0.0
C788 C 0.22614 0.33862 0.21518 0.0
C789 C 0.11769 0.40889 0.18832 0.0
C790 C 0.09706 0.38011 0.17429 0.0
C791 C 0.13984 0.4099 0.2076 0.0
C792 C 0.14163 0.38212 0.21335 0.0
C793 C 0.12055 0.35318 0.19988 0.0
C794 C 0.09839 0.35213 0.18061 0.0
C795 C 0.16647 0.3836 0.23248 0.0
C796 C 0.18839 0.37463 0.22262 0.0
C797 C 0.16965 0.39524 0.25972 0.0
C798 C 0.14633 0.40361 0.27177 0.0
C799 C 0.11313 0.38104 0.27185 0.0
C800 C 0.09129 0.38913 0.28315 0.0
C801 C 0.10238 0.41965 0.29461 0.0
C802 C 0.13534 0.44212 0.29485 0.0
C803 C 0.15729 0.43416 0.28355 0.0
H804 H 0.08543 0.42586 0.30335 0.0
H805 H 0.29801 0.34697 0.19535 0.0
H806 H 0.66702 0.74465 0.17165 0.0
H807 H 0.66843 0.78174 0.20672 0.0
H808 H 0.56479 0.72638 0.21349 0.0
H809 H 0.5631 0.68957 0.17783 0.0
H810 H 0.58406 0.78812 0.2084 0.0
H811 H 0.61523 0.72614 0.26475 0.0
H812 H 0.64707 0.70073 0.278 0.0
H813 H 0.73306 0.79361 0.28043 0.0
H814 H 0.7018 0.81955 0.26683 0.0
H815 H 0.56904 0.86074 0.33087 0.0
H816 H 0.56853 0.82464 0.29522 0.0
H817 H 0.67134 0.88494 0.28523 0.0
H818 H 0.67215 0.92117 0.32113 0.0
H819 H 0.65319 0.82154 0.29176 0.0
H820 H 0.62102 0.88326 0.23602 0.0
H821 H 0.58841 0.90808 0.22351 0.0
H822 H 0.50323 0.81459 0.22085 0.0
H823 H 0.53526 0.78923 0.23372 0.0
C824 C 0.64454 0.74005 0.18087 0.0
C825 C 0.61492 0.7142 0.1719 0.0
C826 C 0.6454 0.76126 0.201 0.0
C827 C 0.61673 0.75675 0.21285 0.0
C828 C 0.58721 0.73036 0.20455 0.0
C829 C 0.58629 0.70927 0.18426 0.0
C830 C 0.6174 0.78058 0.23269 0.0
C831 C 0.5988 0.79505 0.22686 0.0
C832 C 0.63734 0.79031 0.25635 0.0
C833 C 0.65621 0.77476 0.26451 0.0
C834 C 0.64097 0.74112 0.26789 0.0
C835 C 0.65891 0.72663 0.27551 0.0
C836 C 0.69208 0.74553 0.27999 0.0
C837 C 0.70737 0.77899 0.27692 0.0
C838 C 0.68955 0.79361 0.26928 0.0
C839 C 0.59151 0.86661 0.32086 0.0
C840 C 0.62066 0.89377 0.32889 0.0
C841 C 0.59115 0.84598 0.30042 0.0
C842 C 0.61989 0.85219 0.28755 0.0
C843 C 0.64891 0.87975 0.29497 0.0
C844 C 0.6493 0.90048 0.31537 0.0
C845 C 0.61979 0.82891 0.26748 0.0
C846 C 0.63849 0.81458 0.27328 0.0
C847 C 0.59983 0.81918 0.24387 0.0
C848 C 0.58051 0.83437 0.23609 0.0
C849 C 0.59529 0.86801 0.233 0.0
C850 C 0.57692 0.88217 0.22579 0.0
C851 C 0.54376 0.86293 0.22146 0.0
C852 C 0.52891 0.82947 0.22425 0.0
C853 C 0.54717 0.81519 0.23146 0.0
H854 H 0.52958 0.87394 0.21588 0.0
H855 H 0.70592 0.73426 0.28589 0.0
H856 H 0.27445 0.8377 0.16226 0.0
H857 H 0.23187 0.80129 0.19353 0.0
H858 H 0.2173 0.87921 0.21936 0.0
H859 H 0.26028 0.91601 0.18838 0.0
H860 H 0.2139 0.84224 0.26234 0.0
H861 H 0.1677 0.82508 0.17224 0.0
H862 H 0.16344 0.8137 0.12244 0.0
H863 H 0.15441 0.72137 0.13845 0.0
H864 H 0.1591 0.73241 0.18836 0.0
H865 H 0.06038 0.74768 0.32135 0.0
H866 H 0.10093 0.78293 0.28809 0.0
H867 H 0.12305 0.70806 0.26976 0.0
H868 H 0.08254 0.6725 0.30316 0.0
H869 H 0.12184 0.74337 0.22279 0.0
H870 H 0.1688 0.76197 0.31352 0.0
H871 H 0.17143 0.77374 0.36317 0.0
H872 H 0.17748 0.86442 0.34541 0.0
H873 H 0.17437 0.85294 0.29562 0.0
C874 C 0.26247 0.84723 0.1748 0.0
C875 C 0.27056 0.8797 0.17267 0.0
C876 C 0.238 0.82632 0.19255 0.0
C877 C 0.22099 0.83741 0.20832 0.0
C878 C 0.23001 0.87014 0.20722 0.0
C879 C 0.25459 0.89113 0.18952 0.0
C880 C 0.19323 0.81464 0.22537 0.0
C881 C 0.1936 0.82086 0.25362 0.0
C882 C 0.16696 0.78647 0.21404 0.0
C883 C 0.16409 0.77972 0.18403 0.0
C884 C 0.16508 0.80246 0.16514 0.0
C885 C 0.16254 0.79605 0.13689 0.0
C886 C 0.15875 0.76686 0.12728 0.0
C887 C 0.15741 0.74399 0.14592 0.0
C888 C 0.15998 0.7503 0.17419 0.0
C889 C 0.07342 0.73843 0.30993 0.0
C890 C 0.06849 0.70738 0.31513 0.0
C891 C 0.09666 0.75868 0.29101 0.0
C892 C 0.11524 0.74821 0.27687 0.0
C893 C 0.10898 0.71656 0.28062 0.0
C894 C 0.08588 0.69632 0.29972 0.0
C895 C 0.14264 0.77103 0.25964 0.0
C896 C 0.14219 0.7648 0.23142 0.0
C897 C 0.16872 0.7993 0.27095 0.0
C898 C 0.17101 0.80644 0.30086 0.0
C899 C 0.17043 0.7843 0.32021 0.0
C900 C 0.17205 0.79094 0.34837 0.0
C901 C 0.17453 0.81977 0.35744 0.0
C902 C 0.17551 0.84207 0.33835 0.0
C903 C 0.17384 0.83552 0.31016 0.0
H904 H 0.17576 0.82485 0.37926 0.0
H905 H 0.15677 0.76194 0.10541 0.0
H906 H 0.93995 0.67944 0.81763 0.0
H907 H 0.89715 0.67337 0.78661 0.0
H908 H 0.84845 0.57021 0.79713 0.0
H909 H 0.89111 0.57598 0.82844 0.0
H910 H 0.84707 0.59163 0.74178 0.0
H911 H 0.82415 0.60742 0.83512 0.0
H912 H 0.83721 0.63539 0.87991 0.0
H913 H 0.85065 0.72154 0.84055 0.0
H914 H 0.83823 0.69423 0.79542 0.0
H915 H 0.69561 0.56034 0.69264 0.0
H916 H 0.73638 0.5616 0.72369 0.0
H917 H 0.78327 0.66538 0.72723 0.0
H918 H 0.74224 0.66431 0.69669 0.0
H919 H 0.78455 0.64141 0.77641 0.0
H920 H 0.80968 0.62762 0.68341 0.0
H921 H 0.7988 0.60145 0.63787 0.0
H922 H 0.78307 0.51362 0.67552 0.0
H923 H 0.79343 0.53915 0.72136 0.0
C924 C 0.92053 0.65538 0.81294 0.0
C925 C 0.91873 0.62819 0.82578 0.0
C926 C 0.89604 0.65199 0.79529 0.0
C927 C 0.86947 0.6214 0.79002 0.0
C928 C 0.86874 0.59402 0.80111 0.0
C929 C 0.89311 0.59739 0.819 0.0
C930 C 0.84137 0.61834 0.77474 0.0
C931 C 0.83308 0.60208 0.74947 0.0
C932 C 0.8236 0.63254 0.78468 0.0
C933 C 0.83057 0.64887 0.81185 0.0
C934 C 0.83014 0.6324 0.83598 0.0
C935 C 0.83739 0.64812 0.86143 0.0
C936 C 0.84483 0.68024 0.86306 0.0
C937 C 0.84493 0.69667 0.83925 0.0
C938 C 0.83776 0.68108 0.81373 0.0
C939 C 0.7143 0.58341 0.70036 0.0
C940 C 0.71588 0.61226 0.69195 0.0
C941 C 0.73769 0.58409 0.71798 0.0
C942 C 0.76326 0.61363 0.72726 0.0
C943 C 0.76385 0.64232 0.72017 0.0
C944 C 0.74037 0.64166 0.70269 0.0
C945 C 0.79024 0.61484 0.74323 0.0
C946 C 0.79837 0.63077 0.76871 0.0
C947 C 0.808 0.60053 0.73337 0.0
C948 C 0.80199 0.58519 0.70583 0.0
C949 C 0.80367 0.60265 0.68199 0.0
C950 C 0.79763 0.58795 0.65613 0.0
C951 C 0.79016 0.55587 0.65381 0.0
C952 C 0.78881 0.53845 0.67736 0.0
C953 C 0.79478 0.55303 0.70328 0.0
H954 H 0.78549 0.54452 0.63377 0.0
H955 H 0.85045 0.69238 0.88279 0.0
H956 H 0.32789 0.24952 0.81557 0.0
H957 H 0.33128 0.21496 0.7804 0.0
H958 H 0.43243 0.25479 0.79792 0.0
H959 H 0.42934 0.28952 0.8333 0.0
H960 H 0.41662 0.24419 0.74094 0.0
H961 H 0.38372 0.1877 0.82722 0.0
H962 H 0.35029 0.16753 0.86903 0.0
H963 H 0.26594 0.11243 0.81932 0.0
H964 H 0.29882 0.1327 0.77717 0.0
H965 H 0.43118 0.11952 0.67695 0.0
H966 H 0.43272 0.15647 0.71239 0.0
H967 H 0.32953 0.11426 0.70641 0.0
H968 H 0.32766 0.07685 0.67139 0.0
H969 H 0.34879 0.12678 0.75878 0.0
H970 H 0.38039 0.1841 0.6727 0.0
H971 H 0.41283 0.20485 0.63041 0.0
H972 H 0.49847 0.25862 0.67896 0.0
H973 H 0.46657 0.23781 0.72156 0.0
C974 C 0.35102 0.25142 0.81165 0.0
C975 C 0.37828 0.27198 0.82747 0.0
C976 C 0.35286 0.23156 0.79161 0.0
C977 C 0.38196 0.23201 0.78698 0.0
C978 C 0.40972 0.25403 0.80136 0.0
C979 C 0.40788 0.2738 0.82157 0.0
C980 C 0.38277 0.20791 0.76854 0.0
C981 C 0.40217 0.21853 0.74497 0.0
C982 C 0.36347 0.17447 0.77372 0.0
C983 C 0.34369 0.16197 0.79903 0.0
C984 C 0.358 0.17148 0.82519 0.0
C985 C 0.33916 0.16001 0.84896 0.0
C986 C 0.306 0.13877 0.84683 0.0
C987 C 0.29163 0.12891 0.82093 0.0
C988 C 0.31036 0.14037 0.7971 0.0
C989 C 0.40876 0.1178 0.68342 0.0
C990 C 0.37933 0.09546 0.67116 0.0
C991 C 0.40971 0.13906 0.70357 0.0
C992 C 0.38132 0.13852 0.71161 0.0
C993 C 0.35174 0.11519 0.70039 0.0
C994 C 0.35074 0.09384 0.68035 0.0
C995 C 0.38243 0.16297 0.73091 0.0
C996 C 0.36339 0.15242 0.75473 0.0
C997 C 0.40196 0.19647 0.72587 0.0
C998 C 0.42115 0.20913 0.7003 0.0
C999 C 0.40618 0.20015 0.67435 0.0
C1000 C 0.42446 0.21195 0.65033 0.0
C1001 C 0.4577 0.23297 0.652 0.0
C1002 C 0.47272 0.2423 0.6777 0.0
C1003 C 0.45455 0.23052 0.70179 0.0
H1004 H 0.47181 0.24208 0.63338 0.0
H1005 H 0.29146 0.12991 0.86525 0.0
H1006 H 0.74695 0.08471 0.81857 0.0
H1007 H 0.78609 0.12407 0.78648 0.0
H1008 H 0.73369 0.17557 0.78587 0.0
H1009 H 0.69439 0.13637 0.81816 0.0
H1010 H 0.75648 0.16936 0.7331 0.0
H1011 H 0.79552 0.20263 0.82582 0.0
H1012 H 0.81037 0.19451 0.87254 0.0
H1013 H 0.88157 0.17492 0.83871 0.0
H1014 H 0.86677 0.18243 0.79174 0.0
H1015 H 0.87631 0.31448 0.67552 0.0
H1016 H 0.83715 0.27698 0.70861 0.0
H1017 H 0.89458 0.23146 0.71951 0.0
H1018 H 0.93423 0.2693 0.68684 0.0
H1019 H 0.86883 0.23456 0.76734 0.0
H1020 H 0.83085 0.19951 0.67569 0.0
H1021 H 0.81614 0.20482 0.6281 0.0
H1022 H 0.74351 0.2244 0.65841 0.0
H1023 H 0.75811 0.21965 0.70623 0.0
C1024 C 0.74341 0.1041 0.81132 0.0
C1025 C 0.7177 0.1076 0.82111 0.0
C1026 C 0.76588 0.12663 0.79307 0.0
C1027 C 0.76296 0.1529 0.7842 0.0
C1028 C 0.73637 0.15548 0.79264 0.0
C1029 C 0.71399 0.1331 0.8111 0.0
C1030 C 0.78857 0.17857 0.76727 0.0
C1031 C 0.78095 0.18395 0.74067 0.0
C1032 C 0.82063 0.19692 0.777 0.0
C1033 C 0.82982 0.19279 0.80525 0.0
C1034 C 0.81417 0.19634 0.82833 0.0
C1035 C 0.82261 0.19189 0.85486 0.0
C1036 C 0.84685 0.18413 0.85859 0.0
C1037 C 0.86277 0.1809 0.83579 0.0
C1038 C 0.85439 0.18527 0.80921 0.0
C1039 C 0.88091 0.29685 0.68529 0.0
C1040 C 0.90819 0.29462 0.67831 0.0
C1041 C 0.85841 0.27532 0.70409 0.0
C1042 C 0.86258 0.25096 0.716 0.0
C1043 C 0.89079 0.24995 0.7104 0.0
C1044 C 0.91344 0.27162 0.69172 0.0
C1045 C 0.83678 0.22553 0.73311 0.0
C1046 C 0.84436 0.22011 0.75975 0.0
C1047 C 0.80476 0.20683 0.72326 0.0
C1048 C 0.7958 0.20956 0.69454 0.0
C1049 C 0.81191 0.2052 0.67221 0.0
C1050 C 0.80357 0.20807 0.6452 0.0
C1051 C 0.77897 0.21504 0.64024 0.0
C1052 C 0.7626 0.21906 0.66229 0.0
C1053 C 0.77088 0.21626 0.68935 0.0
H1054 H 0.77254 0.21725 0.61931 0.0
H1055 H 0.85333 0.18068 0.87915 0.0
H1056 H 0.00954 0.42632 0.08618 0.0
H1057 H 0.99845 0.46232 0.05874 0.0
H1058 H 0.09447 0.50711 0.02497 0.0
H1059 H 0.10599 0.47126 0.05259 0.0
H1060 H 0.07262 0.55096 0.0356 0.0
H1061 H 0.03655 0.44974 0.98947 0.0
H1062 H 0.00755 0.39035 0.98717 0.0
H1063 H 0.91803 0.38758 0.00287 0.0
H1064 H 0.9466 0.44697 0.00576 0.0
H1065 H 0.03508 0.6194 0.92134 0.0
H1066 H 0.05337 0.58863 0.94866 0.0
H1067 H 0.95741 0.53055 0.98139 0.0
H1068 H 0.93884 0.56068 0.95386 0.0
H1069 H 0.98251 0.49384 0.96931 0.0
H1070 H 0.01715 0.59282 0.01909 0.0
H1071 H 0.0451 0.65167 0.02603 0.0
H1072 H 0.13549 0.65851 0.00563 0.0
H1073 H 0.108 0.59961 0.99848 0.0
C1074 C 0.02856 0.4442 0.07333 0.0
C1075 C 0.05852 0.44564 0.07128 0.0
C1076 C 0.02212 0.46469 0.05761 0.0
C1077 C 0.04544 0.48686 0.03946 0.0
C1078 C 0.07613 0.48998 0.03877 0.0
C1079 C 0.08263 0.46947 0.05455 0.0
C1080 C 0.03677 0.50482 0.01972 0.0
C1081 C 0.05328 0.53858 0.02078 0.0
C1082 C 0.01117 0.48849 0.00075 0.0
C1083 C 0.99376 0.45281 0.99803 0.0
C1084 C 0.0107 0.43647 0.99255 0.0
C1085 C 0.99434 0.4028 0.99115 0.0
C1086 C 0.96098 0.3852 0.99493 0.0
C1087 C 0.94388 0.40125 -3e-05 0.0
C1088 C 0.96014 0.43492 0.00146 0.0
C1089 C 0.0178 0.59986 0.93415 0.0
C1090 C 0.98552 0.59257 0.93552 0.0
C1091 C 0.02835 0.58245 0.94988 0.0
C1092 C 0.00686 0.55761 0.96738 0.0
C1093 C 0.97443 0.54966 0.96808 0.0
C1094 C 0.96387 0.56696 0.95234 0.0
C1095 C 0.01805 0.54014 0.98538 0.0
C1096 C 0.00205 0.50635 0.98393 0.0
C1097 C 0.04397 0.55646 0.0041 0.0
C1098 C 0.06048 0.59189 0.00796 0.0
C1099 C 0.04295 0.60692 0.01584 0.0
C1100 C 0.05872 0.64027 0.01987 0.0
C1101 C 0.09205 0.65885 0.01617 0.0
C1102 C 0.10967 0.64409 0.00845 0.0
C1103 C 0.09402 0.61072 0.00446 0.0
H1104 H 0.10425 0.68465 0.01942 0.0
H1105 H 0.94836 0.35913 0.99392 0.0
H1106 H 0.57477 0.57611 0.08565 0.0
H1107 H 0.54037 0.52643 0.06033 0.0
H1108 H 0.48874 0.56985 0.02457 0.0
H1109 H 0.52326 0.6198 0.04954 0.0
H1110 H 0.47558 0.48334 0.05606 0.0
H1111 H 0.47667 0.54925 0.95648 0.0
H1112 H 0.5098 0.6022 0.93422 0.0
H1113 H 0.59396 0.61374 0.97601 0.0
H1114 H 0.56143 0.56069 0.99818 0.0
H1115 H 0.39026 0.3987 0.92013 0.0
H1116 H 0.41796 0.44781 0.94787 0.0
H1117 H 0.47363 0.41107 0.98749 0.0
H1118 H 0.44594 0.36184 0.96011 0.0
H1119 H 0.48154 0.49432 0.95426 0.0
H1120 H 0.47995 0.42953 0.05532 0.0
H1121 H 0.44719 0.37619 0.07703 0.0
H1122 H 0.364 0.36192 0.03183 0.0
H1123 H 0.39611 0.41531 0.01015 0.0
C1124 C 0.55575 0.57495 0.07276 0.0
C1125 C 0.55204 0.60207 0.06929 0.0
C1126 C 0.53607 0.5465 0.05836 0.0
C1127 C 0.51244 0.54471 0.04022 0.0
C1128 C 0.50723 0.57097 0.03814 0.0
C1129 C 0.52692 0.59946 0.0525 0.0
C1130 C 0.49505 0.51637 0.02197 0.0
C1131 C 0.47705 0.48568 0.03381 0.0
C1132 C 0.49655 0.51957 0.99294 0.0
C1133 C 0.51652 0.55117 0.97921 0.0
C1134 C 0.50227 0.56304 0.96081 0.0
C1135 C 0.52094 0.59307 0.94823 0.0
C1136 C 0.55394 0.61138 0.95378 0.0
C1137 C 0.56838 0.5996 0.97181 0.0
C1138 C 0.54983 0.56956 0.9844 0.0
C1139 C 0.40865 0.40121 0.93453 0.0
C1140 C 0.41573 0.37626 0.93808 0.0
C1141 C 0.42443 0.42929 0.95034 0.0
C1142 C 0.44739 0.43277 0.97003 0.0
C1143 C 0.45554 0.40855 0.97274 0.0
C1144 C 0.4398 0.38051 0.95696 0.0
C1145 C 0.46224 0.46128 0.98834 0.0
C1146 C 0.47982 0.49199 0.9765 0.0
C1147 C 0.46033 0.45808 0.01736 0.0
C1148 C 0.44055 0.42632 0.03093 0.0
C1149 C 0.45462 0.41509 0.05014 0.0
C1150 C 0.43618 0.38483 0.06242 0.0
C1151 C 0.40357 0.36564 0.05575 0.0
C1152 C 0.38928 0.37676 0.03691 0.0
C1153 C 0.40761 0.407 0.0246 0.0
H1154 H 0.38936 0.3422 0.06521 0.0
H1155 H 0.56833 0.63465 0.94407 0.0
H1156 H 0.42133 0.98328 0.09323 0.0
H1157 H 0.4659 0.00119 0.06084 0.0
H1158 H 0.41412 0.91136 0.0167 0.0
H1159 H 0.36903 0.89317 0.04889 0.0
H1160 H 0.48401 0.93787 0.02193 0.0
H1161 H 0.40589 0.96687 0.99223 0.0
H1162 H 0.37013 0.98948 0.99922 0.0
H1163 H 0.45202 0.08194 0.01778 0.0
H1164 H 0.48828 0.05976 0.01125 0.0
H1165 H 0.57707 0.99502 0.90198 0.0
H1166 H 0.52814 0.97186 0.92988 0.0
H1167 H 0.56527 0.0614 0.97439 0.0
H1168 H 0.61408 0.08497 0.94635 0.0
H1169 H 0.4999 0.03217 0.96689 0.0
H1170 H 0.57759 0.00347 0.99896 0.0
H1171 H 0.61418 0.98165 0.99315 0.0
H1172 H 0.53392 0.8893 0.97149 0.0
H1173 H 0.49689 0.91075 0.97676 0.0
C1174 C 0.41962 0.96694 0.07705 0.0
C1175 C 0.39138 0.93699 0.07336 0.0
C1176 C 0.44511 0.97728 0.05854 0.0
C1177 C 0.44291 0.95778 0.0362 0.0
C1178 C 0.41606 0.92676 0.03379 0.0
C1179 C 0.39036 0.91645 0.0522 0.0
C1180 C 0.46716 0.97117 0.01402 0.0
C1181 C 0.48722 0.95814 0.00957 0.0
C1182 C 0.47144 0.9979 0.99827 0.0
C1183 C 0.44979 0.01157 0.00147 0.0
C1184 C 0.41627 0.99198 0.99795 0.0
C1185 C 0.39591 0.00472 0.00181 0.0
C1186 C 0.4088 0.0371 0.00899 0.0
C1187 C 0.44209 0.05685 0.01221 0.0
C1188 C 0.46257 0.04422 0.00839 0.0
C1189 C 0.57455 0.01006 0.91728 0.0
C1190 C 0.5997 0.04168 0.92227 0.0
C1191 C 0.54661 0.99673 0.93325 0.0
C1192 C 0.54347 0.01472 0.95457 0.0
C1193 C 0.56735 0.04708 0.95813 0.0
C1194 C 0.59527 0.06048 0.94211 0.0
C1195 C 0.517 0.99902 0.97482 0.0
C1196 C 0.49653 0.01168 0.979 0.0
C1197 C 0.51243 0.97201 0.9904 0.0
C1198 C 0.53451 0.9588 0.98798 0.0
C1199 C 0.56777 0.97855 0.99282 0.0
C1200 C 0.58859 0.96626 0.98963 0.0
C1201 C 0.5764 0.93413 0.98187 0.0
C1202 C 0.54334 0.91419 0.97745 0.0
C1203 C 0.52241 0.9264 0.98055 0.0
H1204 H 0.59257 0.92468 0.97934 0.0
H1205 H 0.39302 0.04691 0.01206 0.0
H1206 H 0.58478 0.99795 0.40821 0.0
H1207 H 0.55524 0.01853 0.43417 0.0
H1208 H 0.50861 0.93051 0.48143 0.0
H1209 H 0.53754 0.90948 0.45529 0.0
H1210 H 0.46777 0.95222 0.47041 0.0
H1211 H 0.57557 0.99593 0.50575 0.0
H1212 H 0.63483 0.02441 0.50216 0.0
H1213 H 0.63534 0.10993 0.47486 0.0
H1214 H 0.57597 0.08177 0.47792 0.0
H1215 H 0.41975 0.00316 0.58654 0.0
H1216 H 0.45042 0.98539 0.55883 0.0
H1217 H 0.4924 0.07452 0.51313 0.0
H1218 H 0.46219 0.09279 0.54109 0.0
H1219 H 0.53563 0.05375 0.52193 0.0
H1220 H 0.42657 0.00923 0.48919 0.0
H1221 H 0.36732 0.97943 0.49339 0.0
H1222 H 0.36935 0.89401 0.51675 0.0
H1223 H 0.42866 0.92347 0.51324 0.0
C1224 C 0.56777 0.98269 0.42375 0.0
C1225 C 0.56382 0.95224 0.42995 0.0
C1226 C 0.55106 0.99458 0.43866 0.0
C1227 C 0.53035 0.97633 0.46013 0.0
C1228 C 0.52468 0.94506 0.46507 0.0
C1229 C 0.54127 0.9331 0.45011 0.0
C1230 C 0.51614 0.99044 0.47859 0.0
C1231 C 0.4826 0.97425 0.48186 0.0
C1232 C 0.53557 0.01947 0.49319 0.0
C1233 C 0.5713 0.03664 0.49179 0.0
C1234 C 0.5883 0.02075 0.49881 0.0
C1235 C 0.62191 0.03684 0.49688 0.0
C1236 C 0.63885 0.06894 0.4882 0.0
C1237 C 0.62219 0.08505 0.48154 0.0
C1238 C 0.58856 0.06904 0.48339 0.0
C1239 C 0.43598 0.01928 0.57097 0.0
C1240 C 0.43821 0.04919 0.56573 0.0
C1241 C 0.45338 0.00902 0.55508 0.0
C1242 C 0.47301 0.02833 0.53352 0.0
C1243 C 0.47715 0.05918 0.52956 0.0
C1244 C 0.45988 0.06957 0.54557 0.0
C1245 C 0.48726 0.01536 0.5139 0.0
C1246 C 0.5208 0.03179 0.51039 0.0
C1247 C 0.46784 0.98642 0.4992 0.0
C1248 C 0.43211 0.96865 0.50116 0.0
C1249 C 0.41441 0.98417 0.49543 0.0
C1250 C 0.38081 0.96733 0.49768 0.0
C1251 C 0.3646 0.93486 0.50534 0.0
C1252 C 0.38195 0.91917 0.51082 0.0
C1253 C 0.41555 0.93592 0.50871 0.0
H1254 H 0.33859 0.92178 0.50692 0.0
H1255 H 0.66487 0.08135 0.48669 0.0
H1256 H 0.00996 0.42682 0.58745 0.0
H1257 H 0.02665 0.47419 0.55839 0.0
H1258 H 0.9346 0.4263 0.51704 0.0
H1259 H 0.9178 0.37867 0.54579 0.0
H1260 H 0.98408 0.45104 0.48091 0.0
H1261 H 0.95351 0.48819 0.56113 0.0
H1262 H 0.95393 0.50083 0.61038 0.0
H1263 H 0.0555 0.56841 0.6062 0.0
H1264 H 0.05576 0.55584 0.55698 0.0
H1265 H 0.98871 0.58211 0.40939 0.0
H1266 H 0.97749 0.53574 0.43786 0.0
H1267 H 0.07102 0.59023 0.47603 0.0
H1268 H 0.08233 0.63705 0.44784 0.0
H1269 H 0.02419 0.56277 0.51381 0.0
H1270 H 0.05451 0.52765 0.43314 0.0
H1271 H 0.05428 0.51517 0.38388 0.0
H1272 H 0.95382 0.44391 0.38877 0.0
H1273 H 0.95332 0.45627 0.43799 0.0
C1274 C 0.99303 0.42654 0.5725 0.0
C1275 C 0.96257 0.39892 0.56886 0.0
C1276 C 0.00263 0.45366 0.55591 0.0
C1277 C 0.98186 0.45373 0.53556 0.0
C1278 C 0.95103 0.42665 0.53256 0.0
C1279 C 0.94142 0.39952 0.54912 0.0
C1280 C 0.99286 0.48131 0.5164 0.0
C1281 C 0.99247 0.47543 0.48806 0.0
C1282 C 0.00483 0.51322 0.52584 0.0
C1283 C 0.00471 0.52081 0.55544 0.0
C1284 C 0.97599 0.50554 0.57077 0.0
C1285 C 0.97609 0.51273 0.59867 0.0
C1286 C 0.00474 0.53534 0.61143 0.0
C1287 C 0.03333 0.55086 0.5963 0.0
C1288 C 0.03336 0.54373 0.56839 0.0
C1289 C 0.00718 0.58411 0.42346 0.0
C1290 C 0.03636 0.61334 0.42644 0.0
C1291 C 0.00074 0.55751 0.43968 0.0
C1292 C 0.02346 0.55952 0.45902 0.0
C1293 C 0.05316 0.58823 0.46125 0.0
C1294 C 0.05963 0.61489 0.44502 0.0
C1295 C 0.01508 0.53246 0.47826 0.0
C1296 C 0.016 0.53842 0.50664 0.0
C1297 C 0.00363 0.50061 0.46885 0.0
C1298 C 0.00383 0.4931 0.43923 0.0
C1299 C 0.0323 0.50951 0.42367 0.0
C1300 C 0.03232 0.50241 0.39576 0.0
C1301 C 0.00404 0.47882 0.38319 0.0
C1302 C 0.9757 0.46221 0.39853 0.0
C1303 C 0.97555 0.46922 0.42644 0.0
H1304 H 0.00411 0.47336 0.36158 0.0
H1305 H 0.00477 0.54088 0.63303 0.0
H1306 H 0.42594 0.42997 0.4126 0.0
H1307 H 0.47154 0.45758 0.44405 0.0
H1308 H 0.42066 0.49605 0.48888 0.0
H1309 H 0.37494 0.46873 0.45739 0.0
H1310 H 0.48656 0.53954 0.48497 0.0
H1311 H 0.41567 0.42896 0.51071 0.0
H1312 H 0.38452 0.3703 0.50263 0.0
H1313 H 0.47181 0.3697 0.48409 0.0
H1314 H 0.50345 0.42851 0.4916 0.0
H1315 H 0.57392 0.57516 0.60836 0.0
H1316 H 0.52762 0.54824 0.57749 0.0
H1317 H 0.57522 0.50609 0.53285 0.0
H1318 H 0.62144 0.5325 0.56384 0.0
H1319 H 0.51048 0.46464 0.53698 0.0
H1320 H 0.58146 0.57517 0.51099 0.0
H1321 H 0.61284 0.6337 0.5197 0.0
H1322 H 0.52578 0.63452 0.53874 0.0
H1323 H 0.4939 0.57583 0.53062 0.0
C1324 C 0.42467 0.44487 0.42876 0.0
C1325 C 0.3966 0.44676 0.43276 0.0
C1326 C 0.45073 0.46053 0.44676 0.0
C1327 C 0.44912 0.47825 0.46908 0.0
C1328 C 0.42223 0.48229 0.47185 0.0
C1329 C 0.39612 0.46661 0.45386 0.0
C1330 C 0.4741 0.49007 0.49082 0.0
C1331 C 0.49159 0.52318 0.49656 0.0
C1332 C 0.48083 0.46864 0.50564 0.0
C1333 C 0.4619 0.4332 0.50147 0.0
C1334 C 0.42821 0.41637 0.50472 0.0
C1335 C 0.41046 0.38309 0.50025 0.0
C1336 C 0.42618 0.36629 0.49282 0.0
C1337 C 0.45967 0.38275 0.48984 0.0
C1338 C 0.47753 0.41606 0.4942 0.0
C1339 C 0.57428 0.5596 0.59236 0.0
C1340 C 0.60156 0.55634 0.5883 0.0
C1341 C 0.54786 0.54437 0.57467 0.0
C1342 C 0.54839 0.52584 0.55253 0.0
C1343 C 0.57448 0.52051 0.54971 0.0
C1344 C 0.60088 0.53565 0.56746 0.0
C1345 C 0.52304 0.51413 0.5311 0.0
C1346 C 0.50546 0.48102 0.52541 0.0
C1347 C 0.51628 0.53557 0.5163 0.0
C1348 C 0.53531 0.57103 0.52044 0.0
C1349 C 0.56901 0.58779 0.51718 0.0
C1350 C 0.5869 0.621 0.52201 0.0
C1351 C 0.57132 0.63781 0.52983 0.0
C1352 C 0.53781 0.62145 0.53272 0.0
C1353 C 0.51982 0.58822 0.52799 0.0
H1354 H 0.58521 0.66351 0.53361 0.0
H1355 H 0.41241 0.34051 0.48947 0.0
loop_
_geom_bond_atom_site_label_1
_geom_bond_atom_site_label_2
_geom_bond_distance
_geom_bond_site_symmetry_2
_ccdc_geom_bond_type
C0 O1 1.160 . S
C0 O7 1.185 . S
O1 C0 1.160 . S
O2 Zn3 1.899 . S
O2 C10 1.284 . S
Zn3 O2 1.899 . S
Zn3 O4 2.032 . S
Zn3 O7 2.086 . S
Zn3 O12 1.977 . S
O4 Zn3 2.032 . S
O4 C8 1.278 . S
C5 O6 1.203 . S
C5 O12 1.267 1_655 S
O6 C5 1.203 . S
O7 C0 1.185 . S
O7 Zn3 2.086 . S
C8 O4 1.278 . S
C8 O9 1.211 . S
O9 C8 1.211 . S
C10 O2 1.284 . S
C10 O11 1.273 . S
O11 C10 1.273 . S
O12 Zn3 1.977 . S
O12 C5 1.267 1_455 S
C13 O14 1.160 . S
C13 O20 1.185 . S
O14 C13 1.160 . S
O15 Zn16 1.899 . S
O15 C23 1.284 . S
Zn16 O15 1.899 . S
Zn16 O17 2.032 . S
Zn16 O20 2.086 . S
Zn16 O25 1.977 . S
O17 Zn16 2.032 . S
O17 C21 1.278 . S
C18 O19 1.203 . S
C18 O25 1.267 . S
O19 C18 1.203 . S
O20 C13 1.185 . S
O20 Zn16 2.086 . S
C21 O17 1.278 . S
C21 O22 1.211 . S
O22 C21 1.211 . S
C23 O15 1.284 . S
C23 O24 1.273 . S
O24 C23 1.273 . S
O25 Zn16 1.977 . S
O25 C18 1.267 . S
C26 O27 1.160 . S
C26 O33 1.185 . S
O27 C26 1.160 . S
O28 Zn29 1.899 . S
O28 C36 1.284 . S
Zn29 O28 1.899 . S
Zn29 O30 2.032 . S
Zn29 O33 2.086 . S
Zn29 O38 1.977 . S
O30 Zn29 2.032 . S
O30 C34 1.278 . S
C31 O32 1.203 . S
C31 O38 1.267 1_545 S
O32 C31 1.203 . S
O33 C26 1.185 . S
O33 Zn29 2.086 . S
C34 O30 1.278 . S
C34 O35 1.211 . S
O35 C34 1.211 . S
C36 O28 1.284 . S
C36 O37 1.273 . S
O37 C36 1.273 . S
O38 Zn29 1.977 . S
O38 C31 1.267 1_565 S
C39 O40 1.160 . S
C39 O46 1.185 . S
O40 C39 1.160 . S
O41 Zn42 1.899 . S
O41 C49 1.284 . S
Zn42 O41 1.899 . S
Zn42 O43 2.032 . S
Zn42 O46 2.086 . S
Zn42 O51 1.977 . S
O43 Zn42 2.032 . S
O43 C47 1.278 . S
C44 O45 1.203 . S
C44 O51 1.267 1_545 S
O45 C44 1.203 . S
O46 C39 1.185 . S
O46 Zn42 2.086 . S
C47 O43 1.278 . S
C47 O48 1.211 . S
O48 C47 1.211 . S
C49 O41 1.284 . S
C49 O50 1.273 . S
O50 C49 1.273 . S
O51 Zn42 1.977 . S
O51 C44 1.267 1_565 S
C52 O53 1.160 . S
C52 O59 1.185 . S
O53 C52 1.160 . S
O54 Zn55 1.899 . S
O54 C62 1.284 . S
Zn55 O54 1.899 . S
Zn55 O56 2.032 . S
Zn55 O59 2.086 . S
Zn55 O64 1.977 . S
O56 Zn55 2.032 . S
O56 C60 1.278 . S
C57 O58 1.203 . S
C57 O64 1.267 1_655 S
O58 C57 1.203 . S
O59 C52 1.185 . S
O59 Zn55 2.086 . S
C60 O56 1.278 . S
C60 O61 1.211 . S
O61 C60 1.211 . S
C62 O54 1.284 . S
C62 O63 1.273 . S
O63 C62 1.273 . S
O64 Zn55 1.977 . S
O64 C57 1.267 1_455 S
C65 O66 1.160 . S
C65 O72 1.185 . S
O66 C65 1.160 . S
O67 Zn68 1.899 . S
O67 C75 1.284 . S
Zn68 O67 1.899 . S
Zn68 O69 2.032 . S
Zn68 O72 2.086 . S
Zn68 O77 1.977 . S
O69 Zn68 2.032 . S
O69 C73 1.278 . S
C70 O71 1.203 . S
C70 O77 1.267 . S
O71 C70 1.203 . S
O72 C65 1.185 . S
O72 Zn68 2.086 . S
C73 O69 1.278 . S
C73 O74 1.211 . S
O74 C73 1.211 . S
C75 O67 1.284 . S
C75 O76 1.273 . S
O76 C75 1.273 . S
O77 Zn68 1.977 . S
O77 C70 1.267 . S
C78 O79 1.160 . S
C78 O85 1.185 . S
O79 C78 1.160 . S
O80 Zn81 1.899 . S
O80 C88 1.284 . S
Zn81 O80 1.899 . S
Zn81 O82 2.032 . S
Zn81 O85 2.086 . S
Zn81 O90 1.977 . S
O82 Zn81 2.032 . S
O82 C86 1.278 . S
C83 O84 1.203 . S
C83 O90 1.267 1_455 S
O84 C83 1.203 . S
O85 C78 1.185 . S
O85 Zn81 2.086 . S
C86 O82 1.278 . S
C86 O87 1.211 . S
O87 C86 1.211 . S
C88 O80 1.284 . S
C88 O89 1.273 . S
O89 C88 1.273 . S
O90 Zn81 1.977 . S
O90 C83 1.267 1_655 S
C91 O92 1.160 . S
C91 O98 1.185 . S
O92 C91 1.160 . S
O93 Zn94 1.899 . S
O93 C101 1.284 . S
Zn94 O93 1.899 . S
Zn94 O95 2.032 . S
Zn94 O98 2.086 . S
Zn94 O103 1.977 . S
O95 Zn94 2.032 . S
O95 C99 1.278 . S
C96 O97 1.203 . S
C96 O103 1.267 . S
O97 C96 1.203 . S
O98 C91 1.185 . S
O98 Zn94 2.086 . S
C99 O95 1.278 . S
C99 O100 1.211 . S
O100 C99 1.211 . S
C101 O93 1.284 . S
C101 O102 1.273 . S
O102 C101 1.273 . S
O103 Zn94 1.977 . S
O103 C96 1.267 . S
C104 O105 1.160 . S
C104 O111 1.185 . S
O105 C104 1.160 . S
O106 Zn107 1.899 . S
O106 C114 1.284 . S
Zn107 O106 1.899 . S
Zn107 O108 2.032 . S
Zn107 O111 2.086 . S
Zn107 O116 1.977 . S
O108 Zn107 2.032 . S
O108 C112 1.278 . S
C109 O110 1.203 . S
C109 O116 1.267 1_565 S
O110 C109 1.203 . S
O111 C104 1.185 . S
O111 Zn107 2.086 . S
C112 O108 1.278 . S
C112 O113 1.211 . S
O113 C112 1.211 . S
C114 O106 1.284 . S
C114 O115 1.273 . S
O115 C114 1.273 . S
O116 Zn107 1.977 . S
O116 C109 1.267 1_545 S
C117 O118 1.160 . S
C117 O124 1.185 . S
O118 C117 1.160 . S
O119 Zn120 1.899 . S
O119 C127 1.284 . S
Zn120 O119 1.899 . S
Zn120 O121 2.032 . S
Zn120 O124 2.086 . S
Zn120 O129 1.977 . S
O121 Zn120 2.032 . S
O121 C125 1.278 . S
C122 O123 1.203 . S
C122 O129 1.267 1_565 S
O123 C122 1.203 . S
O124 C117 1.185 . S
O124 Zn120 2.086 . S
C125 O121 1.278 . S
C125 O126 1.211 . S
O126 C125 1.211 . S
C127 O119 1.284 . S
C127 O128 1.273 . S
O128 C127 1.273 . S
O129 Zn120 1.977 . S
O129 C122 1.267 1_545 S
C130 O131 1.160 . S
C130 O137 1.185 . S
O131 C130 1.160 . S
O132 Zn133 1.899 . S
O132 C140 1.284 . S
Zn133 O132 1.899 . S
Zn133 O134 2.032 . S
Zn133 O137 2.086 . S
Zn133 O142 1.977 . S
O134 Zn133 2.032 . S
O134 C138 1.278 . S
C135 O136 1.203 . S
C135 O142 1.267 1_455 S
O136 C135 1.203 . S
O137 C130 1.185 . S
O137 Zn133 2.086 . S
C138 O134 1.278 . S
C138 O139 1.211 . S
O139 C138 1.211 . S
C140 O132 1.284 . S
C140 O141 1.273 . S
O141 C140 1.273 . S
O142 Zn133 1.977 . S
O142 C135 1.267 1_655 S
C143 O144 1.160 . S
C143 O150 1.185 . S
O144 C143 1.160 . S
O145 Zn146 1.899 . S
O145 C153 1.284 . S
Zn146 O145 1.899 . S
Zn146 O147 2.032 . S
Zn146 O150 2.086 . S
Zn146 O155 1.977 . S
O147 Zn146 2.032 . S
O147 C151 1.278 . S
C148 O149 1.203 . S
C148 O155 1.267 . S
O149 C148 1.203 . S
O150 C143 1.185 . S
O150 Zn146 2.086 . S
C151 O147 1.278 . S
C151 O152 1.211 . S
O152 C151 1.211 . S
C153 O145 1.284 . S
C153 O154 1.273 . S
O154 C153 1.273 . S
O155 Zn146 1.977 . S
O155 C148 1.267 . S
H156 C174 0.951 . S
H157 C176 0.951 1_556 S
H158 C178 0.950 . S
H159 C179 0.950 . S
H160 C181 0.950 . S
H161 C184 0.950 . S
H162 C185 0.950 . S
H163 C187 0.950 . S
H164 C188 0.950 . S
H165 C189 0.951 . S
H166 C191 0.951 . S
H167 C193 0.950 . S
H168 C194 0.950 . S
H169 C196 0.950 . S
H170 C199 0.950 . S
H171 C200 0.950 . S
H172 C202 0.950 . S
H173 C203 0.950 . S
C174 H156 0.951 . S
C174 C175 1.366 . S
C174 C176 1.388 . S
C175 C174 1.366 . S
C175 C179 1.385 . S
C176 H157 0.951 1_554 S
C176 C174 1.388 . S
C176 C177 1.366 . S
C177 C176 1.366 . S
C177 C178 1.414 . S
C177 C180 1.499 . S
C178 H158 0.950 . S
C178 C177 1.414 . S
C178 C179 1.374 . S
C179 H159 0.950 . S
C179 C175 1.385 . S
C179 C178 1.374 . S
C180 C177 1.499 . S
C180 C181 1.373 . S
C180 C182 1.389 1_554 S
C181 H160 0.950 . S
C181 C180 1.373 . S
C181 C197 1.377 . S
C182 C180 1.389 1_556 S
C182 C183 1.524 . S
C182 C196 1.377 . S
C183 C182 1.524 . S
C183 C184 1.397 . S
C183 C188 1.363 . S
C184 H161 0.950 . S
C184 C183 1.397 . S
C184 C185 1.334 . S
C185 H162 0.950 . S
C185 C184 1.334 . S
C185 C186 1.287 . S
C186 C185 1.287 . S
C186 C187 1.524 . S
C186 H205 0.913 . S
C187 H163 0.950 . S
C187 C186 1.524 . S
C187 C188 1.415 . S
C188 H164 0.950 . S
C188 C183 1.363 . S
C188 C187 1.415 . S
C189 H165 0.951 . S
C189 C190 1.366 . S
C189 C191 1.388 . S
C190 C189 1.366 . S
C190 C194 1.385 . S
C191 H166 0.951 . S
C191 C189 1.388 . S
C191 C192 1.366 . S
C192 C191 1.366 . S
C192 C193 1.414 . S
C192 C195 1.499 . S
C193 H167 0.950 . S
C193 C192 1.414 . S
C193 C194 1.374 . S
C194 H168 0.950 . S
C194 C190 1.385 . S
C194 C193 1.374 . S
C195 C192 1.499 . S
C195 C196 1.373 . S
C195 C197 1.389 1_556 S
C196 H169 0.950 . S
C196 C182 1.377 . S
C196 C195 1.373 . S
C197 C181 1.377 . S
C197 C195 1.389 1_554 S
C197 C198 1.524 . S
C198 C197 1.524 . S
C198 C199 1.397 . S
C198 C203 1.363 . S
C199 H170 0.950 . S
C199 C198 1.397 . S
C199 C200 1.334 . S
C200 H171 0.950 . S
C200 C199 1.334 . S
C200 C201 1.287 . S
C201 C200 1.287 . S
C201 C202 1.524 . S
C201 H204 0.999 . S
C202 H172 0.950 . S
C202 C201 1.524 . S
C202 C203 1.415 . S
C203 H173 0.950 . S
C203 C198 1.363 . S
C203 C202 1.415 . S
H204 C201 0.999 . S
H205 C186 0.913 . S
H206 C224 0.951 . S
H207 C226 0.951 . S
H208 C228 0.950 . S
H209 C229 0.950 . S
H210 C231 0.950 . S
H211 C234 0.950 . S
H212 C235 0.950 . S
H213 C237 0.950 . S
H214 C238 0.950 . S
H215 C239 0.951 . S
H216 C241 0.951 . S
H217 C243 0.950 . S
H218 C244 0.950 . S
H219 C246 0.950 . S
H220 C249 0.950 . S
H221 C250 0.950 . S
H222 C252 0.950 . S
H223 C253 0.950 . S
C224 H206 0.951 . S
C224 C225 1.366 . S
C224 C226 1.388 . S
C225 C224 1.366 . S
C225 C229 1.385 . S
C226 H207 0.951 . S
C226 C224 1.388 . S
C226 C227 1.366 . S
C227 C226 1.366 . S
C227 C228 1.414 . S
C227 C230 1.499 . S
C228 H208 0.950 . S
C228 C227 1.414 . S
C228 C229 1.374 . S
C229 H209 0.950 . S
C229 C225 1.385 . S
C229 C228 1.374 . S
C230 C227 1.499 . S
C230 C231 1.373 . S
C230 C232 1.389 1_554 S
C231 H210 0.950 . S
C231 C230 1.373 . S
C231 C247 1.377 . S
C232 C230 1.389 1_556 S
C232 C233 1.524 . S
C232 C246 1.377 . S
C233 C232 1.524 . S
C233 C234 1.397 . S
C233 C238 1.363 . S
C234 H211 0.950 . S
C234 C233 1.397 . S
C234 C235 1.334 . S
C235 H212 0.950 . S
C235 C234 1.334 . S
C235 C236 1.287 . S
C236 C235 1.287 . S
C236 C237 1.524 . S
C236 H255 0.913 . S
C237 H213 0.950 . S
C237 C236 1.524 . S
C237 C238 1.415 . S
C238 H214 0.950 . S
C238 C233 1.363 . S
C238 C237 1.415 . S
C239 H215 0.951 . S
C239 C240 1.366 . S
C239 C241 1.388 . S
C240 C239 1.366 . S
C240 C244 1.385 . S
C241 H216 0.951 . S
C241 C239 1.388 . S
C241 C242 1.366 . S
C242 C241 1.366 . S
C242 C243 1.414 . S
C242 C245 1.499 . S
C243 H217 0.950 . S
C243 C242 1.414 . S
C243 C244 1.374 . S
C244 H218 0.950 . S
C244 C240 1.385 . S
C244 C243 1.374 . S
C245 C242 1.499 . S
C245 C246 1.373 . S
C245 C247 1.389 1_556 S
C246 H219 0.950 . S
C246 C232 1.377 . S
C246 C245 1.373 . S
C247 C231 1.377 . S
C247 C245 1.389 1_554 S
C247 C248 1.524 . S
C248 C247 1.524 . S
C248 C249 1.397 . S
C248 C253 1.363 . S
C249 H220 0.950 . S
C249 C248 1.397 . S
C249 C250 1.334 . S
C250 H221 0.950 . S
C250 C249 1.334 . S
C250 C251 1.287 . S
C251 C250 1.287 . S
C251 C252 1.524 . S
C251 H254 0.999 1_565 S
C252 H222 0.950 . S
C252 C251 1.524 . S
C252 C253 1.415 . S
C253 H223 0.950 . S
C253 C248 1.363 . S
C253 C252 1.415 . S
H254 C251 0.999 1_545 S
H255 C236 0.913 . S
H256 C274 0.951 . S
H257 C276 0.951 1_556 S
H258 C278 0.950 . S
H259 C279 0.950 . S
H260 C281 0.950 . S
H261 C284 0.950 . S
H262 C285 0.950 . S
H263 C287 0.950 . S
H264 C288 0.950 . S
H265 C289 0.951 1_655 S
H266 C291 0.951 . S
H267 C293 0.950 . S
H268 C294 0.950 . S
H269 C296 0.950 . S
H270 C299 0.950 1_556 S
H271 C300 0.950 . S
H272 C302 0.950 . S
H273 C303 0.950 . S
C274 H256 0.951 . S
C274 C275 1.366 . S
C274 C276 1.388 . S
C275 C274 1.366 . S
C275 C279 1.385 . S
C276 H257 0.951 1_554 S
C276 C274 1.388 . S
C276 C277 1.366 . S
C277 C276 1.366 . S
C277 C278 1.414 . S
C277 C280 1.499 . S
C278 H258 0.950 . S
C278 C277 1.414 . S
C278 C279 1.374 . S
C279 H259 0.950 . S
C279 C275 1.385 . S
C279 C278 1.374 . S
C280 C277 1.499 . S
C280 C281 1.373 . S
C280 C282 1.389 1_554 S
C281 H260 0.950 . S
C281 C280 1.373 . S
C281 C297 1.377 . S
C282 C280 1.389 1_556 S
C282 C283 1.524 . S
C282 C296 1.377 . S
C283 C282 1.524 . S
C283 C284 1.397 . S
C283 C288 1.363 . S
C284 H261 0.950 . S
C284 C283 1.397 . S
C284 C285 1.334 . S
C285 H262 0.950 . S
C285 C284 1.334 . S
C285 C286 1.287 . S
C286 C285 1.287 . S
C286 C287 1.524 . S
C286 H305 0.913 . S
C287 H263 0.950 . S
C287 C286 1.524 . S
C287 C288 1.415 . S
C288 H264 0.950 . S
C288 C283 1.363 . S
C288 C287 1.415 . S
C289 H265 0.951 1_455 S
C289 C290 1.366 . S
C289 C291 1.388 . S
C290 C289 1.366 . S
C290 C294 1.385 . S
C291 H266 0.951 . S
C291 C289 1.388 . S
C291 C292 1.366 . S
C292 C291 1.366 . S
C292 C293 1.414 . S
C292 C295 1.499 . S
C293 H267 0.950 . S
C293 C292 1.414 . S
C293 C294 1.374 . S
C294 H268 0.950 . S
C294 C290 1.385 . S
C294 C293 1.374 . S
C295 C292 1.499 . S
C295 C296 1.373 . S
C295 C297 1.389 1_556 S
C296 H269 0.950 . S
C296 C282 1.377 . S
C296 C295 1.373 . S
C297 C281 1.377 . S
C297 C295 1.389 1_554 S
C297 C298 1.524 . S
C298 C297 1.524 . S
C298 C299 1.397 . S
C298 C303 1.363 . S
C299 H270 0.950 1_554 S
C299 C298 1.397 . S
C299 C300 1.334 . S
C300 H271 0.950 . S
C300 C299 1.334 . S
C300 C301 1.287 . S
C301 C300 1.287 . S
C301 C302 1.524 . S
C301 H304 0.999 . S
C302 H272 0.950 . S
C302 C301 1.524 . S
C302 C303 1.415 . S
C303 H273 0.950 . S
C303 C298 1.363 . S
C303 C302 1.415 . S
H304 C301 0.999 . S
H305 C286 0.913 . S
H306 C324 0.951 . S
H307 C326 0.951 . S
H308 C328 0.950 . S
H309 C329 0.950 . S
H310 C331 0.950 . S
H311 C334 0.950 . S
H312 C335 0.950 . S
H313 C337 0.950 . S
H314 C338 0.950 . S
H315 C339 0.951 . S
H316 C341 0.951 . S
H317 C343 0.950 . S
H318 C344 0.950 . S
H319 C346 0.950 . S
H320 C349 0.950 . S
H321 C350 0.950 . S
H322 C352 0.950 . S
H323 C353 0.950 . S
C324 H306 0.951 . S
C324 C325 1.366 . S
C324 C326 1.388 . S
C325 C324 1.366 . S
C325 C329 1.385 . S
C326 H307 0.951 . S
C326 C324 1.388 . S
C326 C327 1.366 . S
C327 C326 1.366 . S
C327 C328 1.414 . S
C327 C330 1.499 . S
C328 H308 0.950 . S
C328 C327 1.414 . S
C328 C329 1.374 . S
C329 H309 0.950 . S
C329 C325 1.385 . S
C329 C328 1.374 . S
C330 C327 1.499 . S
C330 C331 1.373 . S
C330 C332 1.389 . S
C331 H310 0.950 . S
C331 C330 1.373 . S
C331 C347 1.377 . S
C332 C330 1.389 . S
C332 C333 1.524 . S
C332 C346 1.377 . S
C333 C332 1.524 . S
C333 C334 1.397 . S
C333 C338 1.363 . S
C334 H311 0.950 . S
C334 C333 1.397 . S
C334 C335 1.334 . S
C335 H312 0.950 . S
C335 C334 1.334 . S
C335 C336 1.287 . S
C336 C335 1.287 . S
C336 C337 1.524 . S
C336 H355 0.913 . S
C337 H313 0.950 . S
C337 C336 1.524 . S
C337 C338 1.415 . S
C338 H314 0.950 . S
C338 C333 1.363 . S
C338 C337 1.415 . S
C339 H315 0.951 . S
C339 C340 1.366 . S
C339 C341 1.388 . S
C340 C339 1.366 . S
C340 C344 1.385 . S
C341 H316 0.951 . S
C341 C339 1.388 . S
C341 C342 1.366 . S
C342 C341 1.366 . S
C342 C343 1.414 . S
C342 C345 1.499 . S
C343 H317 0.950 . S
C343 C342 1.414 . S
C343 C344 1.374 . S
C344 H318 0.950 . S
C344 C340 1.385 . S
C344 C343 1.374 . S
C345 C342 1.499 . S
C345 C346 1.373 . S
C345 C347 1.389 . S
C346 H319 0.950 . S
C346 C332 1.377 . S
C346 C345 1.373 . S
C347 C331 1.377 . S
C347 C345 1.389 . S
C347 C348 1.524 . S
C348 C347 1.524 . S
C348 C349 1.397 . S
C348 C353 1.363 . S
C349 H320 0.950 . S
C349 C348 1.397 . S
C349 C350 1.334 . S
C350 H321 0.950 . S
C350 C349 1.334 . S
C350 C351 1.287 . S
C351 C350 1.287 . S
C351 C352 1.524 . S
C351 H354 0.999 . S
C352 H322 0.950 . S
C352 C351 1.524 . S
C352 C353 1.415 . S
C353 H323 0.950 . S
C353 C348 1.363 . S
C353 C352 1.415 . S
H354 C351 0.999 . S
H355 C336 0.913 . S
H356 C374 0.951 . S
H357 C376 0.951 . S
H358 C378 0.950 . S
H359 C379 0.950 . S
H360 C381 0.950 . S
H361 C384 0.950 . S
H362 C385 0.950 . S
H363 C387 0.950 . S
H364 C388 0.950 . S
H365 C389 0.951 . S
H366 C391 0.951 . S
H367 C393 0.950 . S
H368 C394 0.950 . S
H369 C396 0.950 . S
H370 C399 0.950 . S
H371 C400 0.950 . S
H372 C402 0.950 . S
H373 C403 0.950 . S
C374 H356 0.951 . S
C374 C375 1.366 . S
C374 C376 1.388 . S
C375 C374 1.366 . S
C375 C379 1.385 . S
C376 H357 0.951 . S
C376 C374 1.388 . S
C376 C377 1.366 . S
C377 C376 1.366 . S
C377 C378 1.414 . S
C377 C380 1.499 . S
C378 H358 0.950 . S
C378 C377 1.414 . S
C378 C379 1.374 . S
C379 H359 0.950 . S
C379 C375 1.385 . S
C379 C378 1.374 . S
C380 C377 1.499 . S
C380 C381 1.373 . S
C380 C382 1.389 . S
C381 H360 0.950 . S
C381 C380 1.373 . S
C381 C397 1.377 . S
C382 C380 1.389 . S
C382 C383 1.524 . S
C382 C396 1.377 . S
C383 C382 1.524 . S
C383 C384 1.397 . S
C383 C388 1.363 . S
C384 H361 0.950 . S
C384 C383 1.397 . S
C384 C385 1.334 . S
C385 H362 0.950 . S
C385 C384 1.334 . S
C385 C386 1.287 . S
C386 C385 1.287 . S
C386 C387 1.524 . S
C386 H405 0.913 . S
C387 H363 0.950 . S
C387 C386 1.524 . S
C387 C388 1.415 . S
C388 H364 0.950 . S
C388 C383 1.363 . S
C388 C387 1.415 . S
C389 H365 0.951 . S
C389 C390 1.366 . S
C389 C391 1.388 . S
C390 C389 1.366 . S
C390 C394 1.385 . S
C391 H366 0.951 . S
C391 C389 1.388 . S
C391 C392 1.366 . S
C392 C391 1.366 . S
C392 C393 1.414 . S
C392 C395 1.499 . S
C393 H367 0.950 . S
C393 C392 1.414 . S
C393 C394 1.374 . S
C394 H368 0.950 . S
C394 C390 1.385 . S
C394 C393 1.374 . S
C395 C392 1.499 . S
C395 C396 1.373 . S
C395 C397 1.389 . S
C396 H369 0.950 . S
C396 C382 1.377 . S
C396 C395 1.373 . S
C397 C381 1.377 . S
C397 C395 1.389 . S
C397 C398 1.524 . S
C398 C397 1.524 . S
C398 C399 1.397 . S
C398 C403 1.363 . S
C399 H370 0.950 . S
C399 C398 1.397 . S
C399 C400 1.334 . S
C400 H371 0.950 . S
C400 C399 1.334 . S
C400 C401 1.287 . S
C401 C400 1.287 . S
C401 C402 1.524 . S
C401 H404 0.999 . S
C402 H372 0.950 . S
C402 C401 1.524 . S
C402 C403 1.415 . S
C403 H373 0.950 . S
C403 C398 1.363 . S
C403 C402 1.415 . S
H404 C401 0.999 . S
H405 C386 0.913 . S
H406 C424 0.951 . S
H407 C426 0.951 . S
H408 C428 0.950 . S
H409 C429 0.950 . S
H410 C431 0.950 . S
H411 C434 0.950 . S
H412 C435 0.950 . S
H413 C437 0.950 . S
H414 C438 0.950 . S
H415 C439 0.951 . S
H416 C441 0.951 . S
H417 C443 0.950 . S
H418 C444 0.950 . S
H419 C446 0.950 . S
H420 C449 0.950 . S
H421 C450 0.950 . S
H422 C452 0.950 . S
H423 C453 0.950 . S
C424 H406 0.951 . S
C424 C425 1.366 . S
C424 C426 1.388 . S
C425 C424 1.366 . S
C425 C429 1.385 . S
C426 H407 0.951 . S
C426 C424 1.388 . S
C426 C427 1.366 . S
C427 C426 1.366 . S
C427 C428 1.414 . S
C427 C430 1.499 . S
C428 H408 0.950 . S
C428 C427 1.414 . S
C428 C429 1.374 . S
C429 H409 0.950 . S
C429 C425 1.385 . S
C429 C428 1.374 . S
C430 C427 1.499 . S
C430 C431 1.373 . S
C430 C432 1.389 . S
C431 H410 0.950 . S
C431 C430 1.373 . S
C431 C447 1.377 . S
C432 C430 1.389 . S
C432 C433 1.524 . S
C432 C446 1.377 . S
C433 C432 1.524 . S
C433 C434 1.397 . S
C433 C438 1.363 . S
C434 H411 0.950 . S
C434 C433 1.397 . S
C434 C435 1.334 . S
C435 H412 0.950 . S
C435 C434 1.334 . S
C435 C436 1.287 . S
C436 C435 1.287 . S
C436 C437 1.524 . S
C436 H455 0.913 . S
C437 H413 0.950 . S
C437 C436 1.524 . S
C437 C438 1.415 . S
C438 H414 0.950 . S
C438 C433 1.363 . S
C438 C437 1.415 . S
C439 H415 0.951 . S
C439 C440 1.366 . S
C439 C441 1.388 . S
C440 C439 1.366 . S
C440 C444 1.385 . S
C441 H416 0.951 . S
C441 C439 1.388 . S
C441 C442 1.366 . S
C442 C441 1.366 . S
C442 C443 1.414 . S
C442 C445 1.499 . S
C443 H417 0.950 . S
C443 C442 1.414 . S
C443 C444 1.374 . S
C444 H418 0.950 . S
C444 C440 1.385 . S
C444 C443 1.374 . S
C445 C442 1.499 . S
C445 C446 1.373 . S
C445 C447 1.389 . S
C446 H419 0.950 . S
C446 C432 1.377 . S
C446 C445 1.373 . S
C447 C431 1.377 . S
C447 C445 1.389 . S
C447 C448 1.524 . S
C448 C447 1.524 . S
C448 C449 1.397 . S
C448 C453 1.363 . S
C449 H420 0.950 . S
C449 C448 1.397 . S
C449 C450 1.334 . S
C450 H421 0.950 . S
C450 C449 1.334 . S
C450 C451 1.287 . S
C451 C450 1.287 . S
C451 C452 1.524 . S
C451 H454 0.999 . S
C452 H422 0.950 . S
C452 C451 1.524 . S
C452 C453 1.415 . S
C453 H423 0.950 . S
C453 C448 1.363 . S
C453 C452 1.415 . S
H454 C451 0.999 . S
H455 C436 0.913 . S
H456 C474 0.951 . S
H457 C476 0.951 . S
H458 C478 0.950 . S
H459 C479 0.950 . S
H460 C481 0.950 . S
H461 C484 0.950 . S
H462 C485 0.950 . S
H463 C487 0.950 . S
H464 C488 0.950 . S
H465 C489 0.951 . S
H466 C491 0.951 1_554 S
H467 C493 0.950 . S
H468 C494 0.950 . S
H469 C496 0.950 . S
H470 C499 0.950 . S
H471 C500 0.950 . S
H472 C502 0.950 . S
H473 C503 0.950 . S
C474 H456 0.951 . S
C474 C475 1.366 . S
C474 C476 1.388 . S
C475 C474 1.366 . S
C475 C479 1.385 . S
C476 H457 0.951 . S
C476 C474 1.388 . S
C476 C477 1.366 . S
C477 C476 1.366 . S
C477 C478 1.414 . S
C477 C480 1.499 . S
C478 H458 0.950 . S
C478 C477 1.414 . S
C478 C479 1.374 . S
C479 H459 0.950 . S
C479 C475 1.385 . S
C479 C478 1.374 . S
C480 C477 1.499 . S
C480 C481 1.373 . S
C480 C482 1.389 . S
C481 H460 0.950 . S
C481 C480 1.373 . S
C481 C497 1.377 . S
C482 C480 1.389 . S
C482 C483 1.524 . S
C482 C496 1.377 1_554 S
C483 C482 1.524 . S
C483 C484 1.397 . S
C483 C488 1.363 1_554 S
C484 H461 0.950 . S
C484 C483 1.397 . S
C484 C485 1.334 . S
C485 H462 0.950 . S
C485 C484 1.334 . S
C485 C486 1.287 . S
C486 C485 1.287 . S
C486 C487 1.524 1_554 S
C486 H505 0.913 . S
C487 H463 0.950 . S
C487 C486 1.524 1_556 S
C487 C488 1.415 . S
C488 H464 0.950 . S
C488 C483 1.363 1_556 S
C488 C487 1.415 . S
C489 H465 0.951 . S
C489 C490 1.366 . S
C489 C491 1.388 . S
C490 C489 1.366 . S
C490 C494 1.385 . S
C491 H466 0.951 1_556 S
C491 C489 1.388 . S
C491 C492 1.366 . S
C492 C491 1.366 . S
C492 C493 1.414 . S
C492 C495 1.499 . S
C493 H467 0.950 . S
C493 C492 1.414 . S
C493 C494 1.374 . S
C494 H468 0.950 . S
C494 C490 1.385 . S
C494 C493 1.374 . S
C495 C492 1.499 . S
C495 C496 1.373 . S
C495 C497 1.389 1_556 S
C496 H469 0.950 . S
C496 C482 1.377 1_556 S
C496 C495 1.373 . S
C497 C481 1.377 . S
C497 C495 1.389 1_554 S
C497 C498 1.524 . S
C498 C497 1.524 . S
C498 C499 1.397 1_554 S
C498 C503 1.363 . S
C499 H470 0.950 . S
C499 C498 1.397 1_556 S
C499 C500 1.334 . S
C500 H471 0.950 . S
C500 C499 1.334 . S
C500 C501 1.287 1_556 S
C501 C500 1.287 1_554 S
C501 C502 1.524 . S
C501 H504 0.999 . S
C502 H472 0.950 . S
C502 C501 1.524 . S
C502 C503 1.415 . S
C503 H473 0.950 . S
C503 C498 1.363 . S
C503 C502 1.415 . S
H504 C501 0.999 . S
H505 C486 0.913 . S
H506 C524 0.951 . S
H507 C526 0.951 . S
H508 C528 0.950 . S
H509 C529 0.950 . S
H510 C531 0.950 . S
H511 C534 0.950 . S
H512 C535 0.950 . S
H513 C537 0.950 . S
H514 C538 0.950 . S
H515 C539 0.951 . S
H516 C541 0.951 . S
H517 C543 0.950 . S
H518 C544 0.950 . S
H519 C546 0.950 . S
H520 C549 0.950 . S
H521 C550 0.950 . S
H522 C552 0.950 . S
H523 C553 0.950 . S
C524 H506 0.951 . S
C524 C525 1.366 . S
C524 C526 1.388 . S
C525 C524 1.366 . S
C525 C529 1.385 . S
C526 H507 0.951 . S
C526 C524 1.388 . S
C526 C527 1.366 . S
C527 C526 1.366 . S
C527 C528 1.414 . S
C527 C530 1.499 . S
C528 H508 0.950 . S
C528 C527 1.414 . S
C528 C529 1.374 . S
C529 H509 0.950 . S
C529 C525 1.385 . S
C529 C528 1.374 . S
C530 C527 1.499 . S
C530 C531 1.373 . S
C530 C532 1.389 1_556 S
C531 H510 0.950 . S
C531 C530 1.373 . S
C531 C547 1.377 . S
C532 C530 1.389 1_554 S
C532 C533 1.524 . S
C532 C546 1.377 . S
C533 C532 1.524 . S
C533 C534 1.397 . S
C533 C538 1.363 . S
C534 H511 0.950 . S
C534 C533 1.397 . S
C534 C535 1.334 . S
C535 H512 0.950 . S
C535 C534 1.334 . S
C535 C536 1.287 . S
C536 C535 1.287 . S
C536 C537 1.524 . S
C536 H555 0.913 . S
C537 H513 0.950 . S
C537 C536 1.524 . S
C537 C538 1.415 . S
C538 H514 0.950 . S
C538 C533 1.363 . S
C538 C537 1.415 . S
C539 H515 0.951 . S
C539 C540 1.366 . S
C539 C541 1.388 . S
C540 C539 1.366 . S
C540 C544 1.385 . S
C541 H516 0.951 . S
C541 C539 1.388 . S
C541 C542 1.366 . S
C542 C541 1.366 . S
C542 C543 1.414 . S
C542 C545 1.499 . S
C543 H517 0.950 . S
C543 C542 1.414 . S
C543 C544 1.374 . S
C544 H518 0.950 . S
C544 C540 1.385 . S
C544 C543 1.374 . S
C545 C542 1.499 . S
C545 C546 1.373 . S
C545 C547 1.389 1_554 S
C546 H519 0.950 . S
C546 C532 1.377 . S
C546 C545 1.373 . S
C547 C531 1.377 . S
C547 C545 1.389 1_556 S
C547 C548 1.524 . S
C548 C547 1.524 . S
C548 C549 1.397 . S
C548 C553 1.363 . S
C549 H520 0.950 . S
C549 C548 1.397 . S
C549 C550 1.334 . S
C550 H521 0.950 . S
C550 C549 1.334 . S
C550 C551 1.287 . S
C551 C550 1.287 . S
C551 C552 1.524 . S
C551 H554 0.999 . S
C552 H522 0.950 . S
C552 C551 1.524 . S
C552 C553 1.415 . S
C553 H523 0.950 . S
C553 C548 1.363 . S
C553 C552 1.415 . S
H554 C551 0.999 . S
H555 C536 0.913 . S
H556 C574 0.951 . S
H557 C576 0.951 . S
H558 C578 0.950 . S
H559 C579 0.950 . S
H560 C581 0.950 . S
H561 C584 0.950 . S
H562 C585 0.950 . S
H563 C587 0.950 . S
H564 C588 0.950 1_556 S
H565 C589 0.951 . S
H566 C591 0.968 . S
H567 C593 0.950 . S
H568 C594 0.950 . S
H569 C596 0.950 . S
H570 C599 0.950 . S
H571 C600 0.950 . S
H572 C602 0.950 . S
H573 C603 0.950 1_554 S
C574 H556 0.951 . S
C574 C575 1.366 . S
C574 C576 1.388 . S
C575 C574 1.366 . S
C575 C579 1.385 . S
C576 H557 0.951 . S
C576 C574 1.388 . S
C576 C577 1.366 . S
C577 C576 1.366 . S
C577 C578 1.414 . S
C577 C580 1.499 . S
C578 H558 0.950 . S
C578 C577 1.414 . S
C578 C579 1.374 . S
C579 H559 0.950 . S
C579 C575 1.385 . S
C579 C578 1.374 . S
C580 C577 1.499 . S
C580 C581 1.373 . S
C580 C582 1.389 . S
C581 H560 0.950 . S
C581 C580 1.373 . S
C581 C597 1.377 1_554 S
C582 C580 1.389 . S
C582 C583 1.524 . S
C582 C596 1.377 . S
C583 C582 1.524 . S
C583 C584 1.397 . S
C583 C588 1.363 . S
C584 H561 0.950 . S
C584 C583 1.397 . S
C584 C585 1.334 . S
C585 H562 0.950 . S
C585 C584 1.334 . S
C585 C586 1.287 . S
C586 C585 1.287 . S
C586 C587 1.524 . S
C586 H605 0.913 . S
C587 H563 0.950 . S
C587 C586 1.524 . S
C587 C588 1.415 . S
C588 H564 0.950 1_554 S
C588 C583 1.363 . S
C588 C587 1.415 . S
C589 H565 0.951 . S
C589 C590 1.366 . S
C589 C591 1.388 . S
C590 C589 1.366 . S
C590 C594 1.385 . S
C591 H566 0.968 . S
C591 C589 1.388 . S
C591 C592 1.366 . S
C592 C591 1.366 . S
C592 C593 1.414 . S
C592 C595 1.499 . S
C593 H567 0.950 . S
C593 C592 1.414 . S
C593 C594 1.374 . S
C594 H568 0.950 . S
C594 C590 1.385 . S
C594 C593 1.374 . S
C595 C592 1.499 . S
C595 C596 1.373 1_556 S
C595 C597 1.389 . S
C596 H569 0.950 . S
C596 C582 1.377 . S
C596 C595 1.373 1_554 S
C597 C581 1.377 1_556 S
C597 C595 1.389 . S
C597 C598 1.524 . S
C598 C597 1.524 . S
C598 C599 1.397 . S
C598 C603 1.363 . S
C599 H570 0.950 . S
C599 C598 1.397 . S
C599 C600 1.334 . S
C600 H571 0.950 . S
C600 C599 1.334 . S
C600 C601 1.287 . S
C601 C600 1.287 . S
C601 C602 1.524 . S
C601 H604 0.999 . S
C602 H572 0.950 . S
C602 C601 1.524 . S
C602 C603 1.415 . S
C603 H573 0.950 1_556 S
C603 C598 1.363 . S
C603 C602 1.415 . S
H604 C601 0.999 . S
H605 C586 0.913 . S
H606 C624 0.951 . S
H607 C626 0.951 . S
H608 C628 0.950 . S
H609 C629 0.950 . S
H610 C631 0.950 . S
H611 C634 0.950 . S
H612 C635 0.950 . S
H613 C637 0.950 . S
H614 C638 0.950 . S
H615 C639 0.951 . S
H616 C641 0.951 . S
H617 C643 0.950 . S
H618 C644 0.950 . S
H619 C646 0.950 . S
H620 C649 0.950 . S
H621 C650 0.950 . S
H622 C652 0.950 . S
H623 C653 0.950 . S
C624 H606 0.951 . S
C624 C625 1.366 . S
C624 C626 1.388 . S
C625 C624 1.366 . S
C625 C629 1.385 . S
C626 H607 0.951 . S
C626 C624 1.388 . S
C626 C627 1.366 . S
C627 C626 1.366 . S
C627 C628 1.414 . S
C627 C630 1.499 . S
C628 H608 0.950 . S
C628 C627 1.414 . S
C628 C629 1.374 . S
C629 H609 0.950 . S
C629 C625 1.385 . S
C629 C628 1.374 . S
C630 C627 1.499 . S
C630 C631 1.373 . S
C630 C632 1.389 . S
C631 H610 0.950 . S
C631 C630 1.373 . S
C631 C647 1.377 . S
C632 C630 1.389 . S
C632 C633 1.524 . S
C632 C646 1.377 . S
C633 C632 1.524 . S
C633 C634 1.397 . S
C633 C638 1.363 . S
C634 H611 0.950 . S
C634 C633 1.397 . S
C634 C635 1.334 . S
C635 H612 0.950 . S
C635 C634 1.334 . S
C635 C636 1.287 . S
C636 C635 1.287 . S
C636 C637 1.524 . S
C636 H655 0.913 . S
C637 H613 0.950 . S
C637 C636 1.524 . S
C637 C638 1.415 . S
C638 H614 0.950 . S
C638 C633 1.363 . S
C638 C637 1.415 . S
C639 H615 0.951 . S
C639 C640 1.366 . S
C639 C641 1.388 . S
C640 C639 1.366 . S
C640 C644 1.385 . S
C641 H616 0.951 . S
C641 C639 1.388 . S
C641 C642 1.366 . S
C642 C641 1.366 . S
C642 C643 1.414 . S
C642 C645 1.499 . S
C643 H617 0.950 . S
C643 C642 1.414 . S
C643 C644 1.374 . S
C644 H618 0.950 . S
C644 C640 1.385 . S
C644 C643 1.374 . S
C645 C642 1.499 . S
C645 C646 1.373 . S
C645 C647 1.389 . S
C646 H619 0.950 . S
C646 C632 1.377 . S
C646 C645 1.373 . S
C647 C631 1.377 . S
C647 C645 1.389 . S
C647 C648 1.524 . S
C648 C647 1.524 . S
C648 C649 1.397 . S
C648 C653 1.363 . S
C649 H620 0.950 . S
C649 C648 1.397 . S
C649 C650 1.334 . S
C650 H621 0.950 . S
C650 C649 1.334 . S
C650 C651 1.287 . S
C651 C650 1.287 . S
C651 C652 1.524 . S
C651 H654 0.999 . S
C652 H622 0.950 . S
C652 C651 1.524 . S
C652 C653 1.415 . S
C653 H623 0.950 . S
C653 C648 1.363 . S
C653 C652 1.415 . S
H654 C651 0.999 . S
H655 C636 0.913 . S
H656 C674 0.951 . S
H657 C676 0.951 . S
H658 C678 0.950 . S
H659 C679 0.950 . S
H660 C681 0.950 . S
H661 C684 0.950 . S
H662 C685 0.950 . S
H663 C687 0.950 . S
H664 C688 0.950 . S
H665 C689 0.951 . S
H666 C691 0.951 . S
H667 C693 0.950 . S
H668 C694 0.950 . S
H669 C696 0.950 . S
H670 C699 0.950 . S
H671 C700 0.950 . S
H672 C702 0.950 . S
H673 C703 0.950 . S
C674 H656 0.951 . S
C674 C675 1.366 . S
C674 C676 1.388 . S
C675 C674 1.366 . S
C675 C679 1.385 . S
C676 H657 0.951 . S
C676 C674 1.388 . S
C676 C677 1.366 . S
C677 C676 1.366 . S
C677 C678 1.414 . S
C677 C680 1.499 . S
C678 H658 0.950 . S
C678 C677 1.414 . S
C678 C679 1.374 . S
C679 H659 0.950 . S
C679 C675 1.385 . S
C679 C678 1.374 . S
C680 C677 1.499 . S
C680 C681 1.373 . S
C680 C682 1.389 . S
C681 H660 0.950 . S
C681 C680 1.373 . S
C681 C697 1.377 . S
C682 C680 1.389 . S
C682 C683 1.524 . S
C682 C696 1.377 . S
C683 C682 1.524 . S
C683 C684 1.397 . S
C683 C688 1.363 . S
C684 H661 0.950 . S
C684 C683 1.397 . S
C684 C685 1.334 . S
C685 H662 0.950 . S
C685 C684 1.334 . S
C685 C686 1.287 . S
C686 C685 1.287 . S
C686 C687 1.524 . S
C686 H705 0.913 . S
C687 H663 0.950 . S
C687 C686 1.524 . S
C687 C688 1.415 . S
C688 H664 0.950 . S
C688 C683 1.363 . S
C688 C687 1.415 . S
C689 H665 0.951 . S
C689 C690 1.366 . S
C689 C691 1.388 . S
C690 C689 1.366 . S
C690 C694 1.385 . S
C691 H666 0.951 . S
C691 C689 1.388 . S
C691 C692 1.366 . S
C692 C691 1.366 . S
C692 C693 1.414 . S
C692 C695 1.499 . S
C693 H667 0.950 . S
C693 C692 1.414 . S
C693 C694 1.374 . S
C694 H668 0.950 . S
C694 C690 1.385 . S
C694 C693 1.374 . S
C695 C692 1.499 . S
C695 C696 1.373 . S
C695 C697 1.389 . S
C696 H669 0.950 . S
C696 C682 1.377 . S
C696 C695 1.373 . S
C697 C681 1.377 . S
C697 C695 1.389 . S
C697 C698 1.524 . S
C698 C697 1.524 . S
C698 C699 1.397 . S
C698 C703 1.363 . S
C699 H670 0.950 . S
C699 C698 1.397 . S
C699 C700 1.334 . S
C700 H671 0.950 . S
C700 C699 1.334 . S
C700 C701 1.287 . S
C701 C700 1.287 . S
C701 C702 1.524 . S
C701 H704 0.999 . S
C702 H672 0.950 . S
C702 C701 1.524 . S
C702 C703 1.415 . S
C703 H673 0.950 . S
C703 C698 1.363 . S
C703 C702 1.415 . S
H704 C701 0.999 . S
H705 C686 0.913 . S
H706 C724 0.951 . S
H707 C726 0.951 . S
H708 C728 0.950 . S
H709 C729 0.950 1_455 S
H710 C731 0.950 . S
H711 C734 0.950 . S
H712 C735 0.950 . S
H713 C737 0.950 . S
H714 C738 0.950 . S
H715 C739 0.951 . S
H716 C741 0.951 . S
H717 C743 0.950 . S
H718 C744 0.950 . S
H719 C746 0.950 . S
H720 C749 0.950 . S
H721 C750 0.950 . S
H722 C752 0.950 . S
H723 C753 0.950 . S
C724 H706 0.951 . S
C724 C725 1.366 . S
C724 C726 1.388 . S
C725 C724 1.366 . S
C725 C729 1.385 . S
C726 H707 0.951 . S
C726 C724 1.388 . S
C726 C727 1.366 . S
C727 C726 1.366 . S
C727 C728 1.414 . S
C727 C730 1.499 . S
C728 H708 0.950 . S
C728 C727 1.414 . S
C728 C729 1.374 . S
C729 H709 0.950 1_655 S
C729 C725 1.385 . S
C729 C728 1.374 . S
C730 C727 1.499 . S
C730 C731 1.373 . S
C730 C732 1.389 . S
C731 H710 0.950 . S
C731 C730 1.373 . S
C731 C747 1.377 . S
C732 C730 1.389 . S
C732 C733 1.524 . S
C732 C746 1.377 . S
C733 C732 1.524 . S
C733 C734 1.397 . S
C733 C738 1.363 . S
C734 H711 0.950 . S
C734 C733 1.397 . S
C734 C735 1.334 . S
C735 H712 0.950 . S
C735 C734 1.334 . S
C735 C736 1.287 . S
C736 C735 1.287 . S
C736 C737 1.524 . S
C736 H755 0.913 . S
C737 H713 0.950 . S
C737 C736 1.524 . S
C737 C738 1.415 . S
C738 H714 0.950 . S
C738 C733 1.363 . S
C738 C737 1.415 . S
C739 H715 0.951 . S
C739 C740 1.366 . S
C739 C741 1.388 . S
C740 C739 1.366 . S
C740 C744 1.385 . S
C741 H716 0.951 . S
C741 C739 1.388 . S
C741 C742 1.366 . S
C742 C741 1.366 . S
C742 C743 1.414 . S
C742 C745 1.499 . S
C743 H717 0.950 . S
C743 C742 1.414 . S
C743 C744 1.374 . S
C744 H718 0.950 . S
C744 C740 1.385 . S
C744 C743 1.374 . S
C745 C742 1.499 . S
C745 C746 1.373 . S
C745 C747 1.389 . S
C746 H719 0.950 . S
C746 C732 1.377 . S
C746 C745 1.373 . S
C747 C731 1.377 . S
C747 C745 1.389 . S
C747 C748 1.524 . S
C748 C747 1.524 . S
C748 C749 1.397 . S
C748 C753 1.363 . S
C749 H720 0.950 . S
C749 C748 1.397 . S
C749 C750 1.334 . S
C750 H721 0.950 . S
C750 C749 1.334 . S
C750 C751 1.287 . S
C751 C750 1.287 . S
C751 C752 1.524 . S
C751 H754 0.999 . S
C752 H722 0.950 . S
C752 C751 1.524 . S
C752 C753 1.415 . S
C753 H723 0.950 . S
C753 C748 1.363 . S
C753 C752 1.415 . S
H754 C751 0.999 . S
H755 C736 0.913 . S
H756 C774 0.951 . S
H757 C776 0.951 . S
H758 C778 0.950 . S
H759 C779 0.950 . S
H760 C781 0.950 . S
H761 C784 0.950 . S
H762 C785 0.950 . S
H763 C787 0.950 . S
H764 C788 0.950 . S
H765 C789 0.951 . S
H766 C791 0.951 . S
H767 C793 0.950 . S
H768 C794 0.950 . S
H769 C796 0.950 . S
H770 C799 0.950 . S
H771 C800 0.950 . S
H772 C802 0.950 . S
H773 C803 0.950 . S
C774 H756 0.951 . S
C774 C775 1.366 . S
C774 C776 1.388 . S
C775 C774 1.366 . S
C775 C779 1.385 . S
C776 H757 0.951 . S
C776 C774 1.388 . S
C776 C777 1.366 . S
C777 C776 1.366 . S
C777 C778 1.414 . S
C777 C780 1.499 . S
C778 H758 0.950 . S
C778 C777 1.414 . S
C778 C779 1.374 . S
C779 H759 0.950 . S
C779 C775 1.385 . S
C779 C778 1.374 . S
C780 C777 1.499 . S
C780 C781 1.373 . S
C780 C782 1.389 . S
C781 H760 0.950 . S
C781 C780 1.373 . S
C781 C797 1.377 . S
C782 C780 1.389 . S
C782 C783 1.524 . S
C782 C796 1.377 . S
C783 C782 1.524 . S
C783 C784 1.397 . S
C783 C788 1.363 . S
C784 H761 0.950 . S
C784 C783 1.397 . S
C784 C785 1.334 . S
C785 H762 0.950 . S
C785 C784 1.334 . S
C785 C786 1.287 . S
C786 C785 1.287 . S
C786 C787 1.524 . S
C786 H805 0.913 . S
C787 H763 0.950 . S
C787 C786 1.524 . S
C787 C788 1.415 . S
C788 H764 0.950 . S
C788 C783 1.363 . S
C788 C787 1.415 . S
C789 H765 0.951 . S
C789 C790 1.366 . S
C789 C791 1.388 . S
C790 C789 1.366 . S
C790 C794 1.385 . S
C791 H766 0.951 . S
C791 C789 1.388 . S
C791 C792 1.366 . S
C792 C791 1.366 . S
C792 C793 1.414 . S
C792 C795 1.499 . S
C793 H767 0.950 . S
C793 C792 1.414 . S
C793 C794 1.374 . S
C794 H768 0.950 . S
C794 C790 1.385 . S
C794 C793 1.374 . S
C795 C792 1.499 . S
C795 C796 1.373 . S
C795 C797 1.389 . S
C796 H769 0.950 . S
C796 C782 1.377 . S
C796 C795 1.373 . S
C797 C781 1.377 . S
C797 C795 1.389 . S
C797 C798 1.524 . S
C798 C797 1.524 . S
C798 C799 1.397 . S
C798 C803 1.363 . S
C799 H770 0.950 . S
C799 C798 1.397 . S
C799 C800 1.334 . S
C800 H771 0.950 . S
C800 C799 1.334 . S
C800 C801 1.287 . S
C801 C800 1.287 . S
C801 C802 1.524 . S
C801 H804 0.999 . S
C802 H772 0.950 . S
C802 C801 1.524 . S
C802 C803 1.415 . S
C803 H773 0.950 . S
C803 C798 1.363 . S
C803 C802 1.415 . S
H804 C801 0.999 . S
H805 C786 0.913 . S
H806 C824 0.951 . S
H807 C826 0.951 . S
H808 C828 0.950 . S
H809 C829 0.950 . S
H810 C831 0.950 . S
H811 C834 0.950 . S
H812 C835 0.950 . S
H813 C837 0.950 . S
H814 C838 0.950 . S
H815 C839 0.951 . S
H816 C841 0.951 . S
H817 C843 0.950 . S
H818 C844 0.950 . S
H819 C846 0.950 . S
H820 C849 0.950 . S
H821 C850 0.950 . S
H822 C852 0.950 . S
H823 C853 0.950 . S
C824 H806 0.951 . S
C824 C825 1.366 . S
C824 C826 1.388 . S
C825 C824 1.366 . S
C825 C829 1.385 . S
C826 H807 0.951 . S
C826 C824 1.388 . S
C826 C827 1.366 . S
C827 C826 1.366 . S
C827 C828 1.414 . S
C827 C830 1.499 . S
C828 H808 0.950 . S
C828 C827 1.414 . S
C828 C829 1.374 . S
C829 H809 0.950 . S
C829 C825 1.385 . S
C829 C828 1.374 . S
C830 C827 1.499 . S
C830 C831 1.373 . S
C830 C832 1.389 . S
C831 H810 0.950 . S
C831 C830 1.373 . S
C831 C847 1.377 . S
C832 C830 1.389 . S
C832 C833 1.524 . S
C832 C846 1.377 . S
C833 C832 1.524 . S
C833 C834 1.397 . S
C833 C838 1.363 . S
C834 H811 0.950 . S
C834 C833 1.397 . S
C834 C835 1.334 . S
C835 H812 0.950 . S
C835 C834 1.334 . S
C835 C836 1.287 . S
C836 C835 1.287 . S
C836 C837 1.524 . S
C836 H855 0.913 . S
C837 H813 0.950 . S
C837 C836 1.524 . S
C837 C838 1.415 . S
C838 H814 0.950 . S
C838 C833 1.363 . S
C838 C837 1.415 . S
C839 H815 0.951 . S
C839 C840 1.366 . S
C839 C841 1.388 . S
C840 C839 1.366 . S
C840 C844 1.385 . S
C841 H816 0.951 . S
C841 C839 1.388 . S
C841 C842 1.366 . S
C842 C841 1.366 . S
C842 C843 1.414 . S
C842 C845 1.499 . S
C843 H817 0.950 . S
C843 C842 1.414 . S
C843 C844 1.374 . S
C844 H818 0.950 . S
C844 C840 1.385 . S
C844 C843 1.374 . S
C845 C842 1.499 . S
C845 C846 1.373 . S
C845 C847 1.389 . S
C846 H819 0.950 . S
C846 C832 1.377 . S
C846 C845 1.373 . S
C847 C831 1.377 . S
C847 C845 1.389 . S
C847 C848 1.524 . S
C848 C847 1.524 . S
C848 C849 1.397 . S
C848 C853 1.363 . S
C849 H820 0.950 . S
C849 C848 1.397 . S
C849 C850 1.334 . S
C850 H821 0.950 . S
C850 C849 1.334 . S
C850 C851 1.287 . S
C851 C850 1.287 . S
C851 C852 1.524 . S
C851 H854 0.999 . S
C852 H822 0.950 . S
C852 C851 1.524 . S
C852 C853 1.415 . S
C853 H823 0.950 . S
C853 C848 1.363 . S
C853 C852 1.415 . S
H854 C851 0.999 . S
H855 C836 0.913 . S
H856 C874 0.951 . S
H857 C876 0.951 . S
H858 C878 0.950 . S
H859 C879 0.950 . S
H860 C881 0.950 . S
H861 C884 0.950 . S
H862 C885 0.950 . S
H863 C887 0.950 . S
H864 C888 0.950 . S
H865 C889 0.951 . S
H866 C891 0.951 . S
H867 C893 0.950 . S
H868 C894 0.950 . S
H869 C896 0.950 . S
H870 C899 0.950 . S
H871 C900 0.950 . S
H872 C902 0.950 . S
H873 C903 0.950 . S
C874 H856 0.951 . S
C874 C875 1.366 . S
C874 C876 1.388 . S
C875 C874 1.366 . S
C875 C879 1.385 . S
C876 H857 0.951 . S
C876 C874 1.388 . S
C876 C877 1.366 . S
C877 C876 1.366 . S
C877 C878 1.414 . S
C877 C880 1.499 . S
C878 H858 0.950 . S
C878 C877 1.414 . S
C878 C879 1.374 . S
C879 H859 0.950 . S
C879 C875 1.385 . S
C879 C878 1.374 . S
C880 C877 1.499 . S
C880 C881 1.373 . S
C880 C882 1.389 . S
C881 H860 0.950 . S
C881 C880 1.373 . S
C881 C897 1.377 . S
C882 C880 1.389 . S
C882 C883 1.524 . S
C882 C896 1.377 . S
C883 C882 1.524 . S
C883 C884 1.397 . S
C883 C888 1.363 . S
C884 H861 0.950 . S
C884 C883 1.397 . S
C884 C885 1.334 . S
C885 H862 0.950 . S
C885 C884 1.334 . S
C885 C886 1.287 . S
C886 C885 1.287 . S
C886 C887 1.524 . S
C886 H905 0.913 . S
C887 H863 0.950 . S
C887 C886 1.524 . S
C887 C888 1.415 . S
C888 H864 0.950 . S
C888 C883 1.363 . S
C888 C887 1.415 . S
C889 H865 0.951 . S
C889 C890 1.366 . S
C889 C891 1.388 . S
C890 C889 1.366 . S
C890 C894 1.385 . S
C891 H866 0.951 . S
C891 C889 1.388 . S
C891 C892 1.366 . S
C892 C891 1.366 . S
C892 C893 1.414 . S
C892 C895 1.499 . S
C893 H867 0.950 . S
C893 C892 1.414 . S
C893 C894 1.374 . S
C894 H868 0.950 . S
C894 C890 1.385 . S
C894 C893 1.374 . S
C895 C892 1.499 . S
C895 C896 1.373 . S
C895 C897 1.389 . S
C896 H869 0.950 . S
C896 C882 1.377 . S
C896 C895 1.373 . S
C897 C881 1.377 . S
C897 C895 1.389 . S
C897 C898 1.524 . S
C898 C897 1.524 . S
C898 C899 1.397 . S
C898 C903 1.363 . S
C899 H870 0.950 . S
C899 C898 1.397 . S
C899 C900 1.334 . S
C900 H871 0.950 . S
C900 C899 1.334 . S
C900 C901 1.287 . S
C901 C900 1.287 . S
C901 C902 1.524 . S
C901 H904 0.999 . S
C902 H872 0.950 . S
C902 C901 1.524 . S
C902 C903 1.415 . S
C903 H873 0.950 . S
C903 C898 1.363 . S
C903 C902 1.415 . S
H904 C901 0.999 . S
H905 C886 0.913 . S
H906 C924 0.951 . S
H907 C926 0.951 . S
H908 C928 0.950 . S
H909 C929 0.950 . S
H910 C931 0.950 . S
H911 C934 0.950 . S
H912 C935 0.950 . S
H913 C937 0.950 . S
H914 C938 0.950 . S
H915 C939 0.951 . S
H916 C941 0.951 . S
H917 C943 0.950 . S
H918 C944 0.950 . S
H919 C946 0.950 . S
H920 C949 0.950 . S
H921 C950 0.950 . S
H922 C952 0.950 . S
H923 C953 0.950 . S
C924 H906 0.951 . S
C924 C925 1.366 . S
C924 C926 1.388 . S
C925 C924 1.366 . S
C925 C929 1.385 . S
C926 H907 0.951 . S
C926 C924 1.388 . S
C926 C927 1.366 . S
C927 C926 1.366 . S
C927 C928 1.414 . S
C927 C930 1.499 . S
C928 H908 0.950 . S
C928 C927 1.414 . S
C928 C929 1.374 . S
C929 H909 0.950 . S
C929 C925 1.385 . S
C929 C928 1.374 . S
C930 C927 1.499 . S
C930 C931 1.373 . S
C930 C932 1.389 . S
C931 H910 0.950 . S
C931 C930 1.373 . S
C931 C947 1.377 . S
C932 C930 1.389 . S
C932 C933 1.524 . S
C932 C946 1.377 . S
C933 C932 1.524 . S
C933 C934 1.397 . S
C933 C938 1.363 . S
C934 H911 0.950 . S
C934 C933 1.397 . S
C934 C935 1.334 . S
C935 H912 0.950 . S
C935 C934 1.334 . S
C935 C936 1.287 . S
C936 C935 1.287 . S
C936 C937 1.524 . S
C936 H955 0.913 . S
C937 H913 0.950 . S
C937 C936 1.524 . S
C937 C938 1.415 . S
C938 H914 0.950 . S
C938 C933 1.363 . S
C938 C937 1.415 . S
C939 H915 0.951 . S
C939 C940 1.366 . S
C939 C941 1.388 . S
C940 C939 1.366 . S
C940 C944 1.385 . S
C941 H916 0.951 . S
C941 C939 1.388 . S
C941 C942 1.366 . S
C942 C941 1.366 . S
C942 C943 1.414 . S
C942 C945 1.499 . S
C943 H917 0.950 . S
C943 C942 1.414 . S
C943 C944 1.374 . S
C944 H918 0.950 . S
C944 C940 1.385 . S
C944 C943 1.374 . S
C945 C942 1.499 . S
C945 C946 1.373 . S
C945 C947 1.389 . S
C946 H919 0.950 . S
C946 C932 1.377 . S
C946 C945 1.373 . S
C947 C931 1.377 . S
C947 C945 1.389 . S
C947 C948 1.524 . S
C948 C947 1.524 . S
C948 C949 1.397 . S
C948 C953 1.363 . S
C949 H920 0.950 . S
C949 C948 1.397 . S
C949 C950 1.334 . S
C950 H921 0.950 . S
C950 C949 1.334 . S
C950 C951 1.287 . S
C951 C950 1.287 . S
C951 C952 1.524 . S
C951 H954 0.999 . S
C952 H922 0.950 . S
C952 C951 1.524 . S
C952 C953 1.415 . S
C953 H923 0.950 . S
C953 C948 1.363 . S
C953 C952 1.415 . S
H954 C951 0.999 . S
H955 C936 0.913 . S
H956 C974 0.951 . S
H957 C976 0.951 . S
H958 C978 0.950 . S
H959 C979 0.950 . S
H960 C981 0.950 . S
H961 C984 0.950 . S
H962 C985 0.950 . S
H963 C987 0.950 . S
H964 C988 0.950 . S
H965 C989 0.951 . S
H966 C991 0.951 . S
H967 C993 0.950 . S
H968 C994 0.950 . S
H969 C996 0.950 . S
H970 C999 0.950 . S
H971 C1000 0.950 . S
H972 C1002 0.950 . S
H973 C1003 0.950 . S
C974 H956 0.951 . S
C974 C975 1.366 . S
C974 C976 1.388 . S
C975 C974 1.366 . S
C975 C979 1.385 . S
C976 H957 0.951 . S
C976 C974 1.388 . S
C976 C977 1.366 . S
C977 C976 1.366 . S
C977 C978 1.414 . S
C977 C980 1.499 . S
C978 H958 0.950 . S
C978 C977 1.414 . S
C978 C979 1.374 . S
C979 H959 0.950 . S
C979 C975 1.385 . S
C979 C978 1.374 . S
C980 C977 1.499 . S
C980 C981 1.373 . S
C980 C982 1.389 . S
C981 H960 0.950 . S
C981 C980 1.373 . S
C981 C997 1.377 . S
C982 C980 1.389 . S
C982 C983 1.524 . S
C982 C996 1.377 . S
C983 C982 1.524 . S
C983 C984 1.397 . S
C983 C988 1.363 . S
C984 H961 0.950 . S
C984 C983 1.397 . S
C984 C985 1.334 . S
C985 H962 0.950 . S
C985 C984 1.334 . S
C985 C986 1.287 . S
C986 C985 1.287 . S
C986 C987 1.524 . S
C986 H1005 0.913 . S
C987 H963 0.950 . S
C987 C986 1.524 . S
C987 C988 1.415 . S
C988 H964 0.950 . S
C988 C983 1.363 . S
C988 C987 1.415 . S
C989 H965 0.951 . S
C989 C990 1.366 . S
C989 C991 1.388 . S
C990 C989 1.366 . S
C990 C994 1.385 . S
C991 H966 0.951 . S
C991 C989 1.388 . S
C991 C992 1.366 . S
C992 C991 1.366 . S
C992 C993 1.414 . S
C992 C995 1.499 . S
C993 H967 0.950 . S
C993 C992 1.414 . S
C993 C994 1.374 . S
C994 H968 0.950 . S
C994 C990 1.385 . S
C994 C993 1.374 . S
C995 C992 1.499 . S
C995 C996 1.373 . S
C995 C997 1.389 . S
C996 H969 0.950 . S
C996 C982 1.377 . S
C996 C995 1.373 . S
C997 C981 1.377 . S
C997 C995 1.389 . S
C997 C998 1.524 . S
C998 C997 1.524 . S
C998 C999 1.397 . S
C998 C1003 1.363 . S
C999 H970 0.950 . S
C999 C998 1.397 . S
C999 C1000 1.334 . S
C1000 H971 0.950 . S
C1000 C999 1.334 . S
C1000 C1001 1.287 . S
C1001 C1000 1.287 . S
C1001 C1002 1.524 . S
C1001 H1004 0.999 . S
C1002 H972 0.950 . S
C1002 C1001 1.524 . S
C1002 C1003 1.415 . S
C1003 H973 0.950 . S
C1003 C998 1.363 . S
C1003 C1002 1.415 . S
H1004 C1001 0.999 . S
H1005 C986 0.913 . S
H1006 C1024 0.951 . S
H1007 C1026 0.951 . S
H1008 C1028 0.950 . S
H1009 C1029 0.950 . S
H1010 C1031 0.950 . S
H1011 C1034 0.950 . S
H1012 C1035 0.950 . S
H1013 C1037 0.950 . S
H1014 C1038 0.950 . S
H1015 C1039 0.951 . S
H1016 C1041 0.951 . S
H1017 C1043 0.950 . S
H1018 C1044 0.950 . S
H1019 C1046 0.950 . S
H1020 C1049 0.950 . S
H1021 C1050 0.950 . S
H1022 C1052 0.950 . S
H1023 C1053 0.950 . S
C1024 H1006 0.951 . S
C1024 C1025 1.366 . S
C1024 C1026 1.388 . S
C1025 C1024 1.366 . S
C1025 C1029 1.385 . S
C1026 H1007 0.951 . S
C1026 C1024 1.388 . S
C1026 C1027 1.366 . S
C1027 C1026 1.366 . S
C1027 C1028 1.414 . S
C1027 C1030 1.499 . S
C1028 H1008 0.950 . S
C1028 C1027 1.414 . S
C1028 C1029 1.374 . S
C1029 H1009 0.950 . S
C1029 C1025 1.385 . S
C1029 C1028 1.374 . S
C1030 C1027 1.499 . S
C1030 C1031 1.373 . S
C1030 C1032 1.389 . S
C1031 H1010 0.950 . S
C1031 C1030 1.373 . S
C1031 C1047 1.377 . S
C1032 C1030 1.389 . S
C1032 C1033 1.524 . S
C1032 C1046 1.377 . S
C1033 C1032 1.524 . S
C1033 C1034 1.397 . S
C1033 C1038 1.363 . S
C1034 H1011 0.950 . S
C1034 C1033 1.397 . S
C1034 C1035 1.334 . S
C1035 H1012 0.950 . S
C1035 C1034 1.334 . S
C1035 C1036 1.287 . S
C1036 C1035 1.287 . S
C1036 C1037 1.524 . S
C1036 H1055 0.913 . S
C1037 H1013 0.950 . S
C1037 C1036 1.524 . S
C1037 C1038 1.415 . S
C1038 H1014 0.950 . S
C1038 C1033 1.363 . S
C1038 C1037 1.415 . S
C1039 H1015 0.951 . S
C1039 C1040 1.366 . S
C1039 C1041 1.388 . S
C1040 C1039 1.366 . S
C1040 C1044 1.385 . S
C1041 H1016 0.951 . S
C1041 C1039 1.388 . S
C1041 C1042 1.366 . S
C1042 C1041 1.366 . S
C1042 C1043 1.414 . S
C1042 C1045 1.499 . S
C1043 H1017 0.950 . S
C1043 C1042 1.414 . S
C1043 C1044 1.374 . S
C1044 H1018 0.950 . S
C1044 C1040 1.385 . S
C1044 C1043 1.374 . S
C1045 C1042 1.499 . S
C1045 C1046 1.373 . S
C1045 C1047 1.389 . S
C1046 H1019 0.950 . S
C1046 C1032 1.377 . S
C1046 C1045 1.373 . S
C1047 C1031 1.377 . S
C1047 C1045 1.389 . S
C1047 C1048 1.524 . S
C1048 C1047 1.524 . S
C1048 C1049 1.397 . S
C1048 C1053 1.363 . S
C1049 H1020 0.950 . S
C1049 C1048 1.397 . S
C1049 C1050 1.334 . S
C1050 H1021 0.950 . S
C1050 C1049 1.334 . S
C1050 C1051 1.287 . S
C1051 C1050 1.287 . S
C1051 C1052 1.524 . S
C1051 H1054 0.999 . S
C1052 H1022 0.950 . S
C1052 C1051 1.524 . S
C1052 C1053 1.415 . S
C1053 H1023 0.950 . S
C1053 C1048 1.363 . S
C1053 C1052 1.415 . S
H1054 C1051 0.999 . S
H1055 C1036 0.913 . S
H1056 C1074 0.951 1_655 S
H1057 C1076 0.951 . S
H1058 C1078 0.950 . S
H1059 C1079 0.950 . S
H1060 C1081 0.950 . S
H1061 C1084 0.950 1_455 S
H1062 C1085 0.950 . S
H1063 C1087 0.950 . S
H1064 C1088 0.950 . S
H1065 C1089 0.951 1_455 S
H1066 C1091 0.951 . S
H1067 C1093 0.950 . S
H1068 C1094 0.950 . S
H1069 C1096 0.950 . S
H1070 C1099 0.950 1_655 S
H1071 C1100 0.950 . S
H1072 C1102 0.950 . S
H1073 C1103 0.950 . S
C1074 H1056 0.951 1_455 S
C1074 C1075 1.366 . S
C1074 C1076 1.388 1_455 S
C1075 C1074 1.366 . S
C1075 C1079 1.385 . S
C1076 H1057 0.951 . S
C1076 C1074 1.388 1_655 S
C1076 C1077 1.366 1_655 S
C1077 C1076 1.366 1_455 S
C1077 C1078 1.414 . S
C1077 C1080 1.499 . S
C1078 H1058 0.950 . S
C1078 C1077 1.414 . S
C1078 C1079 1.374 . S
C1079 H1059 0.950 . S
C1079 C1075 1.385 . S
C1079 C1078 1.374 . S
C1080 C1077 1.499 . S
C1080 C1081 1.373 . S
C1080 C1082 1.389 1_454 S
C1081 H1060 0.950 . S
C1081 C1080 1.373 . S
C1081 C1097 1.377 . S
C1082 C1080 1.389 1_656 S
C1082 C1083 1.524 . S
C1082 C1096 1.377 . S
C1083 C1082 1.524 . S
C1083 C1084 1.397 . S
C1083 C1088 1.363 . S
C1084 H1061 0.950 1_655 S
C1084 C1083 1.397 . S
C1084 C1085 1.334 . S
C1085 H1062 0.950 . S
C1085 C1084 1.334 . S
C1085 C1086 1.287 . S
C1086 C1085 1.287 . S
C1086 C1087 1.524 . S
C1086 H1105 0.913 . S
C1087 H1063 0.950 . S
C1087 C1086 1.524 . S
C1087 C1088 1.415 . S
C1088 H1064 0.950 . S
C1088 C1083 1.363 . S
C1088 C1087 1.415 . S
C1089 H1065 0.951 1_655 S
C1089 C1090 1.366 . S
C1089 C1091 1.388 1_655 S
C1090 C1089 1.366 . S
C1090 C1094 1.385 . S
C1091 H1066 0.951 . S
C1091 C1089 1.388 1_455 S
C1091 C1092 1.366 1_455 S
C1092 C1091 1.366 1_655 S
C1092 C1093 1.414 . S
C1092 C1095 1.499 . S
C1093 H1067 0.950 . S
C1093 C1092 1.414 . S
C1093 C1094 1.374 . S
C1094 H1068 0.950 . S
C1094 C1090 1.385 . S
C1094 C1093 1.374 . S
C1095 C1092 1.499 . S
C1095 C1096 1.373 . S
C1095 C1097 1.389 1_656 S
C1096 H1069 0.950 . S
C1096 C1082 1.377 . S
C1096 C1095 1.373 . S
C1097 C1081 1.377 . S
C1097 C1095 1.389 1_454 S
C1097 C1098 1.524 . S
C1098 C1097 1.524 . S
C1098 C1099 1.397 . S
C1098 C1103 1.363 . S
C1099 H1070 0.950 1_455 S
C1099 C1098 1.397 . S
C1099 C1100 1.334 . S
C1100 H1071 0.950 . S
C1100 C1099 1.334 . S
C1100 C1101 1.287 . S
C1101 C1100 1.287 . S
C1101 C1102 1.524 . S
C1101 H1104 0.999 . S
C1102 H1072 0.950 . S
C1102 C1101 1.524 . S
C1102 C1103 1.415 . S
C1103 H1073 0.950 . S
C1103 C1098 1.363 . S
C1103 C1102 1.415 . S
H1104 C1101 0.999 . S
H1105 C1086 0.913 . S
H1106 C1124 0.951 . S
H1107 C1126 0.951 . S
H1108 C1128 0.950 . S
H1109 C1129 0.950 . S
H1110 C1131 0.950 . S
H1111 C1134 0.950 . S
H1112 C1135 0.950 . S
H1113 C1137 0.950 . S
H1114 C1138 0.950 . S
H1115 C1139 0.951 . S
H1116 C1141 0.951 . S
H1117 C1143 0.950 . S
H1118 C1144 0.950 . S
H1119 C1146 0.950 . S
H1120 C1149 0.950 . S
H1121 C1150 0.950 . S
H1122 C1152 0.950 . S
H1123 C1153 0.950 . S
C1124 H1106 0.951 . S
C1124 C1125 1.366 . S
C1124 C1126 1.388 . S
C1125 C1124 1.366 . S
C1125 C1129 1.385 . S
C1126 H1107 0.951 . S
C1126 C1124 1.388 . S
C1126 C1127 1.366 . S
C1127 C1126 1.366 . S
C1127 C1128 1.414 . S
C1127 C1130 1.499 . S
C1128 H1108 0.950 . S
C1128 C1127 1.414 . S
C1128 C1129 1.374 . S
C1129 H1109 0.950 . S
C1129 C1125 1.385 . S
C1129 C1128 1.374 . S
C1130 C1127 1.499 . S
C1130 C1131 1.373 . S
C1130 C1132 1.389 1_554 S
C1131 H1110 0.950 . S
C1131 C1130 1.373 . S
C1131 C1147 1.377 . S
C1132 C1130 1.389 1_556 S
C1132 C1133 1.524 . S
C1132 C1146 1.377 . S
C1133 C1132 1.524 . S
C1133 C1134 1.397 . S
C1133 C1138 1.363 . S
C1134 H1111 0.950 . S
C1134 C1133 1.397 . S
C1134 C1135 1.334 . S
C1135 H1112 0.950 . S
C1135 C1134 1.334 . S
C1135 C1136 1.287 . S
C1136 C1135 1.287 . S
C1136 C1137 1.524 . S
C1136 H1155 0.913 . S
C1137 H1113 0.950 . S
C1137 C1136 1.524 . S
C1137 C1138 1.415 . S
C1138 H1114 0.950 . S
C1138 C1133 1.363 . S
C1138 C1137 1.415 . S
C1139 H1115 0.951 . S
C1139 C1140 1.366 . S
C1139 C1141 1.388 . S
C1140 C1139 1.366 . S
C1140 C1144 1.385 . S
C1141 H1116 0.951 . S
C1141 C1139 1.388 . S
C1141 C1142 1.366 . S
C1142 C1141 1.366 . S
C1142 C1143 1.414 . S
C1142 C1145 1.499 . S
C1143 H1117 0.950 . S
C1143 C1142 1.414 . S
C1143 C1144 1.374 . S
C1144 H1118 0.950 . S
C1144 C1140 1.385 . S
C1144 C1143 1.374 . S
C1145 C1142 1.499 . S
C1145 C1146 1.373 . S
C1145 C1147 1.389 1_556 S
C1146 H1119 0.950 . S
C1146 C1132 1.377 . S
C1146 C1145 1.373 . S
C1147 C1131 1.377 . S
C1147 C1145 1.389 1_554 S
C1147 C1148 1.524 . S
C1148 C1147 1.524 . S
C1148 C1149 1.397 . S
C1148 C1153 1.363 . S
C1149 H1120 0.950 . S
C1149 C1148 1.397 . S
C1149 C1150 1.334 . S
C1150 H1121 0.950 . S
C1150 C1149 1.334 . S
C1150 C1151 1.287 . S
C1151 C1150 1.287 . S
C1151 C1152 1.524 . S
C1151 H1154 0.999 . S
C1152 H1122 0.950 . S
C1152 C1151 1.524 . S
C1152 C1153 1.415 . S
C1153 H1123 0.950 . S
C1153 C1148 1.363 . S
C1153 C1152 1.415 . S
H1154 C1151 0.999 . S
H1155 C1136 0.913 . S
H1156 C1174 0.951 1_545 S
H1157 C1176 0.951 . S
H1158 C1178 0.950 . S
H1159 C1179 0.950 . S
H1160 C1181 0.950 . S
H1161 C1184 0.950 1_565 S
H1162 C1185 0.950 . S
H1163 C1187 0.950 . S
H1164 C1188 0.950 . S
H1165 C1189 0.951 1_565 S
H1166 C1191 0.951 . S
H1167 C1193 0.950 . S
H1168 C1194 0.950 . S
H1169 C1196 0.950 . S
H1170 C1199 0.950 1_545 S
H1171 C1200 0.950 . S
H1172 C1202 0.950 . S
H1173 C1203 0.950 . S
C1174 H1156 0.951 1_565 S
C1174 C1175 1.366 . S
C1174 C1176 1.388 1_565 S
C1175 C1174 1.366 . S
C1175 C1179 1.385 . S
C1176 H1157 0.951 . S
C1176 C1174 1.388 1_545 S
C1176 C1177 1.366 1_545 S
C1177 C1176 1.366 1_565 S
C1177 C1178 1.414 . S
C1177 C1180 1.499 . S
C1178 H1158 0.950 . S
C1178 C1177 1.414 . S
C1178 C1179 1.374 . S
C1179 H1159 0.950 . S
C1179 C1175 1.385 . S
C1179 C1178 1.374 . S
C1180 C1177 1.499 . S
C1180 C1181 1.373 . S
C1180 C1182 1.389 1_564 S
C1181 H1160 0.950 . S
C1181 C1180 1.373 . S
C1181 C1197 1.377 . S
C1182 C1180 1.389 1_546 S
C1182 C1183 1.524 . S
C1182 C1196 1.377 . S
C1183 C1182 1.524 . S
C1183 C1184 1.397 . S
C1183 C1188 1.363 . S
C1184 H1161 0.950 1_545 S
C1184 C1183 1.397 . S
C1184 C1185 1.334 . S
C1185 H1162 0.950 . S
C1185 C1184 1.334 . S
C1185 C1186 1.287 . S
C1186 C1185 1.287 . S
C1186 C1187 1.524 . S
C1186 H1205 0.913 . S
C1187 H1163 0.950 . S
C1187 C1186 1.524 . S
C1187 C1188 1.415 . S
C1188 H1164 0.950 . S
C1188 C1183 1.363 . S
C1188 C1187 1.415 . S
C1189 H1165 0.951 1_545 S
C1189 C1190 1.366 . S
C1189 C1191 1.388 1_545 S
C1190 C1189 1.366 . S
C1190 C1194 1.385 . S
C1191 H1166 0.951 . S
C1191 C1189 1.388 1_565 S
C1191 C1192 1.366 1_565 S
C1192 C1191 1.366 1_545 S
C1192 C1193 1.414 . S
C1192 C1195 1.499 . S
C1193 H1167 0.950 . S
C1193 C1192 1.414 . S
C1193 C1194 1.374 . S
C1194 H1168 0.950 . S
C1194 C1190 1.385 . S
C1194 C1193 1.374 . S
C1195 C1192 1.499 . S
C1195 C1196 1.373 . S
C1195 C1197 1.389 1_546 S
C1196 H1169 0.950 . S
C1196 C1182 1.377 . S
C1196 C1195 1.373 . S
C1197 C1181 1.377 . S
C1197 C1195 1.389 1_564 S
C1197 C1198 1.524 . S
C1198 C1197 1.524 . S
C1198 C1199 1.397 . S
C1198 C1203 1.363 . S
C1199 H1170 0.950 1_565 S
C1199 C1198 1.397 . S
C1199 C1200 1.334 . S
C1200 H1171 0.950 . S
C1200 C1199 1.334 . S
C1200 C1201 1.287 . S
C1201 C1200 1.287 . S
C1201 C1202 1.524 . S
C1201 H1204 0.999 . S
C1202 H1172 0.950 . S
C1202 C1201 1.524 . S
C1202 C1203 1.415 . S
C1203 H1173 0.950 . S
C1203 C1198 1.363 . S
C1203 C1202 1.415 . S
H1204 C1201 0.999 . S
H1205 C1186 0.913 . S
H1206 C1224 0.951 1_545 S
H1207 C1226 0.951 . S
H1208 C1228 0.950 . S
H1209 C1229 0.950 . S
H1210 C1231 0.950 . S
H1211 C1234 0.950 . S
H1212 C1235 0.950 . S
H1213 C1237 0.950 . S
H1214 C1238 0.950 . S
H1215 C1239 0.951 1_565 S
H1216 C1241 0.951 . S
H1217 C1243 0.950 . S
H1218 C1244 0.950 . S
H1219 C1246 0.950 . S
H1220 C1249 0.950 . S
H1221 C1250 0.950 . S
H1222 C1252 0.950 . S
H1223 C1253 0.950 . S
C1224 H1206 0.951 1_565 S
C1224 C1225 1.366 . S
C1224 C1226 1.388 1_565 S
C1225 C1224 1.366 . S
C1225 C1229 1.385 . S
C1226 H1207 0.951 . S
C1226 C1224 1.388 1_545 S
C1226 C1227 1.366 1_545 S
C1227 C1226 1.366 1_565 S
C1227 C1228 1.414 . S
C1227 C1230 1.499 . S
C1228 H1208 0.950 . S
C1228 C1227 1.414 . S
C1228 C1229 1.374 . S
C1229 H1209 0.950 . S
C1229 C1225 1.385 . S
C1229 C1228 1.374 . S
C1230 C1227 1.499 . S
C1230 C1231 1.373 . S
C1230 C1232 1.389 1_565 S
C1231 H1210 0.950 . S
C1231 C1230 1.373 . S
C1231 C1247 1.377 . S
C1232 C1230 1.389 1_545 S
C1232 C1233 1.524 . S
C1232 C1246 1.377 . S
C1233 C1232 1.524 . S
C1233 C1234 1.397 . S
C1233 C1238 1.363 . S
C1234 H1211 0.950 . S
C1234 C1233 1.397 . S
C1234 C1235 1.334 . S
C1235 H1212 0.950 . S
C1235 C1234 1.334 . S
C1235 C1236 1.287 . S
C1236 C1235 1.287 . S
C1236 C1237 1.524 . S
C1236 H1255 0.913 . S
C1237 H1213 0.950 . S
C1237 C1236 1.524 . S
C1237 C1238 1.415 . S
C1238 H1214 0.950 . S
C1238 C1233 1.363 . S
C1238 C1237 1.415 . S
C1239 H1215 0.951 1_545 S
C1239 C1240 1.366 . S
C1239 C1241 1.388 1_545 S
C1240 C1239 1.366 . S
C1240 C1244 1.385 . S
C1241 H1216 0.951 . S
C1241 C1239 1.388 1_565 S
C1241 C1242 1.366 1_565 S
C1242 C1241 1.366 1_545 S
C1242 C1243 1.414 . S
C1242 C1245 1.499 . S
C1243 H1217 0.950 . S
C1243 C1242 1.414 . S
C1243 C1244 1.374 . S
C1244 H1218 0.950 . S
C1244 C1240 1.385 . S
C1244 C1243 1.374 . S
C1245 C1242 1.499 . S
C1245 C1246 1.373 . S
C1245 C1247 1.389 1_545 S
C1246 H1219 0.950 . S
C1246 C1232 1.377 . S
C1246 C1245 1.373 . S
C1247 C1231 1.377 . S
C1247 C1245 1.389 1_565 S
C1247 C1248 1.524 . S
C1248 C1247 1.524 . S
C1248 C1249 1.397 . S
C1248 C1253 1.363 . S
C1249 H1220 0.950 . S
C1249 C1248 1.397 . S
C1249 C1250 1.334 . S
C1250 H1221 0.950 . S
C1250 C1249 1.334 . S
C1250 C1251 1.287 . S
C1251 C1250 1.287 . S
C1251 C1252 1.524 . S
C1251 H1254 0.999 . S
C1252 H1222 0.950 . S
C1252 C1251 1.524 . S
C1252 C1253 1.415 . S
C1253 H1223 0.950 . S
C1253 C1248 1.363 . S
C1253 C1252 1.415 . S
H1254 C1251 0.999 . S
H1255 C1236 0.913 . S
H1256 C1274 0.951 1_455 S
H1257 C1276 0.965 . S
H1258 C1278 0.950 . S
H1259 C1279 0.950 . S
H1260 C1281 0.950 . S
H1261 C1284 0.950 . S
H1262 C1285 0.950 . S
H1263 C1287 0.950 . S
H1264 C1288 0.950 . S
H1265 C1289 0.951 1_655 S
H1266 C1291 0.965 . S
H1267 C1293 0.950 . S
H1268 C1294 0.950 . S
H1269 C1296 0.950 . S
H1270 C1299 0.950 . S
H1271 C1300 0.950 . S
H1272 C1302 0.950 . S
H1273 C1303 0.950 . S
C1274 H1256 0.951 1_655 S
C1274 C1275 1.366 . S
C1274 C1276 1.393 1_655 S
C1275 C1274 1.366 . S
C1275 C1279 1.385 . S
C1276 H1257 0.965 . S
C1276 C1274 1.393 1_455 S
C1276 C1277 1.347 1_455 S
C1277 C1276 1.347 1_655 S
C1277 C1278 1.414 . S
C1277 C1280 1.499 . S
C1278 H1258 0.950 . S
C1278 C1277 1.414 . S
C1278 C1279 1.374 . S
C1279 H1259 0.950 . S
C1279 C1275 1.385 . S
C1279 C1278 1.374 . S
C1280 C1277 1.499 . S
C1280 C1281 1.373 . S
C1280 C1282 1.389 1_655 S
C1281 H1260 0.950 . S
C1281 C1280 1.373 . S
C1281 C1297 1.377 . S
C1282 C1280 1.389 1_455 S
C1282 C1283 1.524 . S
C1282 C1296 1.377 . S
C1283 C1282 1.524 . S
C1283 C1284 1.397 1_455 S
C1283 C1288 1.363 . S
C1284 H1261 0.950 . S
C1284 C1283 1.397 1_655 S
C1284 C1285 1.334 . S
C1285 H1262 0.950 . S
C1285 C1284 1.334 . S
C1285 C1286 1.287 . S
C1286 C1285 1.287 . S
C1286 C1287 1.524 1_655 S
C1286 H1305 0.913 . S
C1287 H1263 0.950 . S
C1287 C1286 1.524 1_455 S
C1287 C1288 1.415 . S
C1288 H1264 0.950 . S
C1288 C1283 1.363 . S
C1288 C1287 1.415 . S
C1289 H1265 0.951 1_455 S
C1289 C1290 1.366 . S
C1289 C1291 1.393 1_455 S
C1290 C1289 1.366 . S
C1290 C1294 1.385 . S
C1291 H1266 0.965 . S
C1291 C1289 1.393 1_655 S
C1291 C1292 1.347 1_655 S
C1292 C1291 1.347 1_455 S
C1292 C1293 1.414 . S
C1292 C1295 1.499 . S
C1293 H1267 0.950 . S
C1293 C1292 1.414 . S
C1293 C1294 1.374 . S
C1294 H1268 0.950 . S
C1294 C1290 1.385 . S
C1294 C1293 1.374 . S
C1295 C1292 1.499 . S
C1295 C1296 1.373 . S
C1295 C1297 1.389 1_455 S
C1296 H1269 0.950 . S
C1296 C1282 1.377 . S
C1296 C1295 1.373 . S
C1297 C1281 1.377 . S
C1297 C1295 1.389 1_655 S
C1297 C1298 1.524 . S
C1298 C1297 1.524 . S
C1298 C1299 1.397 1_655 S
C1298 C1303 1.363 . S
C1299 H1270 0.950 . S
C1299 C1298 1.397 1_455 S
C1299 C1300 1.334 . S
C1300 H1271 0.950 . S
C1300 C1299 1.334 . S
C1300 C1301 1.287 . S
C1301 C1300 1.287 . S
C1301 C1302 1.524 1_455 S
C1301 H1304 0.999 . S
C1302 H1272 0.950 . S
C1302 C1301 1.524 1_655 S
C1302 C1303 1.415 . S
C1303 H1273 0.950 . S
C1303 C1298 1.363 . S
C1303 C1302 1.415 . S
H1304 C1301 0.999 . S
H1305 C1286 0.913 . S
H1306 C1324 0.951 . S
H1307 C1326 0.951 . S
H1308 C1328 0.950 . S
H1309 C1329 0.950 . S
H1310 C1331 0.950 . S
H1311 C1334 0.950 . S
H1312 C1335 0.950 . S
H1313 C1337 0.950 . S
H1314 C1338 0.950 . S
H1315 C1339 0.951 . S
H1316 C1341 0.951 . S
H1317 C1343 0.950 . S
H1318 C1344 0.950 . S
H1319 C1346 0.950 . S
H1320 C1349 0.950 . S
H1321 C1350 0.950 . S
H1322 C1352 0.950 . S
H1323 C1353 0.950 . S
C1324 H1306 0.951 . S
C1324 C1325 1.366 . S
C1324 C1326 1.388 . S
C1325 C1324 1.366 . S
C1325 C1329 1.385 . S
C1326 H1307 0.951 . S
C1326 C1324 1.388 . S
C1326 C1327 1.366 . S
C1327 C1326 1.366 . S
C1327 C1328 1.414 . S
C1327 C1330 1.499 . S
C1328 H1308 0.950 . S
C1328 C1327 1.414 . S
C1328 C1329 1.374 . S
C1329 H1309 0.950 . S
C1329 C1325 1.385 . S
C1329 C1328 1.374 . S
C1330 C1327 1.499 . S
C1330 C1331 1.373 . S
C1330 C1332 1.389 . S
C1331 H1310 0.950 . S
C1331 C1330 1.373 . S
C1331 C1347 1.377 . S
C1332 C1330 1.389 . S
C1332 C1333 1.524 . S
C1332 C1346 1.377 . S
C1333 C1332 1.524 . S
C1333 C1334 1.397 . S
C1333 C1338 1.363 . S
C1334 H1311 0.950 . S
C1334 C1333 1.397 . S
C1334 C1335 1.334 . S
C1335 H1312 0.950 . S
C1335 C1334 1.334 . S
C1335 C1336 1.287 . S
C1336 C1335 1.287 . S
C1336 C1337 1.524 . S
C1336 H1355 0.913 . S
C1337 H1313 0.950 . S
C1337 C1336 1.524 . S
C1337 C1338 1.415 . S
C1338 H1314 0.950 . S
C1338 C1333 1.363 . S
C1338 C1337 1.415 . S
C1339 H1315 0.951 . S
C1339 C1340 1.366 . S
C1339 C1341 1.388 . S
C1340 C1339 1.366 . S
C1340 C1344 1.385 . S
C1341 H1316 0.951 . S
C1341 C1339 1.388 . S
C1341 C1342 1.366 . S
C1342 C1341 1.366 . S
C1342 C1343 1.414 . S
C1342 C1345 1.499 . S
C1343 H1317 0.950 . S
C1343 C1342 1.414 . S
C1343 C1344 1.374 . S
C1344 H1318 0.950 . S
C1344 C1340 1.385 . S
C1344 C1343 1.374 . S
C1345 C1342 1.499 . S
C1345 C1346 1.373 . S
C1345 C1347 1.389 . S
C1346 H1319 0.950 . S
C1346 C1332 1.377 . S
C1346 C1345 1.373 . S
C1347 C1331 1.377 . S
C1347 C1345 1.389 . S
C1347 C1348 1.524 . S
C1348 C1347 1.524 . S
C1348 C1349 1.397 . S
C1348 C1353 1.363 . S
C1349 H1320 0.950 . S
C1349 C1348 1.397 . S
C1349 C1350 1.334 . S
C1350 H1321 0.950 . S
C1350 C1349 1.334 . S
C1350 C1351 1.287 . S
C1351 C1350 1.287 . S
C1351 C1352 1.524 . S
C1351 H1354 0.999 . S
C1352 H1322 0.950 . S
C1352 C1351 1.524 . S
C1352 C1353 1.415 . S
C1353 H1323 0.950 . S
C1353 C1348 1.363 . S
C1353 C1352 1.415 . S
H1354 C1351 0.999 . S
H1355 C1336 0.913 . S
C175 C8 0.474 . S
C190 C96 0.512 . S
C225 C21 0.473 . S
C240 C109 0.512 . S
C275 C34 0.474 . S
C290 C83 0.512 . S
C325 C148 0.509 . S
C340 C47 0.472 . S
C375 C60 0.471 . S
C390 C122 0.509 . S
C425 C135 0.511 . S
C440 C73 0.474 . S
C475 C18 0.511 . S
C490 C86 0.474 . S
C525 C99 0.474 . S
C540 C31 0.512 . S
C575 C5 0.510 . S
C590 C112 0.474 . S
C625 C125 0.474 . S
C640 C70 0.512 . S
C675 C138 0.473 . S
C690 C44 0.510 . S
C725 C57 0.509 . S
C740 C151 0.472 . S
C775 C65 1.685 . S
C790 C0 1.685 . S
C825 C13 1.685 . S
C840 C39 1.685 . S
C875 C26 1.686 . S
C890 C52 1.686 . S
C925 C78 1.686 . S
C940 C143 1.686 . S
C975 C91 1.686 . S
C990 C117 1.686 . S
C1025 C104 1.686 . S
C1040 C130 1.686 . S
C1075 C10 1.482 . S
C1090 C88 1.482 . S
C1125 C23 1.481 . S
C1140 C101 1.481 . S
C1175 C36 1.482 . S
C1190 C114 1.482 . S
C1225 C49 1.481 . S
C1240 C127 1.481 . S
C1275 C140 1.481 . S
C1290 C62 1.481 . S
C1325 C75 1.481 . S
C1340 C153 1.481 . S
