# Generated by pormake.
# Topology bcu-h, (3)-cn, num edge types: 1
# Building blocks:
#     Node 0, Type 0, BuildingBlock: OLANEW_clean_sbu_2, # of connection points: 3
#     Node 1, Type 0, BuildingBlock: OLANEW_clean_sbu_2, # of connection points: 3
#     Node 2, Type 0, BuildingBlock: OLANEW_clean_sbu_2, # of connection points: 3
#     Node 3, Type 0, BuildingBlock: OLANEW_clean_sbu_2, # of connection points: 3
#     Node 4, Type 0, BuildingBlock: OLANEW_clean_sbu_2, # of connection points: 3
#     Node 5, Type 0, BuildingBlock: OLANEW_clean_sbu_2, # of connection points: 3
#     Node 6, Type 0, BuildingBlock: OLANEW_clean_sbu_2, # of connection points: 3
#     Node 7, Type 0, BuildingBlock: OLANEW_clean_sbu_2, # of connection points: 3
#     Node 8, Type 0, BuildingBlock: OLANEW_clean_sbu_2, # of connection points: 3
#     Node 9, Type 0, BuildingBlock: OLANEW_clean_sbu_2, # of connection points: 3
#     Node 10, Type 0, BuildingBlock: OLANEW_clean_sbu_2, # of connection points: 3
#     Node 11, Type 0, BuildingBlock: OLANEW_clean_sbu_2, # of connection points: 3
#     Node 12, Type 0, BuildingBlock: OLANEW_clean_sbu_2, # of connection points: 3
#     Node 13, Type 0, BuildingBlock: OLANEW_clean_sbu_2, # of connection points: 3
#     Node 14, Type 0, BuildingBlock: OLANEW_clean_sbu_2, # of connection points: 3
#     Node 15, Type 0, BuildingBlock: OLANEW_clean_sbu_2, # of connection points: 3
#     Edge 16, Type (0, 0), BuildingBlock: AJUNOK_clean_linker_0, # of connection points: 2
#     Edge 17, Type (0, 0), BuildingBlock: AJUNOK_clean_linker_0, # of connection points: 2
#     Edge 18, Type (0, 0), BuildingBlock: AJUNOK_clean_linker_0, # of connection points: 2
#     Edge 19, Type (0, 0), BuildingBlock: AJUNOK_clean_linker_0, # of connection points: 2
#     Edge 20, Type (0, 0), BuildingBlock: AJUNOK_clean_linker_0, # of connection points: 2
#     Edge 21, Type (0, 0), BuildingBlock: AJUNOK_clean_linker_0, # of connection points: 2
#     Edge 22, Type (0, 0), BuildingBlock: AJUNOK_clean_linker_0, # of connection points: 2
#     Edge 23, Type (0, 0), BuildingBlock: AJUNOK_clean_linker_0, # of connection points: 2
#     Edge 24, Type (0, 0), BuildingBlock: AJUNOK_clean_linker_0, # of connection points: 2
#     Edge 25, Type (0, 0), BuildingBlock: AJUNOK_clean_linker_0, # of connection points: 2
#     Edge 26, Type (0, 0), BuildingBlock: AJUNOK_clean_linker_0, # of connection points: 2
#     Edge 27, Type (0, 0), BuildingBlock: AJUNOK_clean_linker_0, # of connection points: 2
#     Edge 28, Type (0, 0), BuildingBlock: AJUNOK_clean_linker_0, # of connection points: 2
#     Edge 29, Type (0, 0), BuildingBlock: AJUNOK_clean_linker_0, # of connection points: 2
#     Edge 30, Type (0, 0), BuildingBlock: AJUNOK_clean_linker_0, # of connection points: 2
#     Edge 31, Type (0, 0), BuildingBlock: AJUNOK_clean_linker_0, # of connection points: 2
#     Edge 32, Type (0, 0), BuildingBlock: AJUNOK_clean_linker_0, # of connection points: 2
#     Edge 33, Type (0, 0), BuildingBlock: AJUNOK_clean_linker_0, # of connection points: 2
#     Edge 34, Type (0, 0), BuildingBlock: AJUNOK_clean_linker_0, # of connection points: 2
#     Edge 35, Type (0, 0), BuildingBlock: AJUNOK_clean_linker_0, # of connection points: 2
#     Edge 36, Type (0, 0), BuildingBlock: AJUNOK_clean_linker_0, # of connection points: 2
#     Edge 37, Type (0, 0), BuildingBlock: AJUNOK_clean_linker_0, # of connection points: 2
#     Edge 38, Type (0, 0), BuildingBlock: AJUNOK_clean_linker_0, # of connection points: 2
#     Edge 39, Type (0, 0), BuildingBlock: AJUNOK_clean_linker_0, # of connection points: 2
# Relax obj value: 0.004
# Max RMSD: 0.045
# Mean RMSD: 0.045
data_MOF--net-bcu-h--node1-OLANEW_clean_sbu_2--edge1-AJUNOK_clean_linker_0
_symmetry_space_group_name_H-M    P1
_symmetry_Int_Tables_number       1
_symmetry_cell_setting            triclinic
loop_
_symmetry_equiv_pos_as_xyz
'x, y, z'
_cell_length_a     44.450904
_cell_length_b     44.450564
_cell_length_c     34.319686
_cell_angle_alpha  90.003318
_cell_angle_beta   90.000121
_cell_angle_gamma 89.989215
loop_
_atom_site_label
_atom_site_type_symbol
_atom_site_fract_x
_atom_site_fract_y
_atom_site_fract_z
_atom_type_partial_charge
O0 O 0.6159 0.01982 0.18281 0.0
Cd1 Cd 0.64602 0.00592 0.1257 0.0
O2 O 0.60209 0.06295 0.15704 0.0
Cd3 Cd 0.63669 0.05936 0.1124 0.0
O4 O 0.68518 0.05969 0.10266 0.0
C5 C 0.6992 0.08327 0.11301 0.0
O6 O 0.68358 0.10636 0.12582 0.0
C7 C 0.60038 0.04385 0.18457 0.0
C8 C 0.61101 0.98118 0.06621 0.0
O9 O 0.6252 0.96431 0.09029 0.0
O10 O 0.61345 0.00973 0.07017 0.0
O11 O 0.44981 0.58489 0.66206 0.0
Cd12 Cd 0.45882 0.61594 0.60435 0.0
O13 O 0.47954 0.6108 0.70066 0.0
Cd14 Cd 0.48751 0.6459 0.65761 0.0
O15 O 0.47909 0.69252 0.64111 0.0
C16 C 0.45177 0.70041 0.63717 0.0
O17 O 0.43072 0.67985 0.64072 0.0
C18 C 0.46187 0.5887 0.69529 0.0
C19 C 0.49624 0.58778 0.55025 0.0
O20 O 0.46795 0.5823 0.55111 0.0
O21 O 0.50688 0.60644 0.57516 0.0
O22 O 0.88699 0.49592 0.1824 0.0
Cd23 Cd 0.85645 0.51289 0.12718 0.0
O24 O 0.8986 0.4537 0.1526 0.0
Cd25 Cd 0.86229 0.45931 0.11062 0.0
O26 O 0.81387 0.45584 0.10125 0.0
C27 C 0.80209 0.43015 0.10673 0.0
O28 O 0.81982 0.40731 0.11472 0.0
C29 C 0.90198 0.47154 0.18125 0.0
C30 C 0.89243 0.53792 0.06893 0.0
O31 O 0.87897 0.55465 0.09385 0.0
O32 O 0.88865 0.50942 0.07129 0.0
O33 O 0.00252 0.88303 0.67464 0.0
Cd34 Cd 0.98323 0.85148 0.62174 0.0
O35 O 0.04456 0.89173 0.64291 0.0
Cd36 Cd 0.03662 0.85451 0.60296 0.0
O37 O 0.03983 0.80576 0.59689 0.0
C38 C 0.06565 0.79424 0.60237 0.0
O39 O 0.0886 0.81231 0.6083 0.0
C40 C 0.02757 0.89674 0.67203 0.0
C41 C 0.9563 0.88629 0.56373 0.0
O42 O 0.94047 0.87374 0.59036 0.0
O43 O 0.98485 0.88236 0.56448 0.0
O44 O 0.08429 0.94223 0.8354 0.0
Cd45 Cd 0.11631 0.95115 0.89222 0.0
O46 O 0.11075 0.97019 0.79524 0.0
Cd47 Cd 0.14645 0.97839 0.8374 0.0
O48 O 0.19321 0.97171 0.85453 0.0
C49 C 0.20164 0.94508 0.86244 0.0
O50 O 0.18148 0.92347 0.86236 0.0
C51 C 0.08812 0.95343 0.80168 0.0
C52 C 0.08756 0.98642 0.94814 0.0
O53 O 0.10582 0.99818 0.92356 0.0
O54 O 0.08304 0.95799 0.94638 0.0
O55 O 0.52784 0.11097 0.32544 0.0
Cd56 Cd 0.51339 0.14224 0.38125 0.0
O57 O 0.56845 0.09386 0.35464 0.0
Cd58 Cd 0.56527 0.12864 0.39914 0.0
O59 O 0.56622 0.17702 0.40979 0.0
C60 C 0.56651 0.1929 0.37899 0.0
O61 O 0.56591 0.17908 0.34514 0.0
C62 C 0.55055 0.09352 0.32572 0.0
C63 C 0.48387 0.10963 0.43932 0.0
O64 O 0.46904 0.12452 0.41376 0.0
O65 O 0.51264 0.10998 0.43729 0.0
O66 O 0.38961 0.50876 0.8265 0.0
Cd67 Cd 0.35741 0.49215 0.88028 0.0
O68 O 0.40134 0.55061 0.85701 0.0
Cd69 Cd 0.36466 0.5451 0.89847 0.0
O70 O 0.31617 0.549 0.90685 0.0
C71 C 0.30454 0.57435 0.89874 0.0
O72 O 0.32242 0.59658 0.88874 0.0
C73 C 0.40483 0.53297 0.82816 0.0
C74 C 0.39059 0.46319 0.93824 0.0
O75 O 0.38893 0.49194 0.937 0.0
O76 O 0.37659 0.44811 0.91207 0.0
O77 O 0.93982 0.42456 0.35183 0.0
Cd78 Cd 0.94533 0.39639 0.41264 0.0
O79 O 0.96996 0.39547 0.31791 0.0
Cd80 Cd 0.97571 0.36263 0.36448 0.0
O81 O 0.96948 0.3159 0.38216 0.0
C82 C 0.96326 0.29818 0.35423 0.0
O83 O 0.96181 0.30932 0.3188 0.0
C84 C 0.95291 0.41836 0.31987 0.0
C85 C 0.98642 0.42255 0.46382 0.0
O86 O 0.99433 0.40101 0.44119 0.0
O87 O 0.95913 0.43173 0.46216 0.0
O88 O 0.49011 0.91445 0.83244 0.0
Cd89 Cd 0.50009 0.89245 0.89661 0.0
O90 O 0.4438 0.91457 0.85399 0.0
Cd91 Cd 0.39575 0.92446 0.84974 0.0
O92 O 0.34783 0.93506 0.85111 0.0
C93 C 0.32968 0.91722 0.86798 0.0
O94 O 0.34038 0.89263 0.88407 0.0
C95 C 0.46235 0.91938 0.82649 0.0
C96 C 0.53728 0.92502 0.9466 0.0
O97 O 0.54786 0.90369 0.92552 0.0
O98 O 0.50928 0.93141 0.94332 0.0
O99 O 0.58918 0.48134 0.32558 0.0
Cd100 Cd 0.61052 0.4925 0.38971 0.0
O101 O 0.58739 0.43509 0.34687 0.0
Cd102 Cd 0.58153 0.38625 0.34425 0.0
O103 O 0.57671 0.3374 0.34643 0.0
C104 C 0.57505 0.32392 0.37903 0.0
O105 O 0.57613 0.33993 0.41116 0.0
C106 C 0.58295 0.45385 0.31944 0.0
C107 C 0.57283 0.52496 0.43929 0.0
O108 O 0.59268 0.53831 0.41844 0.0
O109 O 0.5704 0.49633 0.43607 0.0
O110 O 0.01682 0.60041 0.84011 0.0
Cd111 Cd 0.00778 0.62515 0.90273 0.0
O112 O 0.06212 0.59404 0.86307 0.0
Cd113 Cd 0.11001 0.58252 0.86462 0.0
O114 O 0.15752 0.57244 0.87429 0.0
C115 C 0.17552 0.5938 0.88213 0.0
O116 O 0.16499 0.6214 0.8835 0.0
C117 C 0.04346 0.59076 0.83523 0.0
C118 C 0.96951 0.59404 0.95294 0.0
O119 O 0.95957 0.61542 0.93143 0.0
O120 O 0.99743 0.58714 0.95032 0.0
O121 O 0.89914 0.01383 0.33594 0.0
Cd122 Cd 0.87527 0.00808 0.39978 0.0
O123 O 0.90606 0.06022 0.35486 0.0
Cd124 Cd 0.91813 0.10774 0.34907 0.0
O125 O 0.92995 0.15526 0.34437 0.0
C126 C 0.93601 0.17072 0.37453 0.0
O127 O 0.93515 0.15757 0.40879 0.0
C128 C 0.90887 0.04012 0.32869 0.0
C129 C 0.90221 0.96625 0.44931 0.0
O130 O 0.87952 0.959 0.42827 0.0
O131 O 0.91259 0.99305 0.4462 0.0
O132 O 0.98659 0.08196 0.17583 0.0
Cd133 Cd 0.00143 0.10367 0.11323 0.0
O134 O 0.94223 0.07776 0.14898 0.0
Cd135 Cd 0.89351 0.07111 0.146 0.0
O136 O 0.8453 0.06609 0.13576 0.0
C137 C 0.82949 0.0894 0.12949 0.0
O138 O 0.84267 0.11586 0.13001 0.0
C139 C 0.95914 0.07428 0.17857 0.0
C140 C 0.02909 0.06322 0.06254 0.0
O141 O 0.04477 0.0809 0.08394 0.0
O142 O 0.00037 0.06447 0.06541 0.0
O143 O 0.4149 0.98795 0.66976 0.0
Cd144 Cd 0.39241 0.99792 0.60588 0.0
O145 O 0.41673 0.94191 0.6474 0.0
Cd146 Cd 0.42817 0.89416 0.65071 0.0
O147 O 0.43975 0.84649 0.64829 0.0
C148 C 0.42087 0.82781 0.63459 0.0
O149 O 0.39471 0.83785 0.6224 0.0
C150 C 0.42085 0.96032 0.67523 0.0
C151 C 0.42364 0.0365 0.55624 0.0
O152 O 0.40233 0.04632 0.57796 0.0
O153 O 0.43082 0.00865 0.55897 0.0
O154 O 0.51573 0.3987 0.16512 0.0
Cd155 Cd 0.50628 0.37411 0.10249 0.0
O156 O 0.56003 0.40791 0.14028 0.0
Cd157 Cd 0.60754 0.42076 0.13942 0.0
O158 O 0.65503 0.43143 0.1308 0.0
C159 C 0.67293 0.41053 0.12082 0.0
O160 O 0.66227 0.38315 0.11662 0.0
C161 C 0.5419 0.40983 0.16887 0.0
C162 C 0.46658 0.40404 0.05295 0.0
O163 O 0.45743 0.38269 0.07507 0.0
O164 O 0.49433 0.41172 0.05499 0.0
O165 O 0.09308 0.51116 0.68804 0.0
Cd166 Cd 0.1151 0.49417 0.62655 0.0
O167 O 0.08592 0.55389 0.65796 0.0
Cd168 Cd 0.07559 0.60177 0.65124 0.0
O169 O 0.06508 0.64871 0.6384 0.0
C170 C 0.0858 0.66604 0.62633 0.0
O171 O 0.11314 0.6552 0.62245 0.0
C172 C 0.08359 0.53812 0.68877 0.0
C173 C 0.07238 0.47201 0.57445 0.0
O174 O 0.0874 0.45419 0.59644 0.0
O175 O 0.07753 0.5003 0.57716 0.0
C176 C 0.58151 0.92562 0.99147 0.0
C177 C 0.5565 0.9406 0.97549 0.0
C178 C 0.59894 0.93891 0.02084 0.0
C179 C 0.59243 0.96796 0.03475 0.0
H180 H 0.58726 0.90311 0.98194 0.0
H181 H 0.61773 0.92633 0.03263 0.0
S182 S 0.53009 0.01721 0.00147 0.0
N183 N 0.52641 0.98629 0.97523 0.0
N184 N 0.55962 0.01159 0.02974 0.0
C185 C 0.56792 0.98349 0.01839 0.0
C186 C 0.54982 0.96972 0.98898 0.0
C187 C 0.50729 0.54488 0.50537 0.0
C188 C 0.516 0.57263 0.52155 0.0
C189 C 0.52582 0.52966 0.47883 0.0
C190 C 0.55349 0.54189 0.46679 0.0
H191 H 0.48619 0.53454 0.51376 0.0
H192 H 0.51829 0.50819 0.46751 0.0
S193 S 0.58629 0.61438 0.49964 0.0
N194 N 0.55404 0.61193 0.52328 0.0
N195 N 0.58856 0.58365 0.47278 0.0
C196 C 0.56226 0.56987 0.48225 0.0
C197 C 0.54363 0.58513 0.50981 0.0
C198 C 0.9248 0.59411 0.99703 0.0
C199 C 0.94957 0.57867 0.98117 0.0
C200 C 0.90651 0.58077 0.02547 0.0
C201 C 0.91186 0.55124 0.03844 0.0
H202 H 0.9199 0.61697 0.98809 0.0
H203 H 0.88794 0.59368 0.03724 0.0
S204 S 0.97319 0.50076 0.00507 0.0
N205 N 0.97825 0.53209 0.98006 0.0
N206 N 0.94339 0.50672 0.03275 0.0
C207 C 0.93616 0.53529 0.0222 0.0
C208 C 0.95516 0.5491 0.9938 0.0
C209 C 0.95896 0.92879 0.51621 0.0
C210 C 0.94224 0.9055 0.53355 0.0
C211 C 0.94586 0.94822 0.48886 0.0
C212 C 0.91574 0.94467 0.47714 0.0
H213 H 0.98219 0.93251 0.52447 0.0
H214 H 0.95948 0.96615 0.47678 0.0
S215 S 0.86262 0.88636 0.51261 0.0
N216 N 0.89413 0.87957 0.5365 0.0
N217 N 0.86971 0.9156 0.48441 0.0
C218 C 0.89896 0.92101 0.49356 0.0
C219 C 0.91214 0.90158 0.52198 0.0
C220 C 0.08588 0.03205 0.99058 0.0
C221 C 0.07235 0.0052 0.97782 0.0
C222 C 0.07201 0.0503 0.01864 0.0
C223 C 0.04376 0.04275 0.03432 0.0
H224 H 0.1075 0.03894 0.97904 0.0
H225 H 0.08326 0.07081 0.02752 0.0
S226 S 0.99882 0.97484 0.0106 0.0
N227 N 0.02926 0.97175 0.98332 0.0
N228 N 0.00284 0.00647 0.03531 0.0
C229 C 0.02994 0.016 0.02177 0.0
C230 C 0.04434 0.9971 0.99375 0.0
C231 C 0.46806 0.04917 0.51466 0.0
C232 C 0.43896 0.05637 0.52783 0.0
C233 C 0.48261 0.06688 0.48659 0.0
C234 C 0.46835 0.09205 0.46997 0.0
H235 H 0.47973 0.0297 0.52613 0.0
H236 H 0.50497 0.06038 0.47725 0.0
S237 S 0.39231 0.12075 0.49467 0.0
N238 N 0.39661 0.09083 0.52264 0.0
N239 N 0.4237 0.12366 0.46925 0.0
C240 C 0.43931 0.0996 0.48297 0.0
C241 C 0.42471 0.0819 0.5121 0.0
C242 C 0.4522 0.44845 0.01231 0.0
C243 C 0.44602 0.41901 0.02507 0.0
C244 C 0.43374 0.46278 0.98488 0.0
C245 C 0.40882 0.44796 0.96847 0.0
H246 H 0.47145 0.46057 0.02366 0.0
H247 H 0.43946 0.48542 0.97582 0.0
S248 S 0.38268 0.37085 0.99227 0.0
N249 N 0.41278 0.37573 0.01976 0.0
N250 N 0.37855 0.40241 0.96748 0.0
C251 C 0.40229 0.41857 0.98105 0.0
C252 C 0.42074 0.40419 0.00958 0.0
C253 C 0.05302 0.43053 0.5322 0.0
C254 C 0.05012 0.46011 0.54628 0.0
C255 C 0.03258 0.41878 0.50507 0.0
C256 C 0.00808 0.43592 0.49165 0.0
H257 H 0.07144 0.41641 0.54182 0.0
H258 H 0.03577 0.3959 0.495 0.0
S259 S 0.9902 0.51455 0.51976 0.0
N260 N 0.02092 0.50638 0.54466 0.0
N261 N 0.9821 0.48404 0.49439 0.0
C262 C 0.00478 0.46547 0.50569 0.0
C263 C 0.02592 0.47764 0.53278 0.0
C264 C 0.56196 0.075 0.21923 0.0
C265 C 0.58333 0.05165 0.22036 0.0
C266 C 0.54966 0.0869 0.25352 0.0
C267 C 0.55863 0.07623 0.29032 0.0
H268 H 0.5556 0.08511 0.1917 0.0
H269 H 0.53448 0.10588 0.25114 0.0
S270 S 0.6105 0.0125 0.30927 0.0
N271 N 0.61023 0.01592 0.26137 0.0
N272 N 0.58747 0.0387 0.32579 0.0
C273 C 0.57833 0.0515 0.29183 0.0
C274 C 0.59055 0.03907 0.25686 0.0
C275 C 0.44301 0.56765 0.79929 0.0
C276 C 0.42385 0.54268 0.79488 0.0
C277 C 0.45697 0.58105 0.76711 0.0
C278 C 0.45212 0.57024 0.72908 0.0
H279 H 0.44628 0.57782 0.82764 0.0
H280 H 0.47027 0.60112 0.77204 0.0
S281 S 0.40791 0.50248 0.70225 0.0
N282 N 0.40379 0.50534 0.74991 0.0
N283 N 0.42985 0.53074 0.68937 0.0
C284 C 0.43489 0.54389 0.72452 0.0
C285 C 0.42085 0.53005 0.75743 0.0
C286 C 0.92532 0.46011 0.28625 0.0
C287 C 0.9452 0.43549 0.28399 0.0
C288 C 0.91307 0.47313 0.25261 0.0
C289 C 0.92002 0.46189 0.21536 0.0
H290 H 0.91795 0.46855 0.31428 0.0
H291 H 0.89663 0.49093 0.25605 0.0
S292 S 0.97496 0.40148 0.19283 0.0
N293 N 0.97444 0.40317 0.24087 0.0
N294 N 0.95111 0.42748 0.17782 0.0
C295 C 0.94166 0.43892 0.21246 0.0
C296 C 0.95436 0.42579 0.2467 0.0
C297 C 0.06467 0.93349 0.69887 0.0
C298 C 0.03882 0.91573 0.70451 0.0
C299 C 0.07925 0.94734 0.73025 0.0
C300 C 0.0688 0.94377 0.76868 0.0
H301 H 0.07454 0.93573 0.67016 0.0
H302 H 0.09987 0.95953 0.72441 0.0
S303 S 0.99938 0.90349 0.79861 0.0
N304 N 0.00128 0.89836 0.75103 0.0
N305 N 0.0289 0.92421 0.81007 0.0
C306 C 0.04173 0.92795 0.77445 0.0
C307 C 0.02668 0.91402 0.74236 0.0
C308 C 0.46552 0.95414 0.76924 0.0
C309 C 0.45167 0.92968 0.78802 0.0
C310 C 0.45523 0.96428 0.73279 0.0
C311 C 0.43144 0.94964 0.71356 0.0
H312 H 0.48408 0.96578 0.78307 0.0
H313 H 0.4662 0.98341 0.71934 0.0
S314 S 0.38819 0.88416 0.75015 0.0
N315 N 0.41329 0.89086 0.78456 0.0
N316 N 0.39414 0.90974 0.71612 0.0
C317 C 0.41765 0.92501 0.73193 0.0
C318 C 0.42775 0.91505 0.76918 0.0
C319 C 0.54221 0.40868 0.24155 0.0
C320 C 0.55152 0.42252 0.20674 0.0
C321 C 0.55215 0.41916 0.27788 0.0
C322 C 0.57177 0.44389 0.28079 0.0
H323 H 0.5275 0.38925 0.24071 0.0
H324 H 0.54402 0.408 0.30382 0.0
S325 S 0.59948 0.49047 0.19848 0.0
N326 N 0.57871 0.46423 0.17759 0.0
N327 N 0.59825 0.4834 0.2457 0.0
C328 C 0.58021 0.45872 0.24623 0.0
C329 C 0.56998 0.44809 0.20924 0.0
C330 C 0.07588 0.55553 0.79647 0.0
C331 C 0.05257 0.57692 0.79764 0.0
C332 C 0.08549 0.54292 0.76114 0.0
C333 C 0.07206 0.55109 0.72559 0.0
H334 H 0.08653 0.54797 0.82303 0.0
H335 H 0.10384 0.52687 0.76167 0.0
S336 S 0.0072 0.60268 0.71309 0.0
N337 N 0.01463 0.60385 0.76021 0.0
N338 N 0.03187 0.57905 0.69416 0.0
C339 C 0.04776 0.57128 0.72644 0.0
C340 C 0.03813 0.58435 0.76238 0.0
C341 C 0.95722 0.07724 0.25108 0.0
C342 C 0.94694 0.06393 0.21638 0.0
C343 C 0.94513 0.06909 0.2873 0.0
C344 C 0.92225 0.04734 0.29023 0.0
H345 H 0.97443 0.09448 0.25022 0.0
H346 H 0.9541 0.07968 0.31318 0.0
S347 S 0.89051 0.00279 0.2085 0.0
N348 N 0.9151 0.02547 0.18758 0.0
N349 N 0.89155 0.01084 0.25547 0.0
C350 C 0.91272 0.03289 0.25588 0.0
C351 C 0.92516 0.04111 0.21899 0.0
C352 C 0.77862 0.11314 0.12501 0.0
C353 C 0.79655 0.08709 0.12303 0.0
C354 C 0.74732 0.11168 0.12082 0.0
C355 C 0.73258 0.08415 0.1141 0.0
H356 H 0.78873 0.13489 0.13063 0.0
H357 H 0.73458 0.13237 0.12334 0.0
S358 S 0.76928 0.00946 0.10414 0.0
N359 N 0.79732 0.03296 0.11232 0.0
N360 N 0.7385 0.03024 0.10418 0.0
C361 C 0.75028 0.05798 0.11091 0.0
C362 C 0.78221 0.05944 0.1155 0.0
C363 C 0.45781 0.78557 0.64099 0.0
C364 C 0.4283 0.79525 0.63291 0.0
C365 C 0.46538 0.75497 0.64101 0.0
C366 C 0.4437 0.73269 0.63329 0.0
H367 H 0.47529 0.80174 0.64772 0.0
H368 H 0.4883 0.74878 0.64812 0.0
S369 S 0.36348 0.746 0.60836 0.0
N370 N 0.37748 0.77996 0.61535 0.0
N371 N 0.39167 0.7225 0.6156 0.0
C372 C 0.41424 0.74202 0.62425 0.0
C373 C 0.40656 0.77325 0.624 0.0
C374 C 0.75677 0.39695 0.10913 0.0
C375 C 0.76892 0.42616 0.1075 0.0
C376 C 0.72575 0.39222 0.11273 0.0
C377 C 0.70552 0.4165 0.11521 0.0
H378 H 0.77134 0.37743 0.10806 0.0
H379 H 0.71769 0.36926 0.11434 0.0
S380 S 0.72553 0.49755 0.11051 0.0
N381 N 0.75807 0.47984 0.10717 0.0
N382 N 0.69977 0.47095 0.1142 0.0
C383 C 0.71724 0.44587 0.11281 0.0
C384 C 0.7489 0.4507 0.10883 0.0
C385 C 0.10385 0.71835 0.61331 0.0
C386 C 0.07968 0.69827 0.61811 0.0
C387 C 0.09899 0.74914 0.60734 0.0
C388 C 0.06974 0.76117 0.60555 0.0
H389 H 0.12686 0.7104 0.61495 0.0
H390 H 0.11845 0.76364 0.60457 0.0
S391 S 0.99851 0.71795 0.61397 0.0
N392 N 0.02523 0.69245 0.619 0.0
N393 N 0.01608 0.75028 0.60753 0.0
C394 C 0.04527 0.74123 0.60913 0.0
C395 C 0.05024 0.70984 0.61553 0.0
C396 C 0.25587 0.95931 0.85576 0.0
C397 C 0.2341 0.93804 0.86706 0.0
C398 C 0.28662 0.95242 0.85652 0.0
C399 C 0.29697 0.92407 0.86895 0.0
H400 H 0.24914 0.98128 0.84526 0.0
H401 H 0.30236 0.96949 0.84693 0.0
S402 S 0.24929 0.86097 0.90398 0.0
N403 N 0.22513 0.88781 0.89276 0.0
N404 N 0.2829 0.87492 0.89442 0.0
C405 C 0.2755 0.90285 0.88145 0.0
C406 C 0.24412 0.90982 0.88044 0.0
C407 C 0.57126 0.27413 0.34544 0.0
C408 C 0.57234 0.29059 0.38043 0.0
C409 C 0.56918 0.24272 0.34548 0.0
C410 C 0.5681 0.22627 0.38051 0.0
H411 H 0.57213 0.28552 0.31757 0.0
H412 H 0.56856 0.23129 0.31762 0.0
S413 S 0.56972 0.25846 0.48036 0.0
N414 N 0.5718 0.28799 0.45132 0.0
N415 N 0.5679 0.2289 0.45134 0.0
C416 C 0.56894 0.24238 0.41582 0.0
C417 C 0.57105 0.2745 0.41579 0.0
C418 C 0.22843 0.61222 0.88831 0.0
C419 C 0.20806 0.588 0.8884 0.0
C420 C 0.25942 0.60755 0.89251 0.0
C421 C 0.2714 0.57847 0.89734 0.0
H422 H 0.22052 0.63505 0.88421 0.0
H423 H 0.2741 0.62698 0.89154 0.0
S424 S 0.22758 0.50741 0.90192 0.0
N425 N 0.20199 0.53384 0.89528 0.0
N426 N 0.26022 0.52507 0.90343 0.0
C427 C 0.25123 0.55406 0.89858 0.0
C428 C 0.21961 0.55881 0.894 0.0
C429 C 0.94454 0.21643 0.33355 0.0
C430 C 0.94357 0.20317 0.37076 0.0
C431 C 0.95112 0.24698 0.32872 0.0
C432 C 0.95707 0.26574 0.36087 0.0
H433 H 0.94006 0.20318 0.30771 0.0
H434 H 0.95142 0.25592 0.29936 0.0
S435 S 0.95771 0.24226 0.46472 0.0
N436 N 0.9494 0.21125 0.44054 0.0
N437 N 0.96179 0.26873 0.43141 0.0
C438 C 0.95641 0.25282 0.39832 0.0
C439 C 0.94966 0.22157 0.40327 0.0
loop_
_geom_bond_atom_site_label_1
_geom_bond_atom_site_label_2
_geom_bond_distance
_geom_bond_site_symmetry_2
_ccdc_geom_bond_type
O0 Cd1 2.300 . S
O0 C7 1.275 . S
Cd1 O0 2.300 . S
Cd1 O9 2.381 . S
Cd1 O10 2.378 . S
O2 Cd3 2.385 . S
O2 C7 1.255 . S
Cd3 O2 2.385 . S
Cd3 O4 2.317 . S
O4 Cd3 2.317 . S
O4 C5 1.232 . S
C5 O4 1.232 . S
C5 O6 1.218 . S
O6 C5 1.218 . S
C7 O0 1.275 . S
C7 O2 1.255 . S
C8 O9 1.258 . S
C8 O10 1.256 . S
O9 Cd1 2.381 . S
O9 C8 1.258 . S
O10 Cd1 2.378 . S
O10 C8 1.256 . S
O11 Cd12 2.300 . S
O11 C18 1.275 . S
Cd12 O11 2.300 . S
Cd12 O20 2.381 . S
Cd12 O21 2.378 . S
O13 Cd14 2.385 . S
O13 C18 1.255 . S
Cd14 O13 2.385 . S
Cd14 O15 2.317 . S
O15 Cd14 2.317 . S
O15 C16 1.232 . S
C16 O15 1.232 . S
C16 O17 1.218 . S
O17 C16 1.218 . S
C18 O11 1.275 . S
C18 O13 1.255 . S
C19 O20 1.258 . S
C19 O21 1.256 . S
O20 Cd12 2.381 . S
O20 C19 1.258 . S
O21 Cd12 2.378 . S
O21 C19 1.256 . S
O22 Cd23 2.300 . S
O22 C29 1.275 . S
Cd23 O22 2.300 . S
Cd23 O31 2.381 . S
Cd23 O32 2.378 . S
O24 Cd25 2.385 . S
O24 C29 1.255 . S
Cd25 O24 2.385 . S
Cd25 O26 2.317 . S
O26 Cd25 2.317 . S
O26 C27 1.232 . S
C27 O26 1.232 . S
C27 O28 1.218 . S
O28 C27 1.218 . S
C29 O22 1.275 . S
C29 O24 1.255 . S
C30 O31 1.258 . S
C30 O32 1.256 . S
O31 Cd23 2.381 . S
O31 C30 1.258 . S
O32 Cd23 2.378 . S
O32 C30 1.256 . S
O33 Cd34 2.300 . S
O33 C40 1.275 . S
Cd34 O33 2.300 . S
Cd34 O42 2.381 . S
Cd34 O43 2.378 . S
O35 Cd36 2.385 . S
O35 C40 1.255 . S
Cd36 O35 2.385 . S
Cd36 O37 2.317 . S
O37 Cd36 2.317 . S
O37 C38 1.232 . S
C38 O37 1.232 . S
C38 O39 1.218 . S
O39 C38 1.218 . S
C40 O33 1.275 . S
C40 O35 1.255 . S
C41 O42 1.258 . S
C41 O43 1.256 . S
O42 Cd34 2.381 . S
O42 C41 1.258 . S
O43 Cd34 2.378 . S
O43 C41 1.256 . S
O44 Cd45 2.300 . S
O44 C51 1.275 . S
Cd45 O44 2.300 . S
Cd45 O53 2.381 . S
Cd45 O54 2.378 . S
O46 Cd47 2.385 . S
O46 C51 1.255 . S
Cd47 O46 2.385 . S
Cd47 O48 2.317 . S
O48 Cd47 2.317 . S
O48 C49 1.232 . S
C49 O48 1.232 . S
C49 O50 1.218 . S
O50 C49 1.218 . S
C51 O44 1.275 . S
C51 O46 1.255 . S
C52 O53 1.258 . S
C52 O54 1.256 . S
O53 Cd45 2.381 . S
O53 C52 1.258 . S
O54 Cd45 2.378 . S
O54 C52 1.256 . S
O55 Cd56 2.300 . S
O55 C62 1.275 . S
Cd56 O55 2.300 . S
Cd56 O64 2.381 . S
Cd56 O65 2.378 . S
O57 Cd58 2.385 . S
O57 C62 1.255 . S
Cd58 O57 2.385 . S
Cd58 O59 2.317 . S
O59 Cd58 2.317 . S
O59 C60 1.232 . S
C60 O59 1.232 . S
C60 O61 1.218 . S
O61 C60 1.218 . S
C62 O55 1.275 . S
C62 O57 1.255 . S
C63 O64 1.258 . S
C63 O65 1.256 . S
O64 Cd56 2.381 . S
O64 C63 1.258 . S
O65 Cd56 2.378 . S
O65 C63 1.256 . S
O66 Cd67 2.300 . S
O66 C73 1.275 . S
Cd67 O66 2.300 . S
Cd67 O75 2.381 . S
Cd67 O76 2.378 . S
O68 Cd69 2.385 . S
O68 C73 1.255 . S
Cd69 O68 2.385 . S
Cd69 O70 2.317 . S
O70 Cd69 2.317 . S
O70 C71 1.232 . S
C71 O70 1.232 . S
C71 O72 1.218 . S
O72 C71 1.218 . S
C73 O66 1.275 . S
C73 O68 1.255 . S
C74 O75 1.258 . S
C74 O76 1.256 . S
O75 Cd67 2.381 . S
O75 C74 1.258 . S
O76 Cd67 2.378 . S
O76 C74 1.256 . S
O77 Cd78 2.300 . S
O77 C84 1.275 . S
Cd78 O77 2.300 . S
Cd78 O86 2.381 . S
Cd78 O87 2.378 . S
O79 Cd80 2.385 . S
O79 C84 1.255 . S
Cd80 O79 2.385 . S
Cd80 O81 2.317 . S
O81 Cd80 2.317 . S
O81 C82 1.232 . S
C82 O81 1.232 . S
C82 O83 1.218 . S
O83 C82 1.218 . S
C84 O77 1.275 . S
C84 O79 1.255 . S
C85 O86 1.258 . S
C85 O87 1.256 . S
O86 Cd78 2.381 . S
O86 C85 1.258 . S
O87 Cd78 2.378 . S
O87 C85 1.256 . S
O88 Cd89 2.300 . S
O88 C95 1.275 . S
Cd89 O88 2.300 . S
Cd89 O97 2.381 . S
Cd89 O98 2.378 . S
O90 Cd91 2.385 . S
O90 C95 1.255 . S
Cd91 O90 2.385 . S
Cd91 O92 2.317 . S
O92 Cd91 2.317 . S
O92 C93 1.232 . S
C93 O92 1.232 . S
C93 O94 1.218 . S
O94 C93 1.218 . S
C95 O88 1.275 . S
C95 O90 1.255 . S
C96 O97 1.258 . S
C96 O98 1.256 . S
O97 Cd89 2.381 . S
O97 C96 1.258 . S
O98 Cd89 2.378 . S
O98 C96 1.256 . S
O99 Cd100 2.300 . S
O99 C106 1.275 . S
Cd100 O99 2.300 . S
Cd100 O108 2.381 . S
Cd100 O109 2.378 . S
O101 Cd102 2.385 . S
O101 C106 1.255 . S
Cd102 O101 2.385 . S
Cd102 O103 2.317 . S
O103 Cd102 2.317 . S
O103 C104 1.232 . S
C104 O103 1.232 . S
C104 O105 1.218 . S
O105 C104 1.218 . S
C106 O99 1.275 . S
C106 O101 1.255 . S
C107 O108 1.258 . S
C107 O109 1.256 . S
O108 Cd100 2.381 . S
O108 C107 1.258 . S
O109 Cd100 2.378 . S
O109 C107 1.256 . S
O110 Cd111 2.300 . S
O110 C117 1.275 . S
Cd111 O110 2.300 . S
Cd111 O119 2.381 . S
Cd111 O120 2.378 . S
O112 Cd113 2.385 . S
O112 C117 1.255 . S
Cd113 O112 2.385 . S
Cd113 O114 2.317 . S
O114 Cd113 2.317 . S
O114 C115 1.232 . S
C115 O114 1.232 . S
C115 O116 1.218 . S
O116 C115 1.218 . S
C117 O110 1.275 . S
C117 O112 1.255 . S
C118 O119 1.258 . S
C118 O120 1.256 . S
O119 Cd111 2.381 . S
O119 C118 1.258 . S
O120 Cd111 2.378 . S
O120 C118 1.256 . S
O121 Cd122 2.300 . S
O121 C128 1.275 . S
Cd122 O121 2.300 . S
Cd122 O130 2.381 . S
Cd122 O131 2.378 . S
O123 Cd124 2.385 . S
O123 C128 1.255 . S
Cd124 O123 2.385 . S
Cd124 O125 2.317 . S
O125 Cd124 2.317 . S
O125 C126 1.232 . S
C126 O125 1.232 . S
C126 O127 1.218 . S
O127 C126 1.218 . S
C128 O121 1.275 . S
C128 O123 1.255 . S
C129 O130 1.258 . S
C129 O131 1.256 . S
O130 Cd122 2.381 . S
O130 C129 1.258 . S
O131 Cd122 2.378 . S
O131 C129 1.256 . S
O132 Cd133 2.300 . S
O132 C139 1.275 . S
Cd133 O132 2.300 . S
Cd133 O141 2.381 . S
Cd133 O142 2.378 . S
O134 Cd135 2.385 . S
O134 C139 1.255 . S
Cd135 O134 2.385 . S
Cd135 O136 2.317 . S
O136 Cd135 2.317 . S
O136 C137 1.232 . S
C137 O136 1.232 . S
C137 O138 1.218 . S
O138 C137 1.218 . S
C139 O132 1.275 . S
C139 O134 1.255 . S
C140 O141 1.258 . S
C140 O142 1.256 . S
O141 Cd133 2.381 . S
O141 C140 1.258 . S
O142 Cd133 2.378 . S
O142 C140 1.256 . S
O143 Cd144 2.300 . S
O143 C150 1.275 . S
Cd144 O143 2.300 . S
Cd144 O152 2.381 . S
Cd144 O153 2.378 . S
O145 Cd146 2.385 . S
O145 C150 1.255 . S
Cd146 O145 2.385 . S
Cd146 O147 2.317 . S
O147 Cd146 2.317 . S
O147 C148 1.232 . S
C148 O147 1.232 . S
C148 O149 1.218 . S
O149 C148 1.218 . S
C150 O143 1.275 . S
C150 O145 1.255 . S
C151 O152 1.258 . S
C151 O153 1.256 . S
O152 Cd144 2.381 . S
O152 C151 1.258 . S
O153 Cd144 2.378 . S
O153 C151 1.256 . S
O154 Cd155 2.300 . S
O154 C161 1.275 . S
Cd155 O154 2.300 . S
Cd155 O163 2.381 . S
Cd155 O164 2.378 . S
O156 Cd157 2.385 . S
O156 C161 1.255 . S
Cd157 O156 2.385 . S
Cd157 O158 2.317 . S
O158 Cd157 2.317 . S
O158 C159 1.232 . S
C159 O158 1.232 . S
C159 O160 1.218 . S
O160 C159 1.218 . S
C161 O154 1.275 . S
C161 O156 1.255 . S
C162 O163 1.258 . S
C162 O164 1.256 . S
O163 Cd155 2.381 . S
O163 C162 1.258 . S
O164 Cd155 2.378 . S
O164 C162 1.256 . S
O165 Cd166 2.300 . S
O165 C172 1.275 . S
Cd166 O165 2.300 . S
Cd166 O174 2.381 . S
Cd166 O175 2.378 . S
O167 Cd168 2.385 . S
O167 C172 1.255 . S
Cd168 O167 2.385 . S
Cd168 O169 2.317 . S
O169 Cd168 2.317 . S
O169 C170 1.232 . S
C170 O169 1.232 . S
C170 O171 1.218 . S
O171 C170 1.218 . S
C172 O165 1.275 . S
C172 O167 1.255 . S
C173 O174 1.258 . S
C173 O175 1.256 . S
O174 Cd166 2.381 . S
O174 C173 1.258 . S
O175 Cd166 2.378 . S
O175 C173 1.256 . S
C176 C177 1.369 1_554 S
C176 C178 1.419 . S
C176 H180 0.930 . S
C177 C176 1.369 1_556 S
C177 C186 1.429 1_565 S
C178 C176 1.419 . S
C178 C179 1.363 1_565 S
C178 H181 0.929 . S
C179 C178 1.363 1_545 S
C179 C185 1.428 1_554 S
H180 C176 0.930 . S
H181 C178 0.929 . S
S182 N183 1.613 . S
S182 N184 1.610 . S
N183 S182 1.613 . S
N183 C186 1.350 . S
N184 S182 1.610 . S
N184 C185 1.351 . S
C185 C179 1.428 1_556 S
C185 N184 1.351 . S
C185 C186 1.434 . S
C186 C177 1.429 1_545 S
C186 N183 1.350 . S
C186 C185 1.434 . S
C187 C188 1.369 . S
C187 C189 1.419 . S
C187 H191 0.930 . S
C188 C187 1.369 . S
C188 C197 1.429 . S
C189 C187 1.419 . S
C189 C190 1.363 . S
C189 H192 0.929 . S
C190 C189 1.363 . S
C190 C196 1.428 . S
H191 C187 0.930 . S
H192 C189 0.929 . S
S193 N194 1.613 . S
S193 N195 1.610 . S
N194 S193 1.613 . S
N194 C197 1.350 . S
N195 S193 1.610 . S
N195 C196 1.351 . S
C196 C190 1.428 . S
C196 N195 1.351 . S
C196 C197 1.434 . S
C197 C188 1.429 . S
C197 N194 1.350 . S
C197 C196 1.434 . S
C198 C199 1.369 1_655 S
C198 C200 1.419 1_556 S
C198 H202 0.930 . S
C199 C198 1.369 1_455 S
C199 C208 1.429 . S
C200 C198 1.419 1_554 S
C200 C201 1.363 . S
C200 H203 0.929 . S
C201 C200 1.363 . S
C201 C207 1.428 1_655 S
H202 C198 0.930 . S
H203 C200 0.929 . S
S204 N205 1.613 . S
S204 N206 1.610 1_556 S
N205 S204 1.613 . S
N205 C208 1.350 . S
N206 S204 1.610 1_554 S
N206 C207 1.351 . S
C207 C201 1.428 1_455 S
C207 N206 1.351 . S
C207 C208 1.434 1_554 S
C208 C199 1.429 . S
C208 N205 1.350 . S
C208 C207 1.434 1_556 S
C209 C210 1.369 . S
C209 C211 1.419 1_565 S
C209 H213 0.930 . S
C210 C209 1.369 . S
C210 C219 1.429 1_455 S
C211 C209 1.419 1_545 S
C211 C212 1.363 1_455 S
C211 H214 0.929 . S
C212 C211 1.363 1_655 S
C212 C218 1.428 . S
H213 C209 0.930 . S
H214 C211 0.929 . S
S215 N216 1.613 . S
S215 N217 1.610 1_565 S
N216 S215 1.613 . S
N216 C219 1.350 . S
N217 S215 1.610 1_545 S
N217 C218 1.351 . S
C218 C212 1.428 . S
C218 N217 1.351 . S
C218 C219 1.434 1_545 S
C219 C210 1.429 1_655 S
C219 N216 1.350 . S
C219 C218 1.434 1_565 S
C220 C221 1.369 1_545 S
C220 C222 1.419 1_455 S
C220 H224 0.930 . S
C221 C220 1.369 1_565 S
C221 C230 1.429 1_556 S
C222 C220 1.419 1_655 S
C222 C223 1.363 1_556 S
C222 H225 0.929 . S
C223 C222 1.363 1_554 S
C223 C229 1.428 1_545 S
H224 C220 0.930 . S
H225 C222 0.929 . S
S226 N227 1.592 1_655 S
S226 N228 1.610 . S
N227 S226 1.592 1_455 S
N227 C230 1.352 . S
N228 S226 1.610 . S
N228 C229 1.351 . S
C229 C223 1.428 1_565 S
C229 N228 1.351 . S
C229 C230 1.434 1_655 S
C230 C221 1.429 1_554 S
C230 N227 1.352 . S
C230 C229 1.434 1_455 S
C231 C232 1.369 . S
C231 C233 1.419 1_565 S
C231 H235 0.930 . S
C232 C231 1.369 . S
C232 C241 1.429 . S
C233 C231 1.419 1_545 S
C233 C234 1.363 . S
C233 H236 0.929 . S
C234 C233 1.363 . S
C234 C240 1.428 . S
H235 C231 0.930 . S
H236 C233 0.929 . S
S237 N238 1.613 1_545 S
S237 N239 1.610 . S
N238 S237 1.613 1_565 S
N238 C241 1.350 . S
N239 S237 1.610 . S
N239 C240 1.351 . S
C240 C234 1.428 . S
C240 N239 1.351 . S
C240 C241 1.434 1_545 S
C241 C232 1.429 . S
C241 N238 1.350 . S
C241 C240 1.434 1_565 S
C242 C243 1.369 1_556 S
C242 C244 1.419 . S
C242 H246 0.930 . S
C243 C242 1.369 1_554 S
C243 C252 1.429 . S
C244 C242 1.419 . S
C244 C245 1.363 . S
C244 H247 0.929 . S
C245 C244 1.363 . S
C245 C251 1.428 1_556 S
H246 C242 0.930 . S
H247 C244 0.929 . S
S248 N249 1.613 . S
S248 N250 1.610 . S
N249 S248 1.613 . S
N249 C252 1.350 . S
N250 S248 1.610 . S
N250 C251 1.351 . S
C251 C245 1.428 1_554 S
C251 N250 1.351 . S
C251 C252 1.434 . S
C252 C243 1.429 . S
C252 N249 1.350 . S
C252 C251 1.434 . S
C253 C254 1.369 . S
C253 C255 1.419 . S
C253 H257 0.930 . S
C254 C253 1.369 . S
C254 C263 1.429 1_455 S
C255 C253 1.419 . S
C255 C256 1.363 1_455 S
C255 H258 0.929 . S
C256 C255 1.363 1_655 S
C256 C262 1.428 . S
H257 C253 0.930 . S
H258 C255 0.929 . S
S259 N260 1.613 . S
S259 N261 1.610 . S
N260 S259 1.613 . S
N260 C263 1.350 . S
N261 S259 1.610 . S
N261 C262 1.351 . S
C262 C256 1.428 . S
C262 N261 1.351 . S
C262 C263 1.434 . S
C263 C254 1.429 1_655 S
C263 N260 1.350 . S
C263 C262 1.434 . S
C264 C265 1.369 . S
C264 C266 1.419 . S
C264 H268 0.930 . S
C265 C264 1.369 . S
C265 C274 1.429 . S
C266 C264 1.419 . S
C266 C267 1.363 . S
C266 H269 0.929 . S
C267 C266 1.363 . S
C267 C273 1.428 . S
H268 C264 0.930 . S
H269 C266 0.929 . S
S270 N271 1.613 . S
S270 N272 1.610 . S
N271 S270 1.613 . S
N271 C274 1.350 . S
N272 S270 1.610 . S
N272 C273 1.351 . S
C273 C267 1.428 . S
C273 N272 1.351 . S
C273 C274 1.434 . S
C274 C265 1.429 . S
C274 N271 1.350 . S
C274 C273 1.434 . S
C275 C276 1.369 . S
C275 C277 1.419 . S
C275 H279 0.930 . S
C276 C275 1.369 . S
C276 C285 1.429 . S
C277 C275 1.419 . S
C277 C278 1.363 . S
C277 H280 0.929 . S
C278 C277 1.363 . S
C278 C284 1.428 . S
H279 C275 0.930 . S
H280 C277 0.929 . S
S281 N282 1.613 . S
S281 N283 1.610 . S
N282 S281 1.613 . S
N282 C285 1.350 . S
N283 S281 1.610 . S
N283 C284 1.351 . S
C284 C278 1.428 . S
C284 N283 1.351 . S
C284 C285 1.434 . S
C285 C276 1.429 . S
C285 N282 1.350 . S
C285 C284 1.434 . S
C286 C287 1.369 . S
C286 C288 1.419 . S
C286 H290 0.930 . S
C287 C286 1.369 . S
C287 C296 1.429 . S
C288 C286 1.419 . S
C288 C289 1.363 . S
C288 H291 0.929 . S
C289 C288 1.363 . S
C289 C295 1.428 . S
H290 C286 0.930 . S
H291 C288 0.929 . S
S292 N293 1.613 . S
S292 N294 1.610 . S
N293 S292 1.613 . S
N293 C296 1.350 . S
N294 S292 1.610 . S
N294 C295 1.351 . S
C295 C289 1.428 . S
C295 N294 1.351 . S
C295 C296 1.434 . S
C296 C287 1.429 . S
C296 N293 1.350 . S
C296 C295 1.434 . S
C297 C298 1.369 . S
C297 C299 1.419 . S
C297 H301 0.930 . S
C298 C297 1.369 . S
C298 C307 1.429 . S
C299 C297 1.419 . S
C299 C300 1.363 . S
C299 H302 0.929 . S
C300 C299 1.363 . S
C300 C306 1.428 . S
H301 C297 0.930 . S
H302 C299 0.929 . S
S303 N304 1.613 . S
S303 N305 1.610 . S
N304 S303 1.613 . S
N304 C307 1.350 . S
N305 S303 1.610 . S
N305 C306 1.351 . S
C306 C300 1.428 . S
C306 N305 1.351 . S
C306 C307 1.434 . S
C307 C298 1.429 . S
C307 N304 1.350 . S
C307 C306 1.434 . S
C308 C309 1.369 . S
C308 C310 1.419 . S
C308 H312 0.930 . S
C309 C308 1.369 . S
C309 C318 1.429 . S
C310 C308 1.419 . S
C310 C311 1.363 . S
C310 H313 0.929 . S
C311 C310 1.363 . S
C311 C317 1.428 . S
H312 C308 0.930 . S
H313 C310 0.929 . S
S314 N315 1.613 . S
S314 N316 1.610 . S
N315 S314 1.613 . S
N315 C318 1.350 . S
N316 S314 1.610 . S
N316 C317 1.351 . S
C317 C311 1.428 . S
C317 N316 1.351 . S
C317 C318 1.434 . S
C318 C309 1.429 . S
C318 N315 1.350 . S
C318 C317 1.434 . S
C319 C320 1.369 . S
C319 C321 1.419 . S
C319 H323 0.930 . S
C320 C319 1.369 . S
C320 C329 1.429 . S
C321 C319 1.419 . S
C321 C322 1.363 . S
C321 H324 0.929 . S
C322 C321 1.363 . S
C322 C328 1.428 . S
H323 C319 0.930 . S
H324 C321 0.929 . S
S325 N326 1.613 . S
S325 N327 1.610 . S
N326 S325 1.613 . S
N326 C329 1.350 . S
N327 S325 1.610 . S
N327 C328 1.351 . S
C328 C322 1.428 . S
C328 N327 1.351 . S
C328 C329 1.434 . S
C329 C320 1.429 . S
C329 N326 1.350 . S
C329 C328 1.434 . S
C330 C331 1.369 . S
C330 C332 1.419 . S
C330 H334 0.930 . S
C331 C330 1.369 . S
C331 C340 1.429 . S
C332 C330 1.419 . S
C332 C333 1.363 . S
C332 H335 0.929 . S
C333 C332 1.363 . S
C333 C339 1.428 . S
H334 C330 0.930 . S
H335 C332 0.929 . S
S336 N337 1.613 . S
S336 N338 1.610 . S
N337 S336 1.613 . S
N337 C340 1.350 . S
N338 S336 1.610 . S
N338 C339 1.351 . S
C339 C333 1.428 . S
C339 N338 1.351 . S
C339 C340 1.434 . S
C340 C331 1.429 . S
C340 N337 1.350 . S
C340 C339 1.434 . S
C341 C342 1.369 . S
C341 C343 1.419 . S
C341 H345 0.930 . S
C342 C341 1.369 . S
C342 C351 1.429 . S
C343 C341 1.419 . S
C343 C344 1.363 . S
C343 H346 0.929 . S
C344 C343 1.363 . S
C344 C350 1.428 . S
H345 C341 0.930 . S
H346 C343 0.929 . S
S347 N348 1.613 . S
S347 N349 1.610 . S
N348 S347 1.613 . S
N348 C351 1.350 . S
N349 S347 1.610 . S
N349 C350 1.351 . S
C350 C344 1.428 . S
C350 N349 1.351 . S
C350 C351 1.434 . S
C351 C342 1.429 . S
C351 N348 1.350 . S
C351 C350 1.434 . S
C352 C353 1.369 . S
C352 C354 1.419 . S
C352 H356 0.930 . S
C353 C352 1.369 . S
C353 C362 1.429 . S
C354 C352 1.419 . S
C354 C355 1.363 . S
C354 H357 0.929 . S
C355 C354 1.363 . S
C355 C361 1.428 . S
H356 C352 0.930 . S
H357 C354 0.929 . S
S358 N359 1.613 . S
S358 N360 1.610 . S
N359 S358 1.613 . S
N359 C362 1.350 . S
N360 S358 1.610 . S
N360 C361 1.351 . S
C361 C355 1.428 . S
C361 N360 1.351 . S
C361 C362 1.434 . S
C362 C353 1.429 . S
C362 N359 1.350 . S
C362 C361 1.434 . S
C363 C364 1.369 . S
C363 C365 1.419 . S
C363 H367 0.930 . S
C364 C363 1.369 . S
C364 C373 1.429 . S
C365 C363 1.419 . S
C365 C366 1.363 . S
C365 H368 0.929 . S
C366 C365 1.363 . S
C366 C372 1.428 . S
H367 C363 0.930 . S
H368 C365 0.929 . S
S369 N370 1.613 . S
S369 N371 1.610 . S
N370 S369 1.613 . S
N370 C373 1.350 . S
N371 S369 1.610 . S
N371 C372 1.351 . S
C372 C366 1.428 . S
C372 N371 1.351 . S
C372 C373 1.434 . S
C373 C364 1.429 . S
C373 N370 1.350 . S
C373 C372 1.434 . S
C374 C375 1.369 . S
C374 C376 1.419 . S
C374 H378 0.930 . S
C375 C374 1.369 . S
C375 C384 1.429 . S
C376 C374 1.419 . S
C376 C377 1.363 . S
C376 H379 0.929 . S
C377 C376 1.363 . S
C377 C383 1.428 . S
H378 C374 0.930 . S
H379 C376 0.929 . S
S380 N381 1.613 . S
S380 N382 1.610 . S
N381 S380 1.613 . S
N381 C384 1.350 . S
N382 S380 1.610 . S
N382 C383 1.351 . S
C383 C377 1.428 . S
C383 N382 1.351 . S
C383 C384 1.434 . S
C384 C375 1.429 . S
C384 N381 1.350 . S
C384 C383 1.434 . S
C385 C386 1.369 . S
C385 C387 1.419 . S
C385 H389 0.930 . S
C386 C385 1.369 . S
C386 C395 1.429 . S
C387 C385 1.419 . S
C387 C388 1.363 . S
C387 H390 0.929 . S
C388 C387 1.363 . S
C388 C394 1.428 . S
H389 C385 0.930 . S
H390 C387 0.929 . S
S391 N392 1.613 . S
S391 N393 1.610 . S
N392 S391 1.613 . S
N392 C395 1.350 . S
N393 S391 1.610 . S
N393 C394 1.351 . S
C394 C388 1.428 . S
C394 N393 1.351 . S
C394 C395 1.434 . S
C395 C386 1.429 . S
C395 N392 1.350 . S
C395 C394 1.434 . S
C396 C397 1.369 . S
C396 C398 1.419 . S
C396 H400 0.930 . S
C397 C396 1.369 . S
C397 C406 1.429 . S
C398 C396 1.419 . S
C398 C399 1.363 . S
C398 H401 0.929 . S
C399 C398 1.363 . S
C399 C405 1.428 . S
H400 C396 0.930 . S
H401 C398 0.929 . S
S402 N403 1.613 . S
S402 N404 1.610 . S
N403 S402 1.613 . S
N403 C406 1.350 . S
N404 S402 1.610 . S
N404 C405 1.351 . S
C405 C399 1.428 . S
C405 N404 1.351 . S
C405 C406 1.434 . S
C406 C397 1.429 . S
C406 N403 1.350 . S
C406 C405 1.434 . S
C407 C408 1.369 . S
C407 C409 1.419 . S
C407 H411 0.930 . S
C408 C407 1.369 . S
C408 C417 1.429 . S
C409 C407 1.419 . S
C409 C410 1.363 . S
C409 H412 0.929 . S
C410 C409 1.363 . S
C410 C416 1.428 . S
H411 C407 0.930 . S
H412 C409 0.929 . S
S413 N414 1.613 . S
S413 N415 1.610 . S
N414 S413 1.613 . S
N414 C417 1.350 . S
N415 S413 1.610 . S
N415 C416 1.351 . S
C416 C410 1.428 . S
C416 N415 1.351 . S
C416 C417 1.434 . S
C417 C408 1.429 . S
C417 N414 1.350 . S
C417 C416 1.434 . S
C418 C419 1.369 . S
C418 C420 1.419 . S
C418 H422 0.930 . S
C419 C418 1.369 . S
C419 C428 1.429 . S
C420 C418 1.419 . S
C420 C421 1.363 . S
C420 H423 0.929 . S
C421 C420 1.363 . S
C421 C427 1.428 . S
H422 C418 0.930 . S
H423 C420 0.929 . S
S424 N425 1.613 . S
S424 N426 1.610 . S
N425 S424 1.613 . S
N425 C428 1.350 . S
N426 S424 1.610 . S
N426 C427 1.351 . S
C427 C421 1.428 . S
C427 N426 1.351 . S
C427 C428 1.434 . S
C428 C419 1.429 . S
C428 N425 1.350 . S
C428 C427 1.434 . S
C429 C430 1.369 . S
C429 C431 1.419 . S
C429 H433 0.930 . S
C430 C429 1.369 . S
C430 C439 1.429 . S
C431 C429 1.419 . S
C431 C432 1.363 . S
C431 H434 0.929 . S
C432 C431 1.363 . S
C432 C438 1.428 . S
H433 C429 0.930 . S
H434 C431 0.929 . S
S435 N436 1.613 . S
S435 N437 1.610 . S
N436 S435 1.613 . S
N436 C439 1.350 . S
N437 S435 1.610 . S
N437 C438 1.351 . S
C438 C432 1.428 . S
C438 N437 1.351 . S
C438 C439 1.434 . S
C439 C430 1.429 . S
C439 N436 1.350 . S
C439 C438 1.434 . S
C177 C96 1.615 . S
C179 C8 1.692 . S
C188 C19 1.692 . S
C190 C107 1.618 . S
C199 C118 1.614 . S
C201 C30 1.692 . S
C210 C41 1.689 . S
C212 C129 1.623 . S
C221 C52 1.692 . S
C223 C140 1.615 . S
C232 C151 1.623 . S
C234 C63 1.690 . S
C243 C162 1.621 . S
C245 C74 1.691 . S
C254 C173 1.614 . S
C256 C85 1.692 . S
C265 C7 1.621 . S
C267 C62 1.619 . S
C276 C73 1.620 . S
C278 C18 1.619 . S
C287 C84 1.623 . S
C289 C29 1.621 . S
C298 C40 1.621 . S
C300 C51 1.619 . S
C309 C95 1.536 . S
C311 C150 1.535 . S
C320 C161 1.526 . S
C322 C106 1.530 . S
C331 C117 1.527 . S
C333 C172 1.527 . S
C342 C139 1.526 . S
C344 C128 1.531 . S
C353 C137 1.342 . S
C355 C5 1.467 . S
C364 C148 1.342 . S
C366 C16 1.461 . S
C375 C27 1.469 . S
C377 C159 1.341 . S
C386 C170 1.344 . S
C388 C38 1.466 . S
C397 C49 1.455 . S
C399 C93 1.351 . S
C408 C104 1.353 . S
C410 C60 1.462 . S
C419 C115 1.342 . S
C421 C71 1.467 . S
C430 C126 1.353 . S
C432 C82 1.456 . S
