# Generated by pormake.
# Topology zfb, (5)-cn, num edge types: 1
# Building blocks:
#     Node 0, Type 0, BuildingBlock: XOMCOT_clean_sbu_1, # of connection points: 5
#     Node 1, Type 0, BuildingBlock: XOMCOT_clean_sbu_1, # of connection points: 5
#     Node 2, Type 0, BuildingBlock: XOMCOT_clean_sbu_1, # of connection points: 5
#     Node 3, Type 0, BuildingBlock: XOMCOT_clean_sbu_1, # of connection points: 5
#     Node 4, Type 0, BuildingBlock: XOMCOT_clean_sbu_1, # of connection points: 5
#     Node 5, Type 0, BuildingBlock: XOMCOT_clean_sbu_1, # of connection points: 5
#     Node 6, Type 0, BuildingBlock: XOMCOT_clean_sbu_1, # of connection points: 5
#     Node 7, Type 0, BuildingBlock: XOMCOT_clean_sbu_1, # of connection points: 5
#     Edge 8, Type (0, 0), BuildingBlock: TEMPAE_clean_linker_10, # of connection points: 2
#     Edge 9, Type (0, 0), BuildingBlock: TEMPAE_clean_linker_10, # of connection points: 2
#     Edge 10, Type (0, 0), BuildingBlock: TEMPAE_clean_linker_10, # of connection points: 2
#     Edge 11, Type (0, 0), BuildingBlock: TEMPAE_clean_linker_10, # of connection points: 2
#     Edge 12, Type (0, 0), BuildingBlock: TEMPAE_clean_linker_10, # of connection points: 2
#     Edge 13, Type (0, 0), BuildingBlock: TEMPAE_clean_linker_10, # of connection points: 2
#     Edge 14, Type (0, 0), BuildingBlock: TEMPAE_clean_linker_10, # of connection points: 2
#     Edge 15, Type (0, 0), BuildingBlock: TEMPAE_clean_linker_10, # of connection points: 2
#     Edge 16, Type (0, 0), BuildingBlock: TEMPAE_clean_linker_10, # of connection points: 2
#     Edge 17, Type (0, 0), BuildingBlock: TEMPAE_clean_linker_10, # of connection points: 2
#     Edge 18, Type (0, 0), BuildingBlock: TEMPAE_clean_linker_10, # of connection points: 2
#     Edge 19, Type (0, 0), BuildingBlock: TEMPAE_clean_linker_10, # of connection points: 2
#     Edge 20, Type (0, 0), BuildingBlock: TEMPAE_clean_linker_10, # of connection points: 2
#     Edge 21, Type (0, 0), BuildingBlock: TEMPAE_clean_linker_10, # of connection points: 2
#     Edge 22, Type (0, 0), BuildingBlock: TEMPAE_clean_linker_10, # of connection points: 2
#     Edge 23, Type (0, 0), BuildingBlock: TEMPAE_clean_linker_10, # of connection points: 2
#     Edge 24, Type (0, 0), BuildingBlock: TEMPAE_clean_linker_10, # of connection points: 2
#     Edge 25, Type (0, 0), BuildingBlock: TEMPAE_clean_linker_10, # of connection points: 2
#     Edge 26, Type (0, 0), BuildingBlock: TEMPAE_clean_linker_10, # of connection points: 2
#     Edge 27, Type (0, 0), BuildingBlock: TEMPAE_clean_linker_10, # of connection points: 2
# Relax obj value: 0.187
# Max RMSD: 0.187
# Mean RMSD: 0.187
data_MOF--net-zfb--node1-XOMCOT_clean_sbu_1--edge1-TEMPAE_clean_linker_10
_symmetry_space_group_name_H-M    P1
_symmetry_Int_Tables_number       1
_symmetry_cell_setting            triclinic
loop_
_symmetry_equiv_pos_as_xyz
'x, y, z'
_cell_length_a     33.620445
_cell_length_b     33.529839
_cell_length_c     34.431969
_cell_angle_alpha  90.141561
_cell_angle_beta   89.966547
_cell_angle_gamma 90.049894
loop_
_atom_site_label
_atom_site_type_symbol
_atom_site_fract_x
_atom_site_fract_y
_atom_site_fract_z
_atom_type_partial_charge
C0 C 0.22742 0.36438 0.9955 0.0
C1 C 0.22761 0.35373 0.95686 0.0
N2 N 0.18973 0.34767 0.94536 0.0
N3 N 0.18963 0.36521 1.00841 0.0
C4 C 0.16729 0.35481 0.97729 0.0
H5 H 0.25318 0.37097 1.01321 0.0
Co6 Co 0.17455 0.37615 0.05944 0.0
C7 C 0.08795 0.38364 0.05355 0.0
O8 O 0.08399 0.3539 0.07804 0.0
N9 N 0.1592 0.3871 0.11139 0.0
C10 C 0.13274 0.41834 0.16229 0.0
C11 C 0.14012 0.42044 0.12314 0.0
C12 C 0.1632 0.36524 0.14426 0.0
N13 N 0.14726 0.38357 0.17573 0.0
O14 O 0.15712 0.32228 0.06412 0.0
H15 H 0.13152 0.44466 0.10423 0.0
H16 H 0.17757 0.33648 0.1453 0.0
O17 O 0.1226 0.39385 0.04225 0.0
C18 C 0.18509 0.29961 0.07544 0.0
O19 O 0.21977 0.31548 0.08397 0.0
N20 N 0.19453 0.42807 0.05454 0.0
C21 C 0.22683 0.50455 0.05068 0.0
C22 C 0.19752 0.49228 1.02421 0.0
C23 C 0.18186 0.45379 1.0265 0.0
C24 C 0.22419 0.43879 0.07944 0.0
C25 C 0.24045 0.47713 0.07834 0.0
H26 H 0.15968 0.44466 1.00562 0.0
H27 H 0.23486 0.41761 0.10066 0.0
H28 H 0.13528 0.3516 0.97829 0.0
H29 H 0.25368 0.35098 0.9386 0.0
H30 H 0.1168 0.44035 0.17925 0.0
H31 H 0.18614 0.51251 1.00241 0.0
H32 H 0.26347 0.48522 0.0989 0.0
C33 C 0.59179 0.23562 0.49705 0.0
C34 C 0.60206 0.2355 0.45834 0.0
N35 N 0.60899 0.19753 0.44727 0.0
N36 N 0.59216 0.19792 0.51043 0.0
C37 C 0.60281 0.17534 0.4795 0.0
H38 H 0.58448 0.2615 0.51444 0.0
Co39 Co 0.58128 0.18306 0.56153 0.0
C40 C 0.57604 0.096 0.55613 0.0
O41 O 0.605 0.09297 0.58156 0.0
N42 N 0.57024 0.16786 0.61327 0.0
C43 C 0.53885 0.1413 0.66385 0.0
C44 C 0.53689 0.14876 0.62476 0.0
C45 C 0.59208 0.17167 0.64618 0.0
N46 N 0.57357 0.15571 0.67749 0.0
O47 O 0.63544 0.1673 0.5672 0.0
H48 H 0.51282 0.1401 0.60568 0.0
H49 H 0.62098 0.18579 0.64723 0.0
O50 O 0.56527 0.13037 0.54444 0.0
C51 C 0.65666 0.19775 0.57498 0.0
O52 O 0.63863 0.2322 0.57976 0.0
N53 N 0.5292 0.20167 0.55591 0.0
C54 C 0.4527 0.23307 0.55121 0.0
C55 C 0.46517 0.2031 0.52542 0.0
C56 C 0.50368 0.18787 0.52813 0.0
C57 C 0.51824 0.23197 0.58009 0.0
C58 C 0.47989 0.24779 0.57858 0.0
H59 H 0.51302 0.16517 0.50779 0.0
H60 H 0.5393 0.24349 0.60106 0.0
H61 H 0.6067 0.14334 0.48079 0.0
H62 H 0.6038 0.26139 0.43971 0.0
H63 H 0.51681 0.12531 0.68065 0.0
H64 H 0.44507 0.1909 0.50386 0.0
H65 H 0.4716 0.27133 0.5986 0.0
C66 C 0.7271 0.594 1.0073 0.0
C67 C 0.72587 0.6046 0.96873 0.0
N68 N 0.76313 0.61337 0.95697 0.0
N69 N 0.76493 0.59598 1.01999 0.0
C70 C 0.78626 0.60787 0.98871 0.0
H71 H 0.70197 0.58562 1.02515 0.0
Co72 Co 0.78079 0.58618 0.07109 0.0
C73 C 0.86789 0.58396 0.0652 0.0
O74 O 0.87061 0.61188 0.09192 0.0
N75 N 0.79675 0.57612 0.12288 0.0
C76 C 0.82391 0.54535 0.17349 0.0
C77 C 0.8167 0.54326 0.13434 0.0
C78 C 0.79225 0.59786 0.1559 0.0
N79 N 0.80852 0.57967 0.18724 0.0
O80 O 0.79446 0.64117 0.07633 0.0
H81 H 0.82608 0.51939 0.11526 0.0
H82 H 0.77727 0.62636 0.15706 0.0
O83 O 0.83374 0.5727 0.05348 0.0
C84 C 0.76359 0.66169 0.08402 0.0
O85 O 0.7298 0.64271 0.08939 0.0
N86 N 0.7643 0.53305 0.0659 0.0
C87 C 0.7354 0.45532 0.06328 0.0
C88 C 0.7685 0.46636 0.04103 0.0
C89 C 0.78212 0.50567 0.04219 0.0
C90 C 0.73141 0.52309 0.08693 0.0
C91 C 0.71628 0.48426 0.08593 0.0
H92 H 0.80689 0.51387 1.02397 0.0
H93 H 0.71711 0.54542 0.10485 0.0
H94 H 0.81797 0.61337 0.98944 0.0
H95 H 0.69954 0.60547 0.95068 0.0
H96 H 0.84027 0.52364 0.19032 0.0
H97 H 0.78348 0.44481 1.02266 0.0
H98 H 0.69049 0.4767 0.10331 0.0
C99 C 0.3728 0.73051 0.49303 0.0
C100 C 0.36446 0.73078 0.45391 0.0
N101 N 0.357 0.76868 0.44295 0.0
N102 N 0.37072 0.768 0.5069 0.0
C103 C 0.3609 0.7906 0.47585 0.0
H104 H 0.37957 0.70459 0.51045 0.0
Co105 Co 0.37852 0.78248 0.55866 0.0
C106 C 0.38117 0.86992 0.55479 0.0
O107 O 0.35169 0.87205 0.57978 0.0
N108 N 0.38658 0.79716 0.61105 0.0
C109 C 0.41495 0.82384 0.66329 0.0
C110 C 0.41863 0.81739 0.62415 0.0
C111 C 0.36377 0.79159 0.64308 0.0
N112 N 0.38046 0.80758 0.67542 0.0
O113 O 0.32351 0.79647 0.56218 0.0
H114 H 0.443 0.82752 0.60616 0.0
H115 H 0.33554 0.77613 0.64277 0.0
O116 O 0.39321 0.83593 0.54309 0.0
C117 C 0.30235 0.76559 0.56825 0.0
O118 O 0.32059 0.73123 0.57266 0.0
N119 N 0.43155 0.76569 0.55524 0.0
C120 C 0.50942 0.73746 0.55611 0.0
C121 C 0.49885 0.76986 0.5326 0.0
C122 C 0.45952 0.78319 0.53211 0.0
C123 C 0.44093 0.73325 0.57717 0.0
C124 C 0.4798 0.71857 0.57804 0.0
H125 H 0.45174 0.80754 0.51317 0.0
H126 H 0.41814 0.71914 0.59459 0.0
H127 H 0.35679 0.82255 0.47742 0.0
H128 H 0.36313 0.70478 0.4353 0.0
H129 H 0.43567 0.84039 0.6812 0.0
H130 H 0.52079 0.78462 0.5146 0.0
H131 H 0.48683 0.69337 0.59641 0.0
C132 C 0.72824 0.09798 0.12732 0.0
C133 C 0.72879 0.10732 0.16627 0.0
N134 N 0.69097 0.11233 0.17852 0.0
N135 N 0.69029 0.09689 0.11494 0.0
C136 C 0.66826 0.10602 0.14663 0.0
H137 H 0.75383 0.09249 0.10904 0.0
Co138 Co 0.67444 0.08615 0.06414 0.0
C139 C 0.58784 0.07905 0.07144 0.0
O140 O 0.58359 0.10896 0.04721 0.0
N141 N 0.65827 0.07541 1.01245 0.0
C142 C 0.63075 0.04441 0.96196 0.0
C143 C 0.63858 0.04229 1.00101 0.0
C144 C 0.66221 0.09715 0.9795 0.0
N145 N 0.64563 0.07896 0.94826 0.0
O146 O 0.65721 0.14015 0.05997 0.0
H147 H 0.62991 0.01819 1.02006 0.0
H148 H 0.67701 0.1257 0.97824 0.0
O149 O 0.62263 0.06861 0.082 0.0
C150 C 0.68475 0.16322 0.04829 0.0
O151 O 0.7193 0.14781 0.0386 0.0
N152 N 0.69412 0.03406 0.0687 0.0
C153 C 0.72625 0.95762 0.07328 0.0
C154 C 0.69771 0.9705 0.10025 0.0
C155 C 0.68206 0.00891 0.09753 0.0
C156 C 0.72294 0.02267 0.04312 0.0
C157 C 0.73904 -0.01572 0.04453 0.0
H158 H 0.6605 0.01852 0.11884 0.0
H159 H 0.73314 0.04337 1.02122 0.0
H160 H 0.63613 0.10768 0.14632 0.0
H161 H 0.75516 0.11086 0.18395 0.0
H162 H 0.61432 0.02256 0.94526 0.0
H163 H 0.687 0.9508 0.12285 0.0
H164 H 0.76141 0.97561 1.0235 0.0
C165 C 0.88174 0.73139 0.6424 0.0
C166 C 0.8698 0.73375 0.68053 0.0
N167 N 0.84822 0.70095 0.68932 0.0
N168 N 0.86868 0.6969 0.62686 0.0
C169 C 0.84694 0.67994 0.65557 0.0
H170 H 0.89954 0.75325 0.62721 0.0
Co171 Co 0.87814 0.67855 0.57579 0.0
C172 C 0.90583 0.60552 0.6233 0.0
O173 O 0.90313 0.62104 0.65823 0.0
N174 N 0.88689 0.66039 0.52432 0.0
C175 C 0.91588 0.63044 0.47401 0.0
C176 C 0.91855 0.6385 0.51302 0.0
C177 C 0.86539 0.66531 0.49132 0.0
N178 N 0.88244 0.64734 0.46018 0.0
O179 O 0.82449 0.66013 0.57356 0.0
H180 H 0.94232 0.62898 0.53201 0.0
H181 H 0.83802 0.68208 0.48987 0.0
O182 O 0.89647 0.62608 0.59344 0.0
C183 C 0.80118 0.68732 0.5616 0.0
O184 O 0.81612 0.72205 0.55166 0.0
N185 N 0.93052 0.69916 0.57718 0.0
C186 C 0.00665 0.73263 0.57475 0.0
C187 C -0.00379 0.70534 0.60382 0.0
C188 C 0.95802 0.68909 0.60461 0.0
C189 C 0.93963 0.7268 0.54953 0.0
C190 C 0.97771 0.74354 0.54745 0.0
H191 H 0.95063 0.6691 0.62781 0.0
H192 H 0.91729 0.73561 0.52866 0.0
H193 H 0.83173 0.6518 0.65182 0.0
H194 H 0.87749 0.75772 0.70015 0.0
H195 H 0.93673 0.61277 0.45731 0.0
H196 H 0.0176 0.69605 0.62549 0.0
H197 H -0.01563 0.76493 0.52484 0.0
C198 C 0.22815 0.86837 0.12745 0.0
C199 C 0.22903 0.85881 0.1663 0.0
N200 N 0.26709 0.85183 0.17655 0.0
N201 N 0.26543 0.86741 0.11316 0.0
C202 C 0.28855 0.85723 0.14373 0.0
H203 H 0.20198 0.87539 0.11054 0.0
Co204 Co 0.27902 0.87671 0.06145 0.0
C205 C 0.36632 0.87961 0.06401 0.0
O206 O 0.36828 0.85152 0.03739 0.0
N207 N 0.29275 0.88634 1.00911 0.0
C208 C 0.31833 0.91626 0.95724 0.0
C209 C 0.31216 0.91912 0.9965 0.0
C210 C 0.28741 0.86394 0.97667 0.0
N211 N 0.30275 0.88156 0.94457 0.0
O212 O 0.29282 0.82176 0.05612 0.0
H213 H 0.3221 0.94333 1.01489 0.0
H214 H 0.2727 0.83526 0.97653 0.0
O215 O 0.33254 0.89079 0.07675 0.0
C216 C 0.2617 0.80108 0.04978 0.0
O217 O 0.22762 0.81988 0.04605 0.0
N218 N 0.26235 0.92965 0.06672 0.0
C219 C 0.23308 0.00713 0.06864 0.0
C220 C 0.26734 -0.00297 0.08953 0.0
C221 C 0.28116 0.95782 0.08879 0.0
C222 C 0.2283 0.93871 0.04718 0.0
C223 C 0.21297 0.97742 0.04786 0.0
H224 H 0.307 0.95037 0.10583 0.0
H225 H 0.2133 0.91576 0.03058 0.0
H226 H 0.32039 0.85295 0.14179 0.0
H227 H 0.20362 0.85745 0.18556 0.0
H228 H 0.33435 0.93763 0.93965 0.0
H229 H 0.28315 0.01928 0.10641 0.0
H230 H 0.18629 -0.01571 0.03157 0.0
C231 C 0.09132 0.22405 0.6263 0.0
C232 C 0.10027 0.22401 0.66531 0.0
N233 N 0.10668 0.26197 0.6769 0.0
N234 N 0.09193 0.26182 0.61315 0.0
C235 C 0.10161 0.28424 0.6445 0.0
H236 H 0.08476 0.19822 0.60854 0.0
Co237 Co 0.08154 0.27742 0.56205 0.0
C238 C 0.07737 0.3646 0.57124 0.0
O239 O 0.10823 0.36926 0.54826 0.0
N240 N 0.07109 0.29361 0.51054 0.0
C241 C 0.0405 0.32171 0.46037 0.0
C242 C 0.03831 0.31376 0.49935 0.0
C243 C 0.09287 0.28973 0.47757 0.0
N244 N 0.07481 0.3066 0.44649 0.0
O245 O 0.13574 0.29321 0.55699 0.0
H246 H 0.01442 0.32267 0.51856 0.0
H247 H 0.12136 0.27486 0.47632 0.0
O248 O 0.06538 0.32964 0.57974 0.0
C249 C 0.15691 0.26277 0.54919 0.0
O250 O 0.1388 0.22837 0.54412 0.0
N251 N 0.02929 0.25878 0.567 0.0
C252 C 0.95256 0.22771 0.57119 0.0
C253 C 0.96555 0.25638 0.59811 0.0
C254 C 0.00416 0.27146 0.59561 0.0
C255 C 0.01781 0.2297 0.54164 0.0
C256 C -0.02069 0.21411 0.54287 0.0
H257 H 0.01392 0.29313 0.61683 0.0
H258 H 0.03855 0.21894 0.51999 0.0
H259 H 0.10441 0.31635 0.64364 0.0
H260 H 0.10245 0.19785 0.68351 0.0
H261 H 0.01889 0.33845 0.44379 0.0
H262 H 0.94579 0.26765 0.62043 0.0
H263 H 0.97057 0.19158 0.52194 0.0
C264 C 0.18195 0.05928 0.08281 0.0
C265 C 0.21926 0.04887 0.0678 0.0
C266 C 0.16996 0.09941 0.08444 0.0
C267 C 0.19563 0.12941 0.06991 0.0
C268 C 0.23264 0.11861 0.05323 0.0
C269 C 0.24421 0.07848 0.05285 0.0
C270 C 0.1307 0.10983 0.10312 0.0
C271 C 0.26057 0.14956 0.03673 0.0
C272 C 0.16236 0.23503 0.04707 0.0
C273 C 0.18038 0.25609 0.07749 0.0
C274 C 0.16521 0.19323 0.04506 0.0
C275 C 0.18571 0.17236 0.07469 0.0
C276 C 0.20106 0.19352 0.10701 0.0
C277 C 0.19875 0.23522 0.10769 0.0
C278 C 0.14902 0.17185 1.00984 0.0
C279 C 0.2222 0.17239 0.13972 0.0
H280 H 0.16282 0.03616 0.09445 0.0
H281 H 0.27292 0.07015 0.04097 0.0
H282 H 0.13613 0.12678 0.13032 0.0
H283 H 0.113 0.1293 0.08371 0.0
H284 H 0.11285 0.0829 0.1102 0.0
H285 H 0.28648 0.1359 1.02172 0.0
H286 H 0.24457 0.16891 1.01582 0.0
H287 H 0.2718 0.16898 0.06044 0.0
H288 H 0.1485 0.25137 1.02355 0.0
H289 H 0.21244 0.25168 0.13133 0.0
H290 H 0.13204 0.14493 1.01852 0.0
H291 H 0.17414 0.16175 0.99136 0.0
H292 H 0.12944 0.19135 0.99217 0.0
H293 H 0.20471 0.14621 0.14952 0.0
H294 H 0.22742 0.19237 0.16501 0.0
H295 H 0.2514 0.16126 0.12931 0.0
C296 C 0.89237 0.20327 0.60691 0.0
C297 C 0.91076 0.21354 0.57177 0.0
C298 C 0.85163 0.19422 0.60835 0.0
C299 C 0.82872 0.19607 0.57392 0.0
C300 C 0.8476 0.20436 0.53805 0.0
C301 C 0.88846 0.21284 0.53739 0.0
C302 C 0.83271 0.18496 0.64707 0.0
C303 C 0.82418 0.20702 0.50073 0.0
C304 C 0.72121 0.15999 0.57106 0.0
C305 C 0.7006 0.19589 0.57672 0.0
C306 C 0.76308 0.15921 0.57086 0.0
C307 C 0.78456 0.1952 0.57613 0.0
C308 C 0.7638 0.2313 0.58249 0.0
C309 C 0.7222 0.23115 0.58286 0.0
C310 C 0.78432 0.12012 0.56442 0.0
C311 C 0.78551 0.27041 0.58809 0.0
H312 H 0.90971 0.20318 0.63345 0.0
H313 H 0.90253 0.221 0.5102 0.0
H314 H 0.81428 0.21064 0.65654 0.0
H315 H 0.81274 0.15872 0.64459 0.0
H316 H 0.85526 0.17897 0.66989 0.0
H317 H 0.84381 0.20916 0.47484 0.0
H318 H 0.80454 0.18066 0.49733 0.0
H319 H 0.80485 0.23382 0.50162 0.0
H320 H 0.70469 0.13262 0.56639 0.0
H321 H 0.7066 0.25906 0.58734 0.0
H322 H 0.80609 0.11489 0.58806 0.0
H323 H 0.80128 0.12126 0.5368 0.0
H324 H 0.76341 0.09448 0.56315 0.0
H325 H 0.80605 0.26833 0.6132 0.0
H326 H 0.76488 0.29576 0.59314 0.0
H327 H 0.80379 0.27706 0.56205 0.0
C328 C 0.75232 0.89871 0.10988 0.0
C329 C 0.74128 0.91605 0.07448 0.0
C330 C 0.76215 0.8581 0.1121 0.0
C331 C 0.76035 0.83421 0.07819 0.0
C332 C 0.75122 0.85204 0.04202 0.0
C333 C 0.74196 0.89282 0.04058 0.0
C334 C 0.77226 0.84035 0.15112 0.0
C335 C 0.74859 0.82755 1.00525 0.0
C336 C 0.79928 0.72742 0.07782 0.0
C337 C 0.76417 0.70586 0.08451 0.0
C338 C 0.79884 0.76938 0.07633 0.0
C339 C 0.76242 0.79001 0.08135 0.0
C340 C 0.7271 0.76832 0.08868 0.0
C341 C 0.72846 0.72665 0.09032 0.0
C342 C 0.83712 0.79161 0.06887 0.0
C343 C 0.68757 0.78909 0.09406 0.0
H344 H 0.75241 0.91676 0.13605 0.0
H345 H 0.73322 0.90607 1.0132 0.0
H346 H 0.74727 0.82135 0.16113 0.0
H347 H 0.79895 0.82105 0.14883 0.0
H348 H 0.77783 0.86366 0.17345 0.0
H349 H 0.74563 0.84649 0.97898 0.0
H350 H 0.7753 0.80844 1.00196 0.0
H351 H 0.72236 0.80751 1.00687 0.0
H352 H 0.82698 0.71154 0.07335 0.0
H353 H 0.70115 0.71033 0.09555 0.0
H354 H 0.84216 0.81413 0.09201 0.0
H355 H 0.83504 0.80792 0.04096 0.0
H356 H 0.86323 0.77136 0.06761 0.0
H357 H 0.68933 0.81043 0.11867 0.0
H358 H 0.66292 0.76782 0.0998 0.0
H359 H 0.68019 0.80648 0.06766 0.0
C360 C 0.06823 0.75977 0.60622 0.0
C361 C 0.048 0.74815 0.57241 0.0
C362 C 0.10893 0.76911 0.60531 0.0
C363 C 0.12994 0.76654 0.56975 0.0
C364 C 0.10911 0.75734 0.53511 0.0
C365 C 0.06834 0.74832 0.53685 0.0
C366 C 0.1299 0.77916 0.64284 0.0
C367 C 0.13041 0.75418 0.49661 0.0
C368 C 0.23743 0.80281 0.56372 0.0
C369 C 0.25831 0.76708 0.56942 0.0
C370 C 0.19552 0.80337 0.56388 0.0
C371 C 0.17424 0.76738 0.56977 0.0
C372 C 0.19528 0.73139 0.57576 0.0
C373 C 0.2369 0.73173 0.57557 0.0
C374 C 0.17403 0.8423 0.55757 0.0
C375 C 0.17382 0.69231 0.58215 0.0
H376 H 0.05245 0.76041 0.63369 0.0
H377 H 0.05292 0.73922 0.51064 0.0
H378 H 0.14893 0.75371 0.6516 0.0
H379 H 0.1496 0.80542 0.639 0.0
H380 H 0.10862 0.78548 0.66677 0.0
H381 H 0.10933 0.75222 0.47184 0.0
H382 H 0.15025 0.78021 0.49216 0.0
H383 H 0.14932 0.72707 0.49647 0.0
H384 H 0.25377 0.83024 0.55894 0.0
H385 H 0.25268 0.70394 0.58003 0.0
H386 H 0.154 0.84855 0.58247 0.0
H387 H 0.15513 0.8402 0.53125 0.0
H388 H 0.19487 0.86777 0.5541 0.0
H389 H 0.15441 0.6945 0.60813 0.0
H390 H 0.19464 0.66696 0.58628 0.0
H391 H 0.15442 0.68557 0.55691 0.0
C392 C 0.74769 0.38311 0.07423 0.0
C393 C 0.72156 0.41348 0.06322 0.0
C394 C 0.73593 0.34301 0.07289 0.0
C395 C 0.69742 0.33304 0.05923 0.0
C396 C 0.67066 0.36375 0.04862 0.0
C397 C 0.68294 0.40378 0.05118 0.0
C398 C 0.76513 0.31127 0.08524 0.0
C399 C 0.62972 0.35428 0.03316 0.0
C400 C 0.69586 0.22878 1.01722 0.0
C401 C 0.68007 0.2068 0.04809 0.0
C402 C 0.69866 0.27043 1.0193 0.0
C403 C 0.68667 0.29033 0.05368 0.0
C404 C 0.66882 0.26835 0.08421 0.0
C405 C 0.66525 0.22669 0.08081 0.0
C406 C 0.71679 0.29279 0.98563 0.0
C407 C 0.65638 0.28831 0.12161 0.0
H408 H 0.77743 0.39082 0.08385 0.0
H409 H 0.66288 0.42744 0.04253 0.0
H410 H 0.75113 0.291 0.10671 0.0
H411 H 0.77379 0.29294 0.05974 0.0
H412 H 0.79251 0.32416 0.09826 0.0
H413 H 0.61156 0.38155 1.02872 0.0
H414 H 0.63244 0.33838 1.00499 0.0
H415 H 0.61371 0.33415 0.05335 0.0
H416 H 0.70718 0.2132 0.99188 0.0
H417 H 0.6535 0.20947 0.10485 0.0
H418 H 0.74703 0.3032 0.99365 0.0
H419 H 0.69879 0.31953 0.9786 0.0
H420 H 0.71922 0.27389 0.95918 0.0
H421 H 0.6833 0.29763 0.13793 0.0
H422 H 0.63855 0.26812 0.14035 0.0
H423 H 0.63878 0.31557 0.11565 0.0
C424 C 0.5615 0.68397 0.55311 0.0
C425 C 0.5514 0.7242 0.55834 0.0
C426 C 0.60145 0.67162 0.55392 0.0
C427 C 0.63178 0.70011 0.56084 0.0
C428 C 0.62149 0.74058 0.56721 0.0
C429 C 0.58148 0.75216 0.56553 0.0
C430 C 0.6113 0.62841 0.54627 0.0
C431 C 0.65282 0.77183 0.57531 0.0
C432 C 0.73631 0.67325 0.59346 0.0
C433 C 0.75794 0.6816 0.55973 0.0
C434 C 0.69465 0.67705 0.59389 0.0
C435 C 0.67451 0.68854 0.55951 0.0
C436 C 0.69628 0.69375 0.52465 0.0
C437 C 0.73786 0.69094 0.52539 0.0
C438 C 0.67269 0.67194 0.63178 0.0
C439 C 0.67596 0.70492 0.48713 0.0
H440 H 0.5382 0.66238 0.54738 0.0
H441 H 0.57361 0.78318 0.57008 0.0
H442 H 0.62905 0.62591 0.51919 0.0
H443 H 0.62977 0.61631 0.57018 0.0
H444 H 0.58421 0.60966 0.54323 0.0
H445 H 0.63967 0.80141 0.58216 0.0
H446 H 0.67173 0.76247 0.60007 0.0
H447 H 0.6725 0.77511 0.54964 0.0
H448 H 0.75213 0.66661 0.62011 0.0
H449 H 0.75486 0.69743 0.49936 0.0
H450 H 0.64582 0.65319 0.62769 0.0
H451 H 0.66259 0.70154 0.64237 0.0
H452 H 0.69169 0.65823 0.65451 0.0
H453 H 0.64939 0.68592 0.48222 0.0
H454 H 0.69616 0.70194 0.46173 0.0
H455 H 0.66568 0.73631 0.48882 0.0
C456 C 0.25049 0.56535 1.01521 0.0
C457 C 0.24162 0.54629 0.05038 0.0
C458 C 0.25996 0.60612 1.01422 0.0
C459 C 0.26017 0.6284 0.04921 0.0
C460 C 0.25339 0.60882 0.08501 0.0
C461 C 0.24429 0.56796 0.08517 0.0
C462 C 0.26745 0.62579 0.9755 0.0
C463 C 0.25304 0.63153 0.12293 0.0
C464 C 0.29821 0.73556 0.05169 0.0
C465 C 0.26256 0.75696 0.0481 0.0
C466 C 0.29819 0.69356 0.05149 0.0
C467 C 0.26168 0.67272 0.04791 0.0
C468 C 0.22578 0.69427 0.04386 0.0
C469 C 0.22669 0.73598 0.04387 0.0
C470 C 0.33706 0.6715 0.05554 0.0
C471 C 0.18614 0.67327 0.0401 0.0
H472 H 0.24911 0.54854 0.98831 0.0
H473 H 0.23723 0.55345 0.11242 0.0
H474 H 0.24173 0.64495 0.96791 0.0
H475 H 0.29409 0.64527 0.977 0.0
H476 H 0.27173 0.60361 0.95185 0.0
H477 H 0.25208 0.61132 0.14844 0.0
H478 H 0.27971 0.65086 0.12533 0.0
H479 H 0.22654 0.65122 0.12396 0.0
H480 H 0.32603 0.75159 0.0549 0.0
H481 H 0.19896 0.75218 0.04106 0.0
H482 H 0.34089 0.65035 0.03099 0.0
H483 H 0.33683 0.65364 0.08261 0.0
H484 H 0.36301 0.69201 0.05632 0.0
H485 H 0.18643 0.6531 1.01452 0.0
H486 H 0.16098 0.69446 0.0369 0.0
H487 H 0.18067 0.65459 0.06613 0.0
C488 C 0.22144 0.30081 0.55117 0.0
C489 C 0.20085 0.26459 0.54763 0.0
C490 C 0.26331 0.30171 0.55099 0.0
C491 C 0.28479 0.26553 0.54757 0.0
C492 C 0.26404 0.22903 0.54362 0.0
C493 C 0.22245 0.22906 0.54352 0.0
C494 C 0.28455 0.34118 0.55484 0.0
C495 C 0.28576 0.18971 0.54015 0.0
C496 C 0.39197 0.25562 0.5153 0.0
C497 C 0.41098 0.2474 0.55062 0.0
C498 C 0.35124 0.26464 0.51411 0.0
C499 C 0.32898 0.26494 0.54903 0.0
C500 C 0.3485 0.25885 0.58496 0.0
C501 C 0.38933 0.25027 0.58532 0.0
C502 C 0.3316 0.27148 0.47528 0.0
C503 C 0.3258 0.25855 0.62281 0.0
H504 H 0.2049 0.32837 0.55427 0.0
H505 H 0.20685 0.20089 0.5408 0.0
H506 H 0.30233 0.34162 0.58196 0.0
H507 H 0.30559 0.34522 0.53032 0.0
H508 H 0.26358 0.36677 0.55539 0.0
H509 H 0.26512 0.164 0.5371 0.0
H510 H 0.30584 0.19017 0.51459 0.0
H511 H 0.30451 0.18489 0.56623 0.0
H512 H 0.4088 0.25407 0.48847 0.0
H513 H 0.40385 0.2437 0.61267 0.0
H514 H 0.31165 0.29779 0.47659 0.0
H515 H 0.31303 0.24523 0.46768 0.0
H516 H 0.35372 0.27608 0.45173 0.0
H517 H 0.30605 0.28495 0.62491 0.0
H518 H 0.34592 0.25829 0.64839 0.0
H519 H 0.30662 0.23162 0.624 0.0
C520 C 0.01804 0.40574 0.06634 0.0
C521 C 0.05397 0.41083 0.04621 0.0
C522 C -0.01201 0.43474 0.06477 0.0
C523 C -0.00613 0.46964 0.04236 0.0
C524 C 0.02909 0.47392 1.02024 0.0
C525 C 0.05872 0.44449 1.02243 0.0
C526 C 0.95074 0.42893 0.08866 0.0
C527 C 0.03631 0.51044 0.99566 0.0
C528 C 0.90097 0.53146 1.02469 0.0
C529 C 0.90303 0.55929 0.05516 0.0
C530 C 0.93119 0.50315 1.01898 0.0
C531 C 0.96426 0.50263 0.04439 0.0
C532 C 0.9676 0.5321 0.07378 0.0
C533 C 0.93702 0.56016 0.07872 0.0
C534 C 0.92675 0.47261 0.98699 0.0
C535 C 0.00247 0.53266 0.10142 0.0
H536 H 0.01397 0.37986 0.08472 0.0
H537 H 0.08619 0.44859 1.00649 0.0
H538 H 0.94934 0.452 0.11178 0.0
H539 H 0.92395 0.43259 0.07022 0.0
H540 H 0.9496 0.39907 0.10253 0.0
H541 H 0.0632 0.50736 0.97713 0.0
H542 H 0.01027 0.51635 0.97676 0.0
H543 H 0.04023 0.53685 1.01475 0.0
H544 H 0.87509 0.53097 1.00595 0.0
H545 H 0.9389 0.58151 0.10233 0.0
H546 H 0.9212 0.44283 0.99989 0.0
H547 H 0.95456 0.47047 0.96976 0.0
H548 H 0.90175 0.47978 0.96711 0.0
H549 H 0.00189 0.50543 0.11966 0.0
H550 H 0.00211 0.55917 0.12083 0.0
H551 H 0.03088 0.53245 0.08502 0.0
C552 C 0.43644 0.9038 0.51885 0.0
C553 C 0.40599 0.90555 0.54673 0.0
C554 C 0.46433 0.93479 0.51523 0.0
C555 C 0.4617 0.96835 0.54009 0.0
C556 C 0.42975 0.97131 0.56679 0.0
C557 C 0.40222 0.93993 0.56971 0.0
C558 C 0.49764 0.9307 0.48608 0.0
C559 C 0.4258 0.00671 0.59372 0.0
C560 C 0.55463 0.0257 0.56884 0.0
C561 C 0.55032 0.06107 0.54759 0.0
C562 C 0.5267 -0.00528 0.56559 0.0
C563 C 0.49377 -0.00094 0.54031 0.0
C564 C 0.49042 0.03374 0.51721 0.0
C565 C 0.51871 0.06434 0.52114 0.0
C566 C 0.53144 0.95811 0.59064 0.0
C567 C 0.45603 0.03932 0.48958 0.0
H568 H 0.43924 0.87763 0.50054 0.0
H569 H 0.37882 0.94162 0.59131 0.0
H570 H 0.50033 0.95822 0.46845 0.0
H571 H 0.52625 0.92661 0.5016 0.0
H572 H 0.49316 0.9049 0.46625 0.0
H573 H 0.39781 0.00583 0.61087 0.0
H574 H 0.4513 0.00735 0.61416 0.0
H575 H 0.42658 0.03489 0.57693 0.0
H576 H 0.57892 0.02282 0.58932 0.0
H577 H 0.51531 0.09137 0.5043 0.0
H578 H 0.53018 0.93075 0.57251 0.0
H579 H 0.50654 0.95646 0.61176 0.0
H580 H 0.55991 0.95822 0.60701 0.0
H581 H 0.45261 0.01272 0.47065 0.0
H582 H 0.45982 0.06607 0.47097 0.0
H583 H 0.42803 0.04263 0.50635 0.0
C584 C 0.43501 0.90356 0.04851 0.0
C585 C 0.40174 0.90428 0.07307 0.0
C586 C 0.46584 0.93151 0.0528 0.0
C587 C 0.46349 0.9607 0.08254 0.0
C588 C 0.43116 0.96005 0.10887 0.0
C589 C 0.40066 0.93187 0.1038 0.0
C590 C 0.4999 0.9311 1.02418 0.0
C591 C 0.4278 -0.00972 0.14126 0.0
C592 C 0.55894 0.01801 0.1026 0.0
C593 C 0.55383 0.05197 0.07932 0.0
C594 C 0.52916 -0.01127 0.10525 0.0
C595 C 0.4934 -0.00651 0.08412 0.0
C596 C 0.4872 0.02868 0.06226 0.0
C597 C 0.51744 0.05752 0.06021 0.0
C598 C 0.53673 0.95187 0.12922 0.0
C599 C 0.44938 0.035 0.03945 0.0
H600 H 0.43612 0.8824 1.02469 0.0
H601 H 0.37534 0.93223 0.12329 0.0
H602 H 0.49902 0.95857 1.00629 0.0
H603 H 0.52876 0.93094 0.03978 0.0
H604 H 0.49879 0.90484 1.00447 0.0
H605 H 0.40327 -0.01694 0.16172 0.0
H606 H 0.45606 -0.00793 0.15778 0.0
H607 H 0.42216 0.02023 0.1288 0.0
H608 H 0.5868 0.01353 0.11775 0.0
H609 H 0.51309 0.08364 0.04223 0.0
H610 H 0.53989 0.92565 0.10975 0.0
H611 H 0.51118 0.94592 0.14878 0.0
H612 H 0.56416 0.95455 0.14703 0.0
H613 H 0.44717 0.01221 1.01611 0.0
H614 H 0.4481 0.06503 1.02595 0.0
H615 H 0.42306 0.03128 0.05855 0.0
C616 C 0.95013 0.55145 0.64835 0.0
C617 C 0.92763 0.56751 0.61784 0.0
C618 C 0.97452 0.51801 0.64251 0.0
C619 C 0.97615 0.49991 0.60538 0.0
C620 C 0.95253 0.51516 0.57478 0.0
C621 C 0.92863 0.54883 0.58136 0.0
C622 C -0.00062 0.50272 0.67581 0.0
C623 C 0.95305 0.49635 0.53489 0.0
C624 C 0.06664 0.43839 0.57686 0.0
C625 C 0.05275 0.3994 0.58253 0.0
C626 C 0.04225 0.47144 0.58484 0.0
C627 C 0.00291 0.46529 0.59838 0.0
C628 C -0.01107 0.42603 0.60465 0.0
C629 C 0.01406 0.39362 0.59685 0.0
C630 C 0.05836 0.51292 0.57826 0.0
C631 C 0.94709 0.4182 0.61872 0.0
H632 H 0.94972 0.56574 0.67662 0.0
H633 H 0.9111 0.56082 0.55772 0.0
H634 H -0.0071 0.47073 0.68103 0.0
H635 H 0.03141 0.50506 0.66835 0.0
H636 H -0.00602 0.51953 0.70315 0.0
H637 H 0.93204 0.51107 0.51458 0.0
H638 H -0.01656 0.49816 0.52243 0.0
H639 H 0.94519 0.46428 0.53693 0.0
H640 H 0.09648 0.44312 0.56586 0.0
H641 H 0.00284 0.36365 0.60099 0.0
H642 H 0.05572 0.53084 0.60527 0.0
H643 H 0.04057 0.52818 0.5556 0.0
H644 H 0.09002 0.51268 0.56901 0.0
H645 H 0.94184 0.43385 0.64667 0.0
H646 H 0.94106 0.3859 0.62285 0.0
H647 H 0.92538 0.43015 0.59747 0.0
C648 C 0.13961 0.3956 0.24624 0.0
C649 C 0.14402 0.36881 0.21512 0.0
C650 C 0.13229 0.38214 0.28416 0.0
C651 C 0.12963 0.3407 0.29154 0.0
C652 C 0.13613 0.31335 0.26073 0.0
C653 C 0.14311 0.3277 0.22289 0.0
C654 C 0.12565 0.41245 0.31604 0.0
C655 C 0.13401 0.26893 0.26738 0.0
C656 C 0.13012 0.31216 0.39888 0.0
C657 C 0.08923 0.3103 0.40702 0.0
C658 C 0.14395 0.32015 0.36101 0.0
C659 C 0.11626 0.3266 0.33062 0.0
C660 C 0.07507 0.32288 0.33839 0.0
C661 C 0.06216 0.31462 0.37629 0.0
C662 C 0.18813 0.32336 0.3539 0.0
C663 C 0.04441 0.32937 0.30697 0.0
H664 H 0.14124 0.42736 0.24087 0.0
H665 H 0.14635 0.30666 0.1992 0.0
H666 H 0.0945 0.41044 0.32654 0.0
H667 H 0.14535 0.40611 0.34109 0.0
H668 H 0.13126 0.44346 0.30612 0.0
H669 H 0.14484 0.25171 0.24187 0.0
H670 H 0.15185 0.2605 0.29318 0.0
H671 H 0.10276 0.26015 0.27325 0.0
H672 H 0.15131 0.30897 0.42234 0.0
H673 H 0.03058 0.31226 0.38201 0.0
H674 H 0.19611 0.35494 0.34828 0.0
H675 H 0.1967 0.3059 0.3278 0.0
H676 H 0.20576 0.31269 0.37909 0.0
H677 H 0.04574 0.36076 0.2969 0.0
H678 H 0.0137 0.32306 0.31717 0.0
H679 H 0.05084 0.31004 0.28156 0.0
C680 C 0.63686 0.06676 0.87792 0.0
C681 C 0.64227 0.0936 0.90885 0.0
C682 C 0.6295 0.08019 0.84002 0.0
C683 C 0.62789 0.12164 0.83245 0.0
C684 C 0.63536 0.149 0.86305 0.0
C685 C 0.64231 0.13468 0.90089 0.0
C686 C 0.62176 0.04989 0.80837 0.0
C687 C 0.63439 0.19341 0.85616 0.0
C688 C 0.62882 0.14923 0.72493 0.0
C689 C 0.58797 0.15208 0.71693 0.0
C690 C 0.64255 0.14127 0.76281 0.0
C691 C 0.61478 0.13584 0.79336 0.0
C692 C 0.57368 0.14058 0.78574 0.0
C693 C 0.56088 0.14879 0.74781 0.0
C694 C 0.68663 0.13694 0.76977 0.0
C695 C 0.54296 0.13519 0.81733 0.0
H696 H 0.63777 0.035 0.8834 0.0
H697 H 0.64631 0.15576 0.92443 0.0
H698 H 0.59064 0.05276 0.798 0.0
H699 H 0.64154 0.05547 0.78317 0.0
H700 H 0.62642 0.01879 0.81844 0.0
H701 H 0.64575 0.2105 0.88153 0.0
H702 H 0.65237 0.20124 0.83024 0.0
H703 H 0.60337 0.20294 0.85036 0.0
H704 H 0.65002 0.15161 0.70136 0.0
H705 H 0.52936 0.15191 0.74218 0.0
H706 H 0.69375 0.10521 0.77558 0.0
H707 H 0.69578 0.15437 0.7957 0.0
H708 H 0.70448 0.14696 0.74443 0.0
H709 H 0.54336 0.10384 0.82759 0.0
H710 H 0.51241 0.14233 0.80723 0.0
H711 H 0.55007 0.15448 0.8426 0.0
C712 C 0.82717 0.64606 0.41221 0.0
C713 C 0.86805 0.64502 0.42057 0.0
C714 C 0.81305 0.63982 0.37409 0.0
C715 C 0.84042 0.63225 0.34358 0.0
C716 C 0.88172 0.63303 0.35162 0.0
C717 C 0.89494 0.6395 0.3898 0.0
C718 C 0.76881 0.6396 0.36682 0.0
C719 C 0.91207 0.62531 0.32012 0.0
C720 C 0.8138 0.56624 0.25755 0.0
C721 C 0.81125 0.59374 0.22696 0.0
C722 C 0.82138 0.57862 0.29582 0.0
C723 C 0.82638 0.6197 0.30411 0.0
C724 C 0.82166 0.64789 0.2738 0.0
C725 C 0.81417 0.63459 0.23557 0.0
C726 C 0.82592 0.54742 0.32708 0.0
C727 C 0.82636 0.69198 0.28139 0.0
H728 H 0.8061 0.6502 0.43568 0.0
H729 H 0.92657 0.63962 0.39566 0.0
H730 H 0.76149 0.65792 0.34101 0.0
H731 H 0.75882 0.60869 0.36066 0.0
H732 H 0.75179 0.65108 0.39216 0.0
H733 H 0.94306 0.62959 0.33052 0.0
H734 H 0.90894 0.59425 0.30934 0.0
H735 H 0.90691 0.64546 0.29514 0.0
H736 H 0.81065 0.53471 0.2514 0.0
H737 H 0.81232 0.65607 0.21221 0.0
H738 H 0.80663 0.55464 0.35227 0.0
H739 H 0.85711 0.54718 0.33762 0.0
H740 H 0.81831 0.51702 0.31653 0.0
H741 H 0.8089 0.70102 0.30731 0.0
H742 H 0.81672 0.71022 0.2562 0.0
H743 H 0.85804 0.69876 0.28754 0.0
C744 C 0.3087 0.89282 0.87395 0.0
C745 C 0.30508 0.8663 0.90526 0.0
C746 C 0.31639 0.87913 0.83615 0.0
C747 C 0.32008 0.83769 0.82906 0.0
C748 C 0.31385 0.81052 0.85997 0.0
C749 C 0.30658 0.82513 0.89776 0.0
C750 C 0.32276 0.90928 0.80421 0.0
C751 C 0.31682 0.7661 0.85356 0.0
C752 C 0.32353 0.81002 0.72148 0.0
C753 C 0.36469 0.80959 0.71452 0.0
C754 C 0.30832 0.81682 0.7591 0.0
C755 C 0.33489 0.82367 0.7904 0.0
C756 C 0.37638 0.82114 0.78382 0.0
C757 C 0.39066 0.81388 0.74618 0.0
C758 C 0.26389 0.81854 0.76497 0.0
C759 C 0.4059 0.82821 0.81619 0.0
H760 H 0.3065 0.92459 0.87916 0.0
H761 H 0.30383 0.80434 0.92162 0.0
H762 H 0.35415 0.90809 0.79428 0.0
H763 H 0.30372 0.9021 0.77884 0.0
H764 H 0.31611 0.94021 0.81384 0.0
H765 H 0.30519 0.74898 0.87872 0.0
H766 H 0.3002 0.75714 0.82711 0.0
H767 H 0.34841 0.75775 0.84902 0.0
H768 H 0.30316 0.80674 0.69733 0.0
H769 H 0.42246 0.81249 0.7414 0.0
H770 H 0.25466 0.84993 0.76972 0.0
H771 H 0.25512 0.8014 0.79114 0.0
H772 H 0.24742 0.80663 0.73948 0.0
H773 H 0.40357 0.85952 0.82646 0.0
H774 H 0.43705 0.82267 0.80686 0.0
H775 H 0.39913 0.80863 0.84125 0.0
C776 C 0.7487 0.64782 0.89505 0.0
C777 C 0.77514 0.62635 0.91864 0.0
C778 C 0.75951 0.66011 0.85747 0.0
C779 C 0.79772 0.65061 0.84281 0.0
C780 C 0.82461 0.62897 0.86646 0.0
C781 C 0.81307 0.61726 0.90409 0.0
C782 C 0.73006 0.68349 0.83352 0.0
C783 C 0.86554 0.61803 0.85192 0.0
C784 C 0.8144 0.65219 0.73305 0.0
C785 C 0.83366 0.68907 0.72748 0.0
C786 C 0.80245 0.63941 0.77022 0.0
C787 C 0.80975 0.66392 0.803 0.0
C788 C 0.82845 0.70133 0.79776 0.0
C789 C 0.84 0.71343 0.76032 0.0
C790 C 0.78232 0.59939 0.77448 0.0
C791 C 0.83667 0.72853 0.83187 0.0
H792 H 0.71958 0.65553 0.9062 0.0
H793 H 0.83352 0.60034 0.92188 0.0
H794 H 0.74276 0.71303 0.82601 0.0
H795 H 0.724 0.66764 0.80583 0.0
H796 H 0.70142 0.68818 0.84898 0.0
H797 H 0.8828 0.6008 0.87367 0.0
H798 H 0.86307 0.6 0.82497 0.0
H799 H 0.88241 0.64543 0.84454 0.0
H800 H 0.80884 0.63278 0.70857 0.0
H801 H 0.85442 0.74202 0.75726 0.0
H802 H 0.75268 0.6032 0.78817 0.0
H803 H 0.80011 0.57998 0.79388 0.0
H804 H 0.77839 0.58393 0.74616 0.0
H805 H 0.80852 0.73561 0.84722 0.0
H806 H 0.85104 0.75693 0.82299 0.0
H807 H 0.85636 0.71327 0.85297 0.0
C808 C 0.35542 0.75914 0.3715 0.0
C809 C 0.3463 0.78232 0.4044 0.0
C810 C 0.34383 0.77099 0.33405 0.0
C811 C 0.32289 0.80722 0.32901 0.0
C812 C 0.31438 0.83129 0.36185 0.0
C813 C 0.326 0.81852 0.39907 0.0
C814 C 0.35343 0.74434 0.29989 0.0
C815 C 0.2923 0.87024 0.35775 0.0
C816 C 0.31929 0.85217 0.2273 0.0
C817 C 0.2814 0.84047 0.21454 0.0
C818 C 0.33309 0.84194 0.26457 0.0
C819 C 0.30859 0.81906 0.28958 0.0
C820 C 0.27044 0.80692 0.2767 0.0
C821 C 0.25729 0.8179 0.2395 0.0
C822 C 0.37378 0.85582 0.27729 0.0
C823 C 0.24355 0.78206 0.30213 0.0
H824 H 0.37174 0.73158 0.37489 0.0
H825 H 0.31836 0.8366 0.42405 0.0
H826 H 0.3255 0.73449 0.28563 0.0
H827 H 0.3709 0.76107 0.27797 0.0
H828 H 0.37058 0.71748 0.30854 0.0
H829 H 0.28994 0.88661 0.38575 0.0
H830 H 0.30755 0.88964 0.33633 0.0
H831 H 0.26186 0.86452 0.34662 0.0
H832 H 0.33789 0.86999 0.20838 0.0
H833 H 0.22823 0.80825 0.22967 0.0
H834 H 0.39266 0.82974 0.28444 0.0
H835 H 0.3712 0.87415 0.30405 0.0
H836 H 0.38901 0.87372 0.25461 0.0
H837 H 0.25851 0.75362 0.30966 0.0
H838 H 0.21474 0.77507 0.28785 0.0
H839 H 0.23744 0.79802 0.32975 0.0
C840 C 0.13669 0.31194 0.72152 0.0
C841 C 0.11679 0.27555 0.71568 0.0
C842 C 0.14746 0.32486 0.75902 0.0
C843 C 0.13833 0.30083 0.79163 0.0
C844 C 0.11784 0.26436 0.78603 0.0
C845 C 0.10725 0.25227 0.74829 0.0
C846 C 0.16922 0.36398 0.76367 0.0
C847 C 0.1075 0.23779 0.81993 0.0
C848 C 0.20124 0.31273 0.88297 0.0
C849 C 0.17645 0.33563 0.9071 0.0
C850 C 0.1892 0.30128 0.84547 0.0
C851 C 0.15141 0.31307 0.83145 0.0
C852 C 0.12615 0.33612 0.85565 0.0
C853 C 0.1389 0.34699 0.89318 0.0
C854 C 0.21693 0.27636 0.82089 0.0
C855 C 0.08575 0.34952 0.84178 0.0
H856 H 0.14464 0.33005 0.69673 0.0
H857 H 0.09127 0.22452 0.74441 0.0
H858 H 0.15315 0.3835 0.78447 0.0
H859 H 0.19927 0.35856 0.77585 0.0
H860 H 0.17251 0.38009 0.73569 0.0
H861 H 0.0908 0.21073 0.81083 0.0
H862 H 0.13509 0.2283 0.83495 0.0
H863 H 0.08929 0.25449 0.84136 0.0
H864 H 0.23 0.30325 0.89361 0.0
H865 H 0.11973 0.36504 0.91138 0.0
H866 H 0.22371 0.29209 0.79336 0.0
H867 H 0.20236 0.24773 0.81311 0.0
H868 H 0.24537 0.26975 0.83596 0.0
H869 H 0.08898 0.3678 0.81514 0.0
H870 H 0.06967 0.36734 0.86404 0.0
H871 H 0.06731 0.32322 0.83405 0.0
C872 C 0.70199 0.11398 0.24967 0.0
C873 C 0.67796 0.12263 0.2174 0.0
C874 C 0.69048 0.12486 0.2875 0.0
C875 C 0.65385 0.14475 0.29348 0.0
C876 C 0.62908 0.15298 0.2612 0.0
C877 C 0.64143 0.14191 0.22363 0.0
C878 C 0.71781 0.11548 0.32104 0.0
C879 C 0.58978 0.17411 0.26629 0.0
C880 C 0.60972 0.14583 0.39568 0.0
C881 C 0.6206 0.1839 0.40901 0.0
C882 C 0.62011 0.13273 0.35813 0.0
C883 C 0.64218 0.15818 0.33334 0.0
C884 C 0.65351 0.1965 0.34676 0.0
C885 C 0.64254 0.20888 0.38429 0.0
C886 C 0.60724 0.09176 0.34489 0.0
C887 C 0.6774 0.22444 0.3215 0.0
H888 H 0.72989 0.09848 0.24545 0.0
H889 H 0.62277 0.14919 0.19904 0.0
H890 H 0.72709 0.14354 0.33561 0.0
H891 H 0.7019 0.09723 0.34295 0.0
H892 H 0.7449 0.09913 0.31166 0.0
H893 H 0.57313 0.17671 0.23855 0.0
H894 H 0.57101 0.15791 0.28757 0.0
H895 H 0.59489 0.20451 0.27809 0.0
H896 H 0.5924 0.12652 0.41435 0.0
H897 H 0.65161 0.23806 0.3945 0.0
H898 H 0.63365 0.07371 0.3369 0.0
H899 H 0.58844 0.09426 0.31854 0.0
H900 H 0.59021 0.07559 0.36761 0.0
H901 H 0.70605 0.21027 0.3134 0.0
H902 H 0.68377 0.25328 0.33619 0.0
H903 H 0.66107 0.23055 0.29417 0.0
loop_
_geom_bond_atom_site_label_1
_geom_bond_atom_site_label_2
_geom_bond_distance
_geom_bond_site_symmetry_2
_ccdc_geom_bond_type
C0 C1 1.351 . S
C0 N3 1.368 . S
C0 H5 0.931 . S
C1 C0 1.351 . S
C1 N2 1.373 . S
C1 H29 0.930 . S
N2 C1 1.373 . S
N2 C4 1.340 . S
N3 C0 1.368 . S
N3 C4 1.321 . S
N3 Co6 2.135 1_556 S
C4 N2 1.340 . S
C4 N3 1.321 . S
C4 H28 0.930 . S
H5 C0 0.931 . S
Co6 N3 2.135 1_554 S
Co6 N9 2.121 . S
Co6 O14 2.055 . S
Co6 O17 2.039 . S
Co6 N20 2.140 . S
C7 O8 1.227 . S
C7 O17 1.265 . S
O8 C7 1.227 . S
N9 Co6 2.121 . S
N9 C11 1.375 . S
N9 C12 1.313 . S
C10 C11 1.338 . S
C10 N13 1.377 . S
C10 H30 0.930 . S
C11 N9 1.375 . S
C11 C10 1.338 . S
C11 H15 0.931 . S
C12 N9 1.313 . S
C12 N13 1.344 . S
C12 H16 0.930 . S
N13 C10 1.377 . S
N13 C12 1.344 . S
O14 Co6 2.055 . S
O14 C18 1.253 . S
H15 C11 0.931 . S
H16 C12 0.930 . S
O17 Co6 2.039 . S
O17 C7 1.265 . S
C18 O14 1.253 . S
C18 O19 1.227 . S
O19 C18 1.227 . S
N20 Co6 2.140 . S
N20 C23 1.346 . S
N20 C24 1.345 . S
C21 C22 1.387 . S
C21 C25 1.391 . S
C22 C21 1.387 . S
C22 C23 1.369 . S
C22 H31 0.929 1_554 S
C23 N20 1.346 . S
C23 C22 1.369 . S
C23 H26 0.928 1_554 S
C24 N20 1.345 . S
C24 C25 1.371 . S
C24 H27 0.931 . S
C25 C21 1.391 . S
C25 C24 1.371 . S
C25 H32 0.930 . S
H26 C23 0.928 1_556 S
H27 C24 0.931 . S
H28 C4 0.930 . S
H29 C1 0.930 . S
H30 C10 0.930 . S
H31 C22 0.929 1_556 S
H32 C25 0.930 . S
C33 C34 1.351 . S
C33 N36 1.368 . S
C33 H38 0.931 . S
C34 C33 1.351 . S
C34 N35 1.373 . S
C34 H62 0.930 . S
N35 C34 1.373 . S
N35 C37 1.340 . S
N36 C33 1.368 . S
N36 C37 1.321 . S
N36 Co39 2.135 . S
C37 N35 1.340 . S
C37 N36 1.321 . S
C37 H61 0.930 . S
H38 C33 0.931 . S
Co39 N36 2.135 . S
Co39 N42 2.121 . S
Co39 O47 2.055 . S
Co39 O50 2.039 . S
Co39 N53 2.140 . S
C40 O41 1.227 . S
C40 O50 1.265 . S
O41 C40 1.227 . S
N42 Co39 2.121 . S
N42 C44 1.375 . S
N42 C45 1.313 . S
C43 C44 1.338 . S
C43 N46 1.377 . S
C43 H63 0.930 . S
C44 N42 1.375 . S
C44 C43 1.338 . S
C44 H48 0.931 . S
C45 N42 1.313 . S
C45 N46 1.344 . S
C45 H49 0.930 . S
N46 C43 1.377 . S
N46 C45 1.344 . S
O47 Co39 2.055 . S
O47 C51 1.253 . S
H48 C44 0.931 . S
H49 C45 0.930 . S
O50 Co39 2.039 . S
O50 C40 1.265 . S
C51 O47 1.253 . S
C51 O52 1.227 . S
O52 C51 1.227 . S
N53 Co39 2.140 . S
N53 C56 1.346 . S
N53 C57 1.345 . S
C54 C55 1.387 . S
C54 C58 1.391 . S
C55 C54 1.387 . S
C55 C56 1.369 . S
C55 H64 0.929 . S
C56 N53 1.346 . S
C56 C55 1.369 . S
C56 H59 0.928 . S
C57 N53 1.345 . S
C57 C58 1.371 . S
C57 H60 0.931 . S
C58 C54 1.391 . S
C58 C57 1.371 . S
C58 H65 0.930 . S
H59 C56 0.928 . S
H60 C57 0.931 . S
H61 C37 0.930 . S
H62 C34 0.930 . S
H63 C43 0.930 . S
H64 C55 0.929 . S
H65 C58 0.930 . S
C66 C67 1.351 . S
C66 N69 1.368 . S
C66 H71 0.931 . S
C67 C66 1.351 . S
C67 N68 1.373 . S
C67 H95 0.930 . S
N68 C67 1.373 . S
N68 C70 1.340 . S
N69 C66 1.368 . S
N69 C70 1.321 . S
N69 Co72 2.135 1_556 S
C70 N68 1.340 . S
C70 N69 1.321 . S
C70 H94 0.930 . S
H71 C66 0.931 . S
Co72 N69 2.135 1_554 S
Co72 N75 2.121 . S
Co72 O80 2.055 . S
Co72 O83 2.039 . S
Co72 N86 2.140 . S
C73 O74 1.227 . S
C73 O83 1.265 . S
O74 C73 1.227 . S
N75 Co72 2.121 . S
N75 C77 1.375 . S
N75 C78 1.313 . S
C76 C77 1.338 . S
C76 N79 1.377 . S
C76 H96 0.930 . S
C77 N75 1.375 . S
C77 C76 1.338 . S
C77 H81 0.931 . S
C78 N75 1.313 . S
C78 N79 1.344 . S
C78 H82 0.930 . S
N79 C76 1.377 . S
N79 C78 1.344 . S
O80 Co72 2.055 . S
O80 C84 1.253 . S
H81 C77 0.931 . S
H82 C78 0.930 . S
O83 Co72 2.039 . S
O83 C73 1.265 . S
C84 O80 1.253 . S
C84 O85 1.227 . S
O85 C84 1.227 . S
N86 Co72 2.140 . S
N86 C89 1.346 . S
N86 C90 1.345 . S
C87 C88 1.387 . S
C87 C91 1.391 . S
C88 C87 1.387 . S
C88 C89 1.369 . S
C88 H97 0.929 1_554 S
C89 N86 1.346 . S
C89 C88 1.369 . S
C89 H92 0.928 1_554 S
C90 N86 1.345 . S
C90 C91 1.371 . S
C90 H93 0.931 . S
C91 C87 1.391 . S
C91 C90 1.371 . S
C91 H98 0.930 . S
H92 C89 0.928 1_556 S
H93 C90 0.931 . S
H94 C70 0.930 . S
H95 C67 0.930 . S
H96 C76 0.930 . S
H97 C88 0.929 1_556 S
H98 C91 0.930 . S
C99 C100 1.351 . S
C99 N102 1.368 . S
C99 H104 0.931 . S
C100 C99 1.351 . S
C100 N101 1.373 . S
C100 H128 0.930 . S
N101 C100 1.373 . S
N101 C103 1.340 . S
N102 C99 1.368 . S
N102 C103 1.321 . S
N102 Co105 2.135 . S
C103 N101 1.340 . S
C103 N102 1.321 . S
C103 H127 0.930 . S
H104 C99 0.931 . S
Co105 N102 2.135 . S
Co105 N108 2.121 . S
Co105 O113 2.055 . S
Co105 O116 2.039 . S
Co105 N119 2.140 . S
C106 O107 1.227 . S
C106 O116 1.265 . S
O107 C106 1.227 . S
N108 Co105 2.121 . S
N108 C110 1.375 . S
N108 C111 1.313 . S
C109 C110 1.338 . S
C109 N112 1.377 . S
C109 H129 0.930 . S
C110 N108 1.375 . S
C110 C109 1.338 . S
C110 H114 0.931 . S
C111 N108 1.313 . S
C111 N112 1.344 . S
C111 H115 0.930 . S
N112 C109 1.377 . S
N112 C111 1.344 . S
O113 Co105 2.055 . S
O113 C117 1.253 . S
H114 C110 0.931 . S
H115 C111 0.930 . S
O116 Co105 2.039 . S
O116 C106 1.265 . S
C117 O113 1.253 . S
C117 O118 1.227 . S
O118 C117 1.227 . S
N119 Co105 2.140 . S
N119 C122 1.346 . S
N119 C123 1.345 . S
C120 C121 1.387 . S
C120 C124 1.391 . S
C121 C120 1.387 . S
C121 C122 1.369 . S
C121 H130 0.929 . S
C122 N119 1.346 . S
C122 C121 1.369 . S
C122 H125 0.928 . S
C123 N119 1.345 . S
C123 C124 1.371 . S
C123 H126 0.931 . S
C124 C120 1.391 . S
C124 C123 1.371 . S
C124 H131 0.930 . S
H125 C122 0.928 . S
H126 C123 0.931 . S
H127 C103 0.930 . S
H128 C100 0.930 . S
H129 C109 0.930 . S
H130 C121 0.929 . S
H131 C124 0.930 . S
C132 C133 1.351 . S
C132 N135 1.368 . S
C132 H137 0.931 . S
C133 C132 1.351 . S
C133 N134 1.373 . S
C133 H161 0.930 . S
N134 C133 1.373 . S
N134 C136 1.340 . S
N135 C132 1.368 . S
N135 C136 1.321 . S
N135 Co138 2.135 . S
C136 N134 1.340 . S
C136 N135 1.321 . S
C136 H160 0.930 . S
H137 C132 0.931 . S
Co138 N135 2.135 . S
Co138 N141 2.121 1_554 S
Co138 O146 2.055 . S
Co138 O149 2.039 . S
Co138 N152 2.140 . S
C139 O140 1.227 . S
C139 O149 1.265 . S
O140 C139 1.227 . S
N141 Co138 2.121 1_556 S
N141 C143 1.375 . S
N141 C144 1.313 . S
C142 C143 1.338 . S
C142 N145 1.377 . S
C142 H162 0.930 . S
C143 N141 1.375 . S
C143 C142 1.338 . S
C143 H147 0.931 . S
C144 N141 1.313 . S
C144 N145 1.344 . S
C144 H148 0.930 . S
N145 C142 1.377 . S
N145 C144 1.344 . S
O146 Co138 2.055 . S
O146 C150 1.253 . S
H147 C143 0.931 . S
H148 C144 0.930 . S
O149 Co138 2.039 . S
O149 C139 1.265 . S
C150 O146 1.253 . S
C150 O151 1.227 . S
O151 C150 1.227 . S
N152 Co138 2.140 . S
N152 C155 1.346 . S
N152 C156 1.345 . S
C153 C154 1.387 . S
C153 C157 1.391 . S
C154 C153 1.387 . S
C154 C155 1.369 1_565 S
C154 H163 0.929 . S
C155 N152 1.346 . S
C155 C154 1.369 1_545 S
C155 H158 0.928 . S
C156 N152 1.345 . S
C156 C157 1.371 1_545 S
C156 H159 0.931 1_554 S
C157 C153 1.391 . S
C157 C156 1.371 1_565 S
C157 H164 0.930 1_554 S
H158 C155 0.928 . S
H159 C156 0.931 1_556 S
H160 C136 0.930 . S
H161 C133 0.930 . S
H162 C142 0.930 . S
H163 C154 0.929 . S
H164 C157 0.930 1_556 S
C165 C166 1.351 . S
C165 N168 1.368 . S
C165 H170 0.931 . S
C166 C165 1.351 . S
C166 N167 1.373 . S
C166 H194 0.930 . S
N167 C166 1.373 . S
N167 C169 1.340 . S
N168 C165 1.368 . S
N168 C169 1.321 . S
N168 Co171 2.135 . S
C169 N167 1.340 . S
C169 N168 1.321 . S
C169 H193 0.930 . S
H170 C165 0.931 . S
Co171 N168 2.135 . S
Co171 N174 2.121 . S
Co171 O179 2.055 . S
Co171 O182 2.039 . S
Co171 N185 2.140 . S
C172 O173 1.227 . S
C172 O182 1.265 . S
O173 C172 1.227 . S
N174 Co171 2.121 . S
N174 C176 1.375 . S
N174 C177 1.313 . S
C175 C176 1.338 . S
C175 N178 1.377 . S
C175 H195 0.930 . S
C176 N174 1.375 . S
C176 C175 1.338 . S
C176 H180 0.931 . S
C177 N174 1.313 . S
C177 N178 1.344 . S
C177 H181 0.930 . S
N178 C175 1.377 . S
N178 C177 1.344 . S
O179 Co171 2.055 . S
O179 C183 1.253 . S
H180 C176 0.931 . S
H181 C177 0.930 . S
O182 Co171 2.039 . S
O182 C172 1.265 . S
C183 O179 1.253 . S
C183 O184 1.227 . S
O184 C183 1.227 . S
N185 Co171 2.140 . S
N185 C188 1.346 . S
N185 C189 1.345 . S
C186 C187 1.387 . S
C186 C190 1.391 . S
C187 C186 1.387 . S
C187 C188 1.369 1_455 S
C187 H196 0.929 . S
C188 N185 1.346 . S
C188 C187 1.369 1_655 S
C188 H191 0.928 . S
C189 N185 1.345 . S
C189 C190 1.371 1_655 S
C189 H192 0.931 . S
C190 C186 1.391 . S
C190 C189 1.371 1_455 S
C190 H197 0.930 . S
H191 C188 0.928 . S
H192 C189 0.931 . S
H193 C169 0.930 . S
H194 C166 0.930 . S
H195 C175 0.930 . S
H196 C187 0.929 . S
H197 C190 0.930 . S
C198 C199 1.351 . S
C198 N201 1.368 . S
C198 H203 0.931 . S
C199 C198 1.351 . S
C199 N200 1.373 . S
C199 H227 0.930 . S
N200 C199 1.373 . S
N200 C202 1.340 . S
N201 C198 1.368 . S
N201 C202 1.321 . S
N201 Co204 2.135 . S
C202 N200 1.340 . S
C202 N201 1.321 . S
C202 H226 0.930 . S
H203 C198 0.931 . S
Co204 N201 2.135 . S
Co204 N207 2.121 1_554 S
Co204 O212 2.055 . S
Co204 O215 2.039 . S
Co204 N218 2.140 . S
C205 O206 1.227 . S
C205 O215 1.265 . S
O206 C205 1.227 . S
N207 Co204 2.121 1_556 S
N207 C209 1.375 . S
N207 C210 1.313 . S
C208 C209 1.338 . S
C208 N211 1.377 . S
C208 H228 0.930 . S
C209 N207 1.375 . S
C209 C208 1.338 . S
C209 H213 0.931 . S
C210 N207 1.313 . S
C210 N211 1.344 . S
C210 H214 0.930 . S
N211 C208 1.377 . S
N211 C210 1.344 . S
O212 Co204 2.055 . S
O212 C216 1.253 . S
H213 C209 0.931 . S
H214 C210 0.930 . S
O215 Co204 2.039 . S
O215 C205 1.265 . S
C216 O212 1.253 . S
C216 O217 1.227 . S
O217 C216 1.227 . S
N218 Co204 2.140 . S
N218 C221 1.346 . S
N218 C222 1.345 . S
C219 C220 1.387 . S
C219 C223 1.391 . S
C220 C219 1.387 . S
C220 C221 1.369 1_545 S
C220 H229 0.929 . S
C221 N218 1.346 . S
C221 C220 1.369 1_565 S
C221 H224 0.928 . S
C222 N218 1.345 . S
C222 C223 1.371 1_565 S
C222 H225 0.931 1_554 S
C223 C219 1.391 . S
C223 C222 1.371 1_545 S
C223 H230 0.930 1_554 S
H224 C221 0.928 . S
H225 C222 0.931 1_556 S
H226 C202 0.930 . S
H227 C199 0.930 . S
H228 C208 0.930 . S
H229 C220 0.929 . S
H230 C223 0.930 1_556 S
C231 C232 1.351 . S
C231 N234 1.368 . S
C231 H236 0.931 . S
C232 C231 1.351 . S
C232 N233 1.373 . S
C232 H260 0.930 . S
N233 C232 1.373 . S
N233 C235 1.340 . S
N234 C231 1.368 . S
N234 C235 1.321 . S
N234 Co237 2.135 . S
C235 N233 1.340 . S
C235 N234 1.321 . S
C235 H259 0.930 . S
H236 C231 0.931 . S
Co237 N234 2.135 . S
Co237 N240 2.121 . S
Co237 O245 2.055 . S
Co237 O248 2.039 . S
Co237 N251 2.140 . S
C238 O239 1.227 . S
C238 O248 1.265 . S
O239 C238 1.227 . S
N240 Co237 2.121 . S
N240 C242 1.375 . S
N240 C243 1.313 . S
C241 C242 1.338 . S
C241 N244 1.377 . S
C241 H261 0.930 . S
C242 N240 1.375 . S
C242 C241 1.338 . S
C242 H246 0.931 . S
C243 N240 1.313 . S
C243 N244 1.344 . S
C243 H247 0.930 . S
N244 C241 1.377 . S
N244 C243 1.344 . S
O245 Co237 2.055 . S
O245 C249 1.253 . S
H246 C242 0.931 . S
H247 C243 0.930 . S
O248 Co237 2.039 . S
O248 C238 1.265 . S
C249 O245 1.253 . S
C249 O250 1.227 . S
O250 C249 1.227 . S
N251 Co237 2.140 . S
N251 C254 1.346 . S
N251 C255 1.345 . S
C252 C253 1.387 . S
C252 C256 1.391 . S
C253 C252 1.387 . S
C253 C254 1.369 1_655 S
C253 H262 0.929 . S
C254 N251 1.346 . S
C254 C253 1.369 1_455 S
C254 H257 0.928 . S
C255 N251 1.345 . S
C255 C256 1.371 1_455 S
C255 H258 0.931 . S
C256 C252 1.391 . S
C256 C255 1.371 1_655 S
C256 H263 0.930 . S
H257 C254 0.928 . S
H258 C255 0.931 . S
H259 C235 0.930 . S
H260 C232 0.930 . S
H261 C241 0.930 . S
H262 C253 0.929 . S
H263 C256 0.930 . S
C264 C265 1.391 . S
C264 C266 1.394 . S
C264 H280 0.931 . S
C265 C264 1.391 . S
C265 C269 1.376 . S
C266 C264 1.394 . S
C266 C267 1.369 . S
C266 C270 1.531 . S
C267 C266 1.369 . S
C267 C268 1.410 . S
C267 C275 1.503 . S
C268 C267 1.410 . S
C268 C269 1.392 . S
C268 C271 1.511 . S
C269 C265 1.376 . S
C269 C268 1.392 . S
C269 H281 0.929 . S
C270 C266 1.531 . S
C270 H282 0.960 . S
C270 H283 0.962 . S
C270 H284 0.960 . S
C271 C268 1.511 . S
C271 H285 0.961 1_554 S
C271 H286 0.961 . S
C271 H287 0.961 . S
C272 C273 1.370 . S
C272 C274 1.363 . S
C272 H288 0.931 1_554 S
C273 C272 1.370 . S
C273 C277 1.408 . S
C274 C272 1.363 . S
C274 C275 1.370 . S
C274 C278 1.524 1_554 S
C275 C267 1.503 . S
C275 C274 1.370 . S
C275 C276 1.403 . S
C276 C275 1.403 . S
C276 C277 1.404 . S
C276 C279 1.539 . S
C277 C273 1.408 . S
C277 C276 1.404 . S
C277 H289 0.930 . S
C278 C274 1.524 1_556 S
C278 H290 0.956 . S
C278 H291 0.961 . S
C278 H292 0.961 . S
C279 C276 1.539 . S
C279 H293 0.958 . S
C279 H294 0.961 . S
C279 H295 0.960 . S
H280 C264 0.931 . S
H281 C269 0.929 . S
H282 C270 0.960 . S
H283 C270 0.962 . S
H284 C270 0.960 . S
H285 C271 0.961 1_556 S
H286 C271 0.961 . S
H287 C271 0.961 . S
H288 C272 0.931 1_556 S
H289 C277 0.930 . S
H290 C278 0.956 . S
H291 C278 0.961 . S
H292 C278 0.961 . S
H293 C279 0.958 . S
H294 C279 0.961 . S
H295 C279 0.960 . S
C296 C297 1.391 . S
C296 C298 1.394 . S
C296 H312 0.931 . S
C297 C296 1.391 . S
C297 C301 1.376 . S
C298 C296 1.394 . S
C298 C299 1.369 . S
C298 C302 1.531 . S
C299 C298 1.369 . S
C299 C300 1.410 . S
C299 C307 1.503 . S
C300 C299 1.410 . S
C300 C301 1.392 . S
C300 C303 1.511 . S
C301 C297 1.376 . S
C301 C300 1.392 . S
C301 H313 0.929 . S
C302 C298 1.531 . S
C302 H314 0.960 . S
C302 H315 0.962 . S
C302 H316 0.960 . S
C303 C300 1.511 . S
C303 H317 0.961 . S
C303 H318 0.961 . S
C303 H319 0.961 . S
C304 C305 1.370 . S
C304 C306 1.363 . S
C304 H320 0.931 . S
C305 C304 1.370 . S
C305 C309 1.408 . S
C306 C304 1.363 . S
C306 C307 1.370 . S
C306 C310 1.524 . S
C307 C299 1.503 . S
C307 C306 1.370 . S
C307 C308 1.403 . S
C308 C307 1.403 . S
C308 C309 1.404 . S
C308 C311 1.539 . S
C309 C305 1.408 . S
C309 C308 1.404 . S
C309 H321 0.930 . S
C310 C306 1.524 . S
C310 H322 0.956 . S
C310 H323 0.961 . S
C310 H324 0.961 . S
C311 C308 1.539 . S
C311 H325 0.958 . S
C311 H326 0.961 . S
C311 H327 0.960 . S
H312 C296 0.931 . S
H313 C301 0.929 . S
H314 C302 0.960 . S
H315 C302 0.962 . S
H316 C302 0.960 . S
H317 C303 0.961 . S
H318 C303 0.961 . S
H319 C303 0.961 . S
H320 C304 0.931 . S
H321 C309 0.930 . S
H322 C310 0.956 . S
H323 C310 0.961 . S
H324 C310 0.961 . S
H325 C311 0.958 . S
H326 C311 0.961 . S
H327 C311 0.960 . S
C328 C329 1.391 . S
C328 C330 1.394 . S
C328 H344 0.931 . S
C329 C328 1.391 . S
C329 C333 1.376 . S
C330 C328 1.394 . S
C330 C331 1.369 . S
C330 C334 1.531 . S
C331 C330 1.369 . S
C331 C332 1.410 . S
C331 C339 1.503 . S
C332 C331 1.410 . S
C332 C333 1.392 . S
C332 C335 1.511 . S
C333 C329 1.376 . S
C333 C332 1.392 . S
C333 H345 0.929 . S
C334 C330 1.531 . S
C334 H346 0.960 . S
C334 H347 0.962 . S
C334 H348 0.960 . S
C335 C332 1.511 . S
C335 H349 0.961 1_554 S
C335 H350 0.961 . S
C335 H351 0.961 . S
C336 C337 1.370 . S
C336 C338 1.363 . S
C336 H352 0.931 1_554 S
C337 C336 1.370 . S
C337 C341 1.408 . S
C338 C336 1.363 . S
C338 C339 1.370 . S
C338 C342 1.524 1_554 S
C339 C331 1.503 . S
C339 C338 1.370 . S
C339 C340 1.403 . S
C340 C339 1.403 . S
C340 C341 1.404 . S
C340 C343 1.539 . S
C341 C337 1.408 . S
C341 C340 1.404 . S
C341 H353 0.930 . S
C342 C338 1.524 1_556 S
C342 H354 0.956 . S
C342 H355 0.961 . S
C342 H356 0.961 . S
C343 C340 1.539 . S
C343 H357 0.958 . S
C343 H358 0.961 . S
C343 H359 0.960 . S
H344 C328 0.931 . S
H345 C333 0.929 . S
H346 C334 0.960 . S
H347 C334 0.962 . S
H348 C334 0.960 . S
H349 C335 0.961 1_556 S
H350 C335 0.961 . S
H351 C335 0.961 . S
H352 C336 0.931 1_556 S
H353 C341 0.930 . S
H354 C342 0.956 . S
H355 C342 0.961 . S
H356 C342 0.961 . S
H357 C343 0.958 . S
H358 C343 0.961 . S
H359 C343 0.960 . S
C360 C361 1.391 . S
C360 C362 1.394 . S
C360 H376 0.931 . S
C361 C360 1.391 . S
C361 C365 1.376 . S
C362 C360 1.394 . S
C362 C363 1.369 . S
C362 C366 1.531 . S
C363 C362 1.369 . S
C363 C364 1.410 . S
C363 C371 1.503 . S
C364 C363 1.410 . S
C364 C365 1.392 . S
C364 C367 1.511 . S
C365 C361 1.376 . S
C365 C364 1.392 . S
C365 H377 0.929 . S
C366 C362 1.531 . S
C366 H378 0.960 . S
C366 H379 0.962 . S
C366 H380 0.960 . S
C367 C364 1.511 . S
C367 H381 0.961 . S
C367 H382 0.961 . S
C367 H383 0.961 . S
C368 C369 1.370 . S
C368 C370 1.363 . S
C368 H384 0.931 . S
C369 C368 1.370 . S
C369 C373 1.408 . S
C370 C368 1.363 . S
C370 C371 1.370 . S
C370 C374 1.524 . S
C371 C363 1.503 . S
C371 C370 1.370 . S
C371 C372 1.403 . S
C372 C371 1.403 . S
C372 C373 1.404 . S
C372 C375 1.539 . S
C373 C369 1.408 . S
C373 C372 1.404 . S
C373 H385 0.930 . S
C374 C370 1.524 . S
C374 H386 0.956 . S
C374 H387 0.961 . S
C374 H388 0.961 . S
C375 C372 1.539 . S
C375 H389 0.958 . S
C375 H390 0.961 . S
C375 H391 0.960 . S
H376 C360 0.931 . S
H377 C365 0.929 . S
H378 C366 0.960 . S
H379 C366 0.962 . S
H380 C366 0.960 . S
H381 C367 0.961 . S
H382 C367 0.961 . S
H383 C367 0.961 . S
H384 C368 0.931 . S
H385 C373 0.930 . S
H386 C374 0.956 . S
H387 C374 0.961 . S
H388 C374 0.961 . S
H389 C375 0.958 . S
H390 C375 0.961 . S
H391 C375 0.960 . S
C392 C393 1.391 . S
C392 C394 1.394 . S
C392 H408 0.931 . S
C393 C392 1.391 . S
C393 C397 1.376 . S
C394 C392 1.394 . S
C394 C395 1.369 . S
C394 C398 1.531 . S
C395 C394 1.369 . S
C395 C396 1.410 . S
C395 C403 1.503 . S
C396 C395 1.410 . S
C396 C397 1.392 . S
C396 C399 1.511 . S
C397 C393 1.376 . S
C397 C396 1.392 . S
C397 H409 0.929 . S
C398 C394 1.531 . S
C398 H410 0.960 . S
C398 H411 0.962 . S
C398 H412 0.960 . S
C399 C396 1.511 . S
C399 H413 0.961 . S
C399 H414 0.961 . S
C399 H415 0.961 . S
C400 C401 1.369 . S
C400 C402 1.363 . S
C400 H416 0.932 1_554 S
C401 C400 1.369 . S
C401 C405 1.408 . S
C402 C400 1.363 . S
C402 C403 1.370 . S
C402 C406 1.524 1_554 S
C403 C395 1.503 . S
C403 C402 1.370 . S
C403 C404 1.403 . S
C404 C403 1.403 . S
C404 C405 1.404 . S
C404 C407 1.539 . S
C405 C401 1.408 . S
C405 C404 1.404 . S
C405 H417 0.930 . S
C406 C402 1.524 1_556 S
C406 H418 0.956 . S
C406 H419 0.961 . S
C406 H420 0.961 . S
C407 C404 1.539 . S
C407 H421 0.958 . S
C407 H422 0.961 . S
C407 H423 0.960 . S
H408 C392 0.931 . S
H409 C397 0.929 . S
H410 C398 0.960 . S
H411 C398 0.962 . S
H412 C398 0.960 . S
H413 C399 0.961 . S
H414 C399 0.961 . S
H415 C399 0.961 . S
H416 C400 0.932 1_556 S
H417 C405 0.930 . S
H418 C406 0.956 . S
H419 C406 0.961 . S
H420 C406 0.961 . S
H421 C407 0.958 . S
H422 C407 0.961 . S
H423 C407 0.960 . S
C424 C425 1.391 . S
C424 C426 1.394 . S
C424 H440 0.931 . S
C425 C424 1.391 . S
C425 C429 1.376 . S
C426 C424 1.394 . S
C426 C427 1.369 . S
C426 C430 1.531 . S
C427 C426 1.369 . S
C427 C428 1.410 . S
C427 C435 1.503 . S
C428 C427 1.410 . S
C428 C429 1.392 . S
C428 C431 1.511 . S
C429 C425 1.376 . S
C429 C428 1.392 . S
C429 H441 0.929 . S
C430 C426 1.531 . S
C430 H442 0.960 . S
C430 H443 0.962 . S
C430 H444 0.960 . S
C431 C428 1.511 . S
C431 H445 0.961 . S
C431 H446 0.961 . S
C431 H447 0.961 . S
C432 C433 1.370 . S
C432 C434 1.363 . S
C432 H448 0.931 . S
C433 C432 1.370 . S
C433 C437 1.408 . S
C434 C432 1.363 . S
C434 C435 1.370 . S
C434 C438 1.524 . S
C435 C427 1.503 . S
C435 C434 1.370 . S
C435 C436 1.403 . S
C436 C435 1.403 . S
C436 C437 1.404 . S
C436 C439 1.539 . S
C437 C433 1.408 . S
C437 C436 1.404 . S
C437 H449 0.930 . S
C438 C434 1.524 . S
C438 H450 0.956 . S
C438 H451 0.961 . S
C438 H452 0.961 . S
C439 C436 1.539 . S
C439 H453 0.958 . S
C439 H454 0.961 . S
C439 H455 0.960 . S
H440 C424 0.931 . S
H441 C429 0.929 . S
H442 C430 0.960 . S
H443 C430 0.962 . S
H444 C430 0.960 . S
H445 C431 0.961 . S
H446 C431 0.961 . S
H447 C431 0.961 . S
H448 C432 0.931 . S
H449 C437 0.930 . S
H450 C438 0.956 . S
H451 C438 0.961 . S
H452 C438 0.961 . S
H453 C439 0.958 . S
H454 C439 0.961 . S
H455 C439 0.960 . S
C456 C457 1.391 1_556 S
C456 C458 1.394 . S
C456 H472 0.931 . S
C457 C456 1.391 1_554 S
C457 C461 1.376 . S
C458 C456 1.394 . S
C458 C459 1.369 1_556 S
C458 C462 1.531 . S
C459 C458 1.369 1_554 S
C459 C460 1.410 . S
C459 C467 1.503 . S
C460 C459 1.410 . S
C460 C461 1.392 . S
C460 C463 1.511 . S
C461 C457 1.376 . S
C461 C460 1.392 . S
C461 H473 0.929 . S
C462 C458 1.531 . S
C462 H474 0.960 . S
C462 H475 0.962 . S
C462 H476 0.960 . S
C463 C460 1.511 . S
C463 H477 0.961 . S
C463 H478 0.961 . S
C463 H479 0.961 . S
C464 C465 1.370 . S
C464 C466 1.363 . S
C464 H480 0.931 . S
C465 C464 1.370 . S
C465 C469 1.408 . S
C466 C464 1.363 . S
C466 C467 1.370 . S
C466 C470 1.524 . S
C467 C459 1.503 . S
C467 C466 1.370 . S
C467 C468 1.403 . S
C468 C467 1.403 . S
C468 C469 1.404 . S
C468 C471 1.539 1_554 S
C469 C465 1.408 . S
C469 C468 1.404 . S
C469 H481 0.930 . S
C470 C466 1.524 . S
C470 H482 0.956 . S
C470 H483 0.961 . S
C470 H484 0.961 . S
C471 C468 1.539 1_556 S
C471 H485 0.958 . S
C471 H486 0.961 . S
C471 H487 0.960 1_556 S
H472 C456 0.931 . S
H473 C461 0.929 . S
H474 C462 0.960 . S
H475 C462 0.962 . S
H476 C462 0.960 . S
H477 C463 0.961 . S
H478 C463 0.961 . S
H479 C463 0.961 . S
H480 C464 0.931 . S
H481 C469 0.930 . S
H482 C470 0.956 . S
H483 C470 0.961 . S
H484 C470 0.961 . S
H485 C471 0.958 . S
H486 C471 0.961 . S
H487 C471 0.960 1_554 S
C488 C489 1.391 . S
C488 C490 1.394 . S
C488 H504 0.931 . S
C489 C488 1.391 . S
C489 C493 1.376 . S
C490 C488 1.394 . S
C490 C491 1.369 . S
C490 C494 1.531 . S
C491 C490 1.369 . S
C491 C492 1.410 . S
C491 C499 1.503 . S
C492 C491 1.410 . S
C492 C493 1.392 . S
C492 C495 1.511 . S
C493 C489 1.376 . S
C493 C492 1.392 . S
C493 H505 0.929 . S
C494 C490 1.531 . S
C494 H506 0.960 . S
C494 H507 0.962 . S
C494 H508 0.960 . S
C495 C492 1.511 . S
C495 H509 0.961 . S
C495 H510 0.961 . S
C495 H511 0.961 . S
C496 C497 1.370 . S
C496 C498 1.363 . S
C496 H512 0.931 . S
C497 C496 1.370 . S
C497 C501 1.408 . S
C498 C496 1.363 . S
C498 C499 1.370 . S
C498 C502 1.524 . S
C499 C491 1.503 . S
C499 C498 1.370 . S
C499 C500 1.403 . S
C500 C499 1.403 . S
C500 C501 1.404 . S
C500 C503 1.539 . S
C501 C497 1.408 . S
C501 C500 1.404 . S
C501 H513 0.930 . S
C502 C498 1.524 . S
C502 H514 0.956 . S
C502 H515 0.961 . S
C502 H516 0.961 . S
C503 C500 1.539 . S
C503 H517 0.958 . S
C503 H518 0.961 . S
C503 H519 0.960 . S
H504 C488 0.931 . S
H505 C493 0.929 . S
H506 C494 0.960 . S
H507 C494 0.962 . S
H508 C494 0.960 . S
H509 C495 0.961 . S
H510 C495 0.961 . S
H511 C495 0.961 . S
H512 C496 0.931 . S
H513 C501 0.930 . S
H514 C502 0.956 . S
H515 C502 0.961 . S
H516 C502 0.961 . S
H517 C503 0.958 . S
H518 C503 0.961 . S
H519 C503 0.960 . S
C520 C521 1.391 . S
C520 C522 1.394 . S
C520 H536 0.931 . S
C521 C520 1.391 . S
C521 C525 1.376 1_554 S
C522 C520 1.394 . S
C522 C523 1.369 . S
C522 C526 1.531 1_455 S
C523 C522 1.369 . S
C523 C524 1.410 1_554 S
C523 C531 1.503 1_455 S
C524 C523 1.410 1_556 S
C524 C525 1.392 . S
C524 C527 1.511 . S
C525 C521 1.376 1_556 S
C525 C524 1.392 . S
C525 H537 0.929 . S
C526 C522 1.531 1_655 S
C526 H538 0.960 . S
C526 H539 0.962 . S
C526 H540 0.960 1_655 S
C527 C524 1.511 . S
C527 H541 0.961 . S
C527 H542 0.961 . S
C527 H543 0.961 . S
C528 C529 1.370 . S
C528 C530 1.363 . S
C528 H544 0.931 1_554 S
C529 C528 1.370 . S
C529 C533 1.408 . S
C530 C528 1.363 . S
C530 C531 1.370 . S
C530 C534 1.524 1_554 S
C531 C523 1.503 1_655 S
C531 C530 1.370 . S
C531 C532 1.403 . S
C532 C531 1.403 . S
C532 C533 1.404 . S
C532 C535 1.539 1_655 S
C533 C529 1.408 . S
C533 C532 1.404 . S
C533 H545 0.930 . S
C534 C530 1.524 1_556 S
C534 H546 0.956 1_556 S
C534 H547 0.961 . S
C534 H548 0.961 . S
C535 C532 1.539 1_455 S
C535 H549 0.958 . S
C535 H550 0.961 . S
C535 H551 0.960 . S
H536 C520 0.931 . S
H537 C525 0.929 . S
H538 C526 0.960 . S
H539 C526 0.962 . S
H540 C526 0.960 1_455 S
H541 C527 0.961 . S
H542 C527 0.961 . S
H543 C527 0.961 . S
H544 C528 0.931 1_556 S
H545 C533 0.930 . S
H546 C534 0.956 1_554 S
H547 C534 0.961 . S
H548 C534 0.961 . S
H549 C535 0.958 . S
H550 C535 0.961 . S
H551 C535 0.960 . S
C552 C553 1.391 . S
C552 C554 1.394 . S
C552 H568 0.931 . S
C553 C552 1.391 . S
C553 C557 1.376 . S
C554 C552 1.394 . S
C554 C555 1.369 . S
C554 C558 1.531 . S
C555 C554 1.369 . S
C555 C556 1.410 . S
C555 C563 1.503 1_565 S
C556 C555 1.410 . S
C556 C557 1.392 . S
C556 C559 1.511 1_565 S
C557 C553 1.376 . S
C557 C556 1.392 . S
C557 H569 0.929 . S
C558 C554 1.531 . S
C558 H570 0.960 . S
C558 H571 0.962 . S
C558 H572 0.960 . S
C559 C556 1.511 1_545 S
C559 H573 0.961 . S
C559 H574 0.961 . S
C559 H575 0.961 . S
C560 C561 1.370 . S
C560 C562 1.363 . S
C560 H576 0.931 . S
C561 C560 1.370 . S
C561 C565 1.408 . S
C562 C560 1.363 . S
C562 C563 1.370 . S
C562 C566 1.524 . S
C563 C555 1.503 1_545 S
C563 C562 1.370 . S
C563 C564 1.403 . S
C564 C563 1.403 . S
C564 C565 1.404 . S
C564 C567 1.539 . S
C565 C561 1.408 . S
C565 C564 1.404 . S
C565 H577 0.930 . S
C566 C562 1.524 . S
C566 H578 0.956 1_545 S
C566 H579 0.961 . S
C566 H580 0.961 . S
C567 C564 1.539 . S
C567 H581 0.958 1_545 S
C567 H582 0.961 . S
C567 H583 0.960 1_545 S
H568 C552 0.931 . S
H569 C557 0.929 . S
H570 C558 0.960 . S
H571 C558 0.962 . S
H572 C558 0.960 . S
H573 C559 0.961 . S
H574 C559 0.961 . S
H575 C559 0.961 . S
H576 C560 0.931 . S
H577 C565 0.930 . S
H578 C566 0.956 1_565 S
H579 C566 0.961 . S
H580 C566 0.961 . S
H581 C567 0.958 1_565 S
H582 C567 0.961 . S
H583 C567 0.960 1_565 S
C584 C585 1.391 . S
C584 C586 1.394 . S
C584 H600 0.931 . S
C585 C584 1.391 . S
C585 C589 1.376 . S
C586 C584 1.394 . S
C586 C587 1.369 . S
C586 C590 1.531 . S
C587 C586 1.369 . S
C587 C588 1.410 . S
C587 C595 1.503 1_565 S
C588 C587 1.410 . S
C588 C589 1.392 . S
C588 C591 1.511 1_565 S
C589 C585 1.376 . S
C589 C588 1.392 . S
C589 H601 0.929 . S
C590 C586 1.531 . S
C590 H602 0.960 1_554 S
C590 H603 0.962 . S
C590 H604 0.960 1_554 S
C591 C588 1.511 1_545 S
C591 H605 0.961 . S
C591 H606 0.961 . S
C591 H607 0.961 . S
C592 C593 1.370 . S
C592 C594 1.363 . S
C592 H608 0.931 . S
C593 C592 1.370 . S
C593 C597 1.408 . S
C594 C592 1.363 . S
C594 C595 1.370 . S
C594 C598 1.524 1_545 S
C595 C587 1.503 1_545 S
C595 C594 1.370 . S
C595 C596 1.403 . S
C596 C595 1.403 . S
C596 C597 1.404 . S
C596 C599 1.539 1_554 S
C597 C593 1.408 . S
C597 C596 1.404 . S
C597 H609 0.930 1_554 S
C598 C594 1.524 1_565 S
C598 H610 0.956 . S
C598 H611 0.961 . S
C598 H612 0.961 . S
C599 C596 1.539 1_556 S
C599 H613 0.958 . S
C599 H614 0.961 . S
C599 H615 0.960 . S
H600 C584 0.931 . S
H601 C589 0.929 . S
H602 C590 0.960 1_556 S
H603 C590 0.962 . S
H604 C590 0.960 1_556 S
H605 C591 0.961 . S
H606 C591 0.961 . S
H607 C591 0.961 . S
H608 C592 0.931 . S
H609 C597 0.930 1_556 S
H610 C598 0.956 . S
H611 C598 0.961 . S
H612 C598 0.961 . S
H613 C599 0.958 . S
H614 C599 0.961 . S
H615 C599 0.960 . S
C616 C617 1.391 . S
C616 C618 1.394 . S
C616 H632 0.931 . S
C617 C616 1.391 . S
C617 C621 1.376 . S
C618 C616 1.394 . S
C618 C619 1.369 . S
C618 C622 1.531 . S
C619 C618 1.369 . S
C619 C620 1.410 . S
C619 C627 1.503 1_655 S
C620 C619 1.410 . S
C620 C621 1.392 . S
C620 C623 1.511 . S
C621 C617 1.376 . S
C621 C620 1.392 . S
C621 H633 0.929 . S
C622 C618 1.531 . S
C622 H634 0.960 . S
C622 H635 0.962 1_655 S
C622 H636 0.960 . S
C623 C620 1.511 . S
C623 H637 0.961 . S
C623 H638 0.961 . S
C623 H639 0.961 . S
C624 C625 1.370 . S
C624 C626 1.363 . S
C624 H640 0.931 . S
C625 C624 1.370 . S
C625 C629 1.408 . S
C626 C624 1.363 . S
C626 C627 1.370 . S
C626 C630 1.524 . S
C627 C619 1.503 1_455 S
C627 C626 1.370 . S
C627 C628 1.405 . S
C628 C627 1.405 . S
C628 C629 1.411 . S
C628 C631 1.529 1_455 S
C629 C625 1.408 . S
C629 C628 1.411 . S
C629 H641 0.930 . S
C630 C626 1.524 . S
C630 H642 0.956 . S
C630 H643 0.961 . S
C630 H644 0.961 . S
C631 C628 1.529 1_655 S
C631 H645 0.958 . S
C631 H646 0.961 . S
C631 H647 0.960 . S
H632 C616 0.931 . S
H633 C621 0.929 . S
H634 C622 0.960 . S
H635 C622 0.962 1_455 S
H636 C622 0.960 . S
H637 C623 0.961 . S
H638 C623 0.961 . S
H639 C623 0.961 . S
H640 C624 0.931 . S
H641 C629 0.930 . S
H642 C630 0.956 . S
H643 C630 0.961 . S
H644 C630 0.961 . S
H645 C631 0.958 . S
H646 C631 0.961 . S
H647 C631 0.960 . S
C648 C649 1.391 . S
C648 C650 1.394 . S
C648 H664 0.931 . S
C649 C648 1.391 . S
C649 C653 1.376 . S
C650 C648 1.394 . S
C650 C651 1.369 . S
C650 C654 1.531 . S
C651 C650 1.369 . S
C651 C652 1.410 . S
C651 C659 1.503 . S
C652 C651 1.410 . S
C652 C653 1.392 . S
C652 C655 1.511 . S
C653 C649 1.376 . S
C653 C652 1.392 . S
C653 H665 0.929 . S
C654 C650 1.531 . S
C654 H666 0.960 . S
C654 H667 0.962 . S
C654 H668 0.960 . S
C655 C652 1.511 . S
C655 H669 0.961 . S
C655 H670 0.961 . S
C655 H671 0.961 . S
C656 C657 1.370 . S
C656 C658 1.363 . S
C656 H672 0.931 . S
C657 C656 1.370 . S
C657 C661 1.408 . S
C658 C656 1.363 . S
C658 C659 1.370 . S
C658 C662 1.524 . S
C659 C651 1.503 . S
C659 C658 1.370 . S
C659 C660 1.403 . S
C660 C659 1.403 . S
C660 C661 1.404 . S
C660 C663 1.539 . S
C661 C657 1.408 . S
C661 C660 1.404 . S
C661 H673 0.930 . S
C662 C658 1.524 . S
C662 H674 0.956 . S
C662 H675 0.961 . S
C662 H676 0.961 . S
C663 C660 1.539 . S
C663 H677 0.958 . S
C663 H678 0.961 . S
C663 H679 0.960 . S
H664 C648 0.931 . S
H665 C653 0.929 . S
H666 C654 0.960 . S
H667 C654 0.962 . S
H668 C654 0.960 . S
H669 C655 0.961 . S
H670 C655 0.961 . S
H671 C655 0.961 . S
H672 C656 0.931 . S
H673 C661 0.930 . S
H674 C662 0.956 . S
H675 C662 0.961 . S
H676 C662 0.961 . S
H677 C663 0.958 . S
H678 C663 0.961 . S
H679 C663 0.960 . S
C680 C681 1.391 . S
C680 C682 1.394 . S
C680 H696 0.931 . S
C681 C680 1.391 . S
C681 C685 1.376 . S
C682 C680 1.394 . S
C682 C683 1.369 . S
C682 C686 1.531 . S
C683 C682 1.369 . S
C683 C684 1.410 . S
C683 C691 1.503 . S
C684 C683 1.410 . S
C684 C685 1.392 . S
C684 C687 1.511 . S
C685 C681 1.376 . S
C685 C684 1.392 . S
C685 H697 0.929 . S
C686 C682 1.531 . S
C686 H698 0.960 . S
C686 H699 0.962 . S
C686 H700 0.960 . S
C687 C684 1.511 . S
C687 H701 0.961 . S
C687 H702 0.961 . S
C687 H703 0.961 . S
C688 C689 1.370 . S
C688 C690 1.363 . S
C688 H704 0.931 . S
C689 C688 1.370 . S
C689 C693 1.408 . S
C690 C688 1.363 . S
C690 C691 1.370 . S
C690 C694 1.524 . S
C691 C683 1.503 . S
C691 C690 1.370 . S
C691 C692 1.403 . S
C692 C691 1.403 . S
C692 C693 1.404 . S
C692 C695 1.539 . S
C693 C689 1.408 . S
C693 C692 1.404 . S
C693 H705 0.930 . S
C694 C690 1.524 . S
C694 H706 0.956 . S
C694 H707 0.961 . S
C694 H708 0.961 . S
C695 C692 1.539 . S
C695 H709 0.958 . S
C695 H710 0.961 . S
C695 H711 0.960 . S
H696 C680 0.931 . S
H697 C685 0.929 . S
H698 C686 0.960 . S
H699 C686 0.962 . S
H700 C686 0.960 . S
H701 C687 0.961 . S
H702 C687 0.961 . S
H703 C687 0.961 . S
H704 C688 0.931 . S
H705 C693 0.930 . S
H706 C694 0.956 . S
H707 C694 0.961 . S
H708 C694 0.961 . S
H709 C695 0.958 . S
H710 C695 0.961 . S
H711 C695 0.960 . S
C712 C713 1.391 . S
C712 C714 1.394 . S
C712 H728 0.931 . S
C713 C712 1.391 . S
C713 C717 1.376 . S
C714 C712 1.394 . S
C714 C715 1.369 . S
C714 C718 1.531 . S
C715 C714 1.369 . S
C715 C716 1.410 . S
C715 C723 1.503 . S
C716 C715 1.410 . S
C716 C717 1.392 . S
C716 C719 1.511 . S
C717 C713 1.376 . S
C717 C716 1.392 . S
C717 H729 0.929 . S
C718 C714 1.531 . S
C718 H730 0.960 . S
C718 H731 0.962 . S
C718 H732 0.960 . S
C719 C716 1.511 . S
C719 H733 0.961 . S
C719 H734 0.961 . S
C719 H735 0.961 . S
C720 C721 1.370 . S
C720 C722 1.363 . S
C720 H736 0.931 . S
C721 C720 1.370 . S
C721 C725 1.408 . S
C722 C720 1.363 . S
C722 C723 1.370 . S
C722 C726 1.524 . S
C723 C715 1.503 . S
C723 C722 1.370 . S
C723 C724 1.403 . S
C724 C723 1.403 . S
C724 C725 1.404 . S
C724 C727 1.539 . S
C725 C721 1.408 . S
C725 C724 1.404 . S
C725 H737 0.930 . S
C726 C722 1.524 . S
C726 H738 0.956 . S
C726 H739 0.961 . S
C726 H740 0.961 . S
C727 C724 1.539 . S
C727 H741 0.958 . S
C727 H742 0.961 . S
C727 H743 0.960 . S
H728 C712 0.931 . S
H729 C717 0.929 . S
H730 C718 0.960 . S
H731 C718 0.962 . S
H732 C718 0.960 . S
H733 C719 0.961 . S
H734 C719 0.961 . S
H735 C719 0.961 . S
H736 C720 0.931 . S
H737 C725 0.930 . S
H738 C726 0.956 . S
H739 C726 0.961 . S
H740 C726 0.961 . S
H741 C727 0.958 . S
H742 C727 0.961 . S
H743 C727 0.960 . S
C744 C745 1.391 . S
C744 C746 1.394 . S
C744 H760 0.931 . S
C745 C744 1.391 . S
C745 C749 1.376 . S
C746 C744 1.394 . S
C746 C747 1.369 . S
C746 C750 1.531 . S
C747 C746 1.369 . S
C747 C748 1.410 . S
C747 C755 1.503 . S
C748 C747 1.410 . S
C748 C749 1.392 . S
C748 C751 1.511 . S
C749 C745 1.376 . S
C749 C748 1.392 . S
C749 H761 0.929 . S
C750 C746 1.531 . S
C750 H762 0.960 . S
C750 H763 0.962 . S
C750 H764 0.960 . S
C751 C748 1.511 . S
C751 H765 0.961 . S
C751 H766 0.961 . S
C751 H767 0.961 . S
C752 C753 1.370 . S
C752 C754 1.363 . S
C752 H768 0.931 . S
C753 C752 1.370 . S
C753 C757 1.408 . S
C754 C752 1.363 . S
C754 C755 1.370 . S
C754 C758 1.524 . S
C755 C747 1.503 . S
C755 C754 1.370 . S
C755 C756 1.403 . S
C756 C755 1.403 . S
C756 C757 1.404 . S
C756 C759 1.539 . S
C757 C753 1.408 . S
C757 C756 1.404 . S
C757 H769 0.930 . S
C758 C754 1.524 . S
C758 H770 0.956 . S
C758 H771 0.961 . S
C758 H772 0.961 . S
C759 C756 1.539 . S
C759 H773 0.958 . S
C759 H774 0.961 . S
C759 H775 0.960 . S
H760 C744 0.931 . S
H761 C749 0.929 . S
H762 C750 0.960 . S
H763 C750 0.962 . S
H764 C750 0.960 . S
H765 C751 0.961 . S
H766 C751 0.961 . S
H767 C751 0.961 . S
H768 C752 0.931 . S
H769 C757 0.930 . S
H770 C758 0.956 . S
H771 C758 0.961 . S
H772 C758 0.961 . S
H773 C759 0.958 . S
H774 C759 0.961 . S
H775 C759 0.960 . S
C776 C777 1.391 . S
C776 C778 1.394 . S
C776 H792 0.931 . S
C777 C776 1.391 . S
C777 C781 1.376 . S
C778 C776 1.394 . S
C778 C779 1.369 . S
C778 C782 1.531 . S
C779 C778 1.369 . S
C779 C780 1.410 . S
C779 C787 1.503 . S
C780 C779 1.410 . S
C780 C781 1.392 . S
C780 C783 1.511 . S
C781 C777 1.376 . S
C781 C780 1.392 . S
C781 H793 0.929 . S
C782 C778 1.531 . S
C782 H794 0.960 . S
C782 H795 0.962 . S
C782 H796 0.960 . S
C783 C780 1.511 . S
C783 H797 0.961 . S
C783 H798 0.961 . S
C783 H799 0.961 . S
C784 C785 1.370 . S
C784 C786 1.363 . S
C784 H800 0.931 . S
C785 C784 1.370 . S
C785 C789 1.408 . S
C786 C784 1.363 . S
C786 C787 1.370 . S
C786 C790 1.524 . S
C787 C779 1.503 . S
C787 C786 1.370 . S
C787 C788 1.403 . S
C788 C787 1.403 . S
C788 C789 1.404 . S
C788 C791 1.539 . S
C789 C785 1.408 . S
C789 C788 1.404 . S
C789 H801 0.930 . S
C790 C786 1.524 . S
C790 H802 0.956 . S
C790 H803 0.961 . S
C790 H804 0.961 . S
C791 C788 1.539 . S
C791 H805 0.958 . S
C791 H806 0.961 . S
C791 H807 0.960 . S
H792 C776 0.931 . S
H793 C781 0.929 . S
H794 C782 0.960 . S
H795 C782 0.962 . S
H796 C782 0.960 . S
H797 C783 0.961 . S
H798 C783 0.961 . S
H799 C783 0.961 . S
H800 C784 0.931 . S
H801 C789 0.930 . S
H802 C790 0.956 . S
H803 C790 0.961 . S
H804 C790 0.961 . S
H805 C791 0.958 . S
H806 C791 0.961 . S
H807 C791 0.960 . S
C808 C809 1.391 . S
C808 C810 1.394 . S
C808 H824 0.931 . S
C809 C808 1.391 . S
C809 C813 1.376 . S
C810 C808 1.394 . S
C810 C811 1.369 . S
C810 C814 1.531 . S
C811 C810 1.369 . S
C811 C812 1.410 . S
C811 C819 1.503 . S
C812 C811 1.410 . S
C812 C813 1.392 . S
C812 C815 1.511 . S
C813 C809 1.376 . S
C813 C812 1.392 . S
C813 H825 0.929 . S
C814 C810 1.531 . S
C814 H826 0.960 . S
C814 H827 0.962 . S
C814 H828 0.960 . S
C815 C812 1.511 . S
C815 H829 0.961 . S
C815 H830 0.961 . S
C815 H831 0.961 . S
C816 C817 1.370 . S
C816 C818 1.363 . S
C816 H832 0.931 . S
C817 C816 1.370 . S
C817 C821 1.408 . S
C818 C816 1.363 . S
C818 C819 1.370 . S
C818 C822 1.524 . S
C819 C811 1.503 . S
C819 C818 1.370 . S
C819 C820 1.403 . S
C820 C819 1.403 . S
C820 C821 1.404 . S
C820 C823 1.539 . S
C821 C817 1.408 . S
C821 C820 1.404 . S
C821 H833 0.930 . S
C822 C818 1.524 . S
C822 H834 0.956 . S
C822 H835 0.961 . S
C822 H836 0.961 . S
C823 C820 1.539 . S
C823 H837 0.958 . S
C823 H838 0.961 . S
C823 H839 0.960 . S
H824 C808 0.931 . S
H825 C813 0.929 . S
H826 C814 0.960 . S
H827 C814 0.962 . S
H828 C814 0.960 . S
H829 C815 0.961 . S
H830 C815 0.961 . S
H831 C815 0.961 . S
H832 C816 0.931 . S
H833 C821 0.930 . S
H834 C822 0.956 . S
H835 C822 0.961 . S
H836 C822 0.961 . S
H837 C823 0.958 . S
H838 C823 0.961 . S
H839 C823 0.960 . S
C840 C841 1.391 . S
C840 C842 1.394 . S
C840 H856 0.931 . S
C841 C840 1.391 . S
C841 C845 1.376 . S
C842 C840 1.394 . S
C842 C843 1.369 . S
C842 C846 1.531 . S
C843 C842 1.369 . S
C843 C844 1.410 . S
C843 C851 1.503 . S
C844 C843 1.410 . S
C844 C845 1.392 . S
C844 C847 1.511 . S
C845 C841 1.376 . S
C845 C844 1.392 . S
C845 H857 0.929 . S
C846 C842 1.531 . S
C846 H858 0.960 . S
C846 H859 0.962 . S
C846 H860 0.960 . S
C847 C844 1.511 . S
C847 H861 0.961 . S
C847 H862 0.961 . S
C847 H863 0.961 . S
C848 C849 1.370 . S
C848 C850 1.363 . S
C848 H864 0.931 . S
C849 C848 1.370 . S
C849 C853 1.408 . S
C850 C848 1.363 . S
C850 C851 1.370 . S
C850 C854 1.524 . S
C851 C843 1.503 . S
C851 C850 1.370 . S
C851 C852 1.403 . S
C852 C851 1.403 . S
C852 C853 1.404 . S
C852 C855 1.539 . S
C853 C849 1.408 . S
C853 C852 1.404 . S
C853 H865 0.930 . S
C854 C850 1.524 . S
C854 H866 0.956 . S
C854 H867 0.961 . S
C854 H868 0.961 . S
C855 C852 1.539 . S
C855 H869 0.958 . S
C855 H870 0.961 . S
C855 H871 0.960 . S
H856 C840 0.931 . S
H857 C845 0.929 . S
H858 C846 0.960 . S
H859 C846 0.962 . S
H860 C846 0.960 . S
H861 C847 0.961 . S
H862 C847 0.961 . S
H863 C847 0.961 . S
H864 C848 0.931 . S
H865 C853 0.930 . S
H866 C854 0.956 . S
H867 C854 0.961 . S
H868 C854 0.961 . S
H869 C855 0.958 . S
H870 C855 0.961 . S
H871 C855 0.960 . S
C872 C873 1.391 . S
C872 C874 1.394 . S
C872 H888 0.931 . S
C873 C872 1.391 . S
C873 C877 1.376 . S
C874 C872 1.394 . S
C874 C875 1.369 . S
C874 C878 1.531 . S
C875 C874 1.369 . S
C875 C876 1.410 . S
C875 C883 1.503 . S
C876 C875 1.410 . S
C876 C877 1.392 . S
C876 C879 1.511 . S
C877 C873 1.376 . S
C877 C876 1.392 . S
C877 H889 0.929 . S
C878 C874 1.531 . S
C878 H890 0.960 . S
C878 H891 0.962 . S
C878 H892 0.960 . S
C879 C876 1.511 . S
C879 H893 0.961 . S
C879 H894 0.961 . S
C879 H895 0.961 . S
C880 C881 1.370 . S
C880 C882 1.363 . S
C880 H896 0.931 . S
C881 C880 1.370 . S
C881 C885 1.408 . S
C882 C880 1.363 . S
C882 C883 1.370 . S
C882 C886 1.524 . S
C883 C875 1.503 . S
C883 C882 1.370 . S
C883 C884 1.403 . S
C884 C883 1.403 . S
C884 C885 1.404 . S
C884 C887 1.539 . S
C885 C881 1.408 . S
C885 C884 1.404 . S
C885 H897 0.930 . S
C886 C882 1.524 . S
C886 H898 0.956 . S
C886 H899 0.961 . S
C886 H900 0.961 . S
C887 C884 1.539 . S
C887 H901 0.958 . S
C887 H902 0.961 . S
C887 H903 0.960 . S
H888 C872 0.931 . S
H889 C877 0.929 . S
H890 C878 0.960 . S
H891 C878 0.962 . S
H892 C878 0.960 . S
H893 C879 0.961 . S
H894 C879 0.961 . S
H895 C879 0.961 . S
H896 C880 0.931 . S
H897 C885 0.930 . S
H898 C886 0.956 . S
H899 C886 0.961 . S
H900 C886 0.961 . S
H901 C887 0.958 . S
H902 C887 0.961 . S
H903 C887 0.960 . S
C265 C219 1.514 . S
C273 C18 1.580 . S
C297 C252 1.520 . S
C305 C51 1.578 . S
C329 C153 1.516 . S
C337 C84 1.580 . S
C361 C186 1.510 . S
C369 C117 1.579 . S
C393 C87 1.529 . S
C401 C150 1.573 . S
C425 C120 1.549 . S
C433 C183 1.572 . S
C457 C21 1.505 . S
C465 C216 1.581 . S
C489 C249 1.569 . S
C497 C54 1.530 . S
C521 C7 0.673 . S
C529 C73 0.744 . S
C553 C106 0.706 . S
C561 C40 0.713 . S
C585 C205 0.706 . S
C593 C139 0.736 . S
C617 C172 0.797 . S
C625 C238 0.684 . S
C649 N13 1.769 . S
C657 N244 1.788 . S
C681 N145 1.795 . S
C689 N46 1.807 . S
C713 N178 1.813 . S
C721 N79 1.794 . S
C745 N211 1.774 . S
C753 N112 1.787 . S
C777 N68 1.410 . S
C785 N167 1.438 . S
C809 N101 1.403 . S
C817 N200 1.409 . S
C841 N233 1.457 . S
C849 N2 1.423 . S
C873 N134 1.382 . S
C881 N35 1.423 . S
