# Generated by pormake.
# Topology wkj, (6)-cn, num edge types: 1
# Building blocks:
#     Node 0, Type 0, BuildingBlock: BETFEN_clean_sbu_0, # of connection points: 6
#     Node 1, Type 0, BuildingBlock: BETFEN_clean_sbu_0, # of connection points: 6
#     Node 2, Type 0, BuildingBlock: BETFEN_clean_sbu_0, # of connection points: 6
#     Node 3, Type 0, BuildingBlock: BETFEN_clean_sbu_0, # of connection points: 6
#     Node 4, Type 0, BuildingBlock: BETFEN_clean_sbu_0, # of connection points: 6
#     Node 5, Type 0, BuildingBlock: BETFEN_clean_sbu_0, # of connection points: 6
#     Node 6, Type 0, BuildingBlock: BETFEN_clean_sbu_0, # of connection points: 6
#     Node 7, Type 0, BuildingBlock: BETFEN_clean_sbu_0, # of connection points: 6
#     Node 8, Type 0, BuildingBlock: BETFEN_clean_sbu_0, # of connection points: 6
#     Node 9, Type 0, BuildingBlock: BETFEN_clean_sbu_0, # of connection points: 6
#     Node 10, Type 0, BuildingBlock: BETFEN_clean_sbu_0, # of connection points: 6
#     Node 11, Type 0, BuildingBlock: BETFEN_clean_sbu_0, # of connection points: 6
#     Edge 12, Type (0, 0), BuildingBlock: ZUJKAS_clean_linker_0, # of connection points: 2
#     Edge 13, Type (0, 0), BuildingBlock: ZUJKAS_clean_linker_0, # of connection points: 2
#     Edge 14, Type (0, 0), BuildingBlock: ZUJKAS_clean_linker_0, # of connection points: 2
#     Edge 15, Type (0, 0), BuildingBlock: ZUJKAS_clean_linker_0, # of connection points: 2
#     Edge 16, Type (0, 0), BuildingBlock: ZUJKAS_clean_linker_0, # of connection points: 2
#     Edge 17, Type (0, 0), BuildingBlock: ZUJKAS_clean_linker_0, # of connection points: 2
#     Edge 18, Type (0, 0), BuildingBlock: ZUJKAS_clean_linker_0, # of connection points: 2
#     Edge 19, Type (0, 0), BuildingBlock: ZUJKAS_clean_linker_0, # of connection points: 2
#     Edge 20, Type (0, 0), BuildingBlock: ZUJKAS_clean_linker_0, # of connection points: 2
#     Edge 21, Type (0, 0), BuildingBlock: ZUJKAS_clean_linker_0, # of connection points: 2
#     Edge 22, Type (0, 0), BuildingBlock: ZUJKAS_clean_linker_0, # of connection points: 2
#     Edge 23, Type (0, 0), BuildingBlock: ZUJKAS_clean_linker_0, # of connection points: 2
#     Edge 24, Type (0, 0), BuildingBlock: ZUJKAS_clean_linker_0, # of connection points: 2
#     Edge 25, Type (0, 0), BuildingBlock: ZUJKAS_clean_linker_0, # of connection points: 2
#     Edge 26, Type (0, 0), BuildingBlock: ZUJKAS_clean_linker_0, # of connection points: 2
#     Edge 27, Type (0, 0), BuildingBlock: ZUJKAS_clean_linker_0, # of connection points: 2
#     Edge 28, Type (0, 0), BuildingBlock: ZUJKAS_clean_linker_0, # of connection points: 2
#     Edge 29, Type (0, 0), BuildingBlock: ZUJKAS_clean_linker_0, # of connection points: 2
#     Edge 30, Type (0, 0), BuildingBlock: ZUJKAS_clean_linker_0, # of connection points: 2
#     Edge 31, Type (0, 0), BuildingBlock: ZUJKAS_clean_linker_0, # of connection points: 2
#     Edge 32, Type (0, 0), BuildingBlock: ZUJKAS_clean_linker_0, # of connection points: 2
#     Edge 33, Type (0, 0), BuildingBlock: ZUJKAS_clean_linker_0, # of connection points: 2
#     Edge 34, Type (0, 0), BuildingBlock: ZUJKAS_clean_linker_0, # of connection points: 2
#     Edge 35, Type (0, 0), BuildingBlock: ZUJKAS_clean_linker_0, # of connection points: 2
#     Edge 36, Type (0, 0), BuildingBlock: ZUJKAS_clean_linker_0, # of connection points: 2
#     Edge 37, Type (0, 0), BuildingBlock: ZUJKAS_clean_linker_0, # of connection points: 2
#     Edge 38, Type (0, 0), BuildingBlock: ZUJKAS_clean_linker_0, # of connection points: 2
#     Edge 39, Type (0, 0), BuildingBlock: ZUJKAS_clean_linker_0, # of connection points: 2
#     Edge 40, Type (0, 0), BuildingBlock: ZUJKAS_clean_linker_0, # of connection points: 2
#     Edge 41, Type (0, 0), BuildingBlock: ZUJKAS_clean_linker_0, # of connection points: 2
#     Edge 42, Type (0, 0), BuildingBlock: ZUJKAS_clean_linker_0, # of connection points: 2
#     Edge 43, Type (0, 0), BuildingBlock: ZUJKAS_clean_linker_0, # of connection points: 2
#     Edge 44, Type (0, 0), BuildingBlock: ZUJKAS_clean_linker_0, # of connection points: 2
#     Edge 45, Type (0, 0), BuildingBlock: ZUJKAS_clean_linker_0, # of connection points: 2
#     Edge 46, Type (0, 0), BuildingBlock: ZUJKAS_clean_linker_0, # of connection points: 2
#     Edge 47, Type (0, 0), BuildingBlock: ZUJKAS_clean_linker_0, # of connection points: 2
# Relax obj value: 0.580
# Max RMSD: 0.175
# Mean RMSD: 0.175
data_MOF--net-wkj--node1-BETFEN_clean_sbu_0--edge1-ZUJKAS_clean_linker_0
_symmetry_space_group_name_H-M    P1
_symmetry_Int_Tables_number       1
_symmetry_cell_setting            triclinic
loop_
_symmetry_equiv_pos_as_xyz
'x, y, z'
_cell_length_a     61.939557
_cell_length_b     61.835499
_cell_length_c     38.483914
_cell_angle_alpha  89.913893
_cell_angle_beta   90.093287
_cell_angle_gamma 119.83685
loop_
_atom_site_label
_atom_site_type_symbol
_atom_site_fract_x
_atom_site_fract_y
_atom_site_fract_z
_atom_type_partial_charge
Pr0 Pr 0.47628 0.08669 0.32421 0.0
Pr1 Pr 0.52479 0.09435 0.31912 0.0
C2 C 0.42982 0.07788 0.33794 0.0
C3 C 0.41526 0.0774 0.36812 0.0
C4 C 0.4271 0.09186 0.3975 0.0
C5 C 0.41333 0.08982 0.42714 0.0
C6 C 0.38754 0.0731 0.42797 0.0
C7 C 0.37563 0.05923 0.39808 0.0
C8 C 0.38943 0.06145 0.36827 0.0
C9 C 0.50741 0.13248 0.29128 0.0
C10 C 0.513 0.10349 0.39842 0.0
C11 C 0.57252 0.11223 0.29988 0.0
C12 C 0.59379 0.13761 0.29729 0.0
C13 C 0.61757 0.14153 0.2898 0.0
C14 C 0.63662 0.1653 0.2804 0.0
C15 C 0.63194 0.18535 0.27769 0.0
C16 C 0.6086 0.18163 0.28839 0.0
C17 C 0.58974 0.15798 0.29821 0.0
C18 C 0.49204 0.04768 0.34845 0.0
C19 C 0.48659 0.06218 0.25216 0.0
O20 O 0.43561 0.06031 0.33654 0.0
O21 O 0.44816 0.09965 0.32898 0.0
O22 O 0.51299 0.12503 0.31896 0.0
O23 O 0.48715 0.11464 0.2779 0.0
O24 O 0.53148 0.10988 0.37644 0.0
O25 O 0.48999 0.09329 0.38536 0.0
O26 O 0.56451 0.10385 0.3311 0.0
O27 O 0.55452 0.10728 0.27799 0.0
O28 O 0.48736 0.05718 0.32282 0.0
O29 O 0.51497 0.06144 0.3583 0.0
O30 O 0.46917 0.06314 0.27119 0.0
O31 O 0.50978 0.07379 0.26404 0.0
H32 H 0.4471 0.10412 0.39792 0.0
H33 H 0.4231 0.10031 0.45006 0.0
H34 H 0.35581 0.04614 0.39816 0.0
H35 H 0.38006 0.05016 0.34572 0.0
H36 H 0.62104 0.126 0.28934 0.0
H37 H 0.65452 0.16761 0.27309 0.0
H38 H 0.60407 0.19639 0.28639 0.0
H39 H 0.57145 0.15527 0.30416 0.0
Pr40 Pr 0.38508 0.46433 0.66738 0.0
Pr41 Pr 0.42011 0.51452 0.6555 0.0
C42 C 0.35324 0.4179 0.69068 0.0
C43 C 0.33736 0.40884 0.7215 0.0
C44 C 0.32487 0.38348 0.73003 0.0
C45 C 0.31235 0.37551 0.76178 0.0
C46 C 0.31251 0.39291 0.78555 0.0
C47 C 0.3239 0.41815 0.77571 0.0
C48 C 0.33609 0.42599 0.74393 0.0
C49 C 0.36188 0.48854 0.63539 0.0
C50 C 0.40418 0.50482 0.73736 0.0
C51 C 0.44263 0.56137 0.62982 0.0
C52 C 0.4332 0.57844 0.62227 0.0
C53 C 0.44943 0.60315 0.61241 0.0
C54 C 0.43988 0.61811 0.60041 0.0
C55 C 0.414 0.60839 0.59793 0.0
C56 C 0.39789 0.58411 0.60998 0.0
C57 C 0.40745 0.56929 0.62209 0.0
C58 C 0.44247 0.48954 0.68668 0.0
C59 C 0.41634 0.47437 0.59248 0.0
O60 O 0.37711 0.4294 0.69687 0.0
O61 O 0.34712 0.42949 0.66788 0.0
O62 O 0.37703 0.49748 0.66078 0.0
O63 O 0.36106 0.46846 0.62395 0.0
O64 O 0.41454 0.52262 0.71387 0.0
O65 O 0.39197 0.4813 0.7263 0.0
O66 O 0.44374 0.55646 0.66251 0.0
O67 O 0.43329 0.54146 0.6104 0.0
O68 O 0.42669 0.48088 0.66258 0.0
O69 O 0.44899 0.51256 0.69302 0.0
O70 O 0.40229 0.45684 0.6154 0.0
O71 O 0.42384 0.49791 0.60063 0.0
H72 H 0.32553 0.37 0.71277 0.0
H73 H 0.30347 0.35589 0.76831 0.0
H74 H 0.32485 0.43221 0.79338 0.0
H75 H 0.34548 0.44565 0.73753 0.0
H76 H 0.46936 0.61047 0.61242 0.0
H77 H 0.45269 0.63665 0.59086 0.0
H78 H 0.37789 0.57616 0.60837 0.0
H79 H 0.39475 0.55022 0.62965 0.0
Pr80 Pr 0.91223 0.38054 1.01234 0.0
Pr81 Pr 0.89985 0.41681 0.99519 0.0
C82 C 0.93095 0.34988 1.02337 0.0
C83 C 0.93803 0.33971 1.05274 0.0
C84 C 0.94435 0.32117 1.04709 0.0
C85 C 0.95056 0.31091 1.07512 0.0
C86 C 0.9504 0.31903 0.10917 0.0
C87 C 0.94404 0.33769 0.11456 0.0
C88 C 0.93785 0.34791 1.08656 0.0
C89 C 0.86188 0.35741 0.99217 0.0
C90 C 0.89586 0.40351 1.08153 0.0
C91 C 0.87001 0.43608 0.98344 0.0
C92 C 0.84574 0.42438 0.96564 0.0
C93 C 0.83982 0.43801 0.94221 0.0
C94 C 0.8185 0.42578 0.92141 0.0
C95 C 0.80298 0.39975 0.92371 0.0
C96 C 0.80815 0.38647 0.94879 0.0
C97 C 0.82935 0.39863 0.96943 0.0
C98 C 0.948 0.43903 1.02464 0.0
C99 C 0.93195 0.40994 0.93255 0.0
O100 O 0.94482 0.37378 1.01769 0.0
O101 O 0.90724 0.34211 1.0204 0.0
O102 O 0.87968 0.37542 0.97598 0.0
O103 O 0.86991 0.35276 1.02073 0.0
O104 O 0.88903 0.41342 1.05614 0.0
O105 O 0.90705 0.39067 1.07216 0.0
O106 O 0.87036 0.42563 1.01271 0.0
O107 O 0.88934 0.44154 0.96398 0.0
O108 O 0.92923 0.41925 1.03386 0.0
O109 O 0.94201 0.44902 0.99925 0.0
O110 O 0.93381 0.39538 0.9566 0.0
O111 O 0.91776 0.41971 0.93964 0.0
H112 H 0.9444 0.31458 1.02103 0.0
H113 H 0.95526 0.29651 1.07021 0.0
H114 H 0.94423 0.34472 0.14039 0.0
H115 H 0.93297 0.36222 1.09128 0.0
H116 H 0.85227 0.45784 0.9388 0.0
H117 H 0.81512 0.43642 0.90193 0.0
H118 H 0.79646 0.36644 0.95117 0.0
H119 H 0.8335 0.38759 0.98724 0.0
Pr120 Pr 0.54189 0.92014 0.33454 0.0
Pr121 Pr 0.49389 0.911 0.32499 0.0
C122 C 0.59104 0.93606 0.3405 0.0
C123 C 0.60918 0.94422 0.36885 0.0
C124 C 0.63473 0.95751 0.36162 0.0
C125 C 0.65201 0.96682 0.38881 0.0
C126 C 0.64389 0.96284 0.42353 0.0
C127 C 0.6182 0.94893 0.43049 0.0
C128 C 0.60101 0.93975 0.40339 0.0
C129 C 0.5111 0.87026 0.31383 0.0
C130 C 0.50642 0.90095 0.40618 0.0
C131 C 0.44379 0.88657 0.31913 0.0
C132 C 0.42669 0.86153 0.30573 0.0
C133 C 0.40253 0.85495 0.29518 0.0
C134 C 0.38725 0.83175 0.27963 0.0
C135 C 0.39605 0.81495 0.27435 0.0
C136 C 0.41988 0.82126 0.28649 0.0
C137 C 0.43508 0.84436 0.30192 0.0
C138 C 0.52378 0.95811 0.35686 0.0
C139 C 0.52956 0.94372 0.26045 0.0
O140 O 0.58225 0.95084 0.33319 0.0
O141 O 0.57386 0.91261 0.34085 0.0
O142 O 0.51148 0.88897 0.2993 0.0
O143 O 0.52546 0.87719 0.34078 0.0
O144 O 0.48879 0.89345 0.38221 0.0
O145 O 0.52987 0.91459 0.39535 0.0
O146 O 0.45544 0.88711 0.34757 0.0
O147 O 0.4585 0.90277 0.29626 0.0
O148 O 0.52361 0.93828 0.36345 0.0
O149 O 0.50707 0.95397 0.33333 0.0
O150 O 0.5469 0.94406 0.28138 0.0
O151 O 0.50612 0.92997 0.2698 0.0
H152 H 0.64126 0.96112 0.335 0.0
H153 H 0.67166 0.97744 0.3827 0.0
H154 H 0.61128 0.94602 0.4569 0.0
H155 H 0.58131 0.92969 0.40938 0.0
H156 H 0.39581 0.86803 0.29794 0.0
H157 H 0.3691 0.82752 0.27011 0.0
H158 H 0.4271 0.80864 0.28297 0.0
H159 H 0.45369 0.84911 0.31 0.0
Pr160 Pr 0.61773 0.53479 0.66762 0.0
Pr161 Pr 0.57989 0.48543 0.6567 0.0
C162 C 0.65204 0.5802 0.69101 0.0
C163 C 0.66762 0.58694 0.72222 0.0
C164 C 0.6789 0.61119 0.73553 0.0
C165 C 0.6901 0.61627 0.76838 0.0
C166 C 0.6897 0.59701 0.78855 0.0
C167 C 0.67971 0.5731 0.77388 0.0
C168 C 0.6689 0.56818 0.741 0.0
C169 C 0.6374 0.5074 0.6358 0.0
C170 C 0.59646 0.49499 0.73867 0.0
C171 C 0.55538 0.43815 0.63305 0.0
C172 C 0.56449 0.42087 0.62519 0.0
C173 C 0.54797 0.39527 0.62178 0.0
C174 C 0.55677 0.37938 0.6113 0.0
C175 C 0.5822 0.38896 0.60372 0.0
C176 C 0.59881 0.4145 0.60928 0.0
C177 C 0.59003 0.43023 0.62005 0.0
C178 C 0.56065 0.51351 0.68693 0.0
C179 C 0.58646 0.52584 0.59251 0.0
O180 O 0.62827 0.57043 0.697 0.0
O181 O 0.65678 0.56806 0.66739 0.0
O182 O 0.62254 0.49971 0.66157 0.0
O183 O 0.63985 0.52813 0.62399 0.0
O184 O 0.58328 0.47743 0.71587 0.0
O185 O 0.6114 0.51801 0.72685 0.0
O186 O 0.55573 0.44379 0.66572 0.0
O187 O 0.5638 0.45761 0.61277 0.0
O188 O 0.57656 0.52103 0.66303 0.0
O189 O 0.5522 0.49007 0.69325 0.0
O190 O 0.60133 0.54317 0.61519 0.0
O191 O 0.57747 0.50211 0.60119 0.0
H192 H 0.67813 0.6259 0.72124 0.0
H193 H 0.69801 0.635 0.77861 0.0
H194 H 0.67861 0.55765 0.7886 0.0
H195 H 0.66035 0.54933 0.731 0.0
H196 H 0.52824 0.3877 0.62622 0.0
H197 H 0.54352 0.35975 0.60789 0.0
H198 H 0.61842 0.42276 0.6033 0.0
H199 H 0.60309 0.44996 0.62297 0.0
Pr200 Pr 0.09742 0.62576 1.00764 0.0
Pr201 Pr 0.1001 0.58297 0.98939 0.0
C202 C 0.08689 0.66268 1.01856 0.0
C203 C 0.0734 0.66931 1.04413 0.0
C204 C 0.08688 0.68862 1.06792 0.0
C205 C 0.07461 0.69386 1.09409 0.0
C206 C 0.04855 0.67998 1.09687 0.0
C207 C 0.03498 0.66146 1.07201 0.0
C208 C 0.04726 0.65621 1.04582 0.0
C209 C 0.14631 0.64013 0.98701 0.0
C210 C 0.10469 0.59541 1.07601 0.0
C211 C 0.11955 0.55308 0.97895 0.0
C212 C 0.13942 0.55506 0.95566 0.0
C213 C 0.13596 0.55277 0.91951 0.0
C214 C 0.15634 0.56031 0.89745 0.0
C215 C 0.18054 0.57044 0.91109 0.0
C216 C 0.18376 0.57094 0.94721 0.0
C217 C 0.16332 0.56306 0.9693 0.0
C218 C 0.05291 0.57282 1.01182 0.0
C219 C 0.07571 0.59859 0.92663 0.0
O220 O 0.07371 0.64366 0.99822 0.0
O221 O 0.10727 0.66353 1.02943 0.0
O222 O 0.12684 0.62433 0.97085 0.0
O223 O 0.14031 0.64663 1.01567 0.0
O224 O 0.10984 0.58428 1.05048 0.0
O225 O 0.09646 0.61092 1.0669 0.0
O226 O 0.12725 0.57014 1.00311 0.0
O227 O 0.09845 0.54871 0.96493 0.0
O228 O 0.07331 0.58702 1.02558 0.0
O229 O 0.05542 0.55984 0.98722 0.0
O230 O 0.07487 0.61302 0.95189 0.0
O231 O 0.08839 0.58704 0.93257 0.0
H232 H 0.10703 0.69922 1.06691 0.0
H233 H 0.08565 0.70807 0.11303 0.0
H234 H 0.01485 0.65069 1.07317 0.0
H235 H 0.03628 0.6415 1.02749 0.0
H236 H 0.11782 0.54662 0.90812 0.0
H237 H 0.15332 0.55989 0.86966 0.0
H238 H 0.20219 0.57847 0.95834 0.0
H239 H 0.16648 0.56478 0.99711 0.0
Pr240 Pr 0.90427 0.52913 0.51515 0.0
Pr241 Pr 0.90177 0.48387 0.53469 0.0
C242 C 0.91514 0.57656 0.50336 0.0
C243 C 0.92896 0.59661 0.47782 0.0
C244 C 0.9158 0.60316 0.45435 0.0
C245 C 0.92835 0.62072 0.4283 0.0
C246 C 0.95437 0.63222 0.42535 0.0
C247 C 0.96764 0.62651 0.44987 0.0
C248 C 0.95508 0.60892 0.4759 0.0
C249 C 0.85537 0.495 0.53621 0.0
C250 C 0.89831 0.49117 0.4474 0.0
C251 C 0.88143 0.43467 0.54658 0.0
C252 C 0.8604 0.41821 0.56884 0.0
C253 C 0.85491 0.39379 0.57622 0.0
C254 C 0.83421 0.37829 0.59676 0.0
C255 C 0.81868 0.38701 0.60969 0.0
C256 C 0.82428 0.41146 0.60186 0.0
C257 C 0.84497 0.42691 0.58179 0.0
C258 C 0.94895 0.52056 0.51222 0.0
C259 C 0.92679 0.52442 0.5964 0.0
O260 O 0.92805 0.57065 0.52422 0.0
O261 O 0.89483 0.55714 0.49227 0.0
O262 O 0.87492 0.49875 0.55235 0.0
O263 O 0.8613 0.50728 0.50734 0.0
O264 O 0.89465 0.47544 0.47322 0.0
O265 O 0.9045 0.51452 0.45602 0.0
O266 O 0.87525 0.44393 0.52038 0.0
O267 O 0.90161 0.45131 0.56243 0.0
O268 O 0.92857 0.51447 0.4984 0.0
O269 O 0.94642 0.50488 0.53667 0.0
O270 O 0.92694 0.53939 0.57105 0.0
O271 O 0.91458 0.50021 0.5908 0.0
H272 H 0.89569 0.59417 0.45553 0.0
H273 H 0.91753 0.62448 0.40962 0.0
H274 H 0.98773 0.63533 0.44858 0.0
H275 H 0.96583 0.60461 0.49398 0.0
H276 H 0.8666 0.38678 0.56622 0.0
H277 H 0.8304 0.35958 0.60267 0.0
H278 H 0.81311 0.41897 0.61218 0.0
H279 H 0.84897 0.44575 0.57638 0.0
Pr280 Pr 0.40915 0.90507 0.84293 0.0
Pr281 Pr 0.42844 0.87216 0.86358 0.0
C282 C 0.39177 0.93464 0.82001 0.0
C283 C 0.39304 0.95215 0.79357 0.0
C284 C 0.38135 0.96607 0.80036 0.0
C285 C 0.37998 0.98121 0.77466 0.0
C286 C 0.39029 0.9826 0.7417 0.0
C287 C 0.40287 0.96927 0.73539 0.0
C288 C 0.40429 0.95414 0.76126 0.0
C289 C 0.37271 0.85903 0.87244 0.0
C290 C 0.42785 0.8824 0.77705 0.0
C291 C 0.4288 0.83278 0.89257 0.0
C292 C 0.41208 0.81588 0.91929 0.0
C293 C 0.41421 0.7957 0.93158 0.0
C294 C 0.39797 0.78008 0.9574 0.0
C295 C 0.37939 0.78448 0.97096 0.0
C296 C 0.37685 0.80421 0.95735 0.0
C297 C 0.3932 0.81987 0.93209 0.0
C298 C 0.4663 0.91484 0.83443 0.0
C299 C 0.42974 0.91456 0.92294 0.0
O300 O 0.41049 0.9423 0.8415 0.0
O301 O 0.38231 0.91133 0.81074 0.0
O302 O 0.38851 0.8618 0.8497 0.0
O303 O 0.37604 0.88058 0.88167 0.0
O304 O 0.42956 0.86763 0.80099 0.0
O305 O 0.42161 0.89909 0.78692 0.0
O306 O 0.41786 0.83156 0.86301 0.0
O307 O 0.4437 0.85573 0.90272 0.0
O308 O 0.44941 0.91413 0.85391 0.0
O309 O 0.46614 0.89371 0.83472 0.0
O310 O 0.42599 0.92533 0.89587 0.0
O311 O 0.42844 0.89246 0.91851 0.0
H312 H 0.37257 0.96463 0.82526 0.0
H313 H 0.36992 0.99097 0.78016 0.0
H314 H 0.41119 0.9702 0.71031 0.0
H315 H 0.41354 0.94356 0.75582 0.0
H316 H 0.42863 0.7923 0.92171 0.0
H317 H 0.40057 0.76521 0.96764 0.0
H318 H 0.36256 0.80793 0.9668 0.0
H319 H 0.3913 0.83537 0.92276 0.0
Pr320 Pr 0.50076 0.39936 0.1809 0.0
Pr321 Pr 0.55226 0.42437 0.20045 0.0
C322 C 0.45362 0.37685 0.15681 0.0
C323 C 0.43733 0.38119 0.13389 0.0
C324 C 0.41153 0.36601 0.13704 0.0
C325 C 0.39558 0.36999 0.11576 0.0
C326 C 0.40526 0.38934 1.0911 0.0
C327 C 0.43124 0.40472 1.08842 0.0
C328 C 0.44717 0.40063 0.1096 0.0
C329 C 0.51498 0.36655 0.21232 0.0
C330 C 0.54143 0.42073 0.11379 0.0
C331 C 0.59569 0.43255 0.22816 0.0
C332 C 0.60214 0.41854 0.25284 0.0
C333 C 0.62534 0.42993 0.26941 0.0
C334 C 0.6309 0.41666 0.29391 0.0
C335 C 0.6133 0.39178 0.30206 0.0
C336 C 0.59041 0.38024 0.28431 0.0
C337 C 0.58483 0.39357 0.26016 0.0
C338 C 0.54253 0.4586 0.16833 0.0
C339 C 0.51008 0.42295 0.25984 0.0
O340 O 0.46071 0.39015 0.18514 0.0
O341 O 0.47134 0.37446 0.14216 0.0
O342 O 0.52697 0.38245 0.18904 0.0
O343 O 0.49569 0.36812 0.22096 0.0
O344 O 0.55854 0.42509 0.13806 0.0
O345 O 0.51806 0.41206 0.1238 0.0
O346 O 0.58716 0.42158 0.19831 0.0
O347 O 0.58303 0.44251 0.2407 0.0
O348 O 0.52744 0.44145 0.18853 0.0
O349 O 0.56448 0.46078 0.16959 0.0
O350 O 0.49488 0.41624 0.23288 0.0
O351 O 0.53233 0.42474 0.25539 0.0
H352 H 0.40371 0.35095 0.15583 0.0
H353 H 0.37571 0.35754 0.11811 0.0
H354 H 0.43928 0.4199 1.06997 0.0
H355 H 0.46711 0.41251 0.107 0.0
H356 H 0.63891 0.44921 0.26399 0.0
H357 H 0.64853 0.42623 0.3075 0.0
H358 H 0.57653 0.36107 0.2897 0.0
H359 H 0.56682 0.38453 0.24757 0.0
Pr360 Pr 0.09163 0.47106 0.51301 0.0
Pr361 Pr 0.10044 0.51829 0.52946 0.0
C362 C 0.076 0.42218 0.50355 0.0
C363 C 0.06394 0.40296 0.47693 0.0
C364 C 0.06572 0.38127 0.47865 0.0
C365 C 0.05502 0.36316 0.45272 0.0
C366 C 0.04231 0.36651 0.42484 0.0
C367 C 0.04044 0.38827 0.42345 0.0
C368 C 0.05123 0.4064 0.44925 0.0
C369 C 0.14125 0.50068 0.5353 0.0
C370 C 0.10544 0.50956 0.44342 0.0
C371 C 0.12546 0.56775 0.54101 0.0
C372 C 0.14327 0.58269 0.56822 0.0
C373 C 0.14185 0.572 0.60087 0.0
C374 C 0.1613 0.58382 0.62452 0.0
C375 C 0.18271 0.60641 0.61588 0.0
C376 C 0.18361 0.61777 0.58386 0.0
C377 C 0.16402 0.60587 0.56005 0.0
C378 C 0.05241 0.4889 0.50043 0.0
C379 C 0.07132 0.47962 0.59297 0.0
O380 O 0.06237 0.43038 0.51792 0.0
O381 O 0.09855 0.43989 0.49658 0.0
O382 O 0.12237 0.49909 0.55077 0.0
O383 O 0.13465 0.48849 0.50637 0.0
O384 O 0.11212 0.52626 0.46873 0.0
O385 O 0.09446 0.48562 0.45306 0.0
O386 O 0.1335 0.55652 0.5204 0.0
O387 O 0.10229 0.5534 0.55057 0.0
O388 O 0.07215 0.49008 0.49064 0.0
O389 O 0.05714 0.50438 0.52604 0.0
O390 O 0.06916 0.46348 0.56832 0.0
O391 O 0.08557 0.50356 0.58619 0.0
H392 H 0.07557 0.37845 0.49989 0.0
H393 H 0.05668 0.34655 0.45446 0.0
H394 H 0.03118 0.3916 0.40191 0.0
H395 H 0.04993 0.4232 0.44742 0.0
H396 H 0.12619 0.55397 0.60755 0.0
H397 H 0.15985 0.57491 0.64935 0.0
H398 H 0.19987 0.6352 0.57664 0.0
H399 H 0.16557 0.61417 0.5347 0.0
Pr400 Pr 0.59749 0.09244 0.84384 0.0
Pr401 Pr 0.58079 0.12764 0.86382 0.0
C402 C 0.60948 0.05919 0.81813 0.0
C403 C 0.62485 0.05748 0.79062 0.0
C404 C 0.63194 0.03928 0.79289 0.0
C405 C 0.64592 0.03682 0.76638 0.0
C406 C 0.653 0.05257 0.73716 0.0
C407 C 0.64634 0.07123 0.73545 0.0
C408 C 0.63237 0.07369 0.76202 0.0
C409 C 0.63636 0.13918 0.86829 0.0
C410 C 0.58214 0.11803 0.77681 0.0
C411 C 0.58122 0.16796 0.89097 0.0
C412 C 0.59381 0.18436 0.92066 0.0
C413 C 0.59951 0.17499 0.95032 0.0
C414 C 0.61319 0.19096 0.97735 0.0
C415 C 0.6218 0.21672 0.9751 0.0
C416 C 0.61591 0.22603 0.94538 0.0
C417 C 0.60204 0.20994 0.91834 0.0
C418 C 0.54181 0.0851 0.83643 0.0
C419 C 0.57863 0.08531 0.92483 0.0
O420 O 0.58998 0.06044 0.80816 0.0
O421 O 0.6214 0.07419 0.84379 0.0
O422 O 0.61967 0.13605 0.84669 0.0
O423 O 0.63311 0.11776 0.87816 0.0
O424 O 0.57863 0.13155 0.80093 0.0
O425 O 0.58989 0.1025 0.78679 0.0
O426 O 0.59597 0.16925 0.86584 0.0
O427 O 0.5639 0.14509 0.89805 0.0
O428 O 0.55829 0.08543 0.85662 0.0
O429 O 0.54318 0.10677 0.83501 0.0
O430 O 0.58072 0.07339 0.89776 0.0
O431 O 0.58071 0.10773 0.91957 0.0
H432 H 0.62641 0.02677 0.81499 0.0
H433 H 0.65099 0.02245 0.76858 0.0
H434 H 0.65121 0.08341 0.71306 0.0
H435 H 0.62709 0.08793 0.75999 0.0
H436 H 0.59361 0.15535 0.95248 0.0
H437 H 0.61688 0.18302 1.00015 0.0
H438 H 0.62239 0.24576 0.94273 0.0
H439 H 0.59811 0.21753 0.89535 0.0
Pr440 Pr 0.50957 0.60202 0.17631 0.0
Pr441 Pr 0.45885 0.58355 0.1971 0.0
C442 C 0.55559 0.61783 0.15102 0.0
C443 C 0.56972 0.60866 0.13176 0.0
C444 C 0.59569 0.62154 0.13433 0.0
C445 C 0.60965 0.61341 0.11581 0.0
C446 C 0.59779 0.59219 1.09449 0.0
C447 C 0.57161 0.57895 1.09277 0.0
C448 C 0.55767 0.58715 0.11128 0.0
C449 C 0.50125 0.64014 0.20369 0.0
C450 C 0.46827 0.58252 0.11037 0.0
C451 C 0.41867 0.58271 0.22531 0.0
C452 C 0.4164 0.59915 0.25058 0.0
C453 C 0.393 0.59496 0.26115 0.0
C454 C 0.39124 0.61075 0.2856 0.0
C455 C 0.41289 0.63098 0.29958 0.0
C456 C 0.43626 0.63557 0.2877 0.0
C457 C 0.43798 0.61965 0.26371 0.0
C458 C 0.46202 0.54453 0.16831 0.0
C459 C 0.49938 0.58127 0.25643 0.0
O460 O 0.54875 0.60887 0.18228 0.0
O461 O 0.53844 0.61989 0.13394 0.0
O462 O 0.48758 0.62367 0.18206 0.0
O463 O 0.51964 0.63696 0.21215 0.0
O464 O 0.45233 0.58176 0.13437 0.0
O465 O 0.49096 0.58826 0.12043 0.0
O466 O 0.42823 0.59324 0.19555 0.0
O467 O 0.42794 0.56919 0.23714 0.0
O468 O 0.47899 0.56133 0.18715 0.0
O469 O 0.44163 0.54563 0.16915 0.0
O470 O 0.51329 0.58444 0.22887 0.0
O471 O 0.47885 0.58303 0.25216 0.0
H472 H 0.6052 0.63815 0.15023 0.0
H473 H 0.62976 0.62429 0.11724 0.0
H474 H 0.5619 0.56247 1.07678 0.0
H475 H 0.53757 0.57695 0.10926 0.0
H476 H 0.37618 0.57927 0.251 0.0
H477 H 0.37298 0.60653 0.29457 0.0
H478 H 0.45328 0.65116 0.2976 0.0
H479 H 0.45619 0.62315 0.25566 0.0
H480 H 0.53171 0.17494 0.33261 0.0
H481 H 0.53669 0.21639 0.32064 0.0
H482 H 0.50524 0.19164 0.21868 0.0
H483 H 0.49974 0.15041 0.23076 0.0
H484 H 0.56029 0.25425 0.27187 0.0
H485 H 0.45847 0.21306 0.25761 0.0
H486 H 0.47234 0.19553 0.27431 0.0
H487 H 0.47088 0.19957 0.22818 0.0
C488 C 0.52624 0.17848 0.30745 0.0
C489 C 0.5151 0.15912 0.28279 0.0
C490 C 0.529 0.20223 0.30062 0.0
C491 C 0.5207 0.20723 0.26901 0.0
C492 C 0.51112 0.18834 0.24367 0.0
H493 H 0.54786 0.35255 0.18583 0.0
H494 H 0.55079 0.31537 0.20053 0.0
C495 C 0.5082 0.16469 0.25053 0.0
C496 C 0.52093 0.23154 0.26275 0.0
H497 H 0.48322 0.25521 0.23973 0.0
C498 C 0.5434 0.25442 0.26497 0.0
C499 C 0.49893 0.2322 0.25431 0.0
C500 C 0.47375 0.20882 0.2538 0.0
C501 C 0.5445 0.27754 0.25824 0.0
C502 C 0.52263 0.27804 0.24829 0.0
C503 C 0.50015 0.25517 0.24683 0.0
C504 C 0.52222 0.30183 0.24022 0.0
C505 C 0.56905 0.30126 0.26272 0.0
C506 C 0.50502 0.30692 0.25694 0.0
C507 C 0.50316 0.32804 0.24825 0.0
C508 C 0.51838 0.34489 0.22243 0.0
C509 C 0.53588 0.34011 0.20593 0.0
C510 C 0.5377 0.31884 0.21459 0.0
H511 H 0.58187 0.29842 0.27989 0.0
H512 H 0.57815 0.30752 0.23699 0.0
H513 H 0.56638 0.31632 0.27384 0.0
H514 H 0.49277 0.29435 0.27674 0.0
H515 H 0.48949 0.33103 0.26163 0.0
H516 H 0.355 0.52792 0.65697 0.0
H517 H 0.32028 0.53493 0.64247 0.0
H518 H 0.28539 0.46625 0.58422 0.0
H519 H 0.32072 0.46053 0.59596 0.0
H520 H 0.27799 0.49506 0.54988 0.0
H521 H 0.25446 0.50936 0.68325 0.0
H522 H 0.28545 0.53245 0.67129 0.0
H523 H 0.27741 0.50021 0.67493 0.0
C524 C 0.3401 0.51454 0.64065 0.0
C525 C 0.34106 0.49379 0.62739 0.0
C526 C 0.31982 0.51829 0.63284 0.0
C527 C 0.29942 0.5009 0.61265 0.0
C528 C 0.30055 0.48019 0.59969 0.0
H529 H 0.14944 0.48429 0.59818 0.0
H530 H 0.18809 0.48584 0.61749 0.0
C531 C 0.32097 0.47685 0.6066 0.0
C532 C 0.27719 0.50407 0.60373 0.0
H533 H 0.23285 0.51618 0.63737 0.0
C534 C 0.26819 0.49958 0.5693 0.0
C535 C 0.2637 0.50968 0.62863 0.0
C536 C 0.27057 0.51294 0.66663 0.0
C537 C 0.24646 0.50007 0.55927 0.0
C538 C 0.2336 0.50675 0.58375 0.0
C539 C 0.2426 0.51141 0.61819 0.0
C540 C 0.21051 0.50817 0.57423 0.0
C541 C 0.23702 0.49215 0.52266 0.0
C542 C 0.20994 0.52112 0.54435 0.0
C543 C 0.18769 0.51975 0.53296 0.0
C544 C 0.16545 0.5064 0.55188 0.0
C545 C 0.16629 0.49507 0.58323 0.0
C546 C 0.18848 0.49585 0.59417 0.0
H547 H 0.24349 0.47975 0.51167 0.0
H548 H 0.21637 0.48211 0.52159 0.0
H549 H 0.24436 0.50888 0.50577 0.0
H550 H 0.22661 0.53175 0.52905 0.0
H551 H 0.18772 0.52864 0.50867 0.0
H552 H 0.82615 0.31469 1.02242 0.0
H553 H 0.78773 0.28144 0.99776 0.0
H554 H 0.80206 0.32317 0.90255 0.0
H555 H 0.84138 0.35652 0.92706 0.0
H556 H 0.74608 0.27681 0.97691 0.0
H557 H 0.78827 0.25881 0.86143 0.0
H558 H 0.80694 0.27944 0.89582 0.0
H559 H 0.79328 0.28995 0.86333 0.0
C560 C 0.82127 0.31695 0.99616 0.0
C561 C 0.83726 0.33839 0.97674 0.0
C562 C 0.79905 0.29776 0.98199 0.0
C563 C 0.79177 0.29913 0.94778 0.0
C564 C 0.80728 0.32098 0.92859 0.0
H565 H 0.65191 0.18646 0.84193 0.0
H566 H 0.68851 0.22619 0.85948 0.0
C567 C 0.82978 0.34027 0.94278 0.0
C568 C 0.76804 0.2776 0.93304 0.0
H569 H 0.74452 0.23483 0.86653 0.0
C570 C 0.74591 0.2678 0.95267 0.0
C571 C 0.76727 0.26541 0.90132 0.0
C572 C 0.79022 0.27375 0.87937 0.0
C573 C 0.72363 0.24643 0.94198 0.0
C574 C 0.72303 0.23415 0.91068 0.0
C575 C 0.74482 0.24419 0.89048 0.0
C576 C 0.70043 0.21005 0.89982 0.0
C577 C 0.70078 0.23688 0.96445 0.0
C578 C 0.6947 0.18755 0.91646 0.0
C579 C 0.67398 0.16481 0.90622 0.0
C580 C 0.65811 0.16381 0.87918 0.0
C581 C 0.66364 0.18641 0.86279 0.0
C582 C 0.68464 0.20919 0.8728 0.0
H583 H 0.70305 0.25035 0.98517 0.0
H584 H 0.6843 0.23291 0.94838 0.0
H585 H 0.69701 0.21914 0.97692 0.0
H586 H 0.70646 0.18753 0.93731 0.0
H587 H 0.67037 0.14791 0.91958 0.0
H588 H 0.46238 0.64952 0.1934 0.0
H589 H 0.46021 0.68668 0.21023 0.0
H590 H 0.53512 0.72029 0.25018 0.0
H591 H 0.53664 0.68267 0.23544 0.0
H592 H 0.51119 0.73076 0.29246 0.0
H593 H 0.4852 0.7515 0.1644 0.0
H594 H 0.4625 0.72131 0.17998 0.0
H595 H 0.49355 0.72765 0.16998 0.0
C596 C 0.47841 0.66488 0.2057 0.0
C597 C 0.49972 0.66299 0.2129 0.0
C598 C 0.47728 0.68639 0.21505 0.0
C599 C 0.49774 0.70704 0.23089 0.0
C600 C 0.51898 0.70498 0.23801 0.0
H601 H 0.52156 0.85997 0.24813 0.0
H602 H 0.51714 0.82023 0.2278 0.0
C603 C 0.51989 0.68334 0.2294 0.0
C604 C 0.49708 0.73042 0.24119 0.0
H605 H 0.48379 0.77515 0.21217 0.0
C606 C 0.50526 0.7404 0.27466 0.0
C607 C 0.48974 0.74368 0.21825 0.0
C608 C 0.48251 0.73565 0.18106 0.0
C609 C 0.50641 0.76277 0.28567 0.0
C610 C 0.49804 0.77545 0.26331 0.0
C611 C 0.48991 0.76556 0.22977 0.0
C612 C 0.4983 0.79922 0.27397 0.0
C613 C 0.51769 0.77299 0.32084 0.0
C614 C 0.48819 0.80091 0.30598 0.0
C615 C 0.49115 0.82375 0.31781 0.0
C616 C 0.50332 0.84549 0.29745 0.0
C617 C 0.51174 0.84353 0.26427 0.0
C618 C 0.50934 0.82073 0.25275 0.0
H619 H 0.53048 0.7662 0.32913 0.0
H620 H 0.52827 0.79368 0.32081 0.0
H621 H 0.50264 0.76654 0.34048 0.0
H622 H 0.4786 0.78467 0.32249 0.0
H623 H 0.48449 0.82459 0.34351 0.0
H624 H 0.67389 0.52776 0.58696 0.0
H625 H 0.70811 0.51984 0.57613 0.0
H626 H 0.67975 0.46267 0.65481 0.0
H627 H 0.64515 0.47074 0.66611 0.0
H628 H 0.74474 0.52498 0.62435 0.0
H629 H 0.69375 0.42871 0.57111 0.0
H630 H 0.68002 0.4485 0.57317 0.0
H631 H 0.68291 0.43396 0.61188 0.0
C632 C 0.67465 0.51329 0.60189 0.0
C633 C 0.65658 0.49996 0.62755 0.0
C634 C 0.69441 0.50882 0.59565 0.0
C635 C 0.69678 0.49062 0.61448 0.0
C636 C 0.6784 0.47668 0.63957 0.0
H637 H 0.84295 0.49434 0.60593 0.0
H638 H 0.80413 0.49064 0.62907 0.0
C639 C 0.65857 0.48132 0.64608 0.0
C640 C 0.71912 0.48742 0.60842 0.0
H641 H 0.73745 0.44754 0.57532 0.0
C642 C 0.74308 0.5079 0.61404 0.0
C643 C 0.71722 0.46527 0.59459 0.0
C644 C 0.69216 0.44283 0.58703 0.0
C645 C 0.76492 0.50708 0.60582 0.0
C646 C 0.76309 0.48503 0.59171 0.0
C647 C 0.7391 0.46438 0.58647 0.0
C648 C 0.7857 0.48403 0.57913 0.0
C649 C 0.78983 0.5303 0.6109 0.0
C650 C 0.78816 0.4804 0.54364 0.0
C651 C 0.81025 0.48243 0.53049 0.0
C652 C 0.83063 0.48789 0.55237 0.0
C653 C 0.8277 0.49001 0.58829 0.0
C654 C 0.80552 0.48816 0.60148 0.0
H655 H 0.78796 0.54702 0.61558 0.0
H656 H 0.7993 0.52776 0.63373 0.0
H657 H 0.8019 0.53384 0.58784 0.0
H658 H 0.77334 0.4771 0.52568 0.0
H659 H 0.81175 0.48069 0.50271 0.0
H660 H 0.33355 0.85101 0.91413 0.0
H661 H 0.29683 0.81132 0.92993 0.0
H662 H 0.32483 0.77166 0.87024 0.0
H663 H 0.36165 0.81143 0.85424 0.0
H664 H 0.2605 0.77464 0.88583 0.0
H665 H 0.30744 0.73447 0.96428 0.0
H666 H 0.32154 0.76741 0.95546 0.0
H667 H 0.32077 0.74665 0.92234 0.0
C668 C 0.33199 0.83386 0.90442 0.0
C669 C 0.35066 0.83455 0.8828 0.0
C670 C 0.31088 0.81108 0.91348 0.0
C671 C 0.30789 0.78823 0.90162 0.0
C672 C 0.32665 0.78885 0.88024 0.0
H673 H 0.16022 0.64854 0.91718 0.0
H674 H 0.19962 0.68229 0.89332 0.0
C675 C 0.3477 0.81168 0.8709 0.0
C676 C 0.28487 0.76402 0.91093 0.0
H677 H 0.26433 0.70911 0.95543 0.0
C678 C 0.26138 0.76024 0.90084 0.0
C679 C 0.28576 0.74518 0.93087 0.0
C680 C 0.31015 0.74852 0.94418 0.0
C681 C 0.23902 0.73849 0.91019 0.0
C682 C 0.23989 0.71951 0.92993 0.0
C683 C 0.26342 0.72327 0.93987 0.0
C684 C 0.21668 0.69696 0.9434 0.0
C685 C 0.21459 0.73655 0.9 0.0
C686 C 0.21332 0.69281 0.97939 0.0
C687 C 0.19101 0.67343 0.99294 0.0
C688 C 0.17122 0.65733 0.97105 0.0
C689 C 0.17498 0.66049 0.93488 0.0
C690 C 0.19746 0.68006 0.92122 0.0
H691 H 0.21693 0.75483 0.89179 0.0
H692 H 0.20646 0.72343 0.87787 0.0
H693 H 0.20116 0.72929 0.92189 0.0
H694 H 0.22767 0.70524 0.99727 0.0
H695 H 0.18892 0.67162 1.02091 0.0
H696 H 0.61866 0.25612 1.00252 0.0
H697 H 0.63762 0.27849 1.05648 0.0
H698 H 0.67551 0.23623 1.06812 0.0
H699 H 0.65773 0.21491 1.01394 0.0
H700 H 0.62544 0.25542 0.11409 0.0
H701 H 0.72661 0.29895 0.11089 0.0
H702 H 0.70848 0.29127 1.07133 0.0
H703 H 0.71485 0.26874 1.09199 0.0
C704 C 0.63183 0.25234 1.01591 0.0
C705 C 0.63637 0.23342 1.00422 0.0
C706 C 0.64267 0.26517 1.04677 0.0
C707 C 0.65828 0.25935 1.06636 0.0
C708 C 0.66416 0.24172 1.05326 0.0
H709 H 0.65889 0.18814 0.22018 0.0
H710 H 0.67436 0.22056 0.17666 0.0
C711 C 0.65348 0.22904 1.0225 0.0
C712 C 0.66377 0.26679 0.10343 0.0
H713 H 0.70613 0.27297 0.1649 0.0
C714 C 0.64339 0.26045 0.12536 0.0
C715 C 0.68726 0.27398 0.11838 0.0
C716 C 0.71052 0.28389 1.0967 0.0
C717 C 0.64482 0.25683 0.16106 0.0
C718 C 0.66735 0.25989 0.17503 0.0
C719 C 0.68873 0.27013 0.15407 0.0
C720 C 0.66677 0.24571 0.2064 0.0
C721 C 0.62131 0.24656 0.18245 0.0
C722 C 0.65923 0.24991 0.23885 0.0
C723 C 0.6503 0.23118 0.26424 0.0
C724 C 0.64885 0.20809 0.25739 0.0
C725 C 0.65965 0.20554 0.22666 0.0
C726 C 0.66854 0.22418 0.20149 0.0
H727 H 0.60526 0.24475 0.16717 0.0
H728 H 0.61636 0.22789 0.19286 0.0
H729 H 0.62432 0.25909 0.20477 0.0
H730 H 0.65825 0.26667 0.24343 0.0
H731 H 0.64279 0.23404 0.28806 0.0
H732 H 0.38034 0.64875 0.3095 0.0
H733 H 0.37477 0.66711 0.36296 0.0
H734 H 0.43543 0.66216 0.41033 0.0
H735 H 0.44124 0.64465 0.35774 0.0
H736 H 0.35953 0.64626 0.42067 0.0
H737 H 0.44924 0.72477 0.45385 0.0
H738 H 0.4425 0.7134 0.40968 0.0
H739 H 0.45701 0.70197 0.43983 0.0
C740 C 0.39282 0.65223 0.33118 0.0
C741 C 0.41131 0.64535 0.32935 0.0
C742 C 0.38974 0.66287 0.3616 0.0
C743 C 0.40507 0.66673 0.39061 0.0
C744 C 0.42404 0.66061 0.38807 0.0
H745 H 0.38105 0.58942 0.54526 0.0
H746 H 0.37185 0.61203 0.50234 0.0
C747 C 0.42723 0.65027 0.35785 0.0
C748 C 0.39892 0.67236 0.42555 0.0
H749 H 0.43023 0.69086 0.50197 0.0
C750 C 0.3748 0.65689 0.43845 0.0
C751 C 0.41798 0.68756 0.4492 0.0
C752 C 0.443 0.70808 0.43711 0.0
C753 C 0.37078 0.65225 0.47422 0.0
C754 C 0.39159 0.66215 0.49685 0.0
C755 C 0.41434 0.68181 0.4847 0.0
C756 C 0.39211 0.64803 0.52799 0.0
C757 C 0.34467 0.63511 0.48687 0.0
C758 C 0.40679 0.66035 0.55724 0.0
C759 C 0.41293 0.64731 0.58147 0.0
C760 C 0.40403 0.62167 0.57722 0.0
C761 C 0.38781 0.60908 0.54962 0.0
C762 C 0.38222 0.62211 0.52511 0.0
H763 H 0.3318 0.6408 0.47532 0.0
H764 H 0.33833 0.61581 0.47791 0.0
H765 H 0.34329 0.63531 0.51563 0.0
H766 H 0.41477 0.6803 0.56022 0.0
H767 H 0.42546 0.65741 0.60264 0.0
H768 H 0.76732 0.40938 0.89731 0.0
H769 H 0.74332 0.39205 0.84376 0.0
H770 H 0.77474 0.34371 0.8338 0.0
H771 H 0.79753 0.36007 0.88727 0.0
H772 H 0.76565 0.40128 0.7876 0.0
H773 H 0.71144 0.29975 0.78833 0.0
H774 H 0.72131 0.31719 0.82844 0.0
H775 H 0.74089 0.30738 0.80672 0.0
C776 C 0.76824 0.39436 0.88422 0.0
C777 C 0.7843 0.38609 0.89632 0.0
C778 C 0.75444 0.38436 0.85377 0.0
C779 C 0.75689 0.3663 0.83467 0.0
C780 C 0.77161 0.35687 0.84834 0.0
H781 H 0.82019 0.36091 0.66572 0.0
H782 H 0.79222 0.34801 0.71549 0.0
C783 C 0.78496 0.36649 0.87894 0.0
C784 C 0.7498 0.36192 0.79736 0.0
H785 H 0.7383 0.31863 0.73446 0.0
C786 C 0.75853 0.38303 0.77594 0.0
C787 C 0.74018 0.33813 0.78178 0.0
C788 C 0.7277 0.3144 0.80275 0.0
C789 C 0.76145 0.38149 0.74015 0.0
C790 C 0.75523 0.35814 0.72541 0.0
C791 C 0.74347 0.33657 0.74596 0.0
C792 C 0.76605 0.35713 0.6917 0.0
C793 C 0.77387 0.40533 0.71918 0.0
C794 C 0.75963 0.36484 0.66103 0.0
C795 C 0.77573 0.37239 0.63255 0.0
C796 C 0.7983 0.37212 0.63443 0.0
C797 C 0.80298 0.36134 0.66351 0.0
C798 C 0.78695 0.35392 0.69199 0.0
H799 H 0.77894 0.42209 0.73528 0.0
H800 H 0.79103 0.40761 0.7067 0.0
H801 H 0.7611 0.40452 0.69832 0.0
H802 H 0.74342 0.36716 0.66024 0.0
H803 H 0.77147 0.3802 0.61011 0.0
H804 H 0.35749 0.7341 0.98519 0.0
H805 H 0.33714 0.71303 1.03969 0.0
H806 H 0.34884 0.7831 1.08042 0.0
H807 H 0.36855 0.80371 1.02702 0.0
H808 H 0.35718 0.71941 0.09933 0.0
H809 H 0.28308 0.74022 0.12174 0.0
H810 H 0.29514 0.74181 1.07848 0.0
H811 H 0.30812 0.76906 0.10619 0.0
C812 C 0.3552 0.74478 1.00568 0.0
C813 C 0.36453 0.77056 1.00172 0.0
C814 C 0.34338 0.73269 1.03663 0.0
C815 C 0.3407 0.74623 1.06397 0.0
C816 C 0.34946 0.77181 1.05938 0.0
H817 H 0.41437 0.80019 0.22149 0.0
H818 H 0.39147 0.76882 0.17829 0.0
C819 C 0.36105 0.78375 1.02871 0.0
C820 C 0.33337 0.73571 0.0995 0.0
H821 H 0.31508 0.75348 0.17193 0.0
C822 C 0.34701 0.72578 0.11525 0.0
C823 C 0.31876 0.74207 0.12075 0.0
C824 C 0.30022 0.74854 0.10563 0.0
C825 C 0.35065 0.72734 0.15134 0.0
C826 C 0.34151 0.74025 0.17137 0.0
C827 C 0.32346 0.74491 0.15657 0.0
C828 C 0.35527 0.75506 0.20242 0.0
C829 C 0.36618 0.71727 0.16706 0.0
C830 C 0.34283 0.75845 0.23064 0.0
C831 C 0.35609 0.77721 0.2552 0.0
C832 C 0.38201 0.79266 0.25211 0.0
C833 C 0.3945 0.78828 0.22507 0.0
C834 C 0.38131 0.76995 0.2004 0.0
H835 H 0.36009 0.69834 0.15664 0.0
H836 H 0.38595 0.72928 0.15943 0.0
H837 H 0.36477 0.71622 0.19584 0.0
H838 H 0.32277 0.74744 0.23273 0.0
H839 H 0.34603 0.78016 0.27592 0.0
H840 H 0.57989 0.36307 0.35144 0.0
H841 H 0.58814 0.34854 0.40562 0.0
H842 H 0.6646 0.37693 0.37526 0.0
H843 H 0.65643 0.39188 0.32034 0.0
H844 H 0.60778 0.31883 0.43011 0.0
H845 H 0.67119 0.4198 0.45876 0.0
H846 H 0.65177 0.41059 0.42059 0.0
H847 H 0.6779 0.40553 0.42287 0.0
C848 C 0.5983 0.3656 0.35559 0.0
C849 C 0.6176 0.37899 0.33174 0.0
C850 C 0.60301 0.35721 0.3867 0.0
C851 C 0.62709 0.36199 0.39477 0.0
C852 C 0.64598 0.37346 0.36982 0.0
H853 H 0.62713 0.38994 0.60987 0.0
H854 H 0.64531 0.37485 0.56648 0.0
C855 C 0.64131 0.38205 0.33856 0.0
C856 C 0.63238 0.35862 0.43131 0.0
H857 H 0.65038 0.3937 0.50492 0.0
C858 C 0.61789 0.33505 0.44661 0.0
C859 C 0.64616 0.37962 0.45293 0.0
C860 C 0.66266 0.40536 0.43818 0.0
C861 C 0.61377 0.33261 0.48261 0.0
C862 C 0.6241 0.35431 0.50341 0.0
C863 C 0.64198 0.37709 0.48887 0.0
C864 C 0.61171 0.35557 0.53569 0.0
C865 C 0.59661 0.30716 0.4975 0.0
C866 C 0.58646 0.34876 0.53385 0.0
C867 C 0.57616 0.35765 0.55819 0.0
C868 C 0.5909 0.37366 0.58495 0.0
C869 C 0.6154 0.37812 0.5891 0.0
C870 C 0.62577 0.36927 0.56453 0.0
H871 H 0.60009 0.29299 0.48502 0.0
H872 H 0.59896 0.30664 0.52605 0.0
H873 H 0.57702 0.30191 0.49181 0.0
H874 H 0.57529 0.33883 0.51149 0.0
H875 H 0.55736 0.35396 0.55377 0.0
H876 H 0.22067 0.61705 0.91891 0.0
H877 H 0.24942 0.64266 0.87295 0.0
H878 H 0.21708 0.5793 0.80401 0.0
H879 H 0.18873 0.5536 0.84988 0.0
H880 H 0.27052 0.61592 0.79159 0.0
H881 H 0.20937 0.65827 0.80092 0.0
H882 H 0.22797 0.65919 0.83743 0.0
H883 H 0.20141 0.63018 0.82478 0.0
C884 C 0.22048 0.60833 0.89443 0.0
C885 C 0.20219 0.58346 0.88762 0.0
C886 C 0.23686 0.62302 0.8682 0.0
C887 C 0.23504 0.61297 0.83498 0.0
C888 C 0.21877 0.58742 0.82951 0.0
H889 H 0.20293 0.5821 0.64917 0.0
H890 H 0.23031 0.59647 0.69897 0.0
C891 C 0.20242 0.57278 0.8556 0.0
C892 C 0.24516 0.6291 0.80403 0.0
H893 H 0.22335 0.65527 0.74623 0.0
C894 C 0.26106 0.62549 0.78191 0.0
C895 C 0.23359 0.64244 0.79174 0.0
C896 C 0.21713 0.64788 0.81479 0.0
C897 C 0.26264 0.63151 0.74648 0.0
C898 C 0.2471 0.64025 0.73296 0.0
C899 C 0.23477 0.6479 0.75623 0.0
C900 C 0.23738 0.63455 0.6968 0.0
C901 C 0.27931 0.62647 0.72349 0.0
C902 C 0.23228 0.65109 0.67808 0.0
C903 C 0.21569 0.64248 0.64995 0.0
C904 C 0.20406 0.61726 0.64024 0.0
C905 C 0.2112 0.60151 0.65665 0.0
C906 C 0.22745 0.60996 0.68477 0.0
H907 H 0.29766 0.63322 0.73626 0.0
H908 H 0.271 0.60605 0.71978 0.0
H909 H 0.28225 0.63563 0.69773 0.0
H910 H 0.23959 0.67011 0.68685 0.0
H911 H 0.21062 0.65506 0.63754 0.0
H912 H 0.4471 0.96447 0.93512 0.0
H913 H 0.45586 0.98741 0.98968 0.0
H914 H 0.43258 0.91926 1.04649 0.0
H915 H 0.42514 0.89643 0.99143 0.0
H916 H 0.43306 0.99108 1.04081 0.0
H917 H 0.49211 0.95796 0.10057 0.0
H918 H 0.48041 0.94933 1.0573 0.0
H919 H 0.46118 0.93279 1.09407 0.0
C920 C 0.44405 0.9542 0.95913 0.0
C921 C 0.43557 0.92827 0.95802 0.0
C922 C 0.44902 0.96754 0.99086 0.0
C923 C 0.44557 0.95577 1.02351 0.0
C924 C 0.43653 0.92964 1.02248 0.0
H925 H 0.51754 0.05387 0.20824 0.0
H926 H 0.50744 0.02893 0.15493 0.0
C927 C 0.43201 0.9163 0.99055 0.0
C928 C 0.4512 0.9709 1.05775 0.0
H929 H 0.48029 0.98153 0.13769 0.0
C930 C 0.44345 0.98879 1.06179 0.0
C931 C 0.46505 0.96887 1.08601 0.0
C932 C 0.47534 0.95138 1.0842 0.0
C933 C 0.44873 0.00396 1.09215 0.0
C934 C 0.462 1.00144 0.12078 0.0
C935 C 0.47001 0.98379 0.1166 0.0
C936 C 0.46815 0.0171 0.15455 0.0
C937 C 0.44059 0.02323 1.09252 0.0
C938 C 0.4498 0.01921 0.17386 0.0
C939 C 0.45564 0.03372 0.20482 0.0
C940 C 0.48015 0.04683 0.2183 0.0
C941 C 0.49845 0.04447 0.19922 0.0
C942 C 0.49259 0.02992 0.16833 0.0
H943 H 0.43795 0.02831 1.06577 0.0
H944 H 0.4225 0.0155 0.10622 0.0
H945 H 0.45437 0.04045 0.10614 0.0
H946 H 0.43062 0.00927 0.16532 0.0
H947 H 0.44074 0.0345 0.21837 0.0
H948 H 0.46378 0.41635 0.27773 0.0
H949 H 0.44892 0.42417 0.33245 0.0
H950 H 0.52137 0.45067 0.37775 0.0
H951 H 0.53609 0.44195 0.32302 0.0
H952 H 0.45547 0.46043 0.36948 0.0
H953 H 0.48522 0.40983 0.45784 0.0
H954 H 0.51099 0.43432 0.43498 0.0
H955 H 0.48718 0.4081 0.41132 0.0
C956 C 0.47673 0.42368 0.29925 0.0
C957 C 0.50138 0.42818 0.29499 0.0
C958 C 0.46806 0.4283 0.33111 0.0
C959 C 0.48344 0.43772 0.36088 0.0
C960 C 0.50829 0.44264 0.35652 0.0
H961 H 0.41303 0.42959 0.56956 0.0
H962 H 0.42823 0.42095 0.51514 0.0
C963 C 0.51696 0.43782 0.32457 0.0
C964 C 0.47343 0.44274 0.39534 0.0
H965 H 0.47062 0.4347 0.48466 0.0
C966 C 0.45886 0.45458 0.39448 0.0
C967 C 0.47701 0.43519 0.42903 0.0
C968 C 0.49072 0.42094 0.43345 0.0
C969 C 0.44841 0.45913 0.42489 0.0
C970 C 0.45275 0.45241 0.45869 0.0
C971 C 0.46703 0.44027 0.45958 0.0
C972 C 0.44292 0.45784 0.49296 0.0
C973 C 0.4322 0.47072 0.41995 0.0
C974 C 0.44578 0.48157 0.50055 0.0
C975 C 0.43719 0.48662 0.53214 0.0
C976 C 0.425 0.46823 0.55809 0.0
C977 C 0.42205 0.44445 0.5507 0.0
C978 C 0.43097 0.43948 0.51916 0.0
H979 H 0.42363 0.4667 0.39367 0.0
H980 H 0.41708 0.46384 0.43956 0.0
H981 H 0.44382 0.49126 0.42242 0.0
H982 H 0.45501 0.49668 0.48222 0.0
H983 H 0.44019 0.50524 0.53617 0.0
H984 H 0.07567 0.50789 0.65174 0.0
H985 H 0.05277 0.4955 0.70687 0.0
H986 H 0.01124 0.41974 0.67082 0.0
H987 H 0.03418 0.43212 0.61549 0.0
H988 H 0.04777 0.46529 0.76079 0.0
H989 H 0.95369 0.42695 0.70443 0.0
H990 H 0.97039 0.41239 0.68781 0.0
H991 H 0.98149 0.44483 0.67898 0.0
C992 C 0.06168 0.4885 0.65523 0.0
C993 C 0.05716 0.47124 0.62806 0.0
C994 C 0.0484 0.48131 0.68734 0.0
C995 C 0.02945 0.4565 0.69411 0.0
C996 C 0.02506 0.43914 0.6671 0.0
H997 H 0.92854 0.43522 0.87445 0.0
H998 H 0.95145 0.44572 0.81931 0.0
C999 C 0.03856 0.44629 0.63504 0.0
C1000 C 0.0148 0.44906 0.72908 0.0
H1001 H 0.95564 0.42042 0.76482 0.0
C1002 C 0.0276 0.45539 0.7613 0.0
C1003 C 0.98825 0.43641 0.7313 0.0
C1004 C 0.97257 0.42993 0.69887 0.0
C1005 C 0.01516 0.44928 0.7943 0.0
C1006 C 0.9886 0.43606 0.79652 0.0
C1007 C 0.9758 0.43017 0.7643 0.0
C1008 C 0.97396 0.42893 0.83149 0.0
C1009 C 0.03087 0.45783 0.82674 0.0
C1010 C 0.9779 0.41537 0.85819 0.0
C1011 C 0.9644 0.40904 0.89023 0.0
C1012 C 0.94624 0.41598 0.89754 0.0
C1013 C 0.94218 0.42935 0.87071 0.0
C1014 C 0.95547 0.43544 0.83859 0.0
H1015 H 0.04993 0.4734 0.82128 0.0
H1016 H 0.02226 0.46402 0.84681 0.0
H1017 H 0.03258 0.4421 0.83753 0.0
H1018 H 0.99135 0.40929 0.85421 0.0
H1019 H 0.9684 0.39873 0.9095 0.0
H1020 H 0.49784 0.94188 0.20823 0.0
H1021 H 0.50666 0.96644 0.15522 0.0
H1022 H 0.5845 0.00634 0.18074 0.0
H1023 H 0.57575 0.98148 0.23449 0.0
H1024 H 0.5362 0.97147 1.09615 0.0
H1025 H 0.57143 0.06432 0.15608 0.0
H1026 H 0.58622 0.04723 0.17086 0.0
H1027 H 0.55391 0.0357 0.18024 0.0
C1028 C 0.51697 0.95578 0.20288 0.0
C1029 C 0.53593 0.95918 0.22657 0.0
C1030 C 0.52207 0.97005 0.17188 0.0
C1031 C 0.54634 0.98888 0.16275 0.0
C1032 C 0.56544 0.99242 0.18641 0.0
H1033 H 0.56009 0.09362 0.98797 0.0
H1034 H 0.55198 0.07092 1.04368 0.0
C1035 C 0.56039 0.97787 0.21745 0.0
C1036 C 0.55137 0.004 0.12851 0.0
H1037 H 0.57453 0.06341 1.09483 0.0
C1038 C 0.54451 0.99158 1.09616 0.0
C1039 C 0.56196 0.03042 0.12724 0.0
C1040 C 0.56866 0.04533 0.16037 0.0
C1041 C 0.54791 0.00426 1.06372 0.0
C1042 C 0.55949 0.03088 1.06214 0.0
C1043 C 0.56598 0.04328 1.0947 0.0
C1044 C 0.56501 0.04582 1.02744 0.0
C1045 C 0.53807 0.98849 1.03144 0.0
C1046 C 0.5758 0.04061 0.99855 0.0
C1047 C 0.58 0.05335 0.96631 0.0
C1048 C 0.57445 0.07276 0.96097 0.0
C1049 C 0.56465 0.0789 0.99021 0.0
C1050 C 0.55999 0.06572 1.02254 0.0
H1051 H 0.523 0.96933 1.03767 0.0
H1052 H 0.53074 0.99684 1.01253 0.0
H1053 H 0.55325 0.98671 1.01902 0.0
H1054 H 0.58136 0.02664 1.00077 0.0
H1055 H 0.58797 0.04797 0.94532 0.0
H1056 H 0.59045 0.57098 0.5697 0.0
H1057 H 0.57566 0.58013 0.5152 0.0
H1058 H 0.5508 0.50532 0.47994 0.0
H1059 H 0.5642 0.49586 0.53481 0.0
H1060 H 0.58417 0.58471 0.4503 0.0
H1061 H 0.48992 0.50308 0.45287 0.0
H1062 H 0.51029 0.5108 0.4898 0.0
H1063 H 0.51299 0.49385 0.45335 0.0
C1064 C 0.58168 0.55633 0.55051 0.0
C1065 C 0.57852 0.53244 0.55775 0.0
C1066 C 0.5731 0.56163 0.51882 0.0
C1067 C 0.56099 0.5434 0.49249 0.0
C1068 C 0.55873 0.51982 0.49939 0.0
H1069 H 0.54298 0.58131 0.27283 0.0
H1070 H 0.55722 0.57295 0.32779 0.0
C1071 C 0.56689 0.51441 0.53119 0.0
C1072 C 0.55125 0.5491 0.45823 0.0
H1073 H 0.50148 0.52582 0.40084 0.0
C1074 C 0.56599 0.57167 0.4399 0.0
C1075 C 0.52737 0.53278 0.44334 0.0
C1076 C 0.50916 0.50889 0.46109 0.0
C1077 C 0.55806 0.57788 0.40824 0.0
C1078 C 0.53449 0.56119 0.39297 0.0
C1079 C 0.51958 0.53888 0.4115 0.0
C1080 C 0.52516 0.5664 0.35813 0.0
C1081 C 0.57509 0.60284 0.39183 0.0
C1082 C 0.50167 0.56505 0.3548 0.0
C1083 C 0.49325 0.56995 0.32261 0.0
C1084 C 0.50773 0.57604 0.2919 0.0
C1085 C 0.53099 0.57694 0.29528 0.0
C1086 C 0.53943 0.57228 0.32734 0.0
H1087 H 0.58822 0.61634 0.41115 0.0
H1088 H 0.58629 0.60045 0.37131 0.0
H1089 H 0.56436 0.61088 0.37977 0.0
H1090 H 0.48976 0.56044 0.37738 0.0
H1091 H 0.47525 0.56882 0.32183 0.0
H1092 H 0.07786 0.5742 0.86718 0.0
H1093 H 0.0534 0.5639 0.81345 0.0
H1094 H 0.01491 0.60063 0.85247 0.0
H1095 H 0.03945 0.611 0.90651 0.0
H1096 H 0.04756 0.58936 0.7603 0.0
H1097 H 0.95537 0.53588 0.82277 0.0
H1098 H 0.97326 0.56726 0.8385 0.0
H1099 H 0.98396 0.54545 0.84621 0.0
C1100 C 0.06428 0.58028 0.8646 0.0
C1101 C 0.06107 0.59364 0.89216 0.0
C1102 C 0.05008 0.57427 0.83333 0.0
C1103 C 0.03148 0.58086 0.82793 0.0
C1104 C 0.02845 0.59454 0.85526 0.0
H1105 H 0.92511 0.49812 0.65583 0.0
H1106 H 0.94975 0.51228 0.70931 0.0
C1107 C 0.04287 0.60079 0.88649 0.0
C1108 C 0.01569 0.57351 0.79405 0.0
H1109 H 0.95539 0.54308 0.76233 0.0
C1110 C 0.0274 0.57934 0.76108 0.0
C1111 C 0.98911 0.55994 0.79365 0.0
C1112 C 0.9746 0.55151 0.82709 0.0
C1113 C 0.01383 0.57259 0.72896 0.0
C1114 C 0.98725 0.55949 0.72857 0.0
C1115 C 0.97555 0.55332 0.76154 0.0
C1116 C 0.97141 0.55111 0.69472 0.0
C1117 C 0.02835 0.579 0.69551 0.0
C1118 C 0.97423 0.5678 0.66738 0.0
C1119 C 0.95968 0.55962 0.63624 0.0
C1120 C 0.94158 0.53428 0.63071 0.0
C1121 C 0.9386 0.51776 0.65829 0.0
C1122 C 0.95291 0.52596 0.68942 0.0
H1123 H 0.04765 0.58273 0.69974 0.0
H1124 H 0.01911 0.56371 0.67625 0.0
H1125 H 0.02948 0.59608 0.68431 0.0
H1126 H 0.98769 0.58741 0.67009 0.0
H1127 H 0.96294 0.57321 0.6162 0.0
H1128 H 0.48188 1.00012 0.3574 0.0
H1129 H 0.46867 0.97849 0.41232 0.0
H1130 H 0.44736 0.03155 0.44748 0.0
H1131 H 0.45794 0.0512 0.39046 0.0
H1132 H 0.49108 0.04435 0.47521 0.0
H1133 H 0.44434 0.94653 0.50431 0.0
H1134 H 0.44248 0.94715 0.45791 0.0
H1135 H 0.42812 0.96088 0.48389 0.0
C1136 C 0.47301 0.00622 0.37613 0.0
C1137 C 0.47299 0.02855 0.37113 0.0
C1138 C 0.4651 0.99371 0.4078 0.0
C1139 C 0.45869 0.0045 0.43542 0.0
C1140 C 0.45319 0.02338 0.42728 0.0
H1141 H 0.54226 0.95761 0.42111 0.0
H1142 H 0.53792 0.97778 0.47253 0.0
C1143 C 0.46008 0.03518 0.3949 0.0
C1144 C 0.46892 0.00432 0.47044 0.0
H1145 H 0.49064 0.96449 0.48161 0.0
C1146 C 0.49085 0.02681 0.47802 0.0
C1147 C 0.46841 0.98224 0.48101 0.0
C1148 C 0.44434 0.95789 0.48191 0.0
C1149 C 0.51367 0.02714 0.47731 0.0
C1150 C 0.51323 0.00428 0.47272 0.0
C1151 C 0.49111 0.98226 0.48158 0.0
C1152 C 0.52787 1.00167 0.44418 0.0
C1153 C 0.53749 0.05169 0.47464 0.0
C1154 C 0.52587 0.00985 0.41067 0.0
C1155 C 0.52676 0.99718 0.38109 0.0
C1156 C 0.53083 0.97698 0.38467 0.0
C1157 C 0.53787 0.97234 0.41754 0.0
C1158 C 0.53592 0.98423 0.44717 0.0
H1159 H 0.53811 0.06444 0.49541 0.0
H1160 H 0.55408 0.04933 0.47688 0.0
H1161 H 0.53805 0.06063 0.44935 0.0
H1162 H 0.52026 0.02374 0.40742 0.0
H1163 H 0.52224 1.00179 0.35597 0.0
H1164 H 0.48334 0.48435 0.68932 0.0
H1165 H 0.50027 0.47807 0.74294 0.0
H1166 H 0.43093 0.45684 0.79524 0.0
H1167 H 0.41338 0.46032 0.74052 0.0
H1168 H 0.4647 0.50315 0.8139 0.0
H1169 H 0.51415 0.45302 0.83248 0.0
H1170 H 0.51228 0.45402 0.78614 0.0
H1171 H 0.48394 0.43828 0.81144 0.0
C1172 C 0.47132 0.47694 0.71176 0.0
C1173 C 0.44766 0.47447 0.71141 0.0
C1174 C 0.48086 0.47311 0.74263 0.0
C1175 C 0.46727 0.46819 0.77387 0.0
C1176 C 0.44205 0.4612 0.77184 0.0
H1177 H 0.52212 0.52237 0.69167 0.0
H1178 H 0.50714 0.52892 0.74657 0.0
C1179 C 0.43221 0.46394 0.74052 0.0
C1180 C 0.48148 0.48005 0.80611 0.0
H1181 H 0.54296 0.50036 0.81361 0.0
C1182 C 0.48172 0.50223 0.81532 0.0
C1183 C 0.50315 0.47875 0.81322 0.0
C1184 C 0.50315 0.45449 0.81072 0.0
C1185 C 0.50453 0.52468 0.81609 0.0
C1186 C 0.52629 0.52378 0.80812 0.0
C1187 C 0.5259 0.5012 0.81518 0.0
C1188 C 0.54023 0.53652 0.77601 0.0
C1189 C 0.50464 0.54904 0.81671 0.0
C1190 C 0.5651 0.54242 0.77265 0.0
C1191 C 0.57377 0.53927 0.74061 0.0
C1192 C 0.55755 0.52972 0.71204 0.0
C1193 C 0.53466 0.52894 0.71369 0.0
C1194 C 0.52625 0.53298 0.74536 0.0
H1195 H 0.49263 0.54896 0.83819 0.0
H1196 H 0.52379 0.56504 0.82002 0.0
H1197 H 0.49671 0.55141 0.79205 0.0
H1198 H 0.57657 0.5458 0.79553 0.0
H1199 H 0.59208 0.5415 0.73965 0.0
H1200 H 0.94925 0.42604 1.09235 0.0
H1201 H 0.96238 0.45581 0.13983 0.0
H1202 H 0.00623 0.51503 1.06819 0.0
H1203 H 0.98889 0.4861 1.01926 0.0
H1204 H 0.01822 0.5263 0.14629 0.0
H1205 H 0.91848 0.48918 0.11858 0.0
H1206 H 0.93116 0.46998 0.13316 0.0
H1207 H 0.93316 0.4785 1.08807 0.0
C1208 C 0.96169 0.44546 1.08647 0.0
C1209 C 0.96617 0.45419 1.05178 0.0
C1210 C 0.96965 0.46236 0.114 0.0
C1211 C 0.98362 0.48783 0.10694 0.0
C1212 C 0.99373 0.49554 1.07347 0.0
H1213 H 0.00432 0.53473 1.00547 0.0
H1214 H 0.97248 0.52669 1.04846 0.0
C1215 C 0.98413 0.47901 1.04555 0.0
C1216 C 0.9804 0.50601 0.12796 0.0
H1217 H 0.94654 0.53243 0.1015 0.0
C1218 C 1.00205 0.52752 0.13836 0.0
C1219 C 0.9588 0.50786 0.12155 0.0
C1220 C 0.9339 0.4851 0.11511 0.0
C1221 C 0.00444 0.55093 0.13182 0.0
C1222 C 0.98595 0.55186 0.11098 0.0
C1223 C 0.9618 0.5314 0.1137 0.0
C1224 C 0.99391 0.56225 1.07524 0.0
C1225 C 0.02869 0.57384 0.14054 0.0
C1226 C 0.01391 0.58647 1.07114 0.0
C1227 C 0.03227 0.59082 1.04678 0.0
C1228 C 0.02998 0.57137 1.02524 0.0
C1229 C 0.00695 0.54959 1.0229 0.0
C1230 C 0.98864 0.54519 1.04761 0.0
H1231 H 0.03691 0.57084 0.16448 0.0
H1232 H 0.04208 0.57787 0.11902 0.0
H1233 H 0.02604 0.59013 0.14455 0.0
H1234 H 0.01753 0.60072 1.09023 0.0
H1235 H 0.04952 0.60843 1.04787 0.0
H1236 H 0.04909 0.47016 0.43521 0.0
H1237 H 0.03319 0.48268 0.38588 0.0
H1238 H 0.99106 0.50164 0.45588 0.0
H1239 H 0.0106 0.49367 0.50572 0.0
H1240 H 0.97563 0.49636 0.3806 0.0
H1241 H 0.07701 0.56026 0.39671 0.0
H1242 H 0.06404 0.52862 0.3813 0.0
H1243 H 0.0635 0.53472 0.4269 0.0
C1244 C 0.03629 0.47689 0.44022 0.0
C1245 C 0.03285 0.48324 0.47423 0.0
C1246 C 0.0268 0.48351 0.41177 0.0
C1247 C 0.01257 0.49497 0.41749 0.0
C1248 C 1.0036 0.49455 0.45125 0.0
H1249 H 0.99671 0.5281 0.51551 0.0
H1250 H 0.02639 0.54752 0.46852 0.0
C1251 C 0.01452 0.48974 0.4798 0.0
C1252 C 0.01453 0.51476 0.39387 0.0
H1253 H 0.05023 0.57665 0.41028 0.0
C1254 C 0.99231 0.51415 0.38514 0.0
C1255 C 0.03654 0.5384 0.39596 0.0
C1256 C 0.06177 0.54075 0.40035 0.0
C1257 C 0.99036 0.5356 0.38973 0.0
C1258 C 0.01039 0.55648 0.40632 0.0
C1259 C 0.03417 0.55959 0.40135 0.0
C1260 C 0.00522 0.56212 0.44197 0.0
C1261 C 0.96539 0.53365 0.38415 0.0
C1262 C 0.98669 0.56845 0.44686 0.0
C1263 C 0.96981 0.55737 0.47401 0.0
C1264 C 0.97194 0.54064 0.49678 0.0
C1265 C 0.99414 0.54001 0.4974 0.0
C1266 C 0.01116 0.55133 0.47027 0.0
H1267 H 0.95522 0.52061 0.36251 0.0
H1268 H 0.95392 0.52612 0.40795 0.0
H1269 H 0.96751 0.55214 0.37798 0.0
H1270 H 0.98268 0.57825 0.42681 0.0
H1271 H 0.95326 0.55914 0.4741 0.0
H1272 H 0.46479 0.95733 0.82246 0.0
H1273 H 0.47596 0.98145 0.76928 0.0
H1274 H 0.50008 0.93297 0.72404 0.0
H1275 H 0.49043 0.90986 0.7785 0.0
H1276 H 0.45999 0.97115 0.70107 0.0
H1277 H 0.55817 0.99523 0.69454 0.0
H1278 H 0.53263 0.96366 0.69117 0.0
H1279 H 0.54304 0.97801 0.7332 0.0
C1280 C 0.473 0.9522 0.80146 0.0
C1281 C 0.47689 0.93191 0.80471 0.0
C1282 C 0.47891 0.96561 0.77056 0.0
C1283 C 0.48847 0.95881 0.74186 0.0
C1284 C 0.49288 0.93879 0.74545 0.0
H1285 H 0.52114 0.09178 0.77768 0.0
H1286 H 0.51196 0.06816 0.72375 0.0
C1287 C 0.4875 0.9257 0.77681 0.0
C1288 C 0.49592 0.97474 0.71026 0.0
H1289 H 0.55051 0.02904 0.70806 0.0
C1290 C 0.47994 0.98384 0.70099 0.0
C1291 C 0.52166 0.99071 0.70455 0.0
C1292 C 0.53993 0.98139 0.70579 0.0
C1293 C 0.48881 0.00955 0.70381 0.0
C1294 C 0.51409 0.02509 0.71283 0.0
C1295 C 0.53067 0.01648 0.70505 0.0
C1296 C 0.51996 0.04042 0.74473 0.0
C1297 C 0.47046 0.01879 0.70463 0.0
C1298 C 0.52704 0.03249 0.77494 0.0
C1299 C 0.53275 0.04617 0.80559 0.0
C1300 C 0.53114 0.06787 0.80688 0.0
C1301 C 0.5225 0.07499 0.77746 0.0
C1302 C 0.51732 0.06158 0.74645 0.0
H1303 H 0.46593 0.02054 0.73202 0.0
H1304 H 0.47851 0.03735 0.69204 0.0
H1305 H 0.4529 0.00574 0.69105 0.0
H1306 H 0.52847 0.01573 0.77481 0.0
H1307 H 0.53913 0.04018 0.82789 0.0
H1308 H 0.5034 0.5407 0.1559 0.0
H1309 H 0.51285 0.52546 0.10303 0.0
H1310 H 0.4419 0.50904 1.05936 0.0
H1311 H 0.43146 0.52165 0.1135 0.0
H1312 H 0.51962 0.5405 1.03527 0.0
H1313 H 0.43609 0.4477 1.02648 0.0
H1314 H 0.43488 0.4761 1.02566 0.0
H1315 H 0.43718 0.46313 1.06666 0.0
C1316 C 0.48962 0.53316 0.13536 0.0
C1317 C 0.46673 0.5322 0.13895 0.0
C1318 C 0.49514 0.52494 0.1047 0.0
C1319 C 0.47821 0.51632 1.07656 0.0
C1320 C 0.45516 0.51505 1.08048 0.0
H1321 H 0.57082 0.48194 0.11179 0.0
H1322 H 0.55664 0.48751 1.05564 0.0
C1323 C 0.44925 0.52236 0.11165 0.0
C1324 C 0.4846 0.50695 1.04495 0.0
H1325 H 0.47512 0.44854 1.03372 0.0
C1326 C 0.50956 0.52029 1.03417 0.0
C1327 C 0.47118 0.48113 1.03726 0.0
C1328 C 0.44324 0.46614 1.03909 0.0
C1329 C 0.52281 0.50753 1.03028 0.0
C1330 C 0.51054 0.48201 1.0394 0.0
C1331 C 0.48482 0.46873 1.03287 0.0
C1332 C 0.51881 0.47517 1.07212 0.0
C1333 C 0.55007 0.52182 1.02177 0.0
C1334 C 0.5024 0.46573 0.10089 0.0
C1335 C 0.51025 0.46134 0.13278 0.0
C1336 C 0.53489 0.46705 0.1372 0.0
C1337 C 0.55165 0.47759 0.10929 0.0
C1338 C 0.54352 0.48085 1.07688 0.0
H1339 H 0.56108 0.52832 1.0461 0.0
H1340 H 0.55569 0.50986 1.00739 0.0
H1341 H 0.55448 0.53842 1.00565 0.0
H1342 H 0.48334 0.4618 0.09913 0.0
H1343 H 0.49693 0.45313 0.15376 0.0
H1344 H 0.37704 0.96774 0.67472 0.0
H1345 H 0.36816 0.98952 0.6288 0.0
H1346 H 0.38415 0.04985 0.69926 0.0
H1347 H 0.39373 0.02846 0.74529 0.0
H1348 H 0.33154 0.00754 0.63097 0.0
H1349 H 0.4305 0.08197 0.61288 0.0
H1350 H 0.42244 0.05305 0.63464 0.0
H1351 H 0.41751 0.07599 0.65597 0.0
C1352 C 0.37904 0.98581 0.68033 0.0
C1353 C 0.38628 0.9965 0.71349 0.0
C1354 C 0.37362 0.99803 0.65425 0.0
C1355 C 0.37543 0.02117 0.66084 0.0
C1356 C 0.38267 0.03198 0.69382 0.0
H1357 H 0.38893 0.10615 0.47639 0.0
H1358 H 0.37766 0.09687 0.53776 0.0
C1359 C 0.38809 0.01974 0.71999 0.0
C1360 C 0.37079 0.03422 0.6323 0.0
H1361 H 0.40177 0.07893 0.57131 0.0
C1362 C 0.34673 0.02352 0.61823 0.0
C1363 C 0.39059 0.05526 0.61626 0.0
C1364 C 0.41678 0.06731 0.63046 0.0
C1365 C 0.3423 0.03232 0.58696 0.0
C1366 C 0.36258 0.05189 0.56917 0.0
C1367 C 0.38618 0.06393 0.58494 0.0
C1368 C 0.3613 0.05694 0.53186 0.0
C1369 C 0.31618 0.01991 0.57265 0.0
C1370 C 0.35456 0.03749 0.50792 0.0
C1371 C 0.36084 0.04274 0.47298 0.0
C1372 C 0.37429 0.06756 0.46154 0.0
C1373 C 0.37877 0.08687 0.48475 0.0
C1374 C 0.37225 0.08158 0.51971 0.0
H1375 H 0.30238 0.01415 0.59406 0.0
H1376 H 0.31339 0.03237 0.55466 0.0
H1377 H 0.31241 0.00278 0.55841 0.0
H1378 H 0.34671 0.01839 0.51666 0.0
H1379 H 0.35738 0.0275 0.45576 0.0
H1380 H 0.41188 0.39984 1.02186 0.0
H1381 H 0.38311 0.40254 0.9813 0.0
H1382 H 0.33072 0.38711 1.06431 0.0
H1383 H 0.36 0.38539 0.10572 0.0
H1384 H 0.31181 0.35511 1.00349 0.0
H1385 H 0.36006 0.45516 0.96953 0.0
H1386 H 0.38087 0.44284 0.96875 0.0
H1387 H 0.36656 0.4436 1.00907 0.0
C1388 C 0.39459 0.39776 1.0318 0.0
C1389 C 0.38833 0.39257 1.06707 0.0
C1390 C 0.37814 0.39924 1.00855 0.0
C1391 C 0.35499 0.39536 1.01999 0.0
C1392 C 0.34863 0.39037 1.05516 0.0
H1393 H 0.28951 0.41058 0.82914 0.0
H1394 H 0.28894 0.40845 0.89266 0.0
C1395 C 0.36528 0.38921 1.07863 0.0
C1396 C 0.3369 0.39418 0.99405 0.0
H1397 H 0.3344 0.42637 0.92389 0.0
C1398 C 0.31616 0.37085 0.98666 0.0
C1399 C 0.34233 0.41482 0.97263 0.0
C1400 C 0.36354 0.44058 0.98063 0.0
C1401 C 0.30248 0.36701 0.95597 0.0
C1402 C 0.30997 0.38697 0.9323 0.0
C1403 C 0.32877 0.41095 0.94189 0.0
C1404 C 0.30293 0.38267 0.8952 0.0
C1405 C 0.28126 0.34128 0.94803 0.0
C1406 C 0.31002 0.3681 0.87565 0.0
C1407 C 0.31086 0.36964 0.83952 0.0
C1408 C 0.30462 0.38582 0.82221 0.0
C1409 C 0.29499 0.39837 0.84173 0.0
C1410 C 0.29441 0.39701 0.878 0.0
H1411 H 0.27177 0.33139 0.9723 0.0
H1412 H 0.26741 0.342 0.93043 0.0
H1413 H 0.28868 0.33025 0.93526 0.0
H1414 H 0.31722 0.35734 0.88834 0.0
H1415 H 0.31865 0.35992 0.82559 0.0
H1416 H 0.98901 0.30944 0.113 0.0
H1417 H 0.00496 0.29949 0.1652 0.0
H1418 H 0.94512 0.29743 0.22511 0.0
H1419 H 0.92854 0.30617 0.17301 0.0
H1420 H 0.0223 0.33145 0.21593 0.0
H1421 H 0.95075 0.24315 0.27257 0.0
H1422 H 0.94959 0.25111 0.22765 0.0
H1423 H 0.93667 0.26145 0.26149 0.0
C1424 C 0.97874 0.30591 0.13706 0.0
C1425 C 0.95772 0.30894 0.13906 0.0
C1426 C 0.98789 0.30024 0.16686 0.0
C1427 C 0.97612 0.29742 0.19905 0.0
C1428 C 0.95422 0.29886 0.20052 0.0
H1429 H 0.99708 0.34825 0.39358 0.0
H1430 H 0.98314 0.32401 0.34002 0.0
C1431 C 0.94501 0.30437 0.17079 0.0
C1432 C 0.989 0.29817 0.23186 0.0
H1433 H 0.97645 0.27644 0.31511 0.0
C1434 C 0.01271 0.31888 0.23734 0.0
C1435 C 0.97659 0.28167 0.25972 0.0
C1436 C 0.9521 0.25797 0.25483 0.0
C1437 C 0.023 0.3252 0.27072 0.0
C1438 C 0.00929 0.31016 0.29919 0.0
C1439 C 0.98678 0.28805 0.29323 0.0
C1440 C 0.01564 0.31975 0.33503 0.0
C1441 C 0.04728 0.34923 0.27567 0.0
C1442 C 0.03807 0.32452 0.35059 0.0
C1443 C 0.04622 0.33866 0.38105 0.0
C1444 C 0.03198 0.34812 0.39626 0.0
C1445 C 0.00864 0.34161 0.38202 0.0
C1446 C 1.00054 0.32754 0.35167 0.0
H1447 H 0.05432 0.35989 0.25107 0.0
H1448 H 0.04498 0.36127 0.29498 0.0
H1449 H 0.06159 0.34504 0.28575 0.0
H1450 H 0.04985 0.31847 0.3382 0.0
H1451 H 0.0643 0.3434 0.39148 0.0
H1452 H 0.69186 0.08749 0.69822 0.0
H1453 H 0.70874 0.08028 0.64462 0.0
H1454 H 0.65926 1.0011 0.65537 0.0
H1455 H 0.64238 0.00808 0.7086 0.0
H1456 H 0.70817 0.01465 0.62999 0.0
H1457 H 0.66344 0.06064 0.55832 0.0
H1458 H 0.68579 0.07838 0.59142 0.0
H1459 H 0.6566 0.05182 0.60335 0.0
C1460 C 0.6848 0.06855 0.68928 0.0
C1461 C 0.66563 0.04837 0.70741 0.0
C1462 C 0.69453 0.06447 0.65882 0.0
C1463 C 0.68505 0.04019 0.64595 0.0
C1464 C 0.66693 0.01997 0.66503 0.0
H1465 H 0.64442 0.94299 0.48675 0.0
H1466 H 0.6653 0.96615 0.53895 0.0
C1467 C 0.65729 0.024 0.69546 0.0
C1468 C 0.69139 0.03561 0.61077 0.0
H1469 H 0.67686 0.03792 0.52601 0.0
C1470 C 0.70191 0.0202 0.60707 0.0
C1471 C 0.6834 0.04309 0.58095 0.0
C1472 C 0.67155 0.05928 0.58344 0.0
C1473 C 0.70308 0.01068 0.57448 0.0
C1474 C 0.69304 0.01638 0.54516 0.0
C1475 C 0.68457 0.03354 0.54849 0.0
C1476 C 0.68665 1.00164 0.51267 0.0
C1477 C 0.71412 0.99382 0.57206 0.0
C1478 C 0.69213 0.01366 0.48024 0.0
C1479 C 0.6797 1.00049 0.45039 0.0
C1480 C 0.66157 0.97511 0.45258 0.0
C1481 C 0.658 0.96263 0.48441 0.0
C1482 C 0.67029 0.97581 0.51423 0.0
H1483 H 0.7296 0.99956 0.59096 0.0
H1484 H 0.69964 0.97449 0.57872 0.0
H1485 H 0.72118 0.99387 0.54554 0.0
H1486 H 0.70457 0.0336 0.47848 0.0
H1487 H 0.6828 0.01066 0.42626 0.0
H1488 H 0.58916 0.57837 1.0267 0.0
H1489 H 0.61646 0.57308 0.98665 0.0
H1490 H 0.66901 0.58778 1.06943 0.0
H1491 H 0.64107 0.59215 0.11036 0.0
H1492 H 0.68817 0.62 1.01139 0.0
H1493 H 0.63811 0.52173 0.96695 0.0
H1494 H 0.61816 0.53455 0.97484 0.0
H1495 H 0.63498 0.53109 1.01037 0.0
C1496 C 0.60595 0.57936 1.03682 0.0
C1497 C 0.61283 0.58547 1.07174 0.0
C1498 C 0.6216 0.57637 1.01386 0.0
C1499 C 0.64455 0.57961 1.02524 0.0
C1500 C 0.65121 0.58489 1.06032 0.0
H1501 H 0.71151 0.57596 0.82847 0.0
H1502 H 0.71043 0.5729 0.89197 0.0
C1503 C 0.63534 0.58758 1.08351 0.0
C1504 C 0.66274 0.58148 0.99899 0.0
H1505 H 0.66439 0.5526 0.92468 0.0
C1506 C 0.6836 0.60502 0.99303 0.0
C1507 C 0.65707 0.56184 0.97553 0.0
C1508 C 0.63602 0.53577 0.98232 0.0
C1509 C 0.69696 0.61023 0.96188 0.0
C1510 C 0.68903 0.59149 0.93623 0.0
C1511 C 0.67026 0.5671 0.94419 0.0
C1512 C 0.69567 0.59774 0.89929 0.0
C1513 C 0.71821 0.63625 0.95558 0.0
C1514 C 0.68839 0.61326 0.88255 0.0
C1515 C 0.68846 0.61465 0.84643 0.0
C1516 C 0.69584 0.60052 0.82623 0.0
C1517 C 0.70522 0.58669 0.84321 0.0
C1518 C 0.70483 0.58506 0.87948 0.0
H1519 H 0.72788 0.64503 0.9803 0.0
H1520 H 0.73192 0.63626 0.937 0.0
H1521 H 0.7108 0.64788 0.94464 0.0
H1522 H 0.68069 0.62275 0.89728 0.0
H1523 H 0.68072 0.62517 0.83452 0.0
H1524 H 0.01125 0.64367 0.13532 0.0
H1525 H 0.99431 0.64839 0.18988 0.0
H1526 H 0.04088 0.72828 0.18338 0.0
H1527 H 0.05789 0.72372 0.12816 0.0
H1528 H 0.04638 0.70969 0.24452 0.0
H1529 H 0.94632 0.67145 0.2191 0.0
H1530 H 0.95622 0.65057 0.20313 0.0
H1531 H 0.969 0.6813 0.18453 0.0
C1532 C 0.01732 0.66231 0.14479 0.0
C1533 C 0.03591 0.68332 0.12737 0.0
C1534 C 0.00756 0.66499 0.17603 0.0
C1535 C 0.01603 0.68872 0.1904 0.0
C1536 C 0.03396 0.70983 0.17254 0.0
H1537 H 0.94605 0.66767 0.39494 0.0
H1538 H 0.96341 0.68962 0.34002 0.0
C1539 C 0.04375 0.70717 0.14116 0.0
C1540 C 0.00845 0.69076 0.2261 0.0
H1541 H 0.95735 0.66602 0.27838 0.0
C1542 C 0.02692 0.7008 0.25189 0.0
C1543 C 0.98314 0.67969 0.23571 0.0
C1544 C 0.96259 0.67041 0.20903 0.0
C1545 C 0.02062 0.69774 0.28722 0.0
C1546 C 0.99526 0.68395 0.29679 0.0
C1547 C 0.97683 0.67623 0.27103 0.0
C1548 C 0.98753 0.67405 0.33236 0.0
C1549 C 0.04118 0.70827 0.31391 0.0
C1550 C 0.99548 0.65819 0.34627 0.0
C1551 C 0.98552 0.64554 0.37733 0.0
C1552 C 0.96724 0.64835 0.39503 0.0
C1553 C 0.95994 0.66495 0.38171 0.0
C1554 C 0.96993 0.67762 0.35051 0.0
H1555 H 0.05768 0.72542 0.30404 0.0
H1556 H 0.03496 0.71273 0.33858 0.0
H1557 H 0.04711 0.69438 0.31944 0.0
H1558 H 0.00847 0.65456 0.33219 0.0
H1559 H 0.99118 0.63252 0.38642 0.0
H1560 H 0.55851 0.12904 0.43244 0.0
H1561 H 0.56848 0.13205 0.49431 0.0
H1562 H 0.4907 0.08521 0.51782 0.0
H1563 H 0.48062 0.08329 0.45573 0.0
H1564 H 0.56931 0.10621 0.54189 0.0
H1565 H 0.50093 0.13008 0.59386 0.0
H1566 H 0.48587 0.10095 0.5712 0.0
H1567 H 0.50576 0.12938 0.54785 0.0
C1568 C 0.54329 0.11966 0.45062 0.0
C1569 C 0.51853 0.10624 0.43796 0.0
C1570 C 0.54912 0.12127 0.4867 0.0
C1571 C 0.53062 0.1094 0.51261 0.0
C1572 C 0.50579 0.09565 0.49988 0.0
H1573 H 0.56767 0.14853 0.74005 0.0
H1574 H 0.55596 0.14664 0.67837 0.0
C1575 C 0.49989 0.09434 0.46366 0.0
C1576 C 0.53771 0.1109 0.55192 0.0
H1577 H 0.52197 0.11881 0.63551 0.0
C1578 C 0.55879 0.1091 0.56201 0.0
C1579 C 0.52485 0.11504 0.57974 0.0
C1580 C 0.50327 0.11924 0.57267 0.0
C1581 C 0.567 0.11109 0.59732 0.0
C1582 C 0.55352 0.11413 0.62528 0.0
C1583 C 0.53258 0.11619 0.61524 0.0
C1584 C 0.56091 0.11544 0.66439 0.0
C1585 C 0.59093 0.1109 0.60374 0.0
C1586 C 0.56752 0.09854 0.67925 0.0
C1587 C 0.57484 0.10002 0.71466 0.0
C1588 C 0.57539 0.11805 0.73797 0.0
C1589 C 0.56805 0.13453 0.7236 0.0
C1590 C 0.56107 0.1333 0.68781 0.0
H1591 H 0.60321 0.11744 0.58053 0.0
H1592 H 0.6014 0.12295 0.62604 0.0
H1593 H 0.58662 0.09154 0.60923 0.0
H1594 H 0.56669 0.08365 0.66359 0.0
H1595 H 0.57954 0.08635 0.724 0.0
H1596 H 0.42389 0.55124 0.76916 0.0
H1597 H 0.43274 0.56266 0.83052 0.0
H1598 H 0.40512 0.48561 0.85695 0.0
H1599 H 0.39521 0.47406 0.7956 0.0
H1600 H 0.46176 0.56442 0.87664 0.0
H1601 H 0.3711 0.49704 0.93347 0.0
H1602 H 0.38474 0.48159 0.91063 0.0
H1603 H 0.37554 0.50101 0.88717 0.0
C1604 C 0.41921 0.53651 0.78793 0.0
C1605 C 0.40824 0.51148 0.77642 0.0
C1606 C 0.42452 0.54317 0.82362 0.0
C1607 C 0.41933 0.52527 0.85008 0.0
C1608 C 0.4087 0.50021 0.83847 0.0
H1609 H 0.42327 0.56902 1.07502 0.0
H1610 H 0.41196 0.55572 1.01414 0.0
C1611 C 0.4031 0.49348 0.80271 0.0
C1612 C 0.42585 0.53315 0.88885 0.0
H1613 H 0.40423 0.51909 0.97349 0.0
C1614 C 0.4489 0.55436 0.89752 0.0
C1615 C 0.40956 0.5208 0.91748 0.0
C1616 C 0.38377 0.49902 0.91177 0.0
C1617 C 0.45597 0.56318 0.93237 0.0
C1618 C 0.44011 0.55033 0.96111 0.0
C1619 C 0.41693 0.52925 0.9525 0.0
C1620 C 0.44706 0.55854 0.99966 0.0
C1621 C 0.48033 0.58702 0.93753 0.0
C1622 C 0.4705 0.56449 1.0138 0.0
C1623 C 0.47718 0.57261 1.04874 0.0
C1624 C 0.46066 0.57474 1.07211 0.0
C1625 C 0.43691 0.56814 1.05843 0.0
C1626 C 0.43031 0.56026 1.02315 0.0
H1627 H 0.48585 0.59882 0.91379 0.0
H1628 H 0.4793 0.59811 0.95947 0.0
H1629 H 0.49518 0.58244 0.94305 0.0
H1630 H 0.48383 0.56254 0.99793 0.0
H1631 H 0.49544 0.57674 1.05765 0.0
H1632 H 0.91396 0.39313 0.14295 0.0
H1633 H 0.91433 0.40755 0.20285 0.0
H1634 H 0.87655 0.44609 0.16807 0.0
H1635 H 0.87578 0.43149 0.10854 0.0
H1636 H 0.86906 0.40232 0.24821 0.0
H1637 H 0.94172 0.50059 0.22441 0.0
H1638 H 0.91755 0.48527 0.19236 0.0
H1639 H 0.93988 0.47522 0.19888 0.0
C1640 C 0.90542 0.40442 0.14787 0.0
C1641 C 0.8947 0.41075 0.11982 0.0
C1642 C 0.90574 0.41289 0.18259 0.0
C1643 C 0.89569 0.42841 0.1911 0.0
C1644 C 0.8847 0.43443 0.16322 0.0
H1645 H 0.89833 0.51393 0.38341 0.0
H1646 H 0.89728 0.49904 0.32364 0.0
C1647 C 0.88415 0.4258 0.12866 0.0
C1648 C 0.89642 0.43808 0.2286 0.0
H1649 H 0.92354 0.49102 0.27999 0.0
C1650 C 0.88114 0.42173 0.25498 0.0
C1651 C 0.91166 0.46351 0.23853 0.0
C1652 C 0.9288 0.48233 0.21232 0.0
C1653 C 0.88035 0.42983 0.28965 0.0
C1654 C 0.89612 0.45524 0.30008 0.0
C1655 C 0.91136 0.4716 0.27343 0.0
C1656 C 0.89705 0.46499 0.33787 0.0
C1657 C 0.86148 0.41086 0.31423 0.0
C1658 C 0.89789 0.45184 0.36759 0.0
C1659 C 0.89803 0.46023 0.4021 0.0
C1660 C 0.898 0.48269 0.40936 0.0
C1661 C 0.89807 0.49644 0.37979 0.0
C1662 C 0.89757 0.48781 0.34505 0.0
H1663 H 0.84541 0.39588 0.2999 0.0
H1664 H 0.87027 0.40189 0.32914 0.0
H1665 H 0.85428 0.41954 0.33269 0.0
H1666 H 0.89875 0.43492 0.36433 0.0
H1667 H 0.8985 0.449 0.42339 0.0
H1668 H 0.5366 0.92037 0.46526 0.0
H1669 H 0.52428 0.91657 0.52677 0.0
H1670 H 0.44743 0.87107 0.49731 0.0
H1671 H 0.45965 0.87452 0.43624 0.0
H1672 H 0.49745 0.93042 0.56534 0.0
H1673 H 0.44787 0.82776 0.57345 0.0
H1674 H 0.46679 0.84432 0.5365 0.0
H1675 H 0.43534 0.83851 0.53997 0.0
C1676 C 0.51707 0.90919 0.47177 0.0
C1677 C 0.49934 0.89745 0.44492 0.0
C1678 C 0.50991 0.90713 0.50737 0.0
C1679 C 0.48471 0.89301 0.51798 0.0
C1680 C 0.46704 0.88148 0.49105 0.0
H1681 H 0.44708 0.85506 0.74393 0.0
H1682 H 0.46124 0.85801 0.68341 0.0
C1683 C 0.47416 0.8836 0.45556 0.0
C1684 C 0.47687 0.89084 0.55656 0.0
H1685 H 0.44153 0.84889 0.62064 0.0
C1686 C 0.48526 0.91248 0.5772 0.0
C1687 C 0.46121 0.86763 0.57348 0.0
C1688 C 0.45247 0.84322 0.55486 0.0
C1689 C 0.4782 0.91166 0.61276 0.0
C1690 C 0.46169 0.88849 0.62925 0.0
C1691 C 0.45382 0.86683 0.60886 0.0
C1692 C 0.45251 0.88634 0.66716 0.0
C1693 C 0.48927 0.93589 0.63253 0.0
C1694 C 0.44209 0.90067 0.67955 0.0
C1695 C 0.43384 0.8989 0.71439 0.0
C1696 C 0.43531 0.88253 0.73887 0.0
C1697 C 0.4453 0.8678 0.72643 0.0
C1698 C 0.45356 0.86958 0.6914 0.0
H1699 H 0.50727 0.9501 0.62109 0.0
H1700 H 0.47633 0.94341 0.63131 0.0
H1701 H 0.49241 0.93322 0.66019 0.0
H1702 H 0.44009 0.91332 0.66214 0.0
H1703 H 0.42645 0.91076 0.72221 0.0
H1704 H 0.55914 0.45301 0.7713 0.0
H1705 H 0.55145 0.4427 0.83296 0.0
H1706 H 0.61779 0.51146 0.85863 0.0
H1707 H 0.62471 0.52242 0.79667 0.0
H1708 H 0.56836 0.43063 0.88231 0.0
H1709 H 0.57939 0.51936 0.93132 0.0
H1710 H 0.57845 0.51308 0.88549 0.0
H1711 H 0.60699 0.52409 0.90972 0.0
C1712 C 0.57222 0.46615 0.78988 0.0
C1713 C 0.59273 0.48871 0.77789 0.0
C1714 C 0.56773 0.46012 0.82583 0.0
C1715 C 0.58351 0.47619 0.85223 0.0
C1716 C 0.60435 0.49866 0.84018 0.0
H1717 H 0.58842 0.44888 1.08248 0.0
H1718 H 0.59877 0.46259 1.02153 0.0
C1719 C 0.60864 0.5049 0.80407 0.0
C1720 C 0.5783 0.46885 0.89141 0.0
H1721 H 0.5772 0.49055 0.97411 0.0
C1722 C 0.57024 0.44398 0.90197 0.0
C1723 C 0.58032 0.48556 0.91864 0.0
C1724 C 0.58648 0.51191 0.91076 0.0
C1725 C 0.56466 0.43576 0.9373 0.0
C1726 C 0.5672 0.45253 0.96435 0.0
C1727 C 0.57534 0.47739 0.95415 0.0
C1728 C 0.56083 0.44427 1.00276 0.0
C1729 C 0.55619 0.4089 0.94568 0.0
C1730 C 0.53596 0.42924 1.01404 0.0
C1731 C 0.52994 0.42146 1.04929 0.0
C1732 C 0.54846 0.42796 1.07524 0.0
C1733 C 0.5734 0.44292 1.06388 0.0
C1734 C 0.5794 0.45103 1.02863 0.0
H1735 H 0.55819 0.3988 0.92317 0.0
H1736 H 0.56701 0.40772 0.96792 0.0
H1737 H 0.53631 0.39935 0.95346 0.0
H1738 H 0.52095 0.42363 0.99548 0.0
H1739 H 0.51048 0.41037 1.05625 0.0
H1740 H 0.07967 0.48182 0.38435 0.0
H1741 H 0.07899 0.49627 0.3251 0.0
H1742 H 0.13476 0.57068 0.3543 0.0
H1743 H 0.13388 0.55659 0.41385 0.0
H1744 H 0.10155 0.51146 0.27138 0.0
H1745 H 0.09768 0.59547 0.30658 0.0
H1746 H 0.12536 0.59759 0.32434 0.0
H1747 H 0.09515 0.57336 0.3389 0.0
C1748 C 0.09177 0.50134 0.37836 0.0
C1749 C 0.10667 0.51782 0.40506 0.0
C1750 C 0.09144 0.50981 0.34381 0.0
C1751 C 0.10619 0.53522 0.3337 0.0
C1752 C 0.12196 0.55134 0.3602 0.0
H1753 H 0.08511 0.60402 0.13726 0.0
H1754 H 0.08415 0.58869 0.19656 0.0
C1755 C 0.12183 0.54302 0.39485 0.0
C1756 C 0.10545 0.54445 0.29597 0.0
H1757 H 0.10871 0.59349 0.24797 0.0
C1758 C 0.10296 0.52941 0.26678 0.0
C1759 C 0.10653 0.56763 0.28792 0.0
C1760 C 0.10603 0.58429 0.31609 0.0
C1761 C 0.10195 0.53657 0.23157 0.0
C1762 C 0.10492 0.56054 0.22343 0.0
C1763 C 0.10694 0.57539 0.25262 0.0
C1764 C 0.10543 0.57026 0.18562 0.0
C1765 C 0.09644 0.51739 0.20369 0.0
C1766 C 0.118 0.56615 0.15782 0.0
C1767 C 0.11775 0.5743 0.1232 0.0
C1768 C 0.10577 0.58798 0.11422 0.0
C1769 C 0.09428 0.5933 0.14216 0.0
C1770 C 0.09391 0.58451 0.17674 0.0
H1771 H 0.08563 0.49816 0.21424 0.0
H1772 H 0.08565 0.51919 0.18194 0.0
H1773 H 0.11421 0.51966 0.19353 0.0
H1774 H 0.12842 0.5567 0.16266 0.0
H1775 H 0.1273 0.56992 0.10327 0.0
loop_
_geom_bond_atom_site_label_1
_geom_bond_atom_site_label_2
_geom_bond_distance
_geom_bond_site_symmetry_2
_ccdc_geom_bond_type
Pr0 C2 2.880 . S
Pr0 O20 2.562 . S
Pr0 O21 2.490 . S
Pr0 O22 2.695 . S
Pr0 O23 2.512 . S
Pr0 O25 2.437 . S
Pr0 O28 2.436 . S
Pr0 O30 2.438 . S
Pr1 C11 2.880 . S
Pr1 O22 2.436 . S
Pr1 O24 2.438 . S
Pr1 O26 2.562 . S
Pr1 O27 2.490 . S
Pr1 O28 2.695 . S
Pr1 O29 2.512 . S
Pr1 O31 2.437 . S
C2 Pr0 2.880 . S
C2 C3 1.491 . S
C2 O20 1.254 . S
C2 O21 1.225 . S
C3 C2 1.491 . S
C3 C4 1.392 . S
C3 C8 1.356 . S
C4 C3 1.392 . S
C4 C5 1.368 . S
C4 H32 0.929 . S
C5 C4 1.368 . S
C5 C6 1.386 . S
C5 H33 0.929 . S
C6 C5 1.386 . S
C6 C7 1.373 . S
C7 C6 1.373 . S
C7 C8 1.409 . S
C7 H34 0.931 . S
C8 C3 1.356 . S
C8 C7 1.409 . S
C8 H35 0.930 . S
C9 O22 1.270 . S
C9 O23 1.248 . S
C10 O24 1.267 . S
C10 O25 1.278 . S
C11 Pr1 2.880 . S
C11 C12 1.491 . S
C11 O26 1.254 . S
C11 O27 1.225 . S
C12 C11 1.491 . S
C12 C13 1.392 . S
C12 C17 1.356 . S
C13 C12 1.392 . S
C13 C14 1.368 . S
C13 H36 0.929 . S
C14 C13 1.368 . S
C14 C15 1.386 . S
C14 H37 0.929 . S
C15 C14 1.386 . S
C15 C16 1.373 . S
C16 C15 1.373 . S
C16 C17 1.409 . S
C16 H38 0.931 . S
C17 C12 1.356 . S
C17 C16 1.409 . S
C17 H39 0.930 . S
C18 O28 1.270 . S
C18 O29 1.248 . S
C19 O30 1.267 . S
C19 O31 1.278 . S
O20 Pr0 2.562 . S
O20 C2 1.254 . S
O21 Pr0 2.490 . S
O21 C2 1.225 . S
O22 Pr0 2.695 . S
O22 Pr1 2.436 . S
O22 C9 1.270 . S
O23 Pr0 2.512 . S
O23 C9 1.248 . S
O24 Pr1 2.438 . S
O24 C10 1.267 . S
O25 Pr0 2.437 . S
O25 C10 1.278 . S
O26 Pr1 2.562 . S
O26 C11 1.254 . S
O27 Pr1 2.490 . S
O27 C11 1.225 . S
O28 Pr0 2.436 . S
O28 Pr1 2.695 . S
O28 C18 1.270 . S
O29 Pr1 2.512 . S
O29 C18 1.248 . S
O30 Pr0 2.438 . S
O30 C19 1.267 . S
O31 Pr1 2.437 . S
O31 C19 1.278 . S
H32 C4 0.929 . S
H33 C5 0.929 . S
H34 C7 0.931 . S
H35 C8 0.930 . S
H36 C13 0.929 . S
H37 C14 0.929 . S
H38 C16 0.931 . S
H39 C17 0.930 . S
Pr40 C42 2.880 . S
Pr40 O60 2.562 . S
Pr40 O61 2.490 . S
Pr40 O62 2.695 . S
Pr40 O63 2.512 . S
Pr40 O65 2.437 . S
Pr40 O68 2.436 . S
Pr40 O70 2.438 . S
Pr41 C51 2.880 . S
Pr41 O62 2.436 . S
Pr41 O64 2.438 . S
Pr41 O66 2.562 . S
Pr41 O67 2.490 . S
Pr41 O68 2.695 . S
Pr41 O69 2.512 . S
Pr41 O71 2.437 . S
C42 Pr40 2.880 . S
C42 C43 1.491 . S
C42 O60 1.254 . S
C42 O61 1.225 . S
C43 C42 1.491 . S
C43 C44 1.392 . S
C43 C48 1.356 . S
C44 C43 1.392 . S
C44 C45 1.368 . S
C44 H72 0.929 . S
C45 C44 1.368 . S
C45 C46 1.386 . S
C45 H73 0.929 . S
C46 C45 1.386 . S
C46 C47 1.373 . S
C47 C46 1.373 . S
C47 C48 1.409 . S
C47 H74 0.931 . S
C48 C43 1.356 . S
C48 C47 1.409 . S
C48 H75 0.930 . S
C49 O62 1.270 . S
C49 O63 1.248 . S
C50 O64 1.267 . S
C50 O65 1.278 . S
C51 Pr41 2.880 . S
C51 C52 1.491 . S
C51 O66 1.254 . S
C51 O67 1.225 . S
C52 C51 1.491 . S
C52 C53 1.392 . S
C52 C57 1.356 . S
C53 C52 1.392 . S
C53 C54 1.368 . S
C53 H76 0.929 . S
C54 C53 1.368 . S
C54 C55 1.386 . S
C54 H77 0.929 . S
C55 C54 1.386 . S
C55 C56 1.373 . S
C56 C55 1.373 . S
C56 C57 1.409 . S
C56 H78 0.931 . S
C57 C52 1.356 . S
C57 C56 1.409 . S
C57 H79 0.930 . S
C58 O68 1.270 . S
C58 O69 1.248 . S
C59 O70 1.267 . S
C59 O71 1.278 . S
O60 Pr40 2.562 . S
O60 C42 1.254 . S
O61 Pr40 2.490 . S
O61 C42 1.225 . S
O62 Pr40 2.695 . S
O62 Pr41 2.436 . S
O62 C49 1.270 . S
O63 Pr40 2.512 . S
O63 C49 1.248 . S
O64 Pr41 2.438 . S
O64 C50 1.267 . S
O65 Pr40 2.437 . S
O65 C50 1.278 . S
O66 Pr41 2.562 . S
O66 C51 1.254 . S
O67 Pr41 2.490 . S
O67 C51 1.225 . S
O68 Pr40 2.436 . S
O68 Pr41 2.695 . S
O68 C58 1.270 . S
O69 Pr41 2.512 . S
O69 C58 1.248 . S
O70 Pr40 2.438 . S
O70 C59 1.267 . S
O71 Pr41 2.437 . S
O71 C59 1.278 . S
H72 C44 0.929 . S
H73 C45 0.929 . S
H74 C47 0.931 . S
H75 C48 0.930 . S
H76 C53 0.929 . S
H77 C54 0.929 . S
H78 C56 0.931 . S
H79 C57 0.930 . S
Pr80 C82 2.880 . S
Pr80 O100 2.562 . S
Pr80 O101 2.490 . S
Pr80 O102 2.695 . S
Pr80 O103 2.512 . S
Pr80 O105 2.437 . S
Pr80 O108 2.436 . S
Pr80 O110 2.438 . S
Pr81 C91 2.880 . S
Pr81 O102 2.436 . S
Pr81 O104 2.438 . S
Pr81 O106 2.562 . S
Pr81 O107 2.490 . S
Pr81 O108 2.695 . S
Pr81 O109 2.512 . S
Pr81 O111 2.437 . S
C82 Pr80 2.880 . S
C82 C83 1.491 1_556 S
C82 O100 1.254 . S
C82 O101 1.225 . S
C83 C82 1.491 1_554 S
C83 C84 1.392 . S
C83 C88 1.356 . S
C84 C83 1.392 . S
C84 C85 1.368 . S
C84 H112 0.929 . S
C85 C84 1.368 . S
C85 C86 1.386 . S
C85 H113 0.929 . S
C86 C85 1.386 . S
C86 C87 1.373 . S
C87 C86 1.373 . S
C87 C88 1.409 . S
C87 H114 0.931 . S
C88 C83 1.356 . S
C88 C87 1.409 . S
C88 H115 0.930 . S
C89 O102 1.270 . S
C89 O103 1.248 . S
C90 O104 1.267 . S
C90 O105 1.278 . S
C91 Pr81 2.880 . S
C91 C92 1.491 . S
C91 O106 1.254 . S
C91 O107 1.225 . S
C92 C91 1.491 . S
C92 C93 1.392 . S
C92 C97 1.356 . S
C93 C92 1.392 . S
C93 C94 1.368 . S
C93 H116 0.929 . S
C94 C93 1.368 . S
C94 C95 1.386 . S
C94 H117 0.929 . S
C95 C94 1.386 . S
C95 C96 1.373 . S
C96 C95 1.373 . S
C96 C97 1.409 . S
C96 H118 0.931 . S
C97 C92 1.356 . S
C97 C96 1.409 . S
C97 H119 0.930 . S
C98 O108 1.270 . S
C98 O109 1.248 . S
C99 O110 1.267 . S
C99 O111 1.278 . S
O100 Pr80 2.562 . S
O100 C82 1.254 . S
O101 Pr80 2.490 . S
O101 C82 1.225 . S
O102 Pr80 2.695 . S
O102 Pr81 2.436 . S
O102 C89 1.270 . S
O103 Pr80 2.512 . S
O103 C89 1.248 . S
O104 Pr81 2.438 . S
O104 C90 1.267 . S
O105 Pr80 2.437 . S
O105 C90 1.278 . S
O106 Pr81 2.562 . S
O106 C91 1.254 . S
O107 Pr81 2.490 . S
O107 C91 1.225 . S
O108 Pr80 2.436 . S
O108 Pr81 2.695 . S
O108 C98 1.270 . S
O109 Pr81 2.512 . S
O109 C98 1.248 . S
O110 Pr80 2.438 . S
O110 C99 1.267 . S
O111 Pr81 2.437 . S
O111 C99 1.278 . S
H112 C84 0.929 . S
H113 C85 0.929 . S
H114 C87 0.931 . S
H115 C88 0.930 . S
H116 C93 0.929 . S
H117 C94 0.929 . S
H118 C96 0.931 . S
H119 C97 0.930 . S
Pr120 C122 2.880 . S
Pr120 O140 2.562 . S
Pr120 O141 2.490 . S
Pr120 O142 2.695 . S
Pr120 O143 2.512 . S
Pr120 O145 2.437 . S
Pr120 O148 2.436 . S
Pr120 O150 2.438 . S
Pr121 C131 2.880 . S
Pr121 O142 2.436 . S
Pr121 O144 2.438 . S
Pr121 O146 2.562 . S
Pr121 O147 2.490 . S
Pr121 O148 2.695 . S
Pr121 O149 2.512 . S
Pr121 O151 2.437 . S
C122 Pr120 2.880 . S
C122 C123 1.491 . S
C122 O140 1.254 . S
C122 O141 1.225 . S
C123 C122 1.491 . S
C123 C124 1.392 . S
C123 C128 1.356 . S
C124 C123 1.392 . S
C124 C125 1.368 . S
C124 H152 0.929 . S
C125 C124 1.368 . S
C125 C126 1.386 . S
C125 H153 0.929 . S
C126 C125 1.386 . S
C126 C127 1.373 . S
C127 C126 1.373 . S
C127 C128 1.409 . S
C127 H154 0.931 . S
C128 C123 1.356 . S
C128 C127 1.409 . S
C128 H155 0.930 . S
C129 O142 1.270 . S
C129 O143 1.248 . S
C130 O144 1.267 . S
C130 O145 1.278 . S
C131 Pr121 2.880 . S
C131 C132 1.491 . S
C131 O146 1.254 . S
C131 O147 1.225 . S
C132 C131 1.491 . S
C132 C133 1.392 . S
C132 C137 1.356 . S
C133 C132 1.392 . S
C133 C134 1.368 . S
C133 H156 0.929 . S
C134 C133 1.368 . S
C134 C135 1.386 . S
C134 H157 0.929 . S
C135 C134 1.386 . S
C135 C136 1.373 . S
C136 C135 1.373 . S
C136 C137 1.409 . S
C136 H158 0.931 . S
C137 C132 1.356 . S
C137 C136 1.409 . S
C137 H159 0.930 . S
C138 O148 1.270 . S
C138 O149 1.248 . S
C139 O150 1.267 . S
C139 O151 1.278 . S
O140 Pr120 2.562 . S
O140 C122 1.254 . S
O141 Pr120 2.490 . S
O141 C122 1.225 . S
O142 Pr120 2.695 . S
O142 Pr121 2.436 . S
O142 C129 1.270 . S
O143 Pr120 2.512 . S
O143 C129 1.248 . S
O144 Pr121 2.438 . S
O144 C130 1.267 . S
O145 Pr120 2.437 . S
O145 C130 1.278 . S
O146 Pr121 2.562 . S
O146 C131 1.254 . S
O147 Pr121 2.490 . S
O147 C131 1.225 . S
O148 Pr120 2.436 . S
O148 Pr121 2.695 . S
O148 C138 1.270 . S
O149 Pr121 2.512 . S
O149 C138 1.248 . S
O150 Pr120 2.438 . S
O150 C139 1.267 . S
O151 Pr121 2.437 . S
O151 C139 1.278 . S
H152 C124 0.929 . S
H153 C125 0.929 . S
H154 C127 0.931 . S
H155 C128 0.930 . S
H156 C133 0.929 . S
H157 C134 0.929 . S
H158 C136 0.931 . S
H159 C137 0.930 . S
Pr160 C162 2.880 . S
Pr160 O180 2.562 . S
Pr160 O181 2.490 . S
Pr160 O182 2.695 . S
Pr160 O183 2.512 . S
Pr160 O185 2.437 . S
Pr160 O188 2.436 . S
Pr160 O190 2.438 . S
Pr161 C171 2.880 . S
Pr161 O182 2.436 . S
Pr161 O184 2.438 . S
Pr161 O186 2.562 . S
Pr161 O187 2.490 . S
Pr161 O188 2.695 . S
Pr161 O189 2.512 . S
Pr161 O191 2.437 . S
C162 Pr160 2.880 . S
C162 C163 1.491 . S
C162 O180 1.254 . S
C162 O181 1.225 . S
C163 C162 1.491 . S
C163 C164 1.392 . S
C163 C168 1.356 . S
C164 C163 1.392 . S
C164 C165 1.368 . S
C164 H192 0.929 . S
C165 C164 1.368 . S
C165 C166 1.386 . S
C165 H193 0.929 . S
C166 C165 1.386 . S
C166 C167 1.373 . S
C167 C166 1.373 . S
C167 C168 1.409 . S
C167 H194 0.931 . S
C168 C163 1.356 . S
C168 C167 1.409 . S
C168 H195 0.930 . S
C169 O182 1.270 . S
C169 O183 1.248 . S
C170 O184 1.267 . S
C170 O185 1.278 . S
C171 Pr161 2.880 . S
C171 C172 1.491 . S
C171 O186 1.254 . S
C171 O187 1.225 . S
C172 C171 1.491 . S
C172 C173 1.392 . S
C172 C177 1.356 . S
C173 C172 1.392 . S
C173 C174 1.368 . S
C173 H196 0.929 . S
C174 C173 1.368 . S
C174 C175 1.386 . S
C174 H197 0.929 . S
C175 C174 1.386 . S
C175 C176 1.373 . S
C176 C175 1.373 . S
C176 C177 1.409 . S
C176 H198 0.931 . S
C177 C172 1.356 . S
C177 C176 1.409 . S
C177 H199 0.930 . S
C178 O188 1.270 . S
C178 O189 1.248 . S
C179 O190 1.267 . S
C179 O191 1.278 . S
O180 Pr160 2.562 . S
O180 C162 1.254 . S
O181 Pr160 2.490 . S
O181 C162 1.225 . S
O182 Pr160 2.695 . S
O182 Pr161 2.436 . S
O182 C169 1.270 . S
O183 Pr160 2.512 . S
O183 C169 1.248 . S
O184 Pr161 2.438 . S
O184 C170 1.267 . S
O185 Pr160 2.437 . S
O185 C170 1.278 . S
O186 Pr161 2.562 . S
O186 C171 1.254 . S
O187 Pr161 2.490 . S
O187 C171 1.225 . S
O188 Pr160 2.436 . S
O188 Pr161 2.695 . S
O188 C178 1.270 . S
O189 Pr161 2.512 . S
O189 C178 1.248 . S
O190 Pr160 2.438 . S
O190 C179 1.267 . S
O191 Pr161 2.437 . S
O191 C179 1.278 . S
H192 C164 0.929 . S
H193 C165 0.929 . S
H194 C167 0.931 . S
H195 C168 0.930 . S
H196 C173 0.929 . S
H197 C174 0.929 . S
H198 C176 0.931 . S
H199 C177 0.930 . S
Pr200 C202 2.880 . S
Pr200 O220 2.562 . S
Pr200 O221 2.490 . S
Pr200 O222 2.695 . S
Pr200 O223 2.512 . S
Pr200 O225 2.437 . S
Pr200 O228 2.436 . S
Pr200 O230 2.438 . S
Pr201 C211 2.880 . S
Pr201 O222 2.436 . S
Pr201 O224 2.438 . S
Pr201 O226 2.562 . S
Pr201 O227 2.490 . S
Pr201 O228 2.695 . S
Pr201 O229 2.512 . S
Pr201 O231 2.437 . S
C202 Pr200 2.880 . S
C202 C203 1.491 1_556 S
C202 O220 1.254 . S
C202 O221 1.225 . S
C203 C202 1.491 1_554 S
C203 C204 1.392 . S
C203 C208 1.356 . S
C204 C203 1.392 . S
C204 C205 1.368 . S
C204 H232 0.929 . S
C205 C204 1.368 . S
C205 C206 1.386 . S
C205 H233 0.929 . S
C206 C205 1.386 . S
C206 C207 1.373 . S
C207 C206 1.373 . S
C207 C208 1.409 . S
C207 H234 0.931 . S
C208 C203 1.356 . S
C208 C207 1.409 . S
C208 H235 0.930 . S
C209 O222 1.270 . S
C209 O223 1.248 . S
C210 O224 1.267 . S
C210 O225 1.278 . S
C211 Pr201 2.880 . S
C211 C212 1.491 . S
C211 O226 1.254 . S
C211 O227 1.225 . S
C212 C211 1.491 . S
C212 C213 1.392 . S
C212 C217 1.356 . S
C213 C212 1.392 . S
C213 C214 1.368 . S
C213 H236 0.929 . S
C214 C213 1.368 . S
C214 C215 1.386 . S
C214 H237 0.929 . S
C215 C214 1.386 . S
C215 C216 1.373 . S
C216 C215 1.373 . S
C216 C217 1.409 . S
C216 H238 0.931 . S
C217 C212 1.356 . S
C217 C216 1.409 . S
C217 H239 0.930 . S
C218 O228 1.270 . S
C218 O229 1.248 . S
C219 O230 1.267 . S
C219 O231 1.278 . S
O220 Pr200 2.562 . S
O220 C202 1.254 . S
O221 Pr200 2.490 . S
O221 C202 1.225 . S
O222 Pr200 2.695 . S
O222 Pr201 2.436 . S
O222 C209 1.270 . S
O223 Pr200 2.512 . S
O223 C209 1.248 . S
O224 Pr201 2.438 . S
O224 C210 1.267 . S
O225 Pr200 2.437 . S
O225 C210 1.278 . S
O226 Pr201 2.562 . S
O226 C211 1.254 . S
O227 Pr201 2.490 . S
O227 C211 1.225 . S
O228 Pr200 2.436 . S
O228 Pr201 2.695 . S
O228 C218 1.270 . S
O229 Pr201 2.512 . S
O229 C218 1.248 . S
O230 Pr200 2.438 . S
O230 C219 1.267 . S
O231 Pr201 2.437 . S
O231 C219 1.278 . S
H232 C204 0.929 . S
H233 C205 0.929 . S
H234 C207 0.931 . S
H235 C208 0.930 . S
H236 C213 0.929 . S
H237 C214 0.929 . S
H238 C216 0.931 . S
H239 C217 0.930 . S
Pr240 C242 2.880 . S
Pr240 O260 2.562 . S
Pr240 O261 2.490 . S
Pr240 O262 2.695 . S
Pr240 O263 2.512 . S
Pr240 O265 2.437 . S
Pr240 O268 2.436 . S
Pr240 O270 2.438 . S
Pr241 C251 2.880 . S
Pr241 O262 2.436 . S
Pr241 O264 2.438 . S
Pr241 O266 2.562 . S
Pr241 O267 2.490 . S
Pr241 O268 2.695 . S
Pr241 O269 2.512 . S
Pr241 O271 2.437 . S
C242 Pr240 2.880 . S
C242 C243 1.491 . S
C242 O260 1.254 . S
C242 O261 1.225 . S
C243 C242 1.491 . S
C243 C244 1.392 . S
C243 C248 1.356 . S
C244 C243 1.392 . S
C244 C245 1.368 . S
C244 H272 0.929 . S
C245 C244 1.368 . S
C245 C246 1.386 . S
C245 H273 0.929 . S
C246 C245 1.386 . S
C246 C247 1.373 . S
C247 C246 1.373 . S
C247 C248 1.409 . S
C247 H274 0.931 . S
C248 C243 1.356 . S
C248 C247 1.409 . S
C248 H275 0.930 . S
C249 O262 1.270 . S
C249 O263 1.248 . S
C250 O264 1.267 . S
C250 O265 1.278 . S
C251 Pr241 2.880 . S
C251 C252 1.491 . S
C251 O266 1.254 . S
C251 O267 1.225 . S
C252 C251 1.491 . S
C252 C253 1.392 . S
C252 C257 1.356 . S
C253 C252 1.392 . S
C253 C254 1.368 . S
C253 H276 0.929 . S
C254 C253 1.368 . S
C254 C255 1.386 . S
C254 H277 0.929 . S
C255 C254 1.386 . S
C255 C256 1.373 . S
C256 C255 1.373 . S
C256 C257 1.409 . S
C256 H278 0.931 . S
C257 C252 1.356 . S
C257 C256 1.409 . S
C257 H279 0.930 . S
C258 O268 1.270 . S
C258 O269 1.248 . S
C259 O270 1.267 . S
C259 O271 1.278 . S
O260 Pr240 2.562 . S
O260 C242 1.254 . S
O261 Pr240 2.490 . S
O261 C242 1.225 . S
O262 Pr240 2.695 . S
O262 Pr241 2.436 . S
O262 C249 1.270 . S
O263 Pr240 2.512 . S
O263 C249 1.248 . S
O264 Pr241 2.438 . S
O264 C250 1.267 . S
O265 Pr240 2.437 . S
O265 C250 1.278 . S
O266 Pr241 2.562 . S
O266 C251 1.254 . S
O267 Pr241 2.490 . S
O267 C251 1.225 . S
O268 Pr240 2.436 . S
O268 Pr241 2.695 . S
O268 C258 1.270 . S
O269 Pr241 2.512 . S
O269 C258 1.248 . S
O270 Pr240 2.438 . S
O270 C259 1.267 . S
O271 Pr241 2.437 . S
O271 C259 1.278 . S
H272 C244 0.929 . S
H273 C245 0.929 . S
H274 C247 0.931 . S
H275 C248 0.930 . S
H276 C253 0.929 . S
H277 C254 0.929 . S
H278 C256 0.931 . S
H279 C257 0.930 . S
Pr280 C282 2.880 . S
Pr280 O300 2.562 . S
Pr280 O301 2.490 . S
Pr280 O302 2.695 . S
Pr280 O303 2.512 . S
Pr280 O305 2.437 . S
Pr280 O308 2.436 . S
Pr280 O310 2.438 . S
Pr281 C291 2.880 . S
Pr281 O302 2.436 . S
Pr281 O304 2.438 . S
Pr281 O306 2.562 . S
Pr281 O307 2.490 . S
Pr281 O308 2.695 . S
Pr281 O309 2.512 . S
Pr281 O311 2.437 . S
C282 Pr280 2.880 . S
C282 C283 1.491 . S
C282 O300 1.254 . S
C282 O301 1.225 . S
C283 C282 1.491 . S
C283 C284 1.392 . S
C283 C288 1.356 . S
C284 C283 1.392 . S
C284 C285 1.368 . S
C284 H312 0.929 . S
C285 C284 1.368 . S
C285 C286 1.386 . S
C285 H313 0.929 . S
C286 C285 1.386 . S
C286 C287 1.373 . S
C287 C286 1.373 . S
C287 C288 1.409 . S
C287 H314 0.931 . S
C288 C283 1.356 . S
C288 C287 1.409 . S
C288 H315 0.930 . S
C289 O302 1.270 . S
C289 O303 1.248 . S
C290 O304 1.267 . S
C290 O305 1.278 . S
C291 Pr281 2.880 . S
C291 C292 1.491 . S
C291 O306 1.254 . S
C291 O307 1.225 . S
C292 C291 1.491 . S
C292 C293 1.392 . S
C292 C297 1.356 . S
C293 C292 1.392 . S
C293 C294 1.368 . S
C293 H316 0.929 . S
C294 C293 1.368 . S
C294 C295 1.386 . S
C294 H317 0.929 . S
C295 C294 1.386 . S
C295 C296 1.373 . S
C296 C295 1.373 . S
C296 C297 1.409 . S
C296 H318 0.931 . S
C297 C292 1.356 . S
C297 C296 1.409 . S
C297 H319 0.930 . S
C298 O308 1.270 . S
C298 O309 1.248 . S
C299 O310 1.267 . S
C299 O311 1.278 . S
O300 Pr280 2.562 . S
O300 C282 1.254 . S
O301 Pr280 2.490 . S
O301 C282 1.225 . S
O302 Pr280 2.695 . S
O302 Pr281 2.436 . S
O302 C289 1.270 . S
O303 Pr280 2.512 . S
O303 C289 1.248 . S
O304 Pr281 2.438 . S
O304 C290 1.267 . S
O305 Pr280 2.437 . S
O305 C290 1.278 . S
O306 Pr281 2.562 . S
O306 C291 1.254 . S
O307 Pr281 2.490 . S
O307 C291 1.225 . S
O308 Pr280 2.436 . S
O308 Pr281 2.695 . S
O308 C298 1.270 . S
O309 Pr281 2.512 . S
O309 C298 1.248 . S
O310 Pr280 2.438 . S
O310 C299 1.267 . S
O311 Pr281 2.437 . S
O311 C299 1.278 . S
H312 C284 0.929 . S
H313 C285 0.929 . S
H314 C287 0.931 . S
H315 C288 0.930 . S
H316 C293 0.929 . S
H317 C294 0.929 . S
H318 C296 0.931 . S
H319 C297 0.930 . S
Pr320 C322 2.880 . S
Pr320 O340 2.562 . S
Pr320 O341 2.490 . S
Pr320 O342 2.695 . S
Pr320 O343 2.512 . S
Pr320 O345 2.437 . S
Pr320 O348 2.436 . S
Pr320 O350 2.438 . S
Pr321 C331 2.880 . S
Pr321 O342 2.436 . S
Pr321 O344 2.438 . S
Pr321 O346 2.562 . S
Pr321 O347 2.490 . S
Pr321 O348 2.695 . S
Pr321 O349 2.512 . S
Pr321 O351 2.437 . S
C322 Pr320 2.880 . S
C322 C323 1.491 1_554 S
C322 O340 1.254 . S
C322 O341 1.225 . S
C323 C322 1.491 1_556 S
C323 C324 1.392 . S
C323 C328 1.356 . S
C324 C323 1.392 . S
C324 C325 1.368 . S
C324 H352 0.929 . S
C325 C324 1.368 . S
C325 C326 1.386 . S
C325 H353 0.929 . S
C326 C325 1.386 . S
C326 C327 1.373 . S
C327 C326 1.373 . S
C327 C328 1.409 . S
C327 H354 0.931 . S
C328 C323 1.356 . S
C328 C327 1.409 . S
C328 H355 0.930 . S
C329 O342 1.270 . S
C329 O343 1.248 . S
C330 O344 1.267 . S
C330 O345 1.278 . S
C331 Pr321 2.880 . S
C331 C332 1.491 . S
C331 O346 1.254 . S
C331 O347 1.225 . S
C332 C331 1.491 . S
C332 C333 1.392 . S
C332 C337 1.356 . S
C333 C332 1.392 . S
C333 C334 1.368 . S
C333 H356 0.929 . S
C334 C333 1.368 . S
C334 C335 1.386 . S
C334 H357 0.929 . S
C335 C334 1.386 . S
C335 C336 1.373 . S
C336 C335 1.373 . S
C336 C337 1.409 . S
C336 H358 0.931 . S
C337 C332 1.356 . S
C337 C336 1.409 . S
C337 H359 0.930 . S
C338 O348 1.270 . S
C338 O349 1.248 . S
C339 O350 1.267 . S
C339 O351 1.278 . S
O340 Pr320 2.562 . S
O340 C322 1.254 . S
O341 Pr320 2.490 . S
O341 C322 1.225 . S
O342 Pr320 2.695 . S
O342 Pr321 2.436 . S
O342 C329 1.270 . S
O343 Pr320 2.512 . S
O343 C329 1.248 . S
O344 Pr321 2.438 . S
O344 C330 1.267 . S
O345 Pr320 2.437 . S
O345 C330 1.278 . S
O346 Pr321 2.562 . S
O346 C331 1.254 . S
O347 Pr321 2.490 . S
O347 C331 1.225 . S
O348 Pr320 2.436 . S
O348 Pr321 2.695 . S
O348 C338 1.270 . S
O349 Pr321 2.512 . S
O349 C338 1.248 . S
O350 Pr320 2.438 . S
O350 C339 1.267 . S
O351 Pr321 2.437 . S
O351 C339 1.278 . S
H352 C324 0.929 . S
H353 C325 0.929 . S
H354 C327 0.931 . S
H355 C328 0.930 . S
H356 C333 0.929 . S
H357 C334 0.929 . S
H358 C336 0.931 . S
H359 C337 0.930 . S
Pr360 C362 2.880 . S
Pr360 O380 2.562 . S
Pr360 O381 2.490 . S
Pr360 O382 2.695 . S
Pr360 O383 2.512 . S
Pr360 O385 2.437 . S
Pr360 O388 2.436 . S
Pr360 O390 2.438 . S
Pr361 C371 2.880 . S
Pr361 O382 2.436 . S
Pr361 O384 2.438 . S
Pr361 O386 2.562 . S
Pr361 O387 2.490 . S
Pr361 O388 2.695 . S
Pr361 O389 2.512 . S
Pr361 O391 2.437 . S
C362 Pr360 2.880 . S
C362 C363 1.491 . S
C362 O380 1.254 . S
C362 O381 1.225 . S
C363 C362 1.491 . S
C363 C364 1.392 . S
C363 C368 1.356 . S
C364 C363 1.392 . S
C364 C365 1.368 . S
C364 H392 0.929 . S
C365 C364 1.368 . S
C365 C366 1.386 . S
C365 H393 0.929 . S
C366 C365 1.386 . S
C366 C367 1.373 . S
C367 C366 1.373 . S
C367 C368 1.409 . S
C367 H394 0.931 . S
C368 C363 1.356 . S
C368 C367 1.409 . S
C368 H395 0.930 . S
C369 O382 1.270 . S
C369 O383 1.248 . S
C370 O384 1.267 . S
C370 O385 1.278 . S
C371 Pr361 2.880 . S
C371 C372 1.491 . S
C371 O386 1.254 . S
C371 O387 1.225 . S
C372 C371 1.491 . S
C372 C373 1.392 . S
C372 C377 1.356 . S
C373 C372 1.392 . S
C373 C374 1.368 . S
C373 H396 0.929 . S
C374 C373 1.368 . S
C374 C375 1.386 . S
C374 H397 0.929 . S
C375 C374 1.386 . S
C375 C376 1.373 . S
C376 C375 1.373 . S
C376 C377 1.409 . S
C376 H398 0.931 . S
C377 C372 1.356 . S
C377 C376 1.409 . S
C377 H399 0.930 . S
C378 O388 1.270 . S
C378 O389 1.248 . S
C379 O390 1.267 . S
C379 O391 1.278 . S
O380 Pr360 2.562 . S
O380 C362 1.254 . S
O381 Pr360 2.490 . S
O381 C362 1.225 . S
O382 Pr360 2.695 . S
O382 Pr361 2.436 . S
O382 C369 1.270 . S
O383 Pr360 2.512 . S
O383 C369 1.248 . S
O384 Pr361 2.438 . S
O384 C370 1.267 . S
O385 Pr360 2.437 . S
O385 C370 1.278 . S
O386 Pr361 2.562 . S
O386 C371 1.254 . S
O387 Pr361 2.490 . S
O387 C371 1.225 . S
O388 Pr360 2.436 . S
O388 Pr361 2.695 . S
O388 C378 1.270 . S
O389 Pr361 2.512 . S
O389 C378 1.248 . S
O390 Pr360 2.438 . S
O390 C379 1.267 . S
O391 Pr361 2.437 . S
O391 C379 1.278 . S
H392 C364 0.929 . S
H393 C365 0.929 . S
H394 C367 0.931 . S
H395 C368 0.930 . S
H396 C373 0.929 . S
H397 C374 0.929 . S
H398 C376 0.931 . S
H399 C377 0.930 . S
Pr400 C402 2.880 . S
Pr400 O420 2.562 . S
Pr400 O421 2.490 . S
Pr400 O422 2.695 . S
Pr400 O423 2.512 . S
Pr400 O425 2.437 . S
Pr400 O428 2.436 . S
Pr400 O430 2.438 . S
Pr401 C411 2.880 . S
Pr401 O422 2.436 . S
Pr401 O424 2.438 . S
Pr401 O426 2.562 . S
Pr401 O427 2.490 . S
Pr401 O428 2.695 . S
Pr401 O429 2.512 . S
Pr401 O431 2.437 . S
C402 Pr400 2.880 . S
C402 C403 1.491 . S
C402 O420 1.254 . S
C402 O421 1.225 . S
C403 C402 1.491 . S
C403 C404 1.392 . S
C403 C408 1.356 . S
C404 C403 1.392 . S
C404 C405 1.368 . S
C404 H432 0.929 . S
C405 C404 1.368 . S
C405 C406 1.386 . S
C405 H433 0.929 . S
C406 C405 1.386 . S
C406 C407 1.373 . S
C407 C406 1.373 . S
C407 C408 1.409 . S
C407 H434 0.931 . S
C408 C403 1.356 . S
C408 C407 1.409 . S
C408 H435 0.930 . S
C409 O422 1.270 . S
C409 O423 1.248 . S
C410 O424 1.267 . S
C410 O425 1.278 . S
C411 Pr401 2.880 . S
C411 C412 1.491 . S
C411 O426 1.254 . S
C411 O427 1.225 . S
C412 C411 1.491 . S
C412 C413 1.392 . S
C412 C417 1.356 . S
C413 C412 1.392 . S
C413 C414 1.368 . S
C413 H436 0.929 . S
C414 C413 1.368 . S
C414 C415 1.386 . S
C414 H437 0.929 . S
C415 C414 1.386 . S
C415 C416 1.373 . S
C416 C415 1.373 . S
C416 C417 1.409 . S
C416 H438 0.931 . S
C417 C412 1.356 . S
C417 C416 1.409 . S
C417 H439 0.930 . S
C418 O428 1.270 . S
C418 O429 1.248 . S
C419 O430 1.267 . S
C419 O431 1.278 . S
O420 Pr400 2.562 . S
O420 C402 1.254 . S
O421 Pr400 2.490 . S
O421 C402 1.225 . S
O422 Pr400 2.695 . S
O422 Pr401 2.436 . S
O422 C409 1.270 . S
O423 Pr400 2.512 . S
O423 C409 1.248 . S
O424 Pr401 2.438 . S
O424 C410 1.267 . S
O425 Pr400 2.437 . S
O425 C410 1.278 . S
O426 Pr401 2.562 . S
O426 C411 1.254 . S
O427 Pr401 2.490 . S
O427 C411 1.225 . S
O428 Pr400 2.436 . S
O428 Pr401 2.695 . S
O428 C418 1.270 . S
O429 Pr401 2.512 . S
O429 C418 1.248 . S
O430 Pr400 2.438 . S
O430 C419 1.267 . S
O431 Pr401 2.437 . S
O431 C419 1.278 . S
H432 C404 0.929 . S
H433 C405 0.929 . S
H434 C407 0.931 . S
H435 C408 0.930 . S
H436 C413 0.929 . S
H437 C414 0.929 . S
H438 C416 0.931 . S
H439 C417 0.930 . S
Pr440 C442 2.880 . S
Pr440 O460 2.562 . S
Pr440 O461 2.490 . S
Pr440 O462 2.695 . S
Pr440 O463 2.512 . S
Pr440 O465 2.437 . S
Pr440 O468 2.436 . S
Pr440 O470 2.438 . S
Pr441 C451 2.880 . S
Pr441 O462 2.436 . S
Pr441 O464 2.438 . S
Pr441 O466 2.562 . S
Pr441 O467 2.490 . S
Pr441 O468 2.695 . S
Pr441 O469 2.512 . S
Pr441 O471 2.437 . S
C442 Pr440 2.880 . S
C442 C443 1.491 1_554 S
C442 O460 1.254 . S
C442 O461 1.225 . S
C443 C442 1.491 1_556 S
C443 C444 1.392 . S
C443 C448 1.356 . S
C444 C443 1.392 . S
C444 C445 1.368 . S
C444 H472 0.929 . S
C445 C444 1.368 . S
C445 C446 1.386 . S
C445 H473 0.929 . S
C446 C445 1.386 . S
C446 C447 1.373 . S
C447 C446 1.373 . S
C447 C448 1.409 . S
C447 H474 0.931 . S
C448 C443 1.356 . S
C448 C447 1.409 . S
C448 H475 0.930 . S
C449 O462 1.270 . S
C449 O463 1.248 . S
C450 O464 1.267 . S
C450 O465 1.278 . S
C451 Pr441 2.880 . S
C451 C452 1.491 . S
C451 O466 1.254 . S
C451 O467 1.225 . S
C452 C451 1.491 . S
C452 C453 1.392 . S
C452 C457 1.356 . S
C453 C452 1.392 . S
C453 C454 1.368 . S
C453 H476 0.929 . S
C454 C453 1.368 . S
C454 C455 1.386 . S
C454 H477 0.929 . S
C455 C454 1.386 . S
C455 C456 1.373 . S
C456 C455 1.373 . S
C456 C457 1.409 . S
C456 H478 0.931 . S
C457 C452 1.356 . S
C457 C456 1.409 . S
C457 H479 0.930 . S
C458 O468 1.270 . S
C458 O469 1.248 . S
C459 O470 1.267 . S
C459 O471 1.278 . S
O460 Pr440 2.562 . S
O460 C442 1.254 . S
O461 Pr440 2.490 . S
O461 C442 1.225 . S
O462 Pr440 2.695 . S
O462 Pr441 2.436 . S
O462 C449 1.270 . S
O463 Pr440 2.512 . S
O463 C449 1.248 . S
O464 Pr441 2.438 . S
O464 C450 1.267 . S
O465 Pr440 2.437 . S
O465 C450 1.278 . S
O466 Pr441 2.562 . S
O466 C451 1.254 . S
O467 Pr441 2.490 . S
O467 C451 1.225 . S
O468 Pr440 2.436 . S
O468 Pr441 2.695 . S
O468 C458 1.270 . S
O469 Pr441 2.512 . S
O469 C458 1.248 . S
O470 Pr440 2.438 . S
O470 C459 1.267 . S
O471 Pr441 2.437 . S
O471 C459 1.278 . S
H472 C444 0.929 . S
H473 C445 0.929 . S
H474 C447 0.931 . S
H475 C448 0.930 . S
H476 C453 0.929 . S
H477 C454 0.929 . S
H478 C456 0.931 . S
H479 C457 0.930 . S
H480 C488 0.929 . S
H481 C490 0.930 . S
H482 C492 0.930 . S
H483 C495 0.929 . S
H484 C498 0.930 . S
H485 C500 0.960 . S
H486 C500 0.960 . S
H487 C500 0.960 . S
C488 H480 0.929 . S
C488 C489 1.377 . S
C488 C490 1.384 . S
C489 C488 1.377 . S
C489 C495 1.390 . S
C490 H481 0.930 . S
C490 C488 1.384 . S
C490 C491 1.372 . S
C491 C490 1.372 . S
C491 C492 1.400 . S
C491 C496 1.490 . S
C492 H482 0.930 . S
C492 C491 1.400 . S
C492 C495 1.386 . S
H493 C509 0.930 . S
H494 C510 0.931 . S
C495 H483 0.929 . S
C495 C489 1.390 . S
C495 C492 1.386 . S
C496 C491 1.490 . S
C496 C498 1.395 . S
C496 C499 1.403 . S
H497 C503 0.930 . S
C498 H484 0.930 . S
C498 C496 1.395 . S
C498 C501 1.403 . S
C499 C496 1.403 . S
C499 C500 1.524 . S
C499 C503 1.400 . S
C500 H485 0.960 . S
C500 H486 0.960 . S
C500 H487 0.960 . S
C500 C499 1.524 . S
C501 C498 1.403 . S
C501 C502 1.392 . S
C501 C505 1.495 . S
C502 C501 1.392 . S
C502 C503 1.385 . S
C502 C504 1.478 . S
C503 H497 0.930 . S
C503 C499 1.400 . S
C503 C502 1.385 . S
C504 C502 1.478 . S
C504 C506 1.381 . S
C504 C510 1.383 . S
C505 C501 1.495 . S
C505 H511 0.959 . S
C505 H512 0.961 . S
C505 H513 0.960 . S
C506 C504 1.381 . S
C506 C507 1.394 . S
C506 H514 0.930 . S
C507 C506 1.394 . S
C507 C508 1.383 . S
C507 H515 0.929 . S
C508 C507 1.383 . S
C508 C509 1.377 . S
C509 H493 0.930 . S
C509 C508 1.377 . S
C509 C510 1.379 . S
C510 H494 0.931 . S
C510 C504 1.383 . S
C510 C509 1.379 . S
H511 C505 0.959 . S
H512 C505 0.961 . S
H513 C505 0.960 . S
H514 C506 0.930 . S
H515 C507 0.929 . S
H516 C524 0.929 . S
H517 C526 0.930 . S
H518 C528 0.930 . S
H519 C531 0.929 . S
H520 C534 0.930 . S
H521 C536 0.960 . S
H522 C536 0.960 . S
H523 C536 0.960 . S
C524 H516 0.929 . S
C524 C525 1.377 . S
C524 C526 1.384 . S
C525 C524 1.377 . S
C525 C531 1.390 . S
C526 H517 0.930 . S
C526 C524 1.384 . S
C526 C527 1.372 . S
C527 C526 1.372 . S
C527 C528 1.400 . S
C527 C532 1.490 . S
C528 H518 0.930 . S
C528 C527 1.400 . S
C528 C531 1.386 . S
H529 C545 0.930 . S
H530 C546 0.931 . S
C531 H519 0.929 . S
C531 C525 1.390 . S
C531 C528 1.386 . S
C532 C527 1.490 . S
C532 C534 1.395 . S
C532 C535 1.403 . S
H533 C539 0.930 . S
C534 H520 0.930 . S
C534 C532 1.395 . S
C534 C537 1.403 . S
C535 C532 1.403 . S
C535 C536 1.524 . S
C535 C539 1.400 . S
C536 H521 0.960 . S
C536 H522 0.960 . S
C536 H523 0.960 . S
C536 C535 1.524 . S
C537 C534 1.403 . S
C537 C538 1.392 . S
C537 C541 1.495 . S
C538 C537 1.392 . S
C538 C539 1.385 . S
C538 C540 1.478 . S
C539 H533 0.930 . S
C539 C535 1.400 . S
C539 C538 1.385 . S
C540 C538 1.478 . S
C540 C542 1.381 . S
C540 C546 1.383 . S
C541 C537 1.495 . S
C541 H547 0.959 . S
C541 H548 0.961 . S
C541 H549 0.960 . S
C542 C540 1.381 . S
C542 C543 1.394 . S
C542 H550 0.930 . S
C543 C542 1.394 . S
C543 C544 1.383 . S
C543 H551 0.929 . S
C544 C543 1.383 . S
C544 C545 1.377 . S
C545 H529 0.930 . S
C545 C544 1.377 . S
C545 C546 1.379 . S
C546 H530 0.931 . S
C546 C540 1.383 . S
C546 C545 1.379 . S
H547 C541 0.959 . S
H548 C541 0.961 . S
H549 C541 0.960 . S
H550 C542 0.930 . S
H551 C543 0.929 . S
H552 C560 0.929 . S
H553 C562 0.930 . S
H554 C564 0.930 . S
H555 C567 0.929 . S
H556 C570 0.930 . S
H557 C572 0.960 . S
H558 C572 0.960 . S
H559 C572 0.960 . S
C560 H552 0.929 . S
C560 C561 1.377 . S
C560 C562 1.384 . S
C561 C560 1.377 . S
C561 C567 1.390 . S
C562 H553 0.930 . S
C562 C560 1.384 . S
C562 C563 1.372 . S
C563 C562 1.372 . S
C563 C564 1.400 . S
C563 C568 1.490 . S
C564 H554 0.930 . S
C564 C563 1.400 . S
C564 C567 1.386 . S
H565 C581 0.930 . S
H566 C582 0.931 . S
C567 H555 0.929 . S
C567 C561 1.390 . S
C567 C564 1.386 . S
C568 C563 1.490 . S
C568 C570 1.395 . S
C568 C571 1.403 . S
H569 C575 0.930 . S
C570 H556 0.930 . S
C570 C568 1.395 . S
C570 C573 1.403 . S
C571 C568 1.403 . S
C571 C572 1.524 . S
C571 C575 1.400 . S
C572 H557 0.960 . S
C572 H558 0.960 . S
C572 H559 0.960 . S
C572 C571 1.524 . S
C573 C570 1.403 . S
C573 C574 1.392 . S
C573 C577 1.495 . S
C574 C573 1.392 . S
C574 C575 1.385 . S
C574 C576 1.478 . S
C575 H569 0.930 . S
C575 C571 1.400 . S
C575 C574 1.385 . S
C576 C574 1.478 . S
C576 C578 1.381 . S
C576 C582 1.383 . S
C577 C573 1.495 . S
C577 H583 0.959 . S
C577 H584 0.961 . S
C577 H585 0.960 . S
C578 C576 1.381 . S
C578 C579 1.394 . S
C578 H586 0.930 . S
C579 C578 1.394 . S
C579 C580 1.383 . S
C579 H587 0.929 . S
C580 C579 1.383 . S
C580 C581 1.377 . S
C581 H565 0.930 . S
C581 C580 1.377 . S
C581 C582 1.379 . S
C582 H566 0.931 . S
C582 C576 1.383 . S
C582 C581 1.379 . S
H583 C577 0.959 . S
H584 C577 0.961 . S
H585 C577 0.960 . S
H586 C578 0.930 . S
H587 C579 0.929 . S
H588 C596 0.929 . S
H589 C598 0.930 . S
H590 C600 0.930 . S
H591 C603 0.929 . S
H592 C606 0.930 . S
H593 C608 0.960 . S
H594 C608 0.960 . S
H595 C608 0.960 . S
C596 H588 0.929 . S
C596 C597 1.377 . S
C596 C598 1.384 . S
C597 C596 1.377 . S
C597 C603 1.390 . S
C598 H589 0.930 . S
C598 C596 1.384 . S
C598 C599 1.372 . S
C599 C598 1.372 . S
C599 C600 1.400 . S
C599 C604 1.490 . S
C600 H590 0.930 . S
C600 C599 1.400 . S
C600 C603 1.386 . S
H601 C617 0.930 . S
H602 C618 0.931 . S
C603 H591 0.929 . S
C603 C597 1.390 . S
C603 C600 1.386 . S
C604 C599 1.490 . S
C604 C606 1.395 . S
C604 C607 1.403 . S
H605 C611 0.930 . S
C606 H592 0.930 . S
C606 C604 1.395 . S
C606 C609 1.403 . S
C607 C604 1.403 . S
C607 C608 1.524 . S
C607 C611 1.400 . S
C608 H593 0.960 . S
C608 H594 0.960 . S
C608 H595 0.960 . S
C608 C607 1.524 . S
C609 C606 1.403 . S
C609 C610 1.392 . S
C609 C613 1.495 . S
C610 C609 1.392 . S
C610 C611 1.385 . S
C610 C612 1.478 . S
C611 H605 0.930 . S
C611 C607 1.400 . S
C611 C610 1.385 . S
C612 C610 1.478 . S
C612 C614 1.381 . S
C612 C618 1.383 . S
C613 C609 1.495 . S
C613 H619 0.959 . S
C613 H620 0.961 . S
C613 H621 0.960 . S
C614 C612 1.381 . S
C614 C615 1.394 . S
C614 H622 0.930 . S
C615 C614 1.394 . S
C615 C616 1.383 . S
C615 H623 0.929 . S
C616 C615 1.383 . S
C616 C617 1.377 . S
C617 H601 0.930 . S
C617 C616 1.377 . S
C617 C618 1.379 . S
C618 H602 0.931 . S
C618 C612 1.383 . S
C618 C617 1.379 . S
H619 C613 0.959 . S
H620 C613 0.961 . S
H621 C613 0.960 . S
H622 C614 0.930 . S
H623 C615 0.929 . S
H624 C632 0.929 . S
H625 C634 0.930 . S
H626 C636 0.930 . S
H627 C639 0.929 . S
H628 C642 0.930 . S
H629 C644 0.960 . S
H630 C644 0.960 . S
H631 C644 0.960 . S
C632 H624 0.929 . S
C632 C633 1.377 . S
C632 C634 1.384 . S
C633 C632 1.377 . S
C633 C639 1.390 . S
C634 H625 0.930 . S
C634 C632 1.384 . S
C634 C635 1.372 . S
C635 C634 1.372 . S
C635 C636 1.400 . S
C635 C640 1.490 . S
C636 H626 0.930 . S
C636 C635 1.400 . S
C636 C639 1.386 . S
H637 C653 0.930 . S
H638 C654 0.931 . S
C639 H627 0.929 . S
C639 C633 1.390 . S
C639 C636 1.386 . S
C640 C635 1.490 . S
C640 C642 1.395 . S
C640 C643 1.403 . S
H641 C647 0.930 . S
C642 H628 0.930 . S
C642 C640 1.395 . S
C642 C645 1.403 . S
C643 C640 1.403 . S
C643 C644 1.524 . S
C643 C647 1.400 . S
C644 H629 0.960 . S
C644 H630 0.960 . S
C644 H631 0.960 . S
C644 C643 1.524 . S
C645 C642 1.403 . S
C645 C646 1.392 . S
C645 C649 1.495 . S
C646 C645 1.392 . S
C646 C647 1.385 . S
C646 C648 1.478 . S
C647 H641 0.930 . S
C647 C643 1.400 . S
C647 C646 1.385 . S
C648 C646 1.478 . S
C648 C650 1.381 . S
C648 C654 1.383 . S
C649 C645 1.495 . S
C649 H655 0.959 . S
C649 H656 0.961 . S
C649 H657 0.960 . S
C650 C648 1.381 . S
C650 C651 1.394 . S
C650 H658 0.930 . S
C651 C650 1.394 . S
C651 C652 1.383 . S
C651 H659 0.929 . S
C652 C651 1.383 . S
C652 C653 1.377 . S
C653 H637 0.930 . S
C653 C652 1.377 . S
C653 C654 1.379 . S
C654 H638 0.931 . S
C654 C648 1.383 . S
C654 C653 1.379 . S
H655 C649 0.959 . S
H656 C649 0.961 . S
H657 C649 0.960 . S
H658 C650 0.930 . S
H659 C651 0.929 . S
H660 C668 0.929 . S
H661 C670 0.930 . S
H662 C672 0.930 . S
H663 C675 0.929 . S
H664 C678 0.930 . S
H665 C680 0.960 . S
H666 C680 0.960 . S
H667 C680 0.960 . S
C668 H660 0.929 . S
C668 C669 1.377 . S
C668 C670 1.384 . S
C669 C668 1.377 . S
C669 C675 1.390 . S
C670 H661 0.930 . S
C670 C668 1.384 . S
C670 C671 1.372 . S
C671 C670 1.372 . S
C671 C672 1.400 . S
C671 C676 1.490 . S
C672 H662 0.930 . S
C672 C671 1.400 . S
C672 C675 1.386 . S
H673 C689 0.930 . S
H674 C690 0.931 . S
C675 H663 0.929 . S
C675 C669 1.390 . S
C675 C672 1.386 . S
C676 C671 1.490 . S
C676 C678 1.395 . S
C676 C679 1.403 . S
H677 C683 0.930 . S
C678 H664 0.930 . S
C678 C676 1.395 . S
C678 C681 1.403 . S
C679 C676 1.403 . S
C679 C680 1.524 . S
C679 C683 1.400 . S
C680 H665 0.960 . S
C680 H666 0.960 . S
C680 H667 0.960 . S
C680 C679 1.524 . S
C681 C678 1.403 . S
C681 C682 1.392 . S
C681 C685 1.495 . S
C682 C681 1.392 . S
C682 C683 1.385 . S
C682 C684 1.478 . S
C683 H677 0.930 . S
C683 C679 1.400 . S
C683 C682 1.385 . S
C684 C682 1.478 . S
C684 C686 1.381 . S
C684 C690 1.383 . S
C685 C681 1.495 . S
C685 H691 0.959 . S
C685 H692 0.961 . S
C685 H693 0.960 . S
C686 C684 1.381 . S
C686 C687 1.394 . S
C686 H694 0.930 . S
C687 C686 1.394 . S
C687 C688 1.383 . S
C687 H695 0.929 . S
C688 C687 1.383 . S
C688 C689 1.377 . S
C689 H673 0.930 . S
C689 C688 1.377 . S
C689 C690 1.379 . S
C690 H674 0.931 . S
C690 C684 1.383 . S
C690 C689 1.379 . S
H691 C685 0.959 . S
H692 C685 0.961 . S
H693 C685 0.960 . S
H694 C686 0.930 . S
H695 C687 0.929 . S
H696 C704 0.929 . S
H697 C706 0.930 . S
H698 C708 0.930 . S
H699 C711 0.929 . S
H700 C714 0.930 . S
H701 C716 0.960 . S
H702 C716 0.960 1_556 S
H703 C716 0.960 1_556 S
C704 H696 0.929 . S
C704 C705 1.377 . S
C704 C706 1.384 . S
C705 C704 1.377 . S
C705 C711 1.390 . S
C706 H697 0.930 . S
C706 C704 1.384 . S
C706 C707 1.372 . S
C707 C706 1.372 . S
C707 C708 1.400 . S
C707 C712 1.490 . S
C708 H698 0.930 . S
C708 C707 1.400 . S
C708 C711 1.386 . S
H709 C725 0.930 . S
H710 C726 0.931 . S
C711 H699 0.929 . S
C711 C705 1.390 . S
C711 C708 1.386 . S
C712 C707 1.490 . S
C712 C714 1.395 . S
C712 C715 1.427 . S
H713 C719 0.930 . S
C714 H700 0.930 . S
C714 C712 1.395 . S
C714 C717 1.403 . S
C715 C712 1.427 . S
C715 C716 1.522 1_556 S
C715 C719 1.377 1_556 S
C716 H701 0.960 . S
C716 H702 0.960 1_554 S
C716 H703 0.960 1_554 S
C716 C715 1.522 1_554 S
C717 C714 1.403 . S
C717 C718 1.392 1_556 S
C717 C721 1.495 . S
C718 C717 1.392 1_554 S
C718 C719 1.385 . S
C718 C720 1.478 . S
C719 H713 0.930 . S
C719 C715 1.377 1_554 S
C719 C718 1.385 . S
C720 C718 1.478 . S
C720 C722 1.381 . S
C720 C726 1.383 . S
C721 C717 1.495 . S
C721 H727 0.959 . S
C721 H728 0.961 1_556 S
C721 H729 0.960 . S
C722 C720 1.381 . S
C722 C723 1.394 . S
C722 H730 0.930 . S
C723 C722 1.394 . S
C723 C724 1.383 . S
C723 H731 0.929 . S
C724 C723 1.383 . S
C724 C725 1.377 . S
C725 H709 0.930 . S
C725 C724 1.377 . S
C725 C726 1.379 . S
C726 H710 0.931 . S
C726 C720 1.383 . S
C726 C725 1.379 . S
H727 C721 0.959 . S
H728 C721 0.961 1_554 S
H729 C721 0.960 . S
H730 C722 0.930 . S
H731 C723 0.929 . S
H732 C740 0.929 . S
H733 C742 0.930 . S
H734 C744 0.930 . S
H735 C747 0.929 . S
H736 C750 0.930 . S
H737 C752 0.960 . S
H738 C752 0.960 . S
H739 C752 0.960 . S
C740 H732 0.929 . S
C740 C741 1.377 . S
C740 C742 1.384 . S
C741 C740 1.377 . S
C741 C747 1.390 . S
C742 H733 0.930 . S
C742 C740 1.384 . S
C742 C743 1.372 . S
C743 C742 1.372 . S
C743 C744 1.400 . S
C743 C748 1.490 . S
C744 H734 0.930 . S
C744 C743 1.400 . S
C744 C747 1.386 . S
H745 C761 0.930 . S
H746 C762 0.931 . S
C747 H735 0.929 . S
C747 C741 1.390 . S
C747 C744 1.386 . S
C748 C743 1.490 . S
C748 C750 1.395 . S
C748 C751 1.403 . S
H749 C755 0.930 . S
C750 H736 0.930 . S
C750 C748 1.395 . S
C750 C753 1.403 . S
C751 C748 1.403 . S
C751 C752 1.524 . S
C751 C755 1.400 . S
C752 H737 0.960 . S
C752 H738 0.960 . S
C752 H739 0.960 . S
C752 C751 1.524 . S
C753 C750 1.403 . S
C753 C754 1.392 . S
C753 C757 1.495 . S
C754 C753 1.392 . S
C754 C755 1.385 . S
C754 C756 1.478 . S
C755 H749 0.930 . S
C755 C751 1.400 . S
C755 C754 1.385 . S
C756 C754 1.478 . S
C756 C758 1.381 . S
C756 C762 1.383 . S
C757 C753 1.495 . S
C757 H763 0.959 . S
C757 H764 0.961 . S
C757 H765 0.960 . S
C758 C756 1.381 . S
C758 C759 1.394 . S
C758 H766 0.930 . S
C759 C758 1.394 . S
C759 C760 1.383 . S
C759 H767 0.929 . S
C760 C759 1.383 . S
C760 C761 1.377 . S
C761 H745 0.930 . S
C761 C760 1.377 . S
C761 C762 1.379 . S
C762 H746 0.931 . S
C762 C756 1.383 . S
C762 C761 1.379 . S
H763 C757 0.959 . S
H764 C757 0.961 . S
H765 C757 0.960 . S
H766 C758 0.930 . S
H767 C759 0.929 . S
H768 C776 0.929 . S
H769 C778 0.930 . S
H770 C780 0.930 . S
H771 C783 0.929 . S
H772 C786 0.930 . S
H773 C788 0.960 . S
H774 C788 0.960 . S
H775 C788 0.960 . S
C776 H768 0.929 . S
C776 C777 1.377 . S
C776 C778 1.384 . S
C777 C776 1.377 . S
C777 C783 1.390 . S
C778 H769 0.930 . S
C778 C776 1.384 . S
C778 C779 1.372 . S
C779 C778 1.372 . S
C779 C780 1.400 . S
C779 C784 1.490 . S
C780 H770 0.930 . S
C780 C779 1.400 . S
C780 C783 1.386 . S
H781 C797 0.930 . S
H782 C798 0.931 . S
C783 H771 0.929 . S
C783 C777 1.390 . S
C783 C780 1.386 . S
C784 C779 1.490 . S
C784 C786 1.395 . S
C784 C787 1.403 . S
H785 C791 0.930 . S
C786 H772 0.930 . S
C786 C784 1.395 . S
C786 C789 1.403 . S
C787 C784 1.403 . S
C787 C788 1.524 . S
C787 C791 1.400 . S
C788 H773 0.960 . S
C788 H774 0.960 . S
C788 H775 0.960 . S
C788 C787 1.524 . S
C789 C786 1.403 . S
C789 C790 1.392 . S
C789 C793 1.495 . S
C790 C789 1.392 . S
C790 C791 1.385 . S
C790 C792 1.478 . S
C791 H785 0.930 . S
C791 C787 1.400 . S
C791 C790 1.385 . S
C792 C790 1.478 . S
C792 C794 1.381 . S
C792 C798 1.383 . S
C793 C789 1.495 . S
C793 H799 0.959 . S
C793 H800 0.961 . S
C793 H801 0.960 . S
C794 C792 1.381 . S
C794 C795 1.394 . S
C794 H802 0.930 . S
C795 C794 1.394 . S
C795 C796 1.383 . S
C795 H803 0.929 . S
C796 C795 1.383 . S
C796 C797 1.377 . S
C797 H781 0.930 . S
C797 C796 1.377 . S
C797 C798 1.379 . S
C798 H782 0.931 . S
C798 C792 1.383 . S
C798 C797 1.379 . S
H799 C793 0.959 . S
H800 C793 0.961 . S
H801 C793 0.960 . S
H802 C794 0.930 . S
H803 C795 0.929 . S
H804 C812 0.929 . S
H805 C814 0.930 . S
H806 C816 0.930 . S
H807 C819 0.929 . S
H808 C822 0.930 . S
H809 C824 0.960 . S
H810 C824 0.960 . S
H811 C824 0.960 1_556 S
C812 H804 0.929 . S
C812 C813 1.377 . S
C812 C814 1.384 . S
C813 C812 1.377 . S
C813 C819 1.390 . S
C814 H805 0.930 . S
C814 C812 1.384 . S
C814 C815 1.372 . S
C815 C814 1.372 . S
C815 C816 1.400 . S
C815 C820 1.490 . S
C816 H806 0.930 . S
C816 C815 1.400 . S
C816 C819 1.386 . S
H817 C833 0.930 . S
H818 C834 0.931 . S
C819 H807 0.929 . S
C819 C813 1.390 . S
C819 C816 1.386 . S
C820 C815 1.490 . S
C820 C822 1.395 . S
C820 C823 1.403 1_556 S
H821 C827 0.930 . S
C822 H808 0.930 . S
C822 C820 1.395 . S
C822 C825 1.403 . S
C823 C820 1.403 1_554 S
C823 C824 1.524 . S
C823 C827 1.400 . S
C824 H809 0.960 . S
C824 H810 0.960 . S
C824 H811 0.960 1_554 S
C824 C823 1.524 . S
C825 C822 1.403 . S
C825 C826 1.392 1_556 S
C825 C829 1.495 . S
C826 C825 1.392 1_554 S
C826 C827 1.385 . S
C826 C828 1.478 . S
C827 H821 0.930 . S
C827 C823 1.400 . S
C827 C826 1.385 . S
C828 C826 1.478 . S
C828 C830 1.381 . S
C828 C834 1.383 . S
C829 C825 1.495 . S
C829 H835 0.959 . S
C829 H836 0.961 . S
C829 H837 0.960 1_556 S
C830 C828 1.381 . S
C830 C831 1.394 . S
C830 H838 0.930 . S
C831 C830 1.394 . S
C831 C832 1.383 . S
C831 H839 0.929 . S
C832 C831 1.383 . S
C832 C833 1.377 . S
C833 H817 0.930 . S
C833 C832 1.377 . S
C833 C834 1.379 . S
C834 H818 0.931 . S
C834 C828 1.383 . S
C834 C833 1.379 . S
H835 C829 0.959 . S
H836 C829 0.961 . S
H837 C829 0.960 1_554 S
H838 C830 0.930 . S
H839 C831 0.929 . S
H840 C848 0.929 . S
H841 C850 0.930 . S
H842 C852 0.930 . S
H843 C855 0.929 . S
H844 C858 0.930 . S
H845 C860 0.960 . S
H846 C860 0.960 . S
H847 C860 0.960 . S
C848 H840 0.929 . S
C848 C849 1.377 . S
C848 C850 1.384 . S
C849 C848 1.377 . S
C849 C855 1.390 . S
C850 H841 0.930 . S
C850 C848 1.384 . S
C850 C851 1.372 . S
C851 C850 1.372 . S
C851 C852 1.400 . S
C851 C856 1.490 . S
C852 H842 0.930 . S
C852 C851 1.400 . S
C852 C855 1.386 . S
H853 C869 0.930 . S
H854 C870 0.931 . S
C855 H843 0.929 . S
C855 C849 1.390 . S
C855 C852 1.386 . S
C856 C851 1.490 . S
C856 C858 1.395 . S
C856 C859 1.403 . S
H857 C863 0.930 . S
C858 H844 0.930 . S
C858 C856 1.395 . S
C858 C861 1.403 . S
C859 C856 1.403 . S
C859 C860 1.524 . S
C859 C863 1.400 . S
C860 H845 0.960 . S
C860 H846 0.960 . S
C860 H847 0.960 . S
C860 C859 1.524 . S
C861 C858 1.403 . S
C861 C862 1.392 . S
C861 C865 1.495 . S
C862 C861 1.392 . S
C862 C863 1.385 . S
C862 C864 1.478 . S
C863 H857 0.930 . S
C863 C859 1.400 . S
C863 C862 1.385 . S
C864 C862 1.478 . S
C864 C866 1.381 . S
C864 C870 1.383 . S
C865 C861 1.495 . S
C865 H871 0.959 . S
C865 H872 0.961 . S
C865 H873 0.960 . S
C866 C864 1.381 . S
C866 C867 1.394 . S
C866 H874 0.930 . S
C867 C866 1.394 . S
C867 C868 1.383 . S
C867 H875 0.929 . S
C868 C867 1.383 . S
C868 C869 1.377 . S
C869 H853 0.930 . S
C869 C868 1.377 . S
C869 C870 1.379 . S
C870 H854 0.931 . S
C870 C864 1.383 . S
C870 C869 1.379 . S
H871 C865 0.959 . S
H872 C865 0.961 . S
H873 C865 0.960 . S
H874 C866 0.930 . S
H875 C867 0.929 . S
H876 C884 0.929 . S
H877 C886 0.930 . S
H878 C888 0.930 . S
H879 C891 0.929 . S
H880 C894 0.930 . S
H881 C896 0.960 . S
H882 C896 0.960 . S
H883 C896 0.960 . S
C884 H876 0.929 . S
C884 C885 1.377 . S
C884 C886 1.384 . S
C885 C884 1.377 . S
C885 C891 1.390 . S
C886 H877 0.930 . S
C886 C884 1.384 . S
C886 C887 1.372 . S
C887 C886 1.372 . S
C887 C888 1.400 . S
C887 C892 1.490 . S
C888 H878 0.930 . S
C888 C887 1.400 . S
C888 C891 1.386 . S
H889 C905 0.930 . S
H890 C906 0.931 . S
C891 H879 0.929 . S
C891 C885 1.390 . S
C891 C888 1.386 . S
C892 C887 1.490 . S
C892 C894 1.395 . S
C892 C895 1.403 . S
H893 C899 0.930 . S
C894 H880 0.930 . S
C894 C892 1.395 . S
C894 C897 1.403 . S
C895 C892 1.403 . S
C895 C896 1.524 . S
C895 C899 1.400 . S
C896 H881 0.960 . S
C896 H882 0.960 . S
C896 H883 0.960 . S
C896 C895 1.524 . S
C897 C894 1.403 . S
C897 C898 1.392 . S
C897 C901 1.495 . S
C898 C897 1.392 . S
C898 C899 1.385 . S
C898 C900 1.478 . S
C899 H893 0.930 . S
C899 C895 1.400 . S
C899 C898 1.385 . S
C900 C898 1.478 . S
C900 C902 1.381 . S
C900 C906 1.383 . S
C901 C897 1.495 . S
C901 H907 0.959 . S
C901 H908 0.961 . S
C901 H909 0.960 . S
C902 C900 1.381 . S
C902 C903 1.394 . S
C902 H910 0.930 . S
C903 C902 1.394 . S
C903 C904 1.383 . S
C903 H911 0.929 . S
C904 C903 1.383 . S
C904 C905 1.377 . S
C905 H889 0.930 . S
C905 C904 1.377 . S
C905 C906 1.379 . S
C906 H890 0.931 . S
C906 C900 1.383 . S
C906 C905 1.379 . S
H907 C901 0.959 . S
H908 C901 0.961 . S
H909 C901 0.960 . S
H910 C902 0.930 . S
H911 C903 0.929 . S
H912 C920 0.929 . S
H913 C922 0.930 . S
H914 C924 0.930 . S
H915 C927 0.929 . S
H916 C930 0.930 . S
H917 C932 0.960 . S
H918 C932 0.960 . S
H919 C932 0.981 . S
C920 H912 0.929 . S
C920 C921 1.377 . S
C920 C922 1.384 . S
C921 C920 1.377 . S
C921 C927 1.390 . S
C922 H913 0.930 . S
C922 C920 1.384 . S
C922 C923 1.372 . S
C923 C922 1.372 . S
C923 C924 1.400 . S
C923 C928 1.490 . S
C924 H914 0.930 . S
C924 C923 1.400 . S
C924 C927 1.386 . S
H925 C941 0.930 . S
H926 C942 0.931 . S
C927 H915 0.929 . S
C927 C921 1.390 . S
C927 C924 1.386 . S
C928 C923 1.490 . S
C928 C930 1.395 . S
C928 C931 1.403 1_565 S
H929 C935 0.930 . S
C930 H916 0.930 . S
C930 C928 1.395 . S
C930 C933 1.403 1_556 S
C931 C928 1.403 1_545 S
C931 C932 1.524 . S
C931 C935 1.400 1_556 S
C932 H917 0.960 . S
C932 H918 0.960 . S
C932 H919 0.981 . S
C932 C931 1.524 . S
C933 C930 1.403 1_554 S
C933 C934 1.392 1_565 S
C933 C937 1.495 . S
C934 C933 1.392 1_545 S
C934 C935 1.385 . S
C934 C936 1.478 . S
C935 H929 0.930 . S
C935 C931 1.400 1_554 S
C935 C934 1.385 . S
C936 C934 1.478 . S
C936 C938 1.381 . S
C936 C942 1.383 . S
C937 C933 1.495 . S
C937 H943 0.959 . S
C937 H944 0.961 . S
C937 H945 0.959 1_565 S
C938 C936 1.381 . S
C938 C939 1.394 . S
C938 H946 0.930 . S
C939 C938 1.394 . S
C939 C940 1.383 . S
C939 H947 0.929 . S
C940 C939 1.383 . S
C940 C941 1.377 . S
C941 H925 0.930 . S
C941 C940 1.377 . S
C941 C942 1.379 . S
C942 H926 0.931 . S
C942 C936 1.383 . S
C942 C941 1.379 . S
H943 C937 0.959 . S
H944 C937 0.961 . S
H945 C937 0.959 1_545 S
H946 C938 0.930 . S
H947 C939 0.929 . S
H948 C956 0.929 . S
H949 C958 0.930 . S
H950 C960 0.930 . S
H951 C963 0.929 . S
H952 C966 0.930 . S
H953 C968 0.960 . S
H954 C968 0.960 . S
H955 C968 0.960 . S
C956 H948 0.929 . S
C956 C957 1.377 . S
C956 C958 1.384 . S
C957 C956 1.377 . S
C957 C963 1.390 . S
C958 H949 0.930 . S
C958 C956 1.384 . S
C958 C959 1.372 . S
C959 C958 1.372 . S
C959 C960 1.400 . S
C959 C964 1.490 . S
C960 H950 0.930 . S
C960 C959 1.400 . S
C960 C963 1.386 . S
H961 C977 0.930 . S
H962 C978 0.931 . S
C963 H951 0.929 . S
C963 C957 1.390 . S
C963 C960 1.386 . S
C964 C959 1.490 . S
C964 C966 1.395 . S
C964 C967 1.403 . S
H965 C971 0.930 . S
C966 H952 0.930 . S
C966 C964 1.395 . S
C966 C969 1.403 . S
C967 C964 1.403 . S
C967 C968 1.524 . S
C967 C971 1.400 . S
C968 H953 0.960 . S
C968 H954 0.960 . S
C968 H955 0.960 . S
C968 C967 1.524 . S
C969 C966 1.403 . S
C969 C970 1.392 . S
C969 C973 1.495 . S
C970 C969 1.392 . S
C970 C971 1.385 . S
C970 C972 1.478 . S
C971 H965 0.930 . S
C971 C967 1.400 . S
C971 C970 1.385 . S
C972 C970 1.478 . S
C972 C974 1.381 . S
C972 C978 1.383 . S
C973 C969 1.495 . S
C973 H979 0.959 . S
C973 H980 0.961 . S
C973 H981 0.960 . S
C974 C972 1.381 . S
C974 C975 1.394 . S
C974 H982 0.930 . S
C975 C974 1.394 . S
C975 C976 1.383 . S
C975 H983 0.929 . S
C976 C975 1.383 . S
C976 C977 1.377 . S
C977 H961 0.930 . S
C977 C976 1.377 . S
C977 C978 1.379 . S
C978 H962 0.931 . S
C978 C972 1.383 . S
C978 C977 1.379 . S
H979 C973 0.959 . S
H980 C973 0.961 . S
H981 C973 0.960 . S
H982 C974 0.930 . S
H983 C975 0.929 . S
H984 C992 0.929 . S
H985 C994 0.930 . S
H986 C996 0.908 1_655 S
H987 C999 0.929 . S
H988 C1002 0.930 . S
H989 C1004 0.960 . S
H990 C1004 0.960 . S
H991 C1004 0.960 . S
C992 H984 0.929 . S
C992 C993 1.377 . S
C992 C994 1.384 . S
C993 C992 1.377 . S
C993 C999 1.390 . S
C994 H985 0.930 . S
C994 C992 1.384 . S
C994 C995 1.372 . S
C995 C994 1.372 . S
C995 C996 1.400 . S
C995 C1000 1.490 . S
C996 H986 0.908 1_455 S
C996 C995 1.400 . S
C996 C999 1.386 . S
H997 C1013 0.930 . S
H998 C1014 0.931 . S
C999 H987 0.929 . S
C999 C993 1.390 . S
C999 C996 1.386 . S
C1000 C995 1.490 . S
C1000 C1002 1.395 . S
C1000 C1003 1.403 1_455 S
H1001 C1007 0.930 . S
C1002 H988 0.930 . S
C1002 C1000 1.395 . S
C1002 C1005 1.403 . S
C1003 C1000 1.403 1_655 S
C1003 C1004 1.524 . S
C1003 C1007 1.400 . S
C1004 H989 0.960 . S
C1004 H990 0.960 . S
C1004 H991 0.960 . S
C1004 C1003 1.524 . S
C1005 C1002 1.403 . S
C1005 C1006 1.392 1_455 S
C1005 C1009 1.495 . S
C1006 C1005 1.392 1_655 S
C1006 C1007 1.385 . S
C1006 C1008 1.478 . S
C1007 H1001 0.930 . S
C1007 C1003 1.400 . S
C1007 C1006 1.385 . S
C1008 C1006 1.478 . S
C1008 C1010 1.381 . S
C1008 C1014 1.383 . S
C1009 C1005 1.495 . S
C1009 H1015 0.959 . S
C1009 H1016 0.961 . S
C1009 H1017 0.960 . S
C1010 C1008 1.381 . S
C1010 C1011 1.394 . S
C1010 H1018 0.930 1_655 S
C1011 C1010 1.394 . S
C1011 C1012 1.383 . S
C1011 H1019 0.929 . S
C1012 C1011 1.383 . S
C1012 C1013 1.377 . S
C1013 H997 0.930 . S
C1013 C1012 1.377 . S
C1013 C1014 1.379 . S
C1014 H998 0.931 . S
C1014 C1008 1.383 . S
C1014 C1013 1.379 . S
H1015 C1009 0.959 . S
H1016 C1009 0.961 . S
H1017 C1009 0.960 . S
H1018 C1010 0.930 1_455 S
H1019 C1011 0.929 . S
H1020 C1028 0.929 . S
H1021 C1030 0.930 . S
H1022 C1032 0.904 1_545 S
H1023 C1035 0.929 . S
H1024 C1038 0.930 . S
H1025 C1040 0.960 . S
H1026 C1040 0.960 . S
H1027 C1040 0.960 . S
C1028 H1020 0.929 . S
C1028 C1029 1.377 . S
C1028 C1030 1.384 . S
C1029 C1028 1.377 . S
C1029 C1035 1.390 . S
C1030 H1021 0.930 . S
C1030 C1028 1.384 . S
C1030 C1031 1.372 . S
C1031 C1030 1.372 . S
C1031 C1032 1.400 . S
C1031 C1036 1.490 . S
C1032 H1022 0.904 1_565 S
C1032 C1031 1.400 . S
C1032 C1035 1.386 . S
H1033 C1049 0.930 . S
H1034 C1050 0.931 . S
C1035 H1023 0.929 . S
C1035 C1029 1.390 . S
C1035 C1032 1.386 . S
C1036 C1031 1.490 . S
C1036 C1038 1.395 . S
C1036 C1039 1.403 1_565 S
H1037 C1043 0.930 . S
C1038 H1024 0.930 . S
C1038 C1036 1.395 . S
C1038 C1041 1.403 1_554 S
C1039 C1036 1.403 1_545 S
C1039 C1040 1.524 . S
C1039 C1043 1.400 1_554 S
C1040 H1025 0.960 . S
C1040 H1026 0.960 . S
C1040 H1027 0.960 . S
C1040 C1039 1.524 . S
C1041 C1038 1.403 1_556 S
C1041 C1042 1.392 1_565 S
C1041 C1045 1.495 . S
C1042 C1041 1.392 1_545 S
C1042 C1043 1.385 . S
C1042 C1044 1.478 . S
C1043 H1037 0.930 . S
C1043 C1039 1.400 1_556 S
C1043 C1042 1.385 . S
C1044 C1042 1.478 . S
C1044 C1046 1.381 . S
C1044 C1050 1.383 . S
C1045 C1041 1.495 . S
C1045 H1051 0.959 . S
C1045 H1052 0.961 . S
C1045 H1053 0.960 . S
C1046 C1044 1.381 . S
C1046 C1047 1.394 . S
C1046 H1054 0.930 1_545 S
C1047 C1046 1.394 . S
C1047 C1048 1.383 . S
C1047 H1055 0.929 . S
C1048 C1047 1.383 . S
C1048 C1049 1.377 . S
C1049 H1033 0.930 . S
C1049 C1048 1.377 . S
C1049 C1050 1.379 . S
C1050 H1034 0.931 . S
C1050 C1044 1.383 . S
C1050 C1049 1.379 . S
H1051 C1045 0.959 . S
H1052 C1045 0.961 . S
H1053 C1045 0.960 . S
H1054 C1046 0.930 1_565 S
H1055 C1047 0.929 . S
H1056 C1064 0.929 . S
H1057 C1066 0.930 . S
H1058 C1068 0.930 . S
H1059 C1071 0.929 . S
H1060 C1074 0.930 . S
H1061 C1076 0.960 . S
H1062 C1076 0.960 . S
H1063 C1076 0.960 . S
C1064 H1056 0.929 . S
C1064 C1065 1.377 . S
C1064 C1066 1.384 . S
C1065 C1064 1.377 . S
C1065 C1071 1.390 . S
C1066 H1057 0.930 . S
C1066 C1064 1.384 . S
C1066 C1067 1.372 . S
C1067 C1066 1.372 . S
C1067 C1068 1.400 . S
C1067 C1072 1.490 . S
C1068 H1058 0.930 . S
C1068 C1067 1.400 . S
C1068 C1071 1.386 . S
H1069 C1085 0.930 . S
H1070 C1086 0.931 . S
C1071 H1059 0.929 . S
C1071 C1065 1.390 . S
C1071 C1068 1.386 . S
C1072 C1067 1.490 . S
C1072 C1074 1.395 . S
C1072 C1075 1.403 . S
H1073 C1079 0.930 . S
C1074 H1060 0.930 . S
C1074 C1072 1.395 . S
C1074 C1077 1.403 . S
C1075 C1072 1.403 . S
C1075 C1076 1.524 . S
C1075 C1079 1.400 . S
C1076 H1061 0.960 . S
C1076 H1062 0.960 . S
C1076 H1063 0.960 . S
C1076 C1075 1.524 . S
C1077 C1074 1.403 . S
C1077 C1078 1.392 . S
C1077 C1081 1.495 . S
C1078 C1077 1.392 . S
C1078 C1079 1.385 . S
C1078 C1080 1.478 . S
C1079 H1073 0.930 . S
C1079 C1075 1.400 . S
C1079 C1078 1.385 . S
C1080 C1078 1.478 . S
C1080 C1082 1.381 . S
C1080 C1086 1.383 . S
C1081 C1077 1.495 . S
C1081 H1087 0.959 . S
C1081 H1088 0.961 . S
C1081 H1089 0.960 . S
C1082 C1080 1.381 . S
C1082 C1083 1.394 . S
C1082 H1090 0.930 . S
C1083 C1082 1.394 . S
C1083 C1084 1.383 . S
C1083 H1091 0.929 . S
C1084 C1083 1.383 . S
C1084 C1085 1.377 . S
C1085 H1069 0.930 . S
C1085 C1084 1.377 . S
C1085 C1086 1.379 . S
C1086 H1070 0.931 . S
C1086 C1080 1.383 . S
C1086 C1085 1.379 . S
H1087 C1081 0.959 . S
H1088 C1081 0.961 . S
H1089 C1081 0.960 . S
H1090 C1082 0.930 . S
H1091 C1083 0.929 . S
H1092 C1100 0.929 . S
H1093 C1102 0.930 . S
H1094 C1104 0.930 1_655 S
H1095 C1107 0.929 . S
H1096 C1110 0.930 . S
H1097 C1112 0.960 . S
H1098 C1112 0.960 1_455 S
H1099 C1112 0.960 . S
C1100 H1092 0.929 . S
C1100 C1101 1.377 . S
C1100 C1102 1.384 . S
C1101 C1100 1.377 . S
C1101 C1107 1.390 . S
C1102 H1093 0.930 . S
C1102 C1100 1.384 . S
C1102 C1103 1.372 . S
C1103 C1102 1.372 . S
C1103 C1104 1.400 . S
C1103 C1108 1.490 . S
C1104 H1094 0.930 1_455 S
C1104 C1103 1.400 . S
C1104 C1107 1.386 . S
H1105 C1121 0.930 . S
H1106 C1122 0.931 . S
C1107 H1095 0.929 . S
C1107 C1101 1.390 . S
C1107 C1104 1.386 . S
C1108 C1103 1.490 . S
C1108 C1110 1.395 . S
C1108 C1111 1.403 1_455 S
H1109 C1115 0.930 . S
C1110 H1096 0.930 . S
C1110 C1108 1.395 . S
C1110 C1113 1.403 . S
C1111 C1108 1.403 1_655 S
C1111 C1112 1.524 . S
C1111 C1115 1.400 . S
C1112 H1097 0.960 . S
C1112 H1098 0.960 1_655 S
C1112 H1099 0.960 . S
C1112 C1111 1.524 . S
C1113 C1110 1.403 . S
C1113 C1114 1.392 1_455 S
C1113 C1117 1.495 . S
C1114 C1113 1.392 1_655 S
C1114 C1115 1.385 . S
C1114 C1116 1.478 . S
C1115 H1109 0.930 . S
C1115 C1111 1.400 . S
C1115 C1114 1.385 . S
C1116 C1114 1.478 . S
C1116 C1118 1.381 . S
C1116 C1122 1.383 . S
C1117 C1113 1.495 . S
C1117 H1123 0.959 . S
C1117 H1124 0.961 1_455 S
C1117 H1125 0.960 . S
C1118 C1116 1.381 . S
C1118 C1119 1.394 . S
C1118 H1126 0.930 1_655 S
C1119 C1118 1.394 . S
C1119 C1120 1.383 . S
C1119 H1127 0.929 . S
C1120 C1119 1.383 . S
C1120 C1121 1.377 . S
C1121 H1105 0.930 . S
C1121 C1120 1.377 . S
C1121 C1122 1.379 . S
C1122 H1106 0.931 . S
C1122 C1116 1.383 . S
C1122 C1121 1.379 . S
H1123 C1117 0.959 . S
H1124 C1117 0.961 1_655 S
H1125 C1117 0.960 . S
H1126 C1118 0.930 1_455 S
H1127 C1119 0.929 . S
H1128 C1136 0.929 . S
H1129 C1138 0.930 . S
H1130 C1140 0.930 . S
H1131 C1143 0.929 . S
H1132 C1146 0.930 . S
H1133 C1148 0.960 . S
H1134 C1148 0.960 . S
H1135 C1148 0.960 1_545 S
C1136 H1128 0.929 . S
C1136 C1137 1.377 . S
C1136 C1138 1.384 . S
C1137 C1136 1.377 . S
C1137 C1143 1.390 . S
C1138 H1129 0.930 . S
C1138 C1136 1.384 . S
C1138 C1139 1.372 . S
C1139 C1138 1.372 . S
C1139 C1140 1.400 . S
C1139 C1144 1.490 . S
C1140 H1130 0.930 . S
C1140 C1139 1.400 . S
C1140 C1143 1.386 . S
H1141 C1157 0.930 . S
H1142 C1158 0.931 . S
C1143 H1131 0.929 . S
C1143 C1137 1.390 . S
C1143 C1140 1.386 . S
C1144 C1139 1.490 . S
C1144 C1146 1.395 . S
C1144 C1147 1.403 1_545 S
H1145 C1151 0.930 . S
C1146 H1132 0.930 . S
C1146 C1144 1.395 . S
C1146 C1149 1.403 . S
C1147 C1144 1.403 1_565 S
C1147 C1148 1.524 . S
C1147 C1151 1.400 . S
C1148 H1133 0.960 . S
C1148 H1134 0.960 . S
C1148 H1135 0.960 1_565 S
C1148 C1147 1.524 . S
C1149 C1146 1.403 . S
C1149 C1150 1.392 1_545 S
C1149 C1153 1.495 . S
C1150 C1149 1.392 1_565 S
C1150 C1151 1.385 . S
C1150 C1152 1.478 . S
C1151 H1145 0.930 . S
C1151 C1147 1.400 . S
C1151 C1150 1.385 . S
C1152 C1150 1.478 . S
C1152 C1154 1.381 . S
C1152 C1158 1.383 . S
C1153 C1149 1.495 . S
C1153 H1159 0.959 . S
C1153 H1160 0.961 . S
C1153 H1161 0.960 1_545 S
C1154 C1152 1.381 . S
C1154 C1155 1.394 . S
C1154 H1162 0.930 . S
C1155 C1154 1.394 . S
C1155 C1156 1.383 . S
C1155 H1163 0.929 . S
C1156 C1155 1.383 . S
C1156 C1157 1.377 . S
C1157 H1141 0.930 . S
C1157 C1156 1.377 . S
C1157 C1158 1.379 . S
C1158 H1142 0.931 . S
C1158 C1152 1.383 . S
C1158 C1157 1.379 . S
H1159 C1153 0.959 . S
H1160 C1153 0.961 . S
H1161 C1153 0.960 1_565 S
H1162 C1154 0.930 . S
H1163 C1155 0.929 . S
H1164 C1172 0.929 . S
H1165 C1174 0.930 . S
H1166 C1176 0.930 . S
H1167 C1179 0.929 . S
H1168 C1182 0.930 . S
H1169 C1184 0.960 . S
H1170 C1184 0.960 . S
H1171 C1184 0.960 . S
C1172 H1164 0.929 . S
C1172 C1173 1.377 . S
C1172 C1174 1.384 . S
C1173 C1172 1.377 . S
C1173 C1179 1.390 . S
C1174 H1165 0.930 . S
C1174 C1172 1.384 . S
C1174 C1175 1.372 . S
C1175 C1174 1.372 . S
C1175 C1176 1.400 . S
C1175 C1180 1.490 . S
C1176 H1166 0.930 . S
C1176 C1175 1.400 . S
C1176 C1179 1.386 . S
H1177 C1193 0.930 . S
H1178 C1194 0.931 . S
C1179 H1167 0.929 . S
C1179 C1173 1.390 . S
C1179 C1176 1.386 . S
C1180 C1175 1.490 . S
C1180 C1182 1.395 . S
C1180 C1183 1.403 . S
H1181 C1187 0.930 . S
C1182 H1168 0.930 . S
C1182 C1180 1.395 . S
C1182 C1185 1.403 . S
C1183 C1180 1.403 . S
C1183 C1184 1.524 . S
C1183 C1187 1.400 . S
C1184 H1169 0.960 . S
C1184 H1170 0.960 . S
C1184 H1171 0.960 . S
C1184 C1183 1.524 . S
C1185 C1182 1.403 . S
C1185 C1186 1.392 . S
C1185 C1189 1.495 . S
C1186 C1185 1.392 . S
C1186 C1187 1.385 . S
C1186 C1188 1.478 . S
C1187 H1181 0.930 . S
C1187 C1183 1.400 . S
C1187 C1186 1.385 . S
C1188 C1186 1.478 . S
C1188 C1190 1.381 . S
C1188 C1194 1.383 . S
C1189 C1185 1.495 . S
C1189 H1195 0.959 . S
C1189 H1196 0.961 . S
C1189 H1197 0.960 . S
C1190 C1188 1.381 . S
C1190 C1191 1.394 . S
C1190 H1198 0.930 . S
C1191 C1190 1.394 . S
C1191 C1192 1.383 . S
C1191 H1199 0.929 . S
C1192 C1191 1.383 . S
C1192 C1193 1.377 . S
C1193 H1177 0.930 . S
C1193 C1192 1.377 . S
C1193 C1194 1.379 . S
C1194 H1178 0.931 . S
C1194 C1188 1.383 . S
C1194 C1193 1.379 . S
H1195 C1189 0.959 . S
H1196 C1189 0.961 . S
H1197 C1189 0.960 . S
H1198 C1190 0.930 . S
H1199 C1191 0.929 . S
H1200 C1208 0.929 . S
H1201 C1210 0.930 . S
H1202 C1212 0.930 . S
H1203 C1215 0.929 . S
H1204 C1218 0.930 . S
H1205 C1220 0.960 . S
H1206 C1220 0.960 . S
H1207 C1220 0.960 . S
C1208 H1200 0.929 . S
C1208 C1209 1.377 . S
C1208 C1210 1.384 . S
C1209 C1208 1.377 . S
C1209 C1215 1.390 . S
C1210 H1201 0.930 . S
C1210 C1208 1.384 . S
C1210 C1211 1.372 . S
C1211 C1210 1.372 . S
C1211 C1212 1.400 . S
C1211 C1216 1.490 . S
C1212 H1202 0.930 . S
C1212 C1211 1.400 . S
C1212 C1215 1.386 . S
H1213 C1229 0.930 . S
H1214 C1230 0.931 . S
C1215 H1203 0.929 . S
C1215 C1209 1.390 . S
C1215 C1212 1.386 . S
C1216 C1211 1.490 . S
C1216 C1218 1.395 1_655 S
C1216 C1219 1.403 . S
H1217 C1223 0.930 . S
C1218 H1204 0.930 . S
C1218 C1216 1.395 1_455 S
C1218 C1221 1.403 . S
C1219 C1216 1.403 . S
C1219 C1220 1.524 . S
C1219 C1223 1.400 . S
C1220 H1205 0.960 . S
C1220 H1206 0.960 . S
C1220 H1207 0.960 . S
C1220 C1219 1.524 . S
C1221 C1218 1.403 . S
C1221 C1222 1.392 . S
C1221 C1225 1.495 . S
C1222 C1221 1.392 . S
C1222 C1223 1.385 1_455 S
C1222 C1224 1.478 . S
C1223 H1217 0.930 . S
C1223 C1219 1.400 . S
C1223 C1222 1.385 1_655 S
C1224 C1222 1.478 . S
C1224 C1226 1.381 . S
C1224 C1230 1.383 . S
C1225 C1221 1.495 . S
C1225 H1231 0.959 . S
C1225 H1232 0.961 . S
C1225 H1233 0.960 . S
C1226 C1224 1.381 . S
C1226 C1227 1.394 . S
C1226 H1234 0.930 . S
C1227 C1226 1.394 . S
C1227 C1228 1.383 . S
C1227 H1235 0.929 . S
C1228 C1227 1.383 . S
C1228 C1229 1.377 . S
C1229 H1213 0.930 . S
C1229 C1228 1.377 . S
C1229 C1230 1.379 . S
C1230 H1214 0.931 . S
C1230 C1224 1.383 . S
C1230 C1229 1.379 . S
H1231 C1225 0.959 . S
H1232 C1225 0.961 . S
H1233 C1225 0.960 . S
H1234 C1226 0.930 . S
H1235 C1227 0.929 . S
H1236 C1244 0.929 . S
H1237 C1246 0.930 . S
H1238 C1248 0.930 . S
H1239 C1251 0.929 . S
H1240 C1254 0.930 . S
H1241 C1256 0.960 . S
H1242 C1256 0.960 . S
H1243 C1256 0.960 . S
C1244 H1236 0.929 . S
C1244 C1245 1.377 . S
C1244 C1246 1.384 . S
C1245 C1244 1.377 . S
C1245 C1251 1.390 . S
C1246 H1237 0.930 . S
C1246 C1244 1.384 . S
C1246 C1247 1.372 . S
C1247 C1246 1.372 . S
C1247 C1248 1.400 . S
C1247 C1252 1.490 . S
C1248 H1238 0.930 . S
C1248 C1247 1.400 . S
C1248 C1251 1.386 . S
H1249 C1265 0.930 . S
H1250 C1266 0.931 . S
C1251 H1239 0.929 . S
C1251 C1245 1.390 . S
C1251 C1248 1.386 . S
C1252 C1247 1.490 . S
C1252 C1254 1.395 1_455 S
C1252 C1255 1.403 . S
H1253 C1259 0.930 . S
C1254 H1240 0.930 . S
C1254 C1252 1.395 1_655 S
C1254 C1257 1.403 . S
C1255 C1252 1.403 . S
C1255 C1256 1.524 . S
C1255 C1259 1.400 . S
C1256 H1241 0.960 . S
C1256 H1242 0.960 . S
C1256 H1243 0.960 . S
C1256 C1255 1.524 . S
C1257 C1254 1.403 . S
C1257 C1258 1.392 . S
C1257 C1261 1.495 . S
C1258 C1257 1.392 . S
C1258 C1259 1.385 1_655 S
C1258 C1260 1.478 . S
C1259 H1253 0.930 . S
C1259 C1255 1.400 . S
C1259 C1258 1.385 1_455 S
C1260 C1258 1.478 . S
C1260 C1262 1.381 . S
C1260 C1266 1.383 . S
C1261 C1257 1.495 . S
C1261 H1267 0.959 . S
C1261 H1268 0.961 . S
C1261 H1269 0.960 . S
C1262 C1260 1.381 . S
C1262 C1263 1.394 . S
C1262 H1270 0.930 . S
C1263 C1262 1.394 . S
C1263 C1264 1.383 . S
C1263 H1271 0.929 . S
C1264 C1263 1.383 . S
C1264 C1265 1.377 . S
C1265 H1249 0.930 . S
C1265 C1264 1.377 . S
C1265 C1266 1.379 . S
C1266 H1250 0.931 . S
C1266 C1260 1.383 . S
C1266 C1265 1.379 . S
H1267 C1261 0.959 . S
H1268 C1261 0.961 . S
H1269 C1261 0.960 . S
H1270 C1262 0.930 . S
H1271 C1263 0.929 . S
H1272 C1280 0.929 . S
H1273 C1282 0.930 . S
H1274 C1284 0.930 . S
H1275 C1287 0.929 . S
H1276 C1290 0.930 . S
H1277 C1292 0.960 . S
H1278 C1292 0.960 . S
H1279 C1292 0.960 . S
C1280 H1272 0.929 . S
C1280 C1281 1.377 . S
C1280 C1282 1.384 . S
C1281 C1280 1.377 . S
C1281 C1287 1.390 . S
C1282 H1273 0.930 . S
C1282 C1280 1.384 . S
C1282 C1283 1.372 . S
C1283 C1282 1.372 . S
C1283 C1284 1.400 . S
C1283 C1288 1.490 . S
C1284 H1274 0.930 . S
C1284 C1283 1.400 . S
C1284 C1287 1.386 . S
H1285 C1301 0.930 . S
H1286 C1302 0.931 . S
C1287 H1275 0.929 . S
C1287 C1281 1.390 . S
C1287 C1284 1.386 . S
C1288 C1283 1.490 . S
C1288 C1290 1.395 . S
C1288 C1291 1.403 . S
H1289 C1295 0.930 . S
C1290 H1276 0.930 . S
C1290 C1288 1.395 . S
C1290 C1293 1.403 1_565 S
C1291 C1288 1.403 . S
C1291 C1292 1.524 . S
C1291 C1295 1.400 1_565 S
C1292 H1277 0.960 . S
C1292 H1278 0.960 . S
C1292 H1279 0.960 . S
C1292 C1291 1.524 . S
C1293 C1290 1.403 1_545 S
C1293 C1294 1.392 . S
C1293 C1297 1.495 . S
C1294 C1293 1.392 . S
C1294 C1295 1.385 . S
C1294 C1296 1.478 . S
C1295 H1289 0.930 . S
C1295 C1291 1.400 1_545 S
C1295 C1294 1.385 . S
C1296 C1294 1.478 . S
C1296 C1298 1.381 . S
C1296 C1302 1.383 . S
C1297 C1293 1.495 . S
C1297 H1303 0.959 1_545 S
C1297 H1304 0.961 . S
C1297 H1305 0.960 . S
C1298 C1296 1.381 . S
C1298 C1299 1.394 . S
C1298 H1306 0.930 . S
C1299 C1298 1.394 . S
C1299 C1300 1.383 . S
C1299 H1307 0.929 . S
C1300 C1299 1.383 . S
C1300 C1301 1.377 . S
C1301 H1285 0.930 . S
C1301 C1300 1.377 . S
C1301 C1302 1.379 . S
C1302 H1286 0.931 . S
C1302 C1296 1.383 . S
C1302 C1301 1.379 . S
H1303 C1297 0.959 1_565 S
H1304 C1297 0.961 . S
H1305 C1297 0.960 . S
H1306 C1298 0.930 . S
H1307 C1299 0.929 . S
H1308 C1316 0.929 . S
H1309 C1318 0.930 . S
H1310 C1320 0.930 . S
H1311 C1323 0.929 . S
H1312 C1326 0.930 . S
H1313 C1328 0.960 . S
H1314 C1328 0.960 . S
H1315 C1328 0.960 . S
C1316 H1308 0.929 . S
C1316 C1317 1.377 . S
C1316 C1318 1.384 . S
C1317 C1316 1.377 . S
C1317 C1323 1.390 . S
C1318 H1309 0.930 . S
C1318 C1316 1.384 . S
C1318 C1319 1.372 . S
C1319 C1318 1.372 . S
C1319 C1320 1.400 . S
C1319 C1324 1.490 . S
C1320 H1310 0.930 . S
C1320 C1319 1.400 . S
C1320 C1323 1.386 . S
H1321 C1337 0.930 . S
H1322 C1338 0.931 . S
C1323 H1311 0.929 . S
C1323 C1317 1.390 . S
C1323 C1320 1.386 . S
C1324 C1319 1.490 . S
C1324 C1326 1.395 . S
C1324 C1327 1.403 . S
H1325 C1331 0.930 . S
C1326 H1312 0.930 . S
C1326 C1324 1.395 . S
C1326 C1329 1.403 . S
C1327 C1324 1.403 . S
C1327 C1328 1.524 . S
C1327 C1331 1.400 . S
C1328 H1313 0.960 . S
C1328 H1314 0.960 . S
C1328 H1315 0.960 . S
C1328 C1327 1.524 . S
C1329 C1326 1.403 . S
C1329 C1330 1.392 . S
C1329 C1333 1.495 . S
C1330 C1329 1.392 . S
C1330 C1331 1.385 . S
C1330 C1332 1.478 . S
C1331 H1325 0.930 . S
C1331 C1327 1.400 . S
C1331 C1330 1.385 . S
C1332 C1330 1.478 . S
C1332 C1334 1.381 . S
C1332 C1338 1.383 . S
C1333 C1329 1.495 . S
C1333 H1339 0.959 . S
C1333 H1340 0.961 . S
C1333 H1341 0.960 . S
C1334 C1332 1.381 . S
C1334 C1335 1.394 . S
C1334 H1342 0.930 . S
C1335 C1334 1.394 . S
C1335 C1336 1.383 . S
C1335 H1343 0.929 . S
C1336 C1335 1.383 . S
C1336 C1337 1.377 . S
C1337 H1321 0.930 . S
C1337 C1336 1.377 . S
C1337 C1338 1.379 . S
C1338 H1322 0.931 . S
C1338 C1332 1.383 . S
C1338 C1337 1.379 . S
H1339 C1333 0.959 . S
H1340 C1333 0.961 . S
H1341 C1333 0.960 . S
H1342 C1334 0.930 . S
H1343 C1335 0.929 . S
H1344 C1352 0.929 . S
H1345 C1354 0.930 . S
H1346 C1356 0.930 . S
H1347 C1359 0.929 . S
H1348 C1362 0.930 . S
H1349 C1364 0.960 . S
H1350 C1364 0.960 . S
H1351 C1364 0.960 . S
C1352 H1344 0.929 . S
C1352 C1353 1.377 . S
C1352 C1354 1.384 . S
C1353 C1352 1.377 . S
C1353 C1359 1.390 . S
C1354 H1345 0.930 . S
C1354 C1352 1.384 . S
C1354 C1355 1.372 . S
C1355 C1354 1.372 . S
C1355 C1356 1.400 . S
C1355 C1360 1.490 . S
C1356 H1346 0.930 . S
C1356 C1355 1.400 . S
C1356 C1359 1.386 . S
H1357 C1373 0.930 . S
H1358 C1374 0.931 . S
C1359 H1347 0.929 . S
C1359 C1353 1.390 . S
C1359 C1356 1.386 . S
C1360 C1355 1.490 . S
C1360 C1362 1.395 . S
C1360 C1363 1.403 1_565 S
H1361 C1367 0.930 . S
C1362 H1348 0.930 . S
C1362 C1360 1.395 . S
C1362 C1365 1.403 . S
C1363 C1360 1.403 1_545 S
C1363 C1364 1.524 . S
C1363 C1367 1.400 . S
C1364 H1349 0.960 . S
C1364 H1350 0.960 . S
C1364 H1351 0.960 . S
C1364 C1363 1.524 . S
C1365 C1362 1.403 . S
C1365 C1366 1.392 1_565 S
C1365 C1369 1.495 . S
C1366 C1365 1.392 1_545 S
C1366 C1367 1.385 . S
C1366 C1368 1.478 . S
C1367 H1361 0.930 . S
C1367 C1363 1.400 . S
C1367 C1366 1.385 . S
C1368 C1366 1.478 . S
C1368 C1370 1.381 . S
C1368 C1374 1.383 . S
C1369 C1365 1.495 . S
C1369 H1375 0.959 . S
C1369 H1376 0.961 . S
C1369 H1377 0.960 . S
C1370 C1368 1.381 . S
C1370 C1371 1.394 . S
C1370 H1378 0.930 . S
C1371 C1370 1.394 . S
C1371 C1372 1.383 . S
C1371 H1379 0.929 . S
C1372 C1371 1.383 . S
C1372 C1373 1.377 . S
C1373 H1357 0.930 . S
C1373 C1372 1.377 . S
C1373 C1374 1.379 . S
C1374 H1358 0.931 . S
C1374 C1368 1.383 . S
C1374 C1373 1.379 . S
H1375 C1369 0.959 . S
H1376 C1369 0.961 . S
H1377 C1369 0.960 . S
H1378 C1370 0.930 . S
H1379 C1371 0.929 . S
H1380 C1388 0.929 . S
H1381 C1390 0.930 . S
H1382 C1392 0.930 . S
H1383 C1395 0.929 . S
H1384 C1398 0.930 . S
H1385 C1400 0.960 . S
H1386 C1400 0.960 . S
H1387 C1400 0.960 . S
C1388 H1380 0.929 . S
C1388 C1389 1.377 . S
C1388 C1390 1.384 . S
C1389 C1388 1.377 . S
C1389 C1395 1.390 . S
C1390 H1381 0.930 . S
C1390 C1388 1.384 . S
C1390 C1391 1.372 . S
C1391 C1390 1.372 . S
C1391 C1392 1.400 . S
C1391 C1396 1.490 . S
C1392 H1382 0.930 . S
C1392 C1391 1.400 . S
C1392 C1395 1.386 . S
H1393 C1409 0.930 . S
H1394 C1410 0.931 . S
C1395 H1383 0.929 . S
C1395 C1389 1.390 . S
C1395 C1392 1.386 . S
C1396 C1391 1.490 . S
C1396 C1398 1.395 . S
C1396 C1399 1.403 . S
H1397 C1403 0.930 . S
C1398 H1384 0.930 . S
C1398 C1396 1.395 . S
C1398 C1401 1.403 . S
C1399 C1396 1.403 . S
C1399 C1400 1.524 . S
C1399 C1403 1.400 . S
C1400 H1385 0.960 . S
C1400 H1386 0.960 . S
C1400 H1387 0.960 . S
C1400 C1399 1.524 . S
C1401 C1398 1.403 . S
C1401 C1402 1.392 . S
C1401 C1405 1.495 . S
C1402 C1401 1.392 . S
C1402 C1403 1.385 . S
C1402 C1404 1.478 . S
C1403 H1397 0.930 . S
C1403 C1399 1.400 . S
C1403 C1402 1.385 . S
C1404 C1402 1.478 . S
C1404 C1406 1.381 . S
C1404 C1410 1.383 . S
C1405 C1401 1.495 . S
C1405 H1411 0.959 . S
C1405 H1412 0.961 . S
C1405 H1413 0.960 . S
C1406 C1404 1.381 . S
C1406 C1407 1.394 . S
C1406 H1414 0.930 . S
C1407 C1406 1.394 . S
C1407 C1408 1.383 . S
C1407 H1415 0.929 . S
C1408 C1407 1.383 . S
C1408 C1409 1.377 . S
C1409 H1393 0.930 . S
C1409 C1408 1.377 . S
C1409 C1410 1.379 . S
C1410 H1394 0.931 . S
C1410 C1404 1.383 . S
C1410 C1409 1.379 . S
H1411 C1405 0.959 . S
H1412 C1405 0.961 . S
H1413 C1405 0.960 . S
H1414 C1406 0.930 . S
H1415 C1407 0.929 . S
H1416 C1424 0.929 . S
H1417 C1426 0.930 . S
H1418 C1428 0.930 . S
H1419 C1431 0.929 . S
H1420 C1434 0.930 . S
H1421 C1436 0.960 . S
H1422 C1436 0.960 . S
H1423 C1436 0.960 . S
C1424 H1416 0.929 . S
C1424 C1425 1.377 . S
C1424 C1426 1.384 . S
C1425 C1424 1.377 . S
C1425 C1431 1.390 . S
C1426 H1417 0.930 . S
C1426 C1424 1.384 . S
C1426 C1427 1.372 . S
C1427 C1426 1.372 . S
C1427 C1428 1.400 . S
C1427 C1432 1.490 . S
C1428 H1418 0.930 . S
C1428 C1427 1.400 . S
C1428 C1431 1.386 . S
H1429 C1445 0.930 . S
H1430 C1446 0.931 . S
C1431 H1419 0.929 . S
C1431 C1425 1.390 . S
C1431 C1428 1.386 . S
C1432 C1427 1.490 . S
C1432 C1434 1.395 1_655 S
C1432 C1435 1.403 . S
H1433 C1439 0.948 1_655 S
C1434 H1420 0.930 . S
C1434 C1432 1.395 1_455 S
C1434 C1437 1.403 . S
C1435 C1432 1.403 . S
C1435 C1436 1.524 . S
C1435 C1439 1.383 1_655 S
C1436 H1421 0.960 . S
C1436 H1422 0.960 . S
C1436 H1423 0.960 . S
C1436 C1435 1.524 . S
C1437 C1434 1.403 . S
C1437 C1438 1.392 . S
C1437 C1441 1.495 . S
C1438 C1437 1.392 . S
C1438 C1439 1.396 . S
C1438 C1440 1.478 . S
C1439 H1433 0.948 1_455 S
C1439 C1435 1.383 1_455 S
C1439 C1438 1.396 . S
C1440 C1438 1.478 . S
C1440 C1442 1.381 . S
C1440 C1446 1.383 . S
C1441 C1437 1.495 . S
C1441 H1447 0.959 . S
C1441 H1448 0.961 . S
C1441 H1449 0.960 . S
C1442 C1440 1.381 . S
C1442 C1443 1.394 . S
C1442 H1450 0.930 . S
C1443 C1442 1.394 . S
C1443 C1444 1.383 . S
C1443 H1451 0.929 . S
C1444 C1443 1.383 . S
C1444 C1445 1.377 . S
C1445 H1429 0.930 . S
C1445 C1444 1.377 . S
C1445 C1446 1.379 . S
C1446 H1430 0.931 . S
C1446 C1440 1.383 . S
C1446 C1445 1.379 . S
H1447 C1441 0.959 . S
H1448 C1441 0.961 . S
H1449 C1441 0.960 . S
H1450 C1442 0.930 . S
H1451 C1443 0.929 . S
H1452 C1460 0.929 . S
H1453 C1462 0.930 . S
H1454 C1464 0.930 . S
H1455 C1467 0.929 . S
H1456 C1470 0.930 . S
H1457 C1472 0.960 . S
H1458 C1472 0.960 . S
H1459 C1472 0.960 . S
C1460 H1452 0.929 . S
C1460 C1461 1.377 . S
C1460 C1462 1.384 . S
C1461 C1460 1.377 . S
C1461 C1467 1.390 . S
C1462 H1453 0.930 . S
C1462 C1460 1.384 . S
C1462 C1463 1.372 . S
C1463 C1462 1.372 . S
C1463 C1464 1.400 . S
C1463 C1468 1.490 . S
C1464 H1454 0.930 . S
C1464 C1463 1.400 . S
C1464 C1467 1.386 . S
H1465 C1481 0.930 . S
H1466 C1482 0.931 . S
C1467 H1455 0.929 . S
C1467 C1461 1.390 . S
C1467 C1464 1.386 . S
C1468 C1463 1.490 . S
C1468 C1470 1.395 . S
C1468 C1471 1.403 . S
H1469 C1475 0.930 . S
C1470 H1456 0.930 . S
C1470 C1468 1.395 . S
C1470 C1473 1.403 1_545 S
C1471 C1468 1.403 . S
C1471 C1472 1.524 . S
C1471 C1475 1.400 1_545 S
C1472 H1457 0.960 . S
C1472 H1458 0.960 . S
C1472 H1459 0.960 . S
C1472 C1471 1.524 . S
C1473 C1470 1.403 1_565 S
C1473 C1474 1.392 . S
C1473 C1477 1.495 . S
C1474 C1473 1.392 . S
C1474 C1475 1.385 . S
C1474 C1476 1.478 . S
C1475 H1469 0.930 . S
C1475 C1471 1.400 1_565 S
C1475 C1474 1.385 . S
C1476 C1474 1.478 . S
C1476 C1478 1.381 . S
C1476 C1482 1.383 . S
C1477 C1473 1.495 . S
C1477 H1483 0.959 . S
C1477 H1484 0.961 . S
C1477 H1485 0.960 . S
C1478 C1476 1.381 . S
C1478 C1479 1.394 . S
C1478 H1486 0.930 . S
C1479 C1478 1.394 . S
C1479 C1480 1.383 . S
C1479 H1487 0.929 . S
C1480 C1479 1.383 . S
C1480 C1481 1.377 . S
C1481 H1465 0.930 . S
C1481 C1480 1.377 . S
C1481 C1482 1.379 . S
C1482 H1466 0.931 . S
C1482 C1476 1.383 . S
C1482 C1481 1.379 . S
H1483 C1477 0.959 . S
H1484 C1477 0.961 . S
H1485 C1477 0.960 . S
H1486 C1478 0.930 . S
H1487 C1479 0.929 . S
H1488 C1496 0.929 . S
H1489 C1498 0.930 . S
H1490 C1500 0.930 . S
H1491 C1503 0.929 . S
H1492 C1506 0.930 . S
H1493 C1508 0.960 . S
H1494 C1508 0.960 . S
H1495 C1508 0.960 . S
C1496 H1488 0.929 . S
C1496 C1497 1.377 . S
C1496 C1498 1.384 . S
C1497 C1496 1.377 . S
C1497 C1503 1.390 . S
C1498 H1489 0.930 . S
C1498 C1496 1.384 . S
C1498 C1499 1.372 . S
C1499 C1498 1.372 . S
C1499 C1500 1.400 . S
C1499 C1504 1.490 . S
C1500 H1490 0.930 . S
C1500 C1499 1.400 . S
C1500 C1503 1.386 . S
H1501 C1517 0.930 . S
H1502 C1518 0.931 . S
C1503 H1491 0.929 . S
C1503 C1497 1.390 . S
C1503 C1500 1.386 . S
C1504 C1499 1.490 . S
C1504 C1506 1.395 . S
C1504 C1507 1.403 . S
H1505 C1511 0.930 . S
C1506 H1492 0.930 . S
C1506 C1504 1.395 . S
C1506 C1509 1.403 . S
C1507 C1504 1.403 . S
C1507 C1508 1.524 . S
C1507 C1511 1.400 . S
C1508 H1493 0.960 . S
C1508 H1494 0.960 . S
C1508 H1495 0.960 . S
C1508 C1507 1.524 . S
C1509 C1506 1.403 . S
C1509 C1510 1.392 . S
C1509 C1513 1.495 . S
C1510 C1509 1.392 . S
C1510 C1511 1.385 . S
C1510 C1512 1.478 . S
C1511 H1505 0.930 . S
C1511 C1507 1.400 . S
C1511 C1510 1.385 . S
C1512 C1510 1.478 . S
C1512 C1514 1.381 . S
C1512 C1518 1.383 . S
C1513 C1509 1.495 . S
C1513 H1519 0.959 . S
C1513 H1520 0.961 . S
C1513 H1521 0.960 . S
C1514 C1512 1.381 . S
C1514 C1515 1.394 . S
C1514 H1522 0.930 . S
C1515 C1514 1.394 . S
C1515 C1516 1.383 . S
C1515 H1523 0.929 . S
C1516 C1515 1.383 . S
C1516 C1517 1.377 . S
C1517 H1501 0.930 . S
C1517 C1516 1.377 . S
C1517 C1518 1.379 . S
C1518 H1502 0.931 . S
C1518 C1512 1.383 . S
C1518 C1517 1.379 . S
H1519 C1513 0.959 . S
H1520 C1513 0.961 . S
H1521 C1513 0.960 . S
H1522 C1514 0.930 . S
H1523 C1515 0.929 . S
H1524 C1532 0.929 . S
H1525 C1534 0.930 . S
H1526 C1536 0.930 . S
H1527 C1539 0.929 . S
H1528 C1542 0.930 . S
H1529 C1544 0.960 . S
H1530 C1544 0.960 . S
H1531 C1544 0.960 . S
C1532 H1524 0.929 . S
C1532 C1533 1.377 . S
C1532 C1534 1.384 . S
C1533 C1532 1.377 . S
C1533 C1539 1.390 . S
C1534 H1525 0.930 . S
C1534 C1532 1.384 . S
C1534 C1535 1.372 . S
C1535 C1534 1.372 . S
C1535 C1536 1.400 . S
C1535 C1540 1.490 . S
C1536 H1526 0.930 . S
C1536 C1535 1.400 . S
C1536 C1539 1.386 . S
H1537 C1553 0.930 . S
H1538 C1554 0.931 . S
C1539 H1527 0.929 . S
C1539 C1533 1.390 . S
C1539 C1536 1.386 . S
C1540 C1535 1.490 . S
C1540 C1542 1.395 . S
C1540 C1543 1.403 1_455 S
H1541 C1547 0.930 . S
C1542 H1528 0.930 . S
C1542 C1540 1.395 . S
C1542 C1545 1.403 . S
C1543 C1540 1.403 1_655 S
C1543 C1544 1.524 . S
C1543 C1547 1.400 . S
C1544 H1529 0.960 . S
C1544 H1530 0.960 . S
C1544 H1531 0.960 . S
C1544 C1543 1.524 . S
C1545 C1542 1.403 . S
C1545 C1546 1.392 1_455 S
C1545 C1549 1.495 . S
C1546 C1545 1.392 1_655 S
C1546 C1547 1.385 . S
C1546 C1548 1.478 . S
C1547 H1541 0.930 . S
C1547 C1543 1.400 . S
C1547 C1546 1.385 . S
C1548 C1546 1.478 . S
C1548 C1550 1.381 . S
C1548 C1554 1.383 . S
C1549 C1545 1.495 . S
C1549 H1555 0.959 . S
C1549 H1556 0.961 . S
C1549 H1557 0.960 . S
C1550 C1548 1.381 . S
C1550 C1551 1.394 . S
C1550 H1558 0.930 . S
C1551 C1550 1.394 . S
C1551 C1552 1.383 . S
C1551 H1559 0.929 . S
C1552 C1551 1.383 . S
C1552 C1553 1.377 . S
C1553 H1537 0.930 . S
C1553 C1552 1.377 . S
C1553 C1554 1.379 . S
C1554 H1538 0.931 . S
C1554 C1548 1.383 . S
C1554 C1553 1.379 . S
H1555 C1549 0.959 . S
H1556 C1549 0.961 . S
H1557 C1549 0.960 . S
H1558 C1550 0.930 . S
H1559 C1551 0.929 . S
H1560 C1568 0.929 . S
H1561 C1570 0.930 . S
H1562 C1572 0.930 . S
H1563 C1575 0.929 . S
H1564 C1578 0.930 . S
H1565 C1580 0.960 . S
H1566 C1580 0.960 . S
H1567 C1580 0.960 . S
C1568 H1560 0.929 . S
C1568 C1569 1.377 . S
C1568 C1570 1.384 . S
C1569 C1568 1.377 . S
C1569 C1575 1.390 . S
C1570 H1561 0.930 . S
C1570 C1568 1.384 . S
C1570 C1571 1.372 . S
C1571 C1570 1.372 . S
C1571 C1572 1.400 . S
C1571 C1576 1.490 . S
C1572 H1562 0.930 . S
C1572 C1571 1.400 . S
C1572 C1575 1.386 . S
H1573 C1589 0.930 . S
H1574 C1590 0.931 . S
C1575 H1563 0.929 . S
C1575 C1569 1.390 . S
C1575 C1572 1.386 . S
C1576 C1571 1.490 . S
C1576 C1578 1.395 . S
C1576 C1579 1.403 . S
H1577 C1583 0.930 . S
C1578 H1564 0.930 . S
C1578 C1576 1.395 . S
C1578 C1581 1.403 . S
C1579 C1576 1.403 . S
C1579 C1580 1.524 . S
C1579 C1583 1.400 . S
C1580 H1565 0.960 . S
C1580 H1566 0.960 . S
C1580 H1567 0.960 . S
C1580 C1579 1.524 . S
C1581 C1578 1.403 . S
C1581 C1582 1.392 . S
C1581 C1585 1.495 . S
C1582 C1581 1.392 . S
C1582 C1583 1.385 . S
C1582 C1584 1.478 . S
C1583 H1577 0.930 . S
C1583 C1579 1.400 . S
C1583 C1582 1.385 . S
C1584 C1582 1.478 . S
C1584 C1586 1.381 . S
C1584 C1590 1.383 . S
C1585 C1581 1.495 . S
C1585 H1591 0.959 . S
C1585 H1592 0.961 . S
C1585 H1593 0.960 . S
C1586 C1584 1.381 . S
C1586 C1587 1.394 . S
C1586 H1594 0.930 . S
C1587 C1586 1.394 . S
C1587 C1588 1.383 . S
C1587 H1595 0.929 . S
C1588 C1587 1.383 . S
C1588 C1589 1.377 . S
C1589 H1573 0.930 . S
C1589 C1588 1.377 . S
C1589 C1590 1.379 . S
C1590 H1574 0.931 . S
C1590 C1584 1.383 . S
C1590 C1589 1.379 . S
H1591 C1585 0.959 . S
H1592 C1585 0.961 . S
H1593 C1585 0.960 . S
H1594 C1586 0.930 . S
H1595 C1587 0.929 . S
H1596 C1604 0.929 . S
H1597 C1606 0.930 . S
H1598 C1608 0.930 . S
H1599 C1611 0.929 . S
H1600 C1614 0.930 . S
H1601 C1616 0.960 . S
H1602 C1616 0.960 . S
H1603 C1616 0.960 . S
C1604 H1596 0.929 . S
C1604 C1605 1.377 . S
C1604 C1606 1.384 . S
C1605 C1604 1.377 . S
C1605 C1611 1.390 . S
C1606 H1597 0.930 . S
C1606 C1604 1.384 . S
C1606 C1607 1.372 . S
C1607 C1606 1.372 . S
C1607 C1608 1.400 . S
C1607 C1612 1.490 . S
C1608 H1598 0.930 . S
C1608 C1607 1.400 . S
C1608 C1611 1.386 . S
H1609 C1625 0.930 . S
H1610 C1626 0.931 . S
C1611 H1599 0.929 . S
C1611 C1605 1.390 . S
C1611 C1608 1.386 . S
C1612 C1607 1.490 . S
C1612 C1614 1.395 . S
C1612 C1615 1.403 . S
H1613 C1619 0.930 . S
C1614 H1600 0.930 . S
C1614 C1612 1.395 . S
C1614 C1617 1.403 . S
C1615 C1612 1.403 . S
C1615 C1616 1.524 . S
C1615 C1619 1.400 . S
C1616 H1601 0.960 . S
C1616 H1602 0.960 . S
C1616 H1603 0.960 . S
C1616 C1615 1.524 . S
C1617 C1614 1.403 . S
C1617 C1618 1.392 . S
C1617 C1621 1.495 . S
C1618 C1617 1.392 . S
C1618 C1619 1.385 . S
C1618 C1620 1.478 . S
C1619 H1613 0.930 . S
C1619 C1615 1.400 . S
C1619 C1618 1.385 . S
C1620 C1618 1.478 . S
C1620 C1622 1.381 . S
C1620 C1626 1.383 . S
C1621 C1617 1.495 . S
C1621 H1627 0.959 . S
C1621 H1628 0.961 . S
C1621 H1629 0.960 . S
C1622 C1620 1.381 . S
C1622 C1623 1.394 . S
C1622 H1630 0.930 . S
C1623 C1622 1.394 . S
C1623 C1624 1.383 . S
C1623 H1631 0.929 . S
C1624 C1623 1.383 . S
C1624 C1625 1.377 . S
C1625 H1609 0.930 . S
C1625 C1624 1.377 . S
C1625 C1626 1.379 . S
C1626 H1610 0.931 . S
C1626 C1620 1.383 . S
C1626 C1625 1.379 . S
H1627 C1621 0.959 . S
H1628 C1621 0.961 . S
H1629 C1621 0.960 . S
H1630 C1622 0.930 . S
H1631 C1623 0.929 . S
H1632 C1640 0.929 . S
H1633 C1642 0.930 . S
H1634 C1644 0.930 . S
H1635 C1647 0.929 . S
H1636 C1650 0.930 . S
H1637 C1652 0.960 . S
H1638 C1652 0.960 . S
H1639 C1652 0.960 . S
C1640 H1632 0.929 . S
C1640 C1641 1.377 . S
C1640 C1642 1.384 . S
C1641 C1640 1.377 . S
C1641 C1647 1.390 . S
C1642 H1633 0.930 . S
C1642 C1640 1.384 . S
C1642 C1643 1.372 . S
C1643 C1642 1.372 . S
C1643 C1644 1.400 . S
C1643 C1648 1.490 . S
C1644 H1634 0.930 . S
C1644 C1643 1.400 . S
C1644 C1647 1.386 . S
H1645 C1661 0.930 . S
H1646 C1662 0.931 . S
C1647 H1635 0.929 . S
C1647 C1641 1.390 . S
C1647 C1644 1.386 . S
C1648 C1643 1.490 . S
C1648 C1650 1.395 . S
C1648 C1651 1.403 . S
H1649 C1655 0.930 . S
C1650 H1636 0.930 . S
C1650 C1648 1.395 . S
C1650 C1653 1.403 . S
C1651 C1648 1.403 . S
C1651 C1652 1.524 . S
C1651 C1655 1.400 . S
C1652 H1637 0.960 . S
C1652 H1638 0.960 . S
C1652 H1639 0.960 . S
C1652 C1651 1.524 . S
C1653 C1650 1.403 . S
C1653 C1654 1.392 . S
C1653 C1657 1.495 . S
C1654 C1653 1.392 . S
C1654 C1655 1.385 . S
C1654 C1656 1.478 . S
C1655 H1649 0.930 . S
C1655 C1651 1.400 . S
C1655 C1654 1.385 . S
C1656 C1654 1.478 . S
C1656 C1658 1.381 . S
C1656 C1662 1.383 . S
C1657 C1653 1.495 . S
C1657 H1663 0.959 . S
C1657 H1664 0.961 . S
C1657 H1665 0.960 . S
C1658 C1656 1.381 . S
C1658 C1659 1.394 . S
C1658 H1666 0.930 . S
C1659 C1658 1.394 . S
C1659 C1660 1.383 . S
C1659 H1667 0.929 . S
C1660 C1659 1.383 . S
C1660 C1661 1.377 . S
C1661 H1645 0.930 . S
C1661 C1660 1.377 . S
C1661 C1662 1.379 . S
C1662 H1646 0.931 . S
C1662 C1656 1.383 . S
C1662 C1661 1.379 . S
H1663 C1657 0.959 . S
H1664 C1657 0.961 . S
H1665 C1657 0.960 . S
H1666 C1658 0.930 . S
H1667 C1659 0.929 . S
H1668 C1676 0.929 . S
H1669 C1678 0.930 . S
H1670 C1680 0.930 . S
H1671 C1683 0.929 . S
H1672 C1686 0.930 . S
H1673 C1688 0.960 . S
H1674 C1688 0.960 . S
H1675 C1688 0.960 . S
C1676 H1668 0.929 . S
C1676 C1677 1.377 . S
C1676 C1678 1.384 . S
C1677 C1676 1.377 . S
C1677 C1683 1.390 . S
C1678 H1669 0.930 . S
C1678 C1676 1.384 . S
C1678 C1679 1.372 . S
C1679 C1678 1.372 . S
C1679 C1680 1.400 . S
C1679 C1684 1.490 . S
C1680 H1670 0.930 . S
C1680 C1679 1.400 . S
C1680 C1683 1.386 . S
H1681 C1697 0.930 . S
H1682 C1698 0.931 . S
C1683 H1671 0.929 . S
C1683 C1677 1.390 . S
C1683 C1680 1.386 . S
C1684 C1679 1.490 . S
C1684 C1686 1.395 . S
C1684 C1687 1.403 . S
H1685 C1691 0.930 . S
C1686 H1672 0.930 . S
C1686 C1684 1.395 . S
C1686 C1689 1.403 . S
C1687 C1684 1.403 . S
C1687 C1688 1.524 . S
C1687 C1691 1.400 . S
C1688 H1673 0.960 . S
C1688 H1674 0.960 . S
C1688 H1675 0.960 . S
C1688 C1687 1.524 . S
C1689 C1686 1.403 . S
C1689 C1690 1.392 . S
C1689 C1693 1.495 . S
C1690 C1689 1.392 . S
C1690 C1691 1.385 . S
C1690 C1692 1.478 . S
C1691 H1685 0.930 . S
C1691 C1687 1.400 . S
C1691 C1690 1.385 . S
C1692 C1690 1.478 . S
C1692 C1694 1.381 . S
C1692 C1698 1.383 . S
C1693 C1689 1.495 . S
C1693 H1699 0.959 . S
C1693 H1700 0.961 . S
C1693 H1701 0.960 . S
C1694 C1692 1.381 . S
C1694 C1695 1.394 . S
C1694 H1702 0.930 . S
C1695 C1694 1.394 . S
C1695 C1696 1.383 . S
C1695 H1703 0.929 . S
C1696 C1695 1.383 . S
C1696 C1697 1.377 . S
C1697 H1681 0.930 . S
C1697 C1696 1.377 . S
C1697 C1698 1.379 . S
C1698 H1682 0.931 . S
C1698 C1692 1.383 . S
C1698 C1697 1.379 . S
H1699 C1693 0.959 . S
H1700 C1693 0.961 . S
H1701 C1693 0.960 . S
H1702 C1694 0.930 . S
H1703 C1695 0.929 . S
H1704 C1712 0.929 . S
H1705 C1714 0.930 . S
H1706 C1716 0.930 . S
H1707 C1719 0.929 . S
H1708 C1722 0.930 . S
H1709 C1724 0.960 . S
H1710 C1724 0.960 . S
H1711 C1724 0.960 . S
C1712 H1704 0.929 . S
C1712 C1713 1.377 . S
C1712 C1714 1.384 . S
C1713 C1712 1.377 . S
C1713 C1719 1.390 . S
C1714 H1705 0.930 . S
C1714 C1712 1.384 . S
C1714 C1715 1.372 . S
C1715 C1714 1.372 . S
C1715 C1716 1.400 . S
C1715 C1720 1.490 . S
C1716 H1706 0.930 . S
C1716 C1715 1.400 . S
C1716 C1719 1.386 . S
H1717 C1733 0.930 . S
H1718 C1734 0.931 . S
C1719 H1707 0.929 . S
C1719 C1713 1.390 . S
C1719 C1716 1.386 . S
C1720 C1715 1.490 . S
C1720 C1722 1.395 . S
C1720 C1723 1.403 . S
H1721 C1727 0.930 . S
C1722 H1708 0.930 . S
C1722 C1720 1.395 . S
C1722 C1725 1.403 . S
C1723 C1720 1.403 . S
C1723 C1724 1.524 . S
C1723 C1727 1.400 . S
C1724 H1709 0.960 . S
C1724 H1710 0.960 . S
C1724 H1711 0.960 . S
C1724 C1723 1.524 . S
C1725 C1722 1.403 . S
C1725 C1726 1.392 . S
C1725 C1729 1.495 . S
C1726 C1725 1.392 . S
C1726 C1727 1.385 . S
C1726 C1728 1.478 . S
C1727 H1721 0.930 . S
C1727 C1723 1.400 . S
C1727 C1726 1.385 . S
C1728 C1726 1.478 . S
C1728 C1730 1.381 . S
C1728 C1734 1.383 . S
C1729 C1725 1.495 . S
C1729 H1735 0.959 . S
C1729 H1736 0.961 . S
C1729 H1737 0.960 . S
C1730 C1728 1.381 . S
C1730 C1731 1.394 . S
C1730 H1738 0.930 . S
C1731 C1730 1.394 . S
C1731 C1732 1.383 . S
C1731 H1739 0.929 . S
C1732 C1731 1.383 . S
C1732 C1733 1.377 . S
C1733 H1717 0.930 . S
C1733 C1732 1.377 . S
C1733 C1734 1.379 . S
C1734 H1718 0.931 . S
C1734 C1728 1.383 . S
C1734 C1733 1.379 . S
H1735 C1729 0.959 . S
H1736 C1729 0.961 . S
H1737 C1729 0.960 . S
H1738 C1730 0.930 . S
H1739 C1731 0.929 . S
H1740 C1748 0.929 . S
H1741 C1750 0.930 . S
H1742 C1752 0.930 . S
H1743 C1755 0.929 . S
H1744 C1758 0.930 . S
H1745 C1760 0.960 . S
H1746 C1760 0.960 . S
H1747 C1760 0.960 . S
C1748 H1740 0.929 . S
C1748 C1749 1.377 . S
C1748 C1750 1.384 . S
C1749 C1748 1.377 . S
C1749 C1755 1.390 . S
C1750 H1741 0.930 . S
C1750 C1748 1.384 . S
C1750 C1751 1.372 . S
C1751 C1750 1.372 . S
C1751 C1752 1.400 . S
C1751 C1756 1.490 . S
C1752 H1742 0.930 . S
C1752 C1751 1.400 . S
C1752 C1755 1.386 . S
H1753 C1769 0.930 . S
H1754 C1770 0.931 . S
C1755 H1743 0.929 . S
C1755 C1749 1.390 . S
C1755 C1752 1.386 . S
C1756 C1751 1.490 . S
C1756 C1758 1.395 . S
C1756 C1759 1.403 . S
H1757 C1763 0.930 . S
C1758 H1744 0.930 . S
C1758 C1756 1.395 . S
C1758 C1761 1.403 . S
C1759 C1756 1.403 . S
C1759 C1760 1.524 . S
C1759 C1763 1.400 . S
C1760 H1745 0.960 . S
C1760 H1746 0.960 . S
C1760 H1747 0.960 . S
C1760 C1759 1.524 . S
C1761 C1758 1.403 . S
C1761 C1762 1.392 . S
C1761 C1765 1.495 . S
C1762 C1761 1.392 . S
C1762 C1763 1.385 . S
C1762 C1764 1.478 . S
C1763 H1757 0.930 . S
C1763 C1759 1.400 . S
C1763 C1762 1.385 . S
C1764 C1762 1.478 . S
C1764 C1766 1.381 . S
C1764 C1770 1.383 . S
C1765 C1761 1.495 . S
C1765 H1771 0.959 . S
C1765 H1772 0.961 . S
C1765 H1773 0.960 . S
C1766 C1764 1.381 . S
C1766 C1767 1.394 . S
C1766 H1774 0.930 . S
C1767 C1766 1.394 . S
C1767 C1768 1.383 . S
C1767 H1775 0.929 . S
C1768 C1767 1.383 . S
C1768 C1769 1.377 . S
C1769 H1753 0.930 . S
C1769 C1768 1.377 . S
C1769 C1770 1.379 . S
C1770 H1754 0.931 . S
C1770 C1764 1.383 . S
C1770 C1769 1.379 . S
H1771 C1765 0.959 . S
H1772 C1765 0.961 . S
H1773 C1765 0.960 . S
H1774 C1766 0.930 . S
H1775 C1767 0.929 . S
C489 C9 0.975 . S
C508 C329 0.989 . S
C525 C49 0.983 . S
C544 C369 0.991 . S
C561 C89 0.973 . S
C580 C409 0.966 . S
C597 C449 0.982 . S
C616 C129 0.977 . S
C633 C169 0.982 . S
C652 C249 0.981 . S
C669 C289 0.974 . S
C688 C209 0.952 . S
C705 C415 1.585 . S
C724 C15 1.593 . S
C741 C455 1.586 . S
C760 C55 1.609 . S
C777 C95 1.587 . S
C796 C255 1.607 . S
C813 C295 1.587 . S
C832 C135 1.607 . S
C849 C335 1.579 . S
C868 C175 1.576 . S
C885 C215 1.585 . S
C904 C375 1.606 . S
C921 C299 4.141 . S
C940 C19 4.138 . S
C957 C339 4.140 . S
C976 C59 4.143 . S
C993 C379 4.142 . S
C1012 C99 4.127 . S
C1029 C139 4.143 . S
C1048 C419 4.128 . S
C1065 C179 4.139 . S
C1084 C459 4.143 . S
C1101 C219 4.143 . S
C1120 C259 4.127 . S
C1137 C18 0.858 . S
C1156 C138 0.876 . S
C1173 C58 0.858 . S
C1192 C178 0.802 . S
C1209 C98 0.844 . S
C1228 C218 0.826 . S
C1245 C378 0.847 . S
C1264 C258 0.816 . S
C1281 C298 0.837 . S
C1300 C418 0.892 . S
C1317 C458 0.838 . S
C1336 C338 0.874 . S
C1353 C286 0.726 . S
C1372 C6 0.713 . S
C1389 C326 0.739 . S
C1408 C46 0.778 . S
C1425 C86 0.737 . S
C1444 C366 0.745 . S
C1461 C406 0.742 . S
C1480 C126 0.789 . S
C1497 C446 0.737 . S
C1516 C166 0.770 . S
C1533 C206 0.724 . S
C1552 C246 0.701 . S
C1569 C10 4.719 . S
C1588 C410 4.716 . S
C1605 C50 4.720 . S
C1624 C450 4.716 1_556 S
C1641 C90 4.720 1_554 S
C1660 C250 4.714 . S
C1677 C130 4.719 . S
C1696 C290 4.714 . S
C1713 C170 4.719 . S
C1732 C330 4.716 1_556 S
C1749 C370 4.720 . S
C1768 C210 4.713 1_554 S
