# Generated by pormake.
# Topology wht, (6)-cn, num edge types: 1
# Building blocks:
#     Node 0, Type 0, BuildingBlock: IZENUY_clean_sbu_0, # of connection points: 6
#     Node 1, Type 0, BuildingBlock: IZENUY_clean_sbu_0, # of connection points: 6
#     Node 2, Type 0, BuildingBlock: IZENUY_clean_sbu_0, # of connection points: 6
#     Node 3, Type 0, BuildingBlock: IZENUY_clean_sbu_0, # of connection points: 6
#     Node 4, Type 0, BuildingBlock: IZENUY_clean_sbu_0, # of connection points: 6
#     Node 5, Type 0, BuildingBlock: IZENUY_clean_sbu_0, # of connection points: 6
#     Node 6, Type 0, BuildingBlock: IZENUY_clean_sbu_0, # of connection points: 6
#     Node 7, Type 0, BuildingBlock: IZENUY_clean_sbu_0, # of connection points: 6
#     Edge 8, Type (0, 0), BuildingBlock: CIFDUS_clean_linker_0, # of connection points: 2
#     Edge 9, Type (0, 0), BuildingBlock: CIFDUS_clean_linker_0, # of connection points: 2
#     Edge 10, Type (0, 0), BuildingBlock: CIFDUS_clean_linker_0, # of connection points: 2
#     Edge 11, Type (0, 0), BuildingBlock: CIFDUS_clean_linker_0, # of connection points: 2
#     Edge 12, Type (0, 0), BuildingBlock: CIFDUS_clean_linker_0, # of connection points: 2
#     Edge 13, Type (0, 0), BuildingBlock: CIFDUS_clean_linker_0, # of connection points: 2
#     Edge 14, Type (0, 0), BuildingBlock: CIFDUS_clean_linker_0, # of connection points: 2
#     Edge 15, Type (0, 0), BuildingBlock: CIFDUS_clean_linker_0, # of connection points: 2
#     Edge 16, Type (0, 0), BuildingBlock: CIFDUS_clean_linker_0, # of connection points: 2
#     Edge 17, Type (0, 0), BuildingBlock: CIFDUS_clean_linker_0, # of connection points: 2
#     Edge 18, Type (0, 0), BuildingBlock: CIFDUS_clean_linker_0, # of connection points: 2
#     Edge 19, Type (0, 0), BuildingBlock: CIFDUS_clean_linker_0, # of connection points: 2
#     Edge 20, Type (0, 0), BuildingBlock: CIFDUS_clean_linker_0, # of connection points: 2
#     Edge 21, Type (0, 0), BuildingBlock: CIFDUS_clean_linker_0, # of connection points: 2
#     Edge 22, Type (0, 0), BuildingBlock: CIFDUS_clean_linker_0, # of connection points: 2
#     Edge 23, Type (0, 0), BuildingBlock: CIFDUS_clean_linker_0, # of connection points: 2
#     Edge 24, Type (0, 0), BuildingBlock: CIFDUS_clean_linker_0, # of connection points: 2
#     Edge 25, Type (0, 0), BuildingBlock: CIFDUS_clean_linker_0, # of connection points: 2
#     Edge 26, Type (0, 0), BuildingBlock: CIFDUS_clean_linker_0, # of connection points: 2
#     Edge 27, Type (0, 0), BuildingBlock: CIFDUS_clean_linker_0, # of connection points: 2
#     Edge 28, Type (0, 0), BuildingBlock: CIFDUS_clean_linker_0, # of connection points: 2
#     Edge 29, Type (0, 0), BuildingBlock: CIFDUS_clean_linker_0, # of connection points: 2
#     Edge 30, Type (0, 0), BuildingBlock: CIFDUS_clean_linker_0, # of connection points: 2
#     Edge 31, Type (0, 0), BuildingBlock: CIFDUS_clean_linker_0, # of connection points: 2
# Relax obj value: 0.256
# Max RMSD: 0.239
# Mean RMSD: 0.239
data_MOF--net-wht--node1-IZENUY_clean_sbu_0--edge1-CIFDUS_clean_linker_0
_symmetry_space_group_name_H-M    P1
_symmetry_Int_Tables_number       1
_symmetry_cell_setting            triclinic
loop_
_symmetry_equiv_pos_as_xyz
'x, y, z'
_cell_length_a     22.912411
_cell_length_b     22.825479
_cell_length_c     41.30922
_cell_angle_alpha  89.405109
_cell_angle_beta   89.716818
_cell_angle_gamma 90.114297
loop_
_atom_site_label
_atom_site_type_symbol
_atom_site_fract_x
_atom_site_fract_y
_atom_site_fract_z
_atom_type_partial_charge
Fe0 Fe 0.07066 0.21153 0.13736 0.0
Fe1 Fe 0.18565 0.27767 0.14712 0.0
O2 O 0.10922 0.27181 0.15307 0.0
Fe3 Fe 0.0705 0.32674 0.1742 0.0
O4 O 0.027 0.34361 0.13902 0.0
O5 O 1.00294 0.25235 0.12975 0.0
O6 O 0.09178 0.23104 0.09677 0.0
C7 C 0.14333 0.23789 0.08678 0.0
C8 C 1.01587 0.22019 0.19531 0.0
O9 O 0.18515 0.24431 0.10651 0.0
C10 C 0.16694 0.31704 0.2119 0.0
O11 O 0.13127 0.15957 0.14139 0.0
O12 O 0.19964 0.20807 0.16687 0.0
O13 O 1.0145 0.27557 0.19123 0.0
O14 O 0.04721 0.18903 0.17725 0.0
C15 C 0.1557 0.39214 0.13806 0.0
O16 O 0.19864 0.31291 0.18663 0.0
O17 O 0.11219 0.31307 0.21023 0.0
C18 C 0.17774 0.16043 0.15779 0.0
O19 O 0.17821 0.34689 0.12641 0.0
O20 O 0.11934 0.38807 0.16134 0.0
C21 C 0.99658 0.30661 0.12424 0.0
Fe22 Fe 0.25527 0.68228 0.40236 0.0
Fe23 Fe 0.21337 0.5598 0.42485 0.0
O24 O 0.26409 0.60519 0.40391 0.0
Fe25 Fe 0.32368 0.57243 0.38368 0.0
O26 O 0.29674 0.59787 0.34513 0.0
O27 O 0.28147 0.68911 0.36032 0.0
O28 O 0.18412 0.67598 0.38494 0.0
C29 C 0.14155 0.64652 0.39519 0.0
C30 C 0.37285 0.68157 0.40329 0.0
O31 O 0.14865 0.60594 0.41603 0.0
C32 C 0.32464 0.5109 0.44005 0.0
O33 O 0.22534 0.68726 0.44392 0.0
O34 O 0.22674 0.59637 0.46246 0.0
O35 O 0.3721 0.63608 0.38617 0.0
O36 O 0.32769 0.6959 0.41884 0.0
C37 C 0.23339 0.49303 0.37175 0.0
O38 O 0.26941 0.50591 0.43772 0.0
O39 O 0.35262 0.54559 0.42161 0.0
C40 C 0.2221 0.65055 0.46724 0.0
O41 O 0.19618 0.52012 0.38833 0.0
O42 O 0.28712 0.50249 0.37585 0.0
C43 C 0.28634 0.6509 0.33834 0.0
Fe44 Fe 0.96078 0.85289 0.64033 0.0
Fe45 Fe 0.8562 0.77519 0.65952 0.0
O46 O 0.93289 0.78674 0.65731 0.0
Fe47 Fe 0.98219 0.73229 0.67122 0.0
O48 O 1.01683 0.72708 0.63171 0.0
O49 O 0.02867 0.82149 0.62479 0.0
O50 O 0.92824 0.83672 0.60178 0.0
C51 C 0.87463 0.82688 0.59784 0.0
C52 C 0.03092 0.83996 0.69273 0.0
O53 O 0.84105 0.81421 0.62133 0.0
C54 C 0.89862 0.72585 0.71881 0.0
O55 O 0.89818 0.89767 0.65191 0.0
O56 O 0.84419 0.84104 0.68303 0.0
O57 O 0.03618 0.78592 0.68609 0.0
O58 O 0.99488 0.87221 0.67802 0.0
C59 C 0.8924 0.66558 0.64095 0.0
O60 O 0.85862 0.73329 0.698 0.0
O61 O 0.95148 0.73325 0.7114 0.0
C62 C 0.85787 0.89133 0.67259 0.0
O63 O 0.86079 0.70958 0.63566 0.0
O64 O 0.93638 0.66913 0.65942 0.0
C65 C 0.03952 0.76958 0.61654 0.0
Fe66 Fe 0.82354 0.47167 0.92137 0.0
Fe67 Fe 0.7013 0.46104 0.893 0.0
O68 O 0.76737 0.42744 0.90493 0.0
Fe69 Fe 0.77723 0.35086 0.90031 0.0
O70 O 0.84191 0.36126 0.87572 0.0
O71 O 0.88464 0.42657 0.90605 0.0
O72 O 0.82888 0.51436 0.88418 0.0
C73 C 0.78647 0.5412 0.87157 0.0
C74 C 0.82667 0.37613 0.96185 0.0
O75 O 0.73495 0.5314 0.88143 0.0
C76 C 0.66238 0.3512 0.91799 0.0
O77 O 0.77298 0.52502 0.94043 0.0
O78 O 0.68714 0.48399 0.93376 0.0
O79 O 0.81979 0.34258 0.93779 0.0
O80 O 0.82131 0.431 0.95903 0.0
C81 C 0.71977 0.38736 0.84283 0.0
O82 O 0.65524 0.39742 0.90148 0.0
O83 O 0.71278 0.33238 0.9241 0.0
C84 C 0.72025 0.51748 0.94915 0.0
O85 O 0.71151 0.43919 0.85184 0.0
O86 O 0.73656 0.34737 0.86216 0.0
C87 C 0.88722 0.38796 0.8842 0.0
Fe88 Fe 0.5943 0.22624 0.57348 0.0
Fe89 Fe 0.60202 0.34094 0.6108 0.0
O90 O 0.6369 0.2796 0.5935 0.0
Fe91 Fe 0.71357 0.27124 0.59725 0.0
O92 O 0.70482 0.2024 0.61831 0.0
O93 O 0.63981 0.16307 0.58624 0.0
O94 O 0.55123 0.21205 0.60956 0.0
C95 C 0.52294 0.24974 0.62511 0.0
C96 C 0.68948 0.22899 0.53351 0.0
O97 O 0.53213 0.3037 0.61988 0.0
C98 C 0.70946 0.38908 0.5877 0.0
O99 O 0.54126 0.28041 0.55708 0.0
O100 O 0.57785 0.36549 0.57165 0.0
O101 O 0.72279 0.23489 0.55778 0.0
O102 O 0.63509 0.23588 0.53626 0.0
C103 C 0.67738 0.31049 0.65862 0.0
O104 O 0.66468 0.39037 0.60571 0.0
O105 O 0.72887 0.34108 0.57725 0.0
C106 C 0.54697 0.33548 0.55291 0.0
O107 O 0.62509 0.31901 0.65059 0.0
O108 O 0.71717 0.30438 0.63752 0.0
C109 C 0.6769 0.15841 0.60888 0.0
Fe110 Fe 0.29224 0.21175 0.84464 0.0
Fe111 Fe 0.33311 0.08846 0.82624 0.0
O112 O 0.27954 0.13507 0.84335 0.0
Fe113 Fe 0.21405 0.10513 0.85959 0.0
O114 O 0.20846 0.15842 0.89225 0.0
O115 O 0.2889 0.21103 0.88859 0.0
O116 O 0.37125 0.20537 0.84851 0.0
C117 C 0.40121 0.16423 0.86052 0.0
C118 C 0.16915 0.20544 0.83379 0.0
O119 O 0.38783 0.11146 0.85548 0.0
C120 C 0.23261 0.04049 0.80226 0.0
O121 O 0.29756 0.21713 0.80057 0.0
O122 O 0.35786 0.14256 0.79605 0.0
O123 O 0.16884 0.15009 0.83303 0.0
O124 O 0.21495 0.23259 0.84192 0.0
C125 C 0.29361 1.02341 0.8808 0.0
O126 O 0.28191 0.0628 0.79607 0.0
O127 O 0.20868 0.04617 0.82975 0.0
C128 C 0.3337 0.18773 0.78409 0.0
O129 O 0.31824 0.02566 0.85332 0.0
O130 O 0.25363 0.05892 0.88788 0.0
C131 C 0.24644 0.19125 0.90491 0.0
Fe132 Fe 0.34719 0.77899 0.10004 0.0
Fe133 Fe 0.46353 0.83121 0.07546 0.0
O134 O 0.42389 0.77368 0.0949 0.0
Fe135 Fe 0.4615 0.71162 0.10992 0.0
O136 O 0.43754 0.72498 0.15058 0.0
O137 O 0.34505 0.73981 0.13917 0.0
O138 O 0.35464 0.84525 0.12287 0.0
C139 C 0.37806 0.89171 0.11262 0.0
C140 C 0.35436 0.66305 0.08676 0.0
O141 O 0.4148 0.89049 0.08953 0.0
C142 C 0.52047 0.72735 0.05357 0.0
O143 O 0.33589 0.81992 0.06179 0.0
O144 O 0.42241 0.82296 0.03835 0.0
O145 O 0.40104 0.66013 0.10301 0.0
O146 O 0.33345 0.71187 0.07824 0.0
C147 C 0.53543 0.80556 0.12653 0.0
O148 O 0.51999 0.78244 0.05786 0.0
O149 O 0.48796 0.6942 0.0702 0.0
C150 C 0.36762 0.82846 0.03684 0.0
O151 O 0.50627 0.84382 0.11152 0.0
O152 O 0.52865 0.75169 0.12041 0.0
C153 C 0.38502 0.72808 0.15924 0.0
Fe154 Fe 0.83111 0.94472 0.36571 0.0
Fe155 Fe 0.75598 0.83734 0.35179 0.0
O156 O 0.76807 0.91381 0.34829 0.0
Fe157 Fe 0.71673 0.95946 0.32835 0.0
O158 O 0.70533 1.00266 0.36432 0.0
O159 O 0.79776 1.01584 0.37534 0.0
O160 O 0.80887 0.92031 0.40566 0.0
C161 C 0.79996 0.86732 0.41302 0.0
C162 C 0.82776 1.00382 0.30819 0.0
O163 O 0.79172 0.82954 0.3913 0.0
C164 C 0.71401 0.86509 0.28837 0.0
O165 O 0.87665 0.87946 0.35969 0.0
O166 O 0.82312 0.82034 0.33043 0.0
O167 O 0.77298 1.01093 0.31183 0.0
O168 O 0.85612 0.97033 0.32672 0.0
C169 C 0.64698 0.87938 0.36495 0.0
O170 O 0.71698 0.8313 0.31293 0.0
O171 O 0.72376 0.9192 0.29101 0.0
C172 C 0.87225 0.83627 0.34084 0.0
O173 O 0.68955 0.84906 0.37415 0.0
O174 O 0.65214 0.91558 0.34148 0.0
C175 C 0.74465 0.02862 0.37982 0.0
H176 H 1.01175 0.10421 0.20927 0.0
H177 H 0.92703 0.26739 0.2322 0.0
H178 H 0.85747 0.21462 0.26729 0.0
H179 H 0.82182 0.12098 0.29232 0.0
H180 H 0.911 0.96025 0.26956 0.0
H181 H 0.97678 1.01304 0.233 0.0
C182 C 0.97814 0.12859 0.22186 0.0
C183 C 0.97482 0.18985 0.218 0.0
C184 C 0.93849 0.09811 0.24179 0.0
C185 C 0.9309 0.22029 0.23476 0.0
C186 C 0.89089 0.19006 0.25472 0.0
C187 C 0.85506 0.09769 0.27886 0.0
C188 C 0.86131 0.03674 0.28333 0.0
C189 C 0.89416 0.12881 0.2584 0.0
C190 C 0.90529 1.00708 0.26635 0.0
C191 C 0.94309 0.03726 0.24558 0.0
H192 H 0.44034 0.51454 0.45339 0.0
H193 H 0.2835 0.41646 0.47518 0.0
H194 H 0.33923 0.34963 0.50984 0.0
H195 H 0.43284 0.32085 0.53551 0.0
H196 H 0.58723 0.42339 0.5152 0.0
H197 H 0.53246 0.48585 0.478 0.0
C198 C 0.41818 0.47848 0.46561 0.0
C199 C 0.35776 0.47068 0.46162 0.0
C200 C 0.45029 0.44059 0.48562 0.0
C201 C 0.32994 0.42376 0.47786 0.0
C202 C 0.36183 0.38533 0.49762 0.0
C203 C 0.45441 0.35629 0.52245 0.0
C204 C 0.51395 0.36739 0.5278 0.0
C205 C 0.42208 0.39339 0.50178 0.0
C206 C 0.5414 0.41408 0.51132 0.0
C207 C 0.51011 0.44992 0.49017 0.0
H208 H 0.09812 0.93597 0.68318 0.0
H209 H 0.05215 0.80444 0.75442 0.0
H210 H 0.11116 0.8548 0.79506 0.0
H211 H 0.17216 0.93917 0.81072 0.0
H212 H 0.22545 0.06542 0.73802 0.0
H213 H 0.16772 1.01417 0.69732 0.0
C214 C 0.10157 0.91828 0.70757 0.0
C215 C 0.07072 0.86711 0.71609 0.0
C216 C 0.13671 0.94657 0.73041 0.0
C217 C 0.07579 0.84383 0.7475 0.0
C218 C 0.10925 0.8727 0.77068 0.0
C219 C 0.17134 0.95506 0.78588 0.0
C220 C 0.20237 1.00618 0.77732 0.0
C221 C 0.13933 0.92451 0.7625 0.0
C222 C 0.20187 0.02606 0.74505 0.0
C223 C 0.16873 0.99694 0.72186 0.0
H224 H 0.55491 0.61452 0.05577 0.0
H225 H 0.58757 0.77747 0.00492 0.0
H226 H 0.65928 0.72823 0.97018 0.0
H227 H 0.70719 0.6361 0.95188 0.0
H228 H 0.6699 0.47458 0.00291 0.0
H229 H 0.60627 0.52629 0.04053 0.0
C230 C 0.57753 0.63959 0.0371 0.0
C231 C 0.56511 0.69949 0.03262 0.0
C232 C 0.61844 0.61122 0.01753 0.0
C233 C 0.59592 0.73122 0.00869 0.0
C234 C 0.63698 0.70308 0.98889 0.0
C235 C 0.68633 0.61292 0.97187 0.0
C236 C 0.69361 0.55193 0.97514 0.0
C237 C 0.64812 0.64283 0.99285 0.0
C238 C 0.66531 0.52167 0.00041 0.0
C239 C 0.62858 0.55109 0.02166 0.0
H240 H 0.10907 0.33836 0.26794 0.0
H241 H 0.28117 0.34484 0.22485 0.0
H242 H 0.31822 0.39513 0.27256 0.0
H243 H 0.29907 0.44641 0.32358 0.0
H244 H 0.1251 0.44509 0.36432 0.0
H245 H 0.09143 0.38349 0.32021 0.0
C246 C 0.15493 0.35003 0.269 0.0
C247 C 0.19211 0.3384 0.24259 0.0
C248 C 0.17542 0.38042 0.29594 0.0
C249 C 0.25147 0.35347 0.24471 0.0
C250 C 0.27262 0.3825 0.27193 0.0
C251 C 0.25397 0.43192 0.32309 0.0
C252 C 0.21455 0.45056 0.34713 0.0
C253 C 0.23458 0.39764 0.29724 0.0
C254 C 0.15622 0.43167 0.34603 0.0
C255 C 0.13695 0.39646 0.32082 0.0
H256 H 0.10274 0.67156 0.60386 0.0
H257 H 0.06562 0.84508 0.56716 0.0
H258 H 0.12442 0.82628 0.51894 0.0
H259 H 0.17928 0.75737 0.485 0.0
H260 H 0.21774 0.58447 0.52255 0.0
H261 H 0.16668 0.60675 0.57268 0.0
C262 C 0.10793 0.70537 0.58542 0.0
C263 C 0.0794 0.75933 0.58893 0.0
C264 C 0.14217 0.69448 0.55783 0.0
C265 C 0.08715 0.80307 0.56503 0.0
C266 C 0.12067 0.79235 0.53739 0.0
C267 C 0.17755 0.72498 0.50438 0.0
C268 C 0.20163 0.66906 0.49968 0.0
C269 C 0.14754 0.73781 0.53324 0.0
C270 C 0.19904 0.62772 0.52523 0.0
C271 C 0.16961 0.64026 0.55395 0.0
H272 H 0.88925 0.59109 0.8526 0.0
H273 H 0.7058 0.58551 0.82963 0.0
H274 H 0.72325 0.64583 0.78142 0.0
H275 H 0.79188 0.69368 0.74339 0.0
H276 H 0.97517 0.69996 0.76725 0.0
H277 H 0.95619 0.64658 0.81743 0.0
C278 C 0.85299 0.60358 0.83725 0.0
C279 C 0.79644 0.58345 0.84464 0.0
C280 C 0.86325 0.63827 0.80951 0.0
C281 C 0.74984 0.60047 0.82458 0.0
C282 C 0.75977 0.63479 0.79688 0.0
C283 C 0.82757 0.68402 0.75973 0.0
C284 C 0.88494 0.70021 0.75115 0.0
C285 C 0.8165 0.65302 0.78874 0.0
C286 C 0.93055 0.68763 0.77289 0.0
C287 C 0.91986 0.65694 0.80168 0.0
H288 H 0.94788 0.24157 0.0769 0.0
H289 H 0.95388 0.41695 0.11495 0.0
H290 H 0.89661 0.45278 0.06923 0.0
H291 H 0.85297 0.43598 0.01635 0.0
H292 H 0.85114 0.26158 0.97672 0.0
H293 H 0.89824 0.22361 0.02546 0.0
C294 C 0.93573 0.28744 0.07551 0.0
C295 C 0.9552 0.32658 0.09923 0.0
C296 C 0.90408 0.30801 0.04876 0.0
C297 C 0.93961 0.38598 0.09693 0.0
C298 C 0.90699 0.40652 0.07077 0.0
C299 C 0.86232 0.38953 0.0184 0.0
C300 C 0.84916 0.35185 0.99269 0.0
C301 C 0.8903 0.36819 0.04617 0.0
C302 C 0.86118 0.2917 0.996 0.0
C303 C 0.88819 0.26993 0.02386 0.0
H304 H 0.62813 0.1994 0.47983 0.0
H305 H 0.80219 0.19682 0.51941 0.0
H306 H 0.83587 0.13835 0.47376 0.0
H307 H 0.8136 0.07989 0.42541 0.0
H308 H 0.63807 0.07968 0.3878 0.0
H309 H 0.60754 0.1472 0.42989 0.0
C310 C 0.6737 0.18688 0.47836 0.0
C311 C 0.71237 0.20227 0.50331 0.0
C312 C 0.69246 0.15206 0.4525 0.0
C313 C 0.77129 0.18561 0.5007 0.0
C314 C 0.79057 0.15184 0.47464 0.0
C315 C 0.76886 0.09524 0.42614 0.0
C316 C 0.72819 0.07434 0.40349 0.0
C317 C 0.75119 0.13353 0.45083 0.0
C318 C 0.67031 0.09462 0.40496 0.0
C319 C 0.65273 0.13331 0.42905 0.0
H320 H 0.37896 0.12335 0.73584 0.0
H321 H 0.33944 0.30158 0.76142 0.0
H322 H 0.39126 0.33705 0.71287 0.0
H323 H 0.45611 0.31709 0.6659 0.0
H324 H 0.49422 0.13749 0.64151 0.0
H325 H 0.4346 0.10318 0.6867 0.0
C326 C 0.38106 0.17001 0.73062 0.0
C327 C 0.35591 0.20978 0.7524 0.0
C328 C 0.41119 0.18991 0.70295 0.0
C329 C 0.35832 0.27 0.74504 0.0
C330 C 0.38835 0.29029 0.71739 0.0
C331 C 0.4507 0.27045 0.67019 0.0
C332 C 0.48028 0.23009 0.65032 0.0
C333 C 0.41623 0.25065 0.69656 0.0
C334 C 0.47246 0.16976 0.65633 0.0
C335 C 0.43835 0.14993 0.68228 0.0
H336 H 0.41924 0.84978 0.97797 0.0
H337 H 0.2575 0.87283 0.03038 0.0
H338 H 0.21937 0.93284 0.98622 0.0
H339 H 0.23458 0.98552 0.93463 0.0
H340 H 0.39532 0.96125 0.8816 0.0
H341 H 0.43082 0.89508 0.92394 0.0
C342 C 0.37535 0.86726 0.97959 0.0
C343 C 0.34167 0.85705 0.00774 0.0
C344 C 0.35354 0.90209 0.95405 0.0
C345 C 0.28465 0.87982 0.00915 0.0
C346 C 0.26279 0.91453 0.98392 0.0
C347 C 0.27719 0.96538 0.93219 0.0
C348 C 0.31235 0.97881 0.90504 0.0
C349 C 0.29731 0.92706 0.95658 0.0
C350 C 0.36723 0.95175 0.90217 0.0
C351 C 0.3877 0.91399 0.92646 0.0
H352 H 0.58505 0.7377 0.17373 0.0
H353 H 0.5779 0.91548 0.1373 0.0
H354 H 0.63688 0.94847 0.18263 0.0
H355 H 0.68399 0.92847 0.23466 0.0
H356 H 0.68767 0.75163 0.27271 0.0
H357 H 0.6372 0.71679 0.2246 0.0
C358 C 0.59716 0.78352 0.17541 0.0
C359 C 0.5769 0.82399 0.15206 0.0
C360 C 0.6302 0.80253 0.202 0.0
C361 C 0.59263 0.88332 0.15489 0.0
C362 C 0.62635 0.9023 0.18088 0.0
C363 C 0.67446 0.88214 0.23236 0.0
C364 C 0.68949 0.84287 0.25751 0.0
C365 C 0.64439 0.86252 0.20491 0.0
C366 C 0.67655 0.783 0.2539 0.0
C367 C 0.64752 0.76301 0.22637 0.0
H368 H 0.14446 0.19679 0.93682 0.0
H369 H 0.32916 0.22547 0.94871 0.0
H370 H 0.31384 0.24457 0.00652 0.0
H371 H 0.24766 0.24698 0.05418 0.0
H372 H 0.06282 0.21876 0.04006 0.0
H373 H 0.07877 0.20555 0.98261 0.0
C374 C 0.18143 0.20741 0.95202 0.0
C375 C 0.23785 0.20905 0.93876 0.0
C376 C 0.17233 0.21801 0.98488 0.0
C377 C 0.28524 0.22397 0.95851 0.0
C378 C 0.27652 0.23454 0.99153 0.0
C379 C 0.21096 0.2381 0.03849 0.0
C380 C 0.15433 0.23297 0.05163 0.0
C381 C 0.22025 0.23068 0.0051 0.0
C382 C 0.10706 0.22224 0.03085 0.0
C383 C 0.11598 0.21475 0.99787 0.0
H384 H 0.30388 0.77124 0.20066 0.0
H385 H 0.43223 0.6348 0.18935 0.0
H386 H 0.40868 0.5958 0.24295 0.0
H387 H 0.35518 0.60264 0.29347 0.0
H388 H 0.23325 0.74359 0.30835 0.0
H389 H 0.25037 0.77892 0.25275 0.0
C390 C 0.32631 0.73293 0.2101 0.0
C391 C 0.36972 0.7059 0.19149 0.0
C392 C 0.31374 0.71172 0.24136 0.0
C393 C 0.39909 0.65654 0.20365 0.0
C394 C 0.38552 0.6341 0.23413 0.0
C395 C 0.33172 0.64063 0.2844 0.0
C396 C 0.29267 0.67026 0.30458 0.0
C397 C 0.34336 0.66161 0.25323 0.0
C398 C 0.26347 0.72017 0.29295 0.0
C399 C 0.2733 0.74032 0.26131 0.0
H400 H 0.78728 0.93248 0.46676 0.0
H401 H 0.83161 0.7588 0.43448 0.0
H402 H 0.85517 0.72948 0.48988 0.0
H403 H 0.87049 0.7558 0.54684 0.0
H404 H 0.82463 0.92844 0.57931 0.0
H405 H 0.79377 0.95591 0.52445 0.0
C406 C 0.80174 0.88813 0.47196 0.0
C407 C 0.80849 0.84807 0.44669 0.0
C408 C 0.81493 0.87157 0.50378 0.0
C409 C 0.82626 0.79043 0.45363 0.0
C410 C 0.83991 0.77368 0.48523 0.0
C411 C 0.85288 0.79902 0.54174 0.0
C412 C 0.84963 0.84035 0.5664 0.0
C413 C 0.83545 0.81421 0.51035 0.0
C414 C 0.82706 0.89631 0.56022 0.0
C415 C 0.80975 0.91193 0.529 0.0
H416 H 0.6139 0.36209 0.70501 0.0
H417 H 0.77547 0.26976 0.68875 0.0
H418 H 0.80121 0.28108 0.74587 0.0
H419 H 0.77905 0.32172 0.79981 0.0
H420 H 0.62065 0.42037 0.81349 0.0
H421 H 0.59171 0.40144 0.75781 0.0
C422 C 0.6546 0.34402 0.71396 0.0
C423 C 0.69286 0.31532 0.69288 0.0
C424 C 0.66949 0.35182 0.74626 0.0
C425 C 0.74562 0.29251 0.70467 0.0
C426 C 0.76022 0.2988 0.73723 0.0
C427 C 0.73806 0.33836 0.79046 0.0
C428 C 0.70185 0.37224 0.81021 0.0
C429 C 0.72271 0.32897 0.75815 0.0
C430 C 0.64909 0.39446 0.79827 0.0
C431 C 0.63259 0.38367 0.7666 0.0
H432 H 0.28969 0.14904 0.13836 0.0
H433 H 0.14347 0.05216 0.17749 0.0
H434 H 0.19659 0.96014 0.17038 0.0
H435 H 0.27945 0.90745 0.14786 0.0
H436 H 0.42177 1.00277 0.10289 0.0
H437 H 0.37551 0.09556 0.11756 0.0
C438 C 0.27031 0.10776 0.14607 0.0
C439 C 0.21331 0.10695 0.1589 0.0
C440 C 0.29999 0.055 0.14037 0.0
C441 C 0.18758 0.05345 0.16792 0.0
C442 C 0.21778 1.00102 0.16366 0.0
C443 C 0.30098 0.94841 0.14157 0.0
C444 C 0.35402 0.94809 0.12415 0.0
C445 C 0.27328 1.00124 0.1491 0.0
C446 C 0.38085 1.00175 0.11613 0.0
C447 C 0.35439 0.05477 0.12451 0.0
H448 H 0.44671 0.74847 0.44046 0.0
H449 H 0.39311 0.71739 0.3422 0.0
H450 H 0.46571 0.78603 0.32187 0.0
H451 H 0.55293 0.84535 0.33095 0.0
H452 H 0.61543 0.8688 0.42802 0.0
H453 H 0.53137 0.81453 0.44983 0.0
C454 C 0.45065 0.75756 0.41473 0.0
C455 C 0.41474 0.72763 0.39293 0.0
C456 C 0.49442 0.79603 0.40288 0.0
C457 C 0.42039 0.73953 0.35954 0.0
C458 C 0.46198 0.77893 0.34779 0.0
C459 C 0.54683 0.84032 0.3569 0.0
C460 C 0.58946 0.86168 0.37789 0.0
C461 C 0.50028 0.80631 0.36909 0.0
C462 C 0.5824 0.85328 0.41147 0.0
C463 C 0.53473 0.8217 0.42392 0.0
H464 H 0.74473 0.13729 0.66131 0.0
H465 H 0.64806 0.0488 0.58675 0.0
H466 H 0.68805 0.95475 0.60503 0.0
H467 H 0.76056 0.90024 0.63732 0.0
H468 H 0.86393 0.99097 0.70776 0.0
H469 H 0.81012 0.08167 0.69664 0.0
C470 C 0.73176 0.09742 0.64918 0.0
C471 C 0.69407 0.10032 0.62229 0.0
C472 C 0.75589 0.04391 0.65935 0.0
C473 C 0.6772 0.048 0.60732 0.0
C474 C 0.70016 0.99421 0.61775 0.0
C475 C 0.7696 0.93945 0.65106 0.0
C476 C 0.815 0.939 0.67389 0.0
C477 C 0.74075 0.99192 0.64314 0.0
C478 C 0.8281 0.99026 0.69075 0.0
C479 C 0.79791 0.04213 0.68401 0.0
H480 H 0.41312 0.25421 0.90078 0.0
H481 H 0.50851 0.11031 0.85964 0.0
H482 H 0.60011 0.15068 0.88075 0.0
H483 H 0.65346 0.2364 0.90238 0.0
H484 H 0.55612 0.38212 0.94021 0.0
H485 H 0.46454 0.33088 0.92989 0.0
C486 C 0.45392 0.23115 0.89696 0.0
C487 C 0.4546 0.1802 0.87819 0.0
C488 C 0.5059 0.25503 0.90867 0.0
C489 C 0.50723 0.14989 0.87387 0.0
C490 C 0.5595 0.17314 0.88581 0.0
C491 C 0.6122 0.25566 0.90957 0.0
C492 C 0.61119 0.31279 0.92211 0.0
C493 C 0.55957 0.22696 0.90213 0.0
C494 C 0.55764 0.33807 0.9307 0.0
C495 C 0.50537 0.30907 0.92447 0.0
H496 H 0.80187 0.64525 0.60021 0.0
H497 H 0.93859 0.556 0.65254 0.0
H498 H 0.89887 0.46137 0.63585 0.0
H499 H 0.81843 0.40394 0.61155 0.0
H500 H 0.67842 0.49468 0.56334 0.0
H501 H 0.7267 0.5887 0.57271 0.0
C502 C 0.82353 0.60523 0.6078 0.0
C503 C 0.8729 0.60802 0.62803 0.0
C504 C 0.79979 0.55108 0.59867 0.0
C505 C 0.90041 0.55541 0.6372 0.0
C506 C 0.87762 0.50119 0.62767 0.0
C507 C 0.79973 0.44428 0.60219 0.0
C508 C 0.74562 0.4426 0.58618 0.0
C509 C 0.82652 0.49843 0.60904 0.0
C510 C 0.72054 0.49508 0.57516 0.0
C511 C 0.74785 0.54878 0.58083 0.0
H512 H 0.14845 0.31478 0.85694 0.0
H513 H 0.06202 0.16794 0.81266 0.0
H514 H 0.96734 0.21462 0.8217 0.0
H515 H 0.90889 0.29226 0.84684 0.0
H516 H 0.99549 0.43575 0.89427 0.0
H517 H 0.09033 0.39519 0.87915 0.0
C518 C 0.10909 0.29331 0.84864 0.0
C519 C 0.11263 0.23769 0.83407 0.0
C520 C 0.05469 0.31952 0.85487 0.0
C521 C 0.06081 0.2106 0.82389 0.0
C522 C 1.00658 0.2372 0.82921 0.0
C523 C 0.94841 0.31523 0.85358 0.0
C524 C 0.94475 0.36704 0.87192 0.0
C525 C 1.00292 0.29092 0.84542 0.0
C526 C 0.99672 0.39581 0.88035 0.0
C527 C 0.05107 0.37255 0.87172 0.0
H528 H 0.24745 0.65124 0.1139 0.0
H529 H 0.37981 0.55671 0.0617 0.0
H530 H 0.32593 0.46501 0.07041 0.0
H531 H 0.24707 0.41112 0.09717 0.0
H532 H 0.11921 0.50314 0.15442 0.0
H533 H 0.16531 0.59668 0.13941 0.0
C534 C 0.26343 0.61067 0.10369 0.0
C535 C 0.31672 0.61058 0.08651 0.0
C536 C 0.23359 0.55778 0.11023 0.0
C537 C 0.33835 0.55771 0.07442 0.0
C538 C 0.3078 0.50537 0.07966 0.0
C539 C 0.22861 0.45153 0.10621 0.0
C540 C 0.17962 0.44982 0.1271 0.0
C541 C 0.25623 0.50473 0.09822 0.0
C542 C 0.15685 0.50295 0.13846 0.0
C543 C 0.18326 0.55646 0.12987 0.0
H544 H 0.88462 0.74085 0.37873 0.0
H545 H 0.97017 0.8425 0.30392 0.0
H546 H 0.06004 0.78605 0.31178 0.0
H547 H 0.1165 0.71676 0.34412 0.0
H548 H 0.03432 0.62021 0.42243 0.0
H549 H 0.94023 0.66504 0.40879 0.0
C550 C 0.92262 0.74924 0.3636 0.0
C551 C 0.92104 0.79475 0.34037 0.0
C552 C 0.97459 0.71819 0.36925 0.0
C553 C 0.97053 0.80684 0.32145 0.0
C554 C 0.02183 0.77495 0.32617 0.0
C555 C 0.07799 0.70493 0.35813 0.0
C556 C 0.08269 0.66576 0.38464 0.0
C557 C 0.02478 0.73189 0.35068 0.0
C558 C 0.03204 0.65033 0.40205 0.0
C559 C 0.97833 0.67618 0.39432 0.0
loop_
_geom_bond_atom_site_label_1
_geom_bond_atom_site_label_2
_geom_bond_distance
_geom_bond_site_symmetry_2
_ccdc_geom_bond_type
Fe0 O2 1.918 . S
Fe0 O5 1.997 1_455 S
Fe0 O6 2.002 . S
Fe0 O11 1.976 . S
Fe0 O14 2.002 . S
Fe1 O2 1.918 . S
Fe1 O9 1.997 . S
Fe1 O12 1.996 . S
Fe1 O16 1.976 . S
Fe1 O19 2.002 . S
O2 Fe0 1.918 . S
O2 Fe1 1.918 . S
O2 Fe3 1.918 . S
Fe3 O2 1.918 . S
Fe3 O4 2.002 1_455 S
Fe3 O13 1.976 1_455 S
Fe3 O17 1.996 . S
Fe3 O20 1.997 . S
O4 Fe3 2.002 1_655 S
O4 C21 1.295 . S
O5 Fe0 1.997 1_655 S
O5 C21 1.235 . S
O6 Fe0 2.002 . S
O6 C7 1.295 . S
C7 O6 1.295 . S
C7 O9 1.235 . S
C8 O13 1.287 . S
C8 O14 1.252 1_655 S
O9 Fe1 1.997 . S
O9 C7 1.235 . S
C10 O16 1.287 . S
C10 O17 1.255 . S
O11 Fe0 1.976 . S
O11 C18 1.287 . S
O12 Fe1 1.996 . S
O12 C18 1.255 . S
O13 Fe3 1.976 1_655 S
O13 C8 1.287 . S
O14 Fe0 2.002 . S
O14 C8 1.252 1_455 S
C15 O19 1.295 . S
C15 O20 1.235 . S
O16 Fe1 1.976 . S
O16 C10 1.287 . S
O17 Fe3 1.996 . S
O17 C10 1.255 . S
C18 O11 1.287 . S
C18 O12 1.255 . S
O19 Fe1 2.002 . S
O19 C15 1.295 . S
O20 Fe3 1.997 . S
O20 C15 1.235 . S
C21 O4 1.295 . S
C21 O5 1.235 . S
Fe22 O24 1.918 . S
Fe22 O27 1.997 . S
Fe22 O28 2.002 . S
Fe22 O33 1.976 . S
Fe22 O36 1.996 . S
Fe23 O24 1.918 . S
Fe23 O31 1.997 . S
Fe23 O34 1.996 . S
Fe23 O38 1.976 . S
Fe23 O41 2.002 . S
O24 Fe22 1.918 . S
O24 Fe23 1.918 . S
O24 Fe25 1.918 . S
Fe25 O24 1.918 . S
Fe25 O26 2.002 . S
Fe25 O35 1.976 . S
Fe25 O39 1.996 . S
Fe25 O42 1.997 . S
O26 Fe25 2.002 . S
O26 C43 1.295 . S
O27 Fe22 1.997 . S
O27 C43 1.235 . S
O28 Fe22 2.002 . S
O28 C29 1.295 . S
C29 O28 1.295 . S
C29 O31 1.235 . S
C30 O35 1.287 . S
C30 O36 1.255 . S
O31 Fe23 1.997 . S
O31 C29 1.235 . S
C32 O38 1.287 . S
C32 O39 1.255 . S
O33 Fe22 1.976 . S
O33 C40 1.287 . S
O34 Fe23 1.996 . S
O34 C40 1.255 . S
O35 Fe25 1.976 . S
O35 C30 1.287 . S
O36 Fe22 1.996 . S
O36 C30 1.255 . S
C37 O41 1.295 . S
C37 O42 1.235 . S
O38 Fe23 1.976 . S
O38 C32 1.287 . S
O39 Fe25 1.996 . S
O39 C32 1.255 . S
C40 O33 1.287 . S
C40 O34 1.255 . S
O41 Fe23 2.002 . S
O41 C37 1.295 . S
O42 Fe25 1.997 . S
O42 C37 1.235 . S
C43 O26 1.295 . S
C43 O27 1.235 . S
Fe44 O46 1.918 . S
Fe44 O49 1.997 1_655 S
Fe44 O50 2.002 . S
Fe44 O55 1.976 . S
Fe44 O58 2.002 . S
Fe45 O46 1.918 . S
Fe45 O53 1.997 . S
Fe45 O56 1.996 . S
Fe45 O60 1.976 . S
Fe45 O63 2.002 . S
O46 Fe44 1.918 . S
O46 Fe45 1.918 . S
O46 Fe47 1.918 . S
Fe47 O46 1.918 . S
Fe47 O48 2.002 1_655 S
Fe47 O57 1.976 1_655 S
Fe47 O61 1.996 . S
Fe47 O64 1.997 . S
O48 Fe47 2.002 1_455 S
O48 C65 1.295 . S
O49 Fe44 1.997 1_455 S
O49 C65 1.235 . S
O50 Fe44 2.002 . S
O50 C51 1.295 . S
C51 O50 1.295 . S
C51 O53 1.235 . S
C52 O57 1.287 . S
C52 O58 1.252 1_455 S
O53 Fe45 1.997 . S
O53 C51 1.235 . S
C54 O60 1.287 . S
C54 O61 1.255 . S
O55 Fe44 1.976 . S
O55 C62 1.287 . S
O56 Fe45 1.996 . S
O56 C62 1.255 . S
O57 Fe47 1.976 1_455 S
O57 C52 1.287 . S
O58 Fe44 2.002 . S
O58 C52 1.252 1_655 S
C59 O63 1.295 . S
C59 O64 1.235 . S
O60 Fe45 1.976 . S
O60 C54 1.287 . S
O61 Fe47 1.996 . S
O61 C54 1.255 . S
C62 O55 1.287 . S
C62 O56 1.255 . S
O63 Fe45 2.002 . S
O63 C59 1.295 . S
O64 Fe47 1.997 . S
O64 C59 1.235 . S
C65 O48 1.295 . S
C65 O49 1.235 . S
Fe66 O68 1.918 . S
Fe66 O71 1.997 . S
Fe66 O72 2.002 . S
Fe66 O77 1.976 . S
Fe66 O80 1.996 . S
Fe67 O68 1.918 . S
Fe67 O75 1.997 . S
Fe67 O78 1.996 . S
Fe67 O82 1.976 . S
Fe67 O85 2.002 . S
O68 Fe66 1.918 . S
O68 Fe67 1.918 . S
O68 Fe69 1.918 . S
Fe69 O68 1.918 . S
Fe69 O70 2.002 . S
Fe69 O79 1.976 . S
Fe69 O83 1.996 . S
Fe69 O86 1.997 . S
O70 Fe69 2.002 . S
O70 C87 1.295 . S
O71 Fe66 1.997 . S
O71 C87 1.235 . S
O72 Fe66 2.002 . S
O72 C73 1.295 . S
C73 O72 1.295 . S
C73 O75 1.235 . S
C74 O79 1.287 . S
C74 O80 1.255 . S
O75 Fe67 1.997 . S
O75 C73 1.235 . S
C76 O82 1.287 . S
C76 O83 1.255 . S
O77 Fe66 1.976 . S
O77 C84 1.287 . S
O78 Fe67 1.996 . S
O78 C84 1.255 . S
O79 Fe69 1.976 . S
O79 C74 1.287 . S
O80 Fe66 1.996 . S
O80 C74 1.255 . S
C81 O85 1.295 . S
C81 O86 1.235 . S
O82 Fe67 1.976 . S
O82 C76 1.287 . S
O83 Fe69 1.996 . S
O83 C76 1.255 . S
C84 O77 1.287 . S
C84 O78 1.255 . S
O85 Fe67 2.002 . S
O85 C81 1.295 . S
O86 Fe69 1.997 . S
O86 C81 1.235 . S
C87 O70 1.295 . S
C87 O71 1.235 . S
Fe88 O90 1.918 . S
Fe88 O93 1.997 . S
Fe88 O94 2.002 . S
Fe88 O99 1.976 . S
Fe88 O102 1.996 . S
Fe89 O90 1.918 . S
Fe89 O97 1.997 . S
Fe89 O100 1.996 . S
Fe89 O104 1.976 . S
Fe89 O107 2.002 . S
O90 Fe88 1.918 . S
O90 Fe89 1.918 . S
O90 Fe91 1.918 . S
Fe91 O90 1.918 . S
Fe91 O92 2.002 . S
Fe91 O101 1.976 . S
Fe91 O105 1.996 . S
Fe91 O108 1.997 . S
O92 Fe91 2.002 . S
O92 C109 1.295 . S
O93 Fe88 1.997 . S
O93 C109 1.235 . S
O94 Fe88 2.002 . S
O94 C95 1.295 . S
C95 O94 1.295 . S
C95 O97 1.235 . S
C96 O101 1.287 . S
C96 O102 1.255 . S
O97 Fe89 1.997 . S
O97 C95 1.235 . S
C98 O104 1.287 . S
C98 O105 1.255 . S
O99 Fe88 1.976 . S
O99 C106 1.287 . S
O100 Fe89 1.996 . S
O100 C106 1.255 . S
O101 Fe91 1.976 . S
O101 C96 1.287 . S
O102 Fe88 1.996 . S
O102 C96 1.255 . S
C103 O107 1.295 . S
C103 O108 1.235 . S
O104 Fe89 1.976 . S
O104 C98 1.287 . S
O105 Fe91 1.996 . S
O105 C98 1.255 . S
C106 O99 1.287 . S
C106 O100 1.255 . S
O107 Fe89 2.002 . S
O107 C103 1.295 . S
O108 Fe91 1.997 . S
O108 C103 1.235 . S
C109 O92 1.295 . S
C109 O93 1.235 . S
Fe110 O112 1.918 . S
Fe110 O115 1.997 . S
Fe110 O116 2.002 . S
Fe110 O121 1.976 . S
Fe110 O124 1.996 . S
Fe111 O112 1.918 . S
Fe111 O119 1.997 . S
Fe111 O122 1.996 . S
Fe111 O126 1.976 1_545 S
Fe111 O129 2.002 1_545 S
O112 Fe110 1.918 . S
O112 Fe111 1.918 . S
O112 Fe113 1.918 . S
Fe113 O112 1.918 . S
Fe113 O114 2.002 . S
Fe113 O123 1.976 . S
Fe113 O127 2.002 . S
Fe113 O130 1.997 1_545 S
O114 Fe113 2.002 . S
O114 C131 1.295 . S
O115 Fe110 1.997 . S
O115 C131 1.235 . S
O116 Fe110 2.002 . S
O116 C117 1.295 . S
C117 O116 1.295 . S
C117 O119 1.235 . S
C118 O123 1.287 . S
C118 O124 1.255 . S
O119 Fe111 1.997 . S
O119 C117 1.235 . S
C120 O126 1.287 . S
C120 O127 1.252 1_565 S
O121 Fe110 1.976 . S
O121 C128 1.287 . S
O122 Fe111 1.996 . S
O122 C128 1.255 . S
O123 Fe113 1.976 . S
O123 C118 1.287 . S
O124 Fe110 1.996 . S
O124 C118 1.255 . S
C125 O129 1.295 . S
C125 O130 1.235 . S
O126 Fe111 1.976 1_565 S
O126 C120 1.287 . S
O127 Fe113 2.002 . S
O127 C120 1.252 1_545 S
C128 O121 1.287 . S
C128 O122 1.255 . S
O129 Fe111 2.002 1_565 S
O129 C125 1.295 . S
O130 Fe113 1.997 1_565 S
O130 C125 1.235 . S
C131 O114 1.295 . S
C131 O115 1.235 . S
Fe132 O134 1.918 . S
Fe132 O137 1.997 . S
Fe132 O138 2.002 . S
Fe132 O143 1.976 . S
Fe132 O146 1.996 . S
Fe133 O134 1.918 . S
Fe133 O141 1.997 . S
Fe133 O144 1.996 . S
Fe133 O148 1.976 . S
Fe133 O151 2.002 . S
O134 Fe132 1.918 . S
O134 Fe133 1.918 . S
O134 Fe135 1.918 . S
Fe135 O134 1.918 . S
Fe135 O136 2.002 . S
Fe135 O145 1.976 . S
Fe135 O149 1.996 . S
Fe135 O152 1.997 . S
O136 Fe135 2.002 . S
O136 C153 1.295 . S
O137 Fe132 1.997 . S
O137 C153 1.235 . S
O138 Fe132 2.002 . S
O138 C139 1.295 . S
C139 O138 1.295 . S
C139 O141 1.235 . S
C140 O145 1.287 . S
C140 O146 1.255 . S
O141 Fe133 1.997 . S
O141 C139 1.235 . S
C142 O148 1.287 . S
C142 O149 1.255 . S
O143 Fe132 1.976 . S
O143 C150 1.287 . S
O144 Fe133 1.996 . S
O144 C150 1.255 . S
O145 Fe135 1.976 . S
O145 C140 1.287 . S
O146 Fe132 1.996 . S
O146 C140 1.255 . S
C147 O151 1.295 . S
C147 O152 1.235 . S
O148 Fe133 1.976 . S
O148 C142 1.287 . S
O149 Fe135 1.996 . S
O149 C142 1.255 . S
C150 O143 1.287 . S
C150 O144 1.255 . S
O151 Fe133 2.002 . S
O151 C147 1.295 . S
O152 Fe135 1.997 . S
O152 C147 1.235 . S
C153 O136 1.295 . S
C153 O137 1.235 . S
Fe154 O156 1.918 . S
Fe154 O159 1.997 1_565 S
Fe154 O160 2.002 . S
Fe154 O165 1.976 . S
Fe154 O168 2.002 . S
Fe155 O156 1.918 . S
Fe155 O163 1.997 . S
Fe155 O166 1.996 . S
Fe155 O170 1.976 . S
Fe155 O173 2.002 . S
O156 Fe154 1.918 . S
O156 Fe155 1.918 . S
O156 Fe157 1.918 . S
Fe157 O156 1.918 . S
Fe157 O158 2.002 1_565 S
Fe157 O167 1.976 1_565 S
Fe157 O171 1.996 . S
Fe157 O174 1.997 . S
O158 Fe157 2.002 1_545 S
O158 C175 1.295 . S
O159 Fe154 1.997 1_545 S
O159 C175 1.235 . S
O160 Fe154 2.002 . S
O160 C161 1.295 . S
C161 O160 1.295 . S
C161 O163 1.235 . S
C162 O167 1.287 . S
C162 O168 1.252 1_545 S
O163 Fe155 1.997 . S
O163 C161 1.235 . S
C164 O170 1.287 . S
C164 O171 1.255 . S
O165 Fe154 1.976 . S
O165 C172 1.287 . S
O166 Fe155 1.996 . S
O166 C172 1.255 . S
O167 Fe157 1.976 1_545 S
O167 C162 1.287 . S
O168 Fe154 2.002 . S
O168 C162 1.252 1_565 S
C169 O173 1.295 . S
C169 O174 1.235 . S
O170 Fe155 1.976 . S
O170 C164 1.287 . S
O171 Fe157 1.996 . S
O171 C164 1.255 . S
C172 O165 1.287 . S
C172 O166 1.255 . S
O173 Fe155 2.002 . S
O173 C169 1.295 . S
O174 Fe157 1.997 . S
O174 C169 1.235 . S
C175 O158 1.295 . S
C175 O159 1.235 . S
H176 C182 0.930 . S
H177 C185 0.930 . S
H178 C186 0.930 . S
H179 C187 0.930 . S
H180 C190 0.930 . S
H181 C191 0.930 . S
C182 H176 0.930 . S
C182 C183 1.355 . S
C182 C184 1.415 . S
C183 C182 1.355 . S
C183 C185 1.419 . S
C184 C182 1.415 . S
C184 C189 1.425 . S
C184 C191 1.409 . S
C185 H177 0.930 . S
C185 C183 1.419 . S
C185 C186 1.362 . S
C186 H178 0.930 . S
C186 C185 1.362 . S
C186 C189 1.409 . S
C187 H179 0.930 . S
C187 C188 1.355 . S
C187 C189 1.415 . S
C188 C187 1.355 . S
C188 C190 1.419 . S
C189 C184 1.425 . S
C189 C186 1.409 . S
C189 C187 1.415 . S
C190 H180 0.930 . S
C190 C188 1.419 . S
C190 C191 1.362 . S
C191 H181 0.930 . S
C191 C184 1.409 . S
C191 C190 1.362 . S
H192 C198 0.930 . S
H193 C201 0.930 . S
H194 C202 0.930 . S
H195 C203 0.930 . S
H196 C206 0.930 . S
H197 C207 0.930 . S
C198 H192 0.930 . S
C198 C199 1.355 . S
C198 C200 1.415 . S
C199 C198 1.355 . S
C199 C201 1.419 . S
C200 C198 1.415 . S
C200 C205 1.425 . S
C200 C207 1.409 . S
C201 H193 0.930 . S
C201 C199 1.419 . S
C201 C202 1.362 . S
C202 H194 0.930 . S
C202 C201 1.362 . S
C202 C205 1.409 . S
C203 H195 0.930 . S
C203 C204 1.355 . S
C203 C205 1.415 . S
C204 C203 1.355 . S
C204 C206 1.419 . S
C205 C200 1.425 . S
C205 C202 1.409 . S
C205 C203 1.415 . S
C206 H196 0.930 . S
C206 C204 1.419 . S
C206 C207 1.362 . S
C207 H197 0.930 . S
C207 C200 1.409 . S
C207 C206 1.362 . S
H208 C214 0.930 . S
H209 C217 0.930 1_655 S
H210 C218 0.930 . S
H211 C219 0.930 . S
H212 C222 0.930 . S
H213 C223 0.930 . S
C214 H208 0.930 . S
C214 C215 1.355 . S
C214 C216 1.415 . S
C215 C214 1.355 . S
C215 C217 1.419 . S
C216 C214 1.415 . S
C216 C221 1.425 . S
C216 C223 1.409 . S
C217 H209 0.930 1_455 S
C217 C215 1.419 . S
C217 C218 1.362 . S
C218 H210 0.930 . S
C218 C217 1.362 . S
C218 C221 1.409 . S
C219 H211 0.930 . S
C219 C220 1.355 . S
C219 C221 1.415 . S
C220 C219 1.355 . S
C220 C222 1.419 . S
C221 C216 1.425 . S
C221 C218 1.409 . S
C221 C219 1.415 . S
C222 H212 0.930 . S
C222 C220 1.419 . S
C222 C223 1.362 . S
C223 H213 0.930 . S
C223 C216 1.409 . S
C223 C222 1.362 . S
H224 C230 0.930 . S
H225 C233 0.930 . S
H226 C234 0.930 . S
H227 C235 0.930 . S
H228 C238 0.930 . S
H229 C239 0.930 . S
C230 H224 0.930 . S
C230 C231 1.355 . S
C230 C232 1.419 . S
C231 C230 1.355 . S
C231 C233 1.419 . S
C232 C230 1.419 . S
C232 C237 1.425 1_554 S
C232 C239 1.405 1_554 S
C233 H225 0.930 . S
C233 C231 1.419 . S
C233 C234 1.362 . S
C234 H226 0.930 . S
C234 C233 1.362 . S
C234 C237 1.405 1_554 S
C235 H227 0.930 . S
C235 C236 1.355 . S
C235 C237 1.419 . S
C236 C235 1.355 . S
C236 C238 1.419 . S
C237 C232 1.425 1_556 S
C237 C234 1.405 1_556 S
C237 C235 1.419 . S
C238 H228 0.930 . S
C238 C236 1.419 . S
C238 C239 1.362 . S
C239 H229 0.930 . S
C239 C232 1.405 1_556 S
C239 C238 1.362 . S
H240 C246 0.930 . S
H241 C249 0.930 . S
H242 C250 0.930 . S
H243 C251 0.930 . S
H244 C254 0.930 . S
H245 C255 0.930 . S
C246 H240 0.930 . S
C246 C247 1.355 . S
C246 C248 1.415 . S
C247 C246 1.355 . S
C247 C249 1.419 . S
C248 C246 1.415 . S
C248 C253 1.425 . S
C248 C255 1.409 . S
C249 H241 0.930 . S
C249 C247 1.419 . S
C249 C250 1.362 . S
C250 H242 0.930 . S
C250 C249 1.362 . S
C250 C253 1.409 . S
C251 H243 0.930 . S
C251 C252 1.355 . S
C251 C253 1.415 . S
C252 C251 1.355 . S
C252 C254 1.419 . S
C253 C248 1.425 . S
C253 C250 1.409 . S
C253 C251 1.415 . S
C254 H244 0.930 . S
C254 C252 1.419 . S
C254 C255 1.362 . S
C255 H245 0.930 . S
C255 C248 1.409 . S
C255 C254 1.362 . S
H256 C262 0.930 . S
H257 C265 0.930 . S
H258 C266 0.930 . S
H259 C267 0.930 . S
H260 C270 0.930 . S
H261 C271 0.930 . S
C262 H256 0.930 . S
C262 C263 1.355 . S
C262 C264 1.415 . S
C263 C262 1.355 . S
C263 C265 1.419 . S
C264 C262 1.415 . S
C264 C269 1.425 . S
C264 C271 1.409 . S
C265 H257 0.930 . S
C265 C263 1.419 . S
C265 C266 1.362 . S
C266 H258 0.930 . S
C266 C265 1.362 . S
C266 C269 1.409 . S
C267 H259 0.930 . S
C267 C268 1.355 . S
C267 C269 1.415 . S
C268 C267 1.355 . S
C268 C270 1.419 . S
C269 C264 1.425 . S
C269 C266 1.409 . S
C269 C267 1.415 . S
C270 H260 0.930 . S
C270 C268 1.419 . S
C270 C271 1.362 . S
C271 H261 0.930 . S
C271 C264 1.409 . S
C271 C270 1.362 . S
H272 C278 0.930 . S
H273 C281 0.930 . S
H274 C282 0.930 . S
H275 C283 0.930 . S
H276 C286 0.930 . S
H277 C287 0.930 . S
C278 H272 0.930 . S
C278 C279 1.355 . S
C278 C280 1.415 . S
C279 C278 1.355 . S
C279 C281 1.419 . S
C280 C278 1.415 . S
C280 C285 1.425 . S
C280 C287 1.409 . S
C281 H273 0.930 . S
C281 C279 1.419 . S
C281 C282 1.362 . S
C282 H274 0.930 . S
C282 C281 1.362 . S
C282 C285 1.409 . S
C283 H275 0.930 . S
C283 C284 1.355 . S
C283 C285 1.415 . S
C284 C283 1.355 . S
C284 C286 1.419 . S
C285 C280 1.425 . S
C285 C282 1.409 . S
C285 C283 1.415 . S
C286 H276 0.930 . S
C286 C284 1.419 . S
C286 C287 1.362 . S
C287 H277 0.930 . S
C287 C280 1.409 . S
C287 C286 1.362 . S
H288 C294 0.930 . S
H289 C297 0.930 1_455 S
H290 C298 0.930 . S
H291 C299 0.930 . S
H292 C302 0.930 . S
H293 C303 0.930 . S
C294 H288 0.930 . S
C294 C295 1.355 . S
C294 C296 1.415 . S
C295 C294 1.355 . S
C295 C297 1.419 . S
C296 C294 1.415 . S
C296 C301 1.425 . S
C296 C303 1.409 . S
C297 H289 0.930 1_655 S
C297 C295 1.419 . S
C297 C298 1.362 . S
C298 H290 0.930 . S
C298 C297 1.362 . S
C298 C301 1.409 . S
C299 H291 0.930 . S
C299 C300 1.355 . S
C299 C301 1.415 1_556 S
C300 C299 1.355 . S
C300 C302 1.419 1_556 S
C301 C296 1.425 . S
C301 C298 1.409 . S
C301 C299 1.415 1_554 S
C302 H292 0.930 . S
C302 C300 1.419 1_554 S
C302 C303 1.362 . S
C303 H293 0.930 . S
C303 C296 1.409 . S
C303 C302 1.362 . S
H304 C310 0.930 . S
H305 C313 0.930 . S
H306 C314 0.930 . S
H307 C315 0.930 . S
H308 C318 0.930 . S
H309 C319 0.930 . S
C310 H304 0.930 . S
C310 C311 1.355 . S
C310 C312 1.415 . S
C311 C310 1.355 . S
C311 C313 1.419 . S
C312 C310 1.415 . S
C312 C317 1.425 . S
C312 C319 1.409 . S
C313 H305 0.930 . S
C313 C311 1.419 . S
C313 C314 1.362 . S
C314 H306 0.930 . S
C314 C313 1.362 . S
C314 C317 1.409 . S
C315 H307 0.930 . S
C315 C316 1.355 . S
C315 C317 1.415 . S
C316 C315 1.355 . S
C316 C318 1.419 . S
C317 C312 1.425 . S
C317 C314 1.409 . S
C317 C315 1.415 . S
C318 H308 0.930 . S
C318 C316 1.419 . S
C318 C319 1.362 . S
C319 H309 0.930 . S
C319 C312 1.409 . S
C319 C318 1.362 . S
H320 C326 0.930 . S
H321 C329 0.930 . S
H322 C330 0.930 . S
H323 C331 0.930 . S
H324 C334 0.930 . S
H325 C335 0.930 . S
C326 H320 0.930 . S
C326 C327 1.355 . S
C326 C328 1.415 . S
C327 C326 1.355 . S
C327 C329 1.419 . S
C328 C326 1.415 . S
C328 C333 1.425 . S
C328 C335 1.409 . S
C329 H321 0.930 . S
C329 C327 1.419 . S
C329 C330 1.362 . S
C330 H322 0.930 . S
C330 C329 1.362 . S
C330 C333 1.409 . S
C331 H323 0.930 . S
C331 C332 1.355 . S
C331 C333 1.415 . S
C332 C331 1.355 . S
C332 C334 1.419 . S
C333 C328 1.425 . S
C333 C330 1.409 . S
C333 C331 1.415 . S
C334 H324 0.930 . S
C334 C332 1.419 . S
C334 C335 1.362 . S
C335 H325 0.930 . S
C335 C328 1.409 . S
C335 C334 1.362 . S
H336 C342 0.930 . S
H337 C345 0.930 . S
H338 C346 0.930 . S
H339 C347 0.930 . S
H340 C350 0.930 . S
H341 C351 0.930 . S
C342 H336 0.930 . S
C342 C343 1.355 1_556 S
C342 C344 1.415 . S
C343 C342 1.355 1_554 S
C343 C345 1.419 . S
C344 C342 1.415 . S
C344 C349 1.425 . S
C344 C351 1.409 . S
C345 H337 0.930 . S
C345 C343 1.419 . S
C345 C346 1.362 . S
C346 H338 0.930 . S
C346 C345 1.362 . S
C346 C349 1.409 1_554 S
C347 H339 0.930 . S
C347 C348 1.355 . S
C347 C349 1.415 . S
C348 C347 1.355 . S
C348 C350 1.419 . S
C349 C344 1.425 . S
C349 C346 1.409 1_556 S
C349 C347 1.415 . S
C350 H340 0.930 . S
C350 C348 1.419 . S
C350 C351 1.362 . S
C351 H341 0.930 . S
C351 C344 1.409 . S
C351 C350 1.362 . S
H352 C358 0.930 . S
H353 C361 0.930 . S
H354 C362 0.930 . S
H355 C363 0.930 . S
H356 C366 0.930 . S
H357 C367 0.930 . S
C358 H352 0.930 . S
C358 C359 1.355 . S
C358 C360 1.415 . S
C359 C358 1.355 . S
C359 C361 1.419 . S
C360 C358 1.415 . S
C360 C365 1.425 . S
C360 C367 1.409 . S
C361 H353 0.930 . S
C361 C359 1.419 . S
C361 C362 1.362 . S
C362 H354 0.930 . S
C362 C361 1.362 . S
C362 C365 1.409 . S
C363 H355 0.930 . S
C363 C364 1.355 . S
C363 C365 1.415 . S
C364 C363 1.355 . S
C364 C366 1.419 . S
C365 C360 1.425 . S
C365 C362 1.409 . S
C365 C363 1.415 . S
C366 H356 0.930 . S
C366 C364 1.419 . S
C366 C367 1.362 . S
C367 H357 0.930 . S
C367 C360 1.409 . S
C367 C366 1.362 . S
H368 C374 0.930 . S
H369 C377 0.930 . S
H370 C378 0.930 1_554 S
H371 C379 0.930 . S
H372 C382 0.930 . S
H373 C383 0.930 1_556 S
C374 H368 0.930 . S
C374 C375 1.355 . S
C374 C376 1.415 . S
C375 C374 1.355 . S
C375 C377 1.419 . S
C376 C374 1.415 . S
C376 C381 1.425 1_556 S
C376 C383 1.409 1_556 S
C377 H369 0.930 . S
C377 C375 1.419 . S
C377 C378 1.362 . S
C378 H370 0.930 1_556 S
C378 C377 1.362 . S
C378 C381 1.409 1_556 S
C379 H371 0.930 . S
C379 C380 1.355 . S
C379 C381 1.415 . S
C380 C379 1.355 . S
C380 C382 1.419 . S
C381 C376 1.425 1_554 S
C381 C378 1.409 1_554 S
C381 C379 1.415 . S
C382 H372 0.930 . S
C382 C380 1.419 . S
C382 C383 1.362 . S
C383 H373 0.930 1_554 S
C383 C376 1.409 1_554 S
C383 C382 1.362 . S
H384 C390 0.930 . S
H385 C393 0.930 . S
H386 C394 0.930 . S
H387 C395 0.930 . S
H388 C398 0.930 . S
H389 C399 0.930 . S
C390 H384 0.930 . S
C390 C391 1.355 . S
C390 C392 1.415 . S
C391 C390 1.355 . S
C391 C393 1.419 . S
C392 C390 1.415 . S
C392 C397 1.425 . S
C392 C399 1.409 . S
C393 H385 0.930 . S
C393 C391 1.419 . S
C393 C394 1.362 . S
C394 H386 0.930 . S
C394 C393 1.362 . S
C394 C397 1.409 . S
C395 H387 0.930 . S
C395 C396 1.355 . S
C395 C397 1.415 . S
C396 C395 1.355 . S
C396 C398 1.419 . S
C397 C392 1.425 . S
C397 C394 1.409 . S
C397 C395 1.415 . S
C398 H388 0.930 . S
C398 C396 1.419 . S
C398 C399 1.362 . S
C399 H389 0.930 . S
C399 C392 1.409 . S
C399 C398 1.362 . S
H400 C406 0.930 . S
H401 C409 0.930 . S
H402 C410 0.930 . S
H403 C411 0.930 . S
H404 C414 0.930 . S
H405 C415 0.930 . S
C406 H400 0.930 . S
C406 C407 1.355 . S
C406 C408 1.415 . S
C407 C406 1.355 . S
C407 C409 1.419 . S
C408 C406 1.415 . S
C408 C413 1.425 . S
C408 C415 1.409 . S
C409 H401 0.930 . S
C409 C407 1.419 . S
C409 C410 1.362 . S
C410 H402 0.930 . S
C410 C409 1.362 . S
C410 C413 1.409 . S
C411 H403 0.930 . S
C411 C412 1.355 . S
C411 C413 1.415 . S
C412 C411 1.355 . S
C412 C414 1.419 . S
C413 C408 1.425 . S
C413 C410 1.409 . S
C413 C411 1.415 . S
C414 H404 0.930 . S
C414 C412 1.419 . S
C414 C415 1.362 . S
C415 H405 0.930 . S
C415 C408 1.409 . S
C415 C414 1.362 . S
H416 C422 0.930 . S
H417 C425 0.930 . S
H418 C426 0.930 . S
H419 C427 0.930 . S
H420 C430 0.930 . S
H421 C431 0.930 . S
C422 H416 0.930 . S
C422 C423 1.355 . S
C422 C424 1.415 . S
C423 C422 1.355 . S
C423 C425 1.419 . S
C424 C422 1.415 . S
C424 C429 1.425 . S
C424 C431 1.409 . S
C425 H417 0.930 . S
C425 C423 1.419 . S
C425 C426 1.362 . S
C426 H418 0.930 . S
C426 C425 1.362 . S
C426 C429 1.409 . S
C427 H419 0.930 . S
C427 C428 1.355 . S
C427 C429 1.415 . S
C428 C427 1.355 . S
C428 C430 1.419 . S
C429 C424 1.425 . S
C429 C426 1.409 . S
C429 C427 1.415 . S
C430 H420 0.930 . S
C430 C428 1.419 . S
C430 C431 1.362 . S
C431 H421 0.930 . S
C431 C424 1.409 . S
C431 C430 1.362 . S
H432 C438 0.930 . S
H433 C441 0.930 . S
H434 C442 0.930 . S
H435 C443 0.930 . S
H436 C446 0.930 . S
H437 C447 0.930 . S
C438 H432 0.930 . S
C438 C439 1.355 . S
C438 C440 1.415 1_545 S
C439 C438 1.355 . S
C439 C441 1.419 . S
C440 C438 1.415 1_565 S
C440 C445 1.425 1_565 S
C440 C447 1.409 . S
C441 H433 0.930 . S
C441 C439 1.419 . S
C441 C442 1.362 . S
C442 H434 0.930 . S
C442 C441 1.362 . S
C442 C445 1.409 . S
C443 H435 0.930 . S
C443 C444 1.355 . S
C443 C445 1.415 1_565 S
C444 C443 1.355 . S
C444 C446 1.419 . S
C445 C440 1.425 1_545 S
C445 C442 1.409 . S
C445 C443 1.415 1_545 S
C446 H436 0.930 . S
C446 C444 1.419 . S
C446 C447 1.362 . S
C447 H437 0.930 . S
C447 C440 1.409 . S
C447 C446 1.362 . S
H448 C454 0.930 . S
H449 C457 0.930 . S
H450 C458 0.930 . S
H451 C459 0.930 . S
H452 C462 0.930 . S
H453 C463 0.930 . S
C454 H448 0.930 . S
C454 C455 1.355 . S
C454 C456 1.415 . S
C455 C454 1.355 . S
C455 C457 1.419 . S
C456 C454 1.415 . S
C456 C461 1.425 . S
C456 C463 1.409 . S
C457 H449 0.930 . S
C457 C455 1.419 . S
C457 C458 1.362 . S
C458 H450 0.930 . S
C458 C457 1.362 . S
C458 C461 1.409 . S
C459 H451 0.930 . S
C459 C460 1.355 . S
C459 C461 1.415 . S
C460 C459 1.355 . S
C460 C462 1.419 . S
C461 C456 1.425 . S
C461 C458 1.409 . S
C461 C459 1.415 . S
C462 H452 0.930 . S
C462 C460 1.419 . S
C462 C463 1.362 . S
C463 H453 0.930 . S
C463 C456 1.409 . S
C463 C462 1.362 . S
H464 C470 0.930 . S
H465 C473 0.930 . S
H466 C474 0.930 . S
H467 C475 0.930 . S
H468 C478 0.930 . S
H469 C479 0.930 . S
C470 H464 0.930 . S
C470 C471 1.355 . S
C470 C472 1.415 1_545 S
C471 C470 1.355 . S
C471 C473 1.419 . S
C472 C470 1.415 1_565 S
C472 C477 1.425 1_565 S
C472 C479 1.409 . S
C473 H465 0.930 . S
C473 C471 1.419 . S
C473 C474 1.362 . S
C474 H466 0.930 . S
C474 C473 1.362 . S
C474 C477 1.409 . S
C475 H467 0.930 . S
C475 C476 1.355 . S
C475 C477 1.415 1_565 S
C476 C475 1.355 . S
C476 C478 1.419 . S
C477 C472 1.425 1_545 S
C477 C474 1.409 . S
C477 C475 1.415 1_545 S
C478 H468 0.930 . S
C478 C476 1.419 . S
C478 C479 1.362 . S
C479 H469 0.930 . S
C479 C472 1.409 . S
C479 C478 1.362 . S
H480 C486 0.930 . S
H481 C489 0.930 . S
H482 C490 0.930 . S
H483 C491 0.930 . S
H484 C494 0.930 . S
H485 C495 0.930 . S
C486 H480 0.930 . S
C486 C487 1.355 . S
C486 C488 1.415 . S
C487 C486 1.355 . S
C487 C489 1.419 . S
C488 C486 1.415 . S
C488 C493 1.425 . S
C488 C495 1.409 . S
C489 H481 0.930 . S
C489 C487 1.419 . S
C489 C490 1.362 . S
C490 H482 0.930 . S
C490 C489 1.362 . S
C490 C493 1.409 . S
C491 H483 0.930 . S
C491 C492 1.355 . S
C491 C493 1.415 . S
C492 C491 1.355 . S
C492 C494 1.419 . S
C493 C488 1.425 . S
C493 C490 1.409 . S
C493 C491 1.415 . S
C494 H484 0.930 . S
C494 C492 1.419 . S
C494 C495 1.362 . S
C495 H485 0.930 . S
C495 C488 1.409 . S
C495 C494 1.362 . S
H496 C502 0.930 . S
H497 C505 0.930 . S
H498 C506 0.930 . S
H499 C507 0.930 . S
H500 C510 0.930 . S
H501 C511 0.930 . S
C502 H496 0.930 . S
C502 C503 1.355 . S
C502 C504 1.415 . S
C503 C502 1.355 . S
C503 C505 1.419 . S
C504 C502 1.415 . S
C504 C509 1.425 . S
C504 C511 1.409 . S
C505 H497 0.930 . S
C505 C503 1.419 . S
C505 C506 1.362 . S
C506 H498 0.930 . S
C506 C505 1.362 . S
C506 C509 1.409 . S
C507 H499 0.930 . S
C507 C508 1.355 . S
C507 C509 1.415 . S
C508 C507 1.355 . S
C508 C510 1.419 . S
C509 C504 1.425 . S
C509 C506 1.409 . S
C509 C507 1.415 . S
C510 H500 0.930 . S
C510 C508 1.419 . S
C510 C511 1.362 . S
C511 H501 0.930 . S
C511 C504 1.409 . S
C511 C510 1.362 . S
H512 C518 0.930 . S
H513 C521 0.930 . S
H514 C522 0.930 . S
H515 C523 0.930 . S
H516 C526 0.930 . S
H517 C527 0.930 . S
C518 H512 0.930 . S
C518 C519 1.355 . S
C518 C520 1.415 . S
C519 C518 1.355 . S
C519 C521 1.419 . S
C520 C518 1.415 . S
C520 C525 1.425 1_455 S
C520 C527 1.409 . S
C521 H513 0.930 . S
C521 C519 1.419 . S
C521 C522 1.362 1_455 S
C522 H514 0.930 . S
C522 C521 1.362 1_655 S
C522 C525 1.409 . S
C523 H515 0.930 . S
C523 C524 1.355 . S
C523 C525 1.415 . S
C524 C523 1.355 . S
C524 C526 1.419 . S
C525 C520 1.425 1_655 S
C525 C522 1.409 . S
C525 C523 1.415 . S
C526 H516 0.930 . S
C526 C524 1.419 . S
C526 C527 1.362 1_655 S
C527 H517 0.930 . S
C527 C520 1.409 . S
C527 C526 1.362 1_455 S
H528 C534 0.930 . S
H529 C537 0.930 . S
H530 C538 0.930 . S
H531 C539 0.930 . S
H532 C542 0.930 . S
H533 C543 0.930 . S
C534 H528 0.930 . S
C534 C535 1.355 . S
C534 C536 1.415 . S
C535 C534 1.355 . S
C535 C537 1.419 . S
C536 C534 1.415 . S
C536 C541 1.425 . S
C536 C543 1.409 . S
C537 H529 0.930 . S
C537 C535 1.419 . S
C537 C538 1.362 . S
C538 H530 0.930 . S
C538 C537 1.362 . S
C538 C541 1.409 . S
C539 H531 0.930 . S
C539 C540 1.355 . S
C539 C541 1.415 . S
C540 C539 1.355 . S
C540 C542 1.419 . S
C541 C536 1.425 . S
C541 C538 1.409 . S
C541 C539 1.415 . S
C542 H532 0.930 . S
C542 C540 1.419 . S
C542 C543 1.362 . S
C543 H533 0.930 . S
C543 C536 1.409 . S
C543 C542 1.362 . S
H544 C550 0.930 . S
H545 C553 0.930 . S
H546 C554 0.930 . S
H547 C555 0.930 . S
H548 C558 0.930 . S
H549 C559 0.930 . S
C550 H544 0.930 . S
C550 C551 1.355 . S
C550 C552 1.415 . S
C551 C550 1.355 . S
C551 C553 1.419 . S
C552 C550 1.415 . S
C552 C557 1.425 1_655 S
C552 C559 1.409 . S
C553 H545 0.930 . S
C553 C551 1.419 . S
C553 C554 1.362 1_655 S
C554 H546 0.930 . S
C554 C553 1.362 1_455 S
C554 C557 1.409 . S
C555 H547 0.930 . S
C555 C556 1.355 . S
C555 C557 1.415 . S
C556 C555 1.355 . S
C556 C558 1.419 . S
C557 C552 1.425 1_455 S
C557 C554 1.409 . S
C557 C555 1.415 . S
C558 H548 0.930 . S
C558 C556 1.419 . S
C558 C559 1.362 1_455 S
C559 H549 0.930 . S
C559 C552 1.409 . S
C559 C558 1.362 1_655 S
C183 C8 1.593 . S
C188 C162 1.579 . S
C199 C32 1.594 . S
C204 C106 1.577 . S
C215 C52 1.574 . S
C220 C120 1.581 . S
C231 C142 1.596 . S
C236 C84 1.574 . S
C247 C10 1.347 . S
C252 C37 1.405 . S
C263 C65 1.403 . S
C268 C40 1.337 . S
C279 C73 1.385 . S
C284 C54 1.384 . S
C295 C21 1.386 . S
C300 C74 1.389 . S
C311 C96 1.379 . S
C316 C175 1.402 . S
C327 C128 1.393 . S
C332 C95 1.387 . S
C343 C150 1.340 . S
C348 C125 1.404 . S
C359 C147 1.405 . S
C364 C164 1.365 . S
C375 C131 0.831 . S
C380 C7 0.814 . S
C391 C153 0.780 . S
C396 C43 0.829 . S
C407 C161 0.819 . S
C412 C51 0.782 . S
C423 C103 0.817 . S
C428 C81 0.782 . S
C439 C18 1.545 . S
C444 C139 1.529 . S
C455 C30 1.532 . S
C460 C169 1.545 . S
C471 C109 1.529 . S
C476 C62 1.545 . S
C487 C117 1.593 . S
C492 C76 1.573 . S
C503 C59 1.571 . S
C508 C98 1.595 . S
C519 C118 1.594 . S
C524 C87 1.574 . S
C535 C140 1.544 . S
C540 C15 1.529 . S
C551 C172 1.589 . S
C556 C29 1.584 . S
