# Generated by pormake.
# Topology umm, (4)-cn, num edge types: 1
# Building blocks:
#     Node 0, Type 0, BuildingBlock: CEKHIL_clean_sbu_0, # of connection points: 4
#     Node 1, Type 0, BuildingBlock: CEKHIL_clean_sbu_0, # of connection points: 4
#     Node 2, Type 0, BuildingBlock: CEKHIL_clean_sbu_0, # of connection points: 4
#     Node 3, Type 0, BuildingBlock: CEKHIL_clean_sbu_0, # of connection points: 4
#     Node 4, Type 0, BuildingBlock: CEKHIL_clean_sbu_0, # of connection points: 4
#     Node 5, Type 0, BuildingBlock: CEKHIL_clean_sbu_0, # of connection points: 4
#     Node 6, Type 0, BuildingBlock: CEKHIL_clean_sbu_0, # of connection points: 4
#     Node 7, Type 0, BuildingBlock: CEKHIL_clean_sbu_0, # of connection points: 4
#     Node 8, Type 0, BuildingBlock: CEKHIL_clean_sbu_0, # of connection points: 4
#     Node 9, Type 0, BuildingBlock: CEKHIL_clean_sbu_0, # of connection points: 4
#     Node 10, Type 0, BuildingBlock: CEKHIL_clean_sbu_0, # of connection points: 4
#     Node 11, Type 0, BuildingBlock: CEKHIL_clean_sbu_0, # of connection points: 4
#     Edge 12, Type (0, 0), BuildingBlock: TEMPAE_clean_linker_10, # of connection points: 2
#     Edge 13, Type (0, 0), BuildingBlock: TEMPAE_clean_linker_10, # of connection points: 2
#     Edge 14, Type (0, 0), BuildingBlock: TEMPAE_clean_linker_10, # of connection points: 2
#     Edge 15, Type (0, 0), BuildingBlock: TEMPAE_clean_linker_10, # of connection points: 2
#     Edge 16, Type (0, 0), BuildingBlock: TEMPAE_clean_linker_10, # of connection points: 2
#     Edge 17, Type (0, 0), BuildingBlock: TEMPAE_clean_linker_10, # of connection points: 2
#     Edge 18, Type (0, 0), BuildingBlock: TEMPAE_clean_linker_10, # of connection points: 2
#     Edge 19, Type (0, 0), BuildingBlock: TEMPAE_clean_linker_10, # of connection points: 2
#     Edge 20, Type (0, 0), BuildingBlock: TEMPAE_clean_linker_10, # of connection points: 2
#     Edge 21, Type (0, 0), BuildingBlock: TEMPAE_clean_linker_10, # of connection points: 2
#     Edge 22, Type (0, 0), BuildingBlock: TEMPAE_clean_linker_10, # of connection points: 2
#     Edge 23, Type (0, 0), BuildingBlock: TEMPAE_clean_linker_10, # of connection points: 2
#     Edge 24, Type (0, 0), BuildingBlock: TEMPAE_clean_linker_10, # of connection points: 2
#     Edge 25, Type (0, 0), BuildingBlock: TEMPAE_clean_linker_10, # of connection points: 2
#     Edge 26, Type (0, 0), BuildingBlock: TEMPAE_clean_linker_10, # of connection points: 2
#     Edge 27, Type (0, 0), BuildingBlock: TEMPAE_clean_linker_10, # of connection points: 2
#     Edge 28, Type (0, 0), BuildingBlock: TEMPAE_clean_linker_10, # of connection points: 2
#     Edge 29, Type (0, 0), BuildingBlock: TEMPAE_clean_linker_10, # of connection points: 2
#     Edge 30, Type (0, 0), BuildingBlock: TEMPAE_clean_linker_10, # of connection points: 2
#     Edge 31, Type (0, 0), BuildingBlock: TEMPAE_clean_linker_10, # of connection points: 2
#     Edge 32, Type (0, 0), BuildingBlock: TEMPAE_clean_linker_10, # of connection points: 2
#     Edge 33, Type (0, 0), BuildingBlock: TEMPAE_clean_linker_10, # of connection points: 2
#     Edge 34, Type (0, 0), BuildingBlock: TEMPAE_clean_linker_10, # of connection points: 2
#     Edge 35, Type (0, 0), BuildingBlock: TEMPAE_clean_linker_10, # of connection points: 2
# Relax obj value: 0.135
# Max RMSD: 0.386
# Mean RMSD: 0.251
data_MOF--net-umm--node1-CEKHIL_clean_sbu_0--edge1-TEMPAE_clean_linker_10
_symmetry_space_group_name_H-M    P1
_symmetry_Int_Tables_number       1
_symmetry_cell_setting            triclinic
loop_
_symmetry_equiv_pos_as_xyz
'x, y, z'
_cell_length_a     56.722359
_cell_length_b     52.990814
_cell_length_c     27.81441
_cell_angle_alpha  89.992054
_cell_angle_beta   89.972656
_cell_angle_gamma 118.02924
loop_
_atom_site_label
_atom_site_type_symbol
_atom_site_fract_x
_atom_site_fract_y
_atom_site_fract_z
_atom_type_partial_charge
Co0 Co 0.37196 0.50655 0.07215 0.0
O1 O 0.33808 0.50549 0.07994 0.0
O2 O 0.34424 0.47416 0.03675 0.0
C3 C 0.38317 0.51468 0.14995 0.0
O4 O 0.40551 0.50195 0.05871 0.0
Co5 Co 0.42225 0.56402 0.09431 0.0
O6 O 0.43972 0.53929 0.09514 0.0
C7 C 0.39495 0.55689 0.00196 0.0
C8 C 0.32789 0.48336 0.05219 0.0
C9 C 0.42994 0.51522 0.07384 0.0
O10 O 0.3788 0.53099 0.01352 0.0
O11 O 0.4135 0.57432 0.02957 0.0
O12 O 0.36857 0.48869 0.13478 0.0
O13 O 0.38841 0.53472 0.11882 0.0
Co14 Co 0.86394 0.3824 0.41119 0.0
O15 O 0.83034 0.34849 0.41215 0.0
O16 O 0.86728 0.35034 0.38271 0.0
C17 C 0.86205 0.39551 0.48716 0.0
O18 O 0.90233 0.41542 0.40659 0.0
Co19 Co 0.86077 0.4392 0.42263 0.0
O20 O 0.89992 0.45484 0.43078 0.0
C21 C 0.84582 0.40874 0.33095 0.0
C22 C 0.8417 0.33537 0.39097 0.0
C23 C 0.9134 0.44215 0.41874 0.0
O24 O 0.8551 0.39228 0.34623 0.0
O25 O 0.84375 0.42733 0.35749 0.0
O26 O 0.87047 0.37702 0.47832 0.0
O27 O 0.85231 0.40261 0.45082 0.0
Co28 Co 0.43922 0.84065 0.74603 0.0
O29 O 0.43332 0.80209 0.75113 0.0
O30 O 0.46696 0.83683 0.71174 0.0
C31 C 0.432 0.84614 0.82344 0.0
O32 O 0.45248 0.88315 0.7351 0.0
Co33 Co 0.3937 0.85573 0.76516 0.0
O34 O 0.42352 0.89525 0.77001 0.0
C35 C 0.39532 0.8299 0.6728 0.0
C36 C 0.45456 0.81013 0.72483 0.0
C37 C 0.44605 0.90196 0.75062 0.0
O38 O 0.41729 0.83053 0.68572 0.0
O39 O 0.38201 0.83831 0.69955 0.0
O40 O 0.45515 0.84942 0.80949 0.0
O41 O 0.4133 0.83696 0.79129 0.0
Co42 Co 0.64903 0.49993 0.0629 0.0
O43 O 0.68525 0.50783 0.07192 0.0
O44 O 0.6732 0.53429 0.02712 0.0
C45 C 0.63735 0.49037 0.14057 0.0
O46 O 0.61225 0.49737 0.04859 0.0
Co47 Co 0.60591 0.43759 0.0834 0.0
O48 O 0.58136 0.45417 0.07552 0.0
C49 C 0.63515 0.45021 -0.00726 0.0
C50 C 0.69228 0.52945 0.04344 0.0
C51 C 0.58775 0.4787 0.05761 0.0
O52 O 0.64667 0.47673 0.00433 0.0
O53 O 0.61864 0.43034 0.02004 0.0
O54 O 0.649 0.51664 0.12527 0.0
O55 O 0.63578 0.47139 0.10974 0.0
Co56 Co 0.16446 0.62825 0.40629 0.0
O57 O 0.19863 0.66145 0.40624 0.0
O58 O 0.16221 0.66056 0.37626 0.0
C59 C 0.16585 0.61592 0.48294 0.0
O60 O 0.12561 0.59614 0.40264 0.0
Co61 Co 0.16539 0.57043 0.42084 0.0
O62 O 0.12659 0.55665 0.43082 0.0
C63 C 0.18051 0.59903 0.32743 0.0
C64 C 0.18783 0.67497 0.38445 0.0
C65 C 0.11383 0.56983 0.41721 0.0
O66 O 0.17265 0.61685 0.34201 0.0
O67 O 0.18165 0.58021 0.3548 0.0
O68 O 0.15832 0.63498 0.47292 0.0
O69 O 0.17519 0.60777 0.44726 0.0
Co70 Co 0.59323 0.17119 0.74868 0.0
O71 O 0.60037 0.21015 0.75436 0.0
O72 O 0.56541 0.17604 0.71687 0.0
C73 C 0.60152 0.16525 0.82527 0.0
O74 O 0.57865 0.12851 0.73751 0.0
Co75 Co 0.63797 0.15439 0.76382 0.0
O76 O 0.60761 0.11522 0.76882 0.0
C77 C 0.63555 0.18084 0.67259 0.0
C78 C 0.57873 0.20275 0.72955 0.0
C79 C 0.58483 0.10918 0.7513 0.0
O80 O 0.614 0.18068 0.68699 0.0
O81 O 0.64898 0.17205 0.69819 0.0
O82 O 0.57844 0.16285 0.81302 0.0
O83 O 0.61965 0.17399 0.79205 0.0
Co84 Co 0.43738 0.59062 0.56773 0.0
O85 O 0.42833 0.62106 0.56233 0.0
O86 O 0.46529 0.62487 0.59605 0.0
C87 C 0.42721 0.57444 0.49241 0.0
O88 O 0.45389 0.56425 0.57784 0.0
Co89 Co 0.39382 0.52762 0.55799 0.0
O90 O 0.42509 0.52078 0.54973 0.0
C91 C 0.39801 0.55816 0.64818 0.0
C92 C 0.4506 0.63683 0.58457 0.0
C93 C 0.44818 0.53871 0.56475 0.0
O94 O 0.41877 0.57976 0.6315 0.0
O95 O 0.38429 0.53526 0.62414 0.0
O96 O 0.45008 0.59639 0.502 0.0
O97 O 0.41018 0.56503 0.52744 0.0
Co98 Co 0.86087 0.48003 0.89735 0.0
O99 O 0.82719 0.48 0.89796 0.0
O100 O 0.86424 0.51508 0.92747 0.0
C101 C 0.85874 0.46594 0.82073 0.0
O102 O 0.89931 0.48565 0.90047 0.0
Co103 Co 0.85769 0.42015 0.88298 0.0
O104 O 0.89674 0.44419 0.87357 0.0
C105 C 0.84376 0.4347 0.97639 0.0
C106 C 0.83861 0.50434 0.9198 0.0
C107 C 0.91028 0.47025 0.88658 0.0
O108 O 0.85253 0.46055 0.96172 0.0
O109 O 0.84157 0.41428 0.94907 0.0
O110 O 0.86699 0.49275 0.83057 0.0
O111 O 0.84916 0.44859 0.8566 0.0
Co112 Co 0.37993 0.86149 0.24641 0.0
O113 O 0.34403 0.83204 0.23825 0.0
O114 O 0.35519 0.87145 0.28035 0.0
C115 C 0.39182 0.86253 0.16925 0.0
O116 O 0.4162 0.89695 0.25918 0.0
Co117 Co 0.4246 0.84448 0.22891 0.0
O118 O 0.44704 0.88648 0.22694 0.0
C119 C 0.39544 0.82864 0.31983 0.0
C120 C 0.33651 0.84686 0.26503 0.0
C121 C 0.44036 0.90429 0.24517 0.0
O122 O 0.38295 0.84231 0.30659 0.0
O123 O 0.41256 0.82585 0.29352 0.0
O124 O 0.37948 0.87669 0.18293 0.0
O125 O 0.39388 0.84602 0.20133 0.0
Co126 Co 0.59611 0.41981 0.56397 0.0
O127 O 0.60233 0.38743 0.55795 0.0
O128 O 0.56807 0.38744 0.59644 0.0
C129 C 0.6039 0.43388 0.48726 0.0
O130 O 0.58252 0.44861 0.57567 0.0
Co131 Co 0.64165 0.48102 0.54806 0.0
O132 O 0.61177 0.49043 0.54275 0.0
C133 C 0.63879 0.45237 0.63972 0.0
C134 C 0.58079 0.37355 0.58331 0.0
C135 C 0.58904 0.47411 0.56111 0.0
O136 O 0.61726 0.4309 0.6252 0.0
O137 O 0.65232 0.47466 0.61414 0.0
O138 O 0.58077 0.41343 0.5002 0.0
O139 O 0.62243 0.44306 0.51977 0.0
Co140 Co 0.15805 0.52587 0.89253 0.0
O141 O 0.19098 0.52438 0.88946 0.0
O142 O 0.15405 0.49003 0.92054 0.0
C143 C 0.15958 0.54111 0.81673 0.0
O144 O 0.1202 0.52165 0.89882 0.0
Co145 Co 0.16298 0.58671 0.88213 0.0
O146 O 0.12372 0.56386 0.87389 0.0
C147 C 0.17789 0.57037 0.97303 0.0
C148 C 0.17932 0.49974 0.91031 0.0
C149 C 0.10973 0.53776 0.88638 0.0
O150 O 0.16809 0.54457 0.95749 0.0
O151 O 0.18025 0.59132 0.94691 0.0
O152 O 0.15046 0.51402 0.82547 0.0
O153 O 0.17008 0.55788 0.85298 0.0
Co154 Co 0.65252 0.14922 0.2484 0.0
O155 O 0.68871 0.17825 0.24157 0.0
O156 O 0.67636 0.1388 0.28426 0.0
C157 C 0.64193 0.14835 0.17057 0.0
O158 O 0.61584 0.11413 0.26015 0.0
Co159 Co 0.60856 0.16682 0.2274 0.0
O160 O 0.58572 0.12487 0.22561 0.0
C161 C 0.63644 0.18266 0.31954 0.0
C162 C 0.6955 0.16321 0.26934 0.0
C163 C 0.59193 0.10699 0.24499 0.0
O164 O 0.64889 0.16872 0.30765 0.0
O165 O 0.6198 0.18556 0.29208 0.0
O166 O 0.65368 0.13382 0.18542 0.0
O167 O 0.63958 0.16498 0.20204 0.0
C168 C 0.3921 0.546 0.22086 0.0
C169 C 0.39064 0.52114 0.20066 0.0
C170 C 0.39766 0.55198 0.26974 0.0
C171 C 0.40275 0.53308 0.29861 0.0
C172 C 0.40182 0.50817 0.27814 0.0
C173 C 0.3953 0.50222 0.22932 0.0
C174 C 0.39783 0.57842 0.29055 0.0
C175 C 0.40791 0.48803 0.30764 0.0
C176 C 0.44174 0.56936 0.41026 0.0
C177 C 0.4213 0.56114 0.44446 0.0
C178 C 0.43619 0.55887 0.36318 0.0
C179 C 0.40953 0.54003 0.35 0.0
C180 C 0.389 0.53055 0.38501 0.0
C181 C 0.39519 0.54114 0.43206 0.0
C182 C 0.45867 0.56907 0.32699 0.0
C183 C 0.3603 0.51058 0.37215 0.0
H184 H 0.38815 0.56042 0.19865 0.0
H185 H 0.39423 0.48304 0.21337 0.0
H186 H 0.38358 0.57244 0.32103 0.0
H187 H 0.41796 0.59303 0.30482 0.0
H188 H 0.39237 0.59022 0.26354 0.0
H189 H 0.40651 0.46971 0.28613 0.0
H190 H 0.42835 0.49971 0.32283 0.0
H191 H 0.39387 0.47962 0.33838 0.0
H192 H 0.46205 0.58451 0.41996 0.0
H193 H 0.37939 0.53462 0.45859 0.0
H194 H 0.45645 0.58359 0.30076 0.0
H195 H 0.45791 0.55074 0.3065 0.0
H196 H 0.47859 0.58076 0.34428 0.0
H197 H 0.3526 0.52186 0.34835 0.0
H198 H 0.34728 0.50288 0.40443 0.0
H199 H 0.3588 0.49182 0.35202 0.0
C200 C 0.88072 0.40608 0.57005 0.0
C201 C 0.86345 0.40745 0.53542 0.0
C202 C 0.88166 0.41664 0.61661 0.0
C203 C 0.86445 0.42816 0.62886 0.0
C204 C 0.84712 0.42979 0.59382 0.0
C205 C 0.84707 0.4197 0.54725 0.0
C206 C 0.90085 0.41521 0.65278 0.0
C207 C 0.82819 0.44155 0.60584 0.0
C208 C 0.84563 0.42734 0.75974 0.0
C209 C 0.86089 0.45615 0.77223 0.0
C210 C 0.84671 0.4179 0.71313 0.0
C211 C 0.86389 0.4377 0.67873 0.0
C212 C 0.8799 0.46669 0.6916 0.0
C213 C 0.87799 0.47565 0.73818 0.0
C214 C 0.82904 0.38689 0.70042 0.0
C215 C 0.89889 0.48823 0.65611 0.0
H216 H 0.89359 0.39685 0.5607 0.0
H217 H 0.83365 0.42068 0.52043 0.0
H218 H 0.91355 0.4367 0.66829 0.0
H219 H 0.88956 0.40088 0.68289 0.0
H220 H 0.914 0.40721 0.63666 0.0
H221 H 0.81614 0.4415 0.57432 0.0
H222 H 0.81439 0.42861 0.63492 0.0
H223 H 0.8395 0.46377 0.61936 0.0
H224 H 0.83238 0.41227 0.7861 0.0
H225 H 0.89001 0.4979 0.74803 0.0
H226 H 0.84138 0.37709 0.68749 0.0
H227 H 0.81537 0.38535 0.67073 0.0
H228 H 0.81688 0.37425 0.73145 0.0
H229 H 0.91263 0.48067 0.64123 0.0
H230 H 0.91098 0.5096 0.67263 0.0
H231 H 0.88753 0.49053 0.62549 0.0
C232 C 0.40129 0.84006 0.89148 0.0
C233 C 0.42731 0.85208 0.87319 0.0
C234 C 0.39667 0.84374 0.93984 0.0
C235 C 0.41861 0.86033 0.97015 0.0
C236 C 0.44486 0.87352 0.95129 0.0
C237 C 0.44893 0.86897 0.90304 0.0
C238 C 0.36842 0.82906 0.95887 0.0
C239 C 0.46865 0.89192 0.9823 0.0
C240 C 0.40136 0.88422 0.08739 0.0
C241 C 0.401 0.86361 0.1194 0.0
C242 C 0.40804 0.8841 0.03889 0.0
C243 C 0.41408 0.86259 0.0221 0.0
C244 C 0.41448 0.84223 0.0546 0.0
C245 C 0.40812 0.84313 0.10303 0.0
C246 C 0.40796 0.90649 0.0054 0.0
C247 C 0.42064 0.81884 0.03788 0.0
H248 H 0.38457 0.82698 0.86838 0.0
H249 H 0.46906 0.87855 0.88871 0.0
H250 H 0.36659 0.81349 -0.0128 0.0
H251 H 0.3634 0.84493 0.97565 0.0
H252 H 0.35354 0.81754 0.93027 0.0
H253 H 0.48745 0.90251 0.96118 0.0
H254 H 0.4654 0.9086 0.00072 0.0
H255 H 0.47114 0.87862 0.01062 0.0
H256 H 0.39607 0.90025 0.10011 0.0
H257 H 0.40787 0.82719 0.12774 0.0
H258 H 0.39164 0.89622 0.97874 0.0
H259 H 0.42701 0.91699 0.98505 0.0
H260 H 0.40512 0.92315 0.02491 0.0
H261 H 0.40538 0.80501 0.01143 0.0
H262 H 0.42097 0.80525 0.06803 0.0
H263 H 0.44028 0.82821 0.01946 0.0
C264 C 0.6214 0.45534 0.20799 0.0
C265 C 0.62957 0.48317 0.19131 0.0
C266 C 0.61652 0.44877 0.25697 0.0
C267 C 0.61962 0.4705 0.28986 0.0
C268 C 0.62687 0.49839 0.27299 0.0
C269 C 0.63189 0.50444 0.22381 0.0
C270 C 0.60885 0.41877 0.27369 0.0
C271 C 0.62993 0.52196 0.30698 0.0
C272 C 0.58679 0.44323 0.41073 0.0
C273 C 0.60844 0.44581 0.43837 0.0
C274 C 0.59036 0.45257 0.36288 0.0
C275 C 0.61609 0.46406 0.34205 0.0
C276 C 0.63818 0.46749 0.37032 0.0
C277 C 0.63412 0.4586 0.41848 0.0
C278 C 0.56649 0.44932 0.33423 0.0
C279 C 0.66587 0.47935 0.34912 0.0
H280 H 0.61954 0.43883 0.18297 0.0
H281 H 0.63809 0.52596 0.21097 0.0
H282 H 0.62422 0.41919 0.29881 0.0
H283 H 0.58966 0.40979 0.2936 0.0
H284 H 0.60677 0.40423 0.24336 0.0
H285 H 0.63371 0.54186 0.28767 0.0
H286 H 0.61169 0.51494 0.32928 0.0
H287 H 0.64682 0.5269 0.33187 0.0
H288 H 0.56696 0.43369 0.42643 0.0
H289 H 0.65084 0.46058 0.43996 0.0
H290 H 0.5618 0.43291 0.30591 0.0
H291 H 0.57098 0.46969 0.31591 0.0
H292 H 0.54849 0.44284 0.3571 0.0
H293 H 0.66599 0.46478 0.32056 0.0
H294 H 0.68108 0.48192 0.37652 0.0
H295 H 0.67174 0.5004 0.33211 0.0
C296 C 0.17847 0.59057 0.54484 0.0
C297 C 0.16322 0.60388 0.53148 0.0
C298 C 0.17695 0.58002 0.59157 0.0
C299 C 0.15928 0.5823 0.62515 0.0
C300 C 0.14326 0.59501 0.61137 0.0
C301 C 0.14566 0.60598 0.56473 0.0
C302 C 0.19464 0.56699 0.60528 0.0
C303 C 0.12374 0.59717 0.64593 0.0
C304 C 0.14147 0.53329 0.7334 0.0
C305 C 0.15838 0.55192 0.76857 0.0
C306 C 0.14094 0.5431 0.6868 0.0
C307 C 0.15815 0.57203 0.67509 0.0
C308 C 0.175 0.591 0.71071 0.0
C309 C 0.17471 0.58074 0.75726 0.0
C310 C 0.12227 0.52245 0.64997 0.0
C311 C 0.19387 0.62192 0.69932 0.0
H312 H 0.19208 0.58901 0.5191 0.0
H313 H 0.13365 0.61603 0.55417 0.0
H314 H 0.20787 0.57917 0.6355 0.0
H315 H 0.18229 0.5447 0.61787 0.0
H316 H 0.20727 0.56683 0.57486 0.0
H317 H 0.11178 0.60633 0.62875 0.0
H318 H 0.10991 0.57571 0.66037 0.0
H319 H 0.13466 0.61081 0.67694 0.0
H320 H 0.12865 0.51103 0.74229 0.0
H321 H 0.18783 0.59514 0.78446 0.0
H322 H 0.13399 0.51961 0.62049 0.0
H323 H 0.10974 0.53115 0.63369 0.0
H324 H 0.10896 0.50115 0.66572 0.0
H325 H 0.20815 0.62313 0.67098 0.0
H326 H 0.20539 0.63394 0.73131 0.0
H327 H 0.18258 0.63261 0.68504 0.0
C328 C 0.62754 0.1686 0.10289 0.0
C329 C 0.63357 0.14749 0.12023 0.0
C330 C 0.62162 0.16948 0.05425 0.0
C331 C 0.62126 0.14843 0.0225 0.0
C332 C 0.62641 0.12645 0.04016 0.0
C333 C 0.63275 0.12639 0.08888 0.0
C334 C 0.61647 0.19341 0.03659 0.0
C335 C 0.62564 0.10333 0.00746 0.0
C336 C 0.58531 0.14243 0.90509 0.0
C337 C 0.60669 0.15876 0.87436 0.0
C338 C 0.58981 0.13769 0.95298 0.0
C339 C 0.6163 0.15012 0.97058 0.0
C340 C 0.638 0.16592 0.93926 0.0
C341 C 0.63292 0.16981 0.89125 0.0
C342 C 0.56623 0.12014 0.98507 0.0
C343 C 0.66651 0.17975 0.95695 0.0
H344 H 0.62821 0.18497 0.12707 0.0
H345 H 0.63723 0.10991 0.10236 0.0
H346 H 0.63157 0.20619 0.00908 0.0
H347 H 0.59658 0.1845 0.01918 0.0
H348 H 0.61723 0.20792 0.06607 0.0
H349 H 0.62834 0.08673 0.02748 0.0
H350 H 0.60633 0.09289 -0.01203 0.0
H351 H 0.64166 0.11289 0.98004 0.0
H352 H 0.565 0.13356 0.89182 0.0
H353 H 0.64946 0.18242 0.86744 0.0
H354 H 0.56435 0.1341 0.01289 0.0
H355 H 0.56926 0.10348 0.00407 0.0
H356 H 0.54719 0.1096 0.96465 0.0
H357 H 0.6694 0.19618 0.98436 0.0
H358 H 0.68113 0.19012 0.92745 0.0
H359 H 0.6709 0.16364 0.97451 0.0
C360 C 0.28951 0.45401 -0.00396 0.0
C361 C 0.29986 0.47238 0.03561 0.0
C362 C 0.26508 0.44914 0.97488 0.0
C363 C 0.25135 0.46372 -0.00716 0.0
C364 C 0.26063 0.48015 0.03533 0.0
C365 C 0.28442 0.48384 0.05648 0.0
C366 C 0.2551 0.43001 0.93141 0.0
C367 C 0.24706 0.49645 0.05582 0.0
C368 C 0.22251 0.49846 0.91009 0.0
C369 C 0.1956 0.48563 0.92439 0.0
C370 C 0.2404 0.48988 0.92932 0.0
C371 C 0.23115 0.46721 0.96298 0.0
C372 C 0.20344 0.45206 0.9737 0.0
C373 C 0.18597 0.46174 0.95483 0.0
C374 C 0.26969 0.50692 0.91668 0.0
C375 C 0.19243 0.42668 0.00709 0.0
H376 H 0.30104 0.44467 0.98006 0.0
H377 H 0.29188 0.49754 0.08776 0.0
H378 H 0.233 0.41977 0.92866 0.0
H379 H 0.26371 0.44285 0.89843 0.0
H380 H 0.2614 0.41309 0.93261 0.0
H381 H 0.25597 0.50699 0.09052 0.0
H382 H 0.24875 0.51317 0.02992 0.0
H383 H 0.22552 0.48195 0.06164 0.0
H384 H 0.23013 0.51653 0.88569 0.0
H385 H 0.16514 0.45134 0.96546 0.0
H386 H 0.27755 0.49256 0.90371 0.0
H387 H 0.28126 0.51804 0.94919 0.0
H388 H 0.27339 0.52321 0.88847 0.0
H389 H 0.20378 0.41446 0.00401 0.0
H390 H 0.17102 0.41214 -0.00054 0.0
H391 H 0.19397 0.43414 0.04476 0.0
C392 C 0.83455 0.28589 0.36825 0.0
C393 C 0.82486 0.30567 0.37399 0.0
C394 C 0.81727 0.25747 0.35382 0.0
C395 C 0.79001 0.24908 0.34402 0.0
C396 C 0.78042 0.26923 0.3495 0.0
C397 C 0.79783 0.29699 0.36471 0.0
C398 C 0.82801 0.23638 0.34982 0.0
C399 C 0.75176 0.26175 0.33833 0.0
C400 C 0.74368 0.19465 0.2565 0.0
C401 C 0.72323 0.17639 0.28741 0.0
C402 C 0.7677 0.21645 0.27462 0.0
C403 C 0.77128 0.22011 0.32498 0.0
C404 C 0.75225 0.19916 0.35606 0.0
C405 C 0.72828 0.17747 0.33684 0.0
C406 C 0.78729 0.238 0.23986 0.0
C407 C 0.75554 0.20181 0.4099 0.0
H408 H 0.85535 0.29243 0.37592 0.0
H409 H 0.79022 0.31221 0.36862 0.0
H410 H 0.8182 0.2193 0.37713 0.0
H411 H 0.82329 0.22588 0.31407 0.0
H412 H 0.84996 0.24663 0.35544 0.0
H413 H 0.74744 0.27981 0.34527 0.0
H414 H 0.74735 0.25549 0.3 0.0
H415 H 0.7379 0.24326 0.36037 0.0
H416 H 0.73983 0.19372 0.21817 0.0
H417 H 0.71246 0.16349 0.3609 0.0
H418 H 0.80817 0.24503 0.25125 0.0
H419 H 0.78415 0.25716 0.23901 0.0
H420 H 0.78458 0.22924 0.2028 0.0
H421 H 0.743 0.18108 0.4281 0.0
H422 H 0.74934 0.21757 0.42313 0.0
H423 H 0.77673 0.20957 0.42019 0.0
C424 C 0.45246 0.7624 0.7302 0.0
C425 C 0.46238 0.78894 0.70716 0.0
C426 C 0.45551 0.74002 0.70966 0.0
C427 C 0.46858 0.74427 0.66475 0.0
C428 C 0.48026 0.77162 0.64292 0.0
C429 C 0.4771 0.79378 0.66459 0.0
C430 C 0.44299 0.71123 0.73436 0.0
C431 C 0.49434 0.77692 0.59505 0.0
C432 C 0.48074 0.68276 0.62606 0.0
C433 C 0.4575 0.6662 0.59953 0.0
C434 C 0.48557 0.70926 0.64531 0.0
C435 C 0.46657 0.7191 0.63811 0.0
C436 C 0.4438 0.70314 0.60924 0.0
C437 C 0.43961 0.67694 0.59017 0.0
C438 C 0.51025 0.72597 0.67534 0.0
C439 C 0.423 0.71289 0.60077 0.0
H440 H 0.44133 0.75875 0.76345 0.0
H441 H 0.48477 0.81431 0.6467 0.0
H442 H 0.42546 0.69589 0.71334 0.0
H443 H 0.45735 0.70254 0.73615 0.0
H444 H 0.43623 0.71235 0.77142 0.0
H445 H 0.50611 0.80011 0.58703 0.0
H446 H 0.50785 0.76713 0.59413 0.0
H447 H 0.47933 0.76682 0.56613 0.0
H448 H 0.49473 0.67463 0.63312 0.0
H449 H 0.42168 0.66433 0.56944 0.0
H450 H 0.5045 0.72481 0.71373 0.0
H451 H 0.5202 0.74886 0.66485 0.0
H452 H 0.52479 0.71756 0.67183 0.0
H453 H 0.41292 0.71245 0.6352 0.0
H454 H 0.40757 0.69914 0.57445 0.0
H455 H 0.43255 0.73524 0.58742 0.0
C456 C 0.7256 0.54846 0.9766 0.0
C457 C 0.72017 0.54391 0.02588 0.0
C458 C 0.7496 0.55078 0.95759 0.0
C459 C 0.76828 0.54832 -0.01132 0.0
C460 C 0.76432 0.54775 0.03901 0.0
C461 C 0.74031 0.54555 0.05693 0.0
C462 C 0.75327 0.55202 0.90379 0.0
C463 C 0.78347 0.54513 0.0738 0.0
C464 C 0.79477 0.49842 0.94689 0.0
C465 C 0.82182 0.51696 0.9378 0.0
C466 C 0.7774 0.50856 0.96284 0.0
C467 C 0.78705 0.53831 0.96928 0.0
C468 C 0.81434 0.55738 0.9597 0.0
C469 C 0.83158 0.54642 0.94463 0.0
C470 C 0.74873 0.48716 0.97381 0.0
C471 C 0.82523 0.58922 0.96526 0.0
H472 H 0.71005 0.54706 0.95241 0.0
H473 H 0.73619 0.54221 0.09515 0.0
H474 H 0.77444 0.56614 0.89405 0.0
H475 H 0.74775 0.53028 0.89008 0.0
H476 H 0.74048 0.55979 0.88556 0.0
H477 H 0.7807 0.55096 0.11096 0.0
H478 H 0.7799 0.52265 0.07415 0.0
H479 H 0.80449 0.55885 0.06283 0.0
H480 H 0.7871 0.47558 0.94223 0.0
H481 H 0.85243 0.56085 0.93731 0.0
H482 H 0.73485 0.4925 0.9535 0.0
H483 H 0.74464 0.488 0.01264 0.0
H484 H 0.74414 0.46491 0.96472 0.0
H485 H 0.81265 0.59648 0.94503 0.0
H486 H 0.84616 0.60131 0.95236 0.0
H487 H 0.82456 0.59456 0.00361 0.0
C488 C 0.23244 0.71322 0.36072 0.0
C489 C 0.2052 0.7046 0.36752 0.0
C490 C 0.25023 0.74085 0.34543 0.0
C491 C 0.2408 0.76094 0.33728 0.0
C492 C 0.21335 0.75265 0.34472 0.0
C493 C 0.19572 0.72436 0.35928 0.0
C494 C 0.27911 0.74825 0.3369 0.0
C495 C 0.20275 0.7737 0.33775 0.0
C496 C 0.30246 0.83276 0.33051 0.0
C497 C 0.30846 0.83334 0.28155 0.0
C498 C 0.27823 0.81111 0.34905 0.0
C499 C 0.25992 0.78966 0.31779 0.0
C500 C 0.26449 0.7927 0.26757 0.0
C501 C 0.28871 0.8145 0.25014 0.0
C502 C 0.27392 0.80912 0.4027 0.0
C503 C 0.24575 0.77056 0.23263 0.0
H504 H 0.23994 0.69805 0.36661 0.0
H505 H 0.17475 0.71789 0.36499 0.0
H506 H 0.28432 0.75389 0.29854 0.0
H507 H 0.29249 0.7671 0.35868 0.0
H508 H 0.2833 0.73034 0.3461 0.0
H509 H 0.1809 0.76389 0.34433 0.0
H510 H 0.21309 0.79199 0.36269 0.0
H511 H 0.20697 0.78246 0.30071 0.0
H512 H 0.31772 0.84719 0.35498 0.0
H513 H 0.2933 0.81503 0.21216 0.0
H514 H 0.2804 0.79401 0.41791 0.0
H515 H 0.25248 0.80091 0.41155 0.0
H516 H 0.28571 0.83021 0.42031 0.0
H517 H 0.24909 0.75154 0.23382 0.0
H518 H 0.24915 0.7788 0.19516 0.0
H519 H 0.2246 0.76346 0.24234 0.0
C520 C 0.55189 0.21806 0.67721 0.0
C521 C 0.57134 0.22451 0.71288 0.0
C522 C 0.54795 0.23979 0.65583 0.0
C523 C 0.5639 0.26846 0.67054 0.0
C524 C 0.58225 0.27475 0.70883 0.0
C525 C 0.58572 0.25267 0.72955 0.0
C526 C 0.52799 0.2323 0.61548 0.0
C527 C 0.59959 0.30507 0.72574 0.0
C528 C 0.58695 0.33014 0.58371 0.0
C529 C 0.57287 0.34424 0.60004 0.0
C530 C 0.5829 0.30436 0.60443 0.0
C531 C 0.56424 0.29237 0.64235 0.0
C532 C 0.5486 0.30543 0.65672 0.0
C533 C 0.55314 0.33134 0.63538 0.0
C534 C 0.59995 0.29103 0.58793 0.0
C535 C 0.5283 0.29304 0.69665 0.0
H536 H 0.54063 0.19628 0.66437 0.0
H537 H 0.60057 0.25773 0.75751 0.0
H538 H 0.51613 0.24388 0.61953 0.0
H539 H 0.53878 0.23895 0.58069 0.0
H540 H 0.51414 0.20898 0.6139 0.0
H541 H 0.61097 0.306 0.75877 0.0
H542 H 0.61404 0.31742 0.69706 0.0
H543 H 0.58724 0.31581 0.7331 0.0
H544 H 0.60203 0.33986 0.55601 0.0
H545 H 0.5421 0.3421 0.64794 0.0
H546 H 0.58733 0.26795 0.58029 0.0
H547 H 0.61408 0.29281 0.61694 0.0
H548 H 0.61168 0.30152 0.55515 0.0
H549 H 0.51611 0.26957 0.69233 0.0
H550 H 0.51478 0.30284 0.69794 0.0
H551 H 0.53881 0.29689 0.73166 0.0
C552 C 0.45931 0.5055 0.01846 0.0
C553 C 0.44879 0.50386 0.06463 0.0
C554 C 0.48217 0.50192 0.01127 0.0
C555 C 0.49459 0.49635 0.05121 0.0
C556 C 0.48325 0.49353 0.0976 0.0
C557 C 0.46073 0.49769 0.10378 0.0
C558 C 0.49372 0.50537 0.96136 0.0
C559 C 0.49539 0.487 0.14107 0.0
C560 C 0.53976 0.46193 0.03848 0.0
C561 C 0.56518 0.48489 0.04781 0.0
C562 C 0.51688 0.46567 0.03695 0.0
C563 C 0.51926 0.4931 0.045 0.0
C564 C 0.54504 0.51676 0.05156 0.0
C565 C 0.56776 0.51239 0.05276 0.0
C566 C 0.48996 0.43987 0.02951 0.0
C567 C 0.54846 0.54642 0.05984 0.0
H568 H 0.45057 0.5112 -0.01158 0.0
H569 H 0.45293 0.4971 0.13961 0.0
H570 H 0.51373 0.52442 0.96031 0.0
H571 H 0.49644 0.48659 0.95177 0.0
H572 H 0.48088 0.50799 0.93377 0.0
H573 H 0.48357 0.48442 0.17427 0.0
H574 H 0.49685 0.46708 0.13505 0.0
H575 H 0.51596 0.50451 0.14684 0.0
H576 H 0.53758 0.44062 0.03391 0.0
H577 H 0.58726 0.5302 0.06006 0.0
H578 H 0.47853 0.4442 0.00127 0.0
H579 H 0.47819 0.43511 0.06325 0.0
H580 H 0.49173 0.42058 0.0191 0.0
H581 H 0.53743 0.55176 0.03217 0.0
H582 H 0.56979 0.56292 0.05911 0.0
H583 H 0.53994 0.54728 0.09535 0.0
C584 C 0.95464 0.48583 0.44421 0.0
C585 C 0.943 0.46 0.41834 0.0
C586 C 0.9822 0.50432 0.44272 0.0
C587 C 0.99884 0.49706 0.41445 0.0
C588 C 0.98737 0.47097 0.38836 0.0
C589 C 0.95959 0.45264 0.39082 0.0
C590 C 0.99352 0.53158 0.47184 0.0
C591 C 1.00447 0.4625 0.35773 0.0
C592 C 0.0683 0.55758 0.38394 0.0
C593 C 0.08421 0.55299 0.41775 0.0
C594 C 0.04051 0.53925 0.38176 0.0
C595 C 0.02838 0.51613 0.41464 0.0
C596 C 0.04434 0.51195 0.44952 0.0
C597 C 0.07195 0.53026 0.45047 0.0
C598 C 0.02417 0.54436 0.34394 0.0
C599 C 0.03228 0.48807 0.48599 0.0
H600 H 0.94213 0.49171 0.466 0.0
H601 H 0.95082 0.43289 0.37046 0.0
H602 H 1.00808 0.53157 0.49847 0.0
H603 H 1.00444 0.55032 0.44801 0.0
H604 H 0.97781 0.53435 0.49137 0.0
H605 H 0.99248 0.44206 0.33837 0.0
H606 H 0.01571 0.47951 0.33099 0.0
H607 H 0.01939 0.4602 0.38055 0.0
H608 H 0.07766 0.57489 0.35827 0.0
H609 H 0.08406 0.52668 0.477 0.0
H610 H 1.00861 0.54833 0.36131 0.0
H611 H 1.01372 0.52502 0.32118 0.0
H612 H 0.0366 0.56285 0.32045 0.0
H613 H 0.01702 0.49044 0.50772 0.0
H614 H 0.04748 0.48769 0.51074 0.0
H615 H 0.02202 0.46715 0.46737 0.0
C616 C 0.54231 0.07042 0.71729 0.0
C617 C 0.56467 0.07874 0.74712 0.0
C618 C 0.52277 0.04167 0.71421 0.0
C619 C 0.5255 0.02089 0.74223 0.0
C620 C 0.54813 0.02911 0.77206 0.0
C621 C 0.56753 0.0579 0.7739 0.0
C622 C 0.49907 0.03356 0.68146 0.0
C623 C 0.55155 0.00761 0.80295 0.0
C624 C 0.46364 0.95271 0.77658 0.0
C625 C 0.46564 0.93258 0.74645 0.0
C626 C 0.48279 0.98161 0.77502 0.0
C627 C 0.50422 0.99067 0.74199 0.0
C628 C 0.50595 0.97063 0.71048 0.0
C629 C 0.48675 0.94173 0.7134 0.0
C630 C 0.4805 1.0023 0.80969 0.0
C631 C 0.52829 0.97963 0.67426 0.0
H632 H 0.54006 0.08639 0.69622 0.0
H633 H 0.58466 0.06417 0.79725 0.0
H634 H 0.49714 0.01639 0.65645 0.0
H635 H 0.48046 0.02502 0.70306 0.0
H636 H 0.50068 0.05201 0.66004 0.0
H637 H 0.57055 0.01742 0.82356 0.0
H638 H 0.5347 0.99765 0.82873 0.0
H639 H 0.55118 0.99022 0.78025 0.0
H640 H 0.44747 0.94576 0.80242 0.0
H641 H 0.48828 0.9263 0.68976 0.0
H642 H 0.4802 0.02027 0.78974 0.0
H643 H 0.49819 0.01157 0.8337 0.0
H644 H 0.46223 0.99195 0.83227 0.0
H645 H 0.52934 0.99747 0.65188 0.0
H646 H 0.52577 0.96179 0.65022 0.0
H647 H 0.54769 0.98759 0.69321 0.0
C648 C 0.49159 0.54409 0.59652 0.0
C649 C 0.46914 0.52966 0.567 0.0
C650 C 0.51159 0.53561 0.59856 0.0
C651 C 0.50924 0.51253 0.56972 0.0
C652 C 0.48667 0.49797 0.53976 0.0
C653 C 0.4668 0.50656 0.53906 0.0
C654 C 0.53523 0.55134 0.63144 0.0
C655 C 0.48369 0.47355 0.5079 0.0
C656 C 0.57145 0.50723 0.53563 0.0
C657 C 0.56934 0.48485 0.56527 0.0
C658 C 0.55222 0.51676 0.53726 0.0
C659 C 0.53062 0.50389 0.56987 0.0
C660 C 0.52878 0.48184 0.60086 0.0
C661 C 0.54805 0.47238 0.59787 0.0
C662 C 0.5546 0.54 0.5031 0.0
C663 C 0.50623 0.46795 0.6366 0.0
H664 H 0.49342 0.56184 0.61842 0.0
H665 H 0.44961 0.49548 0.51584 0.0
H666 H 0.53703 0.53608 0.65657 0.0
H667 H 0.55391 0.56147 0.61003 0.0
H668 H 0.5336 0.56819 0.65275 0.0
H669 H 0.46493 0.46453 0.4866 0.0
H670 H 0.50084 0.48098 0.48271 0.0
H671 H 0.48385 0.45621 0.53003 0.0
H672 H 0.58776 0.51682 0.51012 0.0
H673 H 0.54645 0.45523 0.62112 0.0
H674 H 0.55463 0.55803 0.52341 0.0
H675 H 0.53708 0.53159 0.4787 0.0
H676 H 0.57303 0.54835 0.48091 0.0
H677 H 0.50501 0.48448 0.6594 0.0
H678 H 0.50866 0.45244 0.66026 0.0
H679 H 0.48695 0.45655 0.61724 0.0
C680 C 0.06341 0.5042 0.91693 0.0
C681 C 0.08025 0.52661 0.88664 0.0
C682 C 0.0358 0.49558 0.91927 0.0
C683 C 0.02477 0.50943 0.89015 0.0
C684 C 0.04168 0.53171 0.859 0.0
C685 C 0.06908 0.54005 0.85779 0.0
C686 C 0.01842 0.47178 0.95306 0.0
C687 C 0.03081 0.54667 0.82654 0.0
C688 C 0.95134 0.46952 0.8562 0.0
C689 C 0.93983 0.48209 0.88625 0.0
C690 C 0.97878 0.47807 0.85749 0.0
C691 C 0.99538 0.4997 0.88988 0.0
C692 C 0.98405 0.51281 0.92 0.0
C693 C 0.9564 0.50397 0.91762 0.0
C694 C 0.98999 0.46391 0.82399 0.0
C695 C 1.0011 0.53594 0.95506 0.0
H696 H 0.07187 0.49387 0.93959 0.0
H697 H 0.08184 0.55723 0.83388 0.0
H698 H 1.00781 0.47933 0.97805 0.0
H699 H 1.00299 0.45366 0.93235 0.0
H700 H 0.03011 0.46384 0.97449 0.0
H701 H 0.0467 0.5639 0.80489 0.0
H702 H 0.01579 0.53101 0.80163 0.0
H703 H 0.02054 0.55615 0.84824 0.0
H704 H 0.93879 0.45275 0.83147 0.0
H705 H 0.94766 0.51361 0.94122 0.0
H706 H 0.99995 0.45382 0.84502 0.0
H707 H 1.00534 0.48017 0.80023 0.0
H708 H 0.97435 0.44728 0.80111 0.0
H709 H 1.01135 0.52783 0.97981 0.0
H710 H 0.98924 0.54356 0.97672 0.0
H711 H 0.01683 0.55439 0.9354 0.0
C712 C 0.46016 0.95408 0.281 0.0
C713 C 0.46202 0.93435 0.24962 0.0
C714 C 0.48147 0.98212 0.28549 0.0
C715 C 0.50496 0.99069 0.25751 0.0
C716 C 0.50684 0.97082 0.22592 0.0
C717 C 0.48552 0.94307 0.2225 0.0
C718 C 0.47878 1.00267 0.31978 0.0
C719 C 0.53117 0.97905 0.19461 0.0
C720 C 0.54706 0.06822 0.22092 0.0
C721 C 0.57004 0.07706 0.24955 0.0
C722 C 0.52556 0.04058 0.22436 0.0
C723 C 0.52671 0.02098 0.25755 0.0
C724 C 0.54963 0.02972 0.28712 0.0
C725 C 0.57114 0.05762 0.28254 0.0
C726 C 0.50187 0.03213 0.19133 0.0
C727 C 0.55152 0.00947 0.32316 0.0
H728 H 0.44224 0.94755 0.30234 0.0
H729 H 0.48723 0.92821 0.19777 0.0
H730 H 0.49616 0.01197 0.34451 0.0
H731 H 0.47874 0.02064 0.29936 0.0
H732 H 0.46017 0.99224 0.34143 0.0
H733 H 0.52998 0.96073 0.17339 0.0
H734 H 0.53338 0.99622 0.1693 0.0
H735 H 0.54946 0.98762 0.21704 0.0
H736 H 0.54595 0.08289 0.19498 0.0
H737 H 0.58865 0.06427 0.30507 0.0
H738 H 0.48314 0.02371 0.21254 0.0
H739 H 0.50016 0.01479 0.16692 0.0
H740 H 0.50351 0.0503 0.16909 0.0
H741 H 0.53361 1.00039 0.34668 0.0
H742 H 0.56965 0.0201 0.346 0.0
H743 H 0.55202 0.99134 0.30409 0.0
C744 C 0.39481 0.58525 0.71877 0.0
C745 C 0.39131 0.55939 0.69892 0.0
C746 C 0.39247 0.58798 0.76846 0.0
C747 C 0.38761 0.56465 0.79889 0.0
C748 C 0.38293 0.53813 0.77872 0.0
C749 C 0.38441 0.5357 0.72876 0.0
C750 C 0.39613 0.61607 0.7885 0.0
C751 C 0.378 0.51283 0.81005 0.0
C752 C 0.41682 0.57695 0.9241 0.0
C753 C 0.39365 0.56527 0.95215 0.0
C754 C 0.41524 0.5782 0.87394 0.0
C755 C 0.38993 0.56847 0.85183 0.0
C756 C 0.36675 0.55925 0.88062 0.0
C757 C 0.36882 0.5571 0.93051 0.0
C758 C 0.44037 0.5875 0.84454 0.0
C759 C 0.3395 0.54983 0.85892 0.0
H760 H 0.39991 0.60351 0.69547 0.0
H761 H 0.3819 0.51579 0.71334 0.0
H762 H 0.37995 0.61233 0.81449 0.0
H763 H 0.41533 0.62687 0.80822 0.0
H764 H 0.3962 0.63069 0.75979 0.0
H765 H 0.37459 0.49371 0.78866 0.0
H766 H 0.39543 0.51846 0.83399 0.0
H767 H 0.36035 0.50717 0.83334 0.0
H768 H 0.43595 0.58286 0.94097 0.0
H769 H 0.35088 0.54805 0.95243 0.0
H770 H 0.44254 0.60418 0.81825 0.0
H771 H 0.43909 0.56899 0.82382 0.0
H772 H 0.45859 0.59601 0.86729 0.0
H773 H 0.34068 0.56168 0.82535 0.0
H774 H 0.32613 0.55296 0.88467 0.0
H775 H 0.33029 0.52671 0.85023 0.0
C776 C 0.85316 0.39924 0.24619 0.0
C777 C 0.83963 0.4078 0.27922 0.0
C778 C 0.8502 0.40137 0.19663 0.0
C779 C 0.8327 0.41156 0.17969 0.0
C780 C 0.81762 0.41844 0.21281 0.0
C781 C 0.8216 0.41692 0.26234 0.0
C782 C 0.86712 0.39445 0.16257 0.0
C783 C 0.79812 0.42845 0.19596 0.0
C784 C 0.85318 0.45092 0.06122 0.0
C785 C 0.83847 0.42913 0.02829 0.0
C786 C 0.85084 0.44563 0.11072 0.0
C787 C 0.83272 0.41807 0.1278 0.0
C788 C 0.81666 0.3964 0.09488 0.0
C789 C 0.82007 0.40205 0.04529 0.0
C790 C 0.86884 0.46914 0.14453 0.0
C791 C 0.7965 0.36706 0.11195 0.0
H792 H 0.86719 0.39226 0.25904 0.0
H793 H 0.81085 0.4232 0.28783 0.0
H794 H 0.85443 0.37897 0.13489 0.0
H795 H 0.88137 0.41418 0.14354 0.0
H796 H 0.87868 0.38536 0.18145 0.0
H797 H 0.78501 0.42857 0.22557 0.0
H798 H 0.80922 0.45047 0.18141 0.0
H799 H 0.78543 0.41456 0.16655 0.0
H800 H 0.86756 0.47185 0.04821 0.0
H801 H 0.80847 0.38526 0.01985 0.0
H802 H 0.88231 0.46259 0.16351 0.0
H803 H 0.85681 0.47293 0.17226 0.0
H804 H 0.88128 0.4896 0.12548 0.0
H805 H 0.80703 0.35553 0.1262 0.0
H806 H 0.78298 0.35408 0.08256 0.0
H807 H 0.78428 0.36881 0.14166 0.0
C808 C 0.38714 0.79754 0.603 0.0
C809 C 0.38688 0.82172 0.62281 0.0
C810 C 0.38408 0.79243 0.55333 0.0
C811 C 0.38217 0.81278 0.52289 0.0
C812 C 0.38059 0.8365 0.54315 0.0
C813 C 0.38248 0.84038 0.59313 0.0
C814 C 0.38414 0.76598 0.5333 0.0
C815 C 0.37895 0.85894 0.51191 0.0
C816 C 0.41399 0.82701 0.39955 0.0
C817 C 0.39169 0.81872 0.3699 0.0
C818 C 0.41106 0.82406 0.44959 0.0
C819 C 0.38509 0.81142 0.47002 0.0
C820 C 0.36241 0.80064 0.43966 0.0
C821 C 0.36601 0.80511 0.38989 0.0
C822 C 0.43582 0.83667 0.48063 0.0
C823 C 0.33434 0.78593 0.45944 0.0
H824 H 0.39044 0.78307 0.62625 0.0
H825 H 0.38256 0.8592 0.60865 0.0
H826 H 0.36825 0.75587 0.50578 0.0
H827 H 0.40354 0.77187 0.51551 0.0
H828 H 0.38107 0.75006 0.56186 0.0
H829 H 0.37775 0.87597 0.53338 0.0
H830 H 0.39681 0.86898 0.48832 0.0
H831 H 0.36116 0.84895 0.4883 0.0
H832 H 0.43382 0.83791 0.38392 0.0
H833 H 0.34874 0.79873 0.36674 0.0
H834 H 0.43555 0.82041 0.50601 0.0
H835 H 0.43629 0.85446 0.50242 0.0
H836 H 0.45446 0.84504 0.45905 0.0
H837 H 0.32034 0.77022 0.43325 0.0
H838 H 0.32746 0.80206 0.46614 0.0
H839 H 0.33318 0.77471 0.49374 0.0
C840 C 0.65071 0.47502 0.72014 0.0
C841 C 0.6463 0.45203 0.6902 0.0
C842 C 0.65178 0.47259 0.7702 0.0
C843 C 0.64935 0.4469 0.79038 0.0
C844 C 0.64732 0.42461 0.75984 0.0
C845 C 0.64512 0.42715 0.71003 0.0
C846 C 0.65362 0.49673 0.80154 0.0
C847 C 0.64638 0.39767 0.77986 0.0
C848 C 0.66476 0.45505 0.92364 0.0
C849 C 0.639 0.44341 0.94316 0.0
C850 C 0.66856 0.45399 0.87398 0.0
C851 C 0.64603 0.44243 0.84321 0.0
C852 C 0.61996 0.42948 0.86319 0.0
C853 C 0.6168 0.42963 0.91317 0.0
C854 C 0.69671 0.46692 0.8547 0.0
C855 C 0.59538 0.41774 0.83171 0.0
H856 H 0.65133 0.49411 0.70466 0.0
H857 H 0.64181 0.40942 0.68662 0.0
H858 H 0.63566 0.489 0.82483 0.0
H859 H 0.67127 0.50428 0.82544 0.0
H860 H 0.65523 0.51517 0.78014 0.0
H861 H 0.64913 0.38459 0.75136 0.0
H862 H 0.6621 0.40304 0.80758 0.0
H863 H 0.62682 0.38448 0.79745 0.0
H864 H 0.68194 0.46582 0.94705 0.0
H865 H 0.59692 0.42109 0.92844 0.0
H866 H 0.70422 0.49013 0.84866 0.0
H867 H 0.69777 0.45701 0.82017 0.0
H868 H 0.71024 0.46446 0.88093 0.0
H869 H 0.5953 0.43536 0.81025 0.0
H870 H 0.57661 0.40743 0.85297 0.0
H871 H 0.59555 0.40183 0.80605 0.0
C872 C 0.16872 0.5539 0.05779 0.0
C873 C 0.18408 0.57534 0.02475 0.0
C874 C 0.17171 0.55907 0.10732 0.0
C875 C 0.19115 0.58608 0.12426 0.0
C876 C 0.20795 0.6072 0.09114 0.0
C877 C 0.20386 0.60177 0.04159 0.0
C878 C 0.1529 0.53621 0.14133 0.0
C879 C 0.22954 0.63586 0.10799 0.0
C880 C 0.1734 0.6082 0.24235 0.0
C881 C 0.18608 0.59871 0.2756 0.0
C882 C 0.1757 0.60512 0.19286 0.0
C883 C 0.19169 0.59297 0.17611 0.0
C884 C 0.20588 0.58495 0.20935 0.0
C885 C 0.20256 0.58749 0.25887 0.0
C886 C 0.15973 0.61333 0.1587 0.0
C887 C 0.22382 0.57282 0.19267 0.0
H888 H 0.15328 0.53348 0.04487 0.0
H889 H 0.21596 0.61827 0.01604 0.0
H890 H 0.16432 0.53159 0.16917 0.0
H891 H 0.14024 0.54392 0.16014 0.0
H892 H 0.13964 0.51597 0.12244 0.0
H893 H 0.24349 0.64802 0.07849 0.0
H894 H 0.22033 0.64878 0.12202 0.0
H895 H 0.24113 0.63308 0.13777 0.0
H896 H 0.16053 0.61677 0.25505 0.0
H897 H 0.21264 0.58043 0.28447 0.0
H898 H 0.14479 0.594 0.13967 0.0
H899 H 0.17298 0.62838 0.13104 0.0
H900 H 0.14904 0.62347 0.17747 0.0
H901 H 0.2115 0.55091 0.17845 0.0
H902 H 0.23645 0.57174 0.22227 0.0
H903 H 0.23696 0.58596 0.16304 0.0
C904 C 0.64219 0.21283 0.60274 0.0
C905 C 0.64343 0.18912 0.62236 0.0
C906 C 0.64513 0.21813 0.5531 0.0
C907 C 0.64799 0.19842 0.52248 0.0
C908 C 0.65046 0.17516 0.54251 0.0
C909 C 0.64864 0.17112 0.59246 0.0
C910 C 0.64401 0.24407 0.53332 0.0
C911 C 0.65309 0.15338 0.51106 0.0
C912 C 0.61692 0.18349 0.39859 0.0
C913 C 0.63953 0.1927 0.36942 0.0
C914 C 0.61945 0.18641 0.44867 0.0
C915 C 0.64528 0.19993 0.46959 0.0
C916 C 0.66817 0.21165 0.43968 0.0
C917 C 0.66503 0.2072 0.38988 0.0
C918 C 0.59452 0.17278 0.47923 0.0
C919 C 0.69605 0.22733 0.46006 0.0
H920 H 0.63831 0.22683 0.62614 0.0
H921 H 0.64935 0.15266 0.60779 0.0
H922 H 0.6599 0.25487 0.50597 0.0
H923 H 0.62454 0.23745 0.51535 0.0
H924 H 0.64636 0.25966 0.56203 0.0
H925 H 0.65486 0.13662 0.53237 0.0
H926 H 0.63536 0.14287 0.48728 0.0
H927 H 0.67091 0.16403 0.48763 0.0
H928 H 0.59726 0.17189 0.38257 0.0
H929 H 0.68252 0.21424 0.36707 0.0
H930 H 0.59405 0.18853 0.50489 0.0
H931 H 0.59453 0.15512 0.50068 0.0
H932 H 0.57599 0.16399 0.45729 0.0
H933 H 0.71002 0.24302 0.43378 0.0
H934 H 0.70344 0.21177 0.46812 0.0
H935 H 0.69653 0.23876 0.49378 0.0
loop_
_geom_bond_atom_site_label_1
_geom_bond_atom_site_label_2
_geom_bond_distance
_geom_bond_site_symmetry_2
_ccdc_geom_bond_type
Co0 O1 2.216 . S
Co0 O2 2.091 . S
Co0 O4 2.004 . S
Co0 O10 2.021 . S
Co0 O12 2.137 . S
Co0 O13 2.244 . S
O1 Co0 2.216 . S
O1 C8 1.247 . S
O2 Co0 2.091 . S
O2 C8 1.261 . S
C3 O12 1.247 . S
C3 O13 1.272 . S
O4 Co0 2.004 . S
O4 C9 1.259 . S
Co5 O6 2.061 . S
Co5 O11 2.052 . S
Co5 O13 2.135 . S
O6 Co5 2.061 . S
O6 C9 1.235 . S
C7 O10 1.238 1_556 S
C7 O11 1.241 1_556 S
C8 O1 1.247 . S
C8 O2 1.261 . S
C9 O4 1.259 . S
C9 O6 1.235 . S
O10 Co0 2.021 . S
O10 C7 1.238 1_554 S
O11 Co5 2.052 . S
O11 C7 1.241 1_554 S
O12 Co0 2.137 . S
O12 C3 1.247 . S
O13 Co0 2.244 . S
O13 C3 1.272 . S
O13 Co5 2.135 . S
Co14 O15 2.216 . S
Co14 O16 2.091 . S
Co14 O18 2.004 . S
Co14 O24 2.021 . S
Co14 O26 2.137 . S
Co14 O27 2.244 . S
O15 Co14 2.216 . S
O15 C22 1.247 . S
O16 Co14 2.091 . S
O16 C22 1.261 . S
C17 O26 1.247 . S
C17 O27 1.272 . S
O18 Co14 2.004 . S
O18 C23 1.259 . S
Co19 O20 2.061 . S
Co19 O25 2.052 . S
Co19 O27 2.135 . S
O20 Co19 2.061 . S
O20 C23 1.235 . S
C21 O24 1.238 . S
C21 O25 1.241 . S
C22 O15 1.247 . S
C22 O16 1.261 . S
C23 O18 1.259 . S
C23 O20 1.235 . S
O24 Co14 2.021 . S
O24 C21 1.238 . S
O25 Co19 2.052 . S
O25 C21 1.241 . S
O26 Co14 2.137 . S
O26 C17 1.247 . S
O27 Co14 2.244 . S
O27 C17 1.272 . S
O27 Co19 2.135 . S
Co28 O29 2.216 . S
Co28 O30 2.091 . S
Co28 O32 2.004 . S
Co28 O38 2.021 . S
Co28 O40 2.137 . S
Co28 O41 2.244 . S
O29 Co28 2.216 . S
O29 C36 1.247 . S
O30 Co28 2.091 . S
O30 C36 1.261 . S
C31 O40 1.247 . S
C31 O41 1.272 . S
O32 Co28 2.004 . S
O32 C37 1.259 . S
Co33 O34 2.061 . S
Co33 O39 2.052 . S
Co33 O41 2.135 . S
O34 Co33 2.061 . S
O34 C37 1.235 . S
C35 O38 1.238 . S
C35 O39 1.241 . S
C36 O29 1.247 . S
C36 O30 1.261 . S
C37 O32 1.259 . S
C37 O34 1.235 . S
O38 Co28 2.021 . S
O38 C35 1.238 . S
O39 Co33 2.052 . S
O39 C35 1.241 . S
O40 Co28 2.137 . S
O40 C31 1.247 . S
O41 Co28 2.244 . S
O41 C31 1.272 . S
O41 Co33 2.135 . S
Co42 O43 2.216 . S
Co42 O44 2.091 . S
Co42 O46 2.004 . S
Co42 O52 2.021 . S
Co42 O54 2.137 . S
Co42 O55 2.244 . S
O43 Co42 2.216 . S
O43 C50 1.247 . S
O44 Co42 2.091 . S
O44 C50 1.261 . S
C45 O54 1.247 . S
C45 O55 1.272 . S
O46 Co42 2.004 . S
O46 C51 1.259 . S
Co47 O48 2.061 . S
Co47 O53 2.052 . S
Co47 O55 2.135 . S
O48 Co47 2.061 . S
O48 C51 1.235 . S
C49 O52 1.238 1_556 S
C49 O53 1.241 1_556 S
C50 O43 1.247 . S
C50 O44 1.261 . S
C51 O46 1.259 . S
C51 O48 1.235 . S
O52 Co42 2.021 . S
O52 C49 1.238 1_554 S
O53 Co47 2.052 . S
O53 C49 1.241 1_554 S
O54 Co42 2.137 . S
O54 C45 1.247 . S
O55 Co42 2.244 . S
O55 C45 1.272 . S
O55 Co47 2.135 . S
Co56 O57 2.216 . S
Co56 O58 2.091 . S
Co56 O60 2.004 . S
Co56 O66 2.021 . S
Co56 O68 2.137 . S
Co56 O69 2.244 . S
O57 Co56 2.216 . S
O57 C64 1.247 . S
O58 Co56 2.091 . S
O58 C64 1.261 . S
C59 O68 1.247 . S
C59 O69 1.272 . S
O60 Co56 2.004 . S
O60 C65 1.259 . S
Co61 O62 2.061 . S
Co61 O67 2.052 . S
Co61 O69 2.135 . S
O62 Co61 2.061 . S
O62 C65 1.235 . S
C63 O66 1.238 . S
C63 O67 1.241 . S
C64 O57 1.247 . S
C64 O58 1.261 . S
C65 O60 1.259 . S
C65 O62 1.235 . S
O66 Co56 2.021 . S
O66 C63 1.238 . S
O67 Co61 2.052 . S
O67 C63 1.241 . S
O68 Co56 2.137 . S
O68 C59 1.247 . S
O69 Co56 2.244 . S
O69 C59 1.272 . S
O69 Co61 2.135 . S
Co70 O71 2.216 . S
Co70 O72 2.091 . S
Co70 O74 2.004 . S
Co70 O80 2.021 . S
Co70 O82 2.137 . S
Co70 O83 2.244 . S
O71 Co70 2.216 . S
O71 C78 1.247 . S
O72 Co70 2.091 . S
O72 C78 1.261 . S
C73 O82 1.247 . S
C73 O83 1.272 . S
O74 Co70 2.004 . S
O74 C79 1.259 . S
Co75 O76 2.061 . S
Co75 O81 2.052 . S
Co75 O83 2.135 . S
O76 Co75 2.061 . S
O76 C79 1.235 . S
C77 O80 1.238 . S
C77 O81 1.241 . S
C78 O71 1.247 . S
C78 O72 1.261 . S
C79 O74 1.259 . S
C79 O76 1.235 . S
O80 Co70 2.021 . S
O80 C77 1.238 . S
O81 Co75 2.052 . S
O81 C77 1.241 . S
O82 Co70 2.137 . S
O82 C73 1.247 . S
O83 Co70 2.244 . S
O83 C73 1.272 . S
O83 Co75 2.135 . S
Co84 O85 2.216 . S
Co84 O86 2.091 . S
Co84 O88 2.004 . S
Co84 O94 2.021 . S
Co84 O96 2.137 . S
Co84 O97 2.244 . S
O85 Co84 2.216 . S
O85 C92 1.247 . S
O86 Co84 2.091 . S
O86 C92 1.261 . S
C87 O96 1.247 . S
C87 O97 1.272 . S
O88 Co84 2.004 . S
O88 C93 1.259 . S
Co89 O90 2.061 . S
Co89 O95 2.052 . S
Co89 O97 2.135 . S
O90 Co89 2.061 . S
O90 C93 1.235 . S
C91 O94 1.238 . S
C91 O95 1.241 . S
C92 O85 1.247 . S
C92 O86 1.261 . S
C93 O88 1.259 . S
C93 O90 1.235 . S
O94 Co84 2.021 . S
O94 C91 1.238 . S
O95 Co89 2.052 . S
O95 C91 1.241 . S
O96 Co84 2.137 . S
O96 C87 1.247 . S
O97 Co84 2.244 . S
O97 C87 1.272 . S
O97 Co89 2.135 . S
Co98 O99 2.216 . S
Co98 O100 2.091 . S
Co98 O102 2.004 . S
Co98 O108 2.021 . S
Co98 O110 2.137 . S
Co98 O111 2.244 . S
O99 Co98 2.216 . S
O99 C106 1.247 . S
O100 Co98 2.091 . S
O100 C106 1.261 . S
C101 O110 1.247 . S
C101 O111 1.272 . S
O102 Co98 2.004 . S
O102 C107 1.259 . S
Co103 O104 2.061 . S
Co103 O109 2.052 . S
Co103 O111 2.135 . S
O104 Co103 2.061 . S
O104 C107 1.235 . S
C105 O108 1.238 1_554 S
C105 O109 1.241 1_554 S
C106 O99 1.247 . S
C106 O100 1.261 . S
C107 O102 1.259 . S
C107 O104 1.235 . S
O108 Co98 2.021 . S
O108 C105 1.238 1_556 S
O109 Co103 2.052 . S
O109 C105 1.241 1_556 S
O110 Co98 2.137 . S
O110 C101 1.247 . S
O111 Co98 2.244 . S
O111 C101 1.272 . S
O111 Co103 2.135 . S
Co112 O113 2.216 . S
Co112 O114 2.091 . S
Co112 O116 2.004 . S
Co112 O122 2.021 . S
Co112 O124 2.137 . S
Co112 O125 2.244 . S
O113 Co112 2.216 . S
O113 C120 1.247 . S
O114 Co112 2.091 . S
O114 C120 1.261 . S
C115 O124 1.247 . S
C115 O125 1.272 . S
O116 Co112 2.004 . S
O116 C121 1.259 . S
Co117 O118 2.061 . S
Co117 O123 2.052 . S
Co117 O125 2.135 . S
O118 Co117 2.061 . S
O118 C121 1.235 . S
C119 O122 1.238 . S
C119 O123 1.241 . S
C120 O113 1.247 . S
C120 O114 1.261 . S
C121 O116 1.259 . S
C121 O118 1.235 . S
O122 Co112 2.021 . S
O122 C119 1.238 . S
O123 Co117 2.052 . S
O123 C119 1.241 . S
O124 Co112 2.137 . S
O124 C115 1.247 . S
O125 Co112 2.244 . S
O125 C115 1.272 . S
O125 Co117 2.135 . S
Co126 O127 2.216 . S
Co126 O128 2.091 . S
Co126 O130 2.004 . S
Co126 O136 2.021 . S
Co126 O138 2.137 . S
Co126 O139 2.244 . S
O127 Co126 2.216 . S
O127 C134 1.247 . S
O128 Co126 2.091 . S
O128 C134 1.261 . S
C129 O138 1.247 . S
C129 O139 1.272 . S
O130 Co126 2.004 . S
O130 C135 1.259 . S
Co131 O132 2.061 . S
Co131 O137 2.052 . S
Co131 O139 2.135 . S
O132 Co131 2.061 . S
O132 C135 1.235 . S
C133 O136 1.238 . S
C133 O137 1.241 . S
C134 O127 1.247 . S
C134 O128 1.261 . S
C135 O130 1.259 . S
C135 O132 1.235 . S
O136 Co126 2.021 . S
O136 C133 1.238 . S
O137 Co131 2.052 . S
O137 C133 1.241 . S
O138 Co126 2.137 . S
O138 C129 1.247 . S
O139 Co126 2.244 . S
O139 C129 1.272 . S
O139 Co131 2.135 . S
Co140 O141 2.216 . S
Co140 O142 2.091 . S
Co140 O144 2.004 . S
Co140 O150 2.021 . S
Co140 O152 2.137 . S
Co140 O153 2.244 . S
O141 Co140 2.216 . S
O141 C148 1.247 . S
O142 Co140 2.091 . S
O142 C148 1.261 . S
C143 O152 1.247 . S
C143 O153 1.272 . S
O144 Co140 2.004 . S
O144 C149 1.259 . S
Co145 O146 2.061 . S
Co145 O151 2.052 . S
Co145 O153 2.135 . S
O146 Co145 2.061 . S
O146 C149 1.235 . S
C147 O150 1.238 1_554 S
C147 O151 1.241 1_554 S
C148 O141 1.247 . S
C148 O142 1.261 . S
C149 O144 1.259 . S
C149 O146 1.235 . S
O150 Co140 2.021 . S
O150 C147 1.238 1_556 S
O151 Co145 2.052 . S
O151 C147 1.241 1_556 S
O152 Co140 2.137 . S
O152 C143 1.247 . S
O153 Co140 2.244 . S
O153 C143 1.272 . S
O153 Co145 2.135 . S
Co154 O155 2.216 . S
Co154 O156 2.091 . S
Co154 O158 2.004 . S
Co154 O164 2.021 . S
Co154 O166 2.137 . S
Co154 O167 2.244 . S
O155 Co154 2.216 . S
O155 C162 1.247 . S
O156 Co154 2.091 . S
O156 C162 1.261 . S
C157 O166 1.247 . S
C157 O167 1.272 . S
O158 Co154 2.004 . S
O158 C163 1.259 . S
Co159 O160 2.061 . S
Co159 O165 2.052 . S
Co159 O167 2.135 . S
O160 Co159 2.061 . S
O160 C163 1.235 . S
C161 O164 1.238 . S
C161 O165 1.241 . S
C162 O155 1.247 . S
C162 O156 1.261 . S
C163 O158 1.259 . S
C163 O160 1.235 . S
O164 Co154 2.021 . S
O164 C161 1.238 . S
O165 Co159 2.052 . S
O165 C161 1.241 . S
O166 Co154 2.137 . S
O166 C157 1.247 . S
O167 Co154 2.244 . S
O167 C157 1.272 . S
O167 Co159 2.135 . S
C168 C169 1.391 . S
C168 C170 1.394 . S
C168 H184 0.931 . S
C169 C168 1.391 . S
C169 C173 1.376 . S
C170 C168 1.394 . S
C170 C171 1.369 . S
C170 C174 1.531 . S
C171 C170 1.369 . S
C171 C172 1.410 . S
C171 C179 1.503 . S
C172 C171 1.410 . S
C172 C173 1.392 . S
C172 C175 1.511 . S
C173 C169 1.376 . S
C173 C172 1.392 . S
C173 H185 0.929 . S
C174 C170 1.531 . S
C174 H186 0.960 . S
C174 H187 0.962 . S
C174 H188 0.960 . S
C175 C172 1.511 . S
C175 H189 0.961 . S
C175 H190 0.961 . S
C175 H191 0.961 . S
C176 C177 1.370 . S
C176 C178 1.363 . S
C176 H192 0.931 . S
C177 C176 1.370 . S
C177 C181 1.408 . S
C178 C176 1.363 . S
C178 C179 1.370 . S
C178 C182 1.524 . S
C179 C171 1.503 . S
C179 C178 1.370 . S
C179 C180 1.403 . S
C180 C179 1.403 . S
C180 C181 1.404 . S
C180 C183 1.539 . S
C181 C177 1.408 . S
C181 C180 1.404 . S
C181 H193 0.930 . S
C182 C178 1.524 . S
C182 H194 0.956 . S
C182 H195 0.961 . S
C182 H196 0.961 . S
C183 C180 1.539 . S
C183 H197 0.958 . S
C183 H198 0.961 . S
C183 H199 0.960 . S
H184 C168 0.931 . S
H185 C173 0.929 . S
H186 C174 0.960 . S
H187 C174 0.962 . S
H188 C174 0.960 . S
H189 C175 0.961 . S
H190 C175 0.961 . S
H191 C175 0.961 . S
H192 C176 0.931 . S
H193 C181 0.930 . S
H194 C182 0.956 . S
H195 C182 0.961 . S
H196 C182 0.961 . S
H197 C183 0.958 . S
H198 C183 0.961 . S
H199 C183 0.960 . S
C200 C201 1.391 . S
C200 C202 1.394 . S
C200 H216 0.931 . S
C201 C200 1.391 . S
C201 C205 1.376 . S
C202 C200 1.394 . S
C202 C203 1.369 . S
C202 C206 1.531 . S
C203 C202 1.369 . S
C203 C204 1.410 . S
C203 C211 1.503 . S
C204 C203 1.410 . S
C204 C205 1.392 . S
C204 C207 1.511 . S
C205 C201 1.376 . S
C205 C204 1.392 . S
C205 H217 0.929 . S
C206 C202 1.531 . S
C206 H218 0.960 . S
C206 H219 0.962 . S
C206 H220 0.960 . S
C207 C204 1.511 . S
C207 H221 0.961 . S
C207 H222 0.961 . S
C207 H223 0.961 . S
C208 C209 1.370 . S
C208 C210 1.363 . S
C208 H224 0.931 . S
C209 C208 1.370 . S
C209 C213 1.408 . S
C210 C208 1.363 . S
C210 C211 1.370 . S
C210 C214 1.524 . S
C211 C203 1.503 . S
C211 C210 1.370 . S
C211 C212 1.403 . S
C212 C211 1.403 . S
C212 C213 1.404 . S
C212 C215 1.539 . S
C213 C209 1.408 . S
C213 C212 1.404 . S
C213 H225 0.930 . S
C214 C210 1.524 . S
C214 H226 0.956 . S
C214 H227 0.961 . S
C214 H228 0.961 . S
C215 C212 1.539 . S
C215 H229 0.958 . S
C215 H230 0.961 . S
C215 H231 0.960 . S
H216 C200 0.931 . S
H217 C205 0.929 . S
H218 C206 0.960 . S
H219 C206 0.962 . S
H220 C206 0.960 . S
H221 C207 0.961 . S
H222 C207 0.961 . S
H223 C207 0.961 . S
H224 C208 0.931 . S
H225 C213 0.930 . S
H226 C214 0.956 . S
H227 C214 0.961 . S
H228 C214 0.961 . S
H229 C215 0.958 . S
H230 C215 0.961 . S
H231 C215 0.960 . S
C232 C233 1.391 . S
C232 C234 1.394 . S
C232 H248 0.931 . S
C233 C232 1.391 . S
C233 C237 1.376 . S
C234 C232 1.394 . S
C234 C235 1.369 . S
C234 C238 1.531 . S
C235 C234 1.369 . S
C235 C236 1.410 . S
C235 C243 1.503 1_556 S
C236 C235 1.410 . S
C236 C237 1.392 . S
C236 C239 1.511 . S
C237 C233 1.376 . S
C237 C236 1.392 . S
C237 H249 0.929 . S
C238 C234 1.531 . S
C238 H250 0.960 1_556 S
C238 H251 0.962 . S
C238 H252 0.960 . S
C239 C236 1.511 . S
C239 H253 0.961 . S
C239 H254 0.961 . S
C239 H255 0.961 . S
C240 C241 1.370 . S
C240 C242 1.363 . S
C240 H256 0.931 . S
C241 C240 1.370 . S
C241 C245 1.408 . S
C242 C240 1.363 . S
C242 C243 1.370 . S
C242 C246 1.524 . S
C243 C235 1.503 1_554 S
C243 C242 1.370 . S
C243 C244 1.403 . S
C244 C243 1.403 . S
C244 C245 1.404 . S
C244 C247 1.539 . S
C245 C241 1.408 . S
C245 C244 1.404 . S
C245 H257 0.930 . S
C246 C242 1.524 . S
C246 H258 0.956 1_554 S
C246 H259 0.961 1_554 S
C246 H260 0.961 . S
C247 C244 1.539 . S
C247 H261 0.958 . S
C247 H262 0.961 . S
C247 H263 0.946 1_554 S
H248 C232 0.931 . S
H249 C237 0.929 . S
H250 C238 0.960 1_554 S
H251 C238 0.962 . S
H252 C238 0.960 . S
H253 C239 0.961 . S
H254 C239 0.961 . S
H255 C239 0.961 . S
H256 C240 0.931 . S
H257 C245 0.930 . S
H258 C246 0.956 1_556 S
H259 C246 0.961 1_556 S
H260 C246 0.961 . S
H261 C247 0.958 . S
H262 C247 0.961 . S
H263 C247 0.946 1_556 S
C264 C265 1.391 . S
C264 C266 1.394 . S
C264 H280 0.931 . S
C265 C264 1.391 . S
C265 C269 1.376 . S
C266 C264 1.394 . S
C266 C267 1.369 . S
C266 C270 1.531 . S
C267 C266 1.369 . S
C267 C268 1.410 . S
C267 C275 1.503 . S
C268 C267 1.410 . S
C268 C269 1.392 . S
C268 C271 1.511 . S
C269 C265 1.376 . S
C269 C268 1.392 . S
C269 H281 0.929 . S
C270 C266 1.531 . S
C270 H282 0.960 . S
C270 H283 0.962 . S
C270 H284 0.960 . S
C271 C268 1.511 . S
C271 H285 0.961 . S
C271 H286 0.961 . S
C271 H287 0.961 . S
C272 C273 1.370 . S
C272 C274 1.363 . S
C272 H288 0.931 . S
C273 C272 1.370 . S
C273 C277 1.408 . S
C274 C272 1.363 . S
C274 C275 1.370 . S
C274 C278 1.524 . S
C275 C267 1.503 . S
C275 C274 1.370 . S
C275 C276 1.403 . S
C276 C275 1.403 . S
C276 C277 1.404 . S
C276 C279 1.539 . S
C277 C273 1.408 . S
C277 C276 1.404 . S
C277 H289 0.930 . S
C278 C274 1.524 . S
C278 H290 0.956 . S
C278 H291 0.961 . S
C278 H292 0.961 . S
C279 C276 1.539 . S
C279 H293 0.958 . S
C279 H294 0.961 . S
C279 H295 0.960 . S
H280 C264 0.931 . S
H281 C269 0.929 . S
H282 C270 0.960 . S
H283 C270 0.962 . S
H284 C270 0.960 . S
H285 C271 0.961 . S
H286 C271 0.961 . S
H287 C271 0.961 . S
H288 C272 0.931 . S
H289 C277 0.930 . S
H290 C278 0.956 . S
H291 C278 0.961 . S
H292 C278 0.961 . S
H293 C279 0.958 . S
H294 C279 0.961 . S
H295 C279 0.960 . S
C296 C297 1.391 . S
C296 C298 1.394 . S
C296 H312 0.931 . S
C297 C296 1.391 . S
C297 C301 1.376 . S
C298 C296 1.394 . S
C298 C299 1.369 . S
C298 C302 1.531 . S
C299 C298 1.369 . S
C299 C300 1.410 . S
C299 C307 1.503 . S
C300 C299 1.410 . S
C300 C301 1.392 . S
C300 C303 1.511 . S
C301 C297 1.376 . S
C301 C300 1.392 . S
C301 H313 0.929 . S
C302 C298 1.531 . S
C302 H314 0.960 . S
C302 H315 0.962 . S
C302 H316 0.960 . S
C303 C300 1.511 . S
C303 H317 0.961 . S
C303 H318 0.961 . S
C303 H319 0.961 . S
C304 C305 1.370 . S
C304 C306 1.363 . S
C304 H320 0.931 . S
C305 C304 1.370 . S
C305 C309 1.408 . S
C306 C304 1.363 . S
C306 C307 1.370 . S
C306 C310 1.524 . S
C307 C299 1.503 . S
C307 C306 1.370 . S
C307 C308 1.403 . S
C308 C307 1.403 . S
C308 C309 1.404 . S
C308 C311 1.539 . S
C309 C305 1.408 . S
C309 C308 1.404 . S
C309 H321 0.930 . S
C310 C306 1.524 . S
C310 H322 0.956 . S
C310 H323 0.961 . S
C310 H324 0.961 . S
C311 C308 1.539 . S
C311 H325 0.958 . S
C311 H326 0.961 . S
C311 H327 0.960 . S
H312 C296 0.931 . S
H313 C301 0.929 . S
H314 C302 0.960 . S
H315 C302 0.962 . S
H316 C302 0.960 . S
H317 C303 0.961 . S
H318 C303 0.961 . S
H319 C303 0.961 . S
H320 C304 0.931 . S
H321 C309 0.930 . S
H322 C310 0.956 . S
H323 C310 0.961 . S
H324 C310 0.961 . S
H325 C311 0.958 . S
H326 C311 0.961 . S
H327 C311 0.960 . S
C328 C329 1.391 . S
C328 C330 1.394 . S
C328 H344 0.931 . S
C329 C328 1.391 . S
C329 C333 1.376 . S
C330 C328 1.394 . S
C330 C331 1.369 . S
C330 C334 1.531 . S
C331 C330 1.369 . S
C331 C332 1.410 . S
C331 C339 1.503 1_554 S
C332 C331 1.410 . S
C332 C333 1.392 . S
C332 C335 1.511 . S
C333 C329 1.376 . S
C333 C332 1.392 . S
C333 H345 0.929 . S
C334 C330 1.531 . S
C334 H346 0.960 . S
C334 H347 0.962 . S
C334 H348 0.960 . S
C335 C332 1.511 . S
C335 H349 0.961 . S
C335 H350 0.961 1_554 S
C335 H351 0.961 . S
C336 C337 1.370 . S
C336 C338 1.363 . S
C336 H352 0.931 . S
C337 C336 1.370 . S
C337 C341 1.408 . S
C338 C336 1.363 . S
C338 C339 1.370 . S
C338 C342 1.524 . S
C339 C331 1.503 1_556 S
C339 C338 1.370 . S
C339 C340 1.403 . S
C340 C339 1.403 . S
C340 C341 1.404 . S
C340 C343 1.539 . S
C341 C337 1.408 . S
C341 C340 1.404 . S
C341 H353 0.930 . S
C342 C338 1.524 . S
C342 H354 0.956 . S
C342 H355 0.961 . S
C342 H356 0.961 . S
C343 C340 1.539 . S
C343 H357 0.958 . S
C343 H358 0.961 . S
C343 H359 0.977 . S
H344 C328 0.931 . S
H345 C333 0.929 . S
H346 C334 0.960 . S
H347 C334 0.962 . S
H348 C334 0.960 . S
H349 C335 0.961 . S
H350 C335 0.961 1_556 S
H351 C335 0.961 . S
H352 C336 0.931 . S
H353 C341 0.930 . S
H354 C342 0.956 . S
H355 C342 0.961 . S
H356 C342 0.961 . S
H357 C343 0.958 . S
H358 C343 0.961 . S
H359 C343 0.977 . S
C360 C361 1.391 . S
C360 C362 1.394 . S
C360 H376 0.931 . S
C361 C360 1.391 . S
C361 C365 1.376 . S
C362 C360 1.394 . S
C362 C363 1.369 . S
C362 C366 1.531 1_554 S
C363 C362 1.369 . S
C363 C364 1.410 . S
C363 C371 1.503 . S
C364 C363 1.410 . S
C364 C365 1.392 . S
C364 C367 1.511 . S
C365 C361 1.376 . S
C365 C364 1.392 . S
C365 H377 0.929 . S
C366 C362 1.531 1_556 S
C366 H378 0.960 1_556 S
C366 H379 0.962 . S
C366 H380 0.960 1_556 S
C367 C364 1.511 . S
C367 H381 0.961 . S
C367 H382 0.961 . S
C367 H383 0.961 . S
C368 C369 1.370 . S
C368 C370 1.363 . S
C368 H384 0.931 . S
C369 C368 1.370 . S
C369 C373 1.408 1_556 S
C370 C368 1.363 . S
C370 C371 1.370 1_556 S
C370 C374 1.524 . S
C371 C363 1.503 . S
C371 C370 1.370 1_554 S
C371 C372 1.403 . S
C372 C371 1.403 . S
C372 C373 1.404 . S
C372 C375 1.539 . S
C373 C369 1.408 1_554 S
C373 C372 1.404 . S
C373 H385 0.930 . S
C374 C370 1.524 . S
C374 H386 0.956 . S
C374 H387 0.961 . S
C374 H388 0.961 . S
C375 C372 1.539 . S
C375 H389 0.958 . S
C375 H390 0.961 . S
C375 H391 0.960 . S
H376 C360 0.931 . S
H377 C365 0.929 . S
H378 C366 0.960 1_554 S
H379 C366 0.962 . S
H380 C366 0.960 1_554 S
H381 C367 0.961 . S
H382 C367 0.961 . S
H383 C367 0.961 . S
H384 C368 0.931 . S
H385 C373 0.930 . S
H386 C374 0.956 . S
H387 C374 0.961 . S
H388 C374 0.961 . S
H389 C375 0.958 . S
H390 C375 0.961 . S
H391 C375 0.960 . S
C392 C393 1.391 . S
C392 C394 1.394 . S
C392 H408 0.931 . S
C393 C392 1.391 . S
C393 C397 1.376 . S
C394 C392 1.394 . S
C394 C395 1.369 . S
C394 C398 1.531 . S
C395 C394 1.369 . S
C395 C396 1.410 . S
C395 C403 1.503 . S
C396 C395 1.410 . S
C396 C397 1.392 . S
C396 C399 1.511 . S
C397 C393 1.376 . S
C397 C396 1.392 . S
C397 H409 0.929 . S
C398 C394 1.531 . S
C398 H410 0.960 . S
C398 H411 0.962 . S
C398 H412 0.960 . S
C399 C396 1.511 . S
C399 H413 0.961 . S
C399 H414 0.961 . S
C399 H415 0.961 . S
C400 C401 1.370 . S
C400 C402 1.363 . S
C400 H416 0.931 . S
C401 C400 1.370 . S
C401 C405 1.408 . S
C402 C400 1.363 . S
C402 C403 1.370 . S
C402 C406 1.524 . S
C403 C395 1.503 . S
C403 C402 1.370 . S
C403 C404 1.403 . S
C404 C403 1.403 . S
C404 C405 1.404 . S
C404 C407 1.539 . S
C405 C401 1.408 . S
C405 C404 1.404 . S
C405 H417 0.930 . S
C406 C402 1.524 . S
C406 H418 0.956 . S
C406 H419 0.961 . S
C406 H420 0.961 . S
C407 C404 1.539 . S
C407 H421 0.958 . S
C407 H422 0.961 . S
C407 H423 0.960 . S
H408 C392 0.931 . S
H409 C397 0.929 . S
H410 C398 0.960 . S
H411 C398 0.962 . S
H412 C398 0.960 . S
H413 C399 0.961 . S
H414 C399 0.961 . S
H415 C399 0.961 . S
H416 C400 0.931 . S
H417 C405 0.930 . S
H418 C406 0.956 . S
H419 C406 0.961 . S
H420 C406 0.961 . S
H421 C407 0.958 . S
H422 C407 0.961 . S
H423 C407 0.960 . S
C424 C425 1.391 . S
C424 C426 1.394 . S
C424 H440 0.931 . S
C425 C424 1.391 . S
C425 C429 1.376 . S
C426 C424 1.394 . S
C426 C427 1.369 . S
C426 C430 1.531 . S
C427 C426 1.369 . S
C427 C428 1.410 . S
C427 C435 1.503 . S
C428 C427 1.410 . S
C428 C429 1.392 . S
C428 C431 1.511 . S
C429 C425 1.376 . S
C429 C428 1.392 . S
C429 H441 0.929 . S
C430 C426 1.531 . S
C430 H442 0.960 . S
C430 H443 0.962 . S
C430 H444 0.960 . S
C431 C428 1.511 . S
C431 H445 0.961 . S
C431 H446 0.961 . S
C431 H447 0.961 . S
C432 C433 1.370 . S
C432 C434 1.363 . S
C432 H448 0.931 . S
C433 C432 1.370 . S
C433 C437 1.408 . S
C434 C432 1.363 . S
C434 C435 1.370 . S
C434 C438 1.524 . S
C435 C427 1.503 . S
C435 C434 1.370 . S
C435 C436 1.403 . S
C436 C435 1.403 . S
C436 C437 1.404 . S
C436 C439 1.539 . S
C437 C433 1.408 . S
C437 C436 1.404 . S
C437 H449 0.930 . S
C438 C434 1.524 . S
C438 H450 0.956 . S
C438 H451 0.961 . S
C438 H452 0.961 . S
C439 C436 1.539 . S
C439 H453 0.958 . S
C439 H454 0.961 . S
C439 H455 0.960 . S
H440 C424 0.931 . S
H441 C429 0.929 . S
H442 C430 0.960 . S
H443 C430 0.962 . S
H444 C430 0.960 . S
H445 C431 0.961 . S
H446 C431 0.961 . S
H447 C431 0.961 . S
H448 C432 0.931 . S
H449 C437 0.930 . S
H450 C438 0.956 . S
H451 C438 0.961 . S
H452 C438 0.961 . S
H453 C439 0.958 . S
H454 C439 0.961 . S
H455 C439 0.960 . S
C456 C457 1.391 . S
C456 C458 1.394 1_554 S
C456 H472 0.931 1_554 S
C457 C456 1.391 . S
C457 C461 1.376 . S
C458 C456 1.394 1_556 S
C458 C459 1.369 1_556 S
C458 C462 1.531 . S
C459 C458 1.369 1_554 S
C459 C460 1.410 . S
C459 C467 1.503 1_554 S
C460 C459 1.410 . S
C460 C461 1.392 . S
C460 C463 1.511 . S
C461 C457 1.376 . S
C461 C460 1.392 . S
C461 H473 0.929 . S
C462 C458 1.531 . S
C462 H474 0.960 . S
C462 H475 0.962 . S
C462 H476 0.960 . S
C463 C460 1.511 . S
C463 H477 0.961 . S
C463 H478 0.961 . S
C463 H479 0.961 . S
C464 C465 1.370 . S
C464 C466 1.363 . S
C464 H480 0.931 . S
C465 C464 1.370 . S
C465 C469 1.408 . S
C466 C464 1.363 . S
C466 C467 1.370 . S
C466 C470 1.524 . S
C467 C459 1.503 1_556 S
C467 C466 1.370 . S
C467 C468 1.401 1_556 S
C468 C467 1.401 1_554 S
C468 C469 1.397 1_554 S
C468 C471 1.549 . S
C469 C465 1.408 . S
C469 C468 1.397 1_556 S
C469 H481 0.930 . S
C470 C466 1.524 . S
C470 H482 0.956 . S
C470 H483 0.961 1_556 S
C470 H484 0.961 . S
C471 C468 1.549 . S
C471 H485 0.958 . S
C471 H486 0.961 . S
C471 H487 0.960 . S
H472 C456 0.931 1_556 S
H473 C461 0.929 . S
H474 C462 0.960 . S
H475 C462 0.962 . S
H476 C462 0.960 . S
H477 C463 0.961 . S
H478 C463 0.961 . S
H479 C463 0.961 . S
H480 C464 0.931 . S
H481 C469 0.930 . S
H482 C470 0.956 . S
H483 C470 0.961 1_554 S
H484 C470 0.961 . S
H485 C471 0.958 . S
H486 C471 0.961 . S
H487 C471 0.960 . S
C488 C489 1.391 . S
C488 C490 1.394 . S
C488 H504 0.931 . S
C489 C488 1.391 . S
C489 C493 1.376 . S
C490 C488 1.394 . S
C490 C491 1.369 . S
C490 C494 1.531 . S
C491 C490 1.369 . S
C491 C492 1.410 . S
C491 C499 1.503 . S
C492 C491 1.410 . S
C492 C493 1.392 . S
C492 C495 1.511 . S
C493 C489 1.376 . S
C493 C492 1.392 . S
C493 H505 0.929 . S
C494 C490 1.531 . S
C494 H506 0.960 . S
C494 H507 0.962 . S
C494 H508 0.960 . S
C495 C492 1.511 . S
C495 H509 0.961 . S
C495 H510 0.961 . S
C495 H511 0.961 . S
C496 C497 1.370 . S
C496 C498 1.363 . S
C496 H512 0.931 . S
C497 C496 1.370 . S
C497 C501 1.408 . S
C498 C496 1.363 . S
C498 C499 1.370 . S
C498 C502 1.524 . S
C499 C491 1.503 . S
C499 C498 1.370 . S
C499 C500 1.403 . S
C500 C499 1.403 . S
C500 C501 1.404 . S
C500 C503 1.539 . S
C501 C497 1.408 . S
C501 C500 1.404 . S
C501 H513 0.930 . S
C502 C498 1.524 . S
C502 H514 0.956 . S
C502 H515 0.961 . S
C502 H516 0.961 . S
C503 C500 1.539 . S
C503 H517 0.958 . S
C503 H518 0.961 . S
C503 H519 0.960 . S
H504 C488 0.931 . S
H505 C493 0.929 . S
H506 C494 0.960 . S
H507 C494 0.962 . S
H508 C494 0.960 . S
H509 C495 0.961 . S
H510 C495 0.961 . S
H511 C495 0.961 . S
H512 C496 0.931 . S
H513 C501 0.930 . S
H514 C502 0.956 . S
H515 C502 0.961 . S
H516 C502 0.961 . S
H517 C503 0.958 . S
H518 C503 0.961 . S
H519 C503 0.960 . S
C520 C521 1.391 . S
C520 C522 1.394 . S
C520 H536 0.931 . S
C521 C520 1.391 . S
C521 C525 1.376 . S
C522 C520 1.394 . S
C522 C523 1.369 . S
C522 C526 1.531 . S
C523 C522 1.369 . S
C523 C524 1.410 . S
C523 C531 1.503 . S
C524 C523 1.410 . S
C524 C525 1.392 . S
C524 C527 1.511 . S
C525 C521 1.376 . S
C525 C524 1.392 . S
C525 H537 0.929 . S
C526 C522 1.531 . S
C526 H538 0.960 . S
C526 H539 0.962 . S
C526 H540 0.960 . S
C527 C524 1.511 . S
C527 H541 0.961 . S
C527 H542 0.961 . S
C527 H543 0.961 . S
C528 C529 1.370 . S
C528 C530 1.363 . S
C528 H544 0.931 . S
C529 C528 1.370 . S
C529 C533 1.408 . S
C530 C528 1.363 . S
C530 C531 1.370 . S
C530 C534 1.524 . S
C531 C523 1.503 . S
C531 C530 1.370 . S
C531 C532 1.403 . S
C532 C531 1.403 . S
C532 C533 1.404 . S
C532 C535 1.539 . S
C533 C529 1.408 . S
C533 C532 1.404 . S
C533 H545 0.930 . S
C534 C530 1.524 . S
C534 H546 0.956 . S
C534 H547 0.961 . S
C534 H548 0.961 . S
C535 C532 1.539 . S
C535 H549 0.958 . S
C535 H550 0.961 . S
C535 H551 0.960 . S
H536 C520 0.931 . S
H537 C525 0.929 . S
H538 C526 0.960 . S
H539 C526 0.962 . S
H540 C526 0.960 . S
H541 C527 0.961 . S
H542 C527 0.961 . S
H543 C527 0.961 . S
H544 C528 0.931 . S
H545 C533 0.930 . S
H546 C534 0.956 . S
H547 C534 0.961 . S
H548 C534 0.961 . S
H549 C535 0.958 . S
H550 C535 0.961 . S
H551 C535 0.960 . S
C552 C553 1.391 . S
C552 C554 1.394 . S
C552 H568 0.931 . S
C553 C552 1.391 . S
C553 C557 1.376 . S
C554 C552 1.394 . S
C554 C555 1.369 . S
C554 C558 1.531 1_554 S
C555 C554 1.369 . S
C555 C556 1.410 . S
C555 C563 1.503 . S
C556 C555 1.410 . S
C556 C557 1.392 . S
C556 C559 1.511 . S
C557 C553 1.376 . S
C557 C556 1.392 . S
C557 H569 0.929 . S
C558 C554 1.531 1_556 S
C558 H570 0.960 . S
C558 H571 0.962 . S
C558 H572 0.960 . S
C559 C556 1.511 . S
C559 H573 0.961 . S
C559 H574 0.961 . S
C559 H575 0.961 . S
C560 C561 1.370 . S
C560 C562 1.363 . S
C560 H576 0.931 . S
C561 C560 1.370 . S
C561 C565 1.408 . S
C562 C560 1.363 . S
C562 C563 1.370 . S
C562 C566 1.524 . S
C563 C555 1.503 . S
C563 C562 1.370 . S
C563 C564 1.403 . S
C564 C563 1.403 . S
C564 C565 1.404 . S
C564 C567 1.539 . S
C565 C561 1.408 . S
C565 C564 1.404 . S
C565 H577 0.930 . S
C566 C562 1.524 . S
C566 H578 0.956 . S
C566 H579 0.961 . S
C566 H580 0.961 . S
C567 C564 1.539 . S
C567 H581 0.958 . S
C567 H582 0.961 . S
C567 H583 0.960 . S
H568 C552 0.931 . S
H569 C557 0.929 . S
H570 C558 0.960 . S
H571 C558 0.962 . S
H572 C558 0.960 . S
H573 C559 0.961 . S
H574 C559 0.961 . S
H575 C559 0.961 . S
H576 C560 0.931 . S
H577 C565 0.930 . S
H578 C566 0.956 . S
H579 C566 0.961 . S
H580 C566 0.961 . S
H581 C567 0.958 . S
H582 C567 0.961 . S
H583 C567 0.960 . S
C584 C585 1.391 . S
C584 C586 1.394 . S
C584 H600 0.931 . S
C585 C584 1.391 . S
C585 C589 1.376 . S
C586 C584 1.394 . S
C586 C587 1.369 . S
C586 C590 1.531 . S
C587 C586 1.369 . S
C587 C588 1.410 . S
C587 C595 1.503 1_655 S
C588 C587 1.410 . S
C588 C589 1.392 . S
C588 C591 1.511 1_655 S
C589 C585 1.376 . S
C589 C588 1.392 . S
C589 H601 0.929 . S
C590 C586 1.531 . S
C590 H602 0.960 . S
C590 H603 0.962 . S
C590 H604 0.960 . S
C591 C588 1.511 1_455 S
C591 H605 0.961 1_455 S
C591 H606 0.961 . S
C591 H607 0.961 . S
C592 C593 1.370 . S
C592 C594 1.363 . S
C592 H608 0.931 . S
C593 C592 1.370 . S
C593 C597 1.408 . S
C594 C592 1.363 . S
C594 C595 1.370 . S
C594 C598 1.524 . S
C595 C587 1.503 1_455 S
C595 C594 1.370 . S
C595 C596 1.403 . S
C596 C595 1.403 . S
C596 C597 1.404 . S
C596 C599 1.539 . S
C597 C593 1.408 . S
C597 C596 1.404 . S
C597 H609 0.930 . S
C598 C594 1.524 . S
C598 H610 0.956 1_455 S
C598 H611 0.961 . S
C598 H612 0.961 . S
C599 C596 1.539 . S
C599 H613 0.958 . S
C599 H614 0.961 . S
C599 H615 0.960 . S
H600 C584 0.931 . S
H601 C589 0.929 . S
H602 C590 0.960 . S
H603 C590 0.962 . S
H604 C590 0.960 . S
H605 C591 0.961 1_655 S
H606 C591 0.961 . S
H607 C591 0.961 . S
H608 C592 0.931 . S
H609 C597 0.930 . S
H610 C598 0.956 1_655 S
H611 C598 0.961 . S
H612 C598 0.961 . S
H613 C599 0.958 . S
H614 C599 0.961 . S
H615 C599 0.960 . S
C616 C617 1.391 . S
C616 C618 1.394 . S
C616 H632 0.931 . S
C617 C616 1.391 . S
C617 C621 1.376 . S
C618 C616 1.394 . S
C618 C619 1.369 . S
C618 C622 1.531 . S
C619 C618 1.369 . S
C619 C620 1.410 . S
C619 C627 1.503 1_545 S
C620 C619 1.410 . S
C620 C621 1.392 . S
C620 C623 1.511 . S
C621 C617 1.376 . S
C621 C620 1.392 . S
C621 H633 0.929 . S
C622 C618 1.531 . S
C622 H634 0.960 . S
C622 H635 0.962 . S
C622 H636 0.960 . S
C623 C620 1.511 . S
C623 H637 0.961 . S
C623 H638 0.961 1_545 S
C623 H639 0.961 . S
C624 C625 1.370 . S
C624 C626 1.363 . S
C624 H640 0.931 . S
C625 C624 1.370 . S
C625 C629 1.408 . S
C626 C624 1.363 . S
C626 C627 1.370 . S
C626 C630 1.524 . S
C627 C619 1.503 1_565 S
C627 C626 1.370 . S
C627 C628 1.403 . S
C628 C627 1.403 . S
C628 C629 1.404 . S
C628 C631 1.539 . S
C629 C625 1.408 . S
C629 C628 1.404 . S
C629 H641 0.930 . S
C630 C626 1.524 . S
C630 H642 0.956 1_565 S
C630 H643 0.961 1_565 S
C630 H644 0.961 . S
C631 C628 1.539 . S
C631 H645 0.958 . S
C631 H646 0.961 . S
C631 H647 0.960 . S
H632 C616 0.931 . S
H633 C621 0.929 . S
H634 C622 0.960 . S
H635 C622 0.962 . S
H636 C622 0.960 . S
H637 C623 0.961 . S
H638 C623 0.961 1_565 S
H639 C623 0.961 . S
H640 C624 0.931 . S
H641 C629 0.930 . S
H642 C630 0.956 1_545 S
H643 C630 0.961 1_545 S
H644 C630 0.961 . S
H645 C631 0.958 . S
H646 C631 0.961 . S
H647 C631 0.960 . S
C648 C649 1.391 . S
C648 C650 1.394 . S
C648 H664 0.931 . S
C649 C648 1.391 . S
C649 C653 1.376 . S
C650 C648 1.394 . S
C650 C651 1.369 . S
C650 C654 1.531 . S
C651 C650 1.369 . S
C651 C652 1.410 . S
C651 C659 1.503 . S
C652 C651 1.410 . S
C652 C653 1.392 . S
C652 C655 1.511 . S
C653 C649 1.376 . S
C653 C652 1.392 . S
C653 H665 0.929 . S
C654 C650 1.531 . S
C654 H666 0.960 . S
C654 H667 0.962 . S
C654 H668 0.960 . S
C655 C652 1.511 . S
C655 H669 0.961 . S
C655 H670 0.961 . S
C655 H671 0.961 . S
C656 C657 1.370 . S
C656 C658 1.363 . S
C656 H672 0.931 . S
C657 C656 1.370 . S
C657 C661 1.408 . S
C658 C656 1.363 . S
C658 C659 1.370 . S
C658 C662 1.524 . S
C659 C651 1.503 . S
C659 C658 1.370 . S
C659 C660 1.403 . S
C660 C659 1.403 . S
C660 C661 1.404 . S
C660 C663 1.539 . S
C661 C657 1.408 . S
C661 C660 1.404 . S
C661 H673 0.930 . S
C662 C658 1.524 . S
C662 H674 0.956 . S
C662 H675 0.961 . S
C662 H676 0.961 . S
C663 C660 1.539 . S
C663 H677 0.958 . S
C663 H678 0.961 . S
C663 H679 0.960 . S
H664 C648 0.931 . S
H665 C653 0.929 . S
H666 C654 0.960 . S
H667 C654 0.962 . S
H668 C654 0.960 . S
H669 C655 0.961 . S
H670 C655 0.961 . S
H671 C655 0.961 . S
H672 C656 0.931 . S
H673 C661 0.930 . S
H674 C662 0.956 . S
H675 C662 0.961 . S
H676 C662 0.961 . S
H677 C663 0.958 . S
H678 C663 0.961 . S
H679 C663 0.960 . S
C680 C681 1.391 . S
C680 C682 1.394 . S
C680 H696 0.927 1_556 S
C681 C680 1.391 . S
C681 C685 1.376 . S
C682 C680 1.394 . S
C682 C683 1.369 . S
C682 C686 1.531 1_556 S
C683 C682 1.369 . S
C683 C684 1.410 . S
C683 C691 1.503 1_455 S
C684 C683 1.410 . S
C684 C685 1.392 . S
C684 C687 1.511 . S
C685 C681 1.376 . S
C685 C684 1.392 . S
C685 H697 0.929 . S
C686 C682 1.531 1_554 S
C686 H698 0.960 1_455 S
C686 H699 0.961 1_455 S
C686 H700 0.960 . S
C687 C684 1.511 . S
C687 H701 0.961 . S
C687 H702 0.961 . S
C687 H703 0.961 . S
C688 C689 1.370 . S
C688 C690 1.363 . S
C688 H704 0.931 . S
C689 C688 1.370 . S
C689 C693 1.408 . S
C690 C688 1.363 . S
C690 C691 1.370 . S
C690 C694 1.524 . S
C691 C683 1.503 1_655 S
C691 C690 1.370 . S
C691 C692 1.403 . S
C692 C691 1.403 . S
C692 C693 1.404 . S
C692 C695 1.539 1_655 S
C693 C689 1.408 . S
C693 C692 1.404 . S
C693 H705 0.930 . S
C694 C690 1.524 . S
C694 H706 0.956 . S
C694 H707 0.961 . S
C694 H708 0.961 . S
C695 C692 1.539 1_455 S
C695 H709 0.958 . S
C695 H710 0.961 1_455 S
C695 H711 0.960 . S
H696 C680 0.927 1_554 S
H697 C685 0.929 . S
H698 C686 0.960 1_655 S
H699 C686 0.961 1_655 S
H700 C686 0.960 . S
H701 C687 0.961 . S
H702 C687 0.961 . S
H703 C687 0.961 . S
H704 C688 0.931 . S
H705 C693 0.930 . S
H706 C694 0.956 . S
H707 C694 0.961 . S
H708 C694 0.961 . S
H709 C695 0.958 . S
H710 C695 0.961 1_655 S
H711 C695 0.960 . S
C712 C713 1.391 . S
C712 C714 1.394 1_565 S
C712 H728 0.931 . S
C713 C712 1.391 . S
C713 C717 1.376 . S
C714 C712 1.394 1_545 S
C714 C715 1.360 1_545 S
C714 C718 1.539 . S
C715 C714 1.360 1_565 S
C715 C716 1.410 . S
C715 C723 1.503 1_565 S
C716 C715 1.410 . S
C716 C717 1.392 . S
C716 C719 1.511 . S
C717 C713 1.376 . S
C717 C716 1.392 . S
C717 H729 0.929 . S
C718 C714 1.539 . S
C718 H730 0.960 . S
C718 H731 0.962 . S
C718 H732 0.960 . S
C719 C716 1.511 . S
C719 H733 0.961 . S
C719 H734 0.961 . S
C719 H735 0.961 . S
C720 C721 1.370 . S
C720 C722 1.363 . S
C720 H736 0.931 . S
C721 C720 1.370 . S
C721 C725 1.408 . S
C722 C720 1.363 . S
C722 C723 1.370 . S
C722 C726 1.524 . S
C723 C715 1.503 1_545 S
C723 C722 1.370 . S
C723 C724 1.403 1_545 S
C724 C723 1.403 1_565 S
C724 C725 1.404 1_565 S
C724 C727 1.539 . S
C725 C721 1.408 . S
C725 C724 1.404 1_545 S
C725 H737 0.930 . S
C726 C722 1.524 . S
C726 H738 0.956 . S
C726 H739 0.961 . S
C726 H740 0.961 . S
C727 C724 1.539 . S
C727 H741 0.958 . S
C727 H742 0.961 . S
C727 H743 0.960 . S
H728 C712 0.931 . S
H729 C717 0.929 . S
H730 C718 0.960 . S
H731 C718 0.962 . S
H732 C718 0.960 . S
H733 C719 0.961 . S
H734 C719 0.961 . S
H735 C719 0.961 . S
H736 C720 0.931 . S
H737 C725 0.930 . S
H738 C726 0.956 . S
H739 C726 0.961 . S
H740 C726 0.961 . S
H741 C727 0.958 . S
H742 C727 0.961 . S
H743 C727 0.960 . S
C744 C745 1.391 . S
C744 C746 1.394 . S
C744 H760 0.931 . S
C745 C744 1.391 . S
C745 C749 1.376 . S
C746 C744 1.394 . S
C746 C747 1.369 . S
C746 C750 1.531 . S
C747 C746 1.369 . S
C747 C748 1.410 . S
C747 C755 1.503 . S
C748 C747 1.410 . S
C748 C749 1.392 . S
C748 C751 1.511 . S
C749 C745 1.376 . S
C749 C748 1.392 . S
C749 H761 0.929 . S
C750 C746 1.531 . S
C750 H762 0.960 . S
C750 H763 0.962 . S
C750 H764 0.960 . S
C751 C748 1.511 . S
C751 H765 0.961 . S
C751 H766 0.961 . S
C751 H767 0.961 . S
C752 C753 1.370 . S
C752 C754 1.363 . S
C752 H768 0.931 . S
C753 C752 1.370 . S
C753 C757 1.408 . S
C754 C752 1.363 . S
C754 C755 1.370 . S
C754 C758 1.524 . S
C755 C747 1.503 . S
C755 C754 1.370 . S
C755 C756 1.403 . S
C756 C755 1.403 . S
C756 C757 1.404 . S
C756 C759 1.539 . S
C757 C753 1.408 . S
C757 C756 1.404 . S
C757 H769 0.930 . S
C758 C754 1.524 . S
C758 H770 0.956 . S
C758 H771 0.961 . S
C758 H772 0.961 . S
C759 C756 1.539 . S
C759 H773 0.958 . S
C759 H774 0.961 . S
C759 H775 0.960 . S
H760 C744 0.931 . S
H761 C749 0.929 . S
H762 C750 0.960 . S
H763 C750 0.962 . S
H764 C750 0.960 . S
H765 C751 0.961 . S
H766 C751 0.961 . S
H767 C751 0.961 . S
H768 C752 0.931 . S
H769 C757 0.930 . S
H770 C758 0.956 . S
H771 C758 0.961 . S
H772 C758 0.961 . S
H773 C759 0.958 . S
H774 C759 0.961 . S
H775 C759 0.960 . S
C776 C777 1.391 . S
C776 C778 1.394 . S
C776 H792 0.931 . S
C777 C776 1.391 . S
C777 C781 1.376 . S
C778 C776 1.394 . S
C778 C779 1.369 . S
C778 C782 1.531 . S
C779 C778 1.369 . S
C779 C780 1.410 . S
C779 C787 1.503 . S
C780 C779 1.410 . S
C780 C781 1.392 . S
C780 C783 1.511 . S
C781 C777 1.376 . S
C781 C780 1.392 . S
C781 H793 0.929 . S
C782 C778 1.531 . S
C782 H794 0.960 . S
C782 H795 0.962 . S
C782 H796 0.960 . S
C783 C780 1.511 . S
C783 H797 0.961 . S
C783 H798 0.961 . S
C783 H799 0.961 . S
C784 C785 1.370 . S
C784 C786 1.363 . S
C784 H800 0.931 . S
C785 C784 1.370 . S
C785 C789 1.408 . S
C786 C784 1.363 . S
C786 C787 1.370 . S
C786 C790 1.524 . S
C787 C779 1.503 . S
C787 C786 1.370 . S
C787 C788 1.403 . S
C788 C787 1.403 . S
C788 C789 1.404 . S
C788 C791 1.539 . S
C789 C785 1.408 . S
C789 C788 1.404 . S
C789 H801 0.930 . S
C790 C786 1.524 . S
C790 H802 0.956 . S
C790 H803 0.961 . S
C790 H804 0.961 . S
C791 C788 1.539 . S
C791 H805 0.958 . S
C791 H806 0.961 . S
C791 H807 0.960 . S
H792 C776 0.931 . S
H793 C781 0.929 . S
H794 C782 0.960 . S
H795 C782 0.962 . S
H796 C782 0.960 . S
H797 C783 0.961 . S
H798 C783 0.961 . S
H799 C783 0.961 . S
H800 C784 0.931 . S
H801 C789 0.930 . S
H802 C790 0.956 . S
H803 C790 0.961 . S
H804 C790 0.961 . S
H805 C791 0.958 . S
H806 C791 0.961 . S
H807 C791 0.960 . S
C808 C809 1.391 . S
C808 C810 1.394 . S
C808 H824 0.931 . S
C809 C808 1.391 . S
C809 C813 1.376 . S
C810 C808 1.394 . S
C810 C811 1.369 . S
C810 C814 1.531 . S
C811 C810 1.369 . S
C811 C812 1.410 . S
C811 C819 1.503 . S
C812 C811 1.410 . S
C812 C813 1.392 . S
C812 C815 1.511 . S
C813 C809 1.376 . S
C813 C812 1.392 . S
C813 H825 0.929 . S
C814 C810 1.531 . S
C814 H826 0.960 . S
C814 H827 0.962 . S
C814 H828 0.960 . S
C815 C812 1.511 . S
C815 H829 0.961 . S
C815 H830 0.961 . S
C815 H831 0.961 . S
C816 C817 1.370 . S
C816 C818 1.363 . S
C816 H832 0.931 . S
C817 C816 1.370 . S
C817 C821 1.408 . S
C818 C816 1.363 . S
C818 C819 1.370 . S
C818 C822 1.524 . S
C819 C811 1.503 . S
C819 C818 1.370 . S
C819 C820 1.403 . S
C820 C819 1.403 . S
C820 C821 1.404 . S
C820 C823 1.539 . S
C821 C817 1.408 . S
C821 C820 1.404 . S
C821 H833 0.930 . S
C822 C818 1.524 . S
C822 H834 0.956 . S
C822 H835 0.961 . S
C822 H836 0.961 . S
C823 C820 1.539 . S
C823 H837 0.958 . S
C823 H838 0.961 . S
C823 H839 0.960 . S
H824 C808 0.931 . S
H825 C813 0.929 . S
H826 C814 0.960 . S
H827 C814 0.962 . S
H828 C814 0.960 . S
H829 C815 0.961 . S
H830 C815 0.961 . S
H831 C815 0.961 . S
H832 C816 0.931 . S
H833 C821 0.930 . S
H834 C822 0.956 . S
H835 C822 0.961 . S
H836 C822 0.961 . S
H837 C823 0.958 . S
H838 C823 0.961 . S
H839 C823 0.960 . S
C840 C841 1.391 . S
C840 C842 1.394 . S
C840 H856 0.931 . S
C841 C840 1.391 . S
C841 C845 1.376 . S
C842 C840 1.394 . S
C842 C843 1.369 . S
C842 C846 1.531 . S
C843 C842 1.369 . S
C843 C844 1.410 . S
C843 C851 1.503 . S
C844 C843 1.410 . S
C844 C845 1.392 . S
C844 C847 1.511 . S
C845 C841 1.376 . S
C845 C844 1.392 . S
C845 H857 0.929 . S
C846 C842 1.531 . S
C846 H858 0.960 . S
C846 H859 0.962 . S
C846 H860 0.960 . S
C847 C844 1.511 . S
C847 H861 0.961 . S
C847 H862 0.961 . S
C847 H863 0.961 . S
C848 C849 1.370 . S
C848 C850 1.363 . S
C848 H864 0.931 . S
C849 C848 1.370 . S
C849 C853 1.408 . S
C850 C848 1.363 . S
C850 C851 1.370 . S
C850 C854 1.524 . S
C851 C843 1.503 . S
C851 C850 1.370 . S
C851 C852 1.403 . S
C852 C851 1.403 . S
C852 C853 1.404 . S
C852 C855 1.539 . S
C853 C849 1.408 . S
C853 C852 1.404 . S
C853 H865 0.930 . S
C854 C850 1.524 . S
C854 H866 0.956 . S
C854 H867 0.961 . S
C854 H868 0.961 . S
C855 C852 1.539 . S
C855 H869 0.958 . S
C855 H870 0.961 . S
C855 H871 0.960 . S
H856 C840 0.931 . S
H857 C845 0.929 . S
H858 C846 0.960 . S
H859 C846 0.962 . S
H860 C846 0.960 . S
H861 C847 0.961 . S
H862 C847 0.961 . S
H863 C847 0.961 . S
H864 C848 0.931 . S
H865 C853 0.930 . S
H866 C854 0.956 . S
H867 C854 0.961 . S
H868 C854 0.961 . S
H869 C855 0.958 . S
H870 C855 0.961 . S
H871 C855 0.960 . S
C872 C873 1.391 . S
C872 C874 1.394 . S
C872 H888 0.931 . S
C873 C872 1.391 . S
C873 C877 1.376 . S
C874 C872 1.394 . S
C874 C875 1.369 . S
C874 C878 1.531 . S
C875 C874 1.369 . S
C875 C876 1.410 . S
C875 C883 1.503 . S
C876 C875 1.410 . S
C876 C877 1.392 . S
C876 C879 1.511 . S
C877 C873 1.376 . S
C877 C876 1.392 . S
C877 H889 0.929 . S
C878 C874 1.531 . S
C878 H890 0.960 . S
C878 H891 0.962 . S
C878 H892 0.960 . S
C879 C876 1.511 . S
C879 H893 0.961 . S
C879 H894 0.961 . S
C879 H895 0.961 . S
C880 C881 1.370 . S
C880 C882 1.363 . S
C880 H896 0.931 . S
C881 C880 1.370 . S
C881 C885 1.408 . S
C882 C880 1.363 . S
C882 C883 1.370 . S
C882 C886 1.524 . S
C883 C875 1.503 . S
C883 C882 1.370 . S
C883 C884 1.403 . S
C884 C883 1.403 . S
C884 C885 1.404 . S
C884 C887 1.539 . S
C885 C881 1.408 . S
C885 C884 1.404 . S
C885 H897 0.930 . S
C886 C882 1.524 . S
C886 H898 0.956 . S
C886 H899 0.961 . S
C886 H900 0.961 . S
C887 C884 1.539 . S
C887 H901 0.958 . S
C887 H902 0.961 . S
C887 H903 0.960 . S
H888 C872 0.931 . S
H889 C877 0.929 . S
H890 C878 0.960 . S
H891 C878 0.962 . S
H892 C878 0.960 . S
H893 C879 0.961 . S
H894 C879 0.961 . S
H895 C879 0.961 . S
H896 C880 0.931 . S
H897 C885 0.930 . S
H898 C886 0.956 . S
H899 C886 0.961 . S
H900 C886 0.961 . S
H901 C887 0.958 . S
H902 C887 0.961 . S
H903 C887 0.960 . S
C904 C905 1.391 . S
C904 C906 1.394 . S
C904 H920 0.931 . S
C905 C904 1.391 . S
C905 C909 1.376 . S
C906 C904 1.394 . S
C906 C907 1.369 . S
C906 C910 1.531 . S
C907 C906 1.369 . S
C907 C908 1.410 . S
C907 C915 1.503 . S
C908 C907 1.410 . S
C908 C909 1.392 . S
C908 C911 1.511 . S
C909 C905 1.376 . S
C909 C908 1.392 . S
C909 H921 0.929 . S
C910 C906 1.531 . S
C910 H922 0.960 . S
C910 H923 0.962 . S
C910 H924 0.960 . S
C911 C908 1.511 . S
C911 H925 0.961 . S
C911 H926 0.961 . S
C911 H927 0.961 . S
C912 C913 1.370 . S
C912 C914 1.363 . S
C912 H928 0.931 . S
C913 C912 1.370 . S
C913 C917 1.408 . S
C914 C912 1.363 . S
C914 C915 1.370 . S
C914 C918 1.524 . S
C915 C907 1.503 . S
C915 C914 1.370 . S
C915 C916 1.403 . S
C916 C915 1.403 . S
C916 C917 1.404 . S
C916 C919 1.539 . S
C917 C913 1.408 . S
C917 C916 1.404 . S
C917 H929 0.930 . S
C918 C914 1.524 . S
C918 H930 0.956 . S
C918 H931 0.961 . S
C918 H932 0.961 . S
C919 C916 1.539 . S
C919 H933 0.958 . S
C919 H934 0.961 . S
C919 H935 0.960 . S
H920 C904 0.931 . S
H921 C909 0.929 . S
H922 C910 0.960 . S
H923 C910 0.962 . S
H924 C910 0.960 . S
H925 C911 0.961 . S
H926 C911 0.961 . S
H927 C911 0.961 . S
H928 C912 0.931 . S
H929 C917 0.930 . S
H930 C918 0.956 . S
H931 C918 0.961 . S
H932 C918 0.961 . S
H933 C919 0.958 . S
H934 C919 0.961 . S
H935 C919 0.960 . S
C169 C3 1.492 . S
C177 C87 1.512 . S
C201 C17 1.476 . S
C209 C101 1.448 . S
C233 C31 1.481 . S
C241 C115 1.521 . S
C265 C45 1.528 . S
C273 C129 1.510 . S
C297 C59 1.428 . S
C305 C143 1.464 . S
C329 C157 1.520 . S
C337 C73 1.514 . S
C361 C8 1.517 . S
C369 C148 1.581 . S
C393 C22 1.594 . S
C401 C162 1.490 . S
C425 C36 1.563 . S
C433 C92 1.557 . S
C457 C50 1.536 . S
C465 C106 1.582 . S
C489 C64 1.569 . S
C497 C120 1.511 . S
C521 C78 1.557 . S
C529 C134 1.556 . S
C553 C9 1.852 . S
C561 C51 1.918 . S
C585 C23 1.365 . S
C593 C65 1.360 . S
C617 C79 1.193 . S
C625 C37 1.211 . S
C649 C93 1.184 . S
C657 C135 1.215 . S
C681 C149 1.326 . S
C689 C107 1.381 . S
C713 C121 1.869 . S
C721 C163 1.914 . S
C745 C91 0.779 . S
C753 C7 0.743 . S
C777 C21 0.764 . S
C785 C105 0.752 . S
C809 C35 0.777 . S
C817 C119 0.743 . S
C841 C133 0.732 . S
C849 C49 0.749 . S
C873 C147 0.721 . S
C881 C63 0.747 . S
C905 C77 0.788 . S
C913 C161 0.747 . S
