# Generated by pormake.
# Topology uon, (4)-cn, num edge types: 1
# Building blocks:
#     Node 0, Type 0, BuildingBlock: MUDLON_clean_sbu_0, # of connection points: 4
#     Node 1, Type 0, BuildingBlock: MUDLON_clean_sbu_0, # of connection points: 4
#     Node 2, Type 0, BuildingBlock: MUDLON_clean_sbu_0, # of connection points: 4
#     Node 3, Type 0, BuildingBlock: MUDLON_clean_sbu_0, # of connection points: 4
#     Node 4, Type 0, BuildingBlock: MUDLON_clean_sbu_0, # of connection points: 4
#     Node 5, Type 0, BuildingBlock: MUDLON_clean_sbu_0, # of connection points: 4
#     Edge 6, Type (0, 0), BuildingBlock: UVAHIK_clean_linker_0, # of connection points: 2
#     Edge 7, Type (0, 0), BuildingBlock: UVAHIK_clean_linker_0, # of connection points: 2
#     Edge 8, Type (0, 0), BuildingBlock: UVAHIK_clean_linker_0, # of connection points: 2
#     Edge 9, Type (0, 0), BuildingBlock: UVAHIK_clean_linker_0, # of connection points: 2
#     Edge 10, Type (0, 0), BuildingBlock: UVAHIK_clean_linker_0, # of connection points: 2
#     Edge 11, Type (0, 0), BuildingBlock: UVAHIK_clean_linker_0, # of connection points: 2
#     Edge 12, Type (0, 0), BuildingBlock: UVAHIK_clean_linker_0, # of connection points: 2
#     Edge 13, Type (0, 0), BuildingBlock: UVAHIK_clean_linker_0, # of connection points: 2
#     Edge 14, Type (0, 0), BuildingBlock: UVAHIK_clean_linker_0, # of connection points: 2
#     Edge 15, Type (0, 0), BuildingBlock: UVAHIK_clean_linker_0, # of connection points: 2
#     Edge 16, Type (0, 0), BuildingBlock: UVAHIK_clean_linker_0, # of connection points: 2
#     Edge 17, Type (0, 0), BuildingBlock: UVAHIK_clean_linker_0, # of connection points: 2
# Relax obj value: 0.184
# Max RMSD: 0.127
# Mean RMSD: 0.126
data_MOF--net-uon--node1-MUDLON_clean_sbu_0--edge1-UVAHIK_clean_linker_0
_symmetry_space_group_name_H-M    P1
_symmetry_Int_Tables_number       1
_symmetry_cell_setting            triclinic
loop_
_symmetry_equiv_pos_as_xyz
'x, y, z'
_cell_length_a     49.348583
_cell_length_b     49.394326
_cell_length_c     21.489174
_cell_angle_alpha  89.622927
_cell_angle_beta   89.513601
_cell_angle_gamma 120.35708
loop_
_atom_site_label
_atom_site_type_symbol
_atom_site_fract_x
_atom_site_fract_y
_atom_site_fract_z
_atom_type_partial_charge
Mg0 Mg 0.23822 0.45317 0.97749 0.0
C1 C 0.27851 0.49612 0.8747 0.0
O2 O 0.28792 0.47555 0.87556 0.0
C3 C 0.17424 0.39921 0.01452 0.0
O4 O 0.19101 0.38541 0.01808 0.0
C5 C 0.26944 0.41265 0.9884 0.0
O6 O 0.27305 0.42129 0.04687 0.0
O7 O 0.25555 0.42188 0.95181 0.0
O8 O 0.25463 0.49058 0.90761 0.0
O9 O 0.26104 0.48231 0.05731 0.0
C10 C 0.24461 0.48443 0.1008 0.0
O11 O 0.21453 0.46348 0.10439 0.0
O12 O 0.18752 0.4276 0.9956 0.0
Mg13 Mg 0.79824 0.22365 0.33035 0.0
C14 C 0.78952 0.25104 0.21219 0.0
O15 O 0.81928 0.25974 0.20463 0.0
C16 C 0.78925 0.16807 0.4047 0.0
O17 O 0.81197 0.19131 0.43523 0.0
C18 C 0.86199 0.23484 0.28669 0.0
O19 O 0.8455 0.20425 0.28017 0.0
O20 O 0.84861 0.24895 0.30915 0.0
O21 O 0.77374 0.23103 0.25466 0.0
O22 O 0.78493 0.24522 0.40296 0.0
C23 C 0.78707 0.2713 0.38889 0.0
O24 O 0.80359 0.2866 0.33923 0.0
O25 O 0.779 0.17437 0.35583 0.0
Mg26 Mg 0.5683 0.80205 0.75012 0.0
C27 C 0.50801 0.79499 0.71878 0.0
O28 O 0.52431 0.82298 0.7432 0.0
C29 C 0.60518 0.77732 0.81282 0.0
O30 O 0.60794 0.79926 0.85088 0.0
C31 C 0.62356 0.86568 0.71321 0.0
O32 O 0.63219 0.86312 0.76959 0.0
O33 O 0.59815 0.84322 0.69215 0.0
O34 O 0.5213 0.77887 0.71117 0.0
O35 O 0.56336 0.81861 0.8413 0.0
C36 C 0.53942 0.80541 0.87755 0.0
O37 O 0.53923 0.81995 0.92837 0.0
O38 O 0.58954 0.77272 0.76322 0.0
Mg39 Mg 0.79281 0.57183 0.00184 0.0
C40 C 0.76575 0.53215 0.88892 0.0
O41 O 0.75142 0.54843 0.88626 0.0
C42 C 0.84781 0.62067 0.07424 0.0
O43 O 0.82433 0.61983 0.10523 0.0
C44 C 0.75649 0.60745 0.01418 0.0
O45 O 0.75923 0.60433 0.07418 0.0
O46 O 0.76818 0.59649 0.97588 0.0
O47 O 0.78773 0.54003 0.92773 0.0
O48 O 0.76946 0.5361 0.07409 0.0
C49 C 0.78634 0.53133 0.11192 0.0
O50 O 0.8163 0.55241 0.11546 0.0
O51 O 0.84183 0.60358 0.02642 0.0
Mg52 Mg 0.22393 0.78691 0.366 0.0
C53 C 0.23773 0.75332 0.26384 0.0
O54 O 0.20961 0.74652 0.24596 0.0
C55 C 0.23483 0.85168 0.39725 0.0
O56 O 0.20419 0.83552 0.40493 0.0
C57 C 0.15257 0.76171 0.35981 0.0
O58 O 0.155 0.76666 0.42003 0.0
O59 O 0.17699 0.76815 0.328 0.0
O60 O 0.25051 0.77234 0.30826 0.0
O61 O 0.22559 0.76673 0.45484 0.0
C62 C 0.22598 0.74116 0.45431 0.0
O63 O 0.218 0.72465 0.4031 0.0
O64 O 0.24898 0.83764 0.37849 0.0
Mg65 Mg 0.45819 0.22901 0.67481 0.0
C66 C 0.49637 0.24001 0.55743 0.0
O67 O 0.47727 0.20964 0.55226 0.0
C68 C 0.42345 0.24979 0.75885 0.0
O69 O 0.43545 0.23891 0.79949 0.0
C70 C 0.40258 0.16613 0.63901 0.0
O71 O 0.3885 0.18266 0.64134 0.0
O72 O 0.43148 0.17921 0.65288 0.0
O73 O 0.49044 0.25471 0.59863 0.0
O74 O 0.49319 0.24049 0.74594 0.0
C75 C 0.5169 0.23823 0.73042 0.0
O76 O 0.51505 0.22207 0.68071 0.0
O77 O 0.42865 0.24841 0.70118 0.0
C78 C 0.2819 0.38739 0.90032 0.0
C79 C 0.28263 0.39354 0.96431 0.0
C80 C 0.29539 0.37044 0.87708 0.0
C81 C 0.32134 0.31495 0.92329 0.0
H82 H 0.37289 0.34547 0.77342 0.0
C83 C 0.40169 0.26771 0.84459 0.0
C84 C 0.40513 0.26435 0.78056 0.0
C85 C 0.38528 0.28217 0.86566 0.0
C86 C 0.35819 0.3363 0.81477 0.0
H87 H 0.29779 0.38621 0.05411 0.0
H88 H 0.32131 0.35661 0.01352 0.0
H89 H 0.34692 0.37286 0.81285 0.0
H90 H 0.39352 0.27319 0.68842 0.0
H91 H 0.36441 0.29803 0.7252 0.0
H92 H 0.33253 0.27837 0.92526 0.0
C93 C 0.31013 0.36478 0.98136 0.0
C94 C 0.34333 0.35207 0.83746 0.0
C95 C 0.29678 0.3819 0.0046 0.0
C96 C 0.39142 0.27551 0.73805 0.0
C97 C 0.37489 0.28992 0.75917 0.0
C98 C 0.33608 0.29909 0.90045 0.0
C99 C 0.3098 0.35905 0.91724 0.0
C100 C 0.32489 0.34172 0.89223 0.0
C101 C 0.37172 0.29357 0.8233 0.0
C102 C 0.35491 0.30969 0.84614 0.0
H103 H 0.27117 0.39596 0.8679 0.0
H104 H 0.29438 0.36611 0.82757 0.0
H105 H 0.3069 0.30606 0.96504 0.0
H106 H 0.41203 0.25951 0.87871 0.0
H107 H 0.3838 0.28497 0.91528 0.0
C108 C 0.91062 0.28567 0.25695 0.0
C109 C 0.89496 0.2528 0.26332 0.0
C110 C 0.94095 0.30228 0.23098 0.0
C111 C 1.01153 0.29657 0.19828 0.0
H112 H 0.03005 0.36049 0.07253 0.0
C113 C 0.1259 0.35046 0.05223 0.0
C114 C 0.14127 0.38272 0.03801 0.0
C115 C 0.09574 0.33516 0.07882 0.0
C116 C 0.02548 0.34303 0.10815 0.0
H117 H 0.89927 0.21173 0.24847 0.0
H118 H 0.95217 0.2407 0.20381 0.0
H119 H 0.97839 0.33341 0.12313 0.0
H120 H 0.13669 0.42411 0.03988 0.0
H121 H 0.08428 0.39756 0.08733 0.0
H122 H 0.05856 0.30628 0.18414 0.0
C123 C 0.94102 0.25365 0.21893 0.0
C124 C 0.9958 0.32747 0.13713 0.0
C125 C 0.91062 0.23703 0.24433 0.0
C126 C 0.12545 0.39919 0.04988 0.0
C127 C 0.09531 0.38391 0.07699 0.0
C128 C 0.04123 0.31225 0.16969 0.0
C129 C 0.95646 0.28645 0.21138 0.0
C130 C 0.98839 0.30388 0.18221 0.0
C131 C 0.08017 0.35172 0.09251 0.0
C132 C 0.04858 0.33552 0.12379 0.0
H133 H 0.89923 0.29856 0.27094 0.0
H134 H 0.95231 0.32756 0.22639 0.0
H135 H 1.00676 0.27886 0.23351 0.0
H136 H 0.13729 0.33699 0.04332 0.0
H137 H 0.08464 0.31024 0.08868 0.0
C138 C 0.74761 0.11082 0.40226 0.0
C139 C 0.77429 0.13553 0.43007 0.0
C140 C 0.7323 0.08073 0.42942 0.0
C141 C 0.72224 0.04115 0.58167 0.0
H142 H 0.68761 0.96514 0.48477 0.0
C143 C 0.67034 0.91977 0.70011 0.0
C144 C 0.64223 0.89515 0.67646 0.0
C145 C 0.68713 0.94826 0.66753 0.0
C146 C 0.69688 0.98614 0.51247 0.0
H147 H 0.80641 0.1476 0.50707 0.0
H148 H 0.78003 0.09532 0.55376 0.0
H149 H 0.71571 0.01627 0.43209 0.0
H150 H 0.61013 0.88104 0.59906 0.0
H151 H 0.63929 0.9309 0.54248 0.0
H152 H 0.70332 0.01127 0.66191 0.0
C153 C 0.77053 0.09924 0.51165 0.0
C154 C 0.713 0.01546 0.48225 0.0
C155 C 0.7858 0.12923 0.48458 0.0
C156 C 0.63171 0.89949 0.61864 0.0
C157 C 0.64852 0.92805 0.58602 0.0
C158 C 0.70615 0.01193 0.61179 0.0
C159 C 0.7433 0.0747 0.48503 0.0
C160 C 0.726 0.04334 0.51654 0.0
C161 C 0.67625 0.95296 0.61044 0.0
C162 C 0.69335 0.98401 0.5777 0.0
H163 H 0.7381 0.11485 0.36028 0.0
H164 H 0.71128 0.06245 0.40787 0.0
H165 H 0.73132 0.06209 0.60951 0.0
H166 H 0.67928 0.91722 0.74427 0.0
H167 H 0.70869 0.96668 0.68722 0.0
C168 C 0.73086 0.6396 0.0322 0.0
C169 C 0.73978 0.62339 0.99111 0.0
C170 C 0.71517 0.65469 0.01044 0.0
C171 C 0.69831 0.68513 0.86564 0.0
H172 H 0.63493 0.68674 0.97082 0.0
C173 C 0.6213 0.73766 0.78656 0.0
C174 C 0.61921 0.75789 0.82958 0.0
C175 C 0.6349 0.71971 0.80358 0.0
C176 C 0.65266 0.68659 0.94099 0.0
H177 H 0.73888 0.61008 0.89481 0.0
H178 H 0.71089 0.63571 0.85714 0.0
H179 H 0.66053 0.65826 0.0056 0.0
H180 H 0.62956 0.77489 0.92428 0.0
H181 H 0.6528 0.74355 0.95375 0.0
H182 H 0.69004 0.71335 0.80083 0.0
C183 C 0.71659 0.6374 0.90603 0.0
C184 C 0.66749 0.67039 0.96104 0.0
C185 C 0.73252 0.62252 0.92773 0.0
C186 C 0.63078 0.7596 0.88988 0.0
C187 C 0.64395 0.74146 0.907 0.0
C188 C 0.68323 0.70113 0.84533 0.0
C189 C 0.7077 0.65372 0.94707 0.0
C190 C 0.69087 0.66979 0.9241 0.0
C191 C 0.6462 0.72132 0.86416 0.0
C192 C 0.66057 0.70241 0.88321 0.0
H193 H 0.73626 0.64092 0.08123 0.0
H194 H 0.7093 0.6675 0.04335 0.0
H195 H 0.71643 0.68556 0.83616 0.0
H196 H 0.61264 0.73584 0.73974 0.0
H197 H 0.6362 0.70428 0.76964 0.0
C198 C 0.88543 0.6531 0.15718 0.0
C199 C 0.88012 0.63834 0.09918 0.0
C200 C 0.91526 0.66768 0.18352 0.0
C201 C 0.9996 0.7016 0.14802 0.0
H202 H 1.00439 0.6837 0.32225 0.0
C203 C 0.11812 0.73888 0.26678 0.0
C204 C 0.12168 0.74857 0.32905 0.0
C205 C 0.08894 0.72614 0.23792 0.0
C206 C 1.00355 0.6894 0.27382 0.0
H207 H 0.90236 0.62818 0.02256 0.0
H208 H 0.95462 0.65393 0.0685 0.0
H209 H 0.95341 0.66105 0.27284 0.0
H210 H 0.09736 0.75287 0.40948 0.0
H211 H 0.04672 0.73139 0.35887 0.0
H212 H 0.04971 0.73027 0.14907 0.0
C213 C 0.93559 0.65416 0.09351 0.0
C214 C 0.97426 0.6763 0.24544 0.0
C215 C 0.90563 0.63933 0.0673 0.0
C216 C 0.09541 0.74545 0.3616 0.0
C217 C 0.06628 0.73293 0.3326 0.0
C218 C 0.02894 0.71493 0.17655 0.0
C219 C 0.94062 0.66809 0.15239 0.0
C220 C 0.97191 0.68223 0.18223 0.0
C221 C 0.06258 0.72295 0.27041 0.0
C222 C 0.03133 0.70899 0.23988 0.0
H223 H 0.86639 0.6529 0.18303 0.0
H224 H 0.91845 0.67859 0.22851 0.0
H225 H 0.99856 0.70688 0.0994 0.0
H226 H 0.13782 0.74079 0.24039 0.0
H227 H 0.08698 0.71829 0.19038 0.0
C228 C 0.3531 0.11824 0.60544 0.0
C229 C 0.38553 0.13337 0.61638 0.0
C230 C 0.33721 0.08796 0.5811 0.0
C231 C 0.34406 0.01718 0.55589 0.0
H232 H 0.27876 0.99728 0.43528 0.0
C233 C 0.28578 0.90094 0.41939 0.0
C234 C 0.25283 0.88508 0.41582 0.0
C235 C 0.30249 0.93164 0.44164 0.0
C236 C 0.29678 1.0024 0.46923 0.0
H237 H 0.42667 0.12835 0.61068 0.0
H238 H 0.39913 0.0758 0.56729 0.0
H239 H 0.30677 0.04959 0.47965 0.0
H240 H 0.21173 0.88947 0.43135 0.0
H241 H 0.24088 0.94301 0.46973 0.0
H242 H 0.33416 0.96996 0.54489 0.0
C243 C 0.38578 0.08709 0.57846 0.0
C244 C 0.3128 0.03238 0.4949 0.0
C245 C 0.40164 0.11732 0.60315 0.0
C246 C 0.23709 0.90096 0.43346 0.0
C247 C 0.25381 0.93172 0.45524 0.0
C248 C 0.32816 0.98725 0.52991 0.0
C249 C 0.35338 0.07207 0.56667 0.0
C250 C 0.33655 0.04015 0.53885 0.0
C251 C 0.28667 0.9473 0.46034 0.0
C252 C 0.30423 0.97945 0.48648 0.0
H253 H 0.33991 0.12983 0.61541 0.0
H254 H 0.31217 0.07697 0.57385 0.0
H255 H 0.36185 0.02209 0.59024 0.0
H256 H 0.29868 0.88942 0.40622 0.0
H257 H 0.32783 0.94312 0.44428 0.0
C258 C 0.23851 0.7144 0.19095 0.0
C259 C 0.25085 0.73371 0.24306 0.0
C260 C 0.24694 0.69196 0.17742 0.0
C261 C 0.26994 0.6417 0.2572 0.0
H262 H 0.28204 0.62034 0.09 0.0
C263 C 0.28389 0.54164 0.11202 0.0
C264 C 0.25661 0.51455 0.13378 0.0
C265 C 0.2909 0.57135 0.13209 0.0
C266 C 0.27923 0.62626 0.13713 0.0
H267 H 0.28282 0.74551 0.32037 0.0
H268 H 0.29728 0.70611 0.29689 0.0
H269 H 0.28064 0.66843 0.10717 0.0
H270 H 0.21708 0.49727 0.19811 0.0
H271 H 0.22956 0.54902 0.23365 0.0
H272 H 0.2673 0.59887 0.28681 0.0
C273 C 0.28109 0.70839 0.26657 0.0
C274 C 0.27813 0.65365 0.14682 0.0
C275 C 0.27298 0.73112 0.27964 0.0
C276 C 0.23817 0.51765 0.18022 0.0
C277 C 0.24537 0.54734 0.20073 0.0
C278 C 0.27069 0.61412 0.24742 0.0
C279 C 0.26761 0.68811 0.21614 0.0
C280 C 0.27285 0.66133 0.20676 0.0
C281 C 0.27105 0.57454 0.17491 0.0
C282 C 0.27474 0.60579 0.1871 0.0
H283 H 0.22141 0.7158 0.16194 0.0
H284 H 0.23599 0.67652 0.13849 0.0
H285 H 0.26559 0.64688 0.30389 0.0
H286 H 0.29869 0.54015 0.07632 0.0
H287 H 0.3111 0.5919 0.11206 0.0
C288 C 0.55377 0.27996 0.56023 0.0
C289 C 0.52856 0.25432 0.53082 0.0
C290 C 0.5848 0.28916 0.54421 0.0
C291 C 0.64322 0.28267 0.53598 0.0
H292 H 0.67218 0.28568 0.3664 0.0
C293 C 0.74489 0.26206 0.46668 0.0
C294 C 0.76455 0.27954 0.41642 0.0
C295 C 0.71952 0.26563 0.48439 0.0
C296 C 0.66464 0.28535 0.41403 0.0
H297 H 0.5162 0.2196 0.45892 0.0
H298 H 0.57037 0.23618 0.42983 0.0
H299 H 0.62082 0.28031 0.38549 0.0
H300 H 0.7741 0.31597 0.34799 0.0
H301 H 0.72982 0.32198 0.37877 0.0
H302 H 0.68666 0.28674 0.56449 0.0
C303 C 0.56612 0.24901 0.46558 0.0
C304 C 0.63512 0.28201 0.4249 0.0
C305 C 0.53508 0.23949 0.48224 0.0
C306 C 0.75943 0.30206 0.38686 0.0
C307 C 0.7339 0.30537 0.40414 0.0
C308 C 0.67262 0.28567 0.5251 0.0
C309 C 0.59129 0.27329 0.49772 0.0
C310 C 0.6239 0.28018 0.48597 0.0
C311 C 0.71314 0.28656 0.45189 0.0
C312 C 0.68346 0.28661 0.46399 0.0
H313 H 0.54961 0.29173 0.59832 0.0
H314 H 0.60372 0.3081 0.56946 0.0
H315 H 0.63508 0.28104 0.5836 0.0
H316 H 0.74817 0.24454 0.49043 0.0
H317 H 0.70386 0.25068 0.5212 0.0
C318 C 0.51505 0.7508 0.83657 0.0
C319 C 0.51162 0.77482 0.86278 0.0
C320 C 0.48872 0.72162 0.82422 0.0
C321 C 0.40118 0.67926 0.81281 0.0
H322 H 0.40899 0.60697 0.85373 0.0
C323 C 0.29675 0.55371 0.86734 0.0
C324 C 0.30004 0.52813 0.8495 0.0
C325 C 0.32101 0.58456 0.85556 0.0
C326 C 0.40647 0.62684 0.84101 0.0
H327 H 0.478 0.78716 0.89748 0.0
H328 H 0.43193 0.73595 0.8777 0.0
H329 H 0.45458 0.65918 0.86016 0.0
H330 H 0.33006 0.51495 0.80008 0.0
H331 H 0.37205 0.56856 0.77916 0.0
H332 H 0.35246 0.64647 0.79622 0.0
C333 C 0.4549 0.7398 0.86489 0.0
C334 C 0.43271 0.65689 0.84462 0.0
C335 C 0.4813 0.76904 0.87695 0.0
C336 C 0.3269 0.53407 0.81513 0.0
C337 C 0.35107 0.56482 0.80342 0.0
C338 C 0.37474 0.64906 0.80973 0.0
C339 C 0.45827 0.71557 0.83894 0.0
C340 C 0.43045 0.68356 0.83107 0.0
C341 C 0.34898 0.5904 0.82573 0.0
C342 C 0.37709 0.62251 0.82415 0.0
H343 H 0.53811 0.75439 0.82645 0.0
H344 H 0.49229 0.70371 0.80357 0.0
H345 H 0.39865 0.69923 0.80111 0.0
H346 H 0.27639 0.54999 0.89394 0.0
H347 H 0.31869 0.60375 0.87344 0.0
C348 C 0.79312 0.49469 0.1816 0.0
C349 C 0.7754 0.49931 0.13645 0.0
C350 C 0.78833 0.46474 0.19343 0.0
C351 C 0.79416 0.40869 0.16242 0.0
H352 H 0.71568 0.32923 0.16443 0.0
C353 C 0.79596 0.29475 0.1428 0.0
C354 C 0.77828 0.27181 0.18828 0.0
C355 C 0.79063 0.31956 0.13163 0.0
C356 C 0.73776 0.35127 0.16397 0.0
H357 H 0.73692 0.47574 0.07202 0.0
H358 H 0.72878 0.42345 0.0923 0.0
H359 H 0.71493 0.37852 0.16375 0.0
H360 H 0.7393 0.25556 0.25404 0.0
H361 H 0.73031 0.29904 0.23498 0.0
H362 H 0.81713 0.38191 0.16342 0.0
C363 C 0.74625 0.44295 0.11886 0.0
C364 C 0.73733 0.37945 0.16337 0.0
C365 C 0.75091 0.47296 0.10731 0.0
C366 C 0.75333 0.27276 0.21846 0.0
C367 C 0.74815 0.29775 0.2076 0.0
C368 C 0.7946 0.3807 0.16273 0.0
C369 C 0.76589 0.43876 0.15999 0.0
C370 C 0.76558 0.40849 0.16289 0.0
C371 C 0.76765 0.32213 0.166 0.0
C372 C 0.76647 0.35162 0.1633 0.0
H373 H 0.81195 0.51448 0.20526 0.0
H374 H 0.80329 0.46217 0.22666 0.0
H375 H 0.81638 0.43058 0.16087 0.0
H376 H 0.81515 0.29455 0.11834 0.0
H377 H 0.80554 0.33756 0.09807 0.0
C378 C 0.25507 0.7147 0.49028 0.0
C379 C 0.24413 0.73556 0.50213 0.0
C380 C 0.27868 0.71518 0.52669 0.0
C381 C 0.3454 0.77305 0.61562 0.0
H382 H 0.3594 0.70413 0.65245 0.0
C383 C 0.45889 0.79702 0.73043 0.0
C384 C 0.47442 0.78232 0.70509 0.0
C385 C 0.42784 0.78694 0.71545 0.0
C386 C 0.35585 0.72359 0.64211 0.0
H387 H 0.24687 0.77073 0.56573 0.0
H388 H 0.28746 0.77104 0.63006 0.0
H389 H 0.3086 0.69323 0.61185 0.0
H390 H 0.46895 0.7442 0.64712 0.0
H391 H 0.41459 0.72705 0.61898 0.0
H392 H 0.39259 0.8035 0.64354 0.0
C393 C 0.2785 0.75499 0.59143 0.0
C394 C 0.32675 0.71736 0.6191 0.0
C395 C 0.25506 0.75466 0.55484 0.0
C396 C 0.45767 0.75621 0.6667 0.0
C397 C 0.42648 0.74627 0.65103 0.0
C398 C 0.37432 0.77924 0.63829 0.0
C399 C 0.29168 0.7364 0.57591 0.0
C400 C 0.32126 0.74209 0.60542 0.0
C401 C 0.41151 0.76211 0.67402 0.0
C402 C 0.38002 0.75468 0.65173 0.0
H403 H 0.24713 0.69959 0.45012 0.0
H404 H 0.28826 0.70057 0.51335 0.0
H405 H 0.34241 0.79274 0.60394 0.0
H406 H 0.47084 0.81667 0.76156 0.0
H407 H 0.41678 0.79908 0.73551 0.0
C408 C 0.57555 0.26737 0.72214 0.0
C409 C 0.54816 0.2608 0.75545 0.0
C410 C 0.60456 0.29331 0.7371 0.0
C411 C 0.65225 0.36324 0.74506 0.0
H412 H 0.68021 0.39129 0.91279 0.0
C413 C 0.72831 0.49282 0.81395 0.0
C414 C 0.75077 0.50067 0.8606 0.0
C415 C 0.70916 0.4616 0.79643 0.0
C416 C 0.67303 0.3836 0.86559 0.0
H417 H 0.53023 0.27487 0.83362 0.0
H418 H 0.58098 0.31983 0.8604 0.0
H419 H 0.63581 0.3385 0.89639 0.0
H420 H 0.77199 0.48208 0.92295 0.0
H421 H 0.73831 0.42752 0.89256 0.0
H422 H 0.68868 0.40877 0.71444 0.0
C423 C 0.57996 0.30504 0.82245 0.0
C424 C 0.64745 0.35348 0.8563 0.0
C425 C 0.55086 0.2793 0.80703 0.0
C426 C 0.75501 0.47687 0.88661 0.0
C427 C 0.73555 0.44557 0.86967 0.0
C428 C 0.6776 0.39347 0.7544 0.0
C429 C 0.60691 0.31295 0.78626 0.0
C430 C 0.63641 0.3432 0.79601 0.0
C431 C 0.71182 0.43753 0.82571 0.0
C432 C 0.68787 0.40418 0.81485 0.0
H433 H 0.57439 0.25365 0.68206 0.0
H434 H 0.62499 0.29863 0.70881 0.0
H435 H 0.64412 0.35611 0.69806 0.0
H436 H 0.72447 0.51062 0.7931 0.0
H437 H 0.69097 0.45613 0.76267 0.0
loop_
_geom_bond_atom_site_label_1
_geom_bond_atom_site_label_2
_geom_bond_distance
_geom_bond_site_symmetry_2
_ccdc_geom_bond_type
Mg0 O7 2.141 1_554 S
Mg0 O8 2.048 1_554 S
Mg0 O9 2.048 . S
Mg0 O12 2.141 . S
C1 O2 1.313 1_556 S
C1 O8 1.195 . S
O2 C1 1.313 1_554 S
C3 O4 1.245 . S
C3 O12 1.289 . S
O4 C3 1.245 . S
C5 O6 1.245 1_556 S
C5 O7 1.289 . S
O6 C5 1.245 1_554 S
O7 Mg0 2.141 1_556 S
O7 C5 1.289 . S
O8 Mg0 2.048 1_556 S
O8 C1 1.195 . S
O9 Mg0 2.048 . S
O9 C10 1.195 . S
C10 O9 1.195 . S
C10 O11 1.313 . S
O11 C10 1.313 . S
O12 Mg0 2.141 . S
O12 C3 1.289 . S
Mg13 O20 2.141 . S
Mg13 O21 2.048 . S
Mg13 O22 2.048 . S
Mg13 O25 2.141 . S
C14 O15 1.313 . S
C14 O21 1.195 . S
O15 C14 1.313 . S
C16 O17 1.245 . S
C16 O25 1.289 . S
O17 C16 1.245 . S
C18 O19 1.245 . S
C18 O20 1.289 . S
O19 C18 1.245 . S
O20 Mg13 2.141 . S
O20 C18 1.289 . S
O21 Mg13 2.048 . S
O21 C14 1.195 . S
O22 Mg13 2.048 . S
O22 C23 1.195 . S
C23 O22 1.195 . S
C23 O24 1.313 . S
O24 C23 1.313 . S
O25 Mg13 2.141 . S
O25 C16 1.289 . S
Mg26 O33 2.141 . S
Mg26 O34 2.048 . S
Mg26 O35 2.048 . S
Mg26 O38 2.141 . S
C27 O28 1.313 . S
C27 O34 1.195 . S
O28 C27 1.313 . S
C29 O30 1.245 . S
C29 O38 1.289 . S
O30 C29 1.245 . S
C31 O32 1.245 . S
C31 O33 1.289 . S
O32 C31 1.245 . S
O33 Mg26 2.141 . S
O33 C31 1.289 . S
O34 Mg26 2.048 . S
O34 C27 1.195 . S
O35 Mg26 2.048 . S
O35 C36 1.195 . S
C36 O35 1.195 . S
C36 O37 1.313 . S
O37 C36 1.313 . S
O38 Mg26 2.141 . S
O38 C29 1.289 . S
Mg39 O46 2.141 . S
Mg39 O47 2.048 . S
Mg39 O48 2.048 1_556 S
Mg39 O51 2.141 1_556 S
C40 O41 1.313 1_556 S
C40 O47 1.195 . S
O41 C40 1.313 1_554 S
C42 O43 1.245 . S
C42 O51 1.289 . S
O43 C42 1.245 . S
C44 O45 1.245 1_556 S
C44 O46 1.289 . S
O45 C44 1.245 1_554 S
O46 Mg39 2.141 . S
O46 C44 1.289 . S
O47 Mg39 2.048 . S
O47 C40 1.195 . S
O48 Mg39 2.048 1_554 S
O48 C49 1.195 . S
C49 O48 1.195 . S
C49 O50 1.313 . S
O50 C49 1.313 . S
O51 Mg39 2.141 1_554 S
O51 C42 1.289 . S
Mg52 O59 2.141 . S
Mg52 O60 2.048 . S
Mg52 O61 2.048 . S
Mg52 O64 2.141 . S
C53 O54 1.313 . S
C53 O60 1.195 . S
O54 C53 1.313 . S
C55 O56 1.245 . S
C55 O64 1.289 . S
O56 C55 1.245 . S
C57 O58 1.245 . S
C57 O59 1.289 . S
O58 C57 1.245 . S
O59 Mg52 2.141 . S
O59 C57 1.289 . S
O60 Mg52 2.048 . S
O60 C53 1.195 . S
O61 Mg52 2.048 . S
O61 C62 1.195 . S
C62 O61 1.195 . S
C62 O63 1.313 . S
O63 C62 1.313 . S
O64 Mg52 2.141 . S
O64 C55 1.289 . S
Mg65 O72 2.141 . S
Mg65 O73 2.048 . S
Mg65 O74 2.048 . S
Mg65 O77 2.141 . S
C66 O67 1.313 . S
C66 O73 1.195 . S
O67 C66 1.313 . S
C68 O69 1.245 . S
C68 O77 1.289 . S
O69 C68 1.245 . S
C70 O71 1.245 . S
C70 O72 1.289 . S
O71 C70 1.245 . S
O72 Mg65 2.141 . S
O72 C70 1.289 . S
O73 Mg65 2.048 . S
O73 C66 1.195 . S
O74 Mg65 2.048 . S
O74 C75 1.195 . S
C75 O74 1.195 . S
C75 O76 1.313 . S
O76 C75 1.313 . S
O77 Mg65 2.141 . S
O77 C68 1.289 . S
C78 C79 1.349 . S
C78 C80 1.327 . S
C78 H103 0.950 . S
C79 C78 1.349 . S
C79 C95 1.349 . S
C80 C78 1.327 . S
C80 C99 1.429 . S
C80 H104 0.950 . S
C81 C98 1.574 . S
C81 C100 1.368 . S
C81 H105 0.949 . S
H82 C86 0.949 . S
C83 C84 1.349 . S
C83 C85 1.327 . S
C83 H106 0.950 . S
C84 C83 1.349 . S
C84 C96 1.349 . S
C85 C83 1.327 . S
C85 C101 1.429 . S
C85 H107 0.950 . S
C86 H82 0.949 . S
C86 C94 1.574 . S
C86 C102 1.368 . S
H87 C95 0.950 1_554 S
H88 C93 0.950 . S
H89 C94 0.949 . S
H90 C96 0.950 . S
H91 C97 0.950 . S
H92 C98 0.949 . S
C93 H88 0.950 . S
C93 C95 1.327 . S
C93 C99 1.429 . S
C94 C86 1.574 . S
C94 H89 0.949 . S
C94 C100 1.368 . S
C95 C79 1.349 . S
C95 H87 0.950 1_556 S
C95 C93 1.327 . S
C96 C84 1.349 . S
C96 H90 0.950 . S
C96 C97 1.327 . S
C97 H91 0.950 . S
C97 C96 1.327 . S
C97 C101 1.429 . S
C98 C81 1.574 . S
C98 H92 0.949 . S
C98 C102 1.368 . S
C99 C80 1.429 . S
C99 C93 1.429 . S
C99 C100 1.523 . S
C100 C81 1.368 . S
C100 C94 1.368 . S
C100 C99 1.523 . S
C101 C85 1.429 . S
C101 C97 1.429 . S
C101 C102 1.523 . S
C102 C86 1.368 . S
C102 C98 1.368 . S
C102 C101 1.523 . S
H103 C78 0.950 . S
H104 C80 0.950 . S
H105 C81 0.949 . S
H106 C83 0.950 . S
H107 C85 0.950 . S
C108 C109 1.349 . S
C108 C110 1.327 . S
C108 H133 0.950 . S
C109 C108 1.349 . S
C109 C125 1.349 . S
C110 C108 1.327 . S
C110 C129 1.429 . S
C110 H134 0.950 . S
C111 C128 1.574 1_655 S
C111 C130 1.368 . S
C111 H135 0.949 . S
H112 C116 0.949 . S
C113 C114 1.349 . S
C113 C115 1.327 . S
C113 H136 0.950 . S
C114 C113 1.349 . S
C114 C126 1.349 . S
C115 C113 1.327 . S
C115 C131 1.429 . S
C115 H137 0.950 . S
C116 H112 0.949 . S
C116 C124 1.574 1_455 S
C116 C132 1.368 . S
H117 C125 0.950 . S
H118 C123 0.950 . S
H119 C124 0.949 . S
H120 C126 0.950 . S
H121 C127 0.950 . S
H122 C128 0.949 . S
C123 H118 0.950 . S
C123 C125 1.327 . S
C123 C129 1.429 . S
C124 C116 1.574 1_655 S
C124 H119 0.949 . S
C124 C130 1.368 . S
C125 C109 1.349 . S
C125 H117 0.950 . S
C125 C123 1.327 . S
C126 C114 1.349 . S
C126 H120 0.950 . S
C126 C127 1.327 . S
C127 H121 0.950 . S
C127 C126 1.327 . S
C127 C131 1.429 . S
C128 C111 1.574 1_455 S
C128 H122 0.949 . S
C128 C132 1.368 . S
C129 C110 1.429 . S
C129 C123 1.429 . S
C129 C130 1.523 . S
C130 C111 1.368 . S
C130 C124 1.368 . S
C130 C129 1.523 . S
C131 C115 1.429 . S
C131 C127 1.429 . S
C131 C132 1.523 . S
C132 C116 1.368 . S
C132 C128 1.368 . S
C132 C131 1.523 . S
H133 C108 0.950 . S
H134 C110 0.950 . S
H135 C111 0.949 . S
H136 C113 0.950 . S
H137 C115 0.950 . S
C138 C139 1.349 . S
C138 C140 1.327 . S
C138 H163 0.950 . S
C139 C138 1.349 . S
C139 C155 1.349 . S
C140 C138 1.327 . S
C140 C159 1.429 . S
C140 H164 0.950 . S
C141 C158 1.574 1_545 S
C141 C160 1.368 . S
C141 H165 0.949 . S
H142 C146 0.949 . S
C143 C144 1.349 . S
C143 C145 1.327 . S
C143 H166 0.950 . S
C144 C143 1.349 . S
C144 C156 1.349 . S
C145 C143 1.327 . S
C145 C161 1.429 . S
C145 H167 0.950 . S
C146 H142 0.949 . S
C146 C154 1.574 1_565 S
C146 C162 1.368 . S
H147 C155 0.950 . S
H148 C153 0.950 . S
H149 C154 0.949 . S
H150 C156 0.950 . S
H151 C157 0.950 . S
H152 C158 0.949 . S
C153 H148 0.950 . S
C153 C155 1.327 . S
C153 C159 1.429 . S
C154 C146 1.574 1_545 S
C154 H149 0.949 . S
C154 C160 1.368 . S
C155 C139 1.349 . S
C155 H147 0.950 . S
C155 C153 1.327 . S
C156 C144 1.349 . S
C156 H150 0.950 . S
C156 C157 1.327 . S
C157 H151 0.950 . S
C157 C156 1.327 . S
C157 C161 1.429 . S
C158 C141 1.574 1_565 S
C158 H152 0.949 . S
C158 C162 1.368 . S
C159 C140 1.429 . S
C159 C153 1.429 . S
C159 C160 1.523 . S
C160 C141 1.368 . S
C160 C154 1.368 . S
C160 C159 1.523 . S
C161 C145 1.429 . S
C161 C157 1.429 . S
C161 C162 1.523 . S
C162 C146 1.368 . S
C162 C158 1.368 . S
C162 C161 1.523 . S
H163 C138 0.950 . S
H164 C140 0.950 . S
H165 C141 0.949 . S
H166 C143 0.950 . S
H167 C145 0.950 . S
C168 C169 1.349 . S
C168 C170 1.327 . S
C168 H193 0.950 . S
C169 C168 1.349 . S
C169 C185 1.349 . S
C170 C168 1.327 . S
C170 C189 1.429 . S
C170 H194 0.950 . S
C171 C188 1.574 . S
C171 C190 1.368 . S
C171 H195 0.949 . S
H172 C176 0.949 . S
C173 C174 1.349 . S
C173 C175 1.327 . S
C173 H196 0.950 . S
C174 C173 1.349 . S
C174 C186 1.349 . S
C175 C173 1.327 . S
C175 C191 1.429 . S
C175 H197 0.950 . S
C176 H172 0.949 . S
C176 C184 1.574 . S
C176 C192 1.368 . S
H177 C185 0.950 . S
H178 C183 0.950 . S
H179 C184 0.949 . S
H180 C186 0.950 . S
H181 C187 0.950 . S
H182 C188 0.949 . S
C183 H178 0.950 . S
C183 C185 1.327 . S
C183 C189 1.429 . S
C184 C176 1.574 . S
C184 H179 0.949 . S
C184 C190 1.368 . S
C185 C169 1.349 . S
C185 H177 0.950 . S
C185 C183 1.327 . S
C186 C174 1.349 . S
C186 H180 0.950 . S
C186 C187 1.327 . S
C187 H181 0.950 . S
C187 C186 1.327 . S
C187 C191 1.429 . S
C188 C171 1.574 . S
C188 H182 0.949 . S
C188 C192 1.368 . S
C189 C170 1.429 . S
C189 C183 1.429 . S
C189 C190 1.523 . S
C190 C171 1.368 . S
C190 C184 1.368 . S
C190 C189 1.523 . S
C191 C175 1.429 . S
C191 C187 1.429 . S
C191 C192 1.523 . S
C192 C176 1.368 . S
C192 C188 1.368 . S
C192 C191 1.523 . S
H193 C168 0.950 . S
H194 C170 0.950 . S
H195 C171 0.949 . S
H196 C173 0.950 . S
H197 C175 0.950 . S
C198 C199 1.349 . S
C198 C200 1.327 . S
C198 H223 0.950 . S
C199 C198 1.349 . S
C199 C215 1.349 . S
C200 C198 1.327 . S
C200 C219 1.429 . S
C200 H224 0.950 . S
C201 C218 1.574 1_655 S
C201 C220 1.368 . S
C201 H225 0.949 . S
H202 C206 0.949 . S
C203 C204 1.349 . S
C203 C205 1.327 . S
C203 H226 0.950 . S
C204 C203 1.349 . S
C204 C216 1.349 . S
C205 C203 1.327 . S
C205 C221 1.429 . S
C205 H227 0.950 . S
C206 H202 0.949 . S
C206 C214 1.574 1_455 S
C206 C222 1.368 . S
H207 C215 0.950 . S
H208 C213 0.950 . S
H209 C214 0.949 . S
H210 C216 0.950 . S
H211 C217 0.950 . S
H212 C218 0.949 . S
C213 H208 0.950 . S
C213 C215 1.327 . S
C213 C219 1.429 . S
C214 C206 1.574 1_655 S
C214 H209 0.949 . S
C214 C220 1.368 . S
C215 C199 1.349 . S
C215 H207 0.950 . S
C215 C213 1.327 . S
C216 C204 1.349 . S
C216 H210 0.950 . S
C216 C217 1.327 . S
C217 H211 0.950 . S
C217 C216 1.327 . S
C217 C221 1.429 . S
C218 C201 1.574 1_455 S
C218 H212 0.949 . S
C218 C222 1.368 . S
C219 C200 1.429 . S
C219 C213 1.429 . S
C219 C220 1.523 . S
C220 C201 1.368 . S
C220 C214 1.368 . S
C220 C219 1.523 . S
C221 C205 1.429 . S
C221 C217 1.429 . S
C221 C222 1.523 . S
C222 C206 1.368 . S
C222 C218 1.368 . S
C222 C221 1.523 . S
H223 C198 0.950 . S
H224 C200 0.950 . S
H225 C201 0.949 . S
H226 C203 0.950 . S
H227 C205 0.950 . S
C228 C229 1.349 . S
C228 C230 1.327 . S
C228 H253 0.950 . S
C229 C228 1.349 . S
C229 C245 1.349 . S
C230 C228 1.327 . S
C230 C249 1.429 . S
C230 H254 0.950 . S
C231 C248 1.574 1_545 S
C231 C250 1.368 . S
C231 H255 0.949 . S
H232 C236 0.949 . S
C233 C234 1.349 . S
C233 C235 1.327 . S
C233 H256 0.950 . S
C234 C233 1.349 . S
C234 C246 1.349 . S
C235 C233 1.327 . S
C235 C251 1.429 . S
C235 H257 0.950 . S
C236 H232 0.949 . S
C236 C244 1.574 1_565 S
C236 C252 1.368 . S
H237 C245 0.950 . S
H238 C243 0.950 . S
H239 C244 0.949 . S
H240 C246 0.950 . S
H241 C247 0.950 . S
H242 C248 0.949 . S
C243 H238 0.950 . S
C243 C245 1.327 . S
C243 C249 1.429 . S
C244 C236 1.574 1_545 S
C244 H239 0.949 . S
C244 C250 1.368 . S
C245 C229 1.349 . S
C245 H237 0.950 . S
C245 C243 1.327 . S
C246 C234 1.349 . S
C246 H240 0.950 . S
C246 C247 1.327 . S
C247 H241 0.950 . S
C247 C246 1.327 . S
C247 C251 1.429 . S
C248 C231 1.574 1_565 S
C248 H242 0.949 . S
C248 C252 1.368 . S
C249 C230 1.429 . S
C249 C243 1.429 . S
C249 C250 1.523 . S
C250 C231 1.368 . S
C250 C244 1.368 . S
C250 C249 1.523 . S
C251 C235 1.429 . S
C251 C247 1.429 . S
C251 C252 1.523 . S
C252 C236 1.368 . S
C252 C248 1.368 . S
C252 C251 1.523 . S
H253 C228 0.950 . S
H254 C230 0.950 . S
H255 C231 0.949 . S
H256 C233 0.950 . S
H257 C235 0.950 . S
C258 C259 1.349 . S
C258 C260 1.327 . S
C258 H283 0.950 . S
C259 C258 1.349 . S
C259 C275 1.349 . S
C260 C258 1.327 . S
C260 C279 1.429 . S
C260 H284 0.950 . S
C261 C278 1.574 . S
C261 C280 1.368 . S
C261 H285 0.949 . S
H262 C266 0.949 . S
C263 C264 1.349 . S
C263 C265 1.327 . S
C263 H286 0.950 . S
C264 C263 1.349 . S
C264 C276 1.349 . S
C265 C263 1.327 . S
C265 C281 1.429 . S
C265 H287 0.950 . S
C266 H262 0.949 . S
C266 C274 1.574 . S
C266 C282 1.368 . S
H267 C275 0.950 . S
H268 C273 0.950 . S
H269 C274 0.949 . S
H270 C276 0.950 . S
H271 C277 0.950 . S
H272 C278 0.949 . S
C273 H268 0.950 . S
C273 C275 1.327 . S
C273 C279 1.429 . S
C274 C266 1.574 . S
C274 H269 0.949 . S
C274 C280 1.368 . S
C275 C259 1.349 . S
C275 H267 0.950 . S
C275 C273 1.327 . S
C276 C264 1.349 . S
C276 H270 0.950 . S
C276 C277 1.327 . S
C277 H271 0.950 . S
C277 C276 1.327 . S
C277 C281 1.429 . S
C278 C261 1.574 . S
C278 H272 0.949 . S
C278 C282 1.368 . S
C279 C260 1.429 . S
C279 C273 1.429 . S
C279 C280 1.523 . S
C280 C261 1.368 . S
C280 C274 1.368 . S
C280 C279 1.523 . S
C281 C265 1.429 . S
C281 C277 1.429 . S
C281 C282 1.523 . S
C282 C266 1.368 . S
C282 C278 1.368 . S
C282 C281 1.523 . S
H283 C258 0.950 . S
H284 C260 0.950 . S
H285 C261 0.949 . S
H286 C263 0.950 . S
H287 C265 0.950 . S
C288 C289 1.349 . S
C288 C290 1.327 . S
C288 H313 0.950 . S
C289 C288 1.349 . S
C289 C305 1.349 . S
C290 C288 1.327 . S
C290 C309 1.429 . S
C290 H314 0.950 . S
C291 C308 1.574 . S
C291 C310 1.368 . S
C291 H315 0.949 . S
H292 C296 0.949 . S
C293 C294 1.349 . S
C293 C295 1.327 . S
C293 H316 0.950 . S
C294 C293 1.349 . S
C294 C306 1.349 . S
C295 C293 1.327 . S
C295 C311 1.429 . S
C295 H317 0.950 . S
C296 H292 0.949 . S
C296 C304 1.574 . S
C296 C312 1.368 . S
H297 C305 0.950 . S
H298 C303 0.950 . S
H299 C304 0.949 . S
H300 C306 0.950 . S
H301 C307 0.950 . S
H302 C308 0.949 . S
C303 H298 0.950 . S
C303 C305 1.327 . S
C303 C309 1.429 . S
C304 C296 1.574 . S
C304 H299 0.949 . S
C304 C310 1.368 . S
C305 C289 1.349 . S
C305 H297 0.950 . S
C305 C303 1.327 . S
C306 C294 1.349 . S
C306 H300 0.950 . S
C306 C307 1.327 . S
C307 H301 0.950 . S
C307 C306 1.327 . S
C307 C311 1.429 . S
C308 C291 1.574 . S
C308 H302 0.949 . S
C308 C312 1.368 . S
C309 C290 1.429 . S
C309 C303 1.429 . S
C309 C310 1.523 . S
C310 C291 1.368 . S
C310 C304 1.368 . S
C310 C309 1.523 . S
C311 C295 1.429 . S
C311 C307 1.429 . S
C311 C312 1.523 . S
C312 C296 1.368 . S
C312 C308 1.368 . S
C312 C311 1.523 . S
H313 C288 0.950 . S
H314 C290 0.950 . S
H315 C291 0.949 . S
H316 C293 0.950 . S
H317 C295 0.950 . S
C318 C319 1.349 . S
C318 C320 1.327 . S
C318 H343 0.950 . S
C319 C318 1.349 . S
C319 C335 1.349 . S
C320 C318 1.327 . S
C320 C339 1.429 . S
C320 H344 0.950 . S
C321 C338 1.574 . S
C321 C340 1.368 . S
C321 H345 0.949 . S
H322 C326 0.949 . S
C323 C324 1.349 . S
C323 C325 1.327 . S
C323 H346 0.950 1_556 S
C324 C323 1.349 . S
C324 C336 1.349 . S
C325 C323 1.327 . S
C325 C341 1.429 . S
C325 H347 0.950 . S
C326 H322 0.949 . S
C326 C334 1.574 . S
C326 C342 1.368 . S
H327 C335 0.950 . S
H328 C333 0.950 . S
H329 C334 0.949 . S
H330 C336 0.950 . S
H331 C337 0.950 . S
H332 C338 0.949 . S
C333 H328 0.950 . S
C333 C335 1.327 . S
C333 C339 1.429 . S
C334 C326 1.574 . S
C334 H329 0.949 . S
C334 C340 1.368 . S
C335 C319 1.349 . S
C335 H327 0.950 . S
C335 C333 1.327 . S
C336 C324 1.349 . S
C336 H330 0.950 . S
C336 C337 1.327 . S
C337 H331 0.950 . S
C337 C336 1.327 . S
C337 C341 1.429 . S
C338 C321 1.574 . S
C338 H332 0.949 . S
C338 C342 1.368 . S
C339 C320 1.429 . S
C339 C333 1.429 . S
C339 C340 1.523 . S
C340 C321 1.368 . S
C340 C334 1.368 . S
C340 C339 1.523 . S
C341 C325 1.429 . S
C341 C337 1.429 . S
C341 C342 1.523 . S
C342 C326 1.368 . S
C342 C338 1.368 . S
C342 C341 1.523 . S
H343 C318 0.950 . S
H344 C320 0.950 . S
H345 C321 0.949 . S
H346 C323 0.950 1_554 S
H347 C325 0.950 . S
C348 C349 1.349 . S
C348 C350 1.327 . S
C348 H373 0.950 . S
C349 C348 1.349 . S
C349 C365 1.349 . S
C350 C348 1.327 . S
C350 C369 1.429 . S
C350 H374 0.950 . S
C351 C368 1.574 . S
C351 C370 1.368 . S
C351 H375 0.949 . S
H352 C356 0.949 . S
C353 C354 1.349 . S
C353 C355 1.327 . S
C353 H376 0.950 . S
C354 C353 1.349 . S
C354 C366 1.349 . S
C355 C353 1.327 . S
C355 C371 1.429 . S
C355 H377 0.950 . S
C356 H352 0.949 . S
C356 C364 1.574 . S
C356 C372 1.368 . S
H357 C365 0.950 . S
H358 C363 0.950 . S
H359 C364 0.949 . S
H360 C366 0.950 . S
H361 C367 0.950 . S
H362 C368 0.949 . S
C363 H358 0.950 . S
C363 C365 1.327 . S
C363 C369 1.429 . S
C364 C356 1.574 . S
C364 H359 0.949 . S
C364 C370 1.368 . S
C365 C349 1.349 . S
C365 H357 0.950 . S
C365 C363 1.327 . S
C366 C354 1.349 . S
C366 H360 0.950 . S
C366 C367 1.327 . S
C367 H361 0.950 . S
C367 C366 1.327 . S
C367 C371 1.429 . S
C368 C351 1.574 . S
C368 H362 0.949 . S
C368 C372 1.368 . S
C369 C350 1.429 . S
C369 C363 1.429 . S
C369 C370 1.523 . S
C370 C351 1.368 . S
C370 C364 1.368 . S
C370 C369 1.523 . S
C371 C355 1.429 . S
C371 C367 1.429 . S
C371 C372 1.523 . S
C372 C356 1.368 . S
C372 C368 1.368 . S
C372 C371 1.523 . S
H373 C348 0.950 . S
H374 C350 0.950 . S
H375 C351 0.949 . S
H376 C353 0.950 . S
H377 C355 0.950 . S
C378 C379 1.349 . S
C378 C380 1.327 . S
C378 H403 0.950 . S
C379 C378 1.349 . S
C379 C395 1.349 . S
C380 C378 1.327 . S
C380 C399 1.429 . S
C380 H404 0.950 . S
C381 C398 1.574 . S
C381 C400 1.368 . S
C381 H405 0.949 . S
H382 C386 0.949 . S
C383 C384 1.349 . S
C383 C385 1.327 . S
C383 H406 0.950 . S
C384 C383 1.349 . S
C384 C396 1.349 . S
C385 C383 1.327 . S
C385 C401 1.429 . S
C385 H407 0.950 . S
C386 H382 0.949 . S
C386 C394 1.574 . S
C386 C402 1.368 . S
H387 C395 0.950 . S
H388 C393 0.950 . S
H389 C394 0.949 . S
H390 C396 0.950 . S
H391 C397 0.950 . S
H392 C398 0.949 . S
C393 H388 0.950 . S
C393 C395 1.327 . S
C393 C399 1.429 . S
C394 C386 1.574 . S
C394 H389 0.949 . S
C394 C400 1.368 . S
C395 C379 1.349 . S
C395 H387 0.950 . S
C395 C393 1.327 . S
C396 C384 1.349 . S
C396 H390 0.950 . S
C396 C397 1.327 . S
C397 H391 0.950 . S
C397 C396 1.327 . S
C397 C401 1.429 . S
C398 C381 1.574 . S
C398 H392 0.949 . S
C398 C402 1.368 . S
C399 C380 1.429 . S
C399 C393 1.429 . S
C399 C400 1.523 . S
C400 C381 1.368 . S
C400 C394 1.368 . S
C400 C399 1.523 . S
C401 C385 1.429 . S
C401 C397 1.429 . S
C401 C402 1.523 . S
C402 C386 1.368 . S
C402 C398 1.368 . S
C402 C401 1.523 . S
H403 C378 0.950 . S
H404 C380 0.950 . S
H405 C381 0.949 . S
H406 C383 0.950 . S
H407 C385 0.950 . S
C408 C409 1.349 . S
C408 C410 1.327 . S
C408 H433 0.950 . S
C409 C408 1.349 . S
C409 C425 1.349 . S
C410 C408 1.327 . S
C410 C429 1.429 . S
C410 H434 0.950 . S
C411 C428 1.574 . S
C411 C430 1.368 . S
C411 H435 0.949 . S
H412 C416 0.949 . S
C413 C414 1.349 . S
C413 C415 1.327 . S
C413 H436 0.950 . S
C414 C413 1.349 . S
C414 C426 1.349 . S
C415 C413 1.327 . S
C415 C431 1.429 . S
C415 H437 0.950 . S
C416 H412 0.949 . S
C416 C424 1.574 . S
C416 C432 1.368 . S
H417 C425 0.950 . S
H418 C423 0.950 . S
H419 C424 0.949 . S
H420 C426 0.950 . S
H421 C427 0.950 . S
H422 C428 0.949 . S
C423 H418 0.950 . S
C423 C425 1.327 . S
C423 C429 1.429 . S
C424 C416 1.574 . S
C424 H419 0.949 . S
C424 C430 1.368 . S
C425 C409 1.349 . S
C425 H417 0.950 . S
C425 C423 1.327 . S
C426 C414 1.349 . S
C426 H420 0.950 . S
C426 C427 1.327 . S
C427 H421 0.950 . S
C427 C426 1.327 . S
C427 C431 1.429 . S
C428 C411 1.574 . S
C428 H422 0.949 . S
C428 C432 1.368 . S
C429 C410 1.429 . S
C429 C423 1.429 . S
C429 C430 1.523 . S
C430 C411 1.368 . S
C430 C424 1.368 . S
C430 C429 1.523 . S
C431 C415 1.429 . S
C431 C427 1.429 . S
C431 C432 1.523 . S
C432 C416 1.368 . S
C432 C428 1.368 . S
C432 C431 1.523 . S
H433 C408 0.950 . S
H434 C410 0.950 . S
H435 C411 0.949 . S
H436 C413 0.950 . S
H437 C415 0.950 . S
C79 C5 1.289 . S
C84 C68 1.303 . S
C109 C18 1.373 . S
C114 C3 1.392 . S
C139 C16 1.360 . S
C144 C31 1.350 . S
C169 C44 1.345 . S
C174 C29 1.369 . S
C199 C42 1.380 . S
C204 C57 1.370 . S
C229 C70 1.369 . S
C234 C55 1.389 . S
C259 C53 1.514 . S
C264 C10 1.503 . S
C289 C66 1.549 . S
C294 C23 1.537 . S
C319 C36 1.525 . S
C324 C1 1.531 . S
C349 C49 1.500 . S
C354 C14 1.515 . S
C379 C62 1.509 . S
C384 C27 1.517 . S
C409 C75 1.523 . S
C414 C40 1.533 . S
