# Generated by pormake.
# Topology umm, (4)-cn, num edge types: 1
# Building blocks:
#     Node 0, Type 0, BuildingBlock: GALJAG_clean_sbu_0, # of connection points: 4
#     Node 1, Type 0, BuildingBlock: GALJAG_clean_sbu_0, # of connection points: 4
#     Node 2, Type 0, BuildingBlock: GALJAG_clean_sbu_0, # of connection points: 4
#     Node 3, Type 0, BuildingBlock: GALJAG_clean_sbu_0, # of connection points: 4
#     Node 4, Type 0, BuildingBlock: GALJAG_clean_sbu_0, # of connection points: 4
#     Node 5, Type 0, BuildingBlock: GALJAG_clean_sbu_0, # of connection points: 4
#     Node 6, Type 0, BuildingBlock: GALJAG_clean_sbu_0, # of connection points: 4
#     Node 7, Type 0, BuildingBlock: GALJAG_clean_sbu_0, # of connection points: 4
#     Node 8, Type 0, BuildingBlock: GALJAG_clean_sbu_0, # of connection points: 4
#     Node 9, Type 0, BuildingBlock: GALJAG_clean_sbu_0, # of connection points: 4
#     Node 10, Type 0, BuildingBlock: GALJAG_clean_sbu_0, # of connection points: 4
#     Node 11, Type 0, BuildingBlock: GALJAG_clean_sbu_0, # of connection points: 4
#     Edge 12, Type (0, 0), BuildingBlock: EZIPEK_clean_linker_0, # of connection points: 2
#     Edge 13, Type (0, 0), BuildingBlock: EZIPEK_clean_linker_0, # of connection points: 2
#     Edge 14, Type (0, 0), BuildingBlock: EZIPEK_clean_linker_0, # of connection points: 2
#     Edge 15, Type (0, 0), BuildingBlock: EZIPEK_clean_linker_0, # of connection points: 2
#     Edge 16, Type (0, 0), BuildingBlock: EZIPEK_clean_linker_0, # of connection points: 2
#     Edge 17, Type (0, 0), BuildingBlock: EZIPEK_clean_linker_0, # of connection points: 2
#     Edge 18, Type (0, 0), BuildingBlock: EZIPEK_clean_linker_0, # of connection points: 2
#     Edge 19, Type (0, 0), BuildingBlock: EZIPEK_clean_linker_0, # of connection points: 2
#     Edge 20, Type (0, 0), BuildingBlock: EZIPEK_clean_linker_0, # of connection points: 2
#     Edge 21, Type (0, 0), BuildingBlock: EZIPEK_clean_linker_0, # of connection points: 2
#     Edge 22, Type (0, 0), BuildingBlock: EZIPEK_clean_linker_0, # of connection points: 2
#     Edge 23, Type (0, 0), BuildingBlock: EZIPEK_clean_linker_0, # of connection points: 2
#     Edge 24, Type (0, 0), BuildingBlock: EZIPEK_clean_linker_0, # of connection points: 2
#     Edge 25, Type (0, 0), BuildingBlock: EZIPEK_clean_linker_0, # of connection points: 2
#     Edge 26, Type (0, 0), BuildingBlock: EZIPEK_clean_linker_0, # of connection points: 2
#     Edge 27, Type (0, 0), BuildingBlock: EZIPEK_clean_linker_0, # of connection points: 2
#     Edge 28, Type (0, 0), BuildingBlock: EZIPEK_clean_linker_0, # of connection points: 2
#     Edge 29, Type (0, 0), BuildingBlock: EZIPEK_clean_linker_0, # of connection points: 2
#     Edge 30, Type (0, 0), BuildingBlock: EZIPEK_clean_linker_0, # of connection points: 2
#     Edge 31, Type (0, 0), BuildingBlock: EZIPEK_clean_linker_0, # of connection points: 2
#     Edge 32, Type (0, 0), BuildingBlock: EZIPEK_clean_linker_0, # of connection points: 2
#     Edge 33, Type (0, 0), BuildingBlock: EZIPEK_clean_linker_0, # of connection points: 2
#     Edge 34, Type (0, 0), BuildingBlock: EZIPEK_clean_linker_0, # of connection points: 2
#     Edge 35, Type (0, 0), BuildingBlock: EZIPEK_clean_linker_0, # of connection points: 2
# Relax obj value: 0.093
# Max RMSD: 0.221
# Mean RMSD: 0.220
data_MOF--net-umm--node1-GALJAG_clean_sbu_0--edge1-EZIPEK_clean_linker_0
_symmetry_space_group_name_H-M    P1
_symmetry_Int_Tables_number       1
_symmetry_cell_setting            triclinic
loop_
_symmetry_equiv_pos_as_xyz
'x, y, z'
_cell_length_a     40.98981
_cell_length_b     40.939985
_cell_length_c     20.887755
_cell_angle_alpha  90.03332
_cell_angle_beta   89.977011
_cell_angle_gamma 119.87918
loop_
_atom_site_label
_atom_site_type_symbol
_atom_site_fract_x
_atom_site_fract_y
_atom_site_fract_z
_atom_type_partial_charge
In0 In 0.38529 0.53323 0.08941 0.0
O1 O 0.39928 0.58214 0.15786 0.0
O2 O 0.3823 0.52801 0.19737 0.0
C3 C 0.40572 0.5608 0.97114 0.0
C4 C 0.43699 0.51197 0.09855 0.0
C5 C 0.31147 0.49846 0.06391 0.0
O6 O 0.4106 0.58239 0.01815 0.0
O7 O 0.39121 0.52633 0.98442 0.0
O8 O 0.32832 0.47995 0.07189 0.0
O9 O 0.33109 0.53344 0.07335 0.0
C10 C 0.39378 0.56247 0.20769 0.0
O11 O 0.40211 0.48826 0.10183 0.0
O12 O 0.44546 0.54596 0.09218 0.0
In13 In 0.85268 0.39022 0.41694 0.0
O14 O 0.82726 0.41557 0.48391 0.0
O15 O 0.84963 0.38259 0.52422 0.0
C16 C 0.85616 0.41113 0.2958 0.0
C17 C 0.92598 0.43837 0.43063 0.0
C18 C 0.80075 0.31973 0.38595 0.0
O19 O 0.83784 0.41824 0.33741 0.0
O20 O 0.87235 0.3938 0.31608 0.0
O21 O 0.83504 0.32896 0.39343 0.0
O22 O 0.79269 0.34486 0.40043 0.0
C23 C 0.83455 0.40267 0.53376 0.0
O24 O 0.91284 0.40314 0.43842 0.0
O25 O 0.90224 0.44842 0.4171 0.0
In26 In 0.4646 0.85249 0.75023 0.0
O27 O 0.41912 0.82617 0.82688 0.0
O28 O 0.47595 0.84426 0.85317 0.0
C29 C 0.43571 0.84353 0.63345 0.0
C30 C 0.4802 0.92398 0.76349 0.0
C31 C 0.49834 0.81373 0.71619 0.0
O32 O 0.41535 0.8243 0.68018 0.0
O33 O 0.46951 0.86701 0.64663 0.0
O34 O 0.51733 0.84894 0.72657 0.0
O35 O 0.46338 0.79843 0.72643 0.0
C36 C 0.44224 0.83103 0.87116 0.0
O37 O 0.50623 0.9157 0.76211 0.0
O38 O 0.44717 0.89646 0.75952 0.0
In39 In 0.61291 0.46156 0.08213 0.0
O40 O 0.59698 0.41265 0.1516 0.0
O41 O 0.61616 0.46744 0.19017 0.0
C42 C 0.59811 0.43171 0.96453 0.0
C43 C 0.5583 0.47905 0.08904 0.0
C44 C 0.68741 0.49941 0.06127 0.0
O45 O 0.59555 0.41214 0.01325 0.0
O46 O 0.60722 0.46547 0.97585 0.0
O47 O 0.66889 0.51655 0.06363 0.0
O48 O 0.66884 0.46478 0.07432 0.0
C49 C 0.60341 0.43282 0.20107 0.0
O50 O 0.59267 0.50395 0.09474 0.0
O51 O 0.55179 0.44587 0.0796 0.0
In52 In 0.15204 0.61112 0.41473 0.0
O53 O 0.18503 0.59109 0.47531 0.0
O54 O 0.15917 0.61884 0.52201 0.0
C55 C 0.15808 0.59357 0.29388 0.0
C56 C 0.07967 0.55914 0.43242 0.0
C57 C 0.1888 0.68477 0.3881 0.0
O58 O 0.17684 0.58961 0.33837 0.0
O59 O 0.13618 0.60521 0.31109 0.0
O60 O 0.15373 0.66731 0.39858 0.0
O61 O 0.20514 0.66589 0.39608 0.0
C62 C 0.17774 0.60196 0.52733 0.0
O63 O 0.09107 0.59396 0.43894 0.0
O64 O 0.10447 0.55092 0.41722 0.0
In65 In 0.51919 0.14706 0.75536 0.0
O66 O 0.56674 0.17748 0.8281 0.0
O67 O 0.51039 0.14583 0.8627 0.0
C68 C 0.55245 0.15973 0.64148 0.0
C69 C 0.50053 0.07417 0.76159 0.0
C70 C 0.48352 0.18488 0.72375 0.0
O71 O 0.57096 0.17723 0.69074 0.0
O72 O 0.51823 0.13608 0.65033 0.0
O73 O 0.46587 0.14934 0.7289 0.0
O74 O 0.51775 0.20087 0.73941 0.0
C75 C 0.54494 0.16567 0.8759 0.0
O76 O 0.47584 0.08407 0.76676 0.0
O77 O 0.53377 0.10069 0.75353 0.0
In78 In 0.46967 0.61725 0.58618 0.0
O79 O 0.41959 0.60068 0.5194 0.0
O80 O 0.47377 0.61993 0.47818 0.0
C81 C 0.44527 0.59968 0.7065 0.0
C82 C 0.49119 0.56547 0.5773 0.0
C83 C 0.50129 0.6915 0.6066 0.0
O84 O 0.42241 0.59199 0.66043 0.0
O85 O 0.4796 0.61562 0.69138 0.0
O86 O 0.52132 0.67625 0.59789 0.0
O87 O 0.46632 0.66993 0.60052 0.0
C88 C 0.439 0.60702 0.46896 0.0
O89 O 0.51477 0.60041 0.57307 0.0
O90 O 0.45734 0.55707 0.58503 0.0
In91 In 0.86088 0.47896 0.91342 0.0
O92 O 0.83297 0.43061 0.84207 0.0
O93 O 0.85666 0.48733 0.80766 0.0
C94 C 0.86279 0.45791 0.03298 0.0
C95 C 0.93288 0.49787 0.89766 0.0
C96 C 0.81282 0.50235 0.94822 0.0
O97 O 0.84125 0.43442 0.99119 0.0
O98 O 0.88333 0.49119 0.01328 0.0
O99 O 0.84737 0.52574 0.93794 0.0
O100 O 0.80269 0.46837 0.93602 0.0
C101 C 0.84053 0.45249 0.79449 0.0
O102 O 0.92309 0.52294 0.89888 0.0
O103 O 0.90638 0.46418 0.90252 0.0
In104 In 0.38103 0.84487 0.24561 0.0
O105 O 0.40323 0.814 0.18404 0.0
O106 O 0.37671 0.84116 0.13761 0.0
C107 C 0.39746 0.83948 0.36742 0.0
C108 C 0.43095 0.91839 0.23569 0.0
C109 C 0.30703 0.80438 0.26658 0.0
O110 O 0.40493 0.82309 0.32301 0.0
O111 O 0.38221 0.85817 0.34986 0.0
O112 O 0.32286 0.83932 0.25489 0.0
O113 O 0.32785 0.78989 0.26248 0.0
C114 C 0.39392 0.82293 0.13199 0.0
O115 O 0.39603 0.90591 0.22817 0.0
O116 O 0.44037 0.89391 0.24637 0.0
In117 In 0.53243 0.38247 0.58332 0.0
O118 O 0.58003 0.3947 0.51299 0.0
O119 O 0.52616 0.38015 0.47539 0.0
C120 C 0.56275 0.39619 0.7005 0.0
C121 C 0.5193 0.44045 0.57882 0.0
C122 C 0.4903 0.30791 0.60458 0.0
O123 O 0.58188 0.39829 0.65141 0.0
O124 O 0.52919 0.38782 0.6898 0.0
O125 O 0.47559 0.32866 0.60106 0.0
O126 O 0.52502 0.32426 0.59236 0.0
C127 C 0.56013 0.3902 0.4639 0.0
O128 O 0.49299 0.40662 0.57313 0.0
O129 O 0.55178 0.44481 0.58659 0.0
In130 In 0.15404 0.53374 0.90859 0.0
O131 O 0.09156 0.4927 0.89031 0.0
O132 O 0.11033 0.55142 0.90168 0.0
C133 C 0.19165 0.49918 0.94383 0.0
C134 C 0.17595 0.55692 0.78856 0.0
C135 C 0.16021 0.56028 0.02661 0.0
O136 O 0.15648 0.48061 0.93336 0.0
O137 O 0.20756 0.53416 0.93277 0.0
O138 O 0.18006 0.58182 0.98138 0.0
O139 O 0.13768 0.52654 0.01119 0.0
C140 C 0.08312 0.51862 0.89275 0.0
O141 O 0.18131 0.57999 0.83333 0.0
O142 O 0.16254 0.52304 0.80584 0.0
In143 In 0.60151 0.1466 0.25535 0.0
O144 O 0.58489 0.08435 0.24888 0.0
O145 O 0.54174 0.09933 0.2502 0.0
C146 C 0.67445 0.19366 0.27322 0.0
C147 C 0.59162 0.16459 0.13668 0.0
C148 C 0.58816 0.15408 0.37799 0.0
O149 O 0.66218 0.1588 0.26348 0.0
O150 O 0.65047 0.20441 0.26828 0.0
O151 O 0.57396 0.16397 0.33314 0.0
O152 O 0.60852 0.14071 0.36009 0.0
C153 C 0.54995 0.07348 0.24741 0.0
O154 O 0.58014 0.17459 0.18528 0.0
O155 O 0.60949 0.14748 0.14861 0.0
C156 C 0.37703 0.55672 0.32402 0.0
C157 C 0.4018 0.57816 0.27382 0.0
C158 C 0.44298 0.62444 0.35324 0.0
C159 C 0.42281 0.59879 0.40323 0.0
N160 N 0.37273 0.53664 0.43371 0.0
N161 N 0.46258 0.63053 0.24302 0.0
C162 C 0.39005 0.564 0.38829 0.0
C163 C 0.43577 0.61184 0.28874 0.0
N164 N 0.34091 0.52962 0.31049 0.0
N165 N 0.46882 0.66098 0.36723 0.0
H166 H 0.46012 0.62159 0.19575 0.0
H167 H 0.48923 0.65291 0.25382 0.0
H168 H 0.47366 0.67158 0.41384 0.0
H169 H 0.48198 0.68157 0.33211 0.0
H170 H 0.32083 0.5154 0.34593 0.0
H171 H 0.32994 0.52465 0.26415 0.0
H172 H 0.35119 0.50954 0.42277 0.0
H173 H 0.38209 0.53932 0.48073 0.0
C174 C 0.86756 0.44682 0.62329 0.0
C175 C 0.83373 0.4168 0.59856 0.0
C176 C 0.80229 0.41208 0.70108 0.0
C177 C 0.83744 0.43921 0.72749 0.0
N178 N 0.90514 0.47424 0.71762 0.0
N179 N 0.76946 0.36808 0.61426 0.0
C180 C 0.87052 0.45446 0.68961 0.0
C181 C 0.80113 0.39858 0.63755 0.0
N182 N 0.89686 0.46849 0.58328 0.0
N183 N 0.77009 0.40014 0.73587 0.0
H184 H 0.76755 0.3585 0.56734 0.0
H185 H 0.74604 0.35104 0.6423 0.0
H186 H 0.7701 0.40957 0.78228 0.0
H187 H 0.74325 0.38318 0.7172 0.0
H188 H 0.92081 0.49304 0.59809 0.0
H189 H 0.89556 0.46418 0.53402 0.0
H190 H 0.93023 0.48274 0.693 0.0
H191 H 0.90872 0.47804 0.76691 0.0
C192 C 0.39738 0.79363 0.96026 0.0
C193 C 0.43145 0.82565 0.94 0.0
C194 C 0.44513 0.84717 0.05132 0.0
C195 C 0.40833 0.81934 0.06909 0.0
N196 N 0.34799 0.76692 0.04058 0.0
N197 N 0.48357 0.88766 0.9663 0.0
C198 C 0.38398 0.79271 0.02357 0.0
C199 C 0.45455 0.85355 0.98555 0.0
N200 N 0.37856 0.76362 0.92 0.0
N201 N 0.471 0.86814 0.09705 0.0
H202 H 0.49007 0.8956 0.91862 0.0
H203 H 0.4984 0.91008 0.99773 0.0
H204 H 0.46508 0.86479 0.1459 0.0
H205 H 0.49932 0.88627 0.08664 0.0
H206 H 0.35535 0.73828 0.93412 0.0
H207 H 0.38846 0.76256 0.87449 0.0
H208 H 0.32756 0.74956 0.00769 0.0
H209 H 0.33807 0.76444 0.08738 0.0
C210 C 0.5603 0.38518 0.28319 0.0
C211 C 0.59524 0.41752 0.26743 0.0
C212 C 0.60902 0.43124 0.38165 0.0
C213 C 0.57516 0.39765 0.39736 0.0
N214 N 0.52551 0.33692 0.36223 0.0
N215 N 0.65768 0.46356 0.30215 0.0
C216 C 0.5531 0.37272 0.34778 0.0
C217 C 0.6212 0.43798 0.31689 0.0
N218 N 0.53274 0.36777 0.23813 0.0
N219 N 0.62834 0.45812 0.42703 0.0
H220 H 0.66795 0.4681 0.25535 0.0
H221 H 0.6785 0.47684 0.33682 0.0
H222 H 0.61981 0.45585 0.47453 0.0
H223 H 0.65088 0.48462 0.41587 0.0
H224 H 0.50556 0.34661 0.24948 0.0
H225 H 0.53542 0.37676 0.19086 0.0
H226 H 0.51081 0.31659 0.32734 0.0
H227 H 0.52047 0.32635 0.40884 0.0
C228 C 0.2108 0.61325 0.63333 0.0
C229 C 0.18247 0.58857 0.59035 0.0
C230 C 0.14964 0.54449 0.67712 0.0
C231 C 0.17937 0.5675 0.71986 0.0
N232 N 0.2423 0.61979 0.73483 0.0
N233 N 0.13133 0.52609 0.56741 0.0
C234 C 0.21125 0.60081 0.6969 0.0
C235 C 0.15426 0.55255 0.6109 0.0
N236 N 0.23685 0.64861 0.61368 0.0
N237 N 0.1156 0.51695 0.69968 0.0
H238 H 0.13345 0.53095 0.51823 0.0
H239 H 0.11271 0.49819 0.57989 0.0
H240 H 0.10903 0.51185 0.7481 0.0
H241 H 0.09211 0.50227 0.67037 0.0
H242 H 0.25566 0.66939 0.64474 0.0
H243 H 0.23817 0.65774 0.56659 0.0
H244 H 0.26753 0.64233 0.71863 0.0
H245 H 0.24408 0.6107 0.78066 0.0
C246 C 0.55971 0.13214 0.0356 0.0
C247 C 0.57935 0.16626 0.07057 0.0
C248 C 0.57505 0.20102 0.97807 0.0
C249 C 0.5589 0.16723 0.94179 0.0
N250 N 0.54545 0.103 0.93139 0.0
N251 N 0.61012 0.23407 0.07333 0.0
C252 C 0.5541 0.1335 0.96919 0.0
C253 C 0.58819 0.20107 0.04144 0.0
N254 N 0.54461 0.09821 0.06632 0.0
N255 N 0.57705 0.23267 0.95249 0.0
H256 H 0.62016 0.23497 0.11956 0.0
H257 H 0.62066 0.2605 0.05239 0.0
H258 H 0.5684 0.23355 0.90585 0.0
H259 H 0.58489 0.25713 0.97866 0.0
H260 H 0.52699 0.07261 0.04381 0.0
H261 H 0.54591 0.09583 0.11577 0.0
H262 H 0.5454 0.079 0.94815 0.0
H263 H 0.54244 0.10328 0.88191 0.0
C264 C 0.24445 0.48131 0.07357 0.0
C265 C 0.27354 0.48248 0.0356 0.0
C266 C 0.23774 0.47663 0.93806 0.0
C267 C 0.21273 0.48307 0.97528 0.0
N268 N 0.18823 0.48694 0.07796 0.0
N269 N 0.29727 0.47734 0.93274 0.0
C270 C 0.21433 0.48308 0.04315 0.0
C271 C 0.26949 0.47789 0.96811 0.0
N272 N 0.24626 0.47901 0.13862 0.0
N273 N 0.23113 0.46992 0.87396 0.0
H274 H 0.31972 0.47612 0.9536 0.0
H275 H 0.29871 0.47889 0.88304 0.0
H276 H 0.20781 0.46889 0.85177 0.0
H277 H 0.2466 0.46244 0.84394 0.0
H278 H 0.22506 0.47575 0.16984 0.0
H279 H 0.26821 0.47746 0.16108 0.0
H280 H 0.19004 0.49189 0.12703 0.0
H281 H 0.16458 0.4857 0.05694 0.0
C282 C 0.7582 0.28828 0.29198 0.0
C283 C 0.77313 0.285 0.35173 0.0
C284 C 0.72791 0.21713 0.35276 0.0
C285 C 0.71342 0.2209 0.29306 0.0
N286 N 0.72297 0.25638 0.19674 0.0
N287 N 0.77798 0.24521 0.43179 0.0
C288 C 0.73156 0.25532 0.25966 0.0
C289 C 0.76021 0.24894 0.37932 0.0
N290 N 0.76797 0.32279 0.26699 0.0
N291 N 0.70938 0.1842 0.38633 0.0
H292 H 0.8004 0.2681 0.45436 0.0
H293 H 0.77232 0.21924 0.45004 0.0
H294 H 0.68638 0.16 0.36816 0.0
H295 H 0.71556 0.18136 0.43365 0.0
H296 H 0.75426 0.32649 0.22806 0.0
H297 H 0.78803 0.34804 0.28722 0.0
H298 H 0.73781 0.27998 0.16772 0.0
H299 H 0.70365 0.23224 0.17198 0.0
C300 C 0.52177 0.76806 0.72499 0.0
C301 C 0.5141 0.79182 0.6864 0.0
C302 C 0.51173 0.75632 0.5904 0.0
C303 C 0.51604 0.73055 0.6297 0.0
N304 N 0.53526 0.71663 0.73021 0.0
N305 N 0.51211 0.81577 0.58227 0.0
C306 C 0.52493 0.73834 0.69564 0.0
C307 C 0.51289 0.78848 0.61878 0.0
N308 N 0.52394 0.77282 0.78993 0.0
N309 N 0.50475 0.74884 0.52652 0.0
H310 H 0.51331 0.83967 0.60235 0.0
H311 H 0.51345 0.81653 0.53252 0.0
H312 H 0.50591 0.72657 0.50435 0.0
H313 H 0.49686 0.76373 0.4959 0.0
H314 H 0.52505 0.75403 0.82214 0.0
H315 H 0.52342 0.79548 0.81188 0.0
H316 H 0.5446 0.7222 0.77737 0.0
H317 H 0.53751 0.69457 0.70994 0.0
C318 C 0.73984 0.5322 0.98005 0.0
C319 C 0.72745 0.51638 0.04198 0.0
C320 C 0.77522 0.49783 0.04614 0.0
C321 C 0.78716 0.51208 0.98314 0.0
N322 N 0.78743 0.55105 0.89659 0.0
N323 N 0.74317 0.49959 0.14238 0.0
C324 C 0.77197 0.53251 0.95254 0.0
C325 C 0.74902 0.50497 0.07794 0.0
N326 N 0.71969 0.5446 0.94605 0.0
N327 N 0.7867 0.47522 0.07435 0.0
H328 H 0.72379 0.5048 0.16616 0.0
H329 H 0.76016 0.49409 0.17245 0.0
H330 H 0.80512 0.46821 0.05263 0.0
H331 H 0.77545 0.46081 0.11706 0.0
H332 H 0.72421 0.55175 0.89777 0.0
H333 H 0.6974 0.54657 0.96573 0.0
H334 H 0.77982 0.5691 0.87467 0.0
H335 H 0.81005 0.55059 0.87457 0.0
C336 C 0.20882 0.72351 0.28943 0.0
C337 C 0.20893 0.72209 0.35724 0.0
C338 C 0.26417 0.78513 0.36044 0.0
C339 C 0.26884 0.78245 0.29368 0.0
N340 N 0.2451 0.75156 0.19273 0.0
N341 N 0.23381 0.75177 0.4585 0.0
C342 C 0.24051 0.7527 0.25734 0.0
C343 C 0.23533 0.75342 0.39317 0.0
N344 N 0.17881 0.69642 0.25619 0.0
N345 N 0.28797 0.81751 0.3924 0.0
H346 H 0.21177 0.72945 0.483 0.0
H347 H 0.25467 0.77156 0.48825 0.0
H348 H 0.30913 0.84114 0.36926 0.0
H349 H 0.28474 0.82229 0.44031 0.0
H350 H 0.17578 0.69686 0.20679 0.0
H351 H 0.15507 0.67525 0.27906 0.0
H352 H 0.22797 0.7285 0.16403 0.0
H353 H 0.26726 0.77369 0.16811 0.0
C354 C 0.46107 0.23161 0.72588 0.0
C355 C 0.46837 0.20644 0.69056 0.0
C356 C 0.47387 0.24094 0.59167 0.0
C357 C 0.47073 0.26843 0.62814 0.0
N358 N 0.44782 0.2832 0.72393 0.0
N359 N 0.46976 0.17965 0.58869 0.0
C360 C 0.45934 0.26124 0.69323 0.0
C361 C 0.47031 0.20841 0.62277 0.0
N362 N 0.45776 0.22816 0.79095 0.0
N363 N 0.48211 0.24716 0.5279 0.0
H364 H 0.4669 0.15548 0.61055 0.0
H365 H 0.46886 0.17806 0.53896 0.0
H366 H 0.48244 0.26964 0.50369 0.0
H367 H 0.48952 0.23098 0.49949 0.0
H368 H 0.45688 0.24803 0.8209 0.0
H369 H 0.45721 0.20559 0.81519 0.0
H370 H 0.43683 0.2779 0.77011 0.0
H371 H 0.4459 0.30476 0.70104 0.0
C372 C 0.47141 0.48418 0.0428 0.0
C373 C 0.46633 0.50109 0.09837 0.0
C374 C 0.52042 0.50161 0.14959 0.0
C375 C 0.52743 0.48778 0.09196 0.0
N376 N 0.5137 0.47138 0.98042 0.0
N377 N 0.48744 0.52956 0.20234 0.0
C378 C 0.5039 0.48032 0.03773 0.0
C379 C 0.49135 0.51098 0.15107 0.0
N380 N 0.44527 0.47193 0.99476 0.0
N381 N 0.54036 0.50412 0.20366 0.0
H382 H 0.46511 0.5348 0.20701 0.0
H383 H 0.50738 0.54165 0.2386 0.0
H384 H 0.56173 0.49733 0.20456 0.0
H385 H 0.53383 0.50999 0.24884 0.0
H386 H 0.44512 0.45557 0.95646 0.0
H387 H 0.42197 0.47576 0.99518 0.0
H388 H 0.50014 0.4697 0.9374 0.0
H389 H 0.53765 0.46892 0.97444 0.0
C390 C 0.98684 0.47694 0.49011 0.0
C391 C 0.96654 0.46665 0.4316 0.0
C392 C 0.01816 0.52112 0.37796 0.0
C393 C 0.03961 0.52983 0.43487 0.0
N394 N 0.04649 0.51582 0.54426 0.0
N395 N 0.9654 0.47404 0.31724 0.0
C396 C 0.02457 0.50758 0.49077 0.0
C397 C 0.98293 0.48743 0.37479 0.0
N398 N 0.96954 0.45843 0.54526 0.0
N399 N 0.03119 0.54547 0.32726 0.0
H400 H 0.9402 0.44869 0.31284 0.0
H401 H 0.97756 0.48579 0.27329 0.0
H402 H 0.05699 0.57047 0.32781 0.0
H403 H 0.01513 0.5427 0.28686 0.0
H404 H 0.98106 0.46721 0.59067 0.0
H405 H 0.94242 0.43517 0.54602 0.0
H406 H 0.03912 0.49838 0.58421 0.0
H407 H 0.07306 0.53977 0.54762 0.0
C408 C 0.50062 0.02027 0.70604 0.0
C409 C 0.49187 0.03442 0.7615 0.0
C410 C 0.47457 0.97552 0.81841 0.0
C411 C 0.48703 0.96308 0.765 0.0
N412 N 0.51508 0.97465 0.65982 0.0
N413 N 0.47296 0.02733 0.87218 0.0
C414 C 0.50121 0.98589 0.70949 0.0
C415 C 0.47923 0.01243 0.8181 0.0
N416 N 0.50636 0.03881 0.64907 0.0
N417 N 0.45792 0.95185 0.86918 0.0
H418 H 0.47435 0.05346 0.87296 0.0
H419 H 0.46848 0.01493 0.9172 0.0
H420 H 0.45593 0.92552 0.87284 0.0
H421 H 0.44423 0.95728 0.90612 0.0
H422 H 0.50913 0.02824 0.60533 0.0
H423 H 0.50455 0.06322 0.64439 0.0
H424 H 0.52975 0.99196 0.62139 0.0
H425 H 0.51433 0.94883 0.65879 0.0
C426 C 0.52009 0.53045 0.62792 0.0
C427 C 0.5018 0.53583 0.57468 0.0
C428 C 0.49812 0.48058 0.52148 0.0
C429 C 0.51286 0.47301 0.57742 0.0
N430 N 0.533 0.48728 0.68743 0.0
N431 N 0.47052 0.51497 0.47273 0.0
C432 C 0.52285 0.49719 0.63147 0.0
C433 C 0.48992 0.51052 0.52204 0.0
N434 N 0.53465 0.55702 0.67529 0.0
N435 N 0.49359 0.46026 0.4669 0.0
H436 H 0.46624 0.53798 0.46916 0.0
H437 H 0.45693 0.49491 0.43706 0.0
H438 H 0.49964 0.43838 0.4644 0.0
H439 H 0.48688 0.46699 0.4226 0.0
H440 H 0.55191 0.55686 0.71169 0.0
H441 H 0.53187 0.58098 0.67582 0.0
H442 H 0.53655 0.5014 0.73059 0.0
H443 H 0.53466 0.46281 0.69247 0.0
C444 C 0.03355 0.52974 0.84376 0.0
C445 C 0.04404 0.51167 0.89106 0.0
C446 C 0.98468 0.49143 0.94772 0.0
C447 C 0.97261 0.50639 0.89755 0.0
N448 N 0.98427 0.53834 0.79613 0.0
N449 N 0.02868 0.4726 0.98543 0.0
C450 C 0.99682 0.52546 0.8453 0.0
C451 C 0.0192 0.49145 0.94192 0.0
N452 N 0.05887 0.5512 0.79757 0.0
N453 N 0.96416 0.47934 0.00301 0.0
H454 H 0.05484 0.47423 0.98678 0.0
H455 H 0.00971 0.45324 0.01808 0.0
H456 H 0.9397 0.48054 0.01045 0.0
H457 H 0.97323 0.47194 0.04422 0.0
H458 H 0.05506 0.56892 0.76661 0.0
H459 H 0.08485 0.55271 0.79177 0.0
H460 H 0.9983 0.54794 0.7527 0.0
H461 H 0.95862 0.53783 0.79731 0.0
C462 C 0.48662 0.97342 0.18616 0.0
C463 C 0.45932 0.95889 0.23562 0.0
C464 C 0.4919 0.01896 0.29322 0.0
C465 C 0.51991 0.0334 0.24445 0.0
N466 N 0.54614 0.0243 0.14701 0.0
N467 N 0.43216 0.96796 0.33158 0.0
C468 C 0.51796 0.01056 0.19164 0.0
C469 C 0.46081 0.98175 0.28776 0.0
N470 N 0.48113 0.95225 0.13228 0.0
N471 N 0.4963 0.04015 0.34667 0.0
H472 H 0.40981 0.94034 0.33097 0.0
H473 H 0.42891 0.98417 0.36661 0.0
H474 H 0.51847 0.06752 0.35274 0.0
H475 H 0.47968 0.03015 0.38749 0.0
H476 H 0.4979 0.96172 0.09155 0.0
H477 H 0.45749 0.9257 0.12594 0.0
H478 H 0.54882 0.00804 0.11138 0.0
H479 H 0.5684 0.05194 0.14698 0.0
C480 C 0.44609 0.56734 0.8067 0.0
C481 C 0.43341 0.58915 0.7736 0.0
C482 C 0.40177 0.59266 0.8708 0.0
C483 C 0.41775 0.57413 0.90509 0.0
N484 N 0.46206 0.55161 0.90908 0.0
N485 N 0.40494 0.62848 0.77629 0.0
C486 C 0.44201 0.56378 0.874 0.0
C487 C 0.41277 0.60348 0.80614 0.0
N488 N 0.46066 0.54871 0.77355 0.0
N489 N 0.37498 0.5985 0.89888 0.0
H490 H 0.4127 0.63725 0.72911 0.0
H491 H 0.39358 0.64292 0.79998 0.0
H492 H 0.36616 0.59097 0.94609 0.0
H493 H 0.35938 0.60803 0.8738 0.0
H494 H 0.46701 0.52951 0.79473 0.0
H495 H 0.4626 0.54925 0.72373 0.0
H496 H 0.48282 0.54703 0.88947 0.0
H497 H 0.46087 0.54998 0.95894 0.0
C498 C 0.85608 0.399 0.17742 0.0
C499 C 0.86008 0.42373 0.22853 0.0
C500 C 0.86621 0.47145 0.15174 0.0
C501 C 0.86393 0.44738 0.10045 0.0
N502 N 0.87028 0.39439 0.06666 0.0
N503 N 0.88243 0.48776 0.26285 0.0
C504 C 0.86278 0.4129 0.11384 0.0
C505 C 0.86909 0.46122 0.21535 0.0
N506 N 0.84496 0.36202 0.18867 0.0
N507 N 0.86436 0.50344 0.14095 0.0
H508 H 0.88714 0.48208 0.30953 0.0
H509 H 0.8932 0.51638 0.25417 0.0
H510 H 0.8625 0.51317 0.09594 0.0
H511 H 0.86109 0.51877 0.17777 0.0
H512 H 0.83718 0.34217 0.15212 0.0
H513 H 0.84033 0.35013 0.23409 0.0
H514 H 0.87347 0.37108 0.07549 0.0
H515 H 0.878 0.40492 0.02032 0.0
C516 C 0.40617 0.80591 0.53342 0.0
C517 C 0.4218 0.8405 0.5674 0.0
C518 C 0.42693 0.8741 0.46812 0.0
C519 C 0.4075 0.83923 0.43522 0.0
N520 N 0.37181 0.77124 0.43935 0.0
N521 N 0.4383 0.90591 0.56997 0.0
C522 C 0.39516 0.80483 0.46854 0.0
C523 C 0.42944 0.87411 0.53558 0.0
N524 N 0.40347 0.77458 0.56176 0.0
N525 N 0.44455 0.90723 0.43481 0.0
H526 H 0.43898 0.90658 0.61991 0.0
H527 H 0.44085 0.93025 0.54936 0.0
H528 H 0.44543 0.90838 0.38493 0.0
H529 H 0.46193 0.93319 0.45641 0.0
H530 H 0.39622 0.74987 0.53669 0.0
H531 H 0.41155 0.77421 0.60895 0.0
H532 H 0.35892 0.74564 0.46375 0.0
H533 H 0.36253 0.76923 0.39229 0.0
C534 C 0.55463 0.37424 0.81342 0.0
C535 C 0.57712 0.4014 0.76684 0.0
C536 C 0.62002 0.44028 0.85138 0.0
C537 C 0.59291 0.41761 0.89796 0.0
N538 N 0.53216 0.36376 0.92254 0.0
N539 N 0.63051 0.4624 0.74203 0.0
C540 C 0.55979 0.38438 0.87909 0.0
C541 C 0.61003 0.43482 0.78566 0.0
N542 N 0.52875 0.33858 0.79479 0.0
N543 N 0.65552 0.46654 0.87003 0.0
H544 H 0.62398 0.46001 0.69345 0.0
H545 H 0.65224 0.48899 0.75505 0.0
H546 H 0.66414 0.46986 0.91774 0.0
H547 H 0.67735 0.48169 0.83777 0.0
H548 H 0.51377 0.31672 0.82708 0.0
H549 H 0.52565 0.32997 0.74708 0.0
H550 H 0.50579 0.34172 0.90937 0.0
H551 H 0.53417 0.37049 0.971 0.0
C552 C 0.1267 0.56089 0.12508 0.0
C553 C 0.16139 0.57269 0.09337 0.0
C554 C 0.19505 0.60118 0.19308 0.0
C555 C 0.16014 0.58454 0.22611 0.0
N556 N 0.09329 0.54066 0.22534 0.0
N557 N 0.22866 0.59796 0.10024 0.0
C558 C 0.12607 0.5621 0.19261 0.0
C559 C 0.19573 0.59131 0.12801 0.0
N560 N 0.09442 0.54948 0.09065 0.0
N561 N 0.22726 0.62748 0.22262 0.0
H562 H 0.23041 0.59045 0.05322 0.0
H563 H 0.25365 0.60782 0.12584 0.0
H564 H 0.22791 0.63615 0.26976 0.0
H565 H 0.25263 0.64321 0.19834 0.0
H566 H 0.069 0.54363 0.11163 0.0
H567 H 0.09404 0.55009 0.04073 0.0
H568 H 0.06828 0.52131 0.20303 0.0
H569 H 0.09213 0.53891 0.27519 0.0
C570 C 0.57214 0.19159 0.53503 0.0
C571 C 0.56935 0.16362 0.57799 0.0
C572 C 0.57677 0.12867 0.49033 0.0
C573 C 0.58195 0.15775 0.44697 0.0
N574 N 0.59559 0.22208 0.43282 0.0
N575 N 0.58015 0.11222 0.60038 0.0
C576 C 0.58282 0.19081 0.47056 0.0
C577 C 0.57551 0.13445 0.5568 0.0
N578 N 0.56376 0.21829 0.55532 0.0
N579 N 0.57054 0.09452 0.46853 0.0
H580 H 0.5798 0.11625 0.64966 0.0
H581 H 0.58818 0.09261 0.58769 0.0
H582 H 0.56914 0.0876 0.42034 0.0
H583 H 0.56258 0.0714 0.49847 0.0
H584 H 0.5609 0.23659 0.52419 0.0
H585 H 0.55735 0.2205 0.60294 0.0
H586 H 0.59976 0.24782 0.44981 0.0
H587 H 0.6061 0.22372 0.38678 0.0
loop_
_geom_bond_atom_site_label_1
_geom_bond_atom_site_label_2
_geom_bond_distance
_geom_bond_site_symmetry_2
_ccdc_geom_bond_type
In0 O1 2.294 . S
In0 O2 2.326 . S
In0 O6 2.266 . S
In0 O7 2.326 1_554 S
In0 O8 2.266 . S
In0 O9 2.326 . S
In0 O11 2.294 . S
In0 O12 2.326 . S
O1 In0 2.294 . S
O1 C10 1.240 . S
O2 In0 2.326 . S
O2 C10 1.252 . S
C3 O6 1.252 1_556 S
C3 O7 1.260 . S
C4 O11 1.240 . S
C4 O12 1.252 . S
C5 O8 1.252 . S
C5 O9 1.260 . S
O6 In0 2.266 . S
O6 C3 1.252 1_554 S
O7 In0 2.326 1_556 S
O7 C3 1.260 . S
O8 In0 2.266 . S
O8 C5 1.252 . S
O9 In0 2.326 . S
O9 C5 1.260 . S
C10 O1 1.240 . S
C10 O2 1.252 . S
O11 In0 2.294 . S
O11 C4 1.240 . S
O12 In0 2.326 . S
O12 C4 1.252 . S
In13 O14 2.294 . S
In13 O15 2.326 . S
In13 O19 2.266 . S
In13 O20 2.326 . S
In13 O21 2.266 . S
In13 O22 2.326 . S
In13 O24 2.294 . S
In13 O25 2.326 . S
O14 In13 2.294 . S
O14 C23 1.240 . S
O15 In13 2.326 . S
O15 C23 1.252 . S
C16 O19 1.252 . S
C16 O20 1.260 . S
C17 O24 1.240 . S
C17 O25 1.252 . S
C18 O21 1.252 . S
C18 O22 1.260 . S
O19 In13 2.266 . S
O19 C16 1.252 . S
O20 In13 2.326 . S
O20 C16 1.260 . S
O21 In13 2.266 . S
O21 C18 1.252 . S
O22 In13 2.326 . S
O22 C18 1.260 . S
C23 O14 1.240 . S
C23 O15 1.252 . S
O24 In13 2.294 . S
O24 C17 1.240 . S
O25 In13 2.326 . S
O25 C17 1.252 . S
In26 O27 2.294 . S
In26 O28 2.326 . S
In26 O32 2.266 . S
In26 O33 2.326 . S
In26 O34 2.266 . S
In26 O35 2.326 . S
In26 O37 2.294 . S
In26 O38 2.326 . S
O27 In26 2.294 . S
O27 C36 1.240 . S
O28 In26 2.326 . S
O28 C36 1.252 . S
C29 O32 1.252 . S
C29 O33 1.260 . S
C30 O37 1.240 . S
C30 O38 1.252 . S
C31 O34 1.252 . S
C31 O35 1.260 . S
O32 In26 2.266 . S
O32 C29 1.252 . S
O33 In26 2.326 . S
O33 C29 1.260 . S
O34 In26 2.266 . S
O34 C31 1.252 . S
O35 In26 2.326 . S
O35 C31 1.260 . S
C36 O27 1.240 . S
C36 O28 1.252 . S
O37 In26 2.294 . S
O37 C30 1.240 . S
O38 In26 2.326 . S
O38 C30 1.252 . S
In39 O40 2.294 . S
In39 O41 2.326 . S
In39 O45 2.266 . S
In39 O46 2.326 1_554 S
In39 O47 2.266 . S
In39 O48 2.326 . S
In39 O50 2.294 . S
In39 O51 2.326 . S
O40 In39 2.294 . S
O40 C49 1.240 . S
O41 In39 2.326 . S
O41 C49 1.252 . S
C42 O45 1.252 1_556 S
C42 O46 1.260 . S
C43 O50 1.240 . S
C43 O51 1.252 . S
C44 O47 1.252 . S
C44 O48 1.260 . S
O45 In39 2.266 . S
O45 C42 1.252 1_554 S
O46 In39 2.326 1_556 S
O46 C42 1.260 . S
O47 In39 2.266 . S
O47 C44 1.252 . S
O48 In39 2.326 . S
O48 C44 1.260 . S
C49 O40 1.240 . S
C49 O41 1.252 . S
O50 In39 2.294 . S
O50 C43 1.240 . S
O51 In39 2.326 . S
O51 C43 1.252 . S
In52 O53 2.294 . S
In52 O54 2.326 . S
In52 O58 2.266 . S
In52 O59 2.326 . S
In52 O60 2.266 . S
In52 O61 2.326 . S
In52 O63 2.294 . S
In52 O64 2.326 . S
O53 In52 2.294 . S
O53 C62 1.240 . S
O54 In52 2.326 . S
O54 C62 1.252 . S
C55 O58 1.252 . S
C55 O59 1.260 . S
C56 O63 1.240 . S
C56 O64 1.252 . S
C57 O60 1.252 . S
C57 O61 1.260 . S
O58 In52 2.266 . S
O58 C55 1.252 . S
O59 In52 2.326 . S
O59 C55 1.260 . S
O60 In52 2.266 . S
O60 C57 1.252 . S
O61 In52 2.326 . S
O61 C57 1.260 . S
C62 O53 1.240 . S
C62 O54 1.252 . S
O63 In52 2.294 . S
O63 C56 1.240 . S
O64 In52 2.326 . S
O64 C56 1.252 . S
In65 O66 2.294 . S
In65 O67 2.326 . S
In65 O71 2.266 . S
In65 O72 2.326 . S
In65 O73 2.266 . S
In65 O74 2.326 . S
In65 O76 2.294 . S
In65 O77 2.326 . S
O66 In65 2.294 . S
O66 C75 1.240 . S
O67 In65 2.326 . S
O67 C75 1.252 . S
C68 O71 1.252 . S
C68 O72 1.260 . S
C69 O76 1.240 . S
C69 O77 1.252 . S
C70 O73 1.252 . S
C70 O74 1.260 . S
O71 In65 2.266 . S
O71 C68 1.252 . S
O72 In65 2.326 . S
O72 C68 1.260 . S
O73 In65 2.266 . S
O73 C70 1.252 . S
O74 In65 2.326 . S
O74 C70 1.260 . S
C75 O66 1.240 . S
C75 O67 1.252 . S
O76 In65 2.294 . S
O76 C69 1.240 . S
O77 In65 2.326 . S
O77 C69 1.252 . S
In78 O79 2.294 . S
In78 O80 2.326 . S
In78 O84 2.266 . S
In78 O85 2.326 . S
In78 O86 2.266 . S
In78 O87 2.326 . S
In78 O89 2.294 . S
In78 O90 2.326 . S
O79 In78 2.294 . S
O79 C88 1.240 . S
O80 In78 2.326 . S
O80 C88 1.252 . S
C81 O84 1.252 . S
C81 O85 1.260 . S
C82 O89 1.240 . S
C82 O90 1.252 . S
C83 O86 1.252 . S
C83 O87 1.260 . S
O84 In78 2.266 . S
O84 C81 1.252 . S
O85 In78 2.326 . S
O85 C81 1.260 . S
O86 In78 2.266 . S
O86 C83 1.252 . S
O87 In78 2.326 . S
O87 C83 1.260 . S
C88 O79 1.240 . S
C88 O80 1.252 . S
O89 In78 2.294 . S
O89 C82 1.240 . S
O90 In78 2.326 . S
O90 C82 1.252 . S
In91 O92 2.294 . S
In91 O93 2.326 . S
In91 O97 2.266 . S
In91 O98 2.326 1_556 S
In91 O99 2.266 . S
In91 O100 2.326 . S
In91 O102 2.294 . S
In91 O103 2.326 . S
O92 In91 2.294 . S
O92 C101 1.240 . S
O93 In91 2.326 . S
O93 C101 1.252 . S
C94 O97 1.252 1_554 S
C94 O98 1.260 . S
C95 O102 1.240 . S
C95 O103 1.252 . S
C96 O99 1.252 . S
C96 O100 1.260 . S
O97 In91 2.266 . S
O97 C94 1.252 1_556 S
O98 In91 2.326 1_554 S
O98 C94 1.260 . S
O99 In91 2.266 . S
O99 C96 1.252 . S
O100 In91 2.326 . S
O100 C96 1.260 . S
C101 O92 1.240 . S
C101 O93 1.252 . S
O102 In91 2.294 . S
O102 C95 1.240 . S
O103 In91 2.326 . S
O103 C95 1.252 . S
In104 O105 2.294 . S
In104 O106 2.326 . S
In104 O110 2.266 . S
In104 O111 2.326 . S
In104 O112 2.266 . S
In104 O113 2.326 . S
In104 O115 2.294 . S
In104 O116 2.326 . S
O105 In104 2.294 . S
O105 C114 1.240 . S
O106 In104 2.326 . S
O106 C114 1.252 . S
C107 O110 1.252 . S
C107 O111 1.260 . S
C108 O115 1.240 . S
C108 O116 1.252 . S
C109 O112 1.252 . S
C109 O113 1.260 . S
O110 In104 2.266 . S
O110 C107 1.252 . S
O111 In104 2.326 . S
O111 C107 1.260 . S
O112 In104 2.266 . S
O112 C109 1.252 . S
O113 In104 2.326 . S
O113 C109 1.260 . S
C114 O105 1.240 . S
C114 O106 1.252 . S
O115 In104 2.294 . S
O115 C108 1.240 . S
O116 In104 2.326 . S
O116 C108 1.252 . S
In117 O118 2.294 . S
In117 O119 2.326 . S
In117 O123 2.266 . S
In117 O124 2.326 . S
In117 O125 2.266 . S
In117 O126 2.326 . S
In117 O128 2.294 . S
In117 O129 2.326 . S
O118 In117 2.294 . S
O118 C127 1.240 . S
O119 In117 2.326 . S
O119 C127 1.252 . S
C120 O123 1.252 . S
C120 O124 1.260 . S
C121 O128 1.240 . S
C121 O129 1.252 . S
C122 O125 1.252 . S
C122 O126 1.260 . S
O123 In117 2.266 . S
O123 C120 1.252 . S
O124 In117 2.326 . S
O124 C120 1.260 . S
O125 In117 2.266 . S
O125 C122 1.252 . S
O126 In117 2.326 . S
O126 C122 1.260 . S
C127 O118 1.240 . S
C127 O119 1.252 . S
O128 In117 2.294 . S
O128 C121 1.240 . S
O129 In117 2.326 . S
O129 C121 1.252 . S
In130 O131 2.294 . S
In130 O132 2.326 . S
In130 O136 2.266 . S
In130 O137 2.326 . S
In130 O138 2.266 . S
In130 O139 2.326 1_556 S
In130 O141 2.294 . S
In130 O142 2.326 . S
O131 In130 2.294 . S
O131 C140 1.240 . S
O132 In130 2.326 . S
O132 C140 1.252 . S
C133 O136 1.252 . S
C133 O137 1.260 . S
C134 O141 1.240 . S
C134 O142 1.252 . S
C135 O138 1.252 1_554 S
C135 O139 1.260 . S
O136 In130 2.266 . S
O136 C133 1.252 . S
O137 In130 2.326 . S
O137 C133 1.260 . S
O138 In130 2.266 . S
O138 C135 1.252 1_556 S
O139 In130 2.326 1_554 S
O139 C135 1.260 . S
C140 O131 1.240 . S
C140 O132 1.252 . S
O141 In130 2.294 . S
O141 C134 1.240 . S
O142 In130 2.326 . S
O142 C134 1.252 . S
In143 O144 2.294 . S
In143 O145 2.326 . S
In143 O149 2.266 . S
In143 O150 2.326 . S
In143 O151 2.266 . S
In143 O152 2.326 . S
In143 O154 2.294 . S
In143 O155 2.326 . S
O144 In143 2.294 . S
O144 C153 1.240 . S
O145 In143 2.326 . S
O145 C153 1.252 . S
C146 O149 1.252 . S
C146 O150 1.260 . S
C147 O154 1.240 . S
C147 O155 1.252 . S
C148 O151 1.252 . S
C148 O152 1.260 . S
O149 In143 2.266 . S
O149 C146 1.252 . S
O150 In143 2.326 . S
O150 C146 1.260 . S
O151 In143 2.266 . S
O151 C148 1.252 . S
O152 In143 2.326 . S
O152 C148 1.260 . S
C153 O144 1.240 . S
C153 O145 1.252 . S
O154 In143 2.294 . S
O154 C147 1.240 . S
O155 In143 2.326 . S
O155 C147 1.252 . S
C156 C157 1.363 . S
C156 C162 1.379 . S
C156 N164 1.356 . S
C157 C156 1.363 . S
C157 C163 1.363 . S
C158 C159 1.363 . S
C158 C163 1.379 . S
C158 N165 1.356 . S
C159 C158 1.363 . S
C159 C162 1.363 . S
N160 C162 1.356 . S
N160 H172 0.984 . S
N160 H173 0.985 . S
N161 C163 1.356 . S
N161 H166 0.984 . S
N161 H167 0.985 . S
C162 C156 1.379 . S
C162 C159 1.363 . S
C162 N160 1.356 . S
C163 C157 1.363 . S
C163 C158 1.379 . S
C163 N161 1.356 . S
N164 C156 1.356 . S
N164 H170 0.984 . S
N164 H171 0.984 . S
N165 C158 1.356 . S
N165 H168 0.984 . S
N165 H169 0.985 . S
H166 N161 0.984 . S
H167 N161 0.985 . S
H168 N165 0.984 . S
H169 N165 0.985 . S
H170 N164 0.984 . S
H171 N164 0.984 . S
H172 N160 0.984 . S
H173 N160 0.985 . S
C174 C175 1.363 . S
C174 C180 1.379 . S
C174 N182 1.356 . S
C175 C174 1.363 . S
C175 C181 1.363 . S
C176 C177 1.363 . S
C176 C181 1.379 . S
C176 N183 1.356 . S
C177 C176 1.363 . S
C177 C180 1.363 . S
N178 C180 1.356 . S
N178 H190 0.984 . S
N178 H191 0.985 . S
N179 C181 1.356 . S
N179 H184 0.984 . S
N179 H185 0.985 . S
C180 C174 1.379 . S
C180 C177 1.363 . S
C180 N178 1.356 . S
C181 C175 1.363 . S
C181 C176 1.379 . S
C181 N179 1.356 . S
N182 C174 1.356 . S
N182 H188 0.984 . S
N182 H189 0.984 . S
N183 C176 1.356 . S
N183 H186 0.984 . S
N183 H187 0.985 . S
H184 N179 0.984 . S
H185 N179 0.985 . S
H186 N183 0.984 . S
H187 N183 0.985 . S
H188 N182 0.984 . S
H189 N182 0.984 . S
H190 N178 0.984 . S
H191 N178 0.985 . S
C192 C193 1.363 . S
C192 C198 1.379 1_556 S
C192 N200 1.356 . S
C193 C192 1.363 . S
C193 C199 1.363 . S
C194 C195 1.363 . S
C194 C199 1.379 1_554 S
C194 N201 1.356 . S
C195 C194 1.363 . S
C195 C198 1.363 . S
N196 C198 1.356 . S
N196 H208 0.984 . S
N196 H209 0.985 . S
N197 C199 1.356 . S
N197 H202 0.984 . S
N197 H203 0.985 . S
C198 C192 1.379 1_554 S
C198 C195 1.363 . S
C198 N196 1.356 . S
C199 C193 1.363 . S
C199 C194 1.379 1_556 S
C199 N197 1.356 . S
N200 C192 1.356 . S
N200 H206 0.984 . S
N200 H207 0.984 . S
N201 C194 1.356 . S
N201 H204 0.984 . S
N201 H205 0.985 . S
H202 N197 0.984 . S
H203 N197 0.985 . S
H204 N201 0.984 . S
H205 N201 0.985 . S
H206 N200 0.984 . S
H207 N200 0.984 . S
H208 N196 0.984 . S
H209 N196 0.985 . S
C210 C211 1.363 . S
C210 C216 1.379 . S
C210 N218 1.356 . S
C211 C210 1.363 . S
C211 C217 1.363 . S
C212 C213 1.363 . S
C212 C217 1.379 . S
C212 N219 1.356 . S
C213 C212 1.363 . S
C213 C216 1.363 . S
N214 C216 1.356 . S
N214 H226 0.984 . S
N214 H227 0.985 . S
N215 C217 1.356 . S
N215 H220 0.984 . S
N215 H221 0.985 . S
C216 C210 1.379 . S
C216 C213 1.363 . S
C216 N214 1.356 . S
C217 C211 1.363 . S
C217 C212 1.379 . S
C217 N215 1.356 . S
N218 C210 1.356 . S
N218 H224 0.984 . S
N218 H225 0.984 . S
N219 C212 1.356 . S
N219 H222 0.984 . S
N219 H223 0.985 . S
H220 N215 0.984 . S
H221 N215 0.985 . S
H222 N219 0.984 . S
H223 N219 0.985 . S
H224 N218 0.984 . S
H225 N218 0.984 . S
H226 N214 0.984 . S
H227 N214 0.985 . S
C228 C229 1.363 . S
C228 C234 1.379 . S
C228 N236 1.356 . S
C229 C228 1.363 . S
C229 C235 1.363 . S
C230 C231 1.363 . S
C230 C235 1.379 . S
C230 N237 1.356 . S
C231 C230 1.363 . S
C231 C234 1.363 . S
N232 C234 1.356 . S
N232 H244 0.984 . S
N232 H245 0.985 . S
N233 C235 1.356 . S
N233 H238 0.984 . S
N233 H239 0.985 . S
C234 C228 1.379 . S
C234 C231 1.363 . S
C234 N232 1.356 . S
C235 C229 1.363 . S
C235 C230 1.379 . S
C235 N233 1.356 . S
N236 C228 1.356 . S
N236 H242 0.984 . S
N236 H243 0.984 . S
N237 C230 1.356 . S
N237 H240 0.984 . S
N237 H241 0.985 . S
H238 N233 0.984 . S
H239 N233 0.985 . S
H240 N237 0.984 . S
H241 N237 0.985 . S
H242 N236 0.984 . S
H243 N236 0.984 . S
H244 N232 0.984 . S
H245 N232 0.985 . S
C246 C247 1.363 . S
C246 C252 1.379 1_554 S
C246 N254 1.356 . S
C247 C246 1.363 . S
C247 C253 1.363 . S
C248 C249 1.363 . S
C248 C253 1.379 1_556 S
C248 N255 1.356 . S
C249 C248 1.363 . S
C249 C252 1.363 . S
N250 C252 1.356 . S
N250 H262 0.984 . S
N250 H263 0.985 . S
N251 C253 1.356 . S
N251 H256 0.984 . S
N251 H257 0.985 . S
C252 C246 1.379 1_556 S
C252 C249 1.363 . S
C252 N250 1.356 . S
C253 C247 1.363 . S
C253 C248 1.379 1_554 S
C253 N251 1.356 . S
N254 C246 1.356 . S
N254 H260 0.984 . S
N254 H261 0.984 . S
N255 C248 1.356 . S
N255 H258 0.984 . S
N255 H259 0.985 . S
H256 N251 0.984 . S
H257 N251 0.985 . S
H258 N255 0.984 . S
H259 N255 0.985 . S
H260 N254 0.984 . S
H261 N254 0.984 . S
H262 N250 0.984 . S
H263 N250 0.985 . S
C264 C265 1.363 . S
C264 C270 1.379 . S
C264 N272 1.356 . S
C265 C264 1.363 . S
C265 C271 1.363 1_554 S
C266 C267 1.363 . S
C266 C271 1.379 . S
C266 N273 1.356 . S
C267 C266 1.363 . S
C267 C270 1.363 1_556 S
N268 C270 1.356 . S
N268 H280 0.984 . S
N268 H281 0.985 1_554 S
N269 C271 1.356 . S
N269 H274 0.984 1_556 S
N269 H275 0.985 . S
C270 C264 1.379 . S
C270 C267 1.363 1_554 S
C270 N268 1.356 . S
C271 C265 1.363 1_556 S
C271 C266 1.379 . S
C271 N269 1.356 . S
N272 C264 1.356 . S
N272 H278 0.984 . S
N272 H279 0.984 . S
N273 C266 1.356 . S
N273 H276 0.984 . S
N273 H277 0.985 . S
H274 N269 0.984 1_554 S
H275 N269 0.985 . S
H276 N273 0.984 . S
H277 N273 0.985 . S
H278 N272 0.984 . S
H279 N272 0.984 . S
H280 N268 0.984 . S
H281 N268 0.985 1_556 S
C282 C283 1.363 . S
C282 C288 1.379 . S
C282 N290 1.356 . S
C283 C282 1.363 . S
C283 C289 1.363 . S
C284 C285 1.363 . S
C284 C289 1.379 . S
C284 N291 1.356 . S
C285 C284 1.363 . S
C285 C288 1.363 . S
N286 C288 1.356 . S
N286 H298 0.984 . S
N286 H299 0.985 . S
N287 C289 1.356 . S
N287 H292 0.984 . S
N287 H293 0.985 . S
C288 C282 1.379 . S
C288 C285 1.363 . S
C288 N286 1.356 . S
C289 C283 1.363 . S
C289 C284 1.379 . S
C289 N287 1.356 . S
N290 C282 1.356 . S
N290 H296 0.984 . S
N290 H297 0.984 . S
N291 C284 1.356 . S
N291 H294 0.984 . S
N291 H295 0.985 . S
H292 N287 0.984 . S
H293 N287 0.985 . S
H294 N291 0.984 . S
H295 N291 0.985 . S
H296 N290 0.984 . S
H297 N290 0.984 . S
H298 N286 0.984 . S
H299 N286 0.985 . S
C300 C301 1.363 . S
C300 C306 1.379 . S
C300 N308 1.356 . S
C301 C300 1.363 . S
C301 C307 1.363 . S
C302 C303 1.363 . S
C302 C307 1.379 . S
C302 N309 1.356 . S
C303 C302 1.363 . S
C303 C306 1.363 . S
N304 C306 1.356 . S
N304 H316 0.984 . S
N304 H317 0.985 . S
N305 C307 1.356 . S
N305 H310 0.984 . S
N305 H311 0.985 . S
C306 C300 1.379 . S
C306 C303 1.363 . S
C306 N304 1.356 . S
C307 C301 1.363 . S
C307 C302 1.379 . S
C307 N305 1.356 . S
N308 C300 1.356 . S
N308 H314 0.984 . S
N308 H315 0.984 . S
N309 C302 1.356 . S
N309 H312 0.984 . S
N309 H313 0.985 . S
H310 N305 0.984 . S
H311 N305 0.985 . S
H312 N309 0.984 . S
H313 N309 0.985 . S
H314 N308 0.984 . S
H315 N308 0.984 . S
H316 N304 0.984 . S
H317 N304 0.985 . S
C318 C319 1.363 1_556 S
C318 C324 1.379 . S
C318 N326 1.356 . S
C319 C318 1.363 1_554 S
C319 C325 1.363 . S
C320 C321 1.363 1_554 S
C320 C325 1.379 . S
C320 N327 1.356 . S
C321 C320 1.363 1_556 S
C321 C324 1.363 . S
N322 C324 1.356 . S
N322 H334 0.984 . S
N322 H335 0.985 . S
N323 C325 1.356 . S
N323 H328 0.984 . S
N323 H329 0.985 . S
C324 C318 1.379 . S
C324 C321 1.363 . S
C324 N322 1.356 . S
C325 C319 1.363 . S
C325 C320 1.379 . S
C325 N323 1.356 . S
N326 C318 1.356 . S
N326 H332 0.984 . S
N326 H333 0.984 1_556 S
N327 C320 1.356 . S
N327 H330 0.984 1_554 S
N327 H331 0.985 . S
H328 N323 0.984 . S
H329 N323 0.985 . S
H330 N327 0.984 1_556 S
H331 N327 0.985 . S
H332 N326 0.984 . S
H333 N326 0.984 1_554 S
H334 N322 0.984 . S
H335 N322 0.985 . S
C336 C337 1.363 . S
C336 C342 1.379 . S
C336 N344 1.356 . S
C337 C336 1.363 . S
C337 C343 1.363 . S
C338 C339 1.363 . S
C338 C343 1.379 . S
C338 N345 1.356 . S
C339 C338 1.363 . S
C339 C342 1.363 . S
N340 C342 1.356 . S
N340 H352 0.984 . S
N340 H353 0.985 . S
N341 C343 1.356 . S
N341 H346 0.984 . S
N341 H347 0.985 . S
C342 C336 1.379 . S
C342 C339 1.363 . S
C342 N340 1.356 . S
C343 C337 1.363 . S
C343 C338 1.379 . S
C343 N341 1.356 . S
N344 C336 1.356 . S
N344 H350 0.984 . S
N344 H351 0.984 . S
N345 C338 1.356 . S
N345 H348 0.984 . S
N345 H349 0.985 . S
H346 N341 0.984 . S
H347 N341 0.985 . S
H348 N345 0.984 . S
H349 N345 0.985 . S
H350 N344 0.984 . S
H351 N344 0.984 . S
H352 N340 0.984 . S
H353 N340 0.985 . S
C354 C355 1.363 . S
C354 C360 1.379 . S
C354 N362 1.356 . S
C355 C354 1.363 . S
C355 C361 1.363 . S
C356 C357 1.363 . S
C356 C361 1.379 . S
C356 N363 1.356 . S
C357 C356 1.363 . S
C357 C360 1.363 . S
N358 C360 1.356 . S
N358 H370 0.984 . S
N358 H371 0.985 . S
N359 C361 1.356 . S
N359 H364 0.984 . S
N359 H365 0.985 . S
C360 C354 1.379 . S
C360 C357 1.363 . S
C360 N358 1.356 . S
C361 C355 1.363 . S
C361 C356 1.379 . S
C361 N359 1.356 . S
N362 C354 1.356 . S
N362 H368 0.984 . S
N362 H369 0.984 . S
N363 C356 1.356 . S
N363 H366 0.984 . S
N363 H367 0.985 . S
H364 N359 0.984 . S
H365 N359 0.985 . S
H366 N363 0.984 . S
H367 N363 0.985 . S
H368 N362 0.984 . S
H369 N362 0.984 . S
H370 N358 0.984 . S
H371 N358 0.985 . S
C372 C373 1.363 . S
C372 C378 1.379 . S
C372 N380 1.356 . S
C373 C372 1.363 . S
C373 C379 1.363 . S
C374 C375 1.363 . S
C374 C379 1.379 . S
C374 N381 1.356 . S
C375 C374 1.363 . S
C375 C378 1.363 . S
N376 C378 1.356 . S
N376 H388 0.984 1_554 S
N376 H389 0.985 . S
N377 C379 1.356 . S
N377 H382 0.984 . S
N377 H383 0.985 . S
C378 C372 1.379 . S
C378 C375 1.363 . S
C378 N376 1.356 . S
C379 C373 1.363 . S
C379 C374 1.379 . S
C379 N377 1.356 . S
N380 C372 1.356 . S
N380 H386 0.984 1_554 S
N380 H387 0.984 . S
N381 C374 1.356 . S
N381 H384 0.984 . S
N381 H385 0.985 . S
H382 N377 0.984 . S
H383 N377 0.985 . S
H384 N381 0.984 . S
H385 N381 0.985 . S
H386 N380 0.984 1_556 S
H387 N380 0.984 . S
H388 N376 0.984 1_556 S
H389 N376 0.985 . S
C390 C391 1.363 . S
C390 C396 1.379 1_655 S
C390 N398 1.356 . S
C391 C390 1.363 . S
C391 C397 1.363 . S
C392 C393 1.363 . S
C392 C397 1.379 1_455 S
C392 N399 1.356 . S
C393 C392 1.363 . S
C393 C396 1.363 . S
N394 C396 1.356 . S
N394 H406 0.984 . S
N394 H407 0.985 . S
N395 C397 1.356 . S
N395 H400 0.984 . S
N395 H401 0.985 . S
C396 C390 1.379 1_455 S
C396 C393 1.363 . S
C396 N394 1.356 . S
C397 C391 1.363 . S
C397 C392 1.379 1_655 S
C397 N395 1.356 . S
N398 C390 1.356 . S
N398 H404 0.984 . S
N398 H405 0.984 . S
N399 C392 1.356 . S
N399 H402 0.984 . S
N399 H403 0.985 . S
H400 N395 0.984 . S
H401 N395 0.985 . S
H402 N399 0.984 . S
H403 N399 0.985 . S
H404 N398 0.984 . S
H405 N398 0.984 . S
H406 N394 0.984 . S
H407 N394 0.985 . S
C408 C409 1.363 . S
C408 C414 1.379 1_545 S
C408 N416 1.356 . S
C409 C408 1.363 . S
C409 C415 1.363 . S
C410 C411 1.363 . S
C410 C415 1.379 1_565 S
C410 N417 1.356 . S
C411 C410 1.363 . S
C411 C414 1.363 . S
N412 C414 1.356 . S
N412 H424 0.984 . S
N412 H425 0.985 . S
N413 C415 1.356 . S
N413 H418 0.984 . S
N413 H419 0.985 . S
C414 C408 1.379 1_565 S
C414 C411 1.363 . S
C414 N412 1.356 . S
C415 C409 1.363 . S
C415 C410 1.379 1_545 S
C415 N413 1.356 . S
N416 C408 1.356 . S
N416 H422 0.984 . S
N416 H423 0.984 . S
N417 C410 1.356 . S
N417 H420 0.984 . S
N417 H421 0.985 . S
H418 N413 0.984 . S
H419 N413 0.985 . S
H420 N417 0.984 . S
H421 N417 0.985 . S
H422 N416 0.984 . S
H423 N416 0.984 . S
H424 N412 0.984 . S
H425 N412 0.985 . S
C426 C427 1.363 . S
C426 C432 1.379 . S
C426 N434 1.356 . S
C427 C426 1.363 . S
C427 C433 1.363 . S
C428 C429 1.363 . S
C428 C433 1.379 . S
C428 N435 1.356 . S
C429 C428 1.363 . S
C429 C432 1.363 . S
N430 C432 1.356 . S
N430 H442 0.984 . S
N430 H443 0.985 . S
N431 C433 1.356 . S
N431 H436 0.984 . S
N431 H437 0.985 . S
C432 C426 1.379 . S
C432 C429 1.363 . S
C432 N430 1.356 . S
C433 C427 1.363 . S
C433 C428 1.379 . S
C433 N431 1.356 . S
N434 C426 1.356 . S
N434 H440 0.984 . S
N434 H441 0.984 . S
N435 C428 1.356 . S
N435 H438 0.984 . S
N435 H439 0.985 . S
H436 N431 0.984 . S
H437 N431 0.985 . S
H438 N435 0.984 . S
H439 N435 0.985 . S
H440 N434 0.984 . S
H441 N434 0.984 . S
H442 N430 0.984 . S
H443 N430 0.985 . S
C444 C445 1.363 . S
C444 C450 1.379 1_455 S
C444 N452 1.356 . S
C445 C444 1.363 . S
C445 C451 1.363 . S
C446 C447 1.363 . S
C446 C451 1.379 1_655 S
C446 N453 1.356 . S
C447 C446 1.363 . S
C447 C450 1.363 . S
N448 C450 1.356 . S
N448 H460 0.984 . S
N448 H461 0.985 . S
N449 C451 1.356 . S
N449 H454 0.984 . S
N449 H455 0.985 1_556 S
C450 C444 1.379 1_655 S
C450 C447 1.363 . S
C450 N448 1.356 . S
C451 C445 1.363 . S
C451 C446 1.379 1_455 S
C451 N449 1.356 . S
N452 C444 1.356 . S
N452 H458 0.984 . S
N452 H459 0.984 . S
N453 C446 1.356 . S
N453 H456 0.984 . S
N453 H457 0.985 1_556 S
H454 N449 0.984 . S
H455 N449 0.985 1_554 S
H456 N453 0.984 . S
H457 N453 0.985 1_554 S
H458 N452 0.984 . S
H459 N452 0.984 . S
H460 N448 0.984 . S
H461 N448 0.985 . S
C462 C463 1.363 . S
C462 C468 1.379 1_565 S
C462 N470 1.356 . S
C463 C462 1.363 . S
C463 C469 1.363 . S
C464 C465 1.363 . S
C464 C469 1.379 1_545 S
C464 N471 1.356 . S
C465 C464 1.363 . S
C465 C468 1.363 . S
N466 C468 1.356 . S
N466 H478 0.984 . S
N466 H479 0.985 . S
N467 C469 1.356 . S
N467 H472 0.984 . S
N467 H473 0.985 . S
C468 C462 1.379 1_545 S
C468 C465 1.363 . S
C468 N466 1.356 . S
C469 C463 1.363 . S
C469 C464 1.379 1_565 S
C469 N467 1.356 . S
N470 C462 1.356 . S
N470 H476 0.984 . S
N470 H477 0.984 . S
N471 C464 1.356 . S
N471 H474 0.984 . S
N471 H475 0.985 . S
H472 N467 0.984 . S
H473 N467 0.985 . S
H474 N471 0.984 . S
H475 N471 0.985 . S
H476 N470 0.984 . S
H477 N470 0.984 . S
H478 N466 0.984 . S
H479 N466 0.985 . S
C480 C481 1.363 . S
C480 C486 1.379 . S
C480 N488 1.356 . S
C481 C480 1.363 . S
C481 C487 1.363 . S
C482 C483 1.363 . S
C482 C487 1.379 . S
C482 N489 1.356 . S
C483 C482 1.363 . S
C483 C486 1.363 . S
N484 C486 1.356 . S
N484 H496 0.984 . S
N484 H497 0.985 . S
N485 C487 1.356 . S
N485 H490 0.984 . S
N485 H491 0.985 . S
C486 C480 1.379 . S
C486 C483 1.363 . S
C486 N484 1.356 . S
C487 C481 1.363 . S
C487 C482 1.379 . S
C487 N485 1.356 . S
N488 C480 1.356 . S
N488 H494 0.984 . S
N488 H495 0.984 . S
N489 C482 1.356 . S
N489 H492 0.984 . S
N489 H493 0.985 . S
H490 N485 0.984 . S
H491 N485 0.985 . S
H492 N489 0.984 . S
H493 N489 0.985 . S
H494 N488 0.984 . S
H495 N488 0.984 . S
H496 N484 0.984 . S
H497 N484 0.985 . S
C498 C499 1.363 . S
C498 C504 1.379 . S
C498 N506 1.356 . S
C499 C498 1.363 . S
C499 C505 1.363 . S
C500 C501 1.363 . S
C500 C505 1.379 . S
C500 N507 1.356 . S
C501 C500 1.363 . S
C501 C504 1.363 . S
N502 C504 1.356 . S
N502 H514 0.984 . S
N502 H515 0.985 . S
N503 C505 1.356 . S
N503 H508 0.984 . S
N503 H509 0.985 . S
C504 C498 1.379 . S
C504 C501 1.363 . S
C504 N502 1.356 . S
C505 C499 1.363 . S
C505 C500 1.379 . S
C505 N503 1.356 . S
N506 C498 1.356 . S
N506 H512 0.984 . S
N506 H513 0.984 . S
N507 C500 1.356 . S
N507 H510 0.984 . S
N507 H511 0.985 . S
H508 N503 0.984 . S
H509 N503 0.985 . S
H510 N507 0.984 . S
H511 N507 0.985 . S
H512 N506 0.984 . S
H513 N506 0.984 . S
H514 N502 0.984 . S
H515 N502 0.985 . S
C516 C517 1.363 . S
C516 C522 1.379 . S
C516 N524 1.356 . S
C517 C516 1.363 . S
C517 C523 1.363 . S
C518 C519 1.363 . S
C518 C523 1.379 . S
C518 N525 1.356 . S
C519 C518 1.363 . S
C519 C522 1.363 . S
N520 C522 1.356 . S
N520 H532 0.984 . S
N520 H533 0.985 . S
N521 C523 1.356 . S
N521 H526 0.984 . S
N521 H527 0.985 . S
C522 C516 1.379 . S
C522 C519 1.363 . S
C522 N520 1.356 . S
C523 C517 1.363 . S
C523 C518 1.379 . S
C523 N521 1.356 . S
N524 C516 1.356 . S
N524 H530 0.984 . S
N524 H531 0.984 . S
N525 C518 1.356 . S
N525 H528 0.984 . S
N525 H529 0.985 . S
H526 N521 0.984 . S
H527 N521 0.985 . S
H528 N525 0.984 . S
H529 N525 0.985 . S
H530 N524 0.984 . S
H531 N524 0.984 . S
H532 N520 0.984 . S
H533 N520 0.985 . S
C534 C535 1.363 . S
C534 C540 1.379 . S
C534 N542 1.356 . S
C535 C534 1.363 . S
C535 C541 1.363 . S
C536 C537 1.363 . S
C536 C541 1.379 . S
C536 N543 1.356 . S
C537 C536 1.363 . S
C537 C540 1.363 . S
N538 C540 1.356 . S
N538 H550 0.984 . S
N538 H551 0.985 . S
N539 C541 1.356 . S
N539 H544 0.984 . S
N539 H545 0.985 . S
C540 C534 1.379 . S
C540 C537 1.363 . S
C540 N538 1.356 . S
C541 C535 1.363 . S
C541 C536 1.379 . S
C541 N539 1.356 . S
N542 C534 1.356 . S
N542 H548 0.984 . S
N542 H549 0.984 . S
N543 C536 1.356 . S
N543 H546 0.984 . S
N543 H547 0.985 . S
H544 N539 0.984 . S
H545 N539 0.985 . S
H546 N543 0.984 . S
H547 N543 0.985 . S
H548 N542 0.984 . S
H549 N542 0.984 . S
H550 N538 0.984 . S
H551 N538 0.985 . S
C552 C553 1.363 . S
C552 C558 1.379 . S
C552 N560 1.356 . S
C553 C552 1.363 . S
C553 C559 1.363 . S
C554 C555 1.363 . S
C554 C559 1.379 . S
C554 N561 1.356 . S
C555 C554 1.363 . S
C555 C558 1.363 . S
N556 C558 1.356 . S
N556 H568 0.984 . S
N556 H569 0.985 . S
N557 C559 1.356 . S
N557 H562 0.984 . S
N557 H563 0.985 . S
C558 C552 1.379 . S
C558 C555 1.363 . S
C558 N556 1.356 . S
C559 C553 1.363 . S
C559 C554 1.379 . S
C559 N557 1.356 . S
N560 C552 1.356 . S
N560 H566 0.984 . S
N560 H567 0.984 . S
N561 C554 1.356 . S
N561 H564 0.984 . S
N561 H565 0.985 . S
H562 N557 0.984 . S
H563 N557 0.985 . S
H564 N561 0.984 . S
H565 N561 0.985 . S
H566 N560 0.984 . S
H567 N560 0.984 . S
H568 N556 0.984 . S
H569 N556 0.985 . S
C570 C571 1.363 . S
C570 C576 1.379 . S
C570 N578 1.356 . S
C571 C570 1.363 . S
C571 C577 1.363 . S
C572 C573 1.363 . S
C572 C577 1.379 . S
C572 N579 1.356 . S
C573 C572 1.363 . S
C573 C576 1.363 . S
N574 C576 1.356 . S
N574 H586 0.984 . S
N574 H587 0.985 . S
N575 C577 1.356 . S
N575 H580 0.984 . S
N575 H581 0.985 . S
C576 C570 1.379 . S
C576 C573 1.363 . S
C576 N574 1.356 . S
C577 C571 1.363 . S
C577 C572 1.379 . S
C577 N575 1.356 . S
N578 C570 1.356 . S
N578 H584 0.984 . S
N578 H585 0.984 . S
N579 C572 1.356 . S
N579 H582 0.984 . S
N579 H583 0.985 . S
H580 N575 0.984 . S
H581 N575 0.985 . S
H582 N579 0.984 . S
H583 N579 0.985 . S
H584 N578 0.984 . S
H585 N578 0.984 . S
H586 N574 0.984 . S
H587 N574 0.985 . S
C157 C10 1.464 . S
C159 C88 1.464 . S
C175 C23 1.464 . S
C177 C101 1.464 . S
C193 C36 1.464 . S
C195 C114 1.464 . S
C211 C49 1.464 . S
C213 C127 1.464 . S
C229 C62 1.464 . S
C231 C134 1.464 . S
C247 C147 1.464 . S
C249 C75 1.464 . S
C265 C5 1.428 . S
C267 C133 1.428 . S
C283 C18 1.428 . S
C285 C146 1.429 . S
C301 C31 1.428 . S
C303 C83 1.428 . S
C319 C44 1.428 . S
C321 C96 1.428 . S
C337 C57 1.428 . S
C339 C109 1.429 . S
C355 C70 1.428 . S
C357 C122 1.428 . S
C373 C4 1.529 . S
C375 C43 1.529 . S
C391 C17 1.533 . S
C393 C56 1.533 . S
C409 C69 1.532 . S
C411 C30 1.532 . S
C427 C82 1.533 . S
C429 C121 1.533 . S
C445 C140 1.530 . S
C447 C95 1.530 . S
C463 C108 1.531 . S
C465 C153 1.531 . S
C481 C81 1.286 . S
C483 C3 1.286 . S
C499 C16 1.286 . S
C501 C94 1.286 . S
C517 C29 1.286 . S
C519 C107 1.286 . S
C535 C120 1.286 . S
C537 C42 1.286 . S
C553 C135 1.286 . S
C555 C55 1.286 . S
C571 C68 1.286 . S
C573 C148 1.286 . S
