# Generated by pormake.
# Topology wir, (6)-cn, num edge types: 1
# Building blocks:
#     Node 0, Type 0, BuildingBlock: KUMJIN_clean_sbu_0, # of connection points: 6
#     Node 1, Type 0, BuildingBlock: KUMJIN_clean_sbu_0, # of connection points: 6
#     Node 2, Type 0, BuildingBlock: KUMJIN_clean_sbu_0, # of connection points: 6
#     Node 3, Type 0, BuildingBlock: KUMJIN_clean_sbu_0, # of connection points: 6
#     Node 4, Type 0, BuildingBlock: KUMJIN_clean_sbu_0, # of connection points: 6
#     Node 5, Type 0, BuildingBlock: KUMJIN_clean_sbu_0, # of connection points: 6
#     Node 6, Type 0, BuildingBlock: KUMJIN_clean_sbu_0, # of connection points: 6
#     Node 7, Type 0, BuildingBlock: KUMJIN_clean_sbu_0, # of connection points: 6
#     Node 8, Type 0, BuildingBlock: KUMJIN_clean_sbu_0, # of connection points: 6
#     Node 9, Type 0, BuildingBlock: KUMJIN_clean_sbu_0, # of connection points: 6
#     Node 10, Type 0, BuildingBlock: KUMJIN_clean_sbu_0, # of connection points: 6
#     Node 11, Type 0, BuildingBlock: KUMJIN_clean_sbu_0, # of connection points: 6
#     Node 12, Type 0, BuildingBlock: KUMJIN_clean_sbu_0, # of connection points: 6
#     Node 13, Type 0, BuildingBlock: KUMJIN_clean_sbu_0, # of connection points: 6
#     Node 14, Type 0, BuildingBlock: KUMJIN_clean_sbu_0, # of connection points: 6
#     Node 15, Type 0, BuildingBlock: KUMJIN_clean_sbu_0, # of connection points: 6
#     Node 16, Type 0, BuildingBlock: KUMJIN_clean_sbu_0, # of connection points: 6
#     Node 17, Type 0, BuildingBlock: KUMJIN_clean_sbu_0, # of connection points: 6
#     Node 18, Type 0, BuildingBlock: KUMJIN_clean_sbu_0, # of connection points: 6
#     Node 19, Type 0, BuildingBlock: KUMJIN_clean_sbu_0, # of connection points: 6
#     Node 20, Type 0, BuildingBlock: KUMJIN_clean_sbu_0, # of connection points: 6
#     Node 21, Type 0, BuildingBlock: KUMJIN_clean_sbu_0, # of connection points: 6
#     Node 22, Type 0, BuildingBlock: KUMJIN_clean_sbu_0, # of connection points: 6
#     Node 23, Type 0, BuildingBlock: KUMJIN_clean_sbu_0, # of connection points: 6
#     Node 24, Type 0, BuildingBlock: KUMJIN_clean_sbu_0, # of connection points: 6
#     Node 25, Type 0, BuildingBlock: KUMJIN_clean_sbu_0, # of connection points: 6
#     Node 26, Type 0, BuildingBlock: KUMJIN_clean_sbu_0, # of connection points: 6
#     Node 27, Type 0, BuildingBlock: KUMJIN_clean_sbu_0, # of connection points: 6
#     Node 28, Type 0, BuildingBlock: KUMJIN_clean_sbu_0, # of connection points: 6
#     Node 29, Type 0, BuildingBlock: KUMJIN_clean_sbu_0, # of connection points: 6
#     Node 30, Type 0, BuildingBlock: KUMJIN_clean_sbu_0, # of connection points: 6
#     Node 31, Type 0, BuildingBlock: KUMJIN_clean_sbu_0, # of connection points: 6
#     Edge 32, Type (0, 0), BuildingBlock: KIFKEQ_clean_linker_1, # of connection points: 2
#     Edge 33, Type (0, 0), BuildingBlock: KIFKEQ_clean_linker_1, # of connection points: 2
#     Edge 34, Type (0, 0), BuildingBlock: KIFKEQ_clean_linker_1, # of connection points: 2
#     Edge 35, Type (0, 0), BuildingBlock: KIFKEQ_clean_linker_1, # of connection points: 2
#     Edge 36, Type (0, 0), BuildingBlock: KIFKEQ_clean_linker_1, # of connection points: 2
#     Edge 37, Type (0, 0), BuildingBlock: KIFKEQ_clean_linker_1, # of connection points: 2
#     Edge 38, Type (0, 0), BuildingBlock: KIFKEQ_clean_linker_1, # of connection points: 2
#     Edge 39, Type (0, 0), BuildingBlock: KIFKEQ_clean_linker_1, # of connection points: 2
#     Edge 40, Type (0, 0), BuildingBlock: KIFKEQ_clean_linker_1, # of connection points: 2
#     Edge 41, Type (0, 0), BuildingBlock: KIFKEQ_clean_linker_1, # of connection points: 2
#     Edge 42, Type (0, 0), BuildingBlock: KIFKEQ_clean_linker_1, # of connection points: 2
#     Edge 43, Type (0, 0), BuildingBlock: KIFKEQ_clean_linker_1, # of connection points: 2
#     Edge 44, Type (0, 0), BuildingBlock: KIFKEQ_clean_linker_1, # of connection points: 2
#     Edge 45, Type (0, 0), BuildingBlock: KIFKEQ_clean_linker_1, # of connection points: 2
#     Edge 46, Type (0, 0), BuildingBlock: KIFKEQ_clean_linker_1, # of connection points: 2
#     Edge 47, Type (0, 0), BuildingBlock: KIFKEQ_clean_linker_1, # of connection points: 2
#     Edge 48, Type (0, 0), BuildingBlock: KIFKEQ_clean_linker_1, # of connection points: 2
#     Edge 49, Type (0, 0), BuildingBlock: KIFKEQ_clean_linker_1, # of connection points: 2
#     Edge 50, Type (0, 0), BuildingBlock: KIFKEQ_clean_linker_1, # of connection points: 2
#     Edge 51, Type (0, 0), BuildingBlock: KIFKEQ_clean_linker_1, # of connection points: 2
#     Edge 52, Type (0, 0), BuildingBlock: KIFKEQ_clean_linker_1, # of connection points: 2
#     Edge 53, Type (0, 0), BuildingBlock: KIFKEQ_clean_linker_1, # of connection points: 2
#     Edge 54, Type (0, 0), BuildingBlock: KIFKEQ_clean_linker_1, # of connection points: 2
#     Edge 55, Type (0, 0), BuildingBlock: KIFKEQ_clean_linker_1, # of connection points: 2
#     Edge 56, Type (0, 0), BuildingBlock: KIFKEQ_clean_linker_1, # of connection points: 2
#     Edge 57, Type (0, 0), BuildingBlock: KIFKEQ_clean_linker_1, # of connection points: 2
#     Edge 58, Type (0, 0), BuildingBlock: KIFKEQ_clean_linker_1, # of connection points: 2
#     Edge 59, Type (0, 0), BuildingBlock: KIFKEQ_clean_linker_1, # of connection points: 2
#     Edge 60, Type (0, 0), BuildingBlock: KIFKEQ_clean_linker_1, # of connection points: 2
#     Edge 61, Type (0, 0), BuildingBlock: KIFKEQ_clean_linker_1, # of connection points: 2
#     Edge 62, Type (0, 0), BuildingBlock: KIFKEQ_clean_linker_1, # of connection points: 2
#     Edge 63, Type (0, 0), BuildingBlock: KIFKEQ_clean_linker_1, # of connection points: 2
#     Edge 64, Type (0, 0), BuildingBlock: KIFKEQ_clean_linker_1, # of connection points: 2
#     Edge 65, Type (0, 0), BuildingBlock: KIFKEQ_clean_linker_1, # of connection points: 2
#     Edge 66, Type (0, 0), BuildingBlock: KIFKEQ_clean_linker_1, # of connection points: 2
#     Edge 67, Type (0, 0), BuildingBlock: KIFKEQ_clean_linker_1, # of connection points: 2
#     Edge 68, Type (0, 0), BuildingBlock: KIFKEQ_clean_linker_1, # of connection points: 2
#     Edge 69, Type (0, 0), BuildingBlock: KIFKEQ_clean_linker_1, # of connection points: 2
#     Edge 70, Type (0, 0), BuildingBlock: KIFKEQ_clean_linker_1, # of connection points: 2
#     Edge 71, Type (0, 0), BuildingBlock: KIFKEQ_clean_linker_1, # of connection points: 2
#     Edge 72, Type (0, 0), BuildingBlock: KIFKEQ_clean_linker_1, # of connection points: 2
#     Edge 73, Type (0, 0), BuildingBlock: KIFKEQ_clean_linker_1, # of connection points: 2
#     Edge 74, Type (0, 0), BuildingBlock: KIFKEQ_clean_linker_1, # of connection points: 2
#     Edge 75, Type (0, 0), BuildingBlock: KIFKEQ_clean_linker_1, # of connection points: 2
#     Edge 76, Type (0, 0), BuildingBlock: KIFKEQ_clean_linker_1, # of connection points: 2
#     Edge 77, Type (0, 0), BuildingBlock: KIFKEQ_clean_linker_1, # of connection points: 2
#     Edge 78, Type (0, 0), BuildingBlock: KIFKEQ_clean_linker_1, # of connection points: 2
#     Edge 79, Type (0, 0), BuildingBlock: KIFKEQ_clean_linker_1, # of connection points: 2
#     Edge 80, Type (0, 0), BuildingBlock: KIFKEQ_clean_linker_1, # of connection points: 2
#     Edge 81, Type (0, 0), BuildingBlock: KIFKEQ_clean_linker_1, # of connection points: 2
#     Edge 82, Type (0, 0), BuildingBlock: KIFKEQ_clean_linker_1, # of connection points: 2
#     Edge 83, Type (0, 0), BuildingBlock: KIFKEQ_clean_linker_1, # of connection points: 2
#     Edge 84, Type (0, 0), BuildingBlock: KIFKEQ_clean_linker_1, # of connection points: 2
#     Edge 85, Type (0, 0), BuildingBlock: KIFKEQ_clean_linker_1, # of connection points: 2
#     Edge 86, Type (0, 0), BuildingBlock: KIFKEQ_clean_linker_1, # of connection points: 2
#     Edge 87, Type (0, 0), BuildingBlock: KIFKEQ_clean_linker_1, # of connection points: 2
#     Edge 88, Type (0, 0), BuildingBlock: KIFKEQ_clean_linker_1, # of connection points: 2
#     Edge 89, Type (0, 0), BuildingBlock: KIFKEQ_clean_linker_1, # of connection points: 2
#     Edge 90, Type (0, 0), BuildingBlock: KIFKEQ_clean_linker_1, # of connection points: 2
#     Edge 91, Type (0, 0), BuildingBlock: KIFKEQ_clean_linker_1, # of connection points: 2
#     Edge 92, Type (0, 0), BuildingBlock: KIFKEQ_clean_linker_1, # of connection points: 2
#     Edge 93, Type (0, 0), BuildingBlock: KIFKEQ_clean_linker_1, # of connection points: 2
#     Edge 94, Type (0, 0), BuildingBlock: KIFKEQ_clean_linker_1, # of connection points: 2
#     Edge 95, Type (0, 0), BuildingBlock: KIFKEQ_clean_linker_1, # of connection points: 2
#     Edge 96, Type (0, 0), BuildingBlock: KIFKEQ_clean_linker_1, # of connection points: 2
#     Edge 97, Type (0, 0), BuildingBlock: KIFKEQ_clean_linker_1, # of connection points: 2
#     Edge 98, Type (0, 0), BuildingBlock: KIFKEQ_clean_linker_1, # of connection points: 2
#     Edge 99, Type (0, 0), BuildingBlock: KIFKEQ_clean_linker_1, # of connection points: 2
#     Edge 100, Type (0, 0), BuildingBlock: KIFKEQ_clean_linker_1, # of connection points: 2
#     Edge 101, Type (0, 0), BuildingBlock: KIFKEQ_clean_linker_1, # of connection points: 2
#     Edge 102, Type (0, 0), BuildingBlock: KIFKEQ_clean_linker_1, # of connection points: 2
#     Edge 103, Type (0, 0), BuildingBlock: KIFKEQ_clean_linker_1, # of connection points: 2
#     Edge 104, Type (0, 0), BuildingBlock: KIFKEQ_clean_linker_1, # of connection points: 2
#     Edge 105, Type (0, 0), BuildingBlock: KIFKEQ_clean_linker_1, # of connection points: 2
#     Edge 106, Type (0, 0), BuildingBlock: KIFKEQ_clean_linker_1, # of connection points: 2
#     Edge 107, Type (0, 0), BuildingBlock: KIFKEQ_clean_linker_1, # of connection points: 2
#     Edge 108, Type (0, 0), BuildingBlock: KIFKEQ_clean_linker_1, # of connection points: 2
#     Edge 109, Type (0, 0), BuildingBlock: KIFKEQ_clean_linker_1, # of connection points: 2
#     Edge 110, Type (0, 0), BuildingBlock: KIFKEQ_clean_linker_1, # of connection points: 2
#     Edge 111, Type (0, 0), BuildingBlock: KIFKEQ_clean_linker_1, # of connection points: 2
#     Edge 112, Type (0, 0), BuildingBlock: KIFKEQ_clean_linker_1, # of connection points: 2
#     Edge 113, Type (0, 0), BuildingBlock: KIFKEQ_clean_linker_1, # of connection points: 2
#     Edge 114, Type (0, 0), BuildingBlock: KIFKEQ_clean_linker_1, # of connection points: 2
#     Edge 115, Type (0, 0), BuildingBlock: KIFKEQ_clean_linker_1, # of connection points: 2
#     Edge 116, Type (0, 0), BuildingBlock: KIFKEQ_clean_linker_1, # of connection points: 2
#     Edge 117, Type (0, 0), BuildingBlock: KIFKEQ_clean_linker_1, # of connection points: 2
#     Edge 118, Type (0, 0), BuildingBlock: KIFKEQ_clean_linker_1, # of connection points: 2
#     Edge 119, Type (0, 0), BuildingBlock: KIFKEQ_clean_linker_1, # of connection points: 2
#     Edge 120, Type (0, 0), BuildingBlock: KIFKEQ_clean_linker_1, # of connection points: 2
#     Edge 121, Type (0, 0), BuildingBlock: KIFKEQ_clean_linker_1, # of connection points: 2
#     Edge 122, Type (0, 0), BuildingBlock: KIFKEQ_clean_linker_1, # of connection points: 2
#     Edge 123, Type (0, 0), BuildingBlock: KIFKEQ_clean_linker_1, # of connection points: 2
#     Edge 124, Type (0, 0), BuildingBlock: KIFKEQ_clean_linker_1, # of connection points: 2
#     Edge 125, Type (0, 0), BuildingBlock: KIFKEQ_clean_linker_1, # of connection points: 2
#     Edge 126, Type (0, 0), BuildingBlock: KIFKEQ_clean_linker_1, # of connection points: 2
#     Edge 127, Type (0, 0), BuildingBlock: KIFKEQ_clean_linker_1, # of connection points: 2
# Relax obj value: 0.309
# Max RMSD: 0.204
# Mean RMSD: 0.204
data_MOF--net-wir--node1-KUMJIN_clean_sbu_0--edge1-KIFKEQ_clean_linker_1
_symmetry_space_group_name_H-M    P1
_symmetry_Int_Tables_number       1
_symmetry_cell_setting            triclinic
loop_
_symmetry_equiv_pos_as_xyz
'x, y, z'
_cell_length_a     43.073319
_cell_length_b     43.001945
_cell_length_c     98.246546
_cell_angle_alpha  90.076938
_cell_angle_beta   90.046799
_cell_angle_gamma 89.946819
loop_
_atom_site_label
_atom_site_type_symbol
_atom_site_fract_x
_atom_site_fract_y
_atom_site_fract_z
_atom_type_partial_charge
Eu0 Eu 0.25572 0.25758 0.37879 0.0
C1 C 0.15891 0.16244 0.35971 0.0
C2 C 0.1446 0.13542 0.38038 0.0
C3 C 0.10803 0.13806 0.36164 0.0
C4 C 0.16613 0.15335 0.37285 0.0
C5 C 0.12997 0.15434 0.35389 0.0
C6 C 0.11536 0.12855 0.37484 0.0
C7 C 0.14735 0.1764 0.33271 0.0
N8 N 0.18065 0.17794 0.35239 0.0
C9 C 0.17564 0.18383 0.33886 0.0
C10 C 0.12419 0.16208 0.34032 0.0
Eu11 Eu 0.2264 0.19409 0.36416 0.0
N12 N 0.19465 0.16044 0.37797 0.0
C13 C 0.20353 0.14782 0.39019 0.0
C14 C 0.15335 0.12401 0.3931 0.0
C15 C 0.18315 0.1297 0.39788 0.0
H16 H 0.19343 0.19386 0.33256 0.0
H17 H 0.19039 0.12051 0.40763 0.0
H18 H 0.09853 0.11518 0.38057 0.0
H19 H 0.14353 0.18155 0.32206 0.0
H20 H 0.22579 0.1521 0.39465 0.0
H21 H 0.21302 0.37309 0.36449 0.0
H22 H 0.13755 0.11013 0.39915 0.0
H23 H 0.31926 0.21929 0.36822 0.0
H24 H 0.21364 0.32424 0.37745 0.0
H25 H 0.3648 0.22856 0.35352 0.0
H26 H 0.08564 0.13195 0.35737 0.0
H27 H 0.25407 0.38378 0.34757 0.0
H28 H 0.30364 0.36726 0.33635 0.0
H29 H 0.10231 0.15623 0.3355 0.0
H30 H 0.3456 0.32887 0.3339 0.0
N31 N 0.25264 0.30546 0.36688 0.0
C32 C 0.23076 0.32768 0.36957 0.0
C33 C 0.25402 0.36183 0.35297 0.0
C34 C 0.27761 0.33995 0.35094 0.0
C35 C 0.23071 0.35582 0.36246 0.0
C36 C 0.27642 0.31167 0.3582 0.0
H37 H 0.3689 0.27753 0.34046 0.0
N38 N 0.29772 0.26241 0.36343 0.0
C39 C 0.3467 0.24595 0.35429 0.0
C40 C 0.30002 0.28991 0.35672 0.0
C41 C 0.32086 0.24073 0.36257 0.0
C42 C 0.349 0.27368 0.34698 0.0
C43 C 0.32549 0.29604 0.3481 0.0
O44 O 0.29782 0.26166 0.3908 0.0
O45 O 0.23379 0.21415 0.38443 0.0
O46 O 0.17952 0.22498 0.36635 0.0
O47 O 0.20005 0.27125 0.37425 0.0
O48 O 0.21491 0.25394 0.39297 0.0
O49 O 0.26145 0.29563 0.39344 0.0
O50 O 0.27141 0.17695 0.35763 0.0
O51 O 0.25743 0.23542 0.35788 0.0
O52 O 0.28632 0.21491 0.38939 0.0
O53 O 0.26278 0.1712 0.38092 0.0
O54 O 0.22072 0.22903 0.34589 0.0
O55 O 0.2302 0.15311 0.35091 0.0
C56 C 0.21372 0.22395 0.39284 0.0
C57 C 0.29198 0.28263 0.41277 0.0
C58 C 0.28641 0.30718 0.43489 0.0
C59 C 0.28354 0.30802 0.4207 0.0
C60 C 0.29795 0.28038 0.44125 0.0
C61 C 0.30433 0.25604 0.41915 0.0
C62 C 0.30719 0.25497 0.43333 0.0
C63 C 0.17423 0.25487 0.37008 0.0
C64 C 0.28788 0.28496 0.39794 0.0
C65 C 0.32645 0.32395 0.34071 0.0
C66 C 0.3025 0.34577 0.34207 0.0
C67 C 0.24547 0.24567 0.34666 0.0
C68 C 0.27423 0.15325 0.33641 0.0
C69 C 0.29868 0.13236 0.3344 0.0
C70 C 0.3132 0.1297 0.32164 0.0
C71 C 0.30369 0.14977 0.31108 0.0
C72 C 0.26511 0.17307 0.32583 0.0
C73 C 0.28002 0.17148 0.31325 0.0
C74 C 0.285 0.18308 0.3894 0.0
C75 C 0.26024 0.15518 0.34994 0.0
H76 H 0.27367 0.32832 0.41576 0.0
H77 H 0.2997 0.27915 0.45224 0.0
H78 H 0.31149 0.23606 0.41326 0.0
H79 H 0.3163 0.2343 0.43819 0.0
H80 H 0.30615 0.11801 0.34285 0.0
H81 H 0.3137 0.14812 0.30101 0.0
H82 H 0.2468 0.18991 0.32732 0.0
H83 H 0.2729 0.18678 0.30508 0.0
Eu84 Eu 0.09454 1.00802 0.62711 0.0
C85 C 0.19198 0.91604 0.60532 0.0
C86 C 0.24188 0.92047 0.61653 0.0
C87 C 0.2264 0.87109 0.60676 0.0
C88 C 0.21289 0.93345 0.6128 0.0
C89 C 0.19916 0.88495 0.60179 0.0
C90 C 0.24788 0.88892 0.61403 0.0
C91 C 0.15588 0.88542 0.58628 0.0
N92 N 0.1666 0.93059 0.60009 0.0
C93 C 0.15014 0.91639 0.5898 0.0
C94 C 0.17998 0.86934 0.59258 0.0
Eu95 Eu 0.15637 0.98228 0.60851 0.0
N96 N 0.20672 0.96407 0.61488 0.0
C97 C 0.23029 0.98362 0.61869 0.0
C98 C 0.26467 0.93997 0.62198 0.0
C99 C 0.25911 0.97183 0.62272 0.0
H100 H 0.13128 0.92797 0.58473 0.0
H101 H 0.27724 0.98745 0.62611 0.0
H102 H 0.26962 0.87844 0.61716 0.0
H103 H 0.14175 0.87402 0.57866 0.0
H104 H 0.22754 1.00853 0.61831 0.0
H105 H 0.9786 0.96581 0.6132 0.0
H106 H 0.28715 0.9309 0.62495 0.0
H107 H 0.13131 0.07337 0.61765 0.0
H108 H 1.02817 0.96516 0.62553 0.0
H109 H 0.12023 0.12087 0.60443 0.0
H110 H 0.23193 0.84712 0.60437 0.0
H111 H 0.96621 1.00913 0.59762 0.0
H112 H 0.98119 0.06049 0.58764 0.0
H113 H 0.18465 0.84548 0.58967 0.0
H114 H 1.01875 0.10328 0.58585 0.0
N115 N 1.04588 1.00577 0.61578 0.0
C116 C 1.02411 0.98329 0.61815 0.0
C117 C 0.98853 1.00854 0.6027 0.0
C118 C 1.00993 1.03267 0.60105 0.0
C119 C 0.99551 0.98396 0.61143 0.0
C120 C 1.03873 1.03078 0.60788 0.0
H121 H 0.07018 0.12626 0.59229 0.0
N122 N 0.08802 0.05209 0.61304 0.0
C123 C 0.10314 0.10248 0.60498 0.0
C124 C 0.06001 0.05493 0.60678 0.0
C125 C 0.10936 0.07554 0.61244 0.0
C126 C 0.07481 0.10549 0.59819 0.0
C127 C 0.05289 0.08153 0.59897 0.0
O128 O 0.0899 1.04812 0.6404 0.0
O129 O 0.13999 0.98764 0.62897 0.0
O130 O 0.12644 0.93463 0.61289 0.0
O131 O 0.08096 0.95301 0.62248 0.0
O132 O 0.10609 0.96696 0.64097 0.0
O133 O 0.05804 1.00964 0.64258 0.0
O134 O 0.16696 1.02733 0.59926 0.0
O135 O 0.11299 1.01278 0.60517 0.0
O136 O 0.13657 1.03801 0.63778 0.0
O137 O 0.1787 1.01596 0.62725 0.0
O138 O 0.11819 0.97749 0.5919 0.0
O139 O 0.18928 0.98597 0.59169 0.0
C140 C 0.13515 0.96705 0.63775 0.0
C141 C 0.07151 1.03782 0.6625 0.0
C142 C 1.04849 1.02936 0.68474 0.0
C143 C 1.04665 1.02851 0.67051 0.0
C144 C 0.07577 1.03992 0.69103 0.0
C145 C 0.09872 1.0488 0.66883 0.0
C146 C 0.10072 1.04989 0.68305 0.0
C147 C 0.09728 0.92813 0.61747 0.0
C148 C 0.06793 1.0359 0.64764 0.0
C149 C 1.02445 0.0832 0.59203 0.0
C150 C 1.00311 0.05878 0.59301 0.0
C151 C 0.10143 1.00189 0.59387 0.0
C152 C 0.17729 1.02519 0.57578 0.0
C153 C 0.19104 0.05217 0.57057 0.0
C154 C 0.18553 0.06131 0.55702 0.0
C155 C 0.16412 1.04425 0.54914 0.0
C156 C 0.15747 1.00753 0.56747 0.0
C157 C 0.15023 1.01757 0.55437 0.0
C158 C 0.16806 1.03697 0.63682 0.0
C159 C 0.18437 1.01547 0.58978 0.0
H160 H 1.026 1.01948 0.66556 0.0
H161 H 0.07778 1.04027 0.70202 0.0
H162 H 0.1184 0.05635 0.66288 0.0
H163 H 0.12176 0.05815 0.68787 0.0
H164 H 0.20705 0.06527 0.57687 0.0
H165 H 0.15957 1.05024 0.53862 0.0
H166 H 0.1477 0.98589 0.57099 0.0
H167 H 0.13459 1.00406 0.54808 0.0
Eu168 Eu 0.34265 0.84281 0.87741 0.0
C169 C 0.43354 0.94317 0.8574 0.0
C170 C 0.4291 0.99169 0.86978 0.0
C171 C 0.47836 0.97743 0.85963 0.0
C172 C 0.41619 0.96316 0.86537 0.0
C173 C 0.46456 0.95075 0.85405 0.0
C174 C 0.46055 0.99804 0.86738 0.0
C175 C 0.46426 0.90894 0.83774 0.0
N176 N 0.41904 0.91836 0.85163 0.0
C177 C 0.43339 0.90274 0.84113 0.0
C178 C 0.48019 0.93254 0.84448 0.0
Eu179 Eu 0.36754 0.907 0.85985 0.0
N180 N 0.38563 0.95677 0.86724 0.0
C181 C 0.36607 0.97998 0.87149 0.0
C182 C 0.40961 1.01387 0.87571 0.0
C183 C 0.37779 1.00831 0.8762 0.0
H184 H 0.42204 0.88414 0.83577 0.0
H185 H 0.36216 1.02609 0.87995 0.0
H186 H 0.47097 1.01946 0.87098 0.0
H187 H 0.47574 0.89549 0.8299 0.0
H188 H 0.34121 0.97737 0.87096 0.0
H189 H 0.3884 0.72809 0.86342 0.0
H190 H 0.41863 1.03599 0.87922 0.0
H191 H 0.27717 0.87842 0.86747 0.0
H192 H 0.38703 0.77739 0.87607 0.0
H193 H 0.23093 0.86688 0.85344 0.0
H194 H 0.50227 0.98325 0.85735 0.0
H195 H 0.34657 0.71531 0.84711 0.0
H196 H 0.29568 0.72961 0.83647 0.0
H197 H 0.504 0.93754 0.84169 0.0
H198 H 0.25222 0.76637 0.83434 0.0
N199 N 0.34677 0.7945 0.86585 0.0
C200 C 0.36952 0.77311 0.86842 0.0
C201 C 0.34626 0.73749 0.85236 0.0
C202 C 0.32178 0.75845 0.85051 0.0
C203 C 0.37 0.74468 0.8615 0.0
C204 C 0.32251 0.78707 0.85757 0.0
H205 H 0.2276 0.81715 0.84084 0.0
N206 N 0.29974 0.83578 0.86275 0.0
C207 C 0.24965 0.85015 0.85411 0.0
C208 C 0.29797 0.80789 0.85628 0.0
C209 C 0.27586 0.85666 0.86201 0.0
C210 C 0.2478 0.82198 0.84707 0.0
C211 C 0.27215 0.80049 0.84804 0.0
O212 O 0.30112 0.83622 0.88955 0.0
O213 O 0.36211 0.88841 0.87996 0.0
O214 O 0.41555 0.87748 0.86403 0.0
O215 O 0.39803 0.8307 0.87276 0.0
O216 O 0.38289 0.85401 0.89177 0.0
O217 O 0.34075 0.80647 0.89292 0.0
O218 O 0.36234 0.94061 0.84337 0.0
O219 O 0.33871 0.86289 0.85585 0.0
O220 O 0.31173 0.8843 0.88837 0.0
O221 O 0.33364 0.92756 0.87871 0.0
O222 O 0.372 0.87165 0.84203 0.0
O223 O 0.32166 0.9187 0.85184 0.0
C224 C 0.38247 0.88328 0.88883 0.0
C225 C 0.31035 0.82141 0.91211 0.0
C226 C 0.32888 0.81315 0.93514 0.0
C227 C 0.33183 0.80866 0.92111 0.0
C228 C 0.30411 0.83061 0.94033 0.0
C229 C 0.28558 0.83922 0.91733 0.0
C230 C 0.28267 0.84394 0.93138 0.0
C231 C 0.4226 0.84804 0.86815 0.0
C232 C 0.31366 0.81554 0.89741 0.0
C233 C 0.27166 0.77226 0.84086 0.0
C234 C 0.29647 0.75137 0.84203 0.0
C235 C 0.34945 0.85272 0.84428 0.0
C236 C 0.31939 0.93271 0.82873 0.0
C237 C 0.29184 0.94829 0.82548 0.0
C238 C 0.2805 0.9487 0.81202 0.0
C239 C 0.29566 0.93007 0.80222 0.0
C240 C 0.33455 0.91502 0.81875 0.0
C241 C 0.32216 0.91304 0.80566 0.0
C242 C 0.31245 0.916 0.8879 0.0
C243 C 0.33245 0.93683 0.84242 0.0
H244 H 0.35046 0.79412 0.91725 0.0
H245 H 0.30122 0.83352 0.95121 0.0
H246 H 0.26836 0.84924 0.9106 0.0
H247 H 0.26349 0.85749 0.93532 0.0
H248 H 0.28018 0.9613 0.83342 0.0
H249 H 0.2883 0.92981 0.7917 0.0
H250 H 0.35601 0.90302 0.82099 0.0
H251 H 0.33388 0.89928 0.79799 0.0
Eu252 Eu 0.5123 0.09185 0.12602 0.0
C253 C 0.41661 0.18845 0.10629 0.0
C254 C 0.36905 0.18845 0.11941 0.0
C255 C 0.38534 0.23563 0.10804 0.0
C256 C 0.39629 0.17314 0.11488 0.0
C257 C 0.4108 0.21969 0.10252 0.0
C258 C 0.36429 0.21991 0.11633 0.0
C259 C 0.4523 0.21593 0.08622 0.0
N260 N 0.44032 0.17208 0.10059 0.0
C261 C 0.45679 0.18496 0.08999 0.0
C262 C 0.42963 0.23358 0.0927 0.0
Eu263 Eu 0.44799 0.11983 0.10875 0.0
N264 N 0.4011 0.14244 0.1175 0.0
C265 C 0.37753 0.12529 0.12314 0.0
C266 C 0.34642 0.17133 0.12626 0.0
C267 C 0.35035 0.13945 0.12781 0.0
H268 H 0.47485 0.17231 0.08486 0.0
H269 H 0.33217 0.12559 0.13237 0.0
H270 H 0.34381 0.23204 0.11995 0.0
H271 H 0.46636 0.22616 0.07828 0.0
H272 H 0.37811 0.10032 0.1234 0.0
H273 H 0.62856 0.13533 0.11384 0.0
H274 H 0.32522 0.18222 0.12982 0.0
H275 H 0.4758 1.02774 0.11512 0.0
H276 H 0.57851 0.13467 0.12584 0.0
H277 H 0.48683 0.98195 0.10064 0.0
H278 H 0.38082 0.25966 0.10539 0.0
H279 H 0.64124 0.09395 0.09726 0.0
H280 H 0.62631 1.04396 0.0859 0.0
H281 H 0.42596 0.25749 0.08961 0.0
H282 H 0.5886 1.00165 0.08282 0.0
N283 N 0.56108 0.09541 0.11497 0.0
C284 C 0.58284 0.11744 0.11806 0.0
C285 C 0.61878 0.094 0.10222 0.0
C286 C 0.59734 0.0702 0.09983 0.0
C287 C 0.61164 0.11749 0.11151 0.0
C288 C 0.56837 0.07138 0.10652 0.0
H289 H 0.53693 0.97808 0.08845 0.0
N290 N 0.51904 1.04951 0.111 0.0
C291 C 0.50392 1.00023 0.10167 0.0
C292 C 0.54709 1.04743 0.10476 0.0
C293 C 0.4977 1.02617 0.10982 0.0
C294 C 0.53229 0.99808 0.09486 0.0
C295 C 0.55426 1.02183 0.09631 0.0
O296 O 0.51715 1.04943 0.13775 0.0
O297 O 0.46752 0.11295 0.12875 0.0
O298 O 0.47914 0.16651 0.11334 0.0
O299 O 0.52575 0.1471 0.12153 0.0
O300 O 0.50288 0.13164 0.1408 0.0
O301 O 0.54786 0.08807 0.14191 0.0
O302 O 0.41562 0.11916 0.0917 0.0
O303 O 0.49124 0.0894 0.10465 0.0
O304 O 0.47001 0.06174 0.1366 0.0
O305 O 0.42725 0.08514 0.12716 0.0
O306 O 0.48145 0.12055 0.09013 0.0
O307 O 0.42942 0.07584 0.10083 0.0
C308 C 0.47366 0.13261 0.13786 0.0
C309 C 0.53401 0.05525 0.1604 0.0
C310 C 0.55571 0.05874 0.18316 0.0
C311 C 0.55817 0.06319 0.16907 0.0
C312 C 0.52849 1.04606 0.18863 0.0
C313 C 0.50691 1.04196 0.16589 0.0
C314 C 0.50424 1.03739 0.17994 0.0
C315 C 0.50891 0.17243 0.11727 0.0
C316 C 0.53836 0.06061 0.14574 0.0
C317 C 0.58284 1.02094 0.08947 0.0
C318 C 0.60427 1.0451 0.09118 0.0
C319 C 0.50107 0.09885 0.0928 0.0
C320 C 0.3785 0.07861 0.0918 0.0
C321 C 0.37176 1.04816 0.08753 0.0
C322 C 0.34076 1.038 0.08643 0.0
C323 C 0.31677 0.05814 0.09062 0.0
C324 C 0.35395 0.0989 0.09497 0.0
C325 C 0.32341 0.08834 0.09484 0.0
C326 C 0.43842 0.06339 0.13619 0.0
C327 C 0.41103 0.08932 0.09215 0.0
H328 H 0.57876 0.07394 0.1648 0.0
H329 H 0.52597 1.04308 0.19952 0.0
H330 H 0.48784 1.03523 0.1594 0.0
H331 H 0.48323 1.02743 0.18411 0.0
H332 H 0.39056 1.03292 0.08446 0.0
H333 H 0.29263 1.05143 0.08971 0.0
H334 H 0.35818 0.12305 0.09739 0.0
H335 H 0.30469 0.10405 0.09748 0.0
Eu336 Eu 0.25809 0.84192 0.21842 0.0
C337 C 0.16583 0.94236 0.23816 0.0
C338 C 0.17081 0.99136 0.22626 0.0
C339 C 0.12134 0.97721 0.2362 0.0
C340 C 0.18344 0.96251 0.23043 0.0
C341 C 0.13481 0.95009 0.2415 0.0
C342 C 0.13942 0.99799 0.2287 0.0
C343 C 0.13448 0.90755 0.25738 0.0
N344 N 0.18007 0.91721 0.24376 0.0
C345 C 0.1654 0.90129 0.25406 0.0
C346 C 0.11886 0.93158 0.25083 0.0
Eu347 Eu 0.23185 0.90593 0.2358 0.0
N348 N 0.21397 0.95589 0.22857 0.0
C349 C 0.23373 0.97907 0.22452 0.0
C350 C 0.1905 1.01352 0.2205 0.0
C351 C 0.22227 1.00766 0.22 0.0
H352 H 0.17652 0.88235 0.25929 0.0
H353 H 0.23806 1.02541 0.21641 0.0
H354 H 0.12924 1.0197 0.2253 0.0
H355 H 0.12276 0.89385 0.26504 0.0
H356 H 0.25857 0.97627 0.22511 0.0
H357 H 0.21432 0.72638 0.23206 0.0
H358 H 0.18169 1.03586 0.21717 0.0
H359 H 0.32288 0.87848 0.22857 0.0
H360 H 0.21511 0.77567 0.21944 0.0
H361 H 0.36908 0.86764 0.24272 0.0
H362 H 0.09746 0.9832 0.23848 0.0
H363 H 0.25584 0.71445 0.24863 0.0
H364 H 0.30613 0.72968 0.25955 0.0
H365 H 0.09504 0.93669 0.25358 0.0
H366 H 0.3489 0.76712 0.26187 0.0
N367 N 0.25464 0.79358 0.22994 0.0
C368 C 0.23244 0.77173 0.2272 0.0
C369 C 0.25586 0.73662 0.2434 0.0
C370 C 0.27983 0.75805 0.24542 0.0
C371 C 0.23229 0.74334 0.2341 0.0
C372 C 0.27874 0.78664 0.23838 0.0
H373 H 0.3729 0.81812 0.2554 0.0
N374 N 0.30081 0.83563 0.23327 0.0
C375 C 0.35059 0.85069 0.24202 0.0
C376 C 0.30286 0.80786 0.23979 0.0
C377 C 0.32439 0.85679 0.23405 0.0
C378 C 0.35272 0.82264 0.24911 0.0
C379 C 0.32867 0.80087 0.24811 0.0
O380 O 0.29972 0.83624 0.20626 0.0
O381 O 0.238 0.88715 0.21577 0.0
O382 O 0.1845 0.87542 0.23153 0.0
O383 O 0.20311 0.82875 0.22306 0.0
O384 O 0.21776 0.85246 0.20395 0.0
O385 O 0.26075 0.8055 0.20286 0.0
O386 O 0.27758 0.91805 0.24379 0.0
O387 O 0.26125 0.86232 0.24 0.0
O388 O 0.28879 0.88357 0.2077 0.0
O389 O 0.26581 0.92667 0.21705 0.0
O390 O 0.22714 0.87068 0.25354 0.0
O391 O 0.23658 0.93901 0.25254 0.0
C392 C 0.21782 0.88175 0.20688 0.0
C393 C 0.29243 0.81813 0.18388 0.0
C394 C 0.28794 0.79472 0.16149 0.0
C395 C 0.28472 0.79309 0.17565 0.0
C396 C 0.29935 0.82196 0.15548 0.0
C397 C 0.30438 0.8453 0.17788 0.0
C398 C 0.30789 0.84709 0.16373 0.0
C399 C 0.17816 0.84568 0.22756 0.0
C400 C 0.28798 0.81463 0.19863 0.0
C401 C 0.32948 0.77269 0.2553 0.0
C402 C 0.30506 0.75143 0.25401 0.0
C403 C 0.25021 0.85221 0.2515 0.0
C404 C 0.2798 0.93097 0.26701 0.0
C405 C 0.30797 0.9455 0.27007 0.0
C406 C 0.31952 0.94595 0.28349 0.0
C407 C 0.30405 0.92793 0.29339 0.0
C408 C 0.26429 0.91397 0.27708 0.0
C409 C 0.27696 0.9117 0.29011 0.0
C410 C 0.28753 0.91521 0.20806 0.0
C411 C 0.26654 0.93557 0.25341 0.0
H412 H 0.27492 0.77248 0.18035 0.0
H413 H 0.30132 0.82383 0.14453 0.0
H414 H 0.31081 0.86512 0.18401 0.0
H415 H 0.31682 0.86814 0.15915 0.0
H416 H 0.31987 0.95791 0.26204 0.0
H417 H 0.31156 0.92764 0.3039 0.0
H418 H 0.24238 0.90268 0.27495 0.0
H419 H 0.26501 0.89846 0.29786 0.0
Eu420 Eu 0.50685 1.00427 0.47303 0.0
C421 C 0.4073 0.90509 0.48906 0.0
C422 C 0.38444 0.89121 0.4673 0.0
C423 C 0.38098 0.85529 0.48623 0.0
C424 C 0.40096 0.91256 0.47557 0.0
C425 C 0.39684 0.87654 0.49453 0.0
C426 C 0.37483 0.86259 0.47266 0.0
C427 C 0.41664 0.89251 0.5164 0.0
N428 N 0.42285 0.92589 0.49696 0.0
C429 C 0.42655 0.92042 0.5106 0.0
C430 C 0.40213 0.87028 0.5083 0.0
Eu431 Eu 0.44139 0.9714 0.48595 0.0
N432 N 0.41104 0.94029 0.47047 0.0
C433 C 0.40412 0.94797 0.45724 0.0
C434 C 0.37796 0.89909 0.45382 0.0
C435 C 0.38766 0.92765 0.44882 0.0
H436 H 0.43647 0.93759 0.51728 0.0
H437 H 0.38283 0.93394 0.43837 0.0
H438 H 0.36236 0.84599 0.4664 0.0
H439 H 0.41996 0.88829 0.52716 0.0
H440 H 0.4119 0.96913 0.4526 0.0
H441 H 0.61803 0.96392 0.4937 0.0
H442 H 0.36543 0.8833 0.4472 0.0
H443 H 0.46234 0.06643 0.48215 0.0
H444 H 0.57256 0.96167 0.47872 0.0
H445 H 0.46806 0.11326 0.49633 0.0
H446 H 0.37304 0.83324 0.49027 0.0
H447 H 0.62455 1.00785 0.50966 0.0
H448 H 0.60533 0.05862 0.51864 0.0
H449 H 0.3944 0.84868 0.51284 0.0
H450 H 0.56585 0.09979 0.51875 0.0
N451 N 0.55081 1.00173 0.48735 0.0
C452 C 0.57375 0.9799 0.48625 0.0
C453 C 0.60387 1.00651 0.50339 0.0
C454 C 0.5814 1.03 0.50381 0.0
C455 C 0.60016 0.98154 0.49448 0.0
C456 C 0.55474 1.02715 0.49551 0.0
H457 H 0.51508 0.12047 0.51041 0.0
N458 N 0.5058 1.04703 0.48808 0.0
C459 C 0.48621 0.09584 0.49622 0.0
C460 C 0.53213 1.05061 0.49565 0.0
C461 C 0.48305 0.06922 0.48818 0.0
C462 C 0.51286 0.09988 0.50411 0.0
C463 C 0.53612 0.07711 0.50397 0.0
O464 O 0.52667 1.04657 0.4651 0.0
O465 O 0.47488 0.96684 0.46949 0.0
O466 O 0.47538 0.92644 0.4865 0.0
O467 O 0.52019 0.94774 0.47704 0.0
O468 O 0.48773 0.9901 0.45237 0.0
O469 O 0.54645 1.00228 0.45894 0.0
O470 O 0.39655 0.97347 0.49635 0.0
O471 O 0.4802 1.0048 0.49297 0.0
O472 O 0.46582 1.03469 0.46178 0.0
O473 O 0.42266 1.00694 0.46791 0.0
O474 O 0.47021 0.97025 0.50614 0.0
O475 O 0.42184 1.0159 0.49246 0.0
C476 C 0.47283 0.96617 0.45671 0.0
C477 C 0.54406 1.04343 0.44269 0.0
C478 C 0.56974 1.04884 0.42087 0.0
C479 C 0.56942 1.03798 0.43432 0.0
C480 C 0.54414 0.06529 0.41575 0.0
C481 C 0.51852 0.06029 0.43757 0.0
C482 C 0.51865 0.07114 0.42416 0.0
C483 C 0.50504 0.92173 0.48213 0.0
C484 C 0.54534 1.03232 0.45681 0.0
C485 C 0.56264 0.07975 0.5122 0.0
C486 C 0.58508 0.05623 0.51217 0.0
C487 C 0.48804 0.99417 0.50489 0.0
C488 C 0.3676 1.01795 0.49017 0.0
C489 C 0.35214 1.04224 0.49688 0.0
C490 C 0.32639 0.05709 0.49077 0.0
C491 C 0.31753 1.04808 0.47754 0.0
C492 C 0.35677 1.00796 0.47741 0.0
C493 C 0.33226 1.02331 0.47106 0.0
C494 C 0.43463 1.0307 0.46037 0.0
C495 C 0.39551 1.00376 0.49625 0.0
H496 H 0.58869 1.02441 0.43825 0.0
H497 H 0.54381 0.07331 0.40531 0.0
H498 H 0.49854 0.06521 0.44388 0.0
H499 H 0.4989 0.08392 0.42027 0.0
H500 H 0.3596 1.0486 0.50704 0.0
H501 H 0.29855 0.0595 0.47231 0.0
H502 H 0.36743 0.98851 0.47228 0.0
H503 H 0.32443 1.01582 0.46111 0.0
Eu504 Eu 0.3476 0.26003 0.7191 0.0
C505 C 0.44233 0.17116 0.74488 0.0
C506 C 0.45064 0.12185 0.73351 0.0
C507 C 0.49146 0.14377 0.74759 0.0
C508 C 0.43214 0.14843 0.73594 0.0
C509 C 0.47201 0.16885 0.75092 0.0
C510 C 0.48068 0.12016 0.739 0.0
C511 C 0.46009 0.21457 0.76419 0.0
N512 N 0.42263 0.19468 0.74822 0.0
C513 C 0.43075 0.21569 0.75814 0.0
C514 C 0.48093 0.19125 0.76048 0.0
Eu515 Eu 0.37374 0.19553 0.73665 0.0
N516 N 0.403 0.15072 0.73073 0.0
C517 C 0.38973 0.12559 0.72447 0.0
C518 C 0.4378 0.09699 0.72626 0.0
C519 C 0.40695 0.09857 0.72203 0.0
H520 H 0.41543 0.23459 0.76081 0.0
H521 H 0.3964 0.07901 0.71686 0.0
H522 H 0.4954 0.10021 0.73699 0.0
H523 H 0.46666 0.23183 0.77169 0.0
H524 H 0.36566 0.12583 0.72153 0.0
H525 H 0.38693 0.37753 0.73157 0.0
H526 H 0.45114 0.07608 0.7243 0.0
H527 H 0.28722 0.21919 0.73113 0.0
H528 H 0.38896 0.32684 0.71991 0.0
H529 H 0.24214 0.22763 0.74622 0.0
H530 H 0.51442 0.14179 0.75202 0.0
H531 H 0.3442 0.38919 0.74758 0.0
H532 H 0.2948 0.37228 0.75883 0.0
H533 H 0.50358 0.19034 0.76527 0.0
H534 H 0.25507 0.33212 0.76246 0.0
N535 N 0.3495 0.30864 0.73024 0.0
C536 C 0.37103 0.33097 0.72738 0.0
C537 C 0.34534 0.36658 0.74273 0.0
C538 C 0.32243 0.34417 0.74508 0.0
C539 C 0.36961 0.36002 0.73376 0.0
C540 C 0.32504 0.31504 0.73854 0.0
H541 H 0.23525 0.27828 0.75782 0.0
N542 N 0.30594 0.26423 0.73446 0.0
C543 C 0.25893 0.24602 0.74472 0.0
C544 C 0.3024 0.29244 0.74052 0.0
C545 C 0.28455 0.24123 0.73624 0.0
C546 C 0.25505 0.2747 0.7512 0.0
C547 C 0.2769 0.29833 0.74916 0.0
O548 O 0.3046 0.26752 0.70813 0.0
O549 O 0.36744 0.21461 0.7165 0.0
O550 O 0.42105 0.22627 0.73202 0.0
O551 O 0.40266 0.27322 0.72345 0.0
O552 O 0.3869 0.24915 0.70426 0.0
O553 O 0.34513 0.29493 0.7029 0.0
O554 O 0.36771 0.15566 0.75014 0.0
O555 O 0.35216 0.24325 0.74101 0.0
O556 O 0.31687 0.21712 0.70895 0.0
O557 O 0.34122 0.1739 0.71763 0.0
O558 O 0.36265 0.21804 0.75756 0.0
O559 O 0.32734 0.17911 0.74188 0.0
C560 C 0.38723 0.21994 0.70738 0.0
C561 C 0.30942 0.28257 0.68522 0.0
C562 C 0.30902 0.3042 0.66243 0.0
C563 C 0.31526 0.30696 0.67638 0.0
C564 C 0.29668 0.27644 0.65727 0.0
C565 C 0.29642 0.25492 0.68009 0.0
C566 C 0.29007 0.25195 0.66616 0.0
C567 C 0.4275 0.25604 0.72797 0.0
C568 C 0.31665 0.28734 0.6997 0.0
C569 C 0.27437 0.32726 0.75571 0.0
C570 C 0.29707 0.35009 0.75368 0.0
C571 C 0.35004 0.24407 0.75434 0.0
C572 C 0.32141 0.15494 0.76324 0.0
C573 C 0.29363 0.13804 0.76377 0.0
C574 C 0.27867 0.13264 0.77628 0.0
C575 C 0.29064 0.14694 0.78809 0.0
C576 C 0.33377 0.1676 0.77525 0.0
C577 C 0.31787 0.16442 0.78752 0.0
C578 C 0.31883 0.18538 0.70895 0.0
C579 C 0.33749 0.15765 0.7501 0.0
H580 H 0.32583 0.32798 0.68038 0.0
H581 H 0.29248 0.2737 0.64646 0.0
H582 H 0.29128 0.23566 0.68673 0.0
H583 H 0.28036 0.23051 0.66225 0.0
H584 H 0.28454 0.12782 0.7545 0.0
H585 H 0.28024 0.14303 0.79796 0.0
H586 H 0.35584 0.1795 0.7753 0.0
H587 H 0.32739 0.17441 0.79674 0.0
Eu588 Eu 0.08858 0.09545 0.96973 0.0
C589 C 0.18488 0.18779 0.99173 0.0
C590 C 0.23284 0.18719 0.97887 0.0
C591 C 0.21745 0.23414 0.99072 0.0
C592 C 0.20507 0.1724 0.98306 0.0
C593 C 0.19145 0.2186 0.99593 0.0
C594 C 0.23831 0.21833 0.98235 0.0
C595 C 0.14983 0.21488 1.01215 0.0
N596 N 0.16066 0.17174 0.99714 0.0
C597 C 0.14463 0.18429 1.00796 0.0
C598 C 0.17288 0.23237 1.0059 0.0
Eu599 Eu 0.1515 0.12048 0.98804 0.0
N600 N 0.19952 0.14202 0.98001 0.0
C601 C 0.22274 0.12459 0.97421 0.0
C602 C 0.25521 0.16986 0.97193 0.0
C603 C 0.25044 0.13824 0.96989 0.0
H604 H 0.12649 0.17172 1.01304 0.0
H605 H 0.26834 0.12416 0.96522 0.0
H606 H 0.25918 0.23009 0.97898 0.0
H607 H 0.13608 0.22491 1.02027 0.0
H608 H 0.2215 0.09968 0.97358 0.0
H609 H 0.97498 0.13539 0.98811 0.0
H610 H 0.2768 0.18035 0.96863 0.0
H611 H 0.12869 1.03009 0.97815 0.0
H612 H 1.02296 0.13856 0.97484 0.0
H613 H 0.11951 0.98125 0.99036 0.0
H614 H 0.22252 0.25788 0.9937 0.0
H615 H 0.96398 0.0888 1.00196 0.0
H616 H 0.97997 1.03583 1.00969 0.0
H617 H 0.17714 0.25596 1.00932 0.0
H618 H 1.01827 0.9935 1.00971 0.0
N619 N 1.04135 0.09559 0.9822 0.0
C620 C 1.01969 0.11884 0.98145 0.0
C621 C 0.98566 0.09037 0.99642 0.0
C622 C 1.00711 0.06595 0.99664 0.0
C623 C 0.99188 0.11679 0.9887 0.0
C624 C 1.03509 0.06913 0.98928 0.0
H625 H 0.06996 0.97286 1.00246 0.0
N626 N 0.08438 1.04938 0.98282 0.0
C627 C 0.10166 0.99897 0.99012 0.0
C628 C 0.05684 1.04515 0.98935 0.0
C629 C 0.10669 1.02674 0.98309 0.0
C630 C 0.07363 0.99429 0.9969 0.0
C631 C 1.05093 1.01758 0.9967 0.0
O632 O 0.08818 0.06604 0.95153 0.0
O633 O 0.13405 0.11605 0.96765 0.0
O634 O 0.12097 0.16845 0.9844 0.0
O635 O 0.07566 0.15084 0.97438 0.0
O636 O 0.09881 0.1386 0.95705 0.0
O637 O 1.04605 0.08833 0.95807 0.0
O638 O 0.18492 0.11791 1.0047 0.0
O639 O 0.10806 0.08978 0.99136 0.0
O640 O 0.12967 0.06441 0.95888 0.0
O641 O 0.17222 0.08626 0.96922 0.0
O642 O 0.11569 0.12227 1.00572 0.0
O643 O 0.16559 0.07557 0.9967 0.0
C644 C 0.12827 0.13744 0.95934 0.0
C645 C 0.05809 0.08998 0.93485 0.0
C646 C 1.0508 0.13829 0.92237 0.0
C647 C 0.05294 0.12205 0.9346 0.0
C648 C 0.05591 0.12213 0.9101 0.0
C649 C 0.06318 0.074 0.92263 0.0
C650 C 0.06234 0.09018 0.91028 0.0
C651 C 0.09191 0.17542 0.97974 0.0
C652 C 0.06035 0.07451 0.94809 0.0
C653 C 1.02305 1.01441 1.00394 0.0
C654 C 1.00129 1.03856 1.00397 0.0
C655 C 0.09734 0.09951 1.00302 0.0
C656 C 0.21645 0.07278 1.00579 0.0
C657 C 0.21918 1.04302 1.01156 0.0
C658 C 0.24861 1.02927 1.01339 0.0
C659 C 0.27495 1.04467 1.00824 0.0
C660 C 0.24342 0.08864 1.00179 0.0
C661 C 0.27228 0.07415 1.0025 0.0
C662 C 0.16123 0.06541 0.95968 0.0
C663 C 0.18565 0.08772 1.00502 0.0
H664 H 1.04973 0.1345 0.94407 0.0
H665 H 0.05372 0.13376 0.90038 0.0
H666 H 0.06795 1.04926 0.92265 0.0
H667 H 0.06605 0.07784 0.90081 0.0
H668 H 0.19859 1.03142 1.01535 0.0
H669 H 0.29803 1.03517 1.00962 0.0
H670 H 0.24246 0.11252 0.99848 0.0
H671 H 0.29287 0.08646 0.99924 0.0
Eu672 Eu 0.86813 0.90285 0.73771 0.0
C673 C 0.79792 0.80399 0.7404 0.0
C674 C 0.82124 0.75394 0.74545 0.0
C675 C 0.77147 0.76773 0.75543 0.0
C676 C 0.82219 0.78299 0.73878 0.0
C677 C 0.77213 0.79636 0.74859 0.0
C678 C 0.79601 0.74665 0.75391 0.0
C679 C 0.74988 0.84643 0.74306 0.0
N680 N 0.79981 0.83217 0.73422 0.0
C681 C 0.77605 0.85314 0.73519 0.0
C682 C 0.74793 0.81796 0.74982 0.0
Eu683 Eu 0.84263 0.83966 0.71959 0.0
N684 N 0.8463 0.79059 0.73048 0.0
C685 C 0.86864 0.76903 0.72749 0.0
C686 C 0.84535 0.73275 0.74319 0.0
C687 C 0.86892 0.74018 0.73403 0.0
H688 H 0.77743 0.87515 0.72996 0.0
H689 H 0.88701 0.72345 0.73179 0.0
H690 H 0.79505 0.72454 0.75917 0.0
H691 H 0.73127 0.86323 0.74392 0.0
H692 H 0.886 0.77359 0.71983 0.0
H693 H 0.86328 1.02304 0.71909 0.0
H694 H 0.84547 0.71024 0.74813 0.0
H695 H 0.92262 0.87824 0.76152 0.0
H696 H 0.84215 0.97376 0.72734 0.0
H697 H 0.97635 0.88901 0.76757 0.0
H698 H 0.75205 0.76165 0.7619 0.0
H699 H 0.91975 1.03283 0.72014 0.0
H700 H 0.97208 1.01554 0.72815 0.0
H701 H 0.72776 0.81294 0.75602 0.0
H702 H 1.00323 0.97835 0.7413 0.0
N703 N 0.88649 0.95295 0.731 0.0
C704 C 0.86702 0.97641 0.72696 0.0
C705 C 0.91065 1.01052 0.72334 0.0
C706 C 0.93006 0.98793 0.72901 0.0
C707 C 0.87883 1.00502 0.72266 0.0
C708 C 0.91704 0.95917 0.73302 0.0
H709 H 1.00478 0.93166 0.75637 0.0
N710 N 0.91971 0.9135 0.74613 0.0
C711 C 0.96492 0.90301 0.75991 0.0
C712 C 0.93431 0.9386 0.74071 0.0
C713 C 0.93401 0.89717 0.75643 0.0
C714 C 0.98094 0.92695 0.7535 0.0
C715 C 0.96537 0.94583 0.74417 0.0
O716 O 0.82211 0.9145 0.74553 0.0
O717 O 0.83884 0.85884 0.74137 0.0
O718 O 0.81186 0.88165 0.7092 0.0
O719 O 0.83483 0.92439 0.71885 0.0
O720 O 0.87217 0.86713 0.75533 0.0
O721 O 0.86272 0.93584 0.75444 0.0
O722 O 0.80117 0.83456 0.70725 0.0
O723 O 0.86279 0.88505 0.71745 0.0
O724 O 0.9157 0.87271 0.73345 0.0
O725 O 0.89758 0.82647 0.72437 0.0
O726 O 0.88321 0.85091 0.70543 0.0
O727 O 0.84042 0.80434 0.70352 0.0
C728 C 0.84953 0.84839 0.75291 0.0
C729 C 0.81904 0.92836 0.76866 0.0
C730 C 0.78017 0.94576 0.78507 0.0
C731 C 0.79181 0.94466 0.77168 0.0
C732 C 0.79452 0.92687 0.79501 0.0
C733 C 0.8334 0.91037 0.77874 0.0
C734 C 0.82057 0.90894 0.79176 0.0
C735 C 0.81318 0.91326 0.70974 0.0
C736 C 0.83276 0.93235 0.75512 0.0
C737 C 0.97928 0.97279 0.73896 0.0
C738 C 0.96156 0.99397 0.73148 0.0
C739 C 0.8832 0.88008 0.7086 0.0
C740 C 0.80884 0.81828 0.68464 0.0
C741 C 0.81688 0.79398 0.67604 0.0
C742 C 0.81357 0.79668 0.66191 0.0
C743 C 0.80185 0.82427 0.65631 0.0
C744 C 0.79655 0.84578 0.67903 0.0
C745 C 0.79305 0.84866 0.66491 0.0
C746 C 0.9223 0.84326 0.72918 0.0
C747 C 0.81317 0.81363 0.69934 0.0
H748 H 0.78073 0.95777 0.76363 0.0
H749 H 0.78692 0.92705 0.8055 0.0
H750 H 0.85459 0.89774 0.77665 0.0
H751 H 0.83167 0.89498 0.79953 0.0
H752 H 0.8269 0.7731 0.68043 0.0
H753 H 0.79978 0.82695 0.64538 0.0
H754 H 0.7898 0.86501 0.68545 0.0
H755 H 0.78386 0.86996 0.66065 0.0
Eu756 Eu 0.95354 0.13083 0.4848 0.0
C757 C 1.04271 1.0509 0.48841 0.0
C758 C 0.09098 0.06953 0.49839 0.0
C759 C 0.07357 1.01692 0.50296 0.0
C760 C 0.06455 0.0746 0.49014 0.0
C761 C 1.04705 1.02197 0.49496 0.0
C762 C 0.0954 1.04062 0.5047 0.0
C763 C 0.99733 1.00559 0.4862 0.0
N764 N 1.01659 0.05657 0.48094 0.0
C765 C 0.99393 1.03446 0.47987 0.0
C766 C 1.02411 0.99918 0.49365 0.0
Eu767 Eu 1.01729 0.10402 0.46866 0.0
N768 N 0.05971 0.10268 0.48406 0.0
C769 C 0.08116 0.12594 0.48537 0.0
C770 C 0.11235 0.09368 0.50008 0.0
C771 C 0.10745 0.12193 0.49351 0.0
H772 H 0.97296 1.03877 0.4743 0.0
H773 H 0.12429 0.14047 0.49448 0.0
H774 H 0.11557 1.03642 0.51104 0.0
H775 H 0.97924 0.98825 0.48531 0.0
H776 H 0.07917 0.14729 0.47974 0.0
H777 H 0.87978 0.16204 0.44045 0.0
H778 H 0.1329 0.09062 0.50632 0.0
H779 H 0.95746 0.16751 0.5156 0.0
H780 H 0.91915 0.13294 0.45227 0.0
H781 H 0.93521 0.21252 0.52698 0.0
H782 H 0.07717 0.99487 0.50805 0.0
H783 H 0.85375 0.2063 0.45154 0.0
H784 H 0.84814 0.24063 0.47167 0.0
H785 H 1.02656 0.97678 0.49858 0.0
H786 H 0.86366 0.25484 0.49486 0.0
N787 N 0.9157 0.15818 0.47114 0.0
C788 C 0.90788 0.15102 0.45793 0.0
C789 C 0.87093 0.19301 0.45713 0.0
C790 C 0.87908 0.20096 0.47042 0.0
C791 C 0.88549 0.16804 0.45086 0.0
C792 C 0.90173 0.18295 0.47732 0.0
H793 H 0.89609 0.24486 0.51533 0.0
N794 N 0.93267 0.17406 0.49691 0.0
C795 C 0.92824 0.20696 0.51667 0.0
C796 C 0.91068 0.19126 0.49042 0.0
C797 C 0.94117 0.18139 0.50998 0.0
C798 C 0.90612 0.22508 0.51008 0.0
C799 C 0.89693 0.21731 0.49688 0.0
O800 O 0.91547 0.12318 0.49904 0.0
O801 O 0.99488 0.0984 0.48972 0.0
O802 O 0.97642 0.07563 0.45621 0.0
O803 O 0.93306 0.09495 0.46707 0.0
O804 O 0.98607 0.13199 0.50369 0.0
O805 O 0.93861 0.08375 0.48971 0.0
O806 O 1.03971 0.06936 0.45566 0.0
O807 O 0.98347 0.14012 0.46768 0.0
O808 O 0.98544 0.17801 0.48497 0.0
O809 O 1.0289 0.1602 0.47334 0.0
O810 O 0.99384 0.12093 0.44927 0.0
O811 O 0.05883 0.11578 0.45726 0.0
C812 C 1.00369 0.10818 0.5017 0.0
C813 C 0.88501 0.07966 0.49324 0.0
C814 C 0.84403 1.04148 0.49756 0.0
C815 C 0.8741 0.05334 0.50012 0.0
C816 C 0.82645 0.0556 0.48705 0.0
C817 C 0.86702 0.09306 0.48293 0.0
C818 C 0.83812 0.08072 0.47972 0.0
C819 C 0.94475 0.0758 0.45714 0.0
C820 C 0.9151 0.09319 0.49697 0.0
C821 C 0.87436 0.23485 0.49004 0.0
C822 C 0.86547 0.2267 0.47686 0.0
C823 C 0.9786 0.14298 0.45515 0.0
C824 C 0.09456 0.07448 0.45687 0.0
C825 C 0.12005 0.09415 0.45559 0.0
C826 C 0.14951 0.08521 0.46017 0.0
C827 C 0.15387 0.05545 0.46562 0.0
C828 C 0.09892 1.04466 0.46245 0.0
C829 C 0.1285 1.03527 0.46679 0.0
C830 C 1.01392 0.18479 0.47958 0.0
C831 C 0.06368 0.08711 0.45344 0.0
H832 H 0.88914 1.04297 0.50766 0.0
H833 H 0.80301 1.04854 0.48471 0.0
H834 H 0.87514 0.11321 0.47744 0.0
H835 H 0.82421 0.09135 0.4718 0.0
H836 H 0.11687 0.11688 0.45099 0.0
H837 H 0.17666 1.04793 0.46892 0.0
H838 H 0.07955 1.02888 0.46369 0.0
H839 H 0.13171 1.01236 0.47113 0.0
Eu840 Eu 0.72536 0.19073 0.23738 0.0
C841 C 0.79587 0.28819 0.24115 0.0
C842 C 0.77543 0.33972 0.24585 0.0
C843 C 0.82372 0.32302 0.2564 0.0
C844 C 0.77301 0.31065 0.23925 0.0
C845 C 0.82139 0.29416 0.24978 0.0
C846 C 0.80082 0.34572 0.25444 0.0
C847 C 0.83974 0.242 0.24523 0.0
N848 N 0.79252 0.26004 0.23502 0.0
C849 C 0.81409 0.23713 0.23676 0.0
C850 C 0.84345 0.27064 0.25175 0.0
Eu851 Eu 0.75063 0.25563 0.21976 0.0
N852 N 0.74853 0.30416 0.23097 0.0
C853 C 0.72679 0.32639 0.22817 0.0
C854 C 0.75231 0.36201 0.24356 0.0
C855 C 0.72803 0.35538 0.2346 0.0
H856 H 0.81152 0.2151 0.23164 0.0
H857 H 0.71054 0.3728 0.23247 0.0
H858 H 0.80293 0.36786 0.25964 0.0
H859 H 0.85666 0.22368 0.2467 0.0
H860 H 0.70882 0.32221 0.22072 0.0
H861 H 0.70452 0.07469 0.21657 0.0
H862 H 0.75331 0.38457 0.24846 0.0
H863 H 0.68295 0.22751 0.26198 0.0
H864 H 0.7349 0.12116 0.22215 0.0
H865 H 0.6314 0.22386 0.27245 0.0
H866 H 0.84304 0.32794 0.26314 0.0
H867 H 0.64929 0.0715 0.2232 0.0
H868 H 0.60434 0.09484 0.23572 0.0
H869 H 0.86327 0.27428 0.25836 0.0
H870 H 0.58456 0.13537 0.2511 0.0
N871 N 0.6969 0.14572 0.231 0.0
C872 C 0.71064 0.12085 0.22474 0.0
C873 C 0.66248 0.09227 0.22555 0.0
C874 C 0.64919 0.11671 0.23293 0.0
C875 C 0.69361 0.094 0.22178 0.0
C876 C 0.66749 0.14314 0.23586 0.0
H877 H 0.5948 0.1829 0.26514 0.0
N878 N 0.67627 0.18865 0.24872 0.0
C879 C 0.63827 0.20721 0.26474 0.0
C880 C 0.6568 0.16531 0.24494 0.0
C881 C 0.66779 0.20883 0.25891 0.0
C882 C 0.6176 0.18419 0.26053 0.0
C883 C 0.62692 0.16253 0.25072 0.0
O884 O 0.73184 0.15142 0.25116 0.0
O885 O 0.74635 0.23872 0.24165 0.0
O886 O 0.7818 0.21298 0.20959 0.0
O887 O 0.75829 0.16949 0.21842 0.0
O888 O 0.73615 0.21354 0.25824 0.0
O889 O 0.77191 0.1747 0.24261 0.0
O890 O 0.79311 0.26407 0.20856 0.0
O891 O 0.73141 0.20996 0.21729 0.0
O892 O 0.67785 0.22153 0.23303 0.0
O893 O 0.69565 0.2685 0.2243 0.0
O894 O 0.71108 0.24411 0.2051 0.0
O895 O 0.75176 0.29044 0.20349 0.0
C896 C 0.74847 0.23965 0.25498 0.0
C897 C 0.77792 0.15316 0.26446 0.0
C898 C 0.82303 0.13715 0.27781 0.0
C899 C 0.80769 0.14004 0.26522 0.0
C900 C 0.80905 0.15018 0.28948 0.0
C901 C 0.7638 0.16457 0.27634 0.0
C902 C 0.77975 0.1639 0.28869 0.0
C903 C 0.78036 0.1812 0.20967 0.0
C904 C 0.76203 0.15392 0.2512 0.0
C905 C 0.60768 0.13767 0.24689 0.0
C906 C 0.61889 0.11466 0.23809 0.0
C907 C 0.71129 0.21495 0.20827 0.0
C908 C 0.78696 0.27843 0.18561 0.0
C909 C 0.78081 0.30265 0.17668 0.0
C910 C 0.78658 0.29951 0.16271 0.0
C911 C 0.79871 0.27158 0.15761 0.0
C912 C 0.79971 0.2506 0.18051 0.0
C913 C 0.80555 0.24727 0.16657 0.0
C914 C 0.67108 0.25123 0.22897 0.0
C915 C 0.78027 0.28344 0.20012 0.0
H916 H 0.81825 0.13082 0.25605 0.0
H917 H 0.81971 0.14805 0.29941 0.0
H918 H 0.74043 0.17377 0.27619 0.0
H919 H 0.76885 0.17296 0.29779 0.0
H920 H 0.77047 0.32385 0.18063 0.0
H921 H 0.80266 0.26859 0.1468 0.0
H922 H 0.80507 0.23147 0.1872 0.0
H923 H 0.8151 0.22571 0.1627 0.0
Eu924 Eu 0.65817 0.97609 0.98433 0.0
C925 C 0.56365 0.05211 0.99249 0.0
C926 C 0.51287 1.032 0.99851 0.0
C927 C 0.53138 0.08001 1.00876 0.0
C928 C 0.54078 1.02955 0.99106 0.0
C929 C 0.55897 0.07777 1.00123 0.0
C930 C 0.50847 0.05712 1.00746 0.0
C931 C 0.60966 0.09678 0.99473 0.0
N932 N 0.59078 1.04862 0.9856 0.0
C933 C 0.61337 0.07084 0.98629 0.0
C934 C 0.5824 0.10022 1.00228 0.0
Eu935 Eu 0.59285 1.0068 0.97004 0.0
N936 N 0.54558 1.00551 0.9823 0.0
C937 C 0.52253 0.98445 0.9798 0.0
C938 C 0.48997 1.00935 0.9966 0.0
C939 C 0.4947 0.98567 0.98709 0.0
H940 H 0.63432 0.06843 0.98035 0.0
H941 H 0.4767 0.96865 0.98521 0.0
H942 H 0.48726 0.05923 1.01331 0.0
H943 H 0.6278 0.11412 0.9954 0.0
H944 H 0.52518 0.96702 0.97195 0.0
H945 H 0.724 0.95372 0.93674 0.0
H946 H 0.46826 1.01038 1.00215 0.0
H947 H 0.65356 0.92859 1.01163 0.0
H948 H 0.68215 0.97567 0.95027 0.0
H949 H 0.68127 0.88429 1.02145 0.0
H950 H 0.52756 0.09934 1.01565 0.0
H951 H 0.75955 0.91492 0.9467 0.0
H952 H 0.77287 0.88028 0.96616 0.0
H953 H 0.57969 0.12022 1.00889 0.0
H954 H 0.76037 0.86038 0.98891 0.0
N955 N 0.69541 0.95314 0.96886 0.0
C956 C 0.69826 0.96037 0.9553 0.0
C957 C 0.7417 0.9254 0.95299 0.0
C958 C 0.73714 0.91581 0.96641 0.0
C959 C 0.72173 0.9473 0.94734 0.0
C960 C 0.71345 0.93011 0.97419 0.0
H961 H 0.72581 0.86106 1.00931 0.0
N962 N 0.68136 0.93068 0.99369 0.0
C963 C 0.68841 0.89356 1.0117 0.0
C964 C 0.70592 0.91829 0.98689 0.0
C965 C 0.67257 0.91873 1.00599 0.0
C966 C 0.71361 0.88061 1.00486 0.0
C967 C 0.72258 0.89279 0.99228 0.0
O968 O 0.69824 0.98121 0.99784 0.0
O969 O 0.61694 1.00716 0.99054 0.0
O970 O 0.63517 1.03482 0.95832 0.0
O971 O 0.6791 1.0131 0.96744 0.0
O972 O 0.62591 0.97159 1.0034 0.0
O973 O 0.67102 1.02151 0.99246 0.0
O974 O 0.59151 1.04919 0.95815 0.0
O975 O 0.6324 0.9775 0.96515 0.0
O976 O 0.62347 0.93153 0.98525 0.0
O977 O 0.57809 0.95175 0.97583 0.0
O978 O 0.59201 0.96901 0.95428 0.0
O979 O 0.55364 1.01629 0.95649 0.0
C980 C 0.60791 0.99552 1.00209 0.0
C981 C 0.72428 1.02926 0.99602 0.0
C982 C 0.76163 0.06756 1.00415 0.0
C983 C 0.7345 1.04993 1.00605 0.0
C984 C 0.77796 0.0648 0.99182 0.0
C985 C 0.74117 1.02621 0.98388 0.0
C986 C 0.76766 1.04428 0.98174 0.0
C987 C 0.66682 1.03394 0.95845 0.0
C988 C 0.69589 1.01132 0.99849 0.0
C989 C 0.74725 0.87982 0.98488 0.0
C990 C 0.75448 0.89126 0.97196 0.0
C991 C 0.62001 0.95929 0.95635 0.0
C992 C 0.56685 1.04585 0.93683 0.0
C993 C 0.54189 1.035 0.92922 0.0
C994 C 0.54149 1.03796 0.91503 0.0
C995 C 0.56643 0.05222 0.90834 0.0
C996 C 0.59155 0.0608 0.93011 0.0
C997 C 0.59128 0.06392 0.91594 0.0
C998 C 0.59384 0.92631 0.98098 0.0
C999 C 0.56627 1.04168 0.9517 0.0
H1000 H 0.72188 1.05129 1.01558 0.0
H1001 H 0.79894 0.07809 0.99009 0.0
H1002 H 0.73412 1.00979 0.97613 0.0
H1003 H 0.78053 1.042 0.97233 0.0
H1004 H 0.52299 1.02321 0.93436 0.0
H1005 H 0.56666 0.05423 0.89736 0.0
H1006 H 0.61107 0.0699 0.93575 0.0
H1007 H 0.61049 0.07516 0.91083 0.0
Eu1008 Eu 0.87356 0.19722 0.86066 0.0
C1009 C 0.79439 0.28711 0.85442 0.0
C1010 C 0.81445 0.33708 0.84684 0.0
C1011 C 0.76435 0.31893 0.83869 0.0
C1012 C 0.81772 0.3098 0.85471 0.0
C1013 C 0.76749 0.29172 0.84644 0.0
C1014 C 0.7878 0.3414 0.83882 0.0
C1015 C 0.74937 0.24108 0.85353 0.0
N1016 N 0.7985 0.2601 0.86146 0.0
C1017 C 0.77637 0.23733 0.86124 0.0
C1018 C 0.74484 0.2684 0.84614 0.0
Eu1019 Eu 0.84201 0.25994 0.87606 0.0
N1020 N 0.84354 0.30523 0.86253 0.0
C1021 C 0.86559 0.32792 0.86362 0.0
C1022 C 0.83795 0.35947 0.84731 0.0
C1023 C 0.86347 0.35498 0.85582 0.0
H1024 H 0.77944 0.21618 0.86694 0.0
H1025 H 0.88121 0.37271 0.85661 0.0
H1026 H 0.78505 0.36217 0.83271 0.0
H1027 H 0.73203 0.22289 0.8533 0.0
H1028 H 0.8844 0.32601 0.87081 0.0
H1029 H 0.91038 0.12722 0.90535 0.0
H1030 H 0.83628 0.38064 0.84138 0.0
H1031 H 0.90613 0.19783 0.82909 0.0
H1032 H 0.87709 0.16211 0.89302 0.0
H1033 H 0.95312 0.1796 0.81781 0.0
H1034 H 0.74399 0.32266 0.83242 0.0
H1035 H 0.95817 0.10682 0.89488 0.0
H1036 H 0.99338 0.10424 0.87495 0.0
H1037 H 0.72396 0.27109 0.8401 0.0
H1038 H 1.00541 0.11896 0.85144 0.0
N1039 N 0.90354 0.16155 0.87442 0.0
C1040 C 0.89664 0.15303 0.88756 0.0
C1041 C 0.94304 0.12192 0.88905 0.0
C1042 C 0.95032 0.13031 0.87572 0.0
C1043 C 0.91607 0.13328 0.89495 0.0
C1044 C 0.9299 0.15024 0.86851 0.0
H1045 H 0.99077 0.14694 0.83023 0.0
N1046 N 0.91716 0.17776 0.84842 0.0
C1047 C 0.94909 0.17385 0.82839 0.0
C1048 C 0.93698 0.15879 0.85526 0.0
C1049 C 0.92252 0.18466 0.83501 0.0
C1050 C 0.9702 0.15535 0.83541 0.0
C1051 C 0.96418 0.14728 0.84892 0.0
O1052 O 0.86682 0.15873 0.84645 0.0
O1053 O 0.84025 0.23729 0.855 0.0
O1054 O 0.81292 0.21751 0.88682 0.0
O1055 O 0.83884 0.17488 0.87845 0.0
O1056 O 0.87627 0.23079 0.84209 0.0
O1057 O 0.82706 0.18013 0.85628 0.0
O1058 O 0.80016 0.2769 0.8856 0.0
O1059 O 0.87941 0.22756 0.87799 0.0
O1060 O 0.91843 0.23184 0.8605 0.0
O1061 O 0.89846 0.27366 0.87279 0.0
O1062 O 0.85794 0.23771 0.89588 0.0
O1063 O 0.84414 0.29913 0.89037 0.0
C1064 C 0.85139 0.24718 0.84345 0.0
C1065 C 0.81921 0.15945 0.83445 0.0
C1066 C 0.77841 0.13528 0.82084 0.0
C1067 C 0.79401 0.13913 0.83332 0.0
C1068 C 0.78695 0.1545 0.80983 0.0
C1069 C 0.82773 0.17793 0.82334 0.0
C1070 C 0.81116 0.17591 0.81117 0.0
C1071 C 0.81636 0.18605 0.88707 0.0
C1072 C 0.83662 0.16012 0.84725 0.0
C1073 C 0.98443 0.12781 0.85614 0.0
C1074 C 0.97753 0.11938 0.86951 0.0
C1075 C 0.88099 0.22299 0.89059 0.0
C1076 C 0.80667 0.29368 0.90801 0.0
C1077 C 0.81422 0.31832 0.91647 0.0
C1078 C 0.80733 0.31734 0.9304 0.0
C1079 C 0.79261 0.29116 0.93591 0.0
C1080 C 0.79146 0.26755 0.9135 0.0
C1081 C 0.78443 0.26641 0.9274 0.0
C1082 C 0.92382 0.26008 0.86642 0.0
C1083 C 0.81476 0.2961 0.89354 0.0
H1084 H 0.78745 0.12549 0.84212 0.0
H1085 H 0.77612 0.15209 0.79994 0.0
H1086 H 0.84721 0.1937 0.82403 0.0
H1087 H 0.81778 0.19022 0.8026 0.0
H1088 H 0.82662 0.338 0.91221 0.0
H1089 H 0.7878 0.2898 0.94671 0.0
H1090 H 0.7851 0.24803 0.90714 0.0
H1091 H 0.77298 0.24618 0.93158 0.0
Eu1092 Eu 0.64883 0.11642 0.61019 0.0
C1093 C 0.55023 1.04583 0.60953 0.0
C1094 C 0.5 0.06912 0.60494 0.0
C1095 C 0.51276 1.01859 0.59533 0.0
C1096 C 0.52949 0.07032 0.6112 0.0
C1097 C 0.54186 1.01952 0.60176 0.0
C1098 C 0.49197 1.04339 0.59685 0.0
C1099 C 0.59212 0.99729 0.60686 0.0
N1100 N 0.57883 1.04796 0.6153 0.0
C1101 C 0.59958 1.024 0.6143 0.0
C1102 C 0.56317 0.99507 0.60052 0.0
Eu1103 Eu 0.58753 0.09154 0.62945 0.0
N1104 N 0.53776 0.09487 0.61917 0.0
C1105 C 0.51654 0.1175 0.62222 0.0
C1106 C 0.47911 0.09348 0.60723 0.0
C1107 C 0.48728 0.11755 0.61606 0.0
H1108 H 0.62196 1.02559 0.61919 0.0
H1109 H 0.47081 0.13585 0.61834 0.0
H1110 H 0.4695 1.04221 0.59191 0.0
H1111 H 0.60872 0.9785 0.60598 0.0
H1112 H 0.52165 0.13525 0.62968 0.0
H1113 H 0.77039 0.11162 0.62678 0.0
H1114 H 0.45628 0.09342 0.60259 0.0
H1115 H 0.62197 0.17052 0.58665 0.0
H1116 H 0.72027 0.09046 0.61963 0.0
H1117 H 0.63232 0.22411 0.58017 0.0
H1118 H 0.5061 0.99877 0.58917 0.0
H1119 H 0.78043 0.16803 0.62509 0.0
H1120 H 0.76274 0.22018 0.61703 0.0
H1121 H 0.55758 0.97448 0.59464 0.0
H1122 H 0.72442 0.2512 0.60446 0.0
N1123 N 0.6994 0.13485 0.61604 0.0
C1124 C 0.72309 0.11537 0.61979 0.0
C1125 C 0.75778 0.15896 0.6224 0.0
C1126 C 0.73478 0.17831 0.61703 0.0
C1127 C 0.75215 0.12717 0.62344 0.0
C1128 C 0.70557 0.16534 0.61368 0.0
H1129 H 0.6762 0.25264 0.59039 0.0
N1130 N 0.65861 0.1679 0.60143 0.0
C1131 C 0.647 0.21281 0.58762 0.0
C1132 C 0.68433 0.18252 0.60629 0.0
C1133 C 0.64138 0.182 0.59136 0.0
C1134 C 0.67164 0.22889 0.59348 0.0
C1135 C 0.69138 0.21345 0.6025 0.0
O1136 O 0.65973 0.07067 0.6017 0.0
O1137 O 0.60477 0.0866 0.60736 0.0
O1138 O 0.62996 0.06104 0.63949 0.0
O1139 O 0.67178 0.08328 0.6289 0.0
O1140 O 0.61087 0.12056 0.5935 0.0
O1141 O 0.68083 0.11157 0.59307 0.0
O1142 O 0.58389 1.05079 0.64233 0.0
O1143 O 0.6331 0.1116 0.63076 0.0
O1144 O 0.61942 0.16436 0.61484 0.0
O1145 O 0.57414 0.14655 0.6248 0.0
O1146 O 0.60019 0.13258 0.64322 0.0
O1147 O 0.55318 0.0898 0.64586 0.0
C1148 C 0.59309 0.09724 0.59604 0.0
C1149 C 0.67284 0.06868 0.57844 0.0
C1150 C 0.69102 1.03374 0.56059 0.0
C1151 C 0.69294 1.04523 0.57397 0.0
C1152 C 0.66685 1.04421 0.55211 0.0
C1153 C 0.65 0.08013 0.56958 0.0
C1154 C 0.64642 0.06722 0.55663 0.0
C1155 C 0.6614 0.06214 0.63842 0.0
C1156 C 0.67737 0.08162 0.59213 0.0
C1157 C 0.71896 0.22735 0.60706 0.0
C1158 C 0.74078 0.2097 0.61421 0.0
C1159 C 0.62903 0.13229 0.63961 0.0
C1160 C 0.56861 0.05975 0.66498 0.0
C1161 C 0.5444 0.06743 0.67364 0.0
C1162 C 0.54778 0.06536 0.68779 0.0
C1163 C 0.57599 0.05519 0.69335 0.0
C1164 C 0.59678 1.04902 0.67055 0.0
C1165 C 0.60034 1.04669 0.68469 0.0
C1166 C 0.59049 0.17117 0.61963 0.0
C1167 C 0.56319 0.06297 0.65028 0.0
H1168 H 0.71114 1.03707 0.58072 0.0
H1169 H 0.66489 1.03612 0.5417 0.0
H1170 H 0.63512 0.09913 0.57256 0.0
H1171 H 0.6285 0.0759 0.5499 0.0
H1172 H 0.52301 0.07632 0.66926 0.0
H1173 H 0.57921 0.05416 0.70428 0.0
H1174 H 0.61601 1.04266 0.66408 0.0
H1175 H 0.62214 1.0387 0.68892 0.0
Eu1176 Eu 0.73549 0.9175 0.35813 0.0
C1177 C 0.80619 0.82287 0.35622 0.0
C1178 C 0.7866 0.77163 0.35035 0.0
C1179 C 0.83614 0.78901 0.3413 0.0
C1180 C 0.78323 0.80024 0.35726 0.0
C1181 C 0.83268 0.81755 0.34809 0.0
C1182 C 0.8132 0.76611 0.34244 0.0
C1183 C 0.84956 0.86985 0.35326 0.0
N1184 N 0.80171 0.85077 0.36244 0.0
C1185 C 0.82299 0.87406 0.36121 0.0
C1186 C 0.85451 0.84144 0.34671 0.0
Eu1187 Eu 0.75833 0.85374 0.37699 0.0
N1188 N 0.75737 0.80643 0.36474 0.0
C1189 C 0.73478 0.78443 0.36625 0.0
C1190 C 0.76298 0.74948 0.35147 0.0
C1191 C 0.73703 0.75587 0.3595 0.0
H1192 H 0.81956 0.89594 0.36631 0.0
H1193 H 0.71898 0.7386 0.36068 0.0
H1194 H 0.81608 0.74432 0.33703 0.0
H1195 H 0.86625 0.88848 0.35221 0.0
H1196 H 0.7154 0.78824 0.373 0.0
H1197 H 0.71746 1.03291 0.38025 0.0
H1198 H 0.76468 0.72728 0.34629 0.0
H1199 H 0.69254 0.8847 0.33259 0.0
H1200 H 0.74696 0.98648 0.37383 0.0
H1201 H 0.64114 0.8906 0.3222 0.0
H1202 H 0.85628 0.78457 0.33498 0.0
H1203 H 0.66192 1.03723 0.37425 0.0
H1204 H 0.61621 1.01556 0.36171 0.0
H1205 H 0.87505 0.83831 0.34049 0.0
H1206 H 0.59551 0.97683 0.34569 0.0
N1207 N 0.7082 0.96289 0.36509 0.0
C1208 C 0.72258 0.98721 0.37148 0.0
C1209 C 0.67472 1.01643 0.37152 0.0
C1210 C 0.66079 0.99271 0.36395 0.0
C1211 C 0.70603 1.01407 0.37493 0.0
C1212 C 0.67859 0.96621 0.36053 0.0
H1213 H 0.60501 0.93092 0.33058 0.0
N1214 N 0.68636 0.9217 0.3469 0.0
C1215 C 0.64819 0.90603 0.33035 0.0
C1216 C 0.6673 0.94496 0.35117 0.0
C1217 C 0.67764 0.90312 0.33618 0.0
C1218 C 0.62778 0.92866 0.33517 0.0
C1219 C 0.63743 0.9489 0.34548 0.0
O1220 O 0.78172 0.93133 0.35136 0.0
O1221 O 0.75506 0.86854 0.35471 0.0
O1222 O 0.78855 0.89551 0.38814 0.0
O1223 O 0.77118 0.93846 0.37639 0.0
O1224 O 0.74584 0.89292 0.33771 0.0
O1225 O 0.74142 0.95684 0.34434 0.0
O1226 O 0.79847 0.84576 0.38992 0.0
O1227 O 0.7405 0.90028 0.37856 0.0
O1228 O 0.68755 0.88644 0.36165 0.0
O1229 O 0.70293 0.84219 0.37347 0.0
O1230 O 0.71846 0.86766 0.39101 0.0
O1231 O 0.75846 0.81533 0.39144 0.0
C1232 C 0.75731 0.86674 0.34139 0.0
C1233 C 0.78409 0.95207 0.32922 0.0
C1234 C 0.82628 0.96568 0.31373 0.0
C1235 C 0.81397 0.9639 0.32699 0.0
C1236 C 0.80914 0.95257 0.30292 0.0
C1237 C 0.76685 0.94059 0.31817 0.0
C1238 C 0.77978 0.93996 0.30518 0.0
C1239 C 0.79027 0.92703 0.38654 0.0
C1240 C 0.77127 0.95258 0.34311 0.0
C1241 C 0.61864 0.97368 0.34982 0.0
C1242 C 0.63038 0.99567 0.35897 0.0
C1243 C 0.71968 0.89652 0.38735 0.0
C1244 C 0.78847 0.82304 0.41134 0.0
C1245 C 0.77724 0.7973 0.41826 0.0
C1246 C 0.77927 0.79526 0.43244 0.0
C1247 C 0.79281 0.8197 0.43982 0.0
C1248 C 0.80259 0.8473 0.4187 0.0
C1249 C 0.80467 0.84556 0.43291 0.0
C1250 C 0.67949 0.8584 0.36727 0.0
C1251 C 0.78549 0.823 0.39647 0.0
H1252 H 0.82698 0.97305 0.33556 0.0
H1253 H 0.81735 0.95381 0.29252 0.0
H1254 H 0.74332 0.93234 0.31948 0.0
H1255 H 0.76646 0.93086 0.29672 0.0
H1256 H 0.76592 0.77897 0.4125 0.0
H1257 H 0.79414 0.81879 0.45082 0.0
H1258 H 0.81186 0.86747 0.41354 0.0
H1259 H 0.81531 0.86435 0.43857 0.0
Eu1260 Eu 0.94173 0.97469 0.11141 0.0
C1261 C 1.03082 0.05478 0.10452 0.0
C1262 C 0.08077 1.03535 0.09662 0.0
C1263 C 0.06166 0.08526 0.08862 0.0
C1264 C 0.05381 1.03171 0.10464 0.0
C1265 C 1.03474 0.08173 0.0965 0.0
C1266 C 0.08448 0.06211 0.08862 0.0
C1267 C 0.984 0.09905 0.10378 0.0
N1268 N 1.00413 1.0503 0.11172 0.0
C1269 C 0.98094 0.07202 0.11154 0.0
C1270 C 1.01103 0.10401 0.09629 0.0
Eu1271 Eu 1.00505 1.00664 0.12625 0.0
N1272 N 1.04978 1.00571 0.1124 0.0
C1273 C 0.07269 0.9838 0.11326 0.0
C1274 C 0.10342 1.01202 0.09689 0.0
C1275 C 0.09946 0.98629 0.10532 0.0
H1276 H 0.95991 0.06858 0.11724 0.0
H1277 H 0.11735 0.96866 0.10594 0.0
H1278 H 0.105 0.06515 0.08239 0.0
H1279 H 0.96548 0.11608 0.1036 0.0
H1280 H 0.07117 0.96481 0.12038 0.0
H1281 H 0.87321 0.93831 0.15647 0.0
H1282 H 0.12434 1.01397 0.09083 0.0
H1283 H 0.94109 0.94216 0.07975 0.0
H1284 H 0.90701 0.97207 0.14381 0.0
H1285 H 0.92404 0.89415 0.06882 0.0
H1286 H 0.06487 0.10568 0.08233 0.0
H1287 H 0.85427 0.8894 0.14641 0.0
H1288 H 0.85271 0.85311 0.12677 0.0
H1289 H 1.01318 0.1249 0.09021 0.0
H1290 H 0.86726 0.84058 0.10328 0.0
N1291 N 0.90701 0.94472 0.12545 0.0
C1292 C 0.89845 0.952 0.13855 0.0
C1293 C 0.86883 0.90471 0.14043 0.0
C1294 C 0.87733 0.89704 0.12715 0.0
C1295 C 0.87936 0.93233 0.14611 0.0
C1296 C 0.8965 0.91773 0.11973 0.0
H1297 H 0.89378 0.85551 0.08176 0.0
N1298 N 0.92324 0.93042 0.0994 0.0
C1299 C 0.91894 0.89815 0.07947 0.0
C1300 C 0.90509 0.9103 0.10648 0.0
C1301 C 0.92916 0.92526 0.08588 0.0
C1302 C 0.90177 0.87647 0.08678 0.0
C1303 C 0.89418 0.88257 0.10035 0.0
O1304 O 0.89923 0.97944 0.09941 0.0
O1305 O 0.98161 1.00783 0.10545 0.0
O1306 O 0.96313 1.03609 0.13725 0.0
O1307 O 0.9205 1.00994 0.1292 0.0
O1308 O 0.97466 0.97165 0.09257 0.0
O1309 O 0.92757 1.01993 0.10362 0.0
O1310 O 1.02304 1.04825 0.13575 0.0
O1311 O 0.97256 0.96945 0.12864 0.0
O1312 O 0.97555 0.92935 0.11167 0.0
O1313 O 1.01899 0.95025 0.12248 0.0
O1314 O 0.98329 0.99151 0.14628 0.0
O1315 O 1.04455 1.0037 0.14028 0.0
C1316 C 0.99124 0.9965 0.09389 0.0
C1317 C 0.87399 1.02814 0.10125 0.0
C1318 C 0.8373 0.06757 0.09358 0.0
C1319 C 0.86385 1.04922 0.09139 0.0
C1320 C 0.82145 0.06512 0.10603 0.0
C1321 C 0.85765 1.02546 0.11354 0.0
C1322 C 0.83173 1.04424 0.11597 0.0
C1323 C 0.93176 1.03259 0.13767 0.0
C1324 C 0.90179 1.00954 0.0984 0.0
C1325 C 0.8756 0.862 0.10781 0.0
C1326 C 0.86723 0.86919 0.12117 0.0
C1327 C 0.96849 0.96817 0.14128 0.0
C1328 C 1.03929 1.04056 0.15818 0.0
C1329 C 0.06326 1.03163 0.16673 0.0
C1330 C 0.06156 1.03714 0.18077 0.0
C1331 C 1.03542 1.05184 0.18631 0.0
C1332 C 1.01323 0.05588 0.1637 0.0
C1333 C 1.01141 0.06151 0.17771 0.0
C1334 C 1.00454 0.92439 0.11686 0.0
C1335 C 1.04193 1.03309 0.14364 0.0
H1336 H 0.87605 1.05035 0.08174 0.0
H1337 H 0.80087 0.07893 0.10797 0.0
H1338 H 0.86468 1.00879 0.12118 0.0
H1339 H 0.81925 1.04223 0.12549 0.0
H1340 H 0.08297 1.01925 0.16246 0.0
H1341 H 1.03358 0.05562 0.19718 0.0
H1342 H 0.99422 0.0633 0.15728 0.0
H1343 H 0.99121 0.07301 0.18192 0.0
Eu1344 Eu 0.75675 0.76279 0.87617 0.0
C1345 C 0.65605 0.66993 0.85785 0.0
C1346 C 0.638 0.64713 0.87897 0.0
C1347 C 0.60378 0.64864 0.85935 0.0
C1348 C 0.6612 0.66281 0.87146 0.0
C1349 C 0.62754 0.66214 0.8516 0.0
C1350 C 0.60903 0.64106 0.87299 0.0
C1351 C 0.64922 0.67792 0.83007 0.0
N1352 N 0.67954 0.68276 0.8505 0.0
C1353 C 0.67708 0.68512 0.83665 0.0
C1354 C 0.6241 0.66705 0.83762 0.0
Eu1355 Eu 0.72393 0.69874 0.86311 0.0
N1356 N 0.68952 0.66898 0.87703 0.0
C1357 C 0.69689 0.65692 0.8895 0.0
C1358 C 0.64501 0.63668 0.89206 0.0
C1359 C 0.67482 0.64086 0.89718 0.0
H1360 H 0.69657 0.69208 0.83049 0.0
H1361 H 0.68079 0.63201 0.90716 0.0
H1362 H 0.5909 0.62948 0.87869 0.0
H1363 H 0.64726 0.68046 0.81914 0.0
H1364 H 0.71941 0.65995 0.89396 0.0
H1365 H 0.72161 0.86578 0.84692 0.0
H1366 H 0.62794 0.62439 0.8981 0.0
H1367 H 0.81746 0.71275 0.86863 0.0
H1368 H 0.71393 0.82267 0.86274 0.0
H1369 H 0.86786 0.71607 0.8574 0.0
H1370 H 0.58163 0.6429 0.85475 0.0
H1371 H 0.77217 0.87288 0.83553 0.0
H1372 H 0.82626 0.85425 0.83151 0.0
H1373 H 0.6026 0.66132 0.83246 0.0
H1374 H 0.86643 0.8145 0.83491 0.0
N1375 N 0.75917 0.80339 0.85985 0.0
C1376 C 0.73579 0.82427 0.8575 0.0
C1377 C 0.76885 0.85339 0.84236 0.0
C1378 C 0.79279 0.83214 0.8448 0.0
C1379 C 0.74021 0.84933 0.84868 0.0
C1380 C 0.78728 0.80697 0.85371 0.0
H1381 H 0.88204 0.76305 0.84442 0.0
N1382 N 0.80306 0.75858 0.86309 0.0
C1383 C 0.85197 0.73556 0.85694 0.0
C1384 C 0.80997 0.78422 0.85555 0.0
C1385 C 0.82328 0.73402 0.86353 0.0
C1386 C 0.85992 0.76214 0.84965 0.0
C1387 C 0.83862 0.78657 0.84861 0.0
O1388 O 0.79193 0.78378 0.88932 0.0
O1389 O 0.71914 0.73107 0.88025 0.0
O1390 O 0.67799 0.73053 0.86337 0.0
O1391 O 0.69973 0.77528 0.87239 0.0
O1392 O 0.74674 0.74121 0.89671 0.0
O1393 O 0.74954 0.80875 0.88497 0.0
O1394 O 0.72527 0.6514 0.85502 0.0
O1395 O 0.75834 0.73684 0.85613 0.0
O1396 O 0.78712 0.72202 0.88794 0.0
O1397 O 0.75927 0.67915 0.88122 0.0
O1398 O 0.72225 0.72933 0.84341 0.0
O1399 O 0.7666 0.67988 0.8544 0.0
C1400 C 0.72228 0.7267 0.89285 0.0
C1401 C 0.76769 0.80892 0.90747 0.0
C1402 C 0.73067 0.80336 0.92603 0.0
C1403 C 0.73848 0.80013 0.91232 0.0
C1404 C 0.75397 0.81273 0.93525 0.0
C1405 C 0.79067 0.81828 0.91668 0.0
C1406 C 0.78389 0.81968 0.93059 0.0
C1407 C 0.6734 0.76015 0.86753 0.0
C1408 C 0.77386 0.80664 0.89283 0.0
C1409 C 0.84456 0.81238 0.84028 0.0
C1410 C 0.82166 0.83499 0.83832 0.0
C1411 C 0.74745 0.7454 0.84439 0.0
C1412 C 0.77378 0.6263 0.85784 0.0
C1413 C 0.79744 0.61417 0.84967 0.0
C1414 C 0.81612 0.58944 0.8543 0.0
C1415 C 0.8116 0.578 0.86755 0.0
C1416 C 0.76865 0.61361 0.8708 0.0
C1417 C 0.78788 0.58997 0.8757 0.0
C1418 C 0.78302 0.69058 0.88901 0.0
C1419 C 0.75497 0.65223 0.85259 0.0
H1420 H 0.72115 0.79191 0.9052 0.0
H1421 H 0.74884 0.81629 0.94593 0.0
H1422 H 0.81366 0.82443 0.91313 0.0
H1423 H 0.80154 0.82717 0.93772 0.0
H1424 H 0.80013 0.62308 0.83942 0.0
H1425 H 0.82567 0.55909 0.87142 0.0
H1426 H 0.74981 0.62183 0.87712 0.0
H1427 H 0.78399 0.58041 0.88574 0.0
Eu1428 Eu 0.59516 0.50168 0.1285 0.0
C1429 C 0.69444 0.41285 0.10548 0.0
C1430 C 0.74453 0.41814 0.11643 0.0
C1431 C 0.73 0.36873 0.10642 0.0
C1432 C 0.71512 0.43049 0.11295 0.0
C1433 C 0.70226 0.38206 0.10171 0.0
C1434 C 0.75125 0.38685 0.11368 0.0
C1435 C 0.65831 0.38187 0.08658 0.0
N1436 N 0.66855 0.42695 0.10052 0.0
C1437 C 0.65191 0.41255 0.09034 0.0
C1438 C 0.68312 0.36625 0.09255 0.0
Eu1439 Eu 0.65719 0.47808 0.10937 0.0
N1440 N 0.70822 0.46085 0.11525 0.0
C1441 C 0.7314 0.48087 0.11905 0.0
C1442 C 0.76697 0.43802 0.12189 0.0
C1443 C 0.76063 0.46971 0.12284 0.0
H1444 H 0.63238 0.42367 0.08556 0.0
H1445 H 0.77845 0.48568 0.12623 0.0
H1446 H 0.77336 0.37682 0.1166 0.0
H1447 H 0.64409 0.3703 0.07903 0.0
H1448 H 0.728 0.50572 0.11885 0.0
H1449 H 0.4793 0.45744 0.11579 0.0
H1450 H 0.78976 0.42944 0.12468 0.0
H1451 H 0.63013 0.56781 0.11878 0.0
H1452 H 0.52951 0.45776 0.12764 0.0
H1453 H 0.61767 0.61493 0.10553 0.0
H1454 H 0.73605 0.34498 0.10383 0.0
H1455 H 0.46541 0.50038 0.10024 0.0
H1456 H 0.47904 0.55188 0.09001 0.0
H1457 H 0.68828 0.3426 0.08947 0.0
H1458 H 0.51577 0.5953 0.08781 0.0
N1459 N 0.54596 0.49861 0.11767 0.0
C1460 C 0.52472 0.47578 0.12029 0.0
C1461 C 0.48797 0.50024 0.10512 0.0
C1462 C 0.50887 0.52472 0.10323 0.0
C1463 C 0.49579 0.47588 0.11384 0.0
C1464 C 0.538 0.52341 0.1098 0.0
H1465 H 0.56706 0.61926 0.09377 0.0
N1466 N 0.58709 0.54566 0.11452 0.0
C1467 C 0.60094 0.59624 0.10625 0.0
C1468 C 0.55878 0.54793 0.10848 0.0
C1469 C 0.60795 0.56951 0.11374 0.0
C1470 C 0.5723 0.59865 0.09967 0.0
C1471 C 0.55085 0.57431 0.10068 0.0
O1472 O 0.59005 0.54158 0.14186 0.0
O1473 O 0.64109 0.48236 0.12989 0.0
O1474 O 0.62796 0.42972 0.11354 0.0
O1475 O 0.58239 0.44676 0.12353 0.0
O1476 O 0.6083 0.46035 0.142 0.0
O1477 O 0.55979 0.50195 0.1445 0.0
O1478 O 0.66679 0.52456 0.10147 0.0
O1479 O 0.61264 0.50689 0.10646 0.0
O1480 O 0.63701 0.53264 0.13888 0.0
O1481 O 0.67935 0.51133 0.12824 0.0
O1482 O 0.62005 0.4736 0.09236 0.0
O1483 O 0.68871 0.48458 0.09223 0.0
C1484 C 0.6372 0.46132 0.13854 0.0
C1485 C 0.57358 0.53079 0.1642 0.0
C1486 C 0.55131 0.52414 0.1867 0.0
C1487 C 0.54878 0.52275 0.17249 0.0
C1488 C 0.57926 0.53383 0.19266 0.0
C1489 C 0.60149 0.54096 0.17019 0.0
C1490 C 0.6042 0.54249 0.18438 0.0
C1491 C 0.59902 0.42246 0.11822 0.0
C1492 C 0.56907 0.52859 0.1494 0.0
C1493 C 0.52209 0.5754 0.09397 0.0
C1494 C 0.50123 0.55062 0.09519 0.0
C1495 C 0.6015 0.49631 0.09501 0.0
C1496 C 0.67807 0.52779 0.07808 0.0
C1497 C 0.69196 0.55621 0.07483 0.0
C1498 C 0.69122 0.56781 0.06142 0.0
C1499 C 0.67277 0.55199 0.05175 0.0
C1500 C 0.66052 0.51205 0.06823 0.0
C1501 C 0.65716 0.52467 0.05524 0.0
C1502 C 0.66852 0.53215 0.13783 0.0
C1503 C 0.68404 0.51444 0.09157 0.0
H1504 H 0.52757 0.51433 0.16779 0.0
H1505 H 0.5818 0.53452 0.20363 0.0
H1506 H 0.62115 0.54757 0.16402 0.0
H1507 H 0.62577 0.55011 0.18896 0.0
H1508 H 0.70468 0.56832 0.08272 0.0
H1509 H 0.67156 0.55948 1.04126 0.0
H1510 H 0.6497 0.48997 0.0705 0.0
H1511 H 0.64352 0.5125 1.04766 0.0
Eu1512 Eu 0.84566 0.3424 0.37867 0.0
C1513 C 0.93857 0.43131 0.35236 0.0
C1514 C 0.9472 0.47971 0.36441 0.0
C1515 C 0.98787 0.45847 0.35005 0.0
C1516 C 0.9285 0.45352 0.36157 0.0
C1517 C 0.96821 0.43387 0.34633 0.0
C1518 C 0.9773 0.48149 0.35901 0.0
C1519 C 0.95581 0.38945 0.33231 0.0
N1520 N 0.91875 0.40812 0.34872 0.0
C1521 C 0.92655 0.388 0.33841 0.0
C1522 C 0.97687 0.41223 0.33639 0.0
Eu1523 Eu 0.87019 0.40652 0.3605 0.0
N1524 N 0.89927 0.45122 0.36665 0.0
C1525 C 0.88603 0.47615 0.37307 0.0
C1526 C 0.93447 0.50421 0.37194 0.0
C1527 C 0.90345 0.50281 0.37592 0.0
H1528 H 0.91108 0.3695 0.33543 0.0
H1529 H 0.89295 0.52219 0.38124 0.0
H1530 H 0.99217 0.50112 0.36131 0.0
H1531 H 0.96216 0.37284 0.3245 0.0
H1532 H 0.86188 0.47595 0.37588 0.0
H1533 H 0.88088 0.22843 0.35909 0.0
H1534 H 0.94799 0.5248 0.37424 0.0
H1535 H 0.78483 0.38788 0.36878 0.0
H1536 H 0.88687 0.27671 0.3722 0.0
H1537 H 0.73696 0.38258 0.35551 0.0
H1538 H 1.01083 0.46059 0.34565 0.0
H1539 H 0.83303 0.21909 0.34581 0.0
H1540 H 0.78101 0.23793 0.33803 0.0
H1541 H 0.99947 0.41336 0.33158 0.0
H1542 H 0.74175 0.27936 0.33731 0.0
N1543 N 0.84374 0.29603 0.36568 0.0
C1544 C 0.86643 0.27378 0.36599 0.0
C1545 C 0.83571 0.24068 0.35139 0.0
C1546 C 0.81232 0.26327 0.35128 0.0
C1547 C 0.86285 0.24597 0.35878 0.0
C1548 C 0.81696 0.29108 0.35867 0.0
H1549 H 0.72526 0.33322 0.34368 0.0
N1550 N 0.8004 0.34169 0.36494 0.0
C1551 C 0.75285 0.36316 0.3563 0.0
C1552 C 0.79456 0.31441 0.35839 0.0
C1553 C 0.78011 0.36601 0.36393 0.0
C1554 C 0.7463 0.33524 0.34967 0.0
C1555 C 0.76735 0.31054 0.35053 0.0
O1556 O 0.81461 0.33982 0.39628 0.0
O1557 O 0.86552 0.38832 0.3808 0.0
O1558 O 0.91803 0.37564 0.3644 0.0
O1559 O 0.9009 0.32985 0.37445 0.0
O1560 O 0.888 0.35373 0.39176 0.0
O1561 O 0.84039 0.2993 0.3901 0.0
O1562 O 0.8644 0.44669 0.34713 0.0
O1563 O 0.84828 0.35875 0.35671 0.0
O1564 O 0.81479 0.38431 0.3893 0.0
O1565 O 0.83779 0.42755 0.37979 0.0
O1566 O 0.85816 0.3831 0.33989 0.0
O1567 O 0.82388 0.42279 0.35482 0.0
C1568 C 0.88666 0.38314 0.38931 0.0
C1569 C 0.83903 0.31113 0.41335 0.0
C1570 C 0.88683 0.3078 0.42656 0.0
C1571 C 0.8713 0.3087 0.41412 0.0
C1572 C 0.86932 0.31096 0.4386 0.0
C1573 C 0.82175 0.31437 0.42533 0.0
C1574 C 0.83698 0.31447 0.43794 0.0
C1575 C 0.92515 0.34648 0.36908 0.0
C1576 C 0.82466 0.31253 0.39984 0.0
C1577 C 0.76249 0.28267 0.34339 0.0
C1578 C 0.78489 0.2591 0.34378 0.0
C1579 C 0.8455 0.35738 0.34343 0.0
C1580 C 0.81944 0.44602 0.33318 0.0
C1581 C 0.79132 0.4622 0.33184 0.0
C1582 C 0.77751 0.46627 0.31895 0.0
C1583 C 0.79104 0.45139 0.30762 0.0
C1584 C 0.83337 0.43293 0.32158 0.0
C1585 C 0.81865 0.43475 0.30898 0.0
C1586 C 0.81642 0.41605 0.38898 0.0
C1587 C 0.83425 0.44424 0.34667 0.0
H1588 H 0.88451 0.3068 0.40484 0.0
H1589 H 0.88029 0.30959 0.44849 0.0
H1590 H 0.79675 0.31698 0.42493 0.0
H1591 H 0.82366 0.31673 0.44722 0.0
H1592 H 0.78102 0.47287 0.34076 0.0
H1593 H 0.78157 0.45427 0.29749 0.0
H1594 H 0.85582 0.42178 0.32212 0.0
H1595 H 0.8294 0.42439 0.30011 0.0
Eu1596 Eu 1.00947 0.59886 0.62725 0.0
C1597 C 0.91924 0.69392 0.60243 0.0
C1598 C 0.87017 0.70019 0.61413 0.0
C1599 C 0.89095 0.74286 0.60083 0.0
C1600 C 0.89694 0.68238 0.61121 0.0
C1601 C 0.91615 0.72413 0.59695 0.0
C1602 C 0.86784 0.7308 0.6093 0.0
C1603 C 0.96097 0.71402 0.58292 0.0
N1604 N 0.94287 0.6749 0.59853 0.0
C1605 C 0.96287 0.68413 0.58842 0.0
C1606 C 0.93777 0.73425 0.58733 0.0
Eu1607 Eu 0.9452 0.625 0.60927 0.0
N1608 N 0.8997 0.65262 0.6157 0.0
C1609 C 0.87479 0.63819 0.62157 0.0
C1610 C 0.84568 0.68616 0.62113 0.0
C1611 C 0.84767 0.65477 0.62452 0.0
H1612 H 0.98168 0.66931 0.58518 0.0
H1613 H 0.82832 0.64328 0.62941 0.0
H1614 H 0.84774 0.74498 0.61168 0.0
H1615 H 0.97753 0.72147 0.57532 0.0
H1616 H 0.87521 0.61371 0.62379 0.0
H1617 H 0.12674 0.63803 0.61472 0.0
H1618 H 0.82467 0.69898 0.62347 0.0
H1619 H 0.96835 0.53865 0.615 0.0
H1620 H 0.07626 0.6401 0.62645 0.0
H1621 H 0.97662 0.49347 0.5999 0.0
H1622 H 0.88841 0.76621 0.59685 0.0
H1623 H 0.13817 0.59524 0.59865 0.0
H1624 H 0.1211 0.54582 0.58734 0.0
H1625 H 0.93624 0.75733 0.58296 0.0
H1626 H 0.08092 0.50608 0.58371 0.0
N1627 N 0.05798 0.60055 0.61612 0.0
C1628 C 0.08031 0.62211 0.61897 0.0
C1629 C 0.11566 0.59637 0.60354 0.0
C1630 C 0.09325 0.57344 0.6012 0.0
C1631 C 0.10924 0.62067 0.61255 0.0
C1632 C 0.06427 0.57604 0.60779 0.0
H1633 H 1.02717 0.48631 0.58837 0.0
N1634 N 1.01352 0.55706 0.61186 0.0
C1635 C 0.99508 0.51015 0.60147 0.0
C1636 C 1.04164 0.55341 0.6058 0.0
C1637 C 0.99041 0.53582 0.60997 0.0
C1638 C 1.02371 0.50612 0.59503 0.0
C1639 C 1.04739 0.52791 0.59711 0.0
O1640 O 1.01784 0.55611 0.63833 0.0
O1641 O 0.9637 0.61821 0.6295 0.0
O1642 O 0.97614 0.6722 0.61394 0.0
O1643 O 1.02269 0.65392 0.62294 0.0
O1644 O 0.99769 0.63825 0.64192 0.0
O1645 O 1.04398 0.59747 0.64364 0.0
O1646 O 0.93055 0.57893 0.60236 0.0
O1647 O 0.99328 0.60401 0.60536 0.0
O1648 O 0.96668 0.56777 0.63718 0.0
O1649 O 0.92357 0.59116 0.6279 0.0
O1650 O 0.96962 0.61583 0.58863 0.0
O1651 O 0.90591 0.61973 0.59537 0.0
C1652 C 0.96863 0.6382 0.63861 0.0
C1653 C 1.03146 0.56212 0.66139 0.0
C1654 C 0.05138 0.56334 0.6845 0.0
C1655 C 0.05504 0.56899 0.67054 0.0
C1656 C 1.02357 0.55066 0.68935 0.0
C1657 C 1.00378 0.54876 0.66624 0.0
C1658 C 0.99992 0.54308 0.68017 0.0
C1659 C 1.0057 0.6787 0.6182 0.0
C1660 C 1.03692 0.56888 0.64691 0.0
C1661 C 0.07618 0.52537 0.59051 0.0
C1662 C 0.09903 0.54807 0.59254 0.0
C1663 C 0.99531 0.60294 0.59205 0.0
C1664 C 0.91022 0.57721 0.58009 0.0
C1665 C 0.89755 0.54772 0.5775 0.0
C1666 C 0.89825 0.5351 0.56427 0.0
C1667 C 0.91356 0.55154 0.55388 0.0
C1668 C 0.92322 0.59422 0.56929 0.0
C1669 C 0.92579 0.58097 0.5564 0.0
C1670 C 0.93497 0.56912 0.63681 0.0
C1671 C 0.90958 0.58978 0.59406 0.0
H1672 H 0.07614 0.57975 0.66678 0.0
H1673 H 1.02017 0.5468 0.70014 0.0
H1674 H 0.98516 0.54279 0.65938 0.0
H1675 H 0.97846 0.53307 0.68385 0.0
H1676 H 0.88611 0.53514 0.58563 0.0
H1677 H 0.91411 0.54267 0.54356 0.0
H1678 H 0.93131 0.61779 0.57072 0.0
H1679 H 0.93633 0.59401 0.5482 0.0
Eu1680 Eu 0.75615 0.34298 0.71784 0.0
C1681 C 0.6668 0.44148 0.74204 0.0
C1682 C 0.66965 0.49193 0.73114 0.0
C1683 C 0.62187 0.47616 0.74209 0.0
C1684 C 0.68315 0.46277 0.73431 0.0
C1685 C 0.63617 0.44849 0.74631 0.0
C1686 C 0.63868 0.49798 0.73463 0.0
C1687 C 0.63733 0.40301 0.76048 0.0
N1688 N 0.68166 0.41537 0.74641 0.0
C1689 C 0.66772 0.39723 0.75623 0.0
C1690 C 0.62124 0.42836 0.75529 0.0
Eu1691 Eu 0.73242 0.40578 0.73658 0.0
N1692 N 0.7132 0.45649 0.73113 0.0
C1693 C 0.73181 0.47994 0.7264 0.0
C1694 C 0.68807 0.51479 0.72512 0.0
C1695 C 0.71949 0.509 0.72305 0.0
H1696 H 0.67859 0.37675 0.76028 0.0
H1697 H 0.73437 0.52704 0.71903 0.0
H1698 H 0.62782 0.51989 0.73197 0.0
H1699 H 0.62628 0.3877 0.76775 0.0
H1700 H 0.75647 0.47704 0.72544 0.0
H1701 H 0.71299 0.22698 0.73104 0.0
H1702 H 0.67856 0.53739 0.72257 0.0
H1703 H 0.82134 0.37937 0.72781 0.0
H1704 H 0.71297 0.2769 0.7189 0.0
H1705 H 0.86767 0.36842 0.74182 0.0
H1706 H 0.59827 0.48156 0.7451 0.0
H1707 H 0.75558 0.21421 0.74695 0.0
H1708 H 0.80635 0.22905 0.75755 0.0
H1709 H 0.59776 0.43289 0.75872 0.0
H1710 H 0.8489 0.2667 0.76 0.0
N1711 N 0.75339 0.29412 0.72894 0.0
C1712 C 0.73089 0.27251 0.72634 0.0
C1713 C 0.75533 0.23659 0.7419 0.0
C1714 C 0.77944 0.25791 0.74384 0.0
C1715 C 0.73116 0.24378 0.73298 0.0
C1716 C 0.778 0.28679 0.73704 0.0
H1717 H 0.87213 0.31837 0.75405 0.0
N1718 N 0.79967 0.33612 0.73219 0.0
C1719 C 0.84937 0.35129 0.74099 0.0
C1720 C 0.8021 0.30805 0.73845 0.0
C1721 C 0.82309 0.35744 0.73308 0.0
C1722 C 0.85185 0.32295 0.74783 0.0
C1723 C 0.82808 0.30093 0.74664 0.0
O1724 O 0.79653 0.33741 0.70487 0.0
O1725 O 0.73667 0.38887 0.71612 0.0
O1726 O 0.68423 0.3761 0.73241 0.0
O1727 O 0.70137 0.33011 0.72269 0.0
O1728 O 0.71505 0.3555 0.70411 0.0
O1729 O 0.75703 0.30703 0.70205 0.0
O1730 O 0.74294 0.44149 0.75193 0.0
O1731 O 0.76014 0.3607 0.73987 0.0
O1732 O 0.78685 0.38503 0.70732 0.0
O1733 O 0.76479 0.42764 0.71749 0.0
O1734 O 0.72909 0.37089 0.7545 0.0
O1735 O 0.77854 0.40941 0.74541 0.0
C1736 C 0.71578 0.38458 0.70741 0.0
C1737 C 0.78664 0.32014 0.68253 0.0
C1738 C 0.77985 0.29743 0.6601 0.0
C1739 C 0.77833 0.29524 0.67431 0.0
C1740 C 0.79012 0.32508 0.65405 0.0
C1741 C 0.79742 0.34773 0.67647 0.0
C1742 C 0.79921 0.35007 0.66227 0.0
C1743 C 0.67706 0.34691 0.72787 0.0
C1744 C 0.78385 0.31614 0.69733 0.0
C1745 C 0.82929 0.27241 0.75355 0.0
C1746 C 0.80501 0.25102 0.75219 0.0
C1747 C 0.74997 0.35045 0.75158 0.0
C1748 C 0.79549 0.45814 0.7532 0.0
C1749 C 0.80377 0.47047 0.76583 0.0
C1750 C 0.82677 0.49355 0.76692 0.0
C1751 C 0.84177 0.50383 0.75504 0.0
C1752 C 0.81111 0.4681 0.74146 0.0
C1753 C 0.83399 0.49104 0.7424 0.0
C1754 C 0.7859 0.41668 0.7081 0.0
C1755 C 0.77202 0.43343 0.75287 0.0
H1756 H 0.76945 0.27427 0.67906 0.0
H1757 H 0.79085 0.32737 0.64308 0.0
H1758 H 0.80424 0.36746 0.6826 0.0
H1759 H 0.80727 0.37142 0.65765 0.0
H1760 H 0.79256 0.46146 0.77488 0.0
H1761 H 0.85924 0.52188 0.75548 0.0
H1762 H 0.80599 0.45802 0.73164 0.0
H1763 H 0.84578 0.49886 0.7333 0.0
Eu1764 Eu 1.00642 0.50628 0.9699 0.0
C1765 C 0.91663 0.4117 0.99471 0.0
C1766 C 0.86867 0.40324 0.98238 0.0
C1767 C 0.88944 0.36229 0.99673 0.0
C1768 C 0.89475 0.42192 0.9854 0.0
C1769 C 0.91399 0.38187 1.00059 0.0
C1770 C 0.86667 0.37306 0.98773 0.0
C1771 C 0.95847 0.39374 1.01461 0.0
N1772 N 0.9397 0.43147 0.99849 0.0
C1773 C 0.95996 0.42322 1.00867 0.0
C1774 C 0.93558 0.37287 1.01047 0.0
Eu1775 Eu 0.94134 0.48057 0.98712 0.0
N1776 N 0.89732 0.45118 0.98033 0.0
C1777 C 0.87275 0.4644 0.97367 0.0
C1778 C 0.84451 0.41602 0.9747 0.0
C1779 C 0.84623 0.44699 0.97063 0.0
H1780 H 0.97855 0.43853 1.01168 0.0
H1781 H 0.82716 0.4575 0.96512 0.0
H1782 H 0.84711 0.35822 0.9853 0.0
H1783 H 0.97512 0.38709 1.02233 0.0
H1784 H 0.87304 0.48854 0.97083 0.0
H1785 H 0.12301 0.46635 0.98338 0.0
H1786 H 0.82398 0.40255 0.97228 0.0
H1787 H 0.96509 0.56674 0.98186 0.0
H1788 H 0.0728 0.4643 0.97142 0.0
H1789 H 0.97311 0.61202 0.99693 0.0
H1790 H 0.88723 0.33922 1.00104 0.0
H1791 H 0.13434 0.50955 0.99925 0.0
H1792 H 0.11727 0.55937 1.01022 0.0
H1793 H 0.93441 0.3501 1.01515 0.0
H1794 H 0.07711 0.59931 1.01356 0.0
N1795 N 0.05447 0.50425 0.98144 0.0
C1796 C 0.07674 0.48244 0.97883 0.0
C1797 C 0.11193 0.50841 0.99426 0.0
C1798 C 0.08958 0.53155 0.99638 0.0
C1799 C 0.10555 0.48388 0.98537 0.0
C1800 C 0.0607 0.52894 0.98968 0.0
H1801 H 1.02343 0.6191 1.00868 0.0
N1802 N 1.01012 0.54814 0.98528 0.0
C1803 C 0.99156 0.59524 0.99549 0.0
C1804 C 1.03811 0.55173 0.99148 0.0
C1805 C 0.98703 0.56951 0.987 0.0
C1806 C 1.02006 0.59922 1.00205 0.0
C1807 C 1.04374 0.57733 1.00013 0.0
O1808 O 1.0149 0.54892 0.95879 0.0
O1809 O 0.96085 0.48725 0.9671 0.0
O1810 O 0.97192 0.43292 0.98258 0.0
O1811 O 1.01907 0.45095 0.97423 0.0
O1812 O 0.99533 0.46716 0.95496 0.0
O1813 O 1.0422 0.50785 0.9541 0.0
O1814 O 0.9241 0.52678 0.9923 0.0
O1815 O 0.98909 0.50155 0.99166 0.0
O1816 O 0.96408 0.53783 0.95965 0.0
O1817 O 0.92049 0.51441 0.96841 0.0
O1818 O 0.96343 0.49156 1.00811 0.0
O1819 O 0.90124 0.48607 1.00053 0.0
C1820 C 0.96615 0.46734 0.95802 0.0
C1821 C 1.03167 0.54325 0.93613 0.0
C1822 C 0.05527 0.54303 0.9137 0.0
C1823 C 0.05677 0.5371 0.92771 0.0
C1824 C 1.02804 0.55551 0.90808 0.0
C1825 C 1.00451 0.55616 0.93051 0.0
C1826 C 1.00282 0.56233 0.91654 0.0
C1827 C 1.00168 0.42618 0.97865 0.0
C1828 C 1.03518 0.53638 0.95069 0.0
C1829 C 0.07244 0.5799 1.00682 0.0
C1830 C 0.09528 0.55709 1.00495 0.0
C1831 C 0.98971 0.50361 1.00497 0.0
C1832 C 0.89895 0.53285 1.01341 0.0
C1833 C 0.88071 0.55985 1.01368 0.0
C1834 C 0.87456 0.57525 1.02604 0.0
C1835 C 0.88931 0.56455 1.03796 0.0
C1836 C 0.91219 0.52175 1.02552 0.0
C1837 C 0.90812 0.53813 1.03765 0.0
C1838 C 0.93232 0.53667 0.95977 0.0
C1839 C 0.90259 0.51637 1.00039 0.0
H1840 H 0.07734 0.52647 0.9321 0.0
H1841 H 1.02624 0.55961 0.89723 0.0
H1842 H 0.98467 0.56134 0.93682 0.0
H1843 H 0.98179 0.57204 0.91225 0.0
H1844 H 0.87015 0.568 1.00432 0.0
H1845 H 0.88485 0.57531 1.04774 0.0
H1846 H 0.92521 0.50029 1.02576 0.0
H1847 H 0.91853 0.52957 1.04695 0.0
Eu1848 Eu 0.84998 0.75721 0.21823 0.0
C1849 C 0.94225 0.66832 0.2454 0.0
C1850 C 0.94961 0.6188 0.23407 0.0
C1851 C 0.99092 0.64007 0.24805 0.0
C1852 C 0.93157 0.64569 0.23652 0.0
C1853 C 0.97188 0.66542 0.25145 0.0
C1854 C 0.97971 0.61667 0.23947 0.0
C1855 C 0.9605 0.71082 0.26502 0.0
N1856 N 0.92295 0.69215 0.2488 0.0
C1857 C 0.93121 0.71254 0.25895 0.0
C1858 C 0.98108 0.68741 0.26114 0.0
Eu1859 Eu 0.87419 0.69398 0.23713 0.0
N1860 N 0.90232 0.6483 0.23144 0.0
C1861 C 0.88849 0.62323 0.22537 0.0
C1862 C 0.93624 0.59404 0.22694 0.0
C1863 C 0.90526 0.59594 0.22292 0.0
H1864 H 0.91612 0.73149 0.26179 0.0
H1865 H 0.89428 0.57643 0.21789 0.0
H1866 H 0.99407 0.59648 0.23745 0.0
H1867 H 0.96724 0.72767 0.27267 0.0
H1868 H 0.86433 0.62378 0.22258 0.0
H1869 H 0.88558 0.87193 0.23681 0.0
H1870 H 0.94923 0.57292 0.22496 0.0
H1871 H 0.78894 0.71247 0.22866 0.0
H1872 H 0.89132 0.82311 0.22409 0.0
H1873 H 0.74128 0.71867 0.2419 0.0
H1874 H 1.01385 0.63768 0.25248 0.0
H1875 H 0.83786 0.88208 0.25004 0.0
H1876 H 0.78588 0.86385 0.25802 0.0
H1877 H 1.00369 0.68603 0.26595 0.0
H1878 H 0.7465 0.82267 0.25912 0.0
N1879 N 0.84812 0.80429 0.23075 0.0
C1880 C 0.87091 0.82639 0.23028 0.0
C1881 C 0.84041 0.86026 0.24462 0.0
C1882 C 0.81695 0.8378 0.24493 0.0
C1883 C 0.86748 0.85451 0.23726 0.0
C1884 C 0.82142 0.80966 0.23775 0.0
H1885 H 0.72981 0.76864 0.25326 0.0
N1886 N 0.80461 0.75887 0.23189 0.0
C1887 C 0.75717 0.738 0.24087 0.0
C1888 C 0.79895 0.78646 0.23824 0.0
C1889 C 0.78432 0.73467 0.23323 0.0
C1890 C 0.75075 0.76626 0.24724 0.0
C1891 C 0.77185 0.79081 0.24612 0.0
O1892 O 0.82105 0.75865 0.19988 0.0
O1893 O 0.86939 0.711 0.21665 0.0
O1894 O 0.92212 0.72465 0.23309 0.0
O1895 O 0.90514 0.76983 0.22246 0.0
O1896 O 0.89251 0.7448 0.20544 0.0
O1897 O 0.84425 0.80012 0.20671 0.0
O1898 O 0.82782 0.68003 0.24379 0.0
O1899 O 0.85289 0.74219 0.24036 0.0
O1900 O 0.81837 0.71513 0.20814 0.0
O1901 O 0.84118 0.67224 0.21809 0.0
O1902 O 0.86306 0.71888 0.25746 0.0
O1903 O 0.868 0.65429 0.25069 0.0
C1904 C 0.89073 0.71553 0.20819 0.0
C1905 C 0.84692 0.78826 0.18352 0.0
C1906 C 0.89603 0.79538 0.17165 0.0
C1907 C 0.87908 0.79262 0.18367 0.0
C1908 C 0.88044 0.79142 0.15915 0.0
C1909 C 0.83156 0.78432 0.17107 0.0
C1910 C 0.84844 0.78558 0.15892 0.0
C1911 C 0.9293 0.75355 0.22813 0.0
C1912 C 0.83058 0.78626 0.19657 0.0
C1913 C 0.76716 0.819 0.25304 0.0
C1914 C 0.78961 0.84243 0.25243 0.0
C1915 C 0.85049 0.74446 0.25363 0.0
C1916 C 0.82556 0.65873 0.26588 0.0
C1917 C 0.79618 0.64584 0.26828 0.0
C1918 C 0.78432 0.64375 0.28162 0.0
C1919 C 0.80133 0.65742 0.29233 0.0
C1920 C 0.84276 0.67069 0.27685 0.0
C1921 C 0.83021 0.67091 0.28991 0.0
C1922 C 0.81977 0.68339 0.20879 0.0
C1923 C 0.83818 0.65854 0.25194 0.0
H1924 H 0.89102 0.79494 0.1933 0.0
H1925 H 0.89255 0.79414 0.14958 0.0
H1926 H 0.80676 0.78024 0.17078 0.0
H1927 H 0.83658 0.7828 0.14928 0.0
H1928 H 0.78325 0.63616 0.25981 0.0
H1929 H 0.79346 0.65595 0.30277 0.0
H1930 H 0.86603 0.67953 0.27544 0.0
H1931 H 0.84351 0.68038 0.2983 0.0
Eu1932 Eu 0.59463 0.59131 0.47342 0.0
C1933 C 0.68029 0.69145 0.49681 0.0
C1934 C 0.7242 0.70509 0.48262 0.0
C1935 C 0.70388 0.74273 0.49874 0.0
C1936 C 0.7007 0.68389 0.48641 0.0
C1937 C 0.68175 0.72098 0.5031 0.0
C1938 C 0.72519 0.73473 0.48859 0.0
C1939 C 0.64013 0.70515 0.51797 0.0
N1940 N 0.65921 0.66982 0.50089 0.0
C1941 C 0.63963 0.67613 0.51156 0.0
C1942 C 0.66116 0.72771 0.5137 0.0
Eu1943 Eu 0.66001 0.62117 0.48905 0.0
N1944 N 0.69898 0.65517 0.48064 0.0
C1945 C 0.72181 0.64539 0.472 0.0
C1946 C 0.74686 0.69546 0.47336 0.0
C1947 C 0.74601 0.66526 0.46825 0.0
H1948 H 0.62235 0.65953 0.51471 0.0
H1949 H 0.7639 0.65727 0.46135 0.0
H1950 H 0.74277 0.75141 0.48563 0.0
H1951 H 0.6241 0.71016 0.52616 0.0
H1952 H 0.72218 0.62199 0.46814 0.0
H1953 H 0.47973 0.6233 0.49258 0.0
H1954 H 0.76548 0.7109 0.47033 0.0
H1955 H 0.64346 0.53478 0.48416 0.0
H1956 H 0.52754 0.63035 0.47926 0.0
H1957 H 0.64115 0.48791 0.49849 0.0
H1958 H 0.70517 0.76556 0.50339 0.0
H1959 H 0.47315 0.57657 0.50692 0.0
H1960 H 0.49488 0.52643 0.51576 0.0
H1961 H 0.66149 0.75017 0.51871 0.0
H1962 H 0.53836 0.48952 0.51719 0.0
N1963 N 0.54919 0.58928 0.48682 0.0
C1964 C 0.52574 0.61059 0.48597 0.0
C1965 C 0.49452 0.5798 0.50128 0.0
C1966 C 0.51835 0.55771 0.50189 0.0
C1967 C 0.49824 0.60634 0.49329 0.0
C1968 C 0.5458 0.56308 0.49442 0.0
H1969 H 0.59293 0.47513 0.51092 0.0
N1970 N 0.59711 0.54865 0.48845 0.0
C1971 C 0.62105 0.5029 0.49762 0.0
C1972 C 0.57031 0.54204 0.49514 0.0
C1973 C 0.6223 0.52954 0.4895 0.0
C1974 C 0.59374 0.4957 0.50457 0.0
C1975 C 0.568 0.51542 0.50347 0.0
O1976 O 0.59263 0.55301 0.4588 0.0
O1977 O 0.6385 0.61342 0.46929 0.0
O1978 O 0.62713 0.66703 0.48522 0.0
O1979 O 0.58041 0.64691 0.4772 0.0
O1980 O 0.60025 0.63143 0.45865 0.0
O1981 O 0.55225 0.5819 0.46213 0.0
O1982 O 0.70292 0.62065 0.50081 0.0
O1983 O 0.61412 0.59757 0.49457 0.0
O1984 O 0.63712 0.56192 0.46228 0.0
O1985 O 0.6804 0.58772 0.47016 0.0
O1986 O 0.6409 0.60806 0.51059 0.0
O1987 O 0.68053 0.57712 0.49571 0.0
C1988 C 0.62999 0.63286 0.46042 0.0
C1989 C 0.56092 0.56319 0.44003 0.0
C1990 C 0.54436 0.59734 0.42199 0.0
C1991 C 0.558 0.59294 0.43468 0.0
C1992 C 0.54007 0.57163 0.41335 0.0
C1993 C 0.55644 0.5373 0.43158 0.0
C1994 C 0.5471 0.54168 0.41805 0.0
C1995 C 0.5971 0.67248 0.48149 0.0
C1996 C 0.56482 0.55999 0.45473 0.0
C1997 C 0.54051 0.50981 0.51073 0.0
C1998 C 0.51576 0.53087 0.50994 0.0
C1999 C 0.6145 0.59548 0.50784 0.0
C2000 C 0.73528 0.57613 0.49843 0.0
C2001 C 0.74125 0.54582 0.50312 0.0
C2002 C 0.77148 0.53313 0.50252 0.0
C2003 C 0.79479 0.55048 0.49585 0.0
C2004 C 0.75941 0.59325 0.49249 0.0
C2005 C 0.78862 0.58006 0.49079 0.0
C2006 C 0.66872 0.56487 0.46177 0.0
C2007 C 0.70473 0.5904 0.50114 0.0
H2008 H 0.56201 0.61293 0.44115 0.0
H2009 H 0.52946 0.5744 0.40342 0.0
H2010 H 0.55917 0.51395 0.43553 0.0
H2011 H 0.54321 0.52175 0.41152 0.0
H2012 H 0.72255 0.533 0.50786 0.0
H2013 H 0.81855 0.54246 0.4953 0.0
H2014 H 0.75625 0.61718 0.48959 0.0
H2015 H 0.80707 0.59352 0.4862 0.0
Eu2016 Eu 0.36757 0.40163 0.23926 0.0
C2017 C 0.29509 0.30547 0.24164 0.0
C2018 C 0.31702 0.25514 0.24732 0.0
C2019 C 0.26697 0.27036 0.25661 0.0
C2020 C 0.31898 0.28386 0.24043 0.0
C2021 C 0.26872 0.29876 0.24963 0.0
C2022 C 0.29111 0.24868 0.25551 0.0
C2023 C 0.2482 0.34934 0.24374 0.0
N2024 N 0.29804 0.33345 0.23535 0.0
C2025 C 0.27488 0.35512 0.23606 0.0
C2026 C 0.24511 0.32106 0.25057 0.0
Eu2027 Eu 0.34162 0.33921 0.221 0.0
N2028 N 0.34384 0.29068 0.23243 0.0
C2029 C 0.36613 0.26869 0.23002 0.0
C2030 C 0.34093 0.23346 0.24561 0.0
C2031 C 0.36538 0.24013 0.23679 0.0
H2032 H 0.27709 0.37698 0.23077 0.0
H2033 H 0.38337 0.22303 0.23499 0.0
H2034 H 0.28936 0.22682 0.26093 0.0
H2035 H 0.23006 0.3667 0.24439 0.0
H2036 H 0.38417 0.27256 0.2226 0.0
H2037 H 0.36451 0.52221 0.22111 0.0
H2038 H 0.34029 0.21118 0.25074 0.0
H2039 H 0.42162 0.37543 0.26302 0.0
H2040 H 0.34264 0.47295 0.22901 0.0
H2041 H 0.47536 0.38544 0.26925 0.0
H2042 H 0.24707 0.26497 0.26292 0.0
H2043 H 0.42105 0.53134 0.22247 0.0
H2044 H 0.47305 0.51318 0.23053 0.0
H2045 H 0.22453 0.31677 0.25662 0.0
H2046 H 0.50356 0.47527 0.24358 0.0
N2047 N 0.38666 0.45161 0.23282 0.0
C2048 C 0.36755 0.47536 0.22878 0.0
C2049 C 0.41164 0.50906 0.22553 0.0
C2050 C 0.43067 0.4861 0.23116 0.0
C2051 C 0.37977 0.50394 0.22468 0.0
C2052 C 0.41723 0.45741 0.235 0.0
H2053 H 0.50436 0.42816 0.25839 0.0
N2054 N 0.41918 0.41132 0.24788 0.0
C2055 C 0.46415 0.39985 0.26167 0.0
C2056 C 0.43414 0.43643 0.24264 0.0
C2057 C 0.43322 0.39446 0.25809 0.0
C2058 C 0.4805 0.42382 0.25545 0.0
C2059 C 0.46525 0.44317 0.24621 0.0
O2060 O 0.36237 0.43512 0.25581 0.0
O2061 O 0.33764 0.35796 0.24291 0.0
O2062 O 0.31186 0.38152 0.21023 0.0
O2063 O 0.33477 0.42381 0.22029 0.0
O2064 O 0.37097 0.36573 0.25688 0.0
O2065 O 0.32164 0.41346 0.24716 0.0
O2066 O 0.30102 0.33501 0.20804 0.0
O2067 O 0.36231 0.38434 0.21892 0.0
O2068 O 0.41504 0.37136 0.23484 0.0
O2069 O 0.39664 0.32554 0.22548 0.0
O2070 O 0.38238 0.35009 0.20687 0.0
O2071 O 0.33881 0.30229 0.20573 0.0
C2072 C 0.34805 0.34731 0.25448 0.0
C2073 C 0.31893 0.42841 0.27019 0.0
C2074 C 0.28191 0.44817 0.28693 0.0
C2075 C 0.29283 0.44629 0.27343 0.0
C2076 C 0.29559 0.4285 0.29676 0.0
C2077 C 0.33267 0.40966 0.28018 0.0
C2078 C 0.32037 0.40904 0.2933 0.0
C2079 C 0.31343 0.41312 0.21091 0.0
C2080 C 0.33241 0.43173 0.25657 0.0
C2081 C 0.47956 0.47009 0.24116 0.0
C2082 C 0.4622 0.49168 0.23374 0.0
C2083 C 0.38266 0.37925 0.21005 0.0
C2084 C 0.31032 0.31594 0.18595 0.0
C2085 C 0.3209 0.29149 0.17797 0.0
C2086 C 0.32026 0.29327 0.16376 0.0
C2087 C 0.30852 0.32 0.15742 0.0
C2088 C 0.29802 0.34257 0.17959 0.0
C2089 C 0.29709 0.34448 0.16537 0.0
C2090 C 0.42152 0.34203 0.23035 0.0
C2091 C 0.31259 0.31259 0.2008 0.0
H2092 H 0.28219 0.45998 0.26545 0.0
H2093 H 0.28855 0.42916 0.30731 0.0
H2094 H 0.35304 0.3959 0.27793 0.0
H2095 H 0.331 0.3945 0.30099 0.0
H2096 H 0.33087 0.27129 0.18295 0.0
H2097 H 0.30838 0.32197 0.14643 0.0
H2098 H 0.2894 0.36191 0.18553 0.0
H2099 H 0.28788 0.36511 0.16052 0.0
Eu2100 Eu 0.44294 0.62343 0.98924 0.0
C2101 C 0.53581 0.54619 0.99163 0.0
C2102 C 0.58611 0.56581 0.99879 0.0
C2103 C 0.56867 0.51514 1.00655 0.0
C2104 C 0.55825 0.56947 0.99136 0.0
C2105 C 0.54094 0.51877 0.9992 0.0
C2106 C 0.5911 0.53865 1.0064 0.0
C2107 C 0.48988 0.5012 0.99252 0.0
N2108 N 0.50839 0.55096 0.98506 0.0
C2109 C 0.48564 0.52882 0.98527 0.0
C2110 C 0.51765 0.49611 0.9995 0.0
Eu2111 Eu 0.50568 0.59625 0.97142 0.0
N2112 N 0.55278 0.59574 0.984 0.0
C2113 C 0.57515 0.61819 0.98298 0.0
C2114 C 0.60827 0.58953 0.99833 0.0
C2115 C 0.60287 0.61568 0.9903 0.0
H2116 H 0.46397 0.53251 0.98005 0.0
H2117 H 0.62032 0.63368 0.98953 0.0
H2118 H 0.61229 0.53556 1.01219 0.0
H2119 H 0.47167 0.48389 0.99276 0.0
H2120 H 0.57242 0.63762 0.97616 0.0
H2121 H 0.32548 0.62737 0.96727 0.0
H2122 H 0.62989 0.58759 1.00392 0.0
H2123 H 0.4702 0.67499 1.01365 0.0
H2124 H 0.37269 0.60291 0.97534 0.0
H2125 H 0.46063 0.72784 1.02128 0.0
H2126 H 0.57284 0.49437 1.01251 0.0
H2127 H 0.31637 0.68317 0.9714 0.0
H2128 H 0.33361 0.73249 0.9823 0.0
H2129 H 0.52071 0.4748 1.00523 0.0
H2130 H 0.37115 0.76029 0.99655 0.0
N2131 N 0.39468 0.64528 0.98169 0.0
C2132 C 0.37134 0.62783 0.97601 0.0
C2133 C 0.33832 0.67283 0.97434 0.0
C2134 C 0.36078 0.69009 0.98127 0.0
C2135 C 0.34346 0.64144 0.97189 0.0
C2136 C 0.38902 0.6755 0.98498 0.0
H2137 H 0.41813 0.75865 1.01123 0.0
N2138 N 0.43442 0.67483 0.9984 0.0
C2139 C 0.4462 0.71784 1.01338 0.0
C2140 C 0.40965 0.69082 0.99344 0.0
C2141 C 0.45133 0.68738 1.00899 0.0
C2142 C 0.42236 0.73519 1.00763 0.0
C2143 C 0.40306 0.72144 0.99793 0.0
O2144 O 0.41329 0.62064 1.00711 0.0
O2145 O 0.48551 0.59159 0.9929 0.0
O2146 O 0.46403 0.56677 0.96034 0.0
O2147 O 0.42181 0.59055 0.97005 0.0
O2148 O 0.47821 0.62444 1.00713 0.0
O2149 O 0.42477 0.5786 0.99632 0.0
O2150 O 0.50555 0.56335 0.95441 0.0
O2151 O 0.46128 0.61918 0.96889 0.0
O2152 O 0.47422 0.67034 0.98562 0.0
O2153 O 0.51981 0.65142 0.97626 0.0
O2154 O 0.49769 0.63883 0.95815 0.0
O2155 O 0.54765 0.58752 0.95969 0.0
C2156 C 0.49613 0.6013 1.00459 0.0
C2157 C 0.37545 0.58099 1.00684 0.0
C2158 C 0.33746 0.54042 1.01175 0.0
C2159 C 0.36852 0.55005 1.0103 0.0
C2160 C 0.31352 0.56196 1.00904 0.0
C2161 C 0.3511 0.60232 1.00491 0.0
C2162 C 0.32038 0.5926 1.00564 0.0
C2163 C 0.43256 0.56902 0.96076 0.0
C2164 C 0.40806 0.59102 1.00591 0.0
C2165 C 0.37636 0.73677 0.99329 0.0
C2166 C 0.35501 0.72095 0.98517 0.0
C2167 C 0.46815 0.63996 0.96038 0.0
C2168 C 0.53837 0.57788 0.9366 0.0
C2169 C 0.54106 0.60921 0.93329 0.0
C2170 C 0.55387 0.61829 0.9209 0.0
C2171 C 0.55841 0.59566 0.91072 0.0
C2172 C 0.5431 0.55524 0.92655 0.0
C2173 C 0.55216 0.56432 0.91347 0.0
C2174 C 0.5037 0.67644 0.98141 0.0
C2175 C 0.53387 0.56952 0.95087 0.0
H2176 H 0.38728 0.53385 1.01227 0.0
H2177 H 0.28934 0.55578 1.01034 0.0
H2178 H 0.35569 0.62662 1.00294 0.0
H2179 H 0.30179 0.60914 1.00401 0.0
H2180 H 0.53665 0.62655 0.941 0.0
H2181 H 0.5685 0.60174 0.90099 0.0
H2182 H 0.54063 0.53077 0.92891 0.0
H2183 H 0.55622 0.54689 0.90571 0.0
Eu2184 Eu 0.2268 0.69447 0.73875 0.0
C2185 C 0.29611 0.79365 0.74 0.0
C2186 C 0.27237 0.84359 0.74492 0.0
C2187 C 0.3226 0.83071 0.7547 0.0
C2188 C 0.27154 0.8143 0.73841 0.0
C2189 C 0.32206 0.80185 0.74802 0.0
C2190 C 0.29776 0.85145 0.75321 0.0
C2191 C 0.34474 0.75189 0.74261 0.0
N2192 N 0.29436 0.76525 0.73397 0.0
C2193 C 0.31839 0.74459 0.73493 0.0
C2194 C 0.34656 0.7806 0.74922 0.0
Eu2195 Eu 0.25101 0.7566 0.7197 0.0
N2196 N 0.24726 0.80613 0.73029 0.0
C2197 C 0.22462 0.82736 0.72729 0.0
C2198 C 0.24797 0.86443 0.74267 0.0
C2199 C 0.22423 0.85644 0.73366 0.0
H2200 H 0.31711 0.72236 0.72985 0.0
H2201 H 0.20591 0.87291 0.73142 0.0
H2202 H 0.29864 0.87374 0.75836 0.0
H2203 H 0.36357 0.73533 0.74347 0.0
H2204 H 0.20709 0.82239 0.71973 0.0
H2205 H 0.234 0.57292 0.72197 0.0
H2206 H 0.24775 0.88711 0.74749 0.0
H2207 H 0.17215 0.71995 0.76225 0.0
H2208 H 0.25416 0.62334 0.7294 0.0
H2209 H 0.11866 0.70865 0.76855 0.0
H2210 H 0.34215 0.83723 0.76104 0.0
H2211 H 0.17777 0.56202 0.72329 0.0
H2212 H 0.12519 0.57887 0.73113 0.0
H2213 H 0.36687 0.78605 0.75528 0.0
H2214 H 0.09337 0.61656 0.74372 0.0
N2215 N 0.20942 0.6435 0.7328 0.0
C2216 C 0.22935 0.62012 0.7291 0.0
C2217 C 0.18642 0.58479 0.72611 0.0
C2218 C 0.1666 0.60745 0.73145 0.0
C2219 C 0.21811 0.5909 0.72528 0.0
C2220 C 0.17903 0.63683 0.73497 0.0
H2221 H 0.09098 0.66452 0.75802 0.0
N2222 N 0.17551 0.68358 0.74735 0.0
C2223 C 0.13028 0.69427 0.76107 0.0
C2224 C 0.16139 0.65772 0.74235 0.0
C2225 C 0.16103 0.70042 0.75745 0.0
C2226 C 0.11468 0.66949 0.75504 0.0
C2227 C 0.13054 0.65014 0.74598 0.0
O2228 O 0.27297 0.68446 0.74689 0.0
O2229 O 0.25582 0.73889 0.74174 0.0
O2230 O 0.28196 0.71437 0.70961 0.0
O2231 O 0.26018 0.67207 0.72007 0.0
O2232 O 0.22234 0.73164 0.75575 0.0
O2233 O 0.23269 0.66295 0.75595 0.0
O2234 O 0.29161 0.76165 0.70686 0.0
O2235 O 0.23158 0.71075 0.71829 0.0
O2236 O 0.17878 0.72398 0.73429 0.0
O2237 O 0.19615 0.7696 0.72444 0.0
O2238 O 0.2101 0.74345 0.70593 0.0
O2239 O 0.25175 0.79119 0.70334 0.0
C2240 C 0.24519 0.74999 0.75318 0.0
C2241 C 0.27546 0.6737 0.77035 0.0
C2242 C 0.31545 0.6615 0.78719 0.0
C2243 C 0.30411 0.66045 0.77372 0.0
C2244 C 0.29904 0.67966 0.79678 0.0
C2245 C 0.25916 0.69097 0.78013 0.0
C2246 C 0.27146 0.69466 0.79316 0.0
C2247 C 0.28122 0.68282 0.71062 0.0
C2248 C 0.2625 0.66747 0.75679 0.0
C2249 C 0.11716 0.62242 0.74124 0.0
C2250 C 0.13527 0.60096 0.73408 0.0
C2251 C 0.21084 0.71457 0.7095 0.0
C2252 C 0.28242 0.77696 0.68423 0.0
C2253 C 0.27606 0.80173 0.67562 0.0
C2254 C 0.27899 0.79866 0.66148 0.0
C2255 C 0.28857 0.77019 0.6559 0.0
C2256 C 0.29246 0.74853 0.67863 0.0
C2257 C 0.29557 0.74527 0.66451 0.0
C2258 C 0.17175 0.75301 0.7296 0.0
C2259 C 0.27886 0.7821 0.69894 0.0
H2260 H 0.31664 0.648 0.76588 0.0
H2261 H 0.30631 0.68109 0.8073 0.0
H2262 H 0.23692 0.70134 0.77776 0.0
H2263 H 0.25886 0.70808 0.80068 0.0
H2264 H 0.26771 0.82336 0.68001 0.0
H2265 H 0.29038 0.76724 0.64498 0.0
H2266 H 0.29778 0.72887 0.68505 0.0
H2267 H 0.30308 0.7233 0.66025 0.0
Eu2268 Eu 0.16202 0.48963 0.48676 0.0
C2269 C 0.06478 0.56057 0.48992 0.0
C2270 C 1.01498 0.53783 0.49572 0.0
C2271 C 1.02977 0.5878 0.5053 0.0
C2272 C 1.04349 0.53644 0.48866 0.0
C2273 C 0.05797 0.5866 0.49817 0.0
C2274 C 1.00841 0.56343 0.50413 0.0
C2275 C 0.1081 0.60784 0.49223 0.0
N2276 N 0.09259 0.55811 0.48348 0.0
C2277 C 0.11397 0.58149 0.48428 0.0
C2278 C 0.08001 0.61039 0.49922 0.0
Eu2279 Eu 0.09867 0.51483 0.46886 0.0
N2280 N 1.05048 0.51181 0.48049 0.0
C2281 C 1.02883 0.48923 0.47808 0.0
C2282 C 0.99366 0.51363 0.49398 0.0
C2283 C 1.00047 0.48944 0.485 0.0
H2284 H 0.13572 0.57969 0.4789 0.0
H2285 H 0.98365 0.47121 0.4832 0.0
H2286 H 0.98672 0.56474 0.50968 0.0
H2287 H 0.12526 0.62612 0.49297 0.0
H2288 H 1.03282 0.47134 0.47057 0.0
H2289 H 0.28198 0.49782 0.46831 0.0
H2290 H 0.97156 0.51383 0.49924 0.0
H2291 H 0.13897 0.43403 0.51038 0.0
H2292 H 0.23224 0.5176 0.47666 0.0
H2293 H 0.15098 0.38032 0.51612 0.0
H2294 H 1.02432 0.60743 0.5118 0.0
H2295 H 0.29324 0.4415 0.46911 0.0
H2296 H 0.27736 0.38854 0.47687 0.0
H2297 H 0.07565 0.63071 0.50547 0.0
H2298 H 0.24098 0.35615 0.48982 0.0
N2299 N 0.21257 0.47262 0.48002 0.0
C2300 C 0.23551 0.49276 0.47612 0.0
C2301 C 0.27071 0.44999 0.47231 0.0
C2302 C 0.24865 0.42989 0.47788 0.0
C2303 C 0.26439 0.48173 0.47178 0.0
C2304 C 0.21955 0.44213 0.4819 0.0
H2305 H 0.19426 0.35308 0.50476 0.0
N2306 N 0.1739 0.43802 0.49491 0.0
C2307 C 0.16465 0.39224 0.5085 0.0
C2308 C 0.19939 0.42414 0.48945 0.0
C2309 C 0.15805 0.42313 0.50518 0.0
C2310 C 0.18893 0.3769 0.50201 0.0
C2311 C 0.20743 0.39315 0.49278 0.0
O2312 O 0.17172 0.5355 0.4954 0.0
O2313 O 0.11777 0.51841 0.49061 0.0
O2314 O 0.14007 0.54583 0.45814 0.0
O2315 O 0.18299 0.52367 0.46799 0.0
O2316 O 0.12587 0.48395 0.50408 0.0
O2317 O 0.19508 0.49507 0.50344 0.0
O2318 O 0.09309 0.55534 0.45592 0.0
O2319 O 0.14416 0.49501 0.4665 0.0
O2320 O 0.13235 0.44175 0.48257 0.0
O2321 O 0.08601 0.45964 0.47357 0.0
O2322 O 0.10992 0.47419 0.45468 0.0
O2323 O 0.06127 0.51673 0.45382 0.0
C2324 C 0.10729 0.50689 0.50196 0.0
C2325 C 0.18448 0.53629 0.51869 0.0
C2326 C 0.19762 0.57428 0.53629 0.0
C2327 C 0.19829 0.56435 0.52261 0.0
C2328 C 0.17946 0.55716 0.5456 0.0
C2329 C 0.16737 0.51915 0.52821 0.0
C2330 C 0.16412 0.53012 0.5415 0.0
C2331 C 0.17166 0.54504 0.45877 0.0
C2332 C 0.1899 0.52472 0.50483 0.0
C2333 C 0.23479 0.38003 0.48757 0.0
C2334 C 0.25552 0.39847 0.48022 0.0
C2335 C 0.13913 0.4745 0.45768 0.0
C2336 C 0.07249 0.5462 0.43404 0.0
C2337 C 1.04708 0.53649 0.42645 0.0
C2338 C 1.04713 0.53838 0.41222 0.0
C2339 C 0.07322 0.55041 0.40551 0.0
C2340 C 0.09847 0.5587 0.42731 0.0
C2341 C 0.09871 0.5608 0.41309 0.0
C2342 C 0.10296 0.43496 0.47837 0.0
C2343 C 0.07053 0.54334 0.44892 0.0
H2344 H 0.21089 0.57749 0.51502 0.0
H2345 H 0.17838 0.56337 0.55626 0.0
H2346 H 0.15678 0.49723 0.52547 0.0
H2347 H 0.15079 0.51688 0.54881 0.0
H2348 H 1.02742 0.52633 0.43172 0.0
H2349 H 0.07389 0.55158 0.3945 0.0
H2350 H 0.11852 0.56666 0.43296 0.0
H2351 H 0.11881 0.57021 0.40793 0.0
Eu2352 Eu 0.37805 0.70858 0.36118 0.0
C2353 C 0.29322 0.79642 0.35742 0.0
C2354 C 0.31139 0.84373 0.34651 0.0
C2355 C 0.25841 0.82653 0.34291 0.0
C2356 C 0.31667 0.81815 0.35525 0.0
C2357 C 0.26405 0.80026 0.351 0.0
C2358 C 0.28205 0.84809 0.34061 0.0
C2359 C 0.24936 0.74962 0.35922 0.0
N2360 N 0.29975 0.77026 0.36471 0.0
C2361 C 0.27857 0.74656 0.36526 0.0
C2362 C 0.24184 0.77678 0.35227 0.0
Eu2363 Eu 0.34802 0.77138 0.37666 0.0
N2364 N 0.34522 0.81307 0.36079 0.0
C2365 C 0.3694 0.83258 0.35781 0.0
C2366 C 0.33603 0.86375 0.34358 0.0
C2367 C 0.36517 0.85801 0.34918 0.0
H2368 H 0.28386 0.72475 0.36998 0.0
H2369 H 0.38438 0.8734 0.34697 0.0
H2370 H 0.27764 0.8677 0.33396 0.0
H2371 H 0.23276 0.73079 0.3598 0.0
H2372 H 0.39187 0.82959 0.36239 0.0
H2373 H 0.41316 0.62687 0.40212 0.0
H2374 H 0.33288 0.88349 0.33687 0.0
H2375 H 0.41065 0.71214 0.3294 0.0
H2376 H 0.37868 0.66205 0.39066 0.0
H2377 H 0.4603 0.70084 0.31862 0.0
H2378 H 0.23615 0.82978 0.33796 0.0
H2379 H 0.46534 0.61637 0.39304 0.0
H2380 H 0.5044 0.62432 0.3748 0.0
H2381 H 0.2193 0.77885 0.34745 0.0
H2382 H 0.51753 0.64493 0.35227 0.0
N2383 N 0.40944 0.67259 0.37407 0.0
C2384 C 0.40054 0.65798 0.38586 0.0
C2385 C 0.44992 0.63197 0.38761 0.0
C2386 C 0.45884 0.64571 0.37538 0.0
C2387 C 0.42047 0.6377 0.39272 0.0
C2388 C 0.43769 0.66562 0.36858 0.0
H2389 H 0.50121 0.67297 0.33128 0.0
N2390 N 0.42326 0.69334 0.34881 0.0
C2391 C 0.45647 0.69422 0.32911 0.0
C2392 C 0.4449 0.67658 0.35571 0.0
C2393 C 0.42829 0.70109 0.33545 0.0
C2394 C 0.47946 0.67848 0.33628 0.0
C2395 C 0.47363 0.66881 0.3496 0.0
O2396 O 0.33323 0.68687 0.35736 0.0
O2397 O 0.34314 0.74784 0.35595 0.0
O2398 O 0.318 0.73028 0.38808 0.0
O2399 O 0.34258 0.68742 0.37905 0.0
O2400 O 0.37834 0.74188 0.3426 0.0
O2401 O 0.3739 0.67047 0.34656 0.0
O2402 O 0.31823 0.78957 0.3929 0.0
O2403 O 0.38555 0.73849 0.37871 0.0
O2404 O 0.42395 0.74133 0.36094 0.0
O2405 O 0.40474 0.78325 0.3731 0.0
O2406 O 0.36091 0.7468 0.39631 0.0
O2407 O 0.35508 0.81795 0.38481 0.0
C2408 C 0.35308 0.75733 0.34418 0.0
C2409 C 0.3254 0.66778 0.33529 0.0
C2410 C 0.28481 0.64213 0.32206 0.0
C2411 C 0.30147 0.64594 0.33429 0.0
C2412 C 0.29099 0.66275 0.31123 0.0
C2413 C 0.33142 0.68781 0.32438 0.0
C2414 C 0.31381 0.68566 0.3125 0.0
C2415 C 0.32073 0.69864 0.38798 0.0
C2416 C 0.34384 0.66877 0.34782 0.0
C2417 C 0.49532 0.65082 0.35676 0.0
C2418 C 0.48785 0.63912 0.36958 0.0
C2419 C 0.38385 0.7319 0.39115 0.0
C2420 C 0.35134 0.81407 0.40845 0.0
C2421 C 0.38328 0.80807 0.40929 0.0
C2422 C 0.39898 0.80987 0.42166 0.0
C2423 C 0.38169 0.81455 0.43366 0.0
C2424 C 0.33427 0.81882 0.4204 0.0
C2425 C 0.34944 0.81854 0.433 0.0
C2426 C 0.4297 0.7697 0.36647 0.0
C2427 C 0.33645 0.81319 0.39502 0.0
H2428 H 0.29665 0.63131 0.343 0.0
H2429 H 0.27933 0.66048 0.30152 0.0
H2430 H 0.34984 0.70482 0.32497 0.0
H2431 H 0.31857 0.70111 0.30406 0.0
H2432 H 0.39654 0.80337 0.40014 0.0
H2433 H 0.39315 0.81684 0.44342 0.0
H2434 H 0.30943 0.82264 0.41997 0.0
H2435 H 0.33634 0.8225 0.44224 0.0
Eu2436 Eu 0.15778 0.62103 0.11092 0.0
C2437 C 0.06089 0.54988 0.10702 0.0
C2438 C 1.00934 0.56999 0.10222 0.0
C2439 C 1.02646 0.52169 0.09172 0.0
C2440 C 1.03828 0.57262 0.10887 0.0
C2441 C 0.0552 0.52427 0.09837 0.0
C2442 C 1.00361 0.54448 0.09364 0.0
C2443 C 0.10742 0.50638 0.10295 0.0
N2444 N 0.08894 0.5535 0.11316 0.0
C2445 C 0.11201 0.53212 0.11142 0.0
C2446 C 0.07889 0.50238 0.09642 0.0
Eu2447 Eu 0.09279 0.59543 0.12848 0.0
N2448 N 1.04453 0.59727 0.11712 0.0
C2449 C 1.02221 0.61899 0.11982 0.0
C2450 C 0.98695 0.59305 0.10442 0.0
C2451 C 0.99335 0.61752 0.11334 0.0
H2452 H 0.13396 0.53489 0.11656 0.0
H2453 H 0.97586 0.63499 0.11539 0.0
H2454 H 0.98158 0.54219 0.0884 0.0
H2455 H 0.12587 0.48959 0.1015 0.0
H2456 H 1.02622 0.63711 0.12724 0.0
H2457 H 0.27403 0.64033 0.13151 0.0
H2458 H 0.96449 0.59189 0.09947 0.0
H2459 H 0.12119 0.66439 0.08652 0.0
H2460 H 0.22715 0.61059 0.12606 0.0
H2461 H 0.12538 0.71607 0.07618 0.0
H2462 H 1.02176 0.5023 0.08498 0.0
H2463 H 0.27792 0.69561 0.1249 0.0
H2464 H 0.25513 0.74096 0.11249 0.0
H2465 H 0.07547 0.4825 0.0898 0.0
H2466 H 0.21463 0.76153 0.09734 0.0
N2467 N 0.20298 0.64904 0.11735 0.0
C2468 C 0.22772 0.63491 0.12352 0.0
C2469 C 0.25694 0.68272 0.12262 0.0
C2470 C 0.23261 0.69641 0.11536 0.0
C2471 C 0.25481 0.65157 0.12639 0.0
C2472 C 0.20586 0.67851 0.11253 0.0
H2473 H 0.16678 0.75213 0.08349 0.0
N2474 N 0.16009 0.67046 0.09979 0.0
C2475 C 0.14196 0.70892 0.08385 0.0
C2476 C 0.18369 0.68962 0.10356 0.0
C2477 C 0.14004 0.6793 0.08962 0.0
C2478 C 0.16522 0.72927 0.08807 0.0
C2479 C 0.18683 0.71955 0.0978 0.0
O2480 O 0.17321 0.57461 0.10489 0.0
O2481 O 0.10986 0.60008 0.10672 0.0
O2482 O 0.13524 0.56434 0.13876 0.0
O2483 O 0.17872 0.5877 0.12985 0.0
O2484 O 0.13437 0.61107 0.09012 0.0
O2485 O 0.1973 0.61504 0.09722 0.0
O2486 O 0.08448 0.55273 0.13957 0.0
O2487 O 0.13838 0.61479 0.13102 0.0
O2488 O 0.1269 0.6685 0.11529 0.0
O2489 O 0.07991 0.65051 0.12389 0.0
O2490 O 0.10406 0.63488 0.14321 0.0
O2491 O 0.05761 0.59393 0.14454 0.0
C2492 C 0.10847 0.5985 0.09342 0.0
C2493 C 0.19468 0.57061 0.08291 0.0
C2494 C 0.20918 0.5271 0.06825 0.0
C2495 C 0.20859 0.54133 0.08116 0.0
C2496 C 0.19382 0.54166 0.05733 0.0
C2497 C 0.18164 0.58576 0.07159 0.0
C2498 C 0.1803 0.57086 0.05901 0.0
C2499 C 0.16696 0.56571 0.13865 0.0
C2500 C 0.19431 0.58491 0.09655 0.0
C2501 C 0.21203 0.73839 0.10154 0.0
C2502 C 0.23504 0.72672 0.1102 0.0
C2503 C 0.13321 0.63483 0.14009 0.0
C2504 C 0.06896 0.55844 0.1624 0.0
C2505 C 1.04452 0.56508 0.17111 0.0
C2506 C 1.04682 0.55921 0.1851 0.0
C2507 C 0.07418 0.54642 0.19043 0.0
C2508 C 0.09622 0.54506 0.16771 0.0
C2509 C 0.09873 0.53906 0.18168 0.0
C2510 C 0.09716 0.67516 0.11926 0.0
C2511 C 0.06467 0.56535 0.14787 0.0
H2512 H 0.22008 0.53024 0.0897 0.0
H2513 H 0.19424 0.5316 1.04722 0.0
H2514 H 0.17264 0.60916 0.07235 0.0
H2515 H 0.16975 0.58247 0.05039 0.0
H2516 H 1.02382 0.57597 0.16696 0.0
H2517 H 0.07659 0.54243 0.20126 0.0
H2518 H 0.11552 0.53936 0.16117 0.0
H2519 H 0.11986 0.52902 0.18573 0.0
Eu2520 Eu 0.22829 0.41155 0.8598 0.0
C2521 C 0.29862 0.31463 0.85715 0.0
C2522 C 0.27821 0.26335 0.852 0.0
C2523 C 0.32736 0.27978 0.84223 0.0
C2524 C 0.27551 0.29233 0.85866 0.0
C2525 C 0.32469 0.30859 0.84887 0.0
C2526 C 0.3042 0.25723 0.84379 0.0
C2527 C 0.34287 0.36062 0.85372 0.0
N2528 N 0.29492 0.34277 0.86326 0.0
C2529 C 0.31668 0.36557 0.86184 0.0
C2530 C 0.34695 0.332 0.84723 0.0
Eu2531 Eu 0.25219 0.3472 0.87806 0.0
N2532 N 0.25041 0.29896 0.86656 0.0
C2533 C 0.22818 0.27696 0.86885 0.0
C2534 C 0.25471 0.24129 0.85381 0.0
C2535 C 0.22971 0.24806 0.86234 0.0
H2536 H 0.31388 0.38758 0.86695 0.0
H2537 H 0.21188 0.23082 0.8641 0.0
H2538 H 0.30655 0.23516 0.83856 0.0
H2539 H 0.35995 0.37886 0.85252 0.0
H2540 H 0.20962 0.28113 0.876 0.0
H2541 H 0.20673 0.52742 0.8807 0.0
H2542 H 0.25591 0.2188 0.84885 0.0
H2543 H 0.1879 0.37651 0.83411 0.0
H2544 H 0.23718 0.48088 0.87532 0.0
H2545 H 0.13791 0.38185 0.82241 0.0
H2546 H 0.34712 0.2748 0.83576 0.0
H2547 H 0.15189 0.53107 0.87347 0.0
H2548 H 0.10773 0.50844 0.8602 0.0
H2549 H 0.36719 0.32831 0.84089 0.0
H2550 H 0.08915 0.46888 0.84407 0.0
N2551 N 0.19954 0.45659 0.86603 0.0
C2552 C 0.21306 0.48132 0.87249 0.0
C2553 C 0.1651 0.51023 0.87122 0.0
C2554 C 0.15216 0.48604 0.86359 0.0
C2555 C 0.196 0.50824 0.87532 0.0
C2556 C 0.17049 0.45951 0.8608 0.0
H2557 H 0.10073 0.42248 0.82954 0.0
N2558 N 0.18015 0.41454 0.84772 0.0
C2559 C 0.14395 0.39776 0.83054 0.0
C2560 C 0.16045 0.43781 0.85138 0.0
C2561 C 0.17263 0.39517 0.8371 0.0
C2562 C 0.12294 0.42055 0.83466 0.0
C2563 C 0.13124 0.44128 0.84501 0.0
O2564 O 0.27519 0.42728 0.85512 0.0
O2565 O 0.24924 0.3633 0.85592 0.0
O2566 O 0.28309 0.38937 0.88858 0.0
O2567 O 0.26056 0.43271 0.87909 0.0
O2568 O 0.24057 0.38871 0.83917 0.0
O2569 O 0.23572 0.45113 0.84625 0.0
O2570 O 0.2936 0.34022 0.89024 0.0
O2571 O 0.23298 0.39306 0.88005 0.0
O2572 O 0.18056 0.38005 0.86312 0.0
O2573 O 0.19691 0.33504 0.87415 0.0
O2574 O 0.21209 0.35955 0.89232 0.0
O2575 O 0.25341 0.31085 0.8936 0.0
C2576 C 0.25222 0.36239 0.84261 0.0
C2577 C 0.28345 0.45251 0.83413 0.0
C2578 C 0.32616 0.47769 0.82212 0.0
C2579 C 0.30999 0.47132 0.83424 0.0
C2580 C 0.31681 0.46245 0.81008 0.0
C2581 C 0.27368 0.43878 0.82189 0.0
C2582 C 0.29091 0.44299 0.81004 0.0
C2583 C 0.28197 0.42111 0.88823 0.0
C2584 C 0.2659 0.44904 0.84686 0.0
C2585 C 0.1118 0.46609 0.84873 0.0
C2586 C 0.12233 0.48855 0.85794 0.0
C2587 C 0.21244 0.38857 0.88891 0.0
C2588 C 0.28541 0.32246 0.91261 0.0
C2589 C 0.27718 0.29751 0.92076 0.0
C2590 C 0.28023 0.29905 0.93493 0.0
C2591 C 0.29199 0.3261 0.94102 0.0
C2592 C 0.2977 0.34944 0.91868 0.0
C2593 C 0.30103 0.35114 0.93284 0.0
C2594 C 0.17305 0.35138 0.86828 0.0
C2595 C 0.28097 0.31907 0.89786 0.0
H2596 H 0.31711 0.48222 0.84369 0.0
H2597 H 0.32817 0.46701 0.80046 0.0
H2598 H 0.2526 0.42529 0.82134 0.0
H2599 H 0.28337 0.43221 0.80063 0.0
H2600 H 0.26714 0.27705 0.916 0.0
H2601 H 0.2939 0.32791 0.95198 0.0
H2602 H 0.30453 0.36918 0.91258 0.0
H2603 H 0.31024 0.37202 0.93749 0.0
Eu2604 Eu 0.4417 0.4764 0.61191 0.0
C2605 C 0.53898 0.54695 0.6097 0.0
C2606 C 0.59052 0.52655 0.60517 0.0
C2607 C 0.57432 0.57543 0.59497 0.0
C2608 C 0.56129 0.52392 0.61154 0.0
C2609 C 0.54527 0.57285 0.60134 0.0
C2610 C 0.59687 0.55235 0.59688 0.0
C2611 C 0.49302 0.59102 0.60559 0.0
N2612 N 0.51065 0.54334 0.61556 0.0
C2613 C 0.48784 0.56499 0.61378 0.0
C2614 C 0.52188 0.59502 0.59936 0.0
Eu2615 Eu 0.50564 0.5007 0.6304 0.0
N2616 N 0.55444 0.49898 0.6195 0.0
C2617 C 0.57641 0.4769 0.62216 0.0
C2618 C 0.61258 0.50316 0.60734 0.0
C2619 C 0.60556 0.47836 0.61595 0.0
H2620 H 0.46562 0.56223 0.61866 0.0
H2621 H 0.62278 0.46061 0.61798 0.0
H2622 H 0.61914 0.55464 0.59186 0.0
H2623 H 0.47479 0.60802 0.6041 0.0
H2624 H 0.57192 0.45848 0.62935 0.0
H2625 H 0.32439 0.45522 0.6307 0.0
H2626 H 0.63526 0.5043 0.6026 0.0
H2627 H 0.48056 0.43473 0.58768 0.0
H2628 H 0.37163 0.48542 0.6264 0.0
H2629 H 0.47744 0.38372 0.57656 0.0
H2630 H 0.57948 0.59505 0.58844 0.0
H2631 H 0.32107 0.40048 0.62317 0.0
H2632 H 0.34493 0.35602 0.61043 0.0
H2633 H 0.52576 0.61513 0.59295 0.0
H2634 H 0.38656 0.33668 0.59556 0.0
N2635 N 0.39632 0.44772 0.61733 0.0
C2636 C 0.37119 0.46134 0.62341 0.0
C2637 C 0.34215 0.41358 0.62136 0.0
C2638 C 0.367 0.40047 0.61422 0.0
C2639 C 0.34395 0.44443 0.62565 0.0
C2640 C 0.39381 0.41866 0.61201 0.0
H2641 H 0.43546 0.34716 0.58259 0.0
N2642 N 0.44038 0.42779 0.60005 0.0
C2643 C 0.46013 0.39036 0.58399 0.0
C2644 C 0.41659 0.4083 0.60317 0.0
C2645 C 0.46146 0.4196 0.5902 0.0
C2646 C 0.43653 0.36972 0.5875 0.0
C2647 C 0.41406 0.37875 0.59698 0.0
O2648 O 0.42571 0.5233 0.6072 0.0
O2649 O 0.48994 0.4972 0.6083 0.0
O2650 O 0.46293 0.53196 0.64031 0.0
O2651 O 0.41983 0.50888 0.63088 0.0
O2652 O 0.4655 0.48788 0.59137 0.0
O2653 O 0.40313 0.48369 0.59779 0.0
O2654 O 0.51313 0.54242 0.64237 0.0
O2655 O 0.45984 0.4816 0.63225 0.0
O2656 O 0.47165 0.4284 0.61644 0.0
O2657 O 0.51826 0.44568 0.62573 0.0
O2658 O 0.49306 0.46078 0.64472 0.0
O2659 O 0.54039 0.50113 0.64668 0.0
C2660 C 0.49155 0.49973 0.59502 0.0
C2661 C 0.40242 0.53169 0.5858 0.0
C2662 C 0.37924 0.57539 0.57362 0.0
C2663 C 0.38439 0.55884 0.58576 0.0
C2664 C 0.39479 0.56568 0.56173 0.0
C2665 C 0.41649 0.52161 0.57369 0.0
C2666 C 0.41341 0.53911 0.56183 0.0
C2667 C 0.43123 0.5307 0.63987 0.0
C2668 C 0.40483 0.51394 0.59853 0.0
C2669 C 0.38871 0.35955 0.6001 0.0
C2670 C 0.36507 0.37051 0.60861 0.0
C2671 C 0.46411 0.46127 0.64124 0.0
C2672 C 0.5279 0.53448 0.66517 0.0
C2673 C 0.55258 0.52849 0.67386 0.0
C2674 C 0.54962 0.5326 0.68795 0.0
C2675 C 0.52138 0.54298 0.6934 0.0
C2676 C 0.49971 0.54544 0.67061 0.0
C2677 C 0.49658 0.54972 0.68468 0.0
C2678 C 0.50106 0.42132 0.62077 0.0
C2679 C 0.53282 0.52923 0.65055 0.0
H2680 H 0.3732 0.5662 0.59511 0.0
H2681 H 0.39111 0.57735 0.55211 0.0
H2682 H 0.42941 0.50011 0.57324 0.0
H2683 H 0.42445 0.53133 0.55253 0.0
H2684 H 0.57403 0.51944 0.66961 0.0
H2685 H 0.51852 0.54559 0.70429 0.0
H2686 H 0.48015 0.55053 0.66411 0.0
H2687 H 0.47477 0.5579 0.68883 0.0
H2688 H 0.2992 0.36802 0.43114 0.0
H2689 H 0.2439 0.3054 0.45532 0.0
H2690 H 0.26314 0.40959 0.43556 0.0
H2691 H 0.20906 0.34796 0.46114 0.0
H2692 H 0.12953 0.41252 0.4542 0.0
H2693 H 0.16915 0.37308 0.45058 0.0
H2694 H 0.23837 0.44575 0.44701 0.0
H2695 H 0.19855 0.48437 0.45025 0.0
C2696 C 0.28 0.36371 0.43801 0.0
C2697 C 0.27369 0.33352 0.44258 0.0
C2698 C 0.25912 0.3876 0.44057 0.0
C2699 C 0.23221 0.38199 0.44827 0.0
C2700 C 0.22856 0.35273 0.45452 0.0
C2701 C 0.24904 0.32853 0.45159 0.0
C2702 C 0.15334 0.41976 0.45272 0.0
C2703 C 0.16162 0.45115 0.4534 0.0
C2704 C 0.17617 0.39724 0.45079 0.0
C2705 C 0.20751 0.40594 0.44926 0.0
C2706 C 0.21484 0.43776 0.4485 0.0
C2707 C 0.19206 0.46011 0.45055 0.0
H2708 H 0.98724 1.04109 0.68149 0.0
H2709 H 0.05174 0.98593 0.70488 0.0
H2710 H 0.94651 1.00451 0.68615 0.0
H2711 H 1.00994 0.95074 0.7111 0.0
H2712 H 0.94522 0.87076 0.70528 0.0
H2713 H 0.98429 0.91048 0.70135 0.0
H2714 H 0.91119 0.97935 0.69755 0.0
H2715 H 0.87302 0.93939 0.70091 0.0
C2716 C 0.99221 1.02172 0.6882 0.0
C2717 C 1.0227 1.01565 0.69245 0.0
C2718 C 0.96875 1.00056 0.69094 0.0
C2719 C 0.97499 0.97362 0.69858 0.0
C2720 C 1.00461 0.97019 0.70452 0.0
C2721 C 1.02842 0.99089 0.70135 0.0
C2722 C 0.93783 0.89453 0.70368 0.0
C2723 C 0.90642 0.90265 0.7043 0.0
C2724 C 0.96015 0.91745 0.70157 0.0
C2725 C 0.95126 0.94876 0.69985 0.0
C2726 C 0.91941 0.9559 0.69913 0.0
C2727 C 0.89728 0.93302 0.70129 0.0
H2728 H 0.39111 0.81889 0.93688 0.0
H2729 H 0.31331 0.76545 0.95131 0.0
H2730 H 0.42599 0.7768 0.94255 0.0
H2731 H 0.34768 0.72319 0.95712 0.0
H2732 H 0.40765 0.63914 0.95257 0.0
H2733 H 0.3746 0.68388 0.94799 0.0
H2734 H 0.45286 0.74489 0.95558 0.0
H2735 H 0.48603 0.69996 0.95753 0.0
C2736 C 0.38186 0.79865 0.94205 0.0
C2737 C 0.34979 0.79532 0.94386 0.0
C2738 C 0.40178 0.77422 0.94521 0.0
C2739 C 0.38994 0.74608 0.95038 0.0
C2740 C 0.35796 0.74417 0.95323 0.0
C2741 C 0.33812 0.76868 0.95014 0.0
C2742 C 0.4174 0.66228 0.95328 0.0
C2743 C 0.44864 0.66646 0.95659 0.0
C2744 C 0.39852 0.68804 0.9508 0.0
C2745 C 0.41042 0.71847 0.95208 0.0
C2746 C 0.44235 0.72217 0.9546 0.0
C2747 C 0.46142 0.69634 0.95617 0.0
H2748 H 0.7248 0.15876 0.19778 0.0
H2749 H 0.64843 0.2204 0.20626 0.0
H2750 H 0.68963 0.1165 0.19417 0.0
H2751 H 0.61203 0.17847 0.202 0.0
H2752 H 0.55026 0.09895 0.20446 0.0
H2753 H 0.59 0.13628 0.21076 0.0
H2754 H 0.65557 0.08713 0.18497 0.0
H2755 H 0.6172 1.04823 0.18053 0.0
C2756 C 0.70022 0.16307 0.19894 0.0
C2757 C 0.68926 0.1919 0.20333 0.0
C2758 C 0.67966 0.13884 0.19663 0.0
C2759 C 0.64755 0.14308 0.1986 0.0
C2760 C 0.63657 0.17335 0.20139 0.0
C2761 C 0.65734 0.19763 0.20368 0.0
C2762 C 0.57377 0.09539 0.20086 0.0
C2763 C 0.58064 0.07146 0.19168 0.0
C2764 C 0.59636 0.11746 0.204 0.0
C2765 C 0.62573 0.11633 0.19766 0.0
C2766 C 0.63346 0.08971 0.19001 0.0
C2767 C 0.61137 0.06702 0.18744 0.0
H2768 H 0.24534 0.79821 0.1411 0.0
H2769 H 0.29994 0.73347 0.16454 0.0
H2770 H 0.20792 0.75755 0.13624 0.0
H2771 H 0.26117 0.69422 0.16154 0.0
H2772 H 0.19011 0.62265 0.15008 0.0
H2773 H 0.23156 0.65903 0.15329 0.0
H2774 H 0.16731 0.73509 0.14609 0.0
H2775 H 0.12613 0.69755 0.14242 0.0
C2776 C 0.24971 0.77496 0.14489 0.0
C2777 C 0.27487 0.76901 0.15351 0.0
C2778 C 0.22762 0.75188 0.14261 0.0
C2779 C 0.23002 0.72288 0.14924 0.0
C2780 C 0.25762 0.71601 0.15632 0.0
C2781 C 0.28027 0.73859 0.15802 0.0
C2782 C 0.18512 0.64717 0.149 0.0
C2783 C 0.15585 0.6574 0.14491 0.0
C2784 C 0.20889 0.66842 0.15105 0.0
C2785 C 0.20375 0.70042 0.14901 0.0
C2786 C 0.17306 0.71064 0.14667 0.0
C2787 C 0.14924 0.68921 0.14471 0.0
H2788 H 0.73683 0.95082 0.39867 0.0
H2789 H 0.65674 0.89589 0.38808 0.0
H2790 H 0.70372 0.99442 0.40426 0.0
H2791 H 0.62293 0.93898 0.39412 0.0
H2792 H 0.5661 1.02117 0.39604 0.0
H2793 H 0.60543 0.98656 0.3868 0.0
H2794 H 0.66947 1.01689 0.41815 0.0
H2795 H 0.6312 0.0533 0.42635 0.0
C2796 C 0.71199 0.94822 0.39754 0.0
C2797 C 0.69921 0.92087 0.3923 0.0
C2798 C 0.69286 0.97307 0.40092 0.0
C2799 C 0.66055 0.97083 0.39914 0.0
C2800 C 0.64778 0.94227 0.39488 0.0
C2801 C 0.66702 0.9174 0.39156 0.0
C2802 C 0.58919 1.02156 0.40041 0.0
C2803 C 0.59554 1.03904 0.41212 0.0
C2804 C 0.61151 1.00114 0.39538 0.0
C2805 C 0.64011 0.99764 0.40217 0.0
C2806 C 0.64772 1.01846 0.41269 0.0
C2807 C 0.62575 1.03945 0.41744 0.0
H2808 H 0.40719 0.47443 0.65097 0.0
H2809 H 0.46942 0.39824 0.64297 0.0
H2810 H 0.36464 0.43909 0.65338 0.0
H2811 H 0.42712 0.3617 0.64587 0.0
H2812 H 0.34903 0.29982 0.64114 0.0
H2813 H 0.38619 0.34036 0.63579 0.0
H2814 H 0.33373 0.40449 0.66105 0.0
H2815 H 0.29523 0.36525 0.66456 0.0
C2816 C 0.41157 0.44986 0.64964 0.0
C2817 C 0.44073 0.43905 0.64568 0.0
C2818 C 0.38713 0.42919 0.65123 0.0
C2819 C 0.39147 0.39717 0.64887 0.0
C2820 C 0.42197 0.38625 0.64665 0.0
C2821 C 0.44646 0.4071 0.64515 0.0
C2822 C 0.34468 0.32323 0.64476 0.0
C2823 C 0.32006 0.32939 0.65364 0.0
C2824 C 0.36667 0.34625 0.64222 0.0
C2825 C 0.36465 0.37532 0.64885 0.0
C2826 C 0.33712 0.38255 0.65591 0.0
C2827 C 0.31454 0.36001 0.65787 0.0
H2828 H 0.06559 0.18772 0.90564 0.0
H2829 H 1.0078 0.16258 0.93995 0.0
H2830 H 1.03133 0.23181 0.9012 0.0
H2831 H 0.97475 0.2056 0.93559 0.0
H2832 H 0.89394 0.24344 0.91643 0.0
H2833 H 0.94499 0.24726 0.92722 0.0
H2834 H 0.98682 0.20893 0.89081 0.0
H2835 H 0.93743 0.20613 0.88041 0.0
C2836 C 1.04637 0.19207 0.91248 0.0
C2837 C 1.03839 0.17045 0.92257 0.0
C2838 C 1.02708 0.21763 0.91012 0.0
C2839 C 0.99899 0.22046 0.91736 0.0
C2840 C 0.99543 0.20341 0.92939 0.0
C2841 C 1.01458 0.17812 0.93183 0.0
C2842 C 0.9142 0.23587 0.9108 0.0
C2843 C 0.9113 0.22335 0.89763 0.0
C2844 C 0.94346 0.23867 0.91687 0.0
C2845 C 0.97023 0.22854 0.90993 0.0
C2846 C 0.96716 0.21767 0.89653 0.0
C2847 C 0.93825 0.21503 0.89058 0.0
H2848 H 0.85571 0.80167 0.64141 0.0
H2849 H 0.80179 0.73525 0.66415 0.0
H2850 H 0.89294 0.76132 0.63574 0.0
H2851 H 0.84042 0.69619 0.66036 0.0
H2852 H 0.91166 0.62556 0.64831 0.0
H2853 H 0.87001 0.66164 0.65168 0.0
H2854 H 0.93385 0.73818 0.64503 0.0
H2855 H 0.9752 0.70093 0.64109 0.0
C2856 C 0.85145 0.77815 0.64487 0.0
C2857 C 0.82657 0.77158 0.65354 0.0
C2858 C 0.87344 0.7552 0.64212 0.0
C2859 C 0.87124 0.72571 0.64834 0.0
C2860 C 0.84384 0.71835 0.65545 0.0
C2861 C 0.82128 0.74084 0.65762 0.0
C2862 C 0.91652 0.65012 0.64737 0.0
C2863 C 0.94575 0.66059 0.6434 0.0
C2864 C 0.89262 0.6712 0.64952 0.0
C2865 C 0.89759 0.70331 0.64775 0.0
C2866 C 0.9282 0.7137 0.64543 0.0
C2867 C 0.95214 0.69243 0.64334 0.0
H2868 H 0.20033 0.07532 0.44453 0.0
H2869 H 0.15442 0.14452 0.4692 0.0
H2870 H 0.22341 0.11653 0.43076 0.0
H2871 H 0.17634 0.18562 0.45503 0.0
H2872 H 0.15962 0.20659 0.40495 0.0
H2873 H 0.15431 0.17738 0.42635 0.0
H2874 H 0.2537 0.17937 0.43184 0.0
H2875 H 0.25859 0.2103 0.41121 0.0
C2876 C 0.19681 0.09931 0.44754 0.0
C2877 C 0.17519 0.10693 0.45767 0.0
C2878 C 0.20966 0.12285 0.43958 0.0
C2879 C 0.20075 0.15387 0.44173 0.0
C2880 C 0.18317 0.16172 0.4532 0.0
C2881 C 0.17096 0.13827 0.46135 0.0
C2882 C 0.18013 0.20118 0.41089 0.0
C2883 C 0.20968 0.20885 0.40608 0.0
C2884 C 0.17717 0.18477 0.42309 0.0
C2885 C 0.20375 0.17608 0.43052 0.0
C2886 C 0.23304 0.18557 0.42615 0.0
C2887 C 0.23585 0.20254 0.41418 0.0
H2888 H 0.69638 0.47307 0.14581 0.0
H2889 H 0.63037 0.39866 0.14104 0.0
H2890 H 0.73787 0.43612 0.14824 0.0
H2891 H 0.67164 0.36078 0.14411 0.0
H2892 H 0.74717 0.29508 0.14117 0.0
H2893 H 0.71245 0.3367 0.13413 0.0
H2894 H 0.76458 0.40123 0.15924 0.0
H2895 H 0.80059 0.36052 0.1648 0.0
C2896 C 0.6909 0.4486 0.14515 0.0
C2897 C 0.66075 0.43857 0.14234 0.0
C2898 C 0.71469 0.42716 0.14677 0.0
C2899 C 0.70871 0.39509 0.14571 0.0
C2900 C 0.67771 0.38518 0.14413 0.0
C2901 C 0.65388 0.40681 0.14255 0.0
C2902 C 0.75203 0.31863 0.14447 0.0
C2903 C 0.77584 0.32468 0.1538 0.0
C2904 C 0.73156 0.34234 0.14085 0.0
C2905 C 0.73436 0.37209 0.14676 0.0
C2906 C 0.76101 0.37881 0.15452 0.0
C2907 C 0.78196 0.3554 0.15772 0.0
H2908 H 0.37008 0.94144 0.89749 0.0
H2909 H 0.44473 0.87577 0.89223 0.0
H2910 H 0.40677 0.98237 0.90181 0.0
H2911 H 0.48231 0.91651 0.89717 0.0
H2912 H 0.54591 0.99636 0.89425 0.0
H2913 H 0.5059 0.95914 0.88787 0.0
H2914 H 0.44117 1.00628 0.91467 0.0
H2915 H 0.48014 1.04467 0.91977 0.0
C2916 C 0.39454 0.93593 0.89714 0.0
C2917 C 0.40482 0.90618 0.89364 0.0
C2918 C 0.41577 0.95932 0.89987 0.0
C2919 C 0.44783 0.95329 0.89926 0.0
C2920 C 0.45791 0.92254 0.89697 0.0
C2921 C 0.43647 0.89908 0.89427 0.0
C2922 C 0.52262 0.99942 0.89819 0.0
C2923 C 0.51602 1.02293 0.90762 0.0
C2924 C 0.49992 0.97759 0.8949 0.0
C2925 C 0.47051 0.97882 0.90115 0.0
C2926 C 0.46331 1.0043 0.90956 0.0
C2927 C 0.48569 1.02645 0.91253 0.0
H2928 H 0.79989 0.37905 0.92671 0.0
H2929 H 0.84436 0.31158 0.95266 0.0
H2930 H 0.83994 0.41608 0.93163 0.0
H2931 H 0.8828 0.35001 0.95924 0.0
H2932 H 0.96959 0.40431 0.95592 0.0
H2933 H 0.92684 0.36949 0.95069 0.0
H2934 H 0.86864 0.44955 0.94205 0.0
H2935 H 0.9118 0.48319 0.94653 0.0
C2936 C 0.81745 0.37292 0.93415 0.0
C2937 C 0.8199 0.34233 0.93891 0.0
C2938 C 0.84077 0.39417 0.93698 0.0
C2939 C 0.86596 0.38574 0.94533 0.0
C2940 C 0.86505 0.35675 0.95203 0.0
C2941 C 0.84233 0.335 0.94871 0.0
C2942 C 0.94753 0.41411 0.95286 0.0
C2943 C 0.94301 0.44626 0.95249 0.0
C2944 C 0.9228 0.39427 0.95003 0.0
C2945 C 0.89334 0.40647 0.94672 0.0
C2946 C 0.89042 0.43877 0.94479 0.0
C2947 C 0.9151 0.4584 0.94762 0.0
H2948 H 0.55218 0.11011 0.70731 0.0
H2949 H 0.48683 1.05113 0.68641 0.0
H2950 H 0.51133 0.14759 0.71171 0.0
H2951 H 0.44737 0.08978 0.6887 0.0
H2952 H 0.37584 0.16261 0.69754 0.0
H2953 H 0.4125 0.12136 0.69491 0.0
H2954 H 0.4877 0.18676 0.70173 0.0
H2955 H 0.44975 0.2278 0.70477 0.0
C2956 C 0.52878 0.10486 0.70398 0.0
C2957 C 0.52268 0.07844 0.69611 0.0
C2958 C 0.50554 0.127 0.70593 0.0
C2959 C 0.47628 0.12341 0.69962 0.0
C2960 C 0.46935 0.09454 0.69353 0.0
C2961 C 0.49207 0.07185 0.69228 0.0
C2962 C 0.40023 0.1679 0.69869 0.0
C2963 C 0.41004 0.19747 0.70257 0.0
C2964 C 0.42173 0.14417 0.69699 0.0
C2965 C 0.45359 0.14963 0.69922 0.0
C2966 C 0.4634 0.18064 0.70115 0.0
C2967 C 0.44171 0.20443 0.70274 0.0
H2968 H 0.78455 0.7346 0.42543 0.0
H2969 H 0.73878 0.79615 0.45377 0.0
H2970 H 0.74542 0.69572 0.42911 0.0
H2971 H 0.70153 0.75553 0.45904 0.0
H2972 H 0.61993 0.69496 0.4576 0.0
H2973 H 0.65796 0.73342 0.45067 0.0
H2974 H 0.72147 0.6589 0.44008 0.0
H2975 H 0.68315 0.62129 0.44697 0.0
C2976 C 0.76665 0.73919 0.43293 0.0
C2977 C 0.76401 0.76863 0.439 0.0
C2978 C 0.74405 0.71679 0.43509 0.0
C2979 C 0.71922 0.72267 0.444 0.0
C2980 C 0.71913 0.75073 0.45147 0.0
C2981 C 0.74114 0.77371 0.44886 0.0
C2982 C 0.64226 0.68712 0.45394 0.0
C2983 C 0.65005 0.65556 0.45391 0.0
C2984 C 0.66416 0.70908 0.44999 0.0
C2985 C 0.69389 0.69958 0.4457 0.0
C2986 C 0.69941 0.66761 0.44367 0.0
C2987 C 0.67762 0.64578 0.44783 0.0
H2988 H 0.23077 0.9393 0.19792 0.0
H2989 H 0.15532 0.87498 0.20365 0.0
H2990 H 0.19492 0.98098 0.1944 0.0
H2991 H 0.11828 0.9164 0.19905 0.0
H2992 H 0.05494 0.99587 0.20142 0.0
H2993 H 0.0944 0.95823 0.2079 0.0
H2994 H 0.1614 1.00807 0.18321 0.0
H2995 H 0.12297 1.04682 0.1783 0.0
C2996 C 0.20627 0.93423 0.19848 0.0
C2997 C 0.19563 0.90466 0.20196 0.0
C2998 C 0.18538 0.95813 0.19616 0.0
C2999 C 0.15324 0.95277 0.19701 0.0
C3000 C 0.14274 0.92208 0.19912 0.0
C3001 C 0.16387 0.89815 0.20156 0.0
C3002 C 0.07866 0.99946 0.19811 0.0
C3003 C 0.08608 1.02373 0.18923 0.0
C3004 C 0.10107 0.9773 0.20136 0.0
C3005 C 0.13096 0.97893 0.19556 0.0
C3006 C 0.13896 1.00548 0.18797 0.0
C3007 C 0.1169 1.02805 0.18515 0.0
H3008 H 0.65722 0.91464 0.96897 0.0
H3009 H 0.59448 0.92764 0.93554 0.0
H3010 H 0.66622 0.86269 0.96264 0.0
H3011 H 0.59954 0.87288 0.92994 0.0
H3012 H 0.68058 0.82026 0.91026 0.0
H3013 H 0.63555 0.84459 0.91886 0.0
H3014 H 0.65655 0.8108 0.95923 0.0
H3015 H 0.70354 0.78627 0.9505 0.0
C3016 C 0.64622 0.90708 0.95997 0.0
C3017 C 0.62744 0.9268 0.95228 0.0
C3018 C 0.64979 0.87597 0.95666 0.0
C3019 C 0.63371 0.86291 0.94562 0.0
C3020 C 0.61296 0.88199 0.93836 0.0
C3021 C 0.61033 0.91358 0.94151 0.0
C3022 C 0.67545 0.81646 0.9209 0.0
C3023 C 0.69737 0.80355 0.92995 0.0
C3024 C 0.64889 0.83062 0.92591 0.0
C3025 C 0.64448 0.83266 0.94002 0.0
C3026 C 0.66118 0.81197 0.9484 0.0
C3027 C 0.68822 0.79805 0.94344 0.0
H3028 H 0.44443 0.36877 0.20647 0.0
H3029 H 0.3737 0.43911 0.20279 0.0
H3030 H 0.48432 0.40786 0.20301 0.0
H3031 H 0.41271 0.47841 0.19979 0.0
H3032 H 0.49053 0.5387 0.18405 0.0
H3033 H 0.44867 0.50347 0.18876 0.0
H3034 H 0.51077 0.44703 0.21321 0.0
H3035 H 0.55362 0.4809 0.20692 0.0
C3036 C 0.43753 0.39277 0.20514 0.0
C3037 C 0.40631 0.40152 0.20588 0.0
C3038 C 0.46034 0.41533 0.20329 0.0
C3039 C 0.45211 0.44691 0.20191 0.0
C3040 C 0.42043 0.45473 0.20119 0.0
C3041 C 0.39781 0.43221 0.20313 0.0
C3042 C 0.49496 0.51909 0.1907 0.0
C3043 C 0.52533 0.51179 0.19472 0.0
C3044 C 0.47086 0.49868 0.19345 0.0
C3045 C 0.4764 0.47129 0.20088 0.0
C3046 C 0.50596 0.46682 0.20675 0.0
C3047 C 0.53039 0.48676 0.20355 0.0
H3048 H 0.95605 0.19664 0.46612 0.0
H3049 H 1.00303 0.16118 0.43061 0.0
H3050 H 0.95788 0.24767 0.45744 0.0
H3051 H 1.00592 0.21411 0.42162 0.0
H3052 H 0.91818 0.2707 0.40825 0.0
H3053 H 0.96433 0.24273 0.41248 0.0
H3054 H 0.97969 0.29543 0.44928 0.0
H3055 H 0.93264 0.3254 0.44481 0.0
C3056 C 0.96667 0.19953 0.45639 0.0
C3057 C 0.97806 0.17425 0.44894 0.0
C3058 C 0.96887 0.22951 0.4515 0.0
C3059 C 0.98229 0.23543 0.43876 0.0
C3060 C 0.99535 0.2104 0.43148 0.0
C3061 C 0.99303 0.18003 0.43648 0.0
C3062 C 0.93177 0.27808 0.41692 0.0
C3063 C 0.92024 0.29914 0.42674 0.0
C3064 C 0.959 0.26182 0.41929 0.0
C3065 C 0.97383 0.26485 0.4319 0.0
C3066 C 0.96718 0.2913 0.43987 0.0
C3067 C 0.93981 0.30792 0.43751 0.0
H3068 H 0.11242 0.54974 0.6831 0.0
H3069 H 1.0455 0.60354 0.70572 0.0
H3070 H 0.15238 0.58636 0.68875 0.0
H3071 H 0.08637 0.6389 0.71295 0.0
H3072 H 0.14826 0.7212 0.70674 0.0
H3073 H 0.11075 0.67972 0.70341 0.0
H3074 H 0.18653 0.61375 0.69961 0.0
H3075 H 0.22301 0.65543 0.70216 0.0
C3076 C 0.10681 0.56861 0.69001 0.0
C3077 C 0.07592 0.5746 0.69359 0.0
C3078 C 0.1298 0.58994 0.69326 0.0
C3079 C 0.12251 0.61686 0.70078 0.0
C3080 C 0.09251 0.61961 0.70639 0.0
C3081 C 0.06921 0.59876 0.70269 0.0
C3082 C 0.15657 0.69769 0.70523 0.0
C3083 C 0.1883 0.69094 0.70556 0.0
C3084 C 0.13515 0.67373 0.7035 0.0
C3085 C 0.14526 0.64271 0.70194 0.0
C3086 C 0.17734 0.63689 0.70103 0.0
C3087 C 0.19856 0.66082 0.70274 0.0
H3088 H 0.62047 0.19458 0.64284 0.0
H3089 H 0.68877 0.12185 0.64643 0.0
H3090 H 0.6608 0.23349 0.6457 0.0
H3091 H 0.72928 0.1598 0.64873 0.0
H3092 H 0.79349 0.23636 0.66256 0.0
H3093 H 0.75663 0.19541 0.65877 0.0
H3094 H 0.69972 0.25859 0.63504 0.0
H3095 H 0.73543 0.30057 0.64044 0.0
C3096 C 0.64429 0.18703 0.64404 0.0
C3097 C 0.65207 0.15549 0.64346 0.0
C3098 C 0.66756 0.20926 0.64552 0.0
C3099 C 0.69892 0.20016 0.64665 0.0
C3100 C 0.70582 0.16823 0.64754 0.0
C3101 C 0.68258 0.14619 0.646 0.0
C3102 C 0.77345 0.24116 0.65622 0.0
C3103 C 0.76664 0.27166 0.65218 0.0
C3104 C 0.75203 0.21759 0.65402 0.0
C3105 C 0.72407 0.22378 0.64712 0.0
C3106 C 0.71994 0.25332 0.64116 0.0
C3107 C 0.74095 0.27723 0.6438 0.0
H3108 H 0.22589 0.44462 0.89961 0.0
H3109 H 0.1495 0.38392 0.89005 0.0
H3110 H 0.19064 0.48714 0.90319 0.0
H3111 H 0.1132 0.42603 0.89414 0.0
H3112 H 0.05203 0.5055 0.89142 0.0
H3113 H 0.09254 0.46903 0.88504 0.0
H3114 H 0.15566 0.51556 0.91282 0.0
H3115 H 0.11653 0.55377 0.91752 0.0
C3116 C 0.20133 0.44056 0.89821 0.0
C3117 C 0.19038 0.41193 0.89357 0.0
C3118 C 0.18077 0.4649 0.90048 0.0
C3119 C 0.14876 0.46096 0.89815 0.0
C3120 C 0.13774 0.43089 0.89504 0.0
C3121 C 0.15846 0.40652 0.89283 0.0
C3122 C 0.07519 0.5088 0.89547 0.0
C3123 C 0.08107 0.53164 0.9053 0.0
C3124 C 0.09819 0.4872 0.89225 0.0
C3125 C 0.12697 0.48773 0.89912 0.0
C3126 C 0.13394 0.51352 0.90741 0.0
C3127 C 0.11142 0.53578 0.91012 0.0
H3128 H 0.99249 0.95604 0.16665 0.0
H3129 H 0.95101 0.91119 0.13184 0.0
H3130 H 1.00032 0.90495 0.1771 0.0
H3131 H 0.95794 0.86187 0.14186 0.0
H3132 H 0.94594 0.78258 0.15482 0.0
H3133 H 0.98841 0.81885 0.15077 0.0
H3134 H 0.96178 0.87111 0.18641 0.0
H3135 H 0.92019 0.83617 0.19045 0.0
C3136 C 0.98481 0.9355 0.16122 0.0
C3137 C 0.97021 0.938 0.14844 0.0
C3138 C 0.98996 0.90626 0.16707 0.0
C3139 C 0.98041 0.87907 0.16026 0.0
C3140 C 0.96667 0.88188 0.14737 0.0
C3141 C 0.96156 0.91074 0.14168 0.0
C3142 C 0.94989 0.80119 0.16205 0.0
C3143 C 0.9282 0.80767 0.17233 0.0
C3144 C 0.97465 0.82157 0.15993 0.0
C3145 C 0.97628 0.8493 0.16755 0.0
C3146 C 0.96008 0.85087 0.17987 0.0
C3147 C 0.93558 0.83061 0.1821 0.0
H3148 H 0.54038 0.63182 0.39853 0.0
H3149 H 0.51016 0.62896 0.44053 0.0
H3150 H 0.50595 0.67616 0.39468 0.0
H3151 H 0.47716 0.67338 0.4368 0.0
H3152 H 0.38337 0.69477 0.41333 0.0
H3153 H 0.42881 0.67151 0.42415 0.0
H3154 H 0.48877 0.72993 0.39989 0.0
H3155 H 0.4434 0.75327 0.3897 0.0
C3156 C 0.5271 0.64113 0.40696 0.0
C3157 C 0.52791 0.62689 0.41974 0.0
C3158 C 0.50774 0.66667 0.40486 0.0
C3159 C 0.48867 0.67774 0.41547 0.0
C3160 C 0.49137 0.66501 0.42846 0.0
C3161 C 0.51052 0.63966 0.43055 0.0
C3162 C 0.40632 0.70284 0.41053 0.0
C3163 C 0.41035 0.72312 0.39957 0.0
C3164 C 0.4323 0.68991 0.41679 0.0
C3165 C 0.46229 0.69803 0.41232 0.0
C3166 C 0.4659 0.72215 0.40297 0.0
C3167 C 0.43997 0.73479 0.39676 0.0
H3168 H 0.31095 0.23162 0.16676 0.0
H3169 H 0.36506 0.29858 0.14438 0.0
H3170 H 0.34982 0.19274 0.16301 0.0
H3171 H 0.4026 0.25845 0.13878 0.0
H3172 H 0.48273 0.19467 0.14147 0.0
H3173 H 0.44328 0.23294 0.14707 0.0
H3174 H 0.37704 0.15813 0.15292 0.0
H3175 H 0.41685 0.12095 0.14784 0.0
C3176 C 0.33066 0.23744 0.1604 0.0
C3177 C 0.33558 0.26815 0.15619 0.0
C3178 C 0.35326 0.21503 0.15821 0.0
C3179 C 0.38051 0.22236 0.15099 0.0
C3180 C 0.38307 0.25219 0.14512 0.0
C3181 C 0.36093 0.27503 0.14784 0.0
C3182 C 0.45953 0.18681 0.14388 0.0
C3183 C 0.45183 0.15528 0.14325 0.0
C3184 C 0.43671 0.20868 0.14697 0.0
C3185 C 0.40596 0.19915 0.14959 0.0
C3186 C 0.3998 0.16707 0.15057 0.0
C3187 C 0.42258 0.14541 0.14745 0.0
H3188 H 0.5827 0.64984 0.94153 0.0
H3189 H 0.55989 0.65672 0.89865 0.0
H3190 H 0.61777 0.69285 0.93947 0.0
H3191 H 0.59712 0.69909 0.89655 0.0
H3192 H 0.67127 0.76483 0.8934 0.0
H3193 H 0.62172 0.75217 0.90379 0.0
H3194 H 0.66703 0.67955 0.92682 0.0
H3195 H 0.71597 0.69101 0.9154 0.0
C3196 C 0.5839 0.66127 0.93174 0.0
C3197 C 0.56866 0.6493 0.92012 0.0
C3198 C 0.6043 0.686 0.93064 0.0
C3199 C 0.61048 0.69872 0.91789 0.0
C3200 C 0.5926 0.68958 0.90657 0.0
C3201 C 0.57174 0.66493 0.90769 0.0
C3202 C 0.67018 0.74525 0.90014 0.0
C3203 C 0.6958 0.72561 0.90213 0.0
C3204 C 0.64225 0.73905 0.90658 0.0
C3205 C 0.64037 0.714 0.91556 0.0
C3206 C 0.66775 0.6987 0.91967 0.0
C3207 C 0.69561 0.70479 0.91302 0.0
H3208 H 0.29476 0.85931 0.66378 0.0
H3209 H 0.23729 0.79631 0.64068 0.0
H3210 H 0.25996 0.90149 0.65875 0.0
H3211 H 0.20389 0.83938 0.63413 0.0
H3212 H 0.12531 0.9051 0.64114 0.0
H3213 H 0.1647 0.86541 0.64449 0.0
H3214 H 0.23457 0.93757 0.64777 0.0
H3215 H 0.19493 0.97645 0.64484 0.0
C3216 C 0.2754 0.85497 0.65698 0.0
C3217 C 0.26792 0.82455 0.65304 0.0
C3218 C 0.25521 0.87924 0.65407 0.0
C3219 C 0.22793 0.87372 0.64657 0.0
C3220 C 0.22354 0.84414 0.64067 0.0
C3221 C 0.24325 0.81958 0.64401 0.0
C3222 C 0.14922 0.91217 0.64247 0.0
C3223 C 0.15767 0.9435 0.64181 0.0
C3224 C 0.17195 0.88949 0.64424 0.0
C3225 C 0.20342 0.89793 0.64561 0.0
C3226 C 0.21097 0.92971 0.64639 0.0
C3227 C 0.18827 0.95223 0.64451 0.0
H3228 H 0.98595 0.54705 0.41717 0.0
H3229 H 1.04943 0.49674 0.39128 0.0
H3230 H 0.94674 0.50838 0.41339 0.0
H3231 H 1.00869 0.45968 0.38584 0.0
H3232 H 0.94942 0.37634 0.39135 0.0
H3233 H 0.98688 0.41744 0.39546 0.0
H3234 H 0.91103 0.4814 0.40329 0.0
H3235 H 0.87453 0.44005 0.39946 0.0
C3236 C 0.99089 0.52832 0.41009 0.0
C3237 C 1.02094 0.52412 0.40493 0.0
C3238 C 0.96828 0.50592 0.40787 0.0
C3239 C 0.97474 0.47973 0.39976 0.0
C3240 C 1.00339 0.4784 0.39283 0.0
C3241 C 1.02651 0.50023 0.39555 0.0
C3242 C 0.94105 0.39939 0.39378 0.0
C3243 C 0.90926 0.40597 0.394 0.0
C3244 C 0.96244 0.42311 0.39605 0.0
C3245 C 0.95223 0.45361 0.39884 0.0
C3246 C 0.92026 0.45875 0.40078 0.0
C3247 C 0.89902 0.43509 0.39837 0.0
H3248 H 0.49969 0.95614 0.43168 0.0
H3249 H 0.45689 0.90788 0.46515 0.0
H3250 H 0.50939 0.90618 0.42058 0.0
H3251 H 0.46514 0.85967 0.45451 0.0
H3252 H 0.4433 0.78735 0.43957 0.0
H3253 H 0.49018 0.8165 0.44512 0.0
H3254 H 0.4778 0.87196 0.409 0.0
H3255 H 0.4329 0.84251 0.40309 0.0
C3256 C 0.49201 0.93507 0.43667 0.0
C3257 C 0.47638 0.93638 0.44924 0.0
C3258 C 0.49808 0.90636 0.43042 0.0
C3259 C 0.4882 0.87841 0.43652 0.0
C3260 C 0.4739 0.88008 0.44935 0.0
C3261 C 0.46806 0.90841 0.45546 0.0
C3262 C 0.45157 0.80477 0.43249 0.0
C3263 C 0.43305 0.81439 0.42153 0.0
C3264 C 0.4786 0.82132 0.43556 0.0
C3265 C 0.48466 0.84922 0.4285 0.0
C3266 C 0.47208 0.85233 0.4154 0.0
C3267 C 0.44574 0.83534 0.41203 0.0
H3268 H 0.95378 0.72026 0.20669 0.0
H3269 H 0.87725 0.65886 0.19827 0.0
H3270 H 0.99001 0.67782 0.20319 0.0
H3271 H 0.91236 0.61613 0.19523 0.0
H3272 H 0.98559 0.54738 0.18239 0.0
H3273 H 0.94676 0.58609 0.18656 0.0
H3274 H 1.01124 0.63585 0.21264 0.0
H3275 H 0.0514 0.59861 0.20669 0.0
C3276 C 0.94478 0.69744 0.2043 0.0
C3277 C 0.91283 0.69196 0.20377 0.0
C3278 C 0.96546 0.67287 0.20243 0.0
C3279 C 0.95439 0.64256 0.19983 0.0
C3280 C 0.92235 0.63851 0.1976 0.0
C3281 C 0.90184 0.66302 0.19954 0.0
C3282 C 0.99103 0.56617 0.18937 0.0
C3283 C 1.02162 0.5709 0.19375 0.0
C3284 C 0.9687 0.5888 0.19174 0.0
C3285 C 0.9761 0.61562 0.19932 0.0
C3286 C 1.0052 0.61687 0.20591 0.0
C3287 C 1.02801 0.59485 0.20298 0.0
H3288 H 0.23798 0.30284 0.95542 0.0
H3289 H 0.29137 0.23767 0.93162 0.0
H3290 H 0.20139 0.262 0.96109 0.0
H3291 H 0.25338 0.19801 0.93559 0.0
H3292 H 0.18526 0.12569 0.94952 0.0
H3293 H 0.22577 0.16275 0.94518 0.0
H3294 H 0.16042 0.23798 0.95209 0.0
H3295 H 0.12029 0.19996 0.95676 0.0
C3296 C 0.24225 0.27949 0.95171 0.0
C3297 C 0.26691 0.27339 0.94284 0.0
C3298 C 0.22063 0.25626 0.95448 0.0
C3299 C 0.22302 0.22686 0.94816 0.0
C3300 C 0.25 0.22006 0.94064 0.0
C3301 C 0.27213 0.24288 0.93836 0.0
C3302 C 0.1799 0.15022 0.95029 0.0
C3303 C 0.15068 0.16021 0.95454 0.0
C3304 C 0.20307 0.17178 0.94763 0.0
C3305 C 0.19734 0.20385 0.94918 0.0
C3306 C 0.16666 0.21362 0.95182 0.0
C3307 C 0.14346 0.1919 0.95439 0.0
H3308 H 0.54723 0.49012 0.70839 0.0
H3309 H 0.60992 0.54915 0.68607 0.0
H3310 H 0.58996 0.45536 0.71389 0.0
H3311 H 0.65162 0.51322 0.68993 0.0
H3312 H 0.72572 0.44434 0.70036 0.0
H3313 H 0.68776 0.48508 0.69892 0.0
H3314 H 0.6144 0.41665 0.7028 0.0
H3315 H 0.65337 0.37609 0.70477 0.0
C3316 C 0.57043 0.49614 0.70506 0.0
C3317 C 0.57535 0.52163 0.69649 0.0
C3318 C 0.59476 0.47564 0.70774 0.0
C3319 C 0.62401 0.48007 0.70159 0.0
C3320 C 0.62965 0.50824 0.69475 0.0
C3321 C 0.60567 0.52922 0.69255 0.0
C3322 C 0.70148 0.43821 0.70119 0.0
C3323 C 0.69237 0.40763 0.70374 0.0
C3324 C 0.6794 0.46161 0.70017 0.0
C3325 C 0.64762 0.4548 0.7016 0.0
C3326 C 0.63859 0.42337 0.70264 0.0
C3327 C 0.66085 0.39994 0.7036 0.0
H3328 H 0.11307 0.22568 0.36766 0.0
H3329 H 0.14719 0.31852 0.37224 0.0
H3330 H 0.05936 0.24535 0.36764 0.0
H3331 H 0.09333 0.33842 0.37184 0.0
H3332 H 0.98607 0.37605 0.36466 0.0
H3333 H 1.04005 0.35679 0.36506 0.0
H3334 H 1.00708 0.26518 0.37403 0.0
H3335 H 0.95318 0.28468 0.37396 0.0
C3336 C 0.11002 0.25057 0.36865 0.0
C3337 C 0.13789 0.26923 0.36999 0.0
C3338 C 0.07764 0.26243 0.36866 0.0
C3339 C 0.0684 0.29478 0.36972 0.0
C3340 C 0.09633 0.31353 0.37092 0.0
C3341 C 0.12878 0.30158 0.37118 0.0
C3342 C 0.98944 0.35157 0.36675 0.0
C3343 C 0.96185 0.33311 0.3692 0.0
C3344 C 1.02196 0.33998 0.36703 0.0
C3345 C 1.03152 0.30812 0.36956 0.0
C3346 C 1.00384 0.28965 0.37192 0.0
C3347 C 0.97136 0.30137 0.37188 0.0
H3348 H 0.97604 0.74 0.61499 0.0
H3349 H 0.06837 0.70623 0.62133 0.0
H3350 H 0.99555 0.79389 0.61498 0.0
H3351 H 0.08809 0.76011 0.62101 0.0
H3352 H 0.1268 0.86672 0.61448 0.0
H3353 H 0.10726 0.81285 0.61478 0.0
H3354 H 1.01486 0.84687 0.62092 0.0
H3355 H 1.03462 0.90075 0.62091 0.0
C3356 C 1.00077 0.74316 0.61636 0.0
C3357 C 1.01937 0.71534 0.61816 0.0
C3358 C 1.01254 0.77564 0.61639 0.0
C3359 C 1.04473 0.78498 0.61797 0.0
C3360 C 0.06335 0.75707 0.61966 0.0
C3361 C 0.05149 0.7246 0.61988 0.0
C3362 C 0.10209 0.86363 0.61591 0.0
C3363 C 0.08354 0.89152 0.61761 0.0
C3364 C 0.0903 0.83116 0.61614 0.0
C3365 C 0.05815 0.82188 0.61786 0.0
C3366 C 1.03957 0.84986 0.61947 0.0
C3367 C 0.05145 0.88233 0.61949 0.0
H3368 H 0.48317 0.87926 0.86575 0.0
H3369 H 0.45163 0.78569 0.87075 0.0
H3370 H 0.53747 0.861 0.86582 0.0
H3371 H 0.50591 0.76725 0.87056 0.0
H3372 H 0.61278 0.73083 0.86441 0.0
H3373 H 0.55883 0.74953 0.86475 0.0
H3374 H 0.59118 0.84242 0.87145 0.0
H3375 H 0.64542 0.82341 0.87142 0.0
C3376 C 0.48691 0.85449 0.86681 0.0
C3377 C 0.45952 0.83512 0.86819 0.0
C3378 C 0.51964 0.84348 0.8669 0.0
C3379 C 0.52977 0.8114 0.86816 0.0
C3380 C 0.5023 0.79201 0.86947 0.0
C3381 C 0.46956 0.8031 0.86961 0.0
C3382 C 0.60935 0.75551 0.86599 0.0
C3383 C 0.63696 0.77438 0.8678 0.0
C3384 C 0.57678 0.76678 0.86623 0.0
C3385 C 0.56694 0.79875 0.86809 0.0
C3386 C 0.59461 0.81776 0.86986 0.0
C3387 C 0.6273 0.80635 0.86986 0.0
H3388 H 0.47902 0.23374 0.11551 0.0
H3389 H 0.57197 0.19993 0.11964 0.0
H3390 H 0.49831 0.28766 0.11582 0.0
H3391 H 0.59146 0.25393 0.11969 0.0
H3392 H 0.62901 0.36144 0.11423 0.0
H3393 H 0.60992 0.30738 0.11416 0.0
H3394 H 0.51765 0.34025 0.12172 0.0
H3395 H 0.53695 0.39426 0.12205 0.0
C3396 C 0.50386 0.2369 0.11642 0.0
C3397 C 0.52269 0.20903 0.11749 0.0
C3398 C 0.51549 0.26941 0.11666 0.0
C3399 C 0.54775 0.27881 0.11777 0.0
C3400 C 0.56663 0.25086 0.11875 0.0
C3401 C 0.55492 0.21831 0.11874 0.0
C3402 C 0.60441 0.35805 0.1159 0.0
C3403 C 0.58573 0.38567 0.11811 0.0
C3404 C 0.5929 0.32546 0.11591 0.0
C3405 C 0.56093 0.3158 0.1179 0.0
C3406 C 0.54224 0.34352 0.12002 0.0
C3407 C 0.55385 0.37609 0.12024 0.0
H3408 H 0.95699 0.81523 0.22278 0.0
H3409 H 0.9904 0.72461 0.2332 0.0
H3410 H 1.01072 0.83511 0.22281 0.0
H3411 H 1.04422 0.74423 0.2329 0.0
H3412 H 0.15107 0.78244 0.22577 0.0
H3413 H 0.09733 0.76249 0.22609 0.0
H3414 H 0.06298 0.85567 0.22936 0.0
H3415 H 0.1167 0.87545 0.22939 0.0
C3416 C 0.97525 0.79878 0.22512 0.0
C3417 C 0.96593 0.76711 0.22807 0.0
C3418 C 1.00763 0.81074 0.22516 0.0
C3419 C 1.03542 0.7926 0.22785 0.0
C3420 C 1.02604 0.76081 0.23064 0.0
C3421 C 0.99361 0.74899 0.23087 0.0
C3422 C 0.13261 0.79941 0.22661 0.0
C3423 C 0.14165 0.83181 0.22759 0.0
C3424 C 0.10022 0.78742 0.22683 0.0
C3425 C 0.07221 0.80615 0.22776 0.0
C3426 C 0.08134 0.83858 0.22858 0.0
C3427 C 0.11372 0.85051 0.22864 0.0
H3428 H 0.47643 0.86069 0.48545 0.0
H3429 H 0.56829 0.89459 0.47821 0.0
H3430 H 0.49587 0.80686 0.48504 0.0
H3431 H 0.58803 0.84058 0.47816 0.0
H3432 H 0.62669 0.7336 0.48399 0.0
H3433 H 0.60739 0.78754 0.48393 0.0
H3434 H 0.51445 0.75405 0.47902 0.0
H3435 H 0.53397 0.70001 0.4788 0.0
C3436 C 0.50109 0.85756 0.48383 0.0
C3437 C 0.51955 0.88542 0.48196 0.0
C3438 C 0.5128 0.8251 0.48354 0.0
C3439 C 0.54483 0.81574 0.48161 0.0
C3440 C 0.5634 0.84367 0.4798 0.0
C3441 C 0.55155 0.87621 0.47982 0.0
C3442 C 0.6019 0.73682 0.48287 0.0
C3443 C 0.58313 0.70902 0.48143 0.0
C3444 C 0.59027 0.76933 0.4828 0.0
C3445 C 0.55807 0.77878 0.4815 0.0
C3446 C 0.53924 0.75091 0.48014 0.0
C3447 C 0.55096 0.71834 0.47999 0.0
H3448 H 0.64921 0.28449 0.72431 0.0
H3449 H 0.61589 0.37682 0.73146 0.0
H3450 H 0.59536 0.26492 0.72451 0.0
H3451 H 0.56199 0.35745 0.73133 0.0
H3452 H 0.45511 0.31881 0.72496 0.0
H3453 H 0.50896 0.33845 0.72513 0.0
H3454 H 0.54261 0.24562 0.73075 0.0
H3455 H 0.48876 0.22619 0.73091 0.0
C3456 C 0.63095 0.3014 0.72594 0.0
C3457 C 0.64036 0.33346 0.72793 0.0
C3458 C 0.59849 0.28962 0.72608 0.0
C3459 C 0.57068 0.30829 0.72794 0.0
C3460 C 0.58015 0.34043 0.72978 0.0
C3461 C 0.61264 0.35211 0.7299 0.0
C3462 C 0.47343 0.30185 0.7263 0.0
C3463 C 0.46414 0.26967 0.72795 0.0
C3464 C 0.5059 0.31366 0.72642 0.0
C3465 C 0.53378 0.29494 0.72794 0.0
C3466 C 0.52439 0.2627 0.72946 0.0
C3467 C 0.49193 0.25097 0.72959 0.0
H3468 H 0.12145 0.2367 0.98361 0.0
H3469 H 1.02975 0.20358 0.97532 0.0
H3470 H 0.10224 0.29074 0.98322 0.0
H3471 H 1.0103 0.25761 0.97525 0.0
H3472 H 0.97154 0.36489 0.98132 0.0
H3473 H 0.99074 0.31083 0.98138 0.0
H3474 H 0.08379 0.34398 0.97665 0.0
H3475 H 0.0644 0.39803 0.97624 0.0
C3476 C 0.09689 0.24 0.98176 0.0
C3477 C 0.07839 0.21225 0.9796 0.0
C3478 C 0.08531 0.27261 0.98147 0.0
C3479 C 0.05338 0.28225 0.97922 0.0
C3480 C 1.03484 0.25441 0.97714 0.0
C3481 C 1.04655 0.22181 0.97717 0.0
C3482 C 0.99633 0.36158 0.98024 0.0
C3483 C 1.01515 0.38934 0.97875 0.0
C3484 C 1.00792 0.32897 0.98025 0.0
C3485 C 1.04015 0.31933 0.97905 0.0
C3486 C 0.05899 0.34718 0.97769 0.0
C3487 C 1.04732 0.37979 0.97742 0.0
H3488 H 0.11081 0.72304 0.73305 0.0
H3489 H 0.14385 0.81534 0.72584 0.0
H3490 H 0.05685 0.74228 0.73282 0.0
H3491 H 0.08992 0.83479 0.72589 0.0
H3492 H 0.98331 0.87333 0.73187 0.0
H3493 H 1.03722 0.85403 0.73183 0.0
H3494 H 1.00394 0.76094 0.72668 0.0
H3495 H 0.95001 0.78045 0.72643 0.0
C3496 C 0.10747 0.74772 0.73146 0.0
C3497 C 0.13509 0.76643 0.72951 0.0
C3498 C 0.07497 0.75931 0.73127 0.0
C3499 C 0.06543 0.79139 0.72936 0.0
C3500 C 0.09314 0.81012 0.72751 0.0
C3501 C 0.12563 0.79843 0.72745 0.0
C3502 C 0.98659 0.84852 0.73072 0.0
C3503 C 0.9589 0.82967 0.72919 0.0
C3504 C 1.01906 0.83688 0.73065 0.0
C3505 C 1.02853 0.80462 0.72929 0.0
C3506 C 1.00076 0.78576 0.72786 0.0
C3507 C 0.96827 0.79748 0.72768 0.0
H3508 H 0.98485 0.24558 0.48451 0.0
H3509 H 0.07564 0.21286 0.47415 0.0
H3510 H 1.00374 0.29966 0.48395 0.0
H3511 H 0.09489 0.26696 0.47404 0.0
H3512 H 0.13353 0.37396 0.48056 0.0
H3513 H 0.11463 0.31985 0.48065 0.0
H3514 H 1.02118 0.35274 0.47678 0.0
H3515 H 1.04026 0.40687 0.47634 0.0
C3516 C 1.00916 0.24902 0.48217 0.0
C3517 C 1.02754 0.22142 0.47947 0.0
C3518 C 1.02053 0.2816 0.48179 0.0
C3519 C 0.05213 0.29129 0.47898 0.0
C3520 C 0.0706 0.26361 0.47639 0.0
C3521 C 0.05904 0.23102 0.47645 0.0
C3522 C 0.10871 0.37056 0.47971 0.0
C3523 C 0.08963 0.39821 0.47846 0.0
C3524 C 0.09732 0.33796 0.47972 0.0
C3525 C 0.06511 0.32831 0.47877 0.0
C3526 C 1.046 0.35605 0.47764 0.0
C3527 C 0.05747 0.38866 0.47734 0.0
H3528 H 0.61007 0.22123 0.23231 0.0
H3529 H 0.64316 0.31386 0.22601 0.0
H3530 H 0.55615 0.24056 0.23246 0.0
H3531 H 0.58926 0.33339 0.22646 0.0
H3532 H 0.48271 0.37181 0.23313 0.0
H3533 H 0.53658 0.35242 0.2327 0.0
H3534 H 0.50303 0.25968 0.22677 0.0
H3535 H 0.44913 0.27928 0.22691 0.0
C3536 C 0.60676 0.24599 0.23097 0.0
C3537 C 0.63441 0.26474 0.22913 0.0
C3538 C 0.57426 0.25765 0.23103 0.0
C3539 C 0.56471 0.28985 0.2295 0.0
C3540 C 0.59245 0.30863 0.22778 0.0
C3541 C 0.62494 0.29688 0.22748 0.0
C3542 C 0.4859 0.34705 0.23173 0.0
C3543 C 0.45813 0.32835 0.23012 0.0
C3544 C 0.51838 0.33535 0.23142 0.0
C3545 C 0.5278 0.30316 0.22971 0.0
C3546 C 0.49994 0.28443 0.2282 0.0
C3547 C 0.46745 0.29622 0.22826 0.0
H3548 H 0.62278 0.86551 0.98516 0.0
H3549 H 0.53092 0.89862 0.97707 0.0
H3550 H 0.60378 0.81155 0.98491 0.0
H3551 H 0.51155 0.8445 0.97733 0.0
H3552 H 0.47388 0.73739 0.9847 0.0
H3553 H 0.49275 0.79146 0.98441 0.0
H3554 H 0.58545 0.75858 0.97796 0.0
H3555 H 0.56631 0.70442 0.97787 0.0
C3556 C 0.59821 0.86219 0.98336 0.0
C3557 C 0.57962 0.88989 0.98117 0.0
C3558 C 0.58677 0.82965 0.9832 0.0
C3559 C 0.55485 0.82004 0.98115 0.0
C3560 C 0.53612 0.8478 0.97908 0.0
C3561 C 0.54774 0.8804 0.97893 0.0
C3562 C 0.49854 0.74077 0.9832 0.0
C3563 C 0.51737 0.71309 0.98139 0.0
C3564 C 0.5099 0.77336 0.98298 0.0
C3565 C 0.54189 0.78301 0.98119 0.0
C3566 C 0.5608 0.75526 0.97948 0.0
C3567 C 0.54932 0.72264 0.97942 0.0
H3568 H 0.12361 0.34989 0.84741 0.0
H3569 H 0.13334 0.32014 0.88868 0.0
H3570 H 0.06994 0.32996 0.84698 0.0
H3571 H 0.07898 0.30163 0.88853 0.0
H3572 H 0.96142 0.2924 0.88745 0.0
H3573 H 1.0157 0.31117 0.88809 0.0
H3574 H 1.02799 0.2825 0.84671 0.0
H3575 H 0.97446 0.26198 0.84638 0.0
C3576 C 0.11501 0.33954 0.85667 0.0
C3577 C 0.1363 0.33794 0.86809 0.0
C3578 C 0.08271 0.3274 0.85641 0.0
C3579 C 0.06655 0.31303 0.86772 0.0
C3580 C 0.08766 0.31191 0.87924 0.0
C3581 C 0.1204 0.32298 0.87932 0.0
C3582 C 0.97499 0.2898 0.87825 0.0
C3583 C 0.95999 0.27485 0.86675 0.0
C3584 C 1.0077 0.30094 0.87865 0.0
C3585 C 1.02967 0.29981 0.86744 0.0
C3586 C 1.01444 0.28526 0.85591 0.0
C3587 C 0.9822 0.27299 0.85569 0.0
H3588 H 0.5633 0.39311 0.62407 0.0
H3589 H 0.47086 0.36042 0.61709 0.0
H3590 H 0.58257 0.33904 0.62365 0.0
H3591 H 0.48992 0.30631 0.61702 0.0
H3592 H 0.52812 0.19911 0.62329 0.0
H3593 H 0.50876 0.25318 0.62334 0.0
H3594 H 0.60131 0.28629 0.61689 0.0
H3595 H 0.62044 0.23223 0.6165 0.0
C3596 C 0.54632 0.37494 0.62246 0.0
C3597 C 0.51433 0.38455 0.62061 0.0
C3598 C 0.5579 0.34237 0.62218 0.0
C3599 C 0.53907 0.3147 0.6203 0.0
C3600 C 0.50701 0.32438 0.61858 0.0
C3601 C 0.49552 0.35697 0.6186 0.0
C3602 C 0.54506 0.21736 0.6218 0.0
C3603 C 0.57704 0.20789 0.61982 0.0
C3604 C 0.53342 0.24993 0.62181 0.0
C3605 C 0.55219 0.2777 0.62014 0.0
C3606 C 0.58425 0.26814 0.61831 0.0
C3607 C 0.59578 0.23557 0.61803 0.0
H3608 H 0.63243 0.85026 0.34567 0.0
H3609 H 0.63723 0.8353 0.38865 0.0
H3610 H 0.5785 0.83081 0.34548 0.0
H3611 H 0.58264 0.81753 0.3886 0.0
H3612 H 0.46515 0.80998 0.38549 0.0
H3613 H 0.51952 0.82844 0.38595 0.0
H3614 H 0.53631 0.7832 0.34782 0.0
H3615 H 0.4826 0.76315 0.34783 0.0
C3616 C 0.62266 0.84332 0.35533 0.0
C3617 C 0.64262 0.84555 0.36718 0.0
C3618 C 0.59023 0.83152 0.35522 0.0
C3619 C 0.5727 0.82149 0.36702 0.0
C3620 C 0.59249 0.82429 0.37892 0.0
C3621 C 0.62533 0.83493 0.37895 0.0
C3622 C 0.47979 0.80351 0.37701 0.0
C3623 C 0.46599 0.78413 0.36654 0.0
C3624 C 0.51253 0.81449 0.3773 0.0
C3625 C 0.53574 0.80864 0.36689 0.0
C3626 C 0.52173 0.78972 0.35633 0.0
C3627 C 0.4894 0.77774 0.35631 0.0
H3628 H 0.97653 0.86304 0.11307 0.0
H3629 H 0.0675 0.89756 0.12183 0.0
H3630 H 0.99626 0.80932 0.11387 0.0
H3631 H 0.08759 0.84367 0.1222 0.0
H3632 H 0.1271 0.73639 0.11631 0.0
H3633 H 0.10764 0.79037 0.11603 0.0
H3634 H 1.01477 0.75688 0.121 0.0
H3635 H 1.0344 0.70295 0.12162 0.0
C3636 C 1.00105 0.86008 0.11511 0.0
C3637 C 1.01915 0.88809 0.11729 0.0
C3638 C 1.01294 0.82768 0.11563 0.0
C3639 C 1.04487 0.81852 0.11808 0.0
C3640 C 0.06308 0.84659 0.12017 0.0
C3641 C 1.05102 0.87907 0.11995 0.0
C3642 C 0.1023 0.73964 0.1174 0.0
C3643 C 0.08357 0.71187 0.11901 0.0
C3644 C 0.09057 0.77217 0.11726 0.0
C3645 C 0.05831 0.78161 0.11844 0.0
C3646 C 1.03957 0.75376 0.11994 0.0
C3647 C 0.05137 0.72125 0.12034 0.0
H3648 H 0.22504 0.29413 0.32917 0.0
H3649 H 0.30223 0.23167 0.33212 0.0
H3650 H 0.24687 0.31656 0.30836 0.0
H3651 H 0.32447 0.25388 0.31131 0.0
H3652 H 0.36776 0.2985 0.27174 0.0
H3653 H 0.3455 0.27571 0.29235 0.0
H3654 H 0.26652 0.33638 0.28858 0.0
H3655 H 0.28931 0.35909 0.26795 0.0
C3656 C 0.24697 0.28497 0.32558 0.0
C3657 C 0.26143 0.26084 0.33335 0.0
C3658 C 0.25997 0.2982 0.31319 0.0
C3659 C 0.28862 0.28828 0.30711 0.0
C3660 C 0.30283 0.26368 0.31485 0.0
C3661 C 0.28981 0.25054 0.32729 0.0
C3662 C 0.34531 0.30695 0.27503 0.0
C3663 C 0.33069 0.33066 0.26707 0.0
C3664 C 0.33209 0.29357 0.28732 0.0
C3665 C 0.30301 0.30294 0.29317 0.0
C3666 C 0.28851 0.32704 0.28522 0.0
C3667 C 0.30177 0.34035 0.27286 0.0
H3668 H 1.04671 0.13027 0.52112 0.0
H3669 H 0.99611 1.04648 0.51324 0.0
H3670 H 0.06844 0.10749 0.54187 0.0
H3671 H 1.01803 1.02307 0.53394 0.0
H3672 H 0.05631 0.98099 0.57509 0.0
H3673 H 1.03493 1.00365 0.55424 0.0
H3674 H 0.09095 0.08519 0.56049 0.0
H3675 H 0.11238 0.06193 0.58129 0.0
C3676 C 1.04028 0.10659 0.52355 0.0
C3677 C 1.01968 0.09076 0.51445 0.0
C3678 C 0.05308 0.09303 0.5359 0.0
C3679 C 1.04614 0.06228 0.54064 0.0
C3680 C 1.0252 1.04648 0.53152 0.0
C3681 C 1.01244 0.06012 0.51911 0.0
C3682 C 0.06401 1.00407 0.57229 0.0
C3683 C 0.08589 1.01926 0.581 0.0
C3684 C 0.05149 1.0175 0.55985 0.0
C3685 C 0.05996 1.04748 0.55466 0.0
C3686 C 0.08228 0.06257 0.56336 0.0
C3687 C 0.09477 1.04904 0.57583 0.0
H3688 H 0.36941 0.80406 0.82703 0.0
H3689 H 0.29107 0.86485 0.83083 0.0
H3690 H 0.34711 0.78134 0.80637 0.0
H3691 H 0.26833 0.84238 0.81015 0.0
H3692 H 0.22486 0.79787 0.77068 0.0
H3693 H 0.24723 0.82063 0.79129 0.0
H3694 H 0.32748 0.76184 0.78671 0.0
H3695 H 0.30454 0.73917 0.76611 0.0
C3696 C 0.34701 0.8126 0.8237 0.0
C3697 C 0.33236 0.83629 0.83164 0.0
C3698 C 0.3338 0.7993 0.81139 0.0
C3699 C 0.30477 0.80882 0.80558 0.0
C3700 C 0.29026 0.83292 0.81352 0.0
C3701 C 0.30351 0.84612 0.82588 0.0
C3702 C 0.24762 0.78989 0.7738 0.0
C3703 C 0.26257 0.76675 0.76566 0.0
C3704 C 0.26088 0.80323 0.78608 0.0
C3705 C 0.29032 0.7943 0.79168 0.0
C3706 C 0.30519 0.77079 0.78353 0.0
C3707 C 0.29187 0.75755 0.77118 0.0
H3708 H 0.55443 0.11547 0.07764 0.0
H3709 H 0.48648 1.04283 0.07792 0.0
H3710 H 0.57839 0.09297 0.0573 0.0
H3711 H 0.51028 1.01984 0.05754 0.0
H3712 H 0.55603 0.97705 1.01799 0.0
H3713 H 0.53245 0.99904 1.03856 0.0
H3714 H 0.59963 0.07302 1.03803 0.0
H3715 H 0.62305 1.05056 1.01748 0.0
C3716 C 0.54454 0.09422 0.07362 0.0
C3717 C 0.5184 0.08117 0.08051 0.0
C3718 C 0.55859 0.08091 0.06147 0.0
C3719 C 0.54751 0.05341 0.05475 0.0
C3720 C 0.52101 1.04053 0.06164 0.0
C3721 C 0.50699 0.05391 0.07382 0.0
C3722 C 0.56593 0.99824 1.02207 0.0
C3723 C 0.5917 1.01172 1.01507 0.0
C3724 C 0.55203 1.01132 1.0343 0.0
C3725 C 0.56288 1.03898 1.04098 0.0
C3726 C 0.58911 0.05215 1.03401 0.0
C3727 C 0.60295 1.03905 1.02173 0.0
H3728 H 0.3764 0.79773 0.32432 0.0
H3729 H 0.29106 0.75065 0.33295 0.0
H3730 H 0.35432 0.8186 0.30332 0.0
H3731 H 0.26826 0.77191 0.31198 0.0
H3732 H 0.2294 0.80582 0.26957 0.0
H3733 H 0.25137 0.78475 0.29064 0.0
H3734 H 0.33124 0.84371 0.28569 0.0
H3735 H 0.30885 0.86452 0.26464 0.0
C3736 C 0.3525 0.792 0.32199 0.0
C3737 C 0.33599 0.7727 0.33133 0.0
C3738 C 0.33937 0.80432 0.30953 0.0
C3739 C 0.30842 0.79807 0.30496 0.0
C3740 C 0.2919 0.77838 0.31431 0.0
C3741 C 0.30513 0.76613 0.32686 0.0
C3742 C 0.25199 0.81417 0.27273 0.0
C3743 C 0.26713 0.83666 0.26435 0.0
C3744 C 0.26495 0.80193 0.28527 0.0
C3745 C 0.29419 0.81141 0.29085 0.0
C3746 C 0.30919 0.83428 0.28247 0.0
C3747 C 0.29617 0.84647 0.26989 0.0
H3748 H 0.54604 0.11857 0.57834 0.0
H3749 H 0.60192 1.037 0.58337 0.0
H3750 H 0.52257 0.09626 0.55785 0.0
H3751 H 0.57825 1.014 0.56297 0.0
H3752 H 0.53776 0.97431 0.52171 0.0
H3753 H 0.56097 0.99636 0.54236 0.0
H3754 H 0.49704 0.07314 0.54023 0.0
H3755 H 0.47406 1.05069 0.51955 0.0
C3756 C 0.55318 0.09539 0.57538 0.0
C3757 C 0.57578 0.07993 0.58362 0.0
C3758 C 0.53937 0.08213 0.56318 0.0
C3759 C 0.54719 0.05214 0.55777 0.0
C3760 C 0.57018 1.03676 0.566 0.0
C3761 C 0.58391 1.05008 0.57826 0.0
C3762 C 0.52854 0.99614 0.52544 0.0
C3763 C 0.50396 1.01046 0.51792 0.0
C3764 C 0.54216 1.00921 0.53773 0.0
C3765 C 0.53213 1.03769 0.54396 0.0
C3766 C 0.50698 1.05169 0.5365 0.0
C3767 C 0.49339 1.03856 0.52418 0.0
H3768 H 0.36213 0.30545 0.76542 0.0
H3769 H 0.30126 0.22813 0.77173 0.0
H3770 H 0.34092 0.3309 0.78581 0.0
H3771 H 0.28024 0.25279 0.79213 0.0
H3772 H 0.23878 0.3016 0.83123 0.0
H3773 H 0.25995 0.27603 0.81086 0.0
H3774 H 0.32365 0.35208 0.80553 0.0
H3775 H 0.30256 0.37691 0.82586 0.0
C3776 C 0.34354 0.29387 0.7708 0.0
C3777 C 0.33306 0.26449 0.76579 0.0
C3778 C 0.33122 0.30861 0.78304 0.0
C3779 C 0.30778 0.29506 0.79164 0.0
C3780 C 0.29766 0.26555 0.78655 0.0
C3781 C 0.30994 0.25097 0.77437 0.0
C3782 C 0.25803 0.31265 0.82608 0.0
C3783 C 0.26927 0.34151 0.83134 0.0
C3784 C 0.27036 0.29783 0.81386 0.0
C3785 C 0.29457 0.31083 0.80551 0.0
C3786 C 0.30551 0.33981 0.81086 0.0
C3787 C 0.29323 0.35445 0.82303 0.0
H3788 H 1.04892 0.11997 1.02016 0.0
H3789 H 0.10697 1.03965 1.01592 0.0
H3790 H 1.0252 0.09769 1.04055 0.0
H3791 H 0.08313 1.01672 1.03629 0.0
H3792 H 1.04019 0.97592 0.07682 0.0
H3793 H 0.06353 0.99777 0.05622 0.0
H3794 H 1.00171 0.07617 0.05897 0.0
H3795 H 0.97848 0.05382 0.07956 0.0
C3796 C 0.05657 0.09708 1.0233 0.0
C3797 C 0.07989 0.08198 1.01531 0.0
C3798 C 1.04262 0.08385 1.03546 0.0
C3799 C 1.05099 0.05425 1.0411 0.0
C3800 C 0.07465 1.0392 1.0331 0.0
C3801 C 0.08859 0.05253 1.02089 0.0
C3802 C 1.03146 0.99807 0.07324 0.0
C3803 C 1.00732 1.01278 0.0809 0.0
C3804 C 1.0452 1.01105 0.06097 0.0
C3805 C 1.03579 1.0399 0.0549 0.0
C3806 C 1.01114 0.05436 0.06253 0.0
C3807 C 0.99743 1.04131 0.07483 0.0
H3808 H 0.72411 0.78926 0.82558 0.0
H3809 H 0.80755 0.73687 0.83176 0.0
H3810 H 0.74593 0.81205 0.80487 0.0
H3811 H 0.83001 0.75989 0.81115 0.0
H3812 H 0.86981 0.79975 0.77004 0.0
H3813 H 0.84772 0.77672 0.79064 0.0
H3814 H 0.76841 0.83706 0.78697 0.0
H3815 H 0.79096 0.85988 0.76634 0.0
C3816 C 0.74747 0.78257 0.82275 0.0
C3817 C 0.76362 0.76119 0.83136 0.0
C3818 C 0.76048 0.79606 0.81046 0.0
C3819 C 0.79085 0.78904 0.80533 0.0
C3820 C 0.80685 0.76716 0.81391 0.0
C3821 C 0.79378 0.75374 0.82626 0.0
C3822 C 0.84732 0.80804 0.77337 0.0
C3823 C 0.83244 0.83162 0.76546 0.0
C3824 C 0.83426 0.7946 0.78565 0.0
C3825 C 0.80513 0.80379 0.79147 0.0
C3826 C 0.79039 0.82777 0.78356 0.0
C3827 C 0.80351 0.84117 0.77123 0.0
H3828 H 0.79433 0.37152 0.32703 0.0
H3829 H 0.85986 0.29735 0.33172 0.0
H3830 H 0.77328 0.34681 0.30663 0.0
H3831 H 0.83887 0.272 0.31128 0.0
H3832 H 0.79788 0.22424 0.27214 0.0
H3833 H 0.81861 0.24874 0.29261 0.0
H3834 H 0.75643 0.32598 0.28673 0.0
H3835 H 0.73548 0.30065 0.26625 0.0
C3836 C 0.80395 0.34924 0.32407 0.0
C3837 C 0.82834 0.33648 0.33223 0.0
C3838 C 0.79177 0.33473 0.31185 0.0
C3839 C 0.80329 0.30618 0.30628 0.0
C3840 C 0.82797 0.29343 0.31446 0.0
C3841 C 0.84019 0.30811 0.32672 0.0
C3842 C 0.7888 0.24686 0.27489 0.0
C3843 C 0.76532 0.26019 0.26641 0.0
C3844 C 0.80091 0.26136 0.28712 0.0
C3845 C 0.79026 0.29056 0.29236 0.0
C3846 C 0.76651 0.30393 0.28385 0.0
C3847 C 0.75435 0.28927 0.27156 0.0
H3848 H 0.7318 0.29887 0.76756 0.0
H3849 H 0.80709 0.36371 0.76585 0.0
H3850 H 0.75371 0.27574 0.78821 0.0
H3851 H 0.82944 0.34077 0.78654 0.0
H3852 H 0.8729 0.29424 0.82573 0.0
H3853 H 0.8515 0.31678 0.80486 0.0
H3854 H 0.77109 0.25821 0.80876 0.0
H3855 H 0.79302 0.23573 0.82962 0.0
C3856 C 0.75351 0.30819 0.77132 0.0
C3857 C 0.76745 0.33319 0.76394 0.0
C3858 C 0.76644 0.29469 0.78366 0.0
C3859 C 0.79444 0.30522 0.7901 0.0
C3860 C 0.80831 0.3305 0.78269 0.0
C3861 C 0.7953 0.344 0.77031 0.0
C3862 C 0.85038 0.28612 0.82237 0.0
C3863 C 0.83506 0.26309 0.83042 0.0
C3864 C 0.83764 0.29942 0.80996 0.0
C3865 C 0.80843 0.29057 0.80409 0.0
C3866 C 0.7933 0.26703 0.8121 0.0
C3867 C 0.80607 0.25385 0.82459 0.0
H3868 H 0.80757 0.87986 0.32448 0.0
H3869 H 0.74203 0.80626 0.33031 0.0
H3870 H 0.82753 0.85427 0.30412 0.0
H3871 H 0.76203 0.77991 0.30991 0.0
H3872 H 0.79956 0.73161 0.27023 0.0
H3873 H 0.77939 0.75727 0.29056 0.0
H3874 H 0.84555 0.83115 0.28505 0.0
H3875 H 0.86567 0.8048 0.2647 0.0
C3876 C 0.79774 0.85751 0.32178 0.0
C3877 C 0.77371 0.84521 0.33023 0.0
C3878 C 0.8093 0.84245 0.30959 0.0
C3879 C 0.79744 0.81375 0.30436 0.0
C3880 C 0.77309 0.80145 0.31282 0.0
C3881 C 0.76149 0.81669 0.32506 0.0
C3882 C 0.80944 0.75391 0.27297 0.0
C3883 C 0.8337 0.76609 0.26462 0.0
C3884 C 0.7978 0.76897 0.28515 0.0
C3885 C 0.80981 0.79755 0.29046 0.0
C3886 C 0.83435 0.80973 0.28208 0.0
C3887 C 0.84603 0.79449 0.26986 0.0
H3888 H 0.55393 0.47553 0.07747 0.0
H3889 H 0.6113 0.55609 0.08221 0.0
H3890 H 0.53075 0.49784 0.05694 0.0
H3891 H 0.58812 0.579 0.06171 0.0
H3892 H 0.54595 0.62036 1.02129 0.0
H3893 H 0.56931 0.59786 1.04174 0.0
H3894 H 0.50736 0.51974 1.03855 0.0
H3895 H 0.4841 0.54277 1.01806 0.0
C3896 C 0.56151 0.49847 0.07442 0.0
C3897 C 0.58442 0.51367 0.08258 0.0
C3898 C 0.5479 0.51172 0.06218 0.0
C3899 C 0.55629 0.54139 0.05666 0.0
C3900 C 0.57959 0.55649 0.06483 0.0
C3901 C 0.59312 0.5432 0.07712 0.0
C3902 C 0.53732 0.59805 1.02469 0.0
C3903 C 0.51312 0.58368 1.01696 0.0
C3904 C 0.551 0.58474 1.03689 0.0
C3905 C 0.54141 0.55585 1.04283 0.0
C3906 C 0.51686 0.54157 1.03508 0.0
C3907 C 0.5032 0.55497 1.02283 0.0
H3908 H 0.98087 0.55282 0.57515 0.0
H3909 H 0.05564 0.61725 0.58061 0.0
H3910 H 1.00549 0.53231 0.55467 0.0
H3911 H 0.08108 0.59649 0.56 0.0
H3912 H 0.1183 0.56479 0.5162 0.0
H3913 H 0.09489 0.58584 0.53715 0.0
H3914 H 1.03518 0.50588 0.53935 0.0
H3915 H 0.05857 0.48537 0.51851 0.0
C3916 C 1.00325 0.56228 0.57235 0.0
C3917 C 1.01613 0.58622 0.58071 0.0
C3918 C 1.01782 0.55028 0.56014 0.0
C3919 C 1.04652 0.56165 0.55476 0.0
C3920 C 0.05938 0.58601 0.56307 0.0
C3921 C 1.04471 0.59796 0.57539 0.0
C3922 C 0.09968 0.55176 0.52087 0.0
C3923 C 0.09035 0.52316 0.51466 0.0
C3924 C 0.08608 0.56394 0.53337 0.0
C3925 C 0.06193 0.54857 0.54085 0.0
C3926 C 0.05288 0.51989 0.53456 0.0
C3927 C 0.06666 0.50768 0.5222 0.0
H3928 H 0.12331 0.54893 0.07622 0.0
H3929 H 1.04777 0.61225 0.08232 0.0
H3930 H 0.09839 0.52845 0.05579 0.0
H3931 H 1.02208 0.59169 0.06188 0.0
H3932 H 0.97432 0.55233 1.02251 0.0
H3933 H 0.99925 0.57278 1.04293 0.0
H3934 H 0.07648 0.51095 1.03635 0.0
H3935 H 1.05075 0.49035 1.01592 0.0
C3936 C 0.10079 0.55827 0.07352 0.0
C3937 C 0.08777 0.58187 0.08203 0.0
C3938 C 0.08608 0.54635 0.06132 0.0
C3939 C 0.057 0.55737 0.05617 0.0
C3940 C 1.04397 0.58127 0.06472 0.0
C3941 C 0.05885 0.59324 0.07697 0.0
C3942 C 0.99703 0.5433 1.0251 0.0
C3943 C 1.01027 0.52009 1.01645 0.0
C3944 C 1.01176 0.55522 1.03729 0.0
C3945 C 1.0411 0.54457 1.0423 0.0
C3946 C 0.05436 0.52103 1.03363 0.0
C3947 C 1.03946 0.50908 1.02138 0.0
H3948 H 0.4781 0.54989 0.57797 0.0
H3949 H 0.5528 0.4858 0.58447 0.0
H3950 H 0.50424 0.57073 0.55797 0.0
H3951 H 0.5797 0.50671 0.56443 0.0
H3952 H 0.6299 0.5473 0.5258 0.0
H3953 H 0.60397 0.5265 0.54593 0.0
H3954 H 0.52689 0.58812 0.53874 0.0
H3955 H 0.55347 0.60891 0.51862 0.0
C3956 C 0.50067 0.54042 0.57545 0.0
C3957 C 0.51303 0.51648 0.58396 0.0
C3958 C 0.51611 0.55256 0.56349 0.0
C3959 C 0.54537 0.54146 0.55858 0.0
C3960 C 0.55776 0.51722 0.56711 0.0
C3961 C 0.54214 0.50505 0.57913 0.0
C3962 C 0.60703 0.55621 0.52821 0.0
C3963 C 0.59406 0.57938 0.51947 0.0
C3964 C 0.59171 0.54409 0.54021 0.0
C3965 C 0.56205 0.55453 0.54495 0.0
C3966 C 0.54919 0.57817 0.53623 0.0
C3967 C 0.56464 0.59027 0.52417 0.0
H3968 H 0.28091 0.11762 0.39891 0.0
H3969 H 0.34313 0.19369 0.40516 0.0
H3970 H 0.31269 0.08503 0.41419 0.0
H3971 H 0.37509 0.16114 0.42033 0.0
H3972 H 0.44343 0.09259 0.44744 0.0
H3973 H 0.41133 0.12532 0.43235 0.0
H3974 H 0.34047 0.05565 0.43238 0.0
H3975 H 0.3727 1.02303 0.44745 0.0
C3976 C 0.30131 0.12832 0.40332 0.0
C3977 C 0.30717 0.1606 0.39976 0.0
C3978 C 0.32052 0.10864 0.4126 0.0
C3979 C 0.34881 0.11807 0.4196 0.0
C3980 C 0.35473 0.15033 0.41595 0.0
C3981 C 0.33529 0.17012 0.40682 0.0
C3982 C 0.42103 0.0834 0.44449 0.0
C3983 C 0.41265 0.0531 0.4499 0.0
C3984 C 0.40156 0.10322 0.43537 0.0
C3985 C 0.37091 0.09557 0.43008 0.0
C3986 C 0.36274 0.06504 0.43538 0.0
C3987 C 0.38208 1.04539 0.44461 0.0
H3988 H 0.25855 0.19459 0.6949 0.0
H3989 H 0.32561 0.12146 0.6974 0.0
H3990 H 0.22668 0.16269 0.67946 0.0
H3991 H 0.29393 0.08961 0.6817 0.0
H3992 H 0.23457 1.03327 0.64558 0.0
H3993 H 0.26697 0.06454 0.66124 0.0
H3994 H 0.18975 0.12467 0.66893 0.0
H3995 H 0.15735 0.09308 0.65356 0.0
C3996 C 0.26754 0.17185 0.69231 0.0
C3997 C 0.29699 0.16295 0.69842 0.0
C3998 C 0.24814 0.15245 0.68301 0.0
C3999 C 0.25545 0.1213 0.67818 0.0
C4000 C 0.28505 0.11243 0.68423 0.0
C4001 C 0.30419 0.13165 0.69375 0.0
C4002 C 0.22359 0.05302 0.65044 0.0
C4003 C 0.19105 0.05844 0.64726 0.0
C4004 C 0.24314 0.0719 0.65993 0.0
C4005 C 0.2333 0.09943 0.66747 0.0
C4006 C 0.20085 0.10492 0.66413 0.0
C4007 C 0.1812 0.08574 0.65486 0.0
H4008 H 0.22739 0.0694 0.95052 0.0
H4009 H 0.15066 1.00861 0.94326 0.0
H4010 H 0.25977 1.03794 0.93495 0.0
H4011 H 0.18327 0.97653 0.9281 0.0
H4012 H 0.25523 0.90484 0.90392 0.0
H4013 H 0.22291 0.93702 0.91914 0.0
H4014 H 0.28449 1.01378 0.91322 0.0
H4015 H 0.31625 0.9818 0.8976 0.0
C4016 C 0.21653 1.04933 0.94588 0.0
C4017 C 0.18413 1.04371 0.94926 0.0
C4018 C 0.23609 1.03033 0.93643 0.0
C4019 C 0.22649 1.00234 0.92918 0.0
C4020 C 0.1942 0.9966 0.9327 0.0
C4021 C 0.17445 1.01602 0.94187 0.0
C4022 C 0.26269 0.92857 0.90556 0.0
C4023 C 0.29054 0.93846 0.89842 0.0
C4024 C 0.24309 0.94808 0.91475 0.0
C4025 C 0.24876 0.98031 0.91854 0.0
C4026 C 0.2769 0.99011 0.91153 0.0
C4027 C 0.2961 0.9708 0.90206 0.0
H4028 H 0.28302 0.98062 0.198 0.0
H4029 H 0.34563 0.90438 0.19265 0.0
H4030 H 0.31484 1.01242 0.1824 0.0
H4031 H 0.37761 0.93615 0.17726 0.0
H4032 H 0.4472 1.00362 0.15073 0.0
H4033 H 0.41485 0.9723 0.16614 0.0
H4034 H 0.34163 1.03909 0.1626 0.0
H4035 H 0.37402 0.07031 0.14702 0.0
C4036 C 0.30347 0.96972 0.19373 0.0
C4037 C 0.30942 0.93762 0.19759 0.0
C4038 C 0.32269 0.98891 0.18427 0.0
C4039 C 0.3511 0.97913 0.17744 0.0
C4040 C 0.35714 0.94714 0.18146 0.0
C4041 C 0.33768 0.92784 0.19072 0.0
C4042 C 0.42436 1.01265 0.15305 0.0
C4043 C 0.41562 1.04182 0.14662 0.0
C4044 C 0.40467 0.99356 0.16231 0.0
C4045 C 0.37332 1.00092 0.16677 0.0
C4046 C 0.36458 1.03021 0.16038 0.0
C4047 C 0.38412 1.04906 0.15092 0.0
H4048 H 0.8185 0.97836 0.69935 0.0
H4049 H 0.75431 0.90327 0.69485 0.0
H4050 H 0.78662 1.01038 0.6838 0.0
H4051 H 0.72219 0.93532 0.67958 0.0
H4052 H 0.65178 1.00456 0.65421 0.0
H4053 H 0.68445 0.97298 0.66944 0.0
H4054 H 0.76006 1.03585 0.66328 0.0
H4055 H 0.72738 0.06717 0.64775 0.0
C4056 C 0.79767 0.96778 0.69529 0.0
C4057 C 0.79129 0.93591 0.69935 0.0
C4058 C 0.77842 0.98709 0.68586 0.0
C4059 C 0.74952 0.97771 0.67932 0.0
C4060 C 0.74304 0.94598 0.68356 0.0
C4061 C 0.76257 0.92652 0.69275 0.0
C4062 C 0.67531 1.01255 0.65584 0.0
C4063 C 0.68462 1.04063 0.64871 0.0
C4064 C 0.69513 0.99336 0.66502 0.0
C4065 C 0.72721 0.99961 0.66872 0.0
C4066 C 0.73653 1.02788 0.66165 0.0
C4067 C 0.71683 1.04678 0.65224 0.0
H4068 H 0.94952 0.05501 0.42834 0.0
H4069 H 0.88402 1.04364 0.46062 0.0
H4070 H 0.91581 1.02419 0.41307 0.0
H4071 H 0.85119 1.01127 0.44559 0.0
H4072 H 0.80554 0.92536 0.41598 0.0
H4073 H 0.83784 0.95773 0.43118 0.0
H4074 H 0.86329 1.01482 0.39739 0.0
H4075 H 0.8295 0.98345 0.38233 0.0
C4076 C 0.92816 1.04616 0.43263 0.0
C4077 C 0.92178 0.0541 0.44676 0.0
C4078 C 0.90776 1.02755 0.4234 0.0
C4079 C 0.87846 1.01293 0.42703 0.0
C4080 C 0.87237 1.0204 0.44124 0.0
C4081 C 0.89219 1.04001 0.45032 0.0
C4082 C 0.81754 0.94476 0.41137 0.0
C4083 C 0.81255 0.94958 0.39687 0.0
C4084 C 0.83704 0.96437 0.42057 0.0
C4085 C 0.85561 0.99109 0.41658 0.0
C4086 C 0.85103 0.99561 0.40203 0.0
C4087 C 0.83057 0.9767 0.39292 0.0
H4088 H 0.8661 1.02798 0.14719 0.0
H4089 H 0.94209 0.09008 0.15377 0.0
H4090 H 0.83365 0.05934 0.16275 0.0
H4091 H 0.90956 0.12181 0.16906 0.0
H4092 H 0.83987 0.19127 0.19508 0.0
H4093 H 0.87202 0.15944 0.17971 0.0
H4094 H 0.80679 0.08489 0.18302 0.0
H4095 H 0.77487 0.11666 0.19865 0.0
C4096 C 0.8768 1.04828 0.15171 0.0
C4097 C 0.90902 0.05429 0.14814 0.0
C4098 C 0.85721 0.06723 0.16115 0.0
C4099 C 0.86663 0.09543 0.16829 0.0
C4100 C 0.89876 0.10152 0.16459 0.0
C4101 C 0.9185 0.08229 0.15534 0.0
C4102 C 0.83141 0.16819 0.19275 0.0
C4103 C 0.80242 0.15887 0.19915 0.0
C4104 C 0.85097 0.14884 0.18349 0.0
C4105 C 0.84433 0.1173 0.17896 0.0
C4106 C 0.81518 0.10802 0.18529 0.0
C4107 C 0.79589 0.1272 0.19478 0.0
H4108 H 0.73158 1.02913 0.94795 0.0
H4109 H 0.65671 0.09367 0.94372 0.0
H4110 H 0.76356 0.0611 0.9325 0.0
H4111 H 0.6887 0.12586 0.92848 0.0
H4112 H 0.75839 0.19618 0.90279 0.0
H4113 H 0.72645 0.16364 0.91794 0.0
H4114 H 0.78961 0.08791 0.91231 0.0
H4115 H 0.82116 0.12034 0.89686 0.0
C4116 C 0.72097 1.05002 0.94393 0.0
C4117 C 0.6891 0.05629 0.94803 0.0
C4118 C 0.7403 0.06937 0.93456 0.0
C4119 C 0.73103 0.0984 0.92807 0.0
C4120 C 0.69932 0.10487 0.93237 0.0
C4121 C 0.67982 0.08523 0.94153 0.0
C4122 C 0.76631 0.17261 0.90448 0.0
C4123 C 0.79457 0.1632 0.89748 0.0
C4124 C 0.74693 0.15287 0.91364 0.0
C4125 C 0.7531 0.12075 0.91749 0.0
C4126 C 0.78158 0.11142 0.91058 0.0
C4127 C 0.80067 0.13101 0.9012 0.0
H4128 H 0.77445 0.62796 0.90135 0.0
H4129 H 0.84455 0.69815 0.90241 0.0
H4130 H 0.80619 0.5949 0.91644 0.0
H4131 H 0.87648 0.66509 0.91743 0.0
H4132 H 0.94359 0.5949 0.94425 0.0
H4133 H 0.91173 0.62767 0.92917 0.0
H4134 H 0.83467 0.56642 0.93494 0.0
H4135 H 0.8666 0.53376 0.95016 0.0
C4136 C 0.79672 0.63714 0.90447 0.0
C4137 C 0.80484 0.6679 0.89947 0.0
C4138 C 0.81587 0.61723 0.91368 0.0
C4139 C 0.84629 0.62486 0.91924 0.0
C4140 C 0.85439 0.65566 0.91422 0.0
C4141 C 0.83505 0.67572 0.90514 0.0
C4142 C 0.91996 0.58742 0.94251 0.0
C4143 C 0.91003 0.55923 0.94943 0.0
C4144 C 0.90057 0.60738 0.93343 0.0
C4145 C 0.86829 0.6021 0.9297 0.0
C4146 C 0.85838 0.5738 0.93659 0.0
C4147 C 0.87767 0.55404 0.94583 0.0
H4148 H 0.65792 0.58912 0.15411 0.0
H4149 H 0.73486 0.52851 0.14681 0.0
H4150 H 0.69051 0.62144 0.16914 0.0
H4151 H 0.7673 0.56028 0.16227 0.0
H4152 H 0.82392 0.61731 0.19938 0.0
H4153 H 0.79215 0.58487 0.18393 0.0
H4154 H 0.72996 0.66121 0.17785 0.0
H4155 H 0.76233 0.69387 0.19286 0.0
C4156 C 0.68174 0.58176 0.15549 0.0
C4157 C 0.69147 0.55402 0.14815 0.0
C4158 C 0.70149 0.60135 0.16457 0.0
C4159 C 0.73387 0.59579 0.16804 0.0
C4160 C 0.74354 0.56776 0.16083 0.0
C4161 C 0.72396 0.54857 0.15145 0.0
C4162 C 0.80362 0.62811 0.19492 0.0
C4163 C 0.79788 0.66049 0.19845 0.0
C4164 C 0.78443 0.60853 0.18555 0.0
C4165 C 0.75613 0.61807 0.17856 0.0
C4166 C 0.75028 0.65033 0.18225 0.0
C4167 C 0.76987 0.67011 0.19133 0.0
H4168 H 0.76036 0.40459 0.40554 0.0
H4169 H 0.82037 0.48198 0.39835 0.0
H4170 H 0.72857 0.43674 0.42099 0.0
H4171 H 0.78914 0.51396 0.41418 0.0
H4172 H 0.73339 0.57031 0.4513 0.0
H4173 H 0.76511 0.5389 0.43545 0.0
H4174 H 0.68979 0.47498 0.43074 0.0
H4175 H 0.65783 0.50693 0.4462 0.0
C4176 C 0.76763 0.42844 0.40702 0.0
C4177 C 0.79498 0.43852 0.39959 0.0
C4178 C 0.74841 0.44789 0.41634 0.0
C4179 C 0.75406 0.4802 0.41995 0.0
C4180 C 0.78169 0.4902 0.41264 0.0
C4181 C 0.80053 0.47092 0.40305 0.0
C4182 C 0.72269 0.5497 0.44706 0.0
C4183 C 0.69088 0.54328 0.4511 0.0
C4184 C 0.74181 0.53073 0.43746 0.0
C4185 C 0.73226 0.50212 0.43072 0.0
C4186 C 0.70055 0.49561 0.43491 0.0
C4187 C 0.68121 0.51493 0.44425 0.0
H4188 H 0.78239 0.48329 0.69945 0.0
H4189 H 0.84231 0.40613 0.69143 0.0
H4190 H 0.81371 0.51596 0.68398 0.0
H4191 H 0.87402 0.43885 0.67629 0.0
H4192 H 0.94449 0.50905 0.65109 0.0
H4193 H 0.91251 0.47674 0.66628 0.0
H4194 H 0.83861 0.54289 0.66332 0.0
H4195 H 0.8705 0.57493 0.64783 0.0
C4196 C 0.80216 0.47235 0.69461 0.0
C4197 C 0.80751 0.43969 0.69771 0.0
C4198 C 0.8211 0.49208 0.68523 0.0
C4199 C 0.84872 0.48242 0.67776 0.0
C4200 C 0.8542 0.44987 0.68103 0.0
C4201 C 0.83493 0.43001 0.69018 0.0
C4202 C 0.92152 0.51768 0.65345 0.0
C4203 C 0.91244 0.54696 0.64719 0.0
C4204 C 0.90207 0.49802 0.66261 0.0
C4205 C 0.87066 0.50486 0.66718 0.0
C4206 C 0.86162 0.53431 0.661 0.0
C4207 C 0.88088 0.55368 0.6516 0.0
H4208 H 0.31861 0.47914 0.20159 0.0
H4209 H 0.2564 0.40337 0.19462 0.0
H4210 H 0.28778 0.51188 0.18591 0.0
H4211 H 0.22529 0.43612 0.17922 0.0
H4212 H 0.15662 0.50611 0.15313 0.0
H4213 H 0.18807 0.47381 0.16857 0.0
H4214 H 0.26271 0.53897 0.16551 0.0
H4215 H 0.2313 0.57106 0.14982 0.0
C4216 C 0.29842 0.46854 0.19695 0.0
C4217 C 0.29224 0.43625 0.20041 0.0
C4218 C 0.2798 0.4883 0.18744 0.0
C4219 C 0.25177 0.479 0.18017 0.0
C4220 C 0.24549 0.44682 0.18379 0.0
C4221 C 0.26441 0.42693 0.19307 0.0
C4222 C 0.17964 0.51454 0.15553 0.0
C4223 C 0.1891 0.54356 0.14919 0.0
C4224 C 0.19877 0.49488 0.16483 0.0
C4225 C 0.23019 0.50145 0.16945 0.0
C4226 C 0.23963 0.53062 0.16316 0.0
C4227 C 0.22067 0.55002 0.15364 0.0
H4228 H 0.44314 0.51261 0.94418 0.0
H4229 H 0.36639 0.57346 0.9515 0.0
H4230 H 0.41068 0.48092 0.92884 0.0
H4231 H 0.33409 0.54231 0.93576 0.0
H4232 H 0.27708 0.4863 0.89862 0.0
H4233 H 0.3087 0.51802 0.91441 0.0
H4234 H 0.3721 0.44218 0.91914 0.0
H4235 H 0.34006 0.4103 0.90371 0.0
C4236 C 0.41936 0.52011 0.94277 0.0
C4237 C 0.40965 0.5477 0.95021 0.0
C4238 C 0.39971 0.50092 0.93348 0.0
C4239 C 0.36744 0.50678 0.92992 0.0
C4240 C 0.35778 0.53464 0.93725 0.0
C4241 C 0.37727 0.55346 0.9468 0.0
C4242 C 0.29762 0.47546 0.90285 0.0
C4243 C 0.30375 0.44346 0.89883 0.0
C4244 C 0.31672 0.49461 0.91242 0.0
C4245 C 0.34529 0.48496 0.91917 0.0
C4246 C 0.35153 0.45309 0.91499 0.0
C4247 C 0.33208 0.43374 0.90569 0.0
H4248 H 0.44159 0.58919 0.65516 0.0
H4249 H 0.36597 0.52601 0.64981 0.0
H4250 H 0.40924 0.62163 0.67024 0.0
H4251 H 0.33376 0.55804 0.66523 0.0
H4252 H 0.27717 0.61654 0.70159 0.0
H4253 H 0.30882 0.58386 0.68619 0.0
H4254 H 0.37043 0.66032 0.67956 0.0
H4255 H 0.33837 0.69309 0.6946 0.0
C4256 C 0.41814 0.58126 0.65701 0.0
C4257 C 0.40865 0.55275 0.65022 0.0
C4258 C 0.39853 0.60094 0.66609 0.0
C4259 C 0.3666 0.59475 0.67006 0.0
C4260 C 0.35719 0.56601 0.66337 0.0
C4261 C 0.37661 0.54668 0.65403 0.0
C4262 C 0.29732 0.6273 0.69701 0.0
C4263 C 0.30299 0.65975 0.70036 0.0
C4264 C 0.31643 0.60759 0.68768 0.0
C4265 C 0.34449 0.61713 0.68055 0.0
C4266 C 0.35027 0.64947 0.68406 0.0
C4267 C 0.33082 0.66933 0.69314 0.0
H4268 H 0.23776 0.54207 0.44946 0.0
H4269 H 0.16029 0.60241 0.44284 0.0
H4270 H 0.26964 0.57445 0.43409 0.0
H4271 H 0.19231 0.63526 0.42785 0.0
H4272 H 0.26254 0.70821 0.40362 0.0
H4273 H 0.23064 0.67511 0.41859 0.0
H4274 H 0.29473 0.60014 0.41304 0.0
H4275 H 0.32605 0.63298 0.39767 0.0
C4276 C 0.22661 0.56218 0.44498 0.0
C4277 C 0.19417 0.56731 0.44844 0.0
C4278 C 0.24587 0.58175 0.43565 0.0
C4279 C 0.23588 0.60989 0.42863 0.0
C4280 C 0.20353 0.61513 0.43226 0.0
C4281 C 0.18411 0.5952 0.44131 0.0
C4282 C 0.27062 0.68468 0.40527 0.0
C4283 C 0.29903 0.67559 0.39832 0.0
C4284 C 0.2513 0.66462 0.41433 0.0
C4285 C 0.25781 0.63255 0.41815 0.0
C4286 C 0.28648 0.62358 0.41132 0.0
C4287 C 0.30542 0.64343 0.40199 0.0
H4288 H 0.36364 0.12859 0.30421 0.0
H4289 H 0.31327 0.07143 0.33291 0.0
H4290 H 0.38893 0.082 0.29529 0.0
H4291 H 0.33938 1.02609 0.32456 0.0
H4292 H 0.36114 0.94443 0.30517 0.0
H4293 H 0.38175 0.99049 0.31648 0.0
H4294 H 0.35477 1.0465 0.28203 0.0
H4295 H 0.33262 1.00221 0.27126 0.0
C4296 C 0.35858 0.10641 0.30891 0.0
C4297 C 0.3354 0.10381 0.31894 0.0
C4298 C 0.37355 0.07982 0.30395 0.0
C4299 C 0.36573 1.0503 0.30903 0.0
C4300 C 0.34614 1.04842 0.32042 0.0
C4301 C 0.33087 0.07475 0.3252 0.0
C4302 C 0.36007 0.96645 0.29987 0.0
C4303 C 0.34327 0.96952 0.28762 0.0
C4304 C 0.3725 0.99274 0.30627 0.0
C4305 C 0.36882 1.02227 0.30036 0.0
C4306 C 0.35775 1.02418 0.28697 0.0
C4307 C 0.34473 0.99825 0.28073 0.0
H4308 H 0.17028 0.10506 0.53765 0.0
H4309 H 0.24776 0.06913 0.56079 0.0
H4310 H 0.20635 0.12553 0.52075 0.0
H4311 H 0.2833 0.08951 0.54417 0.0
H4312 H 0.34372 0.09976 0.51049 0.0
H4313 H 0.30961 0.12253 0.52767 0.0
H4314 H 0.22988 0.08661 0.50608 0.0
H4315 H 0.26326 0.06329 0.48947 0.0
C4316 C 0.19498 0.10258 0.53942 0.0
C4317 C 0.20607 0.08429 0.55024 0.0
C4318 C 0.21565 0.11448 0.52978 0.0
C4319 C 0.2476 0.10807 0.53084 0.0
C4320 C 0.25885 0.0947 0.54293 0.0
C4321 C 0.23826 0.08281 0.55252 0.0
C4322 C 0.31887 0.09724 0.50929 0.0
C4323 C 0.30644 0.07866 0.49881 0.0
C4324 C 0.29933 0.11065 0.51905 0.0
C4325 C 0.26707 0.10588 0.51842 0.0
C4326 C 0.25457 0.091 0.50692 0.0
C4327 C 0.27398 0.07737 0.4973 0.0
H4328 H 0.22798 0.13013 0.79347 0.0
H4329 H 0.27533 0.07796 0.76205 0.0
H4330 H 0.20472 0.08203 0.80175 0.0
H4331 H 0.25166 1.03087 0.77001 0.0
H4332 H 0.26843 1.00566 0.82375 0.0
H4333 H 0.24366 1.04907 0.81338 0.0
H4334 H 0.21507 0.99167 0.77955 0.0
H4335 H 0.23843 0.94648 0.79053 0.0
C4336 C 0.2325 0.10873 0.78799 0.0
C4337 C 0.25483 0.10775 0.77754 0.0
C4338 C 0.21883 0.08124 0.79264 0.0
C4339 C 0.22735 0.05252 0.78688 0.0
C4340 C 0.24481 0.05251 0.77481 0.0
C4341 C 0.25864 0.07983 0.77024 0.0
C4342 C 0.2555 1.00122 0.81452 0.0
C4343 C 0.25685 0.97231 0.80778 0.0
C4344 C 0.24099 1.02662 0.80851 0.0
C4345 C 0.22815 1.0241 0.79542 0.0
C4346 C 0.2254 0.99441 0.78953 0.0
C4347 C 0.23936 0.96864 0.79574 0.0
H4348 H 0.2892 0.97967 1.01173 0.0
H4349 H 0.2187 1.02014 1.03749 0.0
H4350 H 0.31261 0.95499 1.03158 0.0
H4351 H 0.24172 0.99603 0.05704 0.0
H4352 H 0.29462 0.99497 0.09128 0.0
H4353 H 0.26818 0.96573 0.07342 0.0
H4354 H 0.34217 0.98879 1.0455 0.0
H4355 H 0.36818 1.01737 0.06312 0.0
C4356 C 0.27791 0.98224 1.02152 0.0
C4357 C 0.25312 1.00324 1.02315 0.0
C4358 C 0.2913 0.96803 1.0329 0.0
C4359 C 0.28023 0.97501 1.04603 0.0
C4360 C 0.25155 0.99055 1.04718 0.0
C4361 C 0.23816 1.00464 1.03583 0.0
C4362 C 0.30578 0.99262 0.08145 0.0
C4363 C 0.33267 1.0098 0.07841 0.0
C4364 C 0.29067 0.97577 0.07122 0.0
C4365 C 0.30208 0.97632 0.0578 0.0
C4366 C 0.33212 0.98821 0.05559 0.0
C4367 C 0.34723 1.00491 0.0658 0.0
H4368 H 0.76964 1.00252 0.77282 0.0
H4369 H 0.73814 0.94595 0.80658 0.0
H4370 H 0.74625 1.04719 0.78285 0.0
H4371 H 0.71654 0.99246 0.81721 0.0
H4372 H 0.72818 0.1301 0.80331 0.0
H4373 H 0.70665 0.08136 0.79476 0.0
H4374 H 0.75734 1.03093 0.82555 0.0
H4375 H 0.78016 0.0783 0.83348 0.0
C4376 C 0.75668 0.9989 0.78209 0.0
C4377 C 0.75723 0.97029 0.78909 0.0
C4378 C 0.743 1.02503 0.78789 0.0
C4379 C 0.73031 1.02355 0.80101 0.0
C4380 C 0.72672 0.99431 0.80717 0.0
C4381 C 0.73973 0.96779 0.80117 0.0
C4382 C 0.73431 0.10869 0.80843 0.0
C4383 C 0.75711 0.10831 0.81872 0.0
C4384 C 0.72145 0.08084 0.80368 0.0
C4385 C 0.73081 0.0523 0.80931 0.0
C4386 C 0.74954 0.05249 0.82099 0.0
C4387 C 0.76286 0.08008 0.82554 0.0
H4388 H 0.75233 1.04346 0.56497 0.0
H4389 H 0.68927 0.98418 0.5427 0.0
H4390 H 0.79451 1.02612 0.55125 0.0
H4391 H 0.7325 0.96532 0.5289 0.0
H4392 H 0.7919 1.00395 0.49326 0.0
H4393 H 0.75799 0.98591 0.51088 0.0
H4394 H 0.83114 0.99856 0.54048 0.0
H4395 H 0.86307 1.02188 0.5235 0.0
C4396 C 0.74767 1.0255 0.5575 0.0
C4397 C 0.71724 1.01579 0.55473 0.0
C4398 C 0.77223 1.01523 0.54953 0.0
C4399 C 0.76716 0.99478 0.53853 0.0
C4400 C 0.73726 0.98197 0.5369 0.0
C4401 C 0.71244 0.99266 0.54484 0.0
C4402 C 0.80078 1.00388 0.50355 0.0
C4403 C 0.82932 1.01803 0.50691 0.0
C4404 C 0.78139 0.99231 0.51373 0.0
C4405 C 0.79083 0.99306 0.52744 0.0
C4406 C 0.82208 0.99999 0.53022 0.0
C4407 C 0.84082 1.01319 0.52021 0.0
H4408 H 0.84279 1.01948 0.32684 0.0
H4409 H 0.87125 0.95952 0.29375 0.0
H4410 H 0.86941 0.06213 0.31662 0.0
H4411 H 0.89764 1.00337 0.28314 0.0
H4412 H 0.83389 0.08294 0.26399 0.0
H4413 H 0.86232 1.03944 0.27263 0.0
H4414 H 0.90192 0.09729 0.30415 0.0
H4415 H 0.87342 0.14185 0.29519 0.0
C4416 C 0.856 1.01477 0.3177 0.0
C4417 C 0.85319 0.98634 0.31072 0.0
C4418 C 0.87163 1.03962 0.31177 0.0
C4419 C 0.8842 1.03669 0.29862 0.0
C4420 C 0.88701 1.00668 0.29302 0.0
C4421 C 0.87154 0.98162 0.29904 0.0
C4422 C 0.84986 0.08717 0.2723 0.0
C4423 C 0.84993 0.11563 0.27937 0.0
C4424 C 0.86653 0.06188 0.27729 0.0
C4425 C 0.88311 0.06443 0.28959 0.0
C4426 C 0.88829 0.09432 0.29497 0.0
C4427 C 0.87167 0.11979 0.28992 0.0
H4428 H 0.8686 0.10555 0.07592 0.0
H4429 H 0.77718 0.07026 0.08513 0.0
H4430 H 0.85046 0.12187 0.05348 0.0
H4431 H 0.75913 0.08634 0.06286 0.0
H4432 H 0.73045 0.1058 1.02184 0.0
H4433 H 0.74856 0.12222 1.04429 0.0
H4434 H 0.8396 0.08545 1.03513 0.0
H4435 H 0.82159 0.06921 1.01287 0.0
C4436 C 0.84441 0.10213 0.0733 0.0
C4437 C 0.82448 0.08594 0.08212 0.0
C4438 C 0.83403 0.1115 0.06047 0.0
C4439 C 0.80357 0.1048 0.05627 0.0
C4440 C 0.78272 0.09203 0.06576 0.0
C4441 C 0.79309 0.0827 0.07857 0.0
C4442 C 0.75457 0.10206 1.02452 0.0
C4443 C 0.77442 0.08555 1.01574 0.0
C4444 C 0.76493 0.11151 1.03735 0.0
C4445 C 0.79531 0.10459 1.0416 0.0
C4446 C 0.81609 0.09136 1.03218 0.0
C4447 C 0.80574 0.08193 1.01938 0.0
H4448 H 0.85379 0.61382 0.83438 0.0
H4449 H 0.82277 0.52672 0.85158 0.0
H4450 H 0.86776 0.58679 0.81336 0.0
H4451 H 0.83765 0.50002 0.83082 0.0
H4452 H 0.78664 0.50598 0.78761 0.0
H4453 H 0.79848 0.52419 0.81031 0.0
H4454 H 0.89535 0.53222 0.79982 0.0
H4455 H 0.88395 0.5118 0.77694 0.0
C4456 C 0.85126 0.58878 0.83392 0.0
C4457 C 0.83607 0.5726 0.84443 0.0
C4458 C 0.85965 0.57332 0.82196 0.0
C4459 C 0.85314 0.54158 0.8205 0.0
C4460 C 0.84269 0.52461 0.83178 0.0
C4461 C 0.8342 0.54001 0.84369 0.0
C4462 C 0.81064 0.51077 0.79012 0.0
C4463 C 0.8344 0.50676 0.78048 0.0
C4464 C 0.81737 0.52128 0.80314 0.0
C4465 C 0.84789 0.52878 0.80681 0.0
C4466 C 0.87173 0.52602 0.79718 0.0
C4467 C 0.86508 0.51472 0.7841 0.0
H4468 H 0.86983 0.6269 1.04268 0.0
H4469 H 0.81996 0.57554 1.01175 0.0
H4470 H 0.82087 0.649 0.05059 0.0
H4471 H 0.77199 0.59804 1.01935 0.0
H4472 H 0.68715 0.60916 1.03965 0.0
H4473 H 0.73126 0.63381 1.02849 0.0
H4474 H 0.78956 0.60939 0.0626 0.0
H4475 H 0.74746 0.5832 0.07312 0.0
C4476 C 0.84872 0.62123 1.03722 0.0
C4477 C 0.84872 0.59817 1.02704 0.0
C4478 C 0.82073 0.63425 1.04164 0.0
C4479 C 0.79246 0.62429 1.03595 0.0
C4480 C 0.79325 0.60601 1.0241 0.0
C4481 C 0.8211 0.59285 1.01974 0.0
C4482 C 0.70927 0.60934 1.04488 0.0
C4483 C 0.71365 0.59247 0.05704 0.0
C4484 C 0.7344 0.62409 1.03857 0.0
C4485 C 0.76409 0.62287 1.04448 0.0
C4486 C 0.76708 0.61083 0.05768 0.0
C4487 C 0.7424 0.59546 0.06379 0.0
H4488 H 0.72866 0.46625 0.30067 0.0
H4489 H 0.77139 0.52197 0.33218 0.0
H4490 H 0.70548 0.51311 0.29104 0.0
H4491 H 0.7479 0.56784 0.3229 0.0
H4492 H 0.73956 0.64946 0.30167 0.0
H4493 H 0.71315 0.60563 0.31232 0.0
H4494 H 0.74242 0.54638 0.27918 0.0
H4495 H 0.76924 0.58909 0.26892 0.0
C4496 C 0.73218 0.4882 0.30586 0.0
C4497 C 0.75326 0.49049 0.31677 0.0
C4498 C 0.7186 0.515 0.30041 0.0
C4499 C 0.72591 0.54438 0.30584 0.0
C4500 C 0.74198 0.54573 0.3183 0.0
C4501 C 0.75572 0.51908 0.32366 0.0
C4502 C 0.73954 0.62725 0.29646 0.0
C4503 C 0.758 0.6225 0.28481 0.0
C4504 C 0.72408 0.60222 0.3025 0.0
C4505 C 0.72676 0.57222 0.29691 0.0
C4506 C 0.74007 0.56901 0.28392 0.0
C4507 C 0.75575 0.59383 0.27798 0.0
H4508 H 0.81978 0.49124 0.49858 0.0
H4509 H 0.74273 0.50911 0.52566 0.0
H4510 H 0.84778 0.46755 0.51689 0.0
H4511 H 0.76854 0.48067 0.54331 0.0
H4512 H 0.83818 0.52671 0.57146 0.0
H4513 H 0.80038 0.50029 0.55803 0.0
H4514 H 0.87386 0.45536 0.5351 0.0
H4515 H 0.91187 0.48409 0.54837 0.0
C4516 C 0.80839 0.48957 0.50837 0.0
C4517 C 0.78043 0.50546 0.51094 0.0
C4518 C 0.82439 0.47519 0.51901 0.0
C4519 C 0.81209 0.47541 0.53232 0.0
C4520 C 0.78044 0.48317 0.5337 0.0
C4521 C 0.7651 0.49908 0.52328 0.0
C4522 C 0.84634 0.51034 0.56387 0.0
C4523 C 0.87787 0.50875 0.56047 0.0
C4524 C 0.82439 0.49488 0.55595 0.0
C4525 C 0.83356 0.4775 0.5444 0.0
C4526 C 0.86547 0.47056 0.54306 0.0
C4527 C 0.88749 0.48666 0.55082 0.0
H4528 H 0.29001 0.5846 0.33412 0.0
H4529 H 0.2335 0.63548 0.3052 0.0
H4530 H 0.26724 0.53681 0.32662 0.0
H4531 H 0.21239 0.58628 0.29695 0.0
H4532 H 0.24141 0.45108 0.30897 0.0
H4533 H 0.22275 0.49885 0.31959 0.0
H4534 H 0.25266 0.55121 0.28458 0.0
H4535 H 0.27355 0.50522 0.27455 0.0
C4536 C 0.27183 0.58609 0.32655 0.0
C4537 C 0.26455 0.61431 0.31999 0.0
C4538 C 0.25859 0.55826 0.32225 0.0
C4539 C 0.23843 0.55775 0.31105 0.0
C4540 C 0.22814 0.58608 0.30555 0.0
C4541 C 0.2408 0.61419 0.31011 0.0
C4542 C 0.24375 0.47266 0.30342 0.0
C4543 C 0.26057 0.47399 0.29112 0.0
C4544 C 0.23237 0.49992 0.30942 0.0
C4545 C 0.23674 0.52874 0.303 0.0
C4546 C 0.24881 0.52932 0.28977 0.0
C4547 C 0.26099 0.50244 0.28398 0.0
H4548 H 0.28912 0.50132 1.00562 0.0
H4549 H 0.36785 0.51001 1.03253 0.0
H4550 H 0.26247 0.47076 1.02237 0.0
H4551 H 0.34254 0.47646 0.04889 0.0
H4552 H 0.269 0.52195 0.07655 0.0
H4553 H 0.30905 0.49764 0.06351 0.0
H4554 H 0.23977 0.44779 1.04014 0.0
H4555 H 0.19922 0.47411 0.05304 0.0
C4556 C 0.3013 0.49553 1.01493 0.0
C4557 C 0.32943 0.5102 1.01821 0.0
C4558 C 0.28609 0.47747 1.02463 0.0
C4559 C 0.29906 0.47355 1.03771 0.0
C4560 C 0.33066 0.48123 1.03941 0.0
C4561 C 0.34551 0.50021 1.02987 0.0
C4562 C 0.26221 0.50479 0.06904 0.0
C4563 C 0.23101 0.50131 0.06527 0.0
C4564 C 0.28547 0.49053 0.0614 0.0
C4565 C 0.27782 0.47263 0.04981 0.0
C4566 C 0.24661 0.46334 1.04828 0.0
C4567 C 0.22325 0.47817 0.05576 0.0
H4568 H 0.35601 0.66637 0.80923 0.0
H4569 H 0.33275 0.60567 0.77546 0.0
H4570 H 0.38126 0.62266 0.82051 0.0
H4571 H 0.3596 0.56404 0.78611 0.0
H4572 H 0.37851 0.48388 0.80608 0.0
H4573 H 0.39961 0.53352 0.79846 0.0
H4574 H 0.34581 0.58097 0.82919 0.0
H4575 H 0.32418 0.53236 0.83645 0.0
C4576 C 0.35689 0.64428 0.80397 0.0
C4577 C 0.34055 0.63961 0.79168 0.0
C4578 C 0.372 0.61939 0.81035 0.0
C4579 C 0.37173 0.58968 0.80438 0.0
C4580 C 0.36028 0.58654 0.79107 0.0
C4581 C 0.34453 0.61096 0.78489 0.0
C4582 C 0.37196 0.50483 0.81149 0.0
C4583 C 0.34838 0.50418 0.8214 0.0
C4584 C 0.38442 0.53323 0.80724 0.0
C4585 C 0.37344 0.56124 0.81287 0.0
C4586 C 0.35458 0.5599 0.82451 0.0
C4587 C 0.34193 0.53167 0.82866 0.0
H4588 H 0.25407 0.5906 0.5252 0.0
H4589 H 0.19301 0.61344 0.5588 0.0
H4590 H 0.2962 0.61498 0.53664 0.0
H4591 H 0.23698 0.63632 0.57082 0.0
H4592 H 0.32369 0.5749 0.58713 0.0
H4593 H 0.27651 0.59887 0.57945 0.0
H4594 H 0.32788 0.65214 0.54985 0.0
H4595 H 0.37606 0.62852 0.55788 0.0
C4596 C 0.2489 0.60188 0.53477 0.0
C4597 C 0.21994 0.59844 0.54126 0.0
C4598 C 0.27357 0.61618 0.54141 0.0
C4599 C 0.27028 0.62668 0.55487 0.0
C4600 C 0.24037 0.62772 0.56056 0.0
C4601 C 0.2153 0.61401 0.55374 0.0
C4602 C 0.32553 0.59296 0.57951 0.0
C4603 C 0.35366 0.59863 0.57268 0.0
C4604 C 0.29814 0.60698 0.57511 0.0
C4605 C 0.29829 0.62649 0.56366 0.0
C4606 C 0.32702 0.63649 0.55847 0.0
C4607 C 0.35456 0.62262 0.56296 0.0
loop_
_geom_bond_atom_site_label_1
_geom_bond_atom_site_label_2
_geom_bond_distance
_geom_bond_site_symmetry_2
_ccdc_geom_bond_type
Eu0 N31 2.657 . S
Eu0 N38 2.609 . S
Eu0 O44 2.558 . S
Eu0 O45 2.612 . S
Eu0 O47 2.339 . S
Eu0 O48 2.563 . S
Eu0 O49 2.419 . S
Eu0 O51 2.380 . S
Eu0 O52 2.432 . S
Eu0 C64 2.848 . S
C1 C4 1.429 . S
C1 C5 1.411 . S
C1 N8 1.377 . S
C2 C4 1.420 . S
C2 C6 1.423 . S
C2 C14 1.392 . S
C3 C5 1.420 . S
C3 C6 1.351 . S
C3 H26 0.931 . S
C4 C1 1.429 . S
C4 C2 1.420 . S
C4 N12 1.362 . S
C5 C1 1.411 . S
C5 C3 1.420 . S
C5 C10 1.395 . S
C6 C2 1.423 . S
C6 C3 1.351 . S
C6 H18 0.930 . S
C7 C9 1.400 . S
C7 C10 1.386 . S
C7 H19 0.930 . S
N8 C1 1.377 . S
N8 C9 1.321 . S
N8 Eu11 2.609 . S
C9 C7 1.400 . S
C9 N8 1.321 . S
C9 H16 0.930 . S
C10 C5 1.395 . S
C10 C7 1.386 . S
C10 H29 0.930 . S
Eu11 N8 2.609 . S
Eu11 N12 2.657 . S
Eu11 O45 2.380 . S
Eu11 O46 2.432 . S
Eu11 O50 2.558 . S
Eu11 O51 2.612 . S
Eu11 O53 2.339 . S
Eu11 O54 2.563 . S
Eu11 O55 2.419 . S
Eu11 C75 2.848 . S
N12 C4 1.362 . S
N12 Eu11 2.657 . S
N12 C13 1.334 . S
C13 N12 1.334 . S
C13 C15 1.413 . S
C13 H20 0.929 . S
C14 C2 1.392 . S
C14 C15 1.367 . S
C14 H22 0.930 . S
C15 C13 1.413 . S
C15 C14 1.367 . S
C15 H17 0.930 . S
H16 C9 0.930 . S
H17 C15 0.930 . S
H18 C6 0.930 . S
H19 C7 0.930 . S
H20 C13 0.929 . S
H21 C35 0.930 . S
H22 C14 0.930 . S
H23 C41 0.930 . S
H24 C32 0.929 . S
H25 C39 0.930 . S
H26 C3 0.931 . S
H27 C33 0.930 . S
H28 C66 0.930 . S
H29 C10 0.930 . S
H30 C65 0.931 . S
N31 Eu0 2.657 . S
N31 C32 1.334 . S
N31 C36 1.362 . S
C32 H24 0.929 . S
C32 N31 1.334 . S
C32 C35 1.413 . S
C33 H27 0.930 . S
C33 C34 1.392 . S
C33 C35 1.367 . S
C34 C33 1.392 . S
C34 C36 1.420 . S
C34 C66 1.423 . S
C35 H21 0.930 . S
C35 C32 1.413 . S
C35 C33 1.367 . S
C36 N31 1.362 . S
C36 C34 1.420 . S
C36 C40 1.429 . S
H37 C42 0.930 . S
N38 Eu0 2.609 . S
N38 C40 1.377 . S
N38 C41 1.321 . S
C39 H25 0.930 . S
C39 C41 1.400 . S
C39 C42 1.386 . S
C40 C36 1.429 . S
C40 N38 1.377 . S
C40 C43 1.411 . S
C41 H23 0.930 . S
C41 N38 1.321 . S
C41 C39 1.400 . S
C42 H37 0.930 . S
C42 C39 1.386 . S
C42 C43 1.395 . S
C43 C40 1.411 . S
C43 C42 1.395 . S
C43 C65 1.420 . S
O44 Eu0 2.558 . S
O44 C64 1.257 . S
O45 Eu0 2.612 . S
O45 Eu11 2.380 . S
O45 C56 1.276 . S
O46 Eu11 2.432 . S
O46 C63 1.264 . S
O47 Eu0 2.339 . S
O47 C63 1.254 . S
O48 Eu0 2.563 . S
O48 C56 1.235 . S
O49 Eu0 2.419 . S
O49 C64 1.249 . S
O50 Eu11 2.558 . S
O50 C75 1.257 . S
O51 Eu0 2.380 . S
O51 Eu11 2.612 . S
O51 C67 1.276 . S
O52 Eu0 2.432 . S
O52 C74 1.264 . S
O53 Eu11 2.339 . S
O53 C74 1.254 . S
O54 Eu11 2.563 . S
O54 C67 1.235 . S
O55 Eu11 2.419 . S
O55 C75 1.249 . S
C56 O45 1.276 . S
C56 O48 1.235 . S
C57 C59 1.393 . S
C57 C61 1.395 . S
C57 C64 1.492 . S
C58 C59 1.392 . S
C58 C60 1.386 . S
C59 C57 1.393 . S
C59 C58 1.392 . S
C59 H76 0.930 . S
C60 C58 1.386 . S
C60 C62 1.395 . S
C60 H77 0.930 . S
C61 C57 1.395 . S
C61 C62 1.379 . S
C61 H78 0.930 . S
C62 C60 1.395 . S
C62 C61 1.379 . S
C62 H79 0.930 . S
C63 O46 1.264 . S
C63 O47 1.254 . S
C64 Eu0 2.848 . S
C64 O44 1.257 . S
C64 O49 1.249 . S
C64 C57 1.492 . S
C65 H30 0.931 . S
C65 C43 1.420 . S
C65 C66 1.351 . S
C66 H28 0.930 . S
C66 C34 1.423 . S
C66 C65 1.351 . S
C67 O51 1.276 . S
C67 O54 1.235 . S
C68 C69 1.393 . S
C68 C72 1.395 . S
C68 C75 1.492 . S
C69 C68 1.393 . S
C69 C70 1.392 . S
C69 H80 0.930 . S
C70 C69 1.392 . S
C70 C71 1.386 . S
C71 C70 1.386 . S
C71 C73 1.395 . S
C71 H81 0.930 . S
C72 C68 1.395 . S
C72 C73 1.379 . S
C72 H82 0.930 . S
C73 C71 1.395 . S
C73 C72 1.379 . S
C73 H83 0.930 . S
C74 O52 1.264 . S
C74 O53 1.254 . S
C75 Eu11 2.848 . S
C75 O50 1.257 . S
C75 O55 1.249 . S
C75 C68 1.492 . S
H76 C59 0.930 . S
H77 C60 0.930 . S
H78 C61 0.930 . S
H79 C62 0.930 . S
H80 C69 0.930 . S
H81 C71 0.930 . S
H82 C72 0.930 . S
H83 C73 0.930 . S
Eu84 N115 2.657 1_455 S
Eu84 N122 2.608 1_565 S
Eu84 O128 2.558 . S
Eu84 O129 2.612 . S
Eu84 O131 2.339 . S
Eu84 O132 2.563 . S
Eu84 O133 2.419 1_455 S
Eu84 O135 2.380 . S
Eu84 O136 2.432 . S
Eu84 C148 2.848 1_455 S
C85 C88 1.429 . S
C85 C89 1.411 . S
C85 N92 1.377 . S
C86 C88 1.420 . S
C86 C90 1.423 . S
C86 C98 1.392 . S
C87 C89 1.420 . S
C87 C90 1.351 . S
C87 H110 0.931 . S
C88 C85 1.429 . S
C88 C86 1.420 . S
C88 N96 1.362 . S
C89 C85 1.411 . S
C89 C87 1.420 . S
C89 C94 1.395 . S
C90 C86 1.423 . S
C90 C87 1.351 . S
C90 H102 0.930 . S
C91 C93 1.400 . S
C91 C94 1.386 . S
C91 H103 0.930 . S
N92 C85 1.377 . S
N92 C93 1.321 . S
N92 Eu95 2.609 . S
C93 C91 1.400 . S
C93 N92 1.321 . S
C93 H100 0.930 . S
C94 C89 1.395 . S
C94 C91 1.386 . S
C94 H113 0.930 . S
Eu95 N92 2.609 . S
Eu95 N96 2.657 . S
Eu95 O129 2.380 . S
Eu95 O130 2.432 . S
Eu95 O134 2.558 . S
Eu95 O135 2.612 . S
Eu95 O137 2.339 . S
Eu95 O138 2.563 . S
Eu95 O139 2.419 . S
Eu95 C159 2.848 . S
N96 C88 1.362 . S
N96 Eu95 2.657 . S
N96 C97 1.334 . S
C97 N96 1.334 . S
C97 C99 1.413 . S
C97 H104 0.929 . S
C98 C86 1.392 . S
C98 C99 1.367 . S
C98 H106 0.930 . S
C99 C97 1.413 . S
C99 C98 1.367 . S
C99 H101 0.930 . S
H100 C93 0.930 . S
H101 C99 0.930 . S
H102 C90 0.930 . S
H103 C91 0.930 . S
H104 C97 0.929 . S
H105 C119 0.930 . S
H106 C98 0.930 . S
H107 C125 0.930 . S
H108 C116 0.929 . S
H109 C123 0.922 1_455 S
H110 C87 0.931 . S
H111 C117 0.930 . S
H112 C150 0.930 . S
H113 C94 0.930 . S
H114 C149 0.931 . S
N115 Eu84 2.657 1_655 S
N115 C116 1.334 . S
N115 C120 1.362 . S
C116 H108 0.929 . S
C116 N115 1.334 . S
C116 C119 1.413 . S
C117 H111 0.930 . S
C117 C118 1.392 . S
C117 C119 1.367 . S
C118 C117 1.392 . S
C118 C120 1.420 . S
C118 C150 1.423 1_565 S
C119 H105 0.930 . S
C119 C116 1.413 . S
C119 C117 1.367 . S
C120 N115 1.362 . S
C120 C118 1.420 . S
C120 C124 1.429 1_565 S
H121 C126 0.930 . S
N122 Eu84 2.608 1_545 S
N122 C124 1.377 1_455 S
N122 C125 1.322 . S
C123 H109 0.922 1_655 S
C123 C125 1.390 1_655 S
C123 C126 1.404 . S
C124 C120 1.429 1_545 S
C124 N122 1.377 1_655 S
C124 C127 1.411 . S
C125 H107 0.930 . S
C125 N122 1.322 . S
C125 C123 1.390 1_455 S
C126 H121 0.930 . S
C126 C123 1.404 . S
C126 C127 1.395 . S
C127 C124 1.411 . S
C127 C126 1.395 . S
C127 C149 1.420 . S
O128 Eu84 2.558 . S
O128 C148 1.257 1_455 S
O129 Eu84 2.612 . S
O129 Eu95 2.380 . S
O129 C140 1.276 . S
O130 Eu95 2.432 . S
O130 C147 1.264 . S
O131 Eu84 2.339 . S
O131 C147 1.254 . S
O132 Eu84 2.563 . S
O132 C140 1.235 . S
O133 Eu84 2.419 1_655 S
O133 C148 1.249 . S
O134 Eu95 2.558 . S
O134 C159 1.257 . S
O135 Eu84 2.380 . S
O135 Eu95 2.612 . S
O135 C151 1.276 . S
O136 Eu84 2.432 . S
O136 C158 1.264 . S
O137 Eu95 2.339 . S
O137 C158 1.254 . S
O138 Eu95 2.563 . S
O138 C151 1.235 . S
O139 Eu95 2.419 . S
O139 C159 1.249 . S
C140 O129 1.276 . S
C140 O132 1.235 . S
C141 C143 1.393 . S
C141 C145 1.395 . S
C141 C148 1.492 . S
C142 C143 1.392 . S
C142 C144 1.386 . S
C143 C141 1.393 . S
C143 C142 1.392 . S
C143 H160 0.930 . S
C144 C142 1.386 . S
C144 C146 1.395 . S
C144 H161 0.930 . S
C145 C141 1.395 . S
C145 C146 1.379 . S
C145 H162 0.930 . S
C146 C144 1.395 . S
C146 C145 1.379 . S
C146 H163 0.930 . S
C147 O130 1.264 . S
C147 O131 1.254 . S
C148 Eu84 2.848 1_655 S
C148 O128 1.257 1_655 S
C148 O133 1.249 . S
C148 C141 1.492 . S
C149 H114 0.931 . S
C149 C127 1.420 . S
C149 C150 1.351 . S
C150 H112 0.930 . S
C150 C118 1.423 1_545 S
C150 C149 1.351 . S
C151 O135 1.276 . S
C151 O138 1.235 . S
C152 C153 1.393 . S
C152 C156 1.395 . S
C152 C159 1.492 . S
C153 C152 1.393 . S
C153 C154 1.392 . S
C153 H164 0.930 . S
C154 C153 1.392 . S
C154 C155 1.386 . S
C155 C154 1.386 . S
C155 C157 1.395 . S
C155 H165 0.930 . S
C156 C152 1.395 . S
C156 C157 1.379 . S
C156 H166 0.930 . S
C157 C155 1.395 . S
C157 C156 1.379 . S
C157 H167 0.930 . S
C158 O136 1.264 . S
C158 O137 1.254 . S
C159 Eu95 2.848 . S
C159 O134 1.257 . S
C159 O139 1.249 . S
C159 C152 1.492 . S
H160 C143 0.930 . S
H161 C144 0.930 . S
H162 C145 0.930 . S
H163 C146 0.930 . S
H164 C153 0.930 . S
H165 C155 0.930 . S
H166 C156 0.930 . S
H167 C157 0.930 . S
Eu168 N199 2.657 . S
Eu168 N206 2.609 . S
Eu168 O212 2.558 . S
Eu168 O213 2.612 . S
Eu168 O215 2.339 . S
Eu168 O216 2.563 . S
Eu168 O217 2.419 . S
Eu168 O219 2.380 . S
Eu168 O220 2.432 . S
Eu168 C232 2.848 . S
C169 C172 1.429 . S
C169 C173 1.411 . S
C169 N176 1.377 . S
C170 C172 1.420 . S
C170 C174 1.423 . S
C170 C182 1.392 . S
C171 C173 1.420 . S
C171 C174 1.351 . S
C171 H194 0.931 . S
C172 C169 1.429 . S
C172 C170 1.420 . S
C172 N180 1.362 . S
C173 C169 1.411 . S
C173 C171 1.420 . S
C173 C178 1.395 . S
C174 C170 1.423 . S
C174 C171 1.351 . S
C174 H186 0.930 . S
C175 C177 1.400 . S
C175 C178 1.386 . S
C175 H187 0.930 . S
N176 C169 1.377 . S
N176 C177 1.321 . S
N176 Eu179 2.609 . S
C177 C175 1.400 . S
C177 N176 1.321 . S
C177 H184 0.930 . S
C178 C173 1.395 . S
C178 C175 1.386 . S
C178 H197 0.930 . S
Eu179 N176 2.609 . S
Eu179 N180 2.657 . S
Eu179 O213 2.380 . S
Eu179 O214 2.432 . S
Eu179 O218 2.558 . S
Eu179 O219 2.612 . S
Eu179 O221 2.339 . S
Eu179 O222 2.563 . S
Eu179 O223 2.419 . S
Eu179 C243 2.848 . S
N180 C172 1.362 . S
N180 Eu179 2.657 . S
N180 C181 1.334 . S
C181 N180 1.334 . S
C181 C183 1.413 . S
C181 H188 0.929 . S
C182 C170 1.392 . S
C182 C183 1.367 . S
C182 H190 0.930 . S
C183 C181 1.413 . S
C183 C182 1.367 . S
C183 H185 0.930 . S
H184 C177 0.930 . S
H185 C183 0.930 . S
H186 C174 0.930 . S
H187 C175 0.930 . S
H188 C181 0.929 . S
H189 C203 0.930 . S
H190 C182 0.930 . S
H191 C209 0.930 . S
H192 C200 0.929 . S
H193 C207 0.930 . S
H194 C171 0.931 . S
H195 C201 0.930 . S
H196 C234 0.930 . S
H197 C178 0.930 . S
H198 C233 0.931 . S
N199 Eu168 2.657 . S
N199 C200 1.334 . S
N199 C204 1.362 . S
C200 H192 0.929 . S
C200 N199 1.334 . S
C200 C203 1.413 . S
C201 H195 0.930 . S
C201 C202 1.392 . S
C201 C203 1.367 . S
C202 C201 1.392 . S
C202 C204 1.420 . S
C202 C234 1.423 . S
C203 H189 0.930 . S
C203 C200 1.413 . S
C203 C201 1.367 . S
C204 N199 1.362 . S
C204 C202 1.420 . S
C204 C208 1.429 . S
H205 C210 0.930 . S
N206 Eu168 2.609 . S
N206 C208 1.377 . S
N206 C209 1.321 . S
C207 H193 0.930 . S
C207 C209 1.400 . S
C207 C210 1.386 . S
C208 C204 1.429 . S
C208 N206 1.377 . S
C208 C211 1.411 . S
C209 H191 0.930 . S
C209 N206 1.321 . S
C209 C207 1.400 . S
C210 H205 0.930 . S
C210 C207 1.386 . S
C210 C211 1.395 . S
C211 C208 1.411 . S
C211 C210 1.395 . S
C211 C233 1.420 . S
O212 Eu168 2.558 . S
O212 C232 1.257 . S
O213 Eu168 2.612 . S
O213 Eu179 2.380 . S
O213 C224 1.276 . S
O214 Eu179 2.432 . S
O214 C231 1.264 . S
O215 Eu168 2.339 . S
O215 C231 1.254 . S
O216 Eu168 2.563 . S
O216 C224 1.235 . S
O217 Eu168 2.419 . S
O217 C232 1.249 . S
O218 Eu179 2.558 . S
O218 C243 1.257 . S
O219 Eu168 2.380 . S
O219 Eu179 2.612 . S
O219 C235 1.276 . S
O220 Eu168 2.432 . S
O220 C242 1.264 . S
O221 Eu179 2.339 . S
O221 C242 1.254 . S
O222 Eu179 2.563 . S
O222 C235 1.235 . S
O223 Eu179 2.419 . S
O223 C243 1.249 . S
C224 O213 1.276 . S
C224 O216 1.235 . S
C225 C227 1.393 . S
C225 C229 1.395 . S
C225 C232 1.492 . S
C226 C227 1.392 . S
C226 C228 1.386 . S
C227 C225 1.393 . S
C227 C226 1.392 . S
C227 H244 0.930 . S
C228 C226 1.386 . S
C228 C230 1.395 . S
C228 H245 0.930 . S
C229 C225 1.395 . S
C229 C230 1.379 . S
C229 H246 0.930 . S
C230 C228 1.395 . S
C230 C229 1.379 . S
C230 H247 0.930 . S
C231 O214 1.264 . S
C231 O215 1.254 . S
C232 Eu168 2.848 . S
C232 O212 1.257 . S
C232 O217 1.249 . S
C232 C225 1.492 . S
C233 H198 0.931 . S
C233 C211 1.420 . S
C233 C234 1.351 . S
C234 H196 0.930 . S
C234 C202 1.423 . S
C234 C233 1.351 . S
C235 O219 1.276 . S
C235 O222 1.235 . S
C236 C237 1.393 . S
C236 C240 1.395 . S
C236 C243 1.492 . S
C237 C236 1.393 . S
C237 C238 1.392 . S
C237 H248 0.930 . S
C238 C237 1.392 . S
C238 C239 1.386 . S
C239 C238 1.386 . S
C239 C241 1.395 . S
C239 H249 0.930 . S
C240 C236 1.395 . S
C240 C241 1.379 . S
C240 H250 0.930 . S
C241 C239 1.395 . S
C241 C240 1.379 . S
C241 H251 0.930 . S
C242 O220 1.264 . S
C242 O221 1.254 . S
C243 Eu179 2.848 . S
C243 O218 1.257 . S
C243 O223 1.249 . S
C243 C236 1.492 . S
H244 C227 0.930 . S
H245 C228 0.930 . S
H246 C229 0.930 . S
H247 C230 0.930 . S
H248 C237 0.930 . S
H249 C239 0.930 . S
H250 C240 0.930 . S
H251 C241 0.930 . S
Eu252 N283 2.657 . S
Eu252 N290 2.608 1_545 S
Eu252 O296 2.558 . S
Eu252 O297 2.612 . S
Eu252 O299 2.339 . S
Eu252 O300 2.563 . S
Eu252 O301 2.419 . S
Eu252 O303 2.380 . S
Eu252 O304 2.432 . S
Eu252 C316 2.848 . S
C253 C256 1.429 . S
C253 C257 1.411 . S
C253 N260 1.377 . S
C254 C256 1.420 . S
C254 C258 1.423 . S
C254 C266 1.392 . S
C255 C257 1.420 . S
C255 C258 1.351 . S
C255 H278 0.931 . S
C256 C253 1.429 . S
C256 C254 1.420 . S
C256 N264 1.362 . S
C257 C253 1.411 . S
C257 C255 1.420 . S
C257 C262 1.395 . S
C258 C254 1.423 . S
C258 C255 1.351 . S
C258 H270 0.930 . S
C259 C261 1.400 . S
C259 C262 1.386 . S
C259 H271 0.930 . S
N260 C253 1.377 . S
N260 C261 1.321 . S
N260 Eu263 2.609 . S
C261 C259 1.400 . S
C261 N260 1.321 . S
C261 H268 0.930 . S
C262 C257 1.395 . S
C262 C259 1.386 . S
C262 H281 0.930 . S
Eu263 N260 2.609 . S
Eu263 N264 2.657 . S
Eu263 O297 2.380 . S
Eu263 O298 2.432 . S
Eu263 O302 2.558 . S
Eu263 O303 2.612 . S
Eu263 O305 2.339 . S
Eu263 O306 2.563 . S
Eu263 O307 2.419 . S
Eu263 C327 2.848 . S
N264 C256 1.362 . S
N264 Eu263 2.657 . S
N264 C265 1.334 . S
C265 N264 1.334 . S
C265 C267 1.413 . S
C265 H272 0.929 . S
C266 C254 1.392 . S
C266 C267 1.367 . S
C266 H274 0.930 . S
C267 C265 1.413 . S
C267 C266 1.367 . S
C267 H269 0.930 . S
H268 C261 0.930 . S
H269 C267 0.930 . S
H270 C258 0.930 . S
H271 C259 0.930 . S
H272 C265 0.929 . S
H273 C287 0.930 . S
H274 C266 0.930 . S
H275 C293 0.930 . S
H276 C284 0.929 . S
H277 C291 0.930 . S
H278 C255 0.931 . S
H279 C285 0.930 . S
H280 C318 0.930 . S
H281 C262 0.930 . S
H282 C317 0.931 . S
N283 Eu252 2.657 . S
N283 C284 1.334 . S
N283 C288 1.362 . S
C284 H276 0.929 . S
C284 N283 1.334 . S
C284 C287 1.413 . S
C285 H279 0.930 . S
C285 C286 1.392 . S
C285 C287 1.367 . S
C286 C285 1.392 . S
C286 C288 1.420 . S
C286 C318 1.423 1_545 S
C287 H273 0.930 . S
C287 C284 1.413 . S
C287 C285 1.367 . S
C288 N283 1.362 . S
C288 C286 1.420 . S
C288 C292 1.429 1_545 S
H289 C294 0.930 . S
N290 Eu252 2.608 1_565 S
N290 C292 1.377 . S
N290 C293 1.322 . S
C291 H277 0.930 . S
C291 C293 1.400 . S
C291 C294 1.386 . S
C292 C288 1.429 1_565 S
C292 N290 1.377 . S
C292 C295 1.411 . S
C293 H275 0.930 . S
C293 N290 1.322 . S
C293 C291 1.400 . S
C294 H289 0.930 . S
C294 C291 1.386 . S
C294 C295 1.395 . S
C295 C292 1.411 . S
C295 C294 1.395 . S
C295 C317 1.420 . S
O296 Eu252 2.558 . S
O296 C316 1.257 . S
O297 Eu252 2.612 . S
O297 Eu263 2.380 . S
O297 C308 1.276 . S
O298 Eu263 2.432 . S
O298 C315 1.264 . S
O299 Eu252 2.339 . S
O299 C315 1.254 . S
O300 Eu252 2.563 . S
O300 C308 1.235 . S
O301 Eu252 2.419 . S
O301 C316 1.249 . S
O302 Eu263 2.558 . S
O302 C327 1.257 . S
O303 Eu252 2.380 . S
O303 Eu263 2.612 . S
O303 C319 1.276 . S
O304 Eu252 2.432 . S
O304 C326 1.264 . S
O305 Eu263 2.339 . S
O305 C326 1.254 . S
O306 Eu263 2.563 . S
O306 C319 1.235 . S
O307 Eu263 2.419 . S
O307 C327 1.249 . S
C308 O297 1.276 . S
C308 O300 1.235 . S
C309 C311 1.393 . S
C309 C313 1.395 . S
C309 C316 1.492 . S
C310 C311 1.392 . S
C310 C312 1.386 . S
C311 C309 1.393 . S
C311 C310 1.392 . S
C311 H328 0.930 . S
C312 C310 1.386 . S
C312 C314 1.395 . S
C312 H329 0.930 . S
C313 C309 1.395 . S
C313 C314 1.379 . S
C313 H330 0.930 . S
C314 C312 1.395 . S
C314 C313 1.379 . S
C314 H331 0.930 . S
C315 O298 1.264 . S
C315 O299 1.254 . S
C316 Eu252 2.848 . S
C316 O296 1.257 . S
C316 O301 1.249 . S
C316 C309 1.492 . S
C317 H282 0.931 . S
C317 C295 1.420 . S
C317 C318 1.351 . S
C318 H280 0.930 . S
C318 C286 1.423 1_565 S
C318 C317 1.351 . S
C319 O303 1.276 . S
C319 O306 1.235 . S
C320 C321 1.393 . S
C320 C324 1.395 . S
C320 C327 1.492 . S
C321 C320 1.393 . S
C321 C322 1.392 . S
C321 H332 0.930 . S
C322 C321 1.392 . S
C322 C323 1.386 . S
C323 C322 1.386 . S
C323 C325 1.395 . S
C323 H333 0.930 . S
C324 C320 1.395 . S
C324 C325 1.379 . S
C324 H334 0.930 . S
C325 C323 1.395 . S
C325 C324 1.379 . S
C325 H335 0.930 . S
C326 O304 1.264 . S
C326 O305 1.254 . S
C327 Eu263 2.848 . S
C327 O302 1.257 . S
C327 O307 1.249 . S
C327 C320 1.492 . S
H328 C311 0.930 . S
H329 C312 0.930 . S
H330 C313 0.930 . S
H331 C314 0.930 . S
H332 C321 0.930 . S
H333 C323 0.930 . S
H334 C324 0.930 . S
H335 C325 0.930 . S
Eu336 N367 2.657 . S
Eu336 N374 2.609 . S
Eu336 O380 2.558 . S
Eu336 O381 2.612 . S
Eu336 O383 2.339 . S
Eu336 O384 2.563 . S
Eu336 O385 2.419 . S
Eu336 O387 2.380 . S
Eu336 O388 2.432 . S
Eu336 C400 2.848 . S
C337 C340 1.429 . S
C337 C341 1.411 . S
C337 N344 1.377 . S
C338 C340 1.420 . S
C338 C342 1.423 . S
C338 C350 1.392 . S
C339 C341 1.420 . S
C339 C342 1.351 . S
C339 H362 0.931 . S
C340 C337 1.429 . S
C340 C338 1.420 . S
C340 N348 1.362 . S
C341 C337 1.411 . S
C341 C339 1.420 . S
C341 C346 1.395 . S
C342 C338 1.423 . S
C342 C339 1.351 . S
C342 H354 0.930 . S
C343 C345 1.400 . S
C343 C346 1.386 . S
C343 H355 0.930 . S
N344 C337 1.377 . S
N344 C345 1.321 . S
N344 Eu347 2.609 . S
C345 C343 1.400 . S
C345 N344 1.321 . S
C345 H352 0.930 . S
C346 C341 1.395 . S
C346 C343 1.386 . S
C346 H365 0.930 . S
Eu347 N344 2.609 . S
Eu347 N348 2.657 . S
Eu347 O381 2.380 . S
Eu347 O382 2.432 . S
Eu347 O386 2.558 . S
Eu347 O387 2.612 . S
Eu347 O389 2.339 . S
Eu347 O390 2.563 . S
Eu347 O391 2.419 . S
Eu347 C411 2.848 . S
N348 C340 1.362 . S
N348 Eu347 2.657 . S
N348 C349 1.334 . S
C349 N348 1.334 . S
C349 C351 1.413 . S
C349 H356 0.929 . S
C350 C338 1.392 . S
C350 C351 1.367 . S
C350 H358 0.930 . S
C351 C349 1.413 . S
C351 C350 1.367 . S
C351 H353 0.930 . S
H352 C345 0.930 . S
H353 C351 0.930 . S
H354 C342 0.930 . S
H355 C343 0.930 . S
H356 C349 0.929 . S
H357 C371 0.930 . S
H358 C350 0.930 . S
H359 C377 0.930 . S
H360 C368 0.929 . S
H361 C375 0.930 . S
H362 C339 0.931 . S
H363 C369 0.930 . S
H364 C402 0.930 . S
H365 C346 0.930 . S
H366 C401 0.931 . S
N367 Eu336 2.657 . S
N367 C368 1.334 . S
N367 C372 1.362 . S
C368 H360 0.929 . S
C368 N367 1.334 . S
C368 C371 1.413 . S
C369 H363 0.930 . S
C369 C370 1.392 . S
C369 C371 1.367 . S
C370 C369 1.392 . S
C370 C372 1.420 . S
C370 C402 1.423 . S
C371 H357 0.930 . S
C371 C368 1.413 . S
C371 C369 1.367 . S
C372 N367 1.362 . S
C372 C370 1.420 . S
C372 C376 1.429 . S
H373 C378 0.930 . S
N374 Eu336 2.609 . S
N374 C376 1.377 . S
N374 C377 1.321 . S
C375 H361 0.930 . S
C375 C377 1.400 . S
C375 C378 1.386 . S
C376 C372 1.429 . S
C376 N374 1.377 . S
C376 C379 1.411 . S
C377 H359 0.930 . S
C377 N374 1.321 . S
C377 C375 1.400 . S
C378 H373 0.930 . S
C378 C375 1.386 . S
C378 C379 1.395 . S
C379 C376 1.411 . S
C379 C378 1.395 . S
C379 C401 1.420 . S
O380 Eu336 2.558 . S
O380 C400 1.257 . S
O381 Eu336 2.612 . S
O381 Eu347 2.380 . S
O381 C392 1.276 . S
O382 Eu347 2.432 . S
O382 C399 1.264 . S
O383 Eu336 2.339 . S
O383 C399 1.254 . S
O384 Eu336 2.563 . S
O384 C392 1.235 . S
O385 Eu336 2.419 . S
O385 C400 1.249 . S
O386 Eu347 2.558 . S
O386 C411 1.257 . S
O387 Eu336 2.380 . S
O387 Eu347 2.612 . S
O387 C403 1.276 . S
O388 Eu336 2.432 . S
O388 C410 1.264 . S
O389 Eu347 2.339 . S
O389 C410 1.254 . S
O390 Eu347 2.563 . S
O390 C403 1.235 . S
O391 Eu347 2.419 . S
O391 C411 1.249 . S
C392 O381 1.276 . S
C392 O384 1.235 . S
C393 C395 1.393 . S
C393 C397 1.395 . S
C393 C400 1.492 . S
C394 C395 1.392 . S
C394 C396 1.386 . S
C395 C393 1.393 . S
C395 C394 1.392 . S
C395 H412 0.930 . S
C396 C394 1.386 . S
C396 C398 1.395 . S
C396 H413 0.930 . S
C397 C393 1.395 . S
C397 C398 1.379 . S
C397 H414 0.930 . S
C398 C396 1.395 . S
C398 C397 1.379 . S
C398 H415 0.930 . S
C399 O382 1.264 . S
C399 O383 1.254 . S
C400 Eu336 2.848 . S
C400 O380 1.257 . S
C400 O385 1.249 . S
C400 C393 1.492 . S
C401 H366 0.931 . S
C401 C379 1.420 . S
C401 C402 1.351 . S
C402 H364 0.930 . S
C402 C370 1.423 . S
C402 C401 1.351 . S
C403 O387 1.276 . S
C403 O390 1.235 . S
C404 C405 1.393 . S
C404 C408 1.395 . S
C404 C411 1.492 . S
C405 C404 1.393 . S
C405 C406 1.392 . S
C405 H416 0.930 . S
C406 C405 1.392 . S
C406 C407 1.386 . S
C407 C406 1.386 . S
C407 C409 1.395 . S
C407 H417 0.930 . S
C408 C404 1.395 . S
C408 C409 1.379 . S
C408 H418 0.930 . S
C409 C407 1.395 . S
C409 C408 1.379 . S
C409 H419 0.930 . S
C410 O388 1.264 . S
C410 O389 1.254 . S
C411 Eu347 2.848 . S
C411 O386 1.257 . S
C411 O391 1.249 . S
C411 C404 1.492 . S
H412 C395 0.930 . S
H413 C396 0.930 . S
H414 C397 0.930 . S
H415 C398 0.930 . S
H416 C405 0.930 . S
H417 C407 0.930 . S
H418 C408 0.930 . S
H419 C409 0.930 . S
Eu420 N451 2.657 . S
Eu420 N458 2.608 1_565 S
Eu420 O464 2.558 . S
Eu420 O465 2.612 . S
Eu420 O467 2.339 . S
Eu420 O468 2.563 . S
Eu420 O469 2.419 . S
Eu420 O471 2.380 . S
Eu420 O472 2.432 . S
Eu420 C484 2.848 . S
C421 C424 1.429 . S
C421 C425 1.411 . S
C421 N428 1.377 . S
C422 C424 1.420 . S
C422 C426 1.423 . S
C422 C434 1.392 . S
C423 C425 1.420 . S
C423 C426 1.351 . S
C423 H446 0.931 . S
C424 C421 1.429 . S
C424 C422 1.420 . S
C424 N432 1.362 . S
C425 C421 1.411 . S
C425 C423 1.420 . S
C425 C430 1.395 . S
C426 C422 1.423 . S
C426 C423 1.351 . S
C426 H438 0.930 . S
C427 C429 1.400 . S
C427 C430 1.386 . S
C427 H439 0.930 . S
N428 C421 1.377 . S
N428 C429 1.321 . S
N428 Eu431 2.609 . S
C429 C427 1.400 . S
C429 N428 1.321 . S
C429 H436 0.930 . S
C430 C425 1.395 . S
C430 C427 1.386 . S
C430 H449 0.930 . S
Eu431 N428 2.609 . S
Eu431 N432 2.657 . S
Eu431 O465 2.380 . S
Eu431 O466 2.432 . S
Eu431 O470 2.558 . S
Eu431 O471 2.612 . S
Eu431 O473 2.339 . S
Eu431 O474 2.563 . S
Eu431 O475 2.419 . S
Eu431 C495 2.848 . S
N432 C424 1.362 . S
N432 Eu431 2.657 . S
N432 C433 1.334 . S
C433 N432 1.334 . S
C433 C435 1.413 . S
C433 H440 0.929 . S
C434 C422 1.392 . S
C434 C435 1.367 . S
C434 H442 0.930 . S
C435 C433 1.413 . S
C435 C434 1.367 . S
C435 H437 0.930 . S
H436 C429 0.930 . S
H437 C435 0.930 . S
H438 C426 0.930 . S
H439 C427 0.930 . S
H440 C433 0.929 . S
H441 C455 0.930 . S
H442 C434 0.930 . S
H443 C461 0.930 . S
H444 C452 0.929 . S
H445 C459 0.930 . S
H446 C423 0.931 . S
H447 C453 0.930 . S
H448 C486 0.930 . S
H449 C430 0.930 . S
H450 C485 0.931 . S
N451 Eu420 2.657 . S
N451 C452 1.334 . S
N451 C456 1.362 . S
C452 H444 0.929 . S
C452 N451 1.334 . S
C452 C455 1.413 . S
C453 H447 0.930 . S
C453 C454 1.392 . S
C453 C455 1.367 . S
C454 C453 1.392 . S
C454 C456 1.420 . S
C454 C486 1.423 1_565 S
C455 H441 0.930 . S
C455 C452 1.413 . S
C455 C453 1.367 . S
C456 N451 1.362 . S
C456 C454 1.420 . S
C456 C460 1.429 1_565 S
H457 C462 0.930 . S
N458 Eu420 2.608 1_545 S
N458 C460 1.377 . S
N458 C461 1.322 . S
C459 H445 0.930 . S
C459 C461 1.400 . S
C459 C462 1.386 . S
C460 C456 1.429 1_545 S
C460 N458 1.377 . S
C460 C463 1.411 . S
C461 H443 0.930 . S
C461 N458 1.322 . S
C461 C459 1.400 . S
C462 H457 0.930 . S
C462 C459 1.386 . S
C462 C463 1.395 . S
C463 C460 1.411 . S
C463 C462 1.395 . S
C463 C485 1.420 . S
O464 Eu420 2.558 . S
O464 C484 1.257 . S
O465 Eu420 2.612 . S
O465 Eu431 2.380 . S
O465 C476 1.276 . S
O466 Eu431 2.432 . S
O466 C483 1.264 . S
O467 Eu420 2.339 . S
O467 C483 1.254 . S
O468 Eu420 2.563 . S
O468 C476 1.235 . S
O469 Eu420 2.419 . S
O469 C484 1.249 . S
O470 Eu431 2.558 . S
O470 C495 1.257 . S
O471 Eu420 2.380 . S
O471 Eu431 2.612 . S
O471 C487 1.276 . S
O472 Eu420 2.432 . S
O472 C494 1.264 . S
O473 Eu431 2.339 . S
O473 C494 1.254 . S
O474 Eu431 2.563 . S
O474 C487 1.235 . S
O475 Eu431 2.419 . S
O475 C495 1.249 . S
C476 O465 1.276 . S
C476 O468 1.235 . S
C477 C479 1.393 . S
C477 C481 1.395 . S
C477 C484 1.492 . S
C478 C479 1.392 . S
C478 C480 1.386 . S
C479 C477 1.393 . S
C479 C478 1.392 . S
C479 H496 0.930 . S
C480 C478 1.386 . S
C480 C482 1.395 . S
C480 H497 0.930 . S
C481 C477 1.395 . S
C481 C482 1.379 . S
C481 H498 0.930 . S
C482 C480 1.395 . S
C482 C481 1.379 . S
C482 H499 0.930 . S
C483 O466 1.264 . S
C483 O467 1.254 . S
C484 Eu420 2.848 . S
C484 O464 1.257 . S
C484 O469 1.249 . S
C484 C477 1.492 . S
C485 H450 0.931 . S
C485 C463 1.420 . S
C485 C486 1.351 . S
C486 H448 0.930 . S
C486 C454 1.423 1_545 S
C486 C485 1.351 . S
C487 O471 1.276 . S
C487 O474 1.235 . S
C488 C489 1.393 . S
C488 C492 1.395 . S
C488 C495 1.492 . S
C489 C488 1.393 . S
C489 C490 1.392 . S
C489 H500 0.930 . S
C490 C489 1.392 . S
C490 C491 1.386 . S
C491 C490 1.386 . S
C491 C493 1.395 . S
C491 H501 0.930 . S
C492 C488 1.395 . S
C492 C493 1.379 . S
C492 H502 0.930 . S
C493 C491 1.395 . S
C493 C492 1.379 . S
C493 H503 0.930 . S
C494 O472 1.264 . S
C494 O473 1.254 . S
C495 Eu431 2.848 . S
C495 O470 1.257 . S
C495 O475 1.249 . S
C495 C488 1.492 . S
H496 C479 0.930 . S
H497 C480 0.930 . S
H498 C481 0.930 . S
H499 C482 0.930 . S
H500 C489 0.930 . S
H501 C491 0.930 . S
H502 C492 0.930 . S
H503 C493 0.930 . S
Eu504 N535 2.657 . S
Eu504 N542 2.609 . S
Eu504 O548 2.558 . S
Eu504 O549 2.612 . S
Eu504 O551 2.339 . S
Eu504 O552 2.563 . S
Eu504 O553 2.419 . S
Eu504 O555 2.380 . S
Eu504 O556 2.432 . S
Eu504 C568 2.848 . S
C505 C508 1.429 . S
C505 C509 1.411 . S
C505 N512 1.377 . S
C506 C508 1.420 . S
C506 C510 1.423 . S
C506 C518 1.392 . S
C507 C509 1.420 . S
C507 C510 1.351 . S
C507 H530 0.931 . S
C508 C505 1.429 . S
C508 C506 1.420 . S
C508 N516 1.362 . S
C509 C505 1.411 . S
C509 C507 1.420 . S
C509 C514 1.395 . S
C510 C506 1.423 . S
C510 C507 1.351 . S
C510 H522 0.930 . S
C511 C513 1.400 . S
C511 C514 1.386 . S
C511 H523 0.930 . S
N512 C505 1.377 . S
N512 C513 1.321 . S
N512 Eu515 2.609 . S
C513 C511 1.400 . S
C513 N512 1.321 . S
C513 H520 0.930 . S
C514 C509 1.395 . S
C514 C511 1.386 . S
C514 H533 0.930 . S
Eu515 N512 2.609 . S
Eu515 N516 2.657 . S
Eu515 O549 2.380 . S
Eu515 O550 2.432 . S
Eu515 O554 2.558 . S
Eu515 O555 2.612 . S
Eu515 O557 2.339 . S
Eu515 O558 2.563 . S
Eu515 O559 2.419 . S
Eu515 C579 2.848 . S
N516 C508 1.362 . S
N516 Eu515 2.657 . S
N516 C517 1.334 . S
C517 N516 1.334 . S
C517 C519 1.413 . S
C517 H524 0.929 . S
C518 C506 1.392 . S
C518 C519 1.367 . S
C518 H526 0.930 . S
C519 C517 1.413 . S
C519 C518 1.367 . S
C519 H521 0.930 . S
H520 C513 0.930 . S
H521 C519 0.930 . S
H522 C510 0.930 . S
H523 C511 0.930 . S
H524 C517 0.929 . S
H525 C539 0.930 . S
H526 C518 0.930 . S
H527 C545 0.930 . S
H528 C536 0.929 . S
H529 C543 0.930 . S
H530 C507 0.931 . S
H531 C537 0.930 . S
H532 C570 0.930 . S
H533 C514 0.930 . S
H534 C569 0.931 . S
N535 Eu504 2.657 . S
N535 C536 1.334 . S
N535 C540 1.362 . S
C536 H528 0.929 . S
C536 N535 1.334 . S
C536 C539 1.413 . S
C537 H531 0.930 . S
C537 C538 1.392 . S
C537 C539 1.367 . S
C538 C537 1.392 . S
C538 C540 1.420 . S
C538 C570 1.423 . S
C539 H525 0.930 . S
C539 C536 1.413 . S
C539 C537 1.367 . S
C540 N535 1.362 . S
C540 C538 1.420 . S
C540 C544 1.429 . S
H541 C546 0.930 . S
N542 Eu504 2.609 . S
N542 C544 1.377 . S
N542 C545 1.321 . S
C543 H529 0.930 . S
C543 C545 1.400 . S
C543 C546 1.386 . S
C544 C540 1.429 . S
C544 N542 1.377 . S
C544 C547 1.411 . S
C545 H527 0.930 . S
C545 N542 1.321 . S
C545 C543 1.400 . S
C546 H541 0.930 . S
C546 C543 1.386 . S
C546 C547 1.395 . S
C547 C544 1.411 . S
C547 C546 1.395 . S
C547 C569 1.420 . S
O548 Eu504 2.558 . S
O548 C568 1.257 . S
O549 Eu504 2.612 . S
O549 Eu515 2.380 . S
O549 C560 1.276 . S
O550 Eu515 2.432 . S
O550 C567 1.264 . S
O551 Eu504 2.339 . S
O551 C567 1.254 . S
O552 Eu504 2.563 . S
O552 C560 1.235 . S
O553 Eu504 2.419 . S
O553 C568 1.249 . S
O554 Eu515 2.558 . S
O554 C579 1.257 . S
O555 Eu504 2.380 . S
O555 Eu515 2.612 . S
O555 C571 1.276 . S
O556 Eu504 2.432 . S
O556 C578 1.264 . S
O557 Eu515 2.339 . S
O557 C578 1.254 . S
O558 Eu515 2.563 . S
O558 C571 1.235 . S
O559 Eu515 2.419 . S
O559 C579 1.249 . S
C560 O549 1.276 . S
C560 O552 1.235 . S
C561 C563 1.393 . S
C561 C565 1.395 . S
C561 C568 1.492 . S
C562 C563 1.392 . S
C562 C564 1.386 . S
C563 C561 1.393 . S
C563 C562 1.392 . S
C563 H580 0.930 . S
C564 C562 1.386 . S
C564 C566 1.395 . S
C564 H581 0.930 . S
C565 C561 1.395 . S
C565 C566 1.379 . S
C565 H582 0.930 . S
C566 C564 1.395 . S
C566 C565 1.379 . S
C566 H583 0.930 . S
C567 O550 1.264 . S
C567 O551 1.254 . S
C568 Eu504 2.848 . S
C568 O548 1.257 . S
C568 O553 1.249 . S
C568 C561 1.492 . S
C569 H534 0.931 . S
C569 C547 1.420 . S
C569 C570 1.351 . S
C570 H532 0.930 . S
C570 C538 1.423 . S
C570 C569 1.351 . S
C571 O555 1.276 . S
C571 O558 1.235 . S
C572 C573 1.393 . S
C572 C576 1.395 . S
C572 C579 1.492 . S
C573 C572 1.393 . S
C573 C574 1.392 . S
C573 H584 0.930 . S
C574 C573 1.392 . S
C574 C575 1.386 . S
C575 C574 1.386 . S
C575 C577 1.395 . S
C575 H585 0.930 . S
C576 C572 1.395 . S
C576 C577 1.379 . S
C576 H586 0.930 . S
C577 C575 1.395 . S
C577 C576 1.379 . S
C577 H587 0.930 . S
C578 O556 1.264 . S
C578 O557 1.254 . S
C579 Eu515 2.848 . S
C579 O554 1.257 . S
C579 O559 1.249 . S
C579 C572 1.492 . S
H580 C563 0.930 . S
H581 C564 0.930 . S
H582 C565 0.930 . S
H583 C566 0.930 . S
H584 C573 0.930 . S
H585 C575 0.930 . S
H586 C576 0.930 . S
H587 C577 0.930 . S
Eu588 N619 2.657 1_455 S
Eu588 N626 2.608 1_545 S
Eu588 O632 2.558 . S
Eu588 O633 2.612 . S
Eu588 O635 2.339 . S
Eu588 O636 2.563 . S
Eu588 O637 2.419 1_455 S
Eu588 O639 2.380 . S
Eu588 O640 2.432 . S
Eu588 C652 2.848 1_455 S
C589 C592 1.429 . S
C589 C593 1.411 . S
C589 N596 1.377 . S
C590 C592 1.420 . S
C590 C594 1.423 . S
C590 C602 1.392 . S
C591 C593 1.420 . S
C591 C594 1.351 . S
C591 H614 0.931 . S
C592 C589 1.429 . S
C592 C590 1.420 . S
C592 N600 1.362 . S
C593 C589 1.411 . S
C593 C591 1.420 . S
C593 C598 1.395 . S
C594 C590 1.423 . S
C594 C591 1.351 . S
C594 H606 0.930 . S
C595 C597 1.400 . S
C595 C598 1.386 . S
C595 H607 0.930 . S
N596 C589 1.377 . S
N596 C597 1.321 . S
N596 Eu599 2.609 . S
C597 C595 1.400 . S
C597 N596 1.321 . S
C597 H604 0.930 . S
C598 C593 1.395 . S
C598 C595 1.386 . S
C598 H617 0.930 . S
Eu599 N596 2.609 . S
Eu599 N600 2.657 . S
Eu599 O633 2.380 . S
Eu599 O634 2.432 . S
Eu599 O638 2.558 . S
Eu599 O639 2.612 . S
Eu599 O641 2.339 . S
Eu599 O642 2.563 . S
Eu599 O643 2.419 . S
Eu599 C663 2.848 . S
N600 C592 1.362 . S
N600 Eu599 2.657 . S
N600 C601 1.334 . S
C601 N600 1.334 . S
C601 C603 1.413 . S
C601 H608 0.929 . S
C602 C590 1.392 . S
C602 C603 1.367 . S
C602 H610 0.930 . S
C603 C601 1.413 . S
C603 C602 1.367 . S
C603 H605 0.930 . S
H604 C597 0.930 . S
H605 C603 0.930 . S
H606 C594 0.930 . S
H607 C595 0.930 . S
H608 C601 0.929 . S
H609 C623 0.930 . S
H610 C602 0.930 . S
H611 C629 0.930 . S
H612 C620 0.929 . S
H613 C627 0.922 1_455 S
H614 C591 0.931 . S
H615 C621 0.930 . S
H616 C654 0.930 . S
H617 C598 0.930 . S
H618 C653 0.931 . S
N619 Eu588 2.657 1_655 S
N619 C620 1.334 . S
N619 C624 1.362 . S
C620 H612 0.929 . S
C620 N619 1.334 . S
C620 C623 1.413 . S
C621 H615 0.930 . S
C621 C622 1.392 . S
C621 C623 1.367 . S
C622 C621 1.392 . S
C622 C624 1.420 . S
C622 C654 1.423 1_545 S
C623 H609 0.930 . S
C623 C620 1.413 . S
C623 C621 1.367 . S
C624 N619 1.362 . S
C624 C622 1.420 . S
C624 C628 1.429 1_545 S
H625 C630 0.930 . S
N626 Eu588 2.608 1_565 S
N626 C628 1.377 1_455 S
N626 C629 1.322 . S
C627 H613 0.922 1_655 S
C627 C629 1.390 1_655 S
C627 C630 1.404 . S
C628 C624 1.429 1_565 S
C628 N626 1.377 1_655 S
C628 C631 1.411 . S
C629 H611 0.930 . S
C629 N626 1.322 . S
C629 C627 1.390 1_455 S
C630 H625 0.930 . S
C630 C627 1.404 . S
C630 C631 1.395 . S
C631 C628 1.411 . S
C631 C630 1.395 . S
C631 C653 1.420 . S
O632 Eu588 2.558 . S
O632 C652 1.257 1_455 S
O633 Eu588 2.612 . S
O633 Eu599 2.380 . S
O633 C644 1.276 . S
O634 Eu599 2.432 . S
O634 C651 1.264 . S
O635 Eu588 2.339 . S
O635 C651 1.254 . S
O636 Eu588 2.563 . S
O636 C644 1.235 . S
O637 Eu588 2.419 1_655 S
O637 C652 1.249 . S
O638 Eu599 2.558 . S
O638 C663 1.257 . S
O639 Eu588 2.380 . S
O639 Eu599 2.612 . S
O639 C655 1.276 . S
O640 Eu588 2.432 . S
O640 C662 1.264 . S
O641 Eu599 2.339 . S
O641 C662 1.254 . S
O642 Eu599 2.563 . S
O642 C655 1.235 . S
O643 Eu599 2.419 . S
O643 C663 1.249 . S
C644 O633 1.276 . S
C644 O636 1.235 . S
C645 C647 1.393 . S
C645 C649 1.395 . S
C645 C652 1.492 . S
C646 C647 1.392 . S
C646 C648 1.386 . S
C647 C645 1.393 . S
C647 C646 1.392 . S
C647 H664 0.930 . S
C648 C646 1.386 . S
C648 C650 1.395 . S
C648 H665 0.930 . S
C649 C645 1.395 . S
C649 C650 1.379 . S
C649 H666 0.930 . S
C650 C648 1.395 . S
C650 C649 1.379 . S
C650 H667 0.930 . S
C651 O634 1.264 . S
C651 O635 1.254 . S
C652 Eu588 2.848 1_655 S
C652 O632 1.257 1_655 S
C652 O637 1.249 . S
C652 C645 1.492 . S
C653 H618 0.931 . S
C653 C631 1.420 . S
C653 C654 1.351 . S
C654 H616 0.930 . S
C654 C622 1.423 1_565 S
C654 C653 1.351 . S
C655 O639 1.276 . S
C655 O642 1.235 . S
C656 C657 1.393 . S
C656 C660 1.395 . S
C656 C663 1.492 . S
C657 C656 1.393 . S
C657 C658 1.392 . S
C657 H668 0.930 . S
C658 C657 1.392 . S
C658 C659 1.386 . S
C659 C658 1.386 . S
C659 C661 1.395 . S
C659 H669 0.930 . S
C660 C656 1.395 . S
C660 C661 1.379 . S
C660 H670 0.930 . S
C661 C659 1.395 . S
C661 C660 1.379 . S
C661 H671 0.930 . S
C662 O640 1.264 . S
C662 O641 1.254 . S
C663 Eu599 2.848 . S
C663 O638 1.257 . S
C663 O643 1.249 . S
C663 C656 1.492 . S
H664 C647 0.930 . S
H665 C648 0.930 . S
H666 C649 0.930 . S
H667 C650 0.930 . S
H668 C657 0.930 . S
H669 C659 0.930 . S
H670 C660 0.930 . S
H671 C661 0.930 . S
Eu672 N703 2.657 . S
Eu672 N710 2.609 . S
Eu672 O716 2.558 . S
Eu672 O717 2.612 . S
Eu672 O719 2.339 . S
Eu672 O720 2.563 . S
Eu672 O721 2.419 . S
Eu672 O723 2.380 . S
Eu672 O724 2.432 . S
Eu672 C736 2.848 . S
C673 C676 1.429 . S
C673 C677 1.411 . S
C673 N680 1.377 . S
C674 C676 1.420 . S
C674 C678 1.423 . S
C674 C686 1.392 . S
C675 C677 1.420 . S
C675 C678 1.351 . S
C675 H698 0.931 . S
C676 C673 1.429 . S
C676 C674 1.420 . S
C676 N684 1.362 . S
C677 C673 1.411 . S
C677 C675 1.420 . S
C677 C682 1.395 . S
C678 C674 1.423 . S
C678 C675 1.351 . S
C678 H690 0.930 . S
C679 C681 1.400 . S
C679 C682 1.386 . S
C679 H691 0.930 . S
N680 C673 1.377 . S
N680 C681 1.321 . S
N680 Eu683 2.609 . S
C681 C679 1.400 . S
C681 N680 1.321 . S
C681 H688 0.930 . S
C682 C677 1.395 . S
C682 C679 1.386 . S
C682 H701 0.930 . S
Eu683 N680 2.609 . S
Eu683 N684 2.657 . S
Eu683 O717 2.380 . S
Eu683 O718 2.432 . S
Eu683 O722 2.558 . S
Eu683 O723 2.612 . S
Eu683 O725 2.339 . S
Eu683 O726 2.563 . S
Eu683 O727 2.419 . S
Eu683 C747 2.848 . S
N684 C676 1.362 . S
N684 Eu683 2.657 . S
N684 C685 1.334 . S
C685 N684 1.334 . S
C685 C687 1.413 . S
C685 H692 0.929 . S
C686 C674 1.392 . S
C686 C687 1.367 . S
C686 H694 0.930 . S
C687 C685 1.413 . S
C687 C686 1.367 . S
C687 H689 0.930 . S
H688 C681 0.930 . S
H689 C687 0.930 . S
H690 C678 0.930 . S
H691 C679 0.930 . S
H692 C685 0.929 . S
H693 C707 0.930 . S
H694 C686 0.930 . S
H695 C713 0.930 . S
H696 C704 0.929 . S
H697 C711 0.930 . S
H698 C675 0.931 . S
H699 C705 0.930 . S
H700 C738 0.930 . S
H701 C682 0.930 . S
H702 C737 0.931 . S
N703 Eu672 2.657 . S
N703 C704 1.334 . S
N703 C708 1.362 . S
C704 H696 0.929 . S
C704 N703 1.334 . S
C704 C707 1.413 . S
C705 H699 0.930 . S
C705 C706 1.392 . S
C705 C707 1.367 . S
C706 C705 1.392 . S
C706 C708 1.420 . S
C706 C738 1.423 . S
C707 H693 0.930 . S
C707 C704 1.413 . S
C707 C705 1.367 . S
C708 N703 1.362 . S
C708 C706 1.420 . S
C708 C712 1.429 . S
H709 C714 0.930 . S
N710 Eu672 2.609 . S
N710 C712 1.377 . S
N710 C713 1.321 . S
C711 H697 0.930 . S
C711 C713 1.400 . S
C711 C714 1.386 . S
C712 C708 1.429 . S
C712 N710 1.377 . S
C712 C715 1.411 . S
C713 H695 0.930 . S
C713 N710 1.321 . S
C713 C711 1.400 . S
C714 H709 0.930 . S
C714 C711 1.386 . S
C714 C715 1.395 . S
C715 C712 1.411 . S
C715 C714 1.395 . S
C715 C737 1.420 . S
O716 Eu672 2.558 . S
O716 C736 1.257 . S
O717 Eu672 2.612 . S
O717 Eu683 2.380 . S
O717 C728 1.276 . S
O718 Eu683 2.432 . S
O718 C735 1.264 . S
O719 Eu672 2.339 . S
O719 C735 1.254 . S
O720 Eu672 2.563 . S
O720 C728 1.235 . S
O721 Eu672 2.419 . S
O721 C736 1.249 . S
O722 Eu683 2.558 . S
O722 C747 1.257 . S
O723 Eu672 2.380 . S
O723 Eu683 2.612 . S
O723 C739 1.276 . S
O724 Eu672 2.432 . S
O724 C746 1.264 . S
O725 Eu683 2.339 . S
O725 C746 1.254 . S
O726 Eu683 2.563 . S
O726 C739 1.235 . S
O727 Eu683 2.419 . S
O727 C747 1.249 . S
C728 O717 1.276 . S
C728 O720 1.235 . S
C729 C731 1.393 . S
C729 C733 1.395 . S
C729 C736 1.492 . S
C730 C731 1.392 . S
C730 C732 1.386 . S
C731 C729 1.393 . S
C731 C730 1.392 . S
C731 H748 0.930 . S
C732 C730 1.386 . S
C732 C734 1.395 . S
C732 H749 0.930 . S
C733 C729 1.395 . S
C733 C734 1.379 . S
C733 H750 0.930 . S
C734 C732 1.395 . S
C734 C733 1.379 . S
C734 H751 0.930 . S
C735 O718 1.264 . S
C735 O719 1.254 . S
C736 Eu672 2.848 . S
C736 O716 1.257 . S
C736 O721 1.249 . S
C736 C729 1.492 . S
C737 H702 0.931 . S
C737 C715 1.420 . S
C737 C738 1.351 . S
C738 H700 0.930 . S
C738 C706 1.423 . S
C738 C737 1.351 . S
C739 O723 1.276 . S
C739 O726 1.235 . S
C740 C741 1.393 . S
C740 C744 1.395 . S
C740 C747 1.492 . S
C741 C740 1.393 . S
C741 C742 1.392 . S
C741 H752 0.930 . S
C742 C741 1.392 . S
C742 C743 1.386 . S
C743 C742 1.386 . S
C743 C745 1.395 . S
C743 H753 0.930 . S
C744 C740 1.395 . S
C744 C745 1.379 . S
C744 H754 0.930 . S
C745 C743 1.395 . S
C745 C744 1.379 . S
C745 H755 0.930 . S
C746 O724 1.264 . S
C746 O725 1.254 . S
C747 Eu683 2.848 . S
C747 O722 1.257 . S
C747 O727 1.249 . S
C747 C740 1.492 . S
H748 C731 0.930 . S
H749 C732 0.930 . S
H750 C733 0.930 . S
H751 C734 0.930 . S
H752 C741 0.930 . S
H753 C743 0.930 . S
H754 C744 0.930 . S
H755 C745 0.930 . S
Eu756 N787 2.657 . S
Eu756 N794 2.609 . S
Eu756 O800 2.558 . S
Eu756 O801 2.612 . S
Eu756 O803 2.339 . S
Eu756 O804 2.563 . S
Eu756 O805 2.419 . S
Eu756 O807 2.380 . S
Eu756 O808 2.432 . S
Eu756 C820 2.848 . S
C757 C760 1.429 1_565 S
C757 C761 1.411 . S
C757 N764 1.377 1_455 S
C758 C760 1.420 . S
C758 C762 1.423 1_545 S
C758 C770 1.392 . S
C759 C761 1.420 . S
C759 C762 1.351 . S
C759 H782 0.931 . S
C760 C757 1.429 1_545 S
C760 C758 1.420 . S
C760 N768 1.362 . S
C761 C757 1.411 . S
C761 C759 1.420 . S
C761 C766 1.395 . S
C762 C758 1.423 1_565 S
C762 C759 1.351 . S
C762 H774 0.930 . S
C763 C765 1.390 1_455 S
C763 C766 1.404 . S
C763 H775 0.922 1_455 S
N764 C757 1.377 1_655 S
N764 C765 1.322 . S
N764 Eu767 2.608 1_565 S
C765 C763 1.390 1_655 S
C765 N764 1.322 . S
C765 H772 0.930 . S
C766 C761 1.395 . S
C766 C763 1.404 . S
C766 H785 0.930 . S
Eu767 N764 2.608 1_545 S
Eu767 N768 2.657 1_655 S
Eu767 O801 2.380 . S
Eu767 O802 2.432 . S
Eu767 O806 2.558 . S
Eu767 O807 2.612 . S
Eu767 O809 2.339 . S
Eu767 O810 2.563 . S
Eu767 O811 2.419 1_655 S
Eu767 C831 2.848 1_655 S
N768 C760 1.362 . S
N768 Eu767 2.657 1_455 S
N768 C769 1.334 . S
C769 N768 1.334 . S
C769 C771 1.413 . S
C769 H776 0.929 . S
C770 C758 1.392 . S
C770 C771 1.367 . S
C770 H778 0.930 . S
C771 C769 1.413 . S
C771 C770 1.367 . S
C771 H773 0.930 . S
H772 C765 0.930 . S
H773 C771 0.930 . S
H774 C762 0.930 . S
H775 C763 0.922 1_655 S
H776 C769 0.929 . S
H777 C791 0.930 . S
H778 C770 0.930 . S
H779 C797 0.930 . S
H780 C788 0.929 . S
H781 C795 0.930 . S
H782 C759 0.931 . S
H783 C789 0.930 . S
H784 C822 0.930 . S
H785 C766 0.930 . S
H786 C821 0.931 . S
N787 Eu756 2.657 . S
N787 C788 1.334 . S
N787 C792 1.362 . S
C788 H780 0.929 . S
C788 N787 1.334 . S
C788 C791 1.413 . S
C789 H783 0.930 . S
C789 C790 1.392 . S
C789 C791 1.367 . S
C790 C789 1.392 . S
C790 C792 1.420 . S
C790 C822 1.423 . S
C791 H777 0.930 . S
C791 C788 1.413 . S
C791 C789 1.367 . S
C792 N787 1.362 . S
C792 C790 1.420 . S
C792 C796 1.429 . S
H793 C798 0.930 . S
N794 Eu756 2.609 . S
N794 C796 1.377 . S
N794 C797 1.321 . S
C795 H781 0.930 . S
C795 C797 1.400 . S
C795 C798 1.386 . S
C796 C792 1.429 . S
C796 N794 1.377 . S
C796 C799 1.411 . S
C797 H779 0.930 . S
C797 N794 1.321 . S
C797 C795 1.400 . S
C798 H793 0.930 . S
C798 C795 1.386 . S
C798 C799 1.395 . S
C799 C796 1.411 . S
C799 C798 1.395 . S
C799 C821 1.420 . S
O800 Eu756 2.558 . S
O800 C820 1.257 . S
O801 Eu756 2.612 . S
O801 Eu767 2.380 . S
O801 C812 1.276 . S
O802 Eu767 2.432 . S
O802 C819 1.264 . S
O803 Eu756 2.339 . S
O803 C819 1.254 . S
O804 Eu756 2.563 . S
O804 C812 1.235 . S
O805 Eu756 2.419 . S
O805 C820 1.249 . S
O806 Eu767 2.558 . S
O806 C831 1.257 1_655 S
O807 Eu756 2.380 . S
O807 Eu767 2.612 . S
O807 C823 1.276 . S
O808 Eu756 2.432 . S
O808 C830 1.264 . S
O809 Eu767 2.339 . S
O809 C830 1.254 . S
O810 Eu767 2.563 . S
O810 C823 1.235 . S
O811 Eu767 2.419 1_455 S
O811 C831 1.249 . S
C812 O801 1.276 . S
C812 O804 1.235 . S
C813 C815 1.393 . S
C813 C817 1.395 . S
C813 C820 1.492 . S
C814 C815 1.392 . S
C814 C816 1.386 . S
C815 C813 1.393 . S
C815 C814 1.392 . S
C815 H832 0.930 . S
C816 C814 1.386 . S
C816 C818 1.395 . S
C816 H833 0.930 . S
C817 C813 1.395 . S
C817 C818 1.379 . S
C817 H834 0.930 . S
C818 C816 1.395 . S
C818 C817 1.379 . S
C818 H835 0.930 . S
C819 O802 1.264 . S
C819 O803 1.254 . S
C820 Eu756 2.848 . S
C820 O800 1.257 . S
C820 O805 1.249 . S
C820 C813 1.492 . S
C821 H786 0.931 . S
C821 C799 1.420 . S
C821 C822 1.351 . S
C822 H784 0.930 . S
C822 C790 1.423 . S
C822 C821 1.351 . S
C823 O807 1.276 . S
C823 O810 1.235 . S
C824 C825 1.393 . S
C824 C828 1.395 . S
C824 C831 1.492 . S
C825 C824 1.393 . S
C825 C826 1.392 . S
C825 H836 0.930 . S
C826 C825 1.392 . S
C826 C827 1.386 . S
C827 C826 1.386 . S
C827 C829 1.395 . S
C827 H837 0.930 . S
C828 C824 1.395 . S
C828 C829 1.379 . S
C828 H838 0.930 . S
C829 C827 1.395 . S
C829 C828 1.379 . S
C829 H839 0.930 . S
C830 O808 1.264 . S
C830 O809 1.254 . S
C831 Eu767 2.848 1_455 S
C831 O806 1.257 1_455 S
C831 O811 1.249 . S
C831 C824 1.492 . S
H832 C815 0.930 . S
H833 C816 0.930 . S
H834 C817 0.930 . S
H835 C818 0.930 . S
H836 C825 0.930 . S
H837 C827 0.930 . S
H838 C828 0.930 . S
H839 C829 0.930 . S
Eu840 N871 2.657 . S
Eu840 N878 2.609 . S
Eu840 O884 2.558 . S
Eu840 O885 2.612 . S
Eu840 O887 2.339 . S
Eu840 O888 2.563 . S
Eu840 O889 2.419 . S
Eu840 O891 2.380 . S
Eu840 O892 2.432 . S
Eu840 C904 2.848 . S
C841 C844 1.429 . S
C841 C845 1.411 . S
C841 N848 1.377 . S
C842 C844 1.420 . S
C842 C846 1.423 . S
C842 C854 1.392 . S
C843 C845 1.420 . S
C843 C846 1.351 . S
C843 H866 0.931 . S
C844 C841 1.429 . S
C844 C842 1.420 . S
C844 N852 1.362 . S
C845 C841 1.411 . S
C845 C843 1.420 . S
C845 C850 1.395 . S
C846 C842 1.423 . S
C846 C843 1.351 . S
C846 H858 0.930 . S
C847 C849 1.400 . S
C847 C850 1.386 . S
C847 H859 0.930 . S
N848 C841 1.377 . S
N848 C849 1.321 . S
N848 Eu851 2.609 . S
C849 C847 1.400 . S
C849 N848 1.321 . S
C849 H856 0.930 . S
C850 C845 1.395 . S
C850 C847 1.386 . S
C850 H869 0.930 . S
Eu851 N848 2.609 . S
Eu851 N852 2.657 . S
Eu851 O885 2.380 . S
Eu851 O886 2.432 . S
Eu851 O890 2.558 . S
Eu851 O891 2.612 . S
Eu851 O893 2.339 . S
Eu851 O894 2.563 . S
Eu851 O895 2.419 . S
Eu851 C915 2.848 . S
N852 C844 1.362 . S
N852 Eu851 2.657 . S
N852 C853 1.334 . S
C853 N852 1.334 . S
C853 C855 1.413 . S
C853 H860 0.929 . S
C854 C842 1.392 . S
C854 C855 1.367 . S
C854 H862 0.930 . S
C855 C853 1.413 . S
C855 C854 1.367 . S
C855 H857 0.930 . S
H856 C849 0.930 . S
H857 C855 0.930 . S
H858 C846 0.930 . S
H859 C847 0.930 . S
H860 C853 0.929 . S
H861 C875 0.930 . S
H862 C854 0.930 . S
H863 C881 0.930 . S
H864 C872 0.929 . S
H865 C879 0.930 . S
H866 C843 0.931 . S
H867 C873 0.930 . S
H868 C906 0.930 . S
H869 C850 0.930 . S
H870 C905 0.931 . S
N871 Eu840 2.657 . S
N871 C872 1.334 . S
N871 C876 1.362 . S
C872 H864 0.929 . S
C872 N871 1.334 . S
C872 C875 1.413 . S
C873 H867 0.930 . S
C873 C874 1.392 . S
C873 C875 1.367 . S
C874 C873 1.392 . S
C874 C876 1.420 . S
C874 C906 1.423 . S
C875 H861 0.930 . S
C875 C872 1.413 . S
C875 C873 1.367 . S
C876 N871 1.362 . S
C876 C874 1.420 . S
C876 C880 1.429 . S
H877 C882 0.930 . S
N878 Eu840 2.609 . S
N878 C880 1.377 . S
N878 C881 1.321 . S
C879 H865 0.930 . S
C879 C881 1.400 . S
C879 C882 1.386 . S
C880 C876 1.429 . S
C880 N878 1.377 . S
C880 C883 1.411 . S
C881 H863 0.930 . S
C881 N878 1.321 . S
C881 C879 1.400 . S
C882 H877 0.930 . S
C882 C879 1.386 . S
C882 C883 1.395 . S
C883 C880 1.411 . S
C883 C882 1.395 . S
C883 C905 1.420 . S
O884 Eu840 2.558 . S
O884 C904 1.257 . S
O885 Eu840 2.612 . S
O885 Eu851 2.380 . S
O885 C896 1.276 . S
O886 Eu851 2.432 . S
O886 C903 1.264 . S
O887 Eu840 2.339 . S
O887 C903 1.254 . S
O888 Eu840 2.563 . S
O888 C896 1.235 . S
O889 Eu840 2.419 . S
O889 C904 1.249 . S
O890 Eu851 2.558 . S
O890 C915 1.257 . S
O891 Eu840 2.380 . S
O891 Eu851 2.612 . S
O891 C907 1.276 . S
O892 Eu840 2.432 . S
O892 C914 1.264 . S
O893 Eu851 2.339 . S
O893 C914 1.254 . S
O894 Eu851 2.563 . S
O894 C907 1.235 . S
O895 Eu851 2.419 . S
O895 C915 1.249 . S
C896 O885 1.276 . S
C896 O888 1.235 . S
C897 C899 1.393 . S
C897 C901 1.395 . S
C897 C904 1.492 . S
C898 C899 1.392 . S
C898 C900 1.386 . S
C899 C897 1.393 . S
C899 C898 1.392 . S
C899 H916 0.930 . S
C900 C898 1.386 . S
C900 C902 1.395 . S
C900 H917 0.930 . S
C901 C897 1.395 . S
C901 C902 1.379 . S
C901 H918 0.930 . S
C902 C900 1.395 . S
C902 C901 1.379 . S
C902 H919 0.930 . S
C903 O886 1.264 . S
C903 O887 1.254 . S
C904 Eu840 2.848 . S
C904 O884 1.257 . S
C904 O889 1.249 . S
C904 C897 1.492 . S
C905 H870 0.931 . S
C905 C883 1.420 . S
C905 C906 1.351 . S
C906 H868 0.930 . S
C906 C874 1.423 . S
C906 C905 1.351 . S
C907 O891 1.276 . S
C907 O894 1.235 . S
C908 C909 1.393 . S
C908 C912 1.395 . S
C908 C915 1.492 . S
C909 C908 1.393 . S
C909 C910 1.392 . S
C909 H920 0.930 . S
C910 C909 1.392 . S
C910 C911 1.386 . S
C911 C910 1.386 . S
C911 C913 1.395 . S
C911 H921 0.930 . S
C912 C908 1.395 . S
C912 C913 1.379 . S
C912 H922 0.930 . S
C913 C911 1.395 . S
C913 C912 1.379 . S
C913 H923 0.930 . S
C914 O892 1.264 . S
C914 O893 1.254 . S
C915 Eu851 2.848 . S
C915 O890 1.257 . S
C915 O895 1.249 . S
C915 C908 1.492 . S
H916 C899 0.930 . S
H917 C900 0.930 . S
H918 C901 0.930 . S
H919 C902 0.930 . S
H920 C909 0.930 . S
H921 C911 0.930 . S
H922 C912 0.930 . S
H923 C913 0.930 . S
Eu924 N955 2.657 . S
Eu924 N962 2.609 . S
Eu924 O968 2.558 . S
Eu924 O969 2.612 . S
Eu924 O971 2.339 . S
Eu924 O972 2.563 . S
Eu924 O973 2.419 . S
Eu924 O975 2.380 . S
Eu924 O976 2.432 . S
Eu924 C988 2.848 . S
C925 C928 1.429 1_545 S
C925 C929 1.411 . S
C925 N932 1.377 . S
C926 C928 1.420 . S
C926 C930 1.423 1_565 S
C926 C938 1.392 . S
C927 C929 1.420 . S
C927 C930 1.351 . S
C927 H950 0.931 . S
C928 C925 1.429 1_565 S
C928 C926 1.420 . S
C928 N936 1.362 . S
C929 C925 1.411 . S
C929 C927 1.420 . S
C929 C934 1.395 . S
C930 C926 1.423 1_545 S
C930 C927 1.351 . S
C930 H942 0.930 . S
C931 C933 1.400 . S
C931 C934 1.386 . S
C931 H943 0.930 . S
N932 C925 1.377 . S
N932 C933 1.322 . S
N932 Eu935 2.608 1_545 S
C933 C931 1.400 . S
C933 N932 1.322 . S
C933 H940 0.930 . S
C934 C929 1.395 . S
C934 C931 1.386 . S
C934 H953 0.930 . S
Eu935 N932 2.608 1_565 S
Eu935 N936 2.657 . S
Eu935 O969 2.380 . S
Eu935 O970 2.432 . S
Eu935 O974 2.558 . S
Eu935 O975 2.612 . S
Eu935 O977 2.339 . S
Eu935 O978 2.563 . S
Eu935 O979 2.419 . S
Eu935 C999 2.848 . S
N936 C928 1.362 . S
N936 Eu935 2.657 . S
N936 C937 1.334 . S
C937 N936 1.334 . S
C937 C939 1.413 . S
C937 H944 0.929 . S
C938 C926 1.392 . S
C938 C939 1.367 . S
C938 H946 0.930 . S
C939 C937 1.413 . S
C939 C938 1.367 . S
C939 H941 0.930 . S
H940 C933 0.930 . S
H941 C939 0.930 . S
H942 C930 0.930 . S
H943 C931 0.930 . S
H944 C937 0.929 . S
H945 C959 0.930 . S
H946 C938 0.930 . S
H947 C965 0.930 . S
H948 C956 0.929 . S
H949 C963 0.930 . S
H950 C927 0.931 . S
H951 C957 0.930 . S
H952 C990 0.930 . S
H953 C934 0.930 . S
H954 C989 0.931 . S
N955 Eu924 2.657 . S
N955 C956 1.334 . S
N955 C960 1.362 . S
C956 H948 0.929 . S
C956 N955 1.334 . S
C956 C959 1.413 . S
C957 H951 0.930 . S
C957 C958 1.392 . S
C957 C959 1.367 . S
C958 C957 1.392 . S
C958 C960 1.420 . S
C958 C990 1.423 . S
C959 H945 0.930 . S
C959 C956 1.413 . S
C959 C957 1.367 . S
C960 N955 1.362 . S
C960 C958 1.420 . S
C960 C964 1.429 . S
H961 C966 0.930 . S
N962 Eu924 2.609 . S
N962 C964 1.377 . S
N962 C965 1.321 . S
C963 H949 0.930 . S
C963 C965 1.400 . S
C963 C966 1.386 . S
C964 C960 1.429 . S
C964 N962 1.377 . S
C964 C967 1.411 . S
C965 H947 0.930 . S
C965 N962 1.321 . S
C965 C963 1.400 . S
C966 H961 0.930 . S
C966 C963 1.386 . S
C966 C967 1.395 . S
C967 C964 1.411 . S
C967 C966 1.395 . S
C967 C989 1.420 . S
O968 Eu924 2.558 . S
O968 C988 1.257 . S
O969 Eu924 2.612 . S
O969 Eu935 2.380 . S
O969 C980 1.276 . S
O970 Eu935 2.432 . S
O970 C987 1.264 . S
O971 Eu924 2.339 . S
O971 C987 1.254 . S
O972 Eu924 2.563 . S
O972 C980 1.235 . S
O973 Eu924 2.419 . S
O973 C988 1.249 . S
O974 Eu935 2.558 . S
O974 C999 1.257 . S
O975 Eu924 2.380 . S
O975 Eu935 2.612 . S
O975 C991 1.276 . S
O976 Eu924 2.432 . S
O976 C998 1.264 . S
O977 Eu935 2.339 . S
O977 C998 1.254 . S
O978 Eu935 2.563 . S
O978 C991 1.235 . S
O979 Eu935 2.419 . S
O979 C999 1.249 . S
C980 O969 1.276 . S
C980 O972 1.235 . S
C981 C983 1.393 . S
C981 C985 1.395 . S
C981 C988 1.492 . S
C982 C983 1.392 . S
C982 C984 1.386 . S
C983 C981 1.393 . S
C983 C982 1.392 . S
C983 H1000 0.930 . S
C984 C982 1.386 . S
C984 C986 1.395 . S
C984 H1001 0.930 . S
C985 C981 1.395 . S
C985 C986 1.379 . S
C985 H1002 0.930 . S
C986 C984 1.395 . S
C986 C985 1.379 . S
C986 H1003 0.930 . S
C987 O970 1.264 . S
C987 O971 1.254 . S
C988 Eu924 2.848 . S
C988 O968 1.257 . S
C988 O973 1.249 . S
C988 C981 1.492 . S
C989 H954 0.931 . S
C989 C967 1.420 . S
C989 C990 1.351 . S
C990 H952 0.930 . S
C990 C958 1.423 . S
C990 C989 1.351 . S
C991 O975 1.276 . S
C991 O978 1.235 . S
C992 C993 1.393 . S
C992 C996 1.395 . S
C992 C999 1.492 . S
C993 C992 1.393 . S
C993 C994 1.392 . S
C993 H1004 0.930 . S
C994 C993 1.392 . S
C994 C995 1.386 . S
C995 C994 1.386 . S
C995 C997 1.395 . S
C995 H1005 0.930 . S
C996 C992 1.395 . S
C996 C997 1.379 . S
C996 H1006 0.930 . S
C997 C995 1.395 . S
C997 C996 1.379 . S
C997 H1007 0.930 . S
C998 O976 1.264 . S
C998 O977 1.254 . S
C999 Eu935 2.848 . S
C999 O974 1.257 . S
C999 O979 1.249 . S
C999 C992 1.492 . S
H1000 C983 0.930 . S
H1001 C984 0.930 . S
H1002 C985 0.930 . S
H1003 C986 0.930 . S
H1004 C993 0.930 . S
H1005 C995 0.930 . S
H1006 C996 0.930 . S
H1007 C997 0.930 . S
Eu1008 N1039 2.657 . S
Eu1008 N1046 2.609 . S
Eu1008 O1052 2.558 . S
Eu1008 O1053 2.612 . S
Eu1008 O1055 2.339 . S
Eu1008 O1056 2.563 . S
Eu1008 O1057 2.419 . S
Eu1008 O1059 2.380 . S
Eu1008 O1060 2.432 . S
Eu1008 C1072 2.848 . S
C1009 C1012 1.429 . S
C1009 C1013 1.411 . S
C1009 N1016 1.377 . S
C1010 C1012 1.420 . S
C1010 C1014 1.423 . S
C1010 C1022 1.392 . S
C1011 C1013 1.420 . S
C1011 C1014 1.351 . S
C1011 H1034 0.931 . S
C1012 C1009 1.429 . S
C1012 C1010 1.420 . S
C1012 N1020 1.362 . S
C1013 C1009 1.411 . S
C1013 C1011 1.420 . S
C1013 C1018 1.395 . S
C1014 C1010 1.423 . S
C1014 C1011 1.351 . S
C1014 H1026 0.930 . S
C1015 C1017 1.400 . S
C1015 C1018 1.386 . S
C1015 H1027 0.930 . S
N1016 C1009 1.377 . S
N1016 C1017 1.321 . S
N1016 Eu1019 2.609 . S
C1017 C1015 1.400 . S
C1017 N1016 1.321 . S
C1017 H1024 0.930 . S
C1018 C1013 1.395 . S
C1018 C1015 1.386 . S
C1018 H1037 0.930 . S
Eu1019 N1016 2.609 . S
Eu1019 N1020 2.657 . S
Eu1019 O1053 2.380 . S
Eu1019 O1054 2.432 . S
Eu1019 O1058 2.558 . S
Eu1019 O1059 2.612 . S
Eu1019 O1061 2.339 . S
Eu1019 O1062 2.563 . S
Eu1019 O1063 2.419 . S
Eu1019 C1083 2.848 . S
N1020 C1012 1.362 . S
N1020 Eu1019 2.657 . S
N1020 C1021 1.334 . S
C1021 N1020 1.334 . S
C1021 C1023 1.413 . S
C1021 H1028 0.929 . S
C1022 C1010 1.392 . S
C1022 C1023 1.367 . S
C1022 H1030 0.930 . S
C1023 C1021 1.413 . S
C1023 C1022 1.367 . S
C1023 H1025 0.930 . S
H1024 C1017 0.930 . S
H1025 C1023 0.930 . S
H1026 C1014 0.930 . S
H1027 C1015 0.930 . S
H1028 C1021 0.929 . S
H1029 C1043 0.930 . S
H1030 C1022 0.930 . S
H1031 C1049 0.930 . S
H1032 C1040 0.929 . S
H1033 C1047 0.930 . S
H1034 C1011 0.931 . S
H1035 C1041 0.930 . S
H1036 C1074 0.930 . S
H1037 C1018 0.930 . S
H1038 C1073 0.931 . S
N1039 Eu1008 2.657 . S
N1039 C1040 1.334 . S
N1039 C1044 1.362 . S
C1040 H1032 0.929 . S
C1040 N1039 1.334 . S
C1040 C1043 1.413 . S
C1041 H1035 0.930 . S
C1041 C1042 1.392 . S
C1041 C1043 1.367 . S
C1042 C1041 1.392 . S
C1042 C1044 1.420 . S
C1042 C1074 1.423 . S
C1043 H1029 0.930 . S
C1043 C1040 1.413 . S
C1043 C1041 1.367 . S
C1044 N1039 1.362 . S
C1044 C1042 1.420 . S
C1044 C1048 1.429 . S
H1045 C1050 0.930 . S
N1046 Eu1008 2.609 . S
N1046 C1048 1.377 . S
N1046 C1049 1.321 . S
C1047 H1033 0.930 . S
C1047 C1049 1.400 . S
C1047 C1050 1.386 . S
C1048 C1044 1.429 . S
C1048 N1046 1.377 . S
C1048 C1051 1.411 . S
C1049 H1031 0.930 . S
C1049 N1046 1.321 . S
C1049 C1047 1.400 . S
C1050 H1045 0.930 . S
C1050 C1047 1.386 . S
C1050 C1051 1.395 . S
C1051 C1048 1.411 . S
C1051 C1050 1.395 . S
C1051 C1073 1.420 . S
O1052 Eu1008 2.558 . S
O1052 C1072 1.257 . S
O1053 Eu1008 2.612 . S
O1053 Eu1019 2.380 . S
O1053 C1064 1.276 . S
O1054 Eu1019 2.432 . S
O1054 C1071 1.264 . S
O1055 Eu1008 2.339 . S
O1055 C1071 1.254 . S
O1056 Eu1008 2.563 . S
O1056 C1064 1.235 . S
O1057 Eu1008 2.419 . S
O1057 C1072 1.249 . S
O1058 Eu1019 2.558 . S
O1058 C1083 1.257 . S
O1059 Eu1008 2.380 . S
O1059 Eu1019 2.612 . S
O1059 C1075 1.276 . S
O1060 Eu1008 2.432 . S
O1060 C1082 1.264 . S
O1061 Eu1019 2.339 . S
O1061 C1082 1.254 . S
O1062 Eu1019 2.563 . S
O1062 C1075 1.235 . S
O1063 Eu1019 2.419 . S
O1063 C1083 1.249 . S
C1064 O1053 1.276 . S
C1064 O1056 1.235 . S
C1065 C1067 1.393 . S
C1065 C1069 1.395 . S
C1065 C1072 1.492 . S
C1066 C1067 1.392 . S
C1066 C1068 1.386 . S
C1067 C1065 1.393 . S
C1067 C1066 1.392 . S
C1067 H1084 0.930 . S
C1068 C1066 1.386 . S
C1068 C1070 1.395 . S
C1068 H1085 0.930 . S
C1069 C1065 1.395 . S
C1069 C1070 1.379 . S
C1069 H1086 0.930 . S
C1070 C1068 1.395 . S
C1070 C1069 1.379 . S
C1070 H1087 0.930 . S
C1071 O1054 1.264 . S
C1071 O1055 1.254 . S
C1072 Eu1008 2.848 . S
C1072 O1052 1.257 . S
C1072 O1057 1.249 . S
C1072 C1065 1.492 . S
C1073 H1038 0.931 . S
C1073 C1051 1.420 . S
C1073 C1074 1.351 . S
C1074 H1036 0.930 . S
C1074 C1042 1.423 . S
C1074 C1073 1.351 . S
C1075 O1059 1.276 . S
C1075 O1062 1.235 . S
C1076 C1077 1.393 . S
C1076 C1080 1.395 . S
C1076 C1083 1.492 . S
C1077 C1076 1.393 . S
C1077 C1078 1.392 . S
C1077 H1088 0.930 . S
C1078 C1077 1.392 . S
C1078 C1079 1.386 . S
C1079 C1078 1.386 . S
C1079 C1081 1.395 . S
C1079 H1089 0.930 . S
C1080 C1076 1.395 . S
C1080 C1081 1.379 . S
C1080 H1090 0.930 . S
C1081 C1079 1.395 . S
C1081 C1080 1.379 . S
C1081 H1091 0.930 . S
C1082 O1060 1.264 . S
C1082 O1061 1.254 . S
C1083 Eu1019 2.848 . S
C1083 O1058 1.257 . S
C1083 O1063 1.249 . S
C1083 C1076 1.492 . S
H1084 C1067 0.930 . S
H1085 C1068 0.930 . S
H1086 C1069 0.930 . S
H1087 C1070 0.930 . S
H1088 C1077 0.930 . S
H1089 C1079 0.930 . S
H1090 C1080 0.930 . S
H1091 C1081 0.930 . S
Eu1092 N1123 2.657 . S
Eu1092 N1130 2.609 . S
Eu1092 O1136 2.558 . S
Eu1092 O1137 2.612 . S
Eu1092 O1139 2.339 . S
Eu1092 O1140 2.563 . S
Eu1092 O1141 2.419 . S
Eu1092 O1143 2.380 . S
Eu1092 O1144 2.432 . S
Eu1092 C1156 2.848 . S
C1093 C1096 1.429 1_565 S
C1093 C1097 1.411 . S
C1093 N1100 1.377 . S
C1094 C1096 1.420 . S
C1094 C1098 1.423 1_545 S
C1094 C1106 1.392 . S
C1095 C1097 1.420 . S
C1095 C1098 1.351 . S
C1095 H1118 0.931 . S
C1096 C1093 1.429 1_545 S
C1096 C1094 1.420 . S
C1096 N1104 1.362 . S
C1097 C1093 1.411 . S
C1097 C1095 1.420 . S
C1097 C1102 1.395 . S
C1098 C1094 1.423 1_565 S
C1098 C1095 1.351 . S
C1098 H1110 0.930 . S
C1099 C1101 1.400 . S
C1099 C1102 1.386 . S
C1099 H1111 0.930 . S
N1100 C1093 1.377 . S
N1100 C1101 1.322 . S
N1100 Eu1103 2.608 1_565 S
C1101 C1099 1.400 . S
C1101 N1100 1.322 . S
C1101 H1108 0.930 . S
C1102 C1097 1.395 . S
C1102 C1099 1.386 . S
C1102 H1121 0.930 . S
Eu1103 N1100 2.608 1_545 S
Eu1103 N1104 2.657 . S
Eu1103 O1137 2.380 . S
Eu1103 O1138 2.432 . S
Eu1103 O1142 2.558 . S
Eu1103 O1143 2.612 . S
Eu1103 O1145 2.339 . S
Eu1103 O1146 2.563 . S
Eu1103 O1147 2.419 . S
Eu1103 C1167 2.848 . S
N1104 C1096 1.362 . S
N1104 Eu1103 2.657 . S
N1104 C1105 1.334 . S
C1105 N1104 1.334 . S
C1105 C1107 1.413 . S
C1105 H1112 0.929 . S
C1106 C1094 1.392 . S
C1106 C1107 1.367 . S
C1106 H1114 0.930 . S
C1107 C1105 1.413 . S
C1107 C1106 1.367 . S
C1107 H1109 0.930 . S
H1108 C1101 0.930 . S
H1109 C1107 0.930 . S
H1110 C1098 0.930 . S
H1111 C1099 0.930 . S
H1112 C1105 0.929 . S
H1113 C1127 0.930 . S
H1114 C1106 0.930 . S
H1115 C1133 0.930 . S
H1116 C1124 0.929 . S
H1117 C1131 0.930 . S
H1118 C1095 0.931 . S
H1119 C1125 0.930 . S
H1120 C1158 0.930 . S
H1121 C1102 0.930 . S
H1122 C1157 0.931 . S
N1123 Eu1092 2.657 . S
N1123 C1124 1.334 . S
N1123 C1128 1.362 . S
C1124 H1116 0.929 . S
C1124 N1123 1.334 . S
C1124 C1127 1.413 . S
C1125 H1119 0.930 . S
C1125 C1126 1.392 . S
C1125 C1127 1.367 . S
C1126 C1125 1.392 . S
C1126 C1128 1.420 . S
C1126 C1158 1.423 . S
C1127 H1113 0.930 . S
C1127 C1124 1.413 . S
C1127 C1125 1.367 . S
C1128 N1123 1.362 . S
C1128 C1126 1.420 . S
C1128 C1132 1.429 . S
H1129 C1134 0.930 . S
N1130 Eu1092 2.609 . S
N1130 C1132 1.377 . S
N1130 C1133 1.321 . S
C1131 H1117 0.930 . S
C1131 C1133 1.400 . S
C1131 C1134 1.386 . S
C1132 C1128 1.429 . S
C1132 N1130 1.377 . S
C1132 C1135 1.411 . S
C1133 H1115 0.930 . S
C1133 N1130 1.321 . S
C1133 C1131 1.400 . S
C1134 H1129 0.930 . S
C1134 C1131 1.386 . S
C1134 C1135 1.395 . S
C1135 C1132 1.411 . S
C1135 C1134 1.395 . S
C1135 C1157 1.420 . S
O1136 Eu1092 2.558 . S
O1136 C1156 1.257 . S
O1137 Eu1092 2.612 . S
O1137 Eu1103 2.380 . S
O1137 C1148 1.276 . S
O1138 Eu1103 2.432 . S
O1138 C1155 1.264 . S
O1139 Eu1092 2.339 . S
O1139 C1155 1.254 . S
O1140 Eu1092 2.563 . S
O1140 C1148 1.235 . S
O1141 Eu1092 2.419 . S
O1141 C1156 1.249 . S
O1142 Eu1103 2.558 . S
O1142 C1167 1.257 . S
O1143 Eu1092 2.380 . S
O1143 Eu1103 2.612 . S
O1143 C1159 1.276 . S
O1144 Eu1092 2.432 . S
O1144 C1166 1.264 . S
O1145 Eu1103 2.339 . S
O1145 C1166 1.254 . S
O1146 Eu1103 2.563 . S
O1146 C1159 1.235 . S
O1147 Eu1103 2.419 . S
O1147 C1167 1.249 . S
C1148 O1137 1.276 . S
C1148 O1140 1.235 . S
C1149 C1151 1.393 . S
C1149 C1153 1.395 . S
C1149 C1156 1.492 . S
C1150 C1151 1.392 . S
C1150 C1152 1.386 . S
C1151 C1149 1.393 . S
C1151 C1150 1.392 . S
C1151 H1168 0.930 . S
C1152 C1150 1.386 . S
C1152 C1154 1.395 . S
C1152 H1169 0.930 . S
C1153 C1149 1.395 . S
C1153 C1154 1.379 . S
C1153 H1170 0.930 . S
C1154 C1152 1.395 . S
C1154 C1153 1.379 . S
C1154 H1171 0.930 . S
C1155 O1138 1.264 . S
C1155 O1139 1.254 . S
C1156 Eu1092 2.848 . S
C1156 O1136 1.257 . S
C1156 O1141 1.249 . S
C1156 C1149 1.492 . S
C1157 H1122 0.931 . S
C1157 C1135 1.420 . S
C1157 C1158 1.351 . S
C1158 H1120 0.930 . S
C1158 C1126 1.423 . S
C1158 C1157 1.351 . S
C1159 O1143 1.276 . S
C1159 O1146 1.235 . S
C1160 C1161 1.393 . S
C1160 C1164 1.395 . S
C1160 C1167 1.492 . S
C1161 C1160 1.393 . S
C1161 C1162 1.392 . S
C1161 H1172 0.930 . S
C1162 C1161 1.392 . S
C1162 C1163 1.386 . S
C1163 C1162 1.386 . S
C1163 C1165 1.395 . S
C1163 H1173 0.930 . S
C1164 C1160 1.395 . S
C1164 C1165 1.379 . S
C1164 H1174 0.930 . S
C1165 C1163 1.395 . S
C1165 C1164 1.379 . S
C1165 H1175 0.930 . S
C1166 O1144 1.264 . S
C1166 O1145 1.254 . S
C1167 Eu1103 2.848 . S
C1167 O1142 1.257 . S
C1167 O1147 1.249 . S
C1167 C1160 1.492 . S
H1168 C1151 0.930 . S
H1169 C1152 0.930 . S
H1170 C1153 0.930 . S
H1171 C1154 0.930 . S
H1172 C1161 0.930 . S
H1173 C1163 0.930 . S
H1174 C1164 0.930 . S
H1175 C1165 0.930 . S
Eu1176 N1207 2.657 . S
Eu1176 N1214 2.609 . S
Eu1176 O1220 2.558 . S
Eu1176 O1221 2.612 . S
Eu1176 O1223 2.339 . S
Eu1176 O1224 2.563 . S
Eu1176 O1225 2.419 . S
Eu1176 O1227 2.380 . S
Eu1176 O1228 2.432 . S
Eu1176 C1240 2.848 . S
C1177 C1180 1.429 . S
C1177 C1181 1.411 . S
C1177 N1184 1.377 . S
C1178 C1180 1.420 . S
C1178 C1182 1.423 . S
C1178 C1190 1.392 . S
C1179 C1181 1.420 . S
C1179 C1182 1.351 . S
C1179 H1202 0.931 . S
C1180 C1177 1.429 . S
C1180 C1178 1.420 . S
C1180 N1188 1.362 . S
C1181 C1177 1.411 . S
C1181 C1179 1.420 . S
C1181 C1186 1.395 . S
C1182 C1178 1.423 . S
C1182 C1179 1.351 . S
C1182 H1194 0.930 . S
C1183 C1185 1.400 . S
C1183 C1186 1.386 . S
C1183 H1195 0.930 . S
N1184 C1177 1.377 . S
N1184 C1185 1.321 . S
N1184 Eu1187 2.609 . S
C1185 C1183 1.400 . S
C1185 N1184 1.321 . S
C1185 H1192 0.930 . S
C1186 C1181 1.395 . S
C1186 C1183 1.386 . S
C1186 H1205 0.930 . S
Eu1187 N1184 2.609 . S
Eu1187 N1188 2.657 . S
Eu1187 O1221 2.380 . S
Eu1187 O1222 2.432 . S
Eu1187 O1226 2.558 . S
Eu1187 O1227 2.612 . S
Eu1187 O1229 2.339 . S
Eu1187 O1230 2.563 . S
Eu1187 O1231 2.419 . S
Eu1187 C1251 2.848 . S
N1188 C1180 1.362 . S
N1188 Eu1187 2.657 . S
N1188 C1189 1.334 . S
C1189 N1188 1.334 . S
C1189 C1191 1.413 . S
C1189 H1196 0.929 . S
C1190 C1178 1.392 . S
C1190 C1191 1.367 . S
C1190 H1198 0.930 . S
C1191 C1189 1.413 . S
C1191 C1190 1.367 . S
C1191 H1193 0.930 . S
H1192 C1185 0.930 . S
H1193 C1191 0.930 . S
H1194 C1182 0.930 . S
H1195 C1183 0.930 . S
H1196 C1189 0.929 . S
H1197 C1211 0.930 . S
H1198 C1190 0.930 . S
H1199 C1217 0.930 . S
H1200 C1208 0.929 . S
H1201 C1215 0.930 . S
H1202 C1179 0.931 . S
H1203 C1209 0.930 . S
H1204 C1242 0.930 . S
H1205 C1186 0.930 . S
H1206 C1241 0.931 . S
N1207 Eu1176 2.657 . S
N1207 C1208 1.334 . S
N1207 C1212 1.362 . S
C1208 H1200 0.929 . S
C1208 N1207 1.334 . S
C1208 C1211 1.413 . S
C1209 H1203 0.930 . S
C1209 C1210 1.392 . S
C1209 C1211 1.367 . S
C1210 C1209 1.392 . S
C1210 C1212 1.420 . S
C1210 C1242 1.423 . S
C1211 H1197 0.930 . S
C1211 C1208 1.413 . S
C1211 C1209 1.367 . S
C1212 N1207 1.362 . S
C1212 C1210 1.420 . S
C1212 C1216 1.429 . S
H1213 C1218 0.930 . S
N1214 Eu1176 2.609 . S
N1214 C1216 1.377 . S
N1214 C1217 1.321 . S
C1215 H1201 0.930 . S
C1215 C1217 1.400 . S
C1215 C1218 1.386 . S
C1216 C1212 1.429 . S
C1216 N1214 1.377 . S
C1216 C1219 1.411 . S
C1217 H1199 0.930 . S
C1217 N1214 1.321 . S
C1217 C1215 1.400 . S
C1218 H1213 0.930 . S
C1218 C1215 1.386 . S
C1218 C1219 1.395 . S
C1219 C1216 1.411 . S
C1219 C1218 1.395 . S
C1219 C1241 1.420 . S
O1220 Eu1176 2.558 . S
O1220 C1240 1.257 . S
O1221 Eu1176 2.612 . S
O1221 Eu1187 2.380 . S
O1221 C1232 1.276 . S
O1222 Eu1187 2.432 . S
O1222 C1239 1.264 . S
O1223 Eu1176 2.339 . S
O1223 C1239 1.254 . S
O1224 Eu1176 2.563 . S
O1224 C1232 1.235 . S
O1225 Eu1176 2.419 . S
O1225 C1240 1.249 . S
O1226 Eu1187 2.558 . S
O1226 C1251 1.257 . S
O1227 Eu1176 2.380 . S
O1227 Eu1187 2.612 . S
O1227 C1243 1.276 . S
O1228 Eu1176 2.432 . S
O1228 C1250 1.264 . S
O1229 Eu1187 2.339 . S
O1229 C1250 1.254 . S
O1230 Eu1187 2.563 . S
O1230 C1243 1.235 . S
O1231 Eu1187 2.419 . S
O1231 C1251 1.249 . S
C1232 O1221 1.276 . S
C1232 O1224 1.235 . S
C1233 C1235 1.393 . S
C1233 C1237 1.395 . S
C1233 C1240 1.492 . S
C1234 C1235 1.392 . S
C1234 C1236 1.386 . S
C1235 C1233 1.393 . S
C1235 C1234 1.392 . S
C1235 H1252 0.930 . S
C1236 C1234 1.386 . S
C1236 C1238 1.395 . S
C1236 H1253 0.930 . S
C1237 C1233 1.395 . S
C1237 C1238 1.379 . S
C1237 H1254 0.930 . S
C1238 C1236 1.395 . S
C1238 C1237 1.379 . S
C1238 H1255 0.930 . S
C1239 O1222 1.264 . S
C1239 O1223 1.254 . S
C1240 Eu1176 2.848 . S
C1240 O1220 1.257 . S
C1240 O1225 1.249 . S
C1240 C1233 1.492 . S
C1241 H1206 0.931 . S
C1241 C1219 1.420 . S
C1241 C1242 1.351 . S
C1242 H1204 0.930 . S
C1242 C1210 1.423 . S
C1242 C1241 1.351 . S
C1243 O1227 1.276 . S
C1243 O1230 1.235 . S
C1244 C1245 1.393 . S
C1244 C1248 1.395 . S
C1244 C1251 1.492 . S
C1245 C1244 1.393 . S
C1245 C1246 1.392 . S
C1245 H1256 0.930 . S
C1246 C1245 1.392 . S
C1246 C1247 1.386 . S
C1247 C1246 1.386 . S
C1247 C1249 1.395 . S
C1247 H1257 0.930 . S
C1248 C1244 1.395 . S
C1248 C1249 1.379 . S
C1248 H1258 0.930 . S
C1249 C1247 1.395 . S
C1249 C1248 1.379 . S
C1249 H1259 0.930 . S
C1250 O1228 1.264 . S
C1250 O1229 1.254 . S
C1251 Eu1187 2.848 . S
C1251 O1226 1.257 . S
C1251 O1231 1.249 . S
C1251 C1244 1.492 . S
H1252 C1235 0.930 . S
H1253 C1236 0.930 . S
H1254 C1237 0.930 . S
H1255 C1238 0.930 . S
H1256 C1245 0.930 . S
H1257 C1247 0.930 . S
H1258 C1248 0.930 . S
H1259 C1249 0.930 . S
Eu1260 N1291 2.657 . S
Eu1260 N1298 2.609 . S
Eu1260 O1304 2.558 . S
Eu1260 O1305 2.612 . S
Eu1260 O1307 2.339 . S
Eu1260 O1308 2.563 . S
Eu1260 O1309 2.419 . S
Eu1260 O1311 2.380 . S
Eu1260 O1312 2.432 . S
Eu1260 C1324 2.848 . S
C1261 C1264 1.429 1_545 S
C1261 C1265 1.411 . S
C1261 N1268 1.377 1_455 S
C1262 C1264 1.420 . S
C1262 C1266 1.423 1_565 S
C1262 C1274 1.392 . S
C1263 C1265 1.420 . S
C1263 C1266 1.351 . S
C1263 H1286 0.931 . S
C1264 C1261 1.429 1_565 S
C1264 C1262 1.420 . S
C1264 N1272 1.362 . S
C1265 C1261 1.411 . S
C1265 C1263 1.420 . S
C1265 C1270 1.395 . S
C1266 C1262 1.423 1_545 S
C1266 C1263 1.351 . S
C1266 H1278 0.930 . S
C1267 C1269 1.390 1_455 S
C1267 C1270 1.404 . S
C1267 H1279 0.922 1_455 S
N1268 C1261 1.377 1_655 S
N1268 C1269 1.322 . S
N1268 Eu1271 2.608 1_545 S
C1269 C1267 1.390 1_655 S
C1269 N1268 1.322 . S
C1269 H1276 0.930 . S
C1270 C1265 1.395 . S
C1270 C1267 1.404 . S
C1270 H1289 0.930 . S
Eu1271 N1268 2.608 1_565 S
Eu1271 N1272 2.657 1_655 S
Eu1271 O1305 2.380 . S
Eu1271 O1306 2.432 . S
Eu1271 O1310 2.558 . S
Eu1271 O1311 2.612 . S
Eu1271 O1313 2.339 . S
Eu1271 O1314 2.563 . S
Eu1271 O1315 2.419 1_655 S
Eu1271 C1335 2.848 1_655 S
N1272 C1264 1.362 . S
N1272 Eu1271 2.657 1_455 S
N1272 C1273 1.334 . S
C1273 N1272 1.334 . S
C1273 C1275 1.413 . S
C1273 H1280 0.929 . S
C1274 C1262 1.392 . S
C1274 C1275 1.367 . S
C1274 H1282 0.930 . S
C1275 C1273 1.413 . S
C1275 C1274 1.367 . S
C1275 H1277 0.930 . S
H1276 C1269 0.930 . S
H1277 C1275 0.930 . S
H1278 C1266 0.930 . S
H1279 C1267 0.922 1_655 S
H1280 C1273 0.929 . S
H1281 C1295 0.930 . S
H1282 C1274 0.930 . S
H1283 C1301 0.930 . S
H1284 C1292 0.929 . S
H1285 C1299 0.930 . S
H1286 C1263 0.931 . S
H1287 C1293 0.930 . S
H1288 C1326 0.930 . S
H1289 C1270 0.930 . S
H1290 C1325 0.931 . S
N1291 Eu1260 2.657 . S
N1291 C1292 1.334 . S
N1291 C1296 1.362 . S
C1292 H1284 0.929 . S
C1292 N1291 1.334 . S
C1292 C1295 1.413 . S
C1293 H1287 0.930 . S
C1293 C1294 1.392 . S
C1293 C1295 1.367 . S
C1294 C1293 1.392 . S
C1294 C1296 1.420 . S
C1294 C1326 1.423 . S
C1295 H1281 0.930 . S
C1295 C1292 1.413 . S
C1295 C1293 1.367 . S
C1296 N1291 1.362 . S
C1296 C1294 1.420 . S
C1296 C1300 1.429 . S
H1297 C1302 0.930 . S
N1298 Eu1260 2.609 . S
N1298 C1300 1.377 . S
N1298 C1301 1.321 . S
C1299 H1285 0.930 . S
C1299 C1301 1.400 . S
C1299 C1302 1.386 . S
C1300 C1296 1.429 . S
C1300 N1298 1.377 . S
C1300 C1303 1.411 . S
C1301 H1283 0.930 . S
C1301 N1298 1.321 . S
C1301 C1299 1.400 . S
C1302 H1297 0.930 . S
C1302 C1299 1.386 . S
C1302 C1303 1.395 . S
C1303 C1300 1.411 . S
C1303 C1302 1.395 . S
C1303 C1325 1.420 . S
O1304 Eu1260 2.558 . S
O1304 C1324 1.257 . S
O1305 Eu1260 2.612 . S
O1305 Eu1271 2.380 . S
O1305 C1316 1.276 . S
O1306 Eu1271 2.432 . S
O1306 C1323 1.264 . S
O1307 Eu1260 2.339 . S
O1307 C1323 1.254 . S
O1308 Eu1260 2.563 . S
O1308 C1316 1.235 . S
O1309 Eu1260 2.419 . S
O1309 C1324 1.249 . S
O1310 Eu1271 2.558 . S
O1310 C1335 1.257 1_655 S
O1311 Eu1260 2.380 . S
O1311 Eu1271 2.612 . S
O1311 C1327 1.276 . S
O1312 Eu1260 2.432 . S
O1312 C1334 1.264 . S
O1313 Eu1271 2.339 . S
O1313 C1334 1.254 . S
O1314 Eu1271 2.563 . S
O1314 C1327 1.235 . S
O1315 Eu1271 2.419 1_455 S
O1315 C1335 1.249 . S
C1316 O1305 1.276 . S
C1316 O1308 1.235 . S
C1317 C1319 1.393 . S
C1317 C1321 1.395 . S
C1317 C1324 1.492 . S
C1318 C1319 1.392 . S
C1318 C1320 1.386 . S
C1319 C1317 1.393 . S
C1319 C1318 1.392 . S
C1319 H1336 0.930 . S
C1320 C1318 1.386 . S
C1320 C1322 1.395 . S
C1320 H1337 0.930 . S
C1321 C1317 1.395 . S
C1321 C1322 1.379 . S
C1321 H1338 0.930 . S
C1322 C1320 1.395 . S
C1322 C1321 1.379 . S
C1322 H1339 0.930 . S
C1323 O1306 1.264 . S
C1323 O1307 1.254 . S
C1324 Eu1260 2.848 . S
C1324 O1304 1.257 . S
C1324 O1309 1.249 . S
C1324 C1317 1.492 . S
C1325 H1290 0.931 . S
C1325 C1303 1.420 . S
C1325 C1326 1.351 . S
C1326 H1288 0.930 . S
C1326 C1294 1.423 . S
C1326 C1325 1.351 . S
C1327 O1311 1.276 . S
C1327 O1314 1.235 . S
C1328 C1329 1.393 . S
C1328 C1332 1.395 . S
C1328 C1335 1.492 . S
C1329 C1328 1.393 . S
C1329 C1330 1.392 . S
C1329 H1340 0.930 . S
C1330 C1329 1.392 . S
C1330 C1331 1.386 . S
C1331 C1330 1.386 . S
C1331 C1333 1.395 . S
C1331 H1341 0.930 . S
C1332 C1328 1.395 . S
C1332 C1333 1.379 . S
C1332 H1342 0.930 . S
C1333 C1331 1.395 . S
C1333 C1332 1.379 . S
C1333 H1343 0.930 . S
C1334 O1312 1.264 . S
C1334 O1313 1.254 . S
C1335 Eu1271 2.848 1_455 S
C1335 O1310 1.257 1_455 S
C1335 O1315 1.249 . S
C1335 C1328 1.492 . S
H1336 C1319 0.930 . S
H1337 C1320 0.930 . S
H1338 C1321 0.930 . S
H1339 C1322 0.930 . S
H1340 C1329 0.930 . S
H1341 C1331 0.930 . S
H1342 C1332 0.930 . S
H1343 C1333 0.930 . S
Eu1344 N1375 2.657 . S
Eu1344 N1382 2.609 . S
Eu1344 O1388 2.558 . S
Eu1344 O1389 2.612 . S
Eu1344 O1391 2.339 . S
Eu1344 O1392 2.563 . S
Eu1344 O1393 2.419 . S
Eu1344 O1395 2.380 . S
Eu1344 O1396 2.432 . S
Eu1344 C1408 2.848 . S
C1345 C1348 1.429 . S
C1345 C1349 1.411 . S
C1345 N1352 1.377 . S
C1346 C1348 1.420 . S
C1346 C1350 1.423 . S
C1346 C1358 1.392 . S
C1347 C1349 1.420 . S
C1347 C1350 1.351 . S
C1347 H1370 0.931 . S
C1348 C1345 1.429 . S
C1348 C1346 1.420 . S
C1348 N1356 1.362 . S
C1349 C1345 1.411 . S
C1349 C1347 1.420 . S
C1349 C1354 1.395 . S
C1350 C1346 1.423 . S
C1350 C1347 1.351 . S
C1350 H1362 0.930 . S
C1351 C1353 1.400 . S
C1351 C1354 1.386 . S
C1351 H1363 0.930 . S
N1352 C1345 1.377 . S
N1352 C1353 1.321 . S
N1352 Eu1355 2.609 . S
C1353 C1351 1.400 . S
C1353 N1352 1.321 . S
C1353 H1360 0.930 . S
C1354 C1349 1.395 . S
C1354 C1351 1.386 . S
C1354 H1373 0.930 . S
Eu1355 N1352 2.609 . S
Eu1355 N1356 2.657 . S
Eu1355 O1389 2.380 . S
Eu1355 O1390 2.432 . S
Eu1355 O1394 2.558 . S
Eu1355 O1395 2.612 . S
Eu1355 O1397 2.339 . S
Eu1355 O1398 2.563 . S
Eu1355 O1399 2.419 . S
Eu1355 C1419 2.848 . S
N1356 C1348 1.362 . S
N1356 Eu1355 2.657 . S
N1356 C1357 1.334 . S
C1357 N1356 1.334 . S
C1357 C1359 1.413 . S
C1357 H1364 0.929 . S
C1358 C1346 1.392 . S
C1358 C1359 1.367 . S
C1358 H1366 0.930 . S
C1359 C1357 1.413 . S
C1359 C1358 1.367 . S
C1359 H1361 0.930 . S
H1360 C1353 0.930 . S
H1361 C1359 0.930 . S
H1362 C1350 0.930 . S
H1363 C1351 0.930 . S
H1364 C1357 0.929 . S
H1365 C1379 0.930 . S
H1366 C1358 0.930 . S
H1367 C1385 0.930 . S
H1368 C1376 0.929 . S
H1369 C1383 0.930 . S
H1370 C1347 0.931 . S
H1371 C1377 0.930 . S
H1372 C1410 0.930 . S
H1373 C1354 0.930 . S
H1374 C1409 0.931 . S
N1375 Eu1344 2.657 . S
N1375 C1376 1.334 . S
N1375 C1380 1.362 . S
C1376 H1368 0.929 . S
C1376 N1375 1.334 . S
C1376 C1379 1.413 . S
C1377 H1371 0.930 . S
C1377 C1378 1.392 . S
C1377 C1379 1.367 . S
C1378 C1377 1.392 . S
C1378 C1380 1.420 . S
C1378 C1410 1.423 . S
C1379 H1365 0.930 . S
C1379 C1376 1.413 . S
C1379 C1377 1.367 . S
C1380 N1375 1.362 . S
C1380 C1378 1.420 . S
C1380 C1384 1.429 . S
H1381 C1386 0.930 . S
N1382 Eu1344 2.609 . S
N1382 C1384 1.377 . S
N1382 C1385 1.321 . S
C1383 H1369 0.930 . S
C1383 C1385 1.400 . S
C1383 C1386 1.386 . S
C1384 C1380 1.429 . S
C1384 N1382 1.377 . S
C1384 C1387 1.411 . S
C1385 H1367 0.930 . S
C1385 N1382 1.321 . S
C1385 C1383 1.400 . S
C1386 H1381 0.930 . S
C1386 C1383 1.386 . S
C1386 C1387 1.395 . S
C1387 C1384 1.411 . S
C1387 C1386 1.395 . S
C1387 C1409 1.420 . S
O1388 Eu1344 2.558 . S
O1388 C1408 1.257 . S
O1389 Eu1344 2.612 . S
O1389 Eu1355 2.380 . S
O1389 C1400 1.276 . S
O1390 Eu1355 2.432 . S
O1390 C1407 1.264 . S
O1391 Eu1344 2.339 . S
O1391 C1407 1.254 . S
O1392 Eu1344 2.563 . S
O1392 C1400 1.235 . S
O1393 Eu1344 2.419 . S
O1393 C1408 1.249 . S
O1394 Eu1355 2.558 . S
O1394 C1419 1.257 . S
O1395 Eu1344 2.380 . S
O1395 Eu1355 2.612 . S
O1395 C1411 1.276 . S
O1396 Eu1344 2.432 . S
O1396 C1418 1.264 . S
O1397 Eu1355 2.339 . S
O1397 C1418 1.254 . S
O1398 Eu1355 2.563 . S
O1398 C1411 1.235 . S
O1399 Eu1355 2.419 . S
O1399 C1419 1.249 . S
C1400 O1389 1.276 . S
C1400 O1392 1.235 . S
C1401 C1403 1.393 . S
C1401 C1405 1.395 . S
C1401 C1408 1.492 . S
C1402 C1403 1.392 . S
C1402 C1404 1.386 . S
C1403 C1401 1.393 . S
C1403 C1402 1.392 . S
C1403 H1420 0.930 . S
C1404 C1402 1.386 . S
C1404 C1406 1.395 . S
C1404 H1421 0.930 . S
C1405 C1401 1.395 . S
C1405 C1406 1.379 . S
C1405 H1422 0.930 . S
C1406 C1404 1.395 . S
C1406 C1405 1.379 . S
C1406 H1423 0.930 . S
C1407 O1390 1.264 . S
C1407 O1391 1.254 . S
C1408 Eu1344 2.848 . S
C1408 O1388 1.257 . S
C1408 O1393 1.249 . S
C1408 C1401 1.492 . S
C1409 H1374 0.931 . S
C1409 C1387 1.420 . S
C1409 C1410 1.351 . S
C1410 H1372 0.930 . S
C1410 C1378 1.423 . S
C1410 C1409 1.351 . S
C1411 O1395 1.276 . S
C1411 O1398 1.235 . S
C1412 C1413 1.393 . S
C1412 C1416 1.395 . S
C1412 C1419 1.492 . S
C1413 C1412 1.393 . S
C1413 C1414 1.392 . S
C1413 H1424 0.930 . S
C1414 C1413 1.392 . S
C1414 C1415 1.386 . S
C1415 C1414 1.386 . S
C1415 C1417 1.395 . S
C1415 H1425 0.930 . S
C1416 C1412 1.395 . S
C1416 C1417 1.379 . S
C1416 H1426 0.930 . S
C1417 C1415 1.395 . S
C1417 C1416 1.379 . S
C1417 H1427 0.930 . S
C1418 O1396 1.264 . S
C1418 O1397 1.254 . S
C1419 Eu1355 2.848 . S
C1419 O1394 1.257 . S
C1419 O1399 1.249 . S
C1419 C1412 1.492 . S
H1420 C1403 0.930 . S
H1421 C1404 0.930 . S
H1422 C1405 0.930 . S
H1423 C1406 0.930 . S
H1424 C1413 0.930 . S
H1425 C1415 0.930 . S
H1426 C1416 0.930 . S
H1427 C1417 0.930 . S
Eu1428 N1459 2.657 . S
Eu1428 N1466 2.609 . S
Eu1428 O1472 2.558 . S
Eu1428 O1473 2.612 . S
Eu1428 O1475 2.339 . S
Eu1428 O1476 2.563 . S
Eu1428 O1477 2.419 . S
Eu1428 O1479 2.380 . S
Eu1428 O1480 2.432 . S
Eu1428 C1492 2.848 . S
C1429 C1432 1.429 . S
C1429 C1433 1.411 . S
C1429 N1436 1.377 . S
C1430 C1432 1.420 . S
C1430 C1434 1.423 . S
C1430 C1442 1.392 . S
C1431 C1433 1.420 . S
C1431 C1434 1.351 . S
C1431 H1454 0.931 . S
C1432 C1429 1.429 . S
C1432 C1430 1.420 . S
C1432 N1440 1.362 . S
C1433 C1429 1.411 . S
C1433 C1431 1.420 . S
C1433 C1438 1.395 . S
C1434 C1430 1.423 . S
C1434 C1431 1.351 . S
C1434 H1446 0.930 . S
C1435 C1437 1.400 . S
C1435 C1438 1.386 . S
C1435 H1447 0.930 . S
N1436 C1429 1.377 . S
N1436 C1437 1.321 . S
N1436 Eu1439 2.609 . S
C1437 C1435 1.400 . S
C1437 N1436 1.321 . S
C1437 H1444 0.930 . S
C1438 C1433 1.395 . S
C1438 C1435 1.386 . S
C1438 H1457 0.930 . S
Eu1439 N1436 2.609 . S
Eu1439 N1440 2.657 . S
Eu1439 O1473 2.380 . S
Eu1439 O1474 2.432 . S
Eu1439 O1478 2.558 . S
Eu1439 O1479 2.612 . S
Eu1439 O1481 2.339 . S
Eu1439 O1482 2.563 . S
Eu1439 O1483 2.419 . S
Eu1439 C1503 2.848 . S
N1440 C1432 1.362 . S
N1440 Eu1439 2.657 . S
N1440 C1441 1.334 . S
C1441 N1440 1.334 . S
C1441 C1443 1.413 . S
C1441 H1448 0.929 . S
C1442 C1430 1.392 . S
C1442 C1443 1.367 . S
C1442 H1450 0.930 . S
C1443 C1441 1.413 . S
C1443 C1442 1.367 . S
C1443 H1445 0.930 . S
H1444 C1437 0.930 . S
H1445 C1443 0.930 . S
H1446 C1434 0.930 . S
H1447 C1435 0.930 . S
H1448 C1441 0.929 . S
H1449 C1463 0.930 . S
H1450 C1442 0.930 . S
H1451 C1469 0.930 . S
H1452 C1460 0.929 . S
H1453 C1467 0.930 . S
H1454 C1431 0.931 . S
H1455 C1461 0.930 . S
H1456 C1494 0.930 . S
H1457 C1438 0.930 . S
H1458 C1493 0.931 . S
N1459 Eu1428 2.657 . S
N1459 C1460 1.334 . S
N1459 C1464 1.362 . S
C1460 H1452 0.929 . S
C1460 N1459 1.334 . S
C1460 C1463 1.413 . S
C1461 H1455 0.930 . S
C1461 C1462 1.392 . S
C1461 C1463 1.367 . S
C1462 C1461 1.392 . S
C1462 C1464 1.420 . S
C1462 C1494 1.423 . S
C1463 H1449 0.930 . S
C1463 C1460 1.413 . S
C1463 C1461 1.367 . S
C1464 N1459 1.362 . S
C1464 C1462 1.420 . S
C1464 C1468 1.429 . S
H1465 C1470 0.930 . S
N1466 Eu1428 2.609 . S
N1466 C1468 1.377 . S
N1466 C1469 1.321 . S
C1467 H1453 0.930 . S
C1467 C1469 1.400 . S
C1467 C1470 1.386 . S
C1468 C1464 1.429 . S
C1468 N1466 1.377 . S
C1468 C1471 1.411 . S
C1469 H1451 0.930 . S
C1469 N1466 1.321 . S
C1469 C1467 1.400 . S
C1470 H1465 0.930 . S
C1470 C1467 1.386 . S
C1470 C1471 1.395 . S
C1471 C1468 1.411 . S
C1471 C1470 1.395 . S
C1471 C1493 1.420 . S
O1472 Eu1428 2.558 . S
O1472 C1492 1.257 . S
O1473 Eu1428 2.612 . S
O1473 Eu1439 2.380 . S
O1473 C1484 1.276 . S
O1474 Eu1439 2.432 . S
O1474 C1491 1.264 . S
O1475 Eu1428 2.339 . S
O1475 C1491 1.254 . S
O1476 Eu1428 2.563 . S
O1476 C1484 1.235 . S
O1477 Eu1428 2.419 . S
O1477 C1492 1.249 . S
O1478 Eu1439 2.558 . S
O1478 C1503 1.257 . S
O1479 Eu1428 2.380 . S
O1479 Eu1439 2.612 . S
O1479 C1495 1.276 . S
O1480 Eu1428 2.432 . S
O1480 C1502 1.264 . S
O1481 Eu1439 2.339 . S
O1481 C1502 1.254 . S
O1482 Eu1439 2.563 . S
O1482 C1495 1.235 . S
O1483 Eu1439 2.419 . S
O1483 C1503 1.249 . S
C1484 O1473 1.276 . S
C1484 O1476 1.235 . S
C1485 C1487 1.393 . S
C1485 C1489 1.395 . S
C1485 C1492 1.492 . S
C1486 C1487 1.392 . S
C1486 C1488 1.386 . S
C1487 C1485 1.393 . S
C1487 C1486 1.392 . S
C1487 H1504 0.930 . S
C1488 C1486 1.386 . S
C1488 C1490 1.395 . S
C1488 H1505 0.930 . S
C1489 C1485 1.395 . S
C1489 C1490 1.379 . S
C1489 H1506 0.930 . S
C1490 C1488 1.395 . S
C1490 C1489 1.379 . S
C1490 H1507 0.930 . S
C1491 O1474 1.264 . S
C1491 O1475 1.254 . S
C1492 Eu1428 2.848 . S
C1492 O1472 1.257 . S
C1492 O1477 1.249 . S
C1492 C1485 1.492 . S
C1493 H1458 0.931 . S
C1493 C1471 1.420 . S
C1493 C1494 1.351 . S
C1494 H1456 0.930 . S
C1494 C1462 1.423 . S
C1494 C1493 1.351 . S
C1495 O1479 1.276 . S
C1495 O1482 1.235 . S
C1496 C1497 1.393 . S
C1496 C1500 1.395 . S
C1496 C1503 1.492 . S
C1497 C1496 1.393 . S
C1497 C1498 1.392 . S
C1497 H1508 0.930 . S
C1498 C1497 1.392 . S
C1498 C1499 1.386 . S
C1499 C1498 1.386 . S
C1499 C1501 1.395 . S
C1499 H1509 0.930 . S
C1500 C1496 1.395 . S
C1500 C1501 1.379 . S
C1500 H1510 0.930 . S
C1501 C1499 1.395 . S
C1501 C1500 1.379 . S
C1501 H1511 0.930 . S
C1502 O1480 1.264 . S
C1502 O1481 1.254 . S
C1503 Eu1439 2.848 . S
C1503 O1478 1.257 . S
C1503 O1483 1.249 . S
C1503 C1496 1.492 . S
H1504 C1487 0.930 . S
H1505 C1488 0.930 . S
H1506 C1489 0.930 . S
H1507 C1490 0.930 . S
H1508 C1497 0.930 . S
H1509 C1499 0.930 . S
H1510 C1500 0.930 . S
H1511 C1501 0.930 . S
Eu1512 N1543 2.657 . S
Eu1512 N1550 2.609 . S
Eu1512 O1556 2.558 . S
Eu1512 O1557 2.612 . S
Eu1512 O1559 2.339 . S
Eu1512 O1560 2.563 . S
Eu1512 O1561 2.419 . S
Eu1512 O1563 2.380 . S
Eu1512 O1564 2.432 . S
Eu1512 C1576 2.848 . S
C1513 C1516 1.429 . S
C1513 C1517 1.411 . S
C1513 N1520 1.377 . S
C1514 C1516 1.420 . S
C1514 C1518 1.423 . S
C1514 C1526 1.392 . S
C1515 C1517 1.420 . S
C1515 C1518 1.351 . S
C1515 H1538 0.931 . S
C1516 C1513 1.429 . S
C1516 C1514 1.420 . S
C1516 N1524 1.362 . S
C1517 C1513 1.411 . S
C1517 C1515 1.420 . S
C1517 C1522 1.395 . S
C1518 C1514 1.423 . S
C1518 C1515 1.351 . S
C1518 H1530 0.930 . S
C1519 C1521 1.400 . S
C1519 C1522 1.386 . S
C1519 H1531 0.930 . S
N1520 C1513 1.377 . S
N1520 C1521 1.321 . S
N1520 Eu1523 2.609 . S
C1521 C1519 1.400 . S
C1521 N1520 1.321 . S
C1521 H1528 0.930 . S
C1522 C1517 1.395 . S
C1522 C1519 1.386 . S
C1522 H1541 0.930 . S
Eu1523 N1520 2.609 . S
Eu1523 N1524 2.657 . S
Eu1523 O1557 2.380 . S
Eu1523 O1558 2.432 . S
Eu1523 O1562 2.558 . S
Eu1523 O1563 2.612 . S
Eu1523 O1565 2.339 . S
Eu1523 O1566 2.563 . S
Eu1523 O1567 2.419 . S
Eu1523 C1587 2.848 . S
N1524 C1516 1.362 . S
N1524 Eu1523 2.657 . S
N1524 C1525 1.334 . S
C1525 N1524 1.334 . S
C1525 C1527 1.413 . S
C1525 H1532 0.929 . S
C1526 C1514 1.392 . S
C1526 C1527 1.367 . S
C1526 H1534 0.930 . S
C1527 C1525 1.413 . S
C1527 C1526 1.367 . S
C1527 H1529 0.930 . S
H1528 C1521 0.930 . S
H1529 C1527 0.930 . S
H1530 C1518 0.930 . S
H1531 C1519 0.930 . S
H1532 C1525 0.929 . S
H1533 C1547 0.930 . S
H1534 C1526 0.930 . S
H1535 C1553 0.930 . S
H1536 C1544 0.929 . S
H1537 C1551 0.930 . S
H1538 C1515 0.931 . S
H1539 C1545 0.930 . S
H1540 C1578 0.930 . S
H1541 C1522 0.930 . S
H1542 C1577 0.931 . S
N1543 Eu1512 2.657 . S
N1543 C1544 1.334 . S
N1543 C1548 1.362 . S
C1544 H1536 0.929 . S
C1544 N1543 1.334 . S
C1544 C1547 1.413 . S
C1545 H1539 0.930 . S
C1545 C1546 1.392 . S
C1545 C1547 1.367 . S
C1546 C1545 1.392 . S
C1546 C1548 1.420 . S
C1546 C1578 1.423 . S
C1547 H1533 0.930 . S
C1547 C1544 1.413 . S
C1547 C1545 1.367 . S
C1548 N1543 1.362 . S
C1548 C1546 1.420 . S
C1548 C1552 1.429 . S
H1549 C1554 0.930 . S
N1550 Eu1512 2.609 . S
N1550 C1552 1.377 . S
N1550 C1553 1.321 . S
C1551 H1537 0.930 . S
C1551 C1553 1.400 . S
C1551 C1554 1.386 . S
C1552 C1548 1.429 . S
C1552 N1550 1.377 . S
C1552 C1555 1.411 . S
C1553 H1535 0.930 . S
C1553 N1550 1.321 . S
C1553 C1551 1.400 . S
C1554 H1549 0.930 . S
C1554 C1551 1.386 . S
C1554 C1555 1.395 . S
C1555 C1552 1.411 . S
C1555 C1554 1.395 . S
C1555 C1577 1.420 . S
O1556 Eu1512 2.558 . S
O1556 C1576 1.257 . S
O1557 Eu1512 2.612 . S
O1557 Eu1523 2.380 . S
O1557 C1568 1.276 . S
O1558 Eu1523 2.432 . S
O1558 C1575 1.264 . S
O1559 Eu1512 2.339 . S
O1559 C1575 1.254 . S
O1560 Eu1512 2.563 . S
O1560 C1568 1.235 . S
O1561 Eu1512 2.419 . S
O1561 C1576 1.249 . S
O1562 Eu1523 2.558 . S
O1562 C1587 1.257 . S
O1563 Eu1512 2.380 . S
O1563 Eu1523 2.612 . S
O1563 C1579 1.276 . S
O1564 Eu1512 2.432 . S
O1564 C1586 1.264 . S
O1565 Eu1523 2.339 . S
O1565 C1586 1.254 . S
O1566 Eu1523 2.563 . S
O1566 C1579 1.235 . S
O1567 Eu1523 2.419 . S
O1567 C1587 1.249 . S
C1568 O1557 1.276 . S
C1568 O1560 1.235 . S
C1569 C1571 1.393 . S
C1569 C1573 1.395 . S
C1569 C1576 1.492 . S
C1570 C1571 1.392 . S
C1570 C1572 1.386 . S
C1571 C1569 1.393 . S
C1571 C1570 1.392 . S
C1571 H1588 0.930 . S
C1572 C1570 1.386 . S
C1572 C1574 1.395 . S
C1572 H1589 0.930 . S
C1573 C1569 1.395 . S
C1573 C1574 1.379 . S
C1573 H1590 0.930 . S
C1574 C1572 1.395 . S
C1574 C1573 1.379 . S
C1574 H1591 0.930 . S
C1575 O1558 1.264 . S
C1575 O1559 1.254 . S
C1576 Eu1512 2.848 . S
C1576 O1556 1.257 . S
C1576 O1561 1.249 . S
C1576 C1569 1.492 . S
C1577 H1542 0.931 . S
C1577 C1555 1.420 . S
C1577 C1578 1.351 . S
C1578 H1540 0.930 . S
C1578 C1546 1.423 . S
C1578 C1577 1.351 . S
C1579 O1563 1.276 . S
C1579 O1566 1.235 . S
C1580 C1581 1.393 . S
C1580 C1584 1.395 . S
C1580 C1587 1.492 . S
C1581 C1580 1.393 . S
C1581 C1582 1.392 . S
C1581 H1592 0.930 . S
C1582 C1581 1.392 . S
C1582 C1583 1.386 . S
C1583 C1582 1.386 . S
C1583 C1585 1.395 . S
C1583 H1593 0.930 . S
C1584 C1580 1.395 . S
C1584 C1585 1.379 . S
C1584 H1594 0.930 . S
C1585 C1583 1.395 . S
C1585 C1584 1.379 . S
C1585 H1595 0.930 . S
C1586 O1564 1.264 . S
C1586 O1565 1.254 . S
C1587 Eu1523 2.848 . S
C1587 O1562 1.257 . S
C1587 O1567 1.249 . S
C1587 C1580 1.492 . S
H1588 C1571 0.930 . S
H1589 C1572 0.930 . S
H1590 C1573 0.930 . S
H1591 C1574 0.930 . S
H1592 C1581 0.930 . S
H1593 C1583 0.930 . S
H1594 C1584 0.930 . S
H1595 C1585 0.930 . S
Eu1596 N1627 2.657 1_655 S
Eu1596 N1634 2.609 . S
Eu1596 O1640 2.558 . S
Eu1596 O1641 2.612 . S
Eu1596 O1643 2.339 . S
Eu1596 O1644 2.563 . S
Eu1596 O1645 2.419 1_655 S
Eu1596 O1647 2.380 . S
Eu1596 O1648 2.432 . S
Eu1596 C1660 2.848 1_655 S
C1597 C1600 1.429 . S
C1597 C1601 1.411 . S
C1597 N1604 1.377 . S
C1598 C1600 1.420 . S
C1598 C1602 1.423 . S
C1598 C1610 1.392 . S
C1599 C1601 1.420 . S
C1599 C1602 1.351 . S
C1599 H1622 0.931 . S
C1600 C1597 1.429 . S
C1600 C1598 1.420 . S
C1600 N1608 1.362 . S
C1601 C1597 1.411 . S
C1601 C1599 1.420 . S
C1601 C1606 1.395 . S
C1602 C1598 1.423 . S
C1602 C1599 1.351 . S
C1602 H1614 0.930 . S
C1603 C1605 1.400 . S
C1603 C1606 1.386 . S
C1603 H1615 0.930 . S
N1604 C1597 1.377 . S
N1604 C1605 1.321 . S
N1604 Eu1607 2.609 . S
C1605 C1603 1.400 . S
C1605 N1604 1.321 . S
C1605 H1612 0.930 . S
C1606 C1601 1.395 . S
C1606 C1603 1.386 . S
C1606 H1625 0.930 . S
Eu1607 N1604 2.609 . S
Eu1607 N1608 2.657 . S
Eu1607 O1641 2.380 . S
Eu1607 O1642 2.432 . S
Eu1607 O1646 2.558 . S
Eu1607 O1647 2.612 . S
Eu1607 O1649 2.339 . S
Eu1607 O1650 2.563 . S
Eu1607 O1651 2.419 . S
Eu1607 C1671 2.848 . S
N1608 C1600 1.362 . S
N1608 Eu1607 2.657 . S
N1608 C1609 1.334 . S
C1609 N1608 1.334 . S
C1609 C1611 1.413 . S
C1609 H1616 0.929 . S
C1610 C1598 1.392 . S
C1610 C1611 1.367 . S
C1610 H1618 0.930 . S
C1611 C1609 1.413 . S
C1611 C1610 1.367 . S
C1611 H1613 0.930 . S
H1612 C1605 0.930 . S
H1613 C1611 0.930 . S
H1614 C1602 0.930 . S
H1615 C1603 0.930 . S
H1616 C1609 0.929 . S
H1617 C1631 0.930 . S
H1618 C1610 0.930 . S
H1619 C1637 0.930 . S
H1620 C1628 0.929 . S
H1621 C1635 0.922 1_655 S
H1622 C1599 0.931 . S
H1623 C1629 0.930 . S
H1624 C1662 0.930 . S
H1625 C1606 0.930 . S
H1626 C1661 0.931 . S
N1627 Eu1596 2.657 1_455 S
N1627 C1628 1.334 . S
N1627 C1632 1.362 . S
C1628 H1620 0.929 . S
C1628 N1627 1.334 . S
C1628 C1631 1.413 . S
C1629 H1623 0.930 . S
C1629 C1630 1.392 . S
C1629 C1631 1.367 . S
C1630 C1629 1.392 . S
C1630 C1632 1.420 . S
C1630 C1662 1.423 . S
C1631 H1617 0.930 . S
C1631 C1628 1.413 . S
C1631 C1629 1.367 . S
C1632 N1627 1.362 . S
C1632 C1630 1.420 . S
C1632 C1636 1.429 . S
H1633 C1638 0.930 . S
N1634 Eu1596 2.609 . S
N1634 C1636 1.377 1_655 S
N1634 C1637 1.321 . S
C1635 H1621 0.922 1_455 S
C1635 C1637 1.390 1_455 S
C1635 C1638 1.404 . S
C1636 C1632 1.429 . S
C1636 N1634 1.377 1_455 S
C1636 C1639 1.411 . S
C1637 H1619 0.930 . S
C1637 N1634 1.321 . S
C1637 C1635 1.390 1_655 S
C1638 H1633 0.930 . S
C1638 C1635 1.404 . S
C1638 C1639 1.395 . S
C1639 C1636 1.411 . S
C1639 C1638 1.395 . S
C1639 C1661 1.420 . S
O1640 Eu1596 2.558 . S
O1640 C1660 1.257 1_655 S
O1641 Eu1596 2.612 . S
O1641 Eu1607 2.380 . S
O1641 C1652 1.276 . S
O1642 Eu1607 2.432 . S
O1642 C1659 1.264 . S
O1643 Eu1596 2.339 . S
O1643 C1659 1.254 . S
O1644 Eu1596 2.563 . S
O1644 C1652 1.235 . S
O1645 Eu1596 2.419 1_455 S
O1645 C1660 1.249 . S
O1646 Eu1607 2.558 . S
O1646 C1671 1.257 . S
O1647 Eu1596 2.380 . S
O1647 Eu1607 2.612 . S
O1647 C1663 1.276 . S
O1648 Eu1596 2.432 . S
O1648 C1670 1.264 . S
O1649 Eu1607 2.339 . S
O1649 C1670 1.254 . S
O1650 Eu1607 2.563 . S
O1650 C1663 1.235 . S
O1651 Eu1607 2.419 . S
O1651 C1671 1.249 . S
C1652 O1641 1.276 . S
C1652 O1644 1.235 . S
C1653 C1655 1.393 . S
C1653 C1657 1.395 . S
C1653 C1660 1.492 . S
C1654 C1655 1.392 . S
C1654 C1656 1.386 . S
C1655 C1653 1.393 . S
C1655 C1654 1.392 . S
C1655 H1672 0.930 . S
C1656 C1654 1.386 . S
C1656 C1658 1.395 . S
C1656 H1673 0.930 . S
C1657 C1653 1.395 . S
C1657 C1658 1.379 . S
C1657 H1674 0.930 . S
C1658 C1656 1.395 . S
C1658 C1657 1.379 . S
C1658 H1675 0.930 . S
C1659 O1642 1.264 . S
C1659 O1643 1.254 . S
C1660 Eu1596 2.848 1_455 S
C1660 O1640 1.257 1_455 S
C1660 O1645 1.249 . S
C1660 C1653 1.492 . S
C1661 H1626 0.931 . S
C1661 C1639 1.420 . S
C1661 C1662 1.351 . S
C1662 H1624 0.930 . S
C1662 C1630 1.423 . S
C1662 C1661 1.351 . S
C1663 O1647 1.276 . S
C1663 O1650 1.235 . S
C1664 C1665 1.393 . S
C1664 C1668 1.395 . S
C1664 C1671 1.492 . S
C1665 C1664 1.393 . S
C1665 C1666 1.392 . S
C1665 H1676 0.930 . S
C1666 C1665 1.392 . S
C1666 C1667 1.386 . S
C1667 C1666 1.386 . S
C1667 C1669 1.395 . S
C1667 H1677 0.930 . S
C1668 C1664 1.395 . S
C1668 C1669 1.379 . S
C1668 H1678 0.930 . S
C1669 C1667 1.395 . S
C1669 C1668 1.379 . S
C1669 H1679 0.930 . S
C1670 O1648 1.264 . S
C1670 O1649 1.254 . S
C1671 Eu1607 2.848 . S
C1671 O1646 1.257 . S
C1671 O1651 1.249 . S
C1671 C1664 1.492 . S
H1672 C1655 0.930 . S
H1673 C1656 0.930 . S
H1674 C1657 0.930 . S
H1675 C1658 0.930 . S
H1676 C1665 0.930 . S
H1677 C1667 0.930 . S
H1678 C1668 0.930 . S
H1679 C1669 0.930 . S
Eu1680 N1711 2.657 . S
Eu1680 N1718 2.609 . S
Eu1680 O1724 2.558 . S
Eu1680 O1725 2.612 . S
Eu1680 O1727 2.339 . S
Eu1680 O1728 2.563 . S
Eu1680 O1729 2.419 . S
Eu1680 O1731 2.380 . S
Eu1680 O1732 2.432 . S
Eu1680 C1744 2.848 . S
C1681 C1684 1.429 . S
C1681 C1685 1.411 . S
C1681 N1688 1.377 . S
C1682 C1684 1.420 . S
C1682 C1686 1.423 . S
C1682 C1694 1.392 . S
C1683 C1685 1.420 . S
C1683 C1686 1.351 . S
C1683 H1706 0.931 . S
C1684 C1681 1.429 . S
C1684 C1682 1.420 . S
C1684 N1692 1.362 . S
C1685 C1681 1.411 . S
C1685 C1683 1.420 . S
C1685 C1690 1.395 . S
C1686 C1682 1.423 . S
C1686 C1683 1.351 . S
C1686 H1698 0.930 . S
C1687 C1689 1.400 . S
C1687 C1690 1.386 . S
C1687 H1699 0.930 . S
N1688 C1681 1.377 . S
N1688 C1689 1.321 . S
N1688 Eu1691 2.609 . S
C1689 C1687 1.400 . S
C1689 N1688 1.321 . S
C1689 H1696 0.930 . S
C1690 C1685 1.395 . S
C1690 C1687 1.386 . S
C1690 H1709 0.930 . S
Eu1691 N1688 2.609 . S
Eu1691 N1692 2.657 . S
Eu1691 O1725 2.380 . S
Eu1691 O1726 2.432 . S
Eu1691 O1730 2.558 . S
Eu1691 O1731 2.612 . S
Eu1691 O1733 2.339 . S
Eu1691 O1734 2.563 . S
Eu1691 O1735 2.419 . S
Eu1691 C1755 2.848 . S
N1692 C1684 1.362 . S
N1692 Eu1691 2.657 . S
N1692 C1693 1.334 . S
C1693 N1692 1.334 . S
C1693 C1695 1.413 . S
C1693 H1700 0.929 . S
C1694 C1682 1.392 . S
C1694 C1695 1.367 . S
C1694 H1702 0.930 . S
C1695 C1693 1.413 . S
C1695 C1694 1.367 . S
C1695 H1697 0.930 . S
H1696 C1689 0.930 . S
H1697 C1695 0.930 . S
H1698 C1686 0.930 . S
H1699 C1687 0.930 . S
H1700 C1693 0.929 . S
H1701 C1715 0.930 . S
H1702 C1694 0.930 . S
H1703 C1721 0.930 . S
H1704 C1712 0.929 . S
H1705 C1719 0.930 . S
H1706 C1683 0.931 . S
H1707 C1713 0.930 . S
H1708 C1746 0.930 . S
H1709 C1690 0.930 . S
H1710 C1745 0.931 . S
N1711 Eu1680 2.657 . S
N1711 C1712 1.334 . S
N1711 C1716 1.362 . S
C1712 H1704 0.929 . S
C1712 N1711 1.334 . S
C1712 C1715 1.413 . S
C1713 H1707 0.930 . S
C1713 C1714 1.392 . S
C1713 C1715 1.367 . S
C1714 C1713 1.392 . S
C1714 C1716 1.420 . S
C1714 C1746 1.423 . S
C1715 H1701 0.930 . S
C1715 C1712 1.413 . S
C1715 C1713 1.367 . S
C1716 N1711 1.362 . S
C1716 C1714 1.420 . S
C1716 C1720 1.429 . S
H1717 C1722 0.930 . S
N1718 Eu1680 2.609 . S
N1718 C1720 1.377 . S
N1718 C1721 1.321 . S
C1719 H1705 0.930 . S
C1719 C1721 1.400 . S
C1719 C1722 1.386 . S
C1720 C1716 1.429 . S
C1720 N1718 1.377 . S
C1720 C1723 1.411 . S
C1721 H1703 0.930 . S
C1721 N1718 1.321 . S
C1721 C1719 1.400 . S
C1722 H1717 0.930 . S
C1722 C1719 1.386 . S
C1722 C1723 1.395 . S
C1723 C1720 1.411 . S
C1723 C1722 1.395 . S
C1723 C1745 1.420 . S
O1724 Eu1680 2.558 . S
O1724 C1744 1.257 . S
O1725 Eu1680 2.612 . S
O1725 Eu1691 2.380 . S
O1725 C1736 1.276 . S
O1726 Eu1691 2.432 . S
O1726 C1743 1.264 . S
O1727 Eu1680 2.339 . S
O1727 C1743 1.254 . S
O1728 Eu1680 2.563 . S
O1728 C1736 1.235 . S
O1729 Eu1680 2.419 . S
O1729 C1744 1.249 . S
O1730 Eu1691 2.558 . S
O1730 C1755 1.257 . S
O1731 Eu1680 2.380 . S
O1731 Eu1691 2.612 . S
O1731 C1747 1.276 . S
O1732 Eu1680 2.432 . S
O1732 C1754 1.264 . S
O1733 Eu1691 2.339 . S
O1733 C1754 1.254 . S
O1734 Eu1691 2.563 . S
O1734 C1747 1.235 . S
O1735 Eu1691 2.419 . S
O1735 C1755 1.249 . S
C1736 O1725 1.276 . S
C1736 O1728 1.235 . S
C1737 C1739 1.393 . S
C1737 C1741 1.395 . S
C1737 C1744 1.492 . S
C1738 C1739 1.392 . S
C1738 C1740 1.386 . S
C1739 C1737 1.393 . S
C1739 C1738 1.392 . S
C1739 H1756 0.930 . S
C1740 C1738 1.386 . S
C1740 C1742 1.395 . S
C1740 H1757 0.930 . S
C1741 C1737 1.395 . S
C1741 C1742 1.379 . S
C1741 H1758 0.930 . S
C1742 C1740 1.395 . S
C1742 C1741 1.379 . S
C1742 H1759 0.930 . S
C1743 O1726 1.264 . S
C1743 O1727 1.254 . S
C1744 Eu1680 2.848 . S
C1744 O1724 1.257 . S
C1744 O1729 1.249 . S
C1744 C1737 1.492 . S
C1745 H1710 0.931 . S
C1745 C1723 1.420 . S
C1745 C1746 1.351 . S
C1746 H1708 0.930 . S
C1746 C1714 1.423 . S
C1746 C1745 1.351 . S
C1747 O1731 1.276 . S
C1747 O1734 1.235 . S
C1748 C1749 1.393 . S
C1748 C1752 1.395 . S
C1748 C1755 1.492 . S
C1749 C1748 1.393 . S
C1749 C1750 1.392 . S
C1749 H1760 0.930 . S
C1750 C1749 1.392 . S
C1750 C1751 1.386 . S
C1751 C1750 1.386 . S
C1751 C1753 1.395 . S
C1751 H1761 0.930 . S
C1752 C1748 1.395 . S
C1752 C1753 1.379 . S
C1752 H1762 0.930 . S
C1753 C1751 1.395 . S
C1753 C1752 1.379 . S
C1753 H1763 0.930 . S
C1754 O1732 1.264 . S
C1754 O1733 1.254 . S
C1755 Eu1691 2.848 . S
C1755 O1730 1.257 . S
C1755 O1735 1.249 . S
C1755 C1748 1.492 . S
H1756 C1739 0.930 . S
H1757 C1740 0.930 . S
H1758 C1741 0.930 . S
H1759 C1742 0.930 . S
H1760 C1749 0.930 . S
H1761 C1751 0.930 . S
H1762 C1752 0.930 . S
H1763 C1753 0.930 . S
Eu1764 N1795 2.657 1_655 S
Eu1764 N1802 2.609 . S
Eu1764 O1808 2.558 . S
Eu1764 O1809 2.612 . S
Eu1764 O1811 2.339 . S
Eu1764 O1812 2.563 . S
Eu1764 O1813 2.419 1_655 S
Eu1764 O1815 2.380 . S
Eu1764 O1816 2.432 . S
Eu1764 C1828 2.848 1_655 S
C1765 C1768 1.429 . S
C1765 C1769 1.411 . S
C1765 N1772 1.377 . S
C1766 C1768 1.420 . S
C1766 C1770 1.423 . S
C1766 C1778 1.392 . S
C1767 C1769 1.420 . S
C1767 C1770 1.351 . S
C1767 H1790 0.931 . S
C1768 C1765 1.429 . S
C1768 C1766 1.420 . S
C1768 N1776 1.362 . S
C1769 C1765 1.411 . S
C1769 C1767 1.420 . S
C1769 C1774 1.395 . S
C1770 C1766 1.423 . S
C1770 C1767 1.351 . S
C1770 H1782 0.930 . S
C1771 C1773 1.400 . S
C1771 C1774 1.386 . S
C1771 H1783 0.930 . S
N1772 C1765 1.377 . S
N1772 C1773 1.321 . S
N1772 Eu1775 2.609 . S
C1773 C1771 1.400 . S
C1773 N1772 1.321 . S
C1773 H1780 0.930 . S
C1774 C1769 1.395 . S
C1774 C1771 1.386 . S
C1774 H1793 0.930 . S
Eu1775 N1772 2.609 . S
Eu1775 N1776 2.657 . S
Eu1775 O1809 2.380 . S
Eu1775 O1810 2.432 . S
Eu1775 O1814 2.558 . S
Eu1775 O1815 2.612 . S
Eu1775 O1817 2.339 . S
Eu1775 O1818 2.563 . S
Eu1775 O1819 2.419 . S
Eu1775 C1839 2.848 . S
N1776 C1768 1.362 . S
N1776 Eu1775 2.657 . S
N1776 C1777 1.334 . S
C1777 N1776 1.334 . S
C1777 C1779 1.413 . S
C1777 H1784 0.929 . S
C1778 C1766 1.392 . S
C1778 C1779 1.367 . S
C1778 H1786 0.930 . S
C1779 C1777 1.413 . S
C1779 C1778 1.367 . S
C1779 H1781 0.930 . S
H1780 C1773 0.930 . S
H1781 C1779 0.930 . S
H1782 C1770 0.930 . S
H1783 C1771 0.930 . S
H1784 C1777 0.929 . S
H1785 C1799 0.930 . S
H1786 C1778 0.930 . S
H1787 C1805 0.930 . S
H1788 C1796 0.929 . S
H1789 C1803 0.922 1_655 S
H1790 C1767 0.931 . S
H1791 C1797 0.930 . S
H1792 C1830 0.930 . S
H1793 C1774 0.930 . S
H1794 C1829 0.931 . S
N1795 Eu1764 2.657 1_455 S
N1795 C1796 1.334 . S
N1795 C1800 1.362 . S
C1796 H1788 0.929 . S
C1796 N1795 1.334 . S
C1796 C1799 1.413 . S
C1797 H1791 0.930 . S
C1797 C1798 1.392 . S
C1797 C1799 1.367 . S
C1798 C1797 1.392 . S
C1798 C1800 1.420 . S
C1798 C1830 1.423 . S
C1799 H1785 0.930 . S
C1799 C1796 1.413 . S
C1799 C1797 1.367 . S
C1800 N1795 1.362 . S
C1800 C1798 1.420 . S
C1800 C1804 1.429 . S
H1801 C1806 0.930 . S
N1802 Eu1764 2.609 . S
N1802 C1804 1.377 1_655 S
N1802 C1805 1.321 . S
C1803 H1789 0.922 1_455 S
C1803 C1805 1.390 1_455 S
C1803 C1806 1.404 . S
C1804 C1800 1.429 . S
C1804 N1802 1.377 1_455 S
C1804 C1807 1.411 . S
C1805 H1787 0.930 . S
C1805 N1802 1.321 . S
C1805 C1803 1.390 1_655 S
C1806 H1801 0.930 . S
C1806 C1803 1.404 . S
C1806 C1807 1.395 . S
C1807 C1804 1.411 . S
C1807 C1806 1.395 . S
C1807 C1829 1.420 . S
O1808 Eu1764 2.558 . S
O1808 C1828 1.257 1_655 S
O1809 Eu1764 2.612 . S
O1809 Eu1775 2.380 . S
O1809 C1820 1.276 . S
O1810 Eu1775 2.432 . S
O1810 C1827 1.264 . S
O1811 Eu1764 2.339 . S
O1811 C1827 1.254 . S
O1812 Eu1764 2.563 . S
O1812 C1820 1.235 . S
O1813 Eu1764 2.419 1_455 S
O1813 C1828 1.249 . S
O1814 Eu1775 2.558 . S
O1814 C1839 1.257 . S
O1815 Eu1764 2.380 . S
O1815 Eu1775 2.612 . S
O1815 C1831 1.276 . S
O1816 Eu1764 2.432 . S
O1816 C1838 1.264 . S
O1817 Eu1775 2.339 . S
O1817 C1838 1.254 . S
O1818 Eu1775 2.563 . S
O1818 C1831 1.235 . S
O1819 Eu1775 2.419 . S
O1819 C1839 1.249 . S
C1820 O1809 1.276 . S
C1820 O1812 1.235 . S
C1821 C1823 1.393 . S
C1821 C1825 1.395 . S
C1821 C1828 1.492 . S
C1822 C1823 1.392 . S
C1822 C1824 1.386 . S
C1823 C1821 1.393 . S
C1823 C1822 1.392 . S
C1823 H1840 0.930 . S
C1824 C1822 1.386 . S
C1824 C1826 1.395 . S
C1824 H1841 0.930 . S
C1825 C1821 1.395 . S
C1825 C1826 1.379 . S
C1825 H1842 0.930 . S
C1826 C1824 1.395 . S
C1826 C1825 1.379 . S
C1826 H1843 0.930 . S
C1827 O1810 1.264 . S
C1827 O1811 1.254 . S
C1828 Eu1764 2.848 1_455 S
C1828 O1808 1.257 1_455 S
C1828 O1813 1.249 . S
C1828 C1821 1.492 . S
C1829 H1794 0.931 . S
C1829 C1807 1.420 . S
C1829 C1830 1.351 . S
C1830 H1792 0.930 . S
C1830 C1798 1.423 . S
C1830 C1829 1.351 . S
C1831 O1815 1.276 . S
C1831 O1818 1.235 . S
C1832 C1833 1.393 . S
C1832 C1836 1.395 . S
C1832 C1839 1.492 . S
C1833 C1832 1.393 . S
C1833 C1834 1.392 . S
C1833 H1844 0.930 . S
C1834 C1833 1.392 . S
C1834 C1835 1.386 . S
C1835 C1834 1.386 . S
C1835 C1837 1.395 . S
C1835 H1845 0.930 . S
C1836 C1832 1.395 . S
C1836 C1837 1.379 . S
C1836 H1846 0.930 . S
C1837 C1835 1.395 . S
C1837 C1836 1.379 . S
C1837 H1847 0.930 . S
C1838 O1816 1.264 . S
C1838 O1817 1.254 . S
C1839 Eu1775 2.848 . S
C1839 O1814 1.257 . S
C1839 O1819 1.249 . S
C1839 C1832 1.492 . S
H1840 C1823 0.930 . S
H1841 C1824 0.930 . S
H1842 C1825 0.930 . S
H1843 C1826 0.930 . S
H1844 C1833 0.930 . S
H1845 C1835 0.930 . S
H1846 C1836 0.930 . S
H1847 C1837 0.930 . S
Eu1848 N1879 2.657 . S
Eu1848 N1886 2.609 . S
Eu1848 O1892 2.558 . S
Eu1848 O1893 2.612 . S
Eu1848 O1895 2.339 . S
Eu1848 O1896 2.563 . S
Eu1848 O1897 2.419 . S
Eu1848 O1899 2.380 . S
Eu1848 O1900 2.432 . S
Eu1848 C1912 2.848 . S
C1849 C1852 1.429 . S
C1849 C1853 1.411 . S
C1849 N1856 1.377 . S
C1850 C1852 1.420 . S
C1850 C1854 1.423 . S
C1850 C1862 1.392 . S
C1851 C1853 1.420 . S
C1851 C1854 1.351 . S
C1851 H1874 0.931 . S
C1852 C1849 1.429 . S
C1852 C1850 1.420 . S
C1852 N1860 1.362 . S
C1853 C1849 1.411 . S
C1853 C1851 1.420 . S
C1853 C1858 1.395 . S
C1854 C1850 1.423 . S
C1854 C1851 1.351 . S
C1854 H1866 0.930 . S
C1855 C1857 1.400 . S
C1855 C1858 1.386 . S
C1855 H1867 0.930 . S
N1856 C1849 1.377 . S
N1856 C1857 1.321 . S
N1856 Eu1859 2.609 . S
C1857 C1855 1.400 . S
C1857 N1856 1.321 . S
C1857 H1864 0.930 . S
C1858 C1853 1.395 . S
C1858 C1855 1.386 . S
C1858 H1877 0.930 . S
Eu1859 N1856 2.609 . S
Eu1859 N1860 2.657 . S
Eu1859 O1893 2.380 . S
Eu1859 O1894 2.432 . S
Eu1859 O1898 2.558 . S
Eu1859 O1899 2.612 . S
Eu1859 O1901 2.339 . S
Eu1859 O1902 2.563 . S
Eu1859 O1903 2.419 . S
Eu1859 C1923 2.848 . S
N1860 C1852 1.362 . S
N1860 Eu1859 2.657 . S
N1860 C1861 1.334 . S
C1861 N1860 1.334 . S
C1861 C1863 1.413 . S
C1861 H1868 0.929 . S
C1862 C1850 1.392 . S
C1862 C1863 1.367 . S
C1862 H1870 0.930 . S
C1863 C1861 1.413 . S
C1863 C1862 1.367 . S
C1863 H1865 0.930 . S
H1864 C1857 0.930 . S
H1865 C1863 0.930 . S
H1866 C1854 0.930 . S
H1867 C1855 0.930 . S
H1868 C1861 0.929 . S
H1869 C1883 0.930 . S
H1870 C1862 0.930 . S
H1871 C1889 0.930 . S
H1872 C1880 0.929 . S
H1873 C1887 0.930 . S
H1874 C1851 0.931 . S
H1875 C1881 0.930 . S
H1876 C1914 0.930 . S
H1877 C1858 0.930 . S
H1878 C1913 0.931 . S
N1879 Eu1848 2.657 . S
N1879 C1880 1.334 . S
N1879 C1884 1.362 . S
C1880 H1872 0.929 . S
C1880 N1879 1.334 . S
C1880 C1883 1.413 . S
C1881 H1875 0.930 . S
C1881 C1882 1.392 . S
C1881 C1883 1.367 . S
C1882 C1881 1.392 . S
C1882 C1884 1.420 . S
C1882 C1914 1.423 . S
C1883 H1869 0.930 . S
C1883 C1880 1.413 . S
C1883 C1881 1.367 . S
C1884 N1879 1.362 . S
C1884 C1882 1.420 . S
C1884 C1888 1.429 . S
H1885 C1890 0.930 . S
N1886 Eu1848 2.609 . S
N1886 C1888 1.377 . S
N1886 C1889 1.321 . S
C1887 H1873 0.930 . S
C1887 C1889 1.400 . S
C1887 C1890 1.386 . S
C1888 C1884 1.429 . S
C1888 N1886 1.377 . S
C1888 C1891 1.411 . S
C1889 H1871 0.930 . S
C1889 N1886 1.321 . S
C1889 C1887 1.400 . S
C1890 H1885 0.930 . S
C1890 C1887 1.386 . S
C1890 C1891 1.395 . S
C1891 C1888 1.411 . S
C1891 C1890 1.395 . S
C1891 C1913 1.420 . S
O1892 Eu1848 2.558 . S
O1892 C1912 1.257 . S
O1893 Eu1848 2.612 . S
O1893 Eu1859 2.380 . S
O1893 C1904 1.276 . S
O1894 Eu1859 2.432 . S
O1894 C1911 1.264 . S
O1895 Eu1848 2.339 . S
O1895 C1911 1.254 . S
O1896 Eu1848 2.563 . S
O1896 C1904 1.235 . S
O1897 Eu1848 2.419 . S
O1897 C1912 1.249 . S
O1898 Eu1859 2.558 . S
O1898 C1923 1.257 . S
O1899 Eu1848 2.380 . S
O1899 Eu1859 2.612 . S
O1899 C1915 1.276 . S
O1900 Eu1848 2.432 . S
O1900 C1922 1.264 . S
O1901 Eu1859 2.339 . S
O1901 C1922 1.254 . S
O1902 Eu1859 2.563 . S
O1902 C1915 1.235 . S
O1903 Eu1859 2.419 . S
O1903 C1923 1.249 . S
C1904 O1893 1.276 . S
C1904 O1896 1.235 . S
C1905 C1907 1.393 . S
C1905 C1909 1.395 . S
C1905 C1912 1.492 . S
C1906 C1907 1.392 . S
C1906 C1908 1.386 . S
C1907 C1905 1.393 . S
C1907 C1906 1.392 . S
C1907 H1924 0.930 . S
C1908 C1906 1.386 . S
C1908 C1910 1.395 . S
C1908 H1925 0.930 . S
C1909 C1905 1.395 . S
C1909 C1910 1.379 . S
C1909 H1926 0.930 . S
C1910 C1908 1.395 . S
C1910 C1909 1.379 . S
C1910 H1927 0.930 . S
C1911 O1894 1.264 . S
C1911 O1895 1.254 . S
C1912 Eu1848 2.848 . S
C1912 O1892 1.257 . S
C1912 O1897 1.249 . S
C1912 C1905 1.492 . S
C1913 H1878 0.931 . S
C1913 C1891 1.420 . S
C1913 C1914 1.351 . S
C1914 H1876 0.930 . S
C1914 C1882 1.423 . S
C1914 C1913 1.351 . S
C1915 O1899 1.276 . S
C1915 O1902 1.235 . S
C1916 C1917 1.393 . S
C1916 C1920 1.395 . S
C1916 C1923 1.492 . S
C1917 C1916 1.393 . S
C1917 C1918 1.392 . S
C1917 H1928 0.930 . S
C1918 C1917 1.392 . S
C1918 C1919 1.386 . S
C1919 C1918 1.386 . S
C1919 C1921 1.395 . S
C1919 H1929 0.930 . S
C1920 C1916 1.395 . S
C1920 C1921 1.379 . S
C1920 H1930 0.930 . S
C1921 C1919 1.395 . S
C1921 C1920 1.379 . S
C1921 H1931 0.930 . S
C1922 O1900 1.264 . S
C1922 O1901 1.254 . S
C1923 Eu1859 2.848 . S
C1923 O1898 1.257 . S
C1923 O1903 1.249 . S
C1923 C1916 1.492 . S
H1924 C1907 0.930 . S
H1925 C1908 0.930 . S
H1926 C1909 0.930 . S
H1927 C1910 0.930 . S
H1928 C1917 0.930 . S
H1929 C1919 0.930 . S
H1930 C1920 0.930 . S
H1931 C1921 0.930 . S
Eu1932 N1963 2.657 . S
Eu1932 N1970 2.609 . S
Eu1932 O1976 2.558 . S
Eu1932 O1977 2.612 . S
Eu1932 O1979 2.339 . S
Eu1932 O1980 2.563 . S
Eu1932 O1981 2.419 . S
Eu1932 O1983 2.380 . S
Eu1932 O1984 2.432 . S
Eu1932 C1996 2.848 . S
C1933 C1936 1.429 . S
C1933 C1937 1.411 . S
C1933 N1940 1.377 . S
C1934 C1936 1.420 . S
C1934 C1938 1.423 . S
C1934 C1946 1.392 . S
C1935 C1937 1.420 . S
C1935 C1938 1.351 . S
C1935 H1958 0.931 . S
C1936 C1933 1.429 . S
C1936 C1934 1.420 . S
C1936 N1944 1.362 . S
C1937 C1933 1.411 . S
C1937 C1935 1.420 . S
C1937 C1942 1.395 . S
C1938 C1934 1.423 . S
C1938 C1935 1.351 . S
C1938 H1950 0.930 . S
C1939 C1941 1.400 . S
C1939 C1942 1.386 . S
C1939 H1951 0.930 . S
N1940 C1933 1.377 . S
N1940 C1941 1.321 . S
N1940 Eu1943 2.609 . S
C1941 C1939 1.400 . S
C1941 N1940 1.321 . S
C1941 H1948 0.930 . S
C1942 C1937 1.395 . S
C1942 C1939 1.386 . S
C1942 H1961 0.930 . S
Eu1943 N1940 2.609 . S
Eu1943 N1944 2.657 . S
Eu1943 O1977 2.380 . S
Eu1943 O1978 2.432 . S
Eu1943 O1982 2.558 . S
Eu1943 O1983 2.612 . S
Eu1943 O1985 2.339 . S
Eu1943 O1986 2.563 . S
Eu1943 O1987 2.419 . S
Eu1943 C2007 2.848 . S
N1944 C1936 1.362 . S
N1944 Eu1943 2.657 . S
N1944 C1945 1.334 . S
C1945 N1944 1.334 . S
C1945 C1947 1.413 . S
C1945 H1952 0.929 . S
C1946 C1934 1.392 . S
C1946 C1947 1.367 . S
C1946 H1954 0.930 . S
C1947 C1945 1.413 . S
C1947 C1946 1.367 . S
C1947 H1949 0.930 . S
H1948 C1941 0.930 . S
H1949 C1947 0.930 . S
H1950 C1938 0.930 . S
H1951 C1939 0.930 . S
H1952 C1945 0.929 . S
H1953 C1967 0.930 . S
H1954 C1946 0.930 . S
H1955 C1973 0.930 . S
H1956 C1964 0.929 . S
H1957 C1971 0.930 . S
H1958 C1935 0.931 . S
H1959 C1965 0.930 . S
H1960 C1998 0.930 . S
H1961 C1942 0.930 . S
H1962 C1997 0.931 . S
N1963 Eu1932 2.657 . S
N1963 C1964 1.334 . S
N1963 C1968 1.362 . S
C1964 H1956 0.929 . S
C1964 N1963 1.334 . S
C1964 C1967 1.413 . S
C1965 H1959 0.930 . S
C1965 C1966 1.392 . S
C1965 C1967 1.367 . S
C1966 C1965 1.392 . S
C1966 C1968 1.420 . S
C1966 C1998 1.423 . S
C1967 H1953 0.930 . S
C1967 C1964 1.413 . S
C1967 C1965 1.367 . S
C1968 N1963 1.362 . S
C1968 C1966 1.420 . S
C1968 C1972 1.429 . S
H1969 C1974 0.930 . S
N1970 Eu1932 2.609 . S
N1970 C1972 1.377 . S
N1970 C1973 1.321 . S
C1971 H1957 0.930 . S
C1971 C1973 1.400 . S
C1971 C1974 1.386 . S
C1972 C1968 1.429 . S
C1972 N1970 1.377 . S
C1972 C1975 1.411 . S
C1973 H1955 0.930 . S
C1973 N1970 1.321 . S
C1973 C1971 1.400 . S
C1974 H1969 0.930 . S
C1974 C1971 1.386 . S
C1974 C1975 1.395 . S
C1975 C1972 1.411 . S
C1975 C1974 1.395 . S
C1975 C1997 1.420 . S
O1976 Eu1932 2.558 . S
O1976 C1996 1.257 . S
O1977 Eu1932 2.612 . S
O1977 Eu1943 2.380 . S
O1977 C1988 1.276 . S
O1978 Eu1943 2.432 . S
O1978 C1995 1.264 . S
O1979 Eu1932 2.339 . S
O1979 C1995 1.254 . S
O1980 Eu1932 2.563 . S
O1980 C1988 1.235 . S
O1981 Eu1932 2.419 . S
O1981 C1996 1.249 . S
O1982 Eu1943 2.558 . S
O1982 C2007 1.257 . S
O1983 Eu1932 2.380 . S
O1983 Eu1943 2.612 . S
O1983 C1999 1.276 . S
O1984 Eu1932 2.432 . S
O1984 C2006 1.264 . S
O1985 Eu1943 2.339 . S
O1985 C2006 1.254 . S
O1986 Eu1943 2.563 . S
O1986 C1999 1.235 . S
O1987 Eu1943 2.419 . S
O1987 C2007 1.249 . S
C1988 O1977 1.276 . S
C1988 O1980 1.235 . S
C1989 C1991 1.393 . S
C1989 C1993 1.395 . S
C1989 C1996 1.492 . S
C1990 C1991 1.392 . S
C1990 C1992 1.386 . S
C1991 C1989 1.393 . S
C1991 C1990 1.392 . S
C1991 H2008 0.930 . S
C1992 C1990 1.386 . S
C1992 C1994 1.395 . S
C1992 H2009 0.930 . S
C1993 C1989 1.395 . S
C1993 C1994 1.379 . S
C1993 H2010 0.930 . S
C1994 C1992 1.395 . S
C1994 C1993 1.379 . S
C1994 H2011 0.930 . S
C1995 O1978 1.264 . S
C1995 O1979 1.254 . S
C1996 Eu1932 2.848 . S
C1996 O1976 1.257 . S
C1996 O1981 1.249 . S
C1996 C1989 1.492 . S
C1997 H1962 0.931 . S
C1997 C1975 1.420 . S
C1997 C1998 1.351 . S
C1998 H1960 0.930 . S
C1998 C1966 1.423 . S
C1998 C1997 1.351 . S
C1999 O1983 1.276 . S
C1999 O1986 1.235 . S
C2000 C2001 1.393 . S
C2000 C2004 1.395 . S
C2000 C2007 1.492 . S
C2001 C2000 1.393 . S
C2001 C2002 1.392 . S
C2001 H2012 0.930 . S
C2002 C2001 1.392 . S
C2002 C2003 1.386 . S
C2003 C2002 1.386 . S
C2003 C2005 1.395 . S
C2003 H2013 0.930 . S
C2004 C2000 1.395 . S
C2004 C2005 1.379 . S
C2004 H2014 0.930 . S
C2005 C2003 1.395 . S
C2005 C2004 1.379 . S
C2005 H2015 0.930 . S
C2006 O1984 1.264 . S
C2006 O1985 1.254 . S
C2007 Eu1943 2.848 . S
C2007 O1982 1.257 . S
C2007 O1987 1.249 . S
C2007 C2000 1.492 . S
H2008 C1991 0.930 . S
H2009 C1992 0.930 . S
H2010 C1993 0.930 . S
H2011 C1994 0.930 . S
H2012 C2001 0.930 . S
H2013 C2003 0.930 . S
H2014 C2004 0.930 . S
H2015 C2005 0.930 . S
Eu2016 N2047 2.657 . S
Eu2016 N2054 2.609 . S
Eu2016 O2060 2.558 . S
Eu2016 O2061 2.612 . S
Eu2016 O2063 2.339 . S
Eu2016 O2064 2.563 . S
Eu2016 O2065 2.419 . S
Eu2016 O2067 2.380 . S
Eu2016 O2068 2.432 . S
Eu2016 C2080 2.848 . S
C2017 C2020 1.429 . S
C2017 C2021 1.411 . S
C2017 N2024 1.377 . S
C2018 C2020 1.420 . S
C2018 C2022 1.423 . S
C2018 C2030 1.392 . S
C2019 C2021 1.420 . S
C2019 C2022 1.351 . S
C2019 H2042 0.931 . S
C2020 C2017 1.429 . S
C2020 C2018 1.420 . S
C2020 N2028 1.362 . S
C2021 C2017 1.411 . S
C2021 C2019 1.420 . S
C2021 C2026 1.395 . S
C2022 C2018 1.423 . S
C2022 C2019 1.351 . S
C2022 H2034 0.930 . S
C2023 C2025 1.400 . S
C2023 C2026 1.386 . S
C2023 H2035 0.930 . S
N2024 C2017 1.377 . S
N2024 C2025 1.321 . S
N2024 Eu2027 2.609 . S
C2025 C2023 1.400 . S
C2025 N2024 1.321 . S
C2025 H2032 0.930 . S
C2026 C2021 1.395 . S
C2026 C2023 1.386 . S
C2026 H2045 0.930 . S
Eu2027 N2024 2.609 . S
Eu2027 N2028 2.657 . S
Eu2027 O2061 2.380 . S
Eu2027 O2062 2.432 . S
Eu2027 O2066 2.558 . S
Eu2027 O2067 2.612 . S
Eu2027 O2069 2.339 . S
Eu2027 O2070 2.563 . S
Eu2027 O2071 2.419 . S
Eu2027 C2091 2.848 . S
N2028 C2020 1.362 . S
N2028 Eu2027 2.657 . S
N2028 C2029 1.334 . S
C2029 N2028 1.334 . S
C2029 C2031 1.413 . S
C2029 H2036 0.929 . S
C2030 C2018 1.392 . S
C2030 C2031 1.367 . S
C2030 H2038 0.930 . S
C2031 C2029 1.413 . S
C2031 C2030 1.367 . S
C2031 H2033 0.930 . S
H2032 C2025 0.930 . S
H2033 C2031 0.930 . S
H2034 C2022 0.930 . S
H2035 C2023 0.930 . S
H2036 C2029 0.929 . S
H2037 C2051 0.930 . S
H2038 C2030 0.930 . S
H2039 C2057 0.930 . S
H2040 C2048 0.929 . S
H2041 C2055 0.930 . S
H2042 C2019 0.931 . S
H2043 C2049 0.930 . S
H2044 C2082 0.930 . S
H2045 C2026 0.930 . S
H2046 C2081 0.931 . S
N2047 Eu2016 2.657 . S
N2047 C2048 1.334 . S
N2047 C2052 1.362 . S
C2048 H2040 0.929 . S
C2048 N2047 1.334 . S
C2048 C2051 1.413 . S
C2049 H2043 0.930 . S
C2049 C2050 1.392 . S
C2049 C2051 1.367 . S
C2050 C2049 1.392 . S
C2050 C2052 1.420 . S
C2050 C2082 1.423 . S
C2051 H2037 0.930 . S
C2051 C2048 1.413 . S
C2051 C2049 1.367 . S
C2052 N2047 1.362 . S
C2052 C2050 1.420 . S
C2052 C2056 1.429 . S
H2053 C2058 0.930 . S
N2054 Eu2016 2.609 . S
N2054 C2056 1.377 . S
N2054 C2057 1.321 . S
C2055 H2041 0.930 . S
C2055 C2057 1.400 . S
C2055 C2058 1.386 . S
C2056 C2052 1.429 . S
C2056 N2054 1.377 . S
C2056 C2059 1.411 . S
C2057 H2039 0.930 . S
C2057 N2054 1.321 . S
C2057 C2055 1.400 . S
C2058 H2053 0.930 . S
C2058 C2055 1.386 . S
C2058 C2059 1.395 . S
C2059 C2056 1.411 . S
C2059 C2058 1.395 . S
C2059 C2081 1.420 . S
O2060 Eu2016 2.558 . S
O2060 C2080 1.257 . S
O2061 Eu2016 2.612 . S
O2061 Eu2027 2.380 . S
O2061 C2072 1.276 . S
O2062 Eu2027 2.432 . S
O2062 C2079 1.264 . S
O2063 Eu2016 2.339 . S
O2063 C2079 1.254 . S
O2064 Eu2016 2.563 . S
O2064 C2072 1.235 . S
O2065 Eu2016 2.419 . S
O2065 C2080 1.249 . S
O2066 Eu2027 2.558 . S
O2066 C2091 1.257 . S
O2067 Eu2016 2.380 . S
O2067 Eu2027 2.612 . S
O2067 C2083 1.276 . S
O2068 Eu2016 2.432 . S
O2068 C2090 1.264 . S
O2069 Eu2027 2.339 . S
O2069 C2090 1.254 . S
O2070 Eu2027 2.563 . S
O2070 C2083 1.235 . S
O2071 Eu2027 2.419 . S
O2071 C2091 1.249 . S
C2072 O2061 1.276 . S
C2072 O2064 1.235 . S
C2073 C2075 1.393 . S
C2073 C2077 1.395 . S
C2073 C2080 1.492 . S
C2074 C2075 1.392 . S
C2074 C2076 1.386 . S
C2075 C2073 1.393 . S
C2075 C2074 1.392 . S
C2075 H2092 0.930 . S
C2076 C2074 1.386 . S
C2076 C2078 1.395 . S
C2076 H2093 0.930 . S
C2077 C2073 1.395 . S
C2077 C2078 1.379 . S
C2077 H2094 0.930 . S
C2078 C2076 1.395 . S
C2078 C2077 1.379 . S
C2078 H2095 0.930 . S
C2079 O2062 1.264 . S
C2079 O2063 1.254 . S
C2080 Eu2016 2.848 . S
C2080 O2060 1.257 . S
C2080 O2065 1.249 . S
C2080 C2073 1.492 . S
C2081 H2046 0.931 . S
C2081 C2059 1.420 . S
C2081 C2082 1.351 . S
C2082 H2044 0.930 . S
C2082 C2050 1.423 . S
C2082 C2081 1.351 . S
C2083 O2067 1.276 . S
C2083 O2070 1.235 . S
C2084 C2085 1.393 . S
C2084 C2088 1.395 . S
C2084 C2091 1.492 . S
C2085 C2084 1.393 . S
C2085 C2086 1.392 . S
C2085 H2096 0.930 . S
C2086 C2085 1.392 . S
C2086 C2087 1.386 . S
C2087 C2086 1.386 . S
C2087 C2089 1.395 . S
C2087 H2097 0.930 . S
C2088 C2084 1.395 . S
C2088 C2089 1.379 . S
C2088 H2098 0.930 . S
C2089 C2087 1.395 . S
C2089 C2088 1.379 . S
C2089 H2099 0.930 . S
C2090 O2068 1.264 . S
C2090 O2069 1.254 . S
C2091 Eu2027 2.848 . S
C2091 O2066 1.257 . S
C2091 O2071 1.249 . S
C2091 C2084 1.492 . S
H2092 C2075 0.930 . S
H2093 C2076 0.930 . S
H2094 C2077 0.930 . S
H2095 C2078 0.930 . S
H2096 C2085 0.930 . S
H2097 C2087 0.930 . S
H2098 C2088 0.930 . S
H2099 C2089 0.930 . S
Eu2100 N2131 2.657 . S
Eu2100 N2138 2.609 . S
Eu2100 O2144 2.558 . S
Eu2100 O2145 2.612 . S
Eu2100 O2147 2.339 . S
Eu2100 O2148 2.563 . S
Eu2100 O2149 2.419 . S
Eu2100 O2151 2.380 . S
Eu2100 O2152 2.432 . S
Eu2100 C2164 2.848 . S
C2101 C2104 1.429 . S
C2101 C2105 1.411 . S
C2101 N2108 1.377 . S
C2102 C2104 1.420 . S
C2102 C2106 1.423 . S
C2102 C2114 1.392 . S
C2103 C2105 1.420 . S
C2103 C2106 1.351 . S
C2103 H2126 0.931 . S
C2104 C2101 1.429 . S
C2104 C2102 1.420 . S
C2104 N2112 1.362 . S
C2105 C2101 1.411 . S
C2105 C2103 1.420 . S
C2105 C2110 1.395 . S
C2106 C2102 1.423 . S
C2106 C2103 1.351 . S
C2106 H2118 0.930 . S
C2107 C2109 1.400 . S
C2107 C2110 1.386 . S
C2107 H2119 0.930 . S
N2108 C2101 1.377 . S
N2108 C2109 1.321 . S
N2108 Eu2111 2.609 . S
C2109 C2107 1.400 . S
C2109 N2108 1.321 . S
C2109 H2116 0.930 . S
C2110 C2105 1.395 . S
C2110 C2107 1.386 . S
C2110 H2129 0.930 . S
Eu2111 N2108 2.609 . S
Eu2111 N2112 2.657 . S
Eu2111 O2145 2.380 . S
Eu2111 O2146 2.432 . S
Eu2111 O2150 2.558 . S
Eu2111 O2151 2.612 . S
Eu2111 O2153 2.339 . S
Eu2111 O2154 2.563 . S
Eu2111 O2155 2.419 . S
Eu2111 C2175 2.848 . S
N2112 C2104 1.362 . S
N2112 Eu2111 2.657 . S
N2112 C2113 1.334 . S
C2113 N2112 1.334 . S
C2113 C2115 1.413 . S
C2113 H2120 0.929 . S
C2114 C2102 1.392 . S
C2114 C2115 1.367 . S
C2114 H2122 0.930 . S
C2115 C2113 1.413 . S
C2115 C2114 1.367 . S
C2115 H2117 0.930 . S
H2116 C2109 0.930 . S
H2117 C2115 0.930 . S
H2118 C2106 0.930 . S
H2119 C2107 0.930 . S
H2120 C2113 0.929 . S
H2121 C2135 0.930 . S
H2122 C2114 0.930 . S
H2123 C2141 0.930 . S
H2124 C2132 0.929 . S
H2125 C2139 0.930 . S
H2126 C2103 0.931 . S
H2127 C2133 0.930 . S
H2128 C2166 0.930 . S
H2129 C2110 0.930 . S
H2130 C2165 0.931 . S
N2131 Eu2100 2.657 . S
N2131 C2132 1.334 . S
N2131 C2136 1.362 . S
C2132 H2124 0.929 . S
C2132 N2131 1.334 . S
C2132 C2135 1.413 . S
C2133 H2127 0.930 . S
C2133 C2134 1.392 . S
C2133 C2135 1.367 . S
C2134 C2133 1.392 . S
C2134 C2136 1.420 . S
C2134 C2166 1.423 . S
C2135 H2121 0.930 . S
C2135 C2132 1.413 . S
C2135 C2133 1.367 . S
C2136 N2131 1.362 . S
C2136 C2134 1.420 . S
C2136 C2140 1.429 . S
H2137 C2142 0.930 . S
N2138 Eu2100 2.609 . S
N2138 C2140 1.377 . S
N2138 C2141 1.321 . S
C2139 H2125 0.930 . S
C2139 C2141 1.400 . S
C2139 C2142 1.386 . S
C2140 C2136 1.429 . S
C2140 N2138 1.377 . S
C2140 C2143 1.411 . S
C2141 H2123 0.930 . S
C2141 N2138 1.321 . S
C2141 C2139 1.400 . S
C2142 H2137 0.930 . S
C2142 C2139 1.386 . S
C2142 C2143 1.395 . S
C2143 C2140 1.411 . S
C2143 C2142 1.395 . S
C2143 C2165 1.420 . S
O2144 Eu2100 2.558 . S
O2144 C2164 1.257 . S
O2145 Eu2100 2.612 . S
O2145 Eu2111 2.380 . S
O2145 C2156 1.276 . S
O2146 Eu2111 2.432 . S
O2146 C2163 1.264 . S
O2147 Eu2100 2.339 . S
O2147 C2163 1.254 . S
O2148 Eu2100 2.563 . S
O2148 C2156 1.235 . S
O2149 Eu2100 2.419 . S
O2149 C2164 1.249 . S
O2150 Eu2111 2.558 . S
O2150 C2175 1.257 . S
O2151 Eu2100 2.380 . S
O2151 Eu2111 2.612 . S
O2151 C2167 1.276 . S
O2152 Eu2100 2.432 . S
O2152 C2174 1.264 . S
O2153 Eu2111 2.339 . S
O2153 C2174 1.254 . S
O2154 Eu2111 2.563 . S
O2154 C2167 1.235 . S
O2155 Eu2111 2.419 . S
O2155 C2175 1.249 . S
C2156 O2145 1.276 . S
C2156 O2148 1.235 . S
C2157 C2159 1.393 . S
C2157 C2161 1.395 . S
C2157 C2164 1.492 . S
C2158 C2159 1.392 . S
C2158 C2160 1.386 . S
C2159 C2157 1.393 . S
C2159 C2158 1.392 . S
C2159 H2176 0.930 . S
C2160 C2158 1.386 . S
C2160 C2162 1.395 . S
C2160 H2177 0.930 . S
C2161 C2157 1.395 . S
C2161 C2162 1.379 . S
C2161 H2178 0.930 . S
C2162 C2160 1.395 . S
C2162 C2161 1.379 . S
C2162 H2179 0.930 . S
C2163 O2146 1.264 . S
C2163 O2147 1.254 . S
C2164 Eu2100 2.848 . S
C2164 O2144 1.257 . S
C2164 O2149 1.249 . S
C2164 C2157 1.492 . S
C2165 H2130 0.931 . S
C2165 C2143 1.420 . S
C2165 C2166 1.351 . S
C2166 H2128 0.930 . S
C2166 C2134 1.423 . S
C2166 C2165 1.351 . S
C2167 O2151 1.276 . S
C2167 O2154 1.235 . S
C2168 C2169 1.393 . S
C2168 C2172 1.395 . S
C2168 C2175 1.492 . S
C2169 C2168 1.393 . S
C2169 C2170 1.392 . S
C2169 H2180 0.930 . S
C2170 C2169 1.392 . S
C2170 C2171 1.386 . S
C2171 C2170 1.386 . S
C2171 C2173 1.395 . S
C2171 H2181 0.930 . S
C2172 C2168 1.395 . S
C2172 C2173 1.379 . S
C2172 H2182 0.930 . S
C2173 C2171 1.395 . S
C2173 C2172 1.379 . S
C2173 H2183 0.930 . S
C2174 O2152 1.264 . S
C2174 O2153 1.254 . S
C2175 Eu2111 2.848 . S
C2175 O2150 1.257 . S
C2175 O2155 1.249 . S
C2175 C2168 1.492 . S
H2176 C2159 0.930 . S
H2177 C2160 0.930 . S
H2178 C2161 0.930 . S
H2179 C2162 0.930 . S
H2180 C2169 0.930 . S
H2181 C2171 0.930 . S
H2182 C2172 0.930 . S
H2183 C2173 0.930 . S
Eu2184 N2215 2.657 . S
Eu2184 N2222 2.609 . S
Eu2184 O2228 2.558 . S
Eu2184 O2229 2.612 . S
Eu2184 O2231 2.339 . S
Eu2184 O2232 2.563 . S
Eu2184 O2233 2.419 . S
Eu2184 O2235 2.380 . S
Eu2184 O2236 2.432 . S
Eu2184 C2248 2.848 . S
C2185 C2188 1.429 . S
C2185 C2189 1.411 . S
C2185 N2192 1.377 . S
C2186 C2188 1.420 . S
C2186 C2190 1.423 . S
C2186 C2198 1.392 . S
C2187 C2189 1.420 . S
C2187 C2190 1.351 . S
C2187 H2210 0.931 . S
C2188 C2185 1.429 . S
C2188 C2186 1.420 . S
C2188 N2196 1.362 . S
C2189 C2185 1.411 . S
C2189 C2187 1.420 . S
C2189 C2194 1.395 . S
C2190 C2186 1.423 . S
C2190 C2187 1.351 . S
C2190 H2202 0.930 . S
C2191 C2193 1.400 . S
C2191 C2194 1.386 . S
C2191 H2203 0.930 . S
N2192 C2185 1.377 . S
N2192 C2193 1.321 . S
N2192 Eu2195 2.609 . S
C2193 C2191 1.400 . S
C2193 N2192 1.321 . S
C2193 H2200 0.930 . S
C2194 C2189 1.395 . S
C2194 C2191 1.386 . S
C2194 H2213 0.930 . S
Eu2195 N2192 2.609 . S
Eu2195 N2196 2.657 . S
Eu2195 O2229 2.380 . S
Eu2195 O2230 2.432 . S
Eu2195 O2234 2.558 . S
Eu2195 O2235 2.612 . S
Eu2195 O2237 2.339 . S
Eu2195 O2238 2.563 . S
Eu2195 O2239 2.419 . S
Eu2195 C2259 2.848 . S
N2196 C2188 1.362 . S
N2196 Eu2195 2.657 . S
N2196 C2197 1.334 . S
C2197 N2196 1.334 . S
C2197 C2199 1.413 . S
C2197 H2204 0.929 . S
C2198 C2186 1.392 . S
C2198 C2199 1.367 . S
C2198 H2206 0.930 . S
C2199 C2197 1.413 . S
C2199 C2198 1.367 . S
C2199 H2201 0.930 . S
H2200 C2193 0.930 . S
H2201 C2199 0.930 . S
H2202 C2190 0.930 . S
H2203 C2191 0.930 . S
H2204 C2197 0.929 . S
H2205 C2219 0.930 . S
H2206 C2198 0.930 . S
H2207 C2225 0.930 . S
H2208 C2216 0.929 . S
H2209 C2223 0.930 . S
H2210 C2187 0.931 . S
H2211 C2217 0.930 . S
H2212 C2250 0.930 . S
H2213 C2194 0.930 . S
H2214 C2249 0.931 . S
N2215 Eu2184 2.657 . S
N2215 C2216 1.334 . S
N2215 C2220 1.362 . S
C2216 H2208 0.929 . S
C2216 N2215 1.334 . S
C2216 C2219 1.413 . S
C2217 H2211 0.930 . S
C2217 C2218 1.392 . S
C2217 C2219 1.367 . S
C2218 C2217 1.392 . S
C2218 C2220 1.420 . S
C2218 C2250 1.423 . S
C2219 H2205 0.930 . S
C2219 C2216 1.413 . S
C2219 C2217 1.367 . S
C2220 N2215 1.362 . S
C2220 C2218 1.420 . S
C2220 C2224 1.429 . S
H2221 C2226 0.930 . S
N2222 Eu2184 2.609 . S
N2222 C2224 1.377 . S
N2222 C2225 1.321 . S
C2223 H2209 0.930 . S
C2223 C2225 1.400 . S
C2223 C2226 1.386 . S
C2224 C2220 1.429 . S
C2224 N2222 1.377 . S
C2224 C2227 1.411 . S
C2225 H2207 0.930 . S
C2225 N2222 1.321 . S
C2225 C2223 1.400 . S
C2226 H2221 0.930 . S
C2226 C2223 1.386 . S
C2226 C2227 1.395 . S
C2227 C2224 1.411 . S
C2227 C2226 1.395 . S
C2227 C2249 1.420 . S
O2228 Eu2184 2.558 . S
O2228 C2248 1.257 . S
O2229 Eu2184 2.612 . S
O2229 Eu2195 2.380 . S
O2229 C2240 1.276 . S
O2230 Eu2195 2.432 . S
O2230 C2247 1.264 . S
O2231 Eu2184 2.339 . S
O2231 C2247 1.254 . S
O2232 Eu2184 2.563 . S
O2232 C2240 1.235 . S
O2233 Eu2184 2.419 . S
O2233 C2248 1.249 . S
O2234 Eu2195 2.558 . S
O2234 C2259 1.257 . S
O2235 Eu2184 2.380 . S
O2235 Eu2195 2.612 . S
O2235 C2251 1.276 . S
O2236 Eu2184 2.432 . S
O2236 C2258 1.264 . S
O2237 Eu2195 2.339 . S
O2237 C2258 1.254 . S
O2238 Eu2195 2.563 . S
O2238 C2251 1.235 . S
O2239 Eu2195 2.419 . S
O2239 C2259 1.249 . S
C2240 O2229 1.276 . S
C2240 O2232 1.235 . S
C2241 C2243 1.393 . S
C2241 C2245 1.395 . S
C2241 C2248 1.492 . S
C2242 C2243 1.392 . S
C2242 C2244 1.386 . S
C2243 C2241 1.393 . S
C2243 C2242 1.392 . S
C2243 H2260 0.930 . S
C2244 C2242 1.386 . S
C2244 C2246 1.395 . S
C2244 H2261 0.930 . S
C2245 C2241 1.395 . S
C2245 C2246 1.379 . S
C2245 H2262 0.930 . S
C2246 C2244 1.395 . S
C2246 C2245 1.379 . S
C2246 H2263 0.930 . S
C2247 O2230 1.264 . S
C2247 O2231 1.254 . S
C2248 Eu2184 2.848 . S
C2248 O2228 1.257 . S
C2248 O2233 1.249 . S
C2248 C2241 1.492 . S
C2249 H2214 0.931 . S
C2249 C2227 1.420 . S
C2249 C2250 1.351 . S
C2250 H2212 0.930 . S
C2250 C2218 1.423 . S
C2250 C2249 1.351 . S
C2251 O2235 1.276 . S
C2251 O2238 1.235 . S
C2252 C2253 1.393 . S
C2252 C2256 1.395 . S
C2252 C2259 1.492 . S
C2253 C2252 1.393 . S
C2253 C2254 1.392 . S
C2253 H2264 0.930 . S
C2254 C2253 1.392 . S
C2254 C2255 1.386 . S
C2255 C2254 1.386 . S
C2255 C2257 1.395 . S
C2255 H2265 0.930 . S
C2256 C2252 1.395 . S
C2256 C2257 1.379 . S
C2256 H2266 0.930 . S
C2257 C2255 1.395 . S
C2257 C2256 1.379 . S
C2257 H2267 0.930 . S
C2258 O2236 1.264 . S
C2258 O2237 1.254 . S
C2259 Eu2195 2.848 . S
C2259 O2234 1.257 . S
C2259 O2239 1.249 . S
C2259 C2252 1.492 . S
H2260 C2243 0.930 . S
H2261 C2244 0.930 . S
H2262 C2245 0.930 . S
H2263 C2246 0.930 . S
H2264 C2253 0.930 . S
H2265 C2255 0.930 . S
H2266 C2256 0.930 . S
H2267 C2257 0.930 . S
Eu2268 N2299 2.657 . S
Eu2268 N2306 2.609 . S
Eu2268 O2312 2.558 . S
Eu2268 O2313 2.612 . S
Eu2268 O2315 2.339 . S
Eu2268 O2316 2.563 . S
Eu2268 O2317 2.419 . S
Eu2268 O2319 2.380 . S
Eu2268 O2320 2.432 . S
Eu2268 C2332 2.848 . S
C2269 C2272 1.429 . S
C2269 C2273 1.411 . S
C2269 N2276 1.377 1_655 S
C2270 C2272 1.420 . S
C2270 C2274 1.423 . S
C2270 C2282 1.392 . S
C2271 C2273 1.420 . S
C2271 C2274 1.351 . S
C2271 H2294 0.931 . S
C2272 C2269 1.429 . S
C2272 C2270 1.420 . S
C2272 N2280 1.362 . S
C2273 C2269 1.411 . S
C2273 C2271 1.420 . S
C2273 C2278 1.395 . S
C2274 C2270 1.423 . S
C2274 C2271 1.351 . S
C2274 H2286 0.930 . S
C2275 C2277 1.390 1_655 S
C2275 C2278 1.404 . S
C2275 H2287 0.922 1_655 S
N2276 C2269 1.377 1_455 S
N2276 C2277 1.321 . S
N2276 Eu2279 2.609 . S
C2277 C2275 1.390 1_455 S
C2277 N2276 1.321 . S
C2277 H2284 0.930 . S
C2278 C2273 1.395 . S
C2278 C2275 1.404 . S
C2278 H2297 0.930 . S
Eu2279 N2276 2.609 . S
Eu2279 N2280 2.657 1_455 S
Eu2279 O2313 2.380 . S
Eu2279 O2314 2.432 . S
Eu2279 O2318 2.558 . S
Eu2279 O2319 2.612 . S
Eu2279 O2321 2.339 . S
Eu2279 O2322 2.563 . S
Eu2279 O2323 2.419 1_455 S
Eu2279 C2343 2.848 1_455 S
N2280 C2272 1.362 . S
N2280 Eu2279 2.657 1_655 S
N2280 C2281 1.334 . S
C2281 N2280 1.334 . S
C2281 C2283 1.413 . S
C2281 H2288 0.929 . S
C2282 C2270 1.392 . S
C2282 C2283 1.367 . S
C2282 H2290 0.930 . S
C2283 C2281 1.413 . S
C2283 C2282 1.367 . S
C2283 H2285 0.930 . S
H2284 C2277 0.930 . S
H2285 C2283 0.930 . S
H2286 C2274 0.930 . S
H2287 C2275 0.922 1_455 S
H2288 C2281 0.929 . S
H2289 C2303 0.930 . S
H2290 C2282 0.930 . S
H2291 C2309 0.930 . S
H2292 C2300 0.929 . S
H2293 C2307 0.930 . S
H2294 C2271 0.931 . S
H2295 C2301 0.930 . S
H2296 C2334 0.930 . S
H2297 C2278 0.930 . S
H2298 C2333 0.931 . S
N2299 Eu2268 2.657 . S
N2299 C2300 1.334 . S
N2299 C2304 1.362 . S
C2300 H2292 0.929 . S
C2300 N2299 1.334 . S
C2300 C2303 1.413 . S
C2301 H2295 0.930 . S
C2301 C2302 1.392 . S
C2301 C2303 1.367 . S
C2302 C2301 1.392 . S
C2302 C2304 1.420 . S
C2302 C2334 1.423 . S
C2303 H2289 0.930 . S
C2303 C2300 1.413 . S
C2303 C2301 1.367 . S
C2304 N2299 1.362 . S
C2304 C2302 1.420 . S
C2304 C2308 1.429 . S
H2305 C2310 0.930 . S
N2306 Eu2268 2.609 . S
N2306 C2308 1.377 . S
N2306 C2309 1.321 . S
C2307 H2293 0.930 . S
C2307 C2309 1.400 . S
C2307 C2310 1.386 . S
C2308 C2304 1.429 . S
C2308 N2306 1.377 . S
C2308 C2311 1.411 . S
C2309 H2291 0.930 . S
C2309 N2306 1.321 . S
C2309 C2307 1.400 . S
C2310 H2305 0.930 . S
C2310 C2307 1.386 . S
C2310 C2311 1.395 . S
C2311 C2308 1.411 . S
C2311 C2310 1.395 . S
C2311 C2333 1.420 . S
O2312 Eu2268 2.558 . S
O2312 C2332 1.257 . S
O2313 Eu2268 2.612 . S
O2313 Eu2279 2.380 . S
O2313 C2324 1.276 . S
O2314 Eu2279 2.432 . S
O2314 C2331 1.264 . S
O2315 Eu2268 2.339 . S
O2315 C2331 1.254 . S
O2316 Eu2268 2.563 . S
O2316 C2324 1.235 . S
O2317 Eu2268 2.419 . S
O2317 C2332 1.249 . S
O2318 Eu2279 2.558 . S
O2318 C2343 1.257 1_455 S
O2319 Eu2268 2.380 . S
O2319 Eu2279 2.612 . S
O2319 C2335 1.276 . S
O2320 Eu2268 2.432 . S
O2320 C2342 1.264 . S
O2321 Eu2279 2.339 . S
O2321 C2342 1.254 . S
O2322 Eu2279 2.563 . S
O2322 C2335 1.235 . S
O2323 Eu2279 2.419 1_655 S
O2323 C2343 1.249 . S
C2324 O2313 1.276 . S
C2324 O2316 1.235 . S
C2325 C2327 1.393 . S
C2325 C2329 1.395 . S
C2325 C2332 1.492 . S
C2326 C2327 1.392 . S
C2326 C2328 1.386 . S
C2327 C2325 1.393 . S
C2327 C2326 1.392 . S
C2327 H2344 0.930 . S
C2328 C2326 1.386 . S
C2328 C2330 1.395 . S
C2328 H2345 0.930 . S
C2329 C2325 1.395 . S
C2329 C2330 1.379 . S
C2329 H2346 0.930 . S
C2330 C2328 1.395 . S
C2330 C2329 1.379 . S
C2330 H2347 0.930 . S
C2331 O2314 1.264 . S
C2331 O2315 1.254 . S
C2332 Eu2268 2.848 . S
C2332 O2312 1.257 . S
C2332 O2317 1.249 . S
C2332 C2325 1.492 . S
C2333 H2298 0.931 . S
C2333 C2311 1.420 . S
C2333 C2334 1.351 . S
C2334 H2296 0.930 . S
C2334 C2302 1.423 . S
C2334 C2333 1.351 . S
C2335 O2319 1.276 . S
C2335 O2322 1.235 . S
C2336 C2337 1.393 . S
C2336 C2340 1.395 . S
C2336 C2343 1.492 . S
C2337 C2336 1.393 . S
C2337 C2338 1.392 . S
C2337 H2348 0.930 . S
C2338 C2337 1.392 . S
C2338 C2339 1.386 . S
C2339 C2338 1.386 . S
C2339 C2341 1.395 . S
C2339 H2349 0.930 . S
C2340 C2336 1.395 . S
C2340 C2341 1.379 . S
C2340 H2350 0.930 . S
C2341 C2339 1.395 . S
C2341 C2340 1.379 . S
C2341 H2351 0.930 . S
C2342 O2320 1.264 . S
C2342 O2321 1.254 . S
C2343 Eu2279 2.848 1_655 S
C2343 O2318 1.257 1_655 S
C2343 O2323 1.249 . S
C2343 C2336 1.492 . S
H2344 C2327 0.930 . S
H2345 C2328 0.930 . S
H2346 C2329 0.930 . S
H2347 C2330 0.930 . S
H2348 C2337 0.930 . S
H2349 C2339 0.930 . S
H2350 C2340 0.930 . S
H2351 C2341 0.930 . S
Eu2352 N2383 2.657 . S
Eu2352 N2390 2.609 . S
Eu2352 O2396 2.558 . S
Eu2352 O2397 2.612 . S
Eu2352 O2399 2.339 . S
Eu2352 O2400 2.563 . S
Eu2352 O2401 2.419 . S
Eu2352 O2403 2.380 . S
Eu2352 O2404 2.432 . S
Eu2352 C2416 2.848 . S
C2353 C2356 1.429 . S
C2353 C2357 1.411 . S
C2353 N2360 1.377 . S
C2354 C2356 1.420 . S
C2354 C2358 1.423 . S
C2354 C2366 1.392 . S
C2355 C2357 1.420 . S
C2355 C2358 1.351 . S
C2355 H2378 0.931 . S
C2356 C2353 1.429 . S
C2356 C2354 1.420 . S
C2356 N2364 1.362 . S
C2357 C2353 1.411 . S
C2357 C2355 1.420 . S
C2357 C2362 1.395 . S
C2358 C2354 1.423 . S
C2358 C2355 1.351 . S
C2358 H2370 0.930 . S
C2359 C2361 1.400 . S
C2359 C2362 1.386 . S
C2359 H2371 0.930 . S
N2360 C2353 1.377 . S
N2360 C2361 1.321 . S
N2360 Eu2363 2.609 . S
C2361 C2359 1.400 . S
C2361 N2360 1.321 . S
C2361 H2368 0.930 . S
C2362 C2357 1.395 . S
C2362 C2359 1.386 . S
C2362 H2381 0.930 . S
Eu2363 N2360 2.609 . S
Eu2363 N2364 2.657 . S
Eu2363 O2397 2.380 . S
Eu2363 O2398 2.432 . S
Eu2363 O2402 2.558 . S
Eu2363 O2403 2.612 . S
Eu2363 O2405 2.339 . S
Eu2363 O2406 2.563 . S
Eu2363 O2407 2.419 . S
Eu2363 C2427 2.848 . S
N2364 C2356 1.362 . S
N2364 Eu2363 2.657 . S
N2364 C2365 1.334 . S
C2365 N2364 1.334 . S
C2365 C2367 1.413 . S
C2365 H2372 0.929 . S
C2366 C2354 1.392 . S
C2366 C2367 1.367 . S
C2366 H2374 0.930 . S
C2367 C2365 1.413 . S
C2367 C2366 1.367 . S
C2367 H2369 0.930 . S
H2368 C2361 0.930 . S
H2369 C2367 0.930 . S
H2370 C2358 0.930 . S
H2371 C2359 0.930 . S
H2372 C2365 0.929 . S
H2373 C2387 0.930 . S
H2374 C2366 0.930 . S
H2375 C2393 0.930 . S
H2376 C2384 0.929 . S
H2377 C2391 0.930 . S
H2378 C2355 0.931 . S
H2379 C2385 0.930 . S
H2380 C2418 0.930 . S
H2381 C2362 0.930 . S
H2382 C2417 0.931 . S
N2383 Eu2352 2.657 . S
N2383 C2384 1.334 . S
N2383 C2388 1.362 . S
C2384 H2376 0.929 . S
C2384 N2383 1.334 . S
C2384 C2387 1.413 . S
C2385 H2379 0.930 . S
C2385 C2386 1.392 . S
C2385 C2387 1.367 . S
C2386 C2385 1.392 . S
C2386 C2388 1.420 . S
C2386 C2418 1.423 . S
C2387 H2373 0.930 . S
C2387 C2384 1.413 . S
C2387 C2385 1.367 . S
C2388 N2383 1.362 . S
C2388 C2386 1.420 . S
C2388 C2392 1.429 . S
H2389 C2394 0.930 . S
N2390 Eu2352 2.609 . S
N2390 C2392 1.377 . S
N2390 C2393 1.321 . S
C2391 H2377 0.930 . S
C2391 C2393 1.400 . S
C2391 C2394 1.386 . S
C2392 C2388 1.429 . S
C2392 N2390 1.377 . S
C2392 C2395 1.411 . S
C2393 H2375 0.930 . S
C2393 N2390 1.321 . S
C2393 C2391 1.400 . S
C2394 H2389 0.930 . S
C2394 C2391 1.386 . S
C2394 C2395 1.395 . S
C2395 C2392 1.411 . S
C2395 C2394 1.395 . S
C2395 C2417 1.420 . S
O2396 Eu2352 2.558 . S
O2396 C2416 1.257 . S
O2397 Eu2352 2.612 . S
O2397 Eu2363 2.380 . S
O2397 C2408 1.276 . S
O2398 Eu2363 2.432 . S
O2398 C2415 1.264 . S
O2399 Eu2352 2.339 . S
O2399 C2415 1.254 . S
O2400 Eu2352 2.563 . S
O2400 C2408 1.235 . S
O2401 Eu2352 2.419 . S
O2401 C2416 1.249 . S
O2402 Eu2363 2.558 . S
O2402 C2427 1.257 . S
O2403 Eu2352 2.380 . S
O2403 Eu2363 2.612 . S
O2403 C2419 1.276 . S
O2404 Eu2352 2.432 . S
O2404 C2426 1.264 . S
O2405 Eu2363 2.339 . S
O2405 C2426 1.254 . S
O2406 Eu2363 2.563 . S
O2406 C2419 1.235 . S
O2407 Eu2363 2.419 . S
O2407 C2427 1.249 . S
C2408 O2397 1.276 . S
C2408 O2400 1.235 . S
C2409 C2411 1.393 . S
C2409 C2413 1.395 . S
C2409 C2416 1.492 . S
C2410 C2411 1.392 . S
C2410 C2412 1.386 . S
C2411 C2409 1.393 . S
C2411 C2410 1.392 . S
C2411 H2428 0.930 . S
C2412 C2410 1.386 . S
C2412 C2414 1.395 . S
C2412 H2429 0.930 . S
C2413 C2409 1.395 . S
C2413 C2414 1.379 . S
C2413 H2430 0.930 . S
C2414 C2412 1.395 . S
C2414 C2413 1.379 . S
C2414 H2431 0.930 . S
C2415 O2398 1.264 . S
C2415 O2399 1.254 . S
C2416 Eu2352 2.848 . S
C2416 O2396 1.257 . S
C2416 O2401 1.249 . S
C2416 C2409 1.492 . S
C2417 H2382 0.931 . S
C2417 C2395 1.420 . S
C2417 C2418 1.351 . S
C2418 H2380 0.930 . S
C2418 C2386 1.423 . S
C2418 C2417 1.351 . S
C2419 O2403 1.276 . S
C2419 O2406 1.235 . S
C2420 C2421 1.393 . S
C2420 C2424 1.395 . S
C2420 C2427 1.492 . S
C2421 C2420 1.393 . S
C2421 C2422 1.392 . S
C2421 H2432 0.930 . S
C2422 C2421 1.392 . S
C2422 C2423 1.386 . S
C2423 C2422 1.386 . S
C2423 C2425 1.395 . S
C2423 H2433 0.930 . S
C2424 C2420 1.395 . S
C2424 C2425 1.379 . S
C2424 H2434 0.930 . S
C2425 C2423 1.395 . S
C2425 C2424 1.379 . S
C2425 H2435 0.930 . S
C2426 O2404 1.264 . S
C2426 O2405 1.254 . S
C2427 Eu2363 2.848 . S
C2427 O2402 1.257 . S
C2427 O2407 1.249 . S
C2427 C2420 1.492 . S
H2428 C2411 0.930 . S
H2429 C2412 0.930 . S
H2430 C2413 0.930 . S
H2431 C2414 0.930 . S
H2432 C2421 0.930 . S
H2433 C2423 0.930 . S
H2434 C2424 0.930 . S
H2435 C2425 0.930 . S
Eu2436 N2467 2.657 . S
Eu2436 N2474 2.609 . S
Eu2436 O2480 2.558 . S
Eu2436 O2481 2.612 . S
Eu2436 O2483 2.339 . S
Eu2436 O2484 2.563 . S
Eu2436 O2485 2.419 . S
Eu2436 O2487 2.380 . S
Eu2436 O2488 2.432 . S
Eu2436 C2500 2.848 . S
C2437 C2440 1.429 . S
C2437 C2441 1.411 . S
C2437 N2444 1.377 1_655 S
C2438 C2440 1.420 . S
C2438 C2442 1.423 . S
C2438 C2450 1.392 . S
C2439 C2441 1.420 . S
C2439 C2442 1.351 . S
C2439 H2462 0.931 . S
C2440 C2437 1.429 . S
C2440 C2438 1.420 . S
C2440 N2448 1.362 . S
C2441 C2437 1.411 . S
C2441 C2439 1.420 . S
C2441 C2446 1.395 . S
C2442 C2438 1.423 . S
C2442 C2439 1.351 . S
C2442 H2454 0.930 . S
C2443 C2445 1.390 1_655 S
C2443 C2446 1.404 . S
C2443 H2455 0.922 1_655 S
N2444 C2437 1.377 1_455 S
N2444 C2445 1.321 . S
N2444 Eu2447 2.609 . S
C2445 C2443 1.390 1_455 S
C2445 N2444 1.321 . S
C2445 H2452 0.930 . S
C2446 C2441 1.395 . S
C2446 C2443 1.404 . S
C2446 H2465 0.930 . S
Eu2447 N2444 2.609 . S
Eu2447 N2448 2.657 1_455 S
Eu2447 O2481 2.380 . S
Eu2447 O2482 2.432 . S
Eu2447 O2486 2.558 . S
Eu2447 O2487 2.612 . S
Eu2447 O2489 2.339 . S
Eu2447 O2490 2.563 . S
Eu2447 O2491 2.419 1_455 S
Eu2447 C2511 2.848 1_455 S
N2448 C2440 1.362 . S
N2448 Eu2447 2.657 1_655 S
N2448 C2449 1.334 . S
C2449 N2448 1.334 . S
C2449 C2451 1.413 . S
C2449 H2456 0.929 . S
C2450 C2438 1.392 . S
C2450 C2451 1.367 . S
C2450 H2458 0.930 . S
C2451 C2449 1.413 . S
C2451 C2450 1.367 . S
C2451 H2453 0.930 . S
H2452 C2445 0.930 . S
H2453 C2451 0.930 . S
H2454 C2442 0.930 . S
H2455 C2443 0.922 1_455 S
H2456 C2449 0.929 . S
H2457 C2471 0.930 . S
H2458 C2450 0.930 . S
H2459 C2477 0.930 . S
H2460 C2468 0.929 . S
H2461 C2475 0.930 . S
H2462 C2439 0.931 . S
H2463 C2469 0.930 . S
H2464 C2502 0.930 . S
H2465 C2446 0.930 . S
H2466 C2501 0.931 . S
N2467 Eu2436 2.657 . S
N2467 C2468 1.334 . S
N2467 C2472 1.362 . S
C2468 H2460 0.929 . S
C2468 N2467 1.334 . S
C2468 C2471 1.413 . S
C2469 H2463 0.930 . S
C2469 C2470 1.392 . S
C2469 C2471 1.367 . S
C2470 C2469 1.392 . S
C2470 C2472 1.420 . S
C2470 C2502 1.423 . S
C2471 H2457 0.930 . S
C2471 C2468 1.413 . S
C2471 C2469 1.367 . S
C2472 N2467 1.362 . S
C2472 C2470 1.420 . S
C2472 C2476 1.429 . S
H2473 C2478 0.930 . S
N2474 Eu2436 2.609 . S
N2474 C2476 1.377 . S
N2474 C2477 1.321 . S
C2475 H2461 0.930 . S
C2475 C2477 1.400 . S
C2475 C2478 1.386 . S
C2476 C2472 1.429 . S
C2476 N2474 1.377 . S
C2476 C2479 1.411 . S
C2477 H2459 0.930 . S
C2477 N2474 1.321 . S
C2477 C2475 1.400 . S
C2478 H2473 0.930 . S
C2478 C2475 1.386 . S
C2478 C2479 1.395 . S
C2479 C2476 1.411 . S
C2479 C2478 1.395 . S
C2479 C2501 1.420 . S
O2480 Eu2436 2.558 . S
O2480 C2500 1.257 . S
O2481 Eu2436 2.612 . S
O2481 Eu2447 2.380 . S
O2481 C2492 1.276 . S
O2482 Eu2447 2.432 . S
O2482 C2499 1.264 . S
O2483 Eu2436 2.339 . S
O2483 C2499 1.254 . S
O2484 Eu2436 2.563 . S
O2484 C2492 1.235 . S
O2485 Eu2436 2.419 . S
O2485 C2500 1.249 . S
O2486 Eu2447 2.558 . S
O2486 C2511 1.257 1_455 S
O2487 Eu2436 2.380 . S
O2487 Eu2447 2.612 . S
O2487 C2503 1.276 . S
O2488 Eu2436 2.432 . S
O2488 C2510 1.264 . S
O2489 Eu2447 2.339 . S
O2489 C2510 1.254 . S
O2490 Eu2447 2.563 . S
O2490 C2503 1.235 . S
O2491 Eu2447 2.419 1_655 S
O2491 C2511 1.249 . S
C2492 O2481 1.276 . S
C2492 O2484 1.235 . S
C2493 C2495 1.393 . S
C2493 C2497 1.395 . S
C2493 C2500 1.492 . S
C2494 C2495 1.392 . S
C2494 C2496 1.386 . S
C2495 C2493 1.393 . S
C2495 C2494 1.392 . S
C2495 H2512 0.930 . S
C2496 C2494 1.386 . S
C2496 C2498 1.395 . S
C2496 H2513 0.930 . S
C2497 C2493 1.395 . S
C2497 C2498 1.379 . S
C2497 H2514 0.930 . S
C2498 C2496 1.395 . S
C2498 C2497 1.379 . S
C2498 H2515 0.930 . S
C2499 O2482 1.264 . S
C2499 O2483 1.254 . S
C2500 Eu2436 2.848 . S
C2500 O2480 1.257 . S
C2500 O2485 1.249 . S
C2500 C2493 1.492 . S
C2501 H2466 0.931 . S
C2501 C2479 1.420 . S
C2501 C2502 1.351 . S
C2502 H2464 0.930 . S
C2502 C2470 1.423 . S
C2502 C2501 1.351 . S
C2503 O2487 1.276 . S
C2503 O2490 1.235 . S
C2504 C2505 1.393 . S
C2504 C2508 1.395 . S
C2504 C2511 1.492 . S
C2505 C2504 1.393 . S
C2505 C2506 1.392 . S
C2505 H2516 0.930 . S
C2506 C2505 1.392 . S
C2506 C2507 1.386 . S
C2507 C2506 1.386 . S
C2507 C2509 1.395 . S
C2507 H2517 0.930 . S
C2508 C2504 1.395 . S
C2508 C2509 1.379 . S
C2508 H2518 0.930 . S
C2509 C2507 1.395 . S
C2509 C2508 1.379 . S
C2509 H2519 0.930 . S
C2510 O2488 1.264 . S
C2510 O2489 1.254 . S
C2511 Eu2447 2.848 1_655 S
C2511 O2486 1.257 1_655 S
C2511 O2491 1.249 . S
C2511 C2504 1.492 . S
H2512 C2495 0.930 . S
H2513 C2496 0.930 . S
H2514 C2497 0.930 . S
H2515 C2498 0.930 . S
H2516 C2505 0.930 . S
H2517 C2507 0.930 . S
H2518 C2508 0.930 . S
H2519 C2509 0.930 . S
Eu2520 N2551 2.657 . S
Eu2520 N2558 2.609 . S
Eu2520 O2564 2.558 . S
Eu2520 O2565 2.612 . S
Eu2520 O2567 2.339 . S
Eu2520 O2568 2.563 . S
Eu2520 O2569 2.419 . S
Eu2520 O2571 2.380 . S
Eu2520 O2572 2.432 . S
Eu2520 C2584 2.848 . S
C2521 C2524 1.429 . S
C2521 C2525 1.411 . S
C2521 N2528 1.377 . S
C2522 C2524 1.420 . S
C2522 C2526 1.423 . S
C2522 C2534 1.392 . S
C2523 C2525 1.420 . S
C2523 C2526 1.351 . S
C2523 H2546 0.931 . S
C2524 C2521 1.429 . S
C2524 C2522 1.420 . S
C2524 N2532 1.362 . S
C2525 C2521 1.411 . S
C2525 C2523 1.420 . S
C2525 C2530 1.395 . S
C2526 C2522 1.423 . S
C2526 C2523 1.351 . S
C2526 H2538 0.930 . S
C2527 C2529 1.400 . S
C2527 C2530 1.386 . S
C2527 H2539 0.930 . S
N2528 C2521 1.377 . S
N2528 C2529 1.321 . S
N2528 Eu2531 2.609 . S
C2529 C2527 1.400 . S
C2529 N2528 1.321 . S
C2529 H2536 0.930 . S
C2530 C2525 1.395 . S
C2530 C2527 1.386 . S
C2530 H2549 0.930 . S
Eu2531 N2528 2.609 . S
Eu2531 N2532 2.657 . S
Eu2531 O2565 2.380 . S
Eu2531 O2566 2.432 . S
Eu2531 O2570 2.558 . S
Eu2531 O2571 2.612 . S
Eu2531 O2573 2.339 . S
Eu2531 O2574 2.563 . S
Eu2531 O2575 2.419 . S
Eu2531 C2595 2.848 . S
N2532 C2524 1.362 . S
N2532 Eu2531 2.657 . S
N2532 C2533 1.334 . S
C2533 N2532 1.334 . S
C2533 C2535 1.413 . S
C2533 H2540 0.929 . S
C2534 C2522 1.392 . S
C2534 C2535 1.367 . S
C2534 H2542 0.930 . S
C2535 C2533 1.413 . S
C2535 C2534 1.367 . S
C2535 H2537 0.930 . S
H2536 C2529 0.930 . S
H2537 C2535 0.930 . S
H2538 C2526 0.930 . S
H2539 C2527 0.930 . S
H2540 C2533 0.929 . S
H2541 C2555 0.930 . S
H2542 C2534 0.930 . S
H2543 C2561 0.930 . S
H2544 C2552 0.929 . S
H2545 C2559 0.930 . S
H2546 C2523 0.931 . S
H2547 C2553 0.930 . S
H2548 C2586 0.930 . S
H2549 C2530 0.930 . S
H2550 C2585 0.931 . S
N2551 Eu2520 2.657 . S
N2551 C2552 1.334 . S
N2551 C2556 1.362 . S
C2552 H2544 0.929 . S
C2552 N2551 1.334 . S
C2552 C2555 1.413 . S
C2553 H2547 0.930 . S
C2553 C2554 1.392 . S
C2553 C2555 1.367 . S
C2554 C2553 1.392 . S
C2554 C2556 1.420 . S
C2554 C2586 1.423 . S
C2555 H2541 0.930 . S
C2555 C2552 1.413 . S
C2555 C2553 1.367 . S
C2556 N2551 1.362 . S
C2556 C2554 1.420 . S
C2556 C2560 1.429 . S
H2557 C2562 0.930 . S
N2558 Eu2520 2.609 . S
N2558 C2560 1.377 . S
N2558 C2561 1.321 . S
C2559 H2545 0.930 . S
C2559 C2561 1.400 . S
C2559 C2562 1.386 . S
C2560 C2556 1.429 . S
C2560 N2558 1.377 . S
C2560 C2563 1.411 . S
C2561 H2543 0.930 . S
C2561 N2558 1.321 . S
C2561 C2559 1.400 . S
C2562 H2557 0.930 . S
C2562 C2559 1.386 . S
C2562 C2563 1.395 . S
C2563 C2560 1.411 . S
C2563 C2562 1.395 . S
C2563 C2585 1.420 . S
O2564 Eu2520 2.558 . S
O2564 C2584 1.257 . S
O2565 Eu2520 2.612 . S
O2565 Eu2531 2.380 . S
O2565 C2576 1.276 . S
O2566 Eu2531 2.432 . S
O2566 C2583 1.264 . S
O2567 Eu2520 2.339 . S
O2567 C2583 1.254 . S
O2568 Eu2520 2.563 . S
O2568 C2576 1.235 . S
O2569 Eu2520 2.419 . S
O2569 C2584 1.249 . S
O2570 Eu2531 2.558 . S
O2570 C2595 1.257 . S
O2571 Eu2520 2.380 . S
O2571 Eu2531 2.612 . S
O2571 C2587 1.276 . S
O2572 Eu2520 2.432 . S
O2572 C2594 1.264 . S
O2573 Eu2531 2.339 . S
O2573 C2594 1.254 . S
O2574 Eu2531 2.563 . S
O2574 C2587 1.235 . S
O2575 Eu2531 2.419 . S
O2575 C2595 1.249 . S
C2576 O2565 1.276 . S
C2576 O2568 1.235 . S
C2577 C2579 1.393 . S
C2577 C2581 1.395 . S
C2577 C2584 1.492 . S
C2578 C2579 1.392 . S
C2578 C2580 1.386 . S
C2579 C2577 1.393 . S
C2579 C2578 1.392 . S
C2579 H2596 0.930 . S
C2580 C2578 1.386 . S
C2580 C2582 1.395 . S
C2580 H2597 0.930 . S
C2581 C2577 1.395 . S
C2581 C2582 1.379 . S
C2581 H2598 0.930 . S
C2582 C2580 1.395 . S
C2582 C2581 1.379 . S
C2582 H2599 0.930 . S
C2583 O2566 1.264 . S
C2583 O2567 1.254 . S
C2584 Eu2520 2.848 . S
C2584 O2564 1.257 . S
C2584 O2569 1.249 . S
C2584 C2577 1.492 . S
C2585 H2550 0.931 . S
C2585 C2563 1.420 . S
C2585 C2586 1.351 . S
C2586 H2548 0.930 . S
C2586 C2554 1.423 . S
C2586 C2585 1.351 . S
C2587 O2571 1.276 . S
C2587 O2574 1.235 . S
C2588 C2589 1.393 . S
C2588 C2592 1.395 . S
C2588 C2595 1.492 . S
C2589 C2588 1.393 . S
C2589 C2590 1.392 . S
C2589 H2600 0.930 . S
C2590 C2589 1.392 . S
C2590 C2591 1.386 . S
C2591 C2590 1.386 . S
C2591 C2593 1.395 . S
C2591 H2601 0.930 . S
C2592 C2588 1.395 . S
C2592 C2593 1.379 . S
C2592 H2602 0.930 . S
C2593 C2591 1.395 . S
C2593 C2592 1.379 . S
C2593 H2603 0.930 . S
C2594 O2572 1.264 . S
C2594 O2573 1.254 . S
C2595 Eu2531 2.848 . S
C2595 O2570 1.257 . S
C2595 O2575 1.249 . S
C2595 C2588 1.492 . S
H2596 C2579 0.930 . S
H2597 C2580 0.930 . S
H2598 C2581 0.930 . S
H2599 C2582 0.930 . S
H2600 C2589 0.930 . S
H2601 C2591 0.930 . S
H2602 C2592 0.930 . S
H2603 C2593 0.930 . S
Eu2604 N2635 2.657 . S
Eu2604 N2642 2.609 . S
Eu2604 O2648 2.558 . S
Eu2604 O2649 2.612 . S
Eu2604 O2651 2.339 . S
Eu2604 O2652 2.563 . S
Eu2604 O2653 2.419 . S
Eu2604 O2655 2.380 . S
Eu2604 O2656 2.432 . S
Eu2604 C2668 2.848 . S
C2605 C2608 1.429 . S
C2605 C2609 1.411 . S
C2605 N2612 1.377 . S
C2606 C2608 1.420 . S
C2606 C2610 1.423 . S
C2606 C2618 1.392 . S
C2607 C2609 1.420 . S
C2607 C2610 1.351 . S
C2607 H2630 0.931 . S
C2608 C2605 1.429 . S
C2608 C2606 1.420 . S
C2608 N2616 1.362 . S
C2609 C2605 1.411 . S
C2609 C2607 1.420 . S
C2609 C2614 1.395 . S
C2610 C2606 1.423 . S
C2610 C2607 1.351 . S
C2610 H2622 0.930 . S
C2611 C2613 1.400 . S
C2611 C2614 1.386 . S
C2611 H2623 0.930 . S
N2612 C2605 1.377 . S
N2612 C2613 1.321 . S
N2612 Eu2615 2.609 . S
C2613 C2611 1.400 . S
C2613 N2612 1.321 . S
C2613 H2620 0.930 . S
C2614 C2609 1.395 . S
C2614 C2611 1.386 . S
C2614 H2633 0.930 . S
Eu2615 N2612 2.609 . S
Eu2615 N2616 2.657 . S
Eu2615 O2649 2.380 . S
Eu2615 O2650 2.432 . S
Eu2615 O2654 2.558 . S
Eu2615 O2655 2.612 . S
Eu2615 O2657 2.339 . S
Eu2615 O2658 2.563 . S
Eu2615 O2659 2.419 . S
Eu2615 C2679 2.848 . S
N2616 C2608 1.362 . S
N2616 Eu2615 2.657 . S
N2616 C2617 1.334 . S
C2617 N2616 1.334 . S
C2617 C2619 1.413 . S
C2617 H2624 0.929 . S
C2618 C2606 1.392 . S
C2618 C2619 1.367 . S
C2618 H2626 0.930 . S
C2619 C2617 1.413 . S
C2619 C2618 1.367 . S
C2619 H2621 0.930 . S
H2620 C2613 0.930 . S
H2621 C2619 0.930 . S
H2622 C2610 0.930 . S
H2623 C2611 0.930 . S
H2624 C2617 0.929 . S
H2625 C2639 0.930 . S
H2626 C2618 0.930 . S
H2627 C2645 0.930 . S
H2628 C2636 0.929 . S
H2629 C2643 0.930 . S
H2630 C2607 0.931 . S
H2631 C2637 0.930 . S
H2632 C2670 0.930 . S
H2633 C2614 0.930 . S
H2634 C2669 0.931 . S
N2635 Eu2604 2.657 . S
N2635 C2636 1.334 . S
N2635 C2640 1.362 . S
C2636 H2628 0.929 . S
C2636 N2635 1.334 . S
C2636 C2639 1.413 . S
C2637 H2631 0.930 . S
C2637 C2638 1.392 . S
C2637 C2639 1.367 . S
C2638 C2637 1.392 . S
C2638 C2640 1.420 . S
C2638 C2670 1.423 . S
C2639 H2625 0.930 . S
C2639 C2636 1.413 . S
C2639 C2637 1.367 . S
C2640 N2635 1.362 . S
C2640 C2638 1.420 . S
C2640 C2644 1.429 . S
H2641 C2646 0.930 . S
N2642 Eu2604 2.609 . S
N2642 C2644 1.377 . S
N2642 C2645 1.321 . S
C2643 H2629 0.930 . S
C2643 C2645 1.400 . S
C2643 C2646 1.386 . S
C2644 C2640 1.429 . S
C2644 N2642 1.377 . S
C2644 C2647 1.411 . S
C2645 H2627 0.930 . S
C2645 N2642 1.321 . S
C2645 C2643 1.400 . S
C2646 H2641 0.930 . S
C2646 C2643 1.386 . S
C2646 C2647 1.395 . S
C2647 C2644 1.411 . S
C2647 C2646 1.395 . S
C2647 C2669 1.420 . S
O2648 Eu2604 2.558 . S
O2648 C2668 1.257 . S
O2649 Eu2604 2.612 . S
O2649 Eu2615 2.380 . S
O2649 C2660 1.276 . S
O2650 Eu2615 2.432 . S
O2650 C2667 1.264 . S
O2651 Eu2604 2.339 . S
O2651 C2667 1.254 . S
O2652 Eu2604 2.563 . S
O2652 C2660 1.235 . S
O2653 Eu2604 2.419 . S
O2653 C2668 1.249 . S
O2654 Eu2615 2.558 . S
O2654 C2679 1.257 . S
O2655 Eu2604 2.380 . S
O2655 Eu2615 2.612 . S
O2655 C2671 1.276 . S
O2656 Eu2604 2.432 . S
O2656 C2678 1.264 . S
O2657 Eu2615 2.339 . S
O2657 C2678 1.254 . S
O2658 Eu2615 2.563 . S
O2658 C2671 1.235 . S
O2659 Eu2615 2.419 . S
O2659 C2679 1.249 . S
C2660 O2649 1.276 . S
C2660 O2652 1.235 . S
C2661 C2663 1.393 . S
C2661 C2665 1.395 . S
C2661 C2668 1.492 . S
C2662 C2663 1.392 . S
C2662 C2664 1.386 . S
C2663 C2661 1.393 . S
C2663 C2662 1.392 . S
C2663 H2680 0.930 . S
C2664 C2662 1.386 . S
C2664 C2666 1.395 . S
C2664 H2681 0.930 . S
C2665 C2661 1.395 . S
C2665 C2666 1.379 . S
C2665 H2682 0.930 . S
C2666 C2664 1.395 . S
C2666 C2665 1.379 . S
C2666 H2683 0.930 . S
C2667 O2650 1.264 . S
C2667 O2651 1.254 . S
C2668 Eu2604 2.848 . S
C2668 O2648 1.257 . S
C2668 O2653 1.249 . S
C2668 C2661 1.492 . S
C2669 H2634 0.931 . S
C2669 C2647 1.420 . S
C2669 C2670 1.351 . S
C2670 H2632 0.930 . S
C2670 C2638 1.423 . S
C2670 C2669 1.351 . S
C2671 O2655 1.276 . S
C2671 O2658 1.235 . S
C2672 C2673 1.393 . S
C2672 C2676 1.395 . S
C2672 C2679 1.492 . S
C2673 C2672 1.393 . S
C2673 C2674 1.392 . S
C2673 H2684 0.930 . S
C2674 C2673 1.392 . S
C2674 C2675 1.386 . S
C2675 C2674 1.386 . S
C2675 C2677 1.395 . S
C2675 H2685 0.930 . S
C2676 C2672 1.395 . S
C2676 C2677 1.379 . S
C2676 H2686 0.930 . S
C2677 C2675 1.395 . S
C2677 C2676 1.379 . S
C2677 H2687 0.930 . S
C2678 O2656 1.264 . S
C2678 O2657 1.254 . S
C2679 Eu2615 2.848 . S
C2679 O2654 1.257 . S
C2679 O2659 1.249 . S
C2679 C2672 1.492 . S
H2680 C2663 0.930 . S
H2681 C2664 0.930 . S
H2682 C2665 0.930 . S
H2683 C2666 0.930 . S
H2684 C2673 0.930 . S
H2685 C2675 0.930 . S
H2686 C2676 0.930 . S
H2687 C2677 0.930 . S
H2688 C2696 0.950 . S
H2689 C2701 0.950 . S
H2690 C2698 0.950 . S
H2691 C2700 0.950 . S
H2692 C2702 0.950 . S
H2693 C2704 0.950 . S
H2694 C2706 0.950 . S
H2695 C2707 0.950 . S
C2696 H2688 0.950 . S
C2696 C2697 1.386 . S
C2696 C2698 1.391 . S
C2697 C2696 1.386 . S
C2697 C2701 1.393 . S
C2698 H2690 0.950 . S
C2698 C2696 1.391 . S
C2698 C2699 1.400 . S
C2699 C2698 1.400 . S
C2699 C2700 1.398 . S
C2699 C2705 1.491 . S
C2700 H2691 0.950 . S
C2700 C2699 1.398 . S
C2700 C2701 1.391 . S
C2701 H2689 0.950 . S
C2701 C2697 1.393 . S
C2701 C2700 1.391 . S
C2702 H2692 0.950 . S
C2702 C2703 1.386 . S
C2702 C2704 1.391 . S
C2703 C2702 1.386 . S
C2703 C2707 1.393 . S
C2704 H2693 0.950 . S
C2704 C2702 1.391 . S
C2704 C2705 1.400 . S
C2705 C2699 1.491 . S
C2705 C2704 1.400 . S
C2705 C2706 1.398 . S
C2706 H2694 0.950 . S
C2706 C2705 1.398 . S
C2706 C2707 1.391 . S
C2707 H2695 0.950 . S
C2707 C2703 1.393 . S
C2707 C2706 1.391 . S
H2708 C2716 0.950 . S
H2709 C2721 0.950 . S
H2710 C2718 0.950 . S
H2711 C2720 0.950 . S
H2712 C2722 0.950 . S
H2713 C2724 0.950 . S
H2714 C2726 0.950 . S
H2715 C2727 0.950 . S
C2716 H2708 0.950 . S
C2716 C2717 1.386 . S
C2716 C2718 1.391 . S
C2717 C2716 1.386 . S
C2717 C2721 1.393 . S
C2718 H2710 0.950 . S
C2718 C2716 1.391 . S
C2718 C2719 1.400 . S
C2719 C2718 1.400 . S
C2719 C2720 1.398 . S
C2719 C2725 1.491 . S
C2720 H2711 0.950 . S
C2720 C2719 1.398 . S
C2720 C2721 1.391 . S
C2721 H2709 0.950 . S
C2721 C2717 1.393 . S
C2721 C2720 1.391 . S
C2722 H2712 0.950 . S
C2722 C2723 1.386 . S
C2722 C2724 1.391 . S
C2723 C2722 1.386 . S
C2723 C2727 1.393 . S
C2724 H2713 0.950 . S
C2724 C2722 1.391 . S
C2724 C2725 1.400 . S
C2725 C2719 1.491 . S
C2725 C2724 1.400 . S
C2725 C2726 1.398 . S
C2726 H2714 0.950 . S
C2726 C2725 1.398 . S
C2726 C2727 1.391 . S
C2727 H2715 0.950 . S
C2727 C2723 1.393 . S
C2727 C2726 1.391 . S
H2728 C2736 0.950 . S
H2729 C2741 0.950 . S
H2730 C2738 0.950 . S
H2731 C2740 0.950 . S
H2732 C2742 0.950 . S
H2733 C2744 0.950 . S
H2734 C2746 0.950 . S
H2735 C2747 0.950 . S
C2736 H2728 0.950 . S
C2736 C2737 1.386 . S
C2736 C2738 1.391 . S
C2737 C2736 1.386 . S
C2737 C2741 1.393 . S
C2738 H2730 0.950 . S
C2738 C2736 1.391 . S
C2738 C2739 1.400 . S
C2739 C2738 1.400 . S
C2739 C2740 1.398 . S
C2739 C2745 1.491 . S
C2740 H2731 0.950 . S
C2740 C2739 1.398 . S
C2740 C2741 1.391 . S
C2741 H2729 0.950 . S
C2741 C2737 1.393 . S
C2741 C2740 1.391 . S
C2742 H2732 0.950 . S
C2742 C2743 1.386 . S
C2742 C2744 1.391 . S
C2743 C2742 1.386 . S
C2743 C2747 1.393 . S
C2744 H2733 0.950 . S
C2744 C2742 1.391 . S
C2744 C2745 1.400 . S
C2745 C2739 1.491 . S
C2745 C2744 1.400 . S
C2745 C2746 1.398 . S
C2746 H2734 0.950 . S
C2746 C2745 1.398 . S
C2746 C2747 1.391 . S
C2747 H2735 0.950 . S
C2747 C2743 1.393 . S
C2747 C2746 1.391 . S
H2748 C2756 0.950 . S
H2749 C2761 0.950 . S
H2750 C2758 0.950 . S
H2751 C2760 0.950 . S
H2752 C2762 0.950 . S
H2753 C2764 0.950 . S
H2754 C2766 0.950 . S
H2755 C2767 0.950 . S
C2756 H2748 0.950 . S
C2756 C2757 1.386 . S
C2756 C2758 1.391 . S
C2757 C2756 1.386 . S
C2757 C2761 1.393 . S
C2758 H2750 0.950 . S
C2758 C2756 1.391 . S
C2758 C2759 1.400 . S
C2759 C2758 1.400 . S
C2759 C2760 1.398 . S
C2759 C2765 1.491 . S
C2760 H2751 0.950 . S
C2760 C2759 1.398 . S
C2760 C2761 1.391 . S
C2761 H2749 0.950 . S
C2761 C2757 1.393 . S
C2761 C2760 1.391 . S
C2762 H2752 0.950 . S
C2762 C2763 1.386 . S
C2762 C2764 1.391 . S
C2763 C2762 1.386 . S
C2763 C2767 1.393 . S
C2764 H2753 0.950 . S
C2764 C2762 1.391 . S
C2764 C2765 1.400 . S
C2765 C2759 1.491 . S
C2765 C2764 1.400 . S
C2765 C2766 1.398 . S
C2766 H2754 0.950 . S
C2766 C2765 1.398 . S
C2766 C2767 1.391 . S
C2767 H2755 0.950 . S
C2767 C2763 1.393 . S
C2767 C2766 1.391 . S
H2768 C2776 0.950 . S
H2769 C2781 0.950 . S
H2770 C2778 0.950 . S
H2771 C2780 0.950 . S
H2772 C2782 0.950 . S
H2773 C2784 0.950 . S
H2774 C2786 0.950 . S
H2775 C2787 0.950 . S
C2776 H2768 0.950 . S
C2776 C2777 1.386 . S
C2776 C2778 1.391 . S
C2777 C2776 1.386 . S
C2777 C2781 1.393 . S
C2778 H2770 0.950 . S
C2778 C2776 1.391 . S
C2778 C2779 1.400 . S
C2779 C2778 1.400 . S
C2779 C2780 1.398 . S
C2779 C2785 1.491 . S
C2780 H2771 0.950 . S
C2780 C2779 1.398 . S
C2780 C2781 1.391 . S
C2781 H2769 0.950 . S
C2781 C2777 1.393 . S
C2781 C2780 1.391 . S
C2782 H2772 0.950 . S
C2782 C2783 1.386 . S
C2782 C2784 1.391 . S
C2783 C2782 1.386 . S
C2783 C2787 1.393 . S
C2784 H2773 0.950 . S
C2784 C2782 1.391 . S
C2784 C2785 1.400 . S
C2785 C2779 1.491 . S
C2785 C2784 1.400 . S
C2785 C2786 1.398 . S
C2786 H2774 0.950 . S
C2786 C2785 1.398 . S
C2786 C2787 1.391 . S
C2787 H2775 0.950 . S
C2787 C2783 1.393 . S
C2787 C2786 1.391 . S
H2788 C2796 0.950 . S
H2789 C2801 0.950 . S
H2790 C2798 0.950 . S
H2791 C2800 0.950 . S
H2792 C2802 0.950 . S
H2793 C2804 0.950 . S
H2794 C2806 0.950 . S
H2795 C2807 0.950 . S
C2796 H2788 0.950 . S
C2796 C2797 1.386 . S
C2796 C2798 1.391 . S
C2797 C2796 1.386 . S
C2797 C2801 1.393 . S
C2798 H2790 0.950 . S
C2798 C2796 1.391 . S
C2798 C2799 1.400 . S
C2799 C2798 1.400 . S
C2799 C2800 1.398 . S
C2799 C2805 1.491 . S
C2800 H2791 0.950 . S
C2800 C2799 1.398 . S
C2800 C2801 1.391 . S
C2801 H2789 0.950 . S
C2801 C2797 1.393 . S
C2801 C2800 1.391 . S
C2802 H2792 0.950 . S
C2802 C2803 1.386 . S
C2802 C2804 1.391 . S
C2803 C2802 1.386 . S
C2803 C2807 1.393 . S
C2804 H2793 0.950 . S
C2804 C2802 1.391 . S
C2804 C2805 1.400 . S
C2805 C2799 1.491 . S
C2805 C2804 1.400 . S
C2805 C2806 1.398 . S
C2806 H2794 0.950 . S
C2806 C2805 1.398 . S
C2806 C2807 1.391 . S
C2807 H2795 0.950 . S
C2807 C2803 1.393 . S
C2807 C2806 1.391 . S
H2808 C2816 0.950 . S
H2809 C2821 0.950 . S
H2810 C2818 0.950 . S
H2811 C2820 0.950 . S
H2812 C2822 0.950 . S
H2813 C2824 0.950 . S
H2814 C2826 0.950 . S
H2815 C2827 0.950 . S
C2816 H2808 0.950 . S
C2816 C2817 1.386 . S
C2816 C2818 1.391 . S
C2817 C2816 1.386 . S
C2817 C2821 1.393 . S
C2818 H2810 0.950 . S
C2818 C2816 1.391 . S
C2818 C2819 1.400 . S
C2819 C2818 1.400 . S
C2819 C2820 1.398 . S
C2819 C2825 1.491 . S
C2820 H2811 0.950 . S
C2820 C2819 1.398 . S
C2820 C2821 1.391 . S
C2821 H2809 0.950 . S
C2821 C2817 1.393 . S
C2821 C2820 1.391 . S
C2822 H2812 0.950 . S
C2822 C2823 1.386 . S
C2822 C2824 1.391 . S
C2823 C2822 1.386 . S
C2823 C2827 1.393 . S
C2824 H2813 0.950 . S
C2824 C2822 1.391 . S
C2824 C2825 1.400 . S
C2825 C2819 1.491 . S
C2825 C2824 1.400 . S
C2825 C2826 1.398 . S
C2826 H2814 0.950 . S
C2826 C2825 1.398 . S
C2826 C2827 1.391 . S
C2827 H2815 0.950 . S
C2827 C2823 1.393 . S
C2827 C2826 1.391 . S
H2828 C2836 0.950 . S
H2829 C2841 0.950 . S
H2830 C2838 0.950 . S
H2831 C2840 0.950 . S
H2832 C2842 0.950 . S
H2833 C2844 0.950 . S
H2834 C2846 0.950 . S
H2835 C2847 0.950 . S
C2836 H2828 0.950 . S
C2836 C2837 1.386 . S
C2836 C2838 1.391 . S
C2837 C2836 1.386 . S
C2837 C2841 1.393 . S
C2838 H2830 0.950 . S
C2838 C2836 1.391 . S
C2838 C2839 1.400 . S
C2839 C2838 1.400 . S
C2839 C2840 1.398 . S
C2839 C2845 1.491 . S
C2840 H2831 0.950 . S
C2840 C2839 1.398 . S
C2840 C2841 1.391 . S
C2841 H2829 0.950 . S
C2841 C2837 1.393 . S
C2841 C2840 1.391 . S
C2842 H2832 0.950 . S
C2842 C2843 1.386 . S
C2842 C2844 1.391 . S
C2843 C2842 1.386 . S
C2843 C2847 1.393 . S
C2844 H2833 0.950 . S
C2844 C2842 1.391 . S
C2844 C2845 1.400 . S
C2845 C2839 1.491 . S
C2845 C2844 1.400 . S
C2845 C2846 1.398 . S
C2846 H2834 0.950 . S
C2846 C2845 1.398 . S
C2846 C2847 1.391 . S
C2847 H2835 0.950 . S
C2847 C2843 1.393 . S
C2847 C2846 1.391 . S
H2848 C2856 0.950 . S
H2849 C2861 0.950 . S
H2850 C2858 0.950 . S
H2851 C2860 0.950 . S
H2852 C2862 0.950 . S
H2853 C2864 0.950 . S
H2854 C2866 0.950 . S
H2855 C2867 0.950 . S
C2856 H2848 0.950 . S
C2856 C2857 1.386 . S
C2856 C2858 1.391 . S
C2857 C2856 1.386 . S
C2857 C2861 1.393 . S
C2858 H2850 0.950 . S
C2858 C2856 1.391 . S
C2858 C2859 1.400 . S
C2859 C2858 1.400 . S
C2859 C2860 1.398 . S
C2859 C2865 1.491 . S
C2860 H2851 0.950 . S
C2860 C2859 1.398 . S
C2860 C2861 1.391 . S
C2861 H2849 0.950 . S
C2861 C2857 1.393 . S
C2861 C2860 1.391 . S
C2862 H2852 0.950 . S
C2862 C2863 1.386 . S
C2862 C2864 1.391 . S
C2863 C2862 1.386 . S
C2863 C2867 1.393 . S
C2864 H2853 0.950 . S
C2864 C2862 1.391 . S
C2864 C2865 1.400 . S
C2865 C2859 1.491 . S
C2865 C2864 1.400 . S
C2865 C2866 1.398 . S
C2866 H2854 0.950 . S
C2866 C2865 1.398 . S
C2866 C2867 1.391 . S
C2867 H2855 0.950 . S
C2867 C2863 1.393 . S
C2867 C2866 1.391 . S
H2868 C2876 0.950 . S
H2869 C2881 0.950 . S
H2870 C2878 0.950 . S
H2871 C2880 0.950 . S
H2872 C2882 0.950 . S
H2873 C2884 0.950 . S
H2874 C2886 0.950 . S
H2875 C2887 0.950 . S
C2876 H2868 0.950 . S
C2876 C2877 1.386 . S
C2876 C2878 1.391 . S
C2877 C2876 1.386 . S
C2877 C2881 1.393 . S
C2878 H2870 0.950 . S
C2878 C2876 1.391 . S
C2878 C2879 1.400 . S
C2879 C2878 1.400 . S
C2879 C2880 1.398 . S
C2879 C2885 1.491 . S
C2880 H2871 0.950 . S
C2880 C2879 1.398 . S
C2880 C2881 1.391 . S
C2881 H2869 0.950 . S
C2881 C2877 1.393 . S
C2881 C2880 1.391 . S
C2882 H2872 0.950 . S
C2882 C2883 1.386 . S
C2882 C2884 1.391 . S
C2883 C2882 1.386 . S
C2883 C2887 1.393 . S
C2884 H2873 0.950 . S
C2884 C2882 1.391 . S
C2884 C2885 1.400 . S
C2885 C2879 1.491 . S
C2885 C2884 1.400 . S
C2885 C2886 1.398 . S
C2886 H2874 0.950 . S
C2886 C2885 1.398 . S
C2886 C2887 1.391 . S
C2887 H2875 0.950 . S
C2887 C2883 1.393 . S
C2887 C2886 1.391 . S
H2888 C2896 0.950 . S
H2889 C2901 0.950 . S
H2890 C2898 0.950 . S
H2891 C2900 0.950 . S
H2892 C2902 0.950 . S
H2893 C2904 0.950 . S
H2894 C2906 0.950 . S
H2895 C2907 0.950 . S
C2896 H2888 0.950 . S
C2896 C2897 1.386 . S
C2896 C2898 1.391 . S
C2897 C2896 1.386 . S
C2897 C2901 1.393 . S
C2898 H2890 0.950 . S
C2898 C2896 1.391 . S
C2898 C2899 1.400 . S
C2899 C2898 1.400 . S
C2899 C2900 1.398 . S
C2899 C2905 1.491 . S
C2900 H2891 0.950 . S
C2900 C2899 1.398 . S
C2900 C2901 1.391 . S
C2901 H2889 0.950 . S
C2901 C2897 1.393 . S
C2901 C2900 1.391 . S
C2902 H2892 0.950 . S
C2902 C2903 1.386 . S
C2902 C2904 1.391 . S
C2903 C2902 1.386 . S
C2903 C2907 1.393 . S
C2904 H2893 0.950 . S
C2904 C2902 1.391 . S
C2904 C2905 1.400 . S
C2905 C2899 1.491 . S
C2905 C2904 1.400 . S
C2905 C2906 1.398 . S
C2906 H2894 0.950 . S
C2906 C2905 1.398 . S
C2906 C2907 1.391 . S
C2907 H2895 0.950 . S
C2907 C2903 1.393 . S
C2907 C2906 1.391 . S
H2908 C2916 0.950 . S
H2909 C2921 0.950 . S
H2910 C2918 0.950 . S
H2911 C2920 0.950 . S
H2912 C2922 0.950 . S
H2913 C2924 0.950 . S
H2914 C2926 0.950 . S
H2915 C2927 0.950 . S
C2916 H2908 0.950 . S
C2916 C2917 1.386 . S
C2916 C2918 1.391 . S
C2917 C2916 1.386 . S
C2917 C2921 1.393 . S
C2918 H2910 0.950 . S
C2918 C2916 1.391 . S
C2918 C2919 1.400 . S
C2919 C2918 1.400 . S
C2919 C2920 1.398 . S
C2919 C2925 1.491 . S
C2920 H2911 0.950 . S
C2920 C2919 1.398 . S
C2920 C2921 1.391 . S
C2921 H2909 0.950 . S
C2921 C2917 1.393 . S
C2921 C2920 1.391 . S
C2922 H2912 0.950 . S
C2922 C2923 1.386 . S
C2922 C2924 1.391 . S
C2923 C2922 1.386 . S
C2923 C2927 1.393 . S
C2924 H2913 0.950 . S
C2924 C2922 1.391 . S
C2924 C2925 1.400 . S
C2925 C2919 1.491 . S
C2925 C2924 1.400 . S
C2925 C2926 1.398 . S
C2926 H2914 0.950 . S
C2926 C2925 1.398 . S
C2926 C2927 1.391 . S
C2927 H2915 0.950 . S
C2927 C2923 1.393 . S
C2927 C2926 1.391 . S
H2928 C2936 0.950 . S
H2929 C2941 0.950 . S
H2930 C2938 0.950 . S
H2931 C2940 0.950 . S
H2932 C2942 0.950 . S
H2933 C2944 0.950 . S
H2934 C2946 0.950 . S
H2935 C2947 0.950 . S
C2936 H2928 0.950 . S
C2936 C2937 1.386 . S
C2936 C2938 1.391 . S
C2937 C2936 1.386 . S
C2937 C2941 1.393 . S
C2938 H2930 0.950 . S
C2938 C2936 1.391 . S
C2938 C2939 1.400 . S
C2939 C2938 1.400 . S
C2939 C2940 1.398 . S
C2939 C2945 1.491 . S
C2940 H2931 0.950 . S
C2940 C2939 1.398 . S
C2940 C2941 1.391 . S
C2941 H2929 0.950 . S
C2941 C2937 1.393 . S
C2941 C2940 1.391 . S
C2942 H2932 0.950 . S
C2942 C2943 1.386 . S
C2942 C2944 1.391 . S
C2943 C2942 1.386 . S
C2943 C2947 1.393 . S
C2944 H2933 0.950 . S
C2944 C2942 1.391 . S
C2944 C2945 1.400 . S
C2945 C2939 1.491 . S
C2945 C2944 1.400 . S
C2945 C2946 1.398 . S
C2946 H2934 0.950 . S
C2946 C2945 1.398 . S
C2946 C2947 1.391 . S
C2947 H2935 0.950 . S
C2947 C2943 1.393 . S
C2947 C2946 1.391 . S
H2948 C2956 0.950 . S
H2949 C2961 0.950 . S
H2950 C2958 0.950 . S
H2951 C2960 0.950 . S
H2952 C2962 0.950 . S
H2953 C2964 0.950 . S
H2954 C2966 0.950 . S
H2955 C2967 0.950 . S
C2956 H2948 0.950 . S
C2956 C2957 1.386 . S
C2956 C2958 1.391 . S
C2957 C2956 1.386 . S
C2957 C2961 1.393 . S
C2958 H2950 0.950 . S
C2958 C2956 1.391 . S
C2958 C2959 1.400 . S
C2959 C2958 1.400 . S
C2959 C2960 1.398 . S
C2959 C2965 1.491 . S
C2960 H2951 0.950 . S
C2960 C2959 1.398 . S
C2960 C2961 1.391 . S
C2961 H2949 0.950 . S
C2961 C2957 1.393 . S
C2961 C2960 1.391 . S
C2962 H2952 0.950 . S
C2962 C2963 1.386 . S
C2962 C2964 1.391 . S
C2963 C2962 1.386 . S
C2963 C2967 1.393 . S
C2964 H2953 0.950 . S
C2964 C2962 1.391 . S
C2964 C2965 1.400 . S
C2965 C2959 1.491 . S
C2965 C2964 1.400 . S
C2965 C2966 1.398 . S
C2966 H2954 0.950 . S
C2966 C2965 1.398 . S
C2966 C2967 1.391 . S
C2967 H2955 0.950 . S
C2967 C2963 1.393 . S
C2967 C2966 1.391 . S
H2968 C2976 0.950 . S
H2969 C2981 0.950 . S
H2970 C2978 0.950 . S
H2971 C2980 0.950 . S
H2972 C2982 0.950 . S
H2973 C2984 0.950 . S
H2974 C2986 0.950 . S
H2975 C2987 0.950 . S
C2976 H2968 0.950 . S
C2976 C2977 1.386 . S
C2976 C2978 1.391 . S
C2977 C2976 1.386 . S
C2977 C2981 1.393 . S
C2978 H2970 0.950 . S
C2978 C2976 1.391 . S
C2978 C2979 1.400 . S
C2979 C2978 1.400 . S
C2979 C2980 1.398 . S
C2979 C2985 1.491 . S
C2980 H2971 0.950 . S
C2980 C2979 1.398 . S
C2980 C2981 1.391 . S
C2981 H2969 0.950 . S
C2981 C2977 1.393 . S
C2981 C2980 1.391 . S
C2982 H2972 0.950 . S
C2982 C2983 1.386 . S
C2982 C2984 1.391 . S
C2983 C2982 1.386 . S
C2983 C2987 1.393 . S
C2984 H2973 0.950 . S
C2984 C2982 1.391 . S
C2984 C2985 1.400 . S
C2985 C2979 1.491 . S
C2985 C2984 1.400 . S
C2985 C2986 1.398 . S
C2986 H2974 0.950 . S
C2986 C2985 1.398 . S
C2986 C2987 1.391 . S
C2987 H2975 0.950 . S
C2987 C2983 1.393 . S
C2987 C2986 1.391 . S
H2988 C2996 0.950 . S
H2989 C3001 0.950 . S
H2990 C2998 0.950 . S
H2991 C3000 0.950 . S
H2992 C3002 0.950 . S
H2993 C3004 0.950 . S
H2994 C3006 0.950 . S
H2995 C3007 0.950 . S
C2996 H2988 0.950 . S
C2996 C2997 1.386 . S
C2996 C2998 1.391 . S
C2997 C2996 1.386 . S
C2997 C3001 1.393 . S
C2998 H2990 0.950 . S
C2998 C2996 1.391 . S
C2998 C2999 1.400 . S
C2999 C2998 1.400 . S
C2999 C3000 1.398 . S
C2999 C3005 1.491 . S
C3000 H2991 0.950 . S
C3000 C2999 1.398 . S
C3000 C3001 1.391 . S
C3001 H2989 0.950 . S
C3001 C2997 1.393 . S
C3001 C3000 1.391 . S
C3002 H2992 0.950 . S
C3002 C3003 1.386 . S
C3002 C3004 1.391 . S
C3003 C3002 1.386 . S
C3003 C3007 1.393 . S
C3004 H2993 0.950 . S
C3004 C3002 1.391 . S
C3004 C3005 1.400 . S
C3005 C2999 1.491 . S
C3005 C3004 1.400 . S
C3005 C3006 1.398 . S
C3006 H2994 0.950 . S
C3006 C3005 1.398 . S
C3006 C3007 1.391 . S
C3007 H2995 0.950 . S
C3007 C3003 1.393 . S
C3007 C3006 1.391 . S
H3008 C3016 0.950 . S
H3009 C3021 0.950 . S
H3010 C3018 0.950 . S
H3011 C3020 0.950 . S
H3012 C3022 0.950 . S
H3013 C3024 0.950 . S
H3014 C3026 0.950 . S
H3015 C3027 0.950 . S
C3016 H3008 0.950 . S
C3016 C3017 1.386 . S
C3016 C3018 1.391 . S
C3017 C3016 1.386 . S
C3017 C3021 1.393 . S
C3018 H3010 0.950 . S
C3018 C3016 1.391 . S
C3018 C3019 1.400 . S
C3019 C3018 1.400 . S
C3019 C3020 1.398 . S
C3019 C3025 1.491 . S
C3020 H3011 0.950 . S
C3020 C3019 1.398 . S
C3020 C3021 1.391 . S
C3021 H3009 0.950 . S
C3021 C3017 1.393 . S
C3021 C3020 1.391 . S
C3022 H3012 0.950 . S
C3022 C3023 1.386 . S
C3022 C3024 1.391 . S
C3023 C3022 1.386 . S
C3023 C3027 1.393 . S
C3024 H3013 0.950 . S
C3024 C3022 1.391 . S
C3024 C3025 1.400 . S
C3025 C3019 1.491 . S
C3025 C3024 1.400 . S
C3025 C3026 1.398 . S
C3026 H3014 0.950 . S
C3026 C3025 1.398 . S
C3026 C3027 1.391 . S
C3027 H3015 0.950 . S
C3027 C3023 1.393 . S
C3027 C3026 1.391 . S
H3028 C3036 0.950 . S
H3029 C3041 0.950 . S
H3030 C3038 0.950 . S
H3031 C3040 0.950 . S
H3032 C3042 0.950 . S
H3033 C3044 0.950 . S
H3034 C3046 0.950 . S
H3035 C3047 0.950 . S
C3036 H3028 0.950 . S
C3036 C3037 1.386 . S
C3036 C3038 1.391 . S
C3037 C3036 1.386 . S
C3037 C3041 1.393 . S
C3038 H3030 0.950 . S
C3038 C3036 1.391 . S
C3038 C3039 1.400 . S
C3039 C3038 1.400 . S
C3039 C3040 1.398 . S
C3039 C3045 1.491 . S
C3040 H3031 0.950 . S
C3040 C3039 1.398 . S
C3040 C3041 1.391 . S
C3041 H3029 0.950 . S
C3041 C3037 1.393 . S
C3041 C3040 1.391 . S
C3042 H3032 0.950 . S
C3042 C3043 1.386 . S
C3042 C3044 1.391 . S
C3043 C3042 1.386 . S
C3043 C3047 1.393 . S
C3044 H3033 0.950 . S
C3044 C3042 1.391 . S
C3044 C3045 1.400 . S
C3045 C3039 1.491 . S
C3045 C3044 1.400 . S
C3045 C3046 1.398 . S
C3046 H3034 0.950 . S
C3046 C3045 1.398 . S
C3046 C3047 1.391 . S
C3047 H3035 0.950 . S
C3047 C3043 1.393 . S
C3047 C3046 1.391 . S
H3048 C3056 0.950 . S
H3049 C3061 0.950 . S
H3050 C3058 0.950 . S
H3051 C3060 0.950 . S
H3052 C3062 0.950 . S
H3053 C3064 0.950 . S
H3054 C3066 0.950 . S
H3055 C3067 0.950 . S
C3056 H3048 0.950 . S
C3056 C3057 1.386 . S
C3056 C3058 1.391 . S
C3057 C3056 1.386 . S
C3057 C3061 1.393 . S
C3058 H3050 0.950 . S
C3058 C3056 1.391 . S
C3058 C3059 1.400 . S
C3059 C3058 1.400 . S
C3059 C3060 1.398 . S
C3059 C3065 1.491 . S
C3060 H3051 0.950 . S
C3060 C3059 1.398 . S
C3060 C3061 1.391 . S
C3061 H3049 0.950 . S
C3061 C3057 1.393 . S
C3061 C3060 1.391 . S
C3062 H3052 0.950 . S
C3062 C3063 1.386 . S
C3062 C3064 1.391 . S
C3063 C3062 1.386 . S
C3063 C3067 1.393 . S
C3064 H3053 0.950 . S
C3064 C3062 1.391 . S
C3064 C3065 1.400 . S
C3065 C3059 1.491 . S
C3065 C3064 1.400 . S
C3065 C3066 1.398 . S
C3066 H3054 0.950 . S
C3066 C3065 1.398 . S
C3066 C3067 1.391 . S
C3067 H3055 0.950 . S
C3067 C3063 1.393 . S
C3067 C3066 1.391 . S
H3068 C3076 0.950 . S
H3069 C3081 0.950 . S
H3070 C3078 0.950 . S
H3071 C3080 0.950 . S
H3072 C3082 0.950 . S
H3073 C3084 0.950 . S
H3074 C3086 0.950 . S
H3075 C3087 0.950 . S
C3076 H3068 0.950 . S
C3076 C3077 1.386 . S
C3076 C3078 1.391 . S
C3077 C3076 1.386 . S
C3077 C3081 1.393 . S
C3078 H3070 0.950 . S
C3078 C3076 1.391 . S
C3078 C3079 1.400 . S
C3079 C3078 1.400 . S
C3079 C3080 1.398 . S
C3079 C3085 1.491 . S
C3080 H3071 0.950 . S
C3080 C3079 1.398 . S
C3080 C3081 1.391 . S
C3081 H3069 0.950 . S
C3081 C3077 1.393 . S
C3081 C3080 1.391 . S
C3082 H3072 0.950 . S
C3082 C3083 1.386 . S
C3082 C3084 1.391 . S
C3083 C3082 1.386 . S
C3083 C3087 1.393 . S
C3084 H3073 0.950 . S
C3084 C3082 1.391 . S
C3084 C3085 1.400 . S
C3085 C3079 1.491 . S
C3085 C3084 1.400 . S
C3085 C3086 1.398 . S
C3086 H3074 0.950 . S
C3086 C3085 1.398 . S
C3086 C3087 1.391 . S
C3087 H3075 0.950 . S
C3087 C3083 1.393 . S
C3087 C3086 1.391 . S
H3088 C3096 0.950 . S
H3089 C3101 0.950 . S
H3090 C3098 0.950 . S
H3091 C3100 0.950 . S
H3092 C3102 0.950 . S
H3093 C3104 0.950 . S
H3094 C3106 0.950 . S
H3095 C3107 0.950 . S
C3096 H3088 0.950 . S
C3096 C3097 1.386 . S
C3096 C3098 1.391 . S
C3097 C3096 1.386 . S
C3097 C3101 1.393 . S
C3098 H3090 0.950 . S
C3098 C3096 1.391 . S
C3098 C3099 1.400 . S
C3099 C3098 1.400 . S
C3099 C3100 1.398 . S
C3099 C3105 1.491 . S
C3100 H3091 0.950 . S
C3100 C3099 1.398 . S
C3100 C3101 1.391 . S
C3101 H3089 0.950 . S
C3101 C3097 1.393 . S
C3101 C3100 1.391 . S
C3102 H3092 0.950 . S
C3102 C3103 1.386 . S
C3102 C3104 1.391 . S
C3103 C3102 1.386 . S
C3103 C3107 1.393 . S
C3104 H3093 0.950 . S
C3104 C3102 1.391 . S
C3104 C3105 1.400 . S
C3105 C3099 1.491 . S
C3105 C3104 1.400 . S
C3105 C3106 1.398 . S
C3106 H3094 0.950 . S
C3106 C3105 1.398 . S
C3106 C3107 1.391 . S
C3107 H3095 0.950 . S
C3107 C3103 1.393 . S
C3107 C3106 1.391 . S
H3108 C3116 0.950 . S
H3109 C3121 0.950 . S
H3110 C3118 0.950 . S
H3111 C3120 0.950 . S
H3112 C3122 0.950 . S
H3113 C3124 0.950 . S
H3114 C3126 0.950 . S
H3115 C3127 0.950 . S
C3116 H3108 0.950 . S
C3116 C3117 1.386 . S
C3116 C3118 1.391 . S
C3117 C3116 1.386 . S
C3117 C3121 1.393 . S
C3118 H3110 0.950 . S
C3118 C3116 1.391 . S
C3118 C3119 1.400 . S
C3119 C3118 1.400 . S
C3119 C3120 1.398 . S
C3119 C3125 1.491 . S
C3120 H3111 0.950 . S
C3120 C3119 1.398 . S
C3120 C3121 1.391 . S
C3121 H3109 0.950 . S
C3121 C3117 1.393 . S
C3121 C3120 1.391 . S
C3122 H3112 0.950 . S
C3122 C3123 1.386 . S
C3122 C3124 1.391 . S
C3123 C3122 1.386 . S
C3123 C3127 1.393 . S
C3124 H3113 0.950 . S
C3124 C3122 1.391 . S
C3124 C3125 1.400 . S
C3125 C3119 1.491 . S
C3125 C3124 1.400 . S
C3125 C3126 1.398 . S
C3126 H3114 0.950 . S
C3126 C3125 1.398 . S
C3126 C3127 1.391 . S
C3127 H3115 0.950 . S
C3127 C3123 1.393 . S
C3127 C3126 1.391 . S
H3128 C3136 0.950 . S
H3129 C3141 0.950 . S
H3130 C3138 0.950 . S
H3131 C3140 0.950 . S
H3132 C3142 0.950 . S
H3133 C3144 0.950 . S
H3134 C3146 0.950 . S
H3135 C3147 0.950 . S
C3136 H3128 0.950 . S
C3136 C3137 1.386 . S
C3136 C3138 1.391 . S
C3137 C3136 1.386 . S
C3137 C3141 1.393 . S
C3138 H3130 0.950 . S
C3138 C3136 1.391 . S
C3138 C3139 1.400 . S
C3139 C3138 1.400 . S
C3139 C3140 1.398 . S
C3139 C3145 1.491 . S
C3140 H3131 0.950 . S
C3140 C3139 1.398 . S
C3140 C3141 1.391 . S
C3141 H3129 0.950 . S
C3141 C3137 1.393 . S
C3141 C3140 1.391 . S
C3142 H3132 0.950 . S
C3142 C3143 1.386 . S
C3142 C3144 1.391 . S
C3143 C3142 1.386 . S
C3143 C3147 1.393 . S
C3144 H3133 0.950 . S
C3144 C3142 1.391 . S
C3144 C3145 1.400 . S
C3145 C3139 1.491 . S
C3145 C3144 1.400 . S
C3145 C3146 1.398 . S
C3146 H3134 0.950 . S
C3146 C3145 1.398 . S
C3146 C3147 1.391 . S
C3147 H3135 0.950 . S
C3147 C3143 1.393 . S
C3147 C3146 1.391 . S
H3148 C3156 0.950 . S
H3149 C3161 0.950 . S
H3150 C3158 0.950 . S
H3151 C3160 0.950 . S
H3152 C3162 0.950 . S
H3153 C3164 0.950 . S
H3154 C3166 0.950 . S
H3155 C3167 0.950 . S
C3156 H3148 0.950 . S
C3156 C3157 1.386 . S
C3156 C3158 1.391 . S
C3157 C3156 1.386 . S
C3157 C3161 1.393 . S
C3158 H3150 0.950 . S
C3158 C3156 1.391 . S
C3158 C3159 1.400 . S
C3159 C3158 1.400 . S
C3159 C3160 1.398 . S
C3159 C3165 1.491 . S
C3160 H3151 0.950 . S
C3160 C3159 1.398 . S
C3160 C3161 1.391 . S
C3161 H3149 0.950 . S
C3161 C3157 1.393 . S
C3161 C3160 1.391 . S
C3162 H3152 0.950 . S
C3162 C3163 1.386 . S
C3162 C3164 1.391 . S
C3163 C3162 1.386 . S
C3163 C3167 1.393 . S
C3164 H3153 0.950 . S
C3164 C3162 1.391 . S
C3164 C3165 1.400 . S
C3165 C3159 1.491 . S
C3165 C3164 1.400 . S
C3165 C3166 1.398 . S
C3166 H3154 0.950 . S
C3166 C3165 1.398 . S
C3166 C3167 1.391 . S
C3167 H3155 0.950 . S
C3167 C3163 1.393 . S
C3167 C3166 1.391 . S
H3168 C3176 0.950 . S
H3169 C3181 0.950 . S
H3170 C3178 0.950 . S
H3171 C3180 0.950 . S
H3172 C3182 0.950 . S
H3173 C3184 0.950 . S
H3174 C3186 0.950 . S
H3175 C3187 0.950 . S
C3176 H3168 0.950 . S
C3176 C3177 1.386 . S
C3176 C3178 1.391 . S
C3177 C3176 1.386 . S
C3177 C3181 1.393 . S
C3178 H3170 0.950 . S
C3178 C3176 1.391 . S
C3178 C3179 1.400 . S
C3179 C3178 1.400 . S
C3179 C3180 1.398 . S
C3179 C3185 1.491 . S
C3180 H3171 0.950 . S
C3180 C3179 1.398 . S
C3180 C3181 1.391 . S
C3181 H3169 0.950 . S
C3181 C3177 1.393 . S
C3181 C3180 1.391 . S
C3182 H3172 0.950 . S
C3182 C3183 1.386 . S
C3182 C3184 1.391 . S
C3183 C3182 1.386 . S
C3183 C3187 1.393 . S
C3184 H3173 0.950 . S
C3184 C3182 1.391 . S
C3184 C3185 1.400 . S
C3185 C3179 1.491 . S
C3185 C3184 1.400 . S
C3185 C3186 1.398 . S
C3186 H3174 0.950 . S
C3186 C3185 1.398 . S
C3186 C3187 1.391 . S
C3187 H3175 0.950 . S
C3187 C3183 1.393 . S
C3187 C3186 1.391 . S
H3188 C3196 0.950 . S
H3189 C3201 0.950 . S
H3190 C3198 0.950 . S
H3191 C3200 0.950 . S
H3192 C3202 0.950 . S
H3193 C3204 0.950 . S
H3194 C3206 0.950 . S
H3195 C3207 0.950 . S
C3196 H3188 0.950 . S
C3196 C3197 1.386 . S
C3196 C3198 1.391 . S
C3197 C3196 1.386 . S
C3197 C3201 1.393 . S
C3198 H3190 0.950 . S
C3198 C3196 1.391 . S
C3198 C3199 1.400 . S
C3199 C3198 1.400 . S
C3199 C3200 1.398 . S
C3199 C3205 1.491 . S
C3200 H3191 0.950 . S
C3200 C3199 1.398 . S
C3200 C3201 1.391 . S
C3201 H3189 0.950 . S
C3201 C3197 1.393 . S
C3201 C3200 1.391 . S
C3202 H3192 0.950 . S
C3202 C3203 1.386 . S
C3202 C3204 1.391 . S
C3203 C3202 1.386 . S
C3203 C3207 1.393 . S
C3204 H3193 0.950 . S
C3204 C3202 1.391 . S
C3204 C3205 1.400 . S
C3205 C3199 1.491 . S
C3205 C3204 1.400 . S
C3205 C3206 1.398 . S
C3206 H3194 0.950 . S
C3206 C3205 1.398 . S
C3206 C3207 1.391 . S
C3207 H3195 0.950 . S
C3207 C3203 1.393 . S
C3207 C3206 1.391 . S
H3208 C3216 0.950 . S
H3209 C3221 0.950 . S
H3210 C3218 0.950 . S
H3211 C3220 0.950 . S
H3212 C3222 0.950 . S
H3213 C3224 0.950 . S
H3214 C3226 0.950 . S
H3215 C3227 0.950 . S
C3216 H3208 0.950 . S
C3216 C3217 1.386 . S
C3216 C3218 1.391 . S
C3217 C3216 1.386 . S
C3217 C3221 1.393 . S
C3218 H3210 0.950 . S
C3218 C3216 1.391 . S
C3218 C3219 1.400 . S
C3219 C3218 1.400 . S
C3219 C3220 1.398 . S
C3219 C3225 1.491 . S
C3220 H3211 0.950 . S
C3220 C3219 1.398 . S
C3220 C3221 1.391 . S
C3221 H3209 0.950 . S
C3221 C3217 1.393 . S
C3221 C3220 1.391 . S
C3222 H3212 0.950 . S
C3222 C3223 1.386 . S
C3222 C3224 1.391 . S
C3223 C3222 1.386 . S
C3223 C3227 1.393 . S
C3224 H3213 0.950 . S
C3224 C3222 1.391 . S
C3224 C3225 1.400 . S
C3225 C3219 1.491 . S
C3225 C3224 1.400 . S
C3225 C3226 1.398 . S
C3226 H3214 0.950 . S
C3226 C3225 1.398 . S
C3226 C3227 1.391 . S
C3227 H3215 0.950 . S
C3227 C3223 1.393 . S
C3227 C3226 1.391 . S
H3228 C3236 0.950 . S
H3229 C3241 0.950 . S
H3230 C3238 0.950 . S
H3231 C3240 0.950 . S
H3232 C3242 0.950 . S
H3233 C3244 0.950 . S
H3234 C3246 0.950 . S
H3235 C3247 0.950 . S
C3236 H3228 0.950 . S
C3236 C3237 1.386 . S
C3236 C3238 1.391 . S
C3237 C3236 1.386 . S
C3237 C3241 1.393 . S
C3238 H3230 0.950 . S
C3238 C3236 1.391 . S
C3238 C3239 1.400 . S
C3239 C3238 1.400 . S
C3239 C3240 1.398 . S
C3239 C3245 1.491 . S
C3240 H3231 0.950 . S
C3240 C3239 1.398 . S
C3240 C3241 1.391 . S
C3241 H3229 0.950 . S
C3241 C3237 1.393 . S
C3241 C3240 1.391 . S
C3242 H3232 0.950 . S
C3242 C3243 1.386 . S
C3242 C3244 1.391 . S
C3243 C3242 1.386 . S
C3243 C3247 1.393 . S
C3244 H3233 0.950 . S
C3244 C3242 1.391 . S
C3244 C3245 1.400 . S
C3245 C3239 1.491 . S
C3245 C3244 1.400 . S
C3245 C3246 1.398 . S
C3246 H3234 0.950 . S
C3246 C3245 1.398 . S
C3246 C3247 1.391 . S
C3247 H3235 0.950 . S
C3247 C3243 1.393 . S
C3247 C3246 1.391 . S
H3248 C3256 0.950 . S
H3249 C3261 0.950 . S
H3250 C3258 0.950 . S
H3251 C3260 0.950 . S
H3252 C3262 0.950 . S
H3253 C3264 0.950 . S
H3254 C3266 0.950 . S
H3255 C3267 0.950 . S
C3256 H3248 0.950 . S
C3256 C3257 1.386 . S
C3256 C3258 1.391 . S
C3257 C3256 1.386 . S
C3257 C3261 1.393 . S
C3258 H3250 0.950 . S
C3258 C3256 1.391 . S
C3258 C3259 1.400 . S
C3259 C3258 1.400 . S
C3259 C3260 1.398 . S
C3259 C3265 1.491 . S
C3260 H3251 0.950 . S
C3260 C3259 1.398 . S
C3260 C3261 1.391 . S
C3261 H3249 0.950 . S
C3261 C3257 1.393 . S
C3261 C3260 1.391 . S
C3262 H3252 0.950 . S
C3262 C3263 1.386 . S
C3262 C3264 1.391 . S
C3263 C3262 1.386 . S
C3263 C3267 1.393 . S
C3264 H3253 0.950 . S
C3264 C3262 1.391 . S
C3264 C3265 1.400 . S
C3265 C3259 1.491 . S
C3265 C3264 1.400 . S
C3265 C3266 1.398 . S
C3266 H3254 0.950 . S
C3266 C3265 1.398 . S
C3266 C3267 1.391 . S
C3267 H3255 0.950 . S
C3267 C3263 1.393 . S
C3267 C3266 1.391 . S
H3268 C3276 0.950 . S
H3269 C3281 0.950 . S
H3270 C3278 0.950 . S
H3271 C3280 0.950 . S
H3272 C3282 0.950 . S
H3273 C3284 0.950 . S
H3274 C3286 0.950 . S
H3275 C3287 0.950 . S
C3276 H3268 0.950 . S
C3276 C3277 1.386 . S
C3276 C3278 1.391 . S
C3277 C3276 1.386 . S
C3277 C3281 1.393 . S
C3278 H3270 0.950 . S
C3278 C3276 1.391 . S
C3278 C3279 1.400 . S
C3279 C3278 1.400 . S
C3279 C3280 1.398 . S
C3279 C3285 1.491 . S
C3280 H3271 0.950 . S
C3280 C3279 1.398 . S
C3280 C3281 1.391 . S
C3281 H3269 0.950 . S
C3281 C3277 1.393 . S
C3281 C3280 1.391 . S
C3282 H3272 0.950 . S
C3282 C3283 1.386 . S
C3282 C3284 1.391 . S
C3283 C3282 1.386 . S
C3283 C3287 1.393 . S
C3284 H3273 0.950 . S
C3284 C3282 1.391 . S
C3284 C3285 1.400 . S
C3285 C3279 1.491 . S
C3285 C3284 1.400 . S
C3285 C3286 1.398 . S
C3286 H3274 0.950 . S
C3286 C3285 1.398 . S
C3286 C3287 1.391 . S
C3287 H3275 0.950 . S
C3287 C3283 1.393 . S
C3287 C3286 1.391 . S
H3288 C3296 0.950 . S
H3289 C3301 0.950 . S
H3290 C3298 0.950 . S
H3291 C3300 0.950 . S
H3292 C3302 0.950 . S
H3293 C3304 0.950 . S
H3294 C3306 0.950 . S
H3295 C3307 0.950 . S
C3296 H3288 0.950 . S
C3296 C3297 1.386 . S
C3296 C3298 1.391 . S
C3297 C3296 1.386 . S
C3297 C3301 1.393 . S
C3298 H3290 0.950 . S
C3298 C3296 1.391 . S
C3298 C3299 1.400 . S
C3299 C3298 1.400 . S
C3299 C3300 1.398 . S
C3299 C3305 1.491 . S
C3300 H3291 0.950 . S
C3300 C3299 1.398 . S
C3300 C3301 1.391 . S
C3301 H3289 0.950 . S
C3301 C3297 1.393 . S
C3301 C3300 1.391 . S
C3302 H3292 0.950 . S
C3302 C3303 1.386 . S
C3302 C3304 1.391 . S
C3303 C3302 1.386 . S
C3303 C3307 1.393 . S
C3304 H3293 0.950 . S
C3304 C3302 1.391 . S
C3304 C3305 1.400 . S
C3305 C3299 1.491 . S
C3305 C3304 1.400 . S
C3305 C3306 1.398 . S
C3306 H3294 0.950 . S
C3306 C3305 1.398 . S
C3306 C3307 1.391 . S
C3307 H3295 0.950 . S
C3307 C3303 1.393 . S
C3307 C3306 1.391 . S
H3308 C3316 0.950 . S
H3309 C3321 0.950 . S
H3310 C3318 0.950 . S
H3311 C3320 0.950 . S
H3312 C3322 0.950 . S
H3313 C3324 0.950 . S
H3314 C3326 0.950 . S
H3315 C3327 0.950 . S
C3316 H3308 0.950 . S
C3316 C3317 1.386 . S
C3316 C3318 1.391 . S
C3317 C3316 1.386 . S
C3317 C3321 1.393 . S
C3318 H3310 0.950 . S
C3318 C3316 1.391 . S
C3318 C3319 1.400 . S
C3319 C3318 1.400 . S
C3319 C3320 1.398 . S
C3319 C3325 1.491 . S
C3320 H3311 0.950 . S
C3320 C3319 1.398 . S
C3320 C3321 1.391 . S
C3321 H3309 0.950 . S
C3321 C3317 1.393 . S
C3321 C3320 1.391 . S
C3322 H3312 0.950 . S
C3322 C3323 1.386 . S
C3322 C3324 1.391 . S
C3323 C3322 1.386 . S
C3323 C3327 1.393 . S
C3324 H3313 0.950 . S
C3324 C3322 1.391 . S
C3324 C3325 1.400 . S
C3325 C3319 1.491 . S
C3325 C3324 1.400 . S
C3325 C3326 1.398 . S
C3326 H3314 0.950 . S
C3326 C3325 1.398 . S
C3326 C3327 1.391 . S
C3327 H3315 0.950 . S
C3327 C3323 1.393 . S
C3327 C3326 1.391 . S
H3328 C3336 0.950 . S
H3329 C3341 0.950 . S
H3330 C3338 0.950 . S
H3331 C3340 0.950 . S
H3332 C3342 0.950 . S
H3333 C3344 0.950 . S
H3334 C3346 0.950 . S
H3335 C3347 0.950 . S
C3336 H3328 0.950 . S
C3336 C3337 1.386 . S
C3336 C3338 1.391 . S
C3337 C3336 1.386 . S
C3337 C3341 1.393 . S
C3338 H3330 0.950 . S
C3338 C3336 1.391 . S
C3338 C3339 1.400 . S
C3339 C3338 1.400 . S
C3339 C3340 1.398 . S
C3339 C3345 1.491 1_455 S
C3340 H3331 0.950 . S
C3340 C3339 1.398 . S
C3340 C3341 1.391 . S
C3341 H3329 0.950 . S
C3341 C3337 1.393 . S
C3341 C3340 1.391 . S
C3342 H3332 0.950 . S
C3342 C3343 1.386 . S
C3342 C3344 1.391 . S
C3343 C3342 1.386 . S
C3343 C3347 1.393 . S
C3344 H3333 0.950 . S
C3344 C3342 1.391 . S
C3344 C3345 1.400 . S
C3345 C3339 1.491 1_655 S
C3345 C3344 1.400 . S
C3345 C3346 1.398 . S
C3346 H3334 0.950 . S
C3346 C3345 1.398 . S
C3346 C3347 1.391 . S
C3347 H3335 0.950 . S
C3347 C3343 1.393 . S
C3347 C3346 1.391 . S
H3348 C3356 0.950 . S
H3349 C3361 0.950 . S
H3350 C3358 0.950 . S
H3351 C3360 0.950 . S
H3352 C3362 0.950 . S
H3353 C3364 0.950 . S
H3354 C3366 0.950 . S
H3355 C3367 0.950 . S
C3356 H3348 0.950 . S
C3356 C3357 1.386 . S
C3356 C3358 1.391 . S
C3357 C3356 1.386 . S
C3357 C3361 1.393 1_655 S
C3358 H3350 0.950 . S
C3358 C3356 1.391 . S
C3358 C3359 1.400 . S
C3359 C3358 1.400 . S
C3359 C3360 1.398 1_655 S
C3359 C3365 1.491 1_655 S
C3360 H3351 0.950 . S
C3360 C3359 1.398 1_455 S
C3360 C3361 1.391 . S
C3361 H3349 0.950 . S
C3361 C3357 1.393 1_455 S
C3361 C3360 1.391 . S
C3362 H3352 0.950 . S
C3362 C3363 1.386 . S
C3362 C3364 1.391 . S
C3363 C3362 1.386 . S
C3363 C3367 1.393 1_455 S
C3364 H3353 0.950 . S
C3364 C3362 1.391 . S
C3364 C3365 1.400 . S
C3365 C3359 1.491 1_455 S
C3365 C3364 1.400 . S
C3365 C3366 1.398 1_455 S
C3366 H3354 0.950 . S
C3366 C3365 1.398 1_655 S
C3366 C3367 1.391 . S
C3367 H3355 0.950 . S
C3367 C3363 1.393 1_655 S
C3367 C3366 1.391 . S
H3368 C3376 0.950 . S
H3369 C3381 0.950 . S
H3370 C3378 0.950 . S
H3371 C3380 0.950 . S
H3372 C3382 0.950 . S
H3373 C3384 0.950 . S
H3374 C3386 0.950 . S
H3375 C3387 0.950 . S
C3376 H3368 0.950 . S
C3376 C3377 1.386 . S
C3376 C3378 1.391 . S
C3377 C3376 1.386 . S
C3377 C3381 1.393 . S
C3378 H3370 0.950 . S
C3378 C3376 1.391 . S
C3378 C3379 1.400 . S
C3379 C3378 1.400 . S
C3379 C3380 1.398 . S
C3379 C3385 1.491 . S
C3380 H3371 0.950 . S
C3380 C3379 1.398 . S
C3380 C3381 1.391 . S
C3381 H3369 0.950 . S
C3381 C3377 1.393 . S
C3381 C3380 1.391 . S
C3382 H3372 0.950 . S
C3382 C3383 1.386 . S
C3382 C3384 1.391 . S
C3383 C3382 1.386 . S
C3383 C3387 1.393 . S
C3384 H3373 0.950 . S
C3384 C3382 1.391 . S
C3384 C3385 1.400 . S
C3385 C3379 1.491 . S
C3385 C3384 1.400 . S
C3385 C3386 1.398 . S
C3386 H3374 0.950 . S
C3386 C3385 1.398 . S
C3386 C3387 1.391 . S
C3387 H3375 0.950 . S
C3387 C3383 1.393 . S
C3387 C3386 1.391 . S
H3388 C3396 0.950 . S
H3389 C3401 0.950 . S
H3390 C3398 0.950 . S
H3391 C3400 0.950 . S
H3392 C3402 0.950 . S
H3393 C3404 0.950 . S
H3394 C3406 0.950 . S
H3395 C3407 0.950 . S
C3396 H3388 0.950 . S
C3396 C3397 1.386 . S
C3396 C3398 1.391 . S
C3397 C3396 1.386 . S
C3397 C3401 1.393 . S
C3398 H3390 0.950 . S
C3398 C3396 1.391 . S
C3398 C3399 1.400 . S
C3399 C3398 1.400 . S
C3399 C3400 1.398 . S
C3399 C3405 1.491 . S
C3400 H3391 0.950 . S
C3400 C3399 1.398 . S
C3400 C3401 1.391 . S
C3401 H3389 0.950 . S
C3401 C3397 1.393 . S
C3401 C3400 1.391 . S
C3402 H3392 0.950 . S
C3402 C3403 1.386 . S
C3402 C3404 1.391 . S
C3403 C3402 1.386 . S
C3403 C3407 1.393 . S
C3404 H3393 0.950 . S
C3404 C3402 1.391 . S
C3404 C3405 1.400 . S
C3405 C3399 1.491 . S
C3405 C3404 1.400 . S
C3405 C3406 1.398 . S
C3406 H3394 0.950 . S
C3406 C3405 1.398 . S
C3406 C3407 1.391 . S
C3407 H3395 0.950 . S
C3407 C3403 1.393 . S
C3407 C3406 1.391 . S
H3408 C3416 0.950 . S
H3409 C3421 0.950 . S
H3410 C3418 0.950 . S
H3411 C3420 0.950 . S
H3412 C3422 0.950 . S
H3413 C3424 0.950 . S
H3414 C3426 0.950 . S
H3415 C3427 0.950 . S
C3416 H3408 0.950 . S
C3416 C3417 1.386 . S
C3416 C3418 1.391 . S
C3417 C3416 1.386 . S
C3417 C3421 1.393 . S
C3418 H3410 0.950 . S
C3418 C3416 1.391 . S
C3418 C3419 1.400 . S
C3419 C3418 1.400 . S
C3419 C3420 1.398 . S
C3419 C3425 1.491 1_655 S
C3420 H3411 0.950 . S
C3420 C3419 1.398 . S
C3420 C3421 1.391 . S
C3421 H3409 0.950 . S
C3421 C3417 1.393 . S
C3421 C3420 1.391 . S
C3422 H3412 0.950 . S
C3422 C3423 1.386 . S
C3422 C3424 1.391 . S
C3423 C3422 1.386 . S
C3423 C3427 1.393 . S
C3424 H3413 0.950 . S
C3424 C3422 1.391 . S
C3424 C3425 1.400 . S
C3425 C3419 1.491 1_455 S
C3425 C3424 1.400 . S
C3425 C3426 1.398 . S
C3426 H3414 0.950 . S
C3426 C3425 1.398 . S
C3426 C3427 1.391 . S
C3427 H3415 0.950 . S
C3427 C3423 1.393 . S
C3427 C3426 1.391 . S
H3428 C3436 0.950 . S
H3429 C3441 0.950 . S
H3430 C3438 0.950 . S
H3431 C3440 0.950 . S
H3432 C3442 0.950 . S
H3433 C3444 0.950 . S
H3434 C3446 0.950 . S
H3435 C3447 0.950 . S
C3436 H3428 0.950 . S
C3436 C3437 1.386 . S
C3436 C3438 1.391 . S
C3437 C3436 1.386 . S
C3437 C3441 1.393 . S
C3438 H3430 0.950 . S
C3438 C3436 1.391 . S
C3438 C3439 1.400 . S
C3439 C3438 1.400 . S
C3439 C3440 1.398 . S
C3439 C3445 1.491 . S
C3440 H3431 0.950 . S
C3440 C3439 1.398 . S
C3440 C3441 1.391 . S
C3441 H3429 0.950 . S
C3441 C3437 1.393 . S
C3441 C3440 1.391 . S
C3442 H3432 0.950 . S
C3442 C3443 1.386 . S
C3442 C3444 1.391 . S
C3443 C3442 1.386 . S
C3443 C3447 1.393 . S
C3444 H3433 0.950 . S
C3444 C3442 1.391 . S
C3444 C3445 1.400 . S
C3445 C3439 1.491 . S
C3445 C3444 1.400 . S
C3445 C3446 1.398 . S
C3446 H3434 0.950 . S
C3446 C3445 1.398 . S
C3446 C3447 1.391 . S
C3447 H3435 0.950 . S
C3447 C3443 1.393 . S
C3447 C3446 1.391 . S
H3448 C3456 0.950 . S
H3449 C3461 0.950 . S
H3450 C3458 0.950 . S
H3451 C3460 0.950 . S
H3452 C3462 0.950 . S
H3453 C3464 0.950 . S
H3454 C3466 0.950 . S
H3455 C3467 0.950 . S
C3456 H3448 0.950 . S
C3456 C3457 1.386 . S
C3456 C3458 1.391 . S
C3457 C3456 1.386 . S
C3457 C3461 1.393 . S
C3458 H3450 0.950 . S
C3458 C3456 1.391 . S
C3458 C3459 1.400 . S
C3459 C3458 1.400 . S
C3459 C3460 1.398 . S
C3459 C3465 1.491 . S
C3460 H3451 0.950 . S
C3460 C3459 1.398 . S
C3460 C3461 1.391 . S
C3461 H3449 0.950 . S
C3461 C3457 1.393 . S
C3461 C3460 1.391 . S
C3462 H3452 0.950 . S
C3462 C3463 1.386 . S
C3462 C3464 1.391 . S
C3463 C3462 1.386 . S
C3463 C3467 1.393 . S
C3464 H3453 0.950 . S
C3464 C3462 1.391 . S
C3464 C3465 1.400 . S
C3465 C3459 1.491 . S
C3465 C3464 1.400 . S
C3465 C3466 1.398 . S
C3466 H3454 0.950 . S
C3466 C3465 1.398 . S
C3466 C3467 1.391 . S
C3467 H3455 0.950 . S
C3467 C3463 1.393 . S
C3467 C3466 1.391 . S
H3468 C3476 0.950 . S
H3469 C3481 0.950 . S
H3470 C3478 0.950 . S
H3471 C3480 0.950 . S
H3472 C3482 0.950 . S
H3473 C3484 0.950 . S
H3474 C3486 0.950 . S
H3475 C3487 0.950 . S
C3476 H3468 0.950 . S
C3476 C3477 1.386 . S
C3476 C3478 1.391 . S
C3477 C3476 1.386 . S
C3477 C3481 1.393 1_455 S
C3478 H3470 0.950 . S
C3478 C3476 1.391 . S
C3478 C3479 1.400 . S
C3479 C3478 1.400 . S
C3479 C3480 1.398 1_455 S
C3479 C3485 1.491 1_455 S
C3480 H3471 0.950 . S
C3480 C3479 1.398 1_655 S
C3480 C3481 1.391 . S
C3481 H3469 0.950 . S
C3481 C3477 1.393 1_655 S
C3481 C3480 1.391 . S
C3482 H3472 0.950 . S
C3482 C3483 1.386 . S
C3482 C3484 1.391 . S
C3483 C3482 1.386 . S
C3483 C3487 1.393 1_655 S
C3484 H3473 0.950 . S
C3484 C3482 1.391 . S
C3484 C3485 1.400 . S
C3485 C3479 1.491 1_655 S
C3485 C3484 1.400 . S
C3485 C3486 1.398 1_655 S
C3486 H3474 0.950 . S
C3486 C3485 1.398 1_455 S
C3486 C3487 1.391 . S
C3487 H3475 0.950 . S
C3487 C3483 1.393 1_455 S
C3487 C3486 1.391 . S
H3488 C3496 0.950 . S
H3489 C3501 0.950 . S
H3490 C3498 0.950 . S
H3491 C3500 0.950 . S
H3492 C3502 0.950 . S
H3493 C3504 0.950 . S
H3494 C3506 0.950 . S
H3495 C3507 0.950 . S
C3496 H3488 0.950 . S
C3496 C3497 1.386 . S
C3496 C3498 1.391 . S
C3497 C3496 1.386 . S
C3497 C3501 1.393 . S
C3498 H3490 0.950 . S
C3498 C3496 1.391 . S
C3498 C3499 1.400 . S
C3499 C3498 1.400 . S
C3499 C3500 1.398 . S
C3499 C3505 1.491 1_455 S
C3500 H3491 0.950 . S
C3500 C3499 1.398 . S
C3500 C3501 1.391 . S
C3501 H3489 0.950 . S
C3501 C3497 1.393 . S
C3501 C3500 1.391 . S
C3502 H3492 0.950 . S
C3502 C3503 1.386 . S
C3502 C3504 1.391 . S
C3503 C3502 1.386 . S
C3503 C3507 1.393 . S
C3504 H3493 0.950 . S
C3504 C3502 1.391 . S
C3504 C3505 1.400 . S
C3505 C3499 1.491 1_655 S
C3505 C3504 1.400 . S
C3505 C3506 1.398 . S
C3506 H3494 0.950 . S
C3506 C3505 1.398 . S
C3506 C3507 1.391 . S
C3507 H3495 0.950 . S
C3507 C3503 1.393 . S
C3507 C3506 1.391 . S
H3508 C3516 0.950 . S
H3509 C3521 0.950 . S
H3510 C3518 0.950 . S
H3511 C3520 0.950 . S
H3512 C3522 0.950 . S
H3513 C3524 0.950 . S
H3514 C3526 0.950 . S
H3515 C3527 0.950 . S
C3516 H3508 0.950 . S
C3516 C3517 1.386 . S
C3516 C3518 1.391 . S
C3517 C3516 1.386 . S
C3517 C3521 1.393 1_655 S
C3518 H3510 0.950 . S
C3518 C3516 1.391 . S
C3518 C3519 1.400 . S
C3519 C3518 1.400 . S
C3519 C3520 1.398 1_655 S
C3519 C3525 1.491 1_655 S
C3520 H3511 0.950 . S
C3520 C3519 1.398 1_455 S
C3520 C3521 1.391 . S
C3521 H3509 0.950 . S
C3521 C3517 1.393 1_455 S
C3521 C3520 1.391 . S
C3522 H3512 0.950 . S
C3522 C3523 1.386 . S
C3522 C3524 1.391 . S
C3523 C3522 1.386 . S
C3523 C3527 1.393 1_455 S
C3524 H3513 0.950 . S
C3524 C3522 1.391 . S
C3524 C3525 1.400 . S
C3525 C3519 1.491 1_455 S
C3525 C3524 1.400 . S
C3525 C3526 1.398 1_455 S
C3526 H3514 0.950 . S
C3526 C3525 1.398 1_655 S
C3526 C3527 1.391 . S
C3527 H3515 0.950 . S
C3527 C3523 1.393 1_655 S
C3527 C3526 1.391 . S
H3528 C3536 0.950 . S
H3529 C3541 0.950 . S
H3530 C3538 0.950 . S
H3531 C3540 0.950 . S
H3532 C3542 0.950 . S
H3533 C3544 0.950 . S
H3534 C3546 0.950 . S
H3535 C3547 0.950 . S
C3536 H3528 0.950 . S
C3536 C3537 1.386 . S
C3536 C3538 1.391 . S
C3537 C3536 1.386 . S
C3537 C3541 1.393 . S
C3538 H3530 0.950 . S
C3538 C3536 1.391 . S
C3538 C3539 1.400 . S
C3539 C3538 1.400 . S
C3539 C3540 1.398 . S
C3539 C3545 1.491 . S
C3540 H3531 0.950 . S
C3540 C3539 1.398 . S
C3540 C3541 1.391 . S
C3541 H3529 0.950 . S
C3541 C3537 1.393 . S
C3541 C3540 1.391 . S
C3542 H3532 0.950 . S
C3542 C3543 1.386 . S
C3542 C3544 1.391 . S
C3543 C3542 1.386 . S
C3543 C3547 1.393 . S
C3544 H3533 0.950 . S
C3544 C3542 1.391 . S
C3544 C3545 1.400 . S
C3545 C3539 1.491 . S
C3545 C3544 1.400 . S
C3545 C3546 1.398 . S
C3546 H3534 0.950 . S
C3546 C3545 1.398 . S
C3546 C3547 1.391 . S
C3547 H3535 0.950 . S
C3547 C3543 1.393 . S
C3547 C3546 1.391 . S
H3548 C3556 0.950 . S
H3549 C3561 0.950 . S
H3550 C3558 0.950 . S
H3551 C3560 0.950 . S
H3552 C3562 0.950 . S
H3553 C3564 0.950 . S
H3554 C3566 0.950 . S
H3555 C3567 0.950 . S
C3556 H3548 0.950 . S
C3556 C3557 1.386 . S
C3556 C3558 1.391 . S
C3557 C3556 1.386 . S
C3557 C3561 1.393 . S
C3558 H3550 0.950 . S
C3558 C3556 1.391 . S
C3558 C3559 1.400 . S
C3559 C3558 1.400 . S
C3559 C3560 1.398 . S
C3559 C3565 1.491 . S
C3560 H3551 0.950 . S
C3560 C3559 1.398 . S
C3560 C3561 1.391 . S
C3561 H3549 0.950 . S
C3561 C3557 1.393 . S
C3561 C3560 1.391 . S
C3562 H3552 0.950 . S
C3562 C3563 1.386 . S
C3562 C3564 1.391 . S
C3563 C3562 1.386 . S
C3563 C3567 1.393 . S
C3564 H3553 0.950 . S
C3564 C3562 1.391 . S
C3564 C3565 1.400 . S
C3565 C3559 1.491 . S
C3565 C3564 1.400 . S
C3565 C3566 1.398 . S
C3566 H3554 0.950 . S
C3566 C3565 1.398 . S
C3566 C3567 1.391 . S
C3567 H3555 0.950 . S
C3567 C3563 1.393 . S
C3567 C3566 1.391 . S
H3568 C3576 0.950 . S
H3569 C3581 0.950 . S
H3570 C3578 0.950 . S
H3571 C3580 0.950 . S
H3572 C3582 0.950 . S
H3573 C3584 0.950 . S
H3574 C3586 0.950 . S
H3575 C3587 0.950 . S
C3576 H3568 0.950 . S
C3576 C3577 1.386 . S
C3576 C3578 1.391 . S
C3577 C3576 1.386 . S
C3577 C3581 1.393 . S
C3578 H3570 0.950 . S
C3578 C3576 1.391 . S
C3578 C3579 1.400 . S
C3579 C3578 1.400 . S
C3579 C3580 1.398 . S
C3579 C3585 1.491 1_455 S
C3580 H3571 0.950 . S
C3580 C3579 1.398 . S
C3580 C3581 1.391 . S
C3581 H3569 0.950 . S
C3581 C3577 1.393 . S
C3581 C3580 1.391 . S
C3582 H3572 0.950 . S
C3582 C3583 1.386 . S
C3582 C3584 1.391 . S
C3583 C3582 1.386 . S
C3583 C3587 1.393 . S
C3584 H3573 0.950 . S
C3584 C3582 1.391 . S
C3584 C3585 1.400 . S
C3585 C3579 1.491 1_655 S
C3585 C3584 1.400 . S
C3585 C3586 1.398 . S
C3586 H3574 0.950 . S
C3586 C3585 1.398 . S
C3586 C3587 1.391 . S
C3587 H3575 0.950 . S
C3587 C3583 1.393 . S
C3587 C3586 1.391 . S
H3588 C3596 0.950 . S
H3589 C3601 0.950 . S
H3590 C3598 0.950 . S
H3591 C3600 0.950 . S
H3592 C3602 0.950 . S
H3593 C3604 0.950 . S
H3594 C3606 0.950 . S
H3595 C3607 0.950 . S
C3596 H3588 0.950 . S
C3596 C3597 1.386 . S
C3596 C3598 1.391 . S
C3597 C3596 1.386 . S
C3597 C3601 1.393 . S
C3598 H3590 0.950 . S
C3598 C3596 1.391 . S
C3598 C3599 1.400 . S
C3599 C3598 1.400 . S
C3599 C3600 1.398 . S
C3599 C3605 1.491 . S
C3600 H3591 0.950 . S
C3600 C3599 1.398 . S
C3600 C3601 1.391 . S
C3601 H3589 0.950 . S
C3601 C3597 1.393 . S
C3601 C3600 1.391 . S
C3602 H3592 0.950 . S
C3602 C3603 1.386 . S
C3602 C3604 1.391 . S
C3603 C3602 1.386 . S
C3603 C3607 1.393 . S
C3604 H3593 0.950 . S
C3604 C3602 1.391 . S
C3604 C3605 1.400 . S
C3605 C3599 1.491 . S
C3605 C3604 1.400 . S
C3605 C3606 1.398 . S
C3606 H3594 0.950 . S
C3606 C3605 1.398 . S
C3606 C3607 1.391 . S
C3607 H3595 0.950 . S
C3607 C3603 1.393 . S
C3607 C3606 1.391 . S
H3608 C3616 0.950 . S
H3609 C3621 0.950 . S
H3610 C3618 0.950 . S
H3611 C3620 0.950 . S
H3612 C3622 0.950 . S
H3613 C3624 0.950 . S
H3614 C3626 0.950 . S
H3615 C3627 0.950 . S
C3616 H3608 0.950 . S
C3616 C3617 1.386 . S
C3616 C3618 1.391 . S
C3617 C3616 1.386 . S
C3617 C3621 1.393 . S
C3618 H3610 0.950 . S
C3618 C3616 1.391 . S
C3618 C3619 1.400 . S
C3619 C3618 1.400 . S
C3619 C3620 1.398 . S
C3619 C3625 1.491 . S
C3620 H3611 0.950 . S
C3620 C3619 1.398 . S
C3620 C3621 1.391 . S
C3621 H3609 0.950 . S
C3621 C3617 1.393 . S
C3621 C3620 1.391 . S
C3622 H3612 0.950 . S
C3622 C3623 1.386 . S
C3622 C3624 1.391 . S
C3623 C3622 1.386 . S
C3623 C3627 1.393 . S
C3624 H3613 0.950 . S
C3624 C3622 1.391 . S
C3624 C3625 1.400 . S
C3625 C3619 1.491 . S
C3625 C3624 1.400 . S
C3625 C3626 1.398 . S
C3626 H3614 0.950 . S
C3626 C3625 1.398 . S
C3626 C3627 1.391 . S
C3627 H3615 0.950 . S
C3627 C3623 1.393 . S
C3627 C3626 1.391 . S
H3628 C3636 0.950 . S
H3629 C3641 0.950 . S
H3630 C3638 0.950 . S
H3631 C3640 0.950 . S
H3632 C3642 0.950 . S
H3633 C3644 0.950 . S
H3634 C3646 0.950 . S
H3635 C3647 0.950 . S
C3636 H3628 0.950 . S
C3636 C3637 1.386 . S
C3636 C3638 1.391 . S
C3637 C3636 1.386 . S
C3637 C3641 1.393 1_655 S
C3638 H3630 0.950 . S
C3638 C3636 1.391 . S
C3638 C3639 1.400 . S
C3639 C3638 1.400 . S
C3639 C3640 1.398 1_655 S
C3639 C3645 1.491 1_655 S
C3640 H3631 0.950 . S
C3640 C3639 1.398 1_455 S
C3640 C3641 1.391 . S
C3641 H3629 0.950 . S
C3641 C3637 1.393 1_455 S
C3641 C3640 1.391 . S
C3642 H3632 0.950 . S
C3642 C3643 1.386 . S
C3642 C3644 1.391 . S
C3643 C3642 1.386 . S
C3643 C3647 1.393 1_455 S
C3644 H3633 0.950 . S
C3644 C3642 1.391 . S
C3644 C3645 1.400 . S
C3645 C3639 1.491 1_455 S
C3645 C3644 1.400 . S
C3645 C3646 1.398 1_455 S
C3646 H3634 0.950 . S
C3646 C3645 1.398 1_655 S
C3646 C3647 1.391 . S
C3647 H3635 0.950 . S
C3647 C3643 1.393 1_655 S
C3647 C3646 1.391 . S
H3648 C3656 0.950 . S
H3649 C3661 0.950 . S
H3650 C3658 0.950 . S
H3651 C3660 0.950 . S
H3652 C3662 0.950 . S
H3653 C3664 0.950 . S
H3654 C3666 0.950 . S
H3655 C3667 0.950 . S
C3656 H3648 0.950 . S
C3656 C3657 1.386 . S
C3656 C3658 1.391 . S
C3657 C3656 1.386 . S
C3657 C3661 1.393 . S
C3658 H3650 0.950 . S
C3658 C3656 1.391 . S
C3658 C3659 1.400 . S
C3659 C3658 1.400 . S
C3659 C3660 1.398 . S
C3659 C3665 1.491 . S
C3660 H3651 0.950 . S
C3660 C3659 1.398 . S
C3660 C3661 1.391 . S
C3661 H3649 0.950 . S
C3661 C3657 1.393 . S
C3661 C3660 1.391 . S
C3662 H3652 0.950 . S
C3662 C3663 1.386 . S
C3662 C3664 1.391 . S
C3663 C3662 1.386 . S
C3663 C3667 1.393 . S
C3664 H3653 0.950 . S
C3664 C3662 1.391 . S
C3664 C3665 1.400 . S
C3665 C3659 1.491 . S
C3665 C3664 1.400 . S
C3665 C3666 1.398 . S
C3666 H3654 0.950 . S
C3666 C3665 1.398 . S
C3666 C3667 1.391 . S
C3667 H3655 0.950 . S
C3667 C3663 1.393 . S
C3667 C3666 1.391 . S
H3668 C3676 0.950 . S
H3669 C3681 0.950 . S
H3670 C3678 0.961 . S
H3671 C3680 0.950 . S
H3672 C3682 0.950 . S
H3673 C3684 0.961 . S
H3674 C3686 0.950 . S
H3675 C3687 0.950 . S
C3676 H3668 0.950 . S
C3676 C3677 1.386 . S
C3676 C3678 1.385 1_655 S
C3677 C3676 1.386 . S
C3677 C3681 1.393 1_545 S
C3678 H3670 0.961 . S
C3678 C3676 1.385 1_455 S
C3678 C3679 1.396 1_455 S
C3679 C3678 1.396 1_655 S
C3679 C3680 1.398 1_545 S
C3679 C3685 1.491 1_645 S
C3680 H3671 0.950 . S
C3680 C3679 1.398 1_565 S
C3680 C3681 1.391 . S
C3681 H3669 0.950 . S
C3681 C3677 1.393 1_565 S
C3681 C3680 1.391 . S
C3682 H3672 0.950 . S
C3682 C3683 1.386 . S
C3682 C3684 1.385 1_455 S
C3683 C3682 1.386 . S
C3683 C3687 1.393 1_565 S
C3684 H3673 0.961 . S
C3684 C3682 1.385 1_655 S
C3684 C3685 1.396 1_655 S
C3685 C3679 1.491 1_465 S
C3685 C3684 1.396 1_455 S
C3685 C3686 1.398 1_565 S
C3686 H3674 0.950 . S
C3686 C3685 1.398 1_545 S
C3686 C3687 1.391 . S
C3687 H3675 0.950 . S
C3687 C3683 1.393 1_545 S
C3687 C3686 1.391 . S
H3688 C3696 0.950 . S
H3689 C3701 0.950 . S
H3690 C3698 0.950 . S
H3691 C3700 0.950 . S
H3692 C3702 0.950 . S
H3693 C3704 0.950 . S
H3694 C3706 0.950 . S
H3695 C3707 0.950 . S
C3696 H3688 0.950 . S
C3696 C3697 1.386 . S
C3696 C3698 1.391 . S
C3697 C3696 1.386 . S
C3697 C3701 1.393 . S
C3698 H3690 0.950 . S
C3698 C3696 1.391 . S
C3698 C3699 1.400 . S
C3699 C3698 1.400 . S
C3699 C3700 1.398 . S
C3699 C3705 1.491 . S
C3700 H3691 0.950 . S
C3700 C3699 1.398 . S
C3700 C3701 1.391 . S
C3701 H3689 0.950 . S
C3701 C3697 1.393 . S
C3701 C3700 1.391 . S
C3702 H3692 0.950 . S
C3702 C3703 1.386 . S
C3702 C3704 1.391 . S
C3703 C3702 1.386 . S
C3703 C3707 1.393 . S
C3704 H3693 0.950 . S
C3704 C3702 1.391 . S
C3704 C3705 1.400 . S
C3705 C3699 1.491 . S
C3705 C3704 1.400 . S
C3705 C3706 1.398 . S
C3706 H3694 0.950 . S
C3706 C3705 1.398 . S
C3706 C3707 1.391 . S
C3707 H3695 0.950 . S
C3707 C3703 1.393 . S
C3707 C3706 1.391 . S
H3708 C3716 0.950 . S
H3709 C3721 0.950 . S
H3710 C3718 0.950 . S
H3711 C3720 0.950 1_565 S
H3712 C3722 0.950 . S
H3713 C3724 0.950 . S
H3714 C3726 0.950 1_545 S
H3715 C3727 0.950 . S
C3716 H3708 0.950 . S
C3716 C3717 1.386 . S
C3716 C3718 1.391 . S
C3717 C3716 1.386 . S
C3717 C3721 1.393 . S
C3718 H3710 0.950 . S
C3718 C3716 1.391 . S
C3718 C3719 1.400 . S
C3719 C3718 1.400 . S
C3719 C3720 1.398 . S
C3719 C3725 1.491 1_544 S
C3720 H3711 0.950 1_545 S
C3720 C3719 1.398 . S
C3720 C3721 1.391 . S
C3721 H3709 0.950 . S
C3721 C3717 1.393 . S
C3721 C3720 1.391 . S
C3722 H3712 0.950 . S
C3722 C3723 1.386 . S
C3722 C3724 1.391 . S
C3723 C3722 1.386 . S
C3723 C3727 1.393 . S
C3724 H3713 0.950 . S
C3724 C3722 1.391 . S
C3724 C3725 1.400 . S
C3725 C3719 1.491 1_566 S
C3725 C3724 1.400 . S
C3725 C3726 1.398 . S
C3726 H3714 0.950 1_565 S
C3726 C3725 1.398 . S
C3726 C3727 1.391 . S
C3727 H3715 0.950 . S
C3727 C3723 1.393 . S
C3727 C3726 1.391 . S
H3728 C3736 0.950 . S
H3729 C3741 0.950 . S
H3730 C3738 0.950 . S
H3731 C3740 0.950 . S
H3732 C3742 0.950 . S
H3733 C3744 0.950 . S
H3734 C3746 0.950 . S
H3735 C3747 0.950 . S
C3736 H3728 0.950 . S
C3736 C3737 1.386 . S
C3736 C3738 1.391 . S
C3737 C3736 1.386 . S
C3737 C3741 1.393 . S
C3738 H3730 0.950 . S
C3738 C3736 1.391 . S
C3738 C3739 1.400 . S
C3739 C3738 1.400 . S
C3739 C3740 1.398 . S
C3739 C3745 1.491 . S
C3740 H3731 0.950 . S
C3740 C3739 1.398 . S
C3740 C3741 1.391 . S
C3741 H3729 0.950 . S
C3741 C3737 1.393 . S
C3741 C3740 1.391 . S
C3742 H3732 0.950 . S
C3742 C3743 1.386 . S
C3742 C3744 1.391 . S
C3743 C3742 1.386 . S
C3743 C3747 1.393 . S
C3744 H3733 0.950 . S
C3744 C3742 1.391 . S
C3744 C3745 1.400 . S
C3745 C3739 1.491 . S
C3745 C3744 1.400 . S
C3745 C3746 1.398 . S
C3746 H3734 0.950 . S
C3746 C3745 1.398 . S
C3746 C3747 1.391 . S
C3747 H3735 0.950 . S
C3747 C3743 1.393 . S
C3747 C3746 1.391 . S
H3748 C3756 0.950 . S
H3749 C3761 0.950 . S
H3750 C3758 0.950 . S
H3751 C3760 0.950 . S
H3752 C3762 0.950 . S
H3753 C3764 0.950 . S
H3754 C3766 0.950 . S
H3755 C3767 0.950 . S
C3756 H3748 0.950 . S
C3756 C3757 1.386 . S
C3756 C3758 1.391 . S
C3757 C3756 1.386 . S
C3757 C3761 1.393 1_545 S
C3758 H3750 0.950 . S
C3758 C3756 1.391 . S
C3758 C3759 1.400 . S
C3759 C3758 1.400 . S
C3759 C3760 1.398 1_545 S
C3759 C3765 1.491 1_545 S
C3760 H3751 0.950 . S
C3760 C3759 1.398 1_565 S
C3760 C3761 1.391 . S
C3761 H3749 0.950 . S
C3761 C3757 1.393 1_565 S
C3761 C3760 1.391 . S
C3762 H3752 0.950 . S
C3762 C3763 1.386 . S
C3762 C3764 1.391 . S
C3763 C3762 1.386 . S
C3763 C3767 1.393 1_565 S
C3764 H3753 0.950 . S
C3764 C3762 1.391 . S
C3764 C3765 1.400 . S
C3765 C3759 1.491 1_565 S
C3765 C3764 1.400 . S
C3765 C3766 1.398 1_565 S
C3766 H3754 0.950 . S
C3766 C3765 1.398 1_545 S
C3766 C3767 1.391 . S
C3767 H3755 0.950 . S
C3767 C3763 1.393 1_545 S
C3767 C3766 1.391 . S
H3768 C3776 0.950 . S
H3769 C3781 0.950 . S
H3770 C3778 0.950 . S
H3771 C3780 0.950 . S
H3772 C3782 0.950 . S
H3773 C3784 0.950 . S
H3774 C3786 0.950 . S
H3775 C3787 0.950 . S
C3776 H3768 0.950 . S
C3776 C3777 1.386 . S
C3776 C3778 1.391 . S
C3777 C3776 1.386 . S
C3777 C3781 1.393 . S
C3778 H3770 0.950 . S
C3778 C3776 1.391 . S
C3778 C3779 1.400 . S
C3779 C3778 1.400 . S
C3779 C3780 1.398 . S
C3779 C3785 1.491 . S
C3780 H3771 0.950 . S
C3780 C3779 1.398 . S
C3780 C3781 1.391 . S
C3781 H3769 0.950 . S
C3781 C3777 1.393 . S
C3781 C3780 1.391 . S
C3782 H3772 0.950 . S
C3782 C3783 1.386 . S
C3782 C3784 1.391 . S
C3783 C3782 1.386 . S
C3783 C3787 1.393 . S
C3784 H3773 0.950 . S
C3784 C3782 1.391 . S
C3784 C3785 1.400 . S
C3785 C3779 1.491 . S
C3785 C3784 1.400 . S
C3785 C3786 1.398 . S
C3786 H3774 0.950 . S
C3786 C3785 1.398 . S
C3786 C3787 1.391 . S
C3787 H3775 0.950 . S
C3787 C3783 1.393 . S
C3787 C3786 1.391 . S
H3788 C3796 0.950 . S
H3789 C3801 0.950 . S
H3790 C3798 0.950 . S
H3791 C3800 0.950 1_655 S
H3792 C3802 0.950 . S
H3793 C3804 0.950 . S
H3794 C3806 0.950 1_455 S
H3795 C3807 0.950 . S
C3796 H3788 0.950 . S
C3796 C3797 1.386 . S
C3796 C3798 1.391 . S
C3797 C3796 1.386 . S
C3797 C3801 1.393 1_545 S
C3798 H3790 0.950 . S
C3798 C3796 1.391 . S
C3798 C3799 1.400 . S
C3799 C3798 1.400 . S
C3799 C3800 1.398 1_545 S
C3799 C3805 1.491 1_446 S
C3800 H3791 0.950 1_455 S
C3800 C3799 1.398 1_565 S
C3800 C3801 1.391 . S
C3801 H3789 0.950 . S
C3801 C3797 1.393 1_565 S
C3801 C3800 1.391 . S
C3802 H3792 0.950 . S
C3802 C3803 1.386 . S
C3802 C3804 1.391 . S
C3803 C3802 1.386 . S
C3803 C3807 1.393 1_565 S
C3804 H3793 0.950 . S
C3804 C3802 1.391 . S
C3804 C3805 1.400 . S
C3805 C3799 1.491 1_664 S
C3805 C3804 1.400 . S
C3805 C3806 1.398 1_565 S
C3806 H3794 0.950 1_655 S
C3806 C3805 1.398 1_545 S
C3806 C3807 1.391 . S
C3807 H3795 0.950 . S
C3807 C3803 1.393 1_545 S
C3807 C3806 1.391 . S
H3808 C3816 0.950 . S
H3809 C3821 0.950 . S
H3810 C3818 0.950 . S
H3811 C3820 0.950 . S
H3812 C3822 0.950 . S
H3813 C3824 0.950 . S
H3814 C3826 0.950 . S
H3815 C3827 0.950 . S
C3816 H3808 0.950 . S
C3816 C3817 1.386 . S
C3816 C3818 1.391 . S
C3817 C3816 1.386 . S
C3817 C3821 1.393 . S
C3818 H3810 0.950 . S
C3818 C3816 1.391 . S
C3818 C3819 1.400 . S
C3819 C3818 1.400 . S
C3819 C3820 1.398 . S
C3819 C3825 1.491 . S
C3820 H3811 0.950 . S
C3820 C3819 1.398 . S
C3820 C3821 1.391 . S
C3821 H3809 0.950 . S
C3821 C3817 1.393 . S
C3821 C3820 1.391 . S
C3822 H3812 0.950 . S
C3822 C3823 1.386 . S
C3822 C3824 1.391 . S
C3823 C3822 1.386 . S
C3823 C3827 1.393 . S
C3824 H3813 0.950 . S
C3824 C3822 1.391 . S
C3824 C3825 1.400 . S
C3825 C3819 1.491 . S
C3825 C3824 1.400 . S
C3825 C3826 1.398 . S
C3826 H3814 0.950 . S
C3826 C3825 1.398 . S
C3826 C3827 1.391 . S
C3827 H3815 0.950 . S
C3827 C3823 1.393 . S
C3827 C3826 1.391 . S
H3828 C3836 0.950 . S
H3829 C3841 0.950 . S
H3830 C3838 0.950 . S
H3831 C3840 0.950 . S
H3832 C3842 0.950 . S
H3833 C3844 0.950 . S
H3834 C3846 0.950 . S
H3835 C3847 0.950 . S
C3836 H3828 0.950 . S
C3836 C3837 1.386 . S
C3836 C3838 1.391 . S
C3837 C3836 1.386 . S
C3837 C3841 1.393 . S
C3838 H3830 0.950 . S
C3838 C3836 1.391 . S
C3838 C3839 1.400 . S
C3839 C3838 1.400 . S
C3839 C3840 1.398 . S
C3839 C3845 1.491 . S
C3840 H3831 0.950 . S
C3840 C3839 1.398 . S
C3840 C3841 1.391 . S
C3841 H3829 0.950 . S
C3841 C3837 1.393 . S
C3841 C3840 1.391 . S
C3842 H3832 0.950 . S
C3842 C3843 1.386 . S
C3842 C3844 1.391 . S
C3843 C3842 1.386 . S
C3843 C3847 1.393 . S
C3844 H3833 0.950 . S
C3844 C3842 1.391 . S
C3844 C3845 1.400 . S
C3845 C3839 1.491 . S
C3845 C3844 1.400 . S
C3845 C3846 1.398 . S
C3846 H3834 0.950 . S
C3846 C3845 1.398 . S
C3846 C3847 1.391 . S
C3847 H3835 0.950 . S
C3847 C3843 1.393 . S
C3847 C3846 1.391 . S
H3848 C3856 0.950 . S
H3849 C3861 0.950 . S
H3850 C3858 0.950 . S
H3851 C3860 0.950 . S
H3852 C3862 0.950 . S
H3853 C3864 0.950 . S
H3854 C3866 0.950 . S
H3855 C3867 0.950 . S
C3856 H3848 0.950 . S
C3856 C3857 1.386 . S
C3856 C3858 1.391 . S
C3857 C3856 1.386 . S
C3857 C3861 1.393 . S
C3858 H3850 0.950 . S
C3858 C3856 1.391 . S
C3858 C3859 1.400 . S
C3859 C3858 1.400 . S
C3859 C3860 1.398 . S
C3859 C3865 1.491 . S
C3860 H3851 0.950 . S
C3860 C3859 1.398 . S
C3860 C3861 1.391 . S
C3861 H3849 0.950 . S
C3861 C3857 1.393 . S
C3861 C3860 1.391 . S
C3862 H3852 0.950 . S
C3862 C3863 1.386 . S
C3862 C3864 1.391 . S
C3863 C3862 1.386 . S
C3863 C3867 1.393 . S
C3864 H3853 0.950 . S
C3864 C3862 1.391 . S
C3864 C3865 1.400 . S
C3865 C3859 1.491 . S
C3865 C3864 1.400 . S
C3865 C3866 1.398 . S
C3866 H3854 0.950 . S
C3866 C3865 1.398 . S
C3866 C3867 1.391 . S
C3867 H3855 0.950 . S
C3867 C3863 1.393 . S
C3867 C3866 1.391 . S
H3868 C3876 0.950 . S
H3869 C3881 0.950 . S
H3870 C3878 0.950 . S
H3871 C3880 0.950 . S
H3872 C3882 0.950 . S
H3873 C3884 0.950 . S
H3874 C3886 0.950 . S
H3875 C3887 0.950 . S
C3876 H3868 0.950 . S
C3876 C3877 1.386 . S
C3876 C3878 1.391 . S
C3877 C3876 1.386 . S
C3877 C3881 1.393 . S
C3878 H3870 0.950 . S
C3878 C3876 1.391 . S
C3878 C3879 1.400 . S
C3879 C3878 1.400 . S
C3879 C3880 1.398 . S
C3879 C3885 1.491 . S
C3880 H3871 0.950 . S
C3880 C3879 1.398 . S
C3880 C3881 1.391 . S
C3881 H3869 0.950 . S
C3881 C3877 1.393 . S
C3881 C3880 1.391 . S
C3882 H3872 0.950 . S
C3882 C3883 1.386 . S
C3882 C3884 1.391 . S
C3883 C3882 1.386 . S
C3883 C3887 1.393 . S
C3884 H3873 0.950 . S
C3884 C3882 1.391 . S
C3884 C3885 1.400 . S
C3885 C3879 1.491 . S
C3885 C3884 1.400 . S
C3885 C3886 1.398 . S
C3886 H3874 0.950 . S
C3886 C3885 1.398 . S
C3886 C3887 1.391 . S
C3887 H3875 0.950 . S
C3887 C3883 1.393 . S
C3887 C3886 1.391 . S
H3888 C3896 0.950 . S
H3889 C3901 0.950 . S
H3890 C3898 0.950 . S
H3891 C3900 0.950 . S
H3892 C3902 0.950 . S
H3893 C3904 0.950 . S
H3894 C3906 0.950 . S
H3895 C3907 0.950 . S
C3896 H3888 0.950 . S
C3896 C3897 1.386 . S
C3896 C3898 1.391 . S
C3897 C3896 1.386 . S
C3897 C3901 1.393 . S
C3898 H3890 0.950 . S
C3898 C3896 1.391 . S
C3898 C3899 1.400 . S
C3899 C3898 1.400 . S
C3899 C3900 1.398 . S
C3899 C3905 1.491 1_554 S
C3900 H3891 0.950 . S
C3900 C3899 1.398 . S
C3900 C3901 1.391 . S
C3901 H3889 0.950 . S
C3901 C3897 1.393 . S
C3901 C3900 1.391 . S
C3902 H3892 0.950 . S
C3902 C3903 1.386 . S
C3902 C3904 1.391 . S
C3903 C3902 1.386 . S
C3903 C3907 1.393 . S
C3904 H3893 0.950 . S
C3904 C3902 1.391 . S
C3904 C3905 1.400 . S
C3905 C3899 1.491 1_556 S
C3905 C3904 1.400 . S
C3905 C3906 1.398 . S
C3906 H3894 0.950 . S
C3906 C3905 1.398 . S
C3906 C3907 1.391 . S
C3907 H3895 0.950 . S
C3907 C3903 1.393 . S
C3907 C3906 1.391 . S
H3908 C3916 0.950 . S
H3909 C3921 0.950 1_455 S
H3910 C3918 0.950 . S
H3911 C3920 0.950 . S
H3912 C3922 0.950 . S
H3913 C3924 0.950 . S
H3914 C3926 0.950 . S
H3915 C3927 0.950 1_655 S
C3916 H3908 0.950 . S
C3916 C3917 1.386 . S
C3916 C3918 1.391 . S
C3917 C3916 1.386 . S
C3917 C3921 1.393 . S
C3918 H3910 0.950 . S
C3918 C3916 1.391 . S
C3918 C3919 1.400 . S
C3919 C3918 1.400 . S
C3919 C3920 1.398 1_655 S
C3919 C3925 1.491 1_655 S
C3920 H3911 0.950 . S
C3920 C3919 1.398 1_455 S
C3920 C3921 1.391 1_455 S
C3921 H3909 0.950 1_655 S
C3921 C3917 1.393 . S
C3921 C3920 1.391 1_655 S
C3922 H3912 0.950 . S
C3922 C3923 1.386 . S
C3922 C3924 1.391 . S
C3923 C3922 1.386 . S
C3923 C3927 1.393 . S
C3924 H3913 0.950 . S
C3924 C3922 1.391 . S
C3924 C3925 1.400 . S
C3925 C3919 1.491 1_455 S
C3925 C3924 1.400 . S
C3925 C3926 1.398 1_455 S
C3926 H3914 0.950 . S
C3926 C3925 1.398 1_655 S
C3926 C3927 1.391 1_655 S
C3927 H3915 0.950 1_455 S
C3927 C3923 1.393 . S
C3927 C3926 1.391 1_455 S
H3928 C3936 0.950 . S
H3929 C3941 0.950 . S
H3930 C3938 0.950 . S
H3931 C3940 0.950 . S
H3932 C3942 0.950 . S
H3933 C3944 0.950 . S
H3934 C3946 0.950 . S
H3935 C3947 0.950 . S
C3936 H3928 0.950 . S
C3936 C3937 1.386 . S
C3936 C3938 1.391 . S
C3937 C3936 1.386 . S
C3937 C3941 1.393 1_455 S
C3938 H3930 0.950 . S
C3938 C3936 1.391 . S
C3938 C3939 1.400 . S
C3939 C3938 1.400 . S
C3939 C3940 1.398 1_455 S
C3939 C3945 1.491 1_454 S
C3940 H3931 0.950 . S
C3940 C3939 1.398 1_655 S
C3940 C3941 1.391 . S
C3941 H3929 0.950 . S
C3941 C3937 1.393 1_655 S
C3941 C3940 1.391 . S
C3942 H3932 0.950 . S
C3942 C3943 1.386 . S
C3942 C3944 1.391 . S
C3943 C3942 1.386 . S
C3943 C3947 1.393 1_655 S
C3944 H3933 0.950 . S
C3944 C3942 1.391 . S
C3944 C3945 1.400 . S
C3945 C3939 1.491 1_656 S
C3945 C3944 1.400 . S
C3945 C3946 1.398 1_655 S
C3946 H3934 0.950 . S
C3946 C3945 1.398 1_455 S
C3946 C3947 1.391 . S
C3947 H3935 0.950 . S
C3947 C3943 1.393 1_455 S
C3947 C3946 1.391 . S
H3948 C3956 0.950 . S
H3949 C3961 0.950 . S
H3950 C3958 0.950 . S
H3951 C3960 0.950 . S
H3952 C3962 0.950 . S
H3953 C3964 0.950 . S
H3954 C3966 0.950 . S
H3955 C3967 0.950 . S
C3956 H3948 0.950 . S
C3956 C3957 1.386 . S
C3956 C3958 1.391 . S
C3957 C3956 1.386 . S
C3957 C3961 1.393 . S
C3958 H3950 0.950 . S
C3958 C3956 1.391 . S
C3958 C3959 1.400 . S
C3959 C3958 1.400 . S
C3959 C3960 1.398 . S
C3959 C3965 1.491 . S
C3960 H3951 0.950 . S
C3960 C3959 1.398 . S
C3960 C3961 1.391 . S
C3961 H3949 0.950 . S
C3961 C3957 1.393 . S
C3961 C3960 1.391 . S
C3962 H3952 0.950 . S
C3962 C3963 1.386 . S
C3962 C3964 1.391 . S
C3963 C3962 1.386 . S
C3963 C3967 1.393 . S
C3964 H3953 0.950 . S
C3964 C3962 1.391 . S
C3964 C3965 1.400 . S
C3965 C3959 1.491 . S
C3965 C3964 1.400 . S
C3965 C3966 1.398 . S
C3966 H3954 0.950 . S
C3966 C3965 1.398 . S
C3966 C3967 1.391 . S
C3967 H3955 0.950 . S
C3967 C3963 1.393 . S
C3967 C3966 1.391 . S
H3968 C3976 0.950 . S
H3969 C3981 0.950 . S
H3970 C3978 0.950 . S
H3971 C3980 0.950 . S
H3972 C3982 0.950 . S
H3973 C3984 0.950 . S
H3974 C3986 0.950 . S
H3975 C3987 0.950 . S
C3976 H3968 0.950 . S
C3976 C3977 1.386 . S
C3976 C3978 1.391 . S
C3977 C3976 1.386 . S
C3977 C3981 1.393 . S
C3978 H3970 0.950 . S
C3978 C3976 1.391 . S
C3978 C3979 1.400 . S
C3979 C3978 1.400 . S
C3979 C3980 1.398 . S
C3979 C3985 1.491 . S
C3980 H3971 0.950 . S
C3980 C3979 1.398 . S
C3980 C3981 1.391 . S
C3981 H3969 0.950 . S
C3981 C3977 1.393 . S
C3981 C3980 1.391 . S
C3982 H3972 0.950 . S
C3982 C3983 1.386 . S
C3982 C3984 1.391 . S
C3983 C3982 1.386 . S
C3983 C3987 1.393 . S
C3984 H3973 0.950 . S
C3984 C3982 1.391 . S
C3984 C3985 1.400 . S
C3985 C3979 1.491 . S
C3985 C3984 1.400 . S
C3985 C3986 1.398 . S
C3986 H3974 0.950 . S
C3986 C3985 1.398 . S
C3986 C3987 1.391 . S
C3987 H3975 0.950 . S
C3987 C3983 1.393 . S
C3987 C3986 1.391 . S
H3988 C3996 0.950 . S
H3989 C4001 0.950 . S
H3990 C3998 0.950 . S
H3991 C4000 0.950 . S
H3992 C4002 0.950 . S
H3993 C4004 0.950 . S
H3994 C4006 0.950 . S
H3995 C4007 0.950 . S
C3996 H3988 0.950 . S
C3996 C3997 1.386 . S
C3996 C3998 1.391 . S
C3997 C3996 1.386 . S
C3997 C4001 1.393 . S
C3998 H3990 0.950 . S
C3998 C3996 1.391 . S
C3998 C3999 1.400 . S
C3999 C3998 1.400 . S
C3999 C4000 1.398 . S
C3999 C4005 1.491 . S
C4000 H3991 0.950 . S
C4000 C3999 1.398 . S
C4000 C4001 1.391 . S
C4001 H3989 0.950 . S
C4001 C3997 1.393 . S
C4001 C4000 1.391 . S
C4002 H3992 0.950 . S
C4002 C4003 1.386 . S
C4002 C4004 1.391 . S
C4003 C4002 1.386 . S
C4003 C4007 1.393 . S
C4004 H3993 0.950 . S
C4004 C4002 1.391 . S
C4004 C4005 1.400 . S
C4005 C3999 1.491 . S
C4005 C4004 1.400 . S
C4005 C4006 1.398 . S
C4006 H3994 0.950 . S
C4006 C4005 1.398 . S
C4006 C4007 1.391 . S
C4007 H3995 0.950 . S
C4007 C4003 1.393 . S
C4007 C4006 1.391 . S
H4008 C4016 0.950 . S
H4009 C4021 0.950 . S
H4010 C4018 0.950 . S
H4011 C4020 0.950 . S
H4012 C4022 0.950 . S
H4013 C4024 0.950 . S
H4014 C4026 0.950 . S
H4015 C4027 0.950 . S
C4016 H4008 0.950 . S
C4016 C4017 1.386 . S
C4016 C4018 1.391 . S
C4017 C4016 1.386 . S
C4017 C4021 1.393 . S
C4018 H4010 0.950 . S
C4018 C4016 1.391 . S
C4018 C4019 1.400 . S
C4019 C4018 1.400 . S
C4019 C4020 1.398 . S
C4019 C4025 1.491 . S
C4020 H4011 0.950 . S
C4020 C4019 1.398 . S
C4020 C4021 1.391 . S
C4021 H4009 0.950 . S
C4021 C4017 1.393 . S
C4021 C4020 1.391 . S
C4022 H4012 0.950 . S
C4022 C4023 1.386 . S
C4022 C4024 1.391 . S
C4023 C4022 1.386 . S
C4023 C4027 1.393 . S
C4024 H4013 0.950 . S
C4024 C4022 1.391 . S
C4024 C4025 1.400 . S
C4025 C4019 1.491 . S
C4025 C4024 1.400 . S
C4025 C4026 1.398 . S
C4026 H4014 0.950 . S
C4026 C4025 1.398 . S
C4026 C4027 1.391 . S
C4027 H4015 0.950 . S
C4027 C4023 1.393 . S
C4027 C4026 1.391 . S
H4028 C4036 0.950 . S
H4029 C4041 0.950 . S
H4030 C4038 0.950 . S
H4031 C4040 0.950 . S
H4032 C4042 0.950 . S
H4033 C4044 0.950 . S
H4034 C4046 0.950 . S
H4035 C4047 0.950 . S
C4036 H4028 0.950 . S
C4036 C4037 1.386 . S
C4036 C4038 1.391 . S
C4037 C4036 1.386 . S
C4037 C4041 1.393 . S
C4038 H4030 0.950 . S
C4038 C4036 1.391 . S
C4038 C4039 1.400 . S
C4039 C4038 1.400 . S
C4039 C4040 1.398 . S
C4039 C4045 1.491 . S
C4040 H4031 0.950 . S
C4040 C4039 1.398 . S
C4040 C4041 1.391 . S
C4041 H4029 0.950 . S
C4041 C4037 1.393 . S
C4041 C4040 1.391 . S
C4042 H4032 0.950 . S
C4042 C4043 1.386 . S
C4042 C4044 1.391 . S
C4043 C4042 1.386 . S
C4043 C4047 1.393 . S
C4044 H4033 0.950 . S
C4044 C4042 1.391 . S
C4044 C4045 1.400 . S
C4045 C4039 1.491 . S
C4045 C4044 1.400 . S
C4045 C4046 1.398 . S
C4046 H4034 0.950 . S
C4046 C4045 1.398 . S
C4046 C4047 1.391 . S
C4047 H4035 0.950 . S
C4047 C4043 1.393 . S
C4047 C4046 1.391 . S
H4048 C4056 0.950 . S
H4049 C4061 0.950 . S
H4050 C4058 0.950 . S
H4051 C4060 0.950 . S
H4052 C4062 0.950 . S
H4053 C4064 0.950 . S
H4054 C4066 0.950 . S
H4055 C4067 0.950 . S
C4056 H4048 0.950 . S
C4056 C4057 1.386 . S
C4056 C4058 1.391 . S
C4057 C4056 1.386 . S
C4057 C4061 1.393 . S
C4058 H4050 0.950 . S
C4058 C4056 1.391 . S
C4058 C4059 1.400 . S
C4059 C4058 1.400 . S
C4059 C4060 1.398 . S
C4059 C4065 1.491 . S
C4060 H4051 0.950 . S
C4060 C4059 1.398 . S
C4060 C4061 1.391 . S
C4061 H4049 0.950 . S
C4061 C4057 1.393 . S
C4061 C4060 1.391 . S
C4062 H4052 0.950 . S
C4062 C4063 1.386 . S
C4062 C4064 1.391 . S
C4063 C4062 1.386 . S
C4063 C4067 1.393 . S
C4064 H4053 0.950 . S
C4064 C4062 1.391 . S
C4064 C4065 1.400 . S
C4065 C4059 1.491 . S
C4065 C4064 1.400 . S
C4065 C4066 1.398 . S
C4066 H4054 0.950 . S
C4066 C4065 1.398 . S
C4066 C4067 1.391 . S
C4067 H4055 0.950 . S
C4067 C4063 1.393 . S
C4067 C4066 1.391 . S
H4068 C4076 0.950 . S
H4069 C4081 0.950 . S
H4070 C4078 0.950 . S
H4071 C4080 0.950 . S
H4072 C4082 0.950 . S
H4073 C4084 0.950 . S
H4074 C4086 0.950 . S
H4075 C4087 0.950 . S
C4076 H4068 0.950 . S
C4076 C4077 1.386 . S
C4076 C4078 1.391 . S
C4077 C4076 1.386 . S
C4077 C4081 1.393 . S
C4078 H4070 0.950 . S
C4078 C4076 1.391 . S
C4078 C4079 1.400 . S
C4079 C4078 1.400 . S
C4079 C4080 1.398 . S
C4079 C4085 1.491 . S
C4080 H4071 0.950 . S
C4080 C4079 1.398 . S
C4080 C4081 1.391 . S
C4081 H4069 0.950 . S
C4081 C4077 1.393 . S
C4081 C4080 1.391 . S
C4082 H4072 0.950 . S
C4082 C4083 1.386 . S
C4082 C4084 1.391 . S
C4083 C4082 1.386 . S
C4083 C4087 1.393 . S
C4084 H4073 0.950 . S
C4084 C4082 1.391 . S
C4084 C4085 1.400 . S
C4085 C4079 1.491 . S
C4085 C4084 1.400 . S
C4085 C4086 1.398 . S
C4086 H4074 0.950 . S
C4086 C4085 1.398 . S
C4086 C4087 1.391 . S
C4087 H4075 0.950 . S
C4087 C4083 1.393 . S
C4087 C4086 1.391 . S
H4088 C4096 0.950 . S
H4089 C4101 0.950 . S
H4090 C4098 0.950 . S
H4091 C4100 0.950 . S
H4092 C4102 0.950 . S
H4093 C4104 0.950 . S
H4094 C4106 0.950 . S
H4095 C4107 0.950 . S
C4096 H4088 0.950 . S
C4096 C4097 1.386 . S
C4096 C4098 1.391 . S
C4097 C4096 1.386 . S
C4097 C4101 1.393 . S
C4098 H4090 0.950 . S
C4098 C4096 1.391 . S
C4098 C4099 1.400 . S
C4099 C4098 1.400 . S
C4099 C4100 1.398 . S
C4099 C4105 1.491 . S
C4100 H4091 0.950 . S
C4100 C4099 1.398 . S
C4100 C4101 1.391 . S
C4101 H4089 0.950 . S
C4101 C4097 1.393 . S
C4101 C4100 1.391 . S
C4102 H4092 0.950 . S
C4102 C4103 1.386 . S
C4102 C4104 1.391 . S
C4103 C4102 1.386 . S
C4103 C4107 1.393 . S
C4104 H4093 0.950 . S
C4104 C4102 1.391 . S
C4104 C4105 1.400 . S
C4105 C4099 1.491 . S
C4105 C4104 1.400 . S
C4105 C4106 1.398 . S
C4106 H4094 0.950 . S
C4106 C4105 1.398 . S
C4106 C4107 1.391 . S
C4107 H4095 0.950 . S
C4107 C4103 1.393 . S
C4107 C4106 1.391 . S
H4108 C4116 0.950 . S
H4109 C4121 0.950 . S
H4110 C4118 0.950 . S
H4111 C4120 0.950 . S
H4112 C4122 0.950 . S
H4113 C4124 0.950 . S
H4114 C4126 0.950 . S
H4115 C4127 0.950 . S
C4116 H4108 0.950 . S
C4116 C4117 1.386 . S
C4116 C4118 1.391 . S
C4117 C4116 1.386 . S
C4117 C4121 1.393 . S
C4118 H4110 0.950 . S
C4118 C4116 1.391 . S
C4118 C4119 1.400 . S
C4119 C4118 1.400 . S
C4119 C4120 1.398 . S
C4119 C4125 1.491 . S
C4120 H4111 0.950 . S
C4120 C4119 1.398 . S
C4120 C4121 1.391 . S
C4121 H4109 0.950 . S
C4121 C4117 1.393 . S
C4121 C4120 1.391 . S
C4122 H4112 0.950 . S
C4122 C4123 1.386 . S
C4122 C4124 1.391 . S
C4123 C4122 1.386 . S
C4123 C4127 1.393 . S
C4124 H4113 0.950 . S
C4124 C4122 1.391 . S
C4124 C4125 1.400 . S
C4125 C4119 1.491 . S
C4125 C4124 1.400 . S
C4125 C4126 1.398 . S
C4126 H4114 0.950 . S
C4126 C4125 1.398 . S
C4126 C4127 1.391 . S
C4127 H4115 0.950 . S
C4127 C4123 1.393 . S
C4127 C4126 1.391 . S
H4128 C4136 0.950 . S
H4129 C4141 0.950 . S
H4130 C4138 0.950 . S
H4131 C4140 0.950 . S
H4132 C4142 0.950 . S
H4133 C4144 0.950 . S
H4134 C4146 0.950 . S
H4135 C4147 0.950 . S
C4136 H4128 0.950 . S
C4136 C4137 1.386 . S
C4136 C4138 1.391 . S
C4137 C4136 1.386 . S
C4137 C4141 1.393 . S
C4138 H4130 0.950 . S
C4138 C4136 1.391 . S
C4138 C4139 1.400 . S
C4139 C4138 1.400 . S
C4139 C4140 1.398 . S
C4139 C4145 1.491 . S
C4140 H4131 0.950 . S
C4140 C4139 1.398 . S
C4140 C4141 1.391 . S
C4141 H4129 0.950 . S
C4141 C4137 1.393 . S
C4141 C4140 1.391 . S
C4142 H4132 0.950 . S
C4142 C4143 1.386 . S
C4142 C4144 1.391 . S
C4143 C4142 1.386 . S
C4143 C4147 1.393 . S
C4144 H4133 0.950 . S
C4144 C4142 1.391 . S
C4144 C4145 1.400 . S
C4145 C4139 1.491 . S
C4145 C4144 1.400 . S
C4145 C4146 1.398 . S
C4146 H4134 0.950 . S
C4146 C4145 1.398 . S
C4146 C4147 1.391 . S
C4147 H4135 0.950 . S
C4147 C4143 1.393 . S
C4147 C4146 1.391 . S
H4148 C4156 0.950 . S
H4149 C4161 0.950 . S
H4150 C4158 0.950 . S
H4151 C4160 0.950 . S
H4152 C4162 0.950 . S
H4153 C4164 0.950 . S
H4154 C4166 0.950 . S
H4155 C4167 0.950 . S
C4156 H4148 0.950 . S
C4156 C4157 1.386 . S
C4156 C4158 1.391 . S
C4157 C4156 1.386 . S
C4157 C4161 1.393 . S
C4158 H4150 0.950 . S
C4158 C4156 1.391 . S
C4158 C4159 1.400 . S
C4159 C4158 1.400 . S
C4159 C4160 1.398 . S
C4159 C4165 1.491 . S
C4160 H4151 0.950 . S
C4160 C4159 1.398 . S
C4160 C4161 1.391 . S
C4161 H4149 0.950 . S
C4161 C4157 1.393 . S
C4161 C4160 1.391 . S
C4162 H4152 0.950 . S
C4162 C4163 1.386 . S
C4162 C4164 1.391 . S
C4163 C4162 1.386 . S
C4163 C4167 1.393 . S
C4164 H4153 0.950 . S
C4164 C4162 1.391 . S
C4164 C4165 1.400 . S
C4165 C4159 1.491 . S
C4165 C4164 1.400 . S
C4165 C4166 1.398 . S
C4166 H4154 0.950 . S
C4166 C4165 1.398 . S
C4166 C4167 1.391 . S
C4167 H4155 0.950 . S
C4167 C4163 1.393 . S
C4167 C4166 1.391 . S
H4168 C4176 0.950 . S
H4169 C4181 0.950 . S
H4170 C4178 0.950 . S
H4171 C4180 0.950 . S
H4172 C4182 0.950 . S
H4173 C4184 0.950 . S
H4174 C4186 0.950 . S
H4175 C4187 0.950 . S
C4176 H4168 0.950 . S
C4176 C4177 1.386 . S
C4176 C4178 1.391 . S
C4177 C4176 1.386 . S
C4177 C4181 1.393 . S
C4178 H4170 0.950 . S
C4178 C4176 1.391 . S
C4178 C4179 1.400 . S
C4179 C4178 1.400 . S
C4179 C4180 1.398 . S
C4179 C4185 1.491 . S
C4180 H4171 0.950 . S
C4180 C4179 1.398 . S
C4180 C4181 1.391 . S
C4181 H4169 0.950 . S
C4181 C4177 1.393 . S
C4181 C4180 1.391 . S
C4182 H4172 0.950 . S
C4182 C4183 1.386 . S
C4182 C4184 1.391 . S
C4183 C4182 1.386 . S
C4183 C4187 1.393 . S
C4184 H4173 0.950 . S
C4184 C4182 1.391 . S
C4184 C4185 1.400 . S
C4185 C4179 1.491 . S
C4185 C4184 1.400 . S
C4185 C4186 1.398 . S
C4186 H4174 0.950 . S
C4186 C4185 1.398 . S
C4186 C4187 1.391 . S
C4187 H4175 0.950 . S
C4187 C4183 1.393 . S
C4187 C4186 1.391 . S
H4188 C4196 0.950 . S
H4189 C4201 0.950 . S
H4190 C4198 0.950 . S
H4191 C4200 0.950 . S
H4192 C4202 0.950 . S
H4193 C4204 0.950 . S
H4194 C4206 0.950 . S
H4195 C4207 0.950 . S
C4196 H4188 0.950 . S
C4196 C4197 1.386 . S
C4196 C4198 1.391 . S
C4197 C4196 1.386 . S
C4197 C4201 1.393 . S
C4198 H4190 0.950 . S
C4198 C4196 1.391 . S
C4198 C4199 1.400 . S
C4199 C4198 1.400 . S
C4199 C4200 1.398 . S
C4199 C4205 1.491 . S
C4200 H4191 0.950 . S
C4200 C4199 1.398 . S
C4200 C4201 1.391 . S
C4201 H4189 0.950 . S
C4201 C4197 1.393 . S
C4201 C4200 1.391 . S
C4202 H4192 0.950 . S
C4202 C4203 1.386 . S
C4202 C4204 1.391 . S
C4203 C4202 1.386 . S
C4203 C4207 1.393 . S
C4204 H4193 0.950 . S
C4204 C4202 1.391 . S
C4204 C4205 1.400 . S
C4205 C4199 1.491 . S
C4205 C4204 1.400 . S
C4205 C4206 1.398 . S
C4206 H4194 0.950 . S
C4206 C4205 1.398 . S
C4206 C4207 1.391 . S
C4207 H4195 0.950 . S
C4207 C4203 1.393 . S
C4207 C4206 1.391 . S
H4208 C4216 0.950 . S
H4209 C4221 0.950 . S
H4210 C4218 0.950 . S
H4211 C4220 0.950 . S
H4212 C4222 0.950 . S
H4213 C4224 0.950 . S
H4214 C4226 0.950 . S
H4215 C4227 0.950 . S
C4216 H4208 0.950 . S
C4216 C4217 1.386 . S
C4216 C4218 1.391 . S
C4217 C4216 1.386 . S
C4217 C4221 1.393 . S
C4218 H4210 0.950 . S
C4218 C4216 1.391 . S
C4218 C4219 1.400 . S
C4219 C4218 1.400 . S
C4219 C4220 1.398 . S
C4219 C4225 1.491 . S
C4220 H4211 0.950 . S
C4220 C4219 1.398 . S
C4220 C4221 1.391 . S
C4221 H4209 0.950 . S
C4221 C4217 1.393 . S
C4221 C4220 1.391 . S
C4222 H4212 0.950 . S
C4222 C4223 1.386 . S
C4222 C4224 1.391 . S
C4223 C4222 1.386 . S
C4223 C4227 1.393 . S
C4224 H4213 0.950 . S
C4224 C4222 1.391 . S
C4224 C4225 1.400 . S
C4225 C4219 1.491 . S
C4225 C4224 1.400 . S
C4225 C4226 1.398 . S
C4226 H4214 0.950 . S
C4226 C4225 1.398 . S
C4226 C4227 1.391 . S
C4227 H4215 0.950 . S
C4227 C4223 1.393 . S
C4227 C4226 1.391 . S
H4228 C4236 0.950 . S
H4229 C4241 0.950 . S
H4230 C4238 0.950 . S
H4231 C4240 0.950 . S
H4232 C4242 0.950 . S
H4233 C4244 0.950 . S
H4234 C4246 0.950 . S
H4235 C4247 0.950 . S
C4236 H4228 0.950 . S
C4236 C4237 1.386 . S
C4236 C4238 1.391 . S
C4237 C4236 1.386 . S
C4237 C4241 1.393 . S
C4238 H4230 0.950 . S
C4238 C4236 1.391 . S
C4238 C4239 1.400 . S
C4239 C4238 1.400 . S
C4239 C4240 1.398 . S
C4239 C4245 1.491 . S
C4240 H4231 0.950 . S
C4240 C4239 1.398 . S
C4240 C4241 1.391 . S
C4241 H4229 0.950 . S
C4241 C4237 1.393 . S
C4241 C4240 1.391 . S
C4242 H4232 0.950 . S
C4242 C4243 1.386 . S
C4242 C4244 1.391 . S
C4243 C4242 1.386 . S
C4243 C4247 1.393 . S
C4244 H4233 0.950 . S
C4244 C4242 1.391 . S
C4244 C4245 1.400 . S
C4245 C4239 1.491 . S
C4245 C4244 1.400 . S
C4245 C4246 1.398 . S
C4246 H4234 0.950 . S
C4246 C4245 1.398 . S
C4246 C4247 1.391 . S
C4247 H4235 0.950 . S
C4247 C4243 1.393 . S
C4247 C4246 1.391 . S
H4248 C4256 0.950 . S
H4249 C4261 0.950 . S
H4250 C4258 0.950 . S
H4251 C4260 0.950 . S
H4252 C4262 0.950 . S
H4253 C4264 0.950 . S
H4254 C4266 0.950 . S
H4255 C4267 0.950 . S
C4256 H4248 0.950 . S
C4256 C4257 1.386 . S
C4256 C4258 1.391 . S
C4257 C4256 1.386 . S
C4257 C4261 1.393 . S
C4258 H4250 0.950 . S
C4258 C4256 1.391 . S
C4258 C4259 1.400 . S
C4259 C4258 1.400 . S
C4259 C4260 1.398 . S
C4259 C4265 1.491 . S
C4260 H4251 0.950 . S
C4260 C4259 1.398 . S
C4260 C4261 1.391 . S
C4261 H4249 0.950 . S
C4261 C4257 1.393 . S
C4261 C4260 1.391 . S
C4262 H4252 0.950 . S
C4262 C4263 1.386 . S
C4262 C4264 1.391 . S
C4263 C4262 1.386 . S
C4263 C4267 1.393 . S
C4264 H4253 0.950 . S
C4264 C4262 1.391 . S
C4264 C4265 1.400 . S
C4265 C4259 1.491 . S
C4265 C4264 1.400 . S
C4265 C4266 1.398 . S
C4266 H4254 0.950 . S
C4266 C4265 1.398 . S
C4266 C4267 1.391 . S
C4267 H4255 0.950 . S
C4267 C4263 1.393 . S
C4267 C4266 1.391 . S
H4268 C4276 0.950 . S
H4269 C4281 0.950 . S
H4270 C4278 0.950 . S
H4271 C4280 0.950 . S
H4272 C4282 0.950 . S
H4273 C4284 0.950 . S
H4274 C4286 0.950 . S
H4275 C4287 0.950 . S
C4276 H4268 0.950 . S
C4276 C4277 1.386 . S
C4276 C4278 1.391 . S
C4277 C4276 1.386 . S
C4277 C4281 1.393 . S
C4278 H4270 0.950 . S
C4278 C4276 1.391 . S
C4278 C4279 1.400 . S
C4279 C4278 1.400 . S
C4279 C4280 1.398 . S
C4279 C4285 1.491 . S
C4280 H4271 0.950 . S
C4280 C4279 1.398 . S
C4280 C4281 1.391 . S
C4281 H4269 0.950 . S
C4281 C4277 1.393 . S
C4281 C4280 1.391 . S
C4282 H4272 0.950 . S
C4282 C4283 1.386 . S
C4282 C4284 1.391 . S
C4283 C4282 1.386 . S
C4283 C4287 1.393 . S
C4284 H4273 0.950 . S
C4284 C4282 1.391 . S
C4284 C4285 1.400 . S
C4285 C4279 1.491 . S
C4285 C4284 1.400 . S
C4285 C4286 1.398 . S
C4286 H4274 0.950 . S
C4286 C4285 1.398 . S
C4286 C4287 1.391 . S
C4287 H4275 0.950 . S
C4287 C4283 1.393 . S
C4287 C4286 1.391 . S
H4288 C4296 0.950 . S
H4289 C4301 0.950 . S
H4290 C4298 0.950 . S
H4291 C4300 0.950 1_565 S
H4292 C4302 0.950 . S
H4293 C4304 0.950 . S
H4294 C4306 0.950 1_545 S
H4295 C4307 0.950 . S
C4296 H4288 0.950 . S
C4296 C4297 1.386 . S
C4296 C4298 1.391 . S
C4297 C4296 1.386 . S
C4297 C4301 1.393 . S
C4298 H4290 0.950 . S
C4298 C4296 1.391 . S
C4298 C4299 1.400 . S
C4299 C4298 1.400 . S
C4299 C4300 1.398 . S
C4299 C4305 1.491 1_545 S
C4300 H4291 0.950 1_545 S
C4300 C4299 1.398 . S
C4300 C4301 1.391 . S
C4301 H4289 0.950 . S
C4301 C4297 1.393 . S
C4301 C4300 1.391 . S
C4302 H4292 0.950 . S
C4302 C4303 1.386 . S
C4302 C4304 1.391 . S
C4303 C4302 1.386 . S
C4303 C4307 1.393 . S
C4304 H4293 0.950 . S
C4304 C4302 1.391 . S
C4304 C4305 1.400 . S
C4305 C4299 1.491 1_565 S
C4305 C4304 1.400 . S
C4305 C4306 1.398 . S
C4306 H4294 0.950 1_565 S
C4306 C4305 1.398 . S
C4306 C4307 1.391 . S
C4307 H4295 0.950 . S
C4307 C4303 1.393 . S
C4307 C4306 1.391 . S
H4308 C4316 0.950 . S
H4309 C4321 0.950 . S
H4310 C4318 0.950 . S
H4311 C4320 0.950 . S
H4312 C4322 0.950 . S
H4313 C4324 0.950 . S
H4314 C4326 0.950 . S
H4315 C4327 0.950 . S
C4316 H4308 0.950 . S
C4316 C4317 1.386 . S
C4316 C4318 1.391 . S
C4317 C4316 1.386 . S
C4317 C4321 1.393 . S
C4318 H4310 0.950 . S
C4318 C4316 1.391 . S
C4318 C4319 1.400 . S
C4319 C4318 1.400 . S
C4319 C4320 1.398 . S
C4319 C4325 1.491 . S
C4320 H4311 0.950 . S
C4320 C4319 1.398 . S
C4320 C4321 1.391 . S
C4321 H4309 0.950 . S
C4321 C4317 1.393 . S
C4321 C4320 1.391 . S
C4322 H4312 0.950 . S
C4322 C4323 1.386 . S
C4322 C4324 1.391 . S
C4323 C4322 1.386 . S
C4323 C4327 1.393 . S
C4324 H4313 0.950 . S
C4324 C4322 1.391 . S
C4324 C4325 1.400 . S
C4325 C4319 1.491 . S
C4325 C4324 1.400 . S
C4325 C4326 1.398 . S
C4326 H4314 0.950 . S
C4326 C4325 1.398 . S
C4326 C4327 1.391 . S
C4327 H4315 0.950 . S
C4327 C4323 1.393 . S
C4327 C4326 1.391 . S
H4328 C4336 0.950 . S
H4329 C4341 0.950 . S
H4330 C4338 0.950 . S
H4331 C4340 0.950 . S
H4332 C4342 0.950 . S
H4333 C4344 0.950 . S
H4334 C4346 0.950 . S
H4335 C4347 0.950 . S
C4336 H4328 0.950 . S
C4336 C4337 1.386 . S
C4336 C4338 1.391 . S
C4337 C4336 1.386 . S
C4337 C4341 1.393 . S
C4338 H4330 0.950 . S
C4338 C4336 1.391 . S
C4338 C4339 1.400 . S
C4339 C4338 1.400 . S
C4339 C4340 1.398 . S
C4339 C4345 1.491 1_545 S
C4340 H4331 0.950 . S
C4340 C4339 1.398 . S
C4340 C4341 1.391 . S
C4341 H4329 0.950 . S
C4341 C4337 1.393 . S
C4341 C4340 1.391 . S
C4342 H4332 0.950 . S
C4342 C4343 1.386 . S
C4342 C4344 1.391 . S
C4343 C4342 1.386 . S
C4343 C4347 1.393 . S
C4344 H4333 0.950 . S
C4344 C4342 1.391 . S
C4344 C4345 1.400 . S
C4345 C4339 1.491 1_565 S
C4345 C4344 1.400 . S
C4345 C4346 1.398 . S
C4346 H4334 0.950 . S
C4346 C4345 1.398 . S
C4346 C4347 1.391 . S
C4347 H4335 0.950 . S
C4347 C4343 1.393 . S
C4347 C4346 1.391 . S
H4348 C4356 0.950 . S
H4349 C4361 0.950 . S
H4350 C4358 0.950 . S
H4351 C4360 0.906 1_554 S
H4352 C4362 0.950 . S
H4353 C4364 0.950 . S
H4354 C4366 0.907 1_556 S
H4355 C4367 0.950 . S
C4356 H4348 0.950 . S
C4356 C4357 1.386 . S
C4356 C4358 1.391 . S
C4357 C4356 1.386 . S
C4357 C4361 1.393 . S
C4358 H4350 0.950 . S
C4358 C4356 1.391 . S
C4358 C4359 1.400 . S
C4359 C4358 1.400 . S
C4359 C4360 1.413 . S
C4359 C4365 1.491 1_556 S
C4360 H4351 0.906 1_556 S
C4360 C4359 1.413 . S
C4360 C4361 1.420 . S
C4361 H4349 0.950 . S
C4361 C4357 1.393 . S
C4361 C4360 1.420 . S
C4362 H4352 0.950 . S
C4362 C4363 1.386 . S
C4362 C4364 1.391 . S
C4363 C4362 1.386 . S
C4363 C4367 1.393 . S
C4364 H4353 0.950 . S
C4364 C4362 1.391 . S
C4364 C4365 1.400 . S
C4365 C4359 1.491 1_554 S
C4365 C4364 1.400 . S
C4365 C4366 1.413 . S
C4366 H4354 0.907 1_554 S
C4366 C4365 1.413 . S
C4366 C4367 1.420 . S
C4367 H4355 0.950 . S
C4367 C4363 1.393 . S
C4367 C4366 1.420 . S
H4368 C4376 0.950 . S
H4369 C4381 0.950 . S
H4370 C4378 0.950 . S
H4371 C4380 0.950 . S
H4372 C4382 0.950 . S
H4373 C4384 0.950 . S
H4374 C4386 0.950 . S
H4375 C4387 0.950 . S
C4376 H4368 0.950 . S
C4376 C4377 1.386 . S
C4376 C4378 1.391 . S
C4377 C4376 1.386 . S
C4377 C4381 1.393 . S
C4378 H4370 0.950 . S
C4378 C4376 1.391 . S
C4378 C4379 1.400 . S
C4379 C4378 1.400 . S
C4379 C4380 1.398 . S
C4379 C4385 1.491 1_565 S
C4380 H4371 0.950 . S
C4380 C4379 1.398 . S
C4380 C4381 1.391 . S
C4381 H4369 0.950 . S
C4381 C4377 1.393 . S
C4381 C4380 1.391 . S
C4382 H4372 0.950 . S
C4382 C4383 1.386 . S
C4382 C4384 1.391 . S
C4383 C4382 1.386 . S
C4383 C4387 1.393 . S
C4384 H4373 0.950 . S
C4384 C4382 1.391 . S
C4384 C4385 1.400 . S
C4385 C4379 1.491 1_545 S
C4385 C4384 1.400 . S
C4385 C4386 1.398 . S
C4386 H4374 0.950 . S
C4386 C4385 1.398 . S
C4386 C4387 1.391 . S
C4387 H4375 0.950 . S
C4387 C4383 1.393 . S
C4387 C4386 1.391 . S
H4388 C4396 0.950 . S
H4389 C4401 0.950 1_565 S
H4390 C4398 0.950 . S
H4391 C4400 0.950 1_565 S
H4392 C4402 0.950 1_565 S
H4393 C4404 0.950 1_565 S
H4394 C4406 0.950 . S
H4395 C4407 0.950 . S
C4396 H4388 0.950 . S
C4396 C4397 1.386 . S
C4396 C4398 1.391 . S
C4397 C4396 1.386 . S
C4397 C4401 1.393 . S
C4398 H4390 0.950 . S
C4398 C4396 1.391 . S
C4398 C4399 1.400 . S
C4399 C4398 1.400 . S
C4399 C4400 1.398 . S
C4399 C4405 1.491 . S
C4400 H4391 0.950 1_545 S
C4400 C4399 1.398 . S
C4400 C4401 1.391 . S
C4401 H4389 0.950 1_545 S
C4401 C4397 1.393 . S
C4401 C4400 1.391 . S
C4402 H4392 0.950 1_545 S
C4402 C4403 1.386 . S
C4402 C4404 1.391 . S
C4403 C4402 1.386 . S
C4403 C4407 1.393 . S
C4404 H4393 0.950 1_545 S
C4404 C4402 1.391 . S
C4404 C4405 1.400 . S
C4405 C4399 1.491 . S
C4405 C4404 1.400 . S
C4405 C4406 1.398 . S
C4406 H4394 0.950 . S
C4406 C4405 1.398 . S
C4406 C4407 1.391 . S
C4407 H4395 0.950 . S
C4407 C4403 1.393 . S
C4407 C4406 1.391 . S
H4408 C4416 0.950 . S
H4409 C4421 0.950 . S
H4410 C4418 0.950 . S
H4411 C4420 0.950 . S
H4412 C4422 0.950 . S
H4413 C4424 0.950 . S
H4414 C4426 0.950 . S
H4415 C4427 0.950 . S
C4416 H4408 0.950 . S
C4416 C4417 1.386 . S
C4416 C4418 1.391 . S
C4417 C4416 1.386 . S
C4417 C4421 1.393 . S
C4418 H4410 0.950 . S
C4418 C4416 1.391 . S
C4418 C4419 1.400 . S
C4419 C4418 1.400 . S
C4419 C4420 1.398 . S
C4419 C4425 1.491 1_565 S
C4420 H4411 0.950 . S
C4420 C4419 1.398 . S
C4420 C4421 1.391 . S
C4421 H4409 0.950 . S
C4421 C4417 1.393 . S
C4421 C4420 1.391 . S
C4422 H4412 0.950 . S
C4422 C4423 1.386 . S
C4422 C4424 1.391 . S
C4423 C4422 1.386 . S
C4423 C4427 1.393 . S
C4424 H4413 0.950 . S
C4424 C4422 1.391 . S
C4424 C4425 1.400 . S
C4425 C4419 1.491 1_545 S
C4425 C4424 1.400 . S
C4425 C4426 1.398 . S
C4426 H4414 0.950 . S
C4426 C4425 1.398 . S
C4426 C4427 1.391 . S
C4427 H4415 0.950 . S
C4427 C4423 1.393 . S
C4427 C4426 1.391 . S
H4428 C4436 0.950 . S
H4429 C4441 0.950 1_545 S
H4430 C4438 0.950 1_556 S
H4431 C4440 0.950 1_545 S
H4432 C4442 0.950 1_545 S
H4433 C4444 0.950 1_544 S
H4434 C4446 0.950 . S
H4435 C4447 0.950 . S
C4436 H4428 0.950 . S
C4436 C4437 1.386 . S
C4436 C4438 1.391 . S
C4437 C4436 1.386 . S
C4437 C4441 1.393 . S
C4438 H4430 0.950 1_554 S
C4438 C4436 1.391 . S
C4438 C4439 1.400 . S
C4439 C4438 1.400 . S
C4439 C4440 1.398 . S
C4439 C4445 1.491 1_554 S
C4440 H4431 0.950 1_565 S
C4440 C4439 1.398 . S
C4440 C4441 1.391 . S
C4441 H4429 0.950 1_565 S
C4441 C4437 1.393 . S
C4441 C4440 1.391 . S
C4442 H4432 0.950 1_565 S
C4442 C4443 1.386 . S
C4442 C4444 1.391 . S
C4443 C4442 1.386 . S
C4443 C4447 1.393 . S
C4444 H4433 0.950 1_566 S
C4444 C4442 1.391 . S
C4444 C4445 1.400 . S
C4445 C4439 1.491 1_556 S
C4445 C4444 1.400 . S
C4445 C4446 1.398 . S
C4446 H4434 0.950 . S
C4446 C4445 1.398 . S
C4446 C4447 1.391 . S
C4447 H4435 0.950 . S
C4447 C4443 1.393 . S
C4447 C4446 1.391 . S
H4448 C4456 0.950 . S
H4449 C4461 0.950 . S
H4450 C4458 0.950 . S
H4451 C4460 0.950 . S
H4452 C4462 0.950 . S
H4453 C4464 0.950 . S
H4454 C4466 0.950 . S
H4455 C4467 0.950 . S
C4456 H4448 0.950 . S
C4456 C4457 1.386 . S
C4456 C4458 1.391 . S
C4457 C4456 1.386 . S
C4457 C4461 1.393 . S
C4458 H4450 0.950 . S
C4458 C4456 1.391 . S
C4458 C4459 1.400 . S
C4459 C4458 1.400 . S
C4459 C4460 1.398 . S
C4459 C4465 1.491 . S
C4460 H4451 0.950 . S
C4460 C4459 1.398 . S
C4460 C4461 1.391 . S
C4461 H4449 0.950 . S
C4461 C4457 1.393 . S
C4461 C4460 1.391 . S
C4462 H4452 0.950 . S
C4462 C4463 1.386 . S
C4462 C4464 1.391 . S
C4463 C4462 1.386 . S
C4463 C4467 1.393 . S
C4464 H4453 0.950 . S
C4464 C4462 1.391 . S
C4464 C4465 1.400 . S
C4465 C4459 1.491 . S
C4465 C4464 1.400 . S
C4465 C4466 1.398 . S
C4466 H4454 0.950 . S
C4466 C4465 1.398 . S
C4466 C4467 1.391 . S
C4467 H4455 0.950 . S
C4467 C4463 1.393 . S
C4467 C4466 1.391 . S
H4468 C4476 0.950 . S
H4469 C4481 0.950 . S
H4470 C4478 1.014 . S
H4471 C4480 0.950 . S
H4472 C4482 0.950 . S
H4473 C4484 1.014 . S
H4474 C4486 0.950 . S
H4475 C4487 0.950 . S
C4476 H4468 0.950 . S
C4476 C4477 1.386 . S
C4476 C4478 1.354 1_556 S
C4477 C4476 1.386 . S
C4477 C4481 1.393 . S
C4478 H4470 1.014 . S
C4478 C4476 1.354 1_554 S
C4478 C4479 1.378 1_554 S
C4479 C4478 1.378 1_556 S
C4479 C4480 1.398 . S
C4479 C4485 1.491 1_556 S
C4480 H4471 0.950 . S
C4480 C4479 1.398 . S
C4480 C4481 1.391 . S
C4481 H4469 0.950 . S
C4481 C4477 1.393 . S
C4481 C4480 1.391 . S
C4482 H4472 0.950 . S
C4482 C4483 1.386 . S
C4482 C4484 1.354 1_554 S
C4483 C4482 1.386 . S
C4483 C4487 1.393 . S
C4484 H4473 1.014 . S
C4484 C4482 1.354 1_556 S
C4484 C4485 1.378 1_556 S
C4485 C4479 1.491 1_554 S
C4485 C4484 1.378 1_554 S
C4485 C4486 1.398 . S
C4486 H4474 0.950 . S
C4486 C4485 1.398 . S
C4486 C4487 1.391 . S
C4487 H4475 0.950 . S
C4487 C4483 1.393 . S
C4487 C4486 1.391 . S
H4488 C4496 0.950 . S
H4489 C4501 0.950 . S
H4490 C4498 0.950 . S
H4491 C4500 0.950 . S
H4492 C4502 0.950 . S
H4493 C4504 0.950 . S
H4494 C4506 0.950 . S
H4495 C4507 0.950 . S
C4496 H4488 0.950 . S
C4496 C4497 1.386 . S
C4496 C4498 1.391 . S
C4497 C4496 1.386 . S
C4497 C4501 1.393 . S
C4498 H4490 0.950 . S
C4498 C4496 1.391 . S
C4498 C4499 1.400 . S
C4499 C4498 1.400 . S
C4499 C4500 1.398 . S
C4499 C4505 1.491 . S
C4500 H4491 0.950 . S
C4500 C4499 1.398 . S
C4500 C4501 1.391 . S
C4501 H4489 0.950 . S
C4501 C4497 1.393 . S
C4501 C4500 1.391 . S
C4502 H4492 0.950 . S
C4502 C4503 1.386 . S
C4502 C4504 1.391 . S
C4503 C4502 1.386 . S
C4503 C4507 1.393 . S
C4504 H4493 0.950 . S
C4504 C4502 1.391 . S
C4504 C4505 1.400 . S
C4505 C4499 1.491 . S
C4505 C4504 1.400 . S
C4505 C4506 1.398 . S
C4506 H4494 0.950 . S
C4506 C4505 1.398 . S
C4506 C4507 1.391 . S
C4507 H4495 0.950 . S
C4507 C4503 1.393 . S
C4507 C4506 1.391 . S
H4508 C4516 0.950 . S
H4509 C4521 0.950 . S
H4510 C4518 0.950 . S
H4511 C4520 0.950 . S
H4512 C4522 0.950 . S
H4513 C4524 0.950 . S
H4514 C4526 0.950 . S
H4515 C4527 0.950 . S
C4516 H4508 0.950 . S
C4516 C4517 1.386 . S
C4516 C4518 1.391 . S
C4517 C4516 1.386 . S
C4517 C4521 1.393 . S
C4518 H4510 0.950 . S
C4518 C4516 1.391 . S
C4518 C4519 1.400 . S
C4519 C4518 1.400 . S
C4519 C4520 1.398 . S
C4519 C4525 1.491 . S
C4520 H4511 0.950 . S
C4520 C4519 1.398 . S
C4520 C4521 1.391 . S
C4521 H4509 0.950 . S
C4521 C4517 1.393 . S
C4521 C4520 1.391 . S
C4522 H4512 0.950 . S
C4522 C4523 1.386 . S
C4522 C4524 1.391 . S
C4523 C4522 1.386 . S
C4523 C4527 1.393 . S
C4524 H4513 0.950 . S
C4524 C4522 1.391 . S
C4524 C4525 1.400 . S
C4525 C4519 1.491 . S
C4525 C4524 1.400 . S
C4525 C4526 1.398 . S
C4526 H4514 0.950 . S
C4526 C4525 1.398 . S
C4526 C4527 1.391 . S
C4527 H4515 0.950 . S
C4527 C4523 1.393 . S
C4527 C4526 1.391 . S
H4528 C4536 0.950 . S
H4529 C4541 0.950 . S
H4530 C4538 0.950 . S
H4531 C4540 0.950 . S
H4532 C4542 0.950 . S
H4533 C4544 0.950 . S
H4534 C4546 0.950 . S
H4535 C4547 0.950 . S
C4536 H4528 0.950 . S
C4536 C4537 1.386 . S
C4536 C4538 1.391 . S
C4537 C4536 1.386 . S
C4537 C4541 1.393 . S
C4538 H4530 0.950 . S
C4538 C4536 1.391 . S
C4538 C4539 1.400 . S
C4539 C4538 1.400 . S
C4539 C4540 1.398 . S
C4539 C4545 1.491 . S
C4540 H4531 0.950 . S
C4540 C4539 1.398 . S
C4540 C4541 1.391 . S
C4541 H4529 0.950 . S
C4541 C4537 1.393 . S
C4541 C4540 1.391 . S
C4542 H4532 0.950 . S
C4542 C4543 1.386 . S
C4542 C4544 1.391 . S
C4543 C4542 1.386 . S
C4543 C4547 1.393 . S
C4544 H4533 0.950 . S
C4544 C4542 1.391 . S
C4544 C4545 1.400 . S
C4545 C4539 1.491 . S
C4545 C4544 1.400 . S
C4545 C4546 1.398 . S
C4546 H4534 0.950 . S
C4546 C4545 1.398 . S
C4546 C4547 1.391 . S
C4547 H4535 0.950 . S
C4547 C4543 1.393 . S
C4547 C4546 1.391 . S
H4548 C4556 0.950 . S
H4549 C4561 0.950 . S
H4550 C4558 0.950 . S
H4551 C4560 0.950 1_554 S
H4552 C4562 0.950 . S
H4553 C4564 0.950 . S
H4554 C4566 0.950 1_556 S
H4555 C4567 0.950 . S
C4556 H4548 0.950 . S
C4556 C4557 1.386 . S
C4556 C4558 1.391 . S
C4557 C4556 1.386 . S
C4557 C4561 1.393 . S
C4558 H4550 0.950 . S
C4558 C4556 1.391 . S
C4558 C4559 1.400 . S
C4559 C4558 1.400 . S
C4559 C4560 1.398 . S
C4559 C4565 1.491 1_556 S
C4560 H4551 0.950 1_556 S
C4560 C4559 1.398 . S
C4560 C4561 1.391 . S
C4561 H4549 0.950 . S
C4561 C4557 1.393 . S
C4561 C4560 1.391 . S
C4562 H4552 0.950 . S
C4562 C4563 1.386 . S
C4562 C4564 1.391 . S
C4563 C4562 1.386 . S
C4563 C4567 1.393 . S
C4564 H4553 0.950 . S
C4564 C4562 1.391 . S
C4564 C4565 1.400 . S
C4565 C4559 1.491 1_554 S
C4565 C4564 1.400 . S
C4565 C4566 1.398 . S
C4566 H4554 0.950 1_554 S
C4566 C4565 1.398 . S
C4566 C4567 1.391 . S
C4567 H4555 0.950 . S
C4567 C4563 1.393 . S
C4567 C4566 1.391 . S
H4568 C4576 0.950 . S
H4569 C4581 0.950 . S
H4570 C4578 0.950 . S
H4571 C4580 0.950 . S
H4572 C4582 0.950 . S
H4573 C4584 0.950 . S
H4574 C4586 0.950 . S
H4575 C4587 0.950 . S
C4576 H4568 0.950 . S
C4576 C4577 1.386 . S
C4576 C4578 1.391 . S
C4577 C4576 1.386 . S
C4577 C4581 1.393 . S
C4578 H4570 0.950 . S
C4578 C4576 1.391 . S
C4578 C4579 1.400 . S
C4579 C4578 1.400 . S
C4579 C4580 1.398 . S
C4579 C4585 1.491 . S
C4580 H4571 0.950 . S
C4580 C4579 1.398 . S
C4580 C4581 1.391 . S
C4581 H4569 0.950 . S
C4581 C4577 1.393 . S
C4581 C4580 1.391 . S
C4582 H4572 0.950 . S
C4582 C4583 1.386 . S
C4582 C4584 1.391 . S
C4583 C4582 1.386 . S
C4583 C4587 1.393 . S
C4584 H4573 0.950 . S
C4584 C4582 1.391 . S
C4584 C4585 1.400 . S
C4585 C4579 1.491 . S
C4585 C4584 1.400 . S
C4585 C4586 1.398 . S
C4586 H4574 0.950 . S
C4586 C4585 1.398 . S
C4586 C4587 1.391 . S
C4587 H4575 0.950 . S
C4587 C4583 1.393 . S
C4587 C4586 1.391 . S
H4588 C4596 0.950 . S
H4589 C4601 0.950 . S
H4590 C4598 0.950 . S
H4591 C4600 0.950 . S
H4592 C4602 0.950 . S
H4593 C4604 0.950 . S
H4594 C4606 0.950 . S
H4595 C4607 0.950 . S
C4596 H4588 0.950 . S
C4596 C4597 1.386 . S
C4596 C4598 1.391 . S
C4597 C4596 1.386 . S
C4597 C4601 1.393 . S
C4598 H4590 0.950 . S
C4598 C4596 1.391 . S
C4598 C4599 1.400 . S
C4599 C4598 1.400 . S
C4599 C4600 1.398 . S
C4599 C4605 1.491 . S
C4600 H4591 0.950 . S
C4600 C4599 1.398 . S
C4600 C4601 1.391 . S
C4601 H4589 0.950 . S
C4601 C4597 1.393 . S
C4601 C4600 1.391 . S
C4602 H4592 0.950 . S
C4602 C4603 1.386 . S
C4602 C4604 1.391 . S
C4603 C4602 1.386 . S
C4603 C4607 1.393 . S
C4604 H4593 0.950 . S
C4604 C4602 1.391 . S
C4604 C4605 1.400 . S
C4605 C4599 1.491 . S
C4605 C4604 1.400 . S
C4605 C4606 1.398 . S
C4606 H4594 0.950 . S
C4606 C4605 1.398 . S
C4606 C4607 1.391 . S
C4607 H4595 0.950 . S
C4607 C4603 1.393 . S
C4607 C4606 1.391 . S
C2697 C58 0.435 . S
C2703 C2335 0.177 . S
C2717 C142 0.422 . S
C2723 C739 0.195 . S
C2737 C226 0.382 . S
C2743 C2167 0.129 . S
C2757 C907 0.147 . S
C2763 C310 0.439 . S
C2777 C394 0.358 . S
C2783 C2503 0.155 . S
C2797 C1243 0.196 . S
C2803 C478 0.422 . S
C2817 C2671 0.195 . S
C2823 C562 0.422 . S
C2837 C646 0.359 . S
C2843 C1075 0.207 . S
C2857 C742 0.436 . S
C2863 C1652 0.137 . S
C2877 C826 0.406 . S
C2883 C56 0.117 . S
C2897 C1484 0.194 . S
C2903 C910 0.348 . S
C2917 C224 0.171 . S
C2923 C994 0.349 . S
C2937 C1078 0.348 . S
C2943 C1820 0.175 . S
C2957 C1162 0.439 . S
C2963 C560 0.148 . S
C2977 C1246 0.390 . S
C2983 C1988 0.124 . S
C2997 C392 0.163 . S
C3003 C1330 0.353 . S
C3017 C991 0.206 . S
C3023 C1402 0.358 . S
C3037 C2083 0.164 . S
C3043 C1486 0.353 . S
C3057 C823 0.206 . S
C3063 C1570 0.357 . S
C3077 C1654 0.434 . S
C3083 C2251 0.179 . S
C3097 C1159 0.129 . S
C3103 C1738 0.382 . S
C3117 C2587 0.159 . S
C3123 C1822 0.440 . S
C3137 C1327 0.123 . S
C3143 C1906 0.427 . S
C3157 C1990 0.360 . S
C3163 C2419 0.153 . S
C3177 C2086 0.390 . S
C3183 C308 0.124 . S
C3197 C2170 0.367 . S
C3203 C1400 0.210 . S
C3217 C2254 0.347 . S
C3223 C140 0.192 . S
C3237 C2338 0.350 . S
C3243 C1568 0.171 . S
C3257 C476 0.212 . S
C3263 C2422 0.381 . S
C3277 C1904 0.132 . S
C3283 C2506 0.434 . S
C3297 C2590 0.396 . S
C3303 C644 0.210 . S
C3317 C2674 0.385 . S
C3323 C1736 0.212 . S
C3337 C63 3.086 . S
C3343 C1575 3.083 . S
C3357 C1659 3.089 . S
C3363 C147 3.085 . S
C3377 C231 3.089 . S
C3383 C1407 3.087 . S
C3397 C315 3.088 . S
C3403 C1491 3.083 . S
C3417 C1911 3.085 . S
C3423 C399 3.090 . S
C3437 C483 3.090 . S
C3443 C1995 3.087 . S
C3457 C1743 3.083 . S
C3463 C567 3.088 . S
C3477 C651 3.088 . S
C3483 C1827 3.084 . S
C3497 C2258 3.086 . S
C3503 C746 3.090 . S
C3517 C830 3.085 . S
C3523 C2342 3.089 . S
C3537 C914 3.083 . S
C3543 C2090 3.088 . S
C3557 C998 3.088 . S
C3563 C2174 3.089 . S
C3577 C2594 3.089 . S
C3583 C1082 3.089 . S
C3597 C2678 3.089 . S
C3603 C1166 3.085 . S
C3617 C1250 3.089 . S
C3623 C2426 3.088 . S
C3637 C1334 3.087 . S
C3643 C2510 3.090 . S
C3657 C67 2.995 . S
C3663 C2072 2.995 . S
C3677 C812 2.982 . S
C3683 C151 2.982 . S
C3697 C235 2.991 . S
C3703 C2240 2.991 . S
C3717 C319 2.983 . S
C3723 C980 2.983 . S
C3737 C2408 2.994 . S
C3743 C403 2.994 . S
C3757 C1148 2.982 . S
C3763 C487 2.982 . S
C3777 C571 2.997 . S
C3783 C2576 2.997 . S
C3797 C655 2.992 . S
C3803 C1316 2.992 . S
C3817 C1411 2.988 . S
C3823 C728 2.988 . S
C3837 C1579 2.979 . S
C3843 C896 2.979 . S
C3857 C1747 2.988 . S
C3863 C1064 2.988 . S
C3877 C1232 2.998 . S
C3883 C1915 2.998 . S
C3897 C1495 2.985 . S
C3903 C2156 2.985 . S
C3917 C1663 2.980 . S
C3923 C2324 2.980 . S
C3937 C2492 2.998 . S
C3943 C1831 2.998 . S
C3957 C2660 2.998 . S
C3963 C1999 2.998 . S
C3977 C74 4.223 . S
C3983 C494 4.224 1_545 S
C3997 C578 4.212 . S
C4003 C158 4.210 1_545 S
C4017 C662 4.224 1_565 S
C4023 C242 4.219 . S
C4037 C410 4.223 . S
C4043 C326 4.224 1_565 S
C4057 C735 4.213 . S
C4063 C1155 4.210 1_565 S
C4077 C819 4.223 1_565 S
C4083 C1239 4.217 . S
C4097 C1323 4.210 1_545 S
C4103 C903 4.211 . S
C4117 C987 4.210 1_545 S
C4123 C1071 4.212 . S
C4137 C1418 4.220 . S
C4143 C1838 4.224 . S
C4157 C1502 4.210 . S
C4163 C1922 4.215 . S
C4177 C1586 4.211 . S
C4183 C2006 4.210 . S
C4197 C1754 4.220 . S
C4203 C1670 4.224 . S
C4217 C2079 4.211 . S
C4223 C2499 4.210 . S
C4237 C2163 4.224 . S
C4243 C2583 4.221 . S
C4257 C2667 4.224 . S
C4263 C2247 4.222 . S
C4277 C2331 4.210 . S
C4283 C2415 4.212 . S
C4297 C70 0.980 . S
C4303 C406 0.909 . S
C4317 C154 0.981 . S
C4323 C490 0.908 . S
C4337 C574 0.940 . S
C4343 C238 0.954 . S
C4357 C658 0.912 . S
C4363 C322 0.979 . S
C4377 C730 0.956 . S
C4383 C1066 0.938 . S
C4397 C1150 0.974 . S
C4403 C814 0.918 . S
C4417 C1234 0.955 . S
C4423 C898 0.933 . S
C4437 C1318 0.929 . S
C4443 C982 0.964 . S
C4457 C1414 0.970 . S
C4463 C1750 0.923 . S
C4477 C1834 0.981 . S
C4483 C1498 0.909 . S
C4497 C1582 0.957 . S
C4503 C1918 0.937 . S
C4517 C2002 0.909 . S
C4523 C1666 0.980 . S
C4537 C2410 0.954 . S
C4543 C2074 0.940 . S
C4557 C2158 0.954 . S
C4563 C2494 0.934 . S
C4577 C2242 0.914 . S
C4583 C2578 0.978 . S
C4597 C2326 0.964 . S
C4603 C2662 0.923 . S
