# Generated by pormake.
# Topology rac, (4)-cn, num edge types: 1
# Building blocks:
#     Node 0, Type 0, BuildingBlock: NAHDIM_clean_sbu_0, # of connection points: 4
#     Node 1, Type 0, BuildingBlock: NAHDIM_clean_sbu_0, # of connection points: 4
#     Node 2, Type 0, BuildingBlock: NAHDIM_clean_sbu_0, # of connection points: 4
#     Node 3, Type 0, BuildingBlock: NAHDIM_clean_sbu_0, # of connection points: 4
#     Node 4, Type 0, BuildingBlock: NAHDIM_clean_sbu_0, # of connection points: 4
#     Node 5, Type 0, BuildingBlock: NAHDIM_clean_sbu_0, # of connection points: 4
#     Node 6, Type 0, BuildingBlock: NAHDIM_clean_sbu_0, # of connection points: 4
#     Node 7, Type 0, BuildingBlock: NAHDIM_clean_sbu_0, # of connection points: 4
#     Edge 8, Type (0, 0), BuildingBlock: KIFKEQ_clean_linker_1, # of connection points: 2
#     Edge 9, Type (0, 0), BuildingBlock: KIFKEQ_clean_linker_1, # of connection points: 2
#     Edge 10, Type (0, 0), BuildingBlock: KIFKEQ_clean_linker_1, # of connection points: 2
#     Edge 11, Type (0, 0), BuildingBlock: KIFKEQ_clean_linker_1, # of connection points: 2
#     Edge 12, Type (0, 0), BuildingBlock: KIFKEQ_clean_linker_1, # of connection points: 2
#     Edge 13, Type (0, 0), BuildingBlock: KIFKEQ_clean_linker_1, # of connection points: 2
#     Edge 14, Type (0, 0), BuildingBlock: KIFKEQ_clean_linker_1, # of connection points: 2
#     Edge 15, Type (0, 0), BuildingBlock: KIFKEQ_clean_linker_1, # of connection points: 2
#     Edge 16, Type (0, 0), BuildingBlock: KIFKEQ_clean_linker_1, # of connection points: 2
#     Edge 17, Type (0, 0), BuildingBlock: KIFKEQ_clean_linker_1, # of connection points: 2
#     Edge 18, Type (0, 0), BuildingBlock: KIFKEQ_clean_linker_1, # of connection points: 2
#     Edge 19, Type (0, 0), BuildingBlock: KIFKEQ_clean_linker_1, # of connection points: 2
#     Edge 20, Type (0, 0), BuildingBlock: KIFKEQ_clean_linker_1, # of connection points: 2
#     Edge 21, Type (0, 0), BuildingBlock: KIFKEQ_clean_linker_1, # of connection points: 2
#     Edge 22, Type (0, 0), BuildingBlock: KIFKEQ_clean_linker_1, # of connection points: 2
#     Edge 23, Type (0, 0), BuildingBlock: KIFKEQ_clean_linker_1, # of connection points: 2
# Relax obj value: 0.227
# Max RMSD: 0.117
# Mean RMSD: 0.117
data_MOF--net-rac--node1-NAHDIM_clean_sbu_0--edge1-KIFKEQ_clean_linker_1
_symmetry_space_group_name_H-M    P1
_symmetry_Int_Tables_number       1
_symmetry_cell_setting            triclinic
loop_
_symmetry_equiv_pos_as_xyz
'x, y, z'
_cell_length_a     40.419081
_cell_length_b     21.092895
_cell_length_c     42.376125
_cell_angle_alpha  90.057833
_cell_angle_beta   89.95651
_cell_angle_gamma 89.978979
loop_
_atom_site_label
_atom_site_type_symbol
_atom_site_fract_x
_atom_site_fract_y
_atom_site_fract_z
_atom_type_partial_charge
C0 C 0.45045 0.30497 0.05517 0.0
O1 O 0.45901 0.29592 0.0847 0.0
O2 O 0.40669 0.2328 0.12017 0.0
Zn3 Zn 0.3888 0.25002 0.07643 0.0
O4 O 0.35832 0.3235 0.08107 0.0
C5 C 0.3364 0.1671 0.08246 0.0
O6 O 0.33718 0.19899 0.10911 0.0
O7 O 0.42323 0.28193 0.04536 0.0
C8 C 0.34619 0.34841 0.05645 0.0
O9 O 0.3536 0.32441 0.0287 0.0
C10 C 0.41028 0.27965 0.13881 0.0
O11 O 0.40543 0.33727 0.128 0.0
O12 O 0.35885 0.17796 0.06204 0.0
C13 C 0.0534 0.68922 0.042 0.0
O14 O 0.0428 0.70464 0.07028 0.0
O15 O 0.09858 0.76283 0.10641 0.0
Zn16 Zn 0.11463 0.75161 0.06159 0.0
O17 O 0.14997 0.68657 0.06317 0.0
C18 C 0.13808 0.88153 0.06147 0.0
O19 O 0.11745 0.88683 0.0853 0.0
O20 O 0.08102 0.71093 0.03244 0.0
C21 C 0.17746 0.69532 0.07688 0.0
O22 O 0.18295 0.74896 0.09177 0.0
C23 C 0.09476 0.71464 0.12406 0.0
O24 O 0.09908 0.65775 0.11208 0.0
O25 O 0.1385 0.83013 0.04575 0.0
C26 C 0.42193 0.1448 0.45311 0.0
O27 O 0.40331 0.12618 0.42949 0.0
O28 O 0.39645 0.25731 0.39233 0.0
Zn29 Zn 0.3832 0.24883 0.43846 0.0
O30 O 0.34356 0.19302 0.44169 0.0
C31 C 0.36036 0.37874 0.43877 0.0
O32 O 0.37297 0.37882 0.41019 0.0
O33 O 0.41917 0.20188 0.46273 0.0
C34 C 0.31521 0.20919 0.43166 0.0
O35 O 0.31149 0.26392 0.41732 0.0
C36 C 0.38523 0.21929 0.37159 0.0
O37 O 0.3647 0.17429 0.38019 0.0
O38 O 0.36589 0.33148 0.45667 0.0
C39 C 0.05143 0.79929 0.44278 0.0
O40 O 0.04382 0.79295 0.41284 0.0
O41 O 0.10083 0.7287 0.37822 0.0
Zn42 Zn 0.11573 0.75302 0.42226 0.0
O43 O 0.14075 0.8339 0.41808 0.0
C44 C 0.1512 0.63202 0.43549 0.0
O45 O 0.12653 0.60321 0.4213 0.0
O46 O 0.07877 0.77689 0.45263 0.0
C47 C 0.14809 0.86229 0.44355 0.0
O48 O 0.13945 0.83683 0.47062 0.0
C49 C 0.09315 0.77301 0.3592 0.0
O50 O 0.09325 0.83188 0.36936 0.0
O51 O 0.15004 0.69177 0.43934 0.0
C52 C 0.56801 0.65747 0.93961 0.0
O53 O 0.57823 0.64509 0.91081 0.0
O54 O 0.60781 0.75548 0.88368 0.0
Zn55 Zn 0.61917 0.74101 0.92946 0.0
O56 O 0.65066 0.66884 0.92796 0.0
C57 C 0.64723 0.8672 0.93412 0.0
O58 O 0.62647 0.87865 0.91098 0.0
O59 O 0.58053 0.70478 0.95404 0.0
C60 C 0.6584 0.63842 0.95267 0.0
O61 O 0.64635 0.65639 0.98007 0.0
C62 C 0.6327 0.76108 0.86555 0.0
O63 O 0.66239 0.76366 0.87812 0.0
O64 O 0.64568 0.81397 0.94813 0.0
C65 C 0.95081 0.30114 0.94151 0.0
O66 O 0.95481 0.29094 0.91119 0.0
O67 O 0.89775 0.24125 0.88289 0.0
Zn68 Zn 0.88883 0.23702 0.93002 0.0
O69 O 0.85166 0.29652 0.93832 0.0
C70 C 0.85887 0.11534 0.92177 0.0
O71 O 0.86741 0.12738 0.89247 0.0
O72 O 0.92659 0.27487 0.95562 0.0
C73 C 0.82371 0.28917 0.92524 0.0
O74 O 0.81939 0.24216 0.90531 0.0
C75 C 0.89495 0.2942 0.86877 0.0
O76 O 0.88791 0.34511 0.88536 0.0
O77 O 0.86944 0.15191 0.94347 0.0
C78 C 0.56713 0.8177 0.55926 0.0
O79 O 0.57701 0.8294 0.58822 0.0
O80 O 0.60666 0.70977 0.6127 0.0
Zn81 Zn 0.61881 0.73391 0.56826 0.0
O82 O 0.64926 0.807 0.57371 0.0
C83 C 0.64975 0.60997 0.55459 0.0
O84 O 0.62957 0.58731 0.57612 0.0
O85 O 0.58039 0.77179 0.54431 0.0
C86 C 0.66802 0.82366 0.55121 0.0
O87 O 0.66725 0.79197 0.52452 0.0
C88 C 0.63115 0.69806 0.63055 0.0
O89 O 0.66088 0.69528 0.61804 0.0
O90 O 0.64687 0.66751 0.54613 0.0
C91 C 0.93676 0.15363 0.5604 0.0
O92 O 0.92649 0.14351 0.5894 0.0
O93 O 0.90333 0.27218 0.61395 0.0
Zn94 Zn 0.88937 0.24703 0.56981 0.0
O95 O 0.85571 0.17858 0.57484 0.0
C96 C 0.86385 0.37479 0.5531 0.0
O97 O 0.88495 0.39725 0.57386 0.0
O98 O 0.92594 0.20222 0.54583 0.0
C99 C 0.8248 0.18879 0.57626 0.0
O100 O 0.81368 0.24729 0.57599 0.0
C101 C 0.88218 0.29777 0.63219 0.0
O102 O 0.85281 0.31193 0.62101 0.0
O103 O 0.86471 0.31614 0.54619 0.0
H104 H 0.31907 0.10728 0.0268 0.0
H105 H 0.28976 0.12852 0.1243 0.0
H106 H 0.26974 0.04219 0.01711 0.0
H107 H 0.24144 0.06347 0.11487 0.0
H108 H 0.14143 0.00025 0.08678 0.0
H109 H 0.1891 0.07061 0.08824 0.0
H110 H 0.24409 0.93939 0.03003 0.0
H111 H 0.19593 0.86952 0.0279 0.0
C112 C 0.30233 0.09766 0.04618 0.0
C113 C 0.3083 0.12347 0.07627 0.0
C114 C 0.27408 0.06042 0.04064 0.0
C115 C 0.25125 0.04848 0.06508 0.0
C116 C 0.25788 0.07305 0.09525 0.0
C117 C 0.28588 0.11002 0.10074 0.0
C118 C 0.16345 0.98686 0.07381 0.0
C119 C 0.16491 0.92894 0.05749 0.0
C120 C 0.19094 0.02698 0.07485 0.0
C121 C 0.22075 0.01004 0.05984 0.0
C122 C 0.22157 0.95399 0.04184 0.0
C123 C 0.19392 0.91389 0.04064 0.0
H124 H 0.16072 0.50339 0.43762 0.0
H125 H 0.21189 0.68152 0.44997 0.0
H126 H 0.213 0.44664 0.44449 0.0
H127 H 0.26407 0.62465 0.45645 0.0
H128 H 0.34876 0.49501 0.41281 0.0
H129 H 0.29855 0.55889 0.41756 0.0
H130 H 0.25916 0.42571 0.48508 0.0
H131 H 0.30956 0.36213 0.4807 0.0
C132 C 0.183 0.5304 0.44218 0.0
C133 C 0.18208 0.59701 0.4431 0.0
C134 C 0.21292 0.49788 0.44627 0.0
C135 C 0.24265 0.53126 0.45091 0.0
C136 C 0.2416 0.59772 0.45272 0.0
C137 C 0.21163 0.6302 0.44913 0.0
C138 C 0.32975 0.4802 0.42927 0.0
C139 C 0.33321 0.42356 0.44638 0.0
C140 C 0.301 0.5168 0.43199 0.0
C141 C 0.27481 0.49699 0.4515 0.0
C142 C 0.27884 0.44184 0.46968 0.0
C143 C 0.30786 0.40582 0.46738 0.0
H144 H 0.66435 0.97111 0.89953 0.0
H145 H 0.69735 0.85616 0.97782 0.0
H146 H 0.7169 0.02737 0.89987 0.0
H147 H 0.75012 0.91364 0.97823 0.0
H148 H 0.82714 0.0897 0.97806 0.0
H149 H 0.77527 0.03068 0.98505 0.0
H150 H 0.77532 0.98376 0.88595 0.0
H151 H 0.82689 0.04126 0.87892 0.0
C152 C 0.68252 0.95854 0.91723 0.0
C153 C 0.67665 0.90861 0.93846 0.0
C154 C 0.71275 0.99058 0.91725 0.0
C155 C 0.73777 0.97414 0.93873 0.0
C156 C 0.73127 0.92711 0.96136 0.0
C157 C 0.70105 0.89431 0.9611 0.0
C158 C 0.81644 0.06564 0.95792 0.0
C159 C 0.83112 0.07073 0.92787 0.0
C160 C 0.78672 0.03206 0.96194 0.0
C161 C 0.77099 0.00378 0.93591 0.0
C162 C 0.78657 0.00616 0.90631 0.0
C163 C 0.8163 0.03882 0.90237 0.0
H164 H 0.66243 0.4839 0.56399 0.0
H165 H 0.70558 0.65453 0.52545 0.0
H166 H 0.71503 0.42876 0.55673 0.0
H167 H 0.75818 0.59931 0.51842 0.0
H168 H 0.85209 0.50085 0.56431 0.0
H169 H 0.7998 0.55744 0.55798 0.0
H170 H 0.7562 0.39095 0.51582 0.0
H171 H 0.80843 0.33438 0.52184 0.0
C172 C 0.68292 0.50932 0.55344 0.0
C173 C 0.67977 0.57368 0.54544 0.0
C174 C 0.71304 0.47766 0.54918 0.0
C175 C 0.74081 0.50985 0.53719 0.0
C176 C 0.7373 0.57345 0.52797 0.0
C177 C 0.70706 0.60489 0.53182 0.0
C178 C 0.83161 0.47671 0.55304 0.0
C179 C 0.83447 0.41286 0.54387 0.0
C180 C 0.80164 0.5092 0.54936 0.0
C181 C 0.77377 0.47839 0.5367 0.0
C182 C 0.77712 0.41567 0.526 0.0
C183 C 0.80717 0.38344 0.52931 0.0
H184 H 0.41836 0.167 0.16999 0.0
H185 H 0.413 0.36943 0.18508 0.0
H186 H 0.4185 0.15023 0.22693 0.0
H187 H 0.41215 0.3526 0.24178 0.0
H188 H 0.4274 0.30579 0.34469 0.0
H189 H 0.44062 0.31767 0.28871 0.0
H190 H 0.37641 0.15987 0.26678 0.0
H191 H 0.36396 0.14704 0.32239 0.0
C192 C 0.41761 0.20793 0.18543 0.0
C193 C 0.41527 0.26948 0.173 0.0
C194 C 0.41747 0.19832 0.21806 0.0
C195 C 0.41487 0.25003 0.23892 0.0
C196 C 0.41443 0.31172 0.22645 0.0
C197 C 0.41471 0.32134 0.19386 0.0
C198 C 0.41637 0.27337 0.32789 0.0
C199 C 0.3945 0.22571 0.33798 0.0
C200 C 0.42386 0.28027 0.29583 0.0
C201 C 0.40961 0.23967 0.27324 0.0
C202 C 0.38831 0.19126 0.28352 0.0
C203 C 0.3809 0.18431 0.31547 0.0
H204 H 0.06346 0.85052 0.31642 0.0
H205 H 0.10913 0.66635 0.32564 0.0
H206 H 0.05831 0.83453 0.25977 0.0
H207 H 0.10531 0.65124 0.26873 0.0
H208 H 0.07753 0.62333 0.16675 0.0
H209 H 0.0716 0.63481 0.22373 0.0
H210 H 0.09374 0.83469 0.21565 0.0
H211 H 0.09833 0.82354 0.15875 0.0
C212 C 0.07231 0.80646 0.30632 0.0
C213 C 0.08692 0.75988 0.32544 0.0
C214 C 0.06957 0.79745 0.27378 0.0
C215 C 0.08181 0.74198 0.25948 0.0
C216 C 0.09528 0.6943 0.27886 0.0
C217 C 0.09763 0.70302 0.31152 0.0
C218 C 0.08074 0.66985 0.17716 0.0
C219 C 0.08849 0.7225 0.15825 0.0
C220 C 0.07756 0.67637 0.20987 0.0
C221 C 0.08236 0.7356 0.22445 0.0
C222 C 0.08931 0.7885 0.20532 0.0
C223 C 0.09215 0.78209 0.17262 0.0
H224 H 0.57807 0.72506 0.83154 0.0
H225 H 0.67957 0.78597 0.82129 0.0
H226 H 0.57522 0.70477 0.77476 0.0
H227 H 0.6765 0.76723 0.76481 0.0
H228 H 0.67643 0.66033 0.67404 0.0
H229 H 0.67425 0.6755 0.73088 0.0
H230 H 0.57601 0.75455 0.72254 0.0
H231 H 0.57788 0.73781 0.66548 0.0
C232 C 0.59957 0.73511 0.81711 0.0
C233 C 0.62915 0.7566 0.83091 0.0
C234 C 0.59794 0.72346 0.78461 0.0
C235 C 0.62583 0.73325 0.76536 0.0
C236 C 0.65485 0.75747 0.77908 0.0
C237 C 0.65652 0.76878 0.81145 0.0
C238 C 0.65417 0.68013 0.68434 0.0
C239 C 0.62746 0.69838 0.66525 0.0
C240 C 0.65303 0.68937 0.71691 0.0
C241 C 0.62525 0.71755 0.73117 0.0
C242 C 0.59777 0.73272 0.71229 0.0
C243 C 0.59884 0.7231 0.67961 0.0
H244 H 0.84529 0.36233 0.67534 0.0
H245 H 0.93376 0.24859 0.66634 0.0
H246 H 0.85229 0.36458 0.73234 0.0
H247 H 0.9409 0.25136 0.72365 0.0
H248 H 0.90964 0.19887 0.82704 0.0
H249 H 0.91063 0.20495 0.7695 0.0
H250 H 0.88858 0.40507 0.77446 0.0
H251 H 0.88726 0.39905 0.83184 0.0
C252 C 0.8665 0.33851 0.6855 0.0
C253 C 0.88888 0.30506 0.66632 0.0
C254 C 0.8706 0.34008 0.71819 0.0
C255 C 0.89709 0.30796 0.73251 0.0
C256 C 0.92006 0.27602 0.71329 0.0
C257 C 0.9161 0.27485 0.68048 0.0
C258 C 0.9053 0.24428 0.81586 0.0
C259 C 0.89812 0.29836 0.83403 0.0
C260 C 0.90608 0.24783 0.7829 0.0
C261 C 0.89954 0.30545 0.76745 0.0
C262 C 0.89332 0.35985 0.78567 0.0
C263 C 0.89268 0.35638 0.81858 0.0
H264 H 0.50827 0.36522 0.06979 0.0
H265 H 0.4331 0.35378 0.99754 0.0
H266 H 0.5343 0.45279 0.04179 0.0
H267 H 0.45883 0.44224 0.96984 0.0
H268 H 0.53559 0.55743 0.91343 0.0
H269 H 0.50751 0.4712 0.94033 0.0
H270 H 0.52414 0.564 0.02986 0.0
H271 H 0.55312 0.65007 0.00284 0.0
C272 C 0.49742 0.381 0.04779 0.0
C273 C 0.4686 0.3523 0.03591 0.0
C274 C 0.51214 0.4318 0.03193 0.0
C275 C 0.49843 0.45523 0.00378 0.0
C276 C 0.47017 0.42525 0.99138 0.0
C277 C 0.45544 0.37437 0.00724 0.0
C278 C 0.53298 0.55996 0.93884 0.0
C279 C 0.54675 0.61061 0.956 0.0
C280 C 0.51673 0.51046 0.95427 0.0
C281 C 0.51381 0.51023 0.9873 0.0
C282 C 0.52648 0.56212 0.00442 0.0
C283 C 0.54275 0.61184 0.98893 0.0
H284 H 0.99227 0.63747 0.05242 0.0
H285 H 0.07867 0.61993 0.99301 0.0
H286 H 0.96889 0.54256 0.02832 0.0
H287 H 0.05615 0.52374 0.96997 0.0
H288 H 0.9928 0.38555 0.91377 0.0
H289 H 0.01628 0.48089 0.93653 0.0
H290 H 0.97472 0.43124 0.02725 0.0
H291 H 0.94981 0.33687 0.0039 0.0
C292 C 0.00619 0.61357 0.03407 0.0
C293 C 0.03728 0.63653 0.02459 0.0
C294 C 0.99299 0.55855 0.02052 0.0
C295 C 0.01072 0.52462 0.99739 0.0
C296 C 0.04148 0.54869 0.98739 0.0
C297 C 0.05447 0.60408 0.00066 0.0
C298 C 0.98896 0.3944 0.93868 0.0
C299 C 0.96931 0.35344 0.95697 0.0
C300 C 0.00254 0.44932 0.95182 0.0
C301 C 0.99727 0.46451 0.98376 0.0
C302 C 0.97871 0.4221 0.00239 0.0
C303 C 0.96476 0.36742 0.98912 0.0
H304 H 0.55171 0.82579 0.49634 0.0
H305 H 0.53126 0.91222 0.58674 0.0
H306 H 0.51812 0.9066 0.47049 0.0
H307 H 0.49702 0.9918 0.56109 0.0
H308 H 0.46551 0.16331 0.50234 0.0
H309 H 0.5007 0.08362 0.52757 0.0
H310 H 0.46237 0.94069 0.46428 0.0
H311 H 0.42831 0.01986 0.43872 0.0
C312 C 0.53965 0.86143 0.51074 0.0
C313 C 0.54416 0.86247 0.54359 0.0
C314 C 0.52037 0.90784 0.49594 0.0
C315 C 0.50497 0.95612 0.51368 0.0
C316 C 0.50901 0.95623 0.5466 0.0
C317 C 0.52839 0.9101 0.56135 0.0
C318 C 0.46481 0.11494 0.49377 0.0
C319 C 0.44413 0.09813 0.4685 0.0
C320 C 0.48479 0.06912 0.50833 0.0
C321 C 0.4844 0.00555 0.49797 0.0
C322 C 0.46379 0.98917 0.4726 0.0
C323 C 0.44403 0.03477 0.45804 0.0
H324 H 0.95335 0.14643 0.49758 0.0
H325 H 0.96417 0.04763 0.58624 0.0
H326 H 0.98061 0.05843 0.47043 0.0
H327 H 0.99072 0.95957 0.55912 0.0
H328 H 0.06637 0.84152 0.50235 0.0
H329 H 0.04041 0.92869 0.53097 0.0
H330 H 0.96823 0.94852 0.45651 0.0
H331 H 0.99445 0.8621 0.42764 0.0
C332 C 0.96179 0.1063 0.51131 0.0
C333 C 0.9565 0.10412 0.54407 0.0
C334 C 0.9771 0.05552 0.49572 0.0
C335 C 0.98755 0.00154 0.51255 0.0
C336 C 0.98319 0.00043 0.54543 0.0
C337 C 0.96785 0.051 0.56097 0.0
C338 C 0.04464 0.86375 0.49229 0.0
C339 C 0.03256 0.84476 0.46262 0.0
C340 C 0.02978 0.91389 0.5087 0.0
C341 C 0.00249 0.94627 0.49584 0.0
C342 C 0.98965 0.9256 0.46677 0.0
C343 C 0.00447 0.87547 0.45039 0.0
H344 H 0.17426 0.58433 0.04436 0.0
H345 H 0.239 0.69532 0.10398 0.0
H346 H 0.21683 0.50375 0.03923 0.0
H347 H 0.28191 0.61414 0.09852 0.0
H348 H 0.32976 0.41371 0.10981 0.0
H349 H 0.29027 0.50056 0.11476 0.0
H350 H 0.27238 0.49352 0.01433 0.0
H351 H 0.3116 0.40623 0.00931 0.0
C352 C 0.19761 0.59161 0.05637 0.0
C353 C 0.2033 0.64624 0.07459 0.0
C354 C 0.22206 0.54561 0.0532 0.0
C355 C 0.25269 0.55305 0.06826 0.0
C356 C 0.2584 0.60727 0.08677 0.0
C357 C 0.23391 0.65367 0.08982 0.0
C358 C 0.3175 0.43085 0.08876 0.0
C359 C 0.32354 0.40284 0.05919 0.0
C360 C 0.2951 0.48084 0.0916 0.0
C361 C 0.27823 0.50344 0.06496 0.0
C362 C 0.2848 0.47638 0.0353 0.0
C363 C 0.30732 0.42661 0.03242 0.0
H364 H 0.25464 0.21459 0.40289 0.0
H365 H 0.3127 0.10439 0.46867 0.0
H366 H 0.20969 0.13719 0.40718 0.0
H367 H 0.2681 0.02772 0.47281 0.0
H368 H 0.17305 0.92748 0.49372 0.0
H369 H 0.20966 0.01925 0.49236 0.0
H370 H 0.2041 0.0217 0.3906 0.0
H371 H 0.16727 0.93011 0.39182 0.0
C372 C 0.25767 0.17426 0.41842 0.0
C373 C 0.2872 0.16525 0.43529 0.0
C374 C 0.23205 0.13004 0.42079 0.0
C375 C 0.23548 0.07676 0.44038 0.0
C376 C 0.26465 0.06883 0.45786 0.0
C377 C 0.29029 0.11248 0.45526 0.0
C378 C 0.17932 0.94798 0.47107 0.0
C379 C 0.16769 0.92111 0.44285 0.0
C380 C 0.20028 0.00041 0.47032 0.0
C381 C 0.2098 0.02711 0.44138 0.0
C382 C 0.19691 0.00222 0.41323 0.0
C383 C 0.17608 0.94953 0.41395 0.0
H384 H 0.68545 0.56905 0.00069 0.0
H385 H 0.68056 0.58195 0.89894 0.0
H386 H 0.72283 0.47836 0.99594 0.0
H387 H 0.71793 0.49211 0.89434 0.0
H388 H 0.76325 0.29621 0.89665 0.0
H389 H 0.72039 0.376 0.90532 0.0
H390 H 0.78098 0.46468 0.97674 0.0
H391 H 0.82363 0.38495 0.96839 0.0
C392 C 0.69224 0.55243 0.97737 0.0
C393 C 0.68027 0.5828 0.9502 0.0
C394 C 0.71364 0.50071 0.97467 0.0
C395 C 0.72315 0.47829 0.94478 0.0
C396 C 0.71064 0.5079 0.91767 0.0
C397 C 0.68948 0.55972 0.92034 0.0
C398 C 0.76728 0.33241 0.91438 0.0
C399 C 0.79689 0.3347 0.93163 0.0
C400 C 0.74281 0.37809 0.91927 0.0
C401 C 0.74749 0.42649 0.94162 0.0
C402 C 0.77662 0.4275 0.95959 0.0
C403 C 0.80113 0.38212 0.9546 0.0
H404 H 0.66783 0.91054 0.59883 0.0
H405 H 0.71897 0.859 0.51286 0.0
H406 H 0.70573 0.99935 0.60616 0.0
H407 H 0.75682 0.94795 0.52033 0.0
H408 H 0.83968 0.06443 0.56625 0.0
H409 H 0.8012 0.97634 0.56063 0.0
H410 H 0.71916 0.10304 0.57772 0.0
H411 H 0.75763 0.19168 0.58336 0.0
C412 C 0.68714 0.9182 0.58151 0.0
C413 C 0.69054 0.87782 0.55529 0.0
C414 C 0.70866 0.96915 0.58565 0.0
C415 C 0.73413 0.98013 0.56386 0.0
C416 C 0.73751 0.93993 0.53762 0.0
C417 C 0.71578 0.88935 0.53327 0.0
C418 C 0.81346 0.07354 0.56904 0.0
C419 C 0.80162 0.13501 0.57516 0.0
C420 C 0.79148 0.02318 0.5656 0.0
C421 C 0.75732 0.03322 0.56852 0.0
C422 C 0.74546 0.09422 0.57549 0.0
C423 C 0.76744 0.14484 0.57863 0.0
loop_
_geom_bond_atom_site_label_1
_geom_bond_atom_site_label_2
_geom_bond_distance
_geom_bond_site_symmetry_2
_ccdc_geom_bond_type
C0 O1 1.160 . S
C0 O7 1.185 . S
O1 C0 1.160 . S
O2 Zn3 1.899 . S
O2 C10 1.284 . S
Zn3 O2 1.899 . S
Zn3 O4 2.032 . S
Zn3 O7 2.086 . S
Zn3 O12 1.977 . S
O4 Zn3 2.032 . S
O4 C8 1.278 . S
C5 O6 1.203 . S
C5 O12 1.267 . S
O6 C5 1.203 . S
O7 C0 1.185 . S
O7 Zn3 2.086 . S
C8 O4 1.278 . S
C8 O9 1.211 . S
O9 C8 1.211 . S
C10 O2 1.284 . S
C10 O11 1.273 . S
O11 C10 1.273 . S
O12 Zn3 1.977 . S
O12 C5 1.267 . S
C13 O14 1.160 . S
C13 O20 1.185 . S
O14 C13 1.160 . S
O15 Zn16 1.899 . S
O15 C23 1.284 . S
Zn16 O15 1.899 . S
Zn16 O17 2.032 . S
Zn16 O20 2.086 . S
Zn16 O25 1.977 . S
O17 Zn16 2.032 . S
O17 C21 1.278 . S
C18 O19 1.203 . S
C18 O25 1.267 . S
O19 C18 1.203 . S
O20 C13 1.185 . S
O20 Zn16 2.086 . S
C21 O17 1.278 . S
C21 O22 1.211 . S
O22 C21 1.211 . S
C23 O15 1.284 . S
C23 O24 1.273 . S
O24 C23 1.273 . S
O25 Zn16 1.977 . S
O25 C18 1.267 . S
C26 O27 1.160 . S
C26 O33 1.185 . S
O27 C26 1.160 . S
O28 Zn29 1.899 . S
O28 C36 1.284 . S
Zn29 O28 1.899 . S
Zn29 O30 2.032 . S
Zn29 O33 2.086 . S
Zn29 O38 1.977 . S
O30 Zn29 2.032 . S
O30 C34 1.278 . S
C31 O32 1.203 . S
C31 O38 1.267 . S
O32 C31 1.203 . S
O33 C26 1.185 . S
O33 Zn29 2.086 . S
C34 O30 1.278 . S
C34 O35 1.211 . S
O35 C34 1.211 . S
C36 O28 1.284 . S
C36 O37 1.273 . S
O37 C36 1.273 . S
O38 Zn29 1.977 . S
O38 C31 1.267 . S
C39 O40 1.160 . S
C39 O46 1.185 . S
O40 C39 1.160 . S
O41 Zn42 1.899 . S
O41 C49 1.284 . S
Zn42 O41 1.899 . S
Zn42 O43 2.032 . S
Zn42 O46 2.086 . S
Zn42 O51 1.977 . S
O43 Zn42 2.032 . S
O43 C47 1.278 . S
C44 O45 1.203 . S
C44 O51 1.267 . S
O45 C44 1.203 . S
O46 C39 1.185 . S
O46 Zn42 2.086 . S
C47 O43 1.278 . S
C47 O48 1.211 . S
O48 C47 1.211 . S
C49 O41 1.284 . S
C49 O50 1.273 . S
O50 C49 1.273 . S
O51 Zn42 1.977 . S
O51 C44 1.267 . S
C52 O53 1.160 . S
C52 O59 1.185 . S
O53 C52 1.160 . S
O54 Zn55 1.899 . S
O54 C62 1.284 . S
Zn55 O54 1.899 . S
Zn55 O56 2.032 . S
Zn55 O59 2.086 . S
Zn55 O64 1.977 . S
O56 Zn55 2.032 . S
O56 C60 1.278 . S
C57 O58 1.203 . S
C57 O64 1.267 . S
O58 C57 1.203 . S
O59 C52 1.185 . S
O59 Zn55 2.086 . S
C60 O56 1.278 . S
C60 O61 1.211 . S
O61 C60 1.211 . S
C62 O54 1.284 . S
C62 O63 1.273 . S
O63 C62 1.273 . S
O64 Zn55 1.977 . S
O64 C57 1.267 . S
C65 O66 1.160 . S
C65 O72 1.185 . S
O66 C65 1.160 . S
O67 Zn68 1.899 . S
O67 C75 1.284 . S
Zn68 O67 1.899 . S
Zn68 O69 2.032 . S
Zn68 O72 2.086 . S
Zn68 O77 1.977 . S
O69 Zn68 2.032 . S
O69 C73 1.278 . S
C70 O71 1.203 . S
C70 O77 1.267 . S
O71 C70 1.203 . S
O72 C65 1.185 . S
O72 Zn68 2.086 . S
C73 O69 1.278 . S
C73 O74 1.211 . S
O74 C73 1.211 . S
C75 O67 1.284 . S
C75 O76 1.273 . S
O76 C75 1.273 . S
O77 Zn68 1.977 . S
O77 C70 1.267 . S
C78 O79 1.160 . S
C78 O85 1.185 . S
O79 C78 1.160 . S
O80 Zn81 1.899 . S
O80 C88 1.284 . S
Zn81 O80 1.899 . S
Zn81 O82 2.032 . S
Zn81 O85 2.086 . S
Zn81 O90 1.977 . S
O82 Zn81 2.032 . S
O82 C86 1.278 . S
C83 O84 1.203 . S
C83 O90 1.267 . S
O84 C83 1.203 . S
O85 C78 1.185 . S
O85 Zn81 2.086 . S
C86 O82 1.278 . S
C86 O87 1.211 . S
O87 C86 1.211 . S
C88 O80 1.284 . S
C88 O89 1.273 . S
O89 C88 1.273 . S
O90 Zn81 1.977 . S
O90 C83 1.267 . S
C91 O92 1.160 . S
C91 O98 1.185 . S
O92 C91 1.160 . S
O93 Zn94 1.899 . S
O93 C101 1.284 . S
Zn94 O93 1.899 . S
Zn94 O95 2.032 . S
Zn94 O98 2.086 . S
Zn94 O103 1.977 . S
O95 Zn94 2.032 . S
O95 C99 1.278 . S
C96 O97 1.203 . S
C96 O103 1.267 . S
O97 C96 1.203 . S
O98 C91 1.185 . S
O98 Zn94 2.086 . S
C99 O95 1.278 . S
C99 O100 1.211 . S
O100 C99 1.211 . S
C101 O93 1.284 . S
C101 O102 1.273 . S
O102 C101 1.273 . S
O103 Zn94 1.977 . S
O103 C96 1.267 . S
H104 C112 0.950 . S
H105 C117 0.950 . S
H106 C114 0.940 1_565 S
H107 C116 0.950 . S
H108 C118 0.950 . S
H109 C120 0.940 1_545 S
H110 C122 0.950 . S
H111 C123 0.950 . S
C112 H104 0.950 . S
C112 C113 1.386 . S
C112 C114 1.397 . S
C113 C112 1.386 . S
C113 C117 1.393 . S
C114 H106 0.940 1_545 S
C114 C112 1.397 . S
C114 C115 1.403 . S
C115 C114 1.403 . S
C115 C116 1.398 . S
C115 C121 1.491 1_545 S
C116 H107 0.950 . S
C116 C115 1.398 . S
C116 C117 1.391 . S
C117 H105 0.950 . S
C117 C113 1.393 . S
C117 C116 1.391 . S
C118 H108 0.950 . S
C118 C119 1.386 . S
C118 C120 1.397 . S
C119 C118 1.386 . S
C119 C123 1.393 . S
C120 H109 0.940 1_565 S
C120 C118 1.397 . S
C120 C121 1.403 . S
C121 C115 1.491 1_565 S
C121 C120 1.403 . S
C121 C122 1.398 . S
C122 H110 0.950 . S
C122 C121 1.398 . S
C122 C123 1.391 . S
C123 H111 0.950 . S
C123 C119 1.393 . S
C123 C122 1.391 . S
H124 C132 0.950 . S
H125 C137 0.950 . S
H126 C134 0.950 . S
H127 C136 0.950 . S
H128 C138 0.950 . S
H129 C140 0.950 . S
H130 C142 0.950 . S
H131 C143 0.950 . S
C132 H124 0.950 . S
C132 C133 1.386 . S
C132 C134 1.391 . S
C133 C132 1.386 . S
C133 C137 1.393 . S
C134 H126 0.950 . S
C134 C132 1.391 . S
C134 C135 1.400 . S
C135 C134 1.400 . S
C135 C136 1.398 . S
C135 C141 1.491 . S
C136 H127 0.950 . S
C136 C135 1.398 . S
C136 C137 1.391 . S
C137 H125 0.950 . S
C137 C133 1.393 . S
C137 C136 1.391 . S
C138 H128 0.950 . S
C138 C139 1.386 . S
C138 C140 1.391 . S
C139 C138 1.386 . S
C139 C143 1.393 . S
C140 H129 0.950 . S
C140 C138 1.391 . S
C140 C141 1.400 . S
C141 C135 1.491 . S
C141 C140 1.400 . S
C141 C142 1.398 . S
C142 H130 0.950 . S
C142 C141 1.398 . S
C142 C143 1.391 . S
C143 H131 0.950 . S
C143 C139 1.393 . S
C143 C142 1.391 . S
H144 C152 0.950 . S
H145 C157 0.950 . S
H146 C154 0.950 . S
H147 C156 0.950 . S
H148 C158 0.950 . S
H149 C160 0.950 . S
H150 C162 0.950 . S
H151 C163 0.950 . S
C152 H144 0.950 . S
C152 C153 1.386 . S
C152 C154 1.391 . S
C153 C152 1.386 . S
C153 C157 1.393 . S
C154 H146 0.950 . S
C154 C152 1.391 . S
C154 C155 1.400 . S
C155 C154 1.400 . S
C155 C156 1.398 . S
C155 C161 1.491 1_565 S
C156 H147 0.950 . S
C156 C155 1.398 . S
C156 C157 1.391 . S
C157 H145 0.950 . S
C157 C153 1.393 . S
C157 C156 1.391 . S
C158 H148 0.950 . S
C158 C159 1.386 . S
C158 C160 1.391 . S
C159 C158 1.386 . S
C159 C163 1.393 . S
C160 H149 0.950 . S
C160 C158 1.391 . S
C160 C161 1.400 . S
C161 C155 1.491 1_545 S
C161 C160 1.400 . S
C161 C162 1.398 . S
C162 H150 0.950 . S
C162 C161 1.398 . S
C162 C163 1.391 . S
C163 H151 0.950 . S
C163 C159 1.393 . S
C163 C162 1.391 . S
H164 C172 0.950 . S
H165 C177 0.950 . S
H166 C174 0.950 . S
H167 C176 0.950 . S
H168 C178 0.950 . S
H169 C180 0.950 . S
H170 C182 0.950 . S
H171 C183 0.950 . S
C172 H164 0.950 . S
C172 C173 1.386 . S
C172 C174 1.391 . S
C173 C172 1.386 . S
C173 C177 1.393 . S
C174 H166 0.950 . S
C174 C172 1.391 . S
C174 C175 1.400 . S
C175 C174 1.400 . S
C175 C176 1.398 . S
C175 C181 1.491 . S
C176 H167 0.950 . S
C176 C175 1.398 . S
C176 C177 1.391 . S
C177 H165 0.950 . S
C177 C173 1.393 . S
C177 C176 1.391 . S
C178 H168 0.950 . S
C178 C179 1.386 . S
C178 C180 1.391 . S
C179 C178 1.386 . S
C179 C183 1.393 . S
C180 H169 0.950 . S
C180 C178 1.391 . S
C180 C181 1.400 . S
C181 C175 1.491 . S
C181 C180 1.400 . S
C181 C182 1.398 . S
C182 H170 0.950 . S
C182 C181 1.398 . S
C182 C183 1.391 . S
C183 H171 0.950 . S
C183 C179 1.393 . S
C183 C182 1.391 . S
H184 C192 0.950 . S
H185 C197 0.950 . S
H186 C194 0.950 . S
H187 C196 0.950 . S
H188 C198 0.950 . S
H189 C200 0.950 . S
H190 C202 0.950 . S
H191 C203 0.950 . S
C192 H184 0.950 . S
C192 C193 1.386 . S
C192 C194 1.391 . S
C193 C192 1.386 . S
C193 C197 1.393 . S
C194 H186 0.950 . S
C194 C192 1.391 . S
C194 C195 1.400 . S
C195 C194 1.400 . S
C195 C196 1.398 . S
C195 C201 1.491 . S
C196 H187 0.950 . S
C196 C195 1.398 . S
C196 C197 1.391 . S
C197 H185 0.950 . S
C197 C193 1.393 . S
C197 C196 1.391 . S
C198 H188 0.950 . S
C198 C199 1.386 . S
C198 C200 1.391 . S
C199 C198 1.386 . S
C199 C203 1.393 . S
C200 H189 0.950 . S
C200 C198 1.391 . S
C200 C201 1.400 . S
C201 C195 1.491 . S
C201 C200 1.400 . S
C201 C202 1.398 . S
C202 H190 0.950 . S
C202 C201 1.398 . S
C202 C203 1.391 . S
C203 H191 0.950 . S
C203 C199 1.393 . S
C203 C202 1.391 . S
H204 C212 0.950 . S
H205 C217 0.950 . S
H206 C214 0.950 . S
H207 C216 0.950 . S
H208 C218 0.950 . S
H209 C220 0.950 . S
H210 C222 0.950 . S
H211 C223 0.950 . S
C212 H204 0.950 . S
C212 C213 1.386 . S
C212 C214 1.391 . S
C213 C212 1.386 . S
C213 C217 1.393 . S
C214 H206 0.950 . S
C214 C212 1.391 . S
C214 C215 1.400 . S
C215 C214 1.400 . S
C215 C216 1.398 . S
C215 C221 1.491 . S
C216 H207 0.950 . S
C216 C215 1.398 . S
C216 C217 1.391 . S
C217 H205 0.950 . S
C217 C213 1.393 . S
C217 C216 1.391 . S
C218 H208 0.950 . S
C218 C219 1.386 . S
C218 C220 1.391 . S
C219 C218 1.386 . S
C219 C223 1.393 . S
C220 H209 0.950 . S
C220 C218 1.391 . S
C220 C221 1.400 . S
C221 C215 1.491 . S
C221 C220 1.400 . S
C221 C222 1.398 . S
C222 H210 0.950 . S
C222 C221 1.398 . S
C222 C223 1.391 . S
C223 H211 0.950 . S
C223 C219 1.393 . S
C223 C222 1.391 . S
H224 C232 0.950 . S
H225 C237 0.950 . S
H226 C234 0.950 . S
H227 C236 0.950 . S
H228 C238 0.950 . S
H229 C240 0.950 . S
H230 C242 0.950 . S
H231 C243 0.950 . S
C232 H224 0.950 . S
C232 C233 1.386 . S
C232 C234 1.391 . S
C233 C232 1.386 . S
C233 C237 1.393 . S
C234 H226 0.950 . S
C234 C232 1.391 . S
C234 C235 1.400 . S
C235 C234 1.400 . S
C235 C236 1.398 . S
C235 C241 1.491 . S
C236 H227 0.950 . S
C236 C235 1.398 . S
C236 C237 1.391 . S
C237 H225 0.950 . S
C237 C233 1.393 . S
C237 C236 1.391 . S
C238 H228 0.950 . S
C238 C239 1.386 . S
C238 C240 1.391 . S
C239 C238 1.386 . S
C239 C243 1.393 . S
C240 H229 0.950 . S
C240 C238 1.391 . S
C240 C241 1.400 . S
C241 C235 1.491 . S
C241 C240 1.400 . S
C241 C242 1.398 . S
C242 H230 0.950 . S
C242 C241 1.398 . S
C242 C243 1.391 . S
C243 H231 0.950 . S
C243 C239 1.393 . S
C243 C242 1.391 . S
H244 C252 0.950 . S
H245 C257 0.950 . S
H246 C254 0.950 . S
H247 C256 0.950 . S
H248 C258 0.950 . S
H249 C260 0.950 . S
H250 C262 0.950 . S
H251 C263 0.950 . S
C252 H244 0.950 . S
C252 C253 1.386 . S
C252 C254 1.391 . S
C253 C252 1.386 . S
C253 C257 1.393 . S
C254 H246 0.950 . S
C254 C252 1.391 . S
C254 C255 1.400 . S
C255 C254 1.400 . S
C255 C256 1.398 . S
C255 C261 1.491 . S
C256 H247 0.950 . S
C256 C255 1.398 . S
C256 C257 1.391 . S
C257 H245 0.950 . S
C257 C253 1.393 . S
C257 C256 1.391 . S
C258 H248 0.950 . S
C258 C259 1.386 . S
C258 C260 1.391 . S
C259 C258 1.386 . S
C259 C263 1.393 . S
C260 H249 0.950 . S
C260 C258 1.391 . S
C260 C261 1.400 . S
C261 C255 1.491 . S
C261 C260 1.400 . S
C261 C262 1.398 . S
C262 H250 0.950 . S
C262 C261 1.398 . S
C262 C263 1.391 . S
C263 H251 0.950 . S
C263 C259 1.393 . S
C263 C262 1.391 . S
H264 C272 0.950 . S
H265 C277 0.950 . S
H266 C274 0.950 . S
H267 C276 0.950 . S
H268 C278 0.950 . S
H269 C280 0.950 . S
H270 C282 0.950 . S
H271 C283 0.950 . S
C272 H264 0.950 . S
C272 C273 1.386 . S
C272 C274 1.391 . S
C273 C272 1.386 . S
C273 C277 1.393 . S
C274 H266 0.950 . S
C274 C272 1.391 . S
C274 C275 1.400 . S
C275 C274 1.400 . S
C275 C276 1.398 . S
C275 C281 1.491 1_554 S
C276 H267 0.950 . S
C276 C275 1.398 . S
C276 C277 1.391 . S
C277 H265 0.950 . S
C277 C273 1.393 . S
C277 C276 1.391 . S
C278 H268 0.950 . S
C278 C279 1.386 . S
C278 C280 1.391 . S
C279 C278 1.386 . S
C279 C283 1.393 . S
C280 H269 0.950 . S
C280 C278 1.391 . S
C280 C281 1.400 . S
C281 C275 1.491 1_556 S
C281 C280 1.400 . S
C281 C282 1.398 . S
C282 H270 0.950 . S
C282 C281 1.398 . S
C282 C283 1.391 . S
C283 H271 0.950 . S
C283 C279 1.393 . S
C283 C282 1.391 . S
H284 C292 0.950 . S
H285 C297 0.950 . S
H286 C294 0.950 . S
H287 C296 0.950 . S
H288 C298 0.950 . S
H289 C300 0.950 . S
H290 C302 0.950 . S
H291 C303 0.950 . S
C292 H284 0.950 . S
C292 C293 1.386 . S
C292 C294 1.391 . S
C293 C292 1.386 . S
C293 C297 1.393 1_554 S
C294 H286 0.950 . S
C294 C292 1.391 . S
C294 C295 1.400 . S
C295 C294 1.400 . S
C295 C296 1.398 1_554 S
C295 C301 1.491 1_454 S
C296 H287 0.950 . S
C296 C295 1.398 1_556 S
C296 C297 1.391 . S
C297 H285 0.950 . S
C297 C293 1.393 1_556 S
C297 C296 1.391 . S
C298 H288 0.950 . S
C298 C299 1.386 . S
C298 C300 1.391 . S
C299 C298 1.386 . S
C299 C303 1.393 1_556 S
C300 H289 0.950 . S
C300 C298 1.391 . S
C300 C301 1.400 . S
C301 C295 1.491 1_656 S
C301 C300 1.400 . S
C301 C302 1.398 1_556 S
C302 H290 0.950 . S
C302 C301 1.398 1_554 S
C302 C303 1.391 . S
C303 H291 0.950 . S
C303 C299 1.393 1_554 S
C303 C302 1.391 . S
H304 C312 0.950 . S
H305 C317 0.950 . S
H306 C314 0.950 . S
H307 C316 0.950 1_545 S
H308 C318 0.950 . S
H309 C320 0.950 . S
H310 C322 0.950 1_565 S
H311 C323 0.950 . S
C312 H304 0.950 . S
C312 C313 1.386 . S
C312 C314 1.391 . S
C313 C312 1.386 . S
C313 C317 1.393 . S
C314 H306 0.950 . S
C314 C312 1.391 . S
C314 C315 1.400 . S
C315 C314 1.400 . S
C315 C316 1.398 . S
C315 C321 1.491 1_565 S
C316 H307 0.950 1_565 S
C316 C315 1.398 . S
C316 C317 1.391 . S
C317 H305 0.950 . S
C317 C313 1.393 . S
C317 C316 1.391 . S
C318 H308 0.950 . S
C318 C319 1.386 . S
C318 C320 1.391 . S
C319 C318 1.386 . S
C319 C323 1.393 . S
C320 H309 0.950 . S
C320 C318 1.391 . S
C320 C321 1.400 . S
C321 C315 1.491 1_545 S
C321 C320 1.400 . S
C321 C322 1.398 . S
C322 H310 0.950 1_545 S
C322 C321 1.398 . S
C322 C323 1.391 . S
C323 H311 0.950 . S
C323 C319 1.393 . S
C323 C322 1.391 . S
H324 C332 0.950 . S
H325 C337 0.950 . S
H326 C334 0.950 1_455 S
H327 C336 0.950 1_565 S
H328 C338 0.950 . S
H329 C340 0.950 1_655 S
H330 C342 0.950 1_545 S
H331 C343 0.950 . S
C332 H324 0.950 . S
C332 C333 1.386 . S
C332 C334 1.391 . S
C333 C332 1.386 . S
C333 C337 1.393 . S
C334 H326 0.950 1_655 S
C334 C332 1.391 . S
C334 C335 1.400 . S
C335 C334 1.400 . S
C335 C336 1.398 . S
C335 C341 1.491 1_645 S
C336 H327 0.950 1_545 S
C336 C335 1.398 . S
C336 C337 1.391 . S
C337 H325 0.950 . S
C337 C333 1.393 . S
C337 C336 1.391 . S
C338 H328 0.950 . S
C338 C339 1.386 . S
C338 C340 1.391 . S
C339 C338 1.386 . S
C339 C343 1.393 . S
C340 H329 0.950 1_455 S
C340 C338 1.391 . S
C340 C341 1.400 . S
C341 C335 1.491 1_465 S
C341 C340 1.400 . S
C341 C342 1.398 . S
C342 H330 0.950 1_565 S
C342 C341 1.398 . S
C342 C343 1.391 . S
C343 H331 0.950 . S
C343 C339 1.393 . S
C343 C342 1.391 . S
H344 C352 0.950 . S
H345 C357 0.950 . S
H346 C354 0.950 . S
H347 C356 0.950 . S
H348 C358 0.950 . S
H349 C360 0.950 . S
H350 C362 0.950 . S
H351 C363 0.950 . S
C352 H344 0.950 . S
C352 C353 1.386 . S
C352 C354 1.391 . S
C353 C352 1.386 . S
C353 C357 1.393 . S
C354 H346 0.950 . S
C354 C352 1.391 . S
C354 C355 1.400 . S
C355 C354 1.400 . S
C355 C356 1.398 . S
C355 C361 1.491 . S
C356 H347 0.950 . S
C356 C355 1.398 . S
C356 C357 1.391 . S
C357 H345 0.950 . S
C357 C353 1.393 . S
C357 C356 1.391 . S
C358 H348 0.950 . S
C358 C359 1.386 . S
C358 C360 1.391 . S
C359 C358 1.386 . S
C359 C363 1.393 . S
C360 H349 0.950 . S
C360 C358 1.391 . S
C360 C361 1.400 . S
C361 C355 1.491 . S
C361 C360 1.400 . S
C361 C362 1.398 . S
C362 H350 0.950 . S
C362 C361 1.398 . S
C362 C363 1.391 . S
C363 H351 0.950 . S
C363 C359 1.393 . S
C363 C362 1.391 . S
H364 C372 0.950 . S
H365 C377 0.950 . S
H366 C374 0.950 . S
H367 C376 0.950 . S
H368 C378 0.950 . S
H369 C380 0.950 . S
H370 C382 0.950 . S
H371 C383 0.950 . S
C372 H364 0.950 . S
C372 C373 1.386 . S
C372 C374 1.391 . S
C373 C372 1.386 . S
C373 C377 1.393 . S
C374 H366 0.950 . S
C374 C372 1.391 . S
C374 C375 1.400 . S
C375 C374 1.400 . S
C375 C376 1.398 . S
C375 C381 1.491 1_545 S
C376 H367 0.950 . S
C376 C375 1.398 . S
C376 C377 1.391 . S
C377 H365 0.950 . S
C377 C373 1.393 . S
C377 C376 1.391 . S
C378 H368 0.950 . S
C378 C379 1.386 . S
C378 C380 1.391 . S
C379 C378 1.386 . S
C379 C383 1.393 . S
C380 H369 0.950 . S
C380 C378 1.391 . S
C380 C381 1.400 . S
C381 C375 1.491 1_565 S
C381 C380 1.400 . S
C381 C382 1.398 . S
C382 H370 0.950 . S
C382 C381 1.398 . S
C382 C383 1.391 . S
C383 H371 0.950 . S
C383 C379 1.393 . S
C383 C382 1.391 . S
H384 C392 0.950 . S
H385 C397 0.950 . S
H386 C394 0.950 . S
H387 C396 0.950 . S
H388 C398 0.950 . S
H389 C400 0.950 . S
H390 C402 0.950 . S
H391 C403 0.950 . S
C392 H384 0.950 . S
C392 C393 1.386 . S
C392 C394 1.391 . S
C393 C392 1.386 . S
C393 C397 1.393 . S
C394 H386 0.950 . S
C394 C392 1.391 . S
C394 C395 1.400 . S
C395 C394 1.400 . S
C395 C396 1.398 . S
C395 C401 1.491 . S
C396 H387 0.950 . S
C396 C395 1.398 . S
C396 C397 1.391 . S
C397 H385 0.950 . S
C397 C393 1.393 . S
C397 C396 1.391 . S
C398 H388 0.950 . S
C398 C399 1.386 . S
C398 C400 1.391 . S
C399 C398 1.386 . S
C399 C403 1.393 . S
C400 H389 0.950 . S
C400 C398 1.391 . S
C400 C401 1.400 . S
C401 C395 1.491 . S
C401 C400 1.400 . S
C401 C402 1.398 . S
C402 H390 0.950 . S
C402 C401 1.398 . S
C402 C403 1.391 . S
C403 H391 0.950 . S
C403 C399 1.393 . S
C403 C402 1.391 . S
H404 C412 0.950 . S
H405 C417 0.950 . S
H406 C414 0.950 1_545 S
H407 C416 0.950 . S
H408 C418 0.950 . S
H409 C420 0.950 1_565 S
H410 C422 0.950 . S
H411 C423 0.950 . S
C412 H404 0.950 . S
C412 C413 1.386 . S
C412 C414 1.391 . S
C413 C412 1.386 . S
C413 C417 1.393 . S
C414 H406 0.950 1_565 S
C414 C412 1.391 . S
C414 C415 1.400 . S
C415 C414 1.400 . S
C415 C416 1.398 . S
C415 C421 1.491 1_565 S
C416 H407 0.950 . S
C416 C415 1.398 . S
C416 C417 1.391 . S
C417 H405 0.950 . S
C417 C413 1.393 . S
C417 C416 1.391 . S
C418 H408 0.950 . S
C418 C419 1.386 . S
C418 C420 1.391 . S
C419 C418 1.386 . S
C419 C423 1.393 . S
C420 H409 0.950 1_545 S
C420 C418 1.391 . S
C420 C421 1.400 . S
C421 C415 1.491 1_545 S
C421 C420 1.400 . S
C421 C422 1.398 . S
C422 H410 0.950 . S
C422 C421 1.398 . S
C422 C423 1.391 . S
C423 H411 0.950 . S
C423 C419 1.393 . S
C423 C422 1.391 . S
C113 C5 1.307 . S
C119 C18 1.339 . S
C133 C44 1.303 . S
C139 C31 1.328 . S
C153 C57 1.342 . S
C159 C70 1.327 . S
C173 C83 1.323 . S
C179 C96 1.304 . S
C193 C10 1.488 . S
C199 C36 1.474 . S
C213 C49 1.474 . S
C219 C23 1.490 . S
C233 C62 1.494 . S
C239 C88 1.490 . S
C253 C101 1.476 . S
C259 C75 1.483 . S
C273 C0 1.473 . S
C279 C52 1.473 . S
C293 C13 1.494 . S
C299 C65 1.494 . S
C313 C78 1.472 . S
C319 C26 1.472 . S
C333 C91 1.479 . S
C339 C39 1.479 . S
C353 C21 0.673 . S
C359 C8 0.666 . S
C373 C34 0.684 . S
C379 C47 0.685 . S
C393 C60 0.685 . S
C399 C73 0.682 . S
C413 C86 0.659 . S
C419 C99 0.667 . S
