# Generated by pormake.
# Topology rho, (4)-cn, num edge types: 1
# Building blocks:
#     Node 0, Type 0, BuildingBlock: QUQFOY_clean_sbu_1, # of connection points: 4
#     Node 1, Type 0, BuildingBlock: QUQFOY_clean_sbu_1, # of connection points: 4
#     Node 2, Type 0, BuildingBlock: QUQFOY_clean_sbu_1, # of connection points: 4
#     Node 3, Type 0, BuildingBlock: QUQFOY_clean_sbu_1, # of connection points: 4
#     Node 4, Type 0, BuildingBlock: QUQFOY_clean_sbu_1, # of connection points: 4
#     Node 5, Type 0, BuildingBlock: QUQFOY_clean_sbu_1, # of connection points: 4
#     Node 6, Type 0, BuildingBlock: QUQFOY_clean_sbu_1, # of connection points: 4
#     Node 7, Type 0, BuildingBlock: QUQFOY_clean_sbu_1, # of connection points: 4
#     Node 8, Type 0, BuildingBlock: QUQFOY_clean_sbu_1, # of connection points: 4
#     Node 9, Type 0, BuildingBlock: QUQFOY_clean_sbu_1, # of connection points: 4
#     Node 10, Type 0, BuildingBlock: QUQFOY_clean_sbu_1, # of connection points: 4
#     Node 11, Type 0, BuildingBlock: QUQFOY_clean_sbu_1, # of connection points: 4
#     Node 12, Type 0, BuildingBlock: QUQFOY_clean_sbu_1, # of connection points: 4
#     Node 13, Type 0, BuildingBlock: QUQFOY_clean_sbu_1, # of connection points: 4
#     Node 14, Type 0, BuildingBlock: QUQFOY_clean_sbu_1, # of connection points: 4
#     Node 15, Type 0, BuildingBlock: QUQFOY_clean_sbu_1, # of connection points: 4
#     Node 16, Type 0, BuildingBlock: QUQFOY_clean_sbu_1, # of connection points: 4
#     Node 17, Type 0, BuildingBlock: QUQFOY_clean_sbu_1, # of connection points: 4
#     Node 18, Type 0, BuildingBlock: QUQFOY_clean_sbu_1, # of connection points: 4
#     Node 19, Type 0, BuildingBlock: QUQFOY_clean_sbu_1, # of connection points: 4
#     Node 20, Type 0, BuildingBlock: QUQFOY_clean_sbu_1, # of connection points: 4
#     Node 21, Type 0, BuildingBlock: QUQFOY_clean_sbu_1, # of connection points: 4
#     Node 22, Type 0, BuildingBlock: QUQFOY_clean_sbu_1, # of connection points: 4
#     Node 23, Type 0, BuildingBlock: QUQFOY_clean_sbu_1, # of connection points: 4
#     Node 24, Type 0, BuildingBlock: QUQFOY_clean_sbu_1, # of connection points: 4
#     Node 25, Type 0, BuildingBlock: QUQFOY_clean_sbu_1, # of connection points: 4
#     Node 26, Type 0, BuildingBlock: QUQFOY_clean_sbu_1, # of connection points: 4
#     Node 27, Type 0, BuildingBlock: QUQFOY_clean_sbu_1, # of connection points: 4
#     Node 28, Type 0, BuildingBlock: QUQFOY_clean_sbu_1, # of connection points: 4
#     Node 29, Type 0, BuildingBlock: QUQFOY_clean_sbu_1, # of connection points: 4
#     Node 30, Type 0, BuildingBlock: QUQFOY_clean_sbu_1, # of connection points: 4
#     Node 31, Type 0, BuildingBlock: QUQFOY_clean_sbu_1, # of connection points: 4
#     Node 32, Type 0, BuildingBlock: QUQFOY_clean_sbu_1, # of connection points: 4
#     Node 33, Type 0, BuildingBlock: QUQFOY_clean_sbu_1, # of connection points: 4
#     Node 34, Type 0, BuildingBlock: QUQFOY_clean_sbu_1, # of connection points: 4
#     Node 35, Type 0, BuildingBlock: QUQFOY_clean_sbu_1, # of connection points: 4
#     Node 36, Type 0, BuildingBlock: QUQFOY_clean_sbu_1, # of connection points: 4
#     Node 37, Type 0, BuildingBlock: QUQFOY_clean_sbu_1, # of connection points: 4
#     Node 38, Type 0, BuildingBlock: QUQFOY_clean_sbu_1, # of connection points: 4
#     Node 39, Type 0, BuildingBlock: QUQFOY_clean_sbu_1, # of connection points: 4
#     Node 40, Type 0, BuildingBlock: QUQFOY_clean_sbu_1, # of connection points: 4
#     Node 41, Type 0, BuildingBlock: QUQFOY_clean_sbu_1, # of connection points: 4
#     Node 42, Type 0, BuildingBlock: QUQFOY_clean_sbu_1, # of connection points: 4
#     Node 43, Type 0, BuildingBlock: QUQFOY_clean_sbu_1, # of connection points: 4
#     Node 44, Type 0, BuildingBlock: QUQFOY_clean_sbu_1, # of connection points: 4
#     Node 45, Type 0, BuildingBlock: QUQFOY_clean_sbu_1, # of connection points: 4
#     Node 46, Type 0, BuildingBlock: QUQFOY_clean_sbu_1, # of connection points: 4
#     Node 47, Type 0, BuildingBlock: QUQFOY_clean_sbu_1, # of connection points: 4
#     Edge 48, Type (0, 0), BuildingBlock: ZUJKAS_clean_linker_0, # of connection points: 2
#     Edge 49, Type (0, 0), BuildingBlock: ZUJKAS_clean_linker_0, # of connection points: 2
#     Edge 50, Type (0, 0), BuildingBlock: ZUJKAS_clean_linker_0, # of connection points: 2
#     Edge 51, Type (0, 0), BuildingBlock: ZUJKAS_clean_linker_0, # of connection points: 2
#     Edge 52, Type (0, 0), BuildingBlock: ZUJKAS_clean_linker_0, # of connection points: 2
#     Edge 53, Type (0, 0), BuildingBlock: ZUJKAS_clean_linker_0, # of connection points: 2
#     Edge 54, Type (0, 0), BuildingBlock: ZUJKAS_clean_linker_0, # of connection points: 2
#     Edge 55, Type (0, 0), BuildingBlock: ZUJKAS_clean_linker_0, # of connection points: 2
#     Edge 56, Type (0, 0), BuildingBlock: ZUJKAS_clean_linker_0, # of connection points: 2
#     Edge 57, Type (0, 0), BuildingBlock: ZUJKAS_clean_linker_0, # of connection points: 2
#     Edge 58, Type (0, 0), BuildingBlock: ZUJKAS_clean_linker_0, # of connection points: 2
#     Edge 59, Type (0, 0), BuildingBlock: ZUJKAS_clean_linker_0, # of connection points: 2
#     Edge 60, Type (0, 0), BuildingBlock: ZUJKAS_clean_linker_0, # of connection points: 2
#     Edge 61, Type (0, 0), BuildingBlock: ZUJKAS_clean_linker_0, # of connection points: 2
#     Edge 62, Type (0, 0), BuildingBlock: ZUJKAS_clean_linker_0, # of connection points: 2
#     Edge 63, Type (0, 0), BuildingBlock: ZUJKAS_clean_linker_0, # of connection points: 2
#     Edge 64, Type (0, 0), BuildingBlock: ZUJKAS_clean_linker_0, # of connection points: 2
#     Edge 65, Type (0, 0), BuildingBlock: ZUJKAS_clean_linker_0, # of connection points: 2
#     Edge 66, Type (0, 0), BuildingBlock: ZUJKAS_clean_linker_0, # of connection points: 2
#     Edge 67, Type (0, 0), BuildingBlock: ZUJKAS_clean_linker_0, # of connection points: 2
#     Edge 68, Type (0, 0), BuildingBlock: ZUJKAS_clean_linker_0, # of connection points: 2
#     Edge 69, Type (0, 0), BuildingBlock: ZUJKAS_clean_linker_0, # of connection points: 2
#     Edge 70, Type (0, 0), BuildingBlock: ZUJKAS_clean_linker_0, # of connection points: 2
#     Edge 71, Type (0, 0), BuildingBlock: ZUJKAS_clean_linker_0, # of connection points: 2
#     Edge 72, Type (0, 0), BuildingBlock: ZUJKAS_clean_linker_0, # of connection points: 2
#     Edge 73, Type (0, 0), BuildingBlock: ZUJKAS_clean_linker_0, # of connection points: 2
#     Edge 74, Type (0, 0), BuildingBlock: ZUJKAS_clean_linker_0, # of connection points: 2
#     Edge 75, Type (0, 0), BuildingBlock: ZUJKAS_clean_linker_0, # of connection points: 2
#     Edge 76, Type (0, 0), BuildingBlock: ZUJKAS_clean_linker_0, # of connection points: 2
#     Edge 77, Type (0, 0), BuildingBlock: ZUJKAS_clean_linker_0, # of connection points: 2
#     Edge 78, Type (0, 0), BuildingBlock: ZUJKAS_clean_linker_0, # of connection points: 2
#     Edge 79, Type (0, 0), BuildingBlock: ZUJKAS_clean_linker_0, # of connection points: 2
#     Edge 80, Type (0, 0), BuildingBlock: ZUJKAS_clean_linker_0, # of connection points: 2
#     Edge 81, Type (0, 0), BuildingBlock: ZUJKAS_clean_linker_0, # of connection points: 2
#     Edge 82, Type (0, 0), BuildingBlock: ZUJKAS_clean_linker_0, # of connection points: 2
#     Edge 83, Type (0, 0), BuildingBlock: ZUJKAS_clean_linker_0, # of connection points: 2
#     Edge 84, Type (0, 0), BuildingBlock: ZUJKAS_clean_linker_0, # of connection points: 2
#     Edge 85, Type (0, 0), BuildingBlock: ZUJKAS_clean_linker_0, # of connection points: 2
#     Edge 86, Type (0, 0), BuildingBlock: ZUJKAS_clean_linker_0, # of connection points: 2
#     Edge 87, Type (0, 0), BuildingBlock: ZUJKAS_clean_linker_0, # of connection points: 2
#     Edge 88, Type (0, 0), BuildingBlock: ZUJKAS_clean_linker_0, # of connection points: 2
#     Edge 89, Type (0, 0), BuildingBlock: ZUJKAS_clean_linker_0, # of connection points: 2
#     Edge 90, Type (0, 0), BuildingBlock: ZUJKAS_clean_linker_0, # of connection points: 2
#     Edge 91, Type (0, 0), BuildingBlock: ZUJKAS_clean_linker_0, # of connection points: 2
#     Edge 92, Type (0, 0), BuildingBlock: ZUJKAS_clean_linker_0, # of connection points: 2
#     Edge 93, Type (0, 0), BuildingBlock: ZUJKAS_clean_linker_0, # of connection points: 2
#     Edge 94, Type (0, 0), BuildingBlock: ZUJKAS_clean_linker_0, # of connection points: 2
#     Edge 95, Type (0, 0), BuildingBlock: ZUJKAS_clean_linker_0, # of connection points: 2
#     Edge 96, Type (0, 0), BuildingBlock: ZUJKAS_clean_linker_0, # of connection points: 2
#     Edge 97, Type (0, 0), BuildingBlock: ZUJKAS_clean_linker_0, # of connection points: 2
#     Edge 98, Type (0, 0), BuildingBlock: ZUJKAS_clean_linker_0, # of connection points: 2
#     Edge 99, Type (0, 0), BuildingBlock: ZUJKAS_clean_linker_0, # of connection points: 2
#     Edge 100, Type (0, 0), BuildingBlock: ZUJKAS_clean_linker_0, # of connection points: 2
#     Edge 101, Type (0, 0), BuildingBlock: ZUJKAS_clean_linker_0, # of connection points: 2
#     Edge 102, Type (0, 0), BuildingBlock: ZUJKAS_clean_linker_0, # of connection points: 2
#     Edge 103, Type (0, 0), BuildingBlock: ZUJKAS_clean_linker_0, # of connection points: 2
#     Edge 104, Type (0, 0), BuildingBlock: ZUJKAS_clean_linker_0, # of connection points: 2
#     Edge 105, Type (0, 0), BuildingBlock: ZUJKAS_clean_linker_0, # of connection points: 2
#     Edge 106, Type (0, 0), BuildingBlock: ZUJKAS_clean_linker_0, # of connection points: 2
#     Edge 107, Type (0, 0), BuildingBlock: ZUJKAS_clean_linker_0, # of connection points: 2
#     Edge 108, Type (0, 0), BuildingBlock: ZUJKAS_clean_linker_0, # of connection points: 2
#     Edge 109, Type (0, 0), BuildingBlock: ZUJKAS_clean_linker_0, # of connection points: 2
#     Edge 110, Type (0, 0), BuildingBlock: ZUJKAS_clean_linker_0, # of connection points: 2
#     Edge 111, Type (0, 0), BuildingBlock: ZUJKAS_clean_linker_0, # of connection points: 2
#     Edge 112, Type (0, 0), BuildingBlock: ZUJKAS_clean_linker_0, # of connection points: 2
#     Edge 113, Type (0, 0), BuildingBlock: ZUJKAS_clean_linker_0, # of connection points: 2
#     Edge 114, Type (0, 0), BuildingBlock: ZUJKAS_clean_linker_0, # of connection points: 2
#     Edge 115, Type (0, 0), BuildingBlock: ZUJKAS_clean_linker_0, # of connection points: 2
#     Edge 116, Type (0, 0), BuildingBlock: ZUJKAS_clean_linker_0, # of connection points: 2
#     Edge 117, Type (0, 0), BuildingBlock: ZUJKAS_clean_linker_0, # of connection points: 2
#     Edge 118, Type (0, 0), BuildingBlock: ZUJKAS_clean_linker_0, # of connection points: 2
#     Edge 119, Type (0, 0), BuildingBlock: ZUJKAS_clean_linker_0, # of connection points: 2
#     Edge 120, Type (0, 0), BuildingBlock: ZUJKAS_clean_linker_0, # of connection points: 2
#     Edge 121, Type (0, 0), BuildingBlock: ZUJKAS_clean_linker_0, # of connection points: 2
#     Edge 122, Type (0, 0), BuildingBlock: ZUJKAS_clean_linker_0, # of connection points: 2
#     Edge 123, Type (0, 0), BuildingBlock: ZUJKAS_clean_linker_0, # of connection points: 2
#     Edge 124, Type (0, 0), BuildingBlock: ZUJKAS_clean_linker_0, # of connection points: 2
#     Edge 125, Type (0, 0), BuildingBlock: ZUJKAS_clean_linker_0, # of connection points: 2
#     Edge 126, Type (0, 0), BuildingBlock: ZUJKAS_clean_linker_0, # of connection points: 2
#     Edge 127, Type (0, 0), BuildingBlock: ZUJKAS_clean_linker_0, # of connection points: 2
#     Edge 128, Type (0, 0), BuildingBlock: ZUJKAS_clean_linker_0, # of connection points: 2
#     Edge 129, Type (0, 0), BuildingBlock: ZUJKAS_clean_linker_0, # of connection points: 2
#     Edge 130, Type (0, 0), BuildingBlock: ZUJKAS_clean_linker_0, # of connection points: 2
#     Edge 131, Type (0, 0), BuildingBlock: ZUJKAS_clean_linker_0, # of connection points: 2
#     Edge 132, Type (0, 0), BuildingBlock: ZUJKAS_clean_linker_0, # of connection points: 2
#     Edge 133, Type (0, 0), BuildingBlock: ZUJKAS_clean_linker_0, # of connection points: 2
#     Edge 134, Type (0, 0), BuildingBlock: ZUJKAS_clean_linker_0, # of connection points: 2
#     Edge 135, Type (0, 0), BuildingBlock: ZUJKAS_clean_linker_0, # of connection points: 2
#     Edge 136, Type (0, 0), BuildingBlock: ZUJKAS_clean_linker_0, # of connection points: 2
#     Edge 137, Type (0, 0), BuildingBlock: ZUJKAS_clean_linker_0, # of connection points: 2
#     Edge 138, Type (0, 0), BuildingBlock: ZUJKAS_clean_linker_0, # of connection points: 2
#     Edge 139, Type (0, 0), BuildingBlock: ZUJKAS_clean_linker_0, # of connection points: 2
#     Edge 140, Type (0, 0), BuildingBlock: ZUJKAS_clean_linker_0, # of connection points: 2
#     Edge 141, Type (0, 0), BuildingBlock: ZUJKAS_clean_linker_0, # of connection points: 2
#     Edge 142, Type (0, 0), BuildingBlock: ZUJKAS_clean_linker_0, # of connection points: 2
#     Edge 143, Type (0, 0), BuildingBlock: ZUJKAS_clean_linker_0, # of connection points: 2
# Relax obj value: 0.015
# Max RMSD: 0.065
# Mean RMSD: 0.065
data_MOF--net-rho--node1-QUQFOY_clean_sbu_1--edge1-ZUJKAS_clean_linker_0
_symmetry_space_group_name_H-M    P1
_symmetry_Int_Tables_number       1
_symmetry_cell_setting            triclinic
loop_
_symmetry_equiv_pos_as_xyz
'x, y, z'
_cell_length_a     97.55665
_cell_length_b     97.569971
_cell_length_c     97.551769
_cell_angle_alpha  89.996272
_cell_angle_beta   90.000858
_cell_angle_gamma 89.988537
loop_
_atom_site_label
_atom_site_type_symbol
_atom_site_fract_x
_atom_site_fract_y
_atom_site_fract_z
_atom_type_partial_charge
O0 O 0.10675 0.24482 0.42495 0.0
Cd1 Cd 0.10363 0.2389 0.40487 0.0
Cd2 Cd 0.10017 0.26724 0.40228 0.0
O3 O 0.10643 0.26731 0.42258 0.0
O4 O 0.10944 0.21931 0.40495 0.0
O5 O 0.12024 0.23518 0.39298 0.0
C6 C 0.11943 0.22258 0.39697 0.0
C7 C 0.10836 0.28385 0.38696 0.0
C8 C 0.10793 0.25675 0.43007 0.0
C9 C 0.07578 0.24883 0.39642 0.0
O10 O 0.08039 0.26088 0.39824 0.0
O11 O 0.08361 0.2385 0.39781 0.0
O12 O 0.09996 0.28689 0.39669 0.0
O13 O 0.11263 0.27134 0.38621 0.0
O14 O 0.74514 0.08026 0.39844 0.0
Cd15 Cd 0.73883 0.10006 0.40246 0.0
Cd16 Cd 0.76705 0.10352 0.40506 0.0
O17 O 0.76752 0.08347 0.39809 0.0
O18 O 0.71922 0.10003 0.39673 0.0
O19 O 0.73494 0.1126 0.3864 0.0
C20 C 0.72239 0.10844 0.38706 0.0
C21 C 0.78323 0.11936 0.39698 0.0
C22 C 0.7572 0.07564 0.39668 0.0
C23 C 0.74925 0.10784 0.43026 0.0
O24 O 0.76118 0.10667 0.42515 0.0
O25 O 0.7387 0.10631 0.42276 0.0
O26 O 0.7866 0.10944 0.40501 0.0
O27 O 0.7706 0.12007 0.39305 0.0
O28 O 0.89758 0.76087 0.42546 0.0
Cd29 Cd 0.90113 0.76703 0.40552 0.0
Cd30 Cd 0.90434 0.73884 0.40229 0.0
O31 O 0.89767 0.73846 0.42245 0.0
O32 O 0.89487 0.78648 0.40528 0.0
O33 O 0.88488 0.77026 0.39306 0.0
C34 C 0.88526 0.78291 0.39696 0.0
C35 C 0.89634 0.72241 0.38667 0.0
C36 C 0.89615 0.74882 0.43021 0.0
C37 C 0.92902 0.75714 0.3973 0.0
O38 O 0.92424 0.7451 0.3987 0.0
O39 O 0.92129 0.76752 0.39888 0.0
O40 O 0.90457 0.71925 0.3965 0.0
O41 O 0.89214 0.73495 0.38595 0.0
O42 O 0.2609 0.92441 0.39861 0.0
Cd43 Cd 0.26687 0.90441 0.40209 0.0
Cd44 Cd 0.23859 0.9018 0.40549 0.0
O45 O 0.23842 0.92195 0.39882 0.0
O46 O 0.28649 0.9045 0.39638 0.0
O47 O 0.27074 0.89225 0.38572 0.0
C48 C 0.28331 0.89634 0.38651 0.0
C49 C 0.22218 0.88624 0.39739 0.0
C50 C 0.24896 0.92946 0.39725 0.0
C51 C 0.25689 0.8965 0.43008 0.0
O52 O 0.24485 0.89823 0.4254 0.0
O53 O 0.26724 0.89772 0.42224 0.0
O54 O 0.21899 0.89607 0.40562 0.0
O55 O 0.23474 0.88549 0.39327 0.0
O56 O 0.0806 0.74524 0.60792 0.0
Cd57 Cd 0.1005 0.73902 0.60428 0.0
Cd58 Cd 0.10367 0.76729 0.60106 0.0
O59 O 0.08355 0.76766 0.60781 0.0
O60 O 0.10034 0.71943 0.61005 0.0
O61 O 0.11277 0.73514 0.62057 0.0
C62 C 0.10861 0.72259 0.61984 0.0
C63 C 0.11929 0.78368 0.60909 0.0
C64 C 0.07582 0.75727 0.60938 0.0
C65 C 0.10865 0.74902 0.57637 0.0
O66 O 0.10719 0.76106 0.58113 0.0
O67 O 0.10714 0.73865 0.58412 0.0
O68 O 0.10943 0.78688 0.6009 0.0
O69 O 0.12004 0.77112 0.6132 0.0
O70 O 0.24483 0.10809 0.58191 0.0
Cd71 Cd 0.23889 0.10466 0.60193 0.0
Cd72 Cd 0.26703 0.10119 0.60473 0.0
O73 O 0.2673 0.10749 0.58445 0.0
O74 O 0.21941 0.11084 0.60228 0.0
O75 O 0.23568 0.12099 0.61431 0.0
C76 C 0.22299 0.12051 0.61053 0.0
C77 C 0.28309 0.10983 0.62037 0.0
C78 C 0.25681 0.10918 0.57688 0.0
C79 C 0.2487 0.07669 0.61015 0.0
O80 O 0.26077 0.08136 0.60864 0.0
O81 O 0.23838 0.08451 0.60861 0.0
O82 O 0.28654 0.10139 0.61082 0.0
O83 O 0.27047 0.11383 0.6208 0.0
O84 O 0.92573 0.26125 0.60886 0.0
Cd85 Cd 0.90594 0.26747 0.60466 0.0
Cd86 Cd 0.90249 0.23928 0.60207 0.0
O87 O 0.92252 0.23887 0.60911 0.0
O88 O 0.90553 0.28701 0.61062 0.0
O89 O 0.89309 0.2709 0.62054 0.0
C90 C 0.89699 0.28355 0.62009 0.0
C91 C 0.88665 0.22306 0.61008 0.0
C92 C 0.93034 0.24919 0.61061 0.0
C93 C 0.89829 0.25705 0.57682 0.0
O94 O 0.89937 0.24512 0.58196 0.0
O95 O 0.89986 0.2676 0.5843 0.0
O96 O 0.89661 0.21972 0.6021 0.0
O97 O 0.8859 0.23569 0.61402 0.0
O98 O 0.76086 0.89916 0.58105 0.0
Cd99 Cd 0.7669 0.90263 0.60105 0.0
Cd100 Cd 0.73875 0.90575 0.60408 0.0
O101 O 0.73843 0.89925 0.58387 0.0
O102 O 0.7865 0.89687 0.60105 0.0
O103 O 0.77063 0.8862 0.61316 0.0
C104 C 0.78323 0.88697 0.60916 0.0
C105 C 0.72291 0.89688 0.61981 0.0
C106 C 0.74885 0.89775 0.57619 0.0
C107 C 0.75679 0.93045 0.60942 0.0
O108 O 0.74476 0.9257 0.60784 0.0
O109 O 0.76717 0.92272 0.60791 0.0
O110 O 0.71927 0.90523 0.61024 0.0
O111 O 0.73562 0.89315 0.62023 0.0
O112 O 0.39794 0.08113 0.26155 0.0
Cd113 Cd 0.4018 0.10097 0.26779 0.0
Cd114 Cd 0.40442 0.10436 0.23949 0.0
O115 O 0.39742 0.08431 0.23916 0.0
O116 O 0.39579 0.10116 0.28733 0.0
O117 O 0.38572 0.11357 0.27128 0.0
C118 C 0.38619 0.10957 0.2839 0.0
C119 C 0.3966 0.12007 0.22303 0.0
C120 C 0.39612 0.07648 0.24951 0.0
C121 C 0.42957 0.10883 0.2574 0.0
O122 O 0.42447 0.10756 0.24547 0.0
O123 O 0.42206 0.10734 0.26796 0.0
O124 O 0.40459 0.11005 0.21986 0.0
O125 O 0.39253 0.12094 0.2356 0.0
O126 O 0.92512 0.39883 0.25998 0.0
Cd127 Cd 0.90522 0.40232 0.26633 0.0
Cd128 Cd 0.90184 0.40552 0.23807 0.0
O129 O 0.92211 0.39921 0.23757 0.0
O130 O 0.90557 0.39662 0.28595 0.0
O131 O 0.89311 0.38596 0.27035 0.0
C132 C 0.89734 0.38677 0.28288 0.0
C133 C 0.88616 0.39666 0.22217 0.0
C134 C 0.92988 0.39759 0.24792 0.0
C135 C 0.89659 0.43014 0.25631 0.0
O136 O 0.89791 0.42538 0.24425 0.0
O137 O 0.8984 0.42243 0.26667 0.0
O138 O 0.89563 0.40514 0.2186 0.0
O139 O 0.88581 0.39279 0.23484 0.0
O140 O 0.58071 0.89883 0.24425 0.0
Cd141 Cd 0.60064 0.90252 0.23821 0.0
Cd142 Cd 0.60377 0.90525 0.26645 0.0
O143 O 0.58364 0.89844 0.26667 0.0
O144 O 0.60096 0.8964 0.21871 0.0
O145 O 0.61318 0.88636 0.23491 0.0
C146 C 0.60929 0.88678 0.22225 0.0
C147 C 0.61938 0.89729 0.28293 0.0
C148 C 0.57592 0.89714 0.25625 0.0
C149 C 0.60853 0.9303 0.24849 0.0
O150 O 0.60716 0.92527 0.26044 0.0
O151 O 0.60708 0.92275 0.23796 0.0
O152 O 0.60942 0.90536 0.28609 0.0
O153 O 0.62024 0.89322 0.27036 0.0
O154 O 0.10757 0.58158 0.24395 0.0
Cd155 Cd 0.10388 0.60161 0.2382 0.0
Cd156 Cd 0.10038 0.60404 0.2664 0.0
O157 O 0.10713 0.58391 0.26644 0.0
O158 O 0.11 0.60215 0.2187 0.0
O159 O 0.12009 0.61415 0.23503 0.0
C160 C 0.11962 0.61044 0.22232 0.0
C161 C 0.10837 0.61953 0.28294 0.0
C162 C 0.10885 0.57647 0.25588 0.0
C163 C 0.07579 0.60923 0.24811 0.0
O164 O 0.08047 0.60754 0.26016 0.0
O165 O 0.08364 0.60806 0.23777 0.0
O166 O 0.10022 0.60962 0.28606 0.0
O167 O 0.11248 0.62041 0.27038 0.0
O168 O 0.42602 0.89736 0.76106 0.0
Cd169 Cd 0.40634 0.90145 0.76772 0.0
Cd170 Cd 0.40239 0.90404 0.7394 0.0
O171 O 0.42245 0.89709 0.73872 0.0
O172 O 0.40653 0.8955 0.78728 0.0
O173 O 0.39368 0.8855 0.77156 0.0
C174 C 0.39796 0.88598 0.78409 0.0
C175 C 0.38657 0.89629 0.72302 0.0
C176 C 0.43044 0.89563 0.74892 0.0
C177 C 0.39835 0.92923 0.75738 0.0
O178 O 0.39925 0.92407 0.74545 0.0
O179 O 0.40016 0.92178 0.76793 0.0
O180 O 0.39652 0.90435 0.71983 0.0
O181 O 0.38582 0.89213 0.73557 0.0
O182 O 0.10781 0.42466 0.76059 0.0
Cd183 Cd 0.10443 0.40473 0.76685 0.0
Cd184 Cd 0.10117 0.40133 0.73872 0.0
O185 O 0.10747 0.4216 0.73818 0.0
O186 O 0.11072 0.40467 0.78631 0.0
O187 O 0.1208 0.39243 0.77015 0.0
C188 C 0.1204 0.39641 0.78278 0.0
C189 C 0.10985 0.38566 0.72271 0.0
C190 C 0.10904 0.4294 0.74851 0.0
C191 C 0.07658 0.39616 0.75706 0.0
O192 O 0.08132 0.39745 0.74498 0.0
O193 O 0.08431 0.39796 0.7674 0.0
O194 O 0.10138 0.39517 0.71923 0.0
O195 O 0.11382 0.38526 0.73534 0.0
O196 O 0.6073 0.08224 0.74434 0.0
Cd197 Cd 0.60391 0.10232 0.7386 0.0
Cd198 Cd 0.60038 0.10479 0.76677 0.0
O199 O 0.60663 0.08449 0.76683 0.0
O200 O 0.61006 0.1028 0.71911 0.0
O201 O 0.62027 0.11467 0.73545 0.0
C202 C 0.61977 0.11098 0.72274 0.0
C203 C 0.60905 0.12026 0.78298 0.0
C204 C 0.60835 0.07706 0.75625 0.0
C205 C 0.57593 0.11048 0.74845 0.0
O206 O 0.58056 0.10881 0.76051 0.0
O207 O 0.58377 0.10905 0.73812 0.0
O208 O 0.60058 0.1107 0.78634 0.0
O209 O 0.61306 0.12078 0.77036 0.0
O210 O 0.89859 0.58036 0.76152 0.0
Cd211 Cd 0.90204 0.60029 0.76781 0.0
Cd212 Cd 0.90542 0.60361 0.73964 0.0
O213 O 0.89879 0.58346 0.73912 0.0
O214 O 0.896 0.6002 0.78732 0.0
O215 O 0.88568 0.61254 0.7714 0.0
C216 C 0.88626 0.60846 0.78399 0.0
C217 C 0.89741 0.61925 0.72323 0.0
C218 C 0.89724 0.57565 0.74944 0.0
C219 C 0.92999 0.60856 0.75808 0.0
O220 O 0.9253 0.60716 0.746 0.0
O221 O 0.92217 0.60699 0.76839 0.0
O222 O 0.9057 0.60948 0.72007 0.0
O223 O 0.89319 0.61992 0.73577 0.0
O224 O 0.26002 0.3977 0.08002 0.0
Cd225 Cd 0.26644 0.40172 0.09979 0.0
Cd226 Cd 0.23826 0.40435 0.10345 0.0
O227 O 0.23765 0.39756 0.08332 0.0
O228 O 0.28599 0.39574 0.09986 0.0
O229 O 0.27008 0.38576 0.1125 0.0
C230 C 0.28267 0.38623 0.1084 0.0
C231 C 0.2224 0.39593 0.11945 0.0
C232 C 0.24793 0.39607 0.07544 0.0
C233 C 0.2561 0.42953 0.1077 0.0
O234 O 0.24416 0.42441 0.10672 0.0
O235 O 0.26664 0.42204 0.10597 0.0
O236 O 0.2188 0.40411 0.10973 0.0
O237 O 0.23507 0.39208 0.11987 0.0
O238 O 0.24622 0.58159 0.89896 0.0
Cd239 Cd 0.24014 0.60161 0.90215 0.0
Cd240 Cd 0.26838 0.6043 0.90599 0.0
O241 O 0.2687 0.584 0.89974 0.0
O242 O 0.22055 0.60126 0.89635 0.0
O243 O 0.23621 0.61354 0.8856 0.0
C244 C 0.22368 0.60935 0.8864 0.0
C245 C 0.28447 0.61993 0.8974 0.0
C246 C 0.25818 0.57649 0.89799 0.0
C247 C 0.24972 0.60996 0.93019 0.0
O248 O 0.26186 0.60825 0.92574 0.0
O249 O 0.23952 0.60854 0.92221 0.0
O250 O 0.28789 0.61042 0.9059 0.0
O251 O 0.27186 0.62033 0.89333 0.0
O252 O 0.3984 0.26183 0.92448 0.0
Cd253 Cd 0.40183 0.26774 0.90444 0.0
Cd254 Cd 0.40523 0.23941 0.90183 0.0
O255 O 0.39882 0.23935 0.92208 0.0
O256 O 0.39571 0.28725 0.90421 0.0
O257 O 0.38549 0.27108 0.89212 0.0
C258 C 0.38599 0.28374 0.896 0.0
C259 C 0.39715 0.22275 0.88649 0.0
C260 C 0.3972 0.2499 0.92957 0.0
C261 C 0.42975 0.25778 0.89627 0.0
O262 O 0.42504 0.24575 0.89793 0.0
O263 O 0.42198 0.26815 0.8977 0.0
O264 O 0.40549 0.21974 0.89628 0.0
O265 O 0.39288 0.23526 0.88567 0.0
O266 O 0.76183 0.42403 0.89853 0.0
Cd267 Cd 0.7675 0.40398 0.90216 0.0
Cd268 Cd 0.73923 0.40148 0.90458 0.0
O269 O 0.73937 0.42157 0.89769 0.0
O270 O 0.78717 0.40366 0.89665 0.0
O271 O 0.77125 0.39177 0.88581 0.0
C272 C 0.78389 0.39561 0.88671 0.0
C273 C 0.72287 0.38593 0.89633 0.0
C274 C 0.74997 0.42908 0.89661 0.0
C275 C 0.75671 0.39636 0.92983 0.0
O276 O 0.74486 0.39813 0.92471 0.0
O277 O 0.76734 0.3974 0.92235 0.0
O278 O 0.71957 0.39594 0.90427 0.0
O279 O 0.73553 0.38499 0.89254 0.0
O280 O 0.60922 0.74643 0.92539 0.0
Cd281 Cd 0.60514 0.73905 0.90598 0.0
Cd282 Cd 0.6007 0.76748 0.90219 0.0
O283 O 0.60728 0.76874 0.92234 0.0
O284 O 0.61155 0.71975 0.90789 0.0
O285 O 0.62071 0.73422 0.89308 0.0
C286 C 0.62067 0.72223 0.89869 0.0
C287 C 0.60799 0.78393 0.88624 0.0
C288 C 0.60981 0.75857 0.93007 0.0
C289 C 0.57672 0.74786 0.89808 0.0
O290 O 0.58116 0.7601 0.8988 0.0
O291 O 0.58475 0.73778 0.9001 0.0
O292 O 0.59951 0.78689 0.89591 0.0
O293 O 0.61279 0.77159 0.88582 0.0
O294 O 0.74489 0.60604 0.08124 0.0
Cd295 Cd 0.73921 0.60285 0.10137 0.0
Cd296 Cd 0.76734 0.59978 0.10388 0.0
O297 O 0.76737 0.60635 0.08367 0.0
O298 O 0.71963 0.60867 0.10158 0.0
O299 O 0.73569 0.61944 0.11333 0.0
C300 C 0.72304 0.61867 0.1095 0.0
C301 C 0.78328 0.60856 0.11956 0.0
C302 C 0.75679 0.60761 0.07616 0.0
C303 C 0.7494 0.57506 0.10956 0.0
O304 O 0.76139 0.57981 0.10763 0.0
O305 O 0.73899 0.58282 0.10839 0.0
O306 O 0.78686 0.60027 0.10991 0.0
O307 O 0.77059 0.61233 0.12004 0.0
O308 O 0.42567 0.7579 0.10964 0.0
Cd309 Cd 0.40628 0.76527 0.10556 0.0
Cd310 Cd 0.40239 0.73694 0.10165 0.0
O311 O 0.42258 0.73557 0.10807 0.0
O312 O 0.40839 0.78457 0.11191 0.0
O313 O 0.3935 0.77024 0.1212 0.0
C314 C 0.39928 0.78215 0.12114 0.0
C315 C 0.38624 0.7211 0.10975 0.0
C316 C 0.43035 0.74577 0.11039 0.0
C317 C 0.39835 0.75616 0.07731 0.0
O318 O 0.39895 0.744 0.08198 0.0
O319 O 0.40042 0.76637 0.08516 0.0
O320 O 0.39566 0.71765 0.10117 0.0
O321 O 0.38615 0.7336 0.1141 0.0
O322 O 0.58143 0.24522 0.10797 0.0
Cd323 Cd 0.60139 0.23926 0.10422 0.0
Cd324 Cd 0.60434 0.26736 0.10136 0.0
O325 O 0.5841 0.26767 0.10782 0.0
O326 O 0.60183 0.21973 0.11024 0.0
O327 O 0.61398 0.23593 0.12036 0.0
C328 C 0.61018 0.22325 0.11985 0.0
C329 C 0.62017 0.28319 0.11012 0.0
C330 C 0.57649 0.2572 0.10935 0.0
C331 C 0.60925 0.24952 0.07636 0.0
O332 O 0.60795 0.26149 0.08136 0.0
O333 O 0.60773 0.23903 0.08394 0.0
O334 O 0.61054 0.28683 0.10184 0.0
O335 O 0.62056 0.27049 0.11389 0.0
O336 O 0.89805 0.76079 0.58105 0.0
Cd337 Cd 0.90178 0.76702 0.60094 0.0
Cd338 Cd 0.9051 0.73876 0.60406 0.0
O339 O 0.89819 0.73837 0.58399 0.0
O340 O 0.89602 0.78661 0.60078 0.0
O341 O 0.88554 0.77091 0.61326 0.0
C342 C 0.88626 0.78346 0.6091 0.0
C343 C 0.89719 0.72242 0.61979 0.0
C344 C 0.89657 0.74876 0.57628 0.0
C345 C 0.92977 0.75706 0.60889 0.0
O346 O 0.92504 0.74501 0.6074 0.0
O347 O 0.92197 0.76741 0.6075 0.0
O348 O 0.9053 0.71919 0.60989 0.0
O349 O 0.89307 0.73498 0.62054 0.0
O350 O 0.26063 0.926 0.60732 0.0
Cd351 Cd 0.26693 0.90608 0.60393 0.0
Cd352 Cd 0.2387 0.90271 0.60075 0.0
O353 O 0.23823 0.9229 0.6073 0.0
O354 O 0.28648 0.90626 0.60985 0.0
O355 O 0.27065 0.89398 0.62036 0.0
C356 C 0.28322 0.89809 0.61969 0.0
C357 C 0.22234 0.88712 0.60891 0.0
C358 C 0.24856 0.93071 0.60876 0.0
C359 C 0.25701 0.89755 0.57611 0.0
O360 O 0.24496 0.89899 0.58087 0.0
O361 O 0.26738 0.89921 0.58384 0.0
O362 O 0.21913 0.89686 0.60059 0.0
O363 O 0.23489 0.88647 0.61308 0.0
O364 O 0.10742 0.24461 0.58199 0.0
Cd365 Cd 0.10416 0.23876 0.60207 0.0
Cd366 Cd 0.10078 0.26685 0.60475 0.0
O367 O 0.10704 0.26708 0.58446 0.0
O368 O 0.11044 0.2193 0.60242 0.0
O369 O 0.12059 0.23565 0.61433 0.0
C370 C 0.12017 0.22296 0.61056 0.0
C371 C 0.1095 0.28288 0.62037 0.0
C372 C 0.10859 0.25656 0.57692 0.0
C373 C 0.07625 0.24861 0.61035 0.0
O374 O 0.08092 0.26065 0.60867 0.0
O375 O 0.08406 0.23826 0.60892 0.0
O376 O 0.10105 0.28636 0.61083 0.0
O377 O 0.11346 0.27024 0.62079 0.0
O378 O 0.7447 0.08109 0.6091 0.0
Cd379 Cd 0.73862 0.10095 0.60501 0.0
Cd380 Cd 0.76679 0.10415 0.60233 0.0
O381 O 0.7671 0.08414 0.60944 0.0
O382 O 0.71911 0.10141 0.61109 0.0
O383 O 0.73533 0.11376 0.62096 0.0
C384 C 0.72266 0.10989 0.62058 0.0
C385 C 0.7831 0.11995 0.61024 0.0
C386 C 0.75672 0.07639 0.61089 0.0
C387 C 0.74899 0.10845 0.57713 0.0
O388 O 0.76092 0.1072 0.58223 0.0
O389 O 0.73844 0.10708 0.58467 0.0
O390 O 0.7864 0.10992 0.60232 0.0
O391 O 0.77048 0.12079 0.61418 0.0
O392 O 0.92535 0.26111 0.39849 0.0
Cd393 Cd 0.90551 0.26745 0.40224 0.0
Cd394 Cd 0.90199 0.23922 0.40482 0.0
O395 O 0.92204 0.23876 0.39784 0.0
O396 O 0.90566 0.28707 0.39654 0.0
O397 O 0.89322 0.27138 0.38599 0.0
C398 C 0.8974 0.28392 0.38673 0.0
C399 C 0.8862 0.22294 0.39685 0.0
C400 C 0.92993 0.24906 0.39662 0.0
C401 C 0.89754 0.25706 0.42998 0.0
O402 O 0.89883 0.24512 0.4249 0.0
O403 O 0.89901 0.2676 0.42245 0.0
O404 O 0.89617 0.21964 0.40485 0.0
O405 O 0.88542 0.23555 0.39287 0.0
O406 O 0.76119 0.89825 0.42519 0.0
Cd407 Cd 0.76729 0.90175 0.40521 0.0
Cd408 Cd 0.73912 0.90512 0.40209 0.0
O409 O 0.73877 0.89844 0.42225 0.0
O410 O 0.78674 0.89547 0.40488 0.0
O411 O 0.77044 0.88547 0.39277 0.0
C412 C 0.78312 0.88586 0.39658 0.0
C413 C 0.72264 0.89719 0.38648 0.0
C414 C 0.74915 0.89688 0.42999 0.0
C415 C 0.75752 0.92971 0.39709 0.0
O416 O 0.74545 0.92501 0.39856 0.0
O417 O 0.76785 0.9219 0.39857 0.0
O418 O 0.71952 0.90542 0.39632 0.0
O419 O 0.73516 0.89296 0.38574 0.0
O420 O 0.07983 0.7449 0.39894 0.0
Cd421 Cd 0.09977 0.73868 0.40241 0.0
Cd422 Cd 0.103 0.76687 0.40554 0.0
O423 O 0.08289 0.7673 0.39878 0.0
O424 O 0.09965 0.71911 0.39655 0.0
O425 O 0.11197 0.73493 0.38605 0.0
C426 C 0.10787 0.72235 0.38674 0.0
C427 C 0.11871 0.78318 0.39749 0.0
C428 C 0.0751 0.75694 0.39738 0.0
C429 C 0.10796 0.74868 0.43028 0.0
O430 O 0.10644 0.76071 0.4255 0.0
O431 O 0.10652 0.73829 0.42254 0.0
O432 O 0.10885 0.78644 0.40564 0.0
O433 O 0.11942 0.7706 0.39341 0.0
O434 O 0.24527 0.10732 0.42502 0.0
Cd435 Cd 0.23937 0.10384 0.40499 0.0
Cd436 Cd 0.26764 0.10096 0.40227 0.0
O437 O 0.26775 0.10728 0.42255 0.0
O438 O 0.21972 0.10948 0.40498 0.0
O439 O 0.23551 0.12021 0.39282 0.0
C440 C 0.22292 0.11938 0.39685 0.0
C441 C 0.28373 0.10975 0.38673 0.0
C442 C 0.2572 0.1087 0.43008 0.0
C443 C 0.24974 0.07609 0.39688 0.0
O444 O 0.2617 0.08102 0.39843 0.0
O445 O 0.23924 0.08368 0.39833 0.0
O446 O 0.2872 0.10139 0.39635 0.0
O447 O 0.27105 0.11357 0.38617 0.0
O448 O 0.60749 0.92524 0.74368 0.0
Cd449 Cd 0.60416 0.90518 0.73779 0.0
Cd450 Cd 0.60061 0.90252 0.76597 0.0
O451 O 0.6071 0.92274 0.76615 0.0
O452 O 0.61053 0.90481 0.71837 0.0
O453 O 0.62055 0.89283 0.73477 0.0
C454 C 0.6202 0.89661 0.72207 0.0
C455 C 0.60856 0.88707 0.78257 0.0
C456 C 0.6087 0.93028 0.75564 0.0
C457 C 0.57618 0.89704 0.74747 0.0
O458 O 0.5808 0.89875 0.75954 0.0
O459 O 0.58405 0.8984 0.73716 0.0
O460 O 0.60024 0.89687 0.78559 0.0
O461 O 0.61289 0.88631 0.77007 0.0
O462 O 0.08059 0.6071 0.74571 0.0
Cd463 Cd 0.10042 0.60345 0.73926 0.0
Cd464 Cd 0.10388 0.60001 0.76748 0.0
O465 O 0.08376 0.60676 0.7681 0.0
O466 O 0.10011 0.60936 0.71971 0.0
O467 O 0.11267 0.61974 0.73542 0.0
C468 C 0.10842 0.61912 0.72289 0.0
C469 C 0.11971 0.60799 0.7837 0.0
C470 C 0.07594 0.60845 0.75781 0.0
C471 C 0.10866 0.57546 0.74898 0.0
O472 O 0.10737 0.58013 0.76107 0.0
O473 O 0.10701 0.58328 0.73868 0.0
O474 O 0.10993 0.59976 0.78699 0.0
O475 O 0.12028 0.61218 0.77115 0.0
O476 O 0.42535 0.10752 0.76029 0.0
Cd477 Cd 0.40551 0.1038 0.76665 0.0
Cd478 Cd 0.40199 0.10107 0.73843 0.0
O479 O 0.42214 0.10778 0.73791 0.0
O480 O 0.40576 0.10944 0.78629 0.0
O481 O 0.39326 0.12006 0.7707 0.0
C482 C 0.39749 0.11927 0.78322 0.0
C483 C 0.38612 0.1097 0.72256 0.0
C484 C 0.42999 0.10916 0.74822 0.0
C485 C 0.39738 0.07603 0.75634 0.0
O486 O 0.39858 0.08103 0.74436 0.0
O487 O 0.399 0.08359 0.76683 0.0
O488 O 0.39578 0.10145 0.71895 0.0
O489 O 0.38566 0.11346 0.73525 0.0
O490 O 0.89891 0.42472 0.76069 0.0
Cd491 Cd 0.90257 0.4048 0.76687 0.0
Cd492 Cd 0.90593 0.40172 0.73867 0.0
O493 O 0.89934 0.42189 0.73825 0.0
O494 O 0.89675 0.4049 0.78646 0.0
O495 O 0.88629 0.3925 0.77068 0.0
C496 C 0.88698 0.39661 0.78325 0.0
C497 C 0.89734 0.38594 0.72271 0.0
C498 C 0.89763 0.42956 0.74865 0.0
C499 C 0.93055 0.39665 0.75696 0.0
O500 O 0.92583 0.39807 0.74489 0.0
O501 O 0.92275 0.39819 0.76729 0.0
O502 O 0.90572 0.39553 0.71919 0.0
O503 O 0.89341 0.38554 0.73536 0.0
O504 O 0.58129 0.10842 0.24431 0.0
Cd505 Cd 0.60128 0.10484 0.23836 0.0
Cd506 Cd 0.60413 0.10187 0.26662 0.0
O507 O 0.58393 0.10843 0.26677 0.0
O508 O 0.60165 0.11099 0.21886 0.0
O509 O 0.61376 0.12107 0.23511 0.0
C510 C 0.60993 0.12063 0.22244 0.0
C511 C 0.61956 0.10983 0.28325 0.0
C512 C 0.57633 0.10985 0.25627 0.0
C513 C 0.6092 0.077 0.24853 0.0
O514 O 0.60771 0.08193 0.2605 0.0
O515 O 0.6078 0.08463 0.23805 0.0
O516 O 0.60965 0.10167 0.28629 0.0
O517 O 0.62046 0.114 0.27071 0.0
O518 O 0.89807 0.58084 0.24425 0.0
Cd519 Cd 0.90173 0.60074 0.23804 0.0
Cd520 Cd 0.90496 0.60403 0.2663 0.0
O521 O 0.89823 0.58389 0.26666 0.0
O522 O 0.89559 0.60097 0.21854 0.0
O523 O 0.88552 0.61323 0.23469 0.0
C524 C 0.88598 0.60933 0.22204 0.0
C525 C 0.89701 0.61959 0.28282 0.0
C526 C 0.89665 0.57612 0.25631 0.0
C527 C 0.92965 0.6089 0.24797 0.0
O528 O 0.92487 0.60757 0.26002 0.0
O529 O 0.92192 0.6073 0.2376 0.0
O530 O 0.90522 0.60973 0.28592 0.0
O531 O 0.89282 0.62039 0.27028 0.0
O532 O 0.39803 0.92578 0.26097 0.0
Cd533 Cd 0.40184 0.90577 0.26671 0.0
Cd534 Cd 0.40442 0.90285 0.23873 0.0
O535 O 0.39714 0.92279 0.23859 0.0
O536 O 0.39637 0.90543 0.28639 0.0
O537 O 0.38559 0.89345 0.27049 0.0
C538 C 0.38649 0.8973 0.28314 0.0
C539 C 0.39542 0.8865 0.22375 0.0
C540 C 0.39597 0.93053 0.24901 0.0
C541 C 0.42967 0.89811 0.25595 0.0
O542 O 0.42472 0.89988 0.24401 0.0
O543 O 0.42202 0.89916 0.26646 0.0
O544 O 0.40272 0.89658 0.21934 0.0
O545 O 0.39281 0.88585 0.23671 0.0
O546 O 0.10789 0.42475 0.24403 0.0
Cd547 Cd 0.10416 0.40476 0.23817 0.0
Cd548 Cd 0.1006 0.40225 0.26645 0.0
O549 O 0.10742 0.42235 0.26651 0.0
O550 O 0.11025 0.40434 0.21865 0.0
O551 O 0.12034 0.39219 0.23487 0.0
C552 C 0.11986 0.396 0.2222 0.0
C553 C 0.10841 0.38678 0.28311 0.0
C554 C 0.10918 0.42981 0.25597 0.0
C555 C 0.07603 0.39719 0.24803 0.0
O556 O 0.0807 0.39881 0.26009 0.0
O557 O 0.08391 0.39838 0.23771 0.0
O558 O 0.10026 0.39672 0.28613 0.0
O559 O 0.11262 0.38585 0.27059 0.0
O560 O 0.74316 0.60659 0.92483 0.0
Cd561 Cd 0.73819 0.60326 0.90451 0.0
Cd562 Cd 0.7661 0.60131 0.90204 0.0
O563 O 0.76556 0.60818 0.92213 0.0
O564 O 0.71883 0.60943 0.90215 0.0
O565 O 0.73647 0.62002 0.89252 0.0
C566 C 0.72344 0.61937 0.89478 0.0
C567 C 0.78247 0.60986 0.88666 0.0
C568 C 0.75501 0.60885 0.92977 0.0
C569 C 0.74929 0.57582 0.89663 0.0
O570 O 0.76105 0.58106 0.89862 0.0
O571 O 0.73859 0.58319 0.89758 0.0
O572 O 0.78582 0.60206 0.89677 0.0
O573 O 0.76974 0.61337 0.88555 0.0
O574 O 0.7612 0.42423 0.10834 0.0
Cd575 Cd 0.76718 0.40431 0.10442 0.0
Cd576 Cd 0.739 0.40121 0.10191 0.0
O577 O 0.73878 0.42132 0.10871 0.0
O578 O 0.78674 0.40392 0.11033 0.0
O579 O 0.77062 0.39171 0.12051 0.0
C580 C 0.78328 0.39558 0.11997 0.0
C581 C 0.72306 0.38545 0.11059 0.0
C582 C 0.7492 0.42903 0.11008 0.0
C583 C 0.75661 0.39647 0.07668 0.0
O584 O 0.7447 0.3978 0.08181 0.0
O585 O 0.76719 0.39794 0.08416 0.0
O586 O 0.71946 0.3952 0.10244 0.0
O587 O 0.73578 0.38485 0.11423 0.0
O588 O 0.60835 0.74573 0.08131 0.0
Cd589 Cd 0.60478 0.73914 0.1011 0.0
Cd590 Cd 0.60089 0.76735 0.10458 0.0
O591 O 0.60707 0.76811 0.08428 0.0
O592 O 0.61077 0.71961 0.10054 0.0
O593 O 0.62105 0.73515 0.11337 0.0
C594 C 0.62047 0.72269 0.10895 0.0
C595 C 0.60928 0.78354 0.12022 0.0
C596 C 0.60913 0.75783 0.07653 0.0
C597 C 0.57665 0.74844 0.10949 0.0
O598 O 0.5812 0.76061 0.10845 0.0
O599 O 0.58457 0.73826 0.10755 0.0
O600 O 0.60066 0.78682 0.11078 0.0
O601 O 0.61354 0.77101 0.12059 0.0
O602 O 0.24392 0.58141 0.10705 0.0
Cd603 Cd 0.23803 0.60148 0.10381 0.0
Cd604 Cd 0.26618 0.60426 0.1005 0.0
O605 O 0.26639 0.58392 0.10661 0.0
O606 O 0.21858 0.60185 0.1101 0.0
O607 O 0.23495 0.61375 0.12024 0.0
C608 C 0.22225 0.61 0.11982 0.0
C609 C 0.28239 0.61971 0.10922 0.0
C610 C 0.25588 0.57636 0.10817 0.0
C611 C 0.24792 0.61001 0.07599 0.0
O612 O 0.25996 0.60841 0.0807 0.0
O613 O 0.23755 0.60838 0.08373 0.0
O614 O 0.28574 0.6102 0.10069 0.0
O615 O 0.26979 0.62018 0.11327 0.0
O616 O 0.39827 0.26236 0.08125 0.0
Cd617 Cd 0.40195 0.26836 0.10121 0.0
Cd618 Cd 0.40479 0.24004 0.1041 0.0
O619 O 0.39813 0.23991 0.08393 0.0
O620 O 0.39597 0.28791 0.10152 0.0
O621 O 0.38573 0.27178 0.11367 0.0
C622 C 0.38628 0.28444 0.1098 0.0
C623 C 0.39675 0.22352 0.11963 0.0
C624 C 0.39673 0.2504 0.07631 0.0
C625 C 0.42976 0.25802 0.1091 0.0
O626 O 0.42476 0.24608 0.10762 0.0
O627 O 0.42218 0.26854 0.1077 0.0
O628 O 0.4049 0.22039 0.10973 0.0
O629 O 0.39264 0.23608 0.12046 0.0
O630 O 0.26054 0.39747 0.92506 0.0
Cd631 Cd 0.267 0.40169 0.90534 0.0
Cd632 Cd 0.23884 0.40466 0.90165 0.0
O633 O 0.23817 0.39777 0.92174 0.0
O634 O 0.28653 0.39565 0.90519 0.0
O635 O 0.27056 0.38584 0.89248 0.0
C636 C 0.28316 0.38624 0.89656 0.0
C637 C 0.22295 0.39629 0.88565 0.0
C638 C 0.24842 0.39601 0.92961 0.0
C639 C 0.2569 0.42968 0.8976 0.0
O640 O 0.24489 0.42468 0.89845 0.0
O641 O 0.26734 0.42208 0.89937 0.0
O642 O 0.21938 0.40448 0.89538 0.0
O643 O 0.23562 0.39244 0.8852 0.0
O644 O 0.5803 0.24451 0.89801 0.0
Cd645 Cd 0.60015 0.23822 0.90186 0.0
Cd646 Cd 0.60375 0.26642 0.90441 0.0
O647 O 0.58363 0.26688 0.89762 0.0
O648 O 0.60047 0.21871 0.89578 0.0
O649 O 0.61278 0.23487 0.88578 0.0
C650 C 0.60889 0.22221 0.88623 0.0
C651 C 0.61944 0.28276 0.89632 0.0
C652 C 0.57572 0.25659 0.89629 0.0
C653 C 0.60824 0.24859 0.92958 0.0
O654 O 0.60711 0.26052 0.92446 0.0
O655 O 0.60655 0.23804 0.92211 0.0
O656 O 0.60955 0.28601 0.90443 0.0
O657 O 0.62019 0.27016 0.8923 0.0
O658 O 0.42656 0.76035 0.89855 0.0
Cd659 Cd 0.40696 0.7672 0.90267 0.0
Cd660 Cd 0.40278 0.739 0.90576 0.0
O661 O 0.42294 0.73803 0.89915 0.0
O662 O 0.40718 0.78671 0.89654 0.0
O663 O 0.39419 0.77096 0.88677 0.0
C664 C 0.39849 0.78348 0.88713 0.0
C665 C 0.38679 0.72299 0.89757 0.0
C666 C 0.43096 0.74814 0.8973 0.0
C667 C 0.39881 0.75736 0.93064 0.0
O668 O 0.39941 0.74533 0.92567 0.0
O669 O 0.40092 0.76774 0.92304 0.0
O670 O 0.39642 0.71957 0.90594 0.0
O671 O 0.38644 0.73557 0.89343 0.0
H672 H 0.12207 0.36235 0.27958 0.0
H673 H 0.12501 0.344 0.2966 0.0
H674 H 0.10557 0.36925 0.3272 0.0
H675 H 0.10251 0.38749 0.31038 0.0
H676 H 0.13757 0.34351 0.32434 0.0
H677 H 0.08148 0.33405 0.32436 0.0
H678 H 0.08996 0.34362 0.31099 0.0
H679 H 0.08614 0.35164 0.32713 0.0
C680 C 0.1186 0.36405 0.28998 0.0
C681 C 0.11192 0.37633 0.29358 0.0
C682 C 0.12029 0.35357 0.29968 0.0
C683 C 0.1153 0.3552 0.31308 0.0
C684 C 0.1093 0.3677 0.31686 0.0
H685 H 0.10198 0.31102 0.38716 0.0
H686 H 0.10534 0.32768 0.36884 0.0
C687 C 0.10758 0.37813 0.30722 0.0
C688 C 0.11555 0.34369 0.32301 0.0
H689 H 0.09433 0.32355 0.3422 0.0
C690 C 0.12815 0.33901 0.32816 0.0
C691 C 0.10323 0.33778 0.32788 0.0
C692 C 0.08943 0.34191 0.32223 0.0
C693 C 0.1287 0.329 0.33856 0.0
C694 C 0.11634 0.3235 0.34377 0.0
C695 C 0.10379 0.32787 0.33826 0.0
C696 C 0.11597 0.31365 0.35536 0.0
C697 C 0.14242 0.32476 0.34427 0.0
C698 C 0.12105 0.30025 0.35397 0.0
C699 C 0.11915 0.29064 0.36449 0.0
C700 C 0.11206 0.29427 0.37652 0.0
C701 C 0.10745 0.30784 0.37803 0.0
C702 C 0.10936 0.3174 0.36756 0.0
H703 H 0.1508 0.33167 0.34084 0.0
H704 H 0.14214 0.32468 0.35565 0.0
H705 H 0.14484 0.31421 0.34078 0.0
H706 H 0.12601 0.29709 0.34456 0.0
H707 H 0.12277 0.28025 0.36299 0.0
H708 H 0.72624 0.12292 0.36317 0.0
H709 H 0.7095 0.12647 0.3447 0.0
H710 H 0.67859 0.10602 0.36877 0.0
H711 H 0.69515 0.10236 0.38712 0.0
H712 H 0.68271 0.09512 0.34206 0.0
H713 H 0.67518 0.15168 0.34103 0.0
H714 H 0.69257 0.1455 0.34101 0.0
H715 H 0.68201 0.14286 0.35583 0.0
C716 C 0.71581 0.11942 0.36462 0.0
C717 C 0.71205 0.1123 0.3766 0.0
C718 C 0.70625 0.12149 0.35408 0.0
C719 C 0.69278 0.11657 0.3554 0.0
C720 C 0.68892 0.10993 0.36755 0.0
H721 H 0.61879 0.10416 0.31056 0.0
H722 H 0.6371 0.10708 0.32734 0.0
C723 C 0.69842 0.10784 0.37804 0.0
C724 C 0.68298 0.11711 0.34378 0.0
H725 H 0.66316 0.13866 0.32449 0.0
C726 C 0.67848 0.10465 0.33819 0.0
C727 C 0.6776 0.12956 0.33865 0.0
C728 C 0.68198 0.1432 0.34445 0.0
C729 C 0.66856 0.10426 0.32781 0.0
C730 C 0.66277 0.11666 0.32303 0.0
C731 C 0.66758 0.12918 0.32825 0.0
C732 C 0.65122 0.11658 0.31314 0.0
C733 C 0.66428 0.09054 0.32209 0.0
C734 C 0.65289 0.1215 0.29972 0.0
C735 C 0.64236 0.11989 0.29005 0.0
C736 C 0.63003 0.11335 0.2937 0.0
C737 C 0.62819 0.10912 0.30736 0.0
C738 C 0.63866 0.11075 0.31697 0.0
H739 H 0.67205 0.08248 0.32418 0.0
H740 H 0.65451 0.08734 0.32696 0.0
H741 H 0.66259 0.09116 0.31084 0.0
H742 H 0.6625 0.12608 0.29659 0.0
H743 H 0.64409 0.12327 0.27962 0.0
H744 H 0.88227 0.72624 0.36253 0.0
H745 H 0.87912 0.70951 0.34398 0.0
H746 H 0.8993 0.67867 0.36837 0.0
H747 H 0.90256 0.69522 0.3868 0.0
H748 H 0.91065 0.68295 0.34179 0.0
H749 H 0.85416 0.67499 0.33993 0.0
H750 H 0.86023 0.69242 0.34008 0.0
H751 H 0.86271 0.6818 0.35488 0.0
C752 C 0.8858 0.71582 0.36403 0.0
C753 C 0.89272 0.71208 0.37612 0.0
C754 C 0.88395 0.70627 0.35344 0.0
C755 C 0.88892 0.69283 0.35483 0.0
C756 C 0.89537 0.68898 0.36709 0.0
H757 H 0.90267 0.61899 0.31014 0.0
H758 H 0.89947 0.63729 0.32685 0.0
C759 C 0.89722 0.69847 0.37762 0.0
C760 C 0.88863 0.68303 0.3432 0.0
H761 H 0.86752 0.66304 0.32362 0.0
C762 C 0.90121 0.67865 0.33778 0.0
C763 C 0.8763 0.67755 0.33789 0.0
C764 C 0.86255 0.68182 0.3435 0.0
C765 C 0.90183 0.66873 0.32741 0.0
C766 C 0.88955 0.66283 0.32246 0.0
C767 C 0.87691 0.66753 0.32751 0.0
C768 C 0.88986 0.65128 0.31259 0.0
C769 C 0.91567 0.66458 0.32187 0.0
C770 C 0.88498 0.65286 0.29914 0.0
C771 C 0.88675 0.64233 0.2895 0.0
C772 C 0.89341 0.63008 0.29321 0.0
C773 C 0.89762 0.62832 0.30688 0.0
C774 C 0.89583 0.63879 0.31646 0.0
H775 H 0.92361 0.67246 0.32403 0.0
H776 H 0.91893 0.65488 0.32683 0.0
H777 H 0.91522 0.66283 0.31063 0.0
H778 H 0.88029 0.66241 0.29597 0.0
H779 H 0.88337 0.64399 0.27906 0.0
H780 H 0.36208 0.88376 0.27914 0.0
H781 H 0.34361 0.88051 0.29597 0.0
H782 H 0.36876 0.89908 0.32719 0.0
H783 H 0.38712 0.90243 0.31057 0.0
H784 H 0.34294 0.86742 0.32373 0.0
H785 H 0.33362 0.92354 0.32416 0.0
H786 H 0.34317 0.91512 0.31072 0.0
H787 H 0.35118 0.91875 0.32692 0.0
C788 C 0.36374 0.88695 0.28964 0.0
C789 C 0.37602 0.89349 0.29348 0.0
C790 C 0.35319 0.88508 0.29923 0.0
C791 C 0.35476 0.88975 0.31276 0.0
C792 C 0.36727 0.89558 0.31675 0.0
H793 H 0.31054 0.9024 0.38677 0.0
H794 H 0.32715 0.89911 0.36839 0.0
C795 C 0.37777 0.89747 0.30722 0.0
C796 C 0.34316 0.88944 0.32256 0.0
H797 H 0.32294 0.91056 0.34178 0.0
C798 C 0.33842 0.87681 0.32759 0.0
C799 C 0.33724 0.90173 0.32748 0.0
C800 C 0.34145 0.91556 0.32197 0.0
C801 C 0.32835 0.87621 0.33792 0.0
C802 C 0.32284 0.88854 0.34318 0.0
C803 C 0.32726 0.90112 0.33779 0.0
C804 C 0.313 0.88885 0.35478 0.0
C805 C 0.32404 0.86247 0.34351 0.0
C806 C 0.29954 0.88395 0.35331 0.0
C807 C 0.28994 0.88582 0.36386 0.0
C808 C 0.29367 0.89269 0.37599 0.0
C809 C 0.3073 0.89711 0.37756 0.0
C810 C 0.31683 0.89524 0.36706 0.0
H811 H 0.33085 0.85406 0.33993 0.0
H812 H 0.32406 0.86263 0.35489 0.0
H813 H 0.31343 0.86018 0.3401 0.0
H814 H 0.29632 0.87916 0.34383 0.0
H815 H 0.27952 0.88235 0.36231 0.0
H816 H 0.12224 0.64338 0.72688 0.0
H817 H 0.12533 0.66199 0.71017 0.0
H818 H 0.10583 0.63737 0.6791 0.0
H819 H 0.10263 0.61887 0.6956 0.0
H820 H 0.1379 0.66279 0.68227 0.0
H821 H 0.08188 0.67271 0.68276 0.0
H822 H 0.09039 0.66292 0.69596 0.0
H823 H 0.08639 0.65512 0.67975 0.0
C824 C 0.11879 0.64187 0.71643 0.0
C825 C 0.11205 0.6297 0.71261 0.0
C826 C 0.12057 0.6525 0.70691 0.0
C827 C 0.1156 0.65111 0.69348 0.0
C828 C 0.10955 0.63871 0.68948 0.0
H829 H 0.10242 0.69539 0.61971 0.0
H830 H 0.10584 0.67881 0.63809 0.0
C831 C 0.10775 0.62814 0.69894 0.0
C832 C 0.11588 0.66279 0.68375 0.0
H833 H 0.09468 0.68325 0.66489 0.0
C834 C 0.12849 0.66742 0.67857 0.0
C835 C 0.10358 0.66885 0.67904 0.0
C836 C 0.08979 0.66476 0.68474 0.0
C837 C 0.12904 0.67752 0.66826 0.0
C838 C 0.11668 0.68314 0.66317 0.0
C839 C 0.10414 0.67884 0.66874 0.0
C840 C 0.1163 0.69296 0.65156 0.0
C841 C 0.14274 0.68171 0.66247 0.0
C842 C 0.12127 0.70639 0.65295 0.0
C843 C 0.11932 0.71597 0.6424 0.0
C844 C 0.11231 0.71225 0.63035 0.0
C845 C 0.10782 0.69864 0.62885 0.0
C846 C 0.10977 0.68912 0.63935 0.0
H847 H 0.15115 0.67489 0.666 0.0
H848 H 0.14244 0.68162 0.65109 0.0
H849 H 0.14512 0.69233 0.66579 0.0
H850 H 0.12617 0.70961 0.66237 0.0
H851 H 0.12285 0.72639 0.64389 0.0
H852 H 0.31039 0.10395 0.62096 0.0
H853 H 0.32671 0.10863 0.63931 0.0
H854 H 0.29529 0.1298 0.66207 0.0
H855 H 0.27874 0.125 0.64373 0.0
H856 H 0.3357 0.13342 0.65142 0.0
H857 H 0.30855 0.09983 0.68877 0.0
H858 H 0.30484 0.09946 0.67065 0.0
H859 H 0.29863 0.11331 0.68104 0.0
C860 C 0.30693 0.1097 0.62981 0.0
C861 C 0.29322 0.11401 0.63092 0.0
C862 C 0.3163 0.11239 0.64029 0.0
C863 C 0.31218 0.11939 0.65215 0.0
C864 C 0.29863 0.12418 0.6531 0.0
H865 H 0.36225 0.12391 0.7273 0.0
H866 H 0.34396 0.12894 0.71073 0.0
C867 C 0.28922 0.12151 0.64257 0.0
C868 C 0.32206 0.12108 0.66361 0.0
H869 H 0.32936 0.10953 0.69586 0.0
C870 C 0.33424 0.12834 0.66121 0.0
C871 C 0.32012 0.11449 0.6764 0.0
C872 C 0.30739 0.10624 0.67942 0.0
C873 C 0.34471 0.12886 0.67108 0.0
C874 C 0.34306 0.12172 0.6836 0.0
C875 C 0.33061 0.115 0.68626 0.0
C876 C 0.35454 0.11992 0.69344 0.0
C877 C 0.35754 0.13691 0.66794 0.0
C878 C 0.36654 0.1132 0.68924 0.0
C879 C 0.37694 0.11031 0.69864 0.0
C880 C 0.37556 0.11401 0.7125 0.0
C881 C 0.36366 0.121 0.71668 0.0
C882 C 0.35319 0.12385 0.70724 0.0
H883 H 0.35547 0.14522 0.66043 0.0
H884 H 0.36196 0.14149 0.67737 0.0
H885 H 0.36528 0.12994 0.66336 0.0
H886 H 0.36769 0.10978 0.67874 0.0
H887 H 0.38594 0.10487 0.69506 0.0
H888 H 0.88238 0.27905 0.64375 0.0
H889 H 0.87733 0.29572 0.66193 0.0
H890 H 0.897 0.32746 0.63828 0.0
H891 H 0.90195 0.31102 0.62015 0.0
H892 H 0.89688 0.31034 0.6766 0.0
H893 H 0.86171 0.3462 0.65033 0.0
H894 H 0.86524 0.32921 0.64387 0.0
H895 H 0.87698 0.34306 0.64059 0.0
C896 C 0.8854 0.28964 0.64233 0.0
C897 C 0.89256 0.29371 0.63049 0.0
C898 C 0.88252 0.29914 0.65273 0.0
C899 C 0.88661 0.31288 0.65138 0.0
C900 C 0.89346 0.31699 0.63943 0.0
H901 H 0.90324 0.38522 0.69543 0.0
H902 H 0.89838 0.36689 0.67914 0.0
C903 C 0.89638 0.30754 0.62909 0.0
C904 C 0.88487 0.32275 0.66286 0.0
H905 H 0.87354 0.35506 0.67015 0.0
C906 C 0.89153 0.32001 0.67532 0.0
C907 C 0.87789 0.33534 0.66117 0.0
C908 C 0.86993 0.33858 0.64831 0.0
C909 C 0.89213 0.32987 0.6858 0.0
C910 C 0.88571 0.34273 0.68384 0.0
C911 C 0.8785 0.34521 0.67163 0.0
C912 C 0.88752 0.35418 0.69371 0.0
C913 C 0.90032 0.32676 0.69856 0.0
C914 C 0.88273 0.35329 0.70726 0.0
C915 C 0.88552 0.3638 0.71666 0.0
C916 C 0.89312 0.37538 0.71263 0.0
C917 C 0.89742 0.37643 0.69891 0.0
C918 C 0.89463 0.36597 0.68956 0.0
H919 H 0.90664 0.31735 0.69741 0.0
H920 H 0.90719 0.33545 0.70113 0.0
H921 H 0.89322 0.3252 0.7073 0.0
H922 H 0.87703 0.34438 0.71062 0.0
H923 H 0.88202 0.3627 0.72714 0.0
H924 H 0.72775 0.88273 0.64369 0.0
H925 H 0.7112 0.87758 0.66196 0.0
H926 H 0.67905 0.89631 0.6381 0.0
H927 H 0.69536 0.90137 0.61988 0.0
H928 H 0.69608 0.89702 0.6764 0.0
H929 H 0.66115 0.86068 0.65052 0.0
H930 H 0.67809 0.86451 0.64407 0.0
H931 H 0.66398 0.87588 0.64057 0.0
C932 C 0.7171 0.88552 0.64225 0.0
C933 C 0.71287 0.89245 0.63032 0.0
C934 C 0.70767 0.8826 0.6527 0.0
C935 C 0.69384 0.88638 0.65131 0.0
C936 C 0.68958 0.89301 0.63928 0.0
H937 H 0.62101 0.90209 0.69471 0.0
H938 H 0.63955 0.89734 0.67863 0.0
C939 C 0.69897 0.89598 0.6289 0.0
C940 C 0.68401 0.88455 0.66279 0.0
H941 H 0.65194 0.87258 0.67013 0.0
C942 C 0.68655 0.89143 0.67517 0.0
C943 C 0.67159 0.87724 0.66116 0.0
C944 C 0.66859 0.86904 0.6484 0.0
C945 C 0.67663 0.89196 0.68561 0.0
C946 C 0.66392 0.88522 0.68369 0.0
C947 C 0.66166 0.87777 0.67158 0.0
C948 C 0.65237 0.88696 0.69345 0.0
C949 C 0.6795 0.90039 0.69826 0.0
C950 C 0.65326 0.8824 0.70708 0.0
C951 C 0.64262 0.88512 0.71636 0.0
C952 C 0.63092 0.89242 0.71213 0.0
C953 C 0.62988 0.89649 0.69834 0.0
C954 C 0.64047 0.89376 0.68911 0.0
H955 H 0.68879 0.90686 0.69708 0.0
H956 H 0.67065 0.90713 0.70067 0.0
H957 H 0.68112 0.89345 0.70712 0.0
H958 H 0.66225 0.87692 0.71059 0.0
H959 H 0.64371 0.8818 0.7269 0.0
H960 H 0.38558 0.10353 0.31117 0.0
H961 H 0.36727 0.10821 0.32752 0.0
H962 H 0.34459 0.12968 0.29624 0.0
H963 H 0.3629 0.12487 0.27965 0.0
H964 H 0.35533 0.13296 0.33669 0.0
H965 H 0.3177 0.09988 0.30933 0.0
H966 H 0.33581 0.09941 0.30557 0.0
H967 H 0.32548 0.11338 0.29949 0.0
C968 C 0.37676 0.10934 0.30775 0.0
C969 C 0.37566 0.11373 0.29405 0.0
C970 C 0.3663 0.11203 0.31714 0.0
C971 C 0.35447 0.11911 0.31306 0.0
C972 C 0.35353 0.12399 0.29954 0.0
H973 H 0.27928 0.12419 0.36295 0.0
H974 H 0.29598 0.12912 0.34477 0.0
C975 C 0.36404 0.12131 0.2901 0.0
C976 C 0.34303 0.12083 0.32296 0.0
H977 H 0.31065 0.1096 0.33016 0.0
C978 C 0.3455 0.12799 0.3352 0.0
C979 C 0.33018 0.11439 0.32098 0.0
C980 C 0.32708 0.10624 0.30819 0.0
C981 C 0.33562 0.12856 0.34566 0.0
C982 C 0.32302 0.12158 0.34394 0.0
C983 C 0.3203 0.11495 0.33146 0.0
C984 C 0.31312 0.11986 0.35538 0.0
C985 C 0.33883 0.13649 0.35853 0.0
C986 C 0.3172 0.11305 0.36738 0.0
C987 C 0.30772 0.11022 0.37772 0.0
C988 C 0.2939 0.11406 0.37629 0.0
C989 C 0.28986 0.12116 0.3644 0.0
C990 C 0.29938 0.12396 0.35399 0.0
H991 H 0.34645 0.14472 0.35653 0.0
H992 H 0.32945 0.14118 0.36297 0.0
H993 H 0.34331 0.12943 0.36625 0.0
H994 H 0.32765 0.1095 0.36856 0.0
H995 H 0.31119 0.10469 0.3867 0.0
H996 H 0.8837 0.28003 0.36239 0.0
H997 H 0.88069 0.29679 0.34382 0.0
H998 H 0.89998 0.3278 0.36867 0.0
H999 H 0.9031 0.31124 0.38714 0.0
H1000 H 0.86809 0.3246 0.34294 0.0
H1001 H 0.9242 0.32433 0.33353 0.0
H1002 H 0.91565 0.3111 0.34325 0.0
H1003 H 0.91951 0.32732 0.35108 0.0
C1004 C 0.88711 0.29047 0.36396 0.0
C1005 C 0.89378 0.29426 0.37619 0.0
C1006 C 0.88538 0.30002 0.35335 0.0
C1007 C 0.89032 0.31346 0.35481 0.0
C1008 C 0.89629 0.31742 0.36727 0.0
H1009 H 0.90373 0.38704 0.31004 0.0
H1010 H 0.90036 0.36879 0.32677 0.0
C1011 C 0.89803 0.30793 0.37783 0.0
C1012 C 0.89011 0.3232 0.34314 0.0
H1013 H 0.91141 0.34207 0.32279 0.0
C1014 C 0.87753 0.32833 0.33839 0.0
C1015 C 0.90244 0.32795 0.33718 0.0
C1016 C 0.91622 0.32232 0.34141 0.0
C1017 C 0.87702 0.3386 0.32825 0.0
C1018 C 0.8894 0.34371 0.3227 0.0
C1019 C 0.90193 0.33821 0.32714 0.0
C1020 C 0.88981 0.35523 0.31277 0.0
C1021 C 0.86332 0.34431 0.32392 0.0
C1022 C 0.88479 0.35375 0.29936 0.0
C1023 C 0.8867 0.36424 0.2897 0.0
C1024 C 0.89374 0.3763 0.2933 0.0
C1025 C 0.89831 0.37788 0.30688 0.0
C1026 C 0.89639 0.36745 0.31649 0.0
H1027 H 0.85491 0.34092 0.33081 0.0
H1028 H 0.86361 0.35569 0.3238 0.0
H1029 H 0.86095 0.34079 0.31337 0.0
H1030 H 0.87986 0.34432 0.29622 0.0
H1031 H 0.88311 0.36268 0.27931 0.0
H1032 H 0.69547 0.90358 0.3866 0.0
H1033 H 0.67886 0.90027 0.36822 0.0
H1034 H 0.70957 0.87983 0.34389 0.0
H1035 H 0.72636 0.88302 0.36238 0.0
H1036 H 0.68295 0.91138 0.3416 0.0
H1037 H 0.67508 0.85489 0.34012 0.0
H1038 H 0.68202 0.86354 0.35496 0.0
H1039 H 0.69251 0.86095 0.34008 0.0
C1040 C 0.69868 0.89818 0.37745 0.0
C1041 C 0.71227 0.8936 0.37595 0.0
C1042 C 0.68915 0.8963 0.36694 0.0
C1043 C 0.69295 0.88975 0.35472 0.0
C1044 C 0.70637 0.88473 0.35333 0.0
H1045 H 0.64386 0.8838 0.27911 0.0
H1046 H 0.66236 0.88085 0.29597 0.0
C1047 C 0.71596 0.8866 0.36388 0.0
C1048 C 0.6831 0.88938 0.34312 0.0
H1049 H 0.66308 0.86811 0.32374 0.0
C1050 C 0.67866 0.90191 0.33766 0.0
C1051 C 0.67762 0.877 0.33791 0.0
C1052 C 0.68194 0.86329 0.34358 0.0
C1053 C 0.66869 0.90245 0.32732 0.0
C1054 C 0.66282 0.89013 0.32245 0.0
C1055 C 0.66757 0.87754 0.32755 0.0
C1056 C 0.65122 0.89036 0.31261 0.0
C1057 C 0.66447 0.91625 0.32173 0.0
C1058 C 0.63871 0.89624 0.31653 0.0
C1059 C 0.62819 0.89796 0.30698 0.0
C1060 C 0.62993 0.89374 0.2933 0.0
C1061 C 0.64222 0.88718 0.28956 0.0
C1062 C 0.65279 0.88548 0.29916 0.0
H1063 H 0.67231 0.92424 0.32385 0.0
H1064 H 0.66272 0.91574 0.31049 0.0
H1065 H 0.65475 0.91947 0.32668 0.0
H1066 H 0.63722 0.89989 0.32691 0.0
H1067 H 0.61883 0.90295 0.31026 0.0
H1068 H 0.10284 0.61883 0.31029 0.0
H1069 H 0.10589 0.63717 0.327 0.0
H1070 H 0.12472 0.66249 0.29607 0.0
H1071 H 0.12178 0.64405 0.27916 0.0
H1072 H 0.1375 0.66324 0.32382 0.0
H1073 H 0.0813 0.6721 0.32401 0.0
H1074 H 0.08618 0.65457 0.32681 0.0
H1075 H 0.08985 0.66258 0.31063 0.0
C1076 C 0.10779 0.62822 0.30703 0.0
C1077 C 0.11194 0.63003 0.29334 0.0
C1078 C 0.1095 0.6387 0.31661 0.0
C1079 C 0.11532 0.65125 0.31271 0.0
C1080 C 0.12014 0.65289 0.29925 0.0
H1081 H 0.12196 0.72633 0.36263 0.0
H1082 H 0.12534 0.70963 0.34409 0.0
C1083 C 0.11846 0.64235 0.28962 0.0
C1084 C 0.11548 0.66283 0.32257 0.0
H1085 H 0.0941 0.68277 0.34178 0.0
C1086 C 0.12804 0.66766 0.32766 0.0
C1087 C 0.10311 0.66861 0.32745 0.0
C1088 C 0.08934 0.66431 0.32187 0.0
C1089 C 0.12851 0.67769 0.33803 0.0
C1090 C 0.11611 0.68306 0.34328 0.0
C1091 C 0.10359 0.67855 0.33782 0.0
C1092 C 0.11567 0.69285 0.35491 0.0
C1093 C 0.1422 0.6821 0.34369 0.0
C1094 C 0.10921 0.68894 0.36714 0.0
C1095 C 0.10722 0.69842 0.37766 0.0
C1096 C 0.11159 0.71207 0.37618 0.0
C1097 C 0.11852 0.71588 0.36411 0.0
C1098 C 0.12051 0.70634 0.35353 0.0
H1099 H 0.15067 0.67536 0.34015 0.0
H1100 H 0.14442 0.69272 0.34028 0.0
H1101 H 0.14199 0.68208 0.35507 0.0
H1102 H 0.10538 0.67859 0.3684 0.0
H1103 H 0.10189 0.69511 0.38682 0.0
H1104 H 0.36227 0.88249 0.72687 0.0
H1105 H 0.34367 0.87957 0.71015 0.0
H1106 H 0.36819 0.89958 0.67932 0.0
H1107 H 0.38669 0.90261 0.69584 0.0
H1108 H 0.34158 0.91115 0.6838 0.0
H1109 H 0.33957 0.85472 0.6754 0.0
H1110 H 0.33988 0.86072 0.69285 0.0
H1111 H 0.35461 0.86318 0.68213 0.0
C1112 C 0.36378 0.88604 0.71646 0.0
C1113 C 0.37594 0.89284 0.71271 0.0
C1114 C 0.35316 0.88432 0.70691 0.0
C1115 C 0.35458 0.88931 0.69348 0.0
C1116 C 0.36689 0.89564 0.68962 0.0
H1117 H 0.31054 0.90373 0.61947 0.0
H1118 H 0.32703 0.90038 0.63796 0.0
C1119 C 0.37746 0.89736 0.69911 0.0
C1120 C 0.34295 0.88913 0.68368 0.0
H1121 H 0.32347 0.86824 0.66336 0.0
C1122 C 0.33758 0.90176 0.6794 0.0
C1123 C 0.33766 0.87686 0.67806 0.0
C1124 C 0.34323 0.86306 0.68223 0.0
C1125 C 0.32726 0.90249 0.66942 0.0
C1126 C 0.32234 0.89027 0.66337 0.0
C1127 C 0.32733 0.87759 0.66798 0.0
C1128 C 0.31259 0.89071 0.65171 0.0
C1129 C 0.32177 0.91637 0.66536 0.0
C1130 C 0.29911 0.88586 0.65311 0.0
C1131 C 0.2896 0.88772 0.64248 0.0
C1132 C 0.29347 0.89443 0.6303 0.0
C1133 C 0.30717 0.89863 0.62874 0.0
C1134 C 0.31662 0.89675 0.63931 0.0
H1135 H 0.32388 0.92423 0.67333 0.0
H1136 H 0.32681 0.91972 0.65572 0.0
H1137 H 0.31055 0.91595 0.66352 0.0
H1138 H 0.29583 0.88111 0.66259 0.0
H1139 H 0.27913 0.88435 0.64399 0.0
H1140 H 0.12436 0.36193 0.72726 0.0
H1141 H 0.12934 0.3437 0.71062 0.0
H1142 H 0.10964 0.3673 0.67886 0.0
H1143 H 0.10476 0.38549 0.69526 0.0
H1144 H 0.10978 0.32901 0.69595 0.0
H1145 H 0.145 0.3553 0.66017 0.0
H1146 H 0.14145 0.36174 0.67717 0.0
H1147 H 0.12972 0.36504 0.66331 0.0
C1148 C 0.12132 0.36333 0.71667 0.0
C1149 C 0.11417 0.37517 0.71259 0.0
C1150 C 0.12415 0.3529 0.70719 0.0
C1151 C 0.12005 0.35422 0.69345 0.0
C1152 C 0.11319 0.36617 0.68932 0.0
H1153 H 0.10361 0.31017 0.62104 0.0
H1154 H 0.10842 0.32646 0.63937 0.0
C1155 C 0.11031 0.37654 0.69876 0.0
C1156 C 0.1218 0.34276 0.68358 0.0
H1157 H 0.13322 0.33548 0.65129 0.0
C1158 C 0.11515 0.33029 0.6863 0.0
C1159 C 0.12882 0.34445 0.671 0.0
C1160 C 0.13677 0.35731 0.66779 0.0
C1161 C 0.11458 0.31981 0.67642 0.0
C1162 C 0.12104 0.32178 0.66358 0.0
C1163 C 0.12824 0.33399 0.66112 0.0
C1164 C 0.11927 0.31191 0.65212 0.0
C1165 C 0.10639 0.30705 0.67952 0.0
C1166 C 0.12408 0.29837 0.65302 0.0
C1167 C 0.12133 0.28897 0.6425 0.0
C1168 C 0.11375 0.29298 0.63091 0.0
C1169 C 0.10943 0.30669 0.62984 0.0
C1170 C 0.11219 0.31605 0.64031 0.0
H1171 H 0.10005 0.30819 0.68891 0.0
H1172 H 0.09955 0.30447 0.67079 0.0
H1173 H 0.11351 0.29832 0.68109 0.0
H1174 H 0.12976 0.29502 0.66195 0.0
H1175 H 0.12484 0.27849 0.64362 0.0
H1176 H 0.72723 0.12512 0.64386 0.0
H1177 H 0.71076 0.13019 0.6622 0.0
H1178 H 0.67905 0.10934 0.63955 0.0
H1179 H 0.69529 0.10439 0.6212 0.0
H1180 H 0.6704 0.13431 0.65163 0.0
H1181 H 0.69718 0.10041 0.68897 0.0
H1182 H 0.70725 0.11374 0.68119 0.0
H1183 H 0.70084 0.09994 0.67084 0.0
C1184 C 0.71671 0.12176 0.64272 0.0
C1185 C 0.7126 0.11426 0.63111 0.0
C1186 C 0.70734 0.12459 0.65325 0.0
C1187 C 0.69373 0.11996 0.65233 0.0
C1188 C 0.68951 0.11297 0.6405 0.0
H1189 H 0.61987 0.10629 0.69522 0.0
H1190 H 0.63816 0.11107 0.6789 0.0
C1191 C 0.69883 0.11013 0.63002 0.0
C1192 C 0.6839 0.12179 0.66381 0.0
H1193 H 0.67648 0.11033 0.69606 0.0
C1194 C 0.6718 0.12921 0.66141 0.0
C1195 C 0.68576 0.11518 0.67659 0.0
C1196 C 0.6984 0.10678 0.67961 0.0
C1197 C 0.66135 0.12986 0.6713 0.0
C1198 C 0.66292 0.1227 0.68381 0.0
C1199 C 0.67529 0.11582 0.68647 0.0
C1200 C 0.65141 0.12101 0.69364 0.0
C1201 C 0.64862 0.13806 0.66816 0.0
C1202 C 0.65281 0.12488 0.70745 0.0
C1203 C 0.64232 0.1221 0.71688 0.0
C1204 C 0.63035 0.11525 0.71269 0.0
C1205 C 0.62892 0.11162 0.69881 0.0
C1206 C 0.63934 0.11444 0.68942 0.0
H1207 H 0.65079 0.14637 0.66067 0.0
H1208 H 0.6408 0.13121 0.66356 0.0
H1209 H 0.64424 0.14268 0.67759 0.0
H1210 H 0.66209 0.12985 0.71096 0.0
H1211 H 0.64377 0.12496 0.72751 0.0
H1212 H 0.88371 0.72643 0.64425 0.0
H1213 H 0.88072 0.7097 0.66285 0.0
H1214 H 0.8997 0.67856 0.63791 0.0
H1215 H 0.90279 0.69509 0.61941 0.0
H1216 H 0.86797 0.68183 0.66369 0.0
H1217 H 0.92409 0.68202 0.67302 0.0
H1218 H 0.91553 0.69531 0.66338 0.0
H1219 H 0.91935 0.67912 0.65546 0.0
C1220 C 0.88706 0.71597 0.64266 0.0
C1221 C 0.89362 0.71213 0.6304 0.0
C1222 C 0.88534 0.70644 0.6533 0.0
C1223 C 0.89019 0.69297 0.65181 0.0
C1224 C 0.89607 0.68896 0.63932 0.0
H1225 H 0.90364 0.61917 0.69604 0.0
H1226 H 0.9002 0.63756 0.67947 0.0
C1227 C 0.8978 0.69843 0.62875 0.0
C1228 C 0.88998 0.68322 0.66347 0.0
H1229 H 0.9113 0.66425 0.6837 0.0
C1230 C 0.8774 0.67808 0.66821 0.0
C1231 C 0.90232 0.67845 0.66939 0.0
C1232 C 0.9161 0.68408 0.66517 0.0
C1233 C 0.87691 0.66776 0.6783 0.0
C1234 C 0.8893 0.66262 0.68381 0.0
C1235 C 0.90182 0.66814 0.67939 0.0
C1236 C 0.88973 0.65101 0.69363 0.0
C1237 C 0.86322 0.66203 0.68261 0.0
C1238 C 0.88476 0.65238 0.70708 0.0
C1239 C 0.88671 0.64182 0.71665 0.0
C1240 C 0.89373 0.62978 0.71291 0.0
C1241 C 0.89823 0.62831 0.69929 0.0
C1242 C 0.89628 0.63881 0.68979 0.0
H1243 H 0.85478 0.66551 0.6758 0.0
H1244 H 0.8635 0.65065 0.68262 0.0
H1245 H 0.86089 0.66545 0.69321 0.0
H1246 H 0.87985 0.6618 0.71031 0.0
H1247 H 0.88318 0.6433 0.72706 0.0
H1248 H 0.30991 0.3857 0.10224 0.0
H1249 H 0.3264 0.36754 0.10708 0.0
H1250 H 0.29533 0.34491 0.12888 0.0
H1251 H 0.27861 0.36305 0.12393 0.0
H1252 H 0.33566 0.35597 0.13202 0.0
H1253 H 0.30863 0.31777 0.09934 0.0
H1254 H 0.30476 0.33584 0.09864 0.0
H1255 H 0.29871 0.32565 0.11273 0.0
C1256 C 0.30656 0.37692 0.10815 0.0
C1257 C 0.29289 0.37578 0.11261 0.0
C1258 C 0.31603 0.36655 0.11093 0.0
C1259 C 0.31206 0.35478 0.11816 0.0
C1260 C 0.29856 0.35381 0.12308 0.0
H1261 H 0.36243 0.27999 0.12414 0.0
H1262 H 0.34413 0.29662 0.12881 0.0
C1263 C 0.28904 0.36422 0.12032 0.0
C1264 C 0.32205 0.34344 0.12001 0.0
H1265 H 0.3295 0.31098 0.10915 0.0
C1266 C 0.33425 0.34607 0.12716 0.0
C1267 C 0.32017 0.3305 0.1137 0.0
C1268 C 0.30742 0.32722 0.10558 0.0
C1269 C 0.34478 0.33627 0.12787 0.0
C1270 C 0.34317 0.32359 0.12102 0.0
C1271 C 0.33072 0.32071 0.1144 0.0
C1272 C 0.35469 0.31374 0.11946 0.0
C1273 C 0.35761 0.33967 0.1358 0.0
C1274 C 0.3667 0.31782 0.11268 0.0
C1275 C 0.37712 0.30838 0.11 0.0
C1276 C 0.37575 0.29459 0.11396 0.0
C1277 C 0.36384 0.29054 0.12102 0.0
C1278 C 0.35336 0.30003 0.12367 0.0
H1279 H 0.35552 0.34735 0.14395 0.0
H1280 H 0.36211 0.33037 0.14059 0.0
H1281 H 0.36531 0.34414 0.12872 0.0
H1282 H 0.36784 0.32825 0.10904 0.0
H1283 H 0.38611 0.31185 0.10449 0.0
H1284 H 0.36347 0.72725 0.8823 0.0
H1285 H 0.34512 0.71067 0.87756 0.0
H1286 H 0.36766 0.67948 0.89931 0.0
H1287 H 0.386 0.69582 0.90392 0.0
H1288 H 0.35596 0.67022 0.87452 0.0
H1289 H 0.31798 0.69765 0.90716 0.0
H1290 H 0.32587 0.70743 0.89369 0.0
H1291 H 0.33607 0.70144 0.90778 0.0
C1292 C 0.36456 0.71682 0.88595 0.0
C1293 C 0.37616 0.71289 0.89357 0.0
C1294 C 0.35404 0.70739 0.88331 0.0
C1295 C 0.35494 0.6939 0.88826 0.0
C1296 C 0.36673 0.68985 0.89542 0.0
H1297 H 0.31186 0.62021 0.90283 0.0
H1298 H 0.32825 0.63844 0.89807 0.0
C1299 C 0.3772 0.69923 0.89807 0.0
C1300 C 0.34352 0.68397 0.8865 0.0
H1301 H 0.31109 0.67672 0.89754 0.0
C1302 C 0.34608 0.67171 0.87941 0.0
C1303 C 0.33062 0.68595 0.89284 0.0
C1304 C 0.32742 0.69876 0.90089 0.0
C1305 C 0.33625 0.66121 0.87884 0.0
C1306 C 0.3236 0.66292 0.88573 0.0
C1307 C 0.32079 0.67543 0.89227 0.0
C1308 C 0.31375 0.65144 0.88745 0.0
C1309 C 0.33957 0.6483 0.871 0.0
C1310 C 0.30005 0.6527 0.88319 0.0
C1311 C 0.29057 0.64225 0.88595 0.0
C1312 C 0.29461 0.63044 0.89317 0.0
C1313 C 0.30839 0.62914 0.8972 0.0
C1314 C 0.31783 0.63952 0.8944 0.0
H1315 H 0.34726 0.65028 0.86283 0.0
H1316 H 0.344 0.64064 0.87815 0.0
H1317 H 0.33024 0.64383 0.86626 0.0
H1318 H 0.29665 0.66187 0.87792 0.0
H1319 H 0.28002 0.6436 0.88277 0.0
H1320 H 0.31058 0.38611 0.90185 0.0
H1321 H 0.32708 0.36803 0.89689 0.0
H1322 H 0.29555 0.34452 0.87674 0.0
H1323 H 0.27881 0.36265 0.88178 0.0
H1324 H 0.31018 0.3297 0.89633 0.0
H1325 H 0.34599 0.35644 0.86147 0.0
H1326 H 0.34271 0.36602 0.87682 0.0
H1327 H 0.32894 0.36275 0.86498 0.0
C1328 C 0.30715 0.3772 0.89617 0.0
C1329 C 0.29336 0.37584 0.8922 0.0
C1330 C 0.31665 0.3669 0.89327 0.0
C1331 C 0.31262 0.355 0.88627 0.0
C1332 C 0.29891 0.35368 0.88205 0.0
H1333 H 0.36257 0.27938 0.8809 0.0
H1334 H 0.34418 0.29591 0.87621 0.0
C1335 C 0.28937 0.36405 0.88491 0.0
C1336 C 0.32253 0.34359 0.88446 0.0
H1337 H 0.35485 0.33649 0.87301 0.0
C1338 C 0.31984 0.33105 0.89099 0.0
C1339 C 0.33512 0.34538 0.87749 0.0
C1340 C 0.33832 0.35833 0.86967 0.0
C1341 C 0.32974 0.32059 0.89149 0.0
C1342 C 0.34259 0.32264 0.88505 0.0
C1343 C 0.34502 0.33493 0.87797 0.0
C1344 C 0.35406 0.31277 0.88671 0.0
C1345 C 0.32667 0.30776 0.89956 0.0
C1346 C 0.36593 0.31688 0.8937 0.0
C1347 C 0.37644 0.30753 0.89631 0.0
C1348 C 0.37536 0.29383 0.89194 0.0
C1349 C 0.3637 0.28984 0.88445 0.0
C1350 C 0.35314 0.29924 0.88184 0.0
H1351 H 0.31732 0.30886 0.90597 0.0
H1352 H 0.32502 0.2991 0.89237 0.0
H1353 H 0.33542 0.30508 0.90633 0.0
H1354 H 0.36689 0.32727 0.89751 0.0
H1355 H 0.38529 0.31099 0.90206 0.0
H1356 H 0.61917 0.31005 0.90208 0.0
H1357 H 0.63757 0.32661 0.89869 0.0
H1358 H 0.66224 0.29552 0.87927 0.0
H1359 H 0.64373 0.27877 0.88255 0.0
H1360 H 0.66398 0.32275 0.91033 0.0
H1361 H 0.66642 0.3295 0.85371 0.0
H1362 H 0.65144 0.32273 0.86224 0.0
H1363 H 0.66637 0.3122 0.86012 0.0
C1364 C 0.62841 0.30673 0.89689 0.0
C1365 C 0.63 0.29305 0.89263 0.0
C1366 C 0.63892 0.31624 0.89496 0.0
C1367 C 0.65125 0.31233 0.88868 0.0
C1368 C 0.65273 0.2988 0.88396 0.0
H1369 H 0.72696 0.36124 0.88332 0.0
H1370 H 0.71014 0.34273 0.8803 0.0
C1371 C 0.64217 0.28924 0.88589 0.0
C1372 C 0.66284 0.32217 0.8883 0.0
H1373 H 0.68256 0.34178 0.86697 0.0
C1374 C 0.66808 0.32686 0.90084 0.0
C1375 C 0.66826 0.3274 0.87591 0.0
C1376 C 0.66283 0.32281 0.86219 0.0
C1377 C 0.67839 0.33685 0.90136 0.0
C1378 C 0.68347 0.34249 0.889 0.0
C1379 C 0.67859 0.33748 0.87642 0.0
C1380 C 0.69329 0.35408 0.88917 0.0
C1381 C 0.68374 0.34135 0.91516 0.0
C1382 C 0.68925 0.36671 0.89472 0.0
C1383 C 0.69878 0.37724 0.89647 0.0
C1384 C 0.71256 0.37539 0.89265 0.0
C1385 C 0.71643 0.36298 0.88639 0.0
C1386 C 0.70685 0.3524 0.88466 0.0
H1387 H 0.68146 0.3337 0.92328 0.0
H1388 H 0.69499 0.34308 0.91482 0.0
H1389 H 0.67875 0.35115 0.91809 0.0
H1390 H 0.67879 0.36828 0.89808 0.0
H1391 H 0.69541 0.38669 0.90121 0.0
H1392 H 0.69895 0.61613 0.88194 0.0
H1393 H 0.68186 0.63385 0.87711 0.0
H1394 H 0.70896 0.66439 0.89423 0.0
H1395 H 0.72646 0.64684 0.8978 0.0
H1396 H 0.66815 0.64681 0.89336 0.0
H1397 H 0.69521 0.68684 0.8644 0.0
H1398 H 0.7027 0.67018 0.86716 0.0
H1399 H 0.70457 0.68357 0.87982 0.0
C1400 C 0.70138 0.62673 0.8842 0.0
C1401 C 0.71403 0.6302 0.89007 0.0
C1402 C 0.69159 0.63686 0.88153 0.0
C1403 C 0.69405 0.65062 0.88513 0.0
C1404 C 0.70687 0.65405 0.89082 0.0
H1405 H 0.63071 0.70283 0.91573 0.0
H1406 H 0.64822 0.68571 0.91103 0.0
C1407 C 0.71686 0.64398 0.89299 0.0
C1408 C 0.68272 0.66092 0.8845 0.0
H1409 H 0.67566 0.69461 0.8779 0.0
C1410 C 0.6698 0.65717 0.88968 0.0
C1411 C 0.68454 0.67444 0.87946 0.0
C1412 C 0.69747 0.6789 0.87225 0.0
C1413 C 0.65897 0.66659 0.89052 0.0
C1414 C 0.66127 0.68046 0.88689 0.0
C1415 C 0.67393 0.68409 0.88105 0.0
C1416 C 0.65092 0.69136 0.88971 0.0
C1417 C 0.64515 0.66142 0.89521 0.0
C1418 C 0.64713 0.70092 0.87958 0.0
C1419 C 0.6374 0.71113 0.88244 0.0
C1420 C 0.63115 0.71178 0.89541 0.0
C1421 C 0.63512 0.70237 0.90555 0.0
C1422 C 0.64507 0.69248 0.90282 0.0
H1423 H 0.64365 0.65053 0.89223 0.0
H1424 H 0.6446 0.66192 0.90656 0.0
H1425 H 0.63663 0.66755 0.89082 0.0
H1426 H 0.65159 0.70041 0.86943 0.0
H1427 H 0.63458 0.71833 0.87447 0.0
H1428 H 0.62051 0.69559 0.10235 0.0
H1429 H 0.63884 0.67898 0.10582 0.0
H1430 H 0.66285 0.70957 0.1268 0.0
H1431 H 0.64439 0.72636 0.12345 0.0
H1432 H 0.66561 0.68307 0.09515 0.0
H1433 H 0.66617 0.67497 0.15166 0.0
H1434 H 0.65149 0.68198 0.1428 0.0
H1435 H 0.66636 0.69242 0.14564 0.0
C1436 C 0.62958 0.69878 0.10789 0.0
C1437 C 0.631 0.71234 0.11258 0.0
C1438 C 0.64006 0.68925 0.10987 0.0
C1439 C 0.65218 0.69301 0.11662 0.0
C1440 C 0.65349 0.7064 0.12174 0.0
H1441 H 0.72735 0.64319 0.12274 0.0
H1442 H 0.71078 0.66195 0.12569 0.0
C1443 C 0.64296 0.71599 0.11977 0.0
C1444 C 0.66375 0.68314 0.11714 0.0
H1445 H 0.68262 0.66286 0.13862 0.0
C1446 C 0.66938 0.67872 0.10467 0.0
C1447 C 0.66872 0.67757 0.12957 0.0
C1448 C 0.66287 0.68187 0.14322 0.0
C1449 C 0.67962 0.66866 0.10425 0.0
C1450 C 0.68424 0.66269 0.11663 0.0
C1451 C 0.679 0.66743 0.12916 0.0
C1452 C 0.69389 0.65095 0.11649 0.0
C1453 C 0.68535 0.66438 0.09053 0.0
C1454 C 0.68973 0.63844 0.11076 0.0
C1455 C 0.6991 0.62778 0.10906 0.0
C1456 C 0.71285 0.62936 0.1131 0.0
C1457 C 0.71684 0.64166 0.11951 0.0
C1458 C 0.7074 0.65238 0.1212 0.0
H1459 H 0.68332 0.67218 0.08248 0.0
H1460 H 0.69658 0.66263 0.09118 0.0
H1461 H 0.68045 0.65464 0.0873 0.0
H1462 H 0.67929 0.63709 0.10721 0.0
H1463 H 0.69564 0.61842 0.10418 0.0
H1464 H 0.36267 0.72572 0.12451 0.0
H1465 H 0.34425 0.70926 0.12935 0.0
H1466 H 0.3671 0.67759 0.10866 0.0
H1467 H 0.38548 0.69382 0.10389 0.0
H1468 H 0.32905 0.695 0.10965 0.0
H1469 H 0.35554 0.65858 0.14409 0.0
H1470 H 0.36202 0.67559 0.14071 0.0
H1471 H 0.36509 0.6619 0.12872 0.0
C1472 C 0.36386 0.71519 0.12119 0.0
C1473 C 0.37556 0.71108 0.11383 0.0
C1474 C 0.35331 0.70581 0.12395 0.0
C1475 C 0.35439 0.69214 0.11955 0.0
C1476 C 0.36617 0.688 0.11243 0.0
H1477 H 0.30962 0.62025 0.10305 0.0
H1478 H 0.32607 0.63845 0.10781 0.0
C1479 C 0.37664 0.69734 0.10962 0.0
C1480 C 0.34285 0.68238 0.12135 0.0
H1481 H 0.33545 0.65004 0.13254 0.0
C1482 C 0.33032 0.68528 0.1149 0.0
C1483 C 0.34453 0.66971 0.12822 0.0
C1484 C 0.35748 0.6663 0.13594 0.0
C1485 C 0.31974 0.6755 0.11437 0.0
C1486 C 0.32169 0.66257 0.12067 0.0
C1487 C 0.33398 0.65994 0.12769 0.0
C1488 C 0.31172 0.65121 0.1189 0.0
C1489 C 0.3069 0.67879 0.10639 0.0
C1490 C 0.29823 0.65216 0.12386 0.0
C1491 C 0.28873 0.64172 0.12113 0.0
C1492 C 0.2926 0.63015 0.11343 0.0
C1493 C 0.30626 0.62903 0.10896 0.0
C1494 C 0.31571 0.63943 0.11169 0.0
H1495 H 0.30804 0.68823 0.10012 0.0
H1496 H 0.30415 0.67016 0.09949 0.0
H1497 H 0.29828 0.68037 0.11363 0.0
H1498 H 0.295 0.66106 0.12965 0.0
H1499 H 0.2783 0.64287 0.12476 0.0
H1500 H 0.69552 0.38555 0.106 0.0
H1501 H 0.6791 0.36737 0.11081 0.0
H1502 H 0.71106 0.34317 0.12942 0.0
H1503 H 0.72772 0.36139 0.1245 0.0
H1504 H 0.69597 0.32894 0.10992 0.0
H1505 H 0.66095 0.35479 0.1462 0.0
H1506 H 0.66384 0.36479 0.13104 0.0
H1507 H 0.6779 0.36122 0.14245 0.0
C1508 C 0.69906 0.37646 0.11131 0.0
C1509 C 0.71295 0.37493 0.11487 0.0
C1510 C 0.68961 0.3661 0.11414 0.0
C1511 C 0.69379 0.35398 0.12067 0.0
C1512 C 0.7076 0.35249 0.12448 0.0
H1513 H 0.64363 0.27845 0.12502 0.0
H1514 H 0.66212 0.29481 0.12992 0.0
C1515 C 0.71709 0.36291 0.12169 0.0
C1516 C 0.68388 0.34254 0.12238 0.0
H1517 H 0.65174 0.33524 0.1342 0.0
C1518 C 0.68642 0.33018 0.11547 0.0
C1519 C 0.67142 0.34419 0.12963 0.0
C1520 C 0.66842 0.35692 0.13787 0.0
C1521 C 0.67648 0.31976 0.11488 0.0
C1522 C 0.66375 0.32169 0.12159 0.0
C1523 C 0.66148 0.33379 0.12904 0.0
C1524 C 0.65221 0.31191 0.11984 0.0
C1525 C 0.67936 0.30713 0.10643 0.0
C1526 C 0.64032 0.31622 0.11301 0.0
C1527 C 0.62975 0.30696 0.11027 0.0
C1528 C 0.63082 0.29317 0.11436 0.0
C1529 C 0.64251 0.28898 0.1217 0.0
C1530 C 0.65312 0.29829 0.12443 0.0
H1531 H 0.68866 0.30832 0.09997 0.0
H1532 H 0.681 0.29827 0.11337 0.0
H1533 H 0.67052 0.30472 0.09969 0.0
H1534 H 0.63937 0.32669 0.10942 0.0
H1535 H 0.62088 0.31056 0.10465 0.0
H1536 H 0.6016 0.887 0.80959 0.0
H1537 H 0.60477 0.8686 0.8262 0.0
H1538 H 0.62627 0.8447 0.79588 0.0
H1539 H 0.62319 0.8632 0.77908 0.0
H1540 H 0.59417 0.84149 0.82128 0.0
H1541 H 0.65037 0.84154 0.83138 0.0
H1542 H 0.64155 0.85632 0.82453 0.0
H1543 H 0.64482 0.84178 0.81378 0.0
C1544 C 0.6072 0.87794 0.80647 0.0
C1545 C 0.61209 0.87656 0.79297 0.0
C1546 C 0.609 0.86743 0.81599 0.0
C1547 C 0.6158 0.85532 0.8123 0.0
C1548 C 0.62115 0.85404 0.799 0.0
H1549 H 0.62259 0.78035 0.86236 0.0
H1550 H 0.62553 0.79704 0.8437 0.0
C1551 C 0.61935 0.86461 0.7894 0.0
C1552 C 0.61611 0.84369 0.8221 0.0
H1553 H 0.63707 0.82504 0.8431 0.0
C1554 C 0.60356 0.83784 0.82599 0.0
C1555 C 0.62838 0.83887 0.82811 0.0
C1556 C 0.64208 0.84495 0.82435 0.0
C1557 C 0.60291 0.82751 0.83595 0.0
C1558 C 0.61511 0.82307 0.84241 0.0
C1559 C 0.62774 0.82854 0.83818 0.0
C1560 C 0.61469 0.81335 0.85409 0.0
C1561 C 0.58912 0.82148 0.83956 0.0
C1562 C 0.60802 0.81715 0.86624 0.0
C1563 C 0.60631 0.8077 0.87684 0.0
C1564 C 0.61131 0.79424 0.87557 0.0
C1565 C 0.61859 0.79063 0.86365 0.0
C1566 C 0.62029 0.80014 0.85299 0.0
H1567 H 0.58149 0.82321 0.83128 0.0
H1568 H 0.58994 0.8103 0.84152 0.0
H1569 H 0.58522 0.82646 0.84901 0.0
H1570 H 0.60382 0.82737 0.86739 0.0
H1571 H 0.60076 0.81088 0.88592 0.0
H1572 H 0.22736 0.62334 0.86218 0.0
H1573 H 0.21053 0.62636 0.84368 0.0
H1574 H 0.17992 0.606 0.86818 0.0
H1575 H 0.19654 0.60289 0.88658 0.0
H1576 H 0.18435 0.5947 0.8414 0.0
H1577 H 0.17562 0.65111 0.84004 0.0
H1578 H 0.1931 0.64517 0.84023 0.0
H1579 H 0.18244 0.64251 0.85497 0.0
C1580 C 0.21697 0.61974 0.86371 0.0
C1581 C 0.21331 0.61283 0.87583 0.0
C1582 C 0.20737 0.62151 0.85315 0.0
C1583 C 0.19396 0.61645 0.85459 0.0
C1584 C 0.1902 0.60999 0.86687 0.0
H1585 H 0.11972 0.60215 0.81099 0.0
H1586 H 0.13833 0.60544 0.82736 0.0
C1587 C 0.19974 0.60823 0.87738 0.0
C1588 C 0.1841 0.61671 0.84302 0.0
H1589 H 0.16353 0.63769 0.82391 0.0
C1590 C 0.17986 0.60411 0.83753 0.0
C1591 C 0.17837 0.629 0.83789 0.0
C1592 C 0.18251 0.64275 0.84359 0.0
C1593 C 0.16981 0.60344 0.82728 0.0
C1594 C 0.16365 0.61568 0.82254 0.0
C1595 C 0.16823 0.62833 0.82764 0.0
C1596 C 0.15192 0.61528 0.81288 0.0
C1597 C 0.16579 0.5896 0.82167 0.0
C1598 C 0.15319 0.62024 0.79943 0.0
C1599 C 0.14249 0.61842 0.78999 0.0
C1600 C 0.13038 0.61162 0.7939 0.0
C1601 C 0.12894 0.60731 0.80759 0.0
C1602 C 0.13958 0.60916 0.81697 0.0
H1603 H 0.17381 0.58175 0.82364 0.0
H1604 H 0.1562 0.58616 0.82674 0.0
H1605 H 0.16387 0.59013 0.81046 0.0
H1606 H 0.16263 0.62506 0.79611 0.0
H1607 H 0.14391 0.62187 0.77954 0.0
H1608 H 0.38373 0.1436 0.7795 0.0
H1609 H 0.38071 0.16206 0.79639 0.0
H1610 H 0.40019 0.13709 0.8272 0.0
H1611 H 0.40332 0.11875 0.81051 0.0
H1612 H 0.36814 0.16276 0.82411 0.0
H1613 H 0.42422 0.17231 0.8241 0.0
H1614 H 0.41575 0.16262 0.8108 0.0
H1615 H 0.41959 0.15473 0.82701 0.0
C1616 C 0.38718 0.14198 0.78993 0.0
C1617 C 0.3939 0.12976 0.79362 0.0
C1618 C 0.38545 0.15253 0.79955 0.0
C1619 C 0.39043 0.15101 0.81296 0.0
C1620 C 0.39647 0.13855 0.81684 0.0
H1621 H 0.40358 0.1956 0.88679 0.0
H1622 H 0.40029 0.17887 0.86853 0.0
C1623 C 0.39822 0.12806 0.80727 0.0
C1624 C 0.39017 0.1626 0.8228 0.0
H1625 H 0.41134 0.18289 0.84187 0.0
C1626 C 0.37755 0.1673 0.82791 0.0
C1627 C 0.40247 0.16856 0.82764 0.0
C1628 C 0.41628 0.16441 0.82203 0.0
C1629 C 0.37698 0.17738 0.83824 0.0
C1630 C 0.38933 0.18293 0.84342 0.0
C1631 C 0.40189 0.17853 0.83796 0.0
C1632 C 0.38968 0.19283 0.85497 0.0
C1633 C 0.36325 0.18164 0.84391 0.0
C1634 C 0.38459 0.20622 0.85351 0.0
C1635 C 0.38646 0.21588 0.864 0.0
C1636 C 0.39352 0.2123 0.87607 0.0
C1637 C 0.39814 0.19874 0.87764 0.0
C1638 C 0.39627 0.18914 0.8672 0.0
H1639 H 0.35488 0.17472 0.8405 0.0
H1640 H 0.36351 0.18177 0.85529 0.0
H1641 H 0.36084 0.19218 0.84037 0.0
H1642 H 0.37965 0.20934 0.84407 0.0
H1643 H 0.38283 0.22626 0.86244 0.0
H1644 H 0.8872 0.40246 0.81053 0.0
H1645 H 0.86888 0.39884 0.82713 0.0
H1646 H 0.84444 0.379 0.79612 0.0
H1647 H 0.86288 0.3825 0.77933 0.0
H1648 H 0.84233 0.41007 0.82335 0.0
H1649 H 0.84067 0.35343 0.83012 0.0
H1650 H 0.8555 0.36216 0.82328 0.0
H1651 H 0.84056 0.35983 0.81282 0.0
C1652 C 0.87803 0.39713 0.80724 0.0
C1653 C 0.87649 0.39282 0.79357 0.0
C1654 C 0.86757 0.39506 0.81677 0.0
C1655 C 0.85533 0.3886 0.81289 0.0
C1656 C 0.85389 0.38383 0.79938 0.0
H1657 H 0.77981 0.38255 0.86205 0.0
H1658 H 0.79659 0.37962 0.84348 0.0
C1659 C 0.86441 0.38589 0.78979 0.0
C1660 C 0.84377 0.38806 0.82276 0.0
H1661 H 0.82439 0.36649 0.84246 0.0
C1662 C 0.83837 0.40053 0.82747 0.0
C1663 C 0.83853 0.37561 0.82802 0.0
C1664 C 0.84412 0.36196 0.82341 0.0
C1665 C 0.82808 0.40092 0.83749 0.0
C1666 C 0.8232 0.3885 0.84315 0.0
C1667 C 0.82822 0.37598 0.83813 0.0
C1668 C 0.81343 0.38855 0.8548 0.0
C1669 C 0.82258 0.41465 0.84203 0.0
C1670 C 0.81748 0.39409 0.86743 0.0
C1671 C 0.80797 0.39579 0.87798 0.0
C1672 C 0.79421 0.39192 0.87617 0.0
C1673 C 0.79033 0.38565 0.86376 0.0
C1674 C 0.79989 0.38397 0.85315 0.0
H1675 H 0.82475 0.4228 0.83438 0.0
H1676 H 0.81134 0.41416 0.84376 0.0
H1677 H 0.82754 0.41761 0.85183 0.0
H1678 H 0.82793 0.39751 0.86896 0.0
H1679 H 0.81135 0.40054 0.88743 0.0
H1680 H 0.62444 0.22783 0.14372 0.0
H1681 H 0.6294 0.21118 0.16194 0.0
H1682 H 0.61021 0.17934 0.13805 0.0
H1683 H 0.60535 0.19575 0.11987 0.0
H1684 H 0.60985 0.19632 0.17642 0.0
H1685 H 0.64557 0.16088 0.15033 0.0
H1686 H 0.64193 0.17786 0.14389 0.0
H1687 H 0.63034 0.16391 0.14048 0.0
C1688 C 0.6215 0.21722 0.14225 0.0
C1689 C 0.61451 0.21312 0.13033 0.0
C1690 C 0.62432 0.20773 0.15268 0.0
C1691 C 0.62036 0.19396 0.15128 0.0
C1692 C 0.61365 0.18982 0.13925 0.0
H1693 H 0.60424 0.1213 0.1951 0.0
H1694 H 0.60898 0.13971 0.17887 0.0
C1695 C 0.61079 0.19927 0.12888 0.0
C1696 C 0.62208 0.18408 0.16274 0.0
H1697 H 0.6337 0.15187 0.17005 0.0
C1698 C 0.61531 0.18672 0.17516 0.0
C1699 C 0.62921 0.17156 0.16107 0.0
C1700 C 0.63729 0.16843 0.14827 0.0
C1701 C 0.61474 0.17682 0.18562 0.0
C1702 C 0.62132 0.16403 0.18368 0.0
C1703 C 0.62863 0.16165 0.17151 0.0
C1704 C 0.61957 0.15254 0.19352 0.0
C1705 C 0.60643 0.17982 0.19832 0.0
C1706 C 0.62426 0.15347 0.20711 0.0
C1707 C 0.62155 0.14291 0.21648 0.0
C1708 C 0.61413 0.13124 0.21238 0.0
C1709 C 0.60993 0.13016 0.19863 0.0
C1710 C 0.61265 0.14067 0.18931 0.0
H1711 H 0.60001 0.18915 0.19714 0.0
H1712 H 0.59965 0.17104 0.20085 0.0
H1713 H 0.61346 0.18146 0.20711 0.0
H1714 H 0.62983 0.16245 0.21051 0.0
H1715 H 0.62497 0.14404 0.22698 0.0
H1716 H 0.88591 0.60436 0.19457 0.0
H1717 H 0.86771 0.60915 0.17815 0.0
H1718 H 0.84385 0.62844 0.20997 0.0
H1719 H 0.86209 0.62356 0.22661 0.0
H1720 H 0.82938 0.6088 0.19517 0.0
H1721 H 0.85537 0.64448 0.15963 0.0
H1722 H 0.86526 0.62929 0.16271 0.0
H1723 H 0.86181 0.64091 0.17662 0.0
C1724 C 0.8769 0.60981 0.19808 0.0
C1725 C 0.87547 0.61359 0.21192 0.0
C1726 C 0.86652 0.61263 0.18863 0.0
C1727 C 0.85449 0.61934 0.19277 0.0
C1728 C 0.8531 0.62336 0.20653 0.0
H1729 H 0.77874 0.62366 0.14293 0.0
H1730 H 0.79522 0.62863 0.16129 0.0
C1731 C 0.86354 0.62059 0.21601 0.0
C1732 C 0.84302 0.62103 0.18289 0.0
H1733 H 0.83567 0.63257 0.15066 0.0
C1734 C 0.83062 0.61424 0.18555 0.0
C1735 C 0.84467 0.62814 0.17035 0.0
C1736 C 0.85745 0.63623 0.1672 0.0
C1737 C 0.82016 0.61362 0.17566 0.0
C1738 C 0.82208 0.62018 0.16285 0.0
C1739 C 0.83422 0.62752 0.16045 0.0
C1740 C 0.81223 0.6184 0.15138 0.0
C1741 C 0.80748 0.60529 0.17868 0.0
C1742 C 0.81644 0.61146 0.13951 0.0
C1743 C 0.80711 0.60868 0.12902 0.0
C1744 C 0.79335 0.61283 0.13012 0.0
C1745 C 0.78925 0.62028 0.14178 0.0
C1746 C 0.79863 0.62305 0.15232 0.0
H1747 H 0.80868 0.59888 0.18802 0.0
H1748 H 0.79868 0.6123 0.18032 0.0
H1749 H 0.80496 0.59849 0.16991 0.0
H1750 H 0.82689 0.60782 0.13854 0.0
H1751 H 0.81064 0.60298 0.12017 0.0
H1752 H 0.41761 0.79934 0.13263 0.0
H1753 H 0.41383 0.81617 0.15064 0.0
H1754 H 0.37078 0.80585 0.1513 0.0
H1755 H 0.37486 0.7881 0.1339 0.0
H1756 H 0.40087 0.83804 0.15093 0.0
H1757 H 0.37695 0.80575 0.19103 0.0
H1758 H 0.38435 0.79853 0.17573 0.0
H1759 H 0.36734 0.80573 0.17538 0.0
C1760 C 0.40734 0.80059 0.1367 0.0
C1761 C 0.39652 0.79243 0.1319 0.0
C1762 C 0.40517 0.81024 0.14701 0.0
C1763 C 0.39203 0.81227 0.15256 0.0
C1764 C 0.3811 0.80425 0.14758 0.0
H1765 H 0.38424 0.88937 0.1984 0.0
H1766 H 0.38068 0.87137 0.18127 0.0
C1767 C 0.38339 0.79421 0.13752 0.0
C1768 C 0.38997 0.82319 0.1631 0.0
H1769 H 0.37724 0.82971 0.19511 0.0
C1770 C 0.39574 0.83615 0.16061 0.0
C1771 C 0.38337 0.8208 0.17583 0.0
C1772 C 0.37778 0.80691 0.17973 0.0
C1773 C 0.39557 0.84655 0.17053 0.0
C1774 C 0.38856 0.84435 0.18308 0.0
C1775 C 0.38247 0.83151 0.18547 0.0
C1776 C 0.38825 0.85492 0.19414 0.0
C1777 C 0.40361 0.85947 0.16763 0.0
C1778 C 0.39244 0.85156 0.20753 0.0
C1779 C 0.3938 0.86176 0.21754 0.0
C1780 C 0.39128 0.87552 0.21423 0.0
C1781 C 0.38637 0.87881 0.20112 0.0
C1782 C 0.38452 0.86855 0.19128 0.0
H1783 H 0.41172 0.85771 0.15983 0.0
H1784 H 0.3966 0.86742 0.16351 0.0
H1785 H 0.40858 0.86348 0.17705 0.0
H1786 H 0.39528 0.84113 0.2101 0.0
H1787 H 0.39766 0.859 0.22758 0.0
H1788 H 0.19509 0.40172 0.12019 0.0
H1789 H 0.17891 0.3971 0.13866 0.0
H1790 H 0.21057 0.37631 0.16144 0.0
H1791 H 0.227 0.38106 0.14296 0.0
H1792 H 0.1701 0.37242 0.15088 0.0
H1793 H 0.19721 0.40618 0.18809 0.0
H1794 H 0.2009 0.4065 0.16997 0.0
H1795 H 0.20717 0.39271 0.18042 0.0
C1796 C 0.19864 0.39607 0.12907 0.0
C1797 C 0.21239 0.39185 0.13014 0.0
C1798 C 0.18934 0.39342 0.13962 0.0
C1799 C 0.19357 0.38654 0.15151 0.0
C1800 C 0.20715 0.38184 0.15244 0.0
H1801 H 0.14375 0.38177 0.22682 0.0
H1802 H 0.16199 0.37682 0.21019 0.0
C1803 C 0.2165 0.38449 0.14184 0.0
C1804 C 0.18373 0.38483 0.16302 0.0
H1805 H 0.17649 0.39635 0.19529 0.0
C1806 C 0.17157 0.37751 0.16066 0.0
C1807 C 0.18568 0.39143 0.17579 0.0
C1808 C 0.19838 0.39974 0.17877 0.0
C1809 C 0.16113 0.37696 0.17057 0.0
C1810 C 0.1628 0.3841 0.18307 0.0
C1811 C 0.17522 0.39088 0.18569 0.0
C1812 C 0.15134 0.38585 0.19296 0.0
C1813 C 0.14832 0.36887 0.16746 0.0
C1814 C 0.13932 0.39256 0.1888 0.0
C1815 C 0.12894 0.39541 0.19823 0.0
C1816 C 0.13037 0.39169 0.21209 0.0
C1817 C 0.1423 0.3847 0.21621 0.0
C1818 C 0.15274 0.38189 0.20673 0.0
H1819 H 0.15038 0.36059 0.15993 0.0
H1820 H 0.14395 0.36425 0.1769 0.0
H1821 H 0.14053 0.37582 0.16293 0.0
H1822 H 0.13813 0.396 0.17831 0.0
H1823 H 0.11993 0.40085 0.1947 0.0
H1824 H 0.77834 0.62234 0.86171 0.0
H1825 H 0.79525 0.62526 0.84326 0.0
H1826 H 0.82673 0.60866 0.86945 0.0
H1827 H 0.81003 0.60565 0.88781 0.0
H1828 H 0.82299 0.63894 0.84231 0.0
H1829 H 0.82413 0.58248 0.83534 0.0
H1830 H 0.81047 0.59114 0.84434 0.0
H1831 H 0.8266 0.5881 0.8527 0.0
C1832 C 0.78892 0.61954 0.86361 0.0
C1833 C 0.79281 0.61362 0.87618 0.0
C1834 C 0.79855 0.62121 0.85306 0.0
C1835 C 0.81218 0.61698 0.85495 0.0
C1836 C 0.81622 0.61182 0.86774 0.0
H1837 H 0.88633 0.60288 0.81133 0.0
H1838 H 0.8679 0.60661 0.82779 0.0
C1839 C 0.80665 0.61013 0.87823 0.0
C1840 C 0.82204 0.61694 0.84339 0.0
H1841 H 0.84155 0.59522 0.82412 0.0
C1842 C 0.82697 0.62942 0.83819 0.0
C1843 C 0.82711 0.60447 0.838 0.0
C1844 C 0.82174 0.59077 0.84277 0.0
C1845 C 0.83735 0.62972 0.82815 0.0
C1846 C 0.84276 0.61723 0.82315 0.0
C1847 C 0.83746 0.60479 0.82805 0.0
C1848 C 0.85438 0.61663 0.81335 0.0
C1849 C 0.84283 0.64335 0.82335 0.0
C1850 C 0.853 0.62124 0.79978 0.0
C1851 C 0.86359 0.61913 0.79028 0.0
C1852 C 0.87567 0.61229 0.7942 0.0
C1853 C 0.87716 0.60814 0.80793 0.0
C1854 C 0.86663 0.61026 0.81737 0.0
H1855 H 0.83931 0.65193 0.82995 0.0
H1856 H 0.85421 0.64324 0.8232 0.0
H1857 H 0.83924 0.6453 0.81273 0.0
H1858 H 0.84355 0.62599 0.7964 0.0
H1859 H 0.8621 0.6224 0.77977 0.0
H1860 H 0.40472 0.88532 0.81118 0.0
H1861 H 0.40025 0.86709 0.82769 0.0
H1862 H 0.37768 0.84466 0.79703 0.0
H1863 H 0.38227 0.86287 0.78028 0.0
H1864 H 0.37571 0.85555 0.83759 0.0
H1865 H 0.40732 0.81732 0.80935 0.0
H1866 H 0.40793 0.8354 0.8055 0.0
H1867 H 0.39365 0.82525 0.79988 0.0
C1868 C 0.39871 0.87657 0.80793 0.0
C1869 C 0.39395 0.87551 0.79436 0.0
C1870 C 0.39615 0.86616 0.81741 0.0
C1871 C 0.38881 0.85442 0.81355 0.0
C1872 C 0.38357 0.85352 0.80016 0.0
H1873 H 0.38336 0.77941 0.86371 0.0
H1874 H 0.37844 0.79621 0.84562 0.0
C1875 C 0.38613 0.86398 0.79064 0.0
C1876 C 0.3872 0.84302 0.82352 0.0
H1877 H 0.39801 0.81042 0.83043 0.0
C1878 C 0.38045 0.84563 0.83596 0.0
C1879 C 0.39334 0.83005 0.82137 0.0
C1880 C 0.40106 0.82678 0.80837 0.0
C1881 C 0.37999 0.83576 0.84645 0.0
C1882 C 0.38667 0.82303 0.84454 0.0
C1883 C 0.39289 0.82019 0.83187 0.0
C1884 C 0.38848 0.81308 0.85593 0.0
C1885 C 0.37251 0.83914 0.85955 0.0
C1886 C 0.39575 0.81698 0.86771 0.0
C1887 C 0.39859 0.80744 0.878 0.0
C1888 C 0.39428 0.79374 0.87673 0.0
C1889 C 0.38676 0.78989 0.86504 0.0
C1890 C 0.38396 0.79947 0.85469 0.0
H1891 H 0.36442 0.84697 0.8578 0.0
H1892 H 0.36772 0.82987 0.86408 0.0
H1893 H 0.3799 0.8434 0.86708 0.0
H1894 H 0.39962 0.82733 0.86877 0.0
H1895 H 0.40446 0.81076 0.88683 0.0
H1896 H 0.19549 0.40132 0.88546 0.0
H1897 H 0.17914 0.39659 0.86718 0.0
H1898 H 0.21105 0.37741 0.84335 0.0
H1899 H 0.22763 0.38224 0.86167 0.0
H1900 H 0.19616 0.39697 0.82884 0.0
H1901 H 0.16079 0.36118 0.85489 0.0
H1902 H 0.16379 0.3764 0.86475 0.0
H1903 H 0.17776 0.36484 0.86133 0.0
C1904 C 0.19904 0.39591 0.87643 0.0
C1905 C 0.21288 0.39214 0.87504 0.0
C1906 C 0.18963 0.39313 0.86601 0.0
C1907 C 0.19381 0.38645 0.85398 0.0
C1908 C 0.20758 0.38247 0.85261 0.0
H1909 H 0.1439 0.3815 0.77828 0.0
H1910 H 0.16236 0.37681 0.79475 0.0
C1911 C 0.21703 0.38521 0.86309 0.0
C1912 C 0.18394 0.38471 0.84251 0.0
H1913 H 0.15177 0.37301 0.83516 0.0
C1914 C 0.18657 0.39149 0.83009 0.0
C1915 C 0.17143 0.37755 0.84416 0.0
C1916 C 0.16832 0.36946 0.85696 0.0
C1917 C 0.17668 0.39204 0.81962 0.0
C1918 C 0.16391 0.38543 0.82155 0.0
C1919 C 0.16154 0.37811 0.83371 0.0
C1920 C 0.15243 0.38713 0.81169 0.0
C1921 C 0.17967 0.40034 0.80691 0.0
C1922 C 0.14054 0.39404 0.81587 0.0
C1923 C 0.13 0.39667 0.80655 0.0
C1924 C 0.13108 0.39238 0.79283 0.0
C1925 C 0.14278 0.38498 0.78876 0.0
C1926 C 0.15336 0.38237 0.79813 0.0
H1927 H 0.189 0.40676 0.80808 0.0
H1928 H 0.1813 0.3933 0.79812 0.0
H1929 H 0.17088 0.40711 0.80439 0.0
H1930 H 0.13957 0.39777 0.82629 0.0
H1931 H 0.12112 0.40234 0.81006 0.0
H1932 H 0.60302 0.12073 0.81025 0.0
H1933 H 0.60771 0.13896 0.82669 0.0
H1934 H 0.62922 0.16175 0.79553 0.0
H1935 H 0.62441 0.14353 0.77885 0.0
H1936 H 0.63242 0.15087 0.83596 0.0
H1937 H 0.59938 0.18858 0.80864 0.0
H1938 H 0.59894 0.17049 0.80481 0.0
H1939 H 0.61291 0.18085 0.79881 0.0
C1940 C 0.60885 0.12956 0.80687 0.0
C1941 C 0.61324 0.13072 0.79318 0.0
C1942 C 0.61154 0.13997 0.81631 0.0
C1943 C 0.61863 0.15181 0.8123 0.0
C1944 C 0.62352 0.1528 0.79879 0.0
H1945 H 0.62344 0.22678 0.86253 0.0
H1946 H 0.62847 0.21016 0.8443 0.0
C1947 C 0.62084 0.14234 0.78929 0.0
C1948 C 0.62031 0.16321 0.82224 0.0
H1949 H 0.609 0.19555 0.82953 0.0
C1950 C 0.62744 0.16071 0.83449 0.0
C1951 C 0.61386 0.17606 0.82028 0.0
C1952 C 0.60575 0.17921 0.80749 0.0
C1953 C 0.62796 0.17054 0.84499 0.0
C1954 C 0.62095 0.18313 0.8433 0.0
C1955 C 0.61437 0.18589 0.83081 0.0
C1956 C 0.61917 0.19298 0.85479 0.0
C1957 C 0.63584 0.16728 0.85789 0.0
C1958 C 0.61229 0.18884 0.86672 0.0
C1959 C 0.60939 0.19827 0.87709 0.0
C1960 C 0.61324 0.21209 0.87575 0.0
C1961 C 0.6204 0.21619 0.86392 0.0
C1962 C 0.62326 0.20672 0.85348 0.0
H1963 H 0.64408 0.15968 0.85589 0.0
H1964 H 0.6405 0.17665 0.86237 0.0
H1965 H 0.62876 0.16278 0.86556 0.0
H1966 H 0.60874 0.17838 0.86783 0.0
H1967 H 0.60381 0.19476 0.88603 0.0
H1968 H 0.8625 0.3821 0.22689 0.0
H1969 H 0.84429 0.37685 0.21032 0.0
H1970 H 0.86776 0.39632 0.17833 0.0
H1971 H 0.88594 0.40147 0.19467 0.0
H1972 H 0.82949 0.39622 0.19542 0.0
H1973 H 0.85593 0.36067 0.16007 0.0
H1974 H 0.86234 0.36443 0.17703 0.0
H1975 H 0.8656 0.37602 0.16304 0.0
C1976 C 0.86387 0.38504 0.21627 0.0
C1977 C 0.87568 0.39219 0.2121 0.0
C1978 C 0.85345 0.38206 0.20683 0.0
C1979 C 0.85475 0.38601 0.19304 0.0
C1980 C 0.86666 0.39288 0.18883 0.0
H1981 H 0.81059 0.40137 0.12045 0.0
H1982 H 0.82693 0.39678 0.1388 0.0
C1983 C 0.87701 0.39591 0.19823 0.0
C1984 C 0.84328 0.38409 0.1832 0.0
H1985 H 0.83603 0.37224 0.15106 0.0
C1986 C 0.83079 0.39073 0.18584 0.0
C1987 C 0.845 0.37693 0.17071 0.0
C1988 C 0.8579 0.36899 0.16759 0.0
C1989 C 0.8203 0.39114 0.17597 0.0
C1990 C 0.82229 0.38452 0.1632 0.0
C1991 C 0.83453 0.37733 0.16083 0.0
C1992 C 0.81241 0.38611 0.15173 0.0
C1993 C 0.80752 0.39933 0.17896 0.0
C1994 C 0.79887 0.38132 0.15272 0.0
C1995 C 0.78943 0.38395 0.14219 0.0
C1996 C 0.79342 0.39139 0.13049 0.0
C1997 C 0.80714 0.39567 0.12933 0.0
C1998 C 0.81652 0.39303 0.13981 0.0
H1999 H 0.80865 0.40581 0.18825 0.0
H2000 H 0.8049 0.40603 0.17014 0.0
H2001 H 0.79881 0.39221 0.18066 0.0
H2002 H 0.79553 0.37576 0.16173 0.0
H2003 H 0.77896 0.38048 0.14338 0.0
H2004 H 0.60319 0.88591 0.19501 0.0
H2005 H 0.60784 0.86745 0.17883 0.0
H2006 H 0.62944 0.84511 0.21026 0.0
H2007 H 0.62464 0.86355 0.22669 0.0
H2008 H 0.63239 0.85554 0.1696 0.0
H2009 H 0.59983 0.81795 0.19762 0.0
H2010 H 0.59935 0.83607 0.20128 0.0
H2011 H 0.61342 0.82582 0.20727 0.0
C2012 C 0.60902 0.87713 0.1985 0.0
C2013 C 0.61344 0.87616 0.21219 0.0
C2014 C 0.61169 0.86658 0.18921 0.0
C2015 C 0.6188 0.8548 0.19338 0.0
C2016 C 0.62372 0.854 0.20689 0.0
H2017 H 0.62413 0.77937 0.14381 0.0
H2018 H 0.62908 0.79619 0.16188 0.0
C2019 C 0.62105 0.86459 0.21624 0.0
C2020 C 0.6205 0.84328 0.18358 0.0
H2021 H 0.60941 0.81076 0.17677 0.0
C2022 C 0.62751 0.84569 0.17124 0.0
C2023 C 0.61417 0.8304 0.18574 0.0
C2024 C 0.60618 0.82735 0.19863 0.0
C2025 C 0.62801 0.83573 0.16085 0.0
C2026 C 0.62114 0.82311 0.16275 0.0
C2027 C 0.61468 0.82044 0.17533 0.0
C2028 C 0.61933 0.81313 0.15139 0.0
C2029 C 0.63573 0.83891 0.14783 0.0
C2030 C 0.61221 0.81707 0.13953 0.0
C2031 C 0.60936 0.80752 0.12926 0.0
C2032 C 0.6135 0.79378 0.13064 0.0
C2033 C 0.62087 0.78989 0.14241 0.0
C2034 C 0.62368 0.79947 0.15274 0.0
H2035 H 0.64389 0.84665 0.14963 0.0
H2036 H 0.64048 0.82953 0.14345 0.0
H2037 H 0.62851 0.84319 0.14016 0.0
H2038 H 0.60848 0.82746 0.13839 0.0
H2039 H 0.60361 0.81087 0.12037 0.0
H2040 H 0.14358 0.62449 0.2271 0.0
H2041 H 0.16188 0.62944 0.21055 0.0
H2042 H 0.13795 0.6107 0.17847 0.0
H2043 H 0.11969 0.60585 0.19479 0.0
H2044 H 0.17625 0.60989 0.19558 0.0
H2045 H 0.15058 0.6461 0.16034 0.0
H2046 H 0.14406 0.64239 0.17727 0.0
H2047 H 0.14057 0.63094 0.16322 0.0
C2048 C 0.14212 0.62166 0.21647 0.0
C2049 C 0.13016 0.61479 0.21227 0.0
C2050 C 0.1526 0.62447 0.20703 0.0
C2051 C 0.15121 0.62063 0.19322 0.0
C2052 C 0.13914 0.61405 0.18898 0.0
H2053 H 0.19489 0.60448 0.12054 0.0
H2054 H 0.17873 0.60926 0.139 0.0
C2055 C 0.12873 0.6112 0.19838 0.0
C2056 C 0.16271 0.62233 0.18339 0.0
H2057 H 0.17018 0.63407 0.15125 0.0
C2058 C 0.17506 0.61542 0.18601 0.0
C2059 C 0.16114 0.62955 0.17091 0.0
C2060 C 0.14842 0.63778 0.16781 0.0
C2061 C 0.18553 0.6148 0.17612 0.0
C2062 C 0.18367 0.62147 0.16336 0.0
C2063 C 0.17158 0.62893 0.16102 0.0
C2064 C 0.19349 0.61967 0.15187 0.0
C2065 C 0.19815 0.60635 0.17909 0.0
C2066 C 0.20711 0.62423 0.1528 0.0
C2067 C 0.21644 0.62149 0.14221 0.0
C2068 C 0.21227 0.61417 0.13051 0.0
C2069 C 0.19848 0.61009 0.12942 0.0
C2070 C 0.1892 0.61283 0.13997 0.0
H2071 H 0.19691 0.59991 0.1884 0.0
H2072 H 0.20059 0.59957 0.17027 0.0
H2073 H 0.20701 0.61328 0.18073 0.0
H2074 H 0.21058 0.62972 0.1618 0.0
H2075 H 0.22697 0.62482 0.14334 0.0
H2076 H 0.403 0.19633 0.11939 0.0
H2077 H 0.39971 0.17968 0.13773 0.0
H2078 H 0.37951 0.2104 0.16225 0.0
H2079 H 0.38268 0.22723 0.1438 0.0
H2080 H 0.41096 0.18363 0.16433 0.0
H2081 H 0.35442 0.17602 0.16601 0.0
H2082 H 0.36305 0.18296 0.15116 0.0
H2083 H 0.36055 0.19341 0.16608 0.0
C2084 C 0.39765 0.19954 0.12858 0.0
C2085 C 0.39314 0.21314 0.13014 0.0
C2086 C 0.39579 0.18999 0.13906 0.0
C2087 C 0.38931 0.19377 0.15133 0.0
C2088 C 0.38435 0.20721 0.15278 0.0
H2089 H 0.38325 0.14462 0.22687 0.0
H2090 H 0.38041 0.16315 0.21003 0.0
C2091 C 0.38622 0.21682 0.14225 0.0
C2092 C 0.38894 0.18389 0.1629 0.0
H2093 H 0.36766 0.16396 0.18235 0.0
C2094 C 0.40148 0.17938 0.1683 0.0
C2095 C 0.37656 0.17847 0.16816 0.0
C2096 C 0.36285 0.18285 0.16254 0.0
C2097 C 0.40201 0.1694 0.17863 0.0
C2098 C 0.38968 0.16358 0.18355 0.0
C2099 C 0.37709 0.1684 0.1785 0.0
C2100 C 0.38988 0.15199 0.19338 0.0
C2101 C 0.41581 0.16511 0.18417 0.0
C2102 C 0.39572 0.13946 0.18946 0.0
C2103 C 0.39737 0.12892 0.199 0.0
C2104 C 0.39315 0.13066 0.21268 0.0
C2105 C 0.38664 0.14297 0.21643 0.0
C2106 C 0.385 0.15356 0.20683 0.0
H2107 H 0.42382 0.17292 0.18203 0.0
H2108 H 0.41533 0.16335 0.1954 0.0
H2109 H 0.41898 0.15539 0.17919 0.0
H2110 H 0.39937 0.13796 0.17908 0.0
H2111 H 0.40232 0.11954 0.19572 0.0
H2112 H 0.88651 0.8107 0.6031 0.0
H2113 H 0.86819 0.82733 0.60657 0.0
H2114 H 0.84373 0.79647 0.62662 0.0
H2115 H 0.86216 0.77966 0.62326 0.0
H2116 H 0.84156 0.82325 0.59529 0.0
H2117 H 0.83994 0.83085 0.65184 0.0
H2118 H 0.85483 0.82403 0.64319 0.0
H2119 H 0.83999 0.81347 0.64564 0.0
C2120 C 0.87734 0.80746 0.60845 0.0
C2121 C 0.87578 0.79382 0.61285 0.0
C2122 C 0.86687 0.817 0.61043 0.0
C2123 C 0.85462 0.81316 0.6169 0.0
C2124 C 0.85318 0.7997 0.62177 0.0
H2125 H 0.77915 0.86249 0.62255 0.0
H2126 H 0.7959 0.84391 0.62562 0.0
C2127 C 0.8637 0.79009 0.6198 0.0
C2128 C 0.84304 0.82302 0.6173 0.0
H2129 H 0.8237 0.84304 0.63861 0.0
C2130 C 0.83762 0.82752 0.60477 0.0
C2131 C 0.83782 0.82846 0.62969 0.0
C2132 C 0.84345 0.82407 0.64339 0.0
C2133 C 0.82732 0.83752 0.60424 0.0
C2134 C 0.82246 0.84338 0.61658 0.0
C2135 C 0.82751 0.83856 0.62917 0.0
C2136 C 0.8127 0.85503 0.61637 0.0
C2137 C 0.82178 0.84183 0.59045 0.0
C2138 C 0.81674 0.86755 0.61058 0.0
C2139 C 0.80726 0.8781 0.6088 0.0
C2140 C 0.79352 0.8764 0.61283 0.0
C2141 C 0.78965 0.86411 0.61931 0.0
C2142 C 0.79919 0.85349 0.62108 0.0
H2143 H 0.82391 0.83403 0.58243 0.0
H2144 H 0.81055 0.8436 0.59094 0.0
H2145 H 0.82676 0.85155 0.58729 0.0
H2146 H 0.82717 0.869 0.60706 0.0
H2147 H 0.81063 0.88747 0.60388 0.0
H2148 H 0.86157 0.22708 0.38373 0.0
H2149 H 0.84297 0.21034 0.38075 0.0
H2150 H 0.86825 0.179 0.39895 0.0
H2151 H 0.88674 0.19554 0.40204 0.0
H2152 H 0.842 0.18269 0.36761 0.0
H2153 H 0.8335 0.18196 0.42386 0.0
H2154 H 0.843 0.19539 0.41538 0.0
H2155 H 0.851 0.17916 0.41884 0.0
C2156 C 0.86322 0.21657 0.3869 0.0
C2157 C 0.87558 0.21268 0.39326 0.0
C2158 C 0.8526 0.20703 0.38519 0.0
C2159 C 0.85419 0.1935 0.38983 0.0
C2160 C 0.86676 0.18945 0.39549 0.0
H2161 H 0.81054 0.11929 0.40266 0.0
H2162 H 0.82696 0.13781 0.39926 0.0
C2163 C 0.87733 0.19893 0.39722 0.0
C2164 C 0.84255 0.18372 0.38964 0.0
H2165 H 0.82273 0.16432 0.41095 0.0
C2166 C 0.83763 0.17877 0.37705 0.0
C2167 C 0.83683 0.17873 0.40199 0.0
C2168 C 0.84124 0.18416 0.41579 0.0
C2169 C 0.82758 0.16842 0.37654 0.0
C2170 C 0.82229 0.16305 0.38893 0.0
C2171 C 0.82688 0.16838 0.40147 0.0
C2172 C 0.81254 0.15139 0.38931 0.0
C2173 C 0.82308 0.1629 0.36283 0.0
C2174 C 0.79899 0.15279 0.38463 0.0
C2175 C 0.78951 0.14215 0.38657 0.0
C2176 C 0.79343 0.13 0.39329 0.0
C2177 C 0.80714 0.12851 0.39749 0.0
C2178 C 0.81656 0.13909 0.39555 0.0
H2179 H 0.82971 0.16659 0.35434 0.0
H2180 H 0.82318 0.15152 0.3629 0.0
H2181 H 0.81241 0.16626 0.36075 0.0
H2182 H 0.79562 0.16228 0.37996 0.0
H2183 H 0.77902 0.14365 0.38327 0.0
H2184 H 0.81062 0.88563 0.40134 0.0
H2185 H 0.82689 0.86733 0.39645 0.0
H2186 H 0.7948 0.84362 0.37746 0.0
H2187 H 0.77829 0.86197 0.38244 0.0
H2188 H 0.80968 0.8291 0.39699 0.0
H2189 H 0.84506 0.85486 0.36099 0.0
H2190 H 0.84216 0.86479 0.37619 0.0
H2191 H 0.82813 0.86139 0.36469 0.0
C2192 C 0.80702 0.87663 0.39593 0.0
C2193 C 0.79314 0.87528 0.39227 0.0
C2194 C 0.81638 0.8662 0.39306 0.0
C2195 C 0.81213 0.85419 0.3864 0.0
C2196 C 0.79833 0.85286 0.3825 0.0
H2197 H 0.86185 0.77834 0.38193 0.0
H2198 H 0.84345 0.7948 0.37701 0.0
C2199 C 0.78892 0.86336 0.38533 0.0
C2200 C 0.82193 0.84267 0.38465 0.0
H2201 H 0.85407 0.83517 0.37294 0.0
C2202 C 0.81927 0.83029 0.39149 0.0
C2203 C 0.83443 0.84424 0.37746 0.0
C2204 C 0.83757 0.857 0.3693 0.0
C2205 C 0.82913 0.81979 0.39207 0.0
C2206 C 0.8419 0.82166 0.38544 0.0
C2207 C 0.84429 0.83377 0.37805 0.0
C2208 C 0.85337 0.81181 0.38723 0.0
C2209 C 0.82611 0.80714 0.40045 0.0
C2210 C 0.86523 0.81602 0.39417 0.0
C2211 C 0.87573 0.8067 0.39693 0.0
C2212 C 0.87465 0.79295 0.39276 0.0
C2213 C 0.86298 0.78885 0.38533 0.0
C2214 C 0.85243 0.79821 0.38258 0.0
H2215 H 0.81677 0.80835 0.40685 0.0
H2216 H 0.8245 0.79831 0.39347 0.0
H2217 H 0.83489 0.80466 0.40726 0.0
H2218 H 0.86619 0.82647 0.39782 0.0
H2219 H 0.88459 0.81024 0.40262 0.0
H2220 H 0.14318 0.77908 0.38408 0.0
H2221 H 0.16179 0.79579 0.38102 0.0
H2222 H 0.13677 0.82707 0.39967 0.0
H2223 H 0.11828 0.81055 0.40285 0.0
H2224 H 0.16271 0.82354 0.36806 0.0
H2225 H 0.17175 0.82381 0.42423 0.0
H2226 H 0.16214 0.81046 0.41574 0.0
H2227 H 0.15422 0.82669 0.41939 0.0
C2228 C 0.14158 0.78957 0.38734 0.0
C2229 C 0.1293 0.79345 0.39385 0.0
C2230 C 0.15222 0.79909 0.38558 0.0
C2231 C 0.15071 0.81259 0.39032 0.0
C2232 C 0.1382 0.81664 0.39613 0.0
H2233 H 0.19493 0.88646 0.4034 0.0
H2234 H 0.17834 0.86809 0.39999 0.0
C2235 C 0.12763 0.80717 0.39791 0.0
C2236 C 0.16237 0.82234 0.39009 0.0
H2237 H 0.18249 0.84148 0.41135 0.0
C2238 C 0.16718 0.82737 0.37749 0.0
C2239 C 0.16823 0.82721 0.40242 0.0
C2240 C 0.16393 0.82169 0.41622 0.0
C2241 C 0.17727 0.83768 0.37696 0.0
C2242 C 0.18271 0.84293 0.38933 0.0
C2243 C 0.17822 0.83752 0.40188 0.0
C2244 C 0.19254 0.85452 0.38971 0.0
C2245 C 0.18166 0.84328 0.36324 0.0
C2246 C 0.20602 0.85308 0.38485 0.0
C2247 C 0.21559 0.86363 0.38678 0.0
C2248 C 0.21184 0.87573 0.39369 0.0
C2249 C 0.1982 0.87728 0.39808 0.0
C2250 C 0.18868 0.86678 0.39614 0.0
H2251 H 0.17489 0.83974 0.3548 0.0
H2252 H 0.18167 0.85467 0.36342 0.0
H2253 H 0.19227 0.83984 0.36101 0.0
H2254 H 0.20926 0.84362 0.38003 0.0
H2255 H 0.22603 0.8621 0.38333 0.0
H2256 H 0.19568 0.11915 0.40292 0.0
H2257 H 0.17907 0.13752 0.39958 0.0
H2258 H 0.20992 0.16202 0.37957 0.0
H2259 H 0.22672 0.14354 0.38281 0.0
H2260 H 0.18326 0.16418 0.41094 0.0
H2261 H 0.17544 0.16583 0.35442 0.0
H2262 H 0.18221 0.1509 0.36304 0.0
H2263 H 0.19284 0.16569 0.36056 0.0
C2264 C 0.19893 0.12833 0.3976 0.0
C2265 C 0.21256 0.12989 0.39318 0.0
C2266 C 0.1894 0.13883 0.3957 0.0
C2267 C 0.19324 0.1511 0.38928 0.0
C2268 C 0.2067 0.15255 0.38438 0.0
H2269 H 0.14394 0.22661 0.3836 0.0
H2270 H 0.16253 0.20985 0.3806 0.0
C2271 C 0.21629 0.142 0.38628 0.0
C2272 C 0.18339 0.1627 0.38892 0.0
H2273 H 0.16332 0.18207 0.3677 0.0
C2274 C 0.17895 0.16813 0.40148 0.0
C2275 C 0.1779 0.16792 0.37656 0.0
C2276 C 0.18223 0.16228 0.36284 0.0
C2277 C 0.16897 0.17845 0.40204 0.0
C2278 C 0.16307 0.18332 0.38972 0.0
C2279 C 0.16783 0.17826 0.37711 0.0
C2280 C 0.15144 0.1931 0.38997 0.0
C2281 C 0.16474 0.184 0.41585 0.0
C2282 C 0.13893 0.1891 0.39581 0.0
C2283 C 0.12837 0.19858 0.39755 0.0
C2284 C 0.13005 0.21229 0.39342 0.0
C2285 C 0.14234 0.21613 0.38691 0.0
C2286 C 0.15296 0.20659 0.38518 0.0
H2287 H 0.17258 0.18187 0.42383 0.0
H2288 H 0.16298 0.19524 0.41535 0.0
H2289 H 0.15502 0.17904 0.41905 0.0
H2290 H 0.13749 0.17869 0.3994 0.0
H2291 H 0.11901 0.19523 0.4025 0.0
H2292 H 0.2277 0.14449 0.62456 0.0
H2293 H 0.2111 0.16276 0.6295 0.0
H2294 H 0.17911 0.1388 0.61065 0.0
H2295 H 0.19548 0.12058 0.6058 0.0
H2296 H 0.19603 0.17715 0.60996 0.0
H2297 H 0.16099 0.15122 0.64617 0.0
H2298 H 0.17795 0.1448 0.64242 0.0
H2299 H 0.16391 0.14128 0.63098 0.0
C2300 C 0.21708 0.14303 0.62169 0.0
C2301 C 0.21291 0.13107 0.6148 0.0
C2302 C 0.20761 0.15349 0.6245 0.0
C2303 C 0.19381 0.15207 0.62063 0.0
C2304 C 0.18962 0.14001 0.61402 0.0
H2305 H 0.1209 0.19561 0.60499 0.0
H2306 H 0.13942 0.17948 0.60962 0.0
C2307 C 0.19904 0.12962 0.61116 0.0
C2308 C 0.18394 0.16353 0.62239 0.0
H2309 H 0.15183 0.17085 0.63429 0.0
C2310 C 0.18648 0.17591 0.61552 0.0
C2311 C 0.17149 0.16188 0.62965 0.0
C2312 C 0.16847 0.14912 0.63784 0.0
C2313 C 0.17656 0.18635 0.61498 0.0
C2314 C 0.16384 0.18442 0.62169 0.0
C2315 C 0.16156 0.1723 0.62911 0.0
C2316 C 0.15231 0.19422 0.62 0.0
C2317 C 0.17945 0.199 0.60656 0.0
C2318 C 0.15325 0.20784 0.62459 0.0
C2319 C 0.14262 0.21715 0.62194 0.0
C2320 C 0.13088 0.21298 0.61467 0.0
C2321 C 0.1298 0.19921 0.61056 0.0
C2322 C 0.14038 0.18994 0.61322 0.0
H2323 H 0.18873 0.1978 0.60006 0.0
H2324 H 0.1706 0.20146 0.59984 0.0
H2325 H 0.18113 0.20783 0.61352 0.0
H2326 H 0.16227 0.21131 0.63005 0.0
H2327 H 0.14375 0.22768 0.62529 0.0
H2328 H 0.77898 0.14464 0.62325 0.0
H2329 H 0.79573 0.16323 0.62615 0.0
H2330 H 0.82706 0.13786 0.60806 0.0
H2331 H 0.81051 0.11938 0.60504 0.0
H2332 H 0.82328 0.16427 0.63932 0.0
H2333 H 0.82427 0.17249 0.58304 0.0
H2334 H 0.81081 0.16302 0.5915 0.0
H2335 H 0.82707 0.15503 0.58815 0.0
C2336 C 0.78948 0.14297 0.62007 0.0
C2337 C 0.79337 0.13058 0.61377 0.0
C2338 C 0.79903 0.15359 0.62174 0.0
C2339 C 0.81256 0.15198 0.61711 0.0
C2340 C 0.81661 0.13938 0.61151 0.0
H2341 H 0.88679 0.19576 0.60437 0.0
H2342 H 0.86829 0.1793 0.60771 0.0
C2343 C 0.80712 0.12881 0.60982 0.0
C2344 C 0.82236 0.1636 0.61729 0.0
H2345 H 0.84184 0.18334 0.59597 0.0
C2346 C 0.82725 0.16859 0.62987 0.0
C2347 C 0.82741 0.16926 0.60493 0.0
C2348 C 0.82205 0.16479 0.59113 0.0
C2349 C 0.83759 0.17865 0.63039 0.0
C2350 C 0.84301 0.18389 0.618 0.0
C2351 C 0.83774 0.17923 0.60546 0.0
C2352 C 0.85464 0.19368 0.61762 0.0
C2353 C 0.84304 0.18322 0.6441 0.0
C2354 C 0.8532 0.20722 0.6223 0.0
C2355 C 0.86383 0.21673 0.6204 0.0
C2356 C 0.87601 0.21283 0.61372 0.0
C2357 C 0.87755 0.19913 0.60951 0.0
C2358 C 0.86698 0.18969 0.61141 0.0
H2359 H 0.83938 0.17658 0.6526 0.0
H2360 H 0.85442 0.18321 0.64407 0.0
H2361 H 0.83959 0.19387 0.64615 0.0
H2362 H 0.84369 0.21057 0.62695 0.0
H2363 H 0.8623 0.22721 0.62371 0.0
H2364 H 0.19511 0.88718 0.60284 0.0
H2365 H 0.17859 0.86876 0.60633 0.0
H2366 H 0.20957 0.84456 0.62652 0.0
H2367 H 0.22627 0.86309 0.62314 0.0
H2368 H 0.18292 0.84209 0.59514 0.0
H2369 H 0.17511 0.84069 0.65167 0.0
H2370 H 0.18182 0.8556 0.64298 0.0
H2371 H 0.1925 0.84086 0.64552 0.0
C2372 C 0.1984 0.87805 0.60823 0.0
C2373 C 0.21204 0.87659 0.61266 0.0
C2374 C 0.18893 0.86752 0.61021 0.0
C2375 C 0.19283 0.85532 0.61673 0.0
C2376 C 0.20629 0.85397 0.62164 0.0
H2377 H 0.14373 0.77972 0.6226 0.0
H2378 H 0.16226 0.79652 0.62565 0.0
C2379 C 0.21583 0.86455 0.61966 0.0
C2380 C 0.18304 0.84369 0.61715 0.0
H2381 H 0.16301 0.82437 0.63847 0.0
C2382 C 0.17863 0.83817 0.60462 0.0
C2383 C 0.17757 0.83851 0.62954 0.0
C2384 C 0.18188 0.84422 0.64323 0.0
C2385 C 0.16867 0.82783 0.60411 0.0
C2386 C 0.16278 0.82302 0.61645 0.0
C2387 C 0.16752 0.82815 0.62903 0.0
C2388 C 0.15115 0.81324 0.61623 0.0
C2389 C 0.16446 0.8222 0.59033 0.0
C2390 C 0.13865 0.81722 0.61036 0.0
C2391 C 0.12812 0.80771 0.60859 0.0
C2392 C 0.12983 0.794 0.61272 0.0
C2393 C 0.1421 0.79019 0.61929 0.0
C2394 C 0.15269 0.79976 0.62104 0.0
H2395 H 0.17229 0.8243 0.58233 0.0
H2396 H 0.16271 0.81097 0.59088 0.0
H2397 H 0.15473 0.82714 0.58709 0.0
H2398 H 0.1372 0.82762 0.60677 0.0
H2399 H 0.11877 0.81103 0.60361 0.0
H2400 H 0.11311 0.2364 0.44858 0.0
H2401 H 0.11476 0.23833 0.47345 0.0
H2402 H 0.10953 0.28211 0.47059 0.0
H2403 H 0.10797 0.28032 0.44555 0.0
H2404 H 0.13024 0.2731 0.49001 0.0
H2405 H 0.08045 0.24653 0.49699 0.0
H2406 H 0.09243 0.2373 0.48649 0.0
H2407 H 0.08582 0.25351 0.48071 0.0
C2408 C 0.11241 0.24647 0.45318 0.0
C2409 C 0.11026 0.25819 0.44504 0.0
C2410 C 0.11331 0.24755 0.46742 0.0
C2411 C 0.11201 0.26033 0.47386 0.0
C2412 C 0.11047 0.27214 0.4658 0.0
H2413 H 0.10903 0.28026 0.56165 0.0
H2414 H 0.11064 0.28226 0.53665 0.0
C2415 C 0.10958 0.27109 0.4515 0.0
C2416 C 0.11172 0.26115 0.48904 0.0
H2417 H 0.09405 0.24962 0.51695 0.0
C2418 C 0.12228 0.26809 0.49593 0.0
C2419 C 0.10126 0.25468 0.49671 0.0
C2420 C 0.08927 0.24769 0.48987 0.0
C2421 C 0.12295 0.26821 0.51035 0.0
C2422 C 0.1127 0.26137 0.51798 0.0
C2423 C 0.10196 0.25477 0.51106 0.0
C2424 C 0.11302 0.26048 0.53316 0.0
C2425 C 0.13484 0.27524 0.51729 0.0
C2426 C 0.11382 0.2476 0.53949 0.0
C2427 C 0.11284 0.24641 0.55371 0.0
C2428 C 0.11095 0.25809 0.56196 0.0
C2429 C 0.11053 0.27106 0.55562 0.0
C2430 C 0.11151 0.27223 0.54134 0.0
H2431 H 0.14326 0.27757 0.50999 0.0
H2432 H 0.13126 0.28504 0.52181 0.0
H2433 H 0.13896 0.2688 0.52572 0.0
H2434 H 0.11495 0.2384 0.53336 0.0
H2435 H 0.11324 0.23627 0.55821 0.0
H2436 H 0.76938 0.1128 0.55845 0.0
H2437 H 0.76733 0.11448 0.5336 0.0
H2438 H 0.72342 0.11065 0.53679 0.0
H2439 H 0.72533 0.10906 0.56179 0.0
H2440 H 0.75594 0.09373 0.51714 0.0
H2441 H 0.72853 0.14324 0.51016 0.0
H2442 H 0.73721 0.13882 0.52591 0.0
H2443 H 0.72089 0.13131 0.52195 0.0
C2444 C 0.75924 0.11248 0.55394 0.0
C2445 C 0.74752 0.11075 0.56216 0.0
C2446 C 0.7581 0.11345 0.5397 0.0
C2447 C 0.74522 0.11279 0.53335 0.0
C2448 C 0.73344 0.11141 0.5415 0.0
H2449 H 0.72563 0.10802 0.44567 0.0
H2450 H 0.72378 0.10956 0.47071 0.0
C2451 C 0.73457 0.11044 0.55579 0.0
C2452 C 0.74438 0.11249 0.51817 0.0
H2453 H 0.73293 0.13021 0.49018 0.0
C2454 C 0.7509 0.1017 0.51125 0.0
C2455 C 0.73767 0.12283 0.51052 0.0
C2456 C 0.73074 0.13478 0.51746 0.0
C2457 C 0.75104 0.10103 0.4969 0.0
C2458 C 0.74469 0.11157 0.48922 0.0
C2459 C 0.73784 0.12219 0.49611 0.0
C2460 C 0.74557 0.11188 0.47405 0.0
C2461 C 0.75794 0.08899 0.49006 0.0
C2462 C 0.75838 0.11309 0.46765 0.0
C2463 C 0.75949 0.1122 0.45341 0.0
C2464 C 0.74778 0.11015 0.44524 0.0
C2465 C 0.73486 0.10956 0.45165 0.0
C2466 C 0.73378 0.11044 0.46595 0.0
H2467 H 0.75902 0.08015 0.49716 0.0
H2468 H 0.75211 0.0856 0.48088 0.0
H2469 H 0.76836 0.09206 0.48669 0.0
H2470 H 0.76759 0.11446 0.47371 0.0
H2471 H 0.76959 0.11284 0.44884 0.0
H2472 H 0.89208 0.76871 0.44952 0.0
H2473 H 0.88952 0.76582 0.47422 0.0
H2474 H 0.89135 0.72193 0.46945 0.0
H2475 H 0.89411 0.7247 0.44464 0.0
H2476 H 0.86983 0.75152 0.48993 0.0
H2477 H 0.92231 0.73019 0.49687 0.0
H2478 H 0.91703 0.73859 0.48126 0.0
H2479 H 0.91152 0.72139 0.4848 0.0
C2480 C 0.89188 0.75842 0.45367 0.0
C2481 C 0.89344 0.74694 0.44507 0.0
C2482 C 0.89038 0.7568 0.46781 0.0
C2483 C 0.89045 0.74368 0.47369 0.0
C2484 C 0.89152 0.73216 0.46514 0.0
H2485 H 0.89526 0.72474 0.56163 0.0
H2486 H 0.89205 0.72211 0.53685 0.0
C2487 C 0.89302 0.73377 0.45095 0.0
C2488 C 0.88983 0.74225 0.48882 0.0
H2489 H 0.90892 0.733 0.51669 0.0
C2490 C 0.87833 0.74737 0.49579 0.0
C2491 C 0.90091 0.73678 0.49644 0.0
C2492 C 0.9137 0.7315 0.48952 0.0
C2493 C 0.8777 0.7474 0.51017 0.0
C2494 C 0.88899 0.7424 0.51779 0.0
C2495 C 0.90028 0.73682 0.51082 0.0
C2496 C 0.88978 0.74381 0.53291 0.0
C2497 C 0.86499 0.75286 0.51708 0.0
C2498 C 0.88958 0.75688 0.53892 0.0
C2499 C 0.89142 0.75842 0.55303 0.0
C2500 C 0.89359 0.74692 0.56147 0.0
C2501 C 0.89357 0.73381 0.55546 0.0
C2502 C 0.89175 0.73228 0.54129 0.0
H2503 H 0.85591 0.75217 0.51024 0.0
H2504 H 0.86277 0.74719 0.5267 0.0
H2505 H 0.86656 0.76382 0.51968 0.0
H2506 H 0.88838 0.76595 0.53262 0.0
H2507 H 0.89141 0.76868 0.55727 0.0
H2508 H 0.23703 0.89256 0.44944 0.0
H2509 H 0.23997 0.89008 0.47416 0.0
H2510 H 0.28386 0.89174 0.46927 0.0
H2511 H 0.28104 0.8944 0.44445 0.0
H2512 H 0.25443 0.87035 0.48992 0.0
H2513 H 0.27555 0.92295 0.49653 0.0
H2514 H 0.26705 0.91759 0.481 0.0
H2515 H 0.28428 0.91213 0.48444 0.0
C2516 C 0.24734 0.89233 0.45357 0.0
C2517 C 0.2588 0.89381 0.44494 0.0
C2518 C 0.24899 0.89088 0.46772 0.0
C2519 C 0.26212 0.89093 0.47357 0.0
C2520 C 0.27363 0.89191 0.46498 0.0
H2521 H 0.28105 0.89636 0.56148 0.0
H2522 H 0.28372 0.89304 0.53671 0.0
C2523 C 0.27199 0.89336 0.45079 0.0
C2524 C 0.26359 0.89039 0.48869 0.0
H2525 H 0.27273 0.9097 0.51643 0.0
C2526 C 0.25854 0.8789 0.49573 0.0
C2527 C 0.269 0.90154 0.49623 0.0
C2528 C 0.2742 0.91431 0.48923 0.0
C2529 C 0.25853 0.87836 0.51011 0.0
C2530 C 0.26346 0.88972 0.51766 0.0
C2531 C 0.26896 0.901 0.51062 0.0
C2532 C 0.26203 0.8906 0.53278 0.0
C2533 C 0.25316 0.86566 0.51711 0.0
C2534 C 0.24896 0.89035 0.53878 0.0
C2535 C 0.2474 0.89225 0.55288 0.0
C2536 C 0.25888 0.89454 0.56131 0.0
C2537 C 0.272 0.89458 0.55531 0.0
C2538 C 0.27355 0.8927 0.54116 0.0
H2539 H 0.25392 0.85654 0.51032 0.0
H2540 H 0.25884 0.86353 0.52674 0.0
H2541 H 0.24219 0.86717 0.51969 0.0
H2542 H 0.23991 0.88906 0.53249 0.0
H2543 H 0.23714 0.8922 0.55712 0.0
H2544 H 0.10992 0.72497 0.56177 0.0
H2545 H 0.11291 0.72229 0.53697 0.0
H2546 H 0.11633 0.76613 0.53259 0.0
H2547 H 0.11351 0.76892 0.55726 0.0
H2548 H 0.09583 0.73305 0.51692 0.0
H2549 H 0.14868 0.75244 0.50998 0.0
H2550 H 0.14199 0.74748 0.52652 0.0
H2551 H 0.13805 0.76407 0.51948 0.0
C2552 C 0.11151 0.73403 0.55556 0.0
C2553 C 0.11148 0.74716 0.56153 0.0
C2554 C 0.1132 0.73247 0.54138 0.0
C2555 C 0.11504 0.74399 0.53296 0.0
C2556 C 0.11523 0.75707 0.53892 0.0
H2557 H 0.11196 0.76865 0.44952 0.0
H2558 H 0.11469 0.76584 0.47422 0.0
C2559 C 0.11352 0.75865 0.55305 0.0
C2560 C 0.11572 0.74254 0.51783 0.0
H2561 H 0.1346 0.75167 0.48979 0.0
C2562 C 0.1044 0.73689 0.51097 0.0
C2563 C 0.12692 0.74757 0.51011 0.0
C2564 C 0.13966 0.75311 0.5169 0.0
C2565 C 0.10366 0.7368 0.49659 0.0
C2566 C 0.11464 0.7423 0.48888 0.0
C2567 C 0.12618 0.74749 0.49573 0.0
C2568 C 0.11389 0.74369 0.47375 0.0
C2569 C 0.09083 0.73144 0.48979 0.0
C2570 C 0.11285 0.73214 0.46523 0.0
C2571 C 0.11125 0.7337 0.45105 0.0
C2572 C 0.11072 0.74685 0.44514 0.0
C2573 C 0.11225 0.75836 0.45369 0.0
C2574 C 0.11384 0.75679 0.46783 0.0
H2575 H 0.0823 0.7301 0.49721 0.0
H2576 H 0.0874 0.7385 0.48154 0.0
H2577 H 0.09304 0.72133 0.48507 0.0
H2578 H 0.1131 0.72192 0.46957 0.0
H2579 H 0.11018 0.72461 0.44476 0.0
H2580 H 0.28078 0.1087 0.44555 0.0
H2581 H 0.28257 0.11026 0.47059 0.0
H2582 H 0.23882 0.11575 0.47343 0.0
H2583 H 0.23688 0.11408 0.44856 0.0
H2584 H 0.27374 0.13093 0.49006 0.0
H2585 H 0.24673 0.08136 0.49689 0.0
H2586 H 0.25373 0.08673 0.48063 0.0
H2587 H 0.23758 0.09344 0.48644 0.0
C2588 C 0.27156 0.11037 0.45149 0.0
C2589 C 0.25867 0.1111 0.44504 0.0
C2590 C 0.27261 0.11127 0.46579 0.0
C2591 C 0.2608 0.11286 0.47385 0.0
C2592 C 0.24803 0.11425 0.4674 0.0
H2593 H 0.23661 0.11415 0.55814 0.0
H2594 H 0.23883 0.11592 0.53331 0.0
C2595 C 0.24696 0.11333 0.45316 0.0
C2596 C 0.26161 0.11253 0.48903 0.0
H2597 H 0.24988 0.09491 0.51688 0.0
C2598 C 0.26864 0.123 0.49596 0.0
C2599 C 0.25503 0.10211 0.49667 0.0
C2600 C 0.24795 0.09019 0.4898 0.0
C2601 C 0.26876 0.12364 0.51037 0.0
C2602 C 0.2618 0.11344 0.51798 0.0
C2603 C 0.25511 0.10278 0.51103 0.0
C2604 C 0.26089 0.11374 0.53316 0.0
C2605 C 0.2759 0.13543 0.51735 0.0
C2606 C 0.2726 0.11207 0.54136 0.0
C2607 C 0.27138 0.11106 0.55563 0.0
C2608 C 0.25841 0.1116 0.56194 0.0
C2609 C 0.24676 0.11365 0.55367 0.0
C2610 C 0.248 0.11466 0.53945 0.0
H2611 H 0.27834 0.14384 0.51007 0.0
H2612 H 0.26948 0.13961 0.52577 0.0
H2613 H 0.28565 0.13174 0.5219 0.0
H2614 H 0.28263 0.1111 0.53669 0.0
H2615 H 0.28055 0.10943 0.56168 0.0
H2616 H 0.89309 0.2367 0.55831 0.0
H2617 H 0.89141 0.23865 0.53345 0.0
H2618 H 0.8967 0.28241 0.5363 0.0
H2619 H 0.8983 0.28062 0.56134 0.0
H2620 H 0.8759 0.27341 0.51694 0.0
H2621 H 0.92569 0.24683 0.50983 0.0
H2622 H 0.91373 0.23762 0.52037 0.0
H2623 H 0.92036 0.25383 0.52612 0.0
C2624 C 0.89381 0.24678 0.55372 0.0
C2625 C 0.89599 0.25849 0.56185 0.0
C2626 C 0.89288 0.24786 0.53948 0.0
C2627 C 0.89418 0.26063 0.53303 0.0
C2628 C 0.89575 0.27244 0.54109 0.0
H2629 H 0.897 0.28072 0.44529 0.0
H2630 H 0.89538 0.28265 0.47029 0.0
C2631 C 0.89667 0.27139 0.55539 0.0
C2632 C 0.89443 0.26147 0.51786 0.0
H2633 H 0.91206 0.24998 0.4899 0.0
C2634 C 0.88385 0.2684 0.51099 0.0
C2635 C 0.90488 0.255 0.51016 0.0
C2636 C 0.91689 0.24801 0.51697 0.0
C2637 C 0.88315 0.26854 0.49658 0.0
C2638 C 0.8934 0.26172 0.48891 0.0
C2639 C 0.90415 0.25511 0.49581 0.0
C2640 C 0.89306 0.26087 0.47373 0.0
C2641 C 0.87124 0.27558 0.48967 0.0
C2642 C 0.8923 0.248 0.46738 0.0
C2643 C 0.89329 0.24684 0.45315 0.0
C2644 C 0.89515 0.25855 0.44494 0.0
C2645 C 0.89552 0.2715 0.4513 0.0
C2646 C 0.89454 0.27264 0.46558 0.0
H2647 H 0.86282 0.27786 0.49699 0.0
H2648 H 0.8748 0.2854 0.48518 0.0
H2649 H 0.86713 0.26915 0.48122 0.0
H2650 H 0.8912 0.23878 0.47349 0.0
H2651 H 0.89292 0.23671 0.44864 0.0
H2652 H 0.72507 0.89502 0.44449 0.0
H2653 H 0.72235 0.89244 0.46932 0.0
H2654 H 0.76625 0.89042 0.47399 0.0
H2655 H 0.76909 0.89281 0.44926 0.0
H2656 H 0.75192 0.87095 0.4899 0.0
H2657 H 0.7308 0.92354 0.49648 0.0
H2658 H 0.72191 0.91272 0.48452 0.0
H2659 H 0.73913 0.9181 0.48089 0.0
C2660 C 0.73415 0.89392 0.45078 0.0
C2661 C 0.7473 0.89424 0.44486 0.0
C2662 C 0.73257 0.89252 0.46498 0.0
C2663 C 0.74411 0.89147 0.47352 0.0
C2664 C 0.75721 0.89128 0.4676 0.0
H2665 H 0.76889 0.89274 0.55726 0.0
H2666 H 0.76629 0.88976 0.53259 0.0
C2667 C 0.7588 0.89268 0.45344 0.0
C2668 C 0.74271 0.89097 0.48866 0.0
H2669 H 0.73348 0.91025 0.51639 0.0
C2670 C 0.74779 0.87949 0.4957 0.0
C2671 C 0.73727 0.90211 0.4962 0.0
C2672 C 0.73205 0.91488 0.4892 0.0
C2673 C 0.7478 0.87896 0.51009 0.0
C2674 C 0.74282 0.89029 0.51763 0.0
C2675 C 0.73729 0.90156 0.51059 0.0
C2676 C 0.74416 0.89114 0.53276 0.0
C2677 C 0.75321 0.86627 0.51709 0.0
C2678 C 0.73258 0.89311 0.54108 0.0
C2679 C 0.73403 0.8949 0.55525 0.0
C2680 C 0.74711 0.8949 0.56134 0.0
C2681 C 0.75866 0.89276 0.55296 0.0
C2682 C 0.75719 0.89095 0.53883 0.0
H2683 H 0.75257 0.85717 0.51028 0.0
H2684 H 0.76416 0.86786 0.51975 0.0
H2685 H 0.74748 0.86409 0.52668 0.0
H2686 H 0.72243 0.89341 0.53658 0.0
H2687 H 0.72492 0.89656 0.56138 0.0
H2688 H 0.44495 0.10952 0.28103 0.0
H2689 H 0.46994 0.11145 0.28289 0.0
H2690 H 0.47296 0.11554 0.23899 0.0
H2691 H 0.44813 0.11352 0.23699 0.0
H2692 H 0.48972 0.09491 0.25032 0.0
H2693 H 0.4961 0.14448 0.27778 0.0
H2694 H 0.48447 0.13236 0.28537 0.0
H2695 H 0.4804 0.13989 0.26909 0.0
C2696 C 0.45092 0.11103 0.27179 0.0
C2697 C 0.44451 0.11131 0.25885 0.0
C2698 C 0.46519 0.11219 0.27289 0.0
C2699 C 0.47329 0.11374 0.26109 0.0
C2700 C 0.46689 0.11438 0.24823 0.0
H2701 H 0.55757 0.11488 0.2361 0.0
H2702 H 0.53271 0.11632 0.23832 0.0
C2703 C 0.45268 0.11321 0.24712 0.0
C2704 C 0.48847 0.11366 0.26188 0.0
H2705 H 0.51625 0.13182 0.27312 0.0
C2706 C 0.49552 0.10297 0.25532 0.0
C2707 C 0.496 0.12411 0.26854 0.0
C2708 C 0.48891 0.13594 0.27553 0.0
C2709 C 0.50988 0.10253 0.25508 0.0
C2710 C 0.51742 0.1132 0.26135 0.0
C2711 C 0.51042 0.1237 0.26826 0.0
C2712 C 0.53258 0.11374 0.26035 0.0
C2713 C 0.51686 0.09058 0.24815 0.0
C2714 C 0.5408 0.1124 0.27208 0.0
C2715 C 0.55509 0.11163 0.27086 0.0
C2716 C 0.56138 0.11223 0.25788 0.0
C2717 C 0.5531 0.11424 0.24624 0.0
C2718 C 0.53886 0.11502 0.24748 0.0
H2719 H 0.50989 0.08163 0.24714 0.0
H2720 H 0.52009 0.0937 0.23769 0.0
H2721 H 0.52613 0.08736 0.25391 0.0
H2722 H 0.53613 0.11148 0.28211 0.0
H2723 H 0.56116 0.11014 0.28004 0.0
H2724 H 0.89478 0.56173 0.28047 0.0
H2725 H 0.89191 0.53694 0.28329 0.0
H2726 H 0.88955 0.53214 0.23942 0.0
H2727 H 0.89223 0.55683 0.23648 0.0
H2728 H 0.86992 0.51654 0.25407 0.0
H2729 H 0.92269 0.50939 0.27458 0.0
H2730 H 0.91209 0.52154 0.2835 0.0
H2731 H 0.91736 0.525 0.2662 0.0
C2732 C 0.89354 0.55542 0.27142 0.0
C2733 C 0.89385 0.56128 0.25823 0.0
C2734 C 0.89198 0.54124 0.27306 0.0
C2735 C 0.89074 0.53269 0.26155 0.0
C2736 C 0.89054 0.53856 0.24843 0.0
H2737 H 0.89102 0.44915 0.2365 0.0
H2738 H 0.88804 0.4738 0.23931 0.0
C2739 C 0.89211 0.55269 0.24678 0.0
C2740 C 0.89007 0.51757 0.26301 0.0
H2741 H 0.9092 0.48963 0.27193 0.0
C2742 C 0.87845 0.51065 0.25808 0.0
C2743 C 0.9012 0.50991 0.2683 0.0
C2744 C 0.91411 0.51678 0.27337 0.0
C2745 C 0.87777 0.49627 0.25806 0.0
C2746 C 0.88911 0.48861 0.26286 0.0
C2747 C 0.90052 0.49553 0.26825 0.0
C2748 C 0.88984 0.47348 0.26142 0.0
C2749 C 0.86494 0.48941 0.25283 0.0
C2750 C 0.89201 0.46509 0.27291 0.0
C2751 C 0.8938 0.45094 0.27133 0.0
C2752 C 0.8936 0.44494 0.25821 0.0
C2753 C 0.89121 0.45338 0.24676 0.0
C2754 C 0.88939 0.46749 0.24835 0.0
H2755 H 0.8559 0.49629 0.25369 0.0
H2756 H 0.86631 0.48683 0.24183 0.0
H2757 H 0.86279 0.4798 0.25852 0.0
H2758 H 0.8925 0.46953 0.28308 0.0
H2759 H 0.89566 0.44476 0.28037 0.0
H2760 H 0.55676 0.89335 0.23617 0.0
H2761 H 0.53202 0.89097 0.23883 0.0
H2762 H 0.53644 0.89226 0.28279 0.0
H2763 H 0.5613 0.89485 0.28025 0.0
H2764 H 0.51596 0.87139 0.25263 0.0
H2765 H 0.50943 0.92356 0.27478 0.0
H2766 H 0.52508 0.91821 0.26649 0.0
H2767 H 0.52125 0.91249 0.28357 0.0
C2768 C 0.55253 0.89306 0.24643 0.0
C2769 C 0.56104 0.89443 0.258 0.0
C2770 C 0.53836 0.89167 0.24792 0.0
C2771 C 0.53237 0.89166 0.26099 0.0
C2772 C 0.54084 0.8925 0.2726 0.0
H2773 H 0.44446 0.89629 0.27982 0.0
H2774 H 0.46925 0.89315 0.28227 0.0
C2775 C 0.55506 0.8939 0.27112 0.0
C2776 C 0.51722 0.89119 0.26228 0.0
H2777 H 0.48949 0.91041 0.27165 0.0
C2778 C 0.51017 0.87987 0.25688 0.0
C2779 C 0.50968 0.90226 0.26787 0.0
C2780 C 0.51669 0.91488 0.27342 0.0
C2781 C 0.49578 0.87941 0.25672 0.0
C2782 C 0.48825 0.89068 0.26187 0.0
C2783 C 0.49529 0.90179 0.2677 0.0
C2784 C 0.47313 0.8916 0.26049 0.0
C2785 C 0.48876 0.8669 0.25097 0.0
C2786 C 0.46709 0.89181 0.24744 0.0
C2787 C 0.45296 0.89363 0.24599 0.0
C2788 C 0.44455 0.89535 0.25758 0.0
C2789 C 0.45061 0.89496 0.27068 0.0
C2790 C 0.46478 0.89317 0.2721 0.0
H2791 H 0.49555 0.85776 0.25134 0.0
H2792 H 0.47917 0.86458 0.25666 0.0
H2793 H 0.48607 0.8688 0.24008 0.0
H2794 H 0.47336 0.89091 0.23832 0.0
H2795 H 0.44867 0.89392 0.23575 0.0
H2796 H 0.11464 0.5581 0.23556 0.0
H2797 H 0.11654 0.53324 0.23749 0.0
H2798 H 0.1107 0.53597 0.2812 0.0
H2799 H 0.1089 0.56098 0.27943 0.0
H2800 H 0.13158 0.51659 0.27241 0.0
H2801 H 0.0821 0.5097 0.24522 0.0
H2802 H 0.0942 0.52021 0.23618 0.0
H2803 H 0.08739 0.52595 0.25231 0.0
C2804 C 0.11387 0.55347 0.24563 0.0
C2805 C 0.11146 0.56155 0.25733 0.0
C2806 C 0.11492 0.53924 0.24669 0.0
C2807 C 0.1135 0.53276 0.25944 0.0
C2808 C 0.11174 0.54079 0.27125 0.0
H2809 H 0.10969 0.44516 0.27961 0.0
H2810 H 0.11164 0.47013 0.2815 0.0
C2811 C 0.11071 0.55508 0.27021 0.0
C2812 C 0.11321 0.51759 0.26024 0.0
H2813 H 0.09558 0.48973 0.24856 0.0
C2814 C 0.12367 0.51068 0.26731 0.0
C2815 C 0.1028 0.50995 0.25365 0.0
C2816 C 0.0909 0.51681 0.24652 0.0
C2817 C 0.12429 0.49627 0.26748 0.0
C2818 C 0.11409 0.48866 0.26054 0.0
C2819 C 0.10346 0.4956 0.25378 0.0
C2820 C 0.11432 0.47348 0.25974 0.0
C2821 C 0.13606 0.4893 0.27469 0.0
C2822 C 0.1152 0.46708 0.2469 0.0
C2823 C 0.11402 0.45287 0.24576 0.0
C2824 C 0.11186 0.44472 0.25746 0.0
C2825 C 0.1114 0.45112 0.27039 0.0
C2826 C 0.11257 0.46539 0.27151 0.0
H2827 H 0.14449 0.49657 0.27708 0.0
H2828 H 0.13234 0.48484 0.28447 0.0
H2829 H 0.14021 0.48082 0.26833 0.0
H2830 H 0.11652 0.47314 0.23768 0.0
H2831 H 0.11447 0.44832 0.23564 0.0
H2832 H 0.44451 0.89442 0.72455 0.0
H2833 H 0.46925 0.89138 0.72134 0.0
H2834 H 0.47448 0.88745 0.76505 0.0
H2835 H 0.44989 0.89033 0.76837 0.0
H2836 H 0.48946 0.90841 0.73196 0.0
H2837 H 0.49693 0.85533 0.75048 0.0
H2838 H 0.48029 0.86202 0.74587 0.0
H2839 H 0.48755 0.86572 0.76242 0.0
C2840 C 0.4509 0.89269 0.73347 0.0
C2841 C 0.44519 0.89262 0.74672 0.0
C2842 C 0.46503 0.89097 0.73161 0.0
C2843 C 0.47368 0.88899 0.74294 0.0
C2844 C 0.46798 0.88866 0.75613 0.0
H2845 H 0.55689 0.89264 0.76728 0.0
H2846 H 0.53226 0.88962 0.76432 0.0
C2847 C 0.45389 0.89041 0.75801 0.0
C2848 C 0.48879 0.88839 0.7412 0.0
H2849 H 0.51703 0.86958 0.74982 0.0
C2850 C 0.49551 0.89982 0.73562 0.0
C2851 C 0.49663 0.87716 0.74598 0.0
C2852 C 0.48998 0.8643 0.7514 0.0
C2853 C 0.50988 0.90067 0.73542 0.0
C2854 C 0.51772 0.88968 0.74073 0.0
C2855 C 0.511 0.87801 0.74579 0.0
C2856 C 0.53283 0.8906 0.74218 0.0
C2857 C 0.51654 0.91361 0.73018 0.0
C2858 C 0.54139 0.89186 0.73068 0.0
C2859 C 0.55555 0.89362 0.73233 0.0
C2860 C 0.56138 0.89411 0.74552 0.0
C2861 C 0.55278 0.89238 0.75697 0.0
C2862 C 0.53868 0.89062 0.75531 0.0
H2863 H 0.50903 0.92207 0.72886 0.0
H2864 H 0.52471 0.91709 0.73731 0.0
H2865 H 0.52135 0.91154 0.72009 0.0
H2866 H 0.53711 0.89164 0.72044 0.0
H2867 H 0.56187 0.89485 0.72328 0.0
H2868 H 0.11345 0.44872 0.76831 0.0
H2869 H 0.11587 0.47343 0.76538 0.0
H2870 H 0.11304 0.46867 0.72153 0.0
H2871 H 0.11042 0.44385 0.72435 0.0
H2872 H 0.13526 0.4891 0.75057 0.0
H2873 H 0.08227 0.49612 0.73057 0.0
H2874 H 0.08773 0.48051 0.73886 0.0
H2875 H 0.09284 0.48403 0.72153 0.0
C2876 C 0.1134 0.45287 0.75802 0.0
C2877 C 0.11162 0.44427 0.74657 0.0
C2878 C 0.11482 0.46702 0.75637 0.0
C2879 C 0.11443 0.4729 0.74326 0.0
C2880 C 0.11312 0.46435 0.73176 0.0
H2881 H 0.10934 0.56096 0.72484 0.0
H2882 H 0.11239 0.53618 0.72197 0.0
C2883 C 0.1117 0.45016 0.73339 0.0
C2884 C 0.11503 0.48803 0.74182 0.0
H2885 H 0.09571 0.51593 0.73318 0.0
C2886 C 0.12667 0.49497 0.74666 0.0
C2887 C 0.10382 0.49566 0.73666 0.0
C2888 C 0.09089 0.48876 0.73169 0.0
C2889 C 0.12729 0.50935 0.74673 0.0
C2890 C 0.11588 0.51698 0.74207 0.0
C2891 C 0.10445 0.51005 0.73675 0.0
C2892 C 0.11512 0.5321 0.7436 0.0
C2893 C 0.14014 0.51624 0.75188 0.0
C2894 C 0.11561 0.53801 0.7567 0.0
C2895 C 0.11386 0.55212 0.75838 0.0
C2896 C 0.11149 0.56064 0.74698 0.0
C2897 C 0.1112 0.55472 0.73383 0.0
C2898 C 0.11292 0.54056 0.73217 0.0
H2899 H 0.14919 0.5094 0.75095 0.0
H2900 H 0.14222 0.52587 0.74619 0.0
H2901 H 0.13884 0.51881 0.76289 0.0
H2902 H 0.11699 0.53165 0.7657 0.0
H2903 H 0.11411 0.55629 0.76866 0.0
H2904 H 0.44429 0.11137 0.72403 0.0
H2905 H 0.46906 0.11447 0.72116 0.0
H2906 H 0.47398 0.11631 0.76504 0.0
H2907 H 0.44933 0.1134 0.76803 0.0
H2908 H 0.48928 0.13631 0.75063 0.0
H2909 H 0.49702 0.08392 0.72936 0.0
H2910 H 0.48473 0.09452 0.72064 0.0
H2911 H 0.48137 0.08893 0.73786 0.0
C2912 C 0.45062 0.11254 0.73307 0.0
C2913 C 0.44481 0.11203 0.74627 0.0
C2914 C 0.46479 0.11423 0.73141 0.0
C2915 C 0.47337 0.11541 0.7429 0.0
C2916 C 0.46755 0.11537 0.75604 0.0
H2917 H 0.55674 0.11555 0.76821 0.0
H2918 H 0.53208 0.11835 0.76528 0.0
C2919 C 0.45343 0.11367 0.75772 0.0
C2920 C 0.48848 0.11627 0.74142 0.0
H2921 H 0.51664 0.09757 0.73228 0.0
C2922 C 0.49527 0.1279 0.74651 0.0
C2923 C 0.49627 0.1053 0.73598 0.0
C2924 C 0.48954 0.0924 0.73073 0.0
C2925 C 0.50964 0.12873 0.74657 0.0
C2926 C 0.51743 0.11753 0.74163 0.0
C2927 C 0.51064 0.10614 0.73606 0.0
C2928 C 0.53256 0.11693 0.74315 0.0
C2929 C 0.51636 0.14155 0.752 0.0
C2930 C 0.54104 0.11504 0.73168 0.0
C2931 C 0.55521 0.11337 0.73332 0.0
C2932 C 0.56112 0.1134 0.74649 0.0
C2933 C 0.55258 0.11551 0.75792 0.0
C2934 C 0.53846 0.11721 0.75626 0.0
H2935 H 0.50939 0.15053 0.75125 0.0
H2936 H 0.51892 0.14005 0.76298 0.0
H2937 H 0.52597 0.14387 0.74637 0.0
H2938 H 0.53668 0.11468 0.72148 0.0
H2939 H 0.56147 0.11172 0.7243 0.0
H2940 H 0.893 0.55627 0.76923 0.0
H2941 H 0.89051 0.53157 0.76622 0.0
H2942 H 0.89281 0.53651 0.72236 0.0
H2943 H 0.89549 0.56131 0.72526 0.0
H2944 H 0.87097 0.5159 0.75156 0.0
H2945 H 0.92374 0.50911 0.73094 0.0
H2946 H 0.91834 0.52466 0.73937 0.0
H2947 H 0.91308 0.52123 0.72207 0.0
C2948 C 0.89291 0.55216 0.75892 0.0
C2949 C 0.89457 0.5608 0.74749 0.0
C2950 C 0.89145 0.53802 0.75723 0.0
C2951 C 0.89168 0.53219 0.74409 0.0
C2952 C 0.89285 0.54079 0.73261 0.0
H2953 H 0.89675 0.44437 0.7247 0.0
H2954 H 0.89363 0.46917 0.72219 0.0
C2955 C 0.89431 0.55497 0.73429 0.0
C2956 C 0.8911 0.51707 0.74258 0.0
H2957 H 0.91033 0.48927 0.73346 0.0
C2958 C 0.87952 0.51007 0.7475 0.0
C2959 C 0.90225 0.50949 0.73723 0.0
C2960 C 0.91512 0.51644 0.73218 0.0
C2961 C 0.8789 0.49569 0.74743 0.0
C2962 C 0.89026 0.48811 0.74255 0.0
C2963 C 0.90163 0.49511 0.73719 0.0
C2964 C 0.89103 0.47297 0.74388 0.0
C2965 C 0.86611 0.48875 0.75265 0.0
C2966 C 0.89063 0.46689 0.7569 0.0
C2967 C 0.89242 0.45276 0.75839 0.0
C2968 C 0.89474 0.44439 0.74687 0.0
C2969 C 0.89493 0.45049 0.73379 0.0
C2970 C 0.89317 0.46466 0.73232 0.0
H2971 H 0.85705 0.4956 0.75187 0.0
H2972 H 0.86397 0.47917 0.74689 0.0
H2973 H 0.86752 0.48608 0.76362 0.0
H2974 H 0.88931 0.47312 0.766 0.0
H2975 H 0.89225 0.44845 0.76862 0.0
H2976 H 0.23563 0.55763 0.11294 0.0
H2977 H 0.2378 0.53279 0.11465 0.0
H2978 H 0.28163 0.53612 0.11 0.0
H2979 H 0.27959 0.5611 0.10841 0.0
H2980 H 0.2488 0.51633 0.09375 0.0
H2981 H 0.2773 0.50952 0.14267 0.0
H2982 H 0.26852 0.52525 0.1384 0.0
H2983 H 0.28468 0.52128 0.13055 0.0
C2984 C 0.24578 0.55315 0.11246 0.0
C2985 C 0.25744 0.5614 0.11049 0.0
C2986 C 0.24699 0.53892 0.11344 0.0
C2987 C 0.25987 0.53261 0.11255 0.0
C2988 C 0.2716 0.54079 0.11094 0.0
H2989 H 0.27968 0.445 0.10738 0.0
H2990 H 0.28149 0.47004 0.10888 0.0
C2991 C 0.27041 0.55507 0.10997 0.0
C2992 C 0.26077 0.51743 0.11226 0.0
H2993 H 0.27273 0.48951 0.12974 0.0
C2994 C 0.25405 0.51048 0.10162 0.0
C2995 C 0.26774 0.50982 0.12245 0.0
C2996 C 0.2749 0.51679 0.13424 0.0
C2997 C 0.25396 0.49612 0.10096 0.0
C2998 C 0.26056 0.48849 0.11136 0.0
C2999 C 0.26762 0.49541 0.12182 0.0
C3000 C 0.25974 0.47331 0.11171 0.0
C3001 C 0.24682 0.48925 0.08907 0.0
C3002 C 0.24699 0.46687 0.11322 0.0
C3003 C 0.2459 0.45263 0.11235 0.0
C3004 C 0.25759 0.4445 0.11002 0.0
C3005 C 0.27047 0.45095 0.10913 0.0
C3006 C 0.27153 0.46525 0.10999 0.0
H3007 H 0.24552 0.49634 0.08026 0.0
H3008 H 0.25262 0.4801 0.08557 0.0
H3009 H 0.23649 0.48584 0.09238 0.0
H3010 H 0.2378 0.4729 0.1148 0.0
H3011 H 0.23584 0.44804 0.11322 0.0
H3012 H 0.28179 0.56105 0.89815 0.0
H3013 H 0.28365 0.53605 0.89644 0.0
H3014 H 0.23992 0.53313 0.89084 0.0
H3015 H 0.23791 0.55796 0.89264 0.0
H3016 H 0.2504 0.5165 0.91195 0.0
H3017 H 0.27969 0.50963 0.8635 0.0
H3018 H 0.28689 0.52131 0.87581 0.0
H3019 H 0.27092 0.5254 0.86765 0.0
C3020 C 0.27259 0.55511 0.89635 0.0
C3021 C 0.25969 0.56154 0.89559 0.0
C3022 C 0.27369 0.54082 0.89531 0.0
C3023 C 0.26193 0.53274 0.89341 0.0
C3024 C 0.24912 0.53917 0.89228 0.0
H3025 H 0.23689 0.44846 0.89199 0.0
H3026 H 0.23916 0.47332 0.89058 0.0
C3027 C 0.24801 0.55339 0.89332 0.0
C3028 C 0.26268 0.51756 0.89365 0.0
H3029 H 0.27456 0.4896 0.87618 0.0
C3030 C 0.2557 0.51062 0.90413 0.0
C3031 C 0.26972 0.50993 0.88352 0.0
C3032 C 0.27717 0.51689 0.8719 0.0
C3033 C 0.25542 0.49627 0.9047 0.0
C3034 C 0.26208 0.48861 0.89435 0.0
C3035 C 0.2694 0.49551 0.88405 0.0
C3036 C 0.26108 0.47345 0.8939 0.0
C3037 C 0.24801 0.48941 0.91643 0.0
C3038 C 0.27276 0.46523 0.89568 0.0
C3039 C 0.27152 0.45094 0.89644 0.0
C3040 C 0.25857 0.44465 0.89539 0.0
C3041 C 0.24701 0.45293 0.89299 0.0
C3042 C 0.24827 0.46717 0.89221 0.0
H3043 H 0.2467 0.49646 0.92528 0.0
H3044 H 0.23767 0.48619 0.91296 0.0
H3045 H 0.25362 0.48015 0.91995 0.0
H3046 H 0.28276 0.4699 0.89692 0.0
H3047 H 0.28064 0.44488 0.89824 0.0
H3048 H 0.44445 0.28179 0.89511 0.0
H3049 H 0.46925 0.28437 0.89195 0.0
H3050 H 0.47336 0.24055 0.88799 0.0
H3051 H 0.44871 0.23787 0.89098 0.0
H3052 H 0.4894 0.27326 0.90876 0.0
H3053 H 0.49581 0.25449 0.85562 0.0
H3054 H 0.47936 0.25951 0.8625 0.0
H3055 H 0.48628 0.2428 0.86615 0.0
C3056 C 0.45061 0.27272 0.89336 0.0
C3057 C 0.44456 0.25962 0.8933 0.0
C3058 C 0.46478 0.27422 0.89157 0.0
C3059 C 0.47313 0.26267 0.88953 0.0
C3060 C 0.46709 0.24963 0.88924 0.0
H3061 H 0.5562 0.23692 0.89217 0.0
H3062 H 0.53153 0.24011 0.88949 0.0
C3063 C 0.45297 0.24811 0.89106 0.0
C3064 C 0.48827 0.26403 0.88876 0.0
H3065 H 0.51609 0.25477 0.86963 0.0
C3066 C 0.49525 0.26945 0.90011 0.0
C3067 C 0.49587 0.25905 0.87746 0.0
C3068 C 0.48894 0.25376 0.86468 0.0
C3069 C 0.50964 0.26935 0.90078 0.0
C3070 C 0.51723 0.26387 0.88969 0.0
C3071 C 0.51025 0.25892 0.87813 0.0
C3072 C 0.53233 0.26225 0.89037 0.0
C3073 C 0.51657 0.27447 0.91363 0.0
C3074 C 0.54102 0.27367 0.89144 0.0
C3075 C 0.55519 0.27189 0.89299 0.0
C3076 C 0.5609 0.25864 0.89347 0.0
C3077 C 0.55217 0.24727 0.89191 0.0
C3078 C 0.53805 0.24906 0.89035 0.0
H3079 H 0.50921 0.27589 0.9222 0.0
H3080 H 0.5247 0.26723 0.91697 0.0
H3081 H 0.52149 0.2845 0.91149 0.0
H3082 H 0.53683 0.28394 0.89124 0.0
H3083 H 0.5616 0.28088 0.89409 0.0
H3084 H 0.72591 0.56016 0.89504 0.0
H3085 H 0.72444 0.53513 0.89329 0.0
H3086 H 0.76848 0.53266 0.89066 0.0
H3087 H 0.7701 0.55754 0.89251 0.0
H3088 H 0.73476 0.51579 0.87321 0.0
H3089 H 0.75852 0.5091 0.92445 0.0
H3090 H 0.75176 0.52532 0.91864 0.0
H3091 H 0.76834 0.51961 0.91297 0.0
C3092 C 0.73528 0.55431 0.89395 0.0
C3093 C 0.74813 0.56087 0.89408 0.0
C3094 C 0.73441 0.54001 0.89295 0.0
C3095 C 0.74636 0.53205 0.8921 0.0
C3096 C 0.75914 0.53861 0.89157 0.0
H3097 H 0.77052 0.44768 0.89277 0.0
H3098 H 0.76853 0.4725 0.89065 0.0
C3099 C 0.76003 0.55285 0.89259 0.0
C3100 C 0.74564 0.51687 0.89237 0.0
H3101 H 0.7562 0.48908 0.91081 0.0
C3102 C 0.73933 0.50992 0.88146 0.0
C3103 C 0.75153 0.50927 0.90322 0.0
C3104 C 0.75781 0.51618 0.91556 0.0
C3105 C 0.73926 0.4955 0.88087 0.0
C3106 C 0.74551 0.48793 0.89154 0.0
C3107 C 0.75151 0.49492 0.90259 0.0
C3108 C 0.74638 0.47276 0.89139 0.0
C3109 C 0.73291 0.48848 0.86865 0.0
C3110 C 0.73455 0.46462 0.89236 0.0
C3111 C 0.73564 0.45035 0.89358 0.0
C3112 C 0.74859 0.444 0.89394 0.0
C3113 C 0.76038 0.45219 0.89257 0.0
C3114 C 0.75928 0.46641 0.89135 0.0
H3115 H 0.73106 0.49573 0.86006 0.0
H3116 H 0.73958 0.48003 0.86495 0.0
H3117 H 0.72292 0.48397 0.8717 0.0
H3118 H 0.7245 0.46934 0.89263 0.0
H3119 H 0.72636 0.44436 0.89466 0.0
H3120 H 0.45035 0.76727 0.89082 0.0
H3121 H 0.47495 0.76385 0.88809 0.0
H3122 H 0.46984 0.72045 0.89465 0.0
H3123 H 0.44509 0.72378 0.89752 0.0
H3124 H 0.49013 0.73228 0.91102 0.0
H3125 H 0.49729 0.74724 0.85677 0.0
H3126 H 0.48784 0.75975 0.8664 0.0
H3127 H 0.48072 0.74293 0.86382 0.0
C3128 C 0.45439 0.75695 0.89151 0.0
C3129 C 0.44571 0.7458 0.8944 0.0
C3130 C 0.46847 0.75501 0.88985 0.0
C3131 C 0.47421 0.74187 0.89097 0.0
C3132 C 0.46559 0.73066 0.89363 0.0
H3133 H 0.56267 0.7234 0.89788 0.0
H3134 H 0.53792 0.72004 0.89505 0.0
C3135 C 0.45146 0.73259 0.89525 0.0
C3136 C 0.48932 0.74013 0.89042 0.0
H3137 H 0.51744 0.7476 0.87096 0.0
C3138 C 0.49612 0.73538 0.90218 0.0
C3139 C 0.49709 0.74417 0.87886 0.0
C3140 C 0.49036 0.74868 0.8657 0.0
C3141 C 0.5105 0.73531 0.90299 0.0
C3142 C 0.51827 0.73991 0.89163 0.0
C3143 C 0.51147 0.74412 0.87967 0.0
C3144 C 0.53337 0.74159 0.89241 0.0
C3145 C 0.51724 0.73103 0.91624 0.0
C3146 C 0.53906 0.75474 0.89142 0.0
C3147 C 0.55315 0.7567 0.89296 0.0
C3148 C 0.56191 0.74551 0.89548 0.0
C3149 C 0.55623 0.73225 0.89602 0.0
C3150 C 0.54208 0.73031 0.89448 0.0
H3151 H 0.50975 0.73022 0.92479 0.0
H3152 H 0.52212 0.72085 0.91485 0.0
H3153 H 0.52536 0.73843 0.91919 0.0
H3154 H 0.53253 0.76358 0.88978 0.0
H3155 H 0.55714 0.76704 0.8924 0.0
H3156 H 0.76943 0.5558 0.1132 0.0
H3157 H 0.76662 0.53111 0.11602 0.0
H3158 H 0.72269 0.53586 0.11538 0.0
H3159 H 0.72537 0.56065 0.11239 0.0
H3160 H 0.75273 0.51552 0.13625 0.0
H3161 H 0.73026 0.50829 0.08429 0.0
H3162 H 0.73884 0.5239 0.08927 0.0
H3163 H 0.72175 0.52047 0.09518 0.0
C3164 C 0.75915 0.55165 0.11373 0.0
C3165 C 0.74762 0.56023 0.11244 0.0
C3166 C 0.75757 0.53751 0.11537 0.0
C3167 C 0.74446 0.53163 0.1157 0.0
C3168 C 0.73291 0.54018 0.11491 0.0
H3169 H 0.72525 0.44375 0.11179 0.0
H3170 H 0.72275 0.46855 0.11492 0.0
C3171 C 0.73447 0.55435 0.11327 0.0
C3172 C 0.74304 0.51651 0.11644 0.0
H3173 H 0.73334 0.48856 0.09774 0.0
C3174 C 0.74839 0.50962 0.12788 0.0
C3175 C 0.73733 0.50884 0.10553 0.0
C3176 C 0.7318 0.51569 0.09281 0.0
C3177 C 0.7484 0.49524 0.12861 0.0
C3178 C 0.74314 0.48756 0.11748 0.0
C3179 C 0.73736 0.49446 0.10626 0.0
C3180 C 0.7445 0.47243 0.11676 0.0
C3181 C 0.75409 0.4884 0.14125 0.0
C3182 C 0.75755 0.46638 0.11675 0.0
C3183 C 0.75902 0.45226 0.11496 0.0
C3184 C 0.74746 0.44385 0.11304 0.0
C3185 C 0.73436 0.4499 0.11329 0.0
C3186 C 0.73291 0.46407 0.11505 0.0
H3187 H 0.75359 0.49531 0.1503 0.0
H3188 H 0.74845 0.47881 0.14365 0.0
H3189 H 0.76501 0.48578 0.13948 0.0
H3190 H 0.76666 0.47266 0.11774 0.0
H3191 H 0.76927 0.44799 0.11479 0.0
H3192 H 0.5622 0.72426 0.10864 0.0
H3193 H 0.53728 0.72135 0.11029 0.0
H3194 H 0.53268 0.76464 0.11782 0.0
H3195 H 0.55743 0.7677 0.11605 0.0
H3196 H 0.51744 0.72838 0.13132 0.0
H3197 H 0.50959 0.75735 0.08303 0.0
H3198 H 0.52612 0.75075 0.08812 0.0
H3199 H 0.51968 0.76638 0.09549 0.0
C3200 C 0.5559 0.73314 0.11079 0.0
C3201 C 0.56182 0.74625 0.11204 0.0
C3202 C 0.54167 0.73145 0.11174 0.0
C3203 C 0.53314 0.74282 0.11392 0.0
C3204 C 0.53907 0.75577 0.11587 0.0
H3205 H 0.449 0.76523 0.11773 0.0
H3206 H 0.4738 0.76282 0.11939 0.0
C3207 C 0.55324 0.75748 0.11489 0.0
C3208 C 0.51801 0.74142 0.11352 0.0
H3209 H 0.48975 0.75312 0.09656 0.0
C3210 C 0.51135 0.73365 0.12365 0.0
C3211 C 0.51013 0.7482 0.10341 0.0
C3212 C 0.51673 0.75603 0.09181 0.0
C3213 C 0.49695 0.73306 0.12431 0.0
C3214 C 0.48911 0.74031 0.11451 0.0
C3215 C 0.4958 0.74767 0.10413 0.0
C3216 C 0.47395 0.74108 0.11511 0.0
C3217 C 0.49019 0.72512 0.13572 0.0
C3218 C 0.46576 0.72957 0.11236 0.0
C3219 C 0.45148 0.7309 0.11138 0.0
C3220 C 0.4452 0.74379 0.11305 0.0
C3221 C 0.45346 0.75516 0.11631 0.0
C3222 C 0.46766 0.75381 0.11728 0.0
H3223 H 0.49766 0.72184 0.14366 0.0
H3224 H 0.48208 0.73141 0.14065 0.0
H3225 H 0.48523 0.71584 0.13141 0.0
H3226 H 0.47044 0.71968 0.11047 0.0
H3227 H 0.44543 0.72195 0.10882 0.0
H3228 H 0.55779 0.23709 0.11475 0.0
H3229 H 0.53294 0.2393 0.11636 0.0
H3230 H 0.53627 0.28302 0.11096 0.0
H3231 H 0.56129 0.28095 0.10944 0.0
H3232 H 0.51655 0.27423 0.13159 0.0
H3233 H 0.50984 0.24769 0.08173 0.0
H3234 H 0.52016 0.2384 0.09382 0.0
H3235 H 0.52611 0.25456 0.08726 0.0
C3236 C 0.5533 0.24721 0.11402 0.0
C3237 C 0.56156 0.25883 0.11181 0.0
C3238 C 0.53907 0.24845 0.11491 0.0
C3239 C 0.53276 0.26129 0.11352 0.0
C3240 C 0.54095 0.27301 0.11197 0.0
H3241 H 0.44504 0.28171 0.10974 0.0
H3242 H 0.47003 0.28366 0.11158 0.0
C3243 C 0.55525 0.27179 0.1111 0.0
C3244 C 0.5176 0.26226 0.11308 0.0
H3245 H 0.48978 0.25096 0.09513 0.0
C3246 C 0.51066 0.26926 0.12357 0.0
C3247 C 0.50998 0.25586 0.10254 0.0
C3248 C 0.51688 0.24881 0.09062 0.0
C3249 C 0.49624 0.26951 0.1241 0.0
C3250 C 0.48865 0.26271 0.11378 0.0
C3251 C 0.49563 0.25606 0.1031 0.0
C3252 C 0.47346 0.26188 0.11398 0.0
C3253 C 0.48924 0.2766 0.13591 0.0
C3254 C 0.46711 0.24901 0.11472 0.0
C3255 C 0.4529 0.24785 0.1136 0.0
C3256 C 0.44469 0.25954 0.11164 0.0
C3257 C 0.45104 0.2725 0.11129 0.0
C3258 C 0.46532 0.27364 0.11241 0.0
H3259 H 0.49648 0.27892 0.14439 0.0
H3260 H 0.48477 0.28641 0.13227 0.0
H3261 H 0.48075 0.2702 0.13998 0.0
H3262 H 0.47321 0.2398 0.11591 0.0
H3263 H 0.44838 0.23771 0.11396 0.0
H3264 H 0.60764 0.78167 0.06156 0.0
H3265 H 0.60925 0.78409 0.03657 0.0
H3266 H 0.61786 0.74091 0.03291 0.0
H3267 H 0.61614 0.73834 0.05771 0.0
H3268 H 0.63051 0.77718 0.01697 0.0
H3269 H 0.58303 0.74681 0.00954 0.0
H3270 H 0.58788 0.75385 0.02595 0.0
H3271 H 0.5957 0.73831 0.01984 0.0
C3272 C 0.61001 0.77272 0.05545 0.0
C3273 C 0.61158 0.75978 0.06164 0.0
C3274 C 0.61094 0.77413 0.04118 0.0
C3275 C 0.61342 0.76263 0.0329 0.0
C3276 C 0.61567 0.74987 0.0391 0.0
H3277 H 0.61729 0.73921 0.94881 0.0
H3278 H 0.61902 0.74175 0.9736 0.0
C3279 C 0.61471 0.74843 0.05331 0.0
C3280 C 0.61305 0.76371 0.01774 0.0
H3281 H 0.59646 0.75108 0.98965 0.0
C3282 C 0.623 0.7716 0.01096 0.0
C3283 C 0.60315 0.75652 0.00996 0.0
C3284 C 0.59174 0.7485 0.01668 0.0
C3285 C 0.62367 0.77196 0.99655 0.0
C3286 C 0.61407 0.76434 0.98881 0.0
C3287 C 0.60388 0.75682 0.99562 0.0
C3288 C 0.61461 0.76347 0.97365 0.0
C3289 C 0.6349 0.78006 0.98969 0.0
C3290 C 0.61177 0.77491 0.9654 0.0
C3291 C 0.61076 0.77351 0.95114 0.0
C3292 C 0.61249 0.7606 0.94491 0.0
C3293 C 0.61583 0.74929 0.95322 0.0
C3294 C 0.61683 0.75071 0.96742 0.0
H3295 H 0.64289 0.78341 0.99708 0.0
H3296 H 0.63983 0.77389 0.98148 0.0
H3297 H 0.63042 0.78933 0.98484 0.0
H3298 H 0.60982 0.78481 0.97003 0.0
H3299 H 0.60813 0.78242 0.94505 0.0
H3300 H 0.26921 0.61434 0.94985 0.0
H3301 H 0.26579 0.61714 0.97447 0.0
H3302 H 0.22202 0.61509 0.9688 0.0
H3303 H 0.22531 0.61212 0.94408 0.0
H3304 H 0.25084 0.63697 0.98973 0.0
H3305 H 0.2301 0.58424 0.99657 0.0
H3306 H 0.23886 0.5895 0.98114 0.0
H3307 H 0.22152 0.59486 0.98419 0.0
C3308 C 0.25883 0.61456 0.95378 0.0
C3309 C 0.24753 0.61287 0.94497 0.0
C3310 C 0.25691 0.61619 0.96788 0.0
C3311 C 0.24367 0.61612 0.97348 0.0
C3312 C 0.23233 0.61494 0.9647 0.0
H3313 H 0.22391 0.61107 0.06128 0.0
H3314 H 0.22131 0.61434 0.0365 0.0
C3315 C 0.23424 0.61332 0.95057 0.0
C3316 C 0.24192 0.61682 0.98857 0.0
H3317 H 0.23259 0.59769 0.01637 0.0
C3318 C 0.24674 0.62844 0.99556 0.0
C3319 C 0.2365 0.6057 0.99615 0.0
C3320 C 0.23153 0.59281 0.9892 0.0
C3321 C 0.24654 0.62912 0.00994 0.0
C3322 C 0.24165 0.61777 0.01753 0.0
C3323 C 0.23634 0.60638 0.01053 0.0
C3324 C 0.24299 0.617 0.03266 0.0
C3325 C 0.25169 0.64194 0.01688 0.0
C3326 C 0.25603 0.6174 0.03872 0.0
C3327 C 0.25755 0.61552 0.05282 0.0
C3328 C 0.24606 0.6131 0.06121 0.0
C3329 C 0.23296 0.61295 0.05515 0.0
C3330 C 0.23146 0.61481 0.04099 0.0
H3331 H 0.25086 0.65099 0.01001 0.0
H3332 H 0.2459 0.64406 0.02645 0.0
H3333 H 0.26266 0.64059 0.01955 0.0
H3334 H 0.2651 0.61877 0.03246 0.0
H3335 H 0.26779 0.61567 0.0571 0.0
H3336 H 0.39186 0.27061 0.05757 0.0
H3337 H 0.38998 0.26836 0.03274 0.0
H3338 H 0.39428 0.22452 0.0362 0.0
H3339 H 0.39605 0.22663 0.06118 0.0
H3340 H 0.41081 0.25716 0.01637 0.0
H3341 H 0.36171 0.229 0.00952 0.0
H3342 H 0.36601 0.23778 0.02524 0.0
H3343 H 0.37376 0.22156 0.02132 0.0
C3344 C 0.39222 0.26044 0.05312 0.0
C3345 C 0.39416 0.2488 0.0614 0.0
C3346 C 0.39114 0.25919 0.0389 0.0
C3347 C 0.3919 0.24628 0.03263 0.0
C3348 C 0.39344 0.23457 0.04085 0.0
H3349 H 0.39725 0.22632 0.94505 0.0
H3350 H 0.39558 0.22453 0.97008 0.0
C3351 C 0.39451 0.2358 0.05512 0.0
C3352 C 0.39221 0.24534 0.01745 0.0
H3353 H 0.37471 0.23345 0.98951 0.0
C3354 C 0.40292 0.25197 0.0105 0.0
C3355 C 0.38199 0.23843 0.00984 0.0
C3356 C 0.37014 0.23135 0.0168 0.0
C3357 C 0.40361 0.25202 0.99615 0.0
C3358 C 0.39317 0.24549 0.9885 0.0
C3359 C 0.38265 0.23852 0.99542 0.0
C3360 C 0.39287 0.24629 0.97333 0.0
C3361 C 0.41556 0.25905 0.98928 0.0
C3362 C 0.39146 0.25905 0.96687 0.0
C3363 C 0.39243 0.26013 0.95263 0.0
C3364 C 0.39475 0.24843 0.94452 0.0
C3365 C 0.39551 0.23554 0.95098 0.0
C3366 C 0.39456 0.23449 0.96528 0.0
H3367 H 0.42437 0.2603 0.99639 0.0
H3368 H 0.41904 0.25321 0.98015 0.0
H3369 H 0.41234 0.26941 0.98585 0.0
H3370 H 0.38991 0.26825 0.97289 0.0
H3371 H 0.39166 0.2702 0.94803 0.0
H3372 H 0.73614 0.39222 0.05805 0.0
H3373 H 0.73817 0.3903 0.03321 0.0
H3374 H 0.78212 0.39354 0.03635 0.0
H3375 H 0.78024 0.39538 0.06134 0.0
H3376 H 0.74995 0.41083 0.0166 0.0
H3377 H 0.77645 0.36077 0.00998 0.0
H3378 H 0.76778 0.36543 0.02567 0.0
H3379 H 0.78424 0.37263 0.02173 0.0
C3380 C 0.74628 0.39235 0.05353 0.0
C3381 C 0.75803 0.394 0.06173 0.0
C3382 C 0.74741 0.39124 0.03931 0.0
C3383 C 0.76029 0.39168 0.03294 0.0
C3384 C 0.77209 0.39296 0.04107 0.0
H3385 H 0.78025 0.39542 0.94534 0.0
H3386 H 0.78194 0.3939 0.97039 0.0
C3387 C 0.77099 0.39407 0.05535 0.0
C3388 C 0.76114 0.39185 0.01776 0.0
H3389 H 0.77228 0.37374 0.9899 0.0
C3390 C 0.75484 0.40272 0.01077 0.0
C3391 C 0.76765 0.38133 0.01019 0.0
C3392 C 0.77435 0.3693 0.01722 0.0
C3393 C 0.75475 0.40332 0.99641 0.0
C3394 C 0.76089 0.39261 0.98881 0.0
C3395 C 0.76752 0.38189 0.99577 0.0
C3396 C 0.76007 0.39225 0.97363 0.0
C3397 C 0.74813 0.41548 0.98949 0.0
C3398 C 0.74726 0.39138 0.96717 0.0
C3399 C 0.74624 0.39228 0.95292 0.0
C3400 C 0.75805 0.39397 0.9448 0.0
C3401 C 0.77095 0.39417 0.95128 0.0
C3402 C 0.77195 0.3933 0.96558 0.0
H3403 H 0.74727 0.42438 0.99654 0.0
H3404 H 0.75404 0.41867 0.9803 0.0
H3405 H 0.73764 0.41263 0.98616 0.0
H3406 H 0.73799 0.3903 0.97319 0.0
H3407 H 0.73615 0.39194 0.94831 0.0
H3408 H 0.61343 0.26895 0.94806 0.0
H3409 H 0.61551 0.26698 0.97288 0.0
H3410 H 0.61056 0.22317 0.97001 0.0
H3411 H 0.60858 0.225 0.94503 0.0
H3412 H 0.59473 0.2562 0.98971 0.0
H3413 H 0.64365 0.2276 0.99614 0.0
H3414 H 0.63922 0.2363 0.9804 0.0
H3415 H 0.63135 0.22021 0.98457 0.0
C3416 C 0.61296 0.25885 0.95264 0.0
C3417 C 0.61079 0.24713 0.94451 0.0
C3418 C 0.61415 0.25776 0.96685 0.0
C3419 C 0.61329 0.24493 0.97329 0.0
C3420 C 0.61148 0.23315 0.96523 0.0
H3421 H 0.6091 0.22584 0.06107 0.0
H3422 H 0.61048 0.22386 0.03604 0.0
C3423 C 0.61029 0.23422 0.95096 0.0
C3424 C 0.6132 0.24418 0.98848 0.0
H3425 H 0.63102 0.23245 0.01628 0.0
C3426 C 0.60267 0.251 0.99551 0.0
C3427 C 0.62348 0.23726 0.99602 0.0
C3428 C 0.63515 0.22999 0.98895 0.0
C3429 C 0.6022 0.25123 0.00987 0.0
C3430 C 0.61269 0.24467 0.01744 0.0
C3431 C 0.62304 0.23753 0.01044 0.0
C3432 C 0.6132 0.24559 0.0326 0.0
C3433 C 0.59041 0.25844 0.01683 0.0
C3434 C 0.61472 0.2584 0.03895 0.0
C3435 C 0.6139 0.25958 0.05319 0.0
C3436 C 0.61163 0.24794 0.06141 0.0
C3437 C 0.6108 0.23501 0.05505 0.0
C3438 C 0.61159 0.23385 0.04076 0.0
H3439 H 0.5815 0.25968 0.00984 0.0
H3440 H 0.58702 0.25274 0.02609 0.0
H3441 H 0.59376 0.26881 0.02009 0.0
H3442 H 0.61623 0.26755 0.03285 0.0
H3443 H 0.61473 0.26968 0.05772 0.0
H3444 H 0.73628 0.61076 0.05734 0.0
H3445 H 0.73843 0.61347 0.03259 0.0
H3446 H 0.78248 0.61345 0.03624 0.0
H3447 H 0.78045 0.6105 0.06111 0.0
H3448 H 0.75111 0.63368 0.0167 0.0
H3449 H 0.7752 0.5826 0.00869 0.0
H3450 H 0.76709 0.58733 0.02463 0.0
H3451 H 0.78386 0.59373 0.02053 0.0
C3452 C 0.74646 0.61137 0.05294 0.0
C3453 C 0.75821 0.61028 0.06124 0.0
C3454 C 0.74765 0.61296 0.03876 0.0
C3455 C 0.7606 0.61345 0.03254 0.0
C3456 C 0.77238 0.61283 0.0408 0.0
H3457 H 0.77882 0.61162 0.94449 0.0
H3458 H 0.78123 0.61439 0.96932 0.0
C3459 C 0.7712 0.61122 0.05503 0.0
C3460 C 0.76161 0.61428 0.01738 0.0
H3461 H 0.77145 0.59613 0.98909 0.0
C3462 C 0.75565 0.62552 0.01066 0.0
C3463 C 0.76755 0.60363 0.00952 0.0
C3464 C 0.7737 0.59107 0.01615 0.0
C3465 C 0.75528 0.62631 0.99629 0.0
C3466 C 0.76084 0.61546 0.98844 0.0
C3467 C 0.7672 0.60444 0.99515 0.0
C3468 C 0.75942 0.61489 0.9733 0.0
C3469 C 0.74892 0.63873 0.98963 0.0
C3470 C 0.74636 0.61426 0.9673 0.0
C3471 C 0.74494 0.61266 0.95313 0.0
C3472 C 0.75656 0.61158 0.94466 0.0
C3473 C 0.76965 0.61246 0.95069 0.0
C3474 C 0.77105 0.61402 0.96488 0.0
H3475 H 0.74892 0.64769 0.99665 0.0
H3476 H 0.75443 0.64155 0.98008 0.0
H3477 H 0.73811 0.6364 0.98695 0.0
H3478 H 0.73724 0.61462 0.97362 0.0
H3479 H 0.73471 0.61198 0.94887 0.0
H3480 H 0.4003 0.78102 0.94593 0.0
H3481 H 0.39892 0.78309 0.97097 0.0
H3482 H 0.39072 0.7398 0.97414 0.0
H3483 H 0.39218 0.73758 0.94929 0.0
H3484 H 0.37771 0.77551 0.99066 0.0
H3485 H 0.4258 0.7459 0.9973 0.0
H3486 H 0.42075 0.7532 0.98106 0.0
H3487 H 0.41322 0.73742 0.98688 0.0
C3488 C 0.39806 0.77197 0.95195 0.0
C3489 C 0.39652 0.7591 0.94559 0.0
C3490 C 0.39727 0.77318 0.96625 0.0
C3491 C 0.39496 0.76155 0.9744 0.0
C3492 C 0.39276 0.74885 0.96804 0.0
H3493 H 0.39211 0.73673 0.05817 0.0
H3494 H 0.39057 0.73953 0.0334 0.0
C3495 C 0.39357 0.74762 0.95381 0.0
C3496 C 0.39544 0.76242 0.98957 0.0
H3497 H 0.41246 0.74967 0.01734 0.0
C3498 C 0.38537 0.77 0.99653 0.0
C3499 C 0.40553 0.7553 0.99716 0.0
C3500 C 0.41702 0.7476 0.99024 0.0
C3501 C 0.38477 0.77009 0.01095 0.0
C3502 C 0.39458 0.76255 0.01851 0.0
C3503 C 0.40488 0.75535 0.01152 0.0
C3504 C 0.39414 0.76141 0.03367 0.0
C3505 C 0.37339 0.77783 0.01799 0.0
C3506 C 0.39649 0.77283 0.0421 0.0
C3507 C 0.39738 0.77127 0.05636 0.0
C3508 C 0.39603 0.75824 0.06241 0.0
C3509 C 0.39327 0.74692 0.05391 0.0
C3510 C 0.39237 0.74849 0.03972 0.0
H3511 H 0.36521 0.78096 0.01071 0.0
H3512 H 0.36874 0.77149 0.02623 0.0
H3513 H 0.37765 0.78721 0.0228 0.0
H3514 H 0.39809 0.78286 0.03763 0.0
H3515 H 0.39957 0.7802 0.06258 0.0
H3516 H 0.26763 0.3914 0.05608 0.0
H3517 H 0.26455 0.38864 0.03142 0.0
H3518 H 0.22072 0.39133 0.03641 0.0
H3519 H 0.22368 0.39426 0.06119 0.0
H3520 H 0.24964 0.36905 0.01594 0.0
H3521 H 0.22961 0.422 0.00874 0.0
H3522 H 0.23803 0.41665 0.02432 0.0
H3523 H 0.22069 0.41149 0.02095 0.0
C3524 C 0.2573 0.39133 0.05199 0.0
C3525 C 0.2459 0.39318 0.06064 0.0
C3526 C 0.25557 0.38972 0.03787 0.0
C3527 C 0.24243 0.38998 0.03206 0.0
C3528 C 0.23097 0.39133 0.04067 0.0
H3529 H 0.22419 0.39518 0.94394 0.0
H3530 H 0.22118 0.39196 0.96868 0.0
C3531 C 0.23269 0.39293 0.05484 0.0
C3532 C 0.24092 0.38929 0.01694 0.0
H3533 H 0.2323 0.40853 0.98898 0.0
C3534 C 0.24573 0.37762 0.01004 0.0
C3535 C 0.23576 0.40047 0.00927 0.0
C3536 C 0.2308 0.41343 0.01613 0.0
C3537 C 0.2458 0.37695 0.99565 0.0
C3538 C 0.24116 0.38835 0.98798 0.0
C3539 C 0.23585 0.3998 0.99489 0.0
C3540 C 0.24276 0.3891 0.97287 0.0
C3541 C 0.25093 0.36407 0.9888 0.0
C3542 C 0.25589 0.38856 0.96701 0.0
C3543 C 0.25765 0.39041 0.95293 0.0
C3544 C 0.24632 0.39293 0.94437 0.0
C3545 C 0.23313 0.39322 0.95022 0.0
C3546 C 0.23139 0.39139 0.96435 0.0
H3547 H 0.24992 0.35503 0.99566 0.0
H3548 H 0.24528 0.362 0.97914 0.0
H3549 H 0.26196 0.36531 0.9863 0.0
H3550 H 0.26485 0.3871 0.97341 0.0
H3551 H 0.26796 0.39016 0.94881 0.0
H3552 H 0.0568 0.61397 0.73812 0.0
H3553 H 0.03217 0.61697 0.74108 0.0
H3554 H 0.0367 0.61249 0.78482 0.0
H3555 H 0.06146 0.60932 0.78196 0.0
H3556 H 0.01646 0.59583 0.77374 0.0
H3557 H 0.00988 0.64918 0.75563 0.0
H3558 H 0.01927 0.63877 0.74372 0.0
H3559 H 0.02637 0.64224 0.76039 0.0
C3560 C 0.05263 0.61378 0.74841 0.0
C3561 C 0.06114 0.61139 0.75981 0.0
C3562 C 0.03853 0.6156 0.75009 0.0
C3563 C 0.03262 0.61517 0.76319 0.0
C3564 C 0.04108 0.61298 0.77463 0.0
H3565 H 0.94433 0.61033 0.78227 0.0
H3566 H 0.96912 0.61315 0.78515 0.0
C3567 C 0.05523 0.61118 0.77297 0.0
C3568 C 0.0175 0.61593 0.76471 0.0
H3569 H 0.98959 0.6352 0.75601 0.0
C3570 C 0.01057 0.60453 0.7701 0.0
C3571 C 0.00985 0.6273 0.75996 0.0
C3572 C 0.01673 0.64012 0.75473 0.0
C3573 C 0.99618 0.60388 0.77017 0.0
C3574 C 0.98854 0.61503 0.76491 0.0
C3575 C 0.99547 0.62665 0.76 0.0
C3576 C 0.97342 0.61438 0.76343 0.0
C3577 C 0.9893 0.59097 0.77521 0.0
C3578 C 0.96758 0.61461 0.7503 0.0
C3579 C 0.95345 0.61307 0.74861 0.0
C3580 C 0.94482 0.61131 0.76004 0.0
C3581 C 0.95066 0.61158 0.77324 0.0
C3582 C 0.96484 0.61312 0.77491 0.0
H3583 H 0.99668 0.58238 0.77643 0.0
H3584 H 0.98452 0.59298 0.78534 0.0
H3585 H 0.98108 0.58773 0.76803 0.0
H3586 H 0.97401 0.61562 0.7413 0.0
H3587 H 0.94933 0.61299 0.7383 0.0
H3588 H 0.39255 0.94758 0.73706 0.0
H3589 H 0.39083 0.97244 0.73888 0.0
H3590 H 0.39718 0.96991 0.78253 0.0
H3591 H 0.39884 0.94486 0.78087 0.0
H3592 H 0.37602 0.98919 0.77372 0.0
H3593 H 0.42532 0.99614 0.74622 0.0
H3594 H 0.41323 0.98546 0.73736 0.0
H3595 H 0.42018 0.97993 0.75351 0.0
C3596 C 0.39349 0.95224 0.74709 0.0
C3597 C 0.39599 0.9442 0.7588 0.0
C3598 C 0.39253 0.96648 0.74809 0.0
C3599 C 0.39412 0.97302 0.76079 0.0
C3600 C 0.39601 0.96504 0.77262 0.0
H3601 H 0.39702 0.06088 0.7801 0.0
H3602 H 0.39542 0.03591 0.78224 0.0
C3603 C 0.39696 0.95074 0.77164 0.0
C3604 C 0.39436 0.98819 0.7615 0.0
H3605 H 0.41172 0.01606 0.74943 0.0
C3606 C 0.38387 0.9951 0.76853 0.0
C3607 C 0.40468 0.99585 0.75478 0.0
C3608 C 0.41657 0.98899 0.74764 0.0
C3609 C 0.38314 0.00951 0.76853 0.0
C3610 C 0.39325 0.01713 0.76146 0.0
C3611 C 0.40391 0.0102 0.75475 0.0
C3612 C 0.39289 0.03231 0.7605 0.0
C3613 C 0.37132 0.01646 0.77568 0.0
C3614 C 0.392 0.03857 0.74759 0.0
C3615 C 0.39298 0.05279 0.74632 0.0
C3616 C 0.39495 0.06109 0.75795 0.0
C3617 C 0.39545 0.05482 0.77094 0.0
C3618 C 0.39448 0.04054 0.77219 0.0
H3619 H 0.36292 0.00916 0.7781 0.0
H3620 H 0.375 0.02098 0.78545 0.0
H3621 H 0.36713 0.02488 0.76927 0.0
H3622 H 0.3908 0.0324 0.73843 0.0
H3623 H 0.39252 0.05724 0.73615 0.0
H3624 H 0.06195 0.39538 0.78112 0.0
H3625 H 0.03716 0.39234 0.78383 0.0
H3626 H 0.03289 0.38775 0.74008 0.0
H3627 H 0.05755 0.39061 0.73727 0.0
H3628 H 0.0171 0.40907 0.77263 0.0
H3629 H 0.01028 0.35576 0.75452 0.0
H3630 H 0.02679 0.3626 0.75934 0.0
H3631 H 0.01977 0.3661 0.74264 0.0
C3632 C 0.05576 0.39351 0.77209 0.0
C3633 C 0.06176 0.39323 0.75897 0.0
C3634 C 0.04159 0.3918 0.77367 0.0
C3635 C 0.0332 0.38962 0.76218 0.0
C3636 C 0.03919 0.3891 0.74912 0.0
H3637 H 0.94986 0.39224 0.73714 0.0
H3638 H 0.97455 0.38955 0.74011 0.0
C3639 C 0.05331 0.39085 0.74753 0.0
C3640 C 0.01806 0.38896 0.76362 0.0
H3641 H 0.99007 0.36986 0.75482 0.0
C3642 C 0.01117 0.40041 0.76897 0.0
C3643 C 0.01037 0.37764 0.75883 0.0
C3644 C 0.01718 0.36477 0.75363 0.0
C3645 C 0.99679 0.40114 0.76899 0.0
C3646 C 0.98911 0.39003 0.76371 0.0
C3647 C 0.99599 0.37838 0.75882 0.0
C3648 C 0.97398 0.39075 0.76224 0.0
C3649 C 0.98996 0.41408 0.77402 0.0
C3650 C 0.96542 0.39202 0.77373 0.0
C3651 C 0.95124 0.39359 0.77208 0.0
C3652 C 0.94539 0.39388 0.75889 0.0
C3653 C 0.95399 0.39214 0.74745 0.0
C3654 C 0.96813 0.39056 0.74911 0.0
H3655 H 0.99737 0.42264 0.77524 0.0
H3656 H 0.98177 0.41736 0.76683 0.0
H3657 H 0.98517 0.4121 0.78414 0.0
H3658 H 0.96971 0.39195 0.78397 0.0
H3659 H 0.94492 0.39483 0.78112 0.0
H3660 H 0.61345 0.949 0.73537 0.0
H3661 H 0.61528 0.97383 0.73755 0.0
H3662 H 0.61099 0.97046 0.78141 0.0
H3663 H 0.60926 0.94549 0.77936 0.0
H3664 H 0.59447 0.9903 0.74879 0.0
H3665 H 0.6437 0.99701 0.77678 0.0
H3666 H 0.63933 0.98131 0.76799 0.0
H3667 H 0.63165 0.98522 0.78425 0.0
C3668 C 0.61307 0.95347 0.74552 0.0
C3669 C 0.61116 0.94521 0.75719 0.0
C3670 C 0.61413 0.96769 0.74674 0.0
C3671 C 0.61337 0.97399 0.75964 0.0
C3672 C 0.61183 0.9658 0.77137 0.0
H3673 H 0.60828 0.06149 0.77977 0.0
H3674 H 0.60987 0.03645 0.78146 0.0
C3675 C 0.61078 0.95152 0.77017 0.0
C3676 C 0.61311 0.98916 0.76055 0.0
H3677 H 0.63072 0.01704 0.7724 0.0
C3678 C 0.6024 0.99614 0.75396 0.0
C3679 C 0.62338 0.99674 0.76743 0.0
C3680 C 0.63524 0.98974 0.77445 0.0
C3681 C 0.60173 0.01049 0.75393 0.0
C3682 C 0.61221 0.0181 0.76044 0.0
C3683 C 0.62275 0.01116 0.76736 0.0
C3684 C 0.61252 0.03328 0.75969 0.0
C3685 C 0.58977 0.0174 0.74695 0.0
C3686 C 0.61392 0.03978 0.74694 0.0
C3687 C 0.61299 0.05402 0.74592 0.0
C3688 C 0.61073 0.0621 0.75766 0.0
C3689 C 0.60997 0.05559 0.77052 0.0
C3690 C 0.61088 0.04129 0.77152 0.0
H3691 H 0.58095 0.0103 0.74569 0.0
H3692 H 0.58631 0.02651 0.75283 0.0
H3693 H 0.59297 0.02086 0.7366 0.0
H3694 H 0.61543 0.03379 0.73771 0.0
H3695 H 0.61376 0.05866 0.73586 0.0
H3696 H 0.94454 0.39687 0.22386 0.0
H3697 H 0.96934 0.39385 0.22116 0.0
H3698 H 0.97362 0.38949 0.26494 0.0
H3699 H 0.94896 0.39233 0.26774 0.0
H3700 H 0.98957 0.41054 0.23233 0.0
H3701 H 0.99594 0.35721 0.25058 0.0
H3702 H 0.97949 0.36417 0.24571 0.0
H3703 H 0.9865 0.36766 0.26241 0.0
C3704 C 0.95073 0.39507 0.2329 0.0
C3705 C 0.94473 0.39483 0.24602 0.0
C3706 C 0.96491 0.39337 0.23133 0.0
C3707 C 0.97331 0.39124 0.24283 0.0
C3708 C 0.96732 0.39081 0.25589 0.0
H3709 H 0.05665 0.39314 0.26784 0.0
H3710 H 0.03193 0.39074 0.26487 0.0
C3711 C 0.95319 0.39254 0.25748 0.0
C3712 C 0.98844 0.39045 0.24139 0.0
H3713 H 0.01626 0.37111 0.2502 0.0
C3714 C 0.99542 0.40182 0.236 0.0
C3715 C 0.99603 0.37907 0.24619 0.0
C3716 C 0.9891 0.36628 0.25142 0.0
C3717 C 0.00981 0.40242 0.23597 0.0
C3718 C 0.0174 0.39125 0.24126 0.0
C3719 C 0.01042 0.37968 0.24618 0.0
C3720 C 0.03253 0.39183 0.24274 0.0
C3721 C 0.01676 0.41528 0.2309 0.0
C3722 C 0.04112 0.39293 0.23124 0.0
C3723 C 0.05531 0.39432 0.23289 0.0
C3724 C 0.06116 0.39461 0.24609 0.0
C3725 C 0.05252 0.39304 0.25754 0.0
C3726 C 0.03837 0.39164 0.25587 0.0
H3727 H 0.00942 0.4239 0.22963 0.0
H3728 H 0.02496 0.41852 0.2381 0.0
H3729 H 0.02157 0.41322 0.2208 0.0
H3730 H 0.03683 0.39287 0.221 0.0
H3731 H 0.06166 0.39544 0.22385 0.0
H3732 H 0.61406 0.05827 0.26875 0.0
H3733 H 0.61588 0.03345 0.26654 0.0
H3734 H 0.6115 0.03685 0.22269 0.0
H3735 H 0.60978 0.06183 0.22476 0.0
H3736 H 0.59491 0.01713 0.25529 0.0
H3737 H 0.64411 0.01009 0.22731 0.0
H3738 H 0.63986 0.0258 0.23614 0.0
H3739 H 0.63211 0.02197 0.2199 0.0
C3740 C 0.61367 0.05381 0.25859 0.0
C3741 C 0.61172 0.06208 0.24693 0.0
C3742 C 0.61471 0.0396 0.25736 0.0
C3743 C 0.61391 0.03331 0.24446 0.0
C3744 C 0.61237 0.04151 0.23273 0.0
H3745 H 0.60869 0.94566 0.22484 0.0
H3746 H 0.61036 0.97068 0.22294 0.0
C3747 C 0.61133 0.05579 0.23395 0.0
C3748 C 0.61357 0.01813 0.24355 0.0
H3749 H 0.63111 0.99013 0.23189 0.0
C3750 C 0.60282 0.01123 0.25016 0.0
C3751 C 0.62382 0.01048 0.23672 0.0
C3752 C 0.6357 0.01741 0.22967 0.0
C3753 C 0.60211 0.99688 0.25028 0.0
C3754 C 0.61258 0.9892 0.24383 0.0
C3755 C 0.62315 0.99607 0.23688 0.0
C3756 C 0.61287 0.97403 0.24472 0.0
C3757 C 0.59011 0.99007 0.25728 0.0
C3758 C 0.61416 0.96763 0.25752 0.0
C3759 C 0.61318 0.9534 0.25866 0.0
C3760 C 0.61098 0.94524 0.24697 0.0
C3761 C 0.61034 0.95163 0.23405 0.0
C3762 C 0.6113 0.96592 0.23294 0.0
H3763 H 0.5813 0.99719 0.25841 0.0
H3764 H 0.58667 0.9809 0.25148 0.0
H3765 H 0.59327 0.98672 0.26768 0.0
H3766 H 0.61563 0.97369 0.26671 0.0
H3767 H 0.61386 0.94885 0.26876 0.0
H3768 H 0.05643 0.61316 0.26797 0.0
H3769 H 0.03172 0.61564 0.26504 0.0
H3770 H 0.03657 0.61386 0.22115 0.0
H3771 H 0.06139 0.61121 0.22396 0.0
H3772 H 0.01604 0.6354 0.25057 0.0
H3773 H 0.00915 0.58281 0.22953 0.0
H3774 H 0.02471 0.58811 0.23802 0.0
H3775 H 0.02129 0.59355 0.22078 0.0
C3776 C 0.05229 0.61336 0.25767 0.0
C3777 C 0.06092 0.61186 0.2462 0.0
C3778 C 0.03815 0.61481 0.25602 0.0
C3779 C 0.03229 0.61474 0.2429 0.0
C3780 C 0.04086 0.61371 0.23139 0.0
H3781 H 0.94434 0.60988 0.22394 0.0
H3782 H 0.96913 0.61295 0.2213 0.0
C3783 C 0.05506 0.61227 0.23302 0.0
C3784 C 0.01716 0.61534 0.24144 0.0
H3785 H 0.98932 0.59617 0.23233 0.0
C3786 C 0.01019 0.62688 0.24647 0.0
C3787 C 0.00956 0.60423 0.23605 0.0
C3788 C 0.0165 0.59141 0.23087 0.0
C3789 C 0.9958 0.6275 0.24649 0.0
C3790 C 0.9882 0.61617 0.24158 0.0
C3791 C 0.99517 0.60485 0.23609 0.0
C3792 C 0.97307 0.61539 0.24299 0.0
C3793 C 0.98888 0.64025 0.25184 0.0
C3794 C 0.96706 0.61572 0.25605 0.0
C3795 C 0.95294 0.61396 0.2576 0.0
C3796 C 0.94449 0.61174 0.24612 0.0
C3797 C 0.95051 0.61161 0.233 0.0
C3798 C 0.96468 0.61335 0.23147 0.0
H3799 H 0.99572 0.64932 0.25108 0.0
H3800 H 0.97927 0.64242 0.24615 0.0
H3801 H 0.98629 0.63877 0.26281 0.0
H3802 H 0.97335 0.61697 0.26512 0.0
H3803 H 0.94869 0.61407 0.26786 0.0
H3804 H 0.3922 0.05713 0.26938 0.0
H3805 H 0.38941 0.03246 0.26642 0.0
H3806 H 0.39053 0.03743 0.22251 0.0
H3807 H 0.39352 0.0622 0.22535 0.0
H3808 H 0.36941 0.01692 0.25238 0.0
H3809 H 0.42148 0.00982 0.23015 0.0
H3810 H 0.41642 0.02542 0.2387 0.0
H3811 H 0.41061 0.02197 0.22158 0.0
C3812 C 0.39179 0.05303 0.25907 0.0
C3813 C 0.39322 0.06167 0.2476 0.0
C3814 C 0.39016 0.03891 0.2574 0.0
C3815 C 0.38997 0.03309 0.24426 0.0
C3816 C 0.39089 0.04169 0.23276 0.0
H3817 H 0.39403 0.94519 0.22505 0.0
H3818 H 0.3908 0.96997 0.22251 0.0
C3819 C 0.39252 0.05586 0.23441 0.0
C3820 C 0.38925 0.01797 0.24277 0.0
H3821 H 0.40807 0.99005 0.23316 0.0
C3822 C 0.3778 0.01104 0.24807 0.0
C3823 C 0.4002 0.01032 0.2371 0.0
C3824 C 0.41294 0.0172 0.23164 0.0
C3825 C 0.37713 0.99666 0.24809 0.0
C3826 C 0.3883 0.98901 0.24289 0.0
C3827 C 0.39952 0.99594 0.23713 0.0
C3828 C 0.38906 0.97389 0.24427 0.0
C3829 C 0.36449 0.98978 0.25375 0.0
C3830 C 0.38916 0.96787 0.25734 0.0
C3831 C 0.39103 0.95376 0.25883 0.0
C3832 C 0.39291 0.94533 0.24727 0.0
C3833 C 0.39256 0.95135 0.23416 0.0
C3834 C 0.39073 0.96551 0.23269 0.0
H3835 H 0.35544 0.99667 0.25329 0.0
H3836 H 0.36212 0.98021 0.24807 0.0
H3837 H 0.36628 0.98711 0.26467 0.0
H3838 H 0.3882 0.97416 0.26644 0.0
H3839 H 0.39128 0.9495 0.26908 0.0
H3840 H 0.7368 0.05734 0.61587 0.0
H3841 H 0.73956 0.03268 0.61872 0.0
H3842 H 0.78343 0.03701 0.61546 0.0
H3843 H 0.78077 0.06181 0.61244 0.0
H3844 H 0.77271 0.01712 0.59821 0.0
H3845 H 0.75311 0.00979 0.65094 0.0
H3846 H 0.74153 0.01939 0.64035 0.0
H3847 H 0.75812 0.02636 0.64439 0.0
C3848 C 0.74707 0.05312 0.61594 0.0
C3849 C 0.75857 0.06159 0.61391 0.0
C3850 C 0.74863 0.039 0.61767 0.0
C3851 C 0.76171 0.03302 0.61751 0.0
C3852 C 0.77324 0.04144 0.61573 0.0
H3853 H 0.78088 0.94484 0.6119 0.0
H3854 H 0.78362 0.9696 0.6151 0.0
C3855 C 0.7717 0.05561 0.61402 0.0
C3856 C 0.76314 0.01788 0.61808 0.0
H3857 H 0.75385 0.98972 0.63667 0.0
C3858 C 0.76881 0.01111 0.60672 0.0
C3859 C 0.75805 0.01008 0.62919 0.0
C3860 C 0.75249 0.01678 0.64197 0.0
C3861 C 0.76886 0.99674 0.60584 0.0
C3862 C 0.76329 0.98895 0.61673 0.0
C3863 C 0.75808 0.99571 0.62831 0.0
C3864 C 0.76186 0.97383 0.61584 0.0
C3865 C 0.77424 0.99004 0.59297 0.0
C3866 C 0.74874 0.96796 0.61567 0.0
C3867 C 0.74713 0.95384 0.61392 0.0
C3868 C 0.75863 0.94527 0.61235 0.0
C3869 C 0.7718 0.95114 0.613 0.0
C3870 C 0.77339 0.9653 0.61475 0.0
H3871 H 0.77565 0.99754 0.58451 0.0
H3872 H 0.78433 0.98527 0.59517 0.0
H3873 H 0.76718 0.98185 0.58944 0.0
H3874 H 0.7397 0.97436 0.61654 0.0
H3875 H 0.73684 0.9497 0.61354 0.0
H3876 H 0.78134 0.0612 0.3952 0.0
H3877 H 0.78415 0.03643 0.39207 0.0
H3878 H 0.74033 0.03185 0.38865 0.0
H3879 H 0.73741 0.05648 0.39161 0.0
H3880 H 0.77344 0.01629 0.40915 0.0
H3881 H 0.75419 0.00936 0.35624 0.0
H3882 H 0.75911 0.0259 0.36296 0.0
H3883 H 0.74252 0.01883 0.36685 0.0
C3884 C 0.77231 0.05495 0.39357 0.0
C3885 C 0.75914 0.06085 0.39366 0.0
C3886 C 0.77394 0.0408 0.3918 0.0
C3887 C 0.76247 0.03232 0.38993 0.0
C3888 C 0.74935 0.03822 0.38977 0.0
H3889 H 0.73767 0.94905 0.39297 0.0
H3890 H 0.74062 0.97372 0.39021 0.0
C3891 C 0.7477 0.05232 0.39157 0.0
C3892 C 0.76399 0.0172 0.38924 0.0
H3893 H 0.75491 0.98917 0.37034 0.0
C3894 C 0.76962 0.01035 0.40057 0.0
C3895 C 0.759 0.00948 0.37802 0.0
C3896 C 0.75349 0.01627 0.36527 0.0
C3897 C 0.76971 0.99597 0.40132 0.0
C3898 C 0.76422 0.98825 0.39033 0.0
C3899 C 0.75907 0.99511 0.37877 0.0
C3900 C 0.76276 0.97314 0.39111 0.0
C3901 C 0.77502 0.98917 0.41417 0.0
C3902 C 0.77427 0.96456 0.39222 0.0
C3903 C 0.77263 0.95039 0.39384 0.0
C3904 C 0.75944 0.94455 0.39432 0.0
C3905 C 0.74798 0.95316 0.39272 0.0
C3906 C 0.74963 0.96729 0.39111 0.0
H3907 H 0.77638 0.9966 0.42269 0.0
H3908 H 0.76793 0.98096 0.4176 0.0
H3909 H 0.78512 0.98442 0.41199 0.0
H3910 H 0.78451 0.96884 0.39201 0.0
H3911 H 0.78168 0.94406 0.39497 0.0
H3912 H 0.94369 0.78116 0.3961 0.0
H3913 H 0.96849 0.78378 0.39301 0.0
H3914 H 0.97271 0.73994 0.38936 0.0
H3915 H 0.94805 0.73722 0.39227 0.0
H3916 H 0.98861 0.77291 0.40991 0.0
H3917 H 0.99519 0.75367 0.35696 0.0
H3918 H 0.9787 0.75865 0.36377 0.0
H3919 H 0.98573 0.74202 0.36759 0.0
C3920 C 0.94987 0.77209 0.39444 0.0
C3921 C 0.94385 0.75898 0.39443 0.0
C3922 C 0.96404 0.77361 0.39269 0.0
C3923 C 0.97242 0.76208 0.39075 0.0
C3924 C 0.96642 0.74902 0.39053 0.0
H3925 H 0.05577 0.73706 0.39343 0.0
H3926 H 0.03107 0.73998 0.3908 0.0
C3927 C 0.9523 0.74748 0.3923 0.0
C3928 C 0.98756 0.76348 0.39 0.0
H3929 H 0.01545 0.75427 0.37095 0.0
C3930 C 0.99449 0.76907 0.4013 0.0
C3931 C 0.9952 0.75845 0.37874 0.0
C3932 C 0.98832 0.75298 0.36602 0.0
C3933 C 0.00888 0.76909 0.40197 0.0
C3934 C 0.01651 0.76358 0.39093 0.0
C3935 C 0.00958 0.75845 0.37942 0.0
C3936 C 0.03164 0.76212 0.3916 0.0
C3937 C 0.01577 0.77438 0.41477 0.0
C3938 C 0.04021 0.77363 0.39261 0.0
C3939 C 0.05439 0.77201 0.39415 0.0
C3940 C 0.06025 0.75883 0.39465 0.0
C3941 C 0.05164 0.74736 0.39315 0.0
C3942 C 0.0375 0.749 0.39162 0.0
H3943 H 0.00839 0.77576 0.42334 0.0
H3944 H 0.02399 0.76728 0.41815 0.0
H3945 H 0.02054 0.78447 0.41257 0.0
H3946 H 0.03591 0.78387 0.39238 0.0
H3947 H 0.06072 0.78107 0.39519 0.0
H3948 H 0.22599 0.06091 0.39643 0.0
H3949 H 0.22395 0.03589 0.39483 0.0
H3950 H 0.26774 0.03257 0.38994 0.0
H3951 H 0.26993 0.05742 0.39163 0.0
H3952 H 0.23305 0.01616 0.37428 0.0
H3953 H 0.25888 0.00953 0.42452 0.0
H3954 H 0.25205 0.02578 0.41889 0.0
H3955 H 0.26831 0.01986 0.41256 0.0
C3956 C 0.23517 0.05487 0.39486 0.0
C3957 C 0.24815 0.06117 0.39433 0.0
C3958 C 0.23398 0.04058 0.39394 0.0
C3959 C 0.24572 0.0324 0.39251 0.0
C3960 C 0.25857 0.0387 0.39129 0.0
H3961 H 0.26931 0.94804 0.3924 0.0
H3962 H 0.26724 0.97285 0.39033 0.0
C3963 C 0.25979 0.05293 0.39223 0.0
C3964 C 0.24475 0.01724 0.39295 0.0
H3965 H 0.2558 0.98946 0.41111 0.0
C3966 C 0.2379 0.01029 0.38237 0.0
C3967 C 0.251 0.00964 0.4036 0.0
C3968 C 0.25787 0.01656 0.41562 0.0
C3969 C 0.23766 0.99587 0.38187 0.0
C3970 C 0.24431 0.9883 0.3923 0.0
C3971 C 0.25081 0.99529 0.40306 0.0
C3972 C 0.24515 0.97313 0.39214 0.0
C3973 C 0.23073 0.98884 0.36998 0.0
C3974 C 0.23337 0.96501 0.39369 0.0
C3975 C 0.23451 0.95074 0.39488 0.0
C3976 C 0.24746 0.94437 0.39463 0.0
C3977 C 0.25917 0.95256 0.39269 0.0
C3978 C 0.25802 0.96677 0.39149 0.0
H3979 H 0.22846 0.99608 0.36148 0.0
H3980 H 0.23723 0.9804 0.36597 0.0
H3981 H 0.22092 0.98431 0.37351 0.0
H3982 H 0.22335 0.96973 0.39443 0.0
H3983 H 0.22528 0.94475 0.39642 0.0
H3984 H 0.06132 0.22471 0.39482 0.0
H3985 H 0.03656 0.22195 0.39155 0.0
H3986 H 0.03205 0.26578 0.38822 0.0
H3987 H 0.05667 0.26865 0.39132 0.0
H3988 H 0.01635 0.23261 0.40853 0.0
H3989 H 0.00968 0.25211 0.35569 0.0
H3990 H 0.02618 0.24715 0.36247 0.0
H3991 H 0.01911 0.26374 0.36637 0.0
C3992 C 0.05509 0.23375 0.39318 0.0
C3993 C 0.06101 0.24691 0.39333 0.0
C3994 C 0.04094 0.23215 0.39133 0.0
C3995 C 0.03248 0.24364 0.38944 0.0
C3996 C 0.0384 0.25674 0.38935 0.0
H3997 H 0.94937 0.26883 0.39267 0.0
H3998 H 0.97403 0.26575 0.38983 0.0
C3999 C 0.0525 0.25837 0.39123 0.0
C4000 C 0.01736 0.24216 0.38867 0.0
H4001 H 0.98943 0.25147 0.36973 0.0
C4002 C 0.01045 0.23649 0.39995 0.0
C4003 C 0.0097 0.24724 0.37746 0.0
C4004 C 0.01655 0.25278 0.36475 0.0
C4005 C 0.99607 0.23647 0.40065 0.0
C4006 C 0.98841 0.24205 0.38967 0.0
C4007 C 0.99532 0.24723 0.37816 0.0
C4008 C 0.9733 0.24361 0.39043 0.0
C4009 C 0.9892 0.23111 0.41344 0.0
C4010 C 0.96465 0.23215 0.39139 0.0
C4011 C 0.95049 0.23386 0.39304 0.0
C4012 C 0.94474 0.24708 0.39373 0.0
C4013 C 0.95343 0.2585 0.39227 0.0
C4014 C 0.96754 0.25677 0.39061 0.0
H4015 H 0.9966 0.22959 0.42196 0.0
H4016 H 0.98105 0.23825 0.41692 0.0
H4017 H 0.98434 0.22108 0.41117 0.0
H4018 H 0.96888 0.22189 0.39104 0.0
H4019 H 0.94411 0.22484 0.39406 0.0
H4020 H 0.22458 0.06218 0.61108 0.0
H4021 H 0.22179 0.03738 0.61395 0.0
H4022 H 0.26556 0.03288 0.61813 0.0
H4023 H 0.26845 0.05754 0.61542 0.0
H4024 H 0.23283 0.01741 0.59692 0.0
H4025 H 0.25122 0.01008 0.65008 0.0
H4026 H 0.24638 0.02666 0.64341 0.0
H4027 H 0.26305 0.01966 0.63976 0.0
C4028 C 0.2336 0.05594 0.61282 0.0
C4029 C 0.24674 0.06188 0.61302 0.0
C4030 C 0.23198 0.04177 0.61444 0.0
C4031 C 0.24344 0.0333 0.61645 0.0
C4032 C 0.25653 0.03923 0.6169 0.0
H4033 H 0.26838 0.95003 0.61308 0.0
H4034 H 0.26541 0.97469 0.61591 0.0
C4035 C 0.25817 0.05336 0.61525 0.0
C4036 C 0.24195 0.01817 0.61699 0.0
H4037 H 0.25079 0.99 0.63581 0.0
C4038 C 0.23653 0.0114 0.60552 0.0
C4039 C 0.24678 0.01037 0.62823 0.0
C4040 C 0.25206 0.01707 0.64113 0.0
C4041 C 0.23648 0.99703 0.60465 0.0
C4042 C 0.2418 0.98923 0.61567 0.0
C4043 C 0.24676 0.996 0.62736 0.0
C4044 C 0.24328 0.97413 0.61481 0.0
C4045 C 0.23137 0.99032 0.59168 0.0
C4046 C 0.23178 0.96556 0.61354 0.0
C4047 C 0.23343 0.9514 0.61189 0.0
C4048 C 0.24663 0.94555 0.61152 0.0
C4049 C 0.25807 0.95415 0.61324 0.0
C4050 C 0.25641 0.96827 0.6149 0.0
H4051 H 0.2301 0.99781 0.5832 0.0
H4052 H 0.23854 0.98216 0.58828 0.0
H4053 H 0.22127 0.9855 0.59368 0.0
H4054 H 0.22154 0.96985 0.61368 0.0
H4055 H 0.22439 0.94508 0.61066 0.0
H4056 H 0.94476 0.22504 0.6121 0.0
H4057 H 0.96951 0.22219 0.61532 0.0
H4058 H 0.97413 0.26599 0.61889 0.0
H4059 H 0.9495 0.26895 0.61583 0.0
H4060 H 0.9897 0.23292 0.59834 0.0
H4061 H 0.99653 0.25202 0.65131 0.0
H4062 H 0.98 0.24715 0.64453 0.0
H4063 H 0.98711 0.26373 0.64071 0.0
C4064 C 0.95101 0.23405 0.61378 0.0
C4065 C 0.94512 0.24723 0.61371 0.0
C4066 C 0.96515 0.2324 0.61561 0.0
C4067 C 0.97364 0.24386 0.61754 0.0
C4068 C 0.96775 0.25698 0.61772 0.0
H4069 H 0.05697 0.26848 0.6146 0.0
H4070 H 0.0323 0.26558 0.61742 0.0
C4071 C 0.95365 0.25865 0.61587 0.0
C4072 C 0.98876 0.24231 0.61827 0.0
H4073 H 0.01676 0.25128 0.63727 0.0
C4074 C 0.99563 0.2367 0.60695 0.0
C4075 C 0.99646 0.24726 0.62952 0.0
C4076 C 0.98964 0.25275 0.64227 0.0
C4077 C 0.01001 0.23657 0.60624 0.0
C4078 C 0.01771 0.24201 0.61726 0.0
C4079 C 0.01084 0.24715 0.62882 0.0
C4080 C 0.03284 0.24344 0.61652 0.0
C4081 C 0.01683 0.23127 0.5934 0.0
C4082 C 0.04139 0.23192 0.6154 0.0
C4083 C 0.05557 0.23353 0.61376 0.0
C4084 C 0.06143 0.24671 0.61325 0.0
C4085 C 0.05284 0.25818 0.61487 0.0
C4086 C 0.03871 0.25655 0.61652 0.0
H4087 H 0.00942 0.22994 0.58485 0.0
H4088 H 0.02506 0.23836 0.59 0.0
H4089 H 0.02157 0.22117 0.59557 0.0
H4090 H 0.03709 0.22169 0.61562 0.0
H4091 H 0.06188 0.22447 0.61261 0.0
H4092 H 0.06117 0.7813 0.61065 0.0
H4093 H 0.03637 0.78392 0.6137 0.0
H4094 H 0.03212 0.74008 0.61725 0.0
H4095 H 0.05679 0.73735 0.61438 0.0
H4096 H 0.01633 0.7731 0.59668 0.0
H4097 H 0.00949 0.75376 0.64957 0.0
H4098 H 0.02601 0.75875 0.64285 0.0
H4099 H 0.019 0.74213 0.63896 0.0
C4100 C 0.05498 0.77223 0.61228 0.0
C4101 C 0.06099 0.75911 0.61227 0.0
C4102 C 0.04081 0.77375 0.61401 0.0
C4103 C 0.03242 0.76222 0.6159 0.0
C4104 C 0.03842 0.74915 0.61612 0.0
H4105 H 0.94912 0.73719 0.61282 0.0
H4106 H 0.97381 0.74013 0.61552 0.0
C4107 C 0.05255 0.74761 0.61437 0.0
C4108 C 0.01729 0.76363 0.61659 0.0
H4109 H 0.98929 0.75439 0.63547 0.0
C4110 C 0.01041 0.76924 0.60526 0.0
C4111 C 0.00959 0.75858 0.62779 0.0
C4112 C 0.0164 0.75309 0.64054 0.0
C4113 C 0.99603 0.76927 0.60451 0.0
C4114 C 0.98834 0.76374 0.6155 0.0
C4115 C 0.99521 0.75859 0.62705 0.0
C4116 C 0.97322 0.76227 0.61474 0.0
C4117 C 0.9892 0.77459 0.59168 0.0
C4118 C 0.96464 0.77378 0.61371 0.0
C4119 C 0.95046 0.77215 0.61212 0.0
C4120 C 0.94462 0.75896 0.6116 0.0
C4121 C 0.95324 0.74749 0.61311 0.0
C4122 C 0.96738 0.74914 0.61469 0.0
H4123 H 0.99662 0.77598 0.58315 0.0
H4124 H 0.981 0.76748 0.58825 0.0
H4125 H 0.98442 0.78467 0.59388 0.0
H4126 H 0.96892 0.78402 0.61397 0.0
H4127 H 0.94413 0.7812 0.61107 0.0
loop_
_geom_bond_atom_site_label_1
_geom_bond_atom_site_label_2
_geom_bond_distance
_geom_bond_site_symmetry_2
_ccdc_geom_bond_type
O0 Cd1 2.223 . S
O0 C8 1.315 . S
Cd1 O0 2.223 . S
Cd1 O4 2.297 . S
Cd1 O5 2.439 . S
Cd1 O11 2.240 . S
Cd2 O3 2.240 . S
Cd2 O10 2.223 . S
Cd2 O12 2.297 . S
Cd2 O13 2.439 . S
O3 Cd2 2.240 . S
O3 C8 1.279 . S
O4 Cd1 2.297 . S
O4 C6 1.247 . S
O5 Cd1 2.439 . S
O5 C6 1.208 . S
C6 O4 1.247 . S
C6 O5 1.208 . S
C7 O12 1.247 . S
C7 O13 1.208 . S
C8 O0 1.315 . S
C8 O3 1.279 . S
C9 O10 1.315 . S
C9 O11 1.279 . S
O10 Cd2 2.223 . S
O10 C9 1.315 . S
O11 Cd1 2.240 . S
O11 C9 1.279 . S
O12 Cd2 2.297 . S
O12 C7 1.247 . S
O13 Cd2 2.439 . S
O13 C7 1.208 . S
O14 Cd15 2.223 . S
O14 C22 1.315 . S
Cd15 O14 2.223 . S
Cd15 O18 2.297 . S
Cd15 O19 2.439 . S
Cd15 O25 2.240 . S
Cd16 O17 2.240 . S
Cd16 O24 2.223 . S
Cd16 O26 2.297 . S
Cd16 O27 2.439 . S
O17 Cd16 2.240 . S
O17 C22 1.279 . S
O18 Cd15 2.297 . S
O18 C20 1.247 . S
O19 Cd15 2.439 . S
O19 C20 1.208 . S
C20 O18 1.247 . S
C20 O19 1.208 . S
C21 O26 1.247 . S
C21 O27 1.208 . S
C22 O14 1.315 . S
C22 O17 1.279 . S
C23 O24 1.315 . S
C23 O25 1.279 . S
O24 Cd16 2.223 . S
O24 C23 1.315 . S
O25 Cd15 2.240 . S
O25 C23 1.279 . S
O26 Cd16 2.297 . S
O26 C21 1.247 . S
O27 Cd16 2.439 . S
O27 C21 1.208 . S
O28 Cd29 2.223 . S
O28 C36 1.315 . S
Cd29 O28 2.223 . S
Cd29 O32 2.297 . S
Cd29 O33 2.439 . S
Cd29 O39 2.240 . S
Cd30 O31 2.240 . S
Cd30 O38 2.223 . S
Cd30 O40 2.297 . S
Cd30 O41 2.439 . S
O31 Cd30 2.240 . S
O31 C36 1.279 . S
O32 Cd29 2.297 . S
O32 C34 1.247 . S
O33 Cd29 2.439 . S
O33 C34 1.208 . S
C34 O32 1.247 . S
C34 O33 1.208 . S
C35 O40 1.247 . S
C35 O41 1.208 . S
C36 O28 1.315 . S
C36 O31 1.279 . S
C37 O38 1.315 . S
C37 O39 1.279 . S
O38 Cd30 2.223 . S
O38 C37 1.315 . S
O39 Cd29 2.240 . S
O39 C37 1.279 . S
O40 Cd30 2.297 . S
O40 C35 1.247 . S
O41 Cd30 2.439 . S
O41 C35 1.208 . S
O42 Cd43 2.223 . S
O42 C50 1.315 . S
Cd43 O42 2.223 . S
Cd43 O46 2.297 . S
Cd43 O47 2.439 . S
Cd43 O53 2.240 . S
Cd44 O45 2.240 . S
Cd44 O52 2.223 . S
Cd44 O54 2.297 . S
Cd44 O55 2.439 . S
O45 Cd44 2.240 . S
O45 C50 1.279 . S
O46 Cd43 2.297 . S
O46 C48 1.247 . S
O47 Cd43 2.439 . S
O47 C48 1.208 . S
C48 O46 1.247 . S
C48 O47 1.208 . S
C49 O54 1.247 . S
C49 O55 1.208 . S
C50 O42 1.315 . S
C50 O45 1.279 . S
C51 O52 1.315 . S
C51 O53 1.279 . S
O52 Cd44 2.223 . S
O52 C51 1.315 . S
O53 Cd43 2.240 . S
O53 C51 1.279 . S
O54 Cd44 2.297 . S
O54 C49 1.247 . S
O55 Cd44 2.439 . S
O55 C49 1.208 . S
O56 Cd57 2.223 . S
O56 C64 1.315 . S
Cd57 O56 2.223 . S
Cd57 O60 2.297 . S
Cd57 O61 2.439 . S
Cd57 O67 2.240 . S
Cd58 O59 2.240 . S
Cd58 O66 2.223 . S
Cd58 O68 2.297 . S
Cd58 O69 2.439 . S
O59 Cd58 2.240 . S
O59 C64 1.279 . S
O60 Cd57 2.297 . S
O60 C62 1.247 . S
O61 Cd57 2.439 . S
O61 C62 1.208 . S
C62 O60 1.247 . S
C62 O61 1.208 . S
C63 O68 1.247 . S
C63 O69 1.208 . S
C64 O56 1.315 . S
C64 O59 1.279 . S
C65 O66 1.315 . S
C65 O67 1.279 . S
O66 Cd58 2.223 . S
O66 C65 1.315 . S
O67 Cd57 2.240 . S
O67 C65 1.279 . S
O68 Cd58 2.297 . S
O68 C63 1.247 . S
O69 Cd58 2.439 . S
O69 C63 1.208 . S
O70 Cd71 2.223 . S
O70 C78 1.315 . S
Cd71 O70 2.223 . S
Cd71 O74 2.297 . S
Cd71 O75 2.439 . S
Cd71 O81 2.240 . S
Cd72 O73 2.240 . S
Cd72 O80 2.223 . S
Cd72 O82 2.297 . S
Cd72 O83 2.439 . S
O73 Cd72 2.240 . S
O73 C78 1.279 . S
O74 Cd71 2.297 . S
O74 C76 1.247 . S
O75 Cd71 2.439 . S
O75 C76 1.208 . S
C76 O74 1.247 . S
C76 O75 1.208 . S
C77 O82 1.247 . S
C77 O83 1.208 . S
C78 O70 1.315 . S
C78 O73 1.279 . S
C79 O80 1.315 . S
C79 O81 1.279 . S
O80 Cd72 2.223 . S
O80 C79 1.315 . S
O81 Cd71 2.240 . S
O81 C79 1.279 . S
O82 Cd72 2.297 . S
O82 C77 1.247 . S
O83 Cd72 2.439 . S
O83 C77 1.208 . S
O84 Cd85 2.223 . S
O84 C92 1.315 . S
Cd85 O84 2.223 . S
Cd85 O88 2.297 . S
Cd85 O89 2.439 . S
Cd85 O95 2.240 . S
Cd86 O87 2.240 . S
Cd86 O94 2.223 . S
Cd86 O96 2.297 . S
Cd86 O97 2.439 . S
O87 Cd86 2.240 . S
O87 C92 1.279 . S
O88 Cd85 2.297 . S
O88 C90 1.247 . S
O89 Cd85 2.439 . S
O89 C90 1.208 . S
C90 O88 1.247 . S
C90 O89 1.208 . S
C91 O96 1.247 . S
C91 O97 1.208 . S
C92 O84 1.315 . S
C92 O87 1.279 . S
C93 O94 1.315 . S
C93 O95 1.279 . S
O94 Cd86 2.223 . S
O94 C93 1.315 . S
O95 Cd85 2.240 . S
O95 C93 1.279 . S
O96 Cd86 2.297 . S
O96 C91 1.247 . S
O97 Cd86 2.439 . S
O97 C91 1.208 . S
O98 Cd99 2.223 . S
O98 C106 1.315 . S
Cd99 O98 2.223 . S
Cd99 O102 2.297 . S
Cd99 O103 2.439 . S
Cd99 O109 2.240 . S
Cd100 O101 2.240 . S
Cd100 O108 2.223 . S
Cd100 O110 2.297 . S
Cd100 O111 2.439 . S
O101 Cd100 2.240 . S
O101 C106 1.279 . S
O102 Cd99 2.297 . S
O102 C104 1.247 . S
O103 Cd99 2.439 . S
O103 C104 1.208 . S
C104 O102 1.247 . S
C104 O103 1.208 . S
C105 O110 1.247 . S
C105 O111 1.208 . S
C106 O98 1.315 . S
C106 O101 1.279 . S
C107 O108 1.315 . S
C107 O109 1.279 . S
O108 Cd100 2.223 . S
O108 C107 1.315 . S
O109 Cd99 2.240 . S
O109 C107 1.279 . S
O110 Cd100 2.297 . S
O110 C105 1.247 . S
O111 Cd100 2.439 . S
O111 C105 1.208 . S
O112 Cd113 2.223 . S
O112 C120 1.315 . S
Cd113 O112 2.223 . S
Cd113 O116 2.297 . S
Cd113 O117 2.439 . S
Cd113 O123 2.240 . S
Cd114 O115 2.240 . S
Cd114 O122 2.223 . S
Cd114 O124 2.297 . S
Cd114 O125 2.439 . S
O115 Cd114 2.240 . S
O115 C120 1.279 . S
O116 Cd113 2.297 . S
O116 C118 1.247 . S
O117 Cd113 2.439 . S
O117 C118 1.208 . S
C118 O116 1.247 . S
C118 O117 1.208 . S
C119 O124 1.247 . S
C119 O125 1.208 . S
C120 O112 1.315 . S
C120 O115 1.279 . S
C121 O122 1.315 . S
C121 O123 1.279 . S
O122 Cd114 2.223 . S
O122 C121 1.315 . S
O123 Cd113 2.240 . S
O123 C121 1.279 . S
O124 Cd114 2.297 . S
O124 C119 1.247 . S
O125 Cd114 2.439 . S
O125 C119 1.208 . S
O126 Cd127 2.223 . S
O126 C134 1.315 . S
Cd127 O126 2.223 . S
Cd127 O130 2.297 . S
Cd127 O131 2.439 . S
Cd127 O137 2.240 . S
Cd128 O129 2.240 . S
Cd128 O136 2.223 . S
Cd128 O138 2.297 . S
Cd128 O139 2.439 . S
O129 Cd128 2.240 . S
O129 C134 1.279 . S
O130 Cd127 2.297 . S
O130 C132 1.247 . S
O131 Cd127 2.439 . S
O131 C132 1.208 . S
C132 O130 1.247 . S
C132 O131 1.208 . S
C133 O138 1.247 . S
C133 O139 1.208 . S
C134 O126 1.315 . S
C134 O129 1.279 . S
C135 O136 1.315 . S
C135 O137 1.279 . S
O136 Cd128 2.223 . S
O136 C135 1.315 . S
O137 Cd127 2.240 . S
O137 C135 1.279 . S
O138 Cd128 2.297 . S
O138 C133 1.247 . S
O139 Cd128 2.439 . S
O139 C133 1.208 . S
O140 Cd141 2.223 . S
O140 C148 1.315 . S
Cd141 O140 2.223 . S
Cd141 O144 2.297 . S
Cd141 O145 2.439 . S
Cd141 O151 2.240 . S
Cd142 O143 2.240 . S
Cd142 O150 2.223 . S
Cd142 O152 2.297 . S
Cd142 O153 2.439 . S
O143 Cd142 2.240 . S
O143 C148 1.279 . S
O144 Cd141 2.297 . S
O144 C146 1.247 . S
O145 Cd141 2.439 . S
O145 C146 1.208 . S
C146 O144 1.247 . S
C146 O145 1.208 . S
C147 O152 1.247 . S
C147 O153 1.208 . S
C148 O140 1.315 . S
C148 O143 1.279 . S
C149 O150 1.315 . S
C149 O151 1.279 . S
O150 Cd142 2.223 . S
O150 C149 1.315 . S
O151 Cd141 2.240 . S
O151 C149 1.279 . S
O152 Cd142 2.297 . S
O152 C147 1.247 . S
O153 Cd142 2.439 . S
O153 C147 1.208 . S
O154 Cd155 2.223 . S
O154 C162 1.315 . S
Cd155 O154 2.223 . S
Cd155 O158 2.297 . S
Cd155 O159 2.439 . S
Cd155 O165 2.240 . S
Cd156 O157 2.240 . S
Cd156 O164 2.223 . S
Cd156 O166 2.297 . S
Cd156 O167 2.439 . S
O157 Cd156 2.240 . S
O157 C162 1.279 . S
O158 Cd155 2.297 . S
O158 C160 1.247 . S
O159 Cd155 2.439 . S
O159 C160 1.208 . S
C160 O158 1.247 . S
C160 O159 1.208 . S
C161 O166 1.247 . S
C161 O167 1.208 . S
C162 O154 1.315 . S
C162 O157 1.279 . S
C163 O164 1.315 . S
C163 O165 1.279 . S
O164 Cd156 2.223 . S
O164 C163 1.315 . S
O165 Cd155 2.240 . S
O165 C163 1.279 . S
O166 Cd156 2.297 . S
O166 C161 1.247 . S
O167 Cd156 2.439 . S
O167 C161 1.208 . S
O168 Cd169 2.223 . S
O168 C176 1.315 . S
Cd169 O168 2.223 . S
Cd169 O172 2.297 . S
Cd169 O173 2.439 . S
Cd169 O179 2.240 . S
Cd170 O171 2.240 . S
Cd170 O178 2.223 . S
Cd170 O180 2.297 . S
Cd170 O181 2.439 . S
O171 Cd170 2.240 . S
O171 C176 1.279 . S
O172 Cd169 2.297 . S
O172 C174 1.247 . S
O173 Cd169 2.439 . S
O173 C174 1.208 . S
C174 O172 1.247 . S
C174 O173 1.208 . S
C175 O180 1.247 . S
C175 O181 1.208 . S
C176 O168 1.315 . S
C176 O171 1.279 . S
C177 O178 1.315 . S
C177 O179 1.279 . S
O178 Cd170 2.223 . S
O178 C177 1.315 . S
O179 Cd169 2.240 . S
O179 C177 1.279 . S
O180 Cd170 2.297 . S
O180 C175 1.247 . S
O181 Cd170 2.439 . S
O181 C175 1.208 . S
O182 Cd183 2.223 . S
O182 C190 1.315 . S
Cd183 O182 2.223 . S
Cd183 O186 2.297 . S
Cd183 O187 2.439 . S
Cd183 O193 2.240 . S
Cd184 O185 2.240 . S
Cd184 O192 2.223 . S
Cd184 O194 2.297 . S
Cd184 O195 2.439 . S
O185 Cd184 2.240 . S
O185 C190 1.279 . S
O186 Cd183 2.297 . S
O186 C188 1.247 . S
O187 Cd183 2.439 . S
O187 C188 1.208 . S
C188 O186 1.247 . S
C188 O187 1.208 . S
C189 O194 1.247 . S
C189 O195 1.208 . S
C190 O182 1.315 . S
C190 O185 1.279 . S
C191 O192 1.315 . S
C191 O193 1.279 . S
O192 Cd184 2.223 . S
O192 C191 1.315 . S
O193 Cd183 2.240 . S
O193 C191 1.279 . S
O194 Cd184 2.297 . S
O194 C189 1.247 . S
O195 Cd184 2.439 . S
O195 C189 1.208 . S
O196 Cd197 2.223 . S
O196 C204 1.315 . S
Cd197 O196 2.223 . S
Cd197 O200 2.297 . S
Cd197 O201 2.439 . S
Cd197 O207 2.240 . S
Cd198 O199 2.240 . S
Cd198 O206 2.223 . S
Cd198 O208 2.297 . S
Cd198 O209 2.439 . S
O199 Cd198 2.240 . S
O199 C204 1.279 . S
O200 Cd197 2.297 . S
O200 C202 1.247 . S
O201 Cd197 2.439 . S
O201 C202 1.208 . S
C202 O200 1.247 . S
C202 O201 1.208 . S
C203 O208 1.247 . S
C203 O209 1.208 . S
C204 O196 1.315 . S
C204 O199 1.279 . S
C205 O206 1.315 . S
C205 O207 1.279 . S
O206 Cd198 2.223 . S
O206 C205 1.315 . S
O207 Cd197 2.240 . S
O207 C205 1.279 . S
O208 Cd198 2.297 . S
O208 C203 1.247 . S
O209 Cd198 2.439 . S
O209 C203 1.208 . S
O210 Cd211 2.223 . S
O210 C218 1.315 . S
Cd211 O210 2.223 . S
Cd211 O214 2.297 . S
Cd211 O215 2.439 . S
Cd211 O221 2.240 . S
Cd212 O213 2.240 . S
Cd212 O220 2.223 . S
Cd212 O222 2.297 . S
Cd212 O223 2.439 . S
O213 Cd212 2.240 . S
O213 C218 1.279 . S
O214 Cd211 2.297 . S
O214 C216 1.247 . S
O215 Cd211 2.439 . S
O215 C216 1.208 . S
C216 O214 1.247 . S
C216 O215 1.208 . S
C217 O222 1.247 . S
C217 O223 1.208 . S
C218 O210 1.315 . S
C218 O213 1.279 . S
C219 O220 1.315 . S
C219 O221 1.279 . S
O220 Cd212 2.223 . S
O220 C219 1.315 . S
O221 Cd211 2.240 . S
O221 C219 1.279 . S
O222 Cd212 2.297 . S
O222 C217 1.247 . S
O223 Cd212 2.439 . S
O223 C217 1.208 . S
O224 Cd225 2.223 . S
O224 C232 1.315 . S
Cd225 O224 2.223 . S
Cd225 O228 2.297 . S
Cd225 O229 2.439 . S
Cd225 O235 2.240 . S
Cd226 O227 2.240 . S
Cd226 O234 2.223 . S
Cd226 O236 2.297 . S
Cd226 O237 2.439 . S
O227 Cd226 2.240 . S
O227 C232 1.279 . S
O228 Cd225 2.297 . S
O228 C230 1.247 . S
O229 Cd225 2.439 . S
O229 C230 1.208 . S
C230 O228 1.247 . S
C230 O229 1.208 . S
C231 O236 1.247 . S
C231 O237 1.208 . S
C232 O224 1.315 . S
C232 O227 1.279 . S
C233 O234 1.315 . S
C233 O235 1.279 . S
O234 Cd226 2.223 . S
O234 C233 1.315 . S
O235 Cd225 2.240 . S
O235 C233 1.279 . S
O236 Cd226 2.297 . S
O236 C231 1.247 . S
O237 Cd226 2.439 . S
O237 C231 1.208 . S
O238 Cd239 2.223 . S
O238 C246 1.315 . S
Cd239 O238 2.223 . S
Cd239 O242 2.297 . S
Cd239 O243 2.439 . S
Cd239 O249 2.240 . S
Cd240 O241 2.240 . S
Cd240 O248 2.223 . S
Cd240 O250 2.297 . S
Cd240 O251 2.439 . S
O241 Cd240 2.240 . S
O241 C246 1.279 . S
O242 Cd239 2.297 . S
O242 C244 1.247 . S
O243 Cd239 2.439 . S
O243 C244 1.208 . S
C244 O242 1.247 . S
C244 O243 1.208 . S
C245 O250 1.247 . S
C245 O251 1.208 . S
C246 O238 1.315 . S
C246 O241 1.279 . S
C247 O248 1.315 . S
C247 O249 1.279 . S
O248 Cd240 2.223 . S
O248 C247 1.315 . S
O249 Cd239 2.240 . S
O249 C247 1.279 . S
O250 Cd240 2.297 . S
O250 C245 1.247 . S
O251 Cd240 2.439 . S
O251 C245 1.208 . S
O252 Cd253 2.223 . S
O252 C260 1.315 . S
Cd253 O252 2.223 . S
Cd253 O256 2.297 . S
Cd253 O257 2.439 . S
Cd253 O263 2.240 . S
Cd254 O255 2.240 . S
Cd254 O262 2.223 . S
Cd254 O264 2.297 . S
Cd254 O265 2.439 . S
O255 Cd254 2.240 . S
O255 C260 1.279 . S
O256 Cd253 2.297 . S
O256 C258 1.247 . S
O257 Cd253 2.439 . S
O257 C258 1.208 . S
C258 O256 1.247 . S
C258 O257 1.208 . S
C259 O264 1.247 . S
C259 O265 1.208 . S
C260 O252 1.315 . S
C260 O255 1.279 . S
C261 O262 1.315 . S
C261 O263 1.279 . S
O262 Cd254 2.223 . S
O262 C261 1.315 . S
O263 Cd253 2.240 . S
O263 C261 1.279 . S
O264 Cd254 2.297 . S
O264 C259 1.247 . S
O265 Cd254 2.439 . S
O265 C259 1.208 . S
O266 Cd267 2.223 . S
O266 C274 1.315 . S
Cd267 O266 2.223 . S
Cd267 O270 2.297 . S
Cd267 O271 2.439 . S
Cd267 O277 2.240 . S
Cd268 O269 2.240 . S
Cd268 O276 2.223 . S
Cd268 O278 2.297 . S
Cd268 O279 2.439 . S
O269 Cd268 2.240 . S
O269 C274 1.279 . S
O270 Cd267 2.297 . S
O270 C272 1.247 . S
O271 Cd267 2.439 . S
O271 C272 1.208 . S
C272 O270 1.247 . S
C272 O271 1.208 . S
C273 O278 1.247 . S
C273 O279 1.208 . S
C274 O266 1.315 . S
C274 O269 1.279 . S
C275 O276 1.315 . S
C275 O277 1.279 . S
O276 Cd268 2.223 . S
O276 C275 1.315 . S
O277 Cd267 2.240 . S
O277 C275 1.279 . S
O278 Cd268 2.297 . S
O278 C273 1.247 . S
O279 Cd268 2.439 . S
O279 C273 1.208 . S
O280 Cd281 2.223 . S
O280 C288 1.315 . S
Cd281 O280 2.223 . S
Cd281 O284 2.297 . S
Cd281 O285 2.439 . S
Cd281 O291 2.240 . S
Cd282 O283 2.240 . S
Cd282 O290 2.223 . S
Cd282 O292 2.297 . S
Cd282 O293 2.439 . S
O283 Cd282 2.240 . S
O283 C288 1.279 . S
O284 Cd281 2.297 . S
O284 C286 1.247 . S
O285 Cd281 2.439 . S
O285 C286 1.208 . S
C286 O284 1.247 . S
C286 O285 1.208 . S
C287 O292 1.247 . S
C287 O293 1.208 . S
C288 O280 1.315 . S
C288 O283 1.279 . S
C289 O290 1.315 . S
C289 O291 1.279 . S
O290 Cd282 2.223 . S
O290 C289 1.315 . S
O291 Cd281 2.240 . S
O291 C289 1.279 . S
O292 Cd282 2.297 . S
O292 C287 1.247 . S
O293 Cd282 2.439 . S
O293 C287 1.208 . S
O294 Cd295 2.223 . S
O294 C302 1.315 . S
Cd295 O294 2.223 . S
Cd295 O298 2.297 . S
Cd295 O299 2.439 . S
Cd295 O305 2.240 . S
Cd296 O297 2.240 . S
Cd296 O304 2.223 . S
Cd296 O306 2.297 . S
Cd296 O307 2.439 . S
O297 Cd296 2.240 . S
O297 C302 1.279 . S
O298 Cd295 2.297 . S
O298 C300 1.247 . S
O299 Cd295 2.439 . S
O299 C300 1.208 . S
C300 O298 1.247 . S
C300 O299 1.208 . S
C301 O306 1.247 . S
C301 O307 1.208 . S
C302 O294 1.315 . S
C302 O297 1.279 . S
C303 O304 1.315 . S
C303 O305 1.279 . S
O304 Cd296 2.223 . S
O304 C303 1.315 . S
O305 Cd295 2.240 . S
O305 C303 1.279 . S
O306 Cd296 2.297 . S
O306 C301 1.247 . S
O307 Cd296 2.439 . S
O307 C301 1.208 . S
O308 Cd309 2.223 . S
O308 C316 1.315 . S
Cd309 O308 2.223 . S
Cd309 O312 2.297 . S
Cd309 O313 2.439 . S
Cd309 O319 2.240 . S
Cd310 O311 2.240 . S
Cd310 O318 2.223 . S
Cd310 O320 2.297 . S
Cd310 O321 2.439 . S
O311 Cd310 2.240 . S
O311 C316 1.279 . S
O312 Cd309 2.297 . S
O312 C314 1.247 . S
O313 Cd309 2.439 . S
O313 C314 1.208 . S
C314 O312 1.247 . S
C314 O313 1.208 . S
C315 O320 1.247 . S
C315 O321 1.208 . S
C316 O308 1.315 . S
C316 O311 1.279 . S
C317 O318 1.315 . S
C317 O319 1.279 . S
O318 Cd310 2.223 . S
O318 C317 1.315 . S
O319 Cd309 2.240 . S
O319 C317 1.279 . S
O320 Cd310 2.297 . S
O320 C315 1.247 . S
O321 Cd310 2.439 . S
O321 C315 1.208 . S
O322 Cd323 2.223 . S
O322 C330 1.315 . S
Cd323 O322 2.223 . S
Cd323 O326 2.297 . S
Cd323 O327 2.439 . S
Cd323 O333 2.240 . S
Cd324 O325 2.240 . S
Cd324 O332 2.223 . S
Cd324 O334 2.297 . S
Cd324 O335 2.439 . S
O325 Cd324 2.240 . S
O325 C330 1.279 . S
O326 Cd323 2.297 . S
O326 C328 1.247 . S
O327 Cd323 2.439 . S
O327 C328 1.208 . S
C328 O326 1.247 . S
C328 O327 1.208 . S
C329 O334 1.247 . S
C329 O335 1.208 . S
C330 O322 1.315 . S
C330 O325 1.279 . S
C331 O332 1.315 . S
C331 O333 1.279 . S
O332 Cd324 2.223 . S
O332 C331 1.315 . S
O333 Cd323 2.240 . S
O333 C331 1.279 . S
O334 Cd324 2.297 . S
O334 C329 1.247 . S
O335 Cd324 2.439 . S
O335 C329 1.208 . S
O336 Cd337 2.223 . S
O336 C344 1.315 . S
Cd337 O336 2.223 . S
Cd337 O340 2.297 . S
Cd337 O341 2.439 . S
Cd337 O347 2.240 . S
Cd338 O339 2.240 . S
Cd338 O346 2.223 . S
Cd338 O348 2.297 . S
Cd338 O349 2.439 . S
O339 Cd338 2.240 . S
O339 C344 1.279 . S
O340 Cd337 2.297 . S
O340 C342 1.247 . S
O341 Cd337 2.439 . S
O341 C342 1.208 . S
C342 O340 1.247 . S
C342 O341 1.208 . S
C343 O348 1.247 . S
C343 O349 1.208 . S
C344 O336 1.315 . S
C344 O339 1.279 . S
C345 O346 1.315 . S
C345 O347 1.279 . S
O346 Cd338 2.223 . S
O346 C345 1.315 . S
O347 Cd337 2.240 . S
O347 C345 1.279 . S
O348 Cd338 2.297 . S
O348 C343 1.247 . S
O349 Cd338 2.439 . S
O349 C343 1.208 . S
O350 Cd351 2.223 . S
O350 C358 1.315 . S
Cd351 O350 2.223 . S
Cd351 O354 2.297 . S
Cd351 O355 2.439 . S
Cd351 O361 2.240 . S
Cd352 O353 2.240 . S
Cd352 O360 2.223 . S
Cd352 O362 2.297 . S
Cd352 O363 2.439 . S
O353 Cd352 2.240 . S
O353 C358 1.279 . S
O354 Cd351 2.297 . S
O354 C356 1.247 . S
O355 Cd351 2.439 . S
O355 C356 1.208 . S
C356 O354 1.247 . S
C356 O355 1.208 . S
C357 O362 1.247 . S
C357 O363 1.208 . S
C358 O350 1.315 . S
C358 O353 1.279 . S
C359 O360 1.315 . S
C359 O361 1.279 . S
O360 Cd352 2.223 . S
O360 C359 1.315 . S
O361 Cd351 2.240 . S
O361 C359 1.279 . S
O362 Cd352 2.297 . S
O362 C357 1.247 . S
O363 Cd352 2.439 . S
O363 C357 1.208 . S
O364 Cd365 2.223 . S
O364 C372 1.315 . S
Cd365 O364 2.223 . S
Cd365 O368 2.297 . S
Cd365 O369 2.439 . S
Cd365 O375 2.240 . S
Cd366 O367 2.240 . S
Cd366 O374 2.223 . S
Cd366 O376 2.297 . S
Cd366 O377 2.439 . S
O367 Cd366 2.240 . S
O367 C372 1.279 . S
O368 Cd365 2.297 . S
O368 C370 1.247 . S
O369 Cd365 2.439 . S
O369 C370 1.208 . S
C370 O368 1.247 . S
C370 O369 1.208 . S
C371 O376 1.247 . S
C371 O377 1.208 . S
C372 O364 1.315 . S
C372 O367 1.279 . S
C373 O374 1.315 . S
C373 O375 1.279 . S
O374 Cd366 2.223 . S
O374 C373 1.315 . S
O375 Cd365 2.240 . S
O375 C373 1.279 . S
O376 Cd366 2.297 . S
O376 C371 1.247 . S
O377 Cd366 2.439 . S
O377 C371 1.208 . S
O378 Cd379 2.223 . S
O378 C386 1.315 . S
Cd379 O378 2.223 . S
Cd379 O382 2.297 . S
Cd379 O383 2.439 . S
Cd379 O389 2.240 . S
Cd380 O381 2.240 . S
Cd380 O388 2.223 . S
Cd380 O390 2.297 . S
Cd380 O391 2.439 . S
O381 Cd380 2.240 . S
O381 C386 1.279 . S
O382 Cd379 2.297 . S
O382 C384 1.247 . S
O383 Cd379 2.439 . S
O383 C384 1.208 . S
C384 O382 1.247 . S
C384 O383 1.208 . S
C385 O390 1.247 . S
C385 O391 1.208 . S
C386 O378 1.315 . S
C386 O381 1.279 . S
C387 O388 1.315 . S
C387 O389 1.279 . S
O388 Cd380 2.223 . S
O388 C387 1.315 . S
O389 Cd379 2.240 . S
O389 C387 1.279 . S
O390 Cd380 2.297 . S
O390 C385 1.247 . S
O391 Cd380 2.439 . S
O391 C385 1.208 . S
O392 Cd393 2.223 . S
O392 C400 1.315 . S
Cd393 O392 2.223 . S
Cd393 O396 2.297 . S
Cd393 O397 2.439 . S
Cd393 O403 2.240 . S
Cd394 O395 2.240 . S
Cd394 O402 2.223 . S
Cd394 O404 2.297 . S
Cd394 O405 2.439 . S
O395 Cd394 2.240 . S
O395 C400 1.279 . S
O396 Cd393 2.297 . S
O396 C398 1.247 . S
O397 Cd393 2.439 . S
O397 C398 1.208 . S
C398 O396 1.247 . S
C398 O397 1.208 . S
C399 O404 1.247 . S
C399 O405 1.208 . S
C400 O392 1.315 . S
C400 O395 1.279 . S
C401 O402 1.315 . S
C401 O403 1.279 . S
O402 Cd394 2.223 . S
O402 C401 1.315 . S
O403 Cd393 2.240 . S
O403 C401 1.279 . S
O404 Cd394 2.297 . S
O404 C399 1.247 . S
O405 Cd394 2.439 . S
O405 C399 1.208 . S
O406 Cd407 2.223 . S
O406 C414 1.315 . S
Cd407 O406 2.223 . S
Cd407 O410 2.297 . S
Cd407 O411 2.439 . S
Cd407 O417 2.240 . S
Cd408 O409 2.240 . S
Cd408 O416 2.223 . S
Cd408 O418 2.297 . S
Cd408 O419 2.439 . S
O409 Cd408 2.240 . S
O409 C414 1.279 . S
O410 Cd407 2.297 . S
O410 C412 1.247 . S
O411 Cd407 2.439 . S
O411 C412 1.208 . S
C412 O410 1.247 . S
C412 O411 1.208 . S
C413 O418 1.247 . S
C413 O419 1.208 . S
C414 O406 1.315 . S
C414 O409 1.279 . S
C415 O416 1.315 . S
C415 O417 1.279 . S
O416 Cd408 2.223 . S
O416 C415 1.315 . S
O417 Cd407 2.240 . S
O417 C415 1.279 . S
O418 Cd408 2.297 . S
O418 C413 1.247 . S
O419 Cd408 2.439 . S
O419 C413 1.208 . S
O420 Cd421 2.223 . S
O420 C428 1.315 . S
Cd421 O420 2.223 . S
Cd421 O424 2.297 . S
Cd421 O425 2.439 . S
Cd421 O431 2.240 . S
Cd422 O423 2.240 . S
Cd422 O430 2.223 . S
Cd422 O432 2.297 . S
Cd422 O433 2.439 . S
O423 Cd422 2.240 . S
O423 C428 1.279 . S
O424 Cd421 2.297 . S
O424 C426 1.247 . S
O425 Cd421 2.439 . S
O425 C426 1.208 . S
C426 O424 1.247 . S
C426 O425 1.208 . S
C427 O432 1.247 . S
C427 O433 1.208 . S
C428 O420 1.315 . S
C428 O423 1.279 . S
C429 O430 1.315 . S
C429 O431 1.279 . S
O430 Cd422 2.223 . S
O430 C429 1.315 . S
O431 Cd421 2.240 . S
O431 C429 1.279 . S
O432 Cd422 2.297 . S
O432 C427 1.247 . S
O433 Cd422 2.439 . S
O433 C427 1.208 . S
O434 Cd435 2.223 . S
O434 C442 1.315 . S
Cd435 O434 2.223 . S
Cd435 O438 2.297 . S
Cd435 O439 2.439 . S
Cd435 O445 2.240 . S
Cd436 O437 2.240 . S
Cd436 O444 2.223 . S
Cd436 O446 2.297 . S
Cd436 O447 2.439 . S
O437 Cd436 2.240 . S
O437 C442 1.279 . S
O438 Cd435 2.297 . S
O438 C440 1.247 . S
O439 Cd435 2.439 . S
O439 C440 1.208 . S
C440 O438 1.247 . S
C440 O439 1.208 . S
C441 O446 1.247 . S
C441 O447 1.208 . S
C442 O434 1.315 . S
C442 O437 1.279 . S
C443 O444 1.315 . S
C443 O445 1.279 . S
O444 Cd436 2.223 . S
O444 C443 1.315 . S
O445 Cd435 2.240 . S
O445 C443 1.279 . S
O446 Cd436 2.297 . S
O446 C441 1.247 . S
O447 Cd436 2.439 . S
O447 C441 1.208 . S
O448 Cd449 2.223 . S
O448 C456 1.315 . S
Cd449 O448 2.223 . S
Cd449 O452 2.297 . S
Cd449 O453 2.439 . S
Cd449 O459 2.240 . S
Cd450 O451 2.240 . S
Cd450 O458 2.223 . S
Cd450 O460 2.297 . S
Cd450 O461 2.439 . S
O451 Cd450 2.240 . S
O451 C456 1.279 . S
O452 Cd449 2.297 . S
O452 C454 1.247 . S
O453 Cd449 2.439 . S
O453 C454 1.208 . S
C454 O452 1.247 . S
C454 O453 1.208 . S
C455 O460 1.247 . S
C455 O461 1.208 . S
C456 O448 1.315 . S
C456 O451 1.279 . S
C457 O458 1.315 . S
C457 O459 1.279 . S
O458 Cd450 2.223 . S
O458 C457 1.315 . S
O459 Cd449 2.240 . S
O459 C457 1.279 . S
O460 Cd450 2.297 . S
O460 C455 1.247 . S
O461 Cd450 2.439 . S
O461 C455 1.208 . S
O462 Cd463 2.223 . S
O462 C470 1.315 . S
Cd463 O462 2.223 . S
Cd463 O466 2.297 . S
Cd463 O467 2.439 . S
Cd463 O473 2.240 . S
Cd464 O465 2.240 . S
Cd464 O472 2.223 . S
Cd464 O474 2.297 . S
Cd464 O475 2.439 . S
O465 Cd464 2.240 . S
O465 C470 1.279 . S
O466 Cd463 2.297 . S
O466 C468 1.247 . S
O467 Cd463 2.439 . S
O467 C468 1.208 . S
C468 O466 1.247 . S
C468 O467 1.208 . S
C469 O474 1.247 . S
C469 O475 1.208 . S
C470 O462 1.315 . S
C470 O465 1.279 . S
C471 O472 1.315 . S
C471 O473 1.279 . S
O472 Cd464 2.223 . S
O472 C471 1.315 . S
O473 Cd463 2.240 . S
O473 C471 1.279 . S
O474 Cd464 2.297 . S
O474 C469 1.247 . S
O475 Cd464 2.439 . S
O475 C469 1.208 . S
O476 Cd477 2.223 . S
O476 C484 1.315 . S
Cd477 O476 2.223 . S
Cd477 O480 2.297 . S
Cd477 O481 2.439 . S
Cd477 O487 2.240 . S
Cd478 O479 2.240 . S
Cd478 O486 2.223 . S
Cd478 O488 2.297 . S
Cd478 O489 2.439 . S
O479 Cd478 2.240 . S
O479 C484 1.279 . S
O480 Cd477 2.297 . S
O480 C482 1.247 . S
O481 Cd477 2.439 . S
O481 C482 1.208 . S
C482 O480 1.247 . S
C482 O481 1.208 . S
C483 O488 1.247 . S
C483 O489 1.208 . S
C484 O476 1.315 . S
C484 O479 1.279 . S
C485 O486 1.315 . S
C485 O487 1.279 . S
O486 Cd478 2.223 . S
O486 C485 1.315 . S
O487 Cd477 2.240 . S
O487 C485 1.279 . S
O488 Cd478 2.297 . S
O488 C483 1.247 . S
O489 Cd478 2.439 . S
O489 C483 1.208 . S
O490 Cd491 2.223 . S
O490 C498 1.315 . S
Cd491 O490 2.223 . S
Cd491 O494 2.297 . S
Cd491 O495 2.439 . S
Cd491 O501 2.240 . S
Cd492 O493 2.240 . S
Cd492 O500 2.223 . S
Cd492 O502 2.297 . S
Cd492 O503 2.439 . S
O493 Cd492 2.240 . S
O493 C498 1.279 . S
O494 Cd491 2.297 . S
O494 C496 1.247 . S
O495 Cd491 2.439 . S
O495 C496 1.208 . S
C496 O494 1.247 . S
C496 O495 1.208 . S
C497 O502 1.247 . S
C497 O503 1.208 . S
C498 O490 1.315 . S
C498 O493 1.279 . S
C499 O500 1.315 . S
C499 O501 1.279 . S
O500 Cd492 2.223 . S
O500 C499 1.315 . S
O501 Cd491 2.240 . S
O501 C499 1.279 . S
O502 Cd492 2.297 . S
O502 C497 1.247 . S
O503 Cd492 2.439 . S
O503 C497 1.208 . S
O504 Cd505 2.223 . S
O504 C512 1.315 . S
Cd505 O504 2.223 . S
Cd505 O508 2.297 . S
Cd505 O509 2.439 . S
Cd505 O515 2.240 . S
Cd506 O507 2.240 . S
Cd506 O514 2.223 . S
Cd506 O516 2.297 . S
Cd506 O517 2.439 . S
O507 Cd506 2.240 . S
O507 C512 1.279 . S
O508 Cd505 2.297 . S
O508 C510 1.247 . S
O509 Cd505 2.439 . S
O509 C510 1.208 . S
C510 O508 1.247 . S
C510 O509 1.208 . S
C511 O516 1.247 . S
C511 O517 1.208 . S
C512 O504 1.315 . S
C512 O507 1.279 . S
C513 O514 1.315 . S
C513 O515 1.279 . S
O514 Cd506 2.223 . S
O514 C513 1.315 . S
O515 Cd505 2.240 . S
O515 C513 1.279 . S
O516 Cd506 2.297 . S
O516 C511 1.247 . S
O517 Cd506 2.439 . S
O517 C511 1.208 . S
O518 Cd519 2.223 . S
O518 C526 1.315 . S
Cd519 O518 2.223 . S
Cd519 O522 2.297 . S
Cd519 O523 2.439 . S
Cd519 O529 2.240 . S
Cd520 O521 2.240 . S
Cd520 O528 2.223 . S
Cd520 O530 2.297 . S
Cd520 O531 2.439 . S
O521 Cd520 2.240 . S
O521 C526 1.279 . S
O522 Cd519 2.297 . S
O522 C524 1.247 . S
O523 Cd519 2.439 . S
O523 C524 1.208 . S
C524 O522 1.247 . S
C524 O523 1.208 . S
C525 O530 1.247 . S
C525 O531 1.208 . S
C526 O518 1.315 . S
C526 O521 1.279 . S
C527 O528 1.315 . S
C527 O529 1.279 . S
O528 Cd520 2.223 . S
O528 C527 1.315 . S
O529 Cd519 2.240 . S
O529 C527 1.279 . S
O530 Cd520 2.297 . S
O530 C525 1.247 . S
O531 Cd520 2.439 . S
O531 C525 1.208 . S
O532 Cd533 2.223 . S
O532 C540 1.315 . S
Cd533 O532 2.223 . S
Cd533 O536 2.297 . S
Cd533 O537 2.439 . S
Cd533 O543 2.240 . S
Cd534 O535 2.240 . S
Cd534 O542 2.223 . S
Cd534 O544 2.297 . S
Cd534 O545 2.439 . S
O535 Cd534 2.240 . S
O535 C540 1.279 . S
O536 Cd533 2.297 . S
O536 C538 1.247 . S
O537 Cd533 2.439 . S
O537 C538 1.208 . S
C538 O536 1.247 . S
C538 O537 1.208 . S
C539 O544 1.247 . S
C539 O545 1.208 . S
C540 O532 1.315 . S
C540 O535 1.279 . S
C541 O542 1.315 . S
C541 O543 1.279 . S
O542 Cd534 2.223 . S
O542 C541 1.315 . S
O543 Cd533 2.240 . S
O543 C541 1.279 . S
O544 Cd534 2.297 . S
O544 C539 1.247 . S
O545 Cd534 2.439 . S
O545 C539 1.208 . S
O546 Cd547 2.223 . S
O546 C554 1.315 . S
Cd547 O546 2.223 . S
Cd547 O550 2.297 . S
Cd547 O551 2.439 . S
Cd547 O557 2.240 . S
Cd548 O549 2.240 . S
Cd548 O556 2.223 . S
Cd548 O558 2.297 . S
Cd548 O559 2.439 . S
O549 Cd548 2.240 . S
O549 C554 1.279 . S
O550 Cd547 2.297 . S
O550 C552 1.247 . S
O551 Cd547 2.439 . S
O551 C552 1.208 . S
C552 O550 1.247 . S
C552 O551 1.208 . S
C553 O558 1.247 . S
C553 O559 1.208 . S
C554 O546 1.315 . S
C554 O549 1.279 . S
C555 O556 1.315 . S
C555 O557 1.279 . S
O556 Cd548 2.223 . S
O556 C555 1.315 . S
O557 Cd547 2.240 . S
O557 C555 1.279 . S
O558 Cd548 2.297 . S
O558 C553 1.247 . S
O559 Cd548 2.439 . S
O559 C553 1.208 . S
O560 Cd561 2.223 . S
O560 C568 1.315 . S
Cd561 O560 2.223 . S
Cd561 O564 2.297 . S
Cd561 O565 2.439 . S
Cd561 O571 2.240 . S
Cd562 O563 2.240 . S
Cd562 O570 2.223 . S
Cd562 O572 2.297 . S
Cd562 O573 2.439 . S
O563 Cd562 2.240 . S
O563 C568 1.279 . S
O564 Cd561 2.297 . S
O564 C566 1.247 . S
O565 Cd561 2.439 . S
O565 C566 1.208 . S
C566 O564 1.247 . S
C566 O565 1.208 . S
C567 O572 1.247 . S
C567 O573 1.208 . S
C568 O560 1.315 . S
C568 O563 1.279 . S
C569 O570 1.315 . S
C569 O571 1.279 . S
O570 Cd562 2.223 . S
O570 C569 1.315 . S
O571 Cd561 2.240 . S
O571 C569 1.279 . S
O572 Cd562 2.297 . S
O572 C567 1.247 . S
O573 Cd562 2.439 . S
O573 C567 1.208 . S
O574 Cd575 2.223 . S
O574 C582 1.315 . S
Cd575 O574 2.223 . S
Cd575 O578 2.297 . S
Cd575 O579 2.439 . S
Cd575 O585 2.240 . S
Cd576 O577 2.240 . S
Cd576 O584 2.223 . S
Cd576 O586 2.297 . S
Cd576 O587 2.439 . S
O577 Cd576 2.240 . S
O577 C582 1.279 . S
O578 Cd575 2.297 . S
O578 C580 1.247 . S
O579 Cd575 2.439 . S
O579 C580 1.208 . S
C580 O578 1.247 . S
C580 O579 1.208 . S
C581 O586 1.247 . S
C581 O587 1.208 . S
C582 O574 1.315 . S
C582 O577 1.279 . S
C583 O584 1.315 . S
C583 O585 1.279 . S
O584 Cd576 2.223 . S
O584 C583 1.315 . S
O585 Cd575 2.240 . S
O585 C583 1.279 . S
O586 Cd576 2.297 . S
O586 C581 1.247 . S
O587 Cd576 2.439 . S
O587 C581 1.208 . S
O588 Cd589 2.223 . S
O588 C596 1.315 . S
Cd589 O588 2.223 . S
Cd589 O592 2.297 . S
Cd589 O593 2.439 . S
Cd589 O599 2.240 . S
Cd590 O591 2.240 . S
Cd590 O598 2.223 . S
Cd590 O600 2.297 . S
Cd590 O601 2.439 . S
O591 Cd590 2.240 . S
O591 C596 1.279 . S
O592 Cd589 2.297 . S
O592 C594 1.247 . S
O593 Cd589 2.439 . S
O593 C594 1.208 . S
C594 O592 1.247 . S
C594 O593 1.208 . S
C595 O600 1.247 . S
C595 O601 1.208 . S
C596 O588 1.315 . S
C596 O591 1.279 . S
C597 O598 1.315 . S
C597 O599 1.279 . S
O598 Cd590 2.223 . S
O598 C597 1.315 . S
O599 Cd589 2.240 . S
O599 C597 1.279 . S
O600 Cd590 2.297 . S
O600 C595 1.247 . S
O601 Cd590 2.439 . S
O601 C595 1.208 . S
O602 Cd603 2.223 . S
O602 C610 1.315 . S
Cd603 O602 2.223 . S
Cd603 O606 2.297 . S
Cd603 O607 2.439 . S
Cd603 O613 2.240 . S
Cd604 O605 2.240 . S
Cd604 O612 2.223 . S
Cd604 O614 2.297 . S
Cd604 O615 2.439 . S
O605 Cd604 2.240 . S
O605 C610 1.279 . S
O606 Cd603 2.297 . S
O606 C608 1.247 . S
O607 Cd603 2.439 . S
O607 C608 1.208 . S
C608 O606 1.247 . S
C608 O607 1.208 . S
C609 O614 1.247 . S
C609 O615 1.208 . S
C610 O602 1.315 . S
C610 O605 1.279 . S
C611 O612 1.315 . S
C611 O613 1.279 . S
O612 Cd604 2.223 . S
O612 C611 1.315 . S
O613 Cd603 2.240 . S
O613 C611 1.279 . S
O614 Cd604 2.297 . S
O614 C609 1.247 . S
O615 Cd604 2.439 . S
O615 C609 1.208 . S
O616 Cd617 2.223 . S
O616 C624 1.315 . S
Cd617 O616 2.223 . S
Cd617 O620 2.297 . S
Cd617 O621 2.439 . S
Cd617 O627 2.240 . S
Cd618 O619 2.240 . S
Cd618 O626 2.223 . S
Cd618 O628 2.297 . S
Cd618 O629 2.439 . S
O619 Cd618 2.240 . S
O619 C624 1.279 . S
O620 Cd617 2.297 . S
O620 C622 1.247 . S
O621 Cd617 2.439 . S
O621 C622 1.208 . S
C622 O620 1.247 . S
C622 O621 1.208 . S
C623 O628 1.247 . S
C623 O629 1.208 . S
C624 O616 1.315 . S
C624 O619 1.279 . S
C625 O626 1.315 . S
C625 O627 1.279 . S
O626 Cd618 2.223 . S
O626 C625 1.315 . S
O627 Cd617 2.240 . S
O627 C625 1.279 . S
O628 Cd618 2.297 . S
O628 C623 1.247 . S
O629 Cd618 2.439 . S
O629 C623 1.208 . S
O630 Cd631 2.223 . S
O630 C638 1.315 . S
Cd631 O630 2.223 . S
Cd631 O634 2.297 . S
Cd631 O635 2.439 . S
Cd631 O641 2.240 . S
Cd632 O633 2.240 . S
Cd632 O640 2.223 . S
Cd632 O642 2.297 . S
Cd632 O643 2.439 . S
O633 Cd632 2.240 . S
O633 C638 1.279 . S
O634 Cd631 2.297 . S
O634 C636 1.247 . S
O635 Cd631 2.439 . S
O635 C636 1.208 . S
C636 O634 1.247 . S
C636 O635 1.208 . S
C637 O642 1.247 . S
C637 O643 1.208 . S
C638 O630 1.315 . S
C638 O633 1.279 . S
C639 O640 1.315 . S
C639 O641 1.279 . S
O640 Cd632 2.223 . S
O640 C639 1.315 . S
O641 Cd631 2.240 . S
O641 C639 1.279 . S
O642 Cd632 2.297 . S
O642 C637 1.247 . S
O643 Cd632 2.439 . S
O643 C637 1.208 . S
O644 Cd645 2.223 . S
O644 C652 1.315 . S
Cd645 O644 2.223 . S
Cd645 O648 2.297 . S
Cd645 O649 2.439 . S
Cd645 O655 2.240 . S
Cd646 O647 2.240 . S
Cd646 O654 2.223 . S
Cd646 O656 2.297 . S
Cd646 O657 2.439 . S
O647 Cd646 2.240 . S
O647 C652 1.279 . S
O648 Cd645 2.297 . S
O648 C650 1.247 . S
O649 Cd645 2.439 . S
O649 C650 1.208 . S
C650 O648 1.247 . S
C650 O649 1.208 . S
C651 O656 1.247 . S
C651 O657 1.208 . S
C652 O644 1.315 . S
C652 O647 1.279 . S
C653 O654 1.315 . S
C653 O655 1.279 . S
O654 Cd646 2.223 . S
O654 C653 1.315 . S
O655 Cd645 2.240 . S
O655 C653 1.279 . S
O656 Cd646 2.297 . S
O656 C651 1.247 . S
O657 Cd646 2.439 . S
O657 C651 1.208 . S
O658 Cd659 2.223 . S
O658 C666 1.315 . S
Cd659 O658 2.223 . S
Cd659 O662 2.297 . S
Cd659 O663 2.439 . S
Cd659 O669 2.240 . S
Cd660 O661 2.240 . S
Cd660 O668 2.223 . S
Cd660 O670 2.297 . S
Cd660 O671 2.439 . S
O661 Cd660 2.240 . S
O661 C666 1.279 . S
O662 Cd659 2.297 . S
O662 C664 1.247 . S
O663 Cd659 2.439 . S
O663 C664 1.208 . S
C664 O662 1.247 . S
C664 O663 1.208 . S
C665 O670 1.247 . S
C665 O671 1.208 . S
C666 O658 1.315 . S
C666 O661 1.279 . S
C667 O668 1.315 . S
C667 O669 1.279 . S
O668 Cd660 2.223 . S
O668 C667 1.315 . S
O669 Cd659 2.240 . S
O669 C667 1.279 . S
O670 Cd660 2.297 . S
O670 C665 1.247 . S
O671 Cd660 2.439 . S
O671 C665 1.208 . S
H672 C680 0.929 . S
H673 C682 0.930 . S
H674 C684 0.930 . S
H675 C687 0.929 . S
H676 C690 0.930 . S
H677 C692 0.960 . S
H678 C692 0.960 . S
H679 C692 0.960 . S
C680 H672 0.929 . S
C680 C681 1.377 . S
C680 C682 1.384 . S
C681 C680 1.377 . S
C681 C687 1.390 . S
C682 H673 0.930 . S
C682 C680 1.384 . S
C682 C683 1.372 . S
C683 C682 1.372 . S
C683 C684 1.400 . S
C683 C688 1.490 . S
C684 H674 0.930 . S
C684 C683 1.400 . S
C684 C687 1.386 . S
H685 C701 0.930 . S
H686 C702 0.931 . S
C687 H675 0.929 . S
C687 C681 1.390 . S
C687 C684 1.386 . S
C688 C683 1.490 . S
C688 C690 1.395 . S
C688 C691 1.403 . S
H689 C695 0.930 . S
C690 H676 0.930 . S
C690 C688 1.395 . S
C690 C693 1.403 . S
C691 C688 1.403 . S
C691 C692 1.524 . S
C691 C695 1.400 . S
C692 H677 0.960 . S
C692 H678 0.960 . S
C692 H679 0.960 . S
C692 C691 1.524 . S
C693 C690 1.403 . S
C693 C694 1.392 . S
C693 C697 1.495 . S
C694 C693 1.392 . S
C694 C695 1.385 . S
C694 C696 1.478 . S
C695 H689 0.930 . S
C695 C691 1.400 . S
C695 C694 1.385 . S
C696 C694 1.478 . S
C696 C698 1.381 . S
C696 C702 1.383 . S
C697 C693 1.495 . S
C697 H703 0.959 . S
C697 H704 0.961 . S
C697 H705 0.960 . S
C698 C696 1.381 . S
C698 C699 1.394 . S
C698 H706 0.930 . S
C699 C698 1.394 . S
C699 C700 1.383 . S
C699 H707 0.929 . S
C700 C699 1.383 . S
C700 C701 1.377 . S
C701 H685 0.930 . S
C701 C700 1.377 . S
C701 C702 1.379 . S
C702 H686 0.931 . S
C702 C696 1.383 . S
C702 C701 1.379 . S
H703 C697 0.959 . S
H704 C697 0.961 . S
H705 C697 0.960 . S
H706 C698 0.930 . S
H707 C699 0.929 . S
H708 C716 0.929 . S
H709 C718 0.930 . S
H710 C720 0.930 . S
H711 C723 0.929 . S
H712 C726 0.930 . S
H713 C728 0.960 . S
H714 C728 0.960 . S
H715 C728 0.960 . S
C716 H708 0.929 . S
C716 C717 1.377 . S
C716 C718 1.384 . S
C717 C716 1.377 . S
C717 C723 1.390 . S
C718 H709 0.930 . S
C718 C716 1.384 . S
C718 C719 1.372 . S
C719 C718 1.372 . S
C719 C720 1.400 . S
C719 C724 1.490 . S
C720 H710 0.930 . S
C720 C719 1.400 . S
C720 C723 1.386 . S
H721 C737 0.930 . S
H722 C738 0.931 . S
C723 H711 0.929 . S
C723 C717 1.390 . S
C723 C720 1.386 . S
C724 C719 1.490 . S
C724 C726 1.395 . S
C724 C727 1.403 . S
H725 C731 0.930 . S
C726 H712 0.930 . S
C726 C724 1.395 . S
C726 C729 1.403 . S
C727 C724 1.403 . S
C727 C728 1.524 . S
C727 C731 1.400 . S
C728 H713 0.960 . S
C728 H714 0.960 . S
C728 H715 0.960 . S
C728 C727 1.524 . S
C729 C726 1.403 . S
C729 C730 1.392 . S
C729 C733 1.495 . S
C730 C729 1.392 . S
C730 C731 1.385 . S
C730 C732 1.478 . S
C731 H725 0.930 . S
C731 C727 1.400 . S
C731 C730 1.385 . S
C732 C730 1.478 . S
C732 C734 1.381 . S
C732 C738 1.383 . S
C733 C729 1.495 . S
C733 H739 0.959 . S
C733 H740 0.961 . S
C733 H741 0.960 . S
C734 C732 1.381 . S
C734 C735 1.394 . S
C734 H742 0.930 . S
C735 C734 1.394 . S
C735 C736 1.383 . S
C735 H743 0.929 . S
C736 C735 1.383 . S
C736 C737 1.377 . S
C737 H721 0.930 . S
C737 C736 1.377 . S
C737 C738 1.379 . S
C738 H722 0.931 . S
C738 C732 1.383 . S
C738 C737 1.379 . S
H739 C733 0.959 . S
H740 C733 0.961 . S
H741 C733 0.960 . S
H742 C734 0.930 . S
H743 C735 0.929 . S
H744 C752 0.929 . S
H745 C754 0.930 . S
H746 C756 0.930 . S
H747 C759 0.929 . S
H748 C762 0.930 . S
H749 C764 0.960 . S
H750 C764 0.960 . S
H751 C764 0.960 . S
C752 H744 0.929 . S
C752 C753 1.377 . S
C752 C754 1.384 . S
C753 C752 1.377 . S
C753 C759 1.390 . S
C754 H745 0.930 . S
C754 C752 1.384 . S
C754 C755 1.372 . S
C755 C754 1.372 . S
C755 C756 1.400 . S
C755 C760 1.490 . S
C756 H746 0.930 . S
C756 C755 1.400 . S
C756 C759 1.386 . S
H757 C773 0.930 . S
H758 C774 0.931 . S
C759 H747 0.929 . S
C759 C753 1.390 . S
C759 C756 1.386 . S
C760 C755 1.490 . S
C760 C762 1.395 . S
C760 C763 1.403 . S
H761 C767 0.930 . S
C762 H748 0.930 . S
C762 C760 1.395 . S
C762 C765 1.403 . S
C763 C760 1.403 . S
C763 C764 1.524 . S
C763 C767 1.400 . S
C764 H749 0.960 . S
C764 H750 0.960 . S
C764 H751 0.960 . S
C764 C763 1.524 . S
C765 C762 1.403 . S
C765 C766 1.392 . S
C765 C769 1.495 . S
C766 C765 1.392 . S
C766 C767 1.385 . S
C766 C768 1.478 . S
C767 H761 0.930 . S
C767 C763 1.400 . S
C767 C766 1.385 . S
C768 C766 1.478 . S
C768 C770 1.381 . S
C768 C774 1.383 . S
C769 C765 1.495 . S
C769 H775 0.959 . S
C769 H776 0.961 . S
C769 H777 0.960 . S
C770 C768 1.381 . S
C770 C771 1.394 . S
C770 H778 0.930 . S
C771 C770 1.394 . S
C771 C772 1.383 . S
C771 H779 0.929 . S
C772 C771 1.383 . S
C772 C773 1.377 . S
C773 H757 0.930 . S
C773 C772 1.377 . S
C773 C774 1.379 . S
C774 H758 0.931 . S
C774 C768 1.383 . S
C774 C773 1.379 . S
H775 C769 0.959 . S
H776 C769 0.961 . S
H777 C769 0.960 . S
H778 C770 0.930 . S
H779 C771 0.929 . S
H780 C788 0.929 . S
H781 C790 0.930 . S
H782 C792 0.930 . S
H783 C795 0.929 . S
H784 C798 0.930 . S
H785 C800 0.960 . S
H786 C800 0.960 . S
H787 C800 0.960 . S
C788 H780 0.929 . S
C788 C789 1.377 . S
C788 C790 1.384 . S
C789 C788 1.377 . S
C789 C795 1.390 . S
C790 H781 0.930 . S
C790 C788 1.384 . S
C790 C791 1.372 . S
C791 C790 1.372 . S
C791 C792 1.400 . S
C791 C796 1.490 . S
C792 H782 0.930 . S
C792 C791 1.400 . S
C792 C795 1.386 . S
H793 C809 0.930 . S
H794 C810 0.931 . S
C795 H783 0.929 . S
C795 C789 1.390 . S
C795 C792 1.386 . S
C796 C791 1.490 . S
C796 C798 1.395 . S
C796 C799 1.403 . S
H797 C803 0.930 . S
C798 H784 0.930 . S
C798 C796 1.395 . S
C798 C801 1.403 . S
C799 C796 1.403 . S
C799 C800 1.524 . S
C799 C803 1.400 . S
C800 H785 0.960 . S
C800 H786 0.960 . S
C800 H787 0.960 . S
C800 C799 1.524 . S
C801 C798 1.403 . S
C801 C802 1.392 . S
C801 C805 1.495 . S
C802 C801 1.392 . S
C802 C803 1.385 . S
C802 C804 1.478 . S
C803 H797 0.930 . S
C803 C799 1.400 . S
C803 C802 1.385 . S
C804 C802 1.478 . S
C804 C806 1.381 . S
C804 C810 1.383 . S
C805 C801 1.495 . S
C805 H811 0.959 . S
C805 H812 0.961 . S
C805 H813 0.960 . S
C806 C804 1.381 . S
C806 C807 1.394 . S
C806 H814 0.930 . S
C807 C806 1.394 . S
C807 C808 1.383 . S
C807 H815 0.929 . S
C808 C807 1.383 . S
C808 C809 1.377 . S
C809 H793 0.930 . S
C809 C808 1.377 . S
C809 C810 1.379 . S
C810 H794 0.931 . S
C810 C804 1.383 . S
C810 C809 1.379 . S
H811 C805 0.959 . S
H812 C805 0.961 . S
H813 C805 0.960 . S
H814 C806 0.930 . S
H815 C807 0.929 . S
H816 C824 0.929 . S
H817 C826 0.930 . S
H818 C828 0.930 . S
H819 C831 0.929 . S
H820 C834 0.930 . S
H821 C836 0.960 . S
H822 C836 0.960 . S
H823 C836 0.960 . S
C824 H816 0.929 . S
C824 C825 1.377 . S
C824 C826 1.384 . S
C825 C824 1.377 . S
C825 C831 1.390 . S
C826 H817 0.930 . S
C826 C824 1.384 . S
C826 C827 1.372 . S
C827 C826 1.372 . S
C827 C828 1.400 . S
C827 C832 1.490 . S
C828 H818 0.930 . S
C828 C827 1.400 . S
C828 C831 1.386 . S
H829 C845 0.930 . S
H830 C846 0.931 . S
C831 H819 0.929 . S
C831 C825 1.390 . S
C831 C828 1.386 . S
C832 C827 1.490 . S
C832 C834 1.395 . S
C832 C835 1.403 . S
H833 C839 0.930 . S
C834 H820 0.930 . S
C834 C832 1.395 . S
C834 C837 1.403 . S
C835 C832 1.403 . S
C835 C836 1.524 . S
C835 C839 1.400 . S
C836 H821 0.960 . S
C836 H822 0.960 . S
C836 H823 0.960 . S
C836 C835 1.524 . S
C837 C834 1.403 . S
C837 C838 1.392 . S
C837 C841 1.495 . S
C838 C837 1.392 . S
C838 C839 1.385 . S
C838 C840 1.478 . S
C839 H833 0.930 . S
C839 C835 1.400 . S
C839 C838 1.385 . S
C840 C838 1.478 . S
C840 C842 1.381 . S
C840 C846 1.383 . S
C841 C837 1.495 . S
C841 H847 0.959 . S
C841 H848 0.961 . S
C841 H849 0.960 . S
C842 C840 1.381 . S
C842 C843 1.394 . S
C842 H850 0.930 . S
C843 C842 1.394 . S
C843 C844 1.383 . S
C843 H851 0.929 . S
C844 C843 1.383 . S
C844 C845 1.377 . S
C845 H829 0.930 . S
C845 C844 1.377 . S
C845 C846 1.379 . S
C846 H830 0.931 . S
C846 C840 1.383 . S
C846 C845 1.379 . S
H847 C841 0.959 . S
H848 C841 0.961 . S
H849 C841 0.960 . S
H850 C842 0.930 . S
H851 C843 0.929 . S
H852 C860 0.929 . S
H853 C862 0.930 . S
H854 C864 0.930 . S
H855 C867 0.929 . S
H856 C870 0.930 . S
H857 C872 0.960 . S
H858 C872 0.960 . S
H859 C872 0.960 . S
C860 H852 0.929 . S
C860 C861 1.377 . S
C860 C862 1.384 . S
C861 C860 1.377 . S
C861 C867 1.390 . S
C862 H853 0.930 . S
C862 C860 1.384 . S
C862 C863 1.372 . S
C863 C862 1.372 . S
C863 C864 1.400 . S
C863 C868 1.490 . S
C864 H854 0.930 . S
C864 C863 1.400 . S
C864 C867 1.386 . S
H865 C881 0.930 . S
H866 C882 0.931 . S
C867 H855 0.929 . S
C867 C861 1.390 . S
C867 C864 1.386 . S
C868 C863 1.490 . S
C868 C870 1.395 . S
C868 C871 1.403 . S
H869 C875 0.930 . S
C870 H856 0.930 . S
C870 C868 1.395 . S
C870 C873 1.403 . S
C871 C868 1.403 . S
C871 C872 1.524 . S
C871 C875 1.400 . S
C872 H857 0.960 . S
C872 H858 0.960 . S
C872 H859 0.960 . S
C872 C871 1.524 . S
C873 C870 1.403 . S
C873 C874 1.392 . S
C873 C877 1.495 . S
C874 C873 1.392 . S
C874 C875 1.385 . S
C874 C876 1.478 . S
C875 H869 0.930 . S
C875 C871 1.400 . S
C875 C874 1.385 . S
C876 C874 1.478 . S
C876 C878 1.381 . S
C876 C882 1.383 . S
C877 C873 1.495 . S
C877 H883 0.959 . S
C877 H884 0.961 . S
C877 H885 0.960 . S
C878 C876 1.381 . S
C878 C879 1.394 . S
C878 H886 0.930 . S
C879 C878 1.394 . S
C879 C880 1.383 . S
C879 H887 0.929 . S
C880 C879 1.383 . S
C880 C881 1.377 . S
C881 H865 0.930 . S
C881 C880 1.377 . S
C881 C882 1.379 . S
C882 H866 0.931 . S
C882 C876 1.383 . S
C882 C881 1.379 . S
H883 C877 0.959 . S
H884 C877 0.961 . S
H885 C877 0.960 . S
H886 C878 0.930 . S
H887 C879 0.929 . S
H888 C896 0.929 . S
H889 C898 0.930 . S
H890 C900 0.930 . S
H891 C903 0.929 . S
H892 C906 0.930 . S
H893 C908 0.960 . S
H894 C908 0.960 . S
H895 C908 0.960 . S
C896 H888 0.929 . S
C896 C897 1.377 . S
C896 C898 1.384 . S
C897 C896 1.377 . S
C897 C903 1.390 . S
C898 H889 0.930 . S
C898 C896 1.384 . S
C898 C899 1.372 . S
C899 C898 1.372 . S
C899 C900 1.400 . S
C899 C904 1.490 . S
C900 H890 0.930 . S
C900 C899 1.400 . S
C900 C903 1.386 . S
H901 C917 0.930 . S
H902 C918 0.931 . S
C903 H891 0.929 . S
C903 C897 1.390 . S
C903 C900 1.386 . S
C904 C899 1.490 . S
C904 C906 1.395 . S
C904 C907 1.403 . S
H905 C911 0.930 . S
C906 H892 0.930 . S
C906 C904 1.395 . S
C906 C909 1.403 . S
C907 C904 1.403 . S
C907 C908 1.524 . S
C907 C911 1.400 . S
C908 H893 0.960 . S
C908 H894 0.960 . S
C908 H895 0.960 . S
C908 C907 1.524 . S
C909 C906 1.403 . S
C909 C910 1.392 . S
C909 C913 1.495 . S
C910 C909 1.392 . S
C910 C911 1.385 . S
C910 C912 1.478 . S
C911 H905 0.930 . S
C911 C907 1.400 . S
C911 C910 1.385 . S
C912 C910 1.478 . S
C912 C914 1.381 . S
C912 C918 1.383 . S
C913 C909 1.495 . S
C913 H919 0.959 . S
C913 H920 0.961 . S
C913 H921 0.960 . S
C914 C912 1.381 . S
C914 C915 1.394 . S
C914 H922 0.930 . S
C915 C914 1.394 . S
C915 C916 1.383 . S
C915 H923 0.929 . S
C916 C915 1.383 . S
C916 C917 1.377 . S
C917 H901 0.930 . S
C917 C916 1.377 . S
C917 C918 1.379 . S
C918 H902 0.931 . S
C918 C912 1.383 . S
C918 C917 1.379 . S
H919 C913 0.959 . S
H920 C913 0.961 . S
H921 C913 0.960 . S
H922 C914 0.930 . S
H923 C915 0.929 . S
H924 C932 0.929 . S
H925 C934 0.930 . S
H926 C936 0.930 . S
H927 C939 0.929 . S
H928 C942 0.930 . S
H929 C944 0.960 . S
H930 C944 0.960 . S
H931 C944 0.960 . S
C932 H924 0.929 . S
C932 C933 1.377 . S
C932 C934 1.384 . S
C933 C932 1.377 . S
C933 C939 1.390 . S
C934 H925 0.930 . S
C934 C932 1.384 . S
C934 C935 1.372 . S
C935 C934 1.372 . S
C935 C936 1.400 . S
C935 C940 1.490 . S
C936 H926 0.930 . S
C936 C935 1.400 . S
C936 C939 1.386 . S
H937 C953 0.930 . S
H938 C954 0.931 . S
C939 H927 0.929 . S
C939 C933 1.390 . S
C939 C936 1.386 . S
C940 C935 1.490 . S
C940 C942 1.395 . S
C940 C943 1.403 . S
H941 C947 0.930 . S
C942 H928 0.930 . S
C942 C940 1.395 . S
C942 C945 1.403 . S
C943 C940 1.403 . S
C943 C944 1.524 . S
C943 C947 1.400 . S
C944 H929 0.960 . S
C944 H930 0.960 . S
C944 H931 0.960 . S
C944 C943 1.524 . S
C945 C942 1.403 . S
C945 C946 1.392 . S
C945 C949 1.495 . S
C946 C945 1.392 . S
C946 C947 1.385 . S
C946 C948 1.478 . S
C947 H941 0.930 . S
C947 C943 1.400 . S
C947 C946 1.385 . S
C948 C946 1.478 . S
C948 C950 1.381 . S
C948 C954 1.383 . S
C949 C945 1.495 . S
C949 H955 0.959 . S
C949 H956 0.961 . S
C949 H957 0.960 . S
C950 C948 1.381 . S
C950 C951 1.394 . S
C950 H958 0.930 . S
C951 C950 1.394 . S
C951 C952 1.383 . S
C951 H959 0.929 . S
C952 C951 1.383 . S
C952 C953 1.377 . S
C953 H937 0.930 . S
C953 C952 1.377 . S
C953 C954 1.379 . S
C954 H938 0.931 . S
C954 C948 1.383 . S
C954 C953 1.379 . S
H955 C949 0.959 . S
H956 C949 0.961 . S
H957 C949 0.960 . S
H958 C950 0.930 . S
H959 C951 0.929 . S
H960 C968 0.929 . S
H961 C970 0.930 . S
H962 C972 0.930 . S
H963 C975 0.929 . S
H964 C978 0.930 . S
H965 C980 0.960 . S
H966 C980 0.960 . S
H967 C980 0.960 . S
C968 H960 0.929 . S
C968 C969 1.377 . S
C968 C970 1.384 . S
C969 C968 1.377 . S
C969 C975 1.390 . S
C970 H961 0.930 . S
C970 C968 1.384 . S
C970 C971 1.372 . S
C971 C970 1.372 . S
C971 C972 1.400 . S
C971 C976 1.490 . S
C972 H962 0.930 . S
C972 C971 1.400 . S
C972 C975 1.386 . S
H973 C989 0.930 . S
H974 C990 0.931 . S
C975 H963 0.929 . S
C975 C969 1.390 . S
C975 C972 1.386 . S
C976 C971 1.490 . S
C976 C978 1.395 . S
C976 C979 1.403 . S
H977 C983 0.930 . S
C978 H964 0.930 . S
C978 C976 1.395 . S
C978 C981 1.403 . S
C979 C976 1.403 . S
C979 C980 1.524 . S
C979 C983 1.400 . S
C980 H965 0.960 . S
C980 H966 0.960 . S
C980 H967 0.960 . S
C980 C979 1.524 . S
C981 C978 1.403 . S
C981 C982 1.392 . S
C981 C985 1.495 . S
C982 C981 1.392 . S
C982 C983 1.385 . S
C982 C984 1.478 . S
C983 H977 0.930 . S
C983 C979 1.400 . S
C983 C982 1.385 . S
C984 C982 1.478 . S
C984 C986 1.381 . S
C984 C990 1.383 . S
C985 C981 1.495 . S
C985 H991 0.959 . S
C985 H992 0.961 . S
C985 H993 0.960 . S
C986 C984 1.381 . S
C986 C987 1.394 . S
C986 H994 0.930 . S
C987 C986 1.394 . S
C987 C988 1.383 . S
C987 H995 0.929 . S
C988 C987 1.383 . S
C988 C989 1.377 . S
C989 H973 0.930 . S
C989 C988 1.377 . S
C989 C990 1.379 . S
C990 H974 0.931 . S
C990 C984 1.383 . S
C990 C989 1.379 . S
H991 C985 0.959 . S
H992 C985 0.961 . S
H993 C985 0.960 . S
H994 C986 0.930 . S
H995 C987 0.929 . S
H996 C1004 0.929 . S
H997 C1006 0.930 . S
H998 C1008 0.930 . S
H999 C1011 0.929 . S
H1000 C1014 0.930 . S
H1001 C1016 0.960 . S
H1002 C1016 0.960 . S
H1003 C1016 0.960 . S
C1004 H996 0.929 . S
C1004 C1005 1.377 . S
C1004 C1006 1.384 . S
C1005 C1004 1.377 . S
C1005 C1011 1.390 . S
C1006 H997 0.930 . S
C1006 C1004 1.384 . S
C1006 C1007 1.372 . S
C1007 C1006 1.372 . S
C1007 C1008 1.400 . S
C1007 C1012 1.490 . S
C1008 H998 0.930 . S
C1008 C1007 1.400 . S
C1008 C1011 1.386 . S
H1009 C1025 0.930 . S
H1010 C1026 0.931 . S
C1011 H999 0.929 . S
C1011 C1005 1.390 . S
C1011 C1008 1.386 . S
C1012 C1007 1.490 . S
C1012 C1014 1.395 . S
C1012 C1015 1.403 . S
H1013 C1019 0.930 . S
C1014 H1000 0.930 . S
C1014 C1012 1.395 . S
C1014 C1017 1.403 . S
C1015 C1012 1.403 . S
C1015 C1016 1.524 . S
C1015 C1019 1.400 . S
C1016 H1001 0.960 . S
C1016 H1002 0.960 . S
C1016 H1003 0.960 . S
C1016 C1015 1.524 . S
C1017 C1014 1.403 . S
C1017 C1018 1.392 . S
C1017 C1021 1.495 . S
C1018 C1017 1.392 . S
C1018 C1019 1.385 . S
C1018 C1020 1.478 . S
C1019 H1013 0.930 . S
C1019 C1015 1.400 . S
C1019 C1018 1.385 . S
C1020 C1018 1.478 . S
C1020 C1022 1.381 . S
C1020 C1026 1.383 . S
C1021 C1017 1.495 . S
C1021 H1027 0.959 . S
C1021 H1028 0.961 . S
C1021 H1029 0.960 . S
C1022 C1020 1.381 . S
C1022 C1023 1.394 . S
C1022 H1030 0.930 . S
C1023 C1022 1.394 . S
C1023 C1024 1.383 . S
C1023 H1031 0.929 . S
C1024 C1023 1.383 . S
C1024 C1025 1.377 . S
C1025 H1009 0.930 . S
C1025 C1024 1.377 . S
C1025 C1026 1.379 . S
C1026 H1010 0.931 . S
C1026 C1020 1.383 . S
C1026 C1025 1.379 . S
H1027 C1021 0.959 . S
H1028 C1021 0.961 . S
H1029 C1021 0.960 . S
H1030 C1022 0.930 . S
H1031 C1023 0.929 . S
H1032 C1040 0.929 . S
H1033 C1042 0.930 . S
H1034 C1044 0.930 . S
H1035 C1047 0.929 . S
H1036 C1050 0.930 . S
H1037 C1052 0.960 . S
H1038 C1052 0.960 . S
H1039 C1052 0.960 . S
C1040 H1032 0.929 . S
C1040 C1041 1.377 . S
C1040 C1042 1.384 . S
C1041 C1040 1.377 . S
C1041 C1047 1.390 . S
C1042 H1033 0.930 . S
C1042 C1040 1.384 . S
C1042 C1043 1.372 . S
C1043 C1042 1.372 . S
C1043 C1044 1.400 . S
C1043 C1048 1.490 . S
C1044 H1034 0.930 . S
C1044 C1043 1.400 . S
C1044 C1047 1.386 . S
H1045 C1061 0.930 . S
H1046 C1062 0.931 . S
C1047 H1035 0.929 . S
C1047 C1041 1.390 . S
C1047 C1044 1.386 . S
C1048 C1043 1.490 . S
C1048 C1050 1.395 . S
C1048 C1051 1.403 . S
H1049 C1055 0.930 . S
C1050 H1036 0.930 . S
C1050 C1048 1.395 . S
C1050 C1053 1.403 . S
C1051 C1048 1.403 . S
C1051 C1052 1.524 . S
C1051 C1055 1.400 . S
C1052 H1037 0.960 . S
C1052 H1038 0.960 . S
C1052 H1039 0.960 . S
C1052 C1051 1.524 . S
C1053 C1050 1.403 . S
C1053 C1054 1.392 . S
C1053 C1057 1.495 . S
C1054 C1053 1.392 . S
C1054 C1055 1.385 . S
C1054 C1056 1.478 . S
C1055 H1049 0.930 . S
C1055 C1051 1.400 . S
C1055 C1054 1.385 . S
C1056 C1054 1.478 . S
C1056 C1058 1.381 . S
C1056 C1062 1.383 . S
C1057 C1053 1.495 . S
C1057 H1063 0.959 . S
C1057 H1064 0.961 . S
C1057 H1065 0.960 . S
C1058 C1056 1.381 . S
C1058 C1059 1.394 . S
C1058 H1066 0.930 . S
C1059 C1058 1.394 . S
C1059 C1060 1.383 . S
C1059 H1067 0.929 . S
C1060 C1059 1.383 . S
C1060 C1061 1.377 . S
C1061 H1045 0.930 . S
C1061 C1060 1.377 . S
C1061 C1062 1.379 . S
C1062 H1046 0.931 . S
C1062 C1056 1.383 . S
C1062 C1061 1.379 . S
H1063 C1057 0.959 . S
H1064 C1057 0.961 . S
H1065 C1057 0.960 . S
H1066 C1058 0.930 . S
H1067 C1059 0.929 . S
H1068 C1076 0.929 . S
H1069 C1078 0.930 . S
H1070 C1080 0.930 . S
H1071 C1083 0.929 . S
H1072 C1086 0.930 . S
H1073 C1088 0.960 . S
H1074 C1088 0.960 . S
H1075 C1088 0.960 . S
C1076 H1068 0.929 . S
C1076 C1077 1.377 . S
C1076 C1078 1.384 . S
C1077 C1076 1.377 . S
C1077 C1083 1.390 . S
C1078 H1069 0.930 . S
C1078 C1076 1.384 . S
C1078 C1079 1.372 . S
C1079 C1078 1.372 . S
C1079 C1080 1.400 . S
C1079 C1084 1.490 . S
C1080 H1070 0.930 . S
C1080 C1079 1.400 . S
C1080 C1083 1.386 . S
H1081 C1097 0.930 . S
H1082 C1098 0.931 . S
C1083 H1071 0.929 . S
C1083 C1077 1.390 . S
C1083 C1080 1.386 . S
C1084 C1079 1.490 . S
C1084 C1086 1.395 . S
C1084 C1087 1.403 . S
H1085 C1091 0.930 . S
C1086 H1072 0.930 . S
C1086 C1084 1.395 . S
C1086 C1089 1.403 . S
C1087 C1084 1.403 . S
C1087 C1088 1.524 . S
C1087 C1091 1.400 . S
C1088 H1073 0.960 . S
C1088 H1074 0.960 . S
C1088 H1075 0.960 . S
C1088 C1087 1.524 . S
C1089 C1086 1.403 . S
C1089 C1090 1.392 . S
C1089 C1093 1.495 . S
C1090 C1089 1.392 . S
C1090 C1091 1.385 . S
C1090 C1092 1.478 . S
C1091 H1085 0.930 . S
C1091 C1087 1.400 . S
C1091 C1090 1.385 . S
C1092 C1090 1.478 . S
C1092 C1094 1.381 . S
C1092 C1098 1.383 . S
C1093 C1089 1.495 . S
C1093 H1099 0.959 . S
C1093 H1100 0.961 . S
C1093 H1101 0.960 . S
C1094 C1092 1.381 . S
C1094 C1095 1.394 . S
C1094 H1102 0.930 . S
C1095 C1094 1.394 . S
C1095 C1096 1.383 . S
C1095 H1103 0.929 . S
C1096 C1095 1.383 . S
C1096 C1097 1.377 . S
C1097 H1081 0.930 . S
C1097 C1096 1.377 . S
C1097 C1098 1.379 . S
C1098 H1082 0.931 . S
C1098 C1092 1.383 . S
C1098 C1097 1.379 . S
H1099 C1093 0.959 . S
H1100 C1093 0.961 . S
H1101 C1093 0.960 . S
H1102 C1094 0.930 . S
H1103 C1095 0.929 . S
H1104 C1112 0.929 . S
H1105 C1114 0.930 . S
H1106 C1116 0.930 . S
H1107 C1119 0.929 . S
H1108 C1122 0.930 . S
H1109 C1124 0.960 . S
H1110 C1124 0.960 . S
H1111 C1124 0.960 . S
C1112 H1104 0.929 . S
C1112 C1113 1.377 . S
C1112 C1114 1.384 . S
C1113 C1112 1.377 . S
C1113 C1119 1.390 . S
C1114 H1105 0.930 . S
C1114 C1112 1.384 . S
C1114 C1115 1.372 . S
C1115 C1114 1.372 . S
C1115 C1116 1.400 . S
C1115 C1120 1.490 . S
C1116 H1106 0.930 . S
C1116 C1115 1.400 . S
C1116 C1119 1.386 . S
H1117 C1133 0.930 . S
H1118 C1134 0.931 . S
C1119 H1107 0.929 . S
C1119 C1113 1.390 . S
C1119 C1116 1.386 . S
C1120 C1115 1.490 . S
C1120 C1122 1.395 . S
C1120 C1123 1.403 . S
H1121 C1127 0.930 . S
C1122 H1108 0.930 . S
C1122 C1120 1.395 . S
C1122 C1125 1.403 . S
C1123 C1120 1.403 . S
C1123 C1124 1.524 . S
C1123 C1127 1.400 . S
C1124 H1109 0.960 . S
C1124 H1110 0.960 . S
C1124 H1111 0.960 . S
C1124 C1123 1.524 . S
C1125 C1122 1.403 . S
C1125 C1126 1.392 . S
C1125 C1129 1.495 . S
C1126 C1125 1.392 . S
C1126 C1127 1.385 . S
C1126 C1128 1.478 . S
C1127 H1121 0.930 . S
C1127 C1123 1.400 . S
C1127 C1126 1.385 . S
C1128 C1126 1.478 . S
C1128 C1130 1.381 . S
C1128 C1134 1.383 . S
C1129 C1125 1.495 . S
C1129 H1135 0.959 . S
C1129 H1136 0.961 . S
C1129 H1137 0.960 . S
C1130 C1128 1.381 . S
C1130 C1131 1.394 . S
C1130 H1138 0.930 . S
C1131 C1130 1.394 . S
C1131 C1132 1.383 . S
C1131 H1139 0.929 . S
C1132 C1131 1.383 . S
C1132 C1133 1.377 . S
C1133 H1117 0.930 . S
C1133 C1132 1.377 . S
C1133 C1134 1.379 . S
C1134 H1118 0.931 . S
C1134 C1128 1.383 . S
C1134 C1133 1.379 . S
H1135 C1129 0.959 . S
H1136 C1129 0.961 . S
H1137 C1129 0.960 . S
H1138 C1130 0.930 . S
H1139 C1131 0.929 . S
H1140 C1148 0.929 . S
H1141 C1150 0.930 . S
H1142 C1152 0.930 . S
H1143 C1155 0.929 . S
H1144 C1158 0.930 . S
H1145 C1160 0.960 . S
H1146 C1160 0.960 . S
H1147 C1160 0.960 . S
C1148 H1140 0.929 . S
C1148 C1149 1.377 . S
C1148 C1150 1.384 . S
C1149 C1148 1.377 . S
C1149 C1155 1.390 . S
C1150 H1141 0.930 . S
C1150 C1148 1.384 . S
C1150 C1151 1.372 . S
C1151 C1150 1.372 . S
C1151 C1152 1.400 . S
C1151 C1156 1.490 . S
C1152 H1142 0.930 . S
C1152 C1151 1.400 . S
C1152 C1155 1.386 . S
H1153 C1169 0.930 . S
H1154 C1170 0.931 . S
C1155 H1143 0.929 . S
C1155 C1149 1.390 . S
C1155 C1152 1.386 . S
C1156 C1151 1.490 . S
C1156 C1158 1.395 . S
C1156 C1159 1.403 . S
H1157 C1163 0.930 . S
C1158 H1144 0.930 . S
C1158 C1156 1.395 . S
C1158 C1161 1.403 . S
C1159 C1156 1.403 . S
C1159 C1160 1.524 . S
C1159 C1163 1.400 . S
C1160 H1145 0.960 . S
C1160 H1146 0.960 . S
C1160 H1147 0.960 . S
C1160 C1159 1.524 . S
C1161 C1158 1.403 . S
C1161 C1162 1.392 . S
C1161 C1165 1.495 . S
C1162 C1161 1.392 . S
C1162 C1163 1.385 . S
C1162 C1164 1.478 . S
C1163 H1157 0.930 . S
C1163 C1159 1.400 . S
C1163 C1162 1.385 . S
C1164 C1162 1.478 . S
C1164 C1166 1.381 . S
C1164 C1170 1.383 . S
C1165 C1161 1.495 . S
C1165 H1171 0.959 . S
C1165 H1172 0.961 . S
C1165 H1173 0.960 . S
C1166 C1164 1.381 . S
C1166 C1167 1.394 . S
C1166 H1174 0.930 . S
C1167 C1166 1.394 . S
C1167 C1168 1.383 . S
C1167 H1175 0.929 . S
C1168 C1167 1.383 . S
C1168 C1169 1.377 . S
C1169 H1153 0.930 . S
C1169 C1168 1.377 . S
C1169 C1170 1.379 . S
C1170 H1154 0.931 . S
C1170 C1164 1.383 . S
C1170 C1169 1.379 . S
H1171 C1165 0.959 . S
H1172 C1165 0.961 . S
H1173 C1165 0.960 . S
H1174 C1166 0.930 . S
H1175 C1167 0.929 . S
H1176 C1184 0.929 . S
H1177 C1186 0.930 . S
H1178 C1188 0.930 . S
H1179 C1191 0.929 . S
H1180 C1194 0.930 . S
H1181 C1196 0.960 . S
H1182 C1196 0.960 . S
H1183 C1196 0.960 . S
C1184 H1176 0.929 . S
C1184 C1185 1.377 . S
C1184 C1186 1.384 . S
C1185 C1184 1.377 . S
C1185 C1191 1.390 . S
C1186 H1177 0.930 . S
C1186 C1184 1.384 . S
C1186 C1187 1.372 . S
C1187 C1186 1.372 . S
C1187 C1188 1.400 . S
C1187 C1192 1.490 . S
C1188 H1178 0.930 . S
C1188 C1187 1.400 . S
C1188 C1191 1.386 . S
H1189 C1205 0.930 . S
H1190 C1206 0.931 . S
C1191 H1179 0.929 . S
C1191 C1185 1.390 . S
C1191 C1188 1.386 . S
C1192 C1187 1.490 . S
C1192 C1194 1.395 . S
C1192 C1195 1.403 . S
H1193 C1199 0.930 . S
C1194 H1180 0.930 . S
C1194 C1192 1.395 . S
C1194 C1197 1.403 . S
C1195 C1192 1.403 . S
C1195 C1196 1.524 . S
C1195 C1199 1.400 . S
C1196 H1181 0.960 . S
C1196 H1182 0.960 . S
C1196 H1183 0.960 . S
C1196 C1195 1.524 . S
C1197 C1194 1.403 . S
C1197 C1198 1.392 . S
C1197 C1201 1.495 . S
C1198 C1197 1.392 . S
C1198 C1199 1.385 . S
C1198 C1200 1.478 . S
C1199 H1193 0.930 . S
C1199 C1195 1.400 . S
C1199 C1198 1.385 . S
C1200 C1198 1.478 . S
C1200 C1202 1.381 . S
C1200 C1206 1.383 . S
C1201 C1197 1.495 . S
C1201 H1207 0.959 . S
C1201 H1208 0.961 . S
C1201 H1209 0.960 . S
C1202 C1200 1.381 . S
C1202 C1203 1.394 . S
C1202 H1210 0.930 . S
C1203 C1202 1.394 . S
C1203 C1204 1.383 . S
C1203 H1211 0.929 . S
C1204 C1203 1.383 . S
C1204 C1205 1.377 . S
C1205 H1189 0.930 . S
C1205 C1204 1.377 . S
C1205 C1206 1.379 . S
C1206 H1190 0.931 . S
C1206 C1200 1.383 . S
C1206 C1205 1.379 . S
H1207 C1201 0.959 . S
H1208 C1201 0.961 . S
H1209 C1201 0.960 . S
H1210 C1202 0.930 . S
H1211 C1203 0.929 . S
H1212 C1220 0.929 . S
H1213 C1222 0.930 . S
H1214 C1224 0.930 . S
H1215 C1227 0.929 . S
H1216 C1230 0.930 . S
H1217 C1232 0.960 . S
H1218 C1232 0.960 . S
H1219 C1232 0.960 . S
C1220 H1212 0.929 . S
C1220 C1221 1.377 . S
C1220 C1222 1.384 . S
C1221 C1220 1.377 . S
C1221 C1227 1.390 . S
C1222 H1213 0.930 . S
C1222 C1220 1.384 . S
C1222 C1223 1.372 . S
C1223 C1222 1.372 . S
C1223 C1224 1.400 . S
C1223 C1228 1.490 . S
C1224 H1214 0.930 . S
C1224 C1223 1.400 . S
C1224 C1227 1.386 . S
H1225 C1241 0.930 . S
H1226 C1242 0.931 . S
C1227 H1215 0.929 . S
C1227 C1221 1.390 . S
C1227 C1224 1.386 . S
C1228 C1223 1.490 . S
C1228 C1230 1.395 . S
C1228 C1231 1.403 . S
H1229 C1235 0.930 . S
C1230 H1216 0.930 . S
C1230 C1228 1.395 . S
C1230 C1233 1.403 . S
C1231 C1228 1.403 . S
C1231 C1232 1.524 . S
C1231 C1235 1.400 . S
C1232 H1217 0.960 . S
C1232 H1218 0.960 . S
C1232 H1219 0.960 . S
C1232 C1231 1.524 . S
C1233 C1230 1.403 . S
C1233 C1234 1.392 . S
C1233 C1237 1.495 . S
C1234 C1233 1.392 . S
C1234 C1235 1.385 . S
C1234 C1236 1.478 . S
C1235 H1229 0.930 . S
C1235 C1231 1.400 . S
C1235 C1234 1.385 . S
C1236 C1234 1.478 . S
C1236 C1238 1.381 . S
C1236 C1242 1.383 . S
C1237 C1233 1.495 . S
C1237 H1243 0.959 . S
C1237 H1244 0.961 . S
C1237 H1245 0.960 . S
C1238 C1236 1.381 . S
C1238 C1239 1.394 . S
C1238 H1246 0.930 . S
C1239 C1238 1.394 . S
C1239 C1240 1.383 . S
C1239 H1247 0.929 . S
C1240 C1239 1.383 . S
C1240 C1241 1.377 . S
C1241 H1225 0.930 . S
C1241 C1240 1.377 . S
C1241 C1242 1.379 . S
C1242 H1226 0.931 . S
C1242 C1236 1.383 . S
C1242 C1241 1.379 . S
H1243 C1237 0.959 . S
H1244 C1237 0.961 . S
H1245 C1237 0.960 . S
H1246 C1238 0.930 . S
H1247 C1239 0.929 . S
H1248 C1256 0.929 . S
H1249 C1258 0.930 . S
H1250 C1260 0.930 . S
H1251 C1263 0.929 . S
H1252 C1266 0.930 . S
H1253 C1268 0.960 . S
H1254 C1268 0.960 . S
H1255 C1268 0.960 . S
C1256 H1248 0.929 . S
C1256 C1257 1.377 . S
C1256 C1258 1.384 . S
C1257 C1256 1.377 . S
C1257 C1263 1.390 . S
C1258 H1249 0.930 . S
C1258 C1256 1.384 . S
C1258 C1259 1.372 . S
C1259 C1258 1.372 . S
C1259 C1260 1.400 . S
C1259 C1264 1.490 . S
C1260 H1250 0.930 . S
C1260 C1259 1.400 . S
C1260 C1263 1.386 . S
H1261 C1277 0.930 . S
H1262 C1278 0.931 . S
C1263 H1251 0.929 . S
C1263 C1257 1.390 . S
C1263 C1260 1.386 . S
C1264 C1259 1.490 . S
C1264 C1266 1.395 . S
C1264 C1267 1.403 . S
H1265 C1271 0.930 . S
C1266 H1252 0.930 . S
C1266 C1264 1.395 . S
C1266 C1269 1.403 . S
C1267 C1264 1.403 . S
C1267 C1268 1.524 . S
C1267 C1271 1.400 . S
C1268 H1253 0.960 . S
C1268 H1254 0.960 . S
C1268 H1255 0.960 . S
C1268 C1267 1.524 . S
C1269 C1266 1.403 . S
C1269 C1270 1.392 . S
C1269 C1273 1.495 . S
C1270 C1269 1.392 . S
C1270 C1271 1.385 . S
C1270 C1272 1.478 . S
C1271 H1265 0.930 . S
C1271 C1267 1.400 . S
C1271 C1270 1.385 . S
C1272 C1270 1.478 . S
C1272 C1274 1.381 . S
C1272 C1278 1.383 . S
C1273 C1269 1.495 . S
C1273 H1279 0.959 . S
C1273 H1280 0.961 . S
C1273 H1281 0.960 . S
C1274 C1272 1.381 . S
C1274 C1275 1.394 . S
C1274 H1282 0.930 . S
C1275 C1274 1.394 . S
C1275 C1276 1.383 . S
C1275 H1283 0.929 . S
C1276 C1275 1.383 . S
C1276 C1277 1.377 . S
C1277 H1261 0.930 . S
C1277 C1276 1.377 . S
C1277 C1278 1.379 . S
C1278 H1262 0.931 . S
C1278 C1272 1.383 . S
C1278 C1277 1.379 . S
H1279 C1273 0.959 . S
H1280 C1273 0.961 . S
H1281 C1273 0.960 . S
H1282 C1274 0.930 . S
H1283 C1275 0.929 . S
H1284 C1292 0.929 . S
H1285 C1294 0.930 . S
H1286 C1296 0.930 . S
H1287 C1299 0.929 . S
H1288 C1302 0.930 . S
H1289 C1304 0.960 . S
H1290 C1304 0.960 . S
H1291 C1304 0.960 . S
C1292 H1284 0.929 . S
C1292 C1293 1.377 . S
C1292 C1294 1.384 . S
C1293 C1292 1.377 . S
C1293 C1299 1.390 . S
C1294 H1285 0.930 . S
C1294 C1292 1.384 . S
C1294 C1295 1.372 . S
C1295 C1294 1.372 . S
C1295 C1296 1.400 . S
C1295 C1300 1.490 . S
C1296 H1286 0.930 . S
C1296 C1295 1.400 . S
C1296 C1299 1.386 . S
H1297 C1313 0.930 . S
H1298 C1314 0.931 . S
C1299 H1287 0.929 . S
C1299 C1293 1.390 . S
C1299 C1296 1.386 . S
C1300 C1295 1.490 . S
C1300 C1302 1.395 . S
C1300 C1303 1.403 . S
H1301 C1307 0.930 . S
C1302 H1288 0.930 . S
C1302 C1300 1.395 . S
C1302 C1305 1.403 . S
C1303 C1300 1.403 . S
C1303 C1304 1.524 . S
C1303 C1307 1.400 . S
C1304 H1289 0.960 . S
C1304 H1290 0.960 . S
C1304 H1291 0.960 . S
C1304 C1303 1.524 . S
C1305 C1302 1.403 . S
C1305 C1306 1.392 . S
C1305 C1309 1.495 . S
C1306 C1305 1.392 . S
C1306 C1307 1.385 . S
C1306 C1308 1.478 . S
C1307 H1301 0.930 . S
C1307 C1303 1.400 . S
C1307 C1306 1.385 . S
C1308 C1306 1.478 . S
C1308 C1310 1.381 . S
C1308 C1314 1.383 . S
C1309 C1305 1.495 . S
C1309 H1315 0.959 . S
C1309 H1316 0.961 . S
C1309 H1317 0.960 . S
C1310 C1308 1.381 . S
C1310 C1311 1.394 . S
C1310 H1318 0.930 . S
C1311 C1310 1.394 . S
C1311 C1312 1.383 . S
C1311 H1319 0.929 . S
C1312 C1311 1.383 . S
C1312 C1313 1.377 . S
C1313 H1297 0.930 . S
C1313 C1312 1.377 . S
C1313 C1314 1.379 . S
C1314 H1298 0.931 . S
C1314 C1308 1.383 . S
C1314 C1313 1.379 . S
H1315 C1309 0.959 . S
H1316 C1309 0.961 . S
H1317 C1309 0.960 . S
H1318 C1310 0.930 . S
H1319 C1311 0.929 . S
H1320 C1328 0.929 . S
H1321 C1330 0.930 . S
H1322 C1332 0.930 . S
H1323 C1335 0.929 . S
H1324 C1338 0.930 . S
H1325 C1340 0.960 . S
H1326 C1340 0.960 . S
H1327 C1340 0.960 . S
C1328 H1320 0.929 . S
C1328 C1329 1.377 . S
C1328 C1330 1.384 . S
C1329 C1328 1.377 . S
C1329 C1335 1.390 . S
C1330 H1321 0.930 . S
C1330 C1328 1.384 . S
C1330 C1331 1.372 . S
C1331 C1330 1.372 . S
C1331 C1332 1.400 . S
C1331 C1336 1.490 . S
C1332 H1322 0.930 . S
C1332 C1331 1.400 . S
C1332 C1335 1.386 . S
H1333 C1349 0.930 . S
H1334 C1350 0.931 . S
C1335 H1323 0.929 . S
C1335 C1329 1.390 . S
C1335 C1332 1.386 . S
C1336 C1331 1.490 . S
C1336 C1338 1.395 . S
C1336 C1339 1.403 . S
H1337 C1343 0.930 . S
C1338 H1324 0.930 . S
C1338 C1336 1.395 . S
C1338 C1341 1.403 . S
C1339 C1336 1.403 . S
C1339 C1340 1.524 . S
C1339 C1343 1.400 . S
C1340 H1325 0.960 . S
C1340 H1326 0.960 . S
C1340 H1327 0.960 . S
C1340 C1339 1.524 . S
C1341 C1338 1.403 . S
C1341 C1342 1.392 . S
C1341 C1345 1.495 . S
C1342 C1341 1.392 . S
C1342 C1343 1.385 . S
C1342 C1344 1.478 . S
C1343 H1337 0.930 . S
C1343 C1339 1.400 . S
C1343 C1342 1.385 . S
C1344 C1342 1.478 . S
C1344 C1346 1.381 . S
C1344 C1350 1.383 . S
C1345 C1341 1.495 . S
C1345 H1351 0.959 . S
C1345 H1352 0.961 . S
C1345 H1353 0.960 . S
C1346 C1344 1.381 . S
C1346 C1347 1.394 . S
C1346 H1354 0.930 . S
C1347 C1346 1.394 . S
C1347 C1348 1.383 . S
C1347 H1355 0.929 . S
C1348 C1347 1.383 . S
C1348 C1349 1.377 . S
C1349 H1333 0.930 . S
C1349 C1348 1.377 . S
C1349 C1350 1.379 . S
C1350 H1334 0.931 . S
C1350 C1344 1.383 . S
C1350 C1349 1.379 . S
H1351 C1345 0.959 . S
H1352 C1345 0.961 . S
H1353 C1345 0.960 . S
H1354 C1346 0.930 . S
H1355 C1347 0.929 . S
H1356 C1364 0.929 . S
H1357 C1366 0.930 . S
H1358 C1368 0.930 . S
H1359 C1371 0.929 . S
H1360 C1374 0.930 . S
H1361 C1376 0.960 . S
H1362 C1376 0.960 . S
H1363 C1376 0.960 . S
C1364 H1356 0.929 . S
C1364 C1365 1.377 . S
C1364 C1366 1.384 . S
C1365 C1364 1.377 . S
C1365 C1371 1.390 . S
C1366 H1357 0.930 . S
C1366 C1364 1.384 . S
C1366 C1367 1.372 . S
C1367 C1366 1.372 . S
C1367 C1368 1.400 . S
C1367 C1372 1.490 . S
C1368 H1358 0.930 . S
C1368 C1367 1.400 . S
C1368 C1371 1.386 . S
H1369 C1385 0.930 . S
H1370 C1386 0.931 . S
C1371 H1359 0.929 . S
C1371 C1365 1.390 . S
C1371 C1368 1.386 . S
C1372 C1367 1.490 . S
C1372 C1374 1.395 . S
C1372 C1375 1.403 . S
H1373 C1379 0.930 . S
C1374 H1360 0.930 . S
C1374 C1372 1.395 . S
C1374 C1377 1.403 . S
C1375 C1372 1.403 . S
C1375 C1376 1.524 . S
C1375 C1379 1.400 . S
C1376 H1361 0.960 . S
C1376 H1362 0.960 . S
C1376 H1363 0.960 . S
C1376 C1375 1.524 . S
C1377 C1374 1.403 . S
C1377 C1378 1.392 . S
C1377 C1381 1.495 . S
C1378 C1377 1.392 . S
C1378 C1379 1.385 . S
C1378 C1380 1.478 . S
C1379 H1373 0.930 . S
C1379 C1375 1.400 . S
C1379 C1378 1.385 . S
C1380 C1378 1.478 . S
C1380 C1382 1.381 . S
C1380 C1386 1.383 . S
C1381 C1377 1.495 . S
C1381 H1387 0.959 . S
C1381 H1388 0.961 . S
C1381 H1389 0.960 . S
C1382 C1380 1.381 . S
C1382 C1383 1.394 . S
C1382 H1390 0.930 . S
C1383 C1382 1.394 . S
C1383 C1384 1.383 . S
C1383 H1391 0.929 . S
C1384 C1383 1.383 . S
C1384 C1385 1.377 . S
C1385 H1369 0.930 . S
C1385 C1384 1.377 . S
C1385 C1386 1.379 . S
C1386 H1370 0.931 . S
C1386 C1380 1.383 . S
C1386 C1385 1.379 . S
H1387 C1381 0.959 . S
H1388 C1381 0.961 . S
H1389 C1381 0.960 . S
H1390 C1382 0.930 . S
H1391 C1383 0.929 . S
H1392 C1400 0.929 . S
H1393 C1402 0.930 . S
H1394 C1404 0.930 . S
H1395 C1407 0.929 . S
H1396 C1410 0.930 . S
H1397 C1412 0.960 . S
H1398 C1412 0.960 . S
H1399 C1412 0.960 . S
C1400 H1392 0.929 . S
C1400 C1401 1.377 . S
C1400 C1402 1.384 . S
C1401 C1400 1.377 . S
C1401 C1407 1.390 . S
C1402 H1393 0.930 . S
C1402 C1400 1.384 . S
C1402 C1403 1.372 . S
C1403 C1402 1.372 . S
C1403 C1404 1.400 . S
C1403 C1408 1.490 . S
C1404 H1394 0.930 . S
C1404 C1403 1.400 . S
C1404 C1407 1.386 . S
H1405 C1421 0.930 . S
H1406 C1422 0.931 . S
C1407 H1395 0.929 . S
C1407 C1401 1.390 . S
C1407 C1404 1.386 . S
C1408 C1403 1.490 . S
C1408 C1410 1.395 . S
C1408 C1411 1.403 . S
H1409 C1415 0.930 . S
C1410 H1396 0.930 . S
C1410 C1408 1.395 . S
C1410 C1413 1.403 . S
C1411 C1408 1.403 . S
C1411 C1412 1.524 . S
C1411 C1415 1.400 . S
C1412 H1397 0.960 . S
C1412 H1398 0.960 . S
C1412 H1399 0.960 . S
C1412 C1411 1.524 . S
C1413 C1410 1.403 . S
C1413 C1414 1.392 . S
C1413 C1417 1.495 . S
C1414 C1413 1.392 . S
C1414 C1415 1.385 . S
C1414 C1416 1.478 . S
C1415 H1409 0.930 . S
C1415 C1411 1.400 . S
C1415 C1414 1.385 . S
C1416 C1414 1.478 . S
C1416 C1418 1.381 . S
C1416 C1422 1.383 . S
C1417 C1413 1.495 . S
C1417 H1423 0.959 . S
C1417 H1424 0.961 . S
C1417 H1425 0.960 . S
C1418 C1416 1.381 . S
C1418 C1419 1.394 . S
C1418 H1426 0.930 . S
C1419 C1418 1.394 . S
C1419 C1420 1.383 . S
C1419 H1427 0.929 . S
C1420 C1419 1.383 . S
C1420 C1421 1.377 . S
C1421 H1405 0.930 . S
C1421 C1420 1.377 . S
C1421 C1422 1.379 . S
C1422 H1406 0.931 . S
C1422 C1416 1.383 . S
C1422 C1421 1.379 . S
H1423 C1417 0.959 . S
H1424 C1417 0.961 . S
H1425 C1417 0.960 . S
H1426 C1418 0.930 . S
H1427 C1419 0.929 . S
H1428 C1436 0.929 . S
H1429 C1438 0.930 . S
H1430 C1440 0.930 . S
H1431 C1443 0.929 . S
H1432 C1446 0.930 . S
H1433 C1448 0.960 . S
H1434 C1448 0.960 . S
H1435 C1448 0.960 . S
C1436 H1428 0.929 . S
C1436 C1437 1.377 . S
C1436 C1438 1.384 . S
C1437 C1436 1.377 . S
C1437 C1443 1.390 . S
C1438 H1429 0.930 . S
C1438 C1436 1.384 . S
C1438 C1439 1.372 . S
C1439 C1438 1.372 . S
C1439 C1440 1.400 . S
C1439 C1444 1.490 . S
C1440 H1430 0.930 . S
C1440 C1439 1.400 . S
C1440 C1443 1.386 . S
H1441 C1457 0.930 . S
H1442 C1458 0.931 . S
C1443 H1431 0.929 . S
C1443 C1437 1.390 . S
C1443 C1440 1.386 . S
C1444 C1439 1.490 . S
C1444 C1446 1.395 . S
C1444 C1447 1.403 . S
H1445 C1451 0.930 . S
C1446 H1432 0.930 . S
C1446 C1444 1.395 . S
C1446 C1449 1.403 . S
C1447 C1444 1.403 . S
C1447 C1448 1.524 . S
C1447 C1451 1.400 . S
C1448 H1433 0.960 . S
C1448 H1434 0.960 . S
C1448 H1435 0.960 . S
C1448 C1447 1.524 . S
C1449 C1446 1.403 . S
C1449 C1450 1.392 . S
C1449 C1453 1.495 . S
C1450 C1449 1.392 . S
C1450 C1451 1.385 . S
C1450 C1452 1.478 . S
C1451 H1445 0.930 . S
C1451 C1447 1.400 . S
C1451 C1450 1.385 . S
C1452 C1450 1.478 . S
C1452 C1454 1.381 . S
C1452 C1458 1.383 . S
C1453 C1449 1.495 . S
C1453 H1459 0.959 . S
C1453 H1460 0.961 . S
C1453 H1461 0.960 . S
C1454 C1452 1.381 . S
C1454 C1455 1.394 . S
C1454 H1462 0.930 . S
C1455 C1454 1.394 . S
C1455 C1456 1.383 . S
C1455 H1463 0.929 . S
C1456 C1455 1.383 . S
C1456 C1457 1.377 . S
C1457 H1441 0.930 . S
C1457 C1456 1.377 . S
C1457 C1458 1.379 . S
C1458 H1442 0.931 . S
C1458 C1452 1.383 . S
C1458 C1457 1.379 . S
H1459 C1453 0.959 . S
H1460 C1453 0.961 . S
H1461 C1453 0.960 . S
H1462 C1454 0.930 . S
H1463 C1455 0.929 . S
H1464 C1472 0.929 . S
H1465 C1474 0.930 . S
H1466 C1476 0.930 . S
H1467 C1479 0.929 . S
H1468 C1482 0.930 . S
H1469 C1484 0.960 . S
H1470 C1484 0.960 . S
H1471 C1484 0.960 . S
C1472 H1464 0.929 . S
C1472 C1473 1.377 . S
C1472 C1474 1.384 . S
C1473 C1472 1.377 . S
C1473 C1479 1.390 . S
C1474 H1465 0.930 . S
C1474 C1472 1.384 . S
C1474 C1475 1.372 . S
C1475 C1474 1.372 . S
C1475 C1476 1.400 . S
C1475 C1480 1.490 . S
C1476 H1466 0.930 . S
C1476 C1475 1.400 . S
C1476 C1479 1.386 . S
H1477 C1493 0.930 . S
H1478 C1494 0.931 . S
C1479 H1467 0.929 . S
C1479 C1473 1.390 . S
C1479 C1476 1.386 . S
C1480 C1475 1.490 . S
C1480 C1482 1.395 . S
C1480 C1483 1.403 . S
H1481 C1487 0.930 . S
C1482 H1468 0.930 . S
C1482 C1480 1.395 . S
C1482 C1485 1.403 . S
C1483 C1480 1.403 . S
C1483 C1484 1.524 . S
C1483 C1487 1.400 . S
C1484 H1469 0.960 . S
C1484 H1470 0.960 . S
C1484 H1471 0.960 . S
C1484 C1483 1.524 . S
C1485 C1482 1.403 . S
C1485 C1486 1.392 . S
C1485 C1489 1.495 . S
C1486 C1485 1.392 . S
C1486 C1487 1.385 . S
C1486 C1488 1.478 . S
C1487 H1481 0.930 . S
C1487 C1483 1.400 . S
C1487 C1486 1.385 . S
C1488 C1486 1.478 . S
C1488 C1490 1.381 . S
C1488 C1494 1.383 . S
C1489 C1485 1.495 . S
C1489 H1495 0.959 . S
C1489 H1496 0.961 . S
C1489 H1497 0.960 . S
C1490 C1488 1.381 . S
C1490 C1491 1.394 . S
C1490 H1498 0.930 . S
C1491 C1490 1.394 . S
C1491 C1492 1.383 . S
C1491 H1499 0.929 . S
C1492 C1491 1.383 . S
C1492 C1493 1.377 . S
C1493 H1477 0.930 . S
C1493 C1492 1.377 . S
C1493 C1494 1.379 . S
C1494 H1478 0.931 . S
C1494 C1488 1.383 . S
C1494 C1493 1.379 . S
H1495 C1489 0.959 . S
H1496 C1489 0.961 . S
H1497 C1489 0.960 . S
H1498 C1490 0.930 . S
H1499 C1491 0.929 . S
H1500 C1508 0.929 . S
H1501 C1510 0.930 . S
H1502 C1512 0.930 . S
H1503 C1515 0.929 . S
H1504 C1518 0.930 . S
H1505 C1520 0.960 . S
H1506 C1520 0.960 . S
H1507 C1520 0.960 . S
C1508 H1500 0.929 . S
C1508 C1509 1.377 . S
C1508 C1510 1.384 . S
C1509 C1508 1.377 . S
C1509 C1515 1.390 . S
C1510 H1501 0.930 . S
C1510 C1508 1.384 . S
C1510 C1511 1.372 . S
C1511 C1510 1.372 . S
C1511 C1512 1.400 . S
C1511 C1516 1.490 . S
C1512 H1502 0.930 . S
C1512 C1511 1.400 . S
C1512 C1515 1.386 . S
H1513 C1529 0.930 . S
H1514 C1530 0.931 . S
C1515 H1503 0.929 . S
C1515 C1509 1.390 . S
C1515 C1512 1.386 . S
C1516 C1511 1.490 . S
C1516 C1518 1.395 . S
C1516 C1519 1.403 . S
H1517 C1523 0.930 . S
C1518 H1504 0.930 . S
C1518 C1516 1.395 . S
C1518 C1521 1.403 . S
C1519 C1516 1.403 . S
C1519 C1520 1.524 . S
C1519 C1523 1.400 . S
C1520 H1505 0.960 . S
C1520 H1506 0.960 . S
C1520 H1507 0.960 . S
C1520 C1519 1.524 . S
C1521 C1518 1.403 . S
C1521 C1522 1.392 . S
C1521 C1525 1.495 . S
C1522 C1521 1.392 . S
C1522 C1523 1.385 . S
C1522 C1524 1.478 . S
C1523 H1517 0.930 . S
C1523 C1519 1.400 . S
C1523 C1522 1.385 . S
C1524 C1522 1.478 . S
C1524 C1526 1.381 . S
C1524 C1530 1.383 . S
C1525 C1521 1.495 . S
C1525 H1531 0.959 . S
C1525 H1532 0.961 . S
C1525 H1533 0.960 . S
C1526 C1524 1.381 . S
C1526 C1527 1.394 . S
C1526 H1534 0.930 . S
C1527 C1526 1.394 . S
C1527 C1528 1.383 . S
C1527 H1535 0.929 . S
C1528 C1527 1.383 . S
C1528 C1529 1.377 . S
C1529 H1513 0.930 . S
C1529 C1528 1.377 . S
C1529 C1530 1.379 . S
C1530 H1514 0.931 . S
C1530 C1524 1.383 . S
C1530 C1529 1.379 . S
H1531 C1525 0.959 . S
H1532 C1525 0.961 . S
H1533 C1525 0.960 . S
H1534 C1526 0.930 . S
H1535 C1527 0.929 . S
H1536 C1544 0.929 . S
H1537 C1546 0.930 . S
H1538 C1548 0.930 . S
H1539 C1551 0.929 . S
H1540 C1554 0.930 . S
H1541 C1556 0.960 . S
H1542 C1556 0.960 . S
H1543 C1556 0.960 . S
C1544 H1536 0.929 . S
C1544 C1545 1.377 . S
C1544 C1546 1.384 . S
C1545 C1544 1.377 . S
C1545 C1551 1.390 . S
C1546 H1537 0.930 . S
C1546 C1544 1.384 . S
C1546 C1547 1.372 . S
C1547 C1546 1.372 . S
C1547 C1548 1.400 . S
C1547 C1552 1.490 . S
C1548 H1538 0.930 . S
C1548 C1547 1.400 . S
C1548 C1551 1.386 . S
H1549 C1565 0.930 . S
H1550 C1566 0.931 . S
C1551 H1539 0.929 . S
C1551 C1545 1.390 . S
C1551 C1548 1.386 . S
C1552 C1547 1.490 . S
C1552 C1554 1.395 . S
C1552 C1555 1.403 . S
H1553 C1559 0.930 . S
C1554 H1540 0.930 . S
C1554 C1552 1.395 . S
C1554 C1557 1.403 . S
C1555 C1552 1.403 . S
C1555 C1556 1.524 . S
C1555 C1559 1.400 . S
C1556 H1541 0.960 . S
C1556 H1542 0.960 . S
C1556 H1543 0.960 . S
C1556 C1555 1.524 . S
C1557 C1554 1.403 . S
C1557 C1558 1.392 . S
C1557 C1561 1.495 . S
C1558 C1557 1.392 . S
C1558 C1559 1.385 . S
C1558 C1560 1.478 . S
C1559 H1553 0.930 . S
C1559 C1555 1.400 . S
C1559 C1558 1.385 . S
C1560 C1558 1.478 . S
C1560 C1562 1.381 . S
C1560 C1566 1.383 . S
C1561 C1557 1.495 . S
C1561 H1567 0.959 . S
C1561 H1568 0.961 . S
C1561 H1569 0.960 . S
C1562 C1560 1.381 . S
C1562 C1563 1.394 . S
C1562 H1570 0.930 . S
C1563 C1562 1.394 . S
C1563 C1564 1.383 . S
C1563 H1571 0.929 . S
C1564 C1563 1.383 . S
C1564 C1565 1.377 . S
C1565 H1549 0.930 . S
C1565 C1564 1.377 . S
C1565 C1566 1.379 . S
C1566 H1550 0.931 . S
C1566 C1560 1.383 . S
C1566 C1565 1.379 . S
H1567 C1561 0.959 . S
H1568 C1561 0.961 . S
H1569 C1561 0.960 . S
H1570 C1562 0.930 . S
H1571 C1563 0.929 . S
H1572 C1580 0.929 . S
H1573 C1582 0.930 . S
H1574 C1584 0.930 . S
H1575 C1587 0.929 . S
H1576 C1590 0.930 . S
H1577 C1592 0.960 . S
H1578 C1592 0.960 . S
H1579 C1592 0.960 . S
C1580 H1572 0.929 . S
C1580 C1581 1.377 . S
C1580 C1582 1.384 . S
C1581 C1580 1.377 . S
C1581 C1587 1.390 . S
C1582 H1573 0.930 . S
C1582 C1580 1.384 . S
C1582 C1583 1.372 . S
C1583 C1582 1.372 . S
C1583 C1584 1.400 . S
C1583 C1588 1.490 . S
C1584 H1574 0.930 . S
C1584 C1583 1.400 . S
C1584 C1587 1.386 . S
H1585 C1601 0.930 . S
H1586 C1602 0.931 . S
C1587 H1575 0.929 . S
C1587 C1581 1.390 . S
C1587 C1584 1.386 . S
C1588 C1583 1.490 . S
C1588 C1590 1.395 . S
C1588 C1591 1.403 . S
H1589 C1595 0.930 . S
C1590 H1576 0.930 . S
C1590 C1588 1.395 . S
C1590 C1593 1.403 . S
C1591 C1588 1.403 . S
C1591 C1592 1.524 . S
C1591 C1595 1.400 . S
C1592 H1577 0.960 . S
C1592 H1578 0.960 . S
C1592 H1579 0.960 . S
C1592 C1591 1.524 . S
C1593 C1590 1.403 . S
C1593 C1594 1.392 . S
C1593 C1597 1.495 . S
C1594 C1593 1.392 . S
C1594 C1595 1.385 . S
C1594 C1596 1.478 . S
C1595 H1589 0.930 . S
C1595 C1591 1.400 . S
C1595 C1594 1.385 . S
C1596 C1594 1.478 . S
C1596 C1598 1.381 . S
C1596 C1602 1.383 . S
C1597 C1593 1.495 . S
C1597 H1603 0.959 . S
C1597 H1604 0.961 . S
C1597 H1605 0.960 . S
C1598 C1596 1.381 . S
C1598 C1599 1.394 . S
C1598 H1606 0.930 . S
C1599 C1598 1.394 . S
C1599 C1600 1.383 . S
C1599 H1607 0.929 . S
C1600 C1599 1.383 . S
C1600 C1601 1.377 . S
C1601 H1585 0.930 . S
C1601 C1600 1.377 . S
C1601 C1602 1.379 . S
C1602 H1586 0.931 . S
C1602 C1596 1.383 . S
C1602 C1601 1.379 . S
H1603 C1597 0.959 . S
H1604 C1597 0.961 . S
H1605 C1597 0.960 . S
H1606 C1598 0.930 . S
H1607 C1599 0.929 . S
H1608 C1616 0.929 . S
H1609 C1618 0.930 . S
H1610 C1620 0.930 . S
H1611 C1623 0.929 . S
H1612 C1626 0.930 . S
H1613 C1628 0.960 . S
H1614 C1628 0.960 . S
H1615 C1628 0.960 . S
C1616 H1608 0.929 . S
C1616 C1617 1.377 . S
C1616 C1618 1.384 . S
C1617 C1616 1.377 . S
C1617 C1623 1.390 . S
C1618 H1609 0.930 . S
C1618 C1616 1.384 . S
C1618 C1619 1.372 . S
C1619 C1618 1.372 . S
C1619 C1620 1.400 . S
C1619 C1624 1.490 . S
C1620 H1610 0.930 . S
C1620 C1619 1.400 . S
C1620 C1623 1.386 . S
H1621 C1637 0.930 . S
H1622 C1638 0.931 . S
C1623 H1611 0.929 . S
C1623 C1617 1.390 . S
C1623 C1620 1.386 . S
C1624 C1619 1.490 . S
C1624 C1626 1.395 . S
C1624 C1627 1.403 . S
H1625 C1631 0.930 . S
C1626 H1612 0.930 . S
C1626 C1624 1.395 . S
C1626 C1629 1.403 . S
C1627 C1624 1.403 . S
C1627 C1628 1.524 . S
C1627 C1631 1.400 . S
C1628 H1613 0.960 . S
C1628 H1614 0.960 . S
C1628 H1615 0.960 . S
C1628 C1627 1.524 . S
C1629 C1626 1.403 . S
C1629 C1630 1.392 . S
C1629 C1633 1.495 . S
C1630 C1629 1.392 . S
C1630 C1631 1.385 . S
C1630 C1632 1.478 . S
C1631 H1625 0.930 . S
C1631 C1627 1.400 . S
C1631 C1630 1.385 . S
C1632 C1630 1.478 . S
C1632 C1634 1.381 . S
C1632 C1638 1.383 . S
C1633 C1629 1.495 . S
C1633 H1639 0.959 . S
C1633 H1640 0.961 . S
C1633 H1641 0.960 . S
C1634 C1632 1.381 . S
C1634 C1635 1.394 . S
C1634 H1642 0.930 . S
C1635 C1634 1.394 . S
C1635 C1636 1.383 . S
C1635 H1643 0.929 . S
C1636 C1635 1.383 . S
C1636 C1637 1.377 . S
C1637 H1621 0.930 . S
C1637 C1636 1.377 . S
C1637 C1638 1.379 . S
C1638 H1622 0.931 . S
C1638 C1632 1.383 . S
C1638 C1637 1.379 . S
H1639 C1633 0.959 . S
H1640 C1633 0.961 . S
H1641 C1633 0.960 . S
H1642 C1634 0.930 . S
H1643 C1635 0.929 . S
H1644 C1652 0.929 . S
H1645 C1654 0.930 . S
H1646 C1656 0.930 . S
H1647 C1659 0.929 . S
H1648 C1662 0.930 . S
H1649 C1664 0.960 . S
H1650 C1664 0.960 . S
H1651 C1664 0.960 . S
C1652 H1644 0.929 . S
C1652 C1653 1.377 . S
C1652 C1654 1.384 . S
C1653 C1652 1.377 . S
C1653 C1659 1.390 . S
C1654 H1645 0.930 . S
C1654 C1652 1.384 . S
C1654 C1655 1.372 . S
C1655 C1654 1.372 . S
C1655 C1656 1.400 . S
C1655 C1660 1.490 . S
C1656 H1646 0.930 . S
C1656 C1655 1.400 . S
C1656 C1659 1.386 . S
H1657 C1673 0.930 . S
H1658 C1674 0.931 . S
C1659 H1647 0.929 . S
C1659 C1653 1.390 . S
C1659 C1656 1.386 . S
C1660 C1655 1.490 . S
C1660 C1662 1.395 . S
C1660 C1663 1.403 . S
H1661 C1667 0.930 . S
C1662 H1648 0.930 . S
C1662 C1660 1.395 . S
C1662 C1665 1.403 . S
C1663 C1660 1.403 . S
C1663 C1664 1.524 . S
C1663 C1667 1.400 . S
C1664 H1649 0.960 . S
C1664 H1650 0.960 . S
C1664 H1651 0.960 . S
C1664 C1663 1.524 . S
C1665 C1662 1.403 . S
C1665 C1666 1.392 . S
C1665 C1669 1.495 . S
C1666 C1665 1.392 . S
C1666 C1667 1.385 . S
C1666 C1668 1.478 . S
C1667 H1661 0.930 . S
C1667 C1663 1.400 . S
C1667 C1666 1.385 . S
C1668 C1666 1.478 . S
C1668 C1670 1.381 . S
C1668 C1674 1.383 . S
C1669 C1665 1.495 . S
C1669 H1675 0.959 . S
C1669 H1676 0.961 . S
C1669 H1677 0.960 . S
C1670 C1668 1.381 . S
C1670 C1671 1.394 . S
C1670 H1678 0.930 . S
C1671 C1670 1.394 . S
C1671 C1672 1.383 . S
C1671 H1679 0.929 . S
C1672 C1671 1.383 . S
C1672 C1673 1.377 . S
C1673 H1657 0.930 . S
C1673 C1672 1.377 . S
C1673 C1674 1.379 . S
C1674 H1658 0.931 . S
C1674 C1668 1.383 . S
C1674 C1673 1.379 . S
H1675 C1669 0.959 . S
H1676 C1669 0.961 . S
H1677 C1669 0.960 . S
H1678 C1670 0.930 . S
H1679 C1671 0.929 . S
H1680 C1688 0.929 . S
H1681 C1690 0.930 . S
H1682 C1692 0.930 . S
H1683 C1695 0.929 . S
H1684 C1698 0.930 . S
H1685 C1700 0.960 . S
H1686 C1700 0.960 . S
H1687 C1700 0.960 . S
C1688 H1680 0.929 . S
C1688 C1689 1.377 . S
C1688 C1690 1.384 . S
C1689 C1688 1.377 . S
C1689 C1695 1.390 . S
C1690 H1681 0.930 . S
C1690 C1688 1.384 . S
C1690 C1691 1.372 . S
C1691 C1690 1.372 . S
C1691 C1692 1.400 . S
C1691 C1696 1.490 . S
C1692 H1682 0.930 . S
C1692 C1691 1.400 . S
C1692 C1695 1.386 . S
H1693 C1709 0.930 . S
H1694 C1710 0.931 . S
C1695 H1683 0.929 . S
C1695 C1689 1.390 . S
C1695 C1692 1.386 . S
C1696 C1691 1.490 . S
C1696 C1698 1.395 . S
C1696 C1699 1.403 . S
H1697 C1703 0.930 . S
C1698 H1684 0.930 . S
C1698 C1696 1.395 . S
C1698 C1701 1.403 . S
C1699 C1696 1.403 . S
C1699 C1700 1.524 . S
C1699 C1703 1.400 . S
C1700 H1685 0.960 . S
C1700 H1686 0.960 . S
C1700 H1687 0.960 . S
C1700 C1699 1.524 . S
C1701 C1698 1.403 . S
C1701 C1702 1.392 . S
C1701 C1705 1.495 . S
C1702 C1701 1.392 . S
C1702 C1703 1.385 . S
C1702 C1704 1.478 . S
C1703 H1697 0.930 . S
C1703 C1699 1.400 . S
C1703 C1702 1.385 . S
C1704 C1702 1.478 . S
C1704 C1706 1.381 . S
C1704 C1710 1.383 . S
C1705 C1701 1.495 . S
C1705 H1711 0.959 . S
C1705 H1712 0.961 . S
C1705 H1713 0.960 . S
C1706 C1704 1.381 . S
C1706 C1707 1.394 . S
C1706 H1714 0.930 . S
C1707 C1706 1.394 . S
C1707 C1708 1.383 . S
C1707 H1715 0.929 . S
C1708 C1707 1.383 . S
C1708 C1709 1.377 . S
C1709 H1693 0.930 . S
C1709 C1708 1.377 . S
C1709 C1710 1.379 . S
C1710 H1694 0.931 . S
C1710 C1704 1.383 . S
C1710 C1709 1.379 . S
H1711 C1705 0.959 . S
H1712 C1705 0.961 . S
H1713 C1705 0.960 . S
H1714 C1706 0.930 . S
H1715 C1707 0.929 . S
H1716 C1724 0.929 . S
H1717 C1726 0.930 . S
H1718 C1728 0.930 . S
H1719 C1731 0.929 . S
H1720 C1734 0.930 . S
H1721 C1736 0.960 . S
H1722 C1736 0.960 . S
H1723 C1736 0.960 . S
C1724 H1716 0.929 . S
C1724 C1725 1.377 . S
C1724 C1726 1.384 . S
C1725 C1724 1.377 . S
C1725 C1731 1.390 . S
C1726 H1717 0.930 . S
C1726 C1724 1.384 . S
C1726 C1727 1.372 . S
C1727 C1726 1.372 . S
C1727 C1728 1.400 . S
C1727 C1732 1.490 . S
C1728 H1718 0.930 . S
C1728 C1727 1.400 . S
C1728 C1731 1.386 . S
H1729 C1745 0.930 . S
H1730 C1746 0.931 . S
C1731 H1719 0.929 . S
C1731 C1725 1.390 . S
C1731 C1728 1.386 . S
C1732 C1727 1.490 . S
C1732 C1734 1.395 . S
C1732 C1735 1.403 . S
H1733 C1739 0.930 . S
C1734 H1720 0.930 . S
C1734 C1732 1.395 . S
C1734 C1737 1.403 . S
C1735 C1732 1.403 . S
C1735 C1736 1.524 . S
C1735 C1739 1.400 . S
C1736 H1721 0.960 . S
C1736 H1722 0.960 . S
C1736 H1723 0.960 . S
C1736 C1735 1.524 . S
C1737 C1734 1.403 . S
C1737 C1738 1.392 . S
C1737 C1741 1.495 . S
C1738 C1737 1.392 . S
C1738 C1739 1.385 . S
C1738 C1740 1.478 . S
C1739 H1733 0.930 . S
C1739 C1735 1.400 . S
C1739 C1738 1.385 . S
C1740 C1738 1.478 . S
C1740 C1742 1.381 . S
C1740 C1746 1.383 . S
C1741 C1737 1.495 . S
C1741 H1747 0.959 . S
C1741 H1748 0.961 . S
C1741 H1749 0.960 . S
C1742 C1740 1.381 . S
C1742 C1743 1.394 . S
C1742 H1750 0.930 . S
C1743 C1742 1.394 . S
C1743 C1744 1.383 . S
C1743 H1751 0.929 . S
C1744 C1743 1.383 . S
C1744 C1745 1.377 . S
C1745 H1729 0.930 . S
C1745 C1744 1.377 . S
C1745 C1746 1.379 . S
C1746 H1730 0.931 . S
C1746 C1740 1.383 . S
C1746 C1745 1.379 . S
H1747 C1741 0.959 . S
H1748 C1741 0.961 . S
H1749 C1741 0.960 . S
H1750 C1742 0.930 . S
H1751 C1743 0.929 . S
H1752 C1760 0.929 . S
H1753 C1762 0.930 . S
H1754 C1764 0.930 . S
H1755 C1767 0.929 . S
H1756 C1770 0.930 . S
H1757 C1772 0.960 . S
H1758 C1772 0.960 . S
H1759 C1772 0.960 . S
C1760 H1752 0.929 . S
C1760 C1761 1.377 . S
C1760 C1762 1.384 . S
C1761 C1760 1.377 . S
C1761 C1767 1.390 . S
C1762 H1753 0.930 . S
C1762 C1760 1.384 . S
C1762 C1763 1.372 . S
C1763 C1762 1.372 . S
C1763 C1764 1.400 . S
C1763 C1768 1.490 . S
C1764 H1754 0.930 . S
C1764 C1763 1.400 . S
C1764 C1767 1.386 . S
H1765 C1781 0.930 . S
H1766 C1782 0.931 . S
C1767 H1755 0.929 . S
C1767 C1761 1.390 . S
C1767 C1764 1.386 . S
C1768 C1763 1.490 . S
C1768 C1770 1.395 . S
C1768 C1771 1.403 . S
H1769 C1775 0.930 . S
C1770 H1756 0.930 . S
C1770 C1768 1.395 . S
C1770 C1773 1.403 . S
C1771 C1768 1.403 . S
C1771 C1772 1.524 . S
C1771 C1775 1.400 . S
C1772 H1757 0.960 . S
C1772 H1758 0.960 . S
C1772 H1759 0.960 . S
C1772 C1771 1.524 . S
C1773 C1770 1.403 . S
C1773 C1774 1.392 . S
C1773 C1777 1.495 . S
C1774 C1773 1.392 . S
C1774 C1775 1.385 . S
C1774 C1776 1.478 . S
C1775 H1769 0.930 . S
C1775 C1771 1.400 . S
C1775 C1774 1.385 . S
C1776 C1774 1.478 . S
C1776 C1778 1.381 . S
C1776 C1782 1.383 . S
C1777 C1773 1.495 . S
C1777 H1783 0.959 . S
C1777 H1784 0.961 . S
C1777 H1785 0.960 . S
C1778 C1776 1.381 . S
C1778 C1779 1.394 . S
C1778 H1786 0.930 . S
C1779 C1778 1.394 . S
C1779 C1780 1.383 . S
C1779 H1787 0.929 . S
C1780 C1779 1.383 . S
C1780 C1781 1.377 . S
C1781 H1765 0.930 . S
C1781 C1780 1.377 . S
C1781 C1782 1.379 . S
C1782 H1766 0.931 . S
C1782 C1776 1.383 . S
C1782 C1781 1.379 . S
H1783 C1777 0.959 . S
H1784 C1777 0.961 . S
H1785 C1777 0.960 . S
H1786 C1778 0.930 . S
H1787 C1779 0.929 . S
H1788 C1796 0.929 . S
H1789 C1798 0.930 . S
H1790 C1800 0.930 . S
H1791 C1803 0.929 . S
H1792 C1806 0.930 . S
H1793 C1808 0.960 . S
H1794 C1808 0.960 . S
H1795 C1808 0.960 . S
C1796 H1788 0.929 . S
C1796 C1797 1.377 . S
C1796 C1798 1.384 . S
C1797 C1796 1.377 . S
C1797 C1803 1.390 . S
C1798 H1789 0.930 . S
C1798 C1796 1.384 . S
C1798 C1799 1.372 . S
C1799 C1798 1.372 . S
C1799 C1800 1.400 . S
C1799 C1804 1.490 . S
C1800 H1790 0.930 . S
C1800 C1799 1.400 . S
C1800 C1803 1.386 . S
H1801 C1817 0.930 . S
H1802 C1818 0.931 . S
C1803 H1791 0.929 . S
C1803 C1797 1.390 . S
C1803 C1800 1.386 . S
C1804 C1799 1.490 . S
C1804 C1806 1.395 . S
C1804 C1807 1.403 . S
H1805 C1811 0.930 . S
C1806 H1792 0.930 . S
C1806 C1804 1.395 . S
C1806 C1809 1.403 . S
C1807 C1804 1.403 . S
C1807 C1808 1.524 . S
C1807 C1811 1.400 . S
C1808 H1793 0.960 . S
C1808 H1794 0.960 . S
C1808 H1795 0.960 . S
C1808 C1807 1.524 . S
C1809 C1806 1.403 . S
C1809 C1810 1.392 . S
C1809 C1813 1.495 . S
C1810 C1809 1.392 . S
C1810 C1811 1.385 . S
C1810 C1812 1.478 . S
C1811 H1805 0.930 . S
C1811 C1807 1.400 . S
C1811 C1810 1.385 . S
C1812 C1810 1.478 . S
C1812 C1814 1.381 . S
C1812 C1818 1.383 . S
C1813 C1809 1.495 . S
C1813 H1819 0.959 . S
C1813 H1820 0.961 . S
C1813 H1821 0.960 . S
C1814 C1812 1.381 . S
C1814 C1815 1.394 . S
C1814 H1822 0.930 . S
C1815 C1814 1.394 . S
C1815 C1816 1.383 . S
C1815 H1823 0.929 . S
C1816 C1815 1.383 . S
C1816 C1817 1.377 . S
C1817 H1801 0.930 . S
C1817 C1816 1.377 . S
C1817 C1818 1.379 . S
C1818 H1802 0.931 . S
C1818 C1812 1.383 . S
C1818 C1817 1.379 . S
H1819 C1813 0.959 . S
H1820 C1813 0.961 . S
H1821 C1813 0.960 . S
H1822 C1814 0.930 . S
H1823 C1815 0.929 . S
H1824 C1832 0.929 . S
H1825 C1834 0.930 . S
H1826 C1836 0.930 . S
H1827 C1839 0.929 . S
H1828 C1842 0.930 . S
H1829 C1844 0.960 . S
H1830 C1844 0.960 . S
H1831 C1844 0.960 . S
C1832 H1824 0.929 . S
C1832 C1833 1.377 . S
C1832 C1834 1.384 . S
C1833 C1832 1.377 . S
C1833 C1839 1.390 . S
C1834 H1825 0.930 . S
C1834 C1832 1.384 . S
C1834 C1835 1.372 . S
C1835 C1834 1.372 . S
C1835 C1836 1.400 . S
C1835 C1840 1.490 . S
C1836 H1826 0.930 . S
C1836 C1835 1.400 . S
C1836 C1839 1.386 . S
H1837 C1853 0.930 . S
H1838 C1854 0.931 . S
C1839 H1827 0.929 . S
C1839 C1833 1.390 . S
C1839 C1836 1.386 . S
C1840 C1835 1.490 . S
C1840 C1842 1.395 . S
C1840 C1843 1.403 . S
H1841 C1847 0.930 . S
C1842 H1828 0.930 . S
C1842 C1840 1.395 . S
C1842 C1845 1.403 . S
C1843 C1840 1.403 . S
C1843 C1844 1.524 . S
C1843 C1847 1.400 . S
C1844 H1829 0.960 . S
C1844 H1830 0.960 . S
C1844 H1831 0.960 . S
C1844 C1843 1.524 . S
C1845 C1842 1.403 . S
C1845 C1846 1.392 . S
C1845 C1849 1.495 . S
C1846 C1845 1.392 . S
C1846 C1847 1.385 . S
C1846 C1848 1.478 . S
C1847 H1841 0.930 . S
C1847 C1843 1.400 . S
C1847 C1846 1.385 . S
C1848 C1846 1.478 . S
C1848 C1850 1.381 . S
C1848 C1854 1.383 . S
C1849 C1845 1.495 . S
C1849 H1855 0.959 . S
C1849 H1856 0.961 . S
C1849 H1857 0.960 . S
C1850 C1848 1.381 . S
C1850 C1851 1.394 . S
C1850 H1858 0.930 . S
C1851 C1850 1.394 . S
C1851 C1852 1.383 . S
C1851 H1859 0.929 . S
C1852 C1851 1.383 . S
C1852 C1853 1.377 . S
C1853 H1837 0.930 . S
C1853 C1852 1.377 . S
C1853 C1854 1.379 . S
C1854 H1838 0.931 . S
C1854 C1848 1.383 . S
C1854 C1853 1.379 . S
H1855 C1849 0.959 . S
H1856 C1849 0.961 . S
H1857 C1849 0.960 . S
H1858 C1850 0.930 . S
H1859 C1851 0.929 . S
H1860 C1868 0.929 . S
H1861 C1870 0.930 . S
H1862 C1872 0.930 . S
H1863 C1875 0.929 . S
H1864 C1878 0.930 . S
H1865 C1880 0.960 . S
H1866 C1880 0.960 . S
H1867 C1880 0.960 . S
C1868 H1860 0.929 . S
C1868 C1869 1.377 . S
C1868 C1870 1.384 . S
C1869 C1868 1.377 . S
C1869 C1875 1.390 . S
C1870 H1861 0.930 . S
C1870 C1868 1.384 . S
C1870 C1871 1.372 . S
C1871 C1870 1.372 . S
C1871 C1872 1.400 . S
C1871 C1876 1.490 . S
C1872 H1862 0.930 . S
C1872 C1871 1.400 . S
C1872 C1875 1.386 . S
H1873 C1889 0.930 . S
H1874 C1890 0.931 . S
C1875 H1863 0.929 . S
C1875 C1869 1.390 . S
C1875 C1872 1.386 . S
C1876 C1871 1.490 . S
C1876 C1878 1.395 . S
C1876 C1879 1.403 . S
H1877 C1883 0.930 . S
C1878 H1864 0.930 . S
C1878 C1876 1.395 . S
C1878 C1881 1.403 . S
C1879 C1876 1.403 . S
C1879 C1880 1.524 . S
C1879 C1883 1.400 . S
C1880 H1865 0.960 . S
C1880 H1866 0.960 . S
C1880 H1867 0.960 . S
C1880 C1879 1.524 . S
C1881 C1878 1.403 . S
C1881 C1882 1.392 . S
C1881 C1885 1.495 . S
C1882 C1881 1.392 . S
C1882 C1883 1.385 . S
C1882 C1884 1.478 . S
C1883 H1877 0.930 . S
C1883 C1879 1.400 . S
C1883 C1882 1.385 . S
C1884 C1882 1.478 . S
C1884 C1886 1.381 . S
C1884 C1890 1.383 . S
C1885 C1881 1.495 . S
C1885 H1891 0.959 . S
C1885 H1892 0.961 . S
C1885 H1893 0.960 . S
C1886 C1884 1.381 . S
C1886 C1887 1.394 . S
C1886 H1894 0.930 . S
C1887 C1886 1.394 . S
C1887 C1888 1.383 . S
C1887 H1895 0.929 . S
C1888 C1887 1.383 . S
C1888 C1889 1.377 . S
C1889 H1873 0.930 . S
C1889 C1888 1.377 . S
C1889 C1890 1.379 . S
C1890 H1874 0.931 . S
C1890 C1884 1.383 . S
C1890 C1889 1.379 . S
H1891 C1885 0.959 . S
H1892 C1885 0.961 . S
H1893 C1885 0.960 . S
H1894 C1886 0.930 . S
H1895 C1887 0.929 . S
H1896 C1904 0.929 . S
H1897 C1906 0.930 . S
H1898 C1908 0.930 . S
H1899 C1911 0.929 . S
H1900 C1914 0.930 . S
H1901 C1916 0.960 . S
H1902 C1916 0.960 . S
H1903 C1916 0.960 . S
C1904 H1896 0.929 . S
C1904 C1905 1.377 . S
C1904 C1906 1.384 . S
C1905 C1904 1.377 . S
C1905 C1911 1.390 . S
C1906 H1897 0.930 . S
C1906 C1904 1.384 . S
C1906 C1907 1.372 . S
C1907 C1906 1.372 . S
C1907 C1908 1.400 . S
C1907 C1912 1.490 . S
C1908 H1898 0.930 . S
C1908 C1907 1.400 . S
C1908 C1911 1.386 . S
H1909 C1925 0.930 . S
H1910 C1926 0.931 . S
C1911 H1899 0.929 . S
C1911 C1905 1.390 . S
C1911 C1908 1.386 . S
C1912 C1907 1.490 . S
C1912 C1914 1.395 . S
C1912 C1915 1.403 . S
H1913 C1919 0.930 . S
C1914 H1900 0.930 . S
C1914 C1912 1.395 . S
C1914 C1917 1.403 . S
C1915 C1912 1.403 . S
C1915 C1916 1.524 . S
C1915 C1919 1.400 . S
C1916 H1901 0.960 . S
C1916 H1902 0.960 . S
C1916 H1903 0.960 . S
C1916 C1915 1.524 . S
C1917 C1914 1.403 . S
C1917 C1918 1.392 . S
C1917 C1921 1.495 . S
C1918 C1917 1.392 . S
C1918 C1919 1.385 . S
C1918 C1920 1.478 . S
C1919 H1913 0.930 . S
C1919 C1915 1.400 . S
C1919 C1918 1.385 . S
C1920 C1918 1.478 . S
C1920 C1922 1.381 . S
C1920 C1926 1.383 . S
C1921 C1917 1.495 . S
C1921 H1927 0.959 . S
C1921 H1928 0.961 . S
C1921 H1929 0.960 . S
C1922 C1920 1.381 . S
C1922 C1923 1.394 . S
C1922 H1930 0.930 . S
C1923 C1922 1.394 . S
C1923 C1924 1.383 . S
C1923 H1931 0.929 . S
C1924 C1923 1.383 . S
C1924 C1925 1.377 . S
C1925 H1909 0.930 . S
C1925 C1924 1.377 . S
C1925 C1926 1.379 . S
C1926 H1910 0.931 . S
C1926 C1920 1.383 . S
C1926 C1925 1.379 . S
H1927 C1921 0.959 . S
H1928 C1921 0.961 . S
H1929 C1921 0.960 . S
H1930 C1922 0.930 . S
H1931 C1923 0.929 . S
H1932 C1940 0.929 . S
H1933 C1942 0.930 . S
H1934 C1944 0.930 . S
H1935 C1947 0.929 . S
H1936 C1950 0.930 . S
H1937 C1952 0.960 . S
H1938 C1952 0.960 . S
H1939 C1952 0.960 . S
C1940 H1932 0.929 . S
C1940 C1941 1.377 . S
C1940 C1942 1.384 . S
C1941 C1940 1.377 . S
C1941 C1947 1.390 . S
C1942 H1933 0.930 . S
C1942 C1940 1.384 . S
C1942 C1943 1.372 . S
C1943 C1942 1.372 . S
C1943 C1944 1.400 . S
C1943 C1948 1.490 . S
C1944 H1934 0.930 . S
C1944 C1943 1.400 . S
C1944 C1947 1.386 . S
H1945 C1961 0.930 . S
H1946 C1962 0.931 . S
C1947 H1935 0.929 . S
C1947 C1941 1.390 . S
C1947 C1944 1.386 . S
C1948 C1943 1.490 . S
C1948 C1950 1.395 . S
C1948 C1951 1.403 . S
H1949 C1955 0.930 . S
C1950 H1936 0.930 . S
C1950 C1948 1.395 . S
C1950 C1953 1.403 . S
C1951 C1948 1.403 . S
C1951 C1952 1.524 . S
C1951 C1955 1.400 . S
C1952 H1937 0.960 . S
C1952 H1938 0.960 . S
C1952 H1939 0.960 . S
C1952 C1951 1.524 . S
C1953 C1950 1.403 . S
C1953 C1954 1.392 . S
C1953 C1957 1.495 . S
C1954 C1953 1.392 . S
C1954 C1955 1.385 . S
C1954 C1956 1.478 . S
C1955 H1949 0.930 . S
C1955 C1951 1.400 . S
C1955 C1954 1.385 . S
C1956 C1954 1.478 . S
C1956 C1958 1.381 . S
C1956 C1962 1.383 . S
C1957 C1953 1.495 . S
C1957 H1963 0.959 . S
C1957 H1964 0.961 . S
C1957 H1965 0.960 . S
C1958 C1956 1.381 . S
C1958 C1959 1.394 . S
C1958 H1966 0.930 . S
C1959 C1958 1.394 . S
C1959 C1960 1.383 . S
C1959 H1967 0.929 . S
C1960 C1959 1.383 . S
C1960 C1961 1.377 . S
C1961 H1945 0.930 . S
C1961 C1960 1.377 . S
C1961 C1962 1.379 . S
C1962 H1946 0.931 . S
C1962 C1956 1.383 . S
C1962 C1961 1.379 . S
H1963 C1957 0.959 . S
H1964 C1957 0.961 . S
H1965 C1957 0.960 . S
H1966 C1958 0.930 . S
H1967 C1959 0.929 . S
H1968 C1976 0.929 . S
H1969 C1978 0.930 . S
H1970 C1980 0.930 . S
H1971 C1983 0.929 . S
H1972 C1986 0.930 . S
H1973 C1988 0.960 . S
H1974 C1988 0.960 . S
H1975 C1988 0.960 . S
C1976 H1968 0.929 . S
C1976 C1977 1.377 . S
C1976 C1978 1.384 . S
C1977 C1976 1.377 . S
C1977 C1983 1.390 . S
C1978 H1969 0.930 . S
C1978 C1976 1.384 . S
C1978 C1979 1.372 . S
C1979 C1978 1.372 . S
C1979 C1980 1.400 . S
C1979 C1984 1.490 . S
C1980 H1970 0.930 . S
C1980 C1979 1.400 . S
C1980 C1983 1.386 . S
H1981 C1997 0.930 . S
H1982 C1998 0.931 . S
C1983 H1971 0.929 . S
C1983 C1977 1.390 . S
C1983 C1980 1.386 . S
C1984 C1979 1.490 . S
C1984 C1986 1.395 . S
C1984 C1987 1.403 . S
H1985 C1991 0.930 . S
C1986 H1972 0.930 . S
C1986 C1984 1.395 . S
C1986 C1989 1.403 . S
C1987 C1984 1.403 . S
C1987 C1988 1.524 . S
C1987 C1991 1.400 . S
C1988 H1973 0.960 . S
C1988 H1974 0.960 . S
C1988 H1975 0.960 . S
C1988 C1987 1.524 . S
C1989 C1986 1.403 . S
C1989 C1990 1.392 . S
C1989 C1993 1.495 . S
C1990 C1989 1.392 . S
C1990 C1991 1.385 . S
C1990 C1992 1.478 . S
C1991 H1985 0.930 . S
C1991 C1987 1.400 . S
C1991 C1990 1.385 . S
C1992 C1990 1.478 . S
C1992 C1994 1.381 . S
C1992 C1998 1.383 . S
C1993 C1989 1.495 . S
C1993 H1999 0.959 . S
C1993 H2000 0.961 . S
C1993 H2001 0.960 . S
C1994 C1992 1.381 . S
C1994 C1995 1.394 . S
C1994 H2002 0.930 . S
C1995 C1994 1.394 . S
C1995 C1996 1.383 . S
C1995 H2003 0.929 . S
C1996 C1995 1.383 . S
C1996 C1997 1.377 . S
C1997 H1981 0.930 . S
C1997 C1996 1.377 . S
C1997 C1998 1.379 . S
C1998 H1982 0.931 . S
C1998 C1992 1.383 . S
C1998 C1997 1.379 . S
H1999 C1993 0.959 . S
H2000 C1993 0.961 . S
H2001 C1993 0.960 . S
H2002 C1994 0.930 . S
H2003 C1995 0.929 . S
H2004 C2012 0.929 . S
H2005 C2014 0.930 . S
H2006 C2016 0.930 . S
H2007 C2019 0.929 . S
H2008 C2022 0.930 . S
H2009 C2024 0.960 . S
H2010 C2024 0.960 . S
H2011 C2024 0.960 . S
C2012 H2004 0.929 . S
C2012 C2013 1.377 . S
C2012 C2014 1.384 . S
C2013 C2012 1.377 . S
C2013 C2019 1.390 . S
C2014 H2005 0.930 . S
C2014 C2012 1.384 . S
C2014 C2015 1.372 . S
C2015 C2014 1.372 . S
C2015 C2016 1.400 . S
C2015 C2020 1.490 . S
C2016 H2006 0.930 . S
C2016 C2015 1.400 . S
C2016 C2019 1.386 . S
H2017 C2033 0.930 . S
H2018 C2034 0.931 . S
C2019 H2007 0.929 . S
C2019 C2013 1.390 . S
C2019 C2016 1.386 . S
C2020 C2015 1.490 . S
C2020 C2022 1.395 . S
C2020 C2023 1.403 . S
H2021 C2027 0.930 . S
C2022 H2008 0.930 . S
C2022 C2020 1.395 . S
C2022 C2025 1.403 . S
C2023 C2020 1.403 . S
C2023 C2024 1.524 . S
C2023 C2027 1.400 . S
C2024 H2009 0.960 . S
C2024 H2010 0.960 . S
C2024 H2011 0.960 . S
C2024 C2023 1.524 . S
C2025 C2022 1.403 . S
C2025 C2026 1.392 . S
C2025 C2029 1.495 . S
C2026 C2025 1.392 . S
C2026 C2027 1.385 . S
C2026 C2028 1.478 . S
C2027 H2021 0.930 . S
C2027 C2023 1.400 . S
C2027 C2026 1.385 . S
C2028 C2026 1.478 . S
C2028 C2030 1.381 . S
C2028 C2034 1.383 . S
C2029 C2025 1.495 . S
C2029 H2035 0.959 . S
C2029 H2036 0.961 . S
C2029 H2037 0.960 . S
C2030 C2028 1.381 . S
C2030 C2031 1.394 . S
C2030 H2038 0.930 . S
C2031 C2030 1.394 . S
C2031 C2032 1.383 . S
C2031 H2039 0.929 . S
C2032 C2031 1.383 . S
C2032 C2033 1.377 . S
C2033 H2017 0.930 . S
C2033 C2032 1.377 . S
C2033 C2034 1.379 . S
C2034 H2018 0.931 . S
C2034 C2028 1.383 . S
C2034 C2033 1.379 . S
H2035 C2029 0.959 . S
H2036 C2029 0.961 . S
H2037 C2029 0.960 . S
H2038 C2030 0.930 . S
H2039 C2031 0.929 . S
H2040 C2048 0.929 . S
H2041 C2050 0.930 . S
H2042 C2052 0.930 . S
H2043 C2055 0.929 . S
H2044 C2058 0.930 . S
H2045 C2060 0.960 . S
H2046 C2060 0.960 . S
H2047 C2060 0.960 . S
C2048 H2040 0.929 . S
C2048 C2049 1.377 . S
C2048 C2050 1.384 . S
C2049 C2048 1.377 . S
C2049 C2055 1.390 . S
C2050 H2041 0.930 . S
C2050 C2048 1.384 . S
C2050 C2051 1.372 . S
C2051 C2050 1.372 . S
C2051 C2052 1.400 . S
C2051 C2056 1.490 . S
C2052 H2042 0.930 . S
C2052 C2051 1.400 . S
C2052 C2055 1.386 . S
H2053 C2069 0.930 . S
H2054 C2070 0.931 . S
C2055 H2043 0.929 . S
C2055 C2049 1.390 . S
C2055 C2052 1.386 . S
C2056 C2051 1.490 . S
C2056 C2058 1.395 . S
C2056 C2059 1.403 . S
H2057 C2063 0.930 . S
C2058 H2044 0.930 . S
C2058 C2056 1.395 . S
C2058 C2061 1.403 . S
C2059 C2056 1.403 . S
C2059 C2060 1.524 . S
C2059 C2063 1.400 . S
C2060 H2045 0.960 . S
C2060 H2046 0.960 . S
C2060 H2047 0.960 . S
C2060 C2059 1.524 . S
C2061 C2058 1.403 . S
C2061 C2062 1.392 . S
C2061 C2065 1.495 . S
C2062 C2061 1.392 . S
C2062 C2063 1.385 . S
C2062 C2064 1.478 . S
C2063 H2057 0.930 . S
C2063 C2059 1.400 . S
C2063 C2062 1.385 . S
C2064 C2062 1.478 . S
C2064 C2066 1.381 . S
C2064 C2070 1.383 . S
C2065 C2061 1.495 . S
C2065 H2071 0.959 . S
C2065 H2072 0.961 . S
C2065 H2073 0.960 . S
C2066 C2064 1.381 . S
C2066 C2067 1.394 . S
C2066 H2074 0.930 . S
C2067 C2066 1.394 . S
C2067 C2068 1.383 . S
C2067 H2075 0.929 . S
C2068 C2067 1.383 . S
C2068 C2069 1.377 . S
C2069 H2053 0.930 . S
C2069 C2068 1.377 . S
C2069 C2070 1.379 . S
C2070 H2054 0.931 . S
C2070 C2064 1.383 . S
C2070 C2069 1.379 . S
H2071 C2065 0.959 . S
H2072 C2065 0.961 . S
H2073 C2065 0.960 . S
H2074 C2066 0.930 . S
H2075 C2067 0.929 . S
H2076 C2084 0.929 . S
H2077 C2086 0.930 . S
H2078 C2088 0.930 . S
H2079 C2091 0.929 . S
H2080 C2094 0.930 . S
H2081 C2096 0.960 . S
H2082 C2096 0.960 . S
H2083 C2096 0.960 . S
C2084 H2076 0.929 . S
C2084 C2085 1.377 . S
C2084 C2086 1.384 . S
C2085 C2084 1.377 . S
C2085 C2091 1.390 . S
C2086 H2077 0.930 . S
C2086 C2084 1.384 . S
C2086 C2087 1.372 . S
C2087 C2086 1.372 . S
C2087 C2088 1.400 . S
C2087 C2092 1.490 . S
C2088 H2078 0.930 . S
C2088 C2087 1.400 . S
C2088 C2091 1.386 . S
H2089 C2105 0.930 . S
H2090 C2106 0.931 . S
C2091 H2079 0.929 . S
C2091 C2085 1.390 . S
C2091 C2088 1.386 . S
C2092 C2087 1.490 . S
C2092 C2094 1.395 . S
C2092 C2095 1.403 . S
H2093 C2099 0.930 . S
C2094 H2080 0.930 . S
C2094 C2092 1.395 . S
C2094 C2097 1.403 . S
C2095 C2092 1.403 . S
C2095 C2096 1.524 . S
C2095 C2099 1.400 . S
C2096 H2081 0.960 . S
C2096 H2082 0.960 . S
C2096 H2083 0.960 . S
C2096 C2095 1.524 . S
C2097 C2094 1.403 . S
C2097 C2098 1.392 . S
C2097 C2101 1.495 . S
C2098 C2097 1.392 . S
C2098 C2099 1.385 . S
C2098 C2100 1.478 . S
C2099 H2093 0.930 . S
C2099 C2095 1.400 . S
C2099 C2098 1.385 . S
C2100 C2098 1.478 . S
C2100 C2102 1.381 . S
C2100 C2106 1.383 . S
C2101 C2097 1.495 . S
C2101 H2107 0.959 . S
C2101 H2108 0.961 . S
C2101 H2109 0.960 . S
C2102 C2100 1.381 . S
C2102 C2103 1.394 . S
C2102 H2110 0.930 . S
C2103 C2102 1.394 . S
C2103 C2104 1.383 . S
C2103 H2111 0.929 . S
C2104 C2103 1.383 . S
C2104 C2105 1.377 . S
C2105 H2089 0.930 . S
C2105 C2104 1.377 . S
C2105 C2106 1.379 . S
C2106 H2090 0.931 . S
C2106 C2100 1.383 . S
C2106 C2105 1.379 . S
H2107 C2101 0.959 . S
H2108 C2101 0.961 . S
H2109 C2101 0.960 . S
H2110 C2102 0.930 . S
H2111 C2103 0.929 . S
H2112 C2120 0.929 . S
H2113 C2122 0.930 . S
H2114 C2124 0.930 . S
H2115 C2127 0.929 . S
H2116 C2130 0.930 . S
H2117 C2132 0.960 . S
H2118 C2132 0.960 . S
H2119 C2132 0.960 . S
C2120 H2112 0.929 . S
C2120 C2121 1.377 . S
C2120 C2122 1.384 . S
C2121 C2120 1.377 . S
C2121 C2127 1.390 . S
C2122 H2113 0.930 . S
C2122 C2120 1.384 . S
C2122 C2123 1.372 . S
C2123 C2122 1.372 . S
C2123 C2124 1.400 . S
C2123 C2128 1.490 . S
C2124 H2114 0.930 . S
C2124 C2123 1.400 . S
C2124 C2127 1.386 . S
H2125 C2141 0.930 . S
H2126 C2142 0.931 . S
C2127 H2115 0.929 . S
C2127 C2121 1.390 . S
C2127 C2124 1.386 . S
C2128 C2123 1.490 . S
C2128 C2130 1.395 . S
C2128 C2131 1.403 . S
H2129 C2135 0.930 . S
C2130 H2116 0.930 . S
C2130 C2128 1.395 . S
C2130 C2133 1.403 . S
C2131 C2128 1.403 . S
C2131 C2132 1.524 . S
C2131 C2135 1.400 . S
C2132 H2117 0.960 . S
C2132 H2118 0.960 . S
C2132 H2119 0.960 . S
C2132 C2131 1.524 . S
C2133 C2130 1.403 . S
C2133 C2134 1.392 . S
C2133 C2137 1.495 . S
C2134 C2133 1.392 . S
C2134 C2135 1.385 . S
C2134 C2136 1.478 . S
C2135 H2129 0.930 . S
C2135 C2131 1.400 . S
C2135 C2134 1.385 . S
C2136 C2134 1.478 . S
C2136 C2138 1.381 . S
C2136 C2142 1.383 . S
C2137 C2133 1.495 . S
C2137 H2143 0.959 . S
C2137 H2144 0.961 . S
C2137 H2145 0.960 . S
C2138 C2136 1.381 . S
C2138 C2139 1.394 . S
C2138 H2146 0.930 . S
C2139 C2138 1.394 . S
C2139 C2140 1.383 . S
C2139 H2147 0.929 . S
C2140 C2139 1.383 . S
C2140 C2141 1.377 . S
C2141 H2125 0.930 . S
C2141 C2140 1.377 . S
C2141 C2142 1.379 . S
C2142 H2126 0.931 . S
C2142 C2136 1.383 . S
C2142 C2141 1.379 . S
H2143 C2137 0.959 . S
H2144 C2137 0.961 . S
H2145 C2137 0.960 . S
H2146 C2138 0.930 . S
H2147 C2139 0.929 . S
H2148 C2156 0.929 . S
H2149 C2158 0.930 . S
H2150 C2160 0.930 . S
H2151 C2163 0.929 . S
H2152 C2166 0.930 . S
H2153 C2168 0.960 . S
H2154 C2168 0.960 . S
H2155 C2168 0.960 . S
C2156 H2148 0.929 . S
C2156 C2157 1.377 . S
C2156 C2158 1.384 . S
C2157 C2156 1.377 . S
C2157 C2163 1.390 . S
C2158 H2149 0.930 . S
C2158 C2156 1.384 . S
C2158 C2159 1.372 . S
C2159 C2158 1.372 . S
C2159 C2160 1.400 . S
C2159 C2164 1.490 . S
C2160 H2150 0.930 . S
C2160 C2159 1.400 . S
C2160 C2163 1.386 . S
H2161 C2177 0.930 . S
H2162 C2178 0.931 . S
C2163 H2151 0.929 . S
C2163 C2157 1.390 . S
C2163 C2160 1.386 . S
C2164 C2159 1.490 . S
C2164 C2166 1.395 . S
C2164 C2167 1.403 . S
H2165 C2171 0.930 . S
C2166 H2152 0.930 . S
C2166 C2164 1.395 . S
C2166 C2169 1.403 . S
C2167 C2164 1.403 . S
C2167 C2168 1.524 . S
C2167 C2171 1.400 . S
C2168 H2153 0.960 . S
C2168 H2154 0.960 . S
C2168 H2155 0.960 . S
C2168 C2167 1.524 . S
C2169 C2166 1.403 . S
C2169 C2170 1.392 . S
C2169 C2173 1.495 . S
C2170 C2169 1.392 . S
C2170 C2171 1.385 . S
C2170 C2172 1.478 . S
C2171 H2165 0.930 . S
C2171 C2167 1.400 . S
C2171 C2170 1.385 . S
C2172 C2170 1.478 . S
C2172 C2174 1.381 . S
C2172 C2178 1.383 . S
C2173 C2169 1.495 . S
C2173 H2179 0.959 . S
C2173 H2180 0.961 . S
C2173 H2181 0.960 . S
C2174 C2172 1.381 . S
C2174 C2175 1.394 . S
C2174 H2182 0.930 . S
C2175 C2174 1.394 . S
C2175 C2176 1.383 . S
C2175 H2183 0.929 . S
C2176 C2175 1.383 . S
C2176 C2177 1.377 . S
C2177 H2161 0.930 . S
C2177 C2176 1.377 . S
C2177 C2178 1.379 . S
C2178 H2162 0.931 . S
C2178 C2172 1.383 . S
C2178 C2177 1.379 . S
H2179 C2173 0.959 . S
H2180 C2173 0.961 . S
H2181 C2173 0.960 . S
H2182 C2174 0.930 . S
H2183 C2175 0.929 . S
H2184 C2192 0.929 . S
H2185 C2194 0.930 . S
H2186 C2196 0.930 . S
H2187 C2199 0.929 . S
H2188 C2202 0.930 . S
H2189 C2204 0.960 . S
H2190 C2204 0.960 . S
H2191 C2204 0.960 . S
C2192 H2184 0.929 . S
C2192 C2193 1.377 . S
C2192 C2194 1.384 . S
C2193 C2192 1.377 . S
C2193 C2199 1.390 . S
C2194 H2185 0.930 . S
C2194 C2192 1.384 . S
C2194 C2195 1.372 . S
C2195 C2194 1.372 . S
C2195 C2196 1.400 . S
C2195 C2200 1.490 . S
C2196 H2186 0.930 . S
C2196 C2195 1.400 . S
C2196 C2199 1.386 . S
H2197 C2213 0.930 . S
H2198 C2214 0.931 . S
C2199 H2187 0.929 . S
C2199 C2193 1.390 . S
C2199 C2196 1.386 . S
C2200 C2195 1.490 . S
C2200 C2202 1.395 . S
C2200 C2203 1.403 . S
H2201 C2207 0.930 . S
C2202 H2188 0.930 . S
C2202 C2200 1.395 . S
C2202 C2205 1.403 . S
C2203 C2200 1.403 . S
C2203 C2204 1.524 . S
C2203 C2207 1.400 . S
C2204 H2189 0.960 . S
C2204 H2190 0.960 . S
C2204 H2191 0.960 . S
C2204 C2203 1.524 . S
C2205 C2202 1.403 . S
C2205 C2206 1.392 . S
C2205 C2209 1.495 . S
C2206 C2205 1.392 . S
C2206 C2207 1.385 . S
C2206 C2208 1.478 . S
C2207 H2201 0.930 . S
C2207 C2203 1.400 . S
C2207 C2206 1.385 . S
C2208 C2206 1.478 . S
C2208 C2210 1.381 . S
C2208 C2214 1.383 . S
C2209 C2205 1.495 . S
C2209 H2215 0.959 . S
C2209 H2216 0.961 . S
C2209 H2217 0.960 . S
C2210 C2208 1.381 . S
C2210 C2211 1.394 . S
C2210 H2218 0.930 . S
C2211 C2210 1.394 . S
C2211 C2212 1.383 . S
C2211 H2219 0.929 . S
C2212 C2211 1.383 . S
C2212 C2213 1.377 . S
C2213 H2197 0.930 . S
C2213 C2212 1.377 . S
C2213 C2214 1.379 . S
C2214 H2198 0.931 . S
C2214 C2208 1.383 . S
C2214 C2213 1.379 . S
H2215 C2209 0.959 . S
H2216 C2209 0.961 . S
H2217 C2209 0.960 . S
H2218 C2210 0.930 . S
H2219 C2211 0.929 . S
H2220 C2228 0.929 . S
H2221 C2230 0.930 . S
H2222 C2232 0.930 . S
H2223 C2235 0.929 . S
H2224 C2238 0.930 . S
H2225 C2240 0.960 . S
H2226 C2240 0.960 . S
H2227 C2240 0.960 . S
C2228 H2220 0.929 . S
C2228 C2229 1.377 . S
C2228 C2230 1.384 . S
C2229 C2228 1.377 . S
C2229 C2235 1.390 . S
C2230 H2221 0.930 . S
C2230 C2228 1.384 . S
C2230 C2231 1.372 . S
C2231 C2230 1.372 . S
C2231 C2232 1.400 . S
C2231 C2236 1.490 . S
C2232 H2222 0.930 . S
C2232 C2231 1.400 . S
C2232 C2235 1.386 . S
H2233 C2249 0.930 . S
H2234 C2250 0.931 . S
C2235 H2223 0.929 . S
C2235 C2229 1.390 . S
C2235 C2232 1.386 . S
C2236 C2231 1.490 . S
C2236 C2238 1.395 . S
C2236 C2239 1.403 . S
H2237 C2243 0.930 . S
C2238 H2224 0.930 . S
C2238 C2236 1.395 . S
C2238 C2241 1.403 . S
C2239 C2236 1.403 . S
C2239 C2240 1.524 . S
C2239 C2243 1.400 . S
C2240 H2225 0.960 . S
C2240 H2226 0.960 . S
C2240 H2227 0.960 . S
C2240 C2239 1.524 . S
C2241 C2238 1.403 . S
C2241 C2242 1.392 . S
C2241 C2245 1.495 . S
C2242 C2241 1.392 . S
C2242 C2243 1.385 . S
C2242 C2244 1.478 . S
C2243 H2237 0.930 . S
C2243 C2239 1.400 . S
C2243 C2242 1.385 . S
C2244 C2242 1.478 . S
C2244 C2246 1.381 . S
C2244 C2250 1.383 . S
C2245 C2241 1.495 . S
C2245 H2251 0.959 . S
C2245 H2252 0.961 . S
C2245 H2253 0.960 . S
C2246 C2244 1.381 . S
C2246 C2247 1.394 . S
C2246 H2254 0.930 . S
C2247 C2246 1.394 . S
C2247 C2248 1.383 . S
C2247 H2255 0.929 . S
C2248 C2247 1.383 . S
C2248 C2249 1.377 . S
C2249 H2233 0.930 . S
C2249 C2248 1.377 . S
C2249 C2250 1.379 . S
C2250 H2234 0.931 . S
C2250 C2244 1.383 . S
C2250 C2249 1.379 . S
H2251 C2245 0.959 . S
H2252 C2245 0.961 . S
H2253 C2245 0.960 . S
H2254 C2246 0.930 . S
H2255 C2247 0.929 . S
H2256 C2264 0.929 . S
H2257 C2266 0.930 . S
H2258 C2268 0.930 . S
H2259 C2271 0.929 . S
H2260 C2274 0.930 . S
H2261 C2276 0.960 . S
H2262 C2276 0.960 . S
H2263 C2276 0.960 . S
C2264 H2256 0.929 . S
C2264 C2265 1.377 . S
C2264 C2266 1.384 . S
C2265 C2264 1.377 . S
C2265 C2271 1.390 . S
C2266 H2257 0.930 . S
C2266 C2264 1.384 . S
C2266 C2267 1.372 . S
C2267 C2266 1.372 . S
C2267 C2268 1.400 . S
C2267 C2272 1.490 . S
C2268 H2258 0.930 . S
C2268 C2267 1.400 . S
C2268 C2271 1.386 . S
H2269 C2285 0.930 . S
H2270 C2286 0.931 . S
C2271 H2259 0.929 . S
C2271 C2265 1.390 . S
C2271 C2268 1.386 . S
C2272 C2267 1.490 . S
C2272 C2274 1.395 . S
C2272 C2275 1.403 . S
H2273 C2279 0.930 . S
C2274 H2260 0.930 . S
C2274 C2272 1.395 . S
C2274 C2277 1.403 . S
C2275 C2272 1.403 . S
C2275 C2276 1.524 . S
C2275 C2279 1.400 . S
C2276 H2261 0.960 . S
C2276 H2262 0.960 . S
C2276 H2263 0.960 . S
C2276 C2275 1.524 . S
C2277 C2274 1.403 . S
C2277 C2278 1.392 . S
C2277 C2281 1.495 . S
C2278 C2277 1.392 . S
C2278 C2279 1.385 . S
C2278 C2280 1.478 . S
C2279 H2273 0.930 . S
C2279 C2275 1.400 . S
C2279 C2278 1.385 . S
C2280 C2278 1.478 . S
C2280 C2282 1.381 . S
C2280 C2286 1.383 . S
C2281 C2277 1.495 . S
C2281 H2287 0.959 . S
C2281 H2288 0.961 . S
C2281 H2289 0.960 . S
C2282 C2280 1.381 . S
C2282 C2283 1.394 . S
C2282 H2290 0.930 . S
C2283 C2282 1.394 . S
C2283 C2284 1.383 . S
C2283 H2291 0.929 . S
C2284 C2283 1.383 . S
C2284 C2285 1.377 . S
C2285 H2269 0.930 . S
C2285 C2284 1.377 . S
C2285 C2286 1.379 . S
C2286 H2270 0.931 . S
C2286 C2280 1.383 . S
C2286 C2285 1.379 . S
H2287 C2281 0.959 . S
H2288 C2281 0.961 . S
H2289 C2281 0.960 . S
H2290 C2282 0.930 . S
H2291 C2283 0.929 . S
H2292 C2300 0.929 . S
H2293 C2302 0.930 . S
H2294 C2304 0.930 . S
H2295 C2307 0.929 . S
H2296 C2310 0.930 . S
H2297 C2312 0.960 . S
H2298 C2312 0.960 . S
H2299 C2312 0.960 . S
C2300 H2292 0.929 . S
C2300 C2301 1.377 . S
C2300 C2302 1.384 . S
C2301 C2300 1.377 . S
C2301 C2307 1.390 . S
C2302 H2293 0.930 . S
C2302 C2300 1.384 . S
C2302 C2303 1.372 . S
C2303 C2302 1.372 . S
C2303 C2304 1.400 . S
C2303 C2308 1.490 . S
C2304 H2294 0.930 . S
C2304 C2303 1.400 . S
C2304 C2307 1.386 . S
H2305 C2321 0.930 . S
H2306 C2322 0.931 . S
C2307 H2295 0.929 . S
C2307 C2301 1.390 . S
C2307 C2304 1.386 . S
C2308 C2303 1.490 . S
C2308 C2310 1.395 . S
C2308 C2311 1.403 . S
H2309 C2315 0.930 . S
C2310 H2296 0.930 . S
C2310 C2308 1.395 . S
C2310 C2313 1.403 . S
C2311 C2308 1.403 . S
C2311 C2312 1.524 . S
C2311 C2315 1.400 . S
C2312 H2297 0.960 . S
C2312 H2298 0.960 . S
C2312 H2299 0.960 . S
C2312 C2311 1.524 . S
C2313 C2310 1.403 . S
C2313 C2314 1.392 . S
C2313 C2317 1.495 . S
C2314 C2313 1.392 . S
C2314 C2315 1.385 . S
C2314 C2316 1.478 . S
C2315 H2309 0.930 . S
C2315 C2311 1.400 . S
C2315 C2314 1.385 . S
C2316 C2314 1.478 . S
C2316 C2318 1.381 . S
C2316 C2322 1.383 . S
C2317 C2313 1.495 . S
C2317 H2323 0.959 . S
C2317 H2324 0.961 . S
C2317 H2325 0.960 . S
C2318 C2316 1.381 . S
C2318 C2319 1.394 . S
C2318 H2326 0.930 . S
C2319 C2318 1.394 . S
C2319 C2320 1.383 . S
C2319 H2327 0.929 . S
C2320 C2319 1.383 . S
C2320 C2321 1.377 . S
C2321 H2305 0.930 . S
C2321 C2320 1.377 . S
C2321 C2322 1.379 . S
C2322 H2306 0.931 . S
C2322 C2316 1.383 . S
C2322 C2321 1.379 . S
H2323 C2317 0.959 . S
H2324 C2317 0.961 . S
H2325 C2317 0.960 . S
H2326 C2318 0.930 . S
H2327 C2319 0.929 . S
H2328 C2336 0.929 . S
H2329 C2338 0.930 . S
H2330 C2340 0.930 . S
H2331 C2343 0.929 . S
H2332 C2346 0.930 . S
H2333 C2348 0.960 . S
H2334 C2348 0.960 . S
H2335 C2348 0.960 . S
C2336 H2328 0.929 . S
C2336 C2337 1.377 . S
C2336 C2338 1.384 . S
C2337 C2336 1.377 . S
C2337 C2343 1.390 . S
C2338 H2329 0.930 . S
C2338 C2336 1.384 . S
C2338 C2339 1.372 . S
C2339 C2338 1.372 . S
C2339 C2340 1.400 . S
C2339 C2344 1.490 . S
C2340 H2330 0.930 . S
C2340 C2339 1.400 . S
C2340 C2343 1.386 . S
H2341 C2357 0.930 . S
H2342 C2358 0.931 . S
C2343 H2331 0.929 . S
C2343 C2337 1.390 . S
C2343 C2340 1.386 . S
C2344 C2339 1.490 . S
C2344 C2346 1.395 . S
C2344 C2347 1.403 . S
H2345 C2351 0.930 . S
C2346 H2332 0.930 . S
C2346 C2344 1.395 . S
C2346 C2349 1.403 . S
C2347 C2344 1.403 . S
C2347 C2348 1.524 . S
C2347 C2351 1.400 . S
C2348 H2333 0.960 . S
C2348 H2334 0.960 . S
C2348 H2335 0.960 . S
C2348 C2347 1.524 . S
C2349 C2346 1.403 . S
C2349 C2350 1.392 . S
C2349 C2353 1.495 . S
C2350 C2349 1.392 . S
C2350 C2351 1.385 . S
C2350 C2352 1.478 . S
C2351 H2345 0.930 . S
C2351 C2347 1.400 . S
C2351 C2350 1.385 . S
C2352 C2350 1.478 . S
C2352 C2354 1.381 . S
C2352 C2358 1.383 . S
C2353 C2349 1.495 . S
C2353 H2359 0.959 . S
C2353 H2360 0.961 . S
C2353 H2361 0.960 . S
C2354 C2352 1.381 . S
C2354 C2355 1.394 . S
C2354 H2362 0.930 . S
C2355 C2354 1.394 . S
C2355 C2356 1.383 . S
C2355 H2363 0.929 . S
C2356 C2355 1.383 . S
C2356 C2357 1.377 . S
C2357 H2341 0.930 . S
C2357 C2356 1.377 . S
C2357 C2358 1.379 . S
C2358 H2342 0.931 . S
C2358 C2352 1.383 . S
C2358 C2357 1.379 . S
H2359 C2353 0.959 . S
H2360 C2353 0.961 . S
H2361 C2353 0.960 . S
H2362 C2354 0.930 . S
H2363 C2355 0.929 . S
H2364 C2372 0.929 . S
H2365 C2374 0.930 . S
H2366 C2376 0.930 . S
H2367 C2379 0.929 . S
H2368 C2382 0.930 . S
H2369 C2384 0.960 . S
H2370 C2384 0.960 . S
H2371 C2384 0.960 . S
C2372 H2364 0.929 . S
C2372 C2373 1.377 . S
C2372 C2374 1.384 . S
C2373 C2372 1.377 . S
C2373 C2379 1.390 . S
C2374 H2365 0.930 . S
C2374 C2372 1.384 . S
C2374 C2375 1.372 . S
C2375 C2374 1.372 . S
C2375 C2376 1.400 . S
C2375 C2380 1.490 . S
C2376 H2366 0.930 . S
C2376 C2375 1.400 . S
C2376 C2379 1.386 . S
H2377 C2393 0.930 . S
H2378 C2394 0.931 . S
C2379 H2367 0.929 . S
C2379 C2373 1.390 . S
C2379 C2376 1.386 . S
C2380 C2375 1.490 . S
C2380 C2382 1.395 . S
C2380 C2383 1.403 . S
H2381 C2387 0.930 . S
C2382 H2368 0.930 . S
C2382 C2380 1.395 . S
C2382 C2385 1.403 . S
C2383 C2380 1.403 . S
C2383 C2384 1.524 . S
C2383 C2387 1.400 . S
C2384 H2369 0.960 . S
C2384 H2370 0.960 . S
C2384 H2371 0.960 . S
C2384 C2383 1.524 . S
C2385 C2382 1.403 . S
C2385 C2386 1.392 . S
C2385 C2389 1.495 . S
C2386 C2385 1.392 . S
C2386 C2387 1.385 . S
C2386 C2388 1.478 . S
C2387 H2381 0.930 . S
C2387 C2383 1.400 . S
C2387 C2386 1.385 . S
C2388 C2386 1.478 . S
C2388 C2390 1.381 . S
C2388 C2394 1.383 . S
C2389 C2385 1.495 . S
C2389 H2395 0.959 . S
C2389 H2396 0.961 . S
C2389 H2397 0.960 . S
C2390 C2388 1.381 . S
C2390 C2391 1.394 . S
C2390 H2398 0.930 . S
C2391 C2390 1.394 . S
C2391 C2392 1.383 . S
C2391 H2399 0.929 . S
C2392 C2391 1.383 . S
C2392 C2393 1.377 . S
C2393 H2377 0.930 . S
C2393 C2392 1.377 . S
C2393 C2394 1.379 . S
C2394 H2378 0.931 . S
C2394 C2388 1.383 . S
C2394 C2393 1.379 . S
H2395 C2389 0.959 . S
H2396 C2389 0.961 . S
H2397 C2389 0.960 . S
H2398 C2390 0.930 . S
H2399 C2391 0.929 . S
H2400 C2408 0.929 . S
H2401 C2410 0.930 . S
H2402 C2412 0.930 . S
H2403 C2415 0.929 . S
H2404 C2418 0.930 . S
H2405 C2420 0.960 . S
H2406 C2420 0.960 . S
H2407 C2420 0.960 . S
C2408 H2400 0.929 . S
C2408 C2409 1.377 . S
C2408 C2410 1.384 . S
C2409 C2408 1.377 . S
C2409 C2415 1.390 . S
C2410 H2401 0.930 . S
C2410 C2408 1.384 . S
C2410 C2411 1.372 . S
C2411 C2410 1.372 . S
C2411 C2412 1.400 . S
C2411 C2416 1.490 . S
C2412 H2402 0.930 . S
C2412 C2411 1.400 . S
C2412 C2415 1.386 . S
H2413 C2429 0.930 . S
H2414 C2430 0.931 . S
C2415 H2403 0.929 . S
C2415 C2409 1.390 . S
C2415 C2412 1.386 . S
C2416 C2411 1.490 . S
C2416 C2418 1.395 . S
C2416 C2419 1.403 . S
H2417 C2423 0.930 . S
C2418 H2404 0.930 . S
C2418 C2416 1.395 . S
C2418 C2421 1.403 . S
C2419 C2416 1.403 . S
C2419 C2420 1.524 . S
C2419 C2423 1.400 . S
C2420 H2405 0.960 . S
C2420 H2406 0.960 . S
C2420 H2407 0.960 . S
C2420 C2419 1.524 . S
C2421 C2418 1.403 . S
C2421 C2422 1.392 . S
C2421 C2425 1.495 . S
C2422 C2421 1.392 . S
C2422 C2423 1.385 . S
C2422 C2424 1.478 . S
C2423 H2417 0.930 . S
C2423 C2419 1.400 . S
C2423 C2422 1.385 . S
C2424 C2422 1.478 . S
C2424 C2426 1.381 . S
C2424 C2430 1.383 . S
C2425 C2421 1.495 . S
C2425 H2431 0.959 . S
C2425 H2432 0.961 . S
C2425 H2433 0.960 . S
C2426 C2424 1.381 . S
C2426 C2427 1.394 . S
C2426 H2434 0.930 . S
C2427 C2426 1.394 . S
C2427 C2428 1.383 . S
C2427 H2435 0.929 . S
C2428 C2427 1.383 . S
C2428 C2429 1.377 . S
C2429 H2413 0.930 . S
C2429 C2428 1.377 . S
C2429 C2430 1.379 . S
C2430 H2414 0.931 . S
C2430 C2424 1.383 . S
C2430 C2429 1.379 . S
H2431 C2425 0.959 . S
H2432 C2425 0.961 . S
H2433 C2425 0.960 . S
H2434 C2426 0.930 . S
H2435 C2427 0.929 . S
H2436 C2444 0.929 . S
H2437 C2446 0.930 . S
H2438 C2448 0.930 . S
H2439 C2451 0.929 . S
H2440 C2454 0.930 . S
H2441 C2456 0.960 . S
H2442 C2456 0.960 . S
H2443 C2456 0.960 . S
C2444 H2436 0.929 . S
C2444 C2445 1.377 . S
C2444 C2446 1.384 . S
C2445 C2444 1.377 . S
C2445 C2451 1.390 . S
C2446 H2437 0.930 . S
C2446 C2444 1.384 . S
C2446 C2447 1.372 . S
C2447 C2446 1.372 . S
C2447 C2448 1.400 . S
C2447 C2452 1.490 . S
C2448 H2438 0.930 . S
C2448 C2447 1.400 . S
C2448 C2451 1.386 . S
H2449 C2465 0.930 . S
H2450 C2466 0.931 . S
C2451 H2439 0.929 . S
C2451 C2445 1.390 . S
C2451 C2448 1.386 . S
C2452 C2447 1.490 . S
C2452 C2454 1.395 . S
C2452 C2455 1.403 . S
H2453 C2459 0.930 . S
C2454 H2440 0.930 . S
C2454 C2452 1.395 . S
C2454 C2457 1.403 . S
C2455 C2452 1.403 . S
C2455 C2456 1.524 . S
C2455 C2459 1.400 . S
C2456 H2441 0.960 . S
C2456 H2442 0.960 . S
C2456 H2443 0.960 . S
C2456 C2455 1.524 . S
C2457 C2454 1.403 . S
C2457 C2458 1.392 . S
C2457 C2461 1.495 . S
C2458 C2457 1.392 . S
C2458 C2459 1.385 . S
C2458 C2460 1.478 . S
C2459 H2453 0.930 . S
C2459 C2455 1.400 . S
C2459 C2458 1.385 . S
C2460 C2458 1.478 . S
C2460 C2462 1.381 . S
C2460 C2466 1.383 . S
C2461 C2457 1.495 . S
C2461 H2467 0.959 . S
C2461 H2468 0.961 . S
C2461 H2469 0.960 . S
C2462 C2460 1.381 . S
C2462 C2463 1.394 . S
C2462 H2470 0.930 . S
C2463 C2462 1.394 . S
C2463 C2464 1.383 . S
C2463 H2471 0.929 . S
C2464 C2463 1.383 . S
C2464 C2465 1.377 . S
C2465 H2449 0.930 . S
C2465 C2464 1.377 . S
C2465 C2466 1.379 . S
C2466 H2450 0.931 . S
C2466 C2460 1.383 . S
C2466 C2465 1.379 . S
H2467 C2461 0.959 . S
H2468 C2461 0.961 . S
H2469 C2461 0.960 . S
H2470 C2462 0.930 . S
H2471 C2463 0.929 . S
H2472 C2480 0.929 . S
H2473 C2482 0.930 . S
H2474 C2484 0.930 . S
H2475 C2487 0.929 . S
H2476 C2490 0.930 . S
H2477 C2492 0.960 . S
H2478 C2492 0.960 . S
H2479 C2492 0.960 . S
C2480 H2472 0.929 . S
C2480 C2481 1.377 . S
C2480 C2482 1.384 . S
C2481 C2480 1.377 . S
C2481 C2487 1.390 . S
C2482 H2473 0.930 . S
C2482 C2480 1.384 . S
C2482 C2483 1.372 . S
C2483 C2482 1.372 . S
C2483 C2484 1.400 . S
C2483 C2488 1.490 . S
C2484 H2474 0.930 . S
C2484 C2483 1.400 . S
C2484 C2487 1.386 . S
H2485 C2501 0.930 . S
H2486 C2502 0.931 . S
C2487 H2475 0.929 . S
C2487 C2481 1.390 . S
C2487 C2484 1.386 . S
C2488 C2483 1.490 . S
C2488 C2490 1.395 . S
C2488 C2491 1.403 . S
H2489 C2495 0.930 . S
C2490 H2476 0.930 . S
C2490 C2488 1.395 . S
C2490 C2493 1.403 . S
C2491 C2488 1.403 . S
C2491 C2492 1.524 . S
C2491 C2495 1.400 . S
C2492 H2477 0.960 . S
C2492 H2478 0.960 . S
C2492 H2479 0.960 . S
C2492 C2491 1.524 . S
C2493 C2490 1.403 . S
C2493 C2494 1.392 . S
C2493 C2497 1.495 . S
C2494 C2493 1.392 . S
C2494 C2495 1.385 . S
C2494 C2496 1.478 . S
C2495 H2489 0.930 . S
C2495 C2491 1.400 . S
C2495 C2494 1.385 . S
C2496 C2494 1.478 . S
C2496 C2498 1.381 . S
C2496 C2502 1.383 . S
C2497 C2493 1.495 . S
C2497 H2503 0.959 . S
C2497 H2504 0.961 . S
C2497 H2505 0.960 . S
C2498 C2496 1.381 . S
C2498 C2499 1.394 . S
C2498 H2506 0.930 . S
C2499 C2498 1.394 . S
C2499 C2500 1.383 . S
C2499 H2507 0.929 . S
C2500 C2499 1.383 . S
C2500 C2501 1.377 . S
C2501 H2485 0.930 . S
C2501 C2500 1.377 . S
C2501 C2502 1.379 . S
C2502 H2486 0.931 . S
C2502 C2496 1.383 . S
C2502 C2501 1.379 . S
H2503 C2497 0.959 . S
H2504 C2497 0.961 . S
H2505 C2497 0.960 . S
H2506 C2498 0.930 . S
H2507 C2499 0.929 . S
H2508 C2516 0.929 . S
H2509 C2518 0.930 . S
H2510 C2520 0.930 . S
H2511 C2523 0.929 . S
H2512 C2526 0.930 . S
H2513 C2528 0.960 . S
H2514 C2528 0.960 . S
H2515 C2528 0.960 . S
C2516 H2508 0.929 . S
C2516 C2517 1.377 . S
C2516 C2518 1.384 . S
C2517 C2516 1.377 . S
C2517 C2523 1.390 . S
C2518 H2509 0.930 . S
C2518 C2516 1.384 . S
C2518 C2519 1.372 . S
C2519 C2518 1.372 . S
C2519 C2520 1.400 . S
C2519 C2524 1.490 . S
C2520 H2510 0.930 . S
C2520 C2519 1.400 . S
C2520 C2523 1.386 . S
H2521 C2537 0.930 . S
H2522 C2538 0.931 . S
C2523 H2511 0.929 . S
C2523 C2517 1.390 . S
C2523 C2520 1.386 . S
C2524 C2519 1.490 . S
C2524 C2526 1.395 . S
C2524 C2527 1.403 . S
H2525 C2531 0.930 . S
C2526 H2512 0.930 . S
C2526 C2524 1.395 . S
C2526 C2529 1.403 . S
C2527 C2524 1.403 . S
C2527 C2528 1.524 . S
C2527 C2531 1.400 . S
C2528 H2513 0.960 . S
C2528 H2514 0.960 . S
C2528 H2515 0.960 . S
C2528 C2527 1.524 . S
C2529 C2526 1.403 . S
C2529 C2530 1.392 . S
C2529 C2533 1.495 . S
C2530 C2529 1.392 . S
C2530 C2531 1.385 . S
C2530 C2532 1.478 . S
C2531 H2525 0.930 . S
C2531 C2527 1.400 . S
C2531 C2530 1.385 . S
C2532 C2530 1.478 . S
C2532 C2534 1.381 . S
C2532 C2538 1.383 . S
C2533 C2529 1.495 . S
C2533 H2539 0.959 . S
C2533 H2540 0.961 . S
C2533 H2541 0.960 . S
C2534 C2532 1.381 . S
C2534 C2535 1.394 . S
C2534 H2542 0.930 . S
C2535 C2534 1.394 . S
C2535 C2536 1.383 . S
C2535 H2543 0.929 . S
C2536 C2535 1.383 . S
C2536 C2537 1.377 . S
C2537 H2521 0.930 . S
C2537 C2536 1.377 . S
C2537 C2538 1.379 . S
C2538 H2522 0.931 . S
C2538 C2532 1.383 . S
C2538 C2537 1.379 . S
H2539 C2533 0.959 . S
H2540 C2533 0.961 . S
H2541 C2533 0.960 . S
H2542 C2534 0.930 . S
H2543 C2535 0.929 . S
H2544 C2552 0.929 . S
H2545 C2554 0.930 . S
H2546 C2556 0.930 . S
H2547 C2559 0.929 . S
H2548 C2562 0.930 . S
H2549 C2564 0.960 . S
H2550 C2564 0.960 . S
H2551 C2564 0.960 . S
C2552 H2544 0.929 . S
C2552 C2553 1.377 . S
C2552 C2554 1.384 . S
C2553 C2552 1.377 . S
C2553 C2559 1.390 . S
C2554 H2545 0.930 . S
C2554 C2552 1.384 . S
C2554 C2555 1.372 . S
C2555 C2554 1.372 . S
C2555 C2556 1.400 . S
C2555 C2560 1.490 . S
C2556 H2546 0.930 . S
C2556 C2555 1.400 . S
C2556 C2559 1.386 . S
H2557 C2573 0.930 . S
H2558 C2574 0.931 . S
C2559 H2547 0.929 . S
C2559 C2553 1.390 . S
C2559 C2556 1.386 . S
C2560 C2555 1.490 . S
C2560 C2562 1.395 . S
C2560 C2563 1.403 . S
H2561 C2567 0.930 . S
C2562 H2548 0.930 . S
C2562 C2560 1.395 . S
C2562 C2565 1.403 . S
C2563 C2560 1.403 . S
C2563 C2564 1.524 . S
C2563 C2567 1.400 . S
C2564 H2549 0.960 . S
C2564 H2550 0.960 . S
C2564 H2551 0.960 . S
C2564 C2563 1.524 . S
C2565 C2562 1.403 . S
C2565 C2566 1.392 . S
C2565 C2569 1.495 . S
C2566 C2565 1.392 . S
C2566 C2567 1.385 . S
C2566 C2568 1.478 . S
C2567 H2561 0.930 . S
C2567 C2563 1.400 . S
C2567 C2566 1.385 . S
C2568 C2566 1.478 . S
C2568 C2570 1.381 . S
C2568 C2574 1.383 . S
C2569 C2565 1.495 . S
C2569 H2575 0.959 . S
C2569 H2576 0.961 . S
C2569 H2577 0.960 . S
C2570 C2568 1.381 . S
C2570 C2571 1.394 . S
C2570 H2578 0.930 . S
C2571 C2570 1.394 . S
C2571 C2572 1.383 . S
C2571 H2579 0.929 . S
C2572 C2571 1.383 . S
C2572 C2573 1.377 . S
C2573 H2557 0.930 . S
C2573 C2572 1.377 . S
C2573 C2574 1.379 . S
C2574 H2558 0.931 . S
C2574 C2568 1.383 . S
C2574 C2573 1.379 . S
H2575 C2569 0.959 . S
H2576 C2569 0.961 . S
H2577 C2569 0.960 . S
H2578 C2570 0.930 . S
H2579 C2571 0.929 . S
H2580 C2588 0.929 . S
H2581 C2590 0.930 . S
H2582 C2592 0.930 . S
H2583 C2595 0.929 . S
H2584 C2598 0.930 . S
H2585 C2600 0.960 . S
H2586 C2600 0.960 . S
H2587 C2600 0.960 . S
C2588 H2580 0.929 . S
C2588 C2589 1.377 . S
C2588 C2590 1.384 . S
C2589 C2588 1.377 . S
C2589 C2595 1.390 . S
C2590 H2581 0.930 . S
C2590 C2588 1.384 . S
C2590 C2591 1.372 . S
C2591 C2590 1.372 . S
C2591 C2592 1.400 . S
C2591 C2596 1.490 . S
C2592 H2582 0.930 . S
C2592 C2591 1.400 . S
C2592 C2595 1.386 . S
H2593 C2609 0.930 . S
H2594 C2610 0.931 . S
C2595 H2583 0.929 . S
C2595 C2589 1.390 . S
C2595 C2592 1.386 . S
C2596 C2591 1.490 . S
C2596 C2598 1.395 . S
C2596 C2599 1.403 . S
H2597 C2603 0.930 . S
C2598 H2584 0.930 . S
C2598 C2596 1.395 . S
C2598 C2601 1.403 . S
C2599 C2596 1.403 . S
C2599 C2600 1.524 . S
C2599 C2603 1.400 . S
C2600 H2585 0.960 . S
C2600 H2586 0.960 . S
C2600 H2587 0.960 . S
C2600 C2599 1.524 . S
C2601 C2598 1.403 . S
C2601 C2602 1.392 . S
C2601 C2605 1.495 . S
C2602 C2601 1.392 . S
C2602 C2603 1.385 . S
C2602 C2604 1.478 . S
C2603 H2597 0.930 . S
C2603 C2599 1.400 . S
C2603 C2602 1.385 . S
C2604 C2602 1.478 . S
C2604 C2606 1.381 . S
C2604 C2610 1.383 . S
C2605 C2601 1.495 . S
C2605 H2611 0.959 . S
C2605 H2612 0.961 . S
C2605 H2613 0.960 . S
C2606 C2604 1.381 . S
C2606 C2607 1.394 . S
C2606 H2614 0.930 . S
C2607 C2606 1.394 . S
C2607 C2608 1.383 . S
C2607 H2615 0.929 . S
C2608 C2607 1.383 . S
C2608 C2609 1.377 . S
C2609 H2593 0.930 . S
C2609 C2608 1.377 . S
C2609 C2610 1.379 . S
C2610 H2594 0.931 . S
C2610 C2604 1.383 . S
C2610 C2609 1.379 . S
H2611 C2605 0.959 . S
H2612 C2605 0.961 . S
H2613 C2605 0.960 . S
H2614 C2606 0.930 . S
H2615 C2607 0.929 . S
H2616 C2624 0.929 . S
H2617 C2626 0.930 . S
H2618 C2628 0.930 . S
H2619 C2631 0.929 . S
H2620 C2634 0.930 . S
H2621 C2636 0.960 . S
H2622 C2636 0.960 . S
H2623 C2636 0.960 . S
C2624 H2616 0.929 . S
C2624 C2625 1.377 . S
C2624 C2626 1.384 . S
C2625 C2624 1.377 . S
C2625 C2631 1.390 . S
C2626 H2617 0.930 . S
C2626 C2624 1.384 . S
C2626 C2627 1.372 . S
C2627 C2626 1.372 . S
C2627 C2628 1.400 . S
C2627 C2632 1.490 . S
C2628 H2618 0.930 . S
C2628 C2627 1.400 . S
C2628 C2631 1.386 . S
H2629 C2645 0.930 . S
H2630 C2646 0.931 . S
C2631 H2619 0.929 . S
C2631 C2625 1.390 . S
C2631 C2628 1.386 . S
C2632 C2627 1.490 . S
C2632 C2634 1.395 . S
C2632 C2635 1.403 . S
H2633 C2639 0.930 . S
C2634 H2620 0.930 . S
C2634 C2632 1.395 . S
C2634 C2637 1.403 . S
C2635 C2632 1.403 . S
C2635 C2636 1.524 . S
C2635 C2639 1.400 . S
C2636 H2621 0.960 . S
C2636 H2622 0.960 . S
C2636 H2623 0.960 . S
C2636 C2635 1.524 . S
C2637 C2634 1.403 . S
C2637 C2638 1.392 . S
C2637 C2641 1.495 . S
C2638 C2637 1.392 . S
C2638 C2639 1.385 . S
C2638 C2640 1.478 . S
C2639 H2633 0.930 . S
C2639 C2635 1.400 . S
C2639 C2638 1.385 . S
C2640 C2638 1.478 . S
C2640 C2642 1.381 . S
C2640 C2646 1.383 . S
C2641 C2637 1.495 . S
C2641 H2647 0.959 . S
C2641 H2648 0.961 . S
C2641 H2649 0.960 . S
C2642 C2640 1.381 . S
C2642 C2643 1.394 . S
C2642 H2650 0.930 . S
C2643 C2642 1.394 . S
C2643 C2644 1.383 . S
C2643 H2651 0.929 . S
C2644 C2643 1.383 . S
C2644 C2645 1.377 . S
C2645 H2629 0.930 . S
C2645 C2644 1.377 . S
C2645 C2646 1.379 . S
C2646 H2630 0.931 . S
C2646 C2640 1.383 . S
C2646 C2645 1.379 . S
H2647 C2641 0.959 . S
H2648 C2641 0.961 . S
H2649 C2641 0.960 . S
H2650 C2642 0.930 . S
H2651 C2643 0.929 . S
H2652 C2660 0.929 . S
H2653 C2662 0.930 . S
H2654 C2664 0.930 . S
H2655 C2667 0.929 . S
H2656 C2670 0.930 . S
H2657 C2672 0.960 . S
H2658 C2672 0.960 . S
H2659 C2672 0.960 . S
C2660 H2652 0.929 . S
C2660 C2661 1.377 . S
C2660 C2662 1.384 . S
C2661 C2660 1.377 . S
C2661 C2667 1.390 . S
C2662 H2653 0.930 . S
C2662 C2660 1.384 . S
C2662 C2663 1.372 . S
C2663 C2662 1.372 . S
C2663 C2664 1.400 . S
C2663 C2668 1.490 . S
C2664 H2654 0.930 . S
C2664 C2663 1.400 . S
C2664 C2667 1.386 . S
H2665 C2681 0.930 . S
H2666 C2682 0.931 . S
C2667 H2655 0.929 . S
C2667 C2661 1.390 . S
C2667 C2664 1.386 . S
C2668 C2663 1.490 . S
C2668 C2670 1.395 . S
C2668 C2671 1.403 . S
H2669 C2675 0.930 . S
C2670 H2656 0.930 . S
C2670 C2668 1.395 . S
C2670 C2673 1.403 . S
C2671 C2668 1.403 . S
C2671 C2672 1.524 . S
C2671 C2675 1.400 . S
C2672 H2657 0.960 . S
C2672 H2658 0.960 . S
C2672 H2659 0.960 . S
C2672 C2671 1.524 . S
C2673 C2670 1.403 . S
C2673 C2674 1.392 . S
C2673 C2677 1.495 . S
C2674 C2673 1.392 . S
C2674 C2675 1.385 . S
C2674 C2676 1.478 . S
C2675 H2669 0.930 . S
C2675 C2671 1.400 . S
C2675 C2674 1.385 . S
C2676 C2674 1.478 . S
C2676 C2678 1.381 . S
C2676 C2682 1.383 . S
C2677 C2673 1.495 . S
C2677 H2683 0.959 . S
C2677 H2684 0.961 . S
C2677 H2685 0.960 . S
C2678 C2676 1.381 . S
C2678 C2679 1.394 . S
C2678 H2686 0.930 . S
C2679 C2678 1.394 . S
C2679 C2680 1.383 . S
C2679 H2687 0.929 . S
C2680 C2679 1.383 . S
C2680 C2681 1.377 . S
C2681 H2665 0.930 . S
C2681 C2680 1.377 . S
C2681 C2682 1.379 . S
C2682 H2666 0.931 . S
C2682 C2676 1.383 . S
C2682 C2681 1.379 . S
H2683 C2677 0.959 . S
H2684 C2677 0.961 . S
H2685 C2677 0.960 . S
H2686 C2678 0.930 . S
H2687 C2679 0.929 . S
H2688 C2696 0.929 . S
H2689 C2698 0.930 . S
H2690 C2700 0.930 . S
H2691 C2703 0.929 . S
H2692 C2706 0.930 . S
H2693 C2708 0.960 . S
H2694 C2708 0.960 . S
H2695 C2708 0.960 . S
C2696 H2688 0.929 . S
C2696 C2697 1.377 . S
C2696 C2698 1.384 . S
C2697 C2696 1.377 . S
C2697 C2703 1.390 . S
C2698 H2689 0.930 . S
C2698 C2696 1.384 . S
C2698 C2699 1.372 . S
C2699 C2698 1.372 . S
C2699 C2700 1.400 . S
C2699 C2704 1.490 . S
C2700 H2690 0.930 . S
C2700 C2699 1.400 . S
C2700 C2703 1.386 . S
H2701 C2717 0.930 . S
H2702 C2718 0.931 . S
C2703 H2691 0.929 . S
C2703 C2697 1.390 . S
C2703 C2700 1.386 . S
C2704 C2699 1.490 . S
C2704 C2706 1.395 . S
C2704 C2707 1.403 . S
H2705 C2711 0.930 . S
C2706 H2692 0.930 . S
C2706 C2704 1.395 . S
C2706 C2709 1.403 . S
C2707 C2704 1.403 . S
C2707 C2708 1.524 . S
C2707 C2711 1.400 . S
C2708 H2693 0.960 . S
C2708 H2694 0.960 . S
C2708 H2695 0.960 . S
C2708 C2707 1.524 . S
C2709 C2706 1.403 . S
C2709 C2710 1.392 . S
C2709 C2713 1.495 . S
C2710 C2709 1.392 . S
C2710 C2711 1.385 . S
C2710 C2712 1.478 . S
C2711 H2705 0.930 . S
C2711 C2707 1.400 . S
C2711 C2710 1.385 . S
C2712 C2710 1.478 . S
C2712 C2714 1.381 . S
C2712 C2718 1.383 . S
C2713 C2709 1.495 . S
C2713 H2719 0.959 . S
C2713 H2720 0.961 . S
C2713 H2721 0.960 . S
C2714 C2712 1.381 . S
C2714 C2715 1.394 . S
C2714 H2722 0.930 . S
C2715 C2714 1.394 . S
C2715 C2716 1.383 . S
C2715 H2723 0.929 . S
C2716 C2715 1.383 . S
C2716 C2717 1.377 . S
C2717 H2701 0.930 . S
C2717 C2716 1.377 . S
C2717 C2718 1.379 . S
C2718 H2702 0.931 . S
C2718 C2712 1.383 . S
C2718 C2717 1.379 . S
H2719 C2713 0.959 . S
H2720 C2713 0.961 . S
H2721 C2713 0.960 . S
H2722 C2714 0.930 . S
H2723 C2715 0.929 . S
H2724 C2732 0.929 . S
H2725 C2734 0.930 . S
H2726 C2736 0.930 . S
H2727 C2739 0.929 . S
H2728 C2742 0.930 . S
H2729 C2744 0.960 . S
H2730 C2744 0.960 . S
H2731 C2744 0.960 . S
C2732 H2724 0.929 . S
C2732 C2733 1.377 . S
C2732 C2734 1.384 . S
C2733 C2732 1.377 . S
C2733 C2739 1.390 . S
C2734 H2725 0.930 . S
C2734 C2732 1.384 . S
C2734 C2735 1.372 . S
C2735 C2734 1.372 . S
C2735 C2736 1.400 . S
C2735 C2740 1.490 . S
C2736 H2726 0.930 . S
C2736 C2735 1.400 . S
C2736 C2739 1.386 . S
H2737 C2753 0.930 . S
H2738 C2754 0.931 . S
C2739 H2727 0.929 . S
C2739 C2733 1.390 . S
C2739 C2736 1.386 . S
C2740 C2735 1.490 . S
C2740 C2742 1.395 . S
C2740 C2743 1.403 . S
H2741 C2747 0.930 . S
C2742 H2728 0.930 . S
C2742 C2740 1.395 . S
C2742 C2745 1.403 . S
C2743 C2740 1.403 . S
C2743 C2744 1.524 . S
C2743 C2747 1.400 . S
C2744 H2729 0.960 . S
C2744 H2730 0.960 . S
C2744 H2731 0.960 . S
C2744 C2743 1.524 . S
C2745 C2742 1.403 . S
C2745 C2746 1.392 . S
C2745 C2749 1.495 . S
C2746 C2745 1.392 . S
C2746 C2747 1.385 . S
C2746 C2748 1.478 . S
C2747 H2741 0.930 . S
C2747 C2743 1.400 . S
C2747 C2746 1.385 . S
C2748 C2746 1.478 . S
C2748 C2750 1.381 . S
C2748 C2754 1.383 . S
C2749 C2745 1.495 . S
C2749 H2755 0.959 . S
C2749 H2756 0.961 . S
C2749 H2757 0.960 . S
C2750 C2748 1.381 . S
C2750 C2751 1.394 . S
C2750 H2758 0.930 . S
C2751 C2750 1.394 . S
C2751 C2752 1.383 . S
C2751 H2759 0.929 . S
C2752 C2751 1.383 . S
C2752 C2753 1.377 . S
C2753 H2737 0.930 . S
C2753 C2752 1.377 . S
C2753 C2754 1.379 . S
C2754 H2738 0.931 . S
C2754 C2748 1.383 . S
C2754 C2753 1.379 . S
H2755 C2749 0.959 . S
H2756 C2749 0.961 . S
H2757 C2749 0.960 . S
H2758 C2750 0.930 . S
H2759 C2751 0.929 . S
H2760 C2768 0.929 . S
H2761 C2770 0.930 . S
H2762 C2772 0.930 . S
H2763 C2775 0.929 . S
H2764 C2778 0.930 . S
H2765 C2780 0.960 . S
H2766 C2780 0.960 . S
H2767 C2780 0.960 . S
C2768 H2760 0.929 . S
C2768 C2769 1.377 . S
C2768 C2770 1.384 . S
C2769 C2768 1.377 . S
C2769 C2775 1.390 . S
C2770 H2761 0.930 . S
C2770 C2768 1.384 . S
C2770 C2771 1.372 . S
C2771 C2770 1.372 . S
C2771 C2772 1.400 . S
C2771 C2776 1.490 . S
C2772 H2762 0.930 . S
C2772 C2771 1.400 . S
C2772 C2775 1.386 . S
H2773 C2789 0.930 . S
H2774 C2790 0.931 . S
C2775 H2763 0.929 . S
C2775 C2769 1.390 . S
C2775 C2772 1.386 . S
C2776 C2771 1.490 . S
C2776 C2778 1.395 . S
C2776 C2779 1.403 . S
H2777 C2783 0.930 . S
C2778 H2764 0.930 . S
C2778 C2776 1.395 . S
C2778 C2781 1.403 . S
C2779 C2776 1.403 . S
C2779 C2780 1.524 . S
C2779 C2783 1.400 . S
C2780 H2765 0.960 . S
C2780 H2766 0.960 . S
C2780 H2767 0.960 . S
C2780 C2779 1.524 . S
C2781 C2778 1.403 . S
C2781 C2782 1.392 . S
C2781 C2785 1.495 . S
C2782 C2781 1.392 . S
C2782 C2783 1.385 . S
C2782 C2784 1.478 . S
C2783 H2777 0.930 . S
C2783 C2779 1.400 . S
C2783 C2782 1.385 . S
C2784 C2782 1.478 . S
C2784 C2786 1.381 . S
C2784 C2790 1.383 . S
C2785 C2781 1.495 . S
C2785 H2791 0.959 . S
C2785 H2792 0.961 . S
C2785 H2793 0.960 . S
C2786 C2784 1.381 . S
C2786 C2787 1.394 . S
C2786 H2794 0.930 . S
C2787 C2786 1.394 . S
C2787 C2788 1.383 . S
C2787 H2795 0.929 . S
C2788 C2787 1.383 . S
C2788 C2789 1.377 . S
C2789 H2773 0.930 . S
C2789 C2788 1.377 . S
C2789 C2790 1.379 . S
C2790 H2774 0.931 . S
C2790 C2784 1.383 . S
C2790 C2789 1.379 . S
H2791 C2785 0.959 . S
H2792 C2785 0.961 . S
H2793 C2785 0.960 . S
H2794 C2786 0.930 . S
H2795 C2787 0.929 . S
H2796 C2804 0.929 . S
H2797 C2806 0.930 . S
H2798 C2808 0.930 . S
H2799 C2811 0.929 . S
H2800 C2814 0.930 . S
H2801 C2816 0.960 . S
H2802 C2816 0.960 . S
H2803 C2816 0.960 . S
C2804 H2796 0.929 . S
C2804 C2805 1.377 . S
C2804 C2806 1.384 . S
C2805 C2804 1.377 . S
C2805 C2811 1.390 . S
C2806 H2797 0.930 . S
C2806 C2804 1.384 . S
C2806 C2807 1.372 . S
C2807 C2806 1.372 . S
C2807 C2808 1.400 . S
C2807 C2812 1.490 . S
C2808 H2798 0.930 . S
C2808 C2807 1.400 . S
C2808 C2811 1.386 . S
H2809 C2825 0.930 . S
H2810 C2826 0.931 . S
C2811 H2799 0.929 . S
C2811 C2805 1.390 . S
C2811 C2808 1.386 . S
C2812 C2807 1.490 . S
C2812 C2814 1.395 . S
C2812 C2815 1.403 . S
H2813 C2819 0.930 . S
C2814 H2800 0.930 . S
C2814 C2812 1.395 . S
C2814 C2817 1.403 . S
C2815 C2812 1.403 . S
C2815 C2816 1.524 . S
C2815 C2819 1.400 . S
C2816 H2801 0.960 . S
C2816 H2802 0.960 . S
C2816 H2803 0.960 . S
C2816 C2815 1.524 . S
C2817 C2814 1.403 . S
C2817 C2818 1.392 . S
C2817 C2821 1.495 . S
C2818 C2817 1.392 . S
C2818 C2819 1.385 . S
C2818 C2820 1.478 . S
C2819 H2813 0.930 . S
C2819 C2815 1.400 . S
C2819 C2818 1.385 . S
C2820 C2818 1.478 . S
C2820 C2822 1.381 . S
C2820 C2826 1.383 . S
C2821 C2817 1.495 . S
C2821 H2827 0.959 . S
C2821 H2828 0.961 . S
C2821 H2829 0.960 . S
C2822 C2820 1.381 . S
C2822 C2823 1.394 . S
C2822 H2830 0.930 . S
C2823 C2822 1.394 . S
C2823 C2824 1.383 . S
C2823 H2831 0.929 . S
C2824 C2823 1.383 . S
C2824 C2825 1.377 . S
C2825 H2809 0.930 . S
C2825 C2824 1.377 . S
C2825 C2826 1.379 . S
C2826 H2810 0.931 . S
C2826 C2820 1.383 . S
C2826 C2825 1.379 . S
H2827 C2821 0.959 . S
H2828 C2821 0.961 . S
H2829 C2821 0.960 . S
H2830 C2822 0.930 . S
H2831 C2823 0.929 . S
H2832 C2840 0.929 . S
H2833 C2842 0.930 . S
H2834 C2844 0.930 . S
H2835 C2847 0.929 . S
H2836 C2850 0.930 . S
H2837 C2852 0.960 . S
H2838 C2852 0.960 . S
H2839 C2852 0.960 . S
C2840 H2832 0.929 . S
C2840 C2841 1.377 . S
C2840 C2842 1.384 . S
C2841 C2840 1.377 . S
C2841 C2847 1.390 . S
C2842 H2833 0.930 . S
C2842 C2840 1.384 . S
C2842 C2843 1.372 . S
C2843 C2842 1.372 . S
C2843 C2844 1.400 . S
C2843 C2848 1.490 . S
C2844 H2834 0.930 . S
C2844 C2843 1.400 . S
C2844 C2847 1.386 . S
H2845 C2861 0.930 . S
H2846 C2862 0.931 . S
C2847 H2835 0.929 . S
C2847 C2841 1.390 . S
C2847 C2844 1.386 . S
C2848 C2843 1.490 . S
C2848 C2850 1.395 . S
C2848 C2851 1.403 . S
H2849 C2855 0.930 . S
C2850 H2836 0.930 . S
C2850 C2848 1.395 . S
C2850 C2853 1.403 . S
C2851 C2848 1.403 . S
C2851 C2852 1.524 . S
C2851 C2855 1.400 . S
C2852 H2837 0.960 . S
C2852 H2838 0.960 . S
C2852 H2839 0.960 . S
C2852 C2851 1.524 . S
C2853 C2850 1.403 . S
C2853 C2854 1.392 . S
C2853 C2857 1.495 . S
C2854 C2853 1.392 . S
C2854 C2855 1.385 . S
C2854 C2856 1.478 . S
C2855 H2849 0.930 . S
C2855 C2851 1.400 . S
C2855 C2854 1.385 . S
C2856 C2854 1.478 . S
C2856 C2858 1.381 . S
C2856 C2862 1.383 . S
C2857 C2853 1.495 . S
C2857 H2863 0.959 . S
C2857 H2864 0.961 . S
C2857 H2865 0.960 . S
C2858 C2856 1.381 . S
C2858 C2859 1.394 . S
C2858 H2866 0.930 . S
C2859 C2858 1.394 . S
C2859 C2860 1.383 . S
C2859 H2867 0.929 . S
C2860 C2859 1.383 . S
C2860 C2861 1.377 . S
C2861 H2845 0.930 . S
C2861 C2860 1.377 . S
C2861 C2862 1.379 . S
C2862 H2846 0.931 . S
C2862 C2856 1.383 . S
C2862 C2861 1.379 . S
H2863 C2857 0.959 . S
H2864 C2857 0.961 . S
H2865 C2857 0.960 . S
H2866 C2858 0.930 . S
H2867 C2859 0.929 . S
H2868 C2876 0.929 . S
H2869 C2878 0.930 . S
H2870 C2880 0.930 . S
H2871 C2883 0.929 . S
H2872 C2886 0.930 . S
H2873 C2888 0.960 . S
H2874 C2888 0.960 . S
H2875 C2888 0.960 . S
C2876 H2868 0.929 . S
C2876 C2877 1.377 . S
C2876 C2878 1.384 . S
C2877 C2876 1.377 . S
C2877 C2883 1.390 . S
C2878 H2869 0.930 . S
C2878 C2876 1.384 . S
C2878 C2879 1.372 . S
C2879 C2878 1.372 . S
C2879 C2880 1.400 . S
C2879 C2884 1.490 . S
C2880 H2870 0.930 . S
C2880 C2879 1.400 . S
C2880 C2883 1.386 . S
H2881 C2897 0.930 . S
H2882 C2898 0.931 . S
C2883 H2871 0.929 . S
C2883 C2877 1.390 . S
C2883 C2880 1.386 . S
C2884 C2879 1.490 . S
C2884 C2886 1.395 . S
C2884 C2887 1.403 . S
H2885 C2891 0.930 . S
C2886 H2872 0.930 . S
C2886 C2884 1.395 . S
C2886 C2889 1.403 . S
C2887 C2884 1.403 . S
C2887 C2888 1.524 . S
C2887 C2891 1.400 . S
C2888 H2873 0.960 . S
C2888 H2874 0.960 . S
C2888 H2875 0.960 . S
C2888 C2887 1.524 . S
C2889 C2886 1.403 . S
C2889 C2890 1.392 . S
C2889 C2893 1.495 . S
C2890 C2889 1.392 . S
C2890 C2891 1.385 . S
C2890 C2892 1.478 . S
C2891 H2885 0.930 . S
C2891 C2887 1.400 . S
C2891 C2890 1.385 . S
C2892 C2890 1.478 . S
C2892 C2894 1.381 . S
C2892 C2898 1.383 . S
C2893 C2889 1.495 . S
C2893 H2899 0.959 . S
C2893 H2900 0.961 . S
C2893 H2901 0.960 . S
C2894 C2892 1.381 . S
C2894 C2895 1.394 . S
C2894 H2902 0.930 . S
C2895 C2894 1.394 . S
C2895 C2896 1.383 . S
C2895 H2903 0.929 . S
C2896 C2895 1.383 . S
C2896 C2897 1.377 . S
C2897 H2881 0.930 . S
C2897 C2896 1.377 . S
C2897 C2898 1.379 . S
C2898 H2882 0.931 . S
C2898 C2892 1.383 . S
C2898 C2897 1.379 . S
H2899 C2893 0.959 . S
H2900 C2893 0.961 . S
H2901 C2893 0.960 . S
H2902 C2894 0.930 . S
H2903 C2895 0.929 . S
H2904 C2912 0.929 . S
H2905 C2914 0.930 . S
H2906 C2916 0.930 . S
H2907 C2919 0.929 . S
H2908 C2922 0.930 . S
H2909 C2924 0.960 . S
H2910 C2924 0.960 . S
H2911 C2924 0.960 . S
C2912 H2904 0.929 . S
C2912 C2913 1.377 . S
C2912 C2914 1.384 . S
C2913 C2912 1.377 . S
C2913 C2919 1.390 . S
C2914 H2905 0.930 . S
C2914 C2912 1.384 . S
C2914 C2915 1.372 . S
C2915 C2914 1.372 . S
C2915 C2916 1.400 . S
C2915 C2920 1.490 . S
C2916 H2906 0.930 . S
C2916 C2915 1.400 . S
C2916 C2919 1.386 . S
H2917 C2933 0.930 . S
H2918 C2934 0.931 . S
C2919 H2907 0.929 . S
C2919 C2913 1.390 . S
C2919 C2916 1.386 . S
C2920 C2915 1.490 . S
C2920 C2922 1.395 . S
C2920 C2923 1.403 . S
H2921 C2927 0.930 . S
C2922 H2908 0.930 . S
C2922 C2920 1.395 . S
C2922 C2925 1.403 . S
C2923 C2920 1.403 . S
C2923 C2924 1.524 . S
C2923 C2927 1.400 . S
C2924 H2909 0.960 . S
C2924 H2910 0.960 . S
C2924 H2911 0.960 . S
C2924 C2923 1.524 . S
C2925 C2922 1.403 . S
C2925 C2926 1.392 . S
C2925 C2929 1.495 . S
C2926 C2925 1.392 . S
C2926 C2927 1.385 . S
C2926 C2928 1.478 . S
C2927 H2921 0.930 . S
C2927 C2923 1.400 . S
C2927 C2926 1.385 . S
C2928 C2926 1.478 . S
C2928 C2930 1.381 . S
C2928 C2934 1.383 . S
C2929 C2925 1.495 . S
C2929 H2935 0.959 . S
C2929 H2936 0.961 . S
C2929 H2937 0.960 . S
C2930 C2928 1.381 . S
C2930 C2931 1.394 . S
C2930 H2938 0.930 . S
C2931 C2930 1.394 . S
C2931 C2932 1.383 . S
C2931 H2939 0.929 . S
C2932 C2931 1.383 . S
C2932 C2933 1.377 . S
C2933 H2917 0.930 . S
C2933 C2932 1.377 . S
C2933 C2934 1.379 . S
C2934 H2918 0.931 . S
C2934 C2928 1.383 . S
C2934 C2933 1.379 . S
H2935 C2929 0.959 . S
H2936 C2929 0.961 . S
H2937 C2929 0.960 . S
H2938 C2930 0.930 . S
H2939 C2931 0.929 . S
H2940 C2948 0.929 . S
H2941 C2950 0.930 . S
H2942 C2952 0.930 . S
H2943 C2955 0.929 . S
H2944 C2958 0.930 . S
H2945 C2960 0.960 . S
H2946 C2960 0.960 . S
H2947 C2960 0.960 . S
C2948 H2940 0.929 . S
C2948 C2949 1.377 . S
C2948 C2950 1.384 . S
C2949 C2948 1.377 . S
C2949 C2955 1.390 . S
C2950 H2941 0.930 . S
C2950 C2948 1.384 . S
C2950 C2951 1.372 . S
C2951 C2950 1.372 . S
C2951 C2952 1.400 . S
C2951 C2956 1.490 . S
C2952 H2942 0.930 . S
C2952 C2951 1.400 . S
C2952 C2955 1.386 . S
H2953 C2969 0.930 . S
H2954 C2970 0.931 . S
C2955 H2943 0.929 . S
C2955 C2949 1.390 . S
C2955 C2952 1.386 . S
C2956 C2951 1.490 . S
C2956 C2958 1.395 . S
C2956 C2959 1.403 . S
H2957 C2963 0.930 . S
C2958 H2944 0.930 . S
C2958 C2956 1.395 . S
C2958 C2961 1.403 . S
C2959 C2956 1.403 . S
C2959 C2960 1.524 . S
C2959 C2963 1.400 . S
C2960 H2945 0.960 . S
C2960 H2946 0.960 . S
C2960 H2947 0.960 . S
C2960 C2959 1.524 . S
C2961 C2958 1.403 . S
C2961 C2962 1.392 . S
C2961 C2965 1.495 . S
C2962 C2961 1.392 . S
C2962 C2963 1.385 . S
C2962 C2964 1.478 . S
C2963 H2957 0.930 . S
C2963 C2959 1.400 . S
C2963 C2962 1.385 . S
C2964 C2962 1.478 . S
C2964 C2966 1.381 . S
C2964 C2970 1.383 . S
C2965 C2961 1.495 . S
C2965 H2971 0.959 . S
C2965 H2972 0.961 . S
C2965 H2973 0.960 . S
C2966 C2964 1.381 . S
C2966 C2967 1.394 . S
C2966 H2974 0.930 . S
C2967 C2966 1.394 . S
C2967 C2968 1.383 . S
C2967 H2975 0.929 . S
C2968 C2967 1.383 . S
C2968 C2969 1.377 . S
C2969 H2953 0.930 . S
C2969 C2968 1.377 . S
C2969 C2970 1.379 . S
C2970 H2954 0.931 . S
C2970 C2964 1.383 . S
C2970 C2969 1.379 . S
H2971 C2965 0.959 . S
H2972 C2965 0.961 . S
H2973 C2965 0.960 . S
H2974 C2966 0.930 . S
H2975 C2967 0.929 . S
H2976 C2984 0.929 . S
H2977 C2986 0.930 . S
H2978 C2988 0.930 . S
H2979 C2991 0.929 . S
H2980 C2994 0.930 . S
H2981 C2996 0.960 . S
H2982 C2996 0.960 . S
H2983 C2996 0.960 . S
C2984 H2976 0.929 . S
C2984 C2985 1.377 . S
C2984 C2986 1.384 . S
C2985 C2984 1.377 . S
C2985 C2991 1.390 . S
C2986 H2977 0.930 . S
C2986 C2984 1.384 . S
C2986 C2987 1.372 . S
C2987 C2986 1.372 . S
C2987 C2988 1.400 . S
C2987 C2992 1.490 . S
C2988 H2978 0.930 . S
C2988 C2987 1.400 . S
C2988 C2991 1.386 . S
H2989 C3005 0.930 . S
H2990 C3006 0.931 . S
C2991 H2979 0.929 . S
C2991 C2985 1.390 . S
C2991 C2988 1.386 . S
C2992 C2987 1.490 . S
C2992 C2994 1.395 . S
C2992 C2995 1.403 . S
H2993 C2999 0.930 . S
C2994 H2980 0.930 . S
C2994 C2992 1.395 . S
C2994 C2997 1.403 . S
C2995 C2992 1.403 . S
C2995 C2996 1.524 . S
C2995 C2999 1.400 . S
C2996 H2981 0.960 . S
C2996 H2982 0.960 . S
C2996 H2983 0.960 . S
C2996 C2995 1.524 . S
C2997 C2994 1.403 . S
C2997 C2998 1.392 . S
C2997 C3001 1.495 . S
C2998 C2997 1.392 . S
C2998 C2999 1.385 . S
C2998 C3000 1.478 . S
C2999 H2993 0.930 . S
C2999 C2995 1.400 . S
C2999 C2998 1.385 . S
C3000 C2998 1.478 . S
C3000 C3002 1.381 . S
C3000 C3006 1.383 . S
C3001 C2997 1.495 . S
C3001 H3007 0.959 . S
C3001 H3008 0.961 . S
C3001 H3009 0.960 . S
C3002 C3000 1.381 . S
C3002 C3003 1.394 . S
C3002 H3010 0.930 . S
C3003 C3002 1.394 . S
C3003 C3004 1.383 . S
C3003 H3011 0.929 . S
C3004 C3003 1.383 . S
C3004 C3005 1.377 . S
C3005 H2989 0.930 . S
C3005 C3004 1.377 . S
C3005 C3006 1.379 . S
C3006 H2990 0.931 . S
C3006 C3000 1.383 . S
C3006 C3005 1.379 . S
H3007 C3001 0.959 . S
H3008 C3001 0.961 . S
H3009 C3001 0.960 . S
H3010 C3002 0.930 . S
H3011 C3003 0.929 . S
H3012 C3020 0.929 . S
H3013 C3022 0.930 . S
H3014 C3024 0.930 . S
H3015 C3027 0.929 . S
H3016 C3030 0.930 . S
H3017 C3032 0.960 . S
H3018 C3032 0.960 . S
H3019 C3032 0.960 . S
C3020 H3012 0.929 . S
C3020 C3021 1.377 . S
C3020 C3022 1.384 . S
C3021 C3020 1.377 . S
C3021 C3027 1.390 . S
C3022 H3013 0.930 . S
C3022 C3020 1.384 . S
C3022 C3023 1.372 . S
C3023 C3022 1.372 . S
C3023 C3024 1.400 . S
C3023 C3028 1.490 . S
C3024 H3014 0.930 . S
C3024 C3023 1.400 . S
C3024 C3027 1.386 . S
H3025 C3041 0.930 . S
H3026 C3042 0.931 . S
C3027 H3015 0.929 . S
C3027 C3021 1.390 . S
C3027 C3024 1.386 . S
C3028 C3023 1.490 . S
C3028 C3030 1.395 . S
C3028 C3031 1.403 . S
H3029 C3035 0.930 . S
C3030 H3016 0.930 . S
C3030 C3028 1.395 . S
C3030 C3033 1.403 . S
C3031 C3028 1.403 . S
C3031 C3032 1.524 . S
C3031 C3035 1.400 . S
C3032 H3017 0.960 . S
C3032 H3018 0.960 . S
C3032 H3019 0.960 . S
C3032 C3031 1.524 . S
C3033 C3030 1.403 . S
C3033 C3034 1.392 . S
C3033 C3037 1.495 . S
C3034 C3033 1.392 . S
C3034 C3035 1.385 . S
C3034 C3036 1.478 . S
C3035 H3029 0.930 . S
C3035 C3031 1.400 . S
C3035 C3034 1.385 . S
C3036 C3034 1.478 . S
C3036 C3038 1.381 . S
C3036 C3042 1.383 . S
C3037 C3033 1.495 . S
C3037 H3043 0.959 . S
C3037 H3044 0.961 . S
C3037 H3045 0.960 . S
C3038 C3036 1.381 . S
C3038 C3039 1.394 . S
C3038 H3046 0.930 . S
C3039 C3038 1.394 . S
C3039 C3040 1.383 . S
C3039 H3047 0.929 . S
C3040 C3039 1.383 . S
C3040 C3041 1.377 . S
C3041 H3025 0.930 . S
C3041 C3040 1.377 . S
C3041 C3042 1.379 . S
C3042 H3026 0.931 . S
C3042 C3036 1.383 . S
C3042 C3041 1.379 . S
H3043 C3037 0.959 . S
H3044 C3037 0.961 . S
H3045 C3037 0.960 . S
H3046 C3038 0.930 . S
H3047 C3039 0.929 . S
H3048 C3056 0.929 . S
H3049 C3058 0.930 . S
H3050 C3060 0.930 . S
H3051 C3063 0.929 . S
H3052 C3066 0.930 . S
H3053 C3068 0.960 . S
H3054 C3068 0.960 . S
H3055 C3068 0.960 . S
C3056 H3048 0.929 . S
C3056 C3057 1.377 . S
C3056 C3058 1.384 . S
C3057 C3056 1.377 . S
C3057 C3063 1.390 . S
C3058 H3049 0.930 . S
C3058 C3056 1.384 . S
C3058 C3059 1.372 . S
C3059 C3058 1.372 . S
C3059 C3060 1.400 . S
C3059 C3064 1.490 . S
C3060 H3050 0.930 . S
C3060 C3059 1.400 . S
C3060 C3063 1.386 . S
H3061 C3077 0.930 . S
H3062 C3078 0.931 . S
C3063 H3051 0.929 . S
C3063 C3057 1.390 . S
C3063 C3060 1.386 . S
C3064 C3059 1.490 . S
C3064 C3066 1.395 . S
C3064 C3067 1.403 . S
H3065 C3071 0.930 . S
C3066 H3052 0.930 . S
C3066 C3064 1.395 . S
C3066 C3069 1.403 . S
C3067 C3064 1.403 . S
C3067 C3068 1.524 . S
C3067 C3071 1.400 . S
C3068 H3053 0.960 . S
C3068 H3054 0.960 . S
C3068 H3055 0.960 . S
C3068 C3067 1.524 . S
C3069 C3066 1.403 . S
C3069 C3070 1.392 . S
C3069 C3073 1.495 . S
C3070 C3069 1.392 . S
C3070 C3071 1.385 . S
C3070 C3072 1.478 . S
C3071 H3065 0.930 . S
C3071 C3067 1.400 . S
C3071 C3070 1.385 . S
C3072 C3070 1.478 . S
C3072 C3074 1.381 . S
C3072 C3078 1.383 . S
C3073 C3069 1.495 . S
C3073 H3079 0.959 . S
C3073 H3080 0.961 . S
C3073 H3081 0.960 . S
C3074 C3072 1.381 . S
C3074 C3075 1.394 . S
C3074 H3082 0.930 . S
C3075 C3074 1.394 . S
C3075 C3076 1.383 . S
C3075 H3083 0.929 . S
C3076 C3075 1.383 . S
C3076 C3077 1.377 . S
C3077 H3061 0.930 . S
C3077 C3076 1.377 . S
C3077 C3078 1.379 . S
C3078 H3062 0.931 . S
C3078 C3072 1.383 . S
C3078 C3077 1.379 . S
H3079 C3073 0.959 . S
H3080 C3073 0.961 . S
H3081 C3073 0.960 . S
H3082 C3074 0.930 . S
H3083 C3075 0.929 . S
H3084 C3092 0.929 . S
H3085 C3094 0.930 . S
H3086 C3096 0.930 . S
H3087 C3099 0.929 . S
H3088 C3102 0.930 . S
H3089 C3104 0.960 . S
H3090 C3104 0.960 . S
H3091 C3104 0.960 . S
C3092 H3084 0.929 . S
C3092 C3093 1.377 . S
C3092 C3094 1.384 . S
C3093 C3092 1.377 . S
C3093 C3099 1.390 . S
C3094 H3085 0.930 . S
C3094 C3092 1.384 . S
C3094 C3095 1.372 . S
C3095 C3094 1.372 . S
C3095 C3096 1.400 . S
C3095 C3100 1.490 . S
C3096 H3086 0.930 . S
C3096 C3095 1.400 . S
C3096 C3099 1.386 . S
H3097 C3113 0.930 . S
H3098 C3114 0.931 . S
C3099 H3087 0.929 . S
C3099 C3093 1.390 . S
C3099 C3096 1.386 . S
C3100 C3095 1.490 . S
C3100 C3102 1.395 . S
C3100 C3103 1.403 . S
H3101 C3107 0.930 . S
C3102 H3088 0.930 . S
C3102 C3100 1.395 . S
C3102 C3105 1.403 . S
C3103 C3100 1.403 . S
C3103 C3104 1.524 . S
C3103 C3107 1.400 . S
C3104 H3089 0.960 . S
C3104 H3090 0.960 . S
C3104 H3091 0.960 . S
C3104 C3103 1.524 . S
C3105 C3102 1.403 . S
C3105 C3106 1.392 . S
C3105 C3109 1.495 . S
C3106 C3105 1.392 . S
C3106 C3107 1.385 . S
C3106 C3108 1.478 . S
C3107 H3101 0.930 . S
C3107 C3103 1.400 . S
C3107 C3106 1.385 . S
C3108 C3106 1.478 . S
C3108 C3110 1.381 . S
C3108 C3114 1.383 . S
C3109 C3105 1.495 . S
C3109 H3115 0.959 . S
C3109 H3116 0.961 . S
C3109 H3117 0.960 . S
C3110 C3108 1.381 . S
C3110 C3111 1.394 . S
C3110 H3118 0.930 . S
C3111 C3110 1.394 . S
C3111 C3112 1.383 . S
C3111 H3119 0.929 . S
C3112 C3111 1.383 . S
C3112 C3113 1.377 . S
C3113 H3097 0.930 . S
C3113 C3112 1.377 . S
C3113 C3114 1.379 . S
C3114 H3098 0.931 . S
C3114 C3108 1.383 . S
C3114 C3113 1.379 . S
H3115 C3109 0.959 . S
H3116 C3109 0.961 . S
H3117 C3109 0.960 . S
H3118 C3110 0.930 . S
H3119 C3111 0.929 . S
H3120 C3128 0.929 . S
H3121 C3130 0.930 . S
H3122 C3132 0.930 . S
H3123 C3135 0.929 . S
H3124 C3138 0.930 . S
H3125 C3140 0.960 . S
H3126 C3140 0.960 . S
H3127 C3140 0.960 . S
C3128 H3120 0.929 . S
C3128 C3129 1.377 . S
C3128 C3130 1.384 . S
C3129 C3128 1.377 . S
C3129 C3135 1.390 . S
C3130 H3121 0.930 . S
C3130 C3128 1.384 . S
C3130 C3131 1.372 . S
C3131 C3130 1.372 . S
C3131 C3132 1.400 . S
C3131 C3136 1.490 . S
C3132 H3122 0.930 . S
C3132 C3131 1.400 . S
C3132 C3135 1.386 . S
H3133 C3149 0.930 . S
H3134 C3150 0.931 . S
C3135 H3123 0.929 . S
C3135 C3129 1.390 . S
C3135 C3132 1.386 . S
C3136 C3131 1.490 . S
C3136 C3138 1.395 . S
C3136 C3139 1.403 . S
H3137 C3143 0.930 . S
C3138 H3124 0.930 . S
C3138 C3136 1.395 . S
C3138 C3141 1.403 . S
C3139 C3136 1.403 . S
C3139 C3140 1.524 . S
C3139 C3143 1.400 . S
C3140 H3125 0.960 . S
C3140 H3126 0.960 . S
C3140 H3127 0.960 . S
C3140 C3139 1.524 . S
C3141 C3138 1.403 . S
C3141 C3142 1.392 . S
C3141 C3145 1.495 . S
C3142 C3141 1.392 . S
C3142 C3143 1.385 . S
C3142 C3144 1.478 . S
C3143 H3137 0.930 . S
C3143 C3139 1.400 . S
C3143 C3142 1.385 . S
C3144 C3142 1.478 . S
C3144 C3146 1.381 . S
C3144 C3150 1.383 . S
C3145 C3141 1.495 . S
C3145 H3151 0.959 . S
C3145 H3152 0.961 . S
C3145 H3153 0.960 . S
C3146 C3144 1.381 . S
C3146 C3147 1.394 . S
C3146 H3154 0.930 . S
C3147 C3146 1.394 . S
C3147 C3148 1.383 . S
C3147 H3155 0.929 . S
C3148 C3147 1.383 . S
C3148 C3149 1.377 . S
C3149 H3133 0.930 . S
C3149 C3148 1.377 . S
C3149 C3150 1.379 . S
C3150 H3134 0.931 . S
C3150 C3144 1.383 . S
C3150 C3149 1.379 . S
H3151 C3145 0.959 . S
H3152 C3145 0.961 . S
H3153 C3145 0.960 . S
H3154 C3146 0.930 . S
H3155 C3147 0.929 . S
H3156 C3164 0.929 . S
H3157 C3166 0.930 . S
H3158 C3168 0.930 . S
H3159 C3171 0.929 . S
H3160 C3174 0.930 . S
H3161 C3176 0.960 . S
H3162 C3176 0.960 . S
H3163 C3176 0.960 . S
C3164 H3156 0.929 . S
C3164 C3165 1.377 . S
C3164 C3166 1.384 . S
C3165 C3164 1.377 . S
C3165 C3171 1.390 . S
C3166 H3157 0.930 . S
C3166 C3164 1.384 . S
C3166 C3167 1.372 . S
C3167 C3166 1.372 . S
C3167 C3168 1.400 . S
C3167 C3172 1.490 . S
C3168 H3158 0.930 . S
C3168 C3167 1.400 . S
C3168 C3171 1.386 . S
H3169 C3185 0.930 . S
H3170 C3186 0.931 . S
C3171 H3159 0.929 . S
C3171 C3165 1.390 . S
C3171 C3168 1.386 . S
C3172 C3167 1.490 . S
C3172 C3174 1.395 . S
C3172 C3175 1.403 . S
H3173 C3179 0.930 . S
C3174 H3160 0.930 . S
C3174 C3172 1.395 . S
C3174 C3177 1.403 . S
C3175 C3172 1.403 . S
C3175 C3176 1.524 . S
C3175 C3179 1.400 . S
C3176 H3161 0.960 . S
C3176 H3162 0.960 . S
C3176 H3163 0.960 . S
C3176 C3175 1.524 . S
C3177 C3174 1.403 . S
C3177 C3178 1.392 . S
C3177 C3181 1.495 . S
C3178 C3177 1.392 . S
C3178 C3179 1.385 . S
C3178 C3180 1.478 . S
C3179 H3173 0.930 . S
C3179 C3175 1.400 . S
C3179 C3178 1.385 . S
C3180 C3178 1.478 . S
C3180 C3182 1.381 . S
C3180 C3186 1.383 . S
C3181 C3177 1.495 . S
C3181 H3187 0.959 . S
C3181 H3188 0.961 . S
C3181 H3189 0.960 . S
C3182 C3180 1.381 . S
C3182 C3183 1.394 . S
C3182 H3190 0.930 . S
C3183 C3182 1.394 . S
C3183 C3184 1.383 . S
C3183 H3191 0.929 . S
C3184 C3183 1.383 . S
C3184 C3185 1.377 . S
C3185 H3169 0.930 . S
C3185 C3184 1.377 . S
C3185 C3186 1.379 . S
C3186 H3170 0.931 . S
C3186 C3180 1.383 . S
C3186 C3185 1.379 . S
H3187 C3181 0.959 . S
H3188 C3181 0.961 . S
H3189 C3181 0.960 . S
H3190 C3182 0.930 . S
H3191 C3183 0.929 . S
H3192 C3200 0.929 . S
H3193 C3202 0.930 . S
H3194 C3204 0.930 . S
H3195 C3207 0.929 . S
H3196 C3210 0.930 . S
H3197 C3212 0.960 . S
H3198 C3212 0.960 . S
H3199 C3212 0.960 . S
C3200 H3192 0.929 . S
C3200 C3201 1.377 . S
C3200 C3202 1.384 . S
C3201 C3200 1.377 . S
C3201 C3207 1.390 . S
C3202 H3193 0.930 . S
C3202 C3200 1.384 . S
C3202 C3203 1.372 . S
C3203 C3202 1.372 . S
C3203 C3204 1.400 . S
C3203 C3208 1.490 . S
C3204 H3194 0.930 . S
C3204 C3203 1.400 . S
C3204 C3207 1.386 . S
H3205 C3221 0.930 . S
H3206 C3222 0.931 . S
C3207 H3195 0.929 . S
C3207 C3201 1.390 . S
C3207 C3204 1.386 . S
C3208 C3203 1.490 . S
C3208 C3210 1.395 . S
C3208 C3211 1.403 . S
H3209 C3215 0.930 . S
C3210 H3196 0.930 . S
C3210 C3208 1.395 . S
C3210 C3213 1.403 . S
C3211 C3208 1.403 . S
C3211 C3212 1.524 . S
C3211 C3215 1.400 . S
C3212 H3197 0.960 . S
C3212 H3198 0.960 . S
C3212 H3199 0.960 . S
C3212 C3211 1.524 . S
C3213 C3210 1.403 . S
C3213 C3214 1.392 . S
C3213 C3217 1.495 . S
C3214 C3213 1.392 . S
C3214 C3215 1.385 . S
C3214 C3216 1.478 . S
C3215 H3209 0.930 . S
C3215 C3211 1.400 . S
C3215 C3214 1.385 . S
C3216 C3214 1.478 . S
C3216 C3218 1.381 . S
C3216 C3222 1.383 . S
C3217 C3213 1.495 . S
C3217 H3223 0.959 . S
C3217 H3224 0.961 . S
C3217 H3225 0.960 . S
C3218 C3216 1.381 . S
C3218 C3219 1.394 . S
C3218 H3226 0.930 . S
C3219 C3218 1.394 . S
C3219 C3220 1.383 . S
C3219 H3227 0.929 . S
C3220 C3219 1.383 . S
C3220 C3221 1.377 . S
C3221 H3205 0.930 . S
C3221 C3220 1.377 . S
C3221 C3222 1.379 . S
C3222 H3206 0.931 . S
C3222 C3216 1.383 . S
C3222 C3221 1.379 . S
H3223 C3217 0.959 . S
H3224 C3217 0.961 . S
H3225 C3217 0.960 . S
H3226 C3218 0.930 . S
H3227 C3219 0.929 . S
H3228 C3236 0.929 . S
H3229 C3238 0.930 . S
H3230 C3240 0.930 . S
H3231 C3243 0.929 . S
H3232 C3246 0.930 . S
H3233 C3248 0.960 . S
H3234 C3248 0.960 . S
H3235 C3248 0.960 . S
C3236 H3228 0.929 . S
C3236 C3237 1.377 . S
C3236 C3238 1.384 . S
C3237 C3236 1.377 . S
C3237 C3243 1.390 . S
C3238 H3229 0.930 . S
C3238 C3236 1.384 . S
C3238 C3239 1.372 . S
C3239 C3238 1.372 . S
C3239 C3240 1.400 . S
C3239 C3244 1.490 . S
C3240 H3230 0.930 . S
C3240 C3239 1.400 . S
C3240 C3243 1.386 . S
H3241 C3257 0.930 . S
H3242 C3258 0.931 . S
C3243 H3231 0.929 . S
C3243 C3237 1.390 . S
C3243 C3240 1.386 . S
C3244 C3239 1.490 . S
C3244 C3246 1.395 . S
C3244 C3247 1.403 . S
H3245 C3251 0.930 . S
C3246 H3232 0.930 . S
C3246 C3244 1.395 . S
C3246 C3249 1.403 . S
C3247 C3244 1.403 . S
C3247 C3248 1.524 . S
C3247 C3251 1.400 . S
C3248 H3233 0.960 . S
C3248 H3234 0.960 . S
C3248 H3235 0.960 . S
C3248 C3247 1.524 . S
C3249 C3246 1.403 . S
C3249 C3250 1.392 . S
C3249 C3253 1.495 . S
C3250 C3249 1.392 . S
C3250 C3251 1.385 . S
C3250 C3252 1.478 . S
C3251 H3245 0.930 . S
C3251 C3247 1.400 . S
C3251 C3250 1.385 . S
C3252 C3250 1.478 . S
C3252 C3254 1.381 . S
C3252 C3258 1.383 . S
C3253 C3249 1.495 . S
C3253 H3259 0.959 . S
C3253 H3260 0.961 . S
C3253 H3261 0.960 . S
C3254 C3252 1.381 . S
C3254 C3255 1.394 . S
C3254 H3262 0.930 . S
C3255 C3254 1.394 . S
C3255 C3256 1.383 . S
C3255 H3263 0.929 . S
C3256 C3255 1.383 . S
C3256 C3257 1.377 . S
C3257 H3241 0.930 . S
C3257 C3256 1.377 . S
C3257 C3258 1.379 . S
C3258 H3242 0.931 . S
C3258 C3252 1.383 . S
C3258 C3257 1.379 . S
H3259 C3253 0.959 . S
H3260 C3253 0.961 . S
H3261 C3253 0.960 . S
H3262 C3254 0.930 . S
H3263 C3255 0.929 . S
H3264 C3272 0.929 . S
H3265 C3274 0.930 . S
H3266 C3276 0.930 . S
H3267 C3279 0.929 . S
H3268 C3282 0.930 . S
H3269 C3284 0.960 . S
H3270 C3284 0.960 . S
H3271 C3284 0.960 . S
C3272 H3264 0.929 . S
C3272 C3273 1.377 . S
C3272 C3274 1.384 . S
C3273 C3272 1.377 . S
C3273 C3279 1.390 . S
C3274 H3265 0.930 . S
C3274 C3272 1.384 . S
C3274 C3275 1.372 . S
C3275 C3274 1.372 . S
C3275 C3276 1.400 . S
C3275 C3280 1.490 . S
C3276 H3266 0.930 . S
C3276 C3275 1.400 . S
C3276 C3279 1.386 . S
H3277 C3293 0.930 . S
H3278 C3294 0.931 . S
C3279 H3267 0.929 . S
C3279 C3273 1.390 . S
C3279 C3276 1.386 . S
C3280 C3275 1.490 . S
C3280 C3282 1.395 . S
C3280 C3283 1.403 . S
H3281 C3287 0.930 . S
C3282 H3268 0.930 . S
C3282 C3280 1.395 . S
C3282 C3285 1.403 1_554 S
C3283 C3280 1.403 . S
C3283 C3284 1.524 . S
C3283 C3287 1.400 1_554 S
C3284 H3269 0.960 . S
C3284 H3270 0.960 . S
C3284 H3271 0.960 . S
C3284 C3283 1.524 . S
C3285 C3282 1.403 1_556 S
C3285 C3286 1.392 . S
C3285 C3289 1.495 . S
C3286 C3285 1.392 . S
C3286 C3287 1.385 . S
C3286 C3288 1.478 . S
C3287 H3281 0.930 . S
C3287 C3283 1.400 1_556 S
C3287 C3286 1.385 . S
C3288 C3286 1.478 . S
C3288 C3290 1.381 . S
C3288 C3294 1.383 . S
C3289 C3285 1.495 . S
C3289 H3295 0.959 . S
C3289 H3296 0.961 . S
C3289 H3297 0.960 . S
C3290 C3288 1.381 . S
C3290 C3291 1.394 . S
C3290 H3298 0.930 . S
C3291 C3290 1.394 . S
C3291 C3292 1.383 . S
C3291 H3299 0.929 . S
C3292 C3291 1.383 . S
C3292 C3293 1.377 . S
C3293 H3277 0.930 . S
C3293 C3292 1.377 . S
C3293 C3294 1.379 . S
C3294 H3278 0.931 . S
C3294 C3288 1.383 . S
C3294 C3293 1.379 . S
H3295 C3289 0.959 . S
H3296 C3289 0.961 . S
H3297 C3289 0.960 . S
H3298 C3290 0.930 . S
H3299 C3291 0.929 . S
H3300 C3308 0.929 . S
H3301 C3310 0.930 . S
H3302 C3312 0.930 . S
H3303 C3315 0.929 . S
H3304 C3318 0.930 . S
H3305 C3320 0.960 . S
H3306 C3320 0.960 . S
H3307 C3320 0.960 . S
C3308 H3300 0.929 . S
C3308 C3309 1.377 . S
C3308 C3310 1.384 . S
C3309 C3308 1.377 . S
C3309 C3315 1.390 . S
C3310 H3301 0.930 . S
C3310 C3308 1.384 . S
C3310 C3311 1.372 . S
C3311 C3310 1.372 . S
C3311 C3312 1.400 . S
C3311 C3316 1.490 . S
C3312 H3302 0.930 . S
C3312 C3311 1.400 . S
C3312 C3315 1.386 . S
H3313 C3329 0.930 . S
H3314 C3330 0.931 . S
C3315 H3303 0.929 . S
C3315 C3309 1.390 . S
C3315 C3312 1.386 . S
C3316 C3311 1.490 . S
C3316 C3318 1.395 . S
C3316 C3319 1.403 . S
H3317 C3323 0.930 . S
C3318 H3304 0.930 . S
C3318 C3316 1.395 . S
C3318 C3321 1.403 1_556 S
C3319 C3316 1.403 . S
C3319 C3320 1.524 . S
C3319 C3323 1.400 1_556 S
C3320 H3305 0.960 . S
C3320 H3306 0.960 . S
C3320 H3307 0.960 . S
C3320 C3319 1.524 . S
C3321 C3318 1.403 1_554 S
C3321 C3322 1.392 . S
C3321 C3325 1.495 . S
C3322 C3321 1.392 . S
C3322 C3323 1.385 . S
C3322 C3324 1.478 . S
C3323 H3317 0.930 . S
C3323 C3319 1.400 1_554 S
C3323 C3322 1.385 . S
C3324 C3322 1.478 . S
C3324 C3326 1.381 . S
C3324 C3330 1.383 . S
C3325 C3321 1.495 . S
C3325 H3331 0.959 . S
C3325 H3332 0.961 . S
C3325 H3333 0.960 . S
C3326 C3324 1.381 . S
C3326 C3327 1.394 . S
C3326 H3334 0.930 . S
C3327 C3326 1.394 . S
C3327 C3328 1.383 . S
C3327 H3335 0.929 . S
C3328 C3327 1.383 . S
C3328 C3329 1.377 . S
C3329 H3313 0.930 . S
C3329 C3328 1.377 . S
C3329 C3330 1.379 . S
C3330 H3314 0.931 . S
C3330 C3324 1.383 . S
C3330 C3329 1.379 . S
H3331 C3325 0.959 . S
H3332 C3325 0.961 . S
H3333 C3325 0.960 . S
H3334 C3326 0.930 . S
H3335 C3327 0.929 . S
H3336 C3344 0.929 . S
H3337 C3346 0.930 . S
H3338 C3348 0.930 . S
H3339 C3351 0.929 . S
H3340 C3354 0.930 . S
H3341 C3356 0.960 . S
H3342 C3356 0.960 . S
H3343 C3356 0.960 . S
C3344 H3336 0.929 . S
C3344 C3345 1.377 . S
C3344 C3346 1.384 . S
C3345 C3344 1.377 . S
C3345 C3351 1.390 . S
C3346 H3337 0.930 . S
C3346 C3344 1.384 . S
C3346 C3347 1.372 . S
C3347 C3346 1.372 . S
C3347 C3348 1.400 . S
C3347 C3352 1.490 . S
C3348 H3338 0.930 . S
C3348 C3347 1.400 . S
C3348 C3351 1.386 . S
H3349 C3365 0.930 . S
H3350 C3366 0.931 . S
C3351 H3339 0.929 . S
C3351 C3345 1.390 . S
C3351 C3348 1.386 . S
C3352 C3347 1.490 . S
C3352 C3354 1.395 . S
C3352 C3355 1.403 . S
H3353 C3359 0.930 . S
C3354 H3340 0.930 . S
C3354 C3352 1.395 . S
C3354 C3357 1.403 1_554 S
C3355 C3352 1.403 . S
C3355 C3356 1.524 . S
C3355 C3359 1.400 1_554 S
C3356 H3341 0.960 . S
C3356 H3342 0.960 . S
C3356 H3343 0.960 . S
C3356 C3355 1.524 . S
C3357 C3354 1.403 1_556 S
C3357 C3358 1.392 . S
C3357 C3361 1.495 . S
C3358 C3357 1.392 . S
C3358 C3359 1.385 . S
C3358 C3360 1.478 . S
C3359 H3353 0.930 . S
C3359 C3355 1.400 1_556 S
C3359 C3358 1.385 . S
C3360 C3358 1.478 . S
C3360 C3362 1.381 . S
C3360 C3366 1.383 . S
C3361 C3357 1.495 . S
C3361 H3367 0.959 . S
C3361 H3368 0.961 . S
C3361 H3369 0.960 . S
C3362 C3360 1.381 . S
C3362 C3363 1.394 . S
C3362 H3370 0.930 . S
C3363 C3362 1.394 . S
C3363 C3364 1.383 . S
C3363 H3371 0.929 . S
C3364 C3363 1.383 . S
C3364 C3365 1.377 . S
C3365 H3349 0.930 . S
C3365 C3364 1.377 . S
C3365 C3366 1.379 . S
C3366 H3350 0.931 . S
C3366 C3360 1.383 . S
C3366 C3365 1.379 . S
H3367 C3361 0.959 . S
H3368 C3361 0.961 . S
H3369 C3361 0.960 . S
H3370 C3362 0.930 . S
H3371 C3363 0.929 . S
H3372 C3380 0.929 . S
H3373 C3382 0.930 . S
H3374 C3384 0.930 . S
H3375 C3387 0.929 . S
H3376 C3390 0.930 . S
H3377 C3392 0.960 . S
H3378 C3392 0.960 . S
H3379 C3392 0.960 . S
C3380 H3372 0.929 . S
C3380 C3381 1.377 . S
C3380 C3382 1.384 . S
C3381 C3380 1.377 . S
C3381 C3387 1.390 . S
C3382 H3373 0.930 . S
C3382 C3380 1.384 . S
C3382 C3383 1.372 . S
C3383 C3382 1.372 . S
C3383 C3384 1.400 . S
C3383 C3388 1.490 . S
C3384 H3374 0.930 . S
C3384 C3383 1.400 . S
C3384 C3387 1.386 . S
H3385 C3401 0.930 . S
H3386 C3402 0.931 . S
C3387 H3375 0.929 . S
C3387 C3381 1.390 . S
C3387 C3384 1.386 . S
C3388 C3383 1.490 . S
C3388 C3390 1.395 . S
C3388 C3391 1.403 . S
H3389 C3395 0.930 . S
C3390 H3376 0.930 . S
C3390 C3388 1.395 . S
C3390 C3393 1.403 1_554 S
C3391 C3388 1.403 . S
C3391 C3392 1.524 . S
C3391 C3395 1.400 1_554 S
C3392 H3377 0.960 . S
C3392 H3378 0.960 . S
C3392 H3379 0.960 . S
C3392 C3391 1.524 . S
C3393 C3390 1.403 1_556 S
C3393 C3394 1.392 . S
C3393 C3397 1.495 . S
C3394 C3393 1.392 . S
C3394 C3395 1.385 . S
C3394 C3396 1.478 . S
C3395 H3389 0.930 . S
C3395 C3391 1.400 1_556 S
C3395 C3394 1.385 . S
C3396 C3394 1.478 . S
C3396 C3398 1.381 . S
C3396 C3402 1.383 . S
C3397 C3393 1.495 . S
C3397 H3403 0.959 . S
C3397 H3404 0.961 . S
C3397 H3405 0.960 . S
C3398 C3396 1.381 . S
C3398 C3399 1.394 . S
C3398 H3406 0.930 . S
C3399 C3398 1.394 . S
C3399 C3400 1.383 . S
C3399 H3407 0.929 . S
C3400 C3399 1.383 . S
C3400 C3401 1.377 . S
C3401 H3385 0.930 . S
C3401 C3400 1.377 . S
C3401 C3402 1.379 . S
C3402 H3386 0.931 . S
C3402 C3396 1.383 . S
C3402 C3401 1.379 . S
H3403 C3397 0.959 . S
H3404 C3397 0.961 . S
H3405 C3397 0.960 . S
H3406 C3398 0.930 . S
H3407 C3399 0.929 . S
H3408 C3416 0.929 . S
H3409 C3418 0.930 . S
H3410 C3420 0.930 . S
H3411 C3423 0.929 . S
H3412 C3426 0.930 . S
H3413 C3428 0.960 . S
H3414 C3428 0.960 . S
H3415 C3428 0.960 . S
C3416 H3408 0.929 . S
C3416 C3417 1.377 . S
C3416 C3418 1.384 . S
C3417 C3416 1.377 . S
C3417 C3423 1.390 . S
C3418 H3409 0.930 . S
C3418 C3416 1.384 . S
C3418 C3419 1.372 . S
C3419 C3418 1.372 . S
C3419 C3420 1.400 . S
C3419 C3424 1.490 . S
C3420 H3410 0.930 . S
C3420 C3419 1.400 . S
C3420 C3423 1.386 . S
H3421 C3437 0.930 . S
H3422 C3438 0.931 . S
C3423 H3411 0.929 . S
C3423 C3417 1.390 . S
C3423 C3420 1.386 . S
C3424 C3419 1.490 . S
C3424 C3426 1.395 . S
C3424 C3427 1.403 . S
H3425 C3431 0.930 . S
C3426 H3412 0.930 . S
C3426 C3424 1.395 . S
C3426 C3429 1.403 1_556 S
C3427 C3424 1.403 . S
C3427 C3428 1.524 . S
C3427 C3431 1.400 1_556 S
C3428 H3413 0.960 . S
C3428 H3414 0.960 . S
C3428 H3415 0.960 . S
C3428 C3427 1.524 . S
C3429 C3426 1.403 1_554 S
C3429 C3430 1.392 . S
C3429 C3433 1.495 . S
C3430 C3429 1.392 . S
C3430 C3431 1.385 . S
C3430 C3432 1.478 . S
C3431 H3425 0.930 . S
C3431 C3427 1.400 1_554 S
C3431 C3430 1.385 . S
C3432 C3430 1.478 . S
C3432 C3434 1.381 . S
C3432 C3438 1.383 . S
C3433 C3429 1.495 . S
C3433 H3439 0.959 . S
C3433 H3440 0.961 . S
C3433 H3441 0.960 . S
C3434 C3432 1.381 . S
C3434 C3435 1.394 . S
C3434 H3442 0.930 . S
C3435 C3434 1.394 . S
C3435 C3436 1.383 . S
C3435 H3443 0.929 . S
C3436 C3435 1.383 . S
C3436 C3437 1.377 . S
C3437 H3421 0.930 . S
C3437 C3436 1.377 . S
C3437 C3438 1.379 . S
C3438 H3422 0.931 . S
C3438 C3432 1.383 . S
C3438 C3437 1.379 . S
H3439 C3433 0.959 . S
H3440 C3433 0.961 . S
H3441 C3433 0.960 . S
H3442 C3434 0.930 . S
H3443 C3435 0.929 . S
H3444 C3452 0.929 . S
H3445 C3454 0.930 . S
H3446 C3456 0.930 . S
H3447 C3459 0.929 . S
H3448 C3462 0.930 . S
H3449 C3464 0.960 . S
H3450 C3464 0.960 . S
H3451 C3464 0.960 . S
C3452 H3444 0.929 . S
C3452 C3453 1.377 . S
C3452 C3454 1.384 . S
C3453 C3452 1.377 . S
C3453 C3459 1.390 . S
C3454 H3445 0.930 . S
C3454 C3452 1.384 . S
C3454 C3455 1.372 . S
C3455 C3454 1.372 . S
C3455 C3456 1.400 . S
C3455 C3460 1.490 . S
C3456 H3446 0.930 . S
C3456 C3455 1.400 . S
C3456 C3459 1.386 . S
H3457 C3473 0.930 . S
H3458 C3474 0.931 . S
C3459 H3447 0.929 . S
C3459 C3453 1.390 . S
C3459 C3456 1.386 . S
C3460 C3455 1.490 . S
C3460 C3462 1.395 . S
C3460 C3463 1.403 . S
H3461 C3467 0.930 . S
C3462 H3448 0.930 . S
C3462 C3460 1.395 . S
C3462 C3465 1.403 1_554 S
C3463 C3460 1.403 . S
C3463 C3464 1.524 . S
C3463 C3467 1.400 1_554 S
C3464 H3449 0.960 . S
C3464 H3450 0.960 . S
C3464 H3451 0.960 . S
C3464 C3463 1.524 . S
C3465 C3462 1.403 1_556 S
C3465 C3466 1.392 . S
C3465 C3469 1.495 . S
C3466 C3465 1.392 . S
C3466 C3467 1.385 . S
C3466 C3468 1.478 . S
C3467 H3461 0.930 . S
C3467 C3463 1.400 1_556 S
C3467 C3466 1.385 . S
C3468 C3466 1.478 . S
C3468 C3470 1.381 . S
C3468 C3474 1.383 . S
C3469 C3465 1.495 . S
C3469 H3475 0.959 . S
C3469 H3476 0.961 . S
C3469 H3477 0.960 . S
C3470 C3468 1.381 . S
C3470 C3471 1.394 . S
C3470 H3478 0.930 . S
C3471 C3470 1.394 . S
C3471 C3472 1.383 . S
C3471 H3479 0.929 . S
C3472 C3471 1.383 . S
C3472 C3473 1.377 . S
C3473 H3457 0.930 . S
C3473 C3472 1.377 . S
C3473 C3474 1.379 . S
C3474 H3458 0.931 . S
C3474 C3468 1.383 . S
C3474 C3473 1.379 . S
H3475 C3469 0.959 . S
H3476 C3469 0.961 . S
H3477 C3469 0.960 . S
H3478 C3470 0.930 . S
H3479 C3471 0.929 . S
H3480 C3488 0.929 . S
H3481 C3490 0.930 . S
H3482 C3492 0.930 . S
H3483 C3495 0.929 . S
H3484 C3498 0.930 . S
H3485 C3500 0.960 . S
H3486 C3500 0.960 . S
H3487 C3500 0.960 . S
C3488 H3480 0.929 . S
C3488 C3489 1.377 . S
C3488 C3490 1.384 . S
C3489 C3488 1.377 . S
C3489 C3495 1.390 . S
C3490 H3481 0.930 . S
C3490 C3488 1.384 . S
C3490 C3491 1.372 . S
C3491 C3490 1.372 . S
C3491 C3492 1.400 . S
C3491 C3496 1.490 . S
C3492 H3482 0.930 . S
C3492 C3491 1.400 . S
C3492 C3495 1.386 . S
H3493 C3509 0.930 . S
H3494 C3510 0.931 . S
C3495 H3483 0.929 . S
C3495 C3489 1.390 . S
C3495 C3492 1.386 . S
C3496 C3491 1.490 . S
C3496 C3498 1.395 . S
C3496 C3499 1.403 . S
H3497 C3503 0.930 . S
C3498 H3484 0.930 . S
C3498 C3496 1.395 . S
C3498 C3501 1.403 1_556 S
C3499 C3496 1.403 . S
C3499 C3500 1.524 . S
C3499 C3503 1.400 1_556 S
C3500 H3485 0.960 . S
C3500 H3486 0.960 . S
C3500 H3487 0.960 . S
C3500 C3499 1.524 . S
C3501 C3498 1.403 1_554 S
C3501 C3502 1.392 . S
C3501 C3505 1.495 . S
C3502 C3501 1.392 . S
C3502 C3503 1.385 . S
C3502 C3504 1.478 . S
C3503 H3497 0.930 . S
C3503 C3499 1.400 1_554 S
C3503 C3502 1.385 . S
C3504 C3502 1.478 . S
C3504 C3506 1.381 . S
C3504 C3510 1.383 . S
C3505 C3501 1.495 . S
C3505 H3511 0.959 . S
C3505 H3512 0.961 . S
C3505 H3513 0.960 . S
C3506 C3504 1.381 . S
C3506 C3507 1.394 . S
C3506 H3514 0.930 . S
C3507 C3506 1.394 . S
C3507 C3508 1.383 . S
C3507 H3515 0.929 . S
C3508 C3507 1.383 . S
C3508 C3509 1.377 . S
C3509 H3493 0.930 . S
C3509 C3508 1.377 . S
C3509 C3510 1.379 . S
C3510 H3494 0.931 . S
C3510 C3504 1.383 . S
C3510 C3509 1.379 . S
H3511 C3505 0.959 . S
H3512 C3505 0.961 . S
H3513 C3505 0.960 . S
H3514 C3506 0.930 . S
H3515 C3507 0.929 . S
H3516 C3524 0.929 . S
H3517 C3526 0.930 . S
H3518 C3528 0.930 . S
H3519 C3531 0.929 . S
H3520 C3534 0.930 . S
H3521 C3536 0.960 . S
H3522 C3536 0.960 . S
H3523 C3536 0.960 . S
C3524 H3516 0.929 . S
C3524 C3525 1.377 . S
C3524 C3526 1.384 . S
C3525 C3524 1.377 . S
C3525 C3531 1.390 . S
C3526 H3517 0.930 . S
C3526 C3524 1.384 . S
C3526 C3527 1.372 . S
C3527 C3526 1.372 . S
C3527 C3528 1.400 . S
C3527 C3532 1.490 . S
C3528 H3518 0.930 . S
C3528 C3527 1.400 . S
C3528 C3531 1.386 . S
H3529 C3545 0.930 . S
H3530 C3546 0.931 . S
C3531 H3519 0.929 . S
C3531 C3525 1.390 . S
C3531 C3528 1.386 . S
C3532 C3527 1.490 . S
C3532 C3534 1.395 . S
C3532 C3535 1.403 . S
H3533 C3539 0.930 . S
C3534 H3520 0.930 . S
C3534 C3532 1.395 . S
C3534 C3537 1.403 1_554 S
C3535 C3532 1.403 . S
C3535 C3536 1.524 . S
C3535 C3539 1.400 1_554 S
C3536 H3521 0.960 . S
C3536 H3522 0.960 . S
C3536 H3523 0.960 . S
C3536 C3535 1.524 . S
C3537 C3534 1.403 1_556 S
C3537 C3538 1.392 . S
C3537 C3541 1.495 . S
C3538 C3537 1.392 . S
C3538 C3539 1.385 . S
C3538 C3540 1.478 . S
C3539 H3533 0.930 . S
C3539 C3535 1.400 1_556 S
C3539 C3538 1.385 . S
C3540 C3538 1.478 . S
C3540 C3542 1.381 . S
C3540 C3546 1.383 . S
C3541 C3537 1.495 . S
C3541 H3547 0.959 . S
C3541 H3548 0.961 . S
C3541 H3549 0.960 . S
C3542 C3540 1.381 . S
C3542 C3543 1.394 . S
C3542 H3550 0.930 . S
C3543 C3542 1.394 . S
C3543 C3544 1.383 . S
C3543 H3551 0.929 . S
C3544 C3543 1.383 . S
C3544 C3545 1.377 . S
C3545 H3529 0.930 . S
C3545 C3544 1.377 . S
C3545 C3546 1.379 . S
C3546 H3530 0.931 . S
C3546 C3540 1.383 . S
C3546 C3545 1.379 . S
H3547 C3541 0.959 . S
H3548 C3541 0.961 . S
H3549 C3541 0.960 . S
H3550 C3542 0.930 . S
H3551 C3543 0.929 . S
H3552 C3560 0.929 . S
H3553 C3562 0.930 . S
H3554 C3564 0.930 . S
H3555 C3567 0.929 . S
H3556 C3570 0.930 . S
H3557 C3572 0.960 . S
H3558 C3572 0.960 . S
H3559 C3572 0.960 . S
C3560 H3552 0.929 . S
C3560 C3561 1.377 . S
C3560 C3562 1.384 . S
C3561 C3560 1.377 . S
C3561 C3567 1.390 . S
C3562 H3553 0.930 . S
C3562 C3560 1.384 . S
C3562 C3563 1.372 . S
C3563 C3562 1.372 . S
C3563 C3564 1.400 . S
C3563 C3568 1.490 . S
C3564 H3554 0.930 . S
C3564 C3563 1.400 . S
C3564 C3567 1.386 . S
H3565 C3581 0.930 . S
H3566 C3582 0.931 . S
C3567 H3555 0.929 . S
C3567 C3561 1.390 . S
C3567 C3564 1.386 . S
C3568 C3563 1.490 . S
C3568 C3570 1.395 . S
C3568 C3571 1.403 . S
H3569 C3575 0.930 . S
C3570 H3556 0.930 . S
C3570 C3568 1.395 . S
C3570 C3573 1.403 1_455 S
C3571 C3568 1.403 . S
C3571 C3572 1.524 . S
C3571 C3575 1.400 1_455 S
C3572 H3557 0.960 . S
C3572 H3558 0.960 . S
C3572 H3559 0.960 . S
C3572 C3571 1.524 . S
C3573 C3570 1.403 1_655 S
C3573 C3574 1.392 . S
C3573 C3577 1.495 . S
C3574 C3573 1.392 . S
C3574 C3575 1.385 . S
C3574 C3576 1.478 . S
C3575 H3569 0.930 . S
C3575 C3571 1.400 1_655 S
C3575 C3574 1.385 . S
C3576 C3574 1.478 . S
C3576 C3578 1.381 . S
C3576 C3582 1.383 . S
C3577 C3573 1.495 . S
C3577 H3583 0.959 . S
C3577 H3584 0.961 . S
C3577 H3585 0.960 . S
C3578 C3576 1.381 . S
C3578 C3579 1.394 . S
C3578 H3586 0.930 . S
C3579 C3578 1.394 . S
C3579 C3580 1.383 . S
C3579 H3587 0.929 . S
C3580 C3579 1.383 . S
C3580 C3581 1.377 . S
C3581 H3565 0.930 . S
C3581 C3580 1.377 . S
C3581 C3582 1.379 . S
C3582 H3566 0.931 . S
C3582 C3576 1.383 . S
C3582 C3581 1.379 . S
H3583 C3577 0.959 . S
H3584 C3577 0.961 . S
H3585 C3577 0.960 . S
H3586 C3578 0.930 . S
H3587 C3579 0.929 . S
H3588 C3596 0.929 . S
H3589 C3598 0.930 . S
H3590 C3600 0.930 . S
H3591 C3603 0.929 . S
H3592 C3606 0.930 . S
H3593 C3608 0.960 . S
H3594 C3608 0.960 . S
H3595 C3608 0.960 . S
C3596 H3588 0.929 . S
C3596 C3597 1.377 . S
C3596 C3598 1.384 . S
C3597 C3596 1.377 . S
C3597 C3603 1.390 . S
C3598 H3589 0.930 . S
C3598 C3596 1.384 . S
C3598 C3599 1.372 . S
C3599 C3598 1.372 . S
C3599 C3600 1.400 . S
C3599 C3604 1.490 . S
C3600 H3590 0.930 . S
C3600 C3599 1.400 . S
C3600 C3603 1.386 . S
H3601 C3617 0.930 . S
H3602 C3618 0.931 . S
C3603 H3591 0.929 . S
C3603 C3597 1.390 . S
C3603 C3600 1.386 . S
C3604 C3599 1.490 . S
C3604 C3606 1.395 . S
C3604 C3607 1.403 . S
H3605 C3611 0.930 . S
C3606 H3592 0.930 . S
C3606 C3604 1.395 . S
C3606 C3609 1.403 1_565 S
C3607 C3604 1.403 . S
C3607 C3608 1.524 . S
C3607 C3611 1.400 1_565 S
C3608 H3593 0.960 . S
C3608 H3594 0.960 . S
C3608 H3595 0.960 . S
C3608 C3607 1.524 . S
C3609 C3606 1.403 1_545 S
C3609 C3610 1.392 . S
C3609 C3613 1.495 . S
C3610 C3609 1.392 . S
C3610 C3611 1.385 . S
C3610 C3612 1.478 . S
C3611 H3605 0.930 . S
C3611 C3607 1.400 1_545 S
C3611 C3610 1.385 . S
C3612 C3610 1.478 . S
C3612 C3614 1.381 . S
C3612 C3618 1.383 . S
C3613 C3609 1.495 . S
C3613 H3619 0.959 . S
C3613 H3620 0.961 . S
C3613 H3621 0.960 . S
C3614 C3612 1.381 . S
C3614 C3615 1.394 . S
C3614 H3622 0.930 . S
C3615 C3614 1.394 . S
C3615 C3616 1.383 . S
C3615 H3623 0.929 . S
C3616 C3615 1.383 . S
C3616 C3617 1.377 . S
C3617 H3601 0.930 . S
C3617 C3616 1.377 . S
C3617 C3618 1.379 . S
C3618 H3602 0.931 . S
C3618 C3612 1.383 . S
C3618 C3617 1.379 . S
H3619 C3613 0.959 . S
H3620 C3613 0.961 . S
H3621 C3613 0.960 . S
H3622 C3614 0.930 . S
H3623 C3615 0.929 . S
H3624 C3632 0.929 . S
H3625 C3634 0.930 . S
H3626 C3636 0.930 . S
H3627 C3639 0.929 . S
H3628 C3642 0.930 . S
H3629 C3644 0.960 . S
H3630 C3644 0.960 . S
H3631 C3644 0.960 . S
C3632 H3624 0.929 . S
C3632 C3633 1.377 . S
C3632 C3634 1.384 . S
C3633 C3632 1.377 . S
C3633 C3639 1.390 . S
C3634 H3625 0.930 . S
C3634 C3632 1.384 . S
C3634 C3635 1.372 . S
C3635 C3634 1.372 . S
C3635 C3636 1.400 . S
C3635 C3640 1.490 . S
C3636 H3626 0.930 . S
C3636 C3635 1.400 . S
C3636 C3639 1.386 . S
H3637 C3653 0.930 . S
H3638 C3654 0.931 . S
C3639 H3627 0.929 . S
C3639 C3633 1.390 . S
C3639 C3636 1.386 . S
C3640 C3635 1.490 . S
C3640 C3642 1.395 . S
C3640 C3643 1.403 . S
H3641 C3647 0.930 . S
C3642 H3628 0.930 . S
C3642 C3640 1.395 . S
C3642 C3645 1.403 1_455 S
C3643 C3640 1.403 . S
C3643 C3644 1.524 . S
C3643 C3647 1.400 1_455 S
C3644 H3629 0.960 . S
C3644 H3630 0.960 . S
C3644 H3631 0.960 . S
C3644 C3643 1.524 . S
C3645 C3642 1.403 1_655 S
C3645 C3646 1.392 . S
C3645 C3649 1.495 . S
C3646 C3645 1.392 . S
C3646 C3647 1.385 . S
C3646 C3648 1.478 . S
C3647 H3641 0.930 . S
C3647 C3643 1.400 1_655 S
C3647 C3646 1.385 . S
C3648 C3646 1.478 . S
C3648 C3650 1.381 . S
C3648 C3654 1.383 . S
C3649 C3645 1.495 . S
C3649 H3655 0.959 . S
C3649 H3656 0.961 . S
C3649 H3657 0.960 . S
C3650 C3648 1.381 . S
C3650 C3651 1.394 . S
C3650 H3658 0.930 . S
C3651 C3650 1.394 . S
C3651 C3652 1.383 . S
C3651 H3659 0.929 . S
C3652 C3651 1.383 . S
C3652 C3653 1.377 . S
C3653 H3637 0.930 . S
C3653 C3652 1.377 . S
C3653 C3654 1.379 . S
C3654 H3638 0.931 . S
C3654 C3648 1.383 . S
C3654 C3653 1.379 . S
H3655 C3649 0.959 . S
H3656 C3649 0.961 . S
H3657 C3649 0.960 . S
H3658 C3650 0.930 . S
H3659 C3651 0.929 . S
H3660 C3668 0.929 . S
H3661 C3670 0.930 . S
H3662 C3672 0.930 . S
H3663 C3675 0.929 . S
H3664 C3678 0.930 . S
H3665 C3680 0.960 . S
H3666 C3680 0.960 . S
H3667 C3680 0.960 . S
C3668 H3660 0.929 . S
C3668 C3669 1.377 . S
C3668 C3670 1.384 . S
C3669 C3668 1.377 . S
C3669 C3675 1.390 . S
C3670 H3661 0.930 . S
C3670 C3668 1.384 . S
C3670 C3671 1.372 . S
C3671 C3670 1.372 . S
C3671 C3672 1.400 . S
C3671 C3676 1.490 . S
C3672 H3662 0.930 . S
C3672 C3671 1.400 . S
C3672 C3675 1.386 . S
H3673 C3689 0.930 . S
H3674 C3690 0.931 . S
C3675 H3663 0.929 . S
C3675 C3669 1.390 . S
C3675 C3672 1.386 . S
C3676 C3671 1.490 . S
C3676 C3678 1.395 . S
C3676 C3679 1.403 . S
H3677 C3683 0.930 . S
C3678 H3664 0.930 . S
C3678 C3676 1.395 . S
C3678 C3681 1.403 1_565 S
C3679 C3676 1.403 . S
C3679 C3680 1.524 . S
C3679 C3683 1.400 1_565 S
C3680 H3665 0.960 . S
C3680 H3666 0.960 . S
C3680 H3667 0.960 . S
C3680 C3679 1.524 . S
C3681 C3678 1.403 1_545 S
C3681 C3682 1.392 . S
C3681 C3685 1.495 . S
C3682 C3681 1.392 . S
C3682 C3683 1.385 . S
C3682 C3684 1.478 . S
C3683 H3677 0.930 . S
C3683 C3679 1.400 1_545 S
C3683 C3682 1.385 . S
C3684 C3682 1.478 . S
C3684 C3686 1.381 . S
C3684 C3690 1.383 . S
C3685 C3681 1.495 . S
C3685 H3691 0.959 . S
C3685 H3692 0.961 . S
C3685 H3693 0.960 . S
C3686 C3684 1.381 . S
C3686 C3687 1.394 . S
C3686 H3694 0.930 . S
C3687 C3686 1.394 . S
C3687 C3688 1.383 . S
C3687 H3695 0.929 . S
C3688 C3687 1.383 . S
C3688 C3689 1.377 . S
C3689 H3673 0.930 . S
C3689 C3688 1.377 . S
C3689 C3690 1.379 . S
C3690 H3674 0.931 . S
C3690 C3684 1.383 . S
C3690 C3689 1.379 . S
H3691 C3685 0.959 . S
H3692 C3685 0.961 . S
H3693 C3685 0.960 . S
H3694 C3686 0.930 . S
H3695 C3687 0.929 . S
H3696 C3704 0.929 . S
H3697 C3706 0.930 . S
H3698 C3708 0.930 . S
H3699 C3711 0.929 . S
H3700 C3714 0.930 . S
H3701 C3716 0.960 . S
H3702 C3716 0.960 . S
H3703 C3716 0.960 . S
C3704 H3696 0.929 . S
C3704 C3705 1.377 . S
C3704 C3706 1.384 . S
C3705 C3704 1.377 . S
C3705 C3711 1.390 . S
C3706 H3697 0.930 . S
C3706 C3704 1.384 . S
C3706 C3707 1.372 . S
C3707 C3706 1.372 . S
C3707 C3708 1.400 . S
C3707 C3712 1.490 . S
C3708 H3698 0.930 . S
C3708 C3707 1.400 . S
C3708 C3711 1.386 . S
H3709 C3725 0.930 . S
H3710 C3726 0.931 . S
C3711 H3699 0.929 . S
C3711 C3705 1.390 . S
C3711 C3708 1.386 . S
C3712 C3707 1.490 . S
C3712 C3714 1.395 . S
C3712 C3715 1.403 . S
H3713 C3719 0.930 . S
C3714 H3700 0.930 . S
C3714 C3712 1.395 . S
C3714 C3717 1.403 1_655 S
C3715 C3712 1.403 . S
C3715 C3716 1.524 . S
C3715 C3719 1.400 1_655 S
C3716 H3701 0.960 . S
C3716 H3702 0.960 . S
C3716 H3703 0.960 . S
C3716 C3715 1.524 . S
C3717 C3714 1.403 1_455 S
C3717 C3718 1.392 . S
C3717 C3721 1.495 . S
C3718 C3717 1.392 . S
C3718 C3719 1.385 . S
C3718 C3720 1.478 . S
C3719 H3713 0.930 . S
C3719 C3715 1.400 1_455 S
C3719 C3718 1.385 . S
C3720 C3718 1.478 . S
C3720 C3722 1.381 . S
C3720 C3726 1.383 . S
C3721 C3717 1.495 . S
C3721 H3727 0.959 . S
C3721 H3728 0.961 . S
C3721 H3729 0.960 . S
C3722 C3720 1.381 . S
C3722 C3723 1.394 . S
C3722 H3730 0.930 . S
C3723 C3722 1.394 . S
C3723 C3724 1.383 . S
C3723 H3731 0.929 . S
C3724 C3723 1.383 . S
C3724 C3725 1.377 . S
C3725 H3709 0.930 . S
C3725 C3724 1.377 . S
C3725 C3726 1.379 . S
C3726 H3710 0.931 . S
C3726 C3720 1.383 . S
C3726 C3725 1.379 . S
H3727 C3721 0.959 . S
H3728 C3721 0.961 . S
H3729 C3721 0.960 . S
H3730 C3722 0.930 . S
H3731 C3723 0.929 . S
H3732 C3740 0.929 . S
H3733 C3742 0.930 . S
H3734 C3744 0.930 . S
H3735 C3747 0.929 . S
H3736 C3750 0.930 . S
H3737 C3752 0.960 . S
H3738 C3752 0.960 . S
H3739 C3752 0.960 . S
C3740 H3732 0.929 . S
C3740 C3741 1.377 . S
C3740 C3742 1.384 . S
C3741 C3740 1.377 . S
C3741 C3747 1.390 . S
C3742 H3733 0.930 . S
C3742 C3740 1.384 . S
C3742 C3743 1.372 . S
C3743 C3742 1.372 . S
C3743 C3744 1.400 . S
C3743 C3748 1.490 . S
C3744 H3734 0.930 . S
C3744 C3743 1.400 . S
C3744 C3747 1.386 . S
H3745 C3761 0.930 . S
H3746 C3762 0.931 . S
C3747 H3735 0.929 . S
C3747 C3741 1.390 . S
C3747 C3744 1.386 . S
C3748 C3743 1.490 . S
C3748 C3750 1.395 . S
C3748 C3751 1.403 . S
H3749 C3755 0.930 . S
C3750 H3736 0.930 . S
C3750 C3748 1.395 . S
C3750 C3753 1.403 1_545 S
C3751 C3748 1.403 . S
C3751 C3752 1.524 . S
C3751 C3755 1.400 1_545 S
C3752 H3737 0.960 . S
C3752 H3738 0.960 . S
C3752 H3739 0.960 . S
C3752 C3751 1.524 . S
C3753 C3750 1.403 1_565 S
C3753 C3754 1.392 . S
C3753 C3757 1.495 . S
C3754 C3753 1.392 . S
C3754 C3755 1.385 . S
C3754 C3756 1.478 . S
C3755 H3749 0.930 . S
C3755 C3751 1.400 1_565 S
C3755 C3754 1.385 . S
C3756 C3754 1.478 . S
C3756 C3758 1.381 . S
C3756 C3762 1.383 . S
C3757 C3753 1.495 . S
C3757 H3763 0.959 . S
C3757 H3764 0.961 . S
C3757 H3765 0.960 . S
C3758 C3756 1.381 . S
C3758 C3759 1.394 . S
C3758 H3766 0.930 . S
C3759 C3758 1.394 . S
C3759 C3760 1.383 . S
C3759 H3767 0.929 . S
C3760 C3759 1.383 . S
C3760 C3761 1.377 . S
C3761 H3745 0.930 . S
C3761 C3760 1.377 . S
C3761 C3762 1.379 . S
C3762 H3746 0.931 . S
C3762 C3756 1.383 . S
C3762 C3761 1.379 . S
H3763 C3757 0.959 . S
H3764 C3757 0.961 . S
H3765 C3757 0.960 . S
H3766 C3758 0.930 . S
H3767 C3759 0.929 . S
H3768 C3776 0.929 . S
H3769 C3778 0.930 . S
H3770 C3780 0.930 . S
H3771 C3783 0.929 . S
H3772 C3786 0.930 . S
H3773 C3788 0.960 . S
H3774 C3788 0.960 . S
H3775 C3788 0.960 . S
C3776 H3768 0.929 . S
C3776 C3777 1.377 . S
C3776 C3778 1.384 . S
C3777 C3776 1.377 . S
C3777 C3783 1.390 . S
C3778 H3769 0.930 . S
C3778 C3776 1.384 . S
C3778 C3779 1.372 . S
C3779 C3778 1.372 . S
C3779 C3780 1.400 . S
C3779 C3784 1.490 . S
C3780 H3770 0.930 . S
C3780 C3779 1.400 . S
C3780 C3783 1.386 . S
H3781 C3797 0.930 . S
H3782 C3798 0.931 . S
C3783 H3771 0.929 . S
C3783 C3777 1.390 . S
C3783 C3780 1.386 . S
C3784 C3779 1.490 . S
C3784 C3786 1.395 . S
C3784 C3787 1.403 . S
H3785 C3791 0.930 . S
C3786 H3772 0.930 . S
C3786 C3784 1.395 . S
C3786 C3789 1.403 1_455 S
C3787 C3784 1.403 . S
C3787 C3788 1.524 . S
C3787 C3791 1.400 1_455 S
C3788 H3773 0.960 . S
C3788 H3774 0.960 . S
C3788 H3775 0.960 . S
C3788 C3787 1.524 . S
C3789 C3786 1.403 1_655 S
C3789 C3790 1.392 . S
C3789 C3793 1.495 . S
C3790 C3789 1.392 . S
C3790 C3791 1.385 . S
C3790 C3792 1.478 . S
C3791 H3785 0.930 . S
C3791 C3787 1.400 1_655 S
C3791 C3790 1.385 . S
C3792 C3790 1.478 . S
C3792 C3794 1.381 . S
C3792 C3798 1.383 . S
C3793 C3789 1.495 . S
C3793 H3799 0.959 . S
C3793 H3800 0.961 . S
C3793 H3801 0.960 . S
C3794 C3792 1.381 . S
C3794 C3795 1.394 . S
C3794 H3802 0.930 . S
C3795 C3794 1.394 . S
C3795 C3796 1.383 . S
C3795 H3803 0.929 . S
C3796 C3795 1.383 . S
C3796 C3797 1.377 . S
C3797 H3781 0.930 . S
C3797 C3796 1.377 . S
C3797 C3798 1.379 . S
C3798 H3782 0.931 . S
C3798 C3792 1.383 . S
C3798 C3797 1.379 . S
H3799 C3793 0.959 . S
H3800 C3793 0.961 . S
H3801 C3793 0.960 . S
H3802 C3794 0.930 . S
H3803 C3795 0.929 . S
H3804 C3812 0.929 . S
H3805 C3814 0.930 . S
H3806 C3816 0.930 . S
H3807 C3819 0.929 . S
H3808 C3822 0.930 . S
H3809 C3824 0.960 . S
H3810 C3824 0.960 . S
H3811 C3824 0.960 . S
C3812 H3804 0.929 . S
C3812 C3813 1.377 . S
C3812 C3814 1.384 . S
C3813 C3812 1.377 . S
C3813 C3819 1.390 . S
C3814 H3805 0.930 . S
C3814 C3812 1.384 . S
C3814 C3815 1.372 . S
C3815 C3814 1.372 . S
C3815 C3816 1.400 . S
C3815 C3820 1.490 . S
C3816 H3806 0.930 . S
C3816 C3815 1.400 . S
C3816 C3819 1.386 . S
H3817 C3833 0.930 . S
H3818 C3834 0.931 . S
C3819 H3807 0.929 . S
C3819 C3813 1.390 . S
C3819 C3816 1.386 . S
C3820 C3815 1.490 . S
C3820 C3822 1.395 . S
C3820 C3823 1.403 . S
H3821 C3827 0.930 . S
C3822 H3808 0.930 . S
C3822 C3820 1.395 . S
C3822 C3825 1.403 1_545 S
C3823 C3820 1.403 . S
C3823 C3824 1.524 . S
C3823 C3827 1.400 1_545 S
C3824 H3809 0.960 . S
C3824 H3810 0.960 . S
C3824 H3811 0.960 . S
C3824 C3823 1.524 . S
C3825 C3822 1.403 1_565 S
C3825 C3826 1.392 . S
C3825 C3829 1.495 . S
C3826 C3825 1.392 . S
C3826 C3827 1.385 . S
C3826 C3828 1.478 . S
C3827 H3821 0.930 . S
C3827 C3823 1.400 1_565 S
C3827 C3826 1.385 . S
C3828 C3826 1.478 . S
C3828 C3830 1.381 . S
C3828 C3834 1.383 . S
C3829 C3825 1.495 . S
C3829 H3835 0.959 . S
C3829 H3836 0.961 . S
C3829 H3837 0.960 . S
C3830 C3828 1.381 . S
C3830 C3831 1.394 . S
C3830 H3838 0.930 . S
C3831 C3830 1.394 . S
C3831 C3832 1.383 . S
C3831 H3839 0.929 . S
C3832 C3831 1.383 . S
C3832 C3833 1.377 . S
C3833 H3817 0.930 . S
C3833 C3832 1.377 . S
C3833 C3834 1.379 . S
C3834 H3818 0.931 . S
C3834 C3828 1.383 . S
C3834 C3833 1.379 . S
H3835 C3829 0.959 . S
H3836 C3829 0.961 . S
H3837 C3829 0.960 . S
H3838 C3830 0.930 . S
H3839 C3831 0.929 . S
H3840 C3848 0.929 . S
H3841 C3850 0.930 . S
H3842 C3852 0.930 . S
H3843 C3855 0.929 . S
H3844 C3858 0.930 . S
H3845 C3860 0.960 . S
H3846 C3860 0.960 . S
H3847 C3860 0.960 . S
C3848 H3840 0.929 . S
C3848 C3849 1.377 . S
C3848 C3850 1.384 . S
C3849 C3848 1.377 . S
C3849 C3855 1.390 . S
C3850 H3841 0.930 . S
C3850 C3848 1.384 . S
C3850 C3851 1.372 . S
C3851 C3850 1.372 . S
C3851 C3852 1.400 . S
C3851 C3856 1.490 . S
C3852 H3842 0.930 . S
C3852 C3851 1.400 . S
C3852 C3855 1.386 . S
H3853 C3869 0.930 . S
H3854 C3870 0.931 . S
C3855 H3843 0.929 . S
C3855 C3849 1.390 . S
C3855 C3852 1.386 . S
C3856 C3851 1.490 . S
C3856 C3858 1.395 . S
C3856 C3859 1.403 . S
H3857 C3863 0.930 . S
C3858 H3844 0.930 . S
C3858 C3856 1.395 . S
C3858 C3861 1.403 1_545 S
C3859 C3856 1.403 . S
C3859 C3860 1.524 . S
C3859 C3863 1.400 1_545 S
C3860 H3845 0.960 . S
C3860 H3846 0.960 . S
C3860 H3847 0.960 . S
C3860 C3859 1.524 . S
C3861 C3858 1.403 1_565 S
C3861 C3862 1.392 . S
C3861 C3865 1.495 . S
C3862 C3861 1.392 . S
C3862 C3863 1.385 . S
C3862 C3864 1.478 . S
C3863 H3857 0.930 . S
C3863 C3859 1.400 1_565 S
C3863 C3862 1.385 . S
C3864 C3862 1.478 . S
C3864 C3866 1.381 . S
C3864 C3870 1.383 . S
C3865 C3861 1.495 . S
C3865 H3871 0.959 . S
C3865 H3872 0.961 . S
C3865 H3873 0.960 . S
C3866 C3864 1.381 . S
C3866 C3867 1.394 . S
C3866 H3874 0.930 . S
C3867 C3866 1.394 . S
C3867 C3868 1.383 . S
C3867 H3875 0.929 . S
C3868 C3867 1.383 . S
C3868 C3869 1.377 . S
C3869 H3853 0.930 . S
C3869 C3868 1.377 . S
C3869 C3870 1.379 . S
C3870 H3854 0.931 . S
C3870 C3864 1.383 . S
C3870 C3869 1.379 . S
H3871 C3865 0.959 . S
H3872 C3865 0.961 . S
H3873 C3865 0.960 . S
H3874 C3866 0.930 . S
H3875 C3867 0.929 . S
H3876 C3884 0.929 . S
H3877 C3886 0.930 . S
H3878 C3888 0.930 . S
H3879 C3891 0.929 . S
H3880 C3894 0.930 . S
H3881 C3896 0.960 . S
H3882 C3896 0.960 . S
H3883 C3896 0.960 . S
C3884 H3876 0.929 . S
C3884 C3885 1.377 . S
C3884 C3886 1.384 . S
C3885 C3884 1.377 . S
C3885 C3891 1.390 . S
C3886 H3877 0.930 . S
C3886 C3884 1.384 . S
C3886 C3887 1.372 . S
C3887 C3886 1.372 . S
C3887 C3888 1.400 . S
C3887 C3892 1.490 . S
C3888 H3878 0.930 . S
C3888 C3887 1.400 . S
C3888 C3891 1.386 . S
H3889 C3905 0.930 . S
H3890 C3906 0.931 . S
C3891 H3879 0.929 . S
C3891 C3885 1.390 . S
C3891 C3888 1.386 . S
C3892 C3887 1.490 . S
C3892 C3894 1.395 . S
C3892 C3895 1.403 . S
H3893 C3899 0.930 . S
C3894 H3880 0.930 . S
C3894 C3892 1.395 . S
C3894 C3897 1.403 1_545 S
C3895 C3892 1.403 . S
C3895 C3896 1.524 . S
C3895 C3899 1.400 1_545 S
C3896 H3881 0.960 . S
C3896 H3882 0.960 . S
C3896 H3883 0.960 . S
C3896 C3895 1.524 . S
C3897 C3894 1.403 1_565 S
C3897 C3898 1.392 . S
C3897 C3901 1.495 . S
C3898 C3897 1.392 . S
C3898 C3899 1.385 . S
C3898 C3900 1.478 . S
C3899 H3893 0.930 . S
C3899 C3895 1.400 1_565 S
C3899 C3898 1.385 . S
C3900 C3898 1.478 . S
C3900 C3902 1.381 . S
C3900 C3906 1.383 . S
C3901 C3897 1.495 . S
C3901 H3907 0.959 . S
C3901 H3908 0.961 . S
C3901 H3909 0.960 . S
C3902 C3900 1.381 . S
C3902 C3903 1.394 . S
C3902 H3910 0.930 . S
C3903 C3902 1.394 . S
C3903 C3904 1.383 . S
C3903 H3911 0.929 . S
C3904 C3903 1.383 . S
C3904 C3905 1.377 . S
C3905 H3889 0.930 . S
C3905 C3904 1.377 . S
C3905 C3906 1.379 . S
C3906 H3890 0.931 . S
C3906 C3900 1.383 . S
C3906 C3905 1.379 . S
H3907 C3901 0.959 . S
H3908 C3901 0.961 . S
H3909 C3901 0.960 . S
H3910 C3902 0.930 . S
H3911 C3903 0.929 . S
H3912 C3920 0.929 . S
H3913 C3922 0.930 . S
H3914 C3924 0.930 . S
H3915 C3927 0.929 . S
H3916 C3930 0.930 . S
H3917 C3932 0.960 . S
H3918 C3932 0.960 . S
H3919 C3932 0.960 . S
C3920 H3912 0.929 . S
C3920 C3921 1.377 . S
C3920 C3922 1.384 . S
C3921 C3920 1.377 . S
C3921 C3927 1.390 . S
C3922 H3913 0.930 . S
C3922 C3920 1.384 . S
C3922 C3923 1.372 . S
C3923 C3922 1.372 . S
C3923 C3924 1.400 . S
C3923 C3928 1.490 . S
C3924 H3914 0.930 . S
C3924 C3923 1.400 . S
C3924 C3927 1.386 . S
H3925 C3941 0.930 . S
H3926 C3942 0.931 . S
C3927 H3915 0.929 . S
C3927 C3921 1.390 . S
C3927 C3924 1.386 . S
C3928 C3923 1.490 . S
C3928 C3930 1.395 . S
C3928 C3931 1.403 . S
H3929 C3935 0.930 . S
C3930 H3916 0.930 . S
C3930 C3928 1.395 . S
C3930 C3933 1.403 1_655 S
C3931 C3928 1.403 . S
C3931 C3932 1.524 . S
C3931 C3935 1.400 1_655 S
C3932 H3917 0.960 . S
C3932 H3918 0.960 . S
C3932 H3919 0.960 . S
C3932 C3931 1.524 . S
C3933 C3930 1.403 1_455 S
C3933 C3934 1.392 . S
C3933 C3937 1.495 . S
C3934 C3933 1.392 . S
C3934 C3935 1.385 . S
C3934 C3936 1.478 . S
C3935 H3929 0.930 . S
C3935 C3931 1.400 1_455 S
C3935 C3934 1.385 . S
C3936 C3934 1.478 . S
C3936 C3938 1.381 . S
C3936 C3942 1.383 . S
C3937 C3933 1.495 . S
C3937 H3943 0.959 . S
C3937 H3944 0.961 . S
C3937 H3945 0.960 . S
C3938 C3936 1.381 . S
C3938 C3939 1.394 . S
C3938 H3946 0.930 . S
C3939 C3938 1.394 . S
C3939 C3940 1.383 . S
C3939 H3947 0.929 . S
C3940 C3939 1.383 . S
C3940 C3941 1.377 . S
C3941 H3925 0.930 . S
C3941 C3940 1.377 . S
C3941 C3942 1.379 . S
C3942 H3926 0.931 . S
C3942 C3936 1.383 . S
C3942 C3941 1.379 . S
H3943 C3937 0.959 . S
H3944 C3937 0.961 . S
H3945 C3937 0.960 . S
H3946 C3938 0.930 . S
H3947 C3939 0.929 . S
H3948 C3956 0.929 . S
H3949 C3958 0.930 . S
H3950 C3960 0.930 . S
H3951 C3963 0.929 . S
H3952 C3966 0.930 . S
H3953 C3968 0.960 . S
H3954 C3968 0.960 . S
H3955 C3968 0.960 . S
C3956 H3948 0.929 . S
C3956 C3957 1.377 . S
C3956 C3958 1.384 . S
C3957 C3956 1.377 . S
C3957 C3963 1.390 . S
C3958 H3949 0.930 . S
C3958 C3956 1.384 . S
C3958 C3959 1.372 . S
C3959 C3958 1.372 . S
C3959 C3960 1.400 . S
C3959 C3964 1.490 . S
C3960 H3950 0.930 . S
C3960 C3959 1.400 . S
C3960 C3963 1.386 . S
H3961 C3977 0.930 . S
H3962 C3978 0.931 . S
C3963 H3951 0.929 . S
C3963 C3957 1.390 . S
C3963 C3960 1.386 . S
C3964 C3959 1.490 . S
C3964 C3966 1.395 . S
C3964 C3967 1.403 . S
H3965 C3971 0.930 . S
C3966 H3952 0.930 . S
C3966 C3964 1.395 . S
C3966 C3969 1.403 1_545 S
C3967 C3964 1.403 . S
C3967 C3968 1.524 . S
C3967 C3971 1.400 1_545 S
C3968 H3953 0.960 . S
C3968 H3954 0.960 . S
C3968 H3955 0.960 . S
C3968 C3967 1.524 . S
C3969 C3966 1.403 1_565 S
C3969 C3970 1.392 . S
C3969 C3973 1.495 . S
C3970 C3969 1.392 . S
C3970 C3971 1.385 . S
C3970 C3972 1.478 . S
C3971 H3965 0.930 . S
C3971 C3967 1.400 1_565 S
C3971 C3970 1.385 . S
C3972 C3970 1.478 . S
C3972 C3974 1.381 . S
C3972 C3978 1.383 . S
C3973 C3969 1.495 . S
C3973 H3979 0.959 . S
C3973 H3980 0.961 . S
C3973 H3981 0.960 . S
C3974 C3972 1.381 . S
C3974 C3975 1.394 . S
C3974 H3982 0.930 . S
C3975 C3974 1.394 . S
C3975 C3976 1.383 . S
C3975 H3983 0.929 . S
C3976 C3975 1.383 . S
C3976 C3977 1.377 . S
C3977 H3961 0.930 . S
C3977 C3976 1.377 . S
C3977 C3978 1.379 . S
C3978 H3962 0.931 . S
C3978 C3972 1.383 . S
C3978 C3977 1.379 . S
H3979 C3973 0.959 . S
H3980 C3973 0.961 . S
H3981 C3973 0.960 . S
H3982 C3974 0.930 . S
H3983 C3975 0.929 . S
H3984 C3992 0.929 . S
H3985 C3994 0.930 . S
H3986 C3996 0.930 . S
H3987 C3999 0.929 . S
H3988 C4002 0.930 . S
H3989 C4004 0.960 . S
H3990 C4004 0.960 . S
H3991 C4004 0.960 . S
C3992 H3984 0.929 . S
C3992 C3993 1.377 . S
C3992 C3994 1.384 . S
C3993 C3992 1.377 . S
C3993 C3999 1.390 . S
C3994 H3985 0.930 . S
C3994 C3992 1.384 . S
C3994 C3995 1.372 . S
C3995 C3994 1.372 . S
C3995 C3996 1.400 . S
C3995 C4000 1.490 . S
C3996 H3986 0.930 . S
C3996 C3995 1.400 . S
C3996 C3999 1.386 . S
H3997 C4013 0.930 . S
H3998 C4014 0.931 . S
C3999 H3987 0.929 . S
C3999 C3993 1.390 . S
C3999 C3996 1.386 . S
C4000 C3995 1.490 . S
C4000 C4002 1.395 . S
C4000 C4003 1.403 . S
H4001 C4007 0.930 . S
C4002 H3988 0.930 . S
C4002 C4000 1.395 . S
C4002 C4005 1.403 1_455 S
C4003 C4000 1.403 . S
C4003 C4004 1.524 . S
C4003 C4007 1.400 1_455 S
C4004 H3989 0.960 . S
C4004 H3990 0.960 . S
C4004 H3991 0.960 . S
C4004 C4003 1.524 . S
C4005 C4002 1.403 1_655 S
C4005 C4006 1.392 . S
C4005 C4009 1.495 . S
C4006 C4005 1.392 . S
C4006 C4007 1.385 . S
C4006 C4008 1.478 . S
C4007 H4001 0.930 . S
C4007 C4003 1.400 1_655 S
C4007 C4006 1.385 . S
C4008 C4006 1.478 . S
C4008 C4010 1.381 . S
C4008 C4014 1.383 . S
C4009 C4005 1.495 . S
C4009 H4015 0.959 . S
C4009 H4016 0.961 . S
C4009 H4017 0.960 . S
C4010 C4008 1.381 . S
C4010 C4011 1.394 . S
C4010 H4018 0.930 . S
C4011 C4010 1.394 . S
C4011 C4012 1.383 . S
C4011 H4019 0.929 . S
C4012 C4011 1.383 . S
C4012 C4013 1.377 . S
C4013 H3997 0.930 . S
C4013 C4012 1.377 . S
C4013 C4014 1.379 . S
C4014 H3998 0.931 . S
C4014 C4008 1.383 . S
C4014 C4013 1.379 . S
H4015 C4009 0.959 . S
H4016 C4009 0.961 . S
H4017 C4009 0.960 . S
H4018 C4010 0.930 . S
H4019 C4011 0.929 . S
H4020 C4028 0.929 . S
H4021 C4030 0.930 . S
H4022 C4032 0.930 . S
H4023 C4035 0.929 . S
H4024 C4038 0.930 . S
H4025 C4040 0.960 . S
H4026 C4040 0.960 . S
H4027 C4040 0.960 . S
C4028 H4020 0.929 . S
C4028 C4029 1.377 . S
C4028 C4030 1.384 . S
C4029 C4028 1.377 . S
C4029 C4035 1.390 . S
C4030 H4021 0.930 . S
C4030 C4028 1.384 . S
C4030 C4031 1.372 . S
C4031 C4030 1.372 . S
C4031 C4032 1.400 . S
C4031 C4036 1.490 . S
C4032 H4022 0.930 . S
C4032 C4031 1.400 . S
C4032 C4035 1.386 . S
H4033 C4049 0.930 . S
H4034 C4050 0.931 . S
C4035 H4023 0.929 . S
C4035 C4029 1.390 . S
C4035 C4032 1.386 . S
C4036 C4031 1.490 . S
C4036 C4038 1.395 . S
C4036 C4039 1.403 . S
H4037 C4043 0.930 . S
C4038 H4024 0.930 . S
C4038 C4036 1.395 . S
C4038 C4041 1.403 1_545 S
C4039 C4036 1.403 . S
C4039 C4040 1.524 . S
C4039 C4043 1.400 1_545 S
C4040 H4025 0.960 . S
C4040 H4026 0.960 . S
C4040 H4027 0.960 . S
C4040 C4039 1.524 . S
C4041 C4038 1.403 1_565 S
C4041 C4042 1.392 . S
C4041 C4045 1.495 . S
C4042 C4041 1.392 . S
C4042 C4043 1.385 . S
C4042 C4044 1.478 . S
C4043 H4037 0.930 . S
C4043 C4039 1.400 1_565 S
C4043 C4042 1.385 . S
C4044 C4042 1.478 . S
C4044 C4046 1.381 . S
C4044 C4050 1.383 . S
C4045 C4041 1.495 . S
C4045 H4051 0.959 . S
C4045 H4052 0.961 . S
C4045 H4053 0.960 . S
C4046 C4044 1.381 . S
C4046 C4047 1.394 . S
C4046 H4054 0.930 . S
C4047 C4046 1.394 . S
C4047 C4048 1.383 . S
C4047 H4055 0.929 . S
C4048 C4047 1.383 . S
C4048 C4049 1.377 . S
C4049 H4033 0.930 . S
C4049 C4048 1.377 . S
C4049 C4050 1.379 . S
C4050 H4034 0.931 . S
C4050 C4044 1.383 . S
C4050 C4049 1.379 . S
H4051 C4045 0.959 . S
H4052 C4045 0.961 . S
H4053 C4045 0.960 . S
H4054 C4046 0.930 . S
H4055 C4047 0.929 . S
H4056 C4064 0.929 . S
H4057 C4066 0.930 . S
H4058 C4068 0.930 . S
H4059 C4071 0.929 . S
H4060 C4074 0.930 . S
H4061 C4076 0.960 . S
H4062 C4076 0.960 . S
H4063 C4076 0.960 . S
C4064 H4056 0.929 . S
C4064 C4065 1.377 . S
C4064 C4066 1.384 . S
C4065 C4064 1.377 . S
C4065 C4071 1.390 . S
C4066 H4057 0.930 . S
C4066 C4064 1.384 . S
C4066 C4067 1.372 . S
C4067 C4066 1.372 . S
C4067 C4068 1.400 . S
C4067 C4072 1.490 . S
C4068 H4058 0.930 . S
C4068 C4067 1.400 . S
C4068 C4071 1.386 . S
H4069 C4085 0.930 . S
H4070 C4086 0.931 . S
C4071 H4059 0.929 . S
C4071 C4065 1.390 . S
C4071 C4068 1.386 . S
C4072 C4067 1.490 . S
C4072 C4074 1.395 . S
C4072 C4075 1.403 . S
H4073 C4079 0.930 . S
C4074 H4060 0.930 . S
C4074 C4072 1.395 . S
C4074 C4077 1.403 1_655 S
C4075 C4072 1.403 . S
C4075 C4076 1.524 . S
C4075 C4079 1.400 1_655 S
C4076 H4061 0.960 . S
C4076 H4062 0.960 . S
C4076 H4063 0.960 . S
C4076 C4075 1.524 . S
C4077 C4074 1.403 1_455 S
C4077 C4078 1.392 . S
C4077 C4081 1.495 . S
C4078 C4077 1.392 . S
C4078 C4079 1.385 . S
C4078 C4080 1.478 . S
C4079 H4073 0.930 . S
C4079 C4075 1.400 1_455 S
C4079 C4078 1.385 . S
C4080 C4078 1.478 . S
C4080 C4082 1.381 . S
C4080 C4086 1.383 . S
C4081 C4077 1.495 . S
C4081 H4087 0.959 . S
C4081 H4088 0.961 . S
C4081 H4089 0.960 . S
C4082 C4080 1.381 . S
C4082 C4083 1.394 . S
C4082 H4090 0.930 . S
C4083 C4082 1.394 . S
C4083 C4084 1.383 . S
C4083 H4091 0.929 . S
C4084 C4083 1.383 . S
C4084 C4085 1.377 . S
C4085 H4069 0.930 . S
C4085 C4084 1.377 . S
C4085 C4086 1.379 . S
C4086 H4070 0.931 . S
C4086 C4080 1.383 . S
C4086 C4085 1.379 . S
H4087 C4081 0.959 . S
H4088 C4081 0.961 . S
H4089 C4081 0.960 . S
H4090 C4082 0.930 . S
H4091 C4083 0.929 . S
H4092 C4100 0.929 . S
H4093 C4102 0.930 . S
H4094 C4104 0.930 . S
H4095 C4107 0.929 . S
H4096 C4110 0.930 . S
H4097 C4112 0.960 . S
H4098 C4112 0.960 . S
H4099 C4112 0.960 . S
C4100 H4092 0.929 . S
C4100 C4101 1.377 . S
C4100 C4102 1.384 . S
C4101 C4100 1.377 . S
C4101 C4107 1.390 . S
C4102 H4093 0.930 . S
C4102 C4100 1.384 . S
C4102 C4103 1.372 . S
C4103 C4102 1.372 . S
C4103 C4104 1.400 . S
C4103 C4108 1.490 . S
C4104 H4094 0.930 . S
C4104 C4103 1.400 . S
C4104 C4107 1.386 . S
H4105 C4121 0.930 . S
H4106 C4122 0.931 . S
C4107 H4095 0.929 . S
C4107 C4101 1.390 . S
C4107 C4104 1.386 . S
C4108 C4103 1.490 . S
C4108 C4110 1.395 . S
C4108 C4111 1.403 . S
H4109 C4115 0.930 . S
C4110 H4096 0.930 . S
C4110 C4108 1.395 . S
C4110 C4113 1.403 1_455 S
C4111 C4108 1.403 . S
C4111 C4112 1.524 . S
C4111 C4115 1.400 1_455 S
C4112 H4097 0.960 . S
C4112 H4098 0.960 . S
C4112 H4099 0.960 . S
C4112 C4111 1.524 . S
C4113 C4110 1.403 1_655 S
C4113 C4114 1.392 . S
C4113 C4117 1.495 . S
C4114 C4113 1.392 . S
C4114 C4115 1.385 . S
C4114 C4116 1.478 . S
C4115 H4109 0.930 . S
C4115 C4111 1.400 1_655 S
C4115 C4114 1.385 . S
C4116 C4114 1.478 . S
C4116 C4118 1.381 . S
C4116 C4122 1.383 . S
C4117 C4113 1.495 . S
C4117 H4123 0.959 . S
C4117 H4124 0.961 . S
C4117 H4125 0.960 . S
C4118 C4116 1.381 . S
C4118 C4119 1.394 . S
C4118 H4126 0.930 . S
C4119 C4118 1.394 . S
C4119 C4120 1.383 . S
C4119 H4127 0.929 . S
C4120 C4119 1.383 . S
C4120 C4121 1.377 . S
C4121 H4105 0.930 . S
C4121 C4120 1.377 . S
C4121 C4122 1.379 . S
C4122 H4106 0.931 . S
C4122 C4116 1.383 . S
C4122 C4121 1.379 . S
H4123 C4117 0.959 . S
H4124 C4117 0.961 . S
H4125 C4117 0.960 . S
H4126 C4118 0.930 . S
H4127 C4119 0.929 . S
C681 C553 1.374 . S
C700 C7 1.386 . S
C717 C20 1.377 . S
C736 C511 1.351 . S
C753 C35 1.378 . S
C772 C525 1.353 . S
C789 C538 1.378 . S
C808 C48 1.363 . S
C825 C468 1.377 . S
C844 C62 1.369 . S
C861 C77 1.370 . S
C880 C483 1.359 . S
C897 C90 1.372 . S
C916 C497 1.393 . S
C933 C105 1.375 . S
C952 C454 1.382 . S
C969 C118 1.377 . S
C988 C441 1.349 . S
C1005 C398 1.375 . S
C1024 C132 1.384 . S
C1041 C413 1.370 . S
C1060 C147 1.363 . S
C1077 C161 1.369 . S
C1096 C426 1.389 . S
C1113 C175 1.377 . S
C1132 C356 1.351 . S
C1149 C189 1.375 . S
C1168 C371 1.384 . S
C1185 C384 1.377 . S
C1204 C202 1.350 . S
C1221 C343 1.377 . S
C1240 C217 1.373 . S
C1257 C230 1.375 . S
C1276 C622 1.347 . S
C1293 C665 1.377 . S
C1312 C245 1.351 . S
C1329 C636 1.369 . S
C1348 C258 1.392 . S
C1365 C651 1.376 . S
C1384 C273 1.347 . S
C1401 C566 1.376 . S
C1420 C286 1.348 . S
C1437 C594 1.373 . S
C1456 C300 1.348 . S
C1473 C315 1.375 . S
C1492 C609 1.386 . S
C1509 C581 1.369 . S
C1528 C329 1.391 . S
C1545 C455 1.369 . S
C1564 C287 1.368 . S
C1581 C244 1.378 . S
C1600 C469 1.363 . S
C1617 C482 1.370 . S
C1636 C259 1.393 . S
C1653 C496 1.376 . S
C1672 C272 1.347 . S
C1689 C328 1.375 . S
C1708 C510 1.384 . S
C1725 C524 1.368 . S
C1744 C301 1.382 . S
C1761 C314 1.377 . S
C1780 C539 1.349 . S
C1797 C231 1.376 . S
C1816 C552 1.347 . S
C1833 C567 1.369 . S
C1852 C216 1.392 . S
C1869 C174 1.374 . S
C1888 C664 1.347 . S
C1905 C637 1.369 . S
C1924 C188 1.389 . S
C1941 C203 1.372 . S
C1960 C650 1.351 . S
C1977 C133 1.374 . S
C1996 C580 1.389 . S
C2013 C146 1.377 . S
C2032 C595 1.348 . S
C2049 C160 1.373 . S
C2068 C608 1.390 . S
C2085 C623 1.374 . S
C2104 C119 1.348 . S
C2121 C342 1.370 . S
C2140 C104 1.361 . S
C2157 C399 1.371 . S
C2176 C21 1.393 . S
C2193 C412 1.369 . S
C2212 C34 1.391 . S
C2229 C427 1.370 . S
C2248 C49 1.393 . S
C2265 C440 1.368 . S
C2284 C6 1.380 . S
C2301 C76 1.377 . S
C2320 C370 1.374 . S
C2337 C385 1.370 . S
C2356 C91 1.393 . S
C2373 C357 1.374 . S
C2392 C63 1.347 . S
C2409 C8 1.525 . S
C2428 C372 1.538 . S
C2445 C387 1.527 . S
C2464 C23 1.519 . S
C2481 C36 1.532 . S
C2500 C344 1.510 . S
C2517 C51 1.526 . S
C2536 C359 1.521 . S
C2553 C65 1.532 . S
C2572 C429 1.532 . S
C2589 C442 1.528 . S
C2608 C78 1.543 . S
C2625 C93 1.525 . S
C2644 C401 1.535 . S
C2661 C414 1.532 . S
C2680 C106 1.509 . S
C2697 C121 1.533 . S
C2716 C512 1.518 . S
C2733 C526 1.533 . S
C2752 C135 1.512 . S
C2769 C148 1.528 . S
C2788 C541 1.514 . S
C2805 C162 1.525 . S
C2824 C554 1.538 . S
C2841 C176 1.530 . S
C2860 C457 1.540 . S
C2877 C190 1.527 . S
C2896 C471 1.517 . S
C2913 C484 1.533 . S
C2932 C205 1.512 . S
C2949 C218 1.530 . S
C2968 C498 1.508 . S
C2985 C610 1.527 . S
C3004 C233 1.519 . S
C3021 C246 1.533 . S
C3040 C639 1.515 . S
C3057 C261 1.528 . S
C3076 C652 1.543 . S
C3093 C569 1.533 . S
C3112 C274 1.524 . S
C3129 C666 1.526 . S
C3148 C289 1.542 . S
C3165 C303 1.527 . S
C3184 C582 1.518 . S
C3201 C597 1.528 . S
C3220 C316 1.544 . S
C3237 C330 1.526 . S
C3256 C625 1.541 . S
C3273 C596 1.527 . S
C3292 C288 1.544 . S
C3309 C247 1.529 . S
C3328 C611 1.510 . S
C3345 C624 1.530 . S
C3364 C260 1.508 . S
C3381 C583 1.527 . S
C3400 C275 1.516 . S
C3417 C653 1.530 . S
C3436 C331 1.508 . S
C3453 C302 1.532 . S
C3472 C568 1.509 . S
C3489 C667 1.528 . S
C3508 C317 1.543 . S
C3525 C232 1.526 . S
C3544 C638 1.522 . S
C3561 C470 1.526 . S
C3580 C219 1.539 . S
C3597 C177 1.525 . S
C3616 C485 1.536 . S
C3633 C191 1.531 . S
C3652 C499 1.537 . S
C3669 C456 1.526 . S
C3688 C204 1.529 . S
C3705 C134 1.532 . S
C3724 C555 1.530 . S
C3741 C513 1.529 . S
C3760 C149 1.509 . S
C3777 C163 1.529 . S
C3796 C527 1.510 . S
C3813 C120 1.526 . S
C3832 C540 1.521 . S
C3849 C386 1.526 . S
C3868 C107 1.542 . S
C3885 C22 1.527 . S
C3904 C415 1.543 . S
C3921 C37 1.527 . S
C3940 C428 1.544 . S
C3957 C443 1.532 . S
C3976 C50 1.529 . S
C3993 C9 1.528 . S
C4012 C400 1.543 . S
C4029 C79 1.532 . S
C4048 C358 1.530 . S
C4065 C92 1.529 . S
C4084 C373 1.542 . S
C4101 C64 1.527 . S
C4120 C345 1.543 . S
