# Generated by pormake.
# Topology vmb, (5)-cn, num edge types: 1
# Building blocks:
#     Node 0, Type 0, BuildingBlock: XOMCOT_clean_sbu_1, # of connection points: 5
#     Node 1, Type 0, BuildingBlock: XOMCOT_clean_sbu_1, # of connection points: 5
#     Node 2, Type 0, BuildingBlock: XOMCOT_clean_sbu_1, # of connection points: 5
#     Node 3, Type 0, BuildingBlock: XOMCOT_clean_sbu_1, # of connection points: 5
#     Node 4, Type 0, BuildingBlock: XOMCOT_clean_sbu_1, # of connection points: 5
#     Node 5, Type 0, BuildingBlock: XOMCOT_clean_sbu_1, # of connection points: 5
#     Node 6, Type 0, BuildingBlock: XOMCOT_clean_sbu_1, # of connection points: 5
#     Node 7, Type 0, BuildingBlock: XOMCOT_clean_sbu_1, # of connection points: 5
#     Edge 8, Type (0, 0), BuildingBlock: EZIPEK_clean_linker_0, # of connection points: 2
#     Edge 9, Type (0, 0), BuildingBlock: EZIPEK_clean_linker_0, # of connection points: 2
#     Edge 10, Type (0, 0), BuildingBlock: EZIPEK_clean_linker_0, # of connection points: 2
#     Edge 11, Type (0, 0), BuildingBlock: EZIPEK_clean_linker_0, # of connection points: 2
#     Edge 12, Type (0, 0), BuildingBlock: EZIPEK_clean_linker_0, # of connection points: 2
#     Edge 13, Type (0, 0), BuildingBlock: EZIPEK_clean_linker_0, # of connection points: 2
#     Edge 14, Type (0, 0), BuildingBlock: EZIPEK_clean_linker_0, # of connection points: 2
#     Edge 15, Type (0, 0), BuildingBlock: EZIPEK_clean_linker_0, # of connection points: 2
#     Edge 16, Type (0, 0), BuildingBlock: EZIPEK_clean_linker_0, # of connection points: 2
#     Edge 17, Type (0, 0), BuildingBlock: EZIPEK_clean_linker_0, # of connection points: 2
#     Edge 18, Type (0, 0), BuildingBlock: EZIPEK_clean_linker_0, # of connection points: 2
#     Edge 19, Type (0, 0), BuildingBlock: EZIPEK_clean_linker_0, # of connection points: 2
#     Edge 20, Type (0, 0), BuildingBlock: EZIPEK_clean_linker_0, # of connection points: 2
#     Edge 21, Type (0, 0), BuildingBlock: EZIPEK_clean_linker_0, # of connection points: 2
#     Edge 22, Type (0, 0), BuildingBlock: EZIPEK_clean_linker_0, # of connection points: 2
#     Edge 23, Type (0, 0), BuildingBlock: EZIPEK_clean_linker_0, # of connection points: 2
#     Edge 24, Type (0, 0), BuildingBlock: EZIPEK_clean_linker_0, # of connection points: 2
#     Edge 25, Type (0, 0), BuildingBlock: EZIPEK_clean_linker_0, # of connection points: 2
#     Edge 26, Type (0, 0), BuildingBlock: EZIPEK_clean_linker_0, # of connection points: 2
#     Edge 27, Type (0, 0), BuildingBlock: EZIPEK_clean_linker_0, # of connection points: 2
# Relax obj value: 0.075
# Max RMSD: 0.116
# Mean RMSD: 0.116
data_MOF--net-vmb--node1-XOMCOT_clean_sbu_1--edge1-EZIPEK_clean_linker_0
_symmetry_space_group_name_H-M    P1
_symmetry_Int_Tables_number       1
_symmetry_cell_setting            triclinic
loop_
_symmetry_equiv_pos_as_xyz
'x, y, z'
_cell_length_a     28.865355
_cell_length_b     37.986959
_cell_length_c     19.745636
_cell_angle_alpha  89.680599
_cell_angle_beta   116.8719
_cell_angle_gamma 89.987164
loop_
_atom_site_label
_atom_site_type_symbol
_atom_site_fract_x
_atom_site_fract_y
_atom_site_fract_z
_atom_type_partial_charge
C0 C 0.17895 0.05023 0.21899 0.0
C1 C 0.12593 0.05062 0.19217 0.0
N2 N 0.11576 0.05065 0.25214 0.0
N3 N 0.2025 0.04898 0.29569 0.0
C4 C 0.16256 0.05014 0.31403 0.0
H5 H 0.19887 0.05198 0.18417 0.0
Co6 Co 0.27525 0.05124 0.35578 0.0
C7 C 0.30095 0.0174 0.50535 0.0
O8 O 0.33842 0.04041 0.53731 0.0
N9 N 0.34933 0.05424 0.41354 0.0
C10 C 0.43094 0.07353 0.47814 0.0
C11 C 0.37924 0.08287 0.44515 0.0
C12 C 0.38442 0.02782 0.42838 0.0
N13 N 0.43401 0.03898 0.46693 0.0
O14 O 0.28379 0.01205 0.30058 0.0
H15 H 0.36522 0.10922 0.44454 0.0
H16 H 0.37403 0.00089 0.41034 0.0
O17 O 0.2717 0.01859 0.43324 0.0
C18 C 0.29519 0.02223 0.24818 0.0
O19 O 0.30264 0.056 0.24211 0.0
N20 N 0.26539 0.09154 0.40188 0.0
C21 C 0.25003 0.15739 0.44837 0.0
C22 C 0.24431 0.12705 0.48416 0.0
C23 C 0.25178 0.09419 0.4596 0.0
C24 C 0.26717 0.12085 0.36304 0.0
C25 C 0.26056 0.15423 0.38621 0.0
H26 H 0.24524 0.07139 0.48626 0.0
H27 H 0.2754 0.11818 0.31502 0.0
H28 H 0.16714 0.05274 0.3709 0.0
H29 H 0.09705 0.05234 0.13335 0.0
H30 H 0.46382 0.09084 0.5067 0.0
H31 H 0.23476 0.12885 0.53117 0.0
H32 H 0.26438 0.17733 0.35673 0.0
C33 C 0.84722 0.09 0.24227 0.0
C34 C 0.89991 0.0915 0.26643 0.0
N35 N 0.91288 0.06573 0.23175 0.0
N36 N 0.82684 0.06341 0.19245 0.0
C37 C 0.86811 0.04881 0.18776 0.0
H38 H 0.82493 0.10761 0.25913 0.0
Co39 Co 0.75531 0.05452 0.1422 0.0
C40 C 0.73568 0.01911 0.99725 0.0
O41 O 0.69232 0.03727 0.96393 0.0
N42 N 0.6822 0.04593 0.09381 0.0
C43 C 0.59606 0.0525 0.04408 0.0
C44 C 0.64287 0.06966 0.07089 0.0
C45 C 0.65767 0.01434 0.08055 0.0
N46 N 0.60545 0.01777 0.05034 0.0
O47 O 0.76491 0.01594 0.21118 0.0
H48 H 0.64695 0.09783 0.07444 0.0
H49 H 0.67774 -0.01073 0.09418 0.0
O50 O 0.76497 0.02291 0.06868 0.0
C51 C 0.7627 0.02721 0.27058 0.0
O52 O 0.75301 0.06073 0.27428 0.0
N53 N 0.7476 0.09538 0.08321 0.0
C54 C 0.75231 0.16304 0.03198 0.0
C55 C 0.76338 0.1339 0.999 0.0
C56 C 0.76171 0.10026 0.02638 0.0
C57 C 0.73711 0.12384 0.11593 0.0
C58 C 0.73848 0.15793 0.09051 0.0
H59 H 0.77456 0.07899 1.00403 0.0
H60 H 0.72942 0.12001 0.16424 0.0
H61 H 0.86566 0.02657 0.15246 0.0
H62 H 0.9265 0.1107 0.30457 0.0
H63 H 0.55803 0.06453 0.02306 0.0
H64 H 0.77573 0.13729 0.95508 0.0
H65 H 0.73101 0.18015 0.11836 0.0
C66 C 0.84647 0.87048 0.74315 0.0
C67 C 0.89967 0.86783 0.77603 0.0
N68 N 0.91855 0.89814 0.76324 0.0
N69 N 0.83142 0.90211 0.70838 0.0
C70 C 0.87662 0.91906 0.72538 0.0
H71 H 0.82019 0.84972 0.74082 0.0
Co72 Co 0.76069 0.91344 0.64615 0.0
C73 C 0.80757 0.94918 0.54695 0.0
O74 O 0.85343 0.93405 0.5766 0.0
N75 N 0.68881 0.92474 0.58392 0.0
C76 C 0.60922 0.92718 0.4859 0.0
C77 C 0.65696 0.91103 0.51512 0.0
C78 C 0.65905 0.94999 0.59383 0.0
N79 N 0.61062 0.95159 0.53552 0.0
O80 O 0.76698 0.95253 0.71118 0.0
H81 H 0.66752 0.89105 0.48593 0.0
H82 H 0.67259 0.96773 0.64152 0.0
O83 O 0.77479 0.94263 0.57279 0.0
C84 C 0.76167 0.93939 0.76721 0.0
O85 O 0.75627 0.90512 0.76978 0.0
N86 N 0.75402 0.87196 0.59124 0.0
C87 C 0.751 0.80366 0.54055 0.0
C88 C 0.77989 0.82932 0.52594 0.0
C89 C 0.78138 0.86328 0.55259 0.0
C90 C 0.72513 0.8471 0.60507 0.0
C91 C 0.7226 0.81268 0.57944 0.0
H92 H 0.80661 0.88153 0.54494 0.0
H93 H 0.70543 0.85386 0.63862 0.0
H94 H 0.87897 0.94568 0.70757 0.0
H95 H 0.92244 0.84441 0.80151 0.0
H96 H 0.57639 0.92214 0.43144 0.0
H97 H 0.80316 0.82267 0.49746 0.0
H98 H 0.70077 0.793 0.59277 0.0
C99 C 0.17677 0.91937 0.73142 0.0
C100 C 0.12472 0.92019 0.71216 0.0
N101 N 0.11905 0.91166 0.77403 0.0
N102 N 0.20458 0.91126 0.80591 0.0
C103 C 0.16764 0.9057 0.82954 0.0
H104 H 0.19259 0.92363 0.69204 0.0
Co105 Co 0.27843 0.90804 0.8596 0.0
C106 C 0.30892 0.94089 1.01117 0.0
O107 O 0.34793 0.91866 0.04143 0.0
N108 N 0.35277 0.90494 0.91137 0.0
C109 C 0.43522 0.88621 0.96949 0.0
C110 C 0.38379 0.8762 0.93766 0.0
C111 C 0.38681 0.93204 0.92745 0.0
N112 N 0.43688 0.9213 0.96255 0.0
O113 O 0.28458 0.94775 0.80289 0.0
H114 H 0.37056 0.84943 0.93441 0.0
H115 H 0.37521 0.95931 0.91411 0.0
O116 O 0.27808 0.93958 0.93976 0.0
C117 C 0.29142 0.9368 0.74696 0.0
O118 O 0.29387 0.90264 0.73865 0.0
N119 N 0.2717 0.86669 0.90714 0.0
C120 C 0.26123 0.79908 0.95314 0.0
C121 C 0.25978 0.82829 0.99492 0.0
C122 C 0.26514 0.862 0.97099 0.0
C123 C 0.27002 0.8385 0.86367 0.0
C124 C 0.26573 0.80434 0.88625 0.0
H125 H 0.26263 0.88377 1.00333 0.0
H126 H 0.27354 0.84266 0.81196 0.0
H127 H 0.17547 0.8962 0.88515 0.0
H128 H 0.09321 0.9255 0.6564 0.0
H129 H 0.46881 0.86909 0.99527 0.0
H130 H 0.25523 0.82497 0.04612 0.0
H131 H 0.26641 0.78224 0.85229 0.0
C132 C 0.71998 0.55517 0.26251 0.0
C133 C 0.66747 0.55394 0.23961 0.0
N134 N 0.65991 0.54786 0.30107 0.0
N135 N 0.74583 0.54927 0.33797 0.0
C136 C 0.70795 0.54466 0.3599 0.0
H137 H 0.73812 0.56174 0.22676 0.0
Co138 Co 0.81811 0.55452 0.39209 0.0
C139 C 0.84948 0.53256 0.55171 0.0
O140 O 0.88386 0.55797 0.57371 0.0
N141 N 0.892 0.55963 0.44503 0.0
C142 C 0.974 0.57849 0.50575 0.0
C143 C 0.92251 0.58836 0.47301 0.0
C144 C 0.92651 0.53273 0.46204 0.0
N145 N 0.97631 0.54355 0.49767 0.0
O146 O 0.82687 0.51312 0.3424 0.0
H147 H 0.90915 0.61501 0.47088 0.0
H148 H 0.91561 0.50554 0.44749 0.0
O149 O 0.82049 0.52711 0.4804 0.0
C150 C 0.83549 0.523 0.28701 0.0
O151 O 0.84008 0.55684 0.2773 0.0
N152 N 0.80671 0.59694 0.42978 0.0
C153 C 0.78179 0.6633 0.46124 0.0
C154 C 0.7729 0.63362 0.49553 0.0
C155 C 0.78457 0.60049 0.47762 0.0
C156 C 0.81176 0.62555 0.39169 0.0
C157 C 0.80059 0.65927 0.40778 0.0
H158 H 0.77404 0.57791 0.50053 0.0
H159 H 0.82526 0.62208 0.34918 0.0
H160 H 0.71501 0.54083 0.41804 0.0
H161 H 0.63709 0.55964 0.18314 0.0
H162 H 1.00726 0.59575 0.53127 0.0
H163 H 0.75664 0.63606 0.53516 0.0
H164 H 0.8066 0.6819 0.3791 0.0
C165 C 0.38122 0.58709 0.25645 0.0
C166 C 0.43446 0.59064 0.29362 0.0
N167 N 0.45579 0.56291 0.27566 0.0
N168 N 0.36907 0.55729 0.21516 0.0
C169 C 0.41543 0.54249 0.23061 0.0
H170 H 0.35305 0.60567 0.25716 0.0
Co171 Co 0.30159 0.54169 0.15074 0.0
C172 C 0.35616 0.52008 0.0495 0.0
O173 O 0.39855 0.53911 0.07928 0.0
N174 N 0.23376 0.52541 0.0859 0.0
C175 C 0.16532 0.50994 0.97861 0.0
C176 C 0.21358 0.52509 1.00933 0.0
C177 C 0.19608 0.51088 0.10019 0.0
N178 N 0.15421 0.501 0.03557 0.0
O179 O 0.31606 0.49942 0.2122 0.0
H180 H 0.23281 0.53518 0.97733 0.0
H181 H 0.19928 0.5073 0.15651 0.0
O182 O 0.32323 0.52042 0.07665 0.0
C183 C 0.31039 0.50767 0.27096 0.0
O184 O 0.29428 0.5396 0.27482 0.0
N185 N 0.28627 0.58516 0.09863 0.0
C186 C 0.2669 0.65433 0.04575 0.0
C187 C 0.30966 0.63599 0.04849 0.0
C188 C 0.31926 0.60173 0.07673 0.0
C189 C 0.24417 0.60273 0.09597 0.0
C190 C 0.23358 0.63743 0.06935 0.0
H191 H 0.35499 0.58969 0.08538 0.0
H192 H 0.21985 0.59035 0.11773 0.0
H193 H 0.41974 0.51756 0.20789 0.0
H194 H 0.45577 0.61292 0.32721 0.0
H195 H 0.14017 0.50569 0.91887 0.0
H196 H 0.33703 0.64879 0.03286 0.0
H197 H 0.20091 0.65131 0.06969 0.0
C198 C 0.37595 0.36254 0.74549 0.0
C199 C 0.42924 0.3594 0.78312 0.0
N200 N 0.4498 0.3897 0.7737 0.0
N201 N 0.36308 0.39442 0.71118 0.0
C202 C 0.40907 0.41083 0.73216 0.0
H203 H 0.34831 0.34244 0.74145 0.0
Co204 Co 0.2952 0.41116 0.65104 0.0
C205 C 0.34716 0.43303 0.54762 0.0
O206 O 0.39083 0.41544 0.58253 0.0
N207 N 0.22691 0.42829 0.59161 0.0
C208 C 0.1526 0.44087 0.48966 0.0
C209 C 0.19969 0.42407 0.51568 0.0
C210 C 0.19518 0.44791 0.61035 0.0
N211 N 0.14993 0.456 0.54915 0.0
O212 O 0.313 0.4529 0.71237 0.0
H213 H 0.21353 0.41006 0.48091 0.0
H214 H 0.20501 0.45666 0.66716 0.0
O215 O 0.31298 0.43264 0.57249 0.0
C216 C 0.30741 0.44477 0.77129 0.0
O217 O 0.28822 0.41367 0.77371 0.0
N218 N 0.27724 0.3682 0.599 0.0
C219 C 0.25454 0.2998 0.54555 0.0
C220 C 0.2949 0.31819 0.54102 0.0
C221 C 0.30618 0.35219 0.56926 0.0
C222 C 0.23762 0.3505 0.60374 0.0
C223 C 0.22525 0.31617 0.57668 0.0
H224 H 0.33999 0.36456 0.571 0.0
H225 H 0.2167 0.36262 0.63122 0.0
H226 H 0.41279 0.43733 0.71485 0.0
H227 H 0.4512 0.33616 0.81184 0.0
H228 H 0.12323 0.44295 0.43118 0.0
H229 H 0.31916 0.30566 0.51928 0.0
H230 H 0.19463 0.3021 0.58261 0.0
C231 C 0.70841 0.4411 0.77626 0.0
C232 C 0.65697 0.43936 0.75991 0.0
N233 N 0.65338 0.4211 0.81556 0.0
N234 N 0.73783 0.42408 0.84248 0.0
C235 C 0.70247 0.41195 0.86469 0.0
H236 H 0.72232 0.45307 0.73946 0.0
Co237 Co 0.81117 0.41701 0.88753 0.0
C238 C 0.85095 0.444 0.04773 0.0
O239 O 0.89055 0.42212 0.07204 0.0
N240 N 0.88352 0.41045 0.92935 0.0
C241 C 0.96021 0.39126 0.94331 0.0
C242 C 0.90903 0.38238 0.92087 0.0
C243 C 0.92003 0.43602 0.95679 0.0
N244 N 0.96704 0.42506 0.966 0.0
O245 O 0.81972 0.45845 0.83786 0.0
H246 H 0.89105 0.35779 0.89517 0.0
H247 H 0.91155 0.4629 0.9654 0.0
O248 O 0.81786 0.44454 0.9772 0.0
C249 C 0.81987 0.44869 0.77601 0.0
O250 O 0.80902 0.4156 0.75589 0.0
N251 N 0.80319 0.37366 0.92765 0.0
C252 C 0.78479 0.30474 0.95664 0.0
C253 C 0.79811 0.3303 1.01285 0.0
C254 C 0.80703 0.36476 0.99723 0.0
C255 C 0.78965 0.34887 0.87227 0.0
C256 C 0.78039 0.31412 0.88553 0.0
H257 H 0.8155 0.38364 0.04105 0.0
H258 H 0.78606 0.35628 0.81715 0.0
H259 H 0.71181 0.39553 0.91398 0.0
H260 H 0.62439 0.44945 0.70944 0.0
H261 H 0.98967 0.37467 0.94015 0.0
H262 H 0.80129 0.32365 0.06823 0.0
H263 H 0.77001 0.29479 0.84095 0.0
C264 C 0.34251 -0.01371 0.11242 0.0
C265 C 0.30028 0.96515 0.06377 0.0
C266 C 0.25479 0.97875 0.14052 0.0
C267 C 0.29896 -0.00219 0.19201 0.0
N268 N 0.38875 0.01319 0.23587 0.0
N269 N 0.2153 0.94141 0.03009 0.0
C270 C 0.34388 -0.00028 0.18026 0.0
C271 C 0.25597 0.96167 0.07713 0.0
N272 N 0.38048 -0.00532 0.09189 0.0
N273 N 0.211 0.97783 0.15065 0.0
H274 H 0.21134 0.93314 0.97795 0.0
H275 H 0.18577 0.93267 0.04241 0.0
H276 H 0.21029 -0.01409 0.20035 0.0
H277 H 0.17486 0.96966 0.10944 0.0
H278 H 0.40985 0.01276 0.12098 0.0
H279 H 0.37932 -0.01365 0.04087 0.0
H280 H 0.42434 0.01213 0.23442 0.0
H281 H 0.39142 0.02195 0.28743 0.0
C282 C 0.73968 0.97895 0.3384 0.0
C283 C 0.77528 0.0047 0.33863 0.0
C284 C 0.82516 -0.00164 0.47707 0.0
C285 C 0.79251 0.97029 0.47614 0.0
N286 N 0.72377 0.92959 0.40268 0.0
N287 N 0.85763 0.03386 0.40561 0.0
C288 C 0.75095 0.95947 0.40598 0.0
C289 C 0.81967 0.01295 0.40735 0.0
N290 N 0.69427 0.97374 0.27425 0.0
N291 N 0.8605 0.01186 0.54489 0.0
H292 H 0.85561 0.04398 0.35522 0.0
H293 H 0.89332 0.03805 0.45255 0.0
H294 H 0.86477 0.00237 0.59711 0.0
H295 H 0.88179 0.03461 0.54936 0.0
H296 H 0.66378 0.95866 0.27305 0.0
H297 H 0.6856 -0.01339 0.22327 0.0
H298 H 0.69753 0.91812 0.35201 0.0
H299 H 0.7304 0.91449 0.45015 0.0
C300 C 0.79836 -0.01802 0.87702 0.0
C301 C 0.75643 0.96113 0.82595 0.0
C302 C 0.71115 0.97029 0.90405 0.0
C303 C 0.74908 -0.00488 0.94874 0.0
N304 N 0.82957 0.02519 0.97754 0.0
N305 N 0.66926 0.93927 0.78519 0.0
C306 C 0.79315 0.00099 0.93555 0.0
C307 C 0.71187 0.95633 0.83805 0.0
N308 N 0.84405 -0.01768 0.87192 0.0
N309 N 0.67538 0.95895 0.9267 0.0
H310 H 0.66782 0.92837 0.73602 0.0
H311 H 0.63361 0.93873 0.78657 0.0
H312 H 0.67548 0.96747 0.97686 0.0
H313 H 0.64974 0.93832 0.9009 0.0
H314 H 0.87813 -0.00651 0.91269 0.0
H315 H 0.84915 0.96908 0.82965 0.0
H316 H 0.8581 0.03452 0.96358 0.0
H317 H 0.83039 0.0368 0.02546 0.0
C318 C 0.25357 -0.01677 0.64352 0.0
C319 C 0.29525 0.96045 0.68913 0.0
C320 C 0.33419 0.96934 0.6021 0.0
C321 C 0.29273 -0.00792 0.55696 0.0
N322 N 0.20538 0.01116 0.5208 0.0
N323 N 0.38003 0.93701 0.72029 0.0
C324 C 0.25027 -0.00357 0.57381 0.0
C325 C 0.33674 0.95476 0.67029 0.0
N326 N 0.21789 -0.00679 0.66737 0.0
N327 N 0.36955 0.96026 0.57694 0.0
H328 H 0.38383 0.92739 0.77208 0.0
H329 H 0.41393 0.93465 0.71439 0.0
H330 H 0.36683 0.96948 0.52536 0.0
H331 H 0.39824 0.9412 0.60251 0.0
H332 H 0.18995 0.0126 0.64038 0.0
H333 H 0.21932 -0.01486 0.71864 0.0
H334 H 0.1711 0.0125 0.52596 0.0
H335 H 0.20056 0.01735 0.46683 0.0
C336 C 0.79648 0.47964 0.17936 0.0
C337 C 0.84048 0.49824 0.23243 0.0
C338 C 0.88636 0.48609 0.15621 0.0
C339 C 0.84389 0.46553 0.10553 0.0
N340 N 0.75995 0.43966 0.07305 0.0
N341 N 0.93076 0.51318 0.27982 0.0
C342 C 0.7992 0.46158 0.11801 0.0
C343 C 0.88642 0.49961 0.22322 0.0
N344 N 0.75131 0.48029 0.18582 0.0
N345 N 0.9258 0.4941 0.13845 0.0
H346 H 0.9322 0.52305 0.32981 0.0
H347 H 0.96705 0.51148 0.28075 0.0
H348 H 0.92636 0.48571 0.08865 0.0
H349 H 0.95515 0.51198 0.1688 0.0
H350 H 0.71567 0.4721 0.14321 0.0
H351 H 0.74889 0.49048 0.23293 0.0
H352 H 0.73015 0.43167 0.08554 0.0
H353 H 0.75818 0.42793 0.02467 0.0
C354 C 0.36434 0.49585 0.40965 0.0
C355 C 0.32521 0.48416 0.3385 0.0
C356 C 0.30206 0.43726 0.40397 0.0
C357 C 0.33702 0.45163 0.47544 0.0
N358 N 0.39769 0.49684 0.54665 0.0
N359 N 0.25494 0.44483 0.26724 0.0
C360 C 0.36732 0.48147 0.47829 0.0
C361 C 0.29383 0.45495 0.33548 0.0
N362 N 0.39968 0.52016 0.41129 0.0
N363 N 0.27806 0.40598 0.4013 0.0
H364 H 0.25071 0.45544 0.21607 0.0
H365 H 0.22583 0.42717 0.2615 0.0
H366 H 0.28197 0.39277 0.44976 0.0
H367 H 0.25714 0.3919 0.35162 0.0
H368 H 0.43235 0.5274 0.46048 0.0
H369 H 0.39916 0.53042 0.36198 0.0
H370 H 0.41639 0.52085 0.55213 0.0
H371 H 0.40071 0.48711 0.59802 0.0
C372 C 0.3161 0.51912 0.90642 0.0
C373 C 0.34383 0.50144 0.97733 0.0
C374 C 0.35906 0.45159 0.9117 0.0
C375 C 0.32582 0.46719 0.84031 0.0
N376 N 0.27012 0.51517 0.76909 0.0
N377 N 0.38771 0.44963 0.04771 0.0
C378 C 0.30403 0.50097 0.83741 0.0
C379 C 0.36426 0.46734 0.97999 0.0
N380 N 0.30228 0.5536 0.90502 0.0
N381 N 0.38719 0.42225 0.91413 0.0
H382 H 0.3929 0.4606 0.099 0.0
H383 H 0.39826 0.42319 0.0524 0.0
H384 H 0.38566 0.41072 0.86542 0.0
H385 H 0.41599 0.41154 0.9641 0.0
H386 H 0.28773 0.56929 0.85635 0.0
H387 H 0.30873 0.56736 0.9538 0.0
H388 H 0.24715 0.53718 0.76363 0.0
H389 H 0.26293 0.504 0.71726 0.0
C390 C 0.81177 0.50737 0.70795 0.0
C391 C 0.83206 0.47263 0.72594 0.0
C392 C 0.86065 0.47664 0.62603 0.0
C393 C 0.84311 0.51195 0.61127 0.0
N394 N 0.81898 0.56414 0.65845 0.0
N395 N 0.89221 0.42995 0.71981 0.0
C396 C 0.82402 0.52839 0.65846 0.0
C397 C 0.86125 0.45887 0.68999 0.0
N398 N 0.77902 0.52018 0.73478 0.0
N399 N 0.87778 0.46016 0.58017 0.0
H400 H 0.89731 0.41794 0.77035 0.0
H401 H 0.91787 0.42071 0.70007 0.0
H402 H 0.88045 0.47275 0.535 0.0
H403 H 0.88581 0.43327 0.58381 0.0
H404 H 0.75847 0.54368 0.71519 0.0
H405 H 0.76852 0.50635 0.77123 0.0
H406 H 0.81004 0.5773 0.69725 0.0
H407 H 0.82974 0.58105 0.62656 0.0
C408 C 0.55682 0.00314 0.46908 0.0
C409 C 0.56939 0.97601 0.52414 0.0
C410 C 0.49736 -0.0054 0.54951 0.0
C411 C 0.48089 0.01867 0.48797 0.0
N412 N 0.49288 0.04545 0.38641 0.0
N413 N 0.54954 0.9432 0.61202 0.0
C414 C 0.51032 0.023 0.44723 0.0
C415 C 0.53928 0.97115 0.56357 0.0
N416 N 0.59023 0.01017 0.43911 0.0
N417 N 0.47382 -0.00487 0.59585 0.0
H418 H 0.57979 0.92555 0.62271 0.0
H419 H 0.52599 0.93604 0.63709 0.0
H420 H 0.44372 0.01261 0.58716 0.0
H421 H 0.48691 0.98063 0.64606 0.0
H422 H 0.58619 0.03149 0.4035 0.0
H423 H 0.62474 -0.00385 0.4551 0.0
H424 H 0.50923 0.04725 0.34914 0.0
H425 H 0.45955 0.06079 0.37008 0.0
C426 C 0.50283 0.95934 0.06019 0.0
C427 C 0.48279 0.94302 0.98812 0.0
C428 C 0.54647 0.97428 0.95976 0.0
C429 C 0.56673 -0.00943 0.03173 0.0
N430 N 0.56836 -0.00248 0.15343 0.0
N431 N 0.49282 0.92792 0.87761 0.0
C432 C 0.54617 -0.01742 0.08307 0.0
C433 C 0.50694 0.94838 0.9404 0.0
N434 N 0.48001 0.95239 0.10614 0.0
N435 N 0.56348 -0.01506 0.90871 0.0
H436 H 0.46486 0.90826 0.86352 0.0
H437 H 0.51184 0.92816 0.84366 0.0
H438 H 0.59224 0.00398 0.92162 0.0
H439 H 0.5468 0.97688 0.85234 0.0
H440 H 0.48974 0.96463 0.15775 0.0
H441 H 0.44985 0.93432 0.09142 0.0
H442 H 0.55794 -0.00812 0.19627 0.0
H443 H 0.59938 0.01503 0.17029 0.0
C444 C 1.03458 0.49377 0.56664 0.0
C445 C 1.02216 0.52257 0.51526 0.0
C446 C 0.10114 0.51135 0.50172 0.0
C447 C 0.10967 0.47989 0.54447 0.0
N448 N 0.08185 0.43871 0.61139 0.0
N449 N 1.03842 0.55465 0.42246 0.0
C450 C 0.07582 0.47049 0.57578 0.0
C451 C 0.05422 0.53041 0.47996 0.0
N452 N 1.00772 0.4893 0.6079 0.0
N453 N 0.13857 0.52327 0.48315 0.0
H454 H 1.00302 0.5679 0.40211 0.0
H455 H 0.05777 0.55884 0.38958 0.0
H456 H 0.17401 0.51027 0.50045 0.0
H457 H 0.13673 0.54772 0.45787 0.0
H458 H 1.01763 0.47064 0.65111 0.0
H459 H 0.97822 0.50646 0.6034 0.0
H460 H 0.05535 0.42865 0.62875 0.0
H461 H 0.11157 0.4212 0.6185 0.0
C462 C 0.05836 0.49905 0.97817 0.0
C463 C 0.10706 0.48364 0.02619 0.0
C464 C 0.06177 0.4331 0.04611 0.0
C465 C 1.01381 0.4458 0.98846 0.0
N466 N 0.96949 0.48787 0.88714 0.0
N467 N 0.15482 0.43183 0.09136 0.0
C468 C 1.01271 0.47816 0.95127 0.0
C469 C 0.10882 0.44956 0.05684 0.0
N470 N 0.05582 0.53374 0.95854 0.0
N471 N 0.06235 0.40577 0.09158 0.0
H472 H 0.18916 0.44194 0.0941 0.0
H473 H 0.15754 0.40568 0.1091 0.0
H474 H 1.02836 0.39426 0.08742 0.0
H475 H 0.09606 0.39735 0.13839 0.0
H476 H 1.0208 0.54714 0.9286 0.0
H477 H 0.0886 0.54983 0.97939 0.0
H478 H 0.96846 0.5097 0.85428 0.0
H479 H 0.93684 0.47194 0.86174 0.0
C480 C 0.04351 0.02649 0.27347 0.0
C481 C 0.06522 0.05453 0.24958 0.0
C482 C 0.98341 0.08732 0.20451 0.0
C483 C 0.96329 0.06081 0.2345 0.0
N484 N 0.97598 0.00755 0.30693 0.0
N485 N 0.06014 0.11445 0.20695 0.0
C486 C 0.99386 0.03094 0.27155 0.0
C487 C 1.03629 0.08578 0.21912 0.0
N488 N 0.06973 -0.00471 0.29556 0.0
N489 N 0.95128 0.11336 0.15998 0.0
H490 H 0.09941 0.11442 0.21985 0.0
H491 H 0.04257 0.13911 0.19148 0.0
H492 H 0.91191 0.11441 0.14633 0.0
H493 H 0.96229 0.13175 0.1307 0.0
H494 H 0.05401 0.97263 0.30674 0.0
H495 H 0.10595 -0.00865 0.29707 0.0
H496 H 0.99834 -0.01297 0.3414 0.0
H497 H 0.93983 0.01034 0.30629 0.0
C498 C 0.05528 0.9301 0.8197 0.0
C499 C 0.07019 0.90697 0.77666 0.0
C500 C 0.98297 0.88146 0.71876 0.0
C501 C 0.9693 0.90225 0.7665 0.0
N502 N 0.99344 0.94332 0.86862 0.0
N503 N 0.05245 0.85552 0.69881 0.0
C504 C 1.00587 0.92575 0.81893 0.0
C505 C 1.03516 0.88111 0.7302 0.0
N506 N 0.08748 0.95702 0.85862 0.0
N507 N 0.94548 0.8632 0.66028 0.0
H508 H 0.09107 0.85397 0.70855 0.0
H509 H 1.03008 0.83395 0.67004 0.0
H510 H 0.90639 0.8641 0.64807 0.0
H511 H 0.9522 0.85022 0.61922 0.0
H512 H 0.07711 0.97679 0.88549 0.0
H513 H 0.12345 0.96099 0.85937 0.0
H514 H 1.01987 0.95835 0.91331 0.0
H515 H 0.95723 0.94079 0.86796 0.0
C516 C 0.53848 0.52912 0.32299 0.0
C517 C 0.50884 0.55961 0.28739 0.0
C518 C 0.58435 0.58486 0.27981 0.0
C519 C 0.6112 0.55247 0.30418 0.0
N520 N 0.61223 0.49214 0.34221 0.0
N521 N 0.50033 0.61261 0.21447 0.0
C522 C 0.58798 0.52412 0.3245 0.0
C523 C 0.53094 0.58658 0.26132 0.0
N524 N 0.51974 0.50545 0.35665 0.0
N525 N 0.61027 0.61417 0.27559 0.0
H526 H 0.46013 0.61316 0.19378 0.0
H527 H 0.51405 0.63114 0.18882 0.0
H528 H 0.65011 0.61399 0.29223 0.0
H529 H 0.59354 0.6392 0.26417 0.0
H530 H 0.54133 0.48422 0.38927 0.0
H531 H 0.48416 0.50897 0.35748 0.0
H532 H 0.59499 0.46946 0.35023 0.0
H533 H 0.64823 0.48783 0.34326 0.0
C534 C 0.58488 0.42777 0.85713 0.0
C535 C 0.60554 0.40955 0.81447 0.0
C536 C 0.52353 0.37812 0.74554 0.0
C537 C 0.50309 0.3955 0.78961 0.0
N538 N 0.51526 0.43272 0.89403 0.0
N539 N 0.60002 0.36245 0.73088 0.0
C540 C 0.53424 0.41909 0.84771 0.0
C541 C 0.57647 0.38303 0.76282 0.0
N542 N 0.61317 0.45414 0.9044 0.0
N543 N 0.49147 0.3585 0.6845 0.0
H544 H 0.63894 0.36562 0.74318 0.0
H545 H 0.58269 0.3404 0.69808 0.0
H546 H 0.45211 0.35511 0.66893 0.0
H547 H 0.50262 0.34811 0.6454 0.0
H548 H 0.59887 0.47096 0.93201 0.0
H549 H 0.65069 0.46027 0.91309 0.0
H550 H 0.53709 0.44784 0.94168 0.0
H551 H 0.47814 0.42677 0.8873 0.0
C552 C 0.28573 0.23796 0.57431 0.0
C553 C 0.24771 0.26212 0.52562 0.0
C554 C 0.20467 0.21514 0.43455 0.0
C555 C 0.24721 0.1926 0.47767 0.0
N556 N 0.33179 0.18356 0.58402 0.0
N557 N 0.17261 0.27517 0.4073 0.0
C558 C 0.28854 0.20411 0.5468 0.0
C559 C 0.20721 0.25108 0.45535 0.0
N560 N 0.31891 0.24741 0.64703 0.0
N561 N 0.16169 0.20198 0.37461 0.0
H562 H 0.17277 0.3016 0.42145 0.0
H563 H 0.14593 0.26951 0.35166 0.0
H564 H 0.15864 0.17567 0.35825 0.0
H565 H 0.12745 0.21624 0.34538 0.0
H566 H 0.34403 0.22975 0.68753 0.0
H567 H 0.31778 0.27211 0.66913 0.0
H568 H 0.36549 0.19238 0.62982 0.0
H569 H 0.33595 0.15867 0.56543 0.0
C570 C 0.81964 0.24622 0.01614 0.0
C571 C 0.77616 0.26799 0.973 0.0
C572 C 0.71704 0.21959 0.96144 0.0
C573 C 0.76035 0.19902 1.01058 0.0
N574 N 0.85221 0.19381 0.09394 0.0
N575 N 0.68354 0.27769 0.91172 0.0
C576 C 0.81156 0.21259 0.04043 0.0
C577 C 0.72477 0.2553 0.94735 0.0
N578 N 0.86855 0.25741 0.03222 0.0
N579 N 0.6688 0.2047 0.92702 0.0
H580 H 0.6877 0.30392 0.89953 0.0
H581 H 0.64549 0.27113 0.89908 0.0
H582 H 0.66173 0.17872 0.93695 0.0
H583 H 0.63656 0.2171 0.88439 0.0
H584 H 0.90127 0.24128 0.05621 0.0
H585 H 0.87603 0.28205 0.01577 0.0
H586 H 0.88949 0.20395 0.12401 0.0
H587 H 0.84799 0.16893 0.11304 0.0
C588 C 0.72542 0.71667 0.43606 0.0
C589 C 0.77231 0.6987 0.48266 0.0
C590 C 0.80014 0.74719 0.57315 0.0
C591 C 0.7559 0.76665 0.52269 0.0
N592 N 0.67853 0.77218 0.40364 0.0
N593 N 0.85719 0.69755 0.59052 0.0
C594 C 0.71889 0.75197 0.45349 0.0
C595 C 0.81043 0.71408 0.55008 0.0
N596 N 0.68688 0.69967 0.37625 0.0
N597 N 0.83179 0.76023 0.64358 0.0
H598 H 0.866 0.67296 0.576 0.0
H599 H 0.8888 0.70925 0.63512 0.0
H600 H 0.82591 0.7847 0.66218 0.0
H601 H 0.86138 0.74571 0.68602 0.0
H602 H 0.64972 0.70995 0.34485 0.0
H603 H 0.6908 0.67394 0.36128 0.0
H604 H 0.65357 0.76444 0.34857 0.0
H605 H 0.67183 0.79784 0.41572 0.0
C606 C 0.21689 0.74068 0.93766 0.0
C607 C 0.2597 0.76286 0.98039 0.0
C608 C 0.29938 0.71599 0.07453 0.0
C609 C 0.261 0.69228 0.02583 0.0
N610 N 0.18582 0.6808 0.90683 0.0
N611 N 0.34603 0.76993 0.08351 0.0
C612 C 0.22013 0.70428 0.95636 0.0
C613 C 0.30206 0.75017 0.04757 0.0
N614 N 0.17281 0.75455 0.88037 0.0
N615 N 0.33278 0.70598 0.14703 0.0
H616 H 0.35041 0.79482 0.06468 0.0
H617 H 0.38007 0.76027 0.12786 0.0
H618 H 0.33134 0.68125 0.16927 0.0
H619 H 0.35822 0.72334 0.18734 0.0
H620 H 0.13856 0.74035 0.8521 0.0
H621 H 0.16891 0.78123 0.86591 0.0
H622 H 0.15883 0.68752 0.85179 0.0
H623 H 0.1869 0.65393 0.91858 0.0
loop_
_geom_bond_atom_site_label_1
_geom_bond_atom_site_label_2
_geom_bond_distance
_geom_bond_site_symmetry_2
_ccdc_geom_bond_type
C0 C1 1.351 . S
C0 N3 1.368 . S
C0 H5 0.931 . S
C1 C0 1.351 . S
C1 N2 1.373 . S
C1 H29 0.930 . S
N2 C1 1.373 . S
N2 C4 1.340 . S
N3 C0 1.368 . S
N3 C4 1.321 . S
N3 Co6 2.135 . S
C4 N2 1.340 . S
C4 N3 1.321 . S
C4 H28 0.930 . S
H5 C0 0.931 . S
Co6 N3 2.135 . S
Co6 N9 2.121 . S
Co6 O14 2.055 . S
Co6 O17 2.039 . S
Co6 N20 2.140 . S
C7 O8 1.227 . S
C7 O17 1.265 . S
O8 C7 1.227 . S
N9 Co6 2.121 . S
N9 C11 1.375 . S
N9 C12 1.313 . S
C10 C11 1.338 . S
C10 N13 1.377 . S
C10 H30 0.930 . S
C11 N9 1.375 . S
C11 C10 1.338 . S
C11 H15 0.931 . S
C12 N9 1.313 . S
C12 N13 1.344 . S
C12 H16 0.930 . S
N13 C10 1.377 . S
N13 C12 1.344 . S
O14 Co6 2.055 . S
O14 C18 1.253 . S
H15 C11 0.931 . S
H16 C12 0.930 . S
O17 Co6 2.039 . S
O17 C7 1.265 . S
C18 O14 1.253 . S
C18 O19 1.227 . S
O19 C18 1.227 . S
N20 Co6 2.140 . S
N20 C23 1.346 . S
N20 C24 1.345 . S
C21 C22 1.387 . S
C21 C25 1.391 . S
C22 C21 1.387 . S
C22 C23 1.369 . S
C22 H31 0.929 . S
C23 N20 1.346 . S
C23 C22 1.369 . S
C23 H26 0.928 . S
C24 N20 1.345 . S
C24 C25 1.371 . S
C24 H27 0.931 . S
C25 C21 1.391 . S
C25 C24 1.371 . S
C25 H32 0.930 . S
H26 C23 0.928 . S
H27 C24 0.931 . S
H28 C4 0.930 . S
H29 C1 0.930 . S
H30 C10 0.930 . S
H31 C22 0.929 . S
H32 C25 0.930 . S
C33 C34 1.351 . S
C33 N36 1.368 . S
C33 H38 0.931 . S
C34 C33 1.351 . S
C34 N35 1.373 . S
C34 H62 0.930 . S
N35 C34 1.373 . S
N35 C37 1.340 . S
N36 C33 1.368 . S
N36 C37 1.321 . S
N36 Co39 2.135 . S
C37 N35 1.340 . S
C37 N36 1.321 . S
C37 H61 0.930 . S
H38 C33 0.931 . S
Co39 N36 2.135 . S
Co39 N42 2.121 . S
Co39 O47 2.055 . S
Co39 O50 2.039 . S
Co39 N53 2.140 . S
C40 O41 1.227 . S
C40 O50 1.265 1_556 S
O41 C40 1.227 . S
N42 Co39 2.121 . S
N42 C44 1.375 1_554 S
N42 C45 1.313 . S
C43 C44 1.338 . S
C43 N46 1.377 1_556 S
C43 H63 0.930 . S
C44 N42 1.375 1_556 S
C44 C43 1.338 . S
C44 H48 0.931 . S
C45 N42 1.313 . S
C45 N46 1.344 . S
C45 H49 0.930 . S
N46 C43 1.377 1_554 S
N46 C45 1.344 . S
O47 Co39 2.055 . S
O47 C51 1.253 . S
H48 C44 0.931 . S
H49 C45 0.930 . S
O50 Co39 2.039 . S
O50 C40 1.265 1_554 S
C51 O47 1.253 . S
C51 O52 1.227 . S
O52 C51 1.227 . S
N53 Co39 2.140 . S
N53 C56 1.346 . S
N53 C57 1.345 . S
C54 C55 1.387 . S
C54 C58 1.391 . S
C55 C54 1.387 . S
C55 C56 1.369 . S
C55 H64 0.929 . S
C56 N53 1.346 . S
C56 C55 1.369 . S
C56 H59 0.928 . S
C57 N53 1.345 . S
C57 C58 1.371 . S
C57 H60 0.931 . S
C58 C54 1.391 . S
C58 C57 1.371 . S
C58 H65 0.930 . S
H59 C56 0.928 . S
H60 C57 0.931 . S
H61 C37 0.930 . S
H62 C34 0.930 . S
H63 C43 0.930 . S
H64 C55 0.929 . S
H65 C58 0.930 . S
C66 C67 1.351 . S
C66 N69 1.368 . S
C66 H71 0.931 . S
C67 C66 1.351 . S
C67 N68 1.373 . S
C67 H95 0.930 . S
N68 C67 1.373 . S
N68 C70 1.340 . S
N69 C66 1.368 . S
N69 C70 1.321 . S
N69 Co72 2.135 . S
C70 N68 1.340 . S
C70 N69 1.321 . S
C70 H94 0.930 . S
H71 C66 0.931 . S
Co72 N69 2.135 . S
Co72 N75 2.121 . S
Co72 O80 2.055 . S
Co72 O83 2.039 . S
Co72 N86 2.140 . S
C73 O74 1.227 . S
C73 O83 1.265 . S
O74 C73 1.227 . S
N75 Co72 2.121 . S
N75 C77 1.375 . S
N75 C78 1.313 . S
C76 C77 1.338 . S
C76 N79 1.377 . S
C76 H96 0.930 . S
C77 N75 1.375 . S
C77 C76 1.338 . S
C77 H81 0.931 . S
C78 N75 1.313 . S
C78 N79 1.344 . S
C78 H82 0.930 . S
N79 C76 1.377 . S
N79 C78 1.344 . S
O80 Co72 2.055 . S
O80 C84 1.253 . S
H81 C77 0.931 . S
H82 C78 0.930 . S
O83 Co72 2.039 . S
O83 C73 1.265 . S
C84 O80 1.253 . S
C84 O85 1.227 . S
O85 C84 1.227 . S
N86 Co72 2.140 . S
N86 C89 1.346 . S
N86 C90 1.345 . S
C87 C88 1.387 . S
C87 C91 1.391 . S
C88 C87 1.387 . S
C88 C89 1.369 . S
C88 H97 0.929 . S
C89 N86 1.346 . S
C89 C88 1.369 . S
C89 H92 0.928 . S
C90 N86 1.345 . S
C90 C91 1.371 . S
C90 H93 0.931 . S
C91 C87 1.391 . S
C91 C90 1.371 . S
C91 H98 0.930 . S
H92 C89 0.928 . S
H93 C90 0.931 . S
H94 C70 0.930 . S
H95 C67 0.930 . S
H96 C76 0.930 . S
H97 C88 0.929 . S
H98 C91 0.930 . S
C99 C100 1.351 . S
C99 N102 1.368 . S
C99 H104 0.931 . S
C100 C99 1.351 . S
C100 N101 1.373 . S
C100 H128 0.930 . S
N101 C100 1.373 . S
N101 C103 1.340 . S
N102 C99 1.368 . S
N102 C103 1.321 . S
N102 Co105 2.135 . S
C103 N101 1.340 . S
C103 N102 1.321 . S
C103 H127 0.930 . S
H104 C99 0.931 . S
Co105 N102 2.135 . S
Co105 N108 2.121 . S
Co105 O113 2.055 . S
Co105 O116 2.039 . S
Co105 N119 2.140 . S
C106 O107 1.227 . S
C106 O116 1.265 1_554 S
O107 C106 1.227 . S
N108 Co105 2.121 . S
N108 C110 1.375 1_556 S
N108 C111 1.313 . S
C109 C110 1.338 . S
C109 N112 1.377 1_554 S
C109 H129 0.930 . S
C110 N108 1.375 1_554 S
C110 C109 1.338 . S
C110 H114 0.931 . S
C111 N108 1.313 . S
C111 N112 1.344 . S
C111 H115 0.930 . S
N112 C109 1.377 1_556 S
N112 C111 1.344 . S
O113 Co105 2.055 . S
O113 C117 1.253 . S
H114 C110 0.931 . S
H115 C111 0.930 . S
O116 Co105 2.039 . S
O116 C106 1.265 1_556 S
C117 O113 1.253 . S
C117 O118 1.227 . S
O118 C117 1.227 . S
N119 Co105 2.140 . S
N119 C122 1.346 . S
N119 C123 1.345 . S
C120 C121 1.387 . S
C120 C124 1.391 . S
C121 C120 1.387 . S
C121 C122 1.369 . S
C121 H130 0.929 . S
C122 N119 1.346 . S
C122 C121 1.369 . S
C122 H125 0.928 . S
C123 N119 1.345 . S
C123 C124 1.371 . S
C123 H126 0.931 . S
C124 C120 1.391 . S
C124 C123 1.371 . S
C124 H131 0.930 . S
H125 C122 0.928 . S
H126 C123 0.931 . S
H127 C103 0.930 . S
H128 C100 0.930 . S
H129 C109 0.930 . S
H130 C121 0.929 . S
H131 C124 0.930 . S
C132 C133 1.351 . S
C132 N135 1.368 . S
C132 H137 0.931 . S
C133 C132 1.351 . S
C133 N134 1.373 . S
C133 H161 0.930 . S
N134 C133 1.373 . S
N134 C136 1.340 . S
N135 C132 1.368 . S
N135 C136 1.321 . S
N135 Co138 2.135 . S
C136 N134 1.340 . S
C136 N135 1.321 . S
C136 H160 0.930 . S
H137 C132 0.931 . S
Co138 N135 2.135 . S
Co138 N141 2.121 . S
Co138 O146 2.055 . S
Co138 O149 2.039 . S
Co138 N152 2.140 . S
C139 O140 1.227 . S
C139 O149 1.265 . S
O140 C139 1.227 . S
N141 Co138 2.121 . S
N141 C143 1.375 . S
N141 C144 1.313 . S
C142 C143 1.338 . S
C142 N145 1.377 . S
C142 H162 0.930 . S
C143 N141 1.375 . S
C143 C142 1.338 . S
C143 H147 0.931 . S
C144 N141 1.313 . S
C144 N145 1.344 . S
C144 H148 0.930 . S
N145 C142 1.377 . S
N145 C144 1.344 . S
O146 Co138 2.055 . S
O146 C150 1.253 . S
H147 C143 0.931 . S
H148 C144 0.930 . S
O149 Co138 2.039 . S
O149 C139 1.265 . S
C150 O146 1.253 . S
C150 O151 1.227 . S
O151 C150 1.227 . S
N152 Co138 2.140 . S
N152 C155 1.346 . S
N152 C156 1.345 . S
C153 C154 1.387 . S
C153 C157 1.391 . S
C154 C153 1.387 . S
C154 C155 1.369 . S
C154 H163 0.929 . S
C155 N152 1.346 . S
C155 C154 1.369 . S
C155 H158 0.928 . S
C156 N152 1.345 . S
C156 C157 1.371 . S
C156 H159 0.931 . S
C157 C153 1.391 . S
C157 C156 1.371 . S
C157 H164 0.930 . S
H158 C155 0.928 . S
H159 C156 0.931 . S
H160 C136 0.930 . S
H161 C133 0.930 . S
H162 C142 0.930 . S
H163 C154 0.929 . S
H164 C157 0.930 . S
C165 C166 1.351 . S
C165 N168 1.368 . S
C165 H170 0.931 . S
C166 C165 1.351 . S
C166 N167 1.373 . S
C166 H194 0.930 . S
N167 C166 1.373 . S
N167 C169 1.340 . S
N168 C165 1.368 . S
N168 C169 1.321 . S
N168 Co171 2.135 . S
C169 N167 1.340 . S
C169 N168 1.321 . S
C169 H193 0.930 . S
H170 C165 0.931 . S
Co171 N168 2.135 . S
Co171 N174 2.121 . S
Co171 O179 2.055 . S
Co171 O182 2.039 . S
Co171 N185 2.140 . S
C172 O173 1.227 . S
C172 O182 1.265 1_556 S
O173 C172 1.227 . S
N174 Co171 2.121 . S
N174 C176 1.375 1_554 S
N174 C177 1.313 . S
C175 C176 1.338 . S
C175 N178 1.377 1_556 S
C175 H195 0.930 . S
C176 N174 1.375 1_556 S
C176 C175 1.338 . S
C176 H180 0.931 . S
C177 N174 1.313 . S
C177 N178 1.344 . S
C177 H181 0.930 . S
N178 C175 1.377 1_554 S
N178 C177 1.344 . S
O179 Co171 2.055 . S
O179 C183 1.253 . S
H180 C176 0.931 . S
H181 C177 0.930 . S
O182 Co171 2.039 . S
O182 C172 1.265 1_554 S
C183 O179 1.253 . S
C183 O184 1.227 . S
O184 C183 1.227 . S
N185 Co171 2.140 . S
N185 C188 1.346 . S
N185 C189 1.345 . S
C186 C187 1.387 . S
C186 C190 1.391 . S
C187 C186 1.387 . S
C187 C188 1.369 . S
C187 H196 0.929 . S
C188 N185 1.346 . S
C188 C187 1.369 . S
C188 H191 0.928 . S
C189 N185 1.345 . S
C189 C190 1.371 . S
C189 H192 0.931 . S
C190 C186 1.391 . S
C190 C189 1.371 . S
C190 H197 0.930 . S
H191 C188 0.928 . S
H192 C189 0.931 . S
H193 C169 0.930 . S
H194 C166 0.930 . S
H195 C175 0.930 . S
H196 C187 0.929 . S
H197 C190 0.930 . S
C198 C199 1.351 . S
C198 N201 1.368 . S
C198 H203 0.931 . S
C199 C198 1.351 . S
C199 N200 1.373 . S
C199 H227 0.930 . S
N200 C199 1.373 . S
N200 C202 1.340 . S
N201 C198 1.368 . S
N201 C202 1.321 . S
N201 Co204 2.135 . S
C202 N200 1.340 . S
C202 N201 1.321 . S
C202 H226 0.930 . S
H203 C198 0.931 . S
Co204 N201 2.135 . S
Co204 N207 2.121 . S
Co204 O212 2.055 . S
Co204 O215 2.039 . S
Co204 N218 2.140 . S
C205 O206 1.227 . S
C205 O215 1.265 . S
O206 C205 1.227 . S
N207 Co204 2.121 . S
N207 C209 1.375 . S
N207 C210 1.313 . S
C208 C209 1.338 . S
C208 N211 1.377 . S
C208 H228 0.930 . S
C209 N207 1.375 . S
C209 C208 1.338 . S
C209 H213 0.931 . S
C210 N207 1.313 . S
C210 N211 1.344 . S
C210 H214 0.930 . S
N211 C208 1.377 . S
N211 C210 1.344 . S
O212 Co204 2.055 . S
O212 C216 1.253 . S
H213 C209 0.931 . S
H214 C210 0.930 . S
O215 Co204 2.039 . S
O215 C205 1.265 . S
C216 O212 1.253 . S
C216 O217 1.227 . S
O217 C216 1.227 . S
N218 Co204 2.140 . S
N218 C221 1.346 . S
N218 C222 1.345 . S
C219 C220 1.387 . S
C219 C223 1.391 . S
C220 C219 1.387 . S
C220 C221 1.369 . S
C220 H229 0.929 . S
C221 N218 1.346 . S
C221 C220 1.369 . S
C221 H224 0.928 . S
C222 N218 1.345 . S
C222 C223 1.371 . S
C222 H225 0.931 . S
C223 C219 1.391 . S
C223 C222 1.371 . S
C223 H230 0.930 . S
H224 C221 0.928 . S
H225 C222 0.931 . S
H226 C202 0.930 . S
H227 C199 0.930 . S
H228 C208 0.930 . S
H229 C220 0.929 . S
H230 C223 0.930 . S
C231 C232 1.351 . S
C231 N234 1.368 . S
C231 H236 0.931 . S
C232 C231 1.351 . S
C232 N233 1.373 . S
C232 H260 0.930 . S
N233 C232 1.373 . S
N233 C235 1.340 . S
N234 C231 1.368 . S
N234 C235 1.321 . S
N234 Co237 2.135 . S
C235 N233 1.340 . S
C235 N234 1.321 . S
C235 H259 0.930 . S
H236 C231 0.931 . S
Co237 N234 2.135 . S
Co237 N240 2.121 . S
Co237 O245 2.055 . S
Co237 O248 2.039 . S
Co237 N251 2.140 . S
C238 O239 1.227 . S
C238 O248 1.265 1_554 S
O239 C238 1.227 . S
N240 Co237 2.121 . S
N240 C242 1.375 1_556 S
N240 C243 1.313 . S
C241 C242 1.338 . S
C241 N244 1.377 1_554 S
C241 H261 0.930 . S
C242 N240 1.375 1_554 S
C242 C241 1.338 . S
C242 H246 0.931 . S
C243 N240 1.313 . S
C243 N244 1.344 . S
C243 H247 0.930 . S
N244 C241 1.377 1_556 S
N244 C243 1.344 . S
O245 Co237 2.055 . S
O245 C249 1.253 . S
H246 C242 0.931 . S
H247 C243 0.930 . S
O248 Co237 2.039 . S
O248 C238 1.265 1_556 S
C249 O245 1.253 . S
C249 O250 1.227 . S
O250 C249 1.227 . S
N251 Co237 2.140 . S
N251 C254 1.346 . S
N251 C255 1.345 . S
C252 C253 1.387 . S
C252 C256 1.391 . S
C253 C252 1.387 . S
C253 C254 1.369 . S
C253 H262 0.929 . S
C254 N251 1.346 . S
C254 C253 1.369 . S
C254 H257 0.928 . S
C255 N251 1.345 . S
C255 C256 1.371 . S
C255 H258 0.931 . S
C256 C252 1.391 . S
C256 C255 1.371 . S
C256 H263 0.930 . S
H257 C254 0.928 . S
H258 C255 0.931 . S
H259 C235 0.930 . S
H260 C232 0.930 . S
H261 C241 0.930 . S
H262 C253 0.929 . S
H263 C256 0.930 . S
C264 C265 1.363 1_545 S
C264 C270 1.379 . S
C264 N272 1.356 . S
C265 C264 1.363 1_565 S
C265 C271 1.363 . S
C266 C267 1.363 1_565 S
C266 C271 1.379 . S
C266 N273 1.356 . S
C267 C266 1.363 1_545 S
C267 C270 1.363 . S
N268 C270 1.356 . S
N268 H280 0.984 . S
N268 H281 0.985 . S
N269 C271 1.356 . S
N269 H274 0.984 . S
N269 H275 0.985 . S
C270 C264 1.379 . S
C270 C267 1.363 . S
C270 N268 1.356 . S
C271 C265 1.363 . S
C271 C266 1.379 . S
C271 N269 1.356 . S
N272 C264 1.356 . S
N272 H278 0.984 . S
N272 H279 0.984 . S
N273 C266 1.356 . S
N273 H276 0.984 . S
N273 H277 0.985 . S
H274 N269 0.984 . S
H275 N269 0.985 . S
H276 N273 0.984 . S
H277 N273 0.985 . S
H278 N272 0.984 . S
H279 N272 0.984 . S
H280 N268 0.984 . S
H281 N268 0.985 . S
C282 C283 1.363 1_565 S
C282 C288 1.379 . S
C282 N290 1.356 . S
C283 C282 1.363 1_545 S
C283 C289 1.363 . S
C284 C285 1.363 1_545 S
C284 C289 1.379 . S
C284 N291 1.356 . S
C285 C284 1.363 1_565 S
C285 C288 1.363 . S
N286 C288 1.356 . S
N286 H298 0.984 . S
N286 H299 0.985 . S
N287 C289 1.356 . S
N287 H292 0.984 . S
N287 H293 0.985 . S
C288 C282 1.379 . S
C288 C285 1.363 . S
C288 N286 1.356 . S
C289 C283 1.363 . S
C289 C284 1.379 . S
C289 N287 1.356 . S
N290 C282 1.356 . S
N290 H296 0.984 . S
N290 H297 0.984 . S
N291 C284 1.356 . S
N291 H294 0.984 . S
N291 H295 0.985 . S
H292 N287 0.984 . S
H293 N287 0.985 . S
H294 N291 0.984 . S
H295 N291 0.985 . S
H296 N290 0.984 . S
H297 N290 0.984 . S
H298 N286 0.984 . S
H299 N286 0.985 . S
C300 C301 1.363 1_545 S
C300 C306 1.379 . S
C300 N308 1.356 . S
C301 C300 1.363 1_565 S
C301 C307 1.363 . S
C302 C303 1.363 1_565 S
C302 C307 1.379 . S
C302 N309 1.356 . S
C303 C302 1.363 1_545 S
C303 C306 1.363 . S
N304 C306 1.356 . S
N304 H316 0.984 . S
N304 H317 0.997 . S
N305 C307 1.356 . S
N305 H310 0.984 . S
N305 H311 0.985 . S
C306 C300 1.379 . S
C306 C303 1.363 . S
C306 N304 1.356 . S
C307 C301 1.363 . S
C307 C302 1.379 . S
C307 N305 1.356 . S
N308 C300 1.356 . S
N308 H314 0.984 . S
N308 H315 0.984 1_545 S
N309 C302 1.356 . S
N309 H312 0.984 . S
N309 H313 0.985 . S
H310 N305 0.984 . S
H311 N305 0.985 . S
H312 N309 0.984 . S
H313 N309 0.985 . S
H314 N308 0.984 . S
H315 N308 0.984 1_565 S
H316 N304 0.984 . S
H317 N304 0.997 . S
C318 C319 1.363 1_545 S
C318 C324 1.379 . S
C318 N326 1.356 . S
C319 C318 1.363 1_565 S
C319 C325 1.363 . S
C320 C321 1.363 1_565 S
C320 C325 1.379 . S
C320 N327 1.356 . S
C321 C320 1.363 1_545 S
C321 C324 1.363 . S
N322 C324 1.356 . S
N322 H334 0.984 . S
N322 H335 0.985 . S
N323 C325 1.356 . S
N323 H328 0.984 . S
N323 H329 0.985 . S
C324 C318 1.379 . S
C324 C321 1.363 . S
C324 N322 1.356 . S
C325 C319 1.363 . S
C325 C320 1.379 . S
C325 N323 1.356 . S
N326 C318 1.356 . S
N326 H332 0.984 . S
N326 H333 0.984 . S
N327 C320 1.356 . S
N327 H330 0.984 . S
N327 H331 0.985 . S
H328 N323 0.984 . S
H329 N323 0.985 . S
H330 N327 0.984 . S
H331 N327 0.985 . S
H332 N326 0.984 . S
H333 N326 0.984 . S
H334 N322 0.984 . S
H335 N322 0.985 . S
C336 C337 1.363 . S
C336 C342 1.379 . S
C336 N344 1.356 . S
C337 C336 1.363 . S
C337 C343 1.363 . S
C338 C339 1.363 . S
C338 C343 1.379 . S
C338 N345 1.356 . S
C339 C338 1.363 . S
C339 C342 1.363 . S
N340 C342 1.356 . S
N340 H352 0.984 . S
N340 H353 0.985 1_554 S
N341 C343 1.356 . S
N341 H346 0.984 . S
N341 H347 0.985 . S
C342 C336 1.379 . S
C342 C339 1.363 . S
C342 N340 1.356 . S
C343 C337 1.363 . S
C343 C338 1.379 . S
C343 N341 1.356 . S
N344 C336 1.356 . S
N344 H350 0.984 . S
N344 H351 0.984 . S
N345 C338 1.356 . S
N345 H348 0.984 . S
N345 H349 0.985 . S
H346 N341 0.984 . S
H347 N341 0.985 . S
H348 N345 0.984 . S
H349 N345 0.985 . S
H350 N344 0.984 . S
H351 N344 0.984 . S
H352 N340 0.984 . S
H353 N340 0.985 1_556 S
C354 C355 1.363 . S
C354 C360 1.379 . S
C354 N362 1.356 . S
C355 C354 1.363 . S
C355 C361 1.363 . S
C356 C357 1.363 . S
C356 C361 1.379 . S
C356 N363 1.356 . S
C357 C356 1.363 . S
C357 C360 1.363 . S
N358 C360 1.356 . S
N358 H370 0.984 . S
N358 H371 0.985 . S
N359 C361 1.356 . S
N359 H364 0.984 . S
N359 H365 0.985 . S
C360 C354 1.379 . S
C360 C357 1.363 . S
C360 N358 1.356 . S
C361 C355 1.363 . S
C361 C356 1.379 . S
C361 N359 1.356 . S
N362 C354 1.356 . S
N362 H368 0.984 . S
N362 H369 0.984 . S
N363 C356 1.356 . S
N363 H366 0.984 . S
N363 H367 0.985 . S
H364 N359 0.984 . S
H365 N359 0.985 . S
H366 N363 0.984 . S
H367 N363 0.985 . S
H368 N362 0.984 . S
H369 N362 0.984 . S
H370 N358 0.984 . S
H371 N358 0.985 . S
C372 C373 1.363 . S
C372 C378 1.379 . S
C372 N380 1.356 . S
C373 C372 1.363 . S
C373 C379 1.363 . S
C374 C375 1.363 . S
C374 C379 1.379 . S
C374 N381 1.356 . S
C375 C374 1.363 . S
C375 C378 1.363 . S
N376 C378 1.356 . S
N376 H388 0.984 . S
N376 H389 0.985 . S
N377 C379 1.356 . S
N377 H382 0.984 1_556 S
N377 H383 0.985 . S
C378 C372 1.379 . S
C378 C375 1.363 . S
C378 N376 1.356 . S
C379 C373 1.363 . S
C379 C374 1.379 . S
C379 N377 1.356 . S
N380 C372 1.356 . S
N380 H386 0.984 . S
N380 H387 0.984 . S
N381 C374 1.356 . S
N381 H384 0.984 . S
N381 H385 0.985 . S
H382 N377 0.984 1_554 S
H383 N377 0.985 . S
H384 N381 0.984 . S
H385 N381 0.985 . S
H386 N380 0.984 . S
H387 N380 0.984 . S
H388 N376 0.984 . S
H389 N376 0.985 . S
C390 C391 1.363 . S
C390 C396 1.379 . S
C390 N398 1.356 . S
C391 C390 1.363 . S
C391 C397 1.363 . S
C392 C393 1.363 . S
C392 C397 1.379 . S
C392 N399 1.356 . S
C393 C392 1.363 . S
C393 C396 1.363 . S
N394 C396 1.356 . S
N394 H406 0.984 . S
N394 H407 0.985 . S
N395 C397 1.356 . S
N395 H400 0.984 . S
N395 H401 0.985 . S
C396 C390 1.379 . S
C396 C393 1.363 . S
C396 N394 1.356 . S
C397 C391 1.363 . S
C397 C392 1.379 . S
C397 N395 1.356 . S
N398 C390 1.356 . S
N398 H404 0.984 . S
N398 H405 0.984 . S
N399 C392 1.356 . S
N399 H402 0.984 . S
N399 H403 0.985 . S
H400 N395 0.984 . S
H401 N395 0.985 . S
H402 N399 0.984 . S
H403 N399 0.985 . S
H404 N398 0.984 . S
H405 N398 0.984 . S
H406 N394 0.984 . S
H407 N394 0.985 . S
C408 C409 1.363 1_545 S
C408 C414 1.379 . S
C408 N416 1.356 . S
C409 C408 1.363 1_565 S
C409 C415 1.363 . S
C410 C411 1.363 1_565 S
C410 C415 1.379 . S
C410 N417 1.356 . S
C411 C410 1.363 1_545 S
C411 C414 1.363 . S
N412 C414 1.356 . S
N412 H424 0.984 . S
N412 H425 0.985 . S
N413 C415 1.356 . S
N413 H418 0.984 . S
N413 H419 0.985 . S
C414 C408 1.379 . S
C414 C411 1.363 . S
C414 N412 1.356 . S
C415 C409 1.363 . S
C415 C410 1.379 . S
C415 N413 1.356 . S
N416 C408 1.356 . S
N416 H422 0.984 . S
N416 H423 0.984 . S
N417 C410 1.356 . S
N417 H420 0.984 . S
N417 H421 0.985 . S
H418 N413 0.984 . S
H419 N413 0.985 . S
H420 N417 0.984 . S
H421 N417 0.985 . S
H422 N416 0.984 . S
H423 N416 0.984 . S
H424 N412 0.984 . S
H425 N412 0.985 . S
C426 C427 1.363 1_544 S
C426 C432 1.379 . S
C426 N434 1.356 . S
C427 C426 1.363 1_566 S
C427 C433 1.363 . S
C428 C429 1.363 1_566 S
C428 C433 1.379 . S
C428 N435 1.356 . S
C429 C428 1.363 1_544 S
C429 C432 1.363 . S
N430 C432 1.356 . S
N430 H442 0.984 . S
N430 H443 0.985 . S
N431 C433 1.356 . S
N431 H436 0.984 . S
N431 H437 0.985 . S
C432 C426 1.379 . S
C432 C429 1.363 . S
C432 N430 1.356 . S
C433 C427 1.363 . S
C433 C428 1.379 . S
C433 N431 1.356 . S
N434 C426 1.356 . S
N434 H440 0.984 . S
N434 H441 0.984 . S
N435 C428 1.356 . S
N435 H438 0.984 . S
N435 H439 0.985 . S
H436 N431 0.984 . S
H437 N431 0.985 . S
H438 N435 0.984 . S
H439 N435 0.985 . S
H440 N434 0.984 . S
H441 N434 0.984 . S
H442 N430 0.984 . S
H443 N430 0.985 . S
C444 C445 1.363 . S
C444 C450 1.379 1_655 S
C444 N452 1.356 . S
C445 C444 1.363 . S
C445 C451 1.363 . S
C446 C447 1.363 . S
C446 C451 1.379 1_455 S
C446 N453 1.356 . S
C447 C446 1.363 . S
C447 C450 1.363 . S
N448 C450 1.356 . S
N448 H460 0.984 . S
N448 H461 0.985 . S
N449 C451 1.356 . S
N449 H454 0.984 . S
N449 H455 0.985 . S
C450 C444 1.379 1_455 S
C450 C447 1.363 . S
C450 N448 1.356 . S
C451 C445 1.363 . S
C451 C446 1.379 1_655 S
C451 N449 1.356 . S
N452 C444 1.356 . S
N452 H458 0.984 . S
N452 H459 0.984 . S
N453 C446 1.356 . S
N453 H456 0.984 . S
N453 H457 0.985 . S
H454 N449 0.984 . S
H455 N449 0.985 . S
H456 N453 0.984 . S
H457 N453 0.985 . S
H458 N452 0.984 . S
H459 N452 0.984 . S
H460 N448 0.984 . S
H461 N448 0.985 . S
C462 C463 1.363 1_556 S
C462 C468 1.379 1_455 S
C462 N470 1.356 . S
C463 C462 1.363 1_554 S
C463 C469 1.363 . S
C464 C465 1.363 1_554 S
C464 C469 1.379 1_655 S
C464 N471 1.356 . S
C465 C464 1.363 1_556 S
C465 C468 1.363 . S
N466 C468 1.356 . S
N466 H478 0.984 . S
N466 H479 0.985 . S
N467 C469 1.356 . S
N467 H472 0.984 . S
N467 H473 0.985 . S
C468 C462 1.379 1_655 S
C468 C465 1.363 . S
C468 N466 1.356 . S
C469 C463 1.363 . S
C469 C464 1.379 1_455 S
C469 N467 1.356 . S
N470 C462 1.356 . S
N470 H476 0.984 . S
N470 H477 0.984 . S
N471 C464 1.356 . S
N471 H474 0.984 . S
N471 H475 0.985 . S
H472 N467 0.984 . S
H473 N467 0.985 . S
H474 N471 0.984 . S
H475 N471 0.985 . S
H476 N470 0.984 . S
H477 N470 0.984 . S
H478 N466 0.984 . S
H479 N466 0.985 . S
C480 C481 1.363 . S
C480 C486 1.379 1_455 S
C480 N488 1.356 . S
C481 C480 1.363 . S
C481 C487 1.363 . S
C482 C483 1.363 . S
C482 C487 1.379 1_655 S
C482 N489 1.356 . S
C483 C482 1.363 . S
C483 C486 1.363 . S
N484 C486 1.356 . S
N484 H496 0.984 1_545 S
N484 H497 0.985 . S
N485 C487 1.356 . S
N485 H490 0.984 . S
N485 H491 0.985 . S
C486 C480 1.379 1_655 S
C486 C483 1.363 . S
C486 N484 1.356 . S
C487 C481 1.363 . S
C487 C482 1.379 1_455 S
C487 N485 1.356 . S
N488 C480 1.356 . S
N488 H494 0.984 1_545 S
N488 H495 0.984 . S
N489 C482 1.356 . S
N489 H492 0.984 . S
N489 H493 0.985 . S
H490 N485 0.984 . S
H491 N485 0.985 . S
H492 N489 0.984 . S
H493 N489 0.985 . S
H494 N488 0.984 1_565 S
H495 N488 0.984 . S
H496 N484 0.984 1_565 S
H497 N484 0.985 . S
C498 C499 1.363 . S
C498 C504 1.379 1_455 S
C498 N506 1.356 . S
C499 C498 1.363 . S
C499 C505 1.363 . S
C500 C501 1.363 . S
C500 C505 1.379 1_655 S
C500 N507 1.356 . S
C501 C500 1.363 . S
C501 C504 1.363 . S
N502 C504 1.356 . S
N502 H514 0.984 1_565 S
N502 H515 0.985 . S
N503 C505 1.356 . S
N503 H508 0.984 . S
N503 H509 0.985 . S
C504 C498 1.379 1_655 S
C504 C501 1.363 . S
C504 N502 1.356 . S
C505 C499 1.363 . S
C505 C500 1.379 1_455 S
C505 N503 1.356 . S
N506 C498 1.356 . S
N506 H512 0.984 1_565 S
N506 H513 0.984 . S
N507 C500 1.356 . S
N507 H510 0.984 . S
N507 H511 0.985 . S
H508 N503 0.984 . S
H509 N503 0.985 . S
H510 N507 0.984 . S
H511 N507 0.985 . S
H512 N506 0.984 1_545 S
H513 N506 0.984 . S
H514 N502 0.984 1_545 S
H515 N502 0.985 . S
C516 C517 1.363 . S
C516 C522 1.379 . S
C516 N524 1.356 . S
C517 C516 1.363 . S
C517 C523 1.363 . S
C518 C519 1.363 . S
C518 C523 1.379 . S
C518 N525 1.356 . S
C519 C518 1.363 . S
C519 C522 1.363 . S
N520 C522 1.356 . S
N520 H532 0.984 . S
N520 H533 0.985 . S
N521 C523 1.356 . S
N521 H526 0.984 . S
N521 H527 0.985 . S
C522 C516 1.379 . S
C522 C519 1.363 . S
C522 N520 1.356 . S
C523 C517 1.363 . S
C523 C518 1.379 . S
C523 N521 1.356 . S
N524 C516 1.356 . S
N524 H530 0.984 . S
N524 H531 0.984 . S
N525 C518 1.356 . S
N525 H528 0.984 . S
N525 H529 0.985 . S
H526 N521 0.984 . S
H527 N521 0.985 . S
H528 N525 0.984 . S
H529 N525 0.985 . S
H530 N524 0.984 . S
H531 N524 0.984 . S
H532 N520 0.984 . S
H533 N520 0.985 . S
C534 C535 1.363 . S
C534 C540 1.379 . S
C534 N542 1.356 . S
C535 C534 1.363 . S
C535 C541 1.363 . S
C536 C537 1.363 . S
C536 C541 1.379 . S
C536 N543 1.356 . S
C537 C536 1.363 . S
C537 C540 1.363 . S
N538 C540 1.356 . S
N538 H550 0.984 . S
N538 H551 0.985 . S
N539 C541 1.356 . S
N539 H544 0.984 . S
N539 H545 0.985 . S
C540 C534 1.379 . S
C540 C537 1.363 . S
C540 N538 1.356 . S
C541 C535 1.363 . S
C541 C536 1.379 . S
C541 N539 1.356 . S
N542 C534 1.356 . S
N542 H548 0.984 . S
N542 H549 0.984 . S
N543 C536 1.356 . S
N543 H546 0.984 . S
N543 H547 0.985 . S
H544 N539 0.984 . S
H545 N539 0.985 . S
H546 N543 0.984 . S
H547 N543 0.985 . S
H548 N542 0.984 . S
H549 N542 0.984 . S
H550 N538 0.984 . S
H551 N538 0.985 . S
C552 C553 1.363 . S
C552 C558 1.379 . S
C552 N560 1.356 . S
C553 C552 1.363 . S
C553 C559 1.363 . S
C554 C555 1.363 . S
C554 C559 1.379 . S
C554 N561 1.356 . S
C555 C554 1.363 . S
C555 C558 1.363 . S
N556 C558 1.356 . S
N556 H568 0.984 . S
N556 H569 0.985 . S
N557 C559 1.356 . S
N557 H562 0.984 . S
N557 H563 0.985 . S
C558 C552 1.379 . S
C558 C555 1.363 . S
C558 N556 1.356 . S
C559 C553 1.363 . S
C559 C554 1.379 . S
C559 N557 1.356 . S
N560 C552 1.356 . S
N560 H566 0.984 . S
N560 H567 0.984 . S
N561 C554 1.356 . S
N561 H564 0.984 . S
N561 H565 0.985 . S
H562 N557 0.984 . S
H563 N557 0.985 . S
H564 N561 0.984 . S
H565 N561 0.985 . S
H566 N560 0.984 . S
H567 N560 0.984 . S
H568 N556 0.984 . S
H569 N556 0.985 . S
C570 C571 1.363 1_554 S
C570 C576 1.379 . S
C570 N578 1.356 . S
C571 C570 1.363 1_556 S
C571 C577 1.363 . S
C572 C573 1.363 1_556 S
C572 C577 1.379 . S
C572 N579 1.356 . S
C573 C572 1.363 1_554 S
C573 C576 1.363 . S
N574 C576 1.356 . S
N574 H586 0.984 . S
N574 H587 0.985 . S
N575 C577 1.356 . S
N575 H580 0.984 . S
N575 H581 0.985 . S
C576 C570 1.379 . S
C576 C573 1.363 . S
C576 N574 1.356 . S
C577 C571 1.363 . S
C577 C572 1.379 . S
C577 N575 1.356 . S
N578 C570 1.356 . S
N578 H584 0.984 . S
N578 H585 0.984 1_554 S
N579 C572 1.356 . S
N579 H582 0.984 1_556 S
N579 H583 0.985 . S
H580 N575 0.984 . S
H581 N575 0.985 . S
H582 N579 0.984 1_554 S
H583 N579 0.985 . S
H584 N578 0.984 . S
H585 N578 0.984 1_556 S
H586 N574 0.984 . S
H587 N574 0.985 . S
C588 C589 1.363 . S
C588 C594 1.379 . S
C588 N596 1.356 . S
C589 C588 1.363 . S
C589 C595 1.363 . S
C590 C591 1.363 . S
C590 C595 1.379 . S
C590 N597 1.356 . S
C591 C590 1.363 . S
C591 C594 1.363 . S
N592 C594 1.356 . S
N592 H604 0.984 . S
N592 H605 0.985 . S
N593 C595 1.356 . S
N593 H598 0.984 . S
N593 H599 0.985 . S
C594 C588 1.379 . S
C594 C591 1.363 . S
C594 N592 1.356 . S
C595 C589 1.363 . S
C595 C590 1.379 . S
C595 N593 1.356 . S
N596 C588 1.356 . S
N596 H602 0.984 . S
N596 H603 0.984 . S
N597 C590 1.356 . S
N597 H600 0.984 . S
N597 H601 0.985 . S
H598 N593 0.984 . S
H599 N593 0.985 . S
H600 N597 0.984 . S
H601 N597 0.985 . S
H602 N596 0.984 . S
H603 N596 0.984 . S
H604 N592 0.984 . S
H605 N592 0.985 . S
C606 C607 1.363 . S
C606 C612 1.379 . S
C606 N614 1.356 . S
C607 C606 1.363 . S
C607 C613 1.363 1_556 S
C608 C609 1.363 . S
C608 C613 1.379 . S
C608 N615 1.356 . S
C609 C608 1.363 . S
C609 C612 1.363 1_554 S
N610 C612 1.356 . S
N610 H622 0.984 . S
N610 H623 0.985 1_556 S
N611 C613 1.356 . S
N611 H616 0.984 1_554 S
N611 H617 0.985 . S
C612 C606 1.379 . S
C612 C609 1.363 1_556 S
C612 N610 1.356 . S
C613 C607 1.363 1_554 S
C613 C608 1.379 . S
C613 N611 1.356 . S
N614 C606 1.356 . S
N614 H620 0.984 . S
N614 H621 0.984 . S
N615 C608 1.356 . S
N615 H618 0.984 . S
N615 H619 0.985 . S
H616 N611 0.984 1_556 S
H617 N611 0.985 . S
H618 N615 0.984 . S
H619 N615 0.985 . S
H620 N614 0.984 . S
H621 N614 0.984 . S
H622 N610 0.984 . S
H623 N610 0.985 1_554 S
C265 C106 1.158 . S
C267 C18 1.175 . S
C283 C51 1.175 . S
C285 C73 1.158 . S
C301 C84 1.175 . S
C303 C40 1.158 . S
C319 C117 1.175 . S
C321 C7 1.158 . S
C337 C150 1.175 . S
C339 C238 1.158 . S
C355 C183 1.175 . S
C357 C205 1.158 . S
C373 C172 1.158 . S
C375 C216 1.175 . S
C391 C249 1.175 . S
C393 C139 1.158 . S
C409 N79 1.838 . S
C411 N13 1.838 . S
C427 N112 1.838 . S
C429 N46 1.838 . S
C445 N145 1.838 . S
C447 N211 1.838 . S
C463 N178 1.838 . S
C465 N244 1.838 . S
C481 N2 1.246 . S
C483 N35 1.246 . S
C499 N101 1.246 . S
C501 N68 1.246 . S
C517 N167 1.246 . S
C519 N134 1.246 . S
C535 N233 1.246 . S
C537 N200 1.246 . S
C553 C219 1.625 . S
C555 C21 1.625 . S
C571 C252 1.625 . S
C573 C54 1.625 . S
C589 C153 1.625 . S
C591 C87 1.625 . S
C607 C120 1.625 . S
C609 C186 1.625 . S
