# Generated by pormake.
# Topology ftb, (5)-cn, num edge types: 1
# Building blocks:
#     Node 0, Type 0, BuildingBlock: XOMCOT_clean_sbu_0, # of connection points: 5
#     Node 1, Type 0, BuildingBlock: XOMCOT_clean_sbu_0, # of connection points: 5
#     Node 2, Type 0, BuildingBlock: XOMCOT_clean_sbu_0, # of connection points: 5
#     Node 3, Type 0, BuildingBlock: XOMCOT_clean_sbu_0, # of connection points: 5
#     Node 4, Type 0, BuildingBlock: XOMCOT_clean_sbu_0, # of connection points: 5
#     Node 5, Type 0, BuildingBlock: XOMCOT_clean_sbu_0, # of connection points: 5
#     Node 6, Type 0, BuildingBlock: XOMCOT_clean_sbu_0, # of connection points: 5
#     Node 7, Type 0, BuildingBlock: XOMCOT_clean_sbu_0, # of connection points: 5
#     Edge 8, Type (0, 0), None
#     Edge 9, Type (0, 0), None
#     Edge 10, Type (0, 0), None
#     Edge 11, Type (0, 0), None
#     Edge 12, Type (0, 0), None
#     Edge 13, Type (0, 0), None
#     Edge 14, Type (0, 0), None
#     Edge 15, Type (0, 0), None
#     Edge 16, Type (0, 0), None
#     Edge 17, Type (0, 0), None
#     Edge 18, Type (0, 0), None
#     Edge 19, Type (0, 0), None
#     Edge 20, Type (0, 0), None
#     Edge 21, Type (0, 0), None
#     Edge 22, Type (0, 0), None
#     Edge 23, Type (0, 0), None
#     Edge 24, Type (0, 0), None
#     Edge 25, Type (0, 0), None
#     Edge 26, Type (0, 0), None
#     Edge 27, Type (0, 0), None
# Relax obj value: 0.077
# Max RMSD: 0.173
# Mean RMSD: 0.173
data_MOF--net-ftb--node1-XOMCOT_clean_sbu_0--edge1-none
_symmetry_space_group_name_H-M    P1
_symmetry_Int_Tables_number       1
_symmetry_cell_setting            triclinic
loop_
_symmetry_equiv_pos_as_xyz
'x, y, z'
_cell_length_a     30.88412
_cell_length_b     9.1695671
_cell_length_c     16.501667
_cell_angle_alpha  90.00004
_cell_angle_beta   88.815498
_cell_angle_gamma 89.990534
loop_
_atom_site_label
_atom_site_type_symbol
_atom_site_fract_x
_atom_site_fract_y
_atom_site_fract_z
_atom_type_partial_charge
Co0 Co 0.28911 0.05609 1.01853 0.0
C1 C 0.29242 0.86837 0.87529 0.0
C2 C 0.27756 0.08933 0.84215 0.0
C3 C 0.27881 1.00535 0.7727 0.0
N4 N 0.28586 1.00282 0.90609 0.0
N5 N 0.28817 0.86726 0.79434 0.0
H6 H 0.30047 0.77396 0.91125 0.0
H7 H 0.2711 0.20495 0.84531 0.0
C8 C 0.23377 0.30184 0.99637 0.0
O9 O 0.27177 0.35981 0.97944 0.0
N10 N 0.29269 0.10916 0.13116 0.0
C11 C 0.29339 1.01977 0.19615 0.0
C12 C 0.2927 0.10365 0.26556 0.0
C13 C 0.29206 0.2456 0.16142 0.0
N14 N 0.29172 0.24482 0.24296 0.0
C15 C 0.36695 0.88837 0.04965 0.0
C16 C 0.41991 0.10564 0.98571 0.0
C17 C 0.43884 0.98457 0.02268 0.0
C18 C 0.41206 0.87274 0.05311 0.0
C19 C 0.37512 0.11624 0.98306 0.0
N20 N 0.34956 1.01047 1.01604 0.0
H21 H 0.34621 0.80552 0.07614 0.0
H22 H 0.36037 0.21199 0.95704 0.0
H23 H 0.29349 0.90195 0.19367 0.0
H24 H 0.29153 0.34318 0.12501 0.0
O25 O 0.26739 0.85579 0.04865 0.0
O26 O 0.22454 1.03431 0.03136 0.0
O27 O 0.23127 0.16407 1.01288 0.0
C28 C 0.22838 0.89803 0.04859 0.0
H29 H 0.27295 1.04266 0.71169 0.0
H30 H 0.29186 0.06391 0.32731 0.0
H31 H 0.43962 0.19348 0.96111 0.0
H32 H 0.42577 0.7782 0.08242 0.0
Co33 Co 0.63578 0.05605 0.0389 0.0
C34 C 0.63248 0.86833 0.18214 0.0
C35 C 0.64735 0.08927 0.21528 0.0
C36 C 0.64609 1.0053 0.28473 0.0
N37 N 0.63904 1.00278 0.15134 0.0
N38 N 0.63674 0.86722 0.26309 0.0
H39 H 0.62443 0.77394 0.14618 0.0
H40 H 0.6538 0.20489 0.21212 0.0
C41 C 0.69113 0.30174 0.06106 0.0
O42 O 0.65314 0.35976 0.07801 0.0
N43 N 0.6322 0.10913 0.92627 0.0
C44 C 0.63148 1.01975 0.86129 0.0
C45 C 0.63217 0.10362 0.79187 0.0
C46 C 0.63285 0.24557 0.89601 0.0
N47 N 0.63317 0.24479 0.81447 0.0
C48 C 0.55796 0.88833 1.00786 0.0
C49 C 0.50498 0.10572 0.07168 0.0
C50 C 0.48606 0.98458 0.03478 0.0
C51 C 0.51285 0.87269 1.00441 0.0
C52 C 0.54976 0.11632 0.07432 0.0
N53 N 0.57533 1.01048 0.0414 0.0
H54 H 0.5787 0.80542 0.98142 0.0
H55 H 0.56451 0.21211 0.10028 0.0
H56 H 0.63136 0.90192 0.86377 0.0
H57 H 0.63339 0.34315 0.93242 0.0
O58 O 0.65751 0.85573 1.00877 0.0
O59 O 0.70036 1.03421 0.02606 0.0
O60 O 0.69363 0.16396 0.04454 0.0
C61 C 0.69651 0.89793 1.00883 0.0
H62 H 0.65196 1.0426 0.34574 0.0
H63 H 0.633 0.06387 0.73013 0.0
H64 H 0.48526 0.19361 0.09622 0.0
H65 H 0.49914 0.7781 0.97515 0.0
Co66 Co 0.28912 0.5561 0.51852 0.0
C67 C 0.29243 0.36836 0.37529 0.0
C68 C 0.27759 0.58933 0.34213 0.0
C69 C 0.27886 0.50535 0.27269 0.0
N70 N 0.28587 0.50282 0.40608 0.0
N71 N 0.28819 0.36725 0.29434 0.0
H72 H 0.30047 0.27396 0.41126 0.0
H73 H 0.27115 0.70497 0.34529 0.0
C74 C 0.23377 0.80184 0.49633 0.0
O75 O 0.27177 0.85981 0.47941 0.0
N76 N 0.29268 0.60918 0.63115 0.0
C77 C 0.2934 0.51979 0.69614 0.0
C78 C 0.29269 0.60366 0.76556 0.0
C79 C 0.29201 0.74562 0.66142 0.0
N80 N 0.29166 0.74483 0.74296 0.0
C81 C 0.36695 0.38839 0.54963 0.0
C82 C 0.41991 0.6057 0.48573 0.0
C83 C 0.43884 0.48461 0.52268 0.0
C84 C 0.41206 0.37277 0.5531 0.0
C85 C 0.37513 0.6163 0.48309 0.0
N86 N 0.34957 0.5105 0.51605 0.0
H87 H 0.34622 0.30552 0.57611 0.0
H88 H 0.36037 0.71206 0.45709 0.0
H89 H 0.29354 0.40197 0.69366 0.0
H90 H 0.29148 0.8432 0.62502 0.0
O91 O 0.26739 0.3558 0.54865 0.0
O92 O 0.22454 0.53431 0.53133 0.0
O93 O 0.23127 0.66407 0.51285 0.0
C94 C 0.22838 0.39804 0.54856 0.0
H95 H 0.27302 0.54266 0.21167 0.0
H96 H 0.29188 0.56391 0.8273 0.0
H97 H 0.43962 0.69357 0.46115 0.0
H98 H 0.42578 0.27821 0.58239 0.0
Co99 Co 0.63579 0.55606 0.53891 0.0
C100 C 0.63248 0.36833 0.68214 0.0
C101 C 0.64733 0.58927 0.7153 0.0
C102 C 0.64606 0.50528 0.78474 0.0
N103 N 0.63904 0.50278 0.65135 0.0
N104 N 0.63672 0.3672 0.76309 0.0
H105 H 0.62442 0.27394 0.64617 0.0
H106 H 0.65377 0.70489 0.71214 0.0
C107 C 0.69114 0.80174 0.56109 0.0
O108 O 0.65315 0.85976 0.57803 0.0
N109 N 0.63222 0.60915 0.42628 0.0
C110 C 0.63148 0.51976 0.36129 0.0
C111 C 0.63219 0.60363 0.29188 0.0
C112 C 0.6329 0.74558 0.39601 0.0
N113 N 0.63324 0.74479 0.31447 0.0
C114 C 0.55796 0.38835 0.50786 0.0
C115 C 0.50499 0.60577 0.57166 0.0
C116 C 0.48607 0.48462 0.53477 0.0
C117 C 0.51285 0.37272 0.50441 0.0
C118 C 0.54977 0.61637 0.5743 0.0
N119 N 0.57534 0.51051 0.54139 0.0
H120 H 0.5787 0.30542 0.48143 0.0
H121 H 0.56452 0.71216 0.60025 0.0
H122 H 0.63133 0.40194 0.36378 0.0
H123 H 0.63345 0.84317 0.43241 0.0
O124 O 0.65752 0.35574 0.50878 0.0
O125 O 0.70037 0.53421 0.52609 0.0
O126 O 0.69364 0.66396 0.54457 0.0
C127 C 0.69652 0.39794 0.50885 0.0
H128 H 0.6519 0.54259 0.84576 0.0
H129 H 0.63299 0.56388 0.23013 0.0
H130 H 0.48527 0.69367 0.5962 0.0
H131 H 0.49915 0.27812 0.47517 0.0
Co132 Co 0.78912 0.05599 0.51843 0.0
C133 C 0.79243 0.86828 0.37519 0.0
C134 C 0.77756 0.08923 0.34205 0.0
C135 C 0.77881 1.00526 0.2726 0.0
N136 N 0.78587 1.00273 0.40598 0.0
N137 N 0.78817 0.86717 0.29424 0.0
H138 H 0.80048 0.77387 0.41114 0.0
H139 H 0.7711 0.20486 0.34521 0.0
C140 C 0.73378 0.30172 0.49627 0.0
O141 O 0.77177 0.35971 0.47933 0.0
N142 N 0.7927 0.10906 0.63106 0.0
C143 C 0.79339 1.01968 0.69605 0.0
C144 C 0.7927 0.10356 0.76546 0.0
C145 C 0.79206 0.2455 0.66132 0.0
N146 N 0.79172 0.24473 0.74286 0.0
C147 C 0.86696 0.88833 0.54956 0.0
C148 C 0.91991 0.1056 0.48562 0.0
C149 C 0.93884 0.98457 0.52261 0.0
C150 C 0.91207 0.87273 0.55305 0.0
C151 C 0.87513 0.11618 0.48295 0.0
N152 N 0.84957 1.0104 0.51593 0.0
H153 H 0.84623 0.80548 0.57607 0.0
H154 H 0.86037 0.21191 0.45692 0.0
H155 H 0.79349 0.90185 0.69357 0.0
H156 H 0.79154 0.34308 0.62491 0.0
O157 O 0.7674 0.85568 0.54855 0.0
O158 O 0.72454 1.03419 0.53125 0.0
O159 O 0.73127 0.16395 0.51278 0.0
C160 C 0.72839 0.89791 0.54847 0.0
H161 H 0.77295 1.04256 0.21159 0.0
H162 H 0.79186 0.06382 0.82721 0.0
H163 H 0.93963 0.19346 0.46102 0.0
H164 H 0.92579 0.77821 0.58237 0.0
Co165 Co 0.13578 0.05617 0.53895 0.0
C166 C 0.13248 0.86845 0.68219 0.0
C167 C 0.14731 0.08941 0.71534 0.0
C168 C 0.14606 1.00544 0.78479 0.0
N169 N 0.13902 1.0029 0.6514 0.0
N170 N 0.13673 0.86735 0.76315 0.0
H171 H 0.12444 0.77404 0.64623 0.0
H172 H 0.15376 0.20504 0.71218 0.0
C173 C 0.19112 0.30187 0.56113 0.0
O174 O 0.15313 0.3599 0.57806 0.0
N175 N 0.13221 0.10924 0.42632 0.0
C176 C 0.13152 1.01985 0.36133 0.0
C177 C 0.13221 0.10374 0.29192 0.0
C178 C 0.13284 0.24568 0.39606 0.0
N179 N 0.13318 0.2449 0.31452 0.0
C180 C 0.05797 0.8884 0.50788 0.0
C181 C 0.00498 0.10578 0.57163 0.0
C182 C -0.01393 0.98462 0.53473 0.0
C183 C 0.01286 0.87274 0.50439 0.0
C184 C 0.04975 0.11641 0.5743 0.0
N185 N 0.07534 1.01057 0.54142 0.0
H186 H 0.07872 0.80549 0.48145 0.0
H187 H 0.06449 0.21222 0.60026 0.0
H188 H 0.13142 0.90203 0.36381 0.0
H189 H 0.13336 0.34326 0.43247 0.0
O190 O 0.15752 0.85585 0.50884 0.0
O191 O 0.20036 1.03433 0.52615 0.0
O192 O 0.19363 0.16409 0.54462 0.0
C193 C 0.19652 0.89805 0.50893 0.0
H194 H 0.15192 1.04275 0.8458 0.0
H195 H 0.13304 0.06399 0.23017 0.0
H196 H -0.01476 0.19368 0.59615 0.0
H197 H -0.00083 0.77812 0.47514 0.0
Co198 Co 0.78911 0.55601 1.01842 0.0
C199 C 0.79243 0.36827 0.87519 0.0
C200 C 0.77758 0.58923 0.84203 0.0
C201 C 0.77885 0.50525 0.77258 0.0
N202 N 0.78587 0.50273 0.90598 0.0
N203 N 0.78818 0.36715 0.79424 0.0
H204 H 0.80048 0.27387 0.91115 0.0
H205 H 0.77114 0.70486 0.84518 0.0
C206 C 0.73377 0.80172 0.99624 0.0
O207 O 0.77176 0.85971 0.9793 0.0
N208 N 0.79268 0.60909 0.13105 0.0
C209 C 0.7934 0.5197 0.19604 0.0
C210 C 0.79269 0.60357 0.26545 0.0
C211 C 0.79201 0.74552 0.16132 0.0
N212 N 0.79166 0.74473 0.24286 0.0
C213 C 0.86695 0.38835 0.04955 0.0
C214 C 0.9199 0.60567 0.98564 0.0
C215 C 0.93884 0.48462 0.02261 0.0
C216 C 0.91207 0.37276 0.05303 0.0
C217 C 0.87512 0.61624 0.98298 0.0
N218 N 0.84956 0.51043 1.01594 0.0
H219 H 0.84622 0.30548 0.07604 0.0
H220 H 0.86036 0.71197 0.95696 0.0
H221 H 0.79353 0.40187 0.19356 0.0
H222 H 0.79148 0.84311 0.12491 0.0
O223 O 0.76739 0.35569 0.04854 0.0
O224 O 0.72453 0.53419 0.03122 0.0
O225 O 0.73126 0.66395 1.01275 0.0
C226 C 0.72838 0.39791 0.04845 0.0
H227 H 0.77301 0.54256 0.71157 0.0
H228 H 0.79188 0.56382 0.3272 0.0
H229 H 0.93961 0.69354 0.96105 0.0
H230 H 0.92578 0.27823 0.08234 0.0
Co231 Co 0.13578 0.55618 0.03896 0.0
C232 C 0.13247 0.36845 0.18219 0.0
C233 C 0.14727 0.58942 0.21536 0.0
C234 C 0.14601 0.50543 0.2848 0.0
N235 N 0.13901 0.5029 0.15141 0.0
N236 N 0.1367 0.36733 0.26315 0.0
H237 H 0.12444 0.27404 0.14622 0.0
H238 H 0.1537 0.70505 0.2122 0.0
C239 C 0.19112 0.80186 0.06117 0.0
O240 O 0.15313 0.8599 0.07809 0.0
N241 N 0.13223 0.60926 0.92633 0.0
C242 C 0.13151 0.51987 0.86134 0.0
C243 C 0.13221 0.60375 0.79193 0.0
C244 C 0.13289 0.7457 0.89606 0.0
N245 N 0.13324 0.74491 0.81453 0.0
C246 C 0.05797 0.38842 1.00789 0.0
C247 C 0.00498 0.60586 0.0716 0.0
C248 C -0.01393 0.48468 0.03473 0.0
C249 C 0.01286 0.37277 1.00441 0.0
C250 C 0.04975 0.61648 0.07427 0.0
N251 N 0.07533 0.51061 0.04141 0.0
H252 H 0.07871 0.30549 0.98149 0.0
H253 H 0.06449 0.7123 0.10022 0.0
H254 H 0.13137 0.40205 0.86383 0.0
H255 H 0.13342 0.84328 0.93247 0.0
O256 O 0.15751 0.35586 1.00885 0.0
O257 O 0.20036 0.53433 0.02619 0.0
O258 O 0.19363 0.66409 0.04466 0.0
C259 C 0.19652 0.39805 1.00896 0.0
H260 H 0.15184 0.54275 0.34582 0.0
H261 H 0.13302 0.564 0.73018 0.0
H262 H -0.01476 0.69377 0.09611 0.0
H263 H -0.00084 0.27813 0.97518 0.0
loop_
_geom_bond_atom_site_label_1
_geom_bond_atom_site_label_2
_geom_bond_distance
_geom_bond_site_symmetry_2
_ccdc_geom_bond_type
Co0 N4 2.148 1_554 S
Co0 N10 2.128 1_565 S
Co0 N20 2.194 1_554 S
Co0 O25 2.351 . S
Co0 O26 2.155 . S
Co0 O27 2.096 1_564 S
C1 N4 1.301 . S
C1 N5 1.328 . S
C1 H6 0.930 . S
C2 C3 1.333 1_545 S
C2 N4 1.317 1_545 S
C2 H7 0.930 . S
C3 C2 1.333 1_565 S
C3 N5 1.350 . S
C3 H29 0.931 1_565 S
N4 Co0 2.148 1_556 S
N4 C1 1.301 . S
N4 C2 1.317 1_565 S
N5 C1 1.328 . S
N5 C3 1.350 . S
H6 C1 0.930 . S
H7 C2 0.930 . S
C8 O9 1.224 . S
C8 O27 1.247 . S
O9 C8 1.224 . S
N10 Co0 2.128 1_545 S
N10 C11 1.355 1_545 S
N10 C13 1.311 . S
C11 N10 1.355 1_565 S
C11 C12 1.363 1_565 S
C11 H23 0.929 . S
C12 C11 1.363 1_545 S
C12 N14 1.375 . S
C12 H30 0.931 . S
C13 N10 1.311 . S
C13 N14 1.347 . S
C13 H24 0.929 . S
N14 C12 1.375 . S
N14 C13 1.347 . S
C15 C18 1.365 . S
C15 N20 1.328 1_554 S
C15 H21 0.929 . S
C16 C17 1.362 1_556 S
C16 C19 1.378 . S
C16 H31 0.929 . S
C17 C16 1.362 1_554 S
C17 C18 1.366 1_545 S
C18 C15 1.365 . S
C18 C17 1.366 1_565 S
C18 H32 0.930 . S
C19 C16 1.378 . S
C19 N20 1.315 1_545 S
C19 H22 0.930 . S
N20 Co0 2.194 1_556 S
N20 C15 1.328 1_556 S
N20 C19 1.315 1_565 S
H21 C15 0.929 . S
H22 C19 0.930 . S
H23 C11 0.929 . S
H24 C13 0.929 . S
O25 Co0 2.351 . S
O25 C28 1.244 . S
O26 Co0 2.155 . S
O26 C28 1.240 . S
O27 Co0 2.096 1_546 S
O27 C8 1.247 . S
C28 O25 1.244 . S
C28 O26 1.240 . S
H29 C3 0.931 1_545 S
H30 C12 0.931 . S
H31 C16 0.929 . S
H32 C18 0.930 . S
Co33 N37 2.148 . S
Co33 N43 2.128 1_564 S
Co33 N53 2.194 . S
Co33 O58 2.351 1_554 S
Co33 O59 2.155 1_554 S
Co33 O60 2.096 1_565 S
C34 N37 1.301 . S
C34 N38 1.328 . S
C34 H39 0.930 . S
C35 C36 1.333 1_545 S
C35 N37 1.317 1_545 S
C35 H40 0.930 . S
C36 C35 1.333 1_565 S
C36 N38 1.350 . S
C36 H62 0.931 1_565 S
N37 Co33 2.148 . S
N37 C34 1.301 . S
N37 C35 1.317 1_565 S
N38 C34 1.328 . S
N38 C36 1.350 . S
H39 C34 0.930 . S
H40 C35 0.930 . S
C41 O42 1.224 . S
C41 O60 1.247 . S
O42 C41 1.224 . S
N43 Co33 2.128 1_546 S
N43 C44 1.355 1_545 S
N43 C46 1.311 . S
C44 N43 1.355 1_565 S
C44 C45 1.363 1_565 S
C44 H56 0.929 . S
C45 C44 1.363 1_545 S
C45 N47 1.375 . S
C45 H63 0.931 . S
C46 N43 1.311 . S
C46 N47 1.347 . S
C46 H57 0.929 . S
N47 C45 1.375 . S
N47 C46 1.347 . S
C48 C51 1.365 . S
C48 N53 1.328 . S
C48 H54 0.929 . S
C49 C50 1.362 . S
C49 C52 1.378 . S
C49 H64 0.929 . S
C50 C49 1.362 . S
C50 C51 1.366 1_545 S
C51 C48 1.365 . S
C51 C50 1.366 1_565 S
C51 H65 0.930 . S
C52 C49 1.378 . S
C52 N53 1.315 1_545 S
C52 H55 0.930 . S
N53 Co33 2.194 . S
N53 C48 1.328 . S
N53 C52 1.315 1_565 S
H54 C48 0.929 . S
H55 C52 0.930 . S
H56 C44 0.929 . S
H57 C46 0.929 . S
O58 Co33 2.351 1_556 S
O58 C61 1.244 . S
O59 Co33 2.155 1_556 S
O59 C61 1.240 . S
O60 Co33 2.096 1_545 S
O60 C41 1.247 . S
C61 O58 1.244 . S
C61 O59 1.240 . S
H62 C36 0.931 1_545 S
H63 C45 0.931 . S
H64 C49 0.929 . S
H65 C51 0.930 . S
Co66 N70 2.148 . S
Co66 N76 2.128 . S
Co66 N86 2.194 . S
Co66 O91 2.351 . S
Co66 O92 2.155 . S
Co66 O93 2.096 . S
C67 N70 1.301 . S
C67 N71 1.328 . S
C67 H72 0.930 . S
C68 C69 1.333 . S
C68 N70 1.317 . S
C68 H73 0.930 . S
C69 C68 1.333 . S
C69 N71 1.350 . S
C69 H95 0.931 . S
N70 Co66 2.148 . S
N70 C67 1.301 . S
N70 C68 1.317 . S
N71 C67 1.328 . S
N71 C69 1.350 . S
H72 C67 0.930 . S
H73 C68 0.930 . S
C74 O75 1.224 . S
C74 O93 1.247 . S
O75 C74 1.224 . S
N76 Co66 2.128 . S
N76 C77 1.355 . S
N76 C79 1.311 . S
C77 N76 1.355 . S
C77 C78 1.363 . S
C77 H89 0.929 . S
C78 C77 1.363 . S
C78 N80 1.375 . S
C78 H96 0.931 . S
C79 N76 1.311 . S
C79 N80 1.347 . S
C79 H90 0.929 . S
N80 C78 1.375 . S
N80 C79 1.347 . S
C81 C84 1.365 . S
C81 N86 1.328 . S
C81 H87 0.929 . S
C82 C83 1.362 . S
C82 C85 1.378 . S
C82 H97 0.929 . S
C83 C82 1.362 . S
C83 C84 1.366 . S
C84 C81 1.365 . S
C84 C83 1.366 . S
C84 H98 0.930 . S
C85 C82 1.378 . S
C85 N86 1.315 . S
C85 H88 0.930 . S
N86 Co66 2.194 . S
N86 C81 1.328 . S
N86 C85 1.315 . S
H87 C81 0.929 . S
H88 C85 0.930 . S
H89 C77 0.929 . S
H90 C79 0.929 . S
O91 Co66 2.351 . S
O91 C94 1.244 . S
O92 Co66 2.155 . S
O92 C94 1.240 . S
O93 Co66 2.096 . S
O93 C74 1.247 . S
C94 O91 1.244 . S
C94 O92 1.240 . S
H95 C69 0.931 . S
H96 C78 0.931 . S
H97 C82 0.929 . S
H98 C84 0.930 . S
Co99 N103 2.148 . S
Co99 N109 2.128 . S
Co99 N119 2.194 . S
Co99 O124 2.351 . S
Co99 O125 2.155 . S
Co99 O126 2.096 . S
C100 N103 1.301 . S
C100 N104 1.328 . S
C100 H105 0.930 . S
C101 C102 1.333 . S
C101 N103 1.317 . S
C101 H106 0.930 . S
C102 C101 1.333 . S
C102 N104 1.350 . S
C102 H128 0.931 . S
N103 Co99 2.148 . S
N103 C100 1.301 . S
N103 C101 1.317 . S
N104 C100 1.328 . S
N104 C102 1.350 . S
H105 C100 0.930 . S
H106 C101 0.930 . S
C107 O108 1.224 . S
C107 O126 1.247 . S
O108 C107 1.224 . S
N109 Co99 2.128 . S
N109 C110 1.355 . S
N109 C112 1.311 . S
C110 N109 1.355 . S
C110 C111 1.363 . S
C110 H122 0.929 . S
C111 C110 1.363 . S
C111 N113 1.375 . S
C111 H129 0.931 . S
C112 N109 1.311 . S
C112 N113 1.347 . S
C112 H123 0.929 . S
N113 C111 1.375 . S
N113 C112 1.347 . S
C114 C117 1.365 . S
C114 N119 1.328 . S
C114 H120 0.929 . S
C115 C116 1.362 . S
C115 C118 1.378 . S
C115 H130 0.929 . S
C116 C115 1.362 . S
C116 C117 1.366 . S
C117 C114 1.365 . S
C117 C116 1.366 . S
C117 H131 0.930 . S
C118 C115 1.378 . S
C118 N119 1.315 . S
C118 H121 0.930 . S
N119 Co99 2.194 . S
N119 C114 1.328 . S
N119 C118 1.315 . S
H120 C114 0.929 . S
H121 C118 0.930 . S
H122 C110 0.929 . S
H123 C112 0.929 . S
O124 Co99 2.351 . S
O124 C127 1.244 . S
O125 Co99 2.155 . S
O125 C127 1.240 . S
O126 Co99 2.096 . S
O126 C107 1.247 . S
C127 O124 1.244 . S
C127 O125 1.240 . S
H128 C102 0.931 . S
H129 C111 0.931 . S
H130 C115 0.929 . S
H131 C117 0.930 . S
Co132 N136 2.148 . S
Co132 N142 2.128 1_565 S
Co132 N152 2.194 . S
Co132 O157 2.351 . S
Co132 O158 2.155 . S
Co132 O159 2.096 1_565 S
C133 N136 1.301 . S
C133 N137 1.328 . S
C133 H138 0.930 . S
C134 C135 1.333 1_545 S
C134 N136 1.317 1_545 S
C134 H139 0.930 . S
C135 C134 1.333 1_565 S
C135 N137 1.350 . S
C135 H161 0.931 1_565 S
N136 Co132 2.148 . S
N136 C133 1.301 . S
N136 C134 1.317 1_565 S
N137 C133 1.328 . S
N137 C135 1.350 . S
H138 C133 0.930 . S
H139 C134 0.930 . S
C140 O141 1.224 . S
C140 O159 1.247 . S
O141 C140 1.224 . S
N142 Co132 2.128 1_545 S
N142 C143 1.355 1_545 S
N142 C145 1.311 . S
C143 N142 1.355 1_565 S
C143 C144 1.363 1_565 S
C143 H155 0.929 . S
C144 C143 1.363 1_545 S
C144 N146 1.375 . S
C144 H162 0.931 . S
C145 N142 1.311 . S
C145 N146 1.347 . S
C145 H156 0.929 . S
N146 C144 1.375 . S
N146 C145 1.347 . S
C147 C150 1.365 . S
C147 N152 1.328 . S
C147 H153 0.929 . S
C148 C149 1.362 . S
C148 C151 1.378 . S
C148 H163 0.929 . S
C149 C148 1.362 . S
C149 C150 1.366 1_545 S
C150 C147 1.365 . S
C150 C149 1.366 1_565 S
C150 H164 0.930 . S
C151 C148 1.378 . S
C151 N152 1.315 1_545 S
C151 H154 0.930 . S
N152 Co132 2.194 . S
N152 C147 1.328 . S
N152 C151 1.315 1_565 S
H153 C147 0.929 . S
H154 C151 0.930 . S
H155 C143 0.929 . S
H156 C145 0.929 . S
O157 Co132 2.351 . S
O157 C160 1.244 . S
O158 Co132 2.155 . S
O158 C160 1.240 . S
O159 Co132 2.096 1_545 S
O159 C140 1.247 . S
C160 O157 1.244 . S
C160 O158 1.240 . S
H161 C135 0.931 1_545 S
H162 C144 0.931 . S
H163 C148 0.929 . S
H164 C150 0.930 . S
Co165 N169 2.148 . S
Co165 N175 2.128 1_565 S
Co165 N185 2.194 . S
Co165 O190 2.351 . S
Co165 O191 2.155 . S
Co165 O192 2.096 1_565 S
C166 N169 1.301 . S
C166 N170 1.328 . S
C166 H171 0.930 . S
C167 C168 1.333 1_545 S
C167 N169 1.317 1_545 S
C167 H172 0.930 . S
C168 C167 1.333 1_565 S
C168 N170 1.350 . S
C168 H194 0.931 1_565 S
N169 Co165 2.148 . S
N169 C166 1.301 . S
N169 C167 1.317 1_565 S
N170 C166 1.328 . S
N170 C168 1.350 . S
H171 C166 0.930 . S
H172 C167 0.930 . S
C173 O174 1.224 . S
C173 O192 1.247 . S
O174 C173 1.224 . S
N175 Co165 2.128 1_545 S
N175 C176 1.355 1_545 S
N175 C178 1.311 . S
C176 N175 1.355 1_565 S
C176 C177 1.363 1_565 S
C176 H188 0.929 . S
C177 C176 1.363 1_545 S
C177 N179 1.375 . S
C177 H195 0.931 . S
C178 N175 1.311 . S
C178 N179 1.347 . S
C178 H189 0.929 . S
N179 C177 1.375 . S
N179 C178 1.347 . S
C180 C183 1.365 . S
C180 N185 1.328 . S
C180 H186 0.929 . S
C181 C182 1.362 . S
C181 C184 1.378 . S
C181 H196 0.929 . S
C182 C181 1.362 . S
C182 C183 1.366 1_545 S
C183 C180 1.365 . S
C183 C182 1.366 1_565 S
C183 H197 0.930 . S
C184 C181 1.378 . S
C184 N185 1.315 1_545 S
C184 H187 0.930 . S
N185 Co165 2.194 . S
N185 C180 1.328 . S
N185 C184 1.315 1_565 S
H186 C180 0.929 . S
H187 C184 0.930 . S
H188 C176 0.929 . S
H189 C178 0.929 . S
O190 Co165 2.351 . S
O190 C193 1.244 . S
O191 Co165 2.155 . S
O191 C193 1.240 . S
O192 Co165 2.096 1_545 S
O192 C173 1.247 . S
C193 O190 1.244 . S
C193 O191 1.240 . S
H194 C168 0.931 1_545 S
H195 C177 0.931 . S
H196 C181 0.929 . S
H197 C183 0.930 . S
Co198 N202 2.148 1_554 S
Co198 N208 2.128 . S
Co198 N218 2.194 1_554 S
Co198 O223 2.351 . S
Co198 O224 2.155 . S
Co198 O225 2.096 1_554 S
C199 N202 1.301 . S
C199 N203 1.328 . S
C199 H204 0.930 . S
C200 C201 1.333 . S
C200 N202 1.317 . S
C200 H205 0.930 . S
C201 C200 1.333 . S
C201 N203 1.350 . S
C201 H227 0.931 . S
N202 Co198 2.148 1_556 S
N202 C199 1.301 . S
N202 C200 1.317 . S
N203 C199 1.328 . S
N203 C201 1.350 . S
H204 C199 0.930 . S
H205 C200 0.930 . S
C206 O207 1.224 . S
C206 O225 1.247 . S
O207 C206 1.224 . S
N208 Co198 2.128 . S
N208 C209 1.355 . S
N208 C211 1.311 . S
C209 N208 1.355 . S
C209 C210 1.363 . S
C209 H221 0.929 . S
C210 C209 1.363 . S
C210 N212 1.375 . S
C210 H228 0.931 . S
C211 N208 1.311 . S
C211 N212 1.347 . S
C211 H222 0.929 . S
N212 C210 1.375 . S
N212 C211 1.347 . S
C213 C216 1.365 . S
C213 N218 1.328 1_554 S
C213 H219 0.929 . S
C214 C215 1.362 1_556 S
C214 C217 1.378 . S
C214 H229 0.929 . S
C215 C214 1.362 1_554 S
C215 C216 1.366 . S
C216 C213 1.365 . S
C216 C215 1.366 . S
C216 H230 0.930 . S
C217 C214 1.378 . S
C217 N218 1.315 . S
C217 H220 0.930 . S
N218 Co198 2.194 1_556 S
N218 C213 1.328 1_556 S
N218 C217 1.315 . S
H219 C213 0.929 . S
H220 C217 0.930 . S
H221 C209 0.929 . S
H222 C211 0.929 . S
O223 Co198 2.351 . S
O223 C226 1.244 . S
O224 Co198 2.155 . S
O224 C226 1.240 . S
O225 Co198 2.096 1_556 S
O225 C206 1.247 . S
C226 O223 1.244 . S
C226 O224 1.240 . S
H227 C201 0.931 . S
H228 C210 0.931 . S
H229 C214 0.929 . S
H230 C216 0.930 . S
Co231 N235 2.148 . S
Co231 N241 2.128 1_554 S
Co231 N251 2.194 . S
Co231 O256 2.351 1_554 S
Co231 O257 2.155 1_554 S
Co231 O258 2.096 . S
C232 N235 1.301 . S
C232 N236 1.328 . S
C232 H237 0.930 . S
C233 C234 1.333 . S
C233 N235 1.317 . S
C233 H238 0.930 . S
C234 C233 1.333 . S
C234 N236 1.350 . S
C234 H260 0.931 . S
N235 Co231 2.148 . S
N235 C232 1.301 . S
N235 C233 1.317 . S
N236 C232 1.328 . S
N236 C234 1.350 . S
H237 C232 0.930 . S
H238 C233 0.930 . S
C239 O240 1.224 . S
C239 O258 1.247 . S
O240 C239 1.224 . S
N241 Co231 2.128 1_556 S
N241 C242 1.355 . S
N241 C244 1.311 . S
C242 N241 1.355 . S
C242 C243 1.363 . S
C242 H254 0.929 . S
C243 C242 1.363 . S
C243 N245 1.375 . S
C243 H261 0.931 . S
C244 N241 1.311 . S
C244 N245 1.347 . S
C244 H255 0.929 . S
N245 C243 1.375 . S
N245 C244 1.347 . S
C246 C249 1.365 . S
C246 N251 1.328 . S
C246 H252 0.929 . S
C247 C248 1.362 . S
C247 C250 1.378 . S
C247 H262 0.929 . S
C248 C247 1.362 . S
C248 C249 1.366 . S
C249 C246 1.365 . S
C249 C248 1.366 . S
C249 H263 0.930 . S
C250 C247 1.378 . S
C250 N251 1.315 . S
C250 H253 0.930 . S
N251 Co231 2.194 . S
N251 C246 1.328 . S
N251 C250 1.315 . S
H252 C246 0.929 . S
H253 C250 0.930 . S
H254 C242 0.929 . S
H255 C244 0.929 . S
O256 Co231 2.351 1_556 S
O256 C259 1.244 . S
O257 Co231 2.155 1_556 S
O257 C259 1.240 . S
O258 Co231 2.096 . S
O258 C239 1.247 . S
C259 O256 1.244 . S
C259 O257 1.240 . S
H260 C234 0.931 . S
H261 C243 0.931 . S
H262 C247 0.929 . S
H263 C249 0.930 . S
N71 N14 2.147 . S
N38 N113 2.148 . S
N80 N5 2.148 . S
N104 N47 2.147 . S
N146 N203 2.148 . S
N245 N170 2.148 . S
N137 N212 2.147 . S
N179 N236 2.148 . S
C50 C17 1.435 . S
C83 C116 1.435 . S
C182 C149 1.435 1_455 S
C215 C248 1.435 1_655 S
C259 C8 1.062 . S
C206 C61 1.062 . S
C239 C28 1.062 . S
C41 C226 1.062 . S
C193 C74 1.062 . S
C127 C140 1.062 . S
C173 C94 1.062 . S
C107 C160 1.062 . S
