# Generated by pormake.
# Topology sth, (5)-cn, num edge types: 1
# Building blocks:
#     Node 0, Type 0, BuildingBlock: XOMCOT_clean_sbu_0, # of connection points: 5
#     Node 1, Type 0, BuildingBlock: XOMCOT_clean_sbu_0, # of connection points: 5
#     Node 2, Type 0, BuildingBlock: XOMCOT_clean_sbu_0, # of connection points: 5
#     Node 3, Type 0, BuildingBlock: XOMCOT_clean_sbu_0, # of connection points: 5
#     Node 4, Type 0, BuildingBlock: XOMCOT_clean_sbu_0, # of connection points: 5
#     Node 5, Type 0, BuildingBlock: XOMCOT_clean_sbu_0, # of connection points: 5
#     Node 6, Type 0, BuildingBlock: XOMCOT_clean_sbu_0, # of connection points: 5
#     Node 7, Type 0, BuildingBlock: XOMCOT_clean_sbu_0, # of connection points: 5
#     Node 8, Type 0, BuildingBlock: XOMCOT_clean_sbu_0, # of connection points: 5
#     Node 9, Type 0, BuildingBlock: XOMCOT_clean_sbu_0, # of connection points: 5
#     Node 10, Type 0, BuildingBlock: XOMCOT_clean_sbu_0, # of connection points: 5
#     Node 11, Type 0, BuildingBlock: XOMCOT_clean_sbu_0, # of connection points: 5
#     Node 12, Type 0, BuildingBlock: XOMCOT_clean_sbu_0, # of connection points: 5
#     Node 13, Type 0, BuildingBlock: XOMCOT_clean_sbu_0, # of connection points: 5
#     Node 14, Type 0, BuildingBlock: XOMCOT_clean_sbu_0, # of connection points: 5
#     Node 15, Type 0, BuildingBlock: XOMCOT_clean_sbu_0, # of connection points: 5
#     Node 16, Type 0, BuildingBlock: XOMCOT_clean_sbu_0, # of connection points: 5
#     Node 17, Type 0, BuildingBlock: XOMCOT_clean_sbu_0, # of connection points: 5
#     Edge 18, Type (0, 0), BuildingBlock: KIFKEQ_clean_linker_1, # of connection points: 2
#     Edge 19, Type (0, 0), BuildingBlock: KIFKEQ_clean_linker_1, # of connection points: 2
#     Edge 20, Type (0, 0), BuildingBlock: KIFKEQ_clean_linker_1, # of connection points: 2
#     Edge 21, Type (0, 0), BuildingBlock: KIFKEQ_clean_linker_1, # of connection points: 2
#     Edge 22, Type (0, 0), BuildingBlock: KIFKEQ_clean_linker_1, # of connection points: 2
#     Edge 23, Type (0, 0), BuildingBlock: KIFKEQ_clean_linker_1, # of connection points: 2
#     Edge 24, Type (0, 0), BuildingBlock: KIFKEQ_clean_linker_1, # of connection points: 2
#     Edge 25, Type (0, 0), BuildingBlock: KIFKEQ_clean_linker_1, # of connection points: 2
#     Edge 26, Type (0, 0), BuildingBlock: KIFKEQ_clean_linker_1, # of connection points: 2
#     Edge 27, Type (0, 0), BuildingBlock: KIFKEQ_clean_linker_1, # of connection points: 2
#     Edge 28, Type (0, 0), BuildingBlock: KIFKEQ_clean_linker_1, # of connection points: 2
#     Edge 29, Type (0, 0), BuildingBlock: KIFKEQ_clean_linker_1, # of connection points: 2
#     Edge 30, Type (0, 0), BuildingBlock: KIFKEQ_clean_linker_1, # of connection points: 2
#     Edge 31, Type (0, 0), BuildingBlock: KIFKEQ_clean_linker_1, # of connection points: 2
#     Edge 32, Type (0, 0), BuildingBlock: KIFKEQ_clean_linker_1, # of connection points: 2
#     Edge 33, Type (0, 0), BuildingBlock: KIFKEQ_clean_linker_1, # of connection points: 2
#     Edge 34, Type (0, 0), BuildingBlock: KIFKEQ_clean_linker_1, # of connection points: 2
#     Edge 35, Type (0, 0), BuildingBlock: KIFKEQ_clean_linker_1, # of connection points: 2
#     Edge 36, Type (0, 0), BuildingBlock: KIFKEQ_clean_linker_1, # of connection points: 2
#     Edge 37, Type (0, 0), BuildingBlock: KIFKEQ_clean_linker_1, # of connection points: 2
#     Edge 38, Type (0, 0), BuildingBlock: KIFKEQ_clean_linker_1, # of connection points: 2
#     Edge 39, Type (0, 0), BuildingBlock: KIFKEQ_clean_linker_1, # of connection points: 2
#     Edge 40, Type (0, 0), BuildingBlock: KIFKEQ_clean_linker_1, # of connection points: 2
#     Edge 41, Type (0, 0), BuildingBlock: KIFKEQ_clean_linker_1, # of connection points: 2
#     Edge 42, Type (0, 0), BuildingBlock: KIFKEQ_clean_linker_1, # of connection points: 2
#     Edge 43, Type (0, 0), BuildingBlock: KIFKEQ_clean_linker_1, # of connection points: 2
#     Edge 44, Type (0, 0), BuildingBlock: KIFKEQ_clean_linker_1, # of connection points: 2
#     Edge 45, Type (0, 0), BuildingBlock: KIFKEQ_clean_linker_1, # of connection points: 2
#     Edge 46, Type (0, 0), BuildingBlock: KIFKEQ_clean_linker_1, # of connection points: 2
#     Edge 47, Type (0, 0), BuildingBlock: KIFKEQ_clean_linker_1, # of connection points: 2
#     Edge 48, Type (0, 0), BuildingBlock: KIFKEQ_clean_linker_1, # of connection points: 2
#     Edge 49, Type (0, 0), BuildingBlock: KIFKEQ_clean_linker_1, # of connection points: 2
#     Edge 50, Type (0, 0), BuildingBlock: KIFKEQ_clean_linker_1, # of connection points: 2
#     Edge 51, Type (0, 0), BuildingBlock: KIFKEQ_clean_linker_1, # of connection points: 2
#     Edge 52, Type (0, 0), BuildingBlock: KIFKEQ_clean_linker_1, # of connection points: 2
#     Edge 53, Type (0, 0), BuildingBlock: KIFKEQ_clean_linker_1, # of connection points: 2
#     Edge 54, Type (0, 0), BuildingBlock: KIFKEQ_clean_linker_1, # of connection points: 2
#     Edge 55, Type (0, 0), BuildingBlock: KIFKEQ_clean_linker_1, # of connection points: 2
#     Edge 56, Type (0, 0), BuildingBlock: KIFKEQ_clean_linker_1, # of connection points: 2
#     Edge 57, Type (0, 0), BuildingBlock: KIFKEQ_clean_linker_1, # of connection points: 2
#     Edge 58, Type (0, 0), BuildingBlock: KIFKEQ_clean_linker_1, # of connection points: 2
#     Edge 59, Type (0, 0), BuildingBlock: KIFKEQ_clean_linker_1, # of connection points: 2
#     Edge 60, Type (0, 0), BuildingBlock: KIFKEQ_clean_linker_1, # of connection points: 2
#     Edge 61, Type (0, 0), BuildingBlock: KIFKEQ_clean_linker_1, # of connection points: 2
#     Edge 62, Type (0, 0), BuildingBlock: KIFKEQ_clean_linker_1, # of connection points: 2
# Relax obj value: 0.190
# Max RMSD: 0.215
# Mean RMSD: 0.215
data_MOF--net-sth--node1-XOMCOT_clean_sbu_0--edge1-KIFKEQ_clean_linker_1
_symmetry_space_group_name_H-M    P1
_symmetry_Int_Tables_number       1
_symmetry_cell_setting            triclinic
loop_
_symmetry_equiv_pos_as_xyz
'x, y, z'
_cell_length_a     40.972277
_cell_length_b     40.973761
_cell_length_c     79.225237
_cell_angle_alpha  90.155949
_cell_angle_beta   89.925853
_cell_angle_gamma 119.99276
loop_
_atom_site_label
_atom_site_type_symbol
_atom_site_fract_x
_atom_site_fract_y
_atom_site_fract_z
_atom_type_partial_charge
Co0 Co 0.12279 0.29356 0.23286 0.0
C1 C 0.19359 0.33165 0.21303 0.0
C2 C 0.19216 0.3668 0.23286 0.0
C3 C 0.22468 0.38732 0.2237 0.0
N4 N 0.17278 0.33194 0.22621 0.0
N5 N 0.22554 0.36534 0.21118 0.0
H6 H 0.1849 0.30775 0.20469 0.0
H7 H 0.18289 0.37687 0.24343 0.0
C8 C 0.12877 0.22549 0.24012 0.0
O9 O 0.11036 0.22311 0.25409 0.0
N10 N 0.07172 0.25483 0.23885 0.0
C11 C 0.04594 0.25706 0.24869 0.0
C12 C 1.01303 0.22275 0.24853 0.0
C13 C 0.05319 0.21979 0.23216 0.0
N14 N 1.01792 0.1993 0.23828 0.0
C15 C 0.12447 0.31842 0.26673 0.0
C16 C 0.17984 0.30548 0.27923 0.0
C17 C 0.16216 0.31878 0.29025 0.0
C18 C 0.13509 0.32641 0.28355 0.0
C19 C 0.16861 0.29835 0.26224 0.0
N20 N 0.13934 0.30241 0.25645 0.0
H21 H 0.10504 0.3265 0.26193 0.0
H22 H 0.18352 0.28961 0.25378 0.0
H23 H 0.04975 0.28173 0.25528 0.0
H24 H 0.06526 0.20935 0.22294 0.0
O25 O 0.10679 0.33022 0.23166 0.0
O26 O 0.10383 0.29411 0.21024 0.0
O27 O 0.13744 0.25296 0.22992 0.0
C28 C 0.09754 0.32031 0.21611 0.0
H29 H 0.24608 0.41625 0.22613 0.0
H30 H 0.98771 0.21545 0.25565 0.0
H31 H 0.20181 0.30028 0.28366 0.0
H32 H 0.12239 0.33908 0.29118 0.0
Co33 Co 0.76253 0.85525 0.22449 0.0
C34 C 0.70704 0.88132 0.21648 0.0
C35 C 0.75353 0.90019 0.19921 0.0
C36 C 0.7325 0.91616 0.19456 0.0
N37 N 0.73791 0.87851 0.21293 0.0
N38 N 0.70348 0.90442 0.20536 0.0
H39 H 0.68841 0.86782 0.22707 0.0
H40 H 0.77927 0.90485 0.19324 0.0
C41 C 0.83539 0.92169 0.23585 0.0
O42 O 0.83326 0.90349 0.24982 0.0
N43 N 0.79005 0.8332 0.2349 0.0
C44 C 0.78148 0.8086 0.24772 0.0
C45 C 0.8114 0.80255 0.25022 0.0
C46 C 0.82428 0.84042 0.22945 0.0
N47 N 0.83841 0.8228 0.23875 0.0
C48 C 0.71934 0.8334 0.25492 0.0
C49 C 0.74711 0.90387 0.26922 0.0
C50 C 0.72218 0.87202 0.27863 0.0
C51 C 0.70755 0.83658 0.27102 0.0
C52 C 0.75782 0.89938 0.2529 0.0
N53 N 0.74597 0.86421 0.2464 0.0
H54 H 0.7074 0.8056 0.24954 0.0
H55 H 0.77554 0.92428 0.2456 0.0
H56 H 0.75573 0.79566 0.25489 0.0
H57 H 0.83927 0.85978 0.21928 0.0
O58 O 0.72043 0.80585 0.22032 0.0
O59 O 0.76848 0.83564 0.20285 0.0
O60 O 0.8098 0.90633 0.22457 0.0
C61 C 0.73667 0.80531 0.20638 0.0
H62 H 0.73817 0.93529 0.18412 0.0
H63 H 0.81311 0.78474 0.25982 0.0
H64 H 0.75803 0.93194 0.27437 0.0
H65 H 0.68794 0.81114 0.27766 0.0
Co66 Co 0.18951 0.91867 0.23103 0.0
C67 C 0.15561 0.84375 0.21396 0.0
C68 C 0.19753 0.85157 0.23228 0.0
C69 C 0.18529 0.81749 0.22435 0.0
N70 N 0.17896 0.86804 0.22581 0.0
N71 N 0.15902 0.81255 0.21279 0.0
H72 H 0.13753 0.84938 0.20601 0.0
H73 H 0.2191 0.8639 0.2419 0.0
C74 C 0.11518 0.90938 0.24003 0.0
O75 O 0.13301 0.93086 0.25307 0.0
N76 N 0.20129 0.97068 0.23556 0.0
C77 C 0.23386 0.99898 0.2419 0.0
C78 C 0.23361 0.0323 0.2409 0.0
C79 C 0.18264 0.98819 0.22996 0.0
N80 N 0.20134 0.02559 0.23344 0.0
C81 C 0.2145 0.92545 0.26541 0.0
C82 C 0.14998 0.86486 0.27824 0.0
C83 C 0.17991 0.88677 0.28925 0.0
C84 C 0.21274 0.9169 0.28249 0.0
C85 C 0.15302 0.87445 0.26111 0.0
N86 N 0.18429 0.90576 0.25504 0.0
H87 H 0.24091 0.94705 0.2605 0.0
H88 H 0.13019 0.85658 0.25272 0.0
H89 H 0.25771 0.99673 0.24601 0.0
H90 H 0.15658 0.97425 0.2229 0.0
O91 O 0.24243 0.93627 0.22905 0.0
O92 O 0.20604 0.93371 0.2078 0.0
O93 O 0.13359 0.90154 0.22919 0.0
C94 C 0.23959 0.9427 0.21327 0.0
H95 H 0.19503 0.79783 0.2269 0.0
H96 H 0.25581 0.0595 0.2452 0.0
H97 H 0.12439 0.84071 0.2828 0.0
H98 H 0.23742 0.93329 0.29026 0.0
Co99 Co 0.29184 0.11944 0.7949 0.0
C100 C 0.33174 0.18566 0.81776 0.0
C101 C 0.36827 0.18216 0.79923 0.0
C102 C 0.38974 0.21172 0.80986 0.0
N103 N 0.33202 0.16572 0.8042 0.0
N104 N 0.36685 0.21386 0.82149 0.0
H105 H 0.3068 0.17895 0.82505 0.0
H106 H 0.37853 0.17264 0.78882 0.0
C107 C 0.22694 0.13169 0.78997 0.0
O108 O 0.22319 0.11515 0.7753 0.0
N109 N 0.25133 0.07197 0.78598 0.0
C110 C 0.24645 0.05622 0.77049 0.0
C111 C 0.21261 0.02304 0.77009 0.0
C112 C 0.22049 0.04745 0.79483 0.0
N113 N 0.19642 0.0176 0.78537 0.0
C114 C 0.32112 0.13277 0.7612 0.0
C115 C 0.31063 0.1927 0.75372 0.0
C116 C 0.325 0.17896 0.74133 0.0
C117 C 0.33107 0.14928 0.7453 0.0
C118 C 0.30113 0.17531 0.76958 0.0
N119 N 0.30381 0.14387 0.77276 0.0
H120 H 0.32684 0.11038 0.76406 0.0
H121 H 0.29211 0.18755 0.77931 0.0
H122 H 0.26517 0.06739 0.75989 0.0
H123 H 0.21528 0.05194 0.80779 0.0
O124 O 0.32572 0.0997 0.79402 0.0
O125 O 0.28963 0.09337 0.81594 0.0
O126 O 0.25354 0.13627 0.79998 0.0
C127 C 0.31511 0.08716 0.80918 0.0
H128 H 0.41995 0.2303 0.80914 0.0
H129 H 0.20082 1.00421 0.75939 0.0
H130 H 0.3071 0.21673 0.75121 0.0
H131 H 0.34339 0.13887 0.73615 0.0
Co132 Co 0.91908 0.16966 0.80003 0.0
C133 C 0.84249 0.14944 0.81493 0.0
C134 C 0.84178 0.10959 0.79708 0.0
C135 C 0.80561 0.09727 0.80217 0.0
N136 N 0.86522 0.14232 0.80492 0.0
N137 N 0.80568 0.12219 0.81331 0.0
H138 H 0.85236 0.17398 0.82296 0.0
H139 H 0.85039 0.09561 0.788 0.0
C140 C 0.9388 0.10693 0.79519 0.0
O141 O 0.97082 0.12998 0.7878 0.0
N142 N 0.97283 0.19632 0.79508 0.0
C143 C 0.99025 0.21679 0.78129 0.0
C144 C 0.02756 0.22614 0.78178 0.0
C145 C 1.00028 0.19546 0.80424 0.0
N146 N 0.0338 0.212 0.79604 0.0
C147 C 0.88692 0.1836 0.77134 0.0
C148 C 0.90249 0.14411 0.74749 0.0
C149 C 0.88303 0.16257 0.74249 0.0
C150 C 0.87548 0.18264 0.75472 0.0
C151 C 0.91386 0.14616 0.7643 0.0
N152 N 0.90605 0.16573 0.77607 0.0
H153 H 0.87979 0.19849 0.78054 0.0
H154 H 0.92885 0.13197 0.76749 0.0
H155 H 0.97649 0.22276 0.77111 0.0
H156 H 0.99474 0.17977 0.81586 0.0
O157 O 0.92269 0.21761 0.80403 0.0
O158 O 0.93162 0.18471 0.82368 0.0
O159 O 0.91661 0.11854 0.8003 0.0
C160 C 0.9321 0.21576 0.81944 0.0
H161 H 0.78106 0.07138 0.79813 0.0
H162 H 0.04765 0.23968 0.77167 0.0
H163 H 0.90865 0.12786 0.73857 0.0
H164 H 0.86114 0.19794 0.75152 0.0
Co165 Co 0.86595 0.74102 0.79956 0.0
C166 C 0.88818 0.68213 0.80802 0.0
C167 C 0.86685 0.69847 0.82915 0.0
C168 C 0.87597 0.67242 0.83455 0.0
N169 N 0.87397 0.70469 0.81243 0.0
N170 N 0.88953 0.66227 0.82136 0.0
H171 H 0.89845 0.68095 0.79559 0.0
H172 H 0.85663 0.71249 0.83734 0.0
C173 C 0.95055 0.78239 0.80368 0.0
O174 O 0.95133 0.75148 0.80026 0.0
N175 N 0.85815 0.77779 0.7879 0.0
C176 C 0.83754 0.77416 0.77406 0.0
C177 C 0.83923 0.80829 0.77117 0.0
C178 C 0.87158 0.81337 0.79331 0.0
N179 N 0.86082 0.83287 0.78331 0.0
C180 C 0.85751 0.69166 0.77205 0.0
C181 C 0.9098 0.747 0.75106 0.0
C182 C 0.88658 0.71081 0.74441 0.0
C183 C 0.8609 0.68267 0.75529 0.0
C184 C 0.90583 0.7547 0.76791 0.0
N185 N 0.87967 0.72732 0.77818 0.0
H186 H 0.83595 0.67029 0.77996 0.0
H187 H 0.92204 0.78345 0.77231 0.0
H188 H 0.82232 0.74862 0.76669 0.0
H189 H 0.88811 0.8244 0.8047 0.0
O190 O 0.81228 0.70575 0.7991 0.0
O191 O 0.84187 0.74861 0.81902 0.0
O192 O 0.91932 0.7822 0.8041 0.0
C193 C 0.81032 0.72115 0.81317 0.0
H194 H 0.8744 0.66286 0.84741 0.0
H195 H 0.82589 0.81455 0.76089 0.0
H196 H 0.92991 0.76964 0.74312 0.0
H197 H 0.84198 0.65449 0.75065 0.0
Co198 Co 0.81122 0.62145 0.56252 0.0
C199 C 0.89341 0.67415 0.55444 0.0
C200 C 0.86667 0.62309 0.53978 0.0
C201 C 0.90396 0.64268 0.53544 0.0
N202 N 0.85993 0.64236 0.55177 0.0
N203 N 0.92075 0.67461 0.5446 0.0
H204 H 0.89787 0.69577 0.56353 0.0
H205 H 0.84577 0.59608 0.53472 0.0
C206 C 0.79583 0.54509 0.57473 0.0
O207 O 0.77892 0.5485 0.58816 0.0
N208 N 0.76106 0.59759 0.57224 0.0
C209 C 0.7467 0.60392 0.58641 0.0
C210 C 0.71039 0.57422 0.58862 0.0
C211 C 0.73304 0.56511 0.56588 0.0
N212 N 0.70226 0.54958 0.5758 0.0
C213 C 0.83386 0.66757 0.59219 0.0
C214 C 0.86316 0.63042 0.61011 0.0
C215 C 0.85773 0.65763 0.61853 0.0
C216 C 0.84481 0.67763 0.60893 0.0
C217 C 0.85257 0.62179 0.59308 0.0
N218 N 0.83512 0.6381 0.58477 0.0
H219 H 0.82218 0.68232 0.58555 0.0
H220 H 0.85776 0.60141 0.58685 0.0
H221 H 0.76146 0.62714 0.59504 0.0
H222 H 0.73625 0.55194 0.55463 0.0
O223 O 0.80757 0.66541 0.55668 0.0
O224 O 0.78761 0.61516 0.54042 0.0
O225 O 0.81061 0.57167 0.56386 0.0
C226 C 0.79076 0.64806 0.54289 0.0
H227 H 0.91784 0.63431 0.52617 0.0
H228 H 0.69234 0.57006 0.59935 0.0
H229 H 0.87425 0.61493 0.61668 0.0
H230 H 0.8421 0.70041 0.61439 0.0
Co231 Co 0.43303 0.20681 0.56562 0.0
C232 C 0.37549 0.22955 0.5551 0.0
C233 C 0.41243 0.23162 0.53539 0.0
C234 C 0.39096 0.24592 0.5292 0.0
N235 N 0.40319 0.22146 0.55167 0.0
N236 N 0.36789 0.2446 0.54155 0.0
H237 H 0.36335 0.22782 0.56737 0.0
H238 H 0.43516 0.23106 0.52871 0.0
C239 C 0.47622 0.29008 0.56443 0.0
O240 O 0.44401 0.28832 0.56775 0.0
N241 N 0.464 0.19247 0.5783 0.0
C242 C 0.45318 0.16635 0.59055 0.0
C243 C 0.48245 0.15965 0.5937 0.0
C244 C 0.49943 0.20141 0.57421 0.0
N245 N 0.51142 0.18173 0.58338 0.0
C246 C 0.38155 0.19887 0.59201 0.0
C247 C 0.43556 0.24823 0.61436 0.0
C248 C 0.39818 0.22686 0.6199 0.0
C249 C 0.37088 0.20236 0.60838 0.0
C250 C 0.44499 0.2439 0.5979 0.0
N251 N 0.41807 0.21996 0.58679 0.0
H252 H 0.36054 0.17815 0.58365 0.0
H253 H 0.47443 0.25831 0.59446 0.0
H254 H 0.42539 0.15185 0.59615 0.0
H255 H 0.51512 0.21997 0.5639 0.0
O256 O 0.3936 0.15488 0.56447 0.0
O257 O 0.44009 0.18223 0.54597 0.0
O258 O 0.47775 0.25967 0.56314 0.0
C259 C 0.40973 0.15191 0.55092 0.0
H260 H 0.39343 0.25824 0.51686 0.0
H261 H 0.48206 0.13931 0.60251 0.0
H262 H 0.45768 0.26721 0.62286 0.0
H263 H 0.34186 0.18446 0.61223 0.0
Co264 Co 0.83985 0.22875 0.56379 0.0
C265 C 0.80228 0.15362 0.54568 0.0
C266 C 0.85725 0.1688 0.55476 0.0
C267 C 0.84206 0.13409 0.54722 0.0
N268 N 0.83185 0.18071 0.55455 0.0
N269 N 0.80746 0.12441 0.5416 0.0
H270 H 0.77751 0.15499 0.54219 0.0
H271 H 0.8857 0.18455 0.5595 0.0
C272 C 0.75604 0.18242 0.56768 0.0
O273 O 0.76088 0.15644 0.57504 0.0
N274 N 0.84861 0.27659 0.57247 0.0
C275 C 0.87522 0.29828 0.58381 0.0
C276 C 0.87487 0.33146 0.58576 0.0
C277 C 0.83229 0.29671 0.56769 0.0
N278 N 0.84794 0.33046 0.57564 0.0
C279 C 0.8573 0.19874 0.59284 0.0
C280 C 0.80798 0.20394 0.61498 0.0
C281 C 0.83115 0.19028 0.62093 0.0
C282 C 0.85625 0.18814 0.60959 0.0
C283 C 0.81018 0.21457 0.59805 0.0
N284 N 0.83352 0.21038 0.58698 0.0
H285 H 0.87886 0.19946 0.58492 0.0
H286 H 0.79355 0.22684 0.59394 0.0
H287 H 0.89398 0.29068 0.59001 0.0
H288 H 0.81038 0.28743 0.55823 0.0
O289 O 0.89345 0.2496 0.5622 0.0
O290 O 0.85785 0.25196 0.54177 0.0
O291 O 0.78437 0.21194 0.56163 0.0
C292 C 0.89142 0.26085 0.54715 0.0
H293 H 0.85581 0.11758 0.54558 0.0
H294 H 0.89307 0.3546 0.594 0.0
H295 H 0.78864 0.20686 0.62332 0.0
H296 H 0.87626 0.17988 0.61373 0.0
Co297 Co 0.94536 0.46028 0.134 0.0
C298 C 1.00001 0.54083 0.1444 0.0
C299 C 0.94385 0.51839 0.15413 0.0
C300 C 0.96489 0.55498 0.15944 0.0
N301 N 0.96541 0.50945 0.1445 0.0
N302 N 1.00006 0.56912 0.15339 0.0
H303 H 0.02425 0.54304 0.13786 0.0
H304 H 0.91465 0.49936 0.15725 0.0
C305 C 0.87418 0.44823 0.11778 0.0
O306 O 0.8817 0.433 0.10481 0.0
N307 N 0.92205 0.40942 0.12458 0.0
C308 C 0.93373 0.39276 0.11325 0.0
C309 C 0.90535 0.35585 0.11097 0.0
C310 C 0.88743 0.3819 0.12939 0.0
N311 N 0.87613 0.34912 0.12111 0.0
C312 C 0.99265 0.4797 0.10499 0.0
C313 C 0.96494 0.5189 0.08753 0.0
C314 C 0.98999 0.51007 0.07935 0.0
C315 C 1.00524 0.49191 0.08867 0.0
C316 C 0.95327 0.5063 0.10412 0.0
N317 N 0.96471 0.48408 0.11206 0.0
H318 H 1.00487 0.4656 0.11172 0.0
H319 H 0.93444 0.51376 0.11035 0.0
H320 H 0.96063 0.40571 0.10697 0.0
H321 H 0.8702 0.38647 0.13837 0.0
O322 O 0.98872 0.4575 0.14092 0.0
O323 O 0.937 0.437 0.1563 0.0
O324 O 0.89624 0.45978 0.13055 0.0
C325 C 0.97051 0.44103 0.15452 0.0
H326 H 0.95535 0.57001 0.16746 0.0
H327 H 0.90626 0.33561 0.10247 0.0
H328 H 0.95353 0.53422 0.08103 0.0
H329 H 0.02632 0.4864 0.08327 0.0
Co330 Co 0.57141 0.50303 0.12934 0.0
C331 C 0.49125 0.47856 0.14083 0.0
C332 C 0.53089 0.49186 0.16095 0.0
C333 C 0.4958 0.47742 0.16786 0.0
N334 N 0.5286 0.49268 0.14395 0.0
N335 N 0.47085 0.46873 0.15528 0.0
H336 H 0.47861 0.47218 0.12843 0.0
H337 H 0.55597 0.49872 0.16808 0.0
C338 C 0.53037 0.41907 0.1323 0.0
O339 O 0.49941 0.4192 0.12826 0.0
N340 N 0.61466 0.51261 0.11604 0.0
C341 C 0.62907 0.53347 0.10201 0.0
C342 C 0.66157 0.53296 0.09771 0.0
C343 C 0.63835 0.50018 0.12016 0.0
N344 N 0.66732 0.51211 0.10925 0.0
C345 C 0.52662 0.51067 0.10383 0.0
C346 C 0.53063 0.46175 0.0809 0.0
C347 C 0.51723 0.48543 0.07539 0.0
C348 C 0.51416 0.50921 0.08728 0.0
C349 C 0.54282 0.46409 0.09758 0.0
N350 N 0.5412 0.4887 0.10879 0.0
H351 H 0.52637 0.53098 0.11248 0.0
H352 H 0.55647 0.44833 0.10103 0.0
H353 H 0.61707 0.54821 0.09552 0.0
H354 H 0.63431 0.4827 0.13106 0.0
O355 O 0.58757 0.5562 0.12915 0.0
O356 O 0.60558 0.52865 0.148 0.0
O357 O 0.56153 0.45011 0.13333 0.0
C358 C 0.60749 0.55946 0.14245 0.0
H359 H 0.48877 0.47168 0.18111 0.0
H360 H 0.67992 0.54751 0.08717 0.0
H361 H 0.53428 0.44352 0.07212 0.0
H362 H 0.50368 0.52777 0.08366 0.0
Co363 Co 0.53025 0.0772 0.12739 0.0
C364 C 0.56299 0.03914 0.14766 0.0
C365 C 0.52215 1.00263 0.12941 0.0
C366 C 0.5328 0.98161 0.13894 0.0
N367 N 0.54095 0.03863 0.13484 0.0
N368 N 0.55831 1.00442 0.15043 0.0
H369 H 0.58073 0.06383 0.1552 0.0
H370 H 0.50108 0.99208 0.11956 0.0
C371 C 0.60392 0.14313 0.11765 0.0
O372 O 0.58591 0.14469 0.10423 0.0
N373 N 0.51782 0.11531 0.12022 0.0
C374 C 0.48835 0.10959 0.11053 0.0
C375 C 0.48676 0.14211 0.10977 0.0
C376 C 0.53267 0.15124 0.12588 0.0
N377 N 0.51478 0.16854 0.11928 0.0
C378 C 0.50284 0.04596 0.09459 0.0
C379 C 0.5705 0.06078 0.08051 0.0
C380 C 0.53843 0.04665 0.0702 0.0
C381 C 0.50405 0.03775 0.07767 0.0
C382 C 0.56787 0.06849 0.09757 0.0
N383 N 0.53492 0.0642 0.10403 0.0
H384 H 0.47562 0.03674 0.10009 0.0
H385 H 0.59245 0.07816 0.10548 0.0
H386 H 0.46749 0.08324 0.10515 0.0
H387 H 0.55591 0.16431 0.13469 0.0
O388 O 0.47735 0.04238 0.13021 0.0
O389 O 0.51422 0.08099 0.15021 0.0
O390 O 0.58612 0.11714 0.12865 0.0
C391 C 0.48054 0.0553 0.1454 0.0
H392 H 0.52235 0.95169 0.13762 0.0
H393 H 0.46531 0.14537 0.10331 0.0
H394 H 0.59738 0.06648 0.07542 0.0
H395 H 0.47805 0.02424 0.07051 0.0
Co396 Co 0.45527 0.93581 0.89132 0.0
C397 C 0.53121 0.98941 0.87522 0.0
C398 C 0.5314 0.94818 0.8918 0.0
C399 C 0.56745 0.97143 0.88641 0.0
N400 N 0.5083 0.95902 0.88487 0.0
N401 N 0.56773 0.99766 0.8761 0.0
H402 H 0.52182 1.00589 0.86826 0.0
H403 H 0.52296 0.9257 0.90086 0.0
C404 C 0.43412 0.85375 0.89964 0.0
O405 O 0.40296 0.84616 0.90751 0.0
N406 N 0.40233 0.91191 0.8976 0.0
C407 C 0.38666 0.92105 0.91035 0.0
C408 C 0.34907 0.89392 0.91139 0.0
C409 C 0.37357 0.88098 0.89035 0.0
N410 N 0.34097 0.86804 0.89907 0.0
C411 C 0.49733 0.98654 0.91762 0.0
C412 C 0.47167 0.93669 0.94429 0.0
C413 C 0.49839 0.97458 0.94746 0.0
C414 C 0.5114 0.99951 0.93376 0.0
C415 C 0.45879 0.92475 0.92785 0.0
N416 N 0.4717 0.9495 0.91469 0.0
H417 H 0.50736 1.00644 0.90732 0.0
H418 H 0.43754 0.89602 0.92604 0.0
H419 H 0.4018 0.94467 0.91882 0.0
H420 H 0.37768 0.86589 0.8801 0.0
O421 O 0.45352 0.98048 0.88556 0.0
O422 O 0.4396 0.93314 0.86792 0.0
O423 O 0.45543 0.88617 0.89301 0.0
C424 C 0.44139 0.9654 0.87082 0.0
H425 H 0.59177 0.96919 0.88994 0.0
H426 H 0.32979 0.89251 0.92109 0.0
H427 H 0.45987 0.91651 0.95448 0.0
H428 H 0.53234 0.02893 0.93542 0.0
Co429 Co 0.08582 0.51549 0.90026 0.0
C430 C 0.0459 0.54582 0.88031 0.0
C431 C 1.01221 0.51043 0.90071 0.0
C432 C 0.9902 0.51971 0.89107 0.0
N433 N 0.04702 0.52669 0.89396 0.0
N434 N 1.01134 0.54182 0.87827 0.0
H435 H 0.06907 0.56045 0.87157 0.0
H436 H 1.00303 0.49169 0.91146 0.0
C437 C 0.15319 0.59054 0.90642 0.0
O438 O 0.15725 0.57504 0.92018 0.0
N439 N 0.12463 0.50279 0.90589 0.0
C440 C 0.11893 0.47052 0.91319 0.0
C441 C 0.15057 0.46748 0.91135 0.0
C442 C 0.15965 0.51807 0.8991 0.0
N443 N 0.17611 0.49736 0.90253 0.0
C444 C 0.0691 0.49811 0.93541 0.0
C445 C 0.0748 0.56554 0.94523 0.0
C446 C 0.06657 0.53775 0.95744 0.0
C447 C 0.06321 0.50354 0.95224 0.0
C448 C 0.08095 0.55902 0.92842 0.0
N449 N 0.07974 0.52616 0.92382 0.0
H450 H 0.06342 0.47061 0.9317 0.0
H451 H 0.08628 0.58029 0.91908 0.0
H452 H 0.09257 0.44835 0.91805 0.0
H453 H 0.17185 0.54224 0.89081 0.0
O454 O 0.04871 0.46263 0.90011 0.0
O455 O 0.08257 0.49381 0.87789 0.0
O456 O 0.12594 0.57045 0.89628 0.0
C457 C 0.05706 0.46183 0.88439 0.0
H458 H 0.96064 0.51028 0.89306 0.0
H459 H 0.15392 0.44413 0.91544 0.0
H460 H 0.07662 0.59201 0.94864 0.0
H461 H 0.05492 0.48053 0.96105 0.0
Co462 Co 0.51315 0.56442 0.89393 0.0
C463 C 0.4917 0.48309 0.88678 0.0
C464 C 0.51359 0.51899 0.86518 0.0
C465 C 0.50434 0.4833 0.86041 0.0
N466 N 0.50604 0.51945 0.88179 0.0
N467 N 0.49037 0.46072 0.87391 0.0
H468 H 0.48147 0.47271 0.89933 0.0
H469 H 0.52409 0.54257 0.85664 0.0
C470 C 0.42872 0.51873 0.89163 0.0
O471 O 0.43031 0.4897 0.89753 0.0
N472 N 0.52022 0.60932 0.90506 0.0
C473 C 0.54294 0.62814 0.91813 0.0
C474 C 0.54037 0.66002 0.92114 0.0
C475 C 0.50448 0.62977 0.90023 0.0
N476 N 0.51605 0.66078 0.90987 0.0
C477 C 0.52392 0.52669 0.92199 0.0
C478 C 0.47099 0.52909 0.94285 0.0
C479 C 0.49491 0.51719 0.94967 0.0
C480 C 0.52118 0.51539 0.93885 0.0
C481 C 0.47489 0.54045 0.92601 0.0
N482 N 0.50093 0.53898 0.91572 0.0
H483 H 0.54554 0.52693 0.91407 0.0
H484 H 0.45824 0.5524 0.92153 0.0
H485 H 0.56026 0.61946 0.92487 0.0
H486 H 0.48574 0.62261 0.88952 0.0
O487 O 0.56703 0.58416 0.89419 0.0
O488 O 0.53608 0.59468 0.87401 0.0
O489 O 0.45901 0.5501 0.88934 0.0
C490 C 0.56813 0.60014 0.87987 0.0
H491 H 0.50595 0.47417 0.84775 0.0
H492 H 0.55504 0.68083 0.9309 0.0
H493 H 0.45012 0.53085 0.95058 0.0
H494 H 0.54084 0.50718 0.94353 0.0
Co495 Co 0.62907 0.77886 0.45792 0.0
C496 C 0.66248 0.85365 0.475 0.0
C497 C 0.70106 0.84967 0.45786 0.0
C498 C 0.71804 0.88563 0.46432 0.0
N499 N 0.66616 0.82971 0.46443 0.0
N500 N 0.69383 0.88818 0.47505 0.0
H501 H 0.63718 0.84634 0.48212 0.0
H502 H 0.71305 0.83899 0.44873 0.0
C503 C 0.55885 0.78085 0.45105 0.0
O504 O 0.55591 0.76095 0.43751 0.0
N505 N 0.59128 0.72725 0.45184 0.0
C506 C 0.58839 0.7067 0.43796 0.0
C507 C 0.55449 0.67347 0.43836 0.0
C508 C 0.55942 0.70531 0.46074 0.0
N509 N 0.53636 0.67271 0.45265 0.0
C510 C 0.65711 0.7848 0.42414 0.0
C511 C 0.64076 0.83852 0.41254 0.0
C512 C 0.65876 0.82549 0.40161 0.0
C513 C 0.66713 0.79844 0.40771 0.0
C514 C 0.63137 0.82417 0.42898 0.0
N515 N 0.63767 0.79604 0.43437 0.0
H516 H 0.66567 0.76543 0.42869 0.0
H517 H 0.62025 0.83681 0.43749 0.0
H518 H 0.60839 0.71488 0.42783 0.0
H519 H 0.55222 0.71409 0.47239 0.0
O520 O 0.66719 0.76442 0.4594 0.0
O521 O 0.63044 0.76082 0.4806 0.0
O522 O 0.58717 0.79137 0.46092 0.0
C523 C 0.65754 0.75569 0.47503 0.0
H524 H 0.74617 0.90821 0.46141 0.0
H525 H 0.54355 0.65181 0.42871 0.0
H526 H 0.63515 0.86055 0.40863 0.0
H527 H 0.68147 0.78783 0.39987 0.0
Co528 Co 0.26864 0.8607 0.46649 0.0
C529 C 0.19723 0.82477 0.48667 0.0
C530 C 0.20137 0.86723 0.46953 0.0
C531 C 0.16931 0.85505 0.47899 0.0
N532 N 0.21898 0.84843 0.47431 0.0
N533 N 0.16671 0.8285 0.48978 0.0
H534 H 0.20427 0.80642 0.49362 0.0
H535 H 0.21179 0.88924 0.46011 0.0
C536 C 0.26266 0.78877 0.45552 0.0
O537 O 0.28072 0.80768 0.44197 0.0
N538 N 0.3195 0.87439 0.45913 0.0
C539 C 0.3434 0.90371 0.4494 0.0
C540 C 0.37684 0.90376 0.44791 0.0
C541 C 0.33992 0.8584 0.46418 0.0
N542 N 0.37457 0.87505 0.45707 0.0
C543 C 0.26278 0.88784 0.43385 0.0
C544 C 0.2053 0.82047 0.42136 0.0
C545 C 0.21981 0.8527 0.41126 0.0
C546 C 0.24853 0.88676 0.41777 0.0
C547 C 0.21993 0.82301 0.43759 0.0
N548 N 0.24997 0.85595 0.44332 0.0
H549 H 0.28281 0.91492 0.43891 0.0
H550 H 0.20638 0.79858 0.44566 0.0
H551 H 0.33808 0.92475 0.44412 0.0
H552 H 0.32928 0.83443 0.47256 0.0
O553 O 0.28478 0.91305 0.46985 0.0
O554 O 0.2887 0.8763 0.48925 0.0
O555 O 0.25433 0.80535 0.46711 0.0
C556 C 0.29435 0.9095 0.48501 0.0
H557 H 0.14942 0.86507 0.47807 0.0
H558 H 0.4012 0.92378 0.44077 0.0
H559 H 0.18203 0.79393 0.417 0.0
H560 H 0.2597 0.91256 0.41054 0.0
Co561 Co 0.19086 0.42023 0.46942 0.0
C562 C 0.22388 0.38407 0.49162 0.0
C563 C 0.16758 0.34503 0.48387 0.0
C564 C 0.17941 0.32671 0.49449 0.0
N565 N 0.19573 0.38096 0.48151 0.0
N566 N 0.21485 0.35117 0.49932 0.0
H567 H 0.24987 0.40993 0.49401 0.0
H568 H 0.13975 0.33251 0.47839 0.0
C569 C 0.27505 0.45715 0.469 0.0
O570 O 0.27139 0.42576 0.46273 0.0
N571 N 0.18478 0.45892 0.45842 0.0
C572 C 0.16193 0.45429 0.44532 0.0
C573 C 0.16359 0.48812 0.44218 0.0
C574 C 0.19955 0.49521 0.46326 0.0
N575 N 0.1872 0.51386 0.45348 0.0
C576 C 0.18481 0.3685 0.44333 0.0
C577 C 0.22642 0.42184 0.41922 0.0
C578 C 0.20738 0.38357 0.41453 0.0
C579 C 0.18795 0.35689 0.42719 0.0
C580 C 0.22397 0.43225 0.43586 0.0
N581 N 0.20249 0.40571 0.44763 0.0
H582 H 0.16646 0.3472 0.45202 0.0
H583 H 0.23785 0.46188 0.43903 0.0
H584 H 0.14486 0.42799 0.4387 0.0
H585 H 0.21879 0.50757 0.47376 0.0
O586 O 0.13714 0.38792 0.46868 0.0
O587 O 0.16801 0.42719 0.48968 0.0
O588 O 0.24587 0.45898 0.47329 0.0
C589 C 0.13584 0.40175 0.48326 0.0
H590 H 0.16331 0.29741 0.49821 0.0
H591 H 0.14783 0.49305 0.43256 0.0
H592 H 0.24161 0.44383 0.41004 0.0
H593 H 0.17373 0.32695 0.42461 0.0
H594 H 0.43279 0.40389 0.17217 0.0
H595 H 0.41884 0.48575 0.14397 0.0
H596 H 0.36781 0.37464 0.18183 0.0
H597 H 0.35288 0.45616 0.15342 0.0
H598 H 0.27119 0.43542 0.19888 0.0
H599 H 0.32599 0.45568 0.18087 0.0
H600 H 0.30095 0.34033 0.17635 0.0
H601 H 0.24657 0.32022 0.19497 0.0
C602 C 0.41522 0.41487 0.16767 0.0
C603 C 0.43067 0.44714 0.15746 0.0
C604 C 0.37789 0.39802 0.17311 0.0
C605 C 0.35507 0.4132 0.16855 0.0
C606 C 0.36984 0.44404 0.15734 0.0
C607 C 0.40736 0.46078 0.15178 0.0
C608 C 0.27724 0.41431 0.19402 0.0
C609 C 0.2549 0.37627 0.19868 0.0
C610 C 0.30841 0.42588 0.18343 0.0
C611 C 0.31814 0.39972 0.1772 0.0
C612 C 0.29454 0.36132 0.18109 0.0
C613 C 0.26322 0.34972 0.19168 0.0
H614 H 0.71302 0.97182 0.21402 0.0
H615 H 0.63362 0.86414 0.19291 0.0
H616 H 0.67403 0.99809 0.20459 0.0
H617 H 0.59505 0.89005 0.18273 0.0
H618 H 0.52497 0.94008 0.16841 0.0
H619 H 0.55562 0.91557 0.18661 0.0
H620 H 0.66247 0.01713 0.17834 0.0
H621 H 0.63105 0.04196 0.16066 0.0
C622 C 0.68638 0.95353 0.20785 0.0
C623 C 0.67573 0.91589 0.20444 0.0
C624 C 0.66437 0.96863 0.20216 0.0
C625 C 0.63153 0.94649 0.19262 0.0
C626 C 0.61977 0.90802 0.1902 0.0
C627 C 0.64167 0.89293 0.19608 0.0
C628 C 0.55493 0.9573 0.17071 0.0
C629 C 0.57576 0.99274 0.16299 0.0
C630 C 0.57259 0.94321 0.18108 0.0
C631 C 0.61173 0.96396 0.18382 0.0
C632 C 0.63223 1.00036 0.17675 0.0
C633 C 0.61435 1.01468 0.16655 0.0
H634 H 1.00209 0.63366 0.1457 0.0
H635 H 0.06405 0.58844 0.17054 0.0
H636 H 0.04424 0.69576 0.15772 0.0
H637 H 0.10557 0.65002 0.1834 0.0
H638 H 0.18623 0.7701 0.19927 0.0
H639 H 0.15251 0.71374 0.1819 0.0
H640 H 0.05324 0.72518 0.18394 0.0
H641 H 0.08765 0.78225 0.20089 0.0
C642 C 0.0255 0.63747 0.15345 0.0
C643 C 0.03026 0.60658 0.15703 0.0
C644 C 0.04929 0.67285 0.16062 0.0
C645 C 0.07808 0.6781 0.17189 0.0
C646 C 0.08407 0.64745 0.1747 0.0
C647 C 0.06046 0.61211 0.16729 0.0
C648 C 0.15721 0.76059 0.19596 0.0
C649 C 0.13955 0.78058 0.20157 0.0
C650 C 0.13776 0.72812 0.186 0.0
C651 C 0.0999 0.71442 0.18147 0.0
C652 C 0.08251 0.73498 0.18683 0.0
C653 C 0.10216 0.76774 0.19664 0.0
H654 H 0.5201 0.42172 0.86038 0.0
H655 H 0.42062 0.40942 0.88477 0.0
H656 H 0.48626 0.35568 0.85225 0.0
H657 H 0.38601 0.34236 0.8768 0.0
H658 H 0.33405 0.25399 0.83133 0.0
H659 H 0.36259 0.30998 0.84954 0.0
H660 H 0.45509 0.29081 0.86018 0.0
H661 H 0.42708 0.23598 0.84156 0.0
C662 C 0.4912 0.40428 0.86449 0.0
C663 C 0.47296 0.42041 0.8732 0.0
C664 C 0.4717 0.36637 0.85989 0.0
C665 C 0.43324 0.34358 0.8638 0.0
C666 C 0.41551 0.3592 0.87348 0.0
C667 C 0.43534 0.39734 0.87823 0.0
C668 C 0.35994 0.26136 0.83796 0.0
C669 C 0.37879 0.24126 0.83487 0.0
C670 C 0.37628 0.2933 0.84843 0.0
C671 C 0.41155 0.30534 0.85609 0.0
C672 C 0.42842 0.28293 0.85416 0.0
C673 C 0.41239 0.25149 0.84356 0.0
H674 H 0.80045 0.14505 0.84508 0.0
H675 H 0.73493 0.08902 0.80083 0.0
H676 H 0.74222 0.12628 0.86079 0.0
H677 H 0.67727 0.06808 0.81651 0.0
H678 H 0.57303 0.03153 0.84581 0.0
H679 H 0.63121 0.07386 0.83068 0.0
H680 H 0.69633 0.07157 0.87313 0.0
H681 H 0.6388 0.03201 0.88836 0.0
C682 C 0.77369 0.12923 0.83864 0.0
C683 C 0.77241 0.11776 0.82182 0.0
C684 C 0.74014 0.11794 0.84769 0.0
C685 C 0.70455 0.09468 0.84014 0.0
C686 C 0.70367 0.08594 0.82292 0.0
C687 C 0.737 0.09752 0.81391 0.0
C688 C 0.59983 0.04101 0.85201 0.0
C689 C 0.60116 0.02751 0.86812 0.0
C690 C 0.63334 0.06495 0.84328 0.0
C691 C 0.66896 0.07575 0.85043 0.0
C692 C 0.66991 0.06434 0.86706 0.0
C693 C 0.63662 0.04091 0.87577 0.0
H694 H 0.94774 0.50205 0.86041 0.0
H695 H 0.04485 0.61271 0.86594 0.0
H696 H 0.91964 0.52676 0.84079 0.0
H697 H 1.01614 0.63839 0.84692 0.0
H698 H 0.95859 0.67743 0.81072 0.0
H699 H 0.99176 0.64454 0.82008 0.0
H700 H 0.8907 0.56273 0.84592 0.0
H701 H 0.85824 0.595 0.83622 0.0
C702 C 0.96314 0.53171 0.85724 0.0
C703 C 0.99809 0.55566 0.86481 0.0
C704 C 0.94707 0.54598 0.84607 0.0
C705 C 0.96515 0.58479 0.84251 0.0
C706 C 1.00142 0.60834 0.84924 0.0
C707 C 1.01786 0.59379 0.8602 0.0
C708 C 0.94335 0.65153 0.81782 0.0
C709 C 0.90592 0.63853 0.82275 0.0
C710 C 0.96238 0.633 0.82341 0.0
C711 C 0.94411 0.60107 0.83391 0.0
C712 C 0.90577 0.58679 0.83769 0.0
C713 C 0.88702 0.60529 0.83219 0.0
H714 H 0.73969 0.66833 0.80282 0.0
H715 H 0.79993 0.74106 0.84481 0.0
H716 H 0.68114 0.6418 0.81896 0.0
H717 H 0.74132 0.71466 0.86092 0.0
H718 H 0.6394 0.62135 0.89043 0.0
H719 H 0.69765 0.6531 0.87412 0.0
H720 H 0.63563 0.6587 0.83126 0.0
H721 H 0.57723 0.62671 0.84757 0.0
C722 C 0.74038 0.67887 0.81544 0.0
C723 C 0.77445 0.70672 0.82255 0.0
C724 C 0.70679 0.66381 0.82466 0.0
C725 C 0.70658 0.67605 0.84124 0.0
C726 C 0.74061 0.70435 0.84824 0.0
C727 C 0.77414 0.71962 0.83897 0.0
C728 C 0.63822 0.62958 0.87757 0.0
C729 C 0.6037 0.62146 0.87028 0.0
C730 C 0.67164 0.64796 0.86825 0.0
C731 C 0.67128 0.65838 0.85138 0.0
C732 C 0.63679 0.65071 0.84417 0.0
C733 C 0.60339 0.6326 0.85354 0.0
H734 H 0.46743 0.03969 0.86543 0.0
H735 H 0.37839 0.92894 0.85115 0.0
H736 H 0.43592 0.06812 0.8502 0.0
H737 H 0.34612 0.95749 0.83629 0.0
H738 H 0.28619 0.03427 0.83463 0.0
H739 H 0.31712 1.00267 0.84817 0.0
H740 H 0.41583 0.06748 0.81746 0.0
H741 H 0.38496 0.09805 0.80371 0.0
C742 C 0.44142 0.0215 0.85878 0.0
C743 C 0.42563 0.98219 0.85922 0.0
C744 C 0.42329 0.03773 0.85017 0.0
C745 C 0.38844 1.01495 0.84223 0.0
C746 C 0.37285 0.97561 0.84243 0.0
C747 C 0.39154 0.95936 0.85069 0.0
C748 C 0.31446 0.04166 0.83082 0.0
C749 C 0.33314 0.06857 0.81812 0.0
C750 C 0.332 0.02344 0.83845 0.0
C751 C 0.36878 0.0326 0.83377 0.0
C752 C 0.3875 0.05987 0.82127 0.0
C753 C 0.36975 0.07731 0.81342 0.0
H754 H 1.01312 0.39162 0.89728 0.0
H755 H 0.06034 0.44972 0.85037 0.0
H756 H 0.98238 0.33153 0.8824 0.0
H757 H 0.02944 0.38916 0.83539 0.0
H758 H 0.93318 0.28115 0.81259 0.0
H759 H 0.96407 0.34002 0.82825 0.0
H760 H 0.99669 0.28736 0.86667 0.0
H761 H 0.96555 0.22781 0.85082 0.0
C762 C 1.01698 0.3916 0.88375 0.0
C763 C 0.03904 0.42558 0.87498 0.0
C764 C 0.99954 0.35701 0.87526 0.0
C765 C 1.00334 0.35544 0.85771 0.0
C766 C 0.02561 0.38942 0.84891 0.0
C767 C 0.04344 0.42411 0.85747 0.0
C768 C 0.94663 0.28184 0.82445 0.0
C769 C 0.94687 0.24964 0.83044 0.0
C770 C 0.96469 0.31583 0.83335 0.0
C771 C 0.98334 0.31864 0.84859 0.0
C772 C 0.98252 0.28612 0.85496 0.0
C773 C 0.96458 0.25197 0.84593 0.0
H774 H 0.68122 0.73599 0.21561 0.0
H775 H 0.75522 0.79557 0.17395 0.0
H776 H 0.65393 0.67769 0.19956 0.0
H777 H 0.72718 0.73644 0.15763 0.0
H778 H 0.62634 0.62918 0.1305 0.0
H779 H 0.6612 0.68974 0.14515 0.0
H780 H 0.67539 0.63357 0.18816 0.0
H781 H 0.64073 0.57305 0.17351 0.0
C782 C 0.69165 0.7367 0.20297 0.0
C783 C 0.72036 0.77051 0.19603 0.0
C784 C 0.67615 0.70312 0.19383 0.0
C785 C 0.68858 0.70241 0.1774 0.0
C786 C 0.71705 0.73623 0.17029 0.0
C787 C 0.73311 0.76998 0.1796 0.0
C788 C 0.63716 0.62981 0.14304 0.0
C789 C 0.63053 0.59631 0.15092 0.0
C790 C 0.65736 0.66452 0.15135 0.0
C791 C 0.67089 0.66636 0.1678 0.0
C792 C 0.66503 0.63296 0.17552 0.0
C793 C 0.64527 0.59833 0.16713 0.0
H794 H 0.24758 0.93336 0.17947 0.0
H795 H 0.30918 0.99451 0.22371 0.0
H796 H 0.30631 0.96127 0.16338 0.0
H797 H 0.36729 0.02455 0.20762 0.0
H798 H 0.47257 0.04393 0.17967 0.0
H799 H 0.4139 0.01683 0.1958 0.0
H800 H 0.35346 1.01321 0.15039 0.0
H801 H 0.41147 0.03756 0.13436 0.0
C802 C 0.27364 0.95336 0.18562 0.0
C803 C 0.27394 0.96161 0.2028 0.0
C804 C 0.30743 0.96962 0.17642 0.0
C805 C 0.34209 0.99529 0.18413 0.0
C806 C 0.34173 1.00427 0.20125 0.0
C807 C 0.30824 0.9873 0.21048 0.0
C808 C 0.44665 0.03741 0.17327 0.0
C809 C 0.44642 0.04255 0.15581 0.0
C810 C 0.4129 0.02201 0.18248 0.0
C811 C 0.37839 1.01239 0.17446 0.0
C812 C 0.37888 0.01902 0.15703 0.0
C813 C 0.4123 0.03341 0.14783 0.0
H814 H 0.10726 0.38973 0.22093 0.0
H815 H 0.04699 0.29063 0.18972 0.0
H816 H 0.07444 0.41831 0.20738 0.0
H817 H 1.01349 0.31948 0.17609 0.0
H818 H 0.93475 0.37309 0.17096 0.0
H819 H 0.96529 0.34225 0.18547 0.0
H820 H 0.07388 0.44148 0.1776 0.0
H821 H 0.04364 0.47173 0.16306 0.0
C822 C 0.0871 0.37413 0.21106 0.0
C823 C 0.07985 0.33803 0.2063 0.0
C824 C 0.06827 0.39052 0.20332 0.0
C825 C 0.04124 0.37105 0.19077 0.0
C826 C 0.03396 0.33493 0.18587 0.0
C827 C 0.05341 0.31866 0.19348 0.0
C828 C 0.96502 0.38849 0.17275 0.0
C829 C 0.98686 0.42494 0.16614 0.0
C830 C 0.98251 0.37068 0.18077 0.0
C831 C 1.02198 0.3894 0.18254 0.0
C832 C 0.04345 0.42639 0.17647 0.0
C833 C 0.02613 0.44378 0.16824 0.0
H834 H 0.13419 0.85879 0.50896 0.0
H835 H 0.13171 0.75456 0.49794 0.0
H836 H 0.07842 0.82535 0.52667 0.0
H837 H 0.07485 0.72039 0.51506 0.0
H838 H 0.97942 0.6647 0.55076 0.0
H839 H 0.04415 0.70519 0.54114 0.0
H840 H 1.0136 0.78595 0.52315 0.0
H841 H 0.94952 0.74584 0.53366 0.0
C842 C 0.12167 0.82861 0.51043 0.0
C843 C 0.13704 0.80916 0.50199 0.0
C844 C 0.08953 0.80935 0.5205 0.0
C845 C 0.07149 0.76995 0.5222 0.0
C846 C 0.08801 0.75075 0.51431 0.0
C847 C 0.1206 0.77021 0.50443 0.0
C848 C 0.98724 0.69187 0.54532 0.0
C849 C 0.95988 0.70254 0.5431 0.0
C850 C 0.02409 0.71481 0.53953 0.0
C851 C 0.03426 0.74869 0.53101 0.0
C852 C 1.00723 0.76037 0.52977 0.0
C853 C 0.97046 0.73756 0.53584 0.0
H854 H 0.2896 0.37835 0.49557 0.0
H855 H 0.19343 0.30303 0.52565 0.0
H856 H 0.32713 0.35503 0.5093 0.0
H857 H 0.23104 0.28036 0.53988 0.0
H858 H 0.29243 0.21075 0.54045 0.0
H859 H 0.25557 0.24071 0.53305 0.0
H860 H 0.35752 0.34961 0.53342 0.0
H861 H 0.39396 0.3188 0.54008 0.0
C862 C 0.27684 0.35757 0.50548 0.0
C863 C 0.23855 0.34222 0.50941 0.0
C864 C 0.29832 0.34414 0.51341 0.0
C865 C 0.28208 0.31538 0.52563 0.0
C866 C 0.2443 0.3018 0.53026 0.0
C867 C 0.22277 0.31491 0.52218 0.0
C868 C 0.30648 0.24113 0.53934 0.0
C869 C 0.34569 0.26266 0.54085 0.0
C870 C 0.28555 0.25845 0.53512 0.0
C871 C 0.30355 0.29771 0.53245 0.0
C872 C 0.34274 0.31932 0.53501 0.0
C873 C 0.36359 0.30189 0.53902 0.0
H874 H 0.73182 0.96015 0.46425 0.0
H875 H 0.67256 0.89132 0.50715 0.0
H876 H 0.75148 0.01702 0.48108 0.0
H877 H 0.69237 0.94842 0.52415 0.0
H878 H 0.79338 0.05537 0.55041 0.0
H879 H 0.75758 0.99691 0.53448 0.0
H880 H 0.72912 0.0559 0.49752 0.0
H881 H 0.76497 0.11467 0.51376 0.0
C882 C 0.72264 0.95726 0.47725 0.0
C883 C 0.701 0.92133 0.48445 0.0
C884 C 0.73358 0.98982 0.48685 0.0
C885 C 0.7236 0.98725 0.50396 0.0
C886 C 0.70064 0.95129 0.511 0.0
C887 C 0.68914 0.91864 0.50129 0.0
C888 C 0.77893 0.05564 0.53902 0.0
C889 C 0.78209 0.08949 0.53324 0.0
C890 C 0.7582 0.02214 0.52997 0.0
C891 C 0.74055 0.02175 0.51472 0.0
C892 C 0.74253 0.05538 0.50921 0.0
C893 C 0.7628 0.0889 0.5185 0.0
H894 H 0.33804 0.09353 0.55265 0.0
H895 H 0.44545 0.12783 0.52902 0.0
H896 H 0.31065 0.03301 0.538 0.0
H897 H 0.4179 0.06639 0.5146 0.0
H898 H 0.34999 0.92986 0.50887 0.0
H899 H 0.38012 0.98876 0.52552 0.0
H900 H 0.30429 0.0211 0.50345 0.0
H901 H 0.2752 0.96342 0.4866 0.0
C902 C 0.35588 0.08803 0.54441 0.0
C903 C 0.39384 0.1155 0.54188 0.0
C904 C 0.34018 0.05338 0.53608 0.0
C905 C 0.36228 0.04508 0.52532 0.0
C906 C 0.40046 0.07212 0.52299 0.0
C907 C 0.41605 0.10728 0.53109 0.0
C908 C 0.33965 0.94948 0.50777 0.0
C909 C 0.31029 0.9422 0.49653 0.0
C910 C 0.35703 0.98316 0.51713 0.0
C911 C 0.34449 1.00933 0.51565 0.0
C912 C 0.31441 1.00134 0.50479 0.0
C913 C 0.2978 0.96837 0.49519 0.0
H914 H 0.06608 0.35376 0.47086 0.0
H915 H 0.12311 0.41529 0.51593 0.0
H916 H 1.00657 0.32294 0.486 0.0
H917 H 0.06302 0.38478 0.53113 0.0
H918 H 0.96312 0.28311 0.55677 0.0
H919 H 1.02113 0.32131 0.54131 0.0
H920 H 0.95758 0.33034 0.49992 0.0
H921 H 0.89889 0.29126 0.51544 0.0
C922 C 0.06583 0.36114 0.48398 0.0
C923 C 0.09943 0.38677 0.49225 0.0
C924 C 0.03156 0.34361 0.49263 0.0
C925 C 0.02995 0.35116 0.50981 0.0
C926 C 0.06336 0.37792 0.51795 0.0
C927 C 0.09775 0.39561 0.50924 0.0
C928 C 0.96136 0.2932 0.54437 0.0
C929 C 0.92629 0.28395 0.53729 0.0
C930 C 0.99478 0.31551 0.53557 0.0
C931 C 0.99415 0.3292 0.51942 0.0
C932 C 0.95905 0.32006 0.51231 0.0
C933 C 0.92544 0.29771 0.52118 0.0
H934 H 0.72759 0.6094 0.52335 0.0
H935 H 0.81246 0.72189 0.5379 0.0
H936 H 0.69418 0.63546 0.50757 0.0
H937 H 0.77978 0.74784 0.5217 0.0
H938 H 0.72953 0.77048 0.47174 0.0
H939 H 0.76191 0.74427 0.48786 0.0
H940 H 0.66185 0.67943 0.51776 0.0
H941 H 0.62955 0.70676 0.5019 0.0
C942 C 0.73945 0.63968 0.52291 0.0
C943 C 0.77281 0.66364 0.53174 0.0
C944 C 0.72012 0.65452 0.51406 0.0
C945 C 0.73432 0.69364 0.51351 0.0
C946 C 0.76822 0.7176 0.52193 0.0
C947 C 0.78695 0.70274 0.53114 0.0
C948 C 0.71447 0.75084 0.48183 0.0
C949 C 0.67703 0.74078 0.48561 0.0
C950 C 0.73304 0.73588 0.49105 0.0
C951 C 0.71433 0.7097 0.50398 0.0
C952 C 0.67682 0.69943 0.50777 0.0
C953 C 0.65848 0.71524 0.49881 0.0
H954 H 0.23131 0.34646 0.30607 0.0
H955 H 0.11339 0.30513 0.31618 0.0
H956 H 0.24505 0.35934 0.33621 0.0
H957 H 0.12726 0.32066 0.34559 0.0
H958 H 0.14907 0.32151 0.3992 0.0
H959 H 0.14245 0.30238 0.37021 0.0
H960 H 0.2496 0.40061 0.35854 0.0
H961 H 0.25856 0.41784 0.38835 0.0
C962 C 0.20833 0.34 0.31467 0.0
C963 C 0.17127 0.32505 0.30861 0.0
C964 C 0.21627 0.34789 0.33194 0.0
C965 C 0.18733 0.34106 0.34347 0.0
C966 C 0.15033 0.32567 0.33731 0.0
C967 C 0.1424 0.31735 0.32025 0.0
C968 C 0.17214 0.33864 0.39077 0.0
C969 C 0.20457 0.3714 0.39646 0.0
C970 C 0.16781 0.32797 0.37386 0.0
C971 C 0.19501 0.35032 0.36181 0.0
C972 C 0.228 0.38256 0.36742 0.0
C973 C 0.23285 0.39282 0.38455 0.0
H974 H 0.65274 0.83465 0.29357 0.0
H975 H 0.76939 0.91476 0.30416 0.0
H976 H 0.63844 0.82971 0.3236 0.0
H977 H 0.75489 0.91073 0.33431 0.0
H978 H 0.72439 0.84445 0.38488 0.0
H979 H 0.73958 0.86244 0.35544 0.0
H980 H 0.63336 0.85939 0.3492 0.0
H981 H 0.61759 0.84009 0.37864 0.0
C982 C 0.67523 0.85175 0.30232 0.0
C983 C 0.71232 0.87473 0.29649 0.0
C984 C 0.66696 0.84918 0.31956 0.0
C985 C 0.69558 0.8695 0.33144 0.0
C986 C 0.73227 0.89422 0.32552 0.0
C987 C 0.74053 0.89689 0.30823 0.0
C988 C 0.70423 0.84761 0.37725 0.0
C989 C 0.66951 0.84027 0.38409 0.0
C990 C 0.71319 0.85847 0.36039 0.0
C991 C 0.68767 0.86229 0.34987 0.0
C992 C 0.65351 0.85632 0.35688 0.0
C993 C 0.64459 0.84555 0.3738 0.0
H994 H 0.14966 0.81753 0.30477 0.0
H995 H 0.20599 0.93695 0.31531 0.0
H996 H 0.15142 0.80492 0.33482 0.0
H997 H 0.20963 0.92468 0.34492 0.0
H998 H 0.19338 0.89704 0.39911 0.0
H999 H 0.17581 0.90109 0.37014 0.0
H1000 H 0.19654 0.81119 0.35571 0.0
H1001 H 0.21254 0.80627 0.38498 0.0
C1002 C 0.16209 0.84105 0.3135 0.0
C1003 C 0.17798 0.87828 0.3076 0.0
C1004 C 0.1635 0.83386 0.3307 0.0
C1005 C 0.18078 0.86375 0.34236 0.0
C1006 C 0.19559 0.90084 0.33645 0.0
C1007 C 0.19402 0.90796 0.31936 0.0
C1008 C 0.19363 0.87784 0.38975 0.0
C1009 C 0.20469 0.85165 0.39417 0.0
C1010 C 0.18379 0.88025 0.37313 0.0
C1011 C 0.18544 0.85698 0.36046 0.0
C1012 C 0.19467 0.82941 0.36511 0.0
C1013 C 0.204 0.82664 0.38185 0.0
H1014 H 0.33574 0.22608 0.63309 0.0
H1015 H 0.43814 0.22773 0.6476 0.0
H1016 H 0.31778 0.22169 0.6628 0.0
H1017 H 0.42025 0.22314 0.67708 0.0
H1018 H 0.39219 0.23543 0.73011 0.0
H1019 H 0.41048 0.25411 0.70072 0.0
H1020 H 0.29694 0.17454 0.68475 0.0
H1021 H 0.27887 0.15691 0.71419 0.0
C1022 C 0.35448 0.2257 0.64261 0.0
C1023 C 0.3884 0.22733 0.63796 0.0
C1024 C 0.34421 0.22318 0.65963 0.0
C1025 C 0.36758 0.22212 0.67236 0.0
C1026 C 0.4019 0.22469 0.66768 0.0
C1027 C 0.41218 0.22728 0.65072 0.0
C1028 C 0.37109 0.22287 0.72028 0.0
C1029 C 0.33416 0.1951 0.72424 0.0
C1030 C 0.38153 0.23318 0.70347 0.0
C1031 C 0.35527 0.21557 0.69033 0.0
C1032 C 0.31779 0.18902 0.69451 0.0
C1033 C 0.30738 0.17883 0.71133 0.0
H1034 H 0.92057 0.16329 0.71363 0.0
H1035 H 0.8186 0.15985 0.73078 0.0
H1036 H 0.90265 0.16511 0.68449 0.0
H1037 H 0.80176 0.16334 0.70159 0.0
H1038 H 0.82381 0.226 0.64887 0.0
H1039 H 0.83194 0.21477 0.67839 0.0
H1040 H 0.84947 0.12328 0.66353 0.0
H1041 H 0.83995 0.13337 0.63405 0.0
C1042 C 0.89414 0.16242 0.71124 0.0
C1043 C 0.87119 0.16163 0.72464 0.0
C1044 C 0.88398 0.16362 0.69453 0.0
C1045 C 0.85091 0.1645 0.69084 0.0
C1046 C 0.82762 0.16311 0.70413 0.0
C1047 C 0.83746 0.16134 0.72084 0.0
C1048 C 0.82838 0.20284 0.65188 0.0
C1049 C 0.8316 0.18085 0.63902 0.0
C1050 C 0.83321 0.19654 0.66879 0.0
C1051 C 0.84173 0.16843 0.67317 0.0
C1052 C 0.8435 0.14551 0.66044 0.0
C1053 C 0.83817 0.15143 0.64357 0.0
H1054 H 0.88541 0.65038 0.72848 0.0
H1055 H 0.88659 0.75451 0.71854 0.0
H1056 H 0.8808 0.63719 0.69802 0.0
H1057 H 0.88189 0.74129 0.68833 0.0
H1058 H 0.81793 0.67613 0.64061 0.0
H1059 H 0.82825 0.68966 0.67056 0.0
H1060 H 0.91942 0.6657 0.66964 0.0
H1061 H 0.91044 0.65369 0.63919 0.0
C1062 C 0.88495 0.67053 0.7198 0.0
C1063 C 0.88646 0.70354 0.72594 0.0
C1064 C 0.88255 0.66309 0.70239 0.0
C1065 C 0.88085 0.68815 0.6908 0.0
C1066 C 0.88294 0.72135 0.69694 0.0
C1067 C 0.88593 0.72905 0.71426 0.0
C1068 C 0.84081 0.67445 0.64656 0.0
C1069 C 0.86383 0.6645 0.63718 0.0
C1070 C 0.84648 0.68197 0.66384 0.0
C1071 C 0.87486 0.67911 0.67244 0.0
C1072 C 0.89726 0.66806 0.66333 0.0
C1073 C 0.89198 0.66107 0.64587 0.0
H1074 H 1.0069 0.57399 0.06091 0.0
H1075 H 0.99379 0.46296 0.05639 0.0
H1076 H 0.02767 0.58671 0.03127 0.0
H1077 H 1.01472 0.47575 0.02729 0.0
H1078 H 0.09584 0.522 0.98484 0.0
H1079 H 0.07763 0.51972 0.01425 0.0
H1080 H 1.004 0.56236 1.00047 0.0
H1081 H 1.02243 0.5647 0.97075 0.0
C1082 C 1.00814 0.55227 0.05359 0.0
C1083 C 0.99951 0.51778 0.06111 0.0
C1084 C 1.02007 0.55958 0.03667 0.0
C1085 C 1.02365 0.53254 0.0271 0.0
C1086 C 1.01331 0.49757 0.03446 0.0
C1087 C 1.00133 0.49026 0.05117 0.0
C1088 C 0.07608 0.53131 0.98808 0.0
C1089 C 0.06008 0.54291 0.97546 0.0
C1090 C 0.06561 0.52996 1.00492 0.0
C1091 C 0.03881 0.54014 1.00961 0.0
C1092 C 0.02468 0.55431 0.9972 0.0
C1093 C 0.03525 0.55568 0.98023 0.0
H1094 H 0.4825 0.42813 0.05207 0.0
H1095 H 0.53741 0.54914 0.05713 0.0
H1096 H 0.4744 0.43372 0.02183 0.0
H1097 H 0.52982 0.55479 0.02709 0.0
H1098 H 0.48333 0.55408 0.97588 0.0
H1099 H 0.48462 0.5438 1.00594 0.0
H1100 H 0.50947 0.45483 0.99582 0.0
H1101 H 0.506 0.46367 0.96556 0.0
C1102 C 0.49281 0.4559 0.04674 0.0
C1103 C 0.51026 0.48814 0.05709 0.0
C1104 C 0.4883 0.45914 0.02939 0.0
C1105 C 0.5013 0.49471 0.02195 0.0
C1106 C 0.51865 0.52686 0.03236 0.0
C1107 C 0.52299 0.52361 0.04966 0.0
C1108 C 0.48826 0.53172 0.97997 0.0
C1109 C 0.49442 0.50964 0.96816 0.0
C1110 C 0.48959 0.52621 0.9973 0.0
C1111 C 0.49749 0.49869 1.00341 0.0
C1112 C 0.50301 0.4761 0.99163 0.0
C1113 C 0.50148 0.48149 0.97424 0.0
H1114 H 0.50435 0.06452 0.04553 0.0
H1115 H 0.5754 1.01581 0.05323 0.0
H1116 H 0.49962 0.04923 0.01578 0.0
H1117 H 0.57213 1.00186 0.02296 0.0
H1118 H 0.51091 0.93805 0.97361 0.0
H1119 H 0.52606 0.95879 1.00285 0.0
H1120 H 0.53255 0.06426 0.98993 0.0
H1121 H 0.51481 0.04263 0.96114 0.0
C1122 C 0.51932 0.05083 0.04079 0.0
C1123 C 0.53982 0.0409 0.05177 0.0
C1124 C 0.51703 0.04249 0.02364 0.0
C1125 C 0.53551 0.0243 0.01691 0.0
C1126 C 0.55721 1.01551 0.02778 0.0
C1127 C 0.55943 0.02384 0.04506 0.0
C1128 C 0.51532 0.96557 0.97703 0.0
C1129 C 0.51116 0.98841 0.96497 0.0
C1130 C 0.52463 0.97772 0.99376 0.0
C1131 C 0.53025 1.0131 0.9988 0.0
C1132 C 0.52778 0.03657 0.98658 0.0
C1133 C 0.51807 0.0243 0.96994 0.0
H1134 H 0.1297 1.01291 0.23246 0.0
H1135 H 0.24598 0.10058 0.22794 0.0
H1136 H 0.11021 0.06034 0.2311 0.0
H1137 H 0.22672 0.14798 0.22707 0.0
H1138 H 0.17805 0.22491 0.21644 0.0
H1139 H 0.19375 0.17507 0.21172 0.0
H1140 H 0.1151 0.10816 0.25076 0.0
H1141 H 0.09931 0.15716 0.2553 0.0
C1142 C 0.15105 0.0422 0.23092 0.0
C1143 C 0.18942 0.05291 0.23053 0.0
C1144 C 0.13995 0.06947 0.2303 0.0
C1145 C 0.16693 0.10812 0.22917 0.0
C1146 C 0.20514 0.11857 0.22786 0.0
C1147 C 0.21623 0.09136 0.22856 0.0
C1148 C 0.16396 0.19939 0.22388 0.0
C1149 C 0.13769 0.19523 0.23634 0.0
C1150 C 0.17303 0.17089 0.22124 0.0
C1151 C 0.15565 0.13748 0.23084 0.0
C1152 C 0.12869 0.13313 0.24295 0.0
C1153 C 0.11993 0.16157 0.24568 0.0
H1154 H 0.90111 0.96031 0.25355 0.0
H1155 H 0.83497 0.97406 0.21472 0.0
H1156 H 0.94645 0.02784 0.25251 0.0
H1157 H 0.88022 0.04158 0.21382 0.0
H1158 H 0.94181 0.16352 0.23723 0.0
H1159 H 0.89865 0.09548 0.23507 0.0
H1160 H 0.99361 0.07731 0.23201 0.0
H1161 H 0.03665 0.14524 0.23418 0.0
C1162 C 0.89642 0.97768 0.24471 0.0
C1163 C 0.86445 0.96188 0.23425 0.0
C1164 C 0.92245 0.01627 0.24407 0.0
C1165 C 0.91672 0.0399 0.23313 0.0
C1166 C 0.88513 0.02402 0.22245 0.0
C1167 C 0.8594 0.98534 0.22291 0.0
C1168 C 0.95335 0.14494 0.23599 0.0
C1169 C 0.99251 0.15962 0.23584 0.0
C1170 C 0.92874 0.10611 0.23464 0.0
C1171 C 0.94284 0.08118 0.23339 0.0
C1172 C 0.98201 0.09589 0.23304 0.0
C1173 C 1.0066 0.13474 0.23413 0.0
H1174 H 0.88463 0.84385 0.21135 0.0
H1175 H 0.87857 0.81526 0.26414 0.0
H1176 H 0.95107 0.8615 0.21086 0.0
H1177 H 0.94443 0.83173 0.26349 0.0
H1178 H 0.07003 0.91805 0.26253 0.0
H1179 H 1.00259 0.89263 0.26136 0.0
H1180 H 0.99782 0.83903 0.21371 0.0
H1181 H 0.06639 0.86498 0.2148 0.0
C1182 C 0.89729 0.84097 0.22281 0.0
C1183 C 0.87622 0.82858 0.23785 0.0
C1184 C 0.93531 0.8507 0.22247 0.0
C1185 C 0.95319 0.84845 0.23718 0.0
C1186 C 0.93166 0.83435 0.25199 0.0
C1187 C 0.8937 0.82452 0.25232 0.0
C1188 C 0.05485 0.90083 0.25175 0.0
C1189 C 0.07379 0.89358 0.23874 0.0
C1190 C 1.01595 0.88595 0.25118 0.0
C1191 C 0.99466 0.86342 0.23755 0.0
C1192 C 1.01347 0.85635 0.22438 0.0
C1193 C 0.05268 0.87113 0.22501 0.0
H1194 H 0.0362 0.15761 0.81509 0.0
H1195 H 0.10505 0.25478 0.78401 0.0
H1196 H 0.08726 0.14338 0.8162 0.0
H1197 H 0.15557 0.23974 0.78481 0.0
H1198 H 0.19828 0.15889 0.76686 0.0
H1199 H 0.15574 0.18333 0.7712 0.0
H1200 H 0.15785 0.1675 0.82493 0.0
H1201 H 0.2016 0.14329 0.82056 0.0
C1202 C 0.06239 0.17656 0.80882 0.0
C1203 C 0.06603 0.20717 0.79922 0.0
C1204 C 0.09173 0.16827 0.80947 0.0
C1205 C 0.12529 0.19015 0.80043 0.0
C1206 C 0.12983 0.22201 0.79171 0.0
C1207 C 0.10074 0.23053 0.79121 0.0
C1208 C 0.19001 0.16084 0.77965 0.0
C1209 C 0.20319 0.14897 0.79337 0.0
C1210 C 0.1658 0.17515 0.78214 0.0
C1211 C 0.15348 0.1775 0.7984 0.0
C1212 C 0.16687 0.166 0.81224 0.0
C1213 C 0.19197 0.15232 0.80976 0.0
H1214 H 0.98158 0.07484 0.78853 0.0
H1215 H 0.86797 0.04677 0.80148 0.0
H1216 H 0.96132 1.00844 0.78581 0.0
H1217 H 0.84771 0.97965 0.79903 0.0
H1218 H 0.82148 0.86654 0.77293 0.0
H1219 H 0.83915 0.93269 0.77684 0.0
H1220 H 0.94005 0.95299 0.80301 0.0
H1221 H 0.92327 0.88789 0.79858 0.0
C1222 C 0.95227 0.05447 0.79096 0.0
C1223 C 0.92639 0.0662 0.79519 0.0
C1224 C 0.94069 0.01629 0.78947 0.0
C1225 C 0.90289 0.98869 0.79219 0.0
C1226 C 0.87696 1.00027 0.79668 0.0
C1227 C 0.88864 0.03868 0.79824 0.0
C1228 C 0.84754 0.88524 0.77939 0.0
C1229 C 0.8709 0.87181 0.78544 0.0
C1230 C 0.85743 0.92301 0.78182 0.0
C1231 C 0.89101 0.94812 0.79025 0.0
C1232 C 0.91418 0.93454 0.79633 0.0
C1233 C 0.90432 0.897 0.79393 0.0
H1234 H 0.17845 0.97908 0.81478 0.0
H1235 H 0.13327 0.9861 0.76668 0.0
H1236 H 0.11788 0.92289 0.82183 0.0
H1237 H 0.07287 0.93072 0.77375 0.0
H1238 H 0.96038 0.85262 0.7988 0.0
H1239 H 1.01977 0.91197 0.7965 0.0
H1240 H 0.08106 0.85431 0.80766 0.0
H1241 H 1.02152 0.79454 0.80976 0.0
C1242 C 0.15536 0.96887 0.80587 0.0
C1243 C 0.16036 0.98663 0.79018 0.0
C1244 C 0.12094 0.93677 0.80984 0.0
C1245 C 0.0908 0.92263 0.79833 0.0
C1246 C 0.09556 0.94122 0.78289 0.0
C1247 C 0.13009 0.97268 0.7788 0.0
C1248 C 0.98642 0.85262 0.80106 0.0
C1249 C 0.98627 0.81884 0.80439 0.0
C1250 C 1.0204 0.88658 0.79967 0.0
C1251 C 0.05489 0.88761 0.80187 0.0
C1252 C 0.05478 0.85425 0.80603 0.0
C1253 C 1.02076 0.82008 0.80713 0.0
H1254 H 0.84604 0.53754 0.55467 0.0
H1255 H 0.75665 0.47726 0.59079 0.0
H1256 H 0.85684 0.48411 0.55319 0.0
H1257 H 0.76744 0.42376 0.58922 0.0
H1258 H 0.77907 0.32276 0.57037 0.0
H1259 H 0.76403 0.37366 0.56855 0.0
H1260 H 0.88199 0.45589 0.57439 0.0
H1261 H 0.89681 0.40526 0.57622 0.0
C1262 C 0.82845 0.51277 0.56217 0.0
C1263 C 0.80069 0.51176 0.57296 0.0
C1264 C 0.83475 0.48224 0.56137 0.0
C1265 C 0.81307 0.44982 0.57114 0.0
C1266 C 0.78442 0.44827 0.58146 0.0
C1267 C 0.77845 0.47901 0.58245 0.0
C1268 C 0.8017 0.35175 0.57108 0.0
C1269 C 0.83907 0.36009 0.57353 0.0
C1270 C 0.79312 0.38081 0.57016 0.0
C1271 C 0.82186 0.41874 0.57133 0.0
C1272 C 0.85928 0.42698 0.57332 0.0
C1273 C 0.86774 0.39801 0.57451 0.0
H1274 H 0.70082 0.48929 0.56075 0.0
H1275 H 0.63136 0.52413 0.58749 0.0
H1276 H 0.64688 0.42665 0.55709 0.0
H1277 H 0.57744 0.46053 0.58456 0.0
H1278 H 0.48048 0.35774 0.56028 0.0
H1279 H 0.53548 0.42011 0.56301 0.0
H1280 H 0.60494 0.37 0.57207 0.0
H1281 H 0.54963 0.30719 0.5689 0.0
C1282 C 0.67396 0.48371 0.56577 0.0
C1283 C 0.67027 0.51207 0.57415 0.0
C1284 C 0.64309 0.44747 0.5639 0.0
C1285 C 0.60772 0.4385 0.57044 0.0
C1286 C 0.60415 0.46664 0.5791 0.0
C1287 C 0.63509 0.50301 0.58094 0.0
C1288 C 0.50754 0.35998 0.56274 0.0
C1289 C 0.51072 0.32754 0.56444 0.0
C1290 C 0.53904 0.39579 0.56446 0.0
C1291 C 0.57457 0.40015 0.56801 0.0
C1292 C 0.57801 0.36768 0.56923 0.0
C1293 C 0.54637 0.33169 0.56741 0.0
H1294 H 0.73191 0.22436 0.5504 0.0
H1295 H 0.69616 0.13578 0.58741 0.0
H1296 H 0.67208 0.22311 0.5535 0.0
H1297 H 0.63742 0.13579 0.59121 0.0
H1298 H 0.52125 0.12133 0.58518 0.0
H1299 H 0.57915 0.11994 0.58003 0.0
H1300 H 0.63841 0.24037 0.57164 0.0
H1301 H 0.57978 0.24099 0.57602 0.0
C1302 C 0.71124 0.20458 0.55918 0.0
C1303 C 0.71875 0.18004 0.56858 0.0
C1304 C 0.67701 0.2041 0.56112 0.0
C1305 C 0.64967 0.17948 0.5727 0.0
C1306 C 0.65723 0.15468 0.58194 0.0
C1307 C 0.69114 0.15477 0.57981 0.0
C1308 C 0.54676 0.14747 0.58234 0.0
C1309 C 0.54609 0.18129 0.58107 0.0
C1310 C 0.58009 0.14678 0.5794 0.0
C1311 C 0.61382 0.18006 0.57542 0.0
C1312 C 0.61303 0.21399 0.57431 0.0
C1313 C 0.57951 0.2145 0.57696 0.0
H1314 H 0.85798 0.4897 0.13972 0.0
H1315 H 0.8203 0.42632 0.09318 0.0
H1316 H 0.80934 0.50678 0.13711 0.0
H1317 H 0.77076 0.44262 0.09081 0.0
H1318 H 0.7106 0.51081 0.08349 0.0
H1319 H 0.76116 0.49568 0.08539 0.0
H1320 H 0.74266 0.47911 0.13915 0.0
H1321 H 0.69392 0.49592 0.13739 0.0
C1322 C 0.83904 0.47902 0.12902 0.0
C1323 C 0.84299 0.45653 0.11669 0.0
C1324 C 0.81104 0.48876 0.12754 0.0
C1325 C 0.78608 0.47606 0.11375 0.0
C1326 C 0.78985 0.45334 0.10146 0.0
C1327 C 0.81803 0.44371 0.1029 0.0
C1328 C 0.7177 0.50439 0.09572 0.0
C1329 C 0.69797 0.50437 0.11025 0.0
C1330 C 0.74635 0.49527 0.09679 0.0
C1331 C 0.75591 0.48605 0.11243 0.0
C1332 C 0.73638 0.48643 0.12693 0.0
C1333 C 0.70796 0.4956 0.12587 0.0
H1334 H 0.49775 0.20917 0.09798 0.0
H1335 H 0.5491 0.21479 0.14631 0.0
H1336 H 0.50314 0.26999 0.10325 0.0
H1337 H 0.55556 0.27702 0.15134 0.0
H1338 H 0.58939 0.40673 0.13875 0.0
H1339 H 0.58873 0.34658 0.13698 0.0
H1340 H 0.46974 0.2894 0.12588 0.0
H1341 H 0.47004 0.34878 0.12775 0.0
C1342 C 0.51012 0.22329 0.10978 0.0
C1343 C 0.52212 0.20653 0.1219 0.0
C1344 C 0.51336 0.25829 0.11274 0.0
C1345 C 0.52914 0.27784 0.12781 0.0
C1346 C 0.54314 0.26234 0.13963 0.0
C1347 C 0.53952 0.22683 0.13673 0.0
C1348 C 0.56299 0.38122 0.13618 0.0
C1349 C 0.52983 0.38266 0.1332 0.0
C1350 C 0.56266 0.34686 0.13523 0.0
C1351 C 0.52928 0.31354 0.13111 0.0
C1352 C 0.49595 0.3148 0.12887 0.0
C1353 C 0.49617 0.34887 0.12997 0.0
H1354 H 0.64927 0.19268 0.09381 0.0
H1355 H 0.65189 0.15621 0.14465 0.0
H1356 H 0.71566 0.23899 0.09556 0.0
H1357 H 0.7194 0.2031 0.14636 0.0
H1358 H 0.82629 0.32546 0.14724 0.0
H1359 H 0.76145 0.27305 0.14718 0.0
H1360 H 0.77716 0.24354 0.09667 0.0
H1361 H 0.84145 0.29647 0.09653 0.0
C1362 C 0.66403 0.19436 0.10539 0.0
C1363 C 0.64501 0.1706 0.11911 0.0
C1364 C 0.70238 0.22087 0.10633 0.0
C1365 C 0.72311 0.2247 0.12104 0.0
C1366 C 0.70425 0.20099 0.13485 0.0
C1367 C 0.66563 0.17404 0.13386 0.0
C1368 C 0.81597 0.3078 0.13612 0.0
C1369 C 0.83916 0.31565 0.1218 0.0
C1370 C 0.77885 0.27743 0.13617 0.0
C1371 C 0.76387 0.25422 0.12187 0.0
C1372 C 0.78755 0.26115 0.10783 0.0
C1373 C 0.82466 0.29137 0.1078 0.0
H1374 H 0.39395 0.78133 0.91081 0.0
H1375 H 0.50153 0.86129 0.88907 0.0
H1376 H 0.41454 0.73526 0.91306 0.0
H1377 H 0.52203 0.81475 0.89129 0.0
H1378 H 0.55704 0.73522 0.91751 0.0
H1379 H 0.53753 0.7824 0.9142 0.0
H1380 H 0.43012 0.69659 0.89461 0.0
H1381 H 0.44919 0.64953 0.89829 0.0
C1382 C 0.42195 0.78908 0.90641 0.0
C1383 C 0.44616 0.82516 0.89984 0.0
C1384 C 0.43367 0.76254 0.90765 0.0
C1385 C 0.46993 0.77142 0.9024 0.0
C1386 C 0.49407 0.8073 0.89563 0.0
C1387 C 0.48223 0.83386 0.89427 0.0
C1388 C 0.5292 0.72647 0.91262 0.0
C1389 C 0.50468 0.68868 0.90815 0.0
C1390 C 0.51819 0.75352 0.91054 0.0
C1391 C 0.48232 0.74319 0.90412 0.0
C1392 C 0.45783 0.70538 0.89971 0.0
C1393 C 0.4689 0.67847 0.90168 0.0
H1394 H 0.31666 0.81945 0.87225 0.0
H1395 H 0.2918 0.82933 0.92442 0.0
H1396 H 0.26898 0.7524 0.87272 0.0
H1397 H 0.24401 0.76327 0.92466 0.0
H1398 H 0.20905 0.63933 0.92727 0.0
H1399 H 0.25052 0.70653 0.9241 0.0
H1400 H 0.19864 0.70355 0.87631 0.0
H1401 H 0.15638 0.63517 0.87948 0.0
C1402 C 0.30082 0.80764 0.88374 0.0
C1403 C 0.30871 0.83012 0.89835 0.0
C1404 C 0.27325 0.76922 0.88395 0.0
C1405 C 0.25307 0.75231 0.89881 0.0
C1406 C 0.25948 0.77521 0.91308 0.0
C1407 C 0.28678 0.81346 0.91286 0.0
C1408 C 0.20623 0.65269 0.91602 0.0
C1409 C 0.1791 0.63161 0.90365 0.0
C1410 C 0.22999 0.69148 0.91428 0.0
C1411 C 0.22764 0.71062 0.90007 0.0
C1412 C 0.20115 0.68962 0.88742 0.0
C1413 C 0.17692 0.6505 0.88925 0.0
H1414 H 0.35987 0.4587 0.89891 0.0
H1415 H 0.41337 0.57365 0.88113 0.0
H1416 H 0.29949 0.45584 0.89901 0.0
H1417 H 0.3521 0.5703 0.88058 0.0
H1418 H 0.24313 0.56185 0.90432 0.0
H1419 H 0.30524 0.56853 0.8992 0.0
H1420 H 0.25116 0.45266 0.88222 0.0
H1421 H 0.18979 0.44599 0.8882 0.0
C1422 C 0.35868 0.48323 0.89472 0.0
C1423 C 0.39156 0.51641 0.89003 0.0
C1424 C 0.32382 0.4815 0.89464 0.0
C1425 C 0.32065 0.51276 0.88969 0.0
C1426 C 0.35346 0.54579 0.88463 0.0
C1427 C 0.38856 0.54762 0.88482 0.0
C1428 C 0.24486 0.53819 0.89924 0.0
C1429 C 0.21199 0.5033 0.89687 0.0
C1430 C 0.28031 0.54192 0.89625 0.0
C1431 C 0.28336 0.51088 0.8906 0.0
C1432 C 0.25008 0.47682 0.88708 0.0
C1433 C 0.21488 0.47299 0.89037 0.0
H1434 H 0.50246 0.77056 0.42978 0.0
H1435 H 0.55215 0.82018 0.47796 0.0
H1436 H 0.45858 0.7937 0.43262 0.0
H1437 H 0.50733 0.84328 0.48081 0.0
H1438 H 0.38788 0.83925 0.48281 0.0
H1439 H 0.4331 0.81636 0.48283 0.0
H1440 H 0.46836 0.8603 0.43255 0.0
H1441 H 0.4235 0.88272 0.43246 0.0
C1442 C 0.50397 0.78626 0.44106 0.0
C1443 C 0.53112 0.79372 0.4536 0.0
C1444 C 0.4788 0.79962 0.44264 0.0
C1445 C 0.47972 0.82055 0.45686 0.0
C1446 C 0.50598 0.82713 0.46972 0.0
C1447 C 0.53168 0.81405 0.46806 0.0
C1448 C 0.40539 0.84403 0.47181 0.0
C1449 C 0.40209 0.86285 0.45764 0.0
C1450 C 0.43143 0.83122 0.47188 0.0
C1451 C 0.45411 0.83643 0.45766 0.0
C1452 C 0.45108 0.85564 0.44364 0.0
C1453 C 0.42556 0.86879 0.44365 0.0
H1454 H 0.21052 0.55894 0.48138 0.0
H1455 H 0.18594 0.55778 0.42832 0.0
H1456 H 0.22824 0.62549 0.48298 0.0
H1457 H 0.20243 0.62345 0.43004 0.0
H1458 H 0.27972 0.74914 0.43322 0.0
H1459 H 0.26104 0.68304 0.43376 0.0
H1460 H 0.20174 0.66949 0.48064 0.0
H1461 H 0.22096 0.73675 0.48022 0.0
C1462 C 0.20887 0.57278 0.47007 0.0
C1463 C 0.19694 0.55293 0.45469 0.0
C1464 C 0.2186 0.6108 0.47105 0.0
C1465 C 0.21693 0.62984 0.45663 0.0
C1466 C 0.20449 0.60979 0.44135 0.0
C1467 C 0.19466 0.57193 0.44039 0.0
C1468 C 0.26268 0.73231 0.4437 0.0
C1469 C 0.2516 0.74834 0.45662 0.0
C1470 C 0.25181 0.6942 0.44395 0.0
C1471 C 0.22948 0.67082 0.45711 0.0
C1472 C 0.21903 0.68683 0.47032 0.0
C1473 C 0.2299 0.72527 0.47006 0.0
H1474 H 0.47541 0.64649 0.43269 0.0
H1475 H 0.51183 0.63616 0.48237 0.0
H1476 H 0.41108 0.59652 0.43925 0.0
H1477 H 0.44747 0.58495 0.48883 0.0
H1478 H 0.34215 0.45971 0.47387 0.0
H1479 H 0.40553 0.51499 0.47221 0.0
H1480 H 0.35725 0.58594 0.46355 0.0
H1481 H 0.29374 0.53085 0.46574 0.0
C1482 C 0.46945 0.63348 0.44503 0.0
C1483 C 0.49835 0.64493 0.45703 0.0
C1484 C 0.43274 0.60513 0.44882 0.0
C1485 C 0.42441 0.58699 0.46454 0.0
C1486 C 0.45325 0.5986 0.47663 0.0
C1487 C 0.48986 0.6278 0.47299 0.0
C1488 C 0.34508 0.48722 0.47193 0.0
C1489 C 0.31304 0.49101 0.46995 0.0
C1490 C 0.3813 0.5188 0.47105 0.0
C1491 C 0.38617 0.55462 0.46775 0.0
C1492 C 0.35417 0.55859 0.46614 0.0
C1493 C 0.31791 0.52714 0.46746 0.0
loop_
_geom_bond_atom_site_label_1
_geom_bond_atom_site_label_2
_geom_bond_distance
_geom_bond_site_symmetry_2
_ccdc_geom_bond_type
Co0 N4 2.148 . S
Co0 N10 2.128 . S
Co0 N20 2.194 . S
Co0 O25 2.351 . S
Co0 O26 2.155 . S
Co0 O27 2.096 . S
C1 N4 1.301 . S
C1 N5 1.328 . S
C1 H6 0.930 . S
C2 C3 1.333 . S
C2 N4 1.317 . S
C2 H7 0.930 . S
C3 C2 1.333 . S
C3 N5 1.350 . S
C3 H29 0.931 . S
N4 Co0 2.148 . S
N4 C1 1.301 . S
N4 C2 1.317 . S
N5 C1 1.328 . S
N5 C3 1.350 . S
H6 C1 0.930 . S
H7 C2 0.930 . S
C8 O9 1.224 . S
C8 O27 1.247 . S
O9 C8 1.224 . S
N10 Co0 2.128 . S
N10 C11 1.355 . S
N10 C13 1.311 . S
C11 N10 1.355 . S
C11 C12 1.363 . S
C11 H23 0.929 . S
C12 C11 1.363 . S
C12 N14 1.375 . S
C12 H30 0.931 1_455 S
C13 N10 1.311 . S
C13 N14 1.347 . S
C13 H24 0.929 . S
N14 C12 1.375 . S
N14 C13 1.347 . S
C15 C18 1.365 . S
C15 N20 1.328 . S
C15 H21 0.929 . S
C16 C17 1.362 . S
C16 C19 1.378 . S
C16 H31 0.929 . S
C17 C16 1.362 . S
C17 C18 1.366 . S
C18 C15 1.365 . S
C18 C17 1.366 . S
C18 H32 0.930 . S
C19 C16 1.378 . S
C19 N20 1.315 . S
C19 H22 0.930 . S
N20 Co0 2.194 . S
N20 C15 1.328 . S
N20 C19 1.315 . S
H21 C15 0.929 . S
H22 C19 0.930 . S
H23 C11 0.929 . S
H24 C13 0.929 . S
O25 Co0 2.351 . S
O25 C28 1.244 . S
O26 Co0 2.155 . S
O26 C28 1.240 . S
O27 Co0 2.096 . S
O27 C8 1.247 . S
C28 O25 1.244 . S
C28 O26 1.240 . S
H29 C3 0.931 . S
H30 C12 0.931 1_655 S
H31 C16 0.929 . S
H32 C18 0.930 . S
Co33 N37 2.148 . S
Co33 N43 2.128 . S
Co33 N53 2.194 . S
Co33 O58 2.351 . S
Co33 O59 2.155 . S
Co33 O60 2.096 . S
C34 N37 1.301 . S
C34 N38 1.328 . S
C34 H39 0.930 . S
C35 C36 1.333 . S
C35 N37 1.317 . S
C35 H40 0.930 . S
C36 C35 1.333 . S
C36 N38 1.350 . S
C36 H62 0.931 . S
N37 Co33 2.148 . S
N37 C34 1.301 . S
N37 C35 1.317 . S
N38 C34 1.328 . S
N38 C36 1.350 . S
H39 C34 0.930 . S
H40 C35 0.930 . S
C41 O42 1.224 . S
C41 O60 1.247 . S
O42 C41 1.224 . S
N43 Co33 2.128 . S
N43 C44 1.355 . S
N43 C46 1.311 . S
C44 N43 1.355 . S
C44 C45 1.363 . S
C44 H56 0.929 . S
C45 C44 1.363 . S
C45 N47 1.375 . S
C45 H63 0.931 . S
C46 N43 1.311 . S
C46 N47 1.347 . S
C46 H57 0.929 . S
N47 C45 1.375 . S
N47 C46 1.347 . S
C48 C51 1.365 . S
C48 N53 1.328 . S
C48 H54 0.929 . S
C49 C50 1.362 . S
C49 C52 1.378 . S
C49 H64 0.929 . S
C50 C49 1.362 . S
C50 C51 1.366 . S
C51 C48 1.365 . S
C51 C50 1.366 . S
C51 H65 0.930 . S
C52 C49 1.378 . S
C52 N53 1.315 . S
C52 H55 0.930 . S
N53 Co33 2.194 . S
N53 C48 1.328 . S
N53 C52 1.315 . S
H54 C48 0.929 . S
H55 C52 0.930 . S
H56 C44 0.929 . S
H57 C46 0.929 . S
O58 Co33 2.351 . S
O58 C61 1.244 . S
O59 Co33 2.155 . S
O59 C61 1.240 . S
O60 Co33 2.096 . S
O60 C41 1.247 . S
C61 O58 1.244 . S
C61 O59 1.240 . S
H62 C36 0.931 . S
H63 C45 0.931 . S
H64 C49 0.929 . S
H65 C51 0.930 . S
Co66 N70 2.148 . S
Co66 N76 2.128 . S
Co66 N86 2.194 . S
Co66 O91 2.351 . S
Co66 O92 2.155 . S
Co66 O93 2.096 . S
C67 N70 1.301 . S
C67 N71 1.328 . S
C67 H72 0.930 . S
C68 C69 1.333 . S
C68 N70 1.317 . S
C68 H73 0.930 . S
C69 C68 1.333 . S
C69 N71 1.350 . S
C69 H95 0.931 . S
N70 Co66 2.148 . S
N70 C67 1.301 . S
N70 C68 1.317 . S
N71 C67 1.328 . S
N71 C69 1.350 . S
H72 C67 0.930 . S
H73 C68 0.930 . S
C74 O75 1.224 . S
C74 O93 1.247 . S
O75 C74 1.224 . S
N76 Co66 2.128 . S
N76 C77 1.355 . S
N76 C79 1.311 . S
C77 N76 1.355 . S
C77 C78 1.363 . S
C77 H89 0.929 . S
C78 C77 1.363 . S
C78 N80 1.375 . S
C78 H96 0.931 1_565 S
C79 N76 1.311 . S
C79 N80 1.347 . S
C79 H90 0.929 . S
N80 C78 1.375 . S
N80 C79 1.347 . S
C81 C84 1.365 . S
C81 N86 1.328 . S
C81 H87 0.929 . S
C82 C83 1.362 . S
C82 C85 1.378 . S
C82 H97 0.929 . S
C83 C82 1.362 . S
C83 C84 1.366 . S
C84 C81 1.365 . S
C84 C83 1.366 . S
C84 H98 0.930 . S
C85 C82 1.378 . S
C85 N86 1.315 . S
C85 H88 0.930 . S
N86 Co66 2.194 . S
N86 C81 1.328 . S
N86 C85 1.315 . S
H87 C81 0.929 . S
H88 C85 0.930 . S
H89 C77 0.929 . S
H90 C79 0.929 . S
O91 Co66 2.351 . S
O91 C94 1.244 . S
O92 Co66 2.155 . S
O92 C94 1.240 . S
O93 Co66 2.096 . S
O93 C74 1.247 . S
C94 O91 1.244 . S
C94 O92 1.240 . S
H95 C69 0.931 . S
H96 C78 0.931 1_545 S
H97 C82 0.929 . S
H98 C84 0.930 . S
Co99 N103 2.148 . S
Co99 N109 2.128 . S
Co99 N119 2.194 . S
Co99 O124 2.351 . S
Co99 O125 2.155 . S
Co99 O126 2.096 . S
C100 N103 1.301 . S
C100 N104 1.328 . S
C100 H105 0.930 . S
C101 C102 1.333 . S
C101 N103 1.317 . S
C101 H106 0.930 . S
C102 C101 1.333 . S
C102 N104 1.350 . S
C102 H128 0.931 . S
N103 Co99 2.148 . S
N103 C100 1.301 . S
N103 C101 1.317 . S
N104 C100 1.328 . S
N104 C102 1.350 . S
H105 C100 0.930 . S
H106 C101 0.930 . S
C107 O108 1.224 . S
C107 O126 1.247 . S
O108 C107 1.224 . S
N109 Co99 2.128 . S
N109 C110 1.355 . S
N109 C112 1.311 . S
C110 N109 1.355 . S
C110 C111 1.363 . S
C110 H122 0.929 . S
C111 C110 1.363 . S
C111 N113 1.375 . S
C111 H129 0.931 1_545 S
C112 N109 1.311 . S
C112 N113 1.347 . S
C112 H123 0.929 . S
N113 C111 1.375 . S
N113 C112 1.347 . S
C114 C117 1.365 . S
C114 N119 1.328 . S
C114 H120 0.929 . S
C115 C116 1.362 . S
C115 C118 1.378 . S
C115 H130 0.929 . S
C116 C115 1.362 . S
C116 C117 1.366 . S
C117 C114 1.365 . S
C117 C116 1.366 . S
C117 H131 0.930 . S
C118 C115 1.378 . S
C118 N119 1.315 . S
C118 H121 0.930 . S
N119 Co99 2.194 . S
N119 C114 1.328 . S
N119 C118 1.315 . S
H120 C114 0.929 . S
H121 C118 0.930 . S
H122 C110 0.929 . S
H123 C112 0.929 . S
O124 Co99 2.351 . S
O124 C127 1.244 . S
O125 Co99 2.155 . S
O125 C127 1.240 . S
O126 Co99 2.096 . S
O126 C107 1.247 . S
C127 O124 1.244 . S
C127 O125 1.240 . S
H128 C102 0.931 . S
H129 C111 0.931 1_565 S
H130 C115 0.929 . S
H131 C117 0.930 . S
Co132 N136 2.148 . S
Co132 N142 2.128 . S
Co132 N152 2.194 . S
Co132 O157 2.351 . S
Co132 O158 2.155 . S
Co132 O159 2.096 . S
C133 N136 1.301 . S
C133 N137 1.328 . S
C133 H138 0.930 . S
C134 C135 1.333 . S
C134 N136 1.317 . S
C134 H139 0.930 . S
C135 C134 1.333 . S
C135 N137 1.350 . S
C135 H161 0.931 . S
N136 Co132 2.148 . S
N136 C133 1.301 . S
N136 C134 1.317 . S
N137 C133 1.328 . S
N137 C135 1.350 . S
H138 C133 0.930 . S
H139 C134 0.930 . S
C140 O141 1.224 . S
C140 O159 1.247 . S
O141 C140 1.224 . S
N142 Co132 2.128 . S
N142 C143 1.355 . S
N142 C145 1.311 . S
C143 N142 1.355 . S
C143 C144 1.363 . S
C143 H155 0.929 . S
C144 C143 1.363 . S
C144 N146 1.375 . S
C144 H162 0.931 1_655 S
C145 N142 1.311 . S
C145 N146 1.347 . S
C145 H156 0.929 . S
N146 C144 1.375 . S
N146 C145 1.347 . S
C147 C150 1.365 . S
C147 N152 1.328 . S
C147 H153 0.929 . S
C148 C149 1.362 . S
C148 C151 1.378 . S
C148 H163 0.929 . S
C149 C148 1.362 . S
C149 C150 1.366 . S
C150 C147 1.365 . S
C150 C149 1.366 . S
C150 H164 0.930 . S
C151 C148 1.378 . S
C151 N152 1.315 . S
C151 H154 0.930 . S
N152 Co132 2.194 . S
N152 C147 1.328 . S
N152 C151 1.315 . S
H153 C147 0.929 . S
H154 C151 0.930 . S
H155 C143 0.929 . S
H156 C145 0.929 . S
O157 Co132 2.351 . S
O157 C160 1.244 . S
O158 Co132 2.155 . S
O158 C160 1.240 . S
O159 Co132 2.096 . S
O159 C140 1.247 . S
C160 O157 1.244 . S
C160 O158 1.240 . S
H161 C135 0.931 . S
H162 C144 0.931 1_455 S
H163 C148 0.929 . S
H164 C150 0.930 . S
Co165 N169 2.148 . S
Co165 N175 2.128 . S
Co165 N185 2.194 . S
Co165 O190 2.351 . S
Co165 O191 2.155 . S
Co165 O192 2.096 . S
C166 N169 1.301 . S
C166 N170 1.328 . S
C166 H171 0.930 . S
C167 C168 1.333 . S
C167 N169 1.317 . S
C167 H172 0.930 . S
C168 C167 1.333 . S
C168 N170 1.350 . S
C168 H194 0.931 . S
N169 Co165 2.148 . S
N169 C166 1.301 . S
N169 C167 1.317 . S
N170 C166 1.328 . S
N170 C168 1.350 . S
H171 C166 0.930 . S
H172 C167 0.930 . S
C173 O174 1.224 . S
C173 O192 1.247 . S
O174 C173 1.224 . S
N175 Co165 2.128 . S
N175 C176 1.355 . S
N175 C178 1.311 . S
C176 N175 1.355 . S
C176 C177 1.363 . S
C176 H188 0.929 . S
C177 C176 1.363 . S
C177 N179 1.375 . S
C177 H195 0.931 . S
C178 N175 1.311 . S
C178 N179 1.347 . S
C178 H189 0.929 . S
N179 C177 1.375 . S
N179 C178 1.347 . S
C180 C183 1.365 . S
C180 N185 1.328 . S
C180 H186 0.929 . S
C181 C182 1.362 . S
C181 C184 1.378 . S
C181 H196 0.929 . S
C182 C181 1.362 . S
C182 C183 1.366 . S
C183 C180 1.365 . S
C183 C182 1.366 . S
C183 H197 0.930 . S
C184 C181 1.378 . S
C184 N185 1.315 . S
C184 H187 0.930 . S
N185 Co165 2.194 . S
N185 C180 1.328 . S
N185 C184 1.315 . S
H186 C180 0.929 . S
H187 C184 0.930 . S
H188 C176 0.929 . S
H189 C178 0.929 . S
O190 Co165 2.351 . S
O190 C193 1.244 . S
O191 Co165 2.155 . S
O191 C193 1.240 . S
O192 Co165 2.096 . S
O192 C173 1.247 . S
C193 O190 1.244 . S
C193 O191 1.240 . S
H194 C168 0.931 . S
H195 C177 0.931 . S
H196 C181 0.929 . S
H197 C183 0.930 . S
Co198 N202 2.148 . S
Co198 N208 2.128 . S
Co198 N218 2.194 . S
Co198 O223 2.351 . S
Co198 O224 2.155 . S
Co198 O225 2.096 . S
C199 N202 1.301 . S
C199 N203 1.328 . S
C199 H204 0.930 . S
C200 C201 1.333 . S
C200 N202 1.317 . S
C200 H205 0.930 . S
C201 C200 1.333 . S
C201 N203 1.350 . S
C201 H227 0.931 . S
N202 Co198 2.148 . S
N202 C199 1.301 . S
N202 C200 1.317 . S
N203 C199 1.328 . S
N203 C201 1.350 . S
H204 C199 0.930 . S
H205 C200 0.930 . S
C206 O207 1.224 . S
C206 O225 1.247 . S
O207 C206 1.224 . S
N208 Co198 2.128 . S
N208 C209 1.355 . S
N208 C211 1.311 . S
C209 N208 1.355 . S
C209 C210 1.363 . S
C209 H221 0.929 . S
C210 C209 1.363 . S
C210 N212 1.375 . S
C210 H228 0.931 . S
C211 N208 1.311 . S
C211 N212 1.347 . S
C211 H222 0.929 . S
N212 C210 1.375 . S
N212 C211 1.347 . S
C213 C216 1.365 . S
C213 N218 1.328 . S
C213 H219 0.929 . S
C214 C215 1.362 . S
C214 C217 1.378 . S
C214 H229 0.929 . S
C215 C214 1.362 . S
C215 C216 1.366 . S
C216 C213 1.365 . S
C216 C215 1.366 . S
C216 H230 0.930 . S
C217 C214 1.378 . S
C217 N218 1.315 . S
C217 H220 0.930 . S
N218 Co198 2.194 . S
N218 C213 1.328 . S
N218 C217 1.315 . S
H219 C213 0.929 . S
H220 C217 0.930 . S
H221 C209 0.929 . S
H222 C211 0.929 . S
O223 Co198 2.351 . S
O223 C226 1.244 . S
O224 Co198 2.155 . S
O224 C226 1.240 . S
O225 Co198 2.096 . S
O225 C206 1.247 . S
C226 O223 1.244 . S
C226 O224 1.240 . S
H227 C201 0.931 . S
H228 C210 0.931 . S
H229 C214 0.929 . S
H230 C216 0.930 . S
Co231 N235 2.148 . S
Co231 N241 2.128 . S
Co231 N251 2.194 . S
Co231 O256 2.351 . S
Co231 O257 2.155 . S
Co231 O258 2.096 . S
C232 N235 1.301 . S
C232 N236 1.328 . S
C232 H237 0.930 . S
C233 C234 1.333 . S
C233 N235 1.317 . S
C233 H238 0.930 . S
C234 C233 1.333 . S
C234 N236 1.350 . S
C234 H260 0.931 . S
N235 Co231 2.148 . S
N235 C232 1.301 . S
N235 C233 1.317 . S
N236 C232 1.328 . S
N236 C234 1.350 . S
H237 C232 0.930 . S
H238 C233 0.930 . S
C239 O240 1.224 . S
C239 O258 1.247 . S
O240 C239 1.224 . S
N241 Co231 2.128 . S
N241 C242 1.355 . S
N241 C244 1.311 . S
C242 N241 1.355 . S
C242 C243 1.363 . S
C242 H254 0.929 . S
C243 C242 1.363 . S
C243 N245 1.375 . S
C243 H261 0.931 . S
C244 N241 1.311 . S
C244 N245 1.347 . S
C244 H255 0.929 . S
N245 C243 1.375 . S
N245 C244 1.347 . S
C246 C249 1.365 . S
C246 N251 1.328 . S
C246 H252 0.929 . S
C247 C248 1.362 . S
C247 C250 1.378 . S
C247 H262 0.929 . S
C248 C247 1.362 . S
C248 C249 1.366 . S
C249 C246 1.365 . S
C249 C248 1.366 . S
C249 H263 0.930 . S
C250 C247 1.378 . S
C250 N251 1.315 . S
C250 H253 0.930 . S
N251 Co231 2.194 . S
N251 C246 1.328 . S
N251 C250 1.315 . S
H252 C246 0.929 . S
H253 C250 0.930 . S
H254 C242 0.929 . S
H255 C244 0.929 . S
O256 Co231 2.351 . S
O256 C259 1.244 . S
O257 Co231 2.155 . S
O257 C259 1.240 . S
O258 Co231 2.096 . S
O258 C239 1.247 . S
C259 O256 1.244 . S
C259 O257 1.240 . S
H260 C234 0.931 . S
H261 C243 0.931 . S
H262 C247 0.929 . S
H263 C249 0.930 . S
Co264 N268 2.148 . S
Co264 N274 2.128 . S
Co264 N284 2.194 . S
Co264 O289 2.351 . S
Co264 O290 2.155 . S
Co264 O291 2.096 . S
C265 N268 1.301 . S
C265 N269 1.328 . S
C265 H270 0.930 . S
C266 C267 1.333 . S
C266 N268 1.317 . S
C266 H271 0.930 . S
C267 C266 1.333 . S
C267 N269 1.350 . S
C267 H293 0.931 . S
N268 Co264 2.148 . S
N268 C265 1.301 . S
N268 C266 1.317 . S
N269 C265 1.328 . S
N269 C267 1.350 . S
H270 C265 0.930 . S
H271 C266 0.930 . S
C272 O273 1.224 . S
C272 O291 1.247 . S
O273 C272 1.224 . S
N274 Co264 2.128 . S
N274 C275 1.355 . S
N274 C277 1.311 . S
C275 N274 1.355 . S
C275 C276 1.363 . S
C275 H287 0.929 . S
C276 C275 1.363 . S
C276 N278 1.375 . S
C276 H294 0.931 . S
C277 N274 1.311 . S
C277 N278 1.347 . S
C277 H288 0.929 . S
N278 C276 1.375 . S
N278 C277 1.347 . S
C279 C282 1.365 . S
C279 N284 1.328 . S
C279 H285 0.929 . S
C280 C281 1.362 . S
C280 C283 1.378 . S
C280 H295 0.929 . S
C281 C280 1.362 . S
C281 C282 1.366 . S
C282 C279 1.365 . S
C282 C281 1.366 . S
C282 H296 0.930 . S
C283 C280 1.378 . S
C283 N284 1.315 . S
C283 H286 0.930 . S
N284 Co264 2.194 . S
N284 C279 1.328 . S
N284 C283 1.315 . S
H285 C279 0.929 . S
H286 C283 0.930 . S
H287 C275 0.929 . S
H288 C277 0.929 . S
O289 Co264 2.351 . S
O289 C292 1.244 . S
O290 Co264 2.155 . S
O290 C292 1.240 . S
O291 Co264 2.096 . S
O291 C272 1.247 . S
C292 O289 1.244 . S
C292 O290 1.240 . S
H293 C267 0.931 . S
H294 C276 0.931 . S
H295 C280 0.929 . S
H296 C282 0.930 . S
Co297 N301 2.148 . S
Co297 N307 2.128 . S
Co297 N317 2.194 . S
Co297 O322 2.351 . S
Co297 O323 2.155 . S
Co297 O324 2.096 . S
C298 N301 1.301 . S
C298 N302 1.328 1_655 S
C298 H303 0.930 1_655 S
C299 C300 1.333 . S
C299 N301 1.317 . S
C299 H304 0.930 . S
C300 C299 1.333 . S
C300 N302 1.350 1_655 S
C300 H326 0.931 . S
N301 Co297 2.148 . S
N301 C298 1.301 . S
N301 C299 1.317 . S
N302 C298 1.328 1_455 S
N302 C300 1.350 1_455 S
H303 C298 0.930 1_455 S
H304 C299 0.930 . S
C305 O306 1.224 . S
C305 O324 1.247 . S
O306 C305 1.224 . S
N307 Co297 2.128 . S
N307 C308 1.355 . S
N307 C310 1.311 . S
C308 N307 1.355 . S
C308 C309 1.363 . S
C308 H320 0.929 . S
C309 C308 1.363 . S
C309 N311 1.375 . S
C309 H327 0.931 . S
C310 N307 1.311 . S
C310 N311 1.347 . S
C310 H321 0.929 . S
N311 C309 1.375 . S
N311 C310 1.347 . S
C312 C315 1.365 . S
C312 N317 1.328 . S
C312 H318 0.929 . S
C313 C314 1.362 . S
C313 C316 1.378 . S
C313 H328 0.929 . S
C314 C313 1.362 . S
C314 C315 1.366 . S
C315 C312 1.365 . S
C315 C314 1.366 . S
C315 H329 0.930 1_655 S
C316 C313 1.378 . S
C316 N317 1.315 . S
C316 H319 0.930 . S
N317 Co297 2.194 . S
N317 C312 1.328 . S
N317 C316 1.315 . S
H318 C312 0.929 . S
H319 C316 0.930 . S
H320 C308 0.929 . S
H321 C310 0.929 . S
O322 Co297 2.351 . S
O322 C325 1.244 . S
O323 Co297 2.155 . S
O323 C325 1.240 . S
O324 Co297 2.096 . S
O324 C305 1.247 . S
C325 O322 1.244 . S
C325 O323 1.240 . S
H326 C300 0.931 . S
H327 C309 0.931 . S
H328 C313 0.929 . S
H329 C315 0.930 1_455 S
Co330 N334 2.148 . S
Co330 N340 2.128 . S
Co330 N350 2.194 . S
Co330 O355 2.351 . S
Co330 O356 2.155 . S
Co330 O357 2.096 . S
C331 N334 1.301 . S
C331 N335 1.328 . S
C331 H336 0.930 . S
C332 C333 1.333 . S
C332 N334 1.317 . S
C332 H337 0.930 . S
C333 C332 1.333 . S
C333 N335 1.350 . S
C333 H359 0.931 . S
N334 Co330 2.148 . S
N334 C331 1.301 . S
N334 C332 1.317 . S
N335 C331 1.328 . S
N335 C333 1.350 . S
H336 C331 0.930 . S
H337 C332 0.930 . S
C338 O339 1.224 . S
C338 O357 1.247 . S
O339 C338 1.224 . S
N340 Co330 2.128 . S
N340 C341 1.355 . S
N340 C343 1.311 . S
C341 N340 1.355 . S
C341 C342 1.363 . S
C341 H353 0.929 . S
C342 C341 1.363 . S
C342 N344 1.375 . S
C342 H360 0.931 . S
C343 N340 1.311 . S
C343 N344 1.347 . S
C343 H354 0.929 . S
N344 C342 1.375 . S
N344 C343 1.347 . S
C345 C348 1.365 . S
C345 N350 1.328 . S
C345 H351 0.929 . S
C346 C347 1.362 . S
C346 C349 1.378 . S
C346 H361 0.929 . S
C347 C346 1.362 . S
C347 C348 1.366 . S
C348 C345 1.365 . S
C348 C347 1.366 . S
C348 H362 0.930 . S
C349 C346 1.378 . S
C349 N350 1.315 . S
C349 H352 0.930 . S
N350 Co330 2.194 . S
N350 C345 1.328 . S
N350 C349 1.315 . S
H351 C345 0.929 . S
H352 C349 0.930 . S
H353 C341 0.929 . S
H354 C343 0.929 . S
O355 Co330 2.351 . S
O355 C358 1.244 . S
O356 Co330 2.155 . S
O356 C358 1.240 . S
O357 Co330 2.096 . S
O357 C338 1.247 . S
C358 O355 1.244 . S
C358 O356 1.240 . S
H359 C333 0.931 . S
H360 C342 0.931 . S
H361 C346 0.929 . S
H362 C348 0.930 . S
Co363 N367 2.148 . S
Co363 N373 2.128 . S
Co363 N383 2.194 . S
Co363 O388 2.351 . S
Co363 O389 2.155 . S
Co363 O390 2.096 . S
C364 N367 1.301 . S
C364 N368 1.328 1_545 S
C364 H369 0.930 1_545 S
C365 C366 1.333 . S
C365 N367 1.317 . S
C365 H370 0.930 . S
C366 C365 1.333 . S
C366 N368 1.350 1_545 S
C366 H392 0.931 . S
N367 Co363 2.148 . S
N367 C364 1.301 . S
N367 C365 1.317 . S
N368 C364 1.328 1_565 S
N368 C366 1.350 1_565 S
H369 C364 0.930 1_565 S
H370 C365 0.930 . S
C371 O372 1.224 . S
C371 O390 1.247 . S
O372 C371 1.224 . S
N373 Co363 2.128 . S
N373 C374 1.355 . S
N373 C376 1.311 . S
C374 N373 1.355 . S
C374 C375 1.363 . S
C374 H386 0.929 . S
C375 C374 1.363 . S
C375 N377 1.375 . S
C375 H393 0.931 . S
C376 N373 1.311 . S
C376 N377 1.347 . S
C376 H387 0.929 . S
N377 C375 1.375 . S
N377 C376 1.347 . S
C378 C381 1.365 . S
C378 N383 1.328 . S
C378 H384 0.929 . S
C379 C380 1.362 . S
C379 C382 1.378 . S
C379 H394 0.929 . S
C380 C379 1.362 . S
C380 C381 1.366 . S
C381 C378 1.365 . S
C381 C380 1.366 . S
C381 H395 0.930 1_545 S
C382 C379 1.378 . S
C382 N383 1.315 . S
C382 H385 0.930 . S
N383 Co363 2.194 . S
N383 C378 1.328 . S
N383 C382 1.315 . S
H384 C378 0.929 . S
H385 C382 0.930 . S
H386 C374 0.929 . S
H387 C376 0.929 . S
O388 Co363 2.351 . S
O388 C391 1.244 . S
O389 Co363 2.155 . S
O389 C391 1.240 . S
O390 Co363 2.096 . S
O390 C371 1.247 . S
C391 O388 1.244 . S
C391 O389 1.240 . S
H392 C366 0.931 . S
H393 C375 0.931 . S
H394 C379 0.929 . S
H395 C381 0.930 1_565 S
Co396 N400 2.148 . S
Co396 N406 2.128 . S
Co396 N416 2.194 . S
Co396 O421 2.351 . S
Co396 O422 2.155 . S
Co396 O423 2.096 . S
C397 N400 1.301 . S
C397 N401 1.328 1_565 S
C397 H402 0.930 1_565 S
C398 C399 1.333 . S
C398 N400 1.317 . S
C398 H403 0.930 . S
C399 C398 1.333 . S
C399 N401 1.350 1_565 S
C399 H425 0.931 . S
N400 Co396 2.148 . S
N400 C397 1.301 . S
N400 C398 1.317 . S
N401 C397 1.328 1_545 S
N401 C399 1.350 1_545 S
H402 C397 0.930 1_545 S
H403 C398 0.930 . S
C404 O405 1.224 . S
C404 O423 1.247 . S
O405 C404 1.224 . S
N406 Co396 2.128 . S
N406 C407 1.355 . S
N406 C409 1.311 . S
C407 N406 1.355 . S
C407 C408 1.363 . S
C407 H419 0.929 . S
C408 C407 1.363 . S
C408 N410 1.375 . S
C408 H426 0.931 . S
C409 N406 1.311 . S
C409 N410 1.347 . S
C409 H420 0.929 . S
N410 C408 1.375 . S
N410 C409 1.347 . S
C411 C414 1.365 . S
C411 N416 1.328 . S
C411 H417 0.929 . S
C412 C413 1.362 . S
C412 C415 1.378 . S
C412 H427 0.929 . S
C413 C412 1.362 . S
C413 C414 1.366 . S
C414 C411 1.365 . S
C414 C413 1.366 . S
C414 H428 0.930 1_565 S
C415 C412 1.378 . S
C415 N416 1.315 . S
C415 H418 0.930 . S
N416 Co396 2.194 . S
N416 C411 1.328 . S
N416 C415 1.315 . S
H417 C411 0.929 . S
H418 C415 0.930 . S
H419 C407 0.929 . S
H420 C409 0.929 . S
O421 Co396 2.351 . S
O421 C424 1.244 . S
O422 Co396 2.155 . S
O422 C424 1.240 . S
O423 Co396 2.096 . S
O423 C404 1.247 . S
C424 O421 1.244 . S
C424 O422 1.240 . S
H425 C399 0.931 . S
H426 C408 0.931 . S
H427 C412 0.929 . S
H428 C414 0.930 1_545 S
Co429 N433 2.148 . S
Co429 N439 2.128 . S
Co429 N449 2.194 . S
Co429 O454 2.351 . S
Co429 O455 2.155 . S
Co429 O456 2.096 . S
C430 N433 1.301 . S
C430 N434 1.328 1_455 S
C430 H435 0.930 1_455 S
C431 C432 1.333 . S
C431 N433 1.317 . S
C431 H436 0.930 . S
C432 C431 1.333 . S
C432 N434 1.350 1_455 S
C432 H458 0.931 . S
N433 Co429 2.148 . S
N433 C430 1.301 . S
N433 C431 1.317 . S
N434 C430 1.328 1_655 S
N434 C432 1.350 1_655 S
H435 C430 0.930 1_655 S
H436 C431 0.930 . S
C437 O438 1.224 . S
C437 O456 1.247 . S
O438 C437 1.224 . S
N439 Co429 2.128 . S
N439 C440 1.355 . S
N439 C442 1.311 . S
C440 N439 1.355 . S
C440 C441 1.363 . S
C440 H452 0.929 . S
C441 C440 1.363 . S
C441 N443 1.375 . S
C441 H459 0.931 . S
C442 N439 1.311 . S
C442 N443 1.347 . S
C442 H453 0.929 . S
N443 C441 1.375 . S
N443 C442 1.347 . S
C444 C447 1.365 . S
C444 N449 1.328 . S
C444 H450 0.929 . S
C445 C446 1.362 . S
C445 C448 1.378 . S
C445 H460 0.929 . S
C446 C445 1.362 . S
C446 C447 1.366 . S
C447 C444 1.365 . S
C447 C446 1.366 . S
C447 H461 0.930 1_455 S
C448 C445 1.378 . S
C448 N449 1.315 . S
C448 H451 0.930 . S
N449 Co429 2.194 . S
N449 C444 1.328 . S
N449 C448 1.315 . S
H450 C444 0.929 . S
H451 C448 0.930 . S
H452 C440 0.929 . S
H453 C442 0.929 . S
O454 Co429 2.351 . S
O454 C457 1.244 . S
O455 Co429 2.155 . S
O455 C457 1.240 . S
O456 Co429 2.096 . S
O456 C437 1.247 . S
C457 O454 1.244 . S
C457 O455 1.240 . S
H458 C432 0.931 . S
H459 C441 0.931 . S
H460 C445 0.929 . S
H461 C447 0.930 1_655 S
Co462 N466 2.148 . S
Co462 N472 2.128 . S
Co462 N482 2.194 . S
Co462 O487 2.351 . S
Co462 O488 2.155 . S
Co462 O489 2.096 . S
C463 N466 1.301 . S
C463 N467 1.328 . S
C463 H468 0.930 . S
C464 C465 1.333 . S
C464 N466 1.317 . S
C464 H469 0.930 . S
C465 C464 1.333 . S
C465 N467 1.350 . S
C465 H491 0.931 . S
N466 Co462 2.148 . S
N466 C463 1.301 . S
N466 C464 1.317 . S
N467 C463 1.328 . S
N467 C465 1.350 . S
H468 C463 0.930 . S
H469 C464 0.930 . S
C470 O471 1.224 . S
C470 O489 1.247 . S
O471 C470 1.224 . S
N472 Co462 2.128 . S
N472 C473 1.355 . S
N472 C475 1.311 . S
C473 N472 1.355 . S
C473 C474 1.363 . S
C473 H485 0.929 . S
C474 C473 1.363 . S
C474 N476 1.375 . S
C474 H492 0.931 . S
C475 N472 1.311 . S
C475 N476 1.347 . S
C475 H486 0.929 . S
N476 C474 1.375 . S
N476 C475 1.347 . S
C477 C480 1.365 . S
C477 N482 1.328 . S
C477 H483 0.929 . S
C478 C479 1.362 . S
C478 C481 1.378 . S
C478 H493 0.929 . S
C479 C478 1.362 . S
C479 C480 1.366 . S
C480 C477 1.365 . S
C480 C479 1.366 . S
C480 H494 0.930 . S
C481 C478 1.378 . S
C481 N482 1.315 . S
C481 H484 0.930 . S
N482 Co462 2.194 . S
N482 C477 1.328 . S
N482 C481 1.315 . S
H483 C477 0.929 . S
H484 C481 0.930 . S
H485 C473 0.929 . S
H486 C475 0.929 . S
O487 Co462 2.351 . S
O487 C490 1.244 . S
O488 Co462 2.155 . S
O488 C490 1.240 . S
O489 Co462 2.096 . S
O489 C470 1.247 . S
C490 O487 1.244 . S
C490 O488 1.240 . S
H491 C465 0.931 . S
H492 C474 0.931 . S
H493 C478 0.929 . S
H494 C480 0.930 . S
Co495 N499 2.148 . S
Co495 N505 2.128 . S
Co495 N515 2.194 . S
Co495 O520 2.351 . S
Co495 O521 2.155 . S
Co495 O522 2.096 . S
C496 N499 1.301 . S
C496 N500 1.328 . S
C496 H501 0.930 . S
C497 C498 1.333 . S
C497 N499 1.317 . S
C497 H502 0.930 . S
C498 C497 1.333 . S
C498 N500 1.350 . S
C498 H524 0.931 . S
N499 Co495 2.148 . S
N499 C496 1.301 . S
N499 C497 1.317 . S
N500 C496 1.328 . S
N500 C498 1.350 . S
H501 C496 0.930 . S
H502 C497 0.930 . S
C503 O504 1.224 . S
C503 O522 1.247 . S
O504 C503 1.224 . S
N505 Co495 2.128 . S
N505 C506 1.355 . S
N505 C508 1.311 . S
C506 N505 1.355 . S
C506 C507 1.363 . S
C506 H518 0.929 . S
C507 C506 1.363 . S
C507 N509 1.375 . S
C507 H525 0.931 . S
C508 N505 1.311 . S
C508 N509 1.347 . S
C508 H519 0.929 . S
N509 C507 1.375 . S
N509 C508 1.347 . S
C510 C513 1.365 . S
C510 N515 1.328 . S
C510 H516 0.929 . S
C511 C512 1.362 . S
C511 C514 1.378 . S
C511 H526 0.929 . S
C512 C511 1.362 . S
C512 C513 1.366 . S
C513 C510 1.365 . S
C513 C512 1.366 . S
C513 H527 0.930 . S
C514 C511 1.378 . S
C514 N515 1.315 . S
C514 H517 0.930 . S
N515 Co495 2.194 . S
N515 C510 1.328 . S
N515 C514 1.315 . S
H516 C510 0.929 . S
H517 C514 0.930 . S
H518 C506 0.929 . S
H519 C508 0.929 . S
O520 Co495 2.351 . S
O520 C523 1.244 . S
O521 Co495 2.155 . S
O521 C523 1.240 . S
O522 Co495 2.096 . S
O522 C503 1.247 . S
C523 O520 1.244 . S
C523 O521 1.240 . S
H524 C498 0.931 . S
H525 C507 0.931 . S
H526 C511 0.929 . S
H527 C513 0.930 . S
Co528 N532 2.148 . S
Co528 N538 2.128 . S
Co528 N548 2.194 . S
Co528 O553 2.351 . S
Co528 O554 2.155 . S
Co528 O555 2.096 . S
C529 N532 1.301 . S
C529 N533 1.328 . S
C529 H534 0.930 . S
C530 C531 1.333 . S
C530 N532 1.317 . S
C530 H535 0.930 . S
C531 C530 1.333 . S
C531 N533 1.350 . S
C531 H557 0.931 . S
N532 Co528 2.148 . S
N532 C529 1.301 . S
N532 C530 1.317 . S
N533 C529 1.328 . S
N533 C531 1.350 . S
H534 C529 0.930 . S
H535 C530 0.930 . S
C536 O537 1.224 . S
C536 O555 1.247 . S
O537 C536 1.224 . S
N538 Co528 2.128 . S
N538 C539 1.355 . S
N538 C541 1.311 . S
C539 N538 1.355 . S
C539 C540 1.363 . S
C539 H551 0.929 . S
C540 C539 1.363 . S
C540 N542 1.375 . S
C540 H558 0.931 . S
C541 N538 1.311 . S
C541 N542 1.347 . S
C541 H552 0.929 . S
N542 C540 1.375 . S
N542 C541 1.347 . S
C543 C546 1.365 . S
C543 N548 1.328 . S
C543 H549 0.929 . S
C544 C545 1.362 . S
C544 C547 1.378 . S
C544 H559 0.929 . S
C545 C544 1.362 . S
C545 C546 1.366 . S
C546 C543 1.365 . S
C546 C545 1.366 . S
C546 H560 0.930 . S
C547 C544 1.378 . S
C547 N548 1.315 . S
C547 H550 0.930 . S
N548 Co528 2.194 . S
N548 C543 1.328 . S
N548 C547 1.315 . S
H549 C543 0.929 . S
H550 C547 0.930 . S
H551 C539 0.929 . S
H552 C541 0.929 . S
O553 Co528 2.351 . S
O553 C556 1.244 . S
O554 Co528 2.155 . S
O554 C556 1.240 . S
O555 Co528 2.096 . S
O555 C536 1.247 . S
C556 O553 1.244 . S
C556 O554 1.240 . S
H557 C531 0.931 . S
H558 C540 0.931 . S
H559 C544 0.929 . S
H560 C546 0.930 . S
Co561 N565 2.148 . S
Co561 N571 2.128 . S
Co561 N581 2.194 . S
Co561 O586 2.351 . S
Co561 O587 2.155 . S
Co561 O588 2.096 . S
C562 N565 1.301 . S
C562 N566 1.328 . S
C562 H567 0.930 . S
C563 C564 1.333 . S
C563 N565 1.317 . S
C563 H568 0.930 . S
C564 C563 1.333 . S
C564 N566 1.350 . S
C564 H590 0.931 . S
N565 Co561 2.148 . S
N565 C562 1.301 . S
N565 C563 1.317 . S
N566 C562 1.328 . S
N566 C564 1.350 . S
H567 C562 0.930 . S
H568 C563 0.930 . S
C569 O570 1.224 . S
C569 O588 1.247 . S
O570 C569 1.224 . S
N571 Co561 2.128 . S
N571 C572 1.355 . S
N571 C574 1.311 . S
C572 N571 1.355 . S
C572 C573 1.363 . S
C572 H584 0.929 . S
C573 C572 1.363 . S
C573 N575 1.375 . S
C573 H591 0.931 . S
C574 N571 1.311 . S
C574 N575 1.347 . S
C574 H585 0.929 . S
N575 C573 1.375 . S
N575 C574 1.347 . S
C576 C579 1.365 . S
C576 N581 1.328 . S
C576 H582 0.929 . S
C577 C578 1.362 . S
C577 C580 1.378 . S
C577 H592 0.929 . S
C578 C577 1.362 . S
C578 C579 1.366 . S
C579 C576 1.365 . S
C579 C578 1.366 . S
C579 H593 0.930 . S
C580 C577 1.378 . S
C580 N581 1.315 . S
C580 H583 0.930 . S
N581 Co561 2.194 . S
N581 C576 1.328 . S
N581 C580 1.315 . S
H582 C576 0.929 . S
H583 C580 0.930 . S
H584 C572 0.929 . S
H585 C574 0.929 . S
O586 Co561 2.351 . S
O586 C589 1.244 . S
O587 Co561 2.155 . S
O587 C589 1.240 . S
O588 Co561 2.096 . S
O588 C569 1.247 . S
C589 O586 1.244 . S
C589 O587 1.240 . S
H590 C564 0.931 . S
H591 C573 0.931 . S
H592 C577 0.929 . S
H593 C579 0.930 . S
H594 C602 0.950 . S
H595 C607 0.950 . S
H596 C604 0.950 . S
H597 C606 0.950 . S
H598 C608 0.950 . S
H599 C610 0.950 . S
H600 C612 0.950 . S
H601 C613 0.950 . S
C602 H594 0.950 . S
C602 C603 1.386 . S
C602 C604 1.391 . S
C603 C602 1.386 . S
C603 C607 1.393 . S
C604 H596 0.950 . S
C604 C602 1.391 . S
C604 C605 1.400 . S
C605 C604 1.400 . S
C605 C606 1.398 . S
C605 C611 1.491 . S
C606 H597 0.950 . S
C606 C605 1.398 . S
C606 C607 1.391 . S
C607 H595 0.950 . S
C607 C603 1.393 . S
C607 C606 1.391 . S
C608 H598 0.950 . S
C608 C609 1.386 . S
C608 C610 1.391 . S
C609 C608 1.386 . S
C609 C613 1.393 . S
C610 H599 0.950 . S
C610 C608 1.391 . S
C610 C611 1.400 . S
C611 C605 1.491 . S
C611 C610 1.400 . S
C611 C612 1.398 . S
C612 H600 0.950 . S
C612 C611 1.398 . S
C612 C613 1.391 . S
C613 H601 0.950 . S
C613 C609 1.393 . S
C613 C612 1.391 . S
H614 C622 0.950 . S
H615 C627 0.950 . S
H616 C624 0.950 . S
H617 C626 0.950 . S
H618 C628 0.950 . S
H619 C630 0.950 . S
H620 C632 0.950 . S
H621 C633 0.950 1_545 S
C622 H614 0.950 . S
C622 C623 1.386 . S
C622 C624 1.391 . S
C623 C622 1.386 . S
C623 C627 1.393 . S
C624 H616 0.950 . S
C624 C622 1.391 . S
C624 C625 1.400 . S
C625 C624 1.400 . S
C625 C626 1.398 . S
C625 C631 1.491 . S
C626 H617 0.950 . S
C626 C625 1.398 . S
C626 C627 1.391 . S
C627 H615 0.950 . S
C627 C623 1.393 . S
C627 C626 1.391 . S
C628 H618 0.950 . S
C628 C629 1.386 . S
C628 C630 1.391 . S
C629 C628 1.386 . S
C629 C633 1.393 . S
C630 H619 0.950 . S
C630 C628 1.391 . S
C630 C631 1.400 . S
C631 C625 1.491 . S
C631 C630 1.400 . S
C631 C632 1.398 . S
C632 H620 0.950 . S
C632 C631 1.398 . S
C632 C633 1.391 . S
C633 H621 0.950 1_565 S
C633 C629 1.393 . S
C633 C632 1.391 . S
H634 C642 0.950 . S
H635 C647 0.950 . S
H636 C644 0.950 . S
H637 C646 0.950 . S
H638 C648 0.950 . S
H639 C650 0.950 . S
H640 C652 0.950 . S
H641 C653 0.950 . S
C642 H634 0.950 . S
C642 C643 1.386 . S
C642 C644 1.391 . S
C643 C642 1.386 . S
C643 C647 1.393 . S
C644 H636 0.950 . S
C644 C642 1.391 . S
C644 C645 1.400 . S
C645 C644 1.400 . S
C645 C646 1.398 . S
C645 C651 1.491 . S
C646 H637 0.950 . S
C646 C645 1.398 . S
C646 C647 1.391 . S
C647 H635 0.950 . S
C647 C643 1.393 . S
C647 C646 1.391 . S
C648 H638 0.950 . S
C648 C649 1.386 . S
C648 C650 1.391 . S
C649 C648 1.386 . S
C649 C653 1.393 . S
C650 H639 0.950 . S
C650 C648 1.391 . S
C650 C651 1.400 . S
C651 C645 1.491 . S
C651 C650 1.400 . S
C651 C652 1.398 . S
C652 H640 0.950 . S
C652 C651 1.398 . S
C652 C653 1.391 . S
C653 H641 0.950 . S
C653 C649 1.393 . S
C653 C652 1.391 . S
H654 C662 0.950 . S
H655 C667 0.950 . S
H656 C664 0.950 . S
H657 C666 0.950 . S
H658 C668 0.950 . S
H659 C670 0.950 . S
H660 C672 0.950 . S
H661 C673 0.950 . S
C662 H654 0.950 . S
C662 C663 1.386 . S
C662 C664 1.391 . S
C663 C662 1.386 . S
C663 C667 1.393 . S
C664 H656 0.950 . S
C664 C662 1.391 . S
C664 C665 1.400 . S
C665 C664 1.400 . S
C665 C666 1.398 . S
C665 C671 1.491 . S
C666 H657 0.950 . S
C666 C665 1.398 . S
C666 C667 1.391 . S
C667 H655 0.950 . S
C667 C663 1.393 . S
C667 C666 1.391 . S
C668 H658 0.950 . S
C668 C669 1.386 . S
C668 C670 1.391 . S
C669 C668 1.386 . S
C669 C673 1.393 . S
C670 H659 0.950 . S
C670 C668 1.391 . S
C670 C671 1.400 . S
C671 C665 1.491 . S
C671 C670 1.400 . S
C671 C672 1.398 . S
C672 H660 0.950 . S
C672 C671 1.398 . S
C672 C673 1.391 . S
C673 H661 0.950 . S
C673 C669 1.393 . S
C673 C672 1.391 . S
H674 C682 0.950 . S
H675 C687 0.950 . S
H676 C684 0.950 . S
H677 C686 0.950 . S
H678 C688 0.950 . S
H679 C690 0.950 . S
H680 C692 0.950 . S
H681 C693 0.950 . S
C682 H674 0.950 . S
C682 C683 1.386 . S
C682 C684 1.391 . S
C683 C682 1.386 . S
C683 C687 1.393 . S
C684 H676 0.950 . S
C684 C682 1.391 . S
C684 C685 1.400 . S
C685 C684 1.400 . S
C685 C686 1.398 . S
C685 C691 1.491 . S
C686 H677 0.950 . S
C686 C685 1.398 . S
C686 C687 1.391 . S
C687 H675 0.950 . S
C687 C683 1.393 . S
C687 C686 1.391 . S
C688 H678 0.950 . S
C688 C689 1.386 . S
C688 C690 1.391 . S
C689 C688 1.386 . S
C689 C693 1.393 . S
C690 H679 0.950 . S
C690 C688 1.391 . S
C690 C691 1.400 . S
C691 C685 1.491 . S
C691 C690 1.400 . S
C691 C692 1.398 . S
C692 H680 0.950 . S
C692 C691 1.398 . S
C692 C693 1.391 . S
C693 H681 0.950 . S
C693 C689 1.393 . S
C693 C692 1.391 . S
H694 C702 0.950 . S
H695 C707 0.950 1_455 S
H696 C704 0.950 . S
H697 C706 0.950 . S
H698 C708 0.950 . S
H699 C710 0.950 . S
H700 C712 0.950 . S
H701 C713 0.950 . S
C702 H694 0.950 . S
C702 C703 1.386 . S
C702 C704 1.391 . S
C703 C702 1.386 . S
C703 C707 1.393 . S
C704 H696 0.950 . S
C704 C702 1.391 . S
C704 C705 1.400 . S
C705 C704 1.400 . S
C705 C706 1.398 . S
C705 C711 1.491 . S
C706 H697 0.950 . S
C706 C705 1.398 . S
C706 C707 1.391 . S
C707 H695 0.950 1_655 S
C707 C703 1.393 . S
C707 C706 1.391 . S
C708 H698 0.950 . S
C708 C709 1.386 . S
C708 C710 1.391 . S
C709 C708 1.386 . S
C709 C713 1.393 . S
C710 H699 0.950 . S
C710 C708 1.391 . S
C710 C711 1.400 . S
C711 C705 1.491 . S
C711 C710 1.400 . S
C711 C712 1.398 . S
C712 H700 0.950 . S
C712 C711 1.398 . S
C712 C713 1.391 . S
C713 H701 0.950 . S
C713 C709 1.393 . S
C713 C712 1.391 . S
H714 C722 0.950 . S
H715 C727 0.950 . S
H716 C724 0.950 . S
H717 C726 0.950 . S
H718 C728 0.950 . S
H719 C730 0.950 . S
H720 C732 0.950 . S
H721 C733 0.950 . S
C722 H714 0.950 . S
C722 C723 1.386 . S
C722 C724 1.391 . S
C723 C722 1.386 . S
C723 C727 1.393 . S
C724 H716 0.950 . S
C724 C722 1.391 . S
C724 C725 1.400 . S
C725 C724 1.400 . S
C725 C726 1.398 . S
C725 C731 1.491 . S
C726 H717 0.950 . S
C726 C725 1.398 . S
C726 C727 1.391 . S
C727 H715 0.950 . S
C727 C723 1.393 . S
C727 C726 1.391 . S
C728 H718 0.950 . S
C728 C729 1.386 . S
C728 C730 1.391 . S
C729 C728 1.386 . S
C729 C733 1.393 . S
C730 H719 0.950 . S
C730 C728 1.391 . S
C730 C731 1.400 . S
C731 C725 1.491 . S
C731 C730 1.400 . S
C731 C732 1.398 . S
C732 H720 0.950 . S
C732 C731 1.398 . S
C732 C733 1.391 . S
C733 H721 0.950 . S
C733 C729 1.393 . S
C733 C732 1.391 . S
H734 C742 0.950 . S
H735 C747 0.950 . S
H736 C744 0.950 . S
H737 C746 0.950 . S
H738 C748 0.950 . S
H739 C750 0.950 1_565 S
H740 C752 0.950 . S
H741 C753 0.950 . S
C742 H734 0.950 . S
C742 C743 1.386 1_545 S
C742 C744 1.391 . S
C743 C742 1.386 1_565 S
C743 C747 1.393 . S
C744 H736 0.950 . S
C744 C742 1.391 . S
C744 C745 1.400 . S
C745 C744 1.400 . S
C745 C746 1.398 1_545 S
C745 C751 1.491 . S
C746 H737 0.950 . S
C746 C745 1.398 1_565 S
C746 C747 1.391 . S
C747 H735 0.950 . S
C747 C743 1.393 . S
C747 C746 1.391 . S
C748 H738 0.950 . S
C748 C749 1.386 . S
C748 C750 1.391 . S
C749 C748 1.386 . S
C749 C753 1.393 . S
C750 H739 0.950 1_545 S
C750 C748 1.391 . S
C750 C751 1.400 . S
C751 C745 1.491 . S
C751 C750 1.400 . S
C751 C752 1.398 . S
C752 H740 0.950 . S
C752 C751 1.398 . S
C752 C753 1.391 . S
C753 H741 0.950 . S
C753 C749 1.393 . S
C753 C752 1.391 . S
H754 C762 0.950 . S
H755 C767 0.950 . S
H756 C764 0.950 . S
H757 C766 0.950 . S
H758 C768 0.950 . S
H759 C770 0.950 . S
H760 C772 0.950 . S
H761 C773 0.950 . S
C762 H754 0.950 . S
C762 C763 1.386 . S
C762 C764 1.391 . S
C763 C762 1.386 . S
C763 C767 1.393 1_455 S
C764 H756 0.950 . S
C764 C762 1.391 . S
C764 C765 1.400 1_455 S
C765 C764 1.400 1_655 S
C765 C766 1.398 . S
C765 C771 1.491 . S
C766 H757 0.950 . S
C766 C765 1.398 . S
C766 C767 1.391 . S
C767 H755 0.950 . S
C767 C763 1.393 1_655 S
C767 C766 1.391 . S
C768 H758 0.950 . S
C768 C769 1.386 . S
C768 C770 1.391 . S
C769 C768 1.386 . S
C769 C773 1.393 . S
C770 H759 0.950 . S
C770 C768 1.391 . S
C770 C771 1.400 . S
C771 C765 1.491 . S
C771 C770 1.400 . S
C771 C772 1.398 . S
C772 H760 0.950 . S
C772 C771 1.398 . S
C772 C773 1.391 . S
C773 H761 0.950 . S
C773 C769 1.393 . S
C773 C772 1.391 . S
H774 C782 0.950 . S
H775 C787 0.950 . S
H776 C784 0.950 . S
H777 C786 0.950 . S
H778 C788 0.950 . S
H779 C790 0.950 . S
H780 C792 0.950 . S
H781 C793 0.950 . S
C782 H774 0.950 . S
C782 C783 1.386 . S
C782 C784 1.391 . S
C783 C782 1.386 . S
C783 C787 1.393 . S
C784 H776 0.950 . S
C784 C782 1.391 . S
C784 C785 1.400 . S
C785 C784 1.400 . S
C785 C786 1.398 . S
C785 C791 1.491 . S
C786 H777 0.950 . S
C786 C785 1.398 . S
C786 C787 1.391 . S
C787 H775 0.950 . S
C787 C783 1.393 . S
C787 C786 1.391 . S
C788 H778 0.950 . S
C788 C789 1.386 . S
C788 C790 1.391 . S
C789 C788 1.386 . S
C789 C793 1.393 . S
C790 H779 0.950 . S
C790 C788 1.391 . S
C790 C791 1.400 . S
C791 C785 1.491 . S
C791 C790 1.400 . S
C791 C792 1.398 . S
C792 H780 0.950 . S
C792 C791 1.398 . S
C792 C793 1.391 . S
C793 H781 0.950 . S
C793 C789 1.393 . S
C793 C792 1.391 . S
H794 C802 0.950 . S
H795 C807 0.950 . S
H796 C804 0.950 . S
H797 C806 0.950 . S
H798 C808 0.950 . S
H799 C810 0.950 . S
H800 C812 0.950 . S
H801 C813 0.950 . S
C802 H794 0.950 . S
C802 C803 1.386 . S
C802 C804 1.391 . S
C803 C802 1.386 . S
C803 C807 1.393 . S
C804 H796 0.950 . S
C804 C802 1.391 . S
C804 C805 1.400 . S
C805 C804 1.400 . S
C805 C806 1.398 . S
C805 C811 1.491 . S
C806 H797 0.950 . S
C806 C805 1.398 . S
C806 C807 1.391 . S
C807 H795 0.950 . S
C807 C803 1.393 . S
C807 C806 1.391 . S
C808 H798 0.950 . S
C808 C809 1.386 1_565 S
C808 C810 1.391 . S
C809 C808 1.386 1_545 S
C809 C813 1.393 . S
C810 H799 0.950 . S
C810 C808 1.391 . S
C810 C811 1.400 . S
C811 C805 1.491 . S
C811 C810 1.400 . S
C811 C812 1.398 1_565 S
C812 H800 0.950 . S
C812 C811 1.398 1_545 S
C812 C813 1.391 . S
C813 H801 0.950 . S
C813 C809 1.393 . S
C813 C812 1.391 . S
H814 C822 0.950 . S
H815 C827 0.950 . S
H816 C824 0.950 . S
H817 C826 0.950 1_655 S
H818 C828 0.950 . S
H819 C830 0.950 . S
H820 C832 0.950 . S
H821 C833 0.950 . S
C822 H814 0.950 . S
C822 C823 1.386 . S
C822 C824 1.391 . S
C823 C822 1.386 . S
C823 C827 1.393 . S
C824 H816 0.950 . S
C824 C822 1.391 . S
C824 C825 1.400 . S
C825 C824 1.400 . S
C825 C826 1.398 . S
C825 C831 1.491 . S
C826 H817 0.950 1_455 S
C826 C825 1.398 . S
C826 C827 1.391 . S
C827 H815 0.950 . S
C827 C823 1.393 . S
C827 C826 1.391 . S
C828 H818 0.950 . S
C828 C829 1.386 . S
C828 C830 1.391 . S
C829 C828 1.386 . S
C829 C833 1.393 1_655 S
C830 H819 0.950 . S
C830 C828 1.391 . S
C830 C831 1.400 1_655 S
C831 C825 1.491 . S
C831 C830 1.400 1_455 S
C831 C832 1.398 . S
C832 H820 0.950 . S
C832 C831 1.398 . S
C832 C833 1.391 . S
C833 H821 0.950 . S
C833 C829 1.393 1_455 S
C833 C832 1.391 . S
H834 C842 0.950 . S
H835 C847 0.950 . S
H836 C844 0.950 1_655 S
H837 C846 0.950 . S
H838 C848 0.950 . S
H839 C850 0.950 1_455 S
H840 C852 0.950 . S
H841 C853 0.950 . S
C842 H834 0.950 . S
C842 C843 1.386 . S
C842 C844 1.391 . S
C843 C842 1.386 . S
C843 C847 1.393 . S
C844 H836 0.950 1_455 S
C844 C842 1.391 . S
C844 C845 1.400 . S
C845 C844 1.400 . S
C845 C846 1.398 . S
C845 C851 1.491 1_455 S
C846 H837 0.950 . S
C846 C845 1.398 . S
C846 C847 1.391 . S
C847 H835 0.950 . S
C847 C843 1.393 . S
C847 C846 1.391 . S
C848 H838 0.950 . S
C848 C849 1.386 . S
C848 C850 1.391 . S
C849 C848 1.386 . S
C849 C853 1.393 . S
C850 H839 0.950 1_655 S
C850 C848 1.391 . S
C850 C851 1.400 . S
C851 C845 1.491 1_655 S
C851 C850 1.400 . S
C851 C852 1.398 . S
C852 H840 0.950 . S
C852 C851 1.398 . S
C852 C853 1.391 . S
C853 H841 0.950 . S
C853 C849 1.393 . S
C853 C852 1.391 . S
H854 C862 0.950 . S
H855 C867 0.950 . S
H856 C864 0.950 . S
H857 C866 0.950 . S
H858 C868 0.950 . S
H859 C870 0.950 . S
H860 C872 0.950 . S
H861 C873 0.950 . S
C862 H854 0.950 . S
C862 C863 1.386 . S
C862 C864 1.391 . S
C863 C862 1.386 . S
C863 C867 1.393 . S
C864 H856 0.950 . S
C864 C862 1.391 . S
C864 C865 1.400 . S
C865 C864 1.400 . S
C865 C866 1.398 . S
C865 C871 1.491 . S
C866 H857 0.950 . S
C866 C865 1.398 . S
C866 C867 1.391 . S
C867 H855 0.950 . S
C867 C863 1.393 . S
C867 C866 1.391 . S
C868 H858 0.950 . S
C868 C869 1.386 . S
C868 C870 1.391 . S
C869 C868 1.386 . S
C869 C873 1.393 . S
C870 H859 0.950 . S
C870 C868 1.391 . S
C870 C871 1.400 . S
C871 C865 1.491 . S
C871 C870 1.400 . S
C871 C872 1.398 . S
C872 H860 0.950 . S
C872 C871 1.398 . S
C872 C873 1.391 . S
C873 H861 0.950 . S
C873 C869 1.393 . S
C873 C872 1.391 . S
H874 C882 0.950 . S
H875 C887 0.950 . S
H876 C884 0.950 . S
H877 C886 0.950 . S
H878 C888 0.950 . S
H879 C890 0.950 . S
H880 C892 0.950 . S
H881 C893 0.950 . S
C882 H874 0.950 . S
C882 C883 1.386 . S
C882 C884 1.391 . S
C883 C882 1.386 . S
C883 C887 1.393 . S
C884 H876 0.950 . S
C884 C882 1.391 . S
C884 C885 1.400 . S
C885 C884 1.400 . S
C885 C886 1.398 . S
C885 C891 1.491 1_565 S
C886 H877 0.950 . S
C886 C885 1.398 . S
C886 C887 1.391 . S
C887 H875 0.950 . S
C887 C883 1.393 . S
C887 C886 1.391 . S
C888 H878 0.950 . S
C888 C889 1.386 . S
C888 C890 1.391 . S
C889 C888 1.386 . S
C889 C893 1.393 . S
C890 H879 0.950 . S
C890 C888 1.391 . S
C890 C891 1.400 . S
C891 C885 1.491 1_545 S
C891 C890 1.400 . S
C891 C892 1.398 . S
C892 H880 0.950 . S
C892 C891 1.398 . S
C892 C893 1.391 . S
C893 H881 0.950 . S
C893 C889 1.393 . S
C893 C892 1.391 . S
H894 C902 0.950 . S
H895 C907 0.950 . S
H896 C904 0.950 . S
H897 C906 0.950 . S
H898 C908 0.950 . S
H899 C910 0.950 . S
H900 C912 0.950 . S
H901 C913 0.950 . S
C902 H894 0.950 . S
C902 C903 1.386 . S
C902 C904 1.391 . S
C903 C902 1.386 . S
C903 C907 1.393 . S
C904 H896 0.950 . S
C904 C902 1.391 . S
C904 C905 1.400 . S
C905 C904 1.400 . S
C905 C906 1.398 . S
C905 C911 1.491 1_545 S
C906 H897 0.950 . S
C906 C905 1.398 . S
C906 C907 1.391 . S
C907 H895 0.950 . S
C907 C903 1.393 . S
C907 C906 1.391 . S
C908 H898 0.950 . S
C908 C909 1.386 . S
C908 C910 1.391 . S
C909 C908 1.386 . S
C909 C913 1.393 . S
C910 H899 0.950 . S
C910 C908 1.391 . S
C910 C911 1.400 . S
C911 C905 1.491 1_565 S
C911 C910 1.400 . S
C911 C912 1.398 . S
C912 H900 0.950 . S
C912 C911 1.398 . S
C912 C913 1.391 . S
C913 H901 0.950 . S
C913 C909 1.393 . S
C913 C912 1.391 . S
H914 C922 0.950 . S
H915 C927 0.950 . S
H916 C924 0.950 . S
H917 C926 0.950 . S
H918 C928 0.950 . S
H919 C930 0.950 . S
H920 C932 0.950 . S
H921 C933 0.950 . S
C922 H914 0.950 . S
C922 C923 1.386 . S
C922 C924 1.391 . S
C923 C922 1.386 . S
C923 C927 1.393 . S
C924 H916 0.950 . S
C924 C922 1.391 . S
C924 C925 1.400 . S
C925 C924 1.400 . S
C925 C926 1.398 . S
C925 C931 1.491 1_455 S
C926 H917 0.950 . S
C926 C925 1.398 . S
C926 C927 1.391 . S
C927 H915 0.950 . S
C927 C923 1.393 . S
C927 C926 1.391 . S
C928 H918 0.950 . S
C928 C929 1.386 . S
C928 C930 1.391 . S
C929 C928 1.386 . S
C929 C933 1.393 . S
C930 H919 0.950 . S
C930 C928 1.391 . S
C930 C931 1.400 . S
C931 C925 1.491 1_655 S
C931 C930 1.400 . S
C931 C932 1.398 . S
C932 H920 0.950 . S
C932 C931 1.398 . S
C932 C933 1.391 . S
C933 H921 0.950 . S
C933 C929 1.393 . S
C933 C932 1.391 . S
H934 C942 0.950 . S
H935 C947 0.950 . S
H936 C944 0.950 . S
H937 C946 0.950 . S
H938 C948 0.950 . S
H939 C950 0.950 . S
H940 C952 0.950 . S
H941 C953 0.950 . S
C942 H934 0.950 . S
C942 C943 1.386 . S
C942 C944 1.391 . S
C943 C942 1.386 . S
C943 C947 1.393 . S
C944 H936 0.950 . S
C944 C942 1.391 . S
C944 C945 1.400 . S
C945 C944 1.400 . S
C945 C946 1.398 . S
C945 C951 1.491 . S
C946 H937 0.950 . S
C946 C945 1.398 . S
C946 C947 1.391 . S
C947 H935 0.950 . S
C947 C943 1.393 . S
C947 C946 1.391 . S
C948 H938 0.950 . S
C948 C949 1.386 . S
C948 C950 1.391 . S
C949 C948 1.386 . S
C949 C953 1.393 . S
C950 H939 0.950 . S
C950 C948 1.391 . S
C950 C951 1.400 . S
C951 C945 1.491 . S
C951 C950 1.400 . S
C951 C952 1.398 . S
C952 H940 0.950 . S
C952 C951 1.398 . S
C952 C953 1.391 . S
C953 H941 0.950 . S
C953 C949 1.393 . S
C953 C952 1.391 . S
H954 C962 0.950 . S
H955 C967 0.950 . S
H956 C964 0.950 . S
H957 C966 0.950 . S
H958 C968 0.950 . S
H959 C970 0.950 . S
H960 C972 0.950 . S
H961 C973 0.950 . S
C962 H954 0.950 . S
C962 C963 1.386 . S
C962 C964 1.391 . S
C963 C962 1.386 . S
C963 C967 1.393 . S
C964 H956 0.950 . S
C964 C962 1.391 . S
C964 C965 1.400 . S
C965 C964 1.400 . S
C965 C966 1.398 . S
C965 C971 1.491 . S
C966 H957 0.950 . S
C966 C965 1.398 . S
C966 C967 1.391 . S
C967 H955 0.950 . S
C967 C963 1.393 . S
C967 C966 1.391 . S
C968 H958 0.950 . S
C968 C969 1.386 . S
C968 C970 1.391 . S
C969 C968 1.386 . S
C969 C973 1.393 . S
C970 H959 0.950 . S
C970 C968 1.391 . S
C970 C971 1.400 . S
C971 C965 1.491 . S
C971 C970 1.400 . S
C971 C972 1.398 . S
C972 H960 0.950 . S
C972 C971 1.398 . S
C972 C973 1.391 . S
C973 H961 0.950 . S
C973 C969 1.393 . S
C973 C972 1.391 . S
H974 C982 0.950 . S
H975 C987 0.950 . S
H976 C984 0.950 . S
H977 C986 0.950 . S
H978 C988 0.950 . S
H979 C990 0.950 . S
H980 C992 0.950 . S
H981 C993 0.950 . S
C982 H974 0.950 . S
C982 C983 1.386 . S
C982 C984 1.391 . S
C983 C982 1.386 . S
C983 C987 1.393 . S
C984 H976 0.950 . S
C984 C982 1.391 . S
C984 C985 1.400 . S
C985 C984 1.400 . S
C985 C986 1.398 . S
C985 C991 1.491 . S
C986 H977 0.950 . S
C986 C985 1.398 . S
C986 C987 1.391 . S
C987 H975 0.950 . S
C987 C983 1.393 . S
C987 C986 1.391 . S
C988 H978 0.950 . S
C988 C989 1.386 . S
C988 C990 1.391 . S
C989 C988 1.386 . S
C989 C993 1.393 . S
C990 H979 0.950 . S
C990 C988 1.391 . S
C990 C991 1.400 . S
C991 C985 1.491 . S
C991 C990 1.400 . S
C991 C992 1.398 . S
C992 H980 0.950 . S
C992 C991 1.398 . S
C992 C993 1.391 . S
C993 H981 0.950 . S
C993 C989 1.393 . S
C993 C992 1.391 . S
H994 C1002 0.950 . S
H995 C1007 0.950 . S
H996 C1004 0.950 . S
H997 C1006 0.950 . S
H998 C1008 0.950 . S
H999 C1010 0.950 . S
H1000 C1012 0.950 . S
H1001 C1013 0.950 . S
C1002 H994 0.950 . S
C1002 C1003 1.386 . S
C1002 C1004 1.391 . S
C1003 C1002 1.386 . S
C1003 C1007 1.393 . S
C1004 H996 0.950 . S
C1004 C1002 1.391 . S
C1004 C1005 1.400 . S
C1005 C1004 1.400 . S
C1005 C1006 1.398 . S
C1005 C1011 1.491 . S
C1006 H997 0.950 . S
C1006 C1005 1.398 . S
C1006 C1007 1.391 . S
C1007 H995 0.950 . S
C1007 C1003 1.393 . S
C1007 C1006 1.391 . S
C1008 H998 0.950 . S
C1008 C1009 1.386 . S
C1008 C1010 1.391 . S
C1009 C1008 1.386 . S
C1009 C1013 1.393 . S
C1010 H999 0.950 . S
C1010 C1008 1.391 . S
C1010 C1011 1.400 . S
C1011 C1005 1.491 . S
C1011 C1010 1.400 . S
C1011 C1012 1.398 . S
C1012 H1000 0.950 . S
C1012 C1011 1.398 . S
C1012 C1013 1.391 . S
C1013 H1001 0.950 . S
C1013 C1009 1.393 . S
C1013 C1012 1.391 . S
H1014 C1022 0.950 . S
H1015 C1027 0.950 . S
H1016 C1024 0.950 . S
H1017 C1026 0.950 . S
H1018 C1028 0.950 . S
H1019 C1030 0.950 . S
H1020 C1032 0.950 . S
H1021 C1033 0.950 . S
C1022 H1014 0.950 . S
C1022 C1023 1.386 . S
C1022 C1024 1.391 . S
C1023 C1022 1.386 . S
C1023 C1027 1.393 . S
C1024 H1016 0.950 . S
C1024 C1022 1.391 . S
C1024 C1025 1.400 . S
C1025 C1024 1.400 . S
C1025 C1026 1.398 . S
C1025 C1031 1.491 . S
C1026 H1017 0.950 . S
C1026 C1025 1.398 . S
C1026 C1027 1.391 . S
C1027 H1015 0.950 . S
C1027 C1023 1.393 . S
C1027 C1026 1.391 . S
C1028 H1018 0.950 . S
C1028 C1029 1.386 . S
C1028 C1030 1.391 . S
C1029 C1028 1.386 . S
C1029 C1033 1.393 . S
C1030 H1019 0.950 . S
C1030 C1028 1.391 . S
C1030 C1031 1.400 . S
C1031 C1025 1.491 . S
C1031 C1030 1.400 . S
C1031 C1032 1.398 . S
C1032 H1020 0.950 . S
C1032 C1031 1.398 . S
C1032 C1033 1.391 . S
C1033 H1021 0.950 . S
C1033 C1029 1.393 . S
C1033 C1032 1.391 . S
H1034 C1042 0.950 . S
H1035 C1047 0.950 . S
H1036 C1044 0.950 . S
H1037 C1046 0.950 . S
H1038 C1048 0.950 . S
H1039 C1050 0.950 . S
H1040 C1052 0.950 . S
H1041 C1053 0.950 . S
C1042 H1034 0.950 . S
C1042 C1043 1.386 . S
C1042 C1044 1.391 . S
C1043 C1042 1.386 . S
C1043 C1047 1.393 . S
C1044 H1036 0.950 . S
C1044 C1042 1.391 . S
C1044 C1045 1.400 . S
C1045 C1044 1.400 . S
C1045 C1046 1.398 . S
C1045 C1051 1.491 . S
C1046 H1037 0.950 . S
C1046 C1045 1.398 . S
C1046 C1047 1.391 . S
C1047 H1035 0.950 . S
C1047 C1043 1.393 . S
C1047 C1046 1.391 . S
C1048 H1038 0.950 . S
C1048 C1049 1.386 . S
C1048 C1050 1.391 . S
C1049 C1048 1.386 . S
C1049 C1053 1.393 . S
C1050 H1039 0.950 . S
C1050 C1048 1.391 . S
C1050 C1051 1.400 . S
C1051 C1045 1.491 . S
C1051 C1050 1.400 . S
C1051 C1052 1.398 . S
C1052 H1040 0.950 . S
C1052 C1051 1.398 . S
C1052 C1053 1.391 . S
C1053 H1041 0.950 . S
C1053 C1049 1.393 . S
C1053 C1052 1.391 . S
H1054 C1062 0.950 . S
H1055 C1067 0.950 . S
H1056 C1064 0.950 . S
H1057 C1066 0.950 . S
H1058 C1068 0.950 . S
H1059 C1070 0.950 . S
H1060 C1072 0.950 . S
H1061 C1073 0.950 . S
C1062 H1054 0.950 . S
C1062 C1063 1.386 . S
C1062 C1064 1.391 . S
C1063 C1062 1.386 . S
C1063 C1067 1.393 . S
C1064 H1056 0.950 . S
C1064 C1062 1.391 . S
C1064 C1065 1.400 . S
C1065 C1064 1.400 . S
C1065 C1066 1.398 . S
C1065 C1071 1.491 . S
C1066 H1057 0.950 . S
C1066 C1065 1.398 . S
C1066 C1067 1.391 . S
C1067 H1055 0.950 . S
C1067 C1063 1.393 . S
C1067 C1066 1.391 . S
C1068 H1058 0.950 . S
C1068 C1069 1.386 . S
C1068 C1070 1.391 . S
C1069 C1068 1.386 . S
C1069 C1073 1.393 . S
C1070 H1059 0.950 . S
C1070 C1068 1.391 . S
C1070 C1071 1.400 . S
C1071 C1065 1.491 . S
C1071 C1070 1.400 . S
C1071 C1072 1.398 . S
C1072 H1060 0.950 . S
C1072 C1071 1.398 . S
C1072 C1073 1.391 . S
C1073 H1061 0.950 . S
C1073 C1069 1.393 . S
C1073 C1072 1.391 . S
H1074 C1082 0.950 . S
H1075 C1087 0.950 . S
H1076 C1084 0.950 . S
H1077 C1086 0.950 . S
H1078 C1088 0.950 . S
H1079 C1090 0.950 . S
H1080 C1092 0.950 . S
H1081 C1093 0.950 . S
C1082 H1074 0.950 . S
C1082 C1083 1.386 . S
C1082 C1084 1.391 . S
C1083 C1082 1.386 . S
C1083 C1087 1.393 1_655 S
C1084 H1076 0.950 . S
C1084 C1082 1.391 . S
C1084 C1085 1.400 . S
C1085 C1084 1.400 . S
C1085 C1086 1.398 1_655 S
C1085 C1091 1.487 1_654 S
C1086 H1077 0.950 . S
C1086 C1085 1.398 1_455 S
C1086 C1087 1.391 . S
C1087 H1075 0.950 . S
C1087 C1083 1.393 1_455 S
C1087 C1086 1.391 . S
C1088 H1078 0.950 . S
C1088 C1089 1.386 . S
C1088 C1090 1.391 . S
C1089 C1088 1.386 . S
C1089 C1093 1.393 1_455 S
C1090 H1079 0.950 . S
C1090 C1088 1.391 . S
C1090 C1091 1.428 . S
C1091 C1085 1.487 1_456 S
C1091 C1090 1.428 . S
C1091 C1092 1.375 1_455 S
C1092 H1080 0.950 . S
C1092 C1091 1.375 1_655 S
C1092 C1093 1.391 . S
C1093 H1081 0.950 . S
C1093 C1089 1.393 1_655 S
C1093 C1092 1.391 . S
H1094 C1102 0.950 . S
H1095 C1107 0.950 . S
H1096 C1104 0.950 . S
H1097 C1106 0.950 . S
H1098 C1108 0.950 . S
H1099 C1110 0.950 . S
H1100 C1112 0.950 . S
H1101 C1113 0.950 . S
C1102 H1094 0.950 . S
C1102 C1103 1.386 . S
C1102 C1104 1.391 . S
C1103 C1102 1.386 . S
C1103 C1107 1.393 . S
C1104 H1096 0.950 . S
C1104 C1102 1.391 . S
C1104 C1105 1.400 . S
C1105 C1104 1.400 . S
C1105 C1106 1.398 . S
C1105 C1111 1.491 1_554 S
C1106 H1097 0.950 . S
C1106 C1105 1.398 . S
C1106 C1107 1.391 . S
C1107 H1095 0.950 . S
C1107 C1103 1.393 . S
C1107 C1106 1.391 . S
C1108 H1098 0.950 . S
C1108 C1109 1.386 . S
C1108 C1110 1.391 . S
C1109 C1108 1.386 . S
C1109 C1113 1.393 . S
C1110 H1099 0.950 . S
C1110 C1108 1.391 . S
C1110 C1111 1.400 . S
C1111 C1105 1.491 1_556 S
C1111 C1110 1.400 . S
C1111 C1112 1.398 . S
C1112 H1100 0.950 . S
C1112 C1111 1.398 . S
C1112 C1113 1.391 . S
C1113 H1101 0.950 . S
C1113 C1109 1.393 . S
C1113 C1112 1.391 . S
H1114 C1122 0.950 . S
H1115 C1127 0.950 . S
H1116 C1124 0.950 . S
H1117 C1126 0.950 . S
H1118 C1128 0.950 . S
H1119 C1130 0.950 . S
H1120 C1132 0.950 . S
H1121 C1133 0.950 . S
C1122 H1114 0.950 . S
C1122 C1123 1.386 . S
C1122 C1124 1.391 . S
C1123 C1122 1.386 . S
C1123 C1127 1.393 . S
C1124 H1116 0.950 . S
C1124 C1122 1.391 . S
C1124 C1125 1.400 . S
C1125 C1124 1.400 . S
C1125 C1126 1.398 . S
C1125 C1131 1.491 1_544 S
C1126 H1117 0.950 . S
C1126 C1125 1.398 . S
C1126 C1127 1.391 . S
C1127 H1115 0.950 . S
C1127 C1123 1.393 . S
C1127 C1126 1.391 . S
C1128 H1118 0.950 . S
C1128 C1129 1.386 . S
C1128 C1130 1.391 . S
C1129 C1128 1.386 . S
C1129 C1133 1.393 . S
C1130 H1119 0.950 . S
C1130 C1128 1.391 . S
C1130 C1131 1.400 . S
C1131 C1125 1.491 1_566 S
C1131 C1130 1.400 . S
C1131 C1132 1.398 . S
C1132 H1120 0.950 . S
C1132 C1131 1.398 . S
C1132 C1133 1.391 . S
C1133 H1121 0.950 . S
C1133 C1129 1.393 . S
C1133 C1132 1.391 . S
H1134 C1142 0.950 . S
H1135 C1147 0.950 . S
H1136 C1144 0.950 . S
H1137 C1146 0.950 . S
H1138 C1148 0.950 . S
H1139 C1150 0.950 . S
H1140 C1152 0.950 . S
H1141 C1153 0.950 . S
C1142 H1134 0.950 . S
C1142 C1143 1.386 . S
C1142 C1144 1.391 . S
C1143 C1142 1.386 . S
C1143 C1147 1.393 . S
C1144 H1136 0.950 . S
C1144 C1142 1.391 . S
C1144 C1145 1.400 . S
C1145 C1144 1.400 . S
C1145 C1146 1.398 . S
C1145 C1151 1.491 . S
C1146 H1137 0.950 . S
C1146 C1145 1.398 . S
C1146 C1147 1.391 . S
C1147 H1135 0.950 . S
C1147 C1143 1.393 . S
C1147 C1146 1.391 . S
C1148 H1138 0.950 . S
C1148 C1149 1.386 . S
C1148 C1150 1.391 . S
C1149 C1148 1.386 . S
C1149 C1153 1.393 . S
C1150 H1139 0.950 . S
C1150 C1148 1.391 . S
C1150 C1151 1.400 . S
C1151 C1145 1.491 . S
C1151 C1150 1.400 . S
C1151 C1152 1.398 . S
C1152 H1140 0.950 . S
C1152 C1151 1.398 . S
C1152 C1153 1.391 . S
C1153 H1141 0.950 . S
C1153 C1149 1.393 . S
C1153 C1152 1.391 . S
H1154 C1162 0.950 . S
H1155 C1167 0.950 . S
H1156 C1164 0.950 . S
H1157 C1166 0.950 . S
H1158 C1168 0.950 . S
H1159 C1170 0.950 . S
H1160 C1172 0.950 . S
H1161 C1173 0.950 1_455 S
C1162 H1154 0.950 . S
C1162 C1163 1.386 . S
C1162 C1164 1.391 1_565 S
C1163 C1162 1.386 . S
C1163 C1167 1.393 . S
C1164 H1156 0.950 . S
C1164 C1162 1.391 1_545 S
C1164 C1165 1.400 . S
C1165 C1164 1.400 . S
C1165 C1166 1.398 . S
C1165 C1171 1.491 . S
C1166 H1157 0.950 . S
C1166 C1165 1.398 . S
C1166 C1167 1.391 1_545 S
C1167 H1155 0.950 . S
C1167 C1163 1.393 . S
C1167 C1166 1.391 1_565 S
C1168 H1158 0.950 . S
C1168 C1169 1.386 . S
C1168 C1170 1.391 . S
C1169 C1168 1.386 . S
C1169 C1173 1.393 . S
C1170 H1159 0.950 . S
C1170 C1168 1.391 . S
C1170 C1171 1.400 . S
C1171 C1165 1.491 . S
C1171 C1170 1.400 . S
C1171 C1172 1.398 . S
C1172 H1160 0.950 . S
C1172 C1171 1.398 . S
C1172 C1173 1.391 . S
C1173 H1161 0.950 1_655 S
C1173 C1169 1.393 . S
C1173 C1172 1.391 . S
H1174 C1182 0.950 . S
H1175 C1187 0.950 . S
H1176 C1184 0.950 . S
H1177 C1186 0.950 . S
H1178 C1188 0.950 . S
H1179 C1190 0.950 . S
H1180 C1192 0.950 . S
H1181 C1193 0.950 . S
C1182 H1174 0.950 . S
C1182 C1183 1.386 . S
C1182 C1184 1.391 . S
C1183 C1182 1.386 . S
C1183 C1187 1.393 . S
C1184 H1176 0.950 . S
C1184 C1182 1.391 . S
C1184 C1185 1.400 . S
C1185 C1184 1.400 . S
C1185 C1186 1.398 . S
C1185 C1191 1.491 . S
C1186 H1177 0.950 . S
C1186 C1185 1.398 . S
C1186 C1187 1.391 . S
C1187 H1175 0.950 . S
C1187 C1183 1.393 . S
C1187 C1186 1.391 . S
C1188 H1178 0.950 . S
C1188 C1189 1.386 . S
C1188 C1190 1.391 1_455 S
C1189 C1188 1.386 . S
C1189 C1193 1.393 . S
C1190 H1179 0.950 . S
C1190 C1188 1.391 1_655 S
C1190 C1191 1.400 . S
C1191 C1185 1.491 . S
C1191 C1190 1.400 . S
C1191 C1192 1.398 . S
C1192 H1180 0.950 . S
C1192 C1191 1.398 . S
C1192 C1193 1.391 1_655 S
C1193 H1181 0.950 . S
C1193 C1189 1.393 . S
C1193 C1192 1.391 1_455 S
H1194 C1202 0.950 1_655 S
H1195 C1207 0.950 . S
H1196 C1204 0.950 . S
H1197 C1206 0.950 . S
H1198 C1208 0.950 . S
H1199 C1210 0.950 . S
H1200 C1212 0.950 . S
H1201 C1213 0.950 . S
C1202 H1194 0.950 1_455 S
C1202 C1203 1.386 . S
C1202 C1204 1.391 . S
C1203 C1202 1.386 . S
C1203 C1207 1.393 . S
C1204 H1196 0.950 . S
C1204 C1202 1.391 . S
C1204 C1205 1.400 . S
C1205 C1204 1.400 . S
C1205 C1206 1.398 . S
C1205 C1211 1.491 . S
C1206 H1197 0.950 . S
C1206 C1205 1.398 . S
C1206 C1207 1.391 . S
C1207 H1195 0.950 . S
C1207 C1203 1.393 . S
C1207 C1206 1.391 . S
C1208 H1198 0.950 . S
C1208 C1209 1.386 . S
C1208 C1210 1.391 . S
C1209 C1208 1.386 . S
C1209 C1213 1.393 . S
C1210 H1199 0.950 . S
C1210 C1208 1.391 . S
C1210 C1211 1.400 . S
C1211 C1205 1.491 . S
C1211 C1210 1.400 . S
C1211 C1212 1.398 . S
C1212 H1200 0.950 . S
C1212 C1211 1.398 . S
C1212 C1213 1.391 . S
C1213 H1201 0.950 . S
C1213 C1209 1.393 . S
C1213 C1212 1.391 . S
H1214 C1222 0.950 . S
H1215 C1227 0.950 . S
H1216 C1224 0.959 . S
H1217 C1226 0.950 . S
H1218 C1228 0.950 . S
H1219 C1230 0.950 . S
H1220 C1232 0.950 . S
H1221 C1233 0.950 . S
C1222 H1214 0.950 . S
C1222 C1223 1.386 . S
C1222 C1224 1.378 1_545 S
C1223 C1222 1.386 . S
C1223 C1227 1.393 . S
C1224 H1216 0.959 . S
C1224 C1222 1.378 1_565 S
C1224 C1225 1.405 . S
C1225 C1224 1.405 . S
C1225 C1226 1.398 . S
C1225 C1231 1.491 . S
C1226 H1217 0.950 . S
C1226 C1225 1.398 . S
C1226 C1227 1.391 1_565 S
C1227 H1215 0.950 . S
C1227 C1223 1.393 . S
C1227 C1226 1.391 1_545 S
C1228 H1218 0.950 . S
C1228 C1229 1.386 . S
C1228 C1230 1.391 . S
C1229 C1228 1.386 . S
C1229 C1233 1.393 . S
C1230 H1219 0.950 . S
C1230 C1228 1.391 . S
C1230 C1231 1.400 . S
C1231 C1225 1.491 . S
C1231 C1230 1.400 . S
C1231 C1232 1.398 . S
C1232 H1220 0.950 . S
C1232 C1231 1.398 . S
C1232 C1233 1.391 . S
C1233 H1221 0.950 . S
C1233 C1229 1.393 . S
C1233 C1232 1.391 . S
H1234 C1242 0.950 . S
H1235 C1247 0.950 . S
H1236 C1244 0.950 . S
H1237 C1246 0.950 . S
H1238 C1248 0.950 . S
H1239 C1250 0.949 1_455 S
H1240 C1252 0.950 . S
H1241 C1253 0.950 . S
C1242 H1234 0.950 . S
C1242 C1243 1.386 . S
C1242 C1244 1.391 . S
C1243 C1242 1.386 . S
C1243 C1247 1.393 . S
C1244 H1236 0.950 . S
C1244 C1242 1.391 . S
C1244 C1245 1.400 . S
C1245 C1244 1.400 . S
C1245 C1246 1.398 . S
C1245 C1251 1.491 . S
C1246 H1237 0.950 . S
C1246 C1245 1.398 . S
C1246 C1247 1.391 . S
C1247 H1235 0.950 . S
C1247 C1243 1.393 . S
C1247 C1246 1.391 . S
C1248 H1238 0.950 . S
C1248 C1249 1.386 . S
C1248 C1250 1.402 . S
C1249 C1248 1.386 . S
C1249 C1253 1.393 . S
C1250 H1239 0.949 1_655 S
C1250 C1248 1.402 . S
C1250 C1251 1.390 1_655 S
C1251 C1245 1.491 . S
C1251 C1250 1.390 1_455 S
C1251 C1252 1.398 . S
C1252 H1240 0.950 . S
C1252 C1251 1.398 . S
C1252 C1253 1.391 1_455 S
C1253 H1241 0.950 . S
C1253 C1249 1.393 . S
C1253 C1252 1.391 1_655 S
H1254 C1262 0.950 . S
H1255 C1267 0.950 . S
H1256 C1264 0.950 . S
H1257 C1266 0.950 . S
H1258 C1268 0.950 . S
H1259 C1270 0.950 . S
H1260 C1272 0.950 . S
H1261 C1273 0.950 . S
C1262 H1254 0.950 . S
C1262 C1263 1.386 . S
C1262 C1264 1.391 . S
C1263 C1262 1.386 . S
C1263 C1267 1.393 . S
C1264 H1256 0.950 . S
C1264 C1262 1.391 . S
C1264 C1265 1.400 . S
C1265 C1264 1.400 . S
C1265 C1266 1.398 . S
C1265 C1271 1.491 . S
C1266 H1257 0.950 . S
C1266 C1265 1.398 . S
C1266 C1267 1.391 . S
C1267 H1255 0.950 . S
C1267 C1263 1.393 . S
C1267 C1266 1.391 . S
C1268 H1258 0.950 . S
C1268 C1269 1.386 . S
C1268 C1270 1.391 . S
C1269 C1268 1.386 . S
C1269 C1273 1.393 . S
C1270 H1259 0.950 . S
C1270 C1268 1.391 . S
C1270 C1271 1.400 . S
C1271 C1265 1.491 . S
C1271 C1270 1.400 . S
C1271 C1272 1.398 . S
C1272 H1260 0.950 . S
C1272 C1271 1.398 . S
C1272 C1273 1.391 . S
C1273 H1261 0.950 . S
C1273 C1269 1.393 . S
C1273 C1272 1.391 . S
H1274 C1282 0.950 . S
H1275 C1287 0.950 . S
H1276 C1284 0.950 . S
H1277 C1286 0.950 . S
H1278 C1288 0.950 . S
H1279 C1290 0.950 . S
H1280 C1292 0.950 . S
H1281 C1293 0.950 . S
C1282 H1274 0.950 . S
C1282 C1283 1.386 . S
C1282 C1284 1.391 . S
C1283 C1282 1.386 . S
C1283 C1287 1.393 . S
C1284 H1276 0.950 . S
C1284 C1282 1.391 . S
C1284 C1285 1.400 . S
C1285 C1284 1.400 . S
C1285 C1286 1.398 . S
C1285 C1291 1.491 . S
C1286 H1277 0.950 . S
C1286 C1285 1.398 . S
C1286 C1287 1.391 . S
C1287 H1275 0.950 . S
C1287 C1283 1.393 . S
C1287 C1286 1.391 . S
C1288 H1278 0.950 . S
C1288 C1289 1.386 . S
C1288 C1290 1.391 . S
C1289 C1288 1.386 . S
C1289 C1293 1.393 . S
C1290 H1279 0.950 . S
C1290 C1288 1.391 . S
C1290 C1291 1.400 . S
C1291 C1285 1.491 . S
C1291 C1290 1.400 . S
C1291 C1292 1.398 . S
C1292 H1280 0.950 . S
C1292 C1291 1.398 . S
C1292 C1293 1.391 . S
C1293 H1281 0.950 . S
C1293 C1289 1.393 . S
C1293 C1292 1.391 . S
H1294 C1302 0.950 . S
H1295 C1307 0.950 . S
H1296 C1304 0.950 . S
H1297 C1306 0.950 . S
H1298 C1308 0.950 . S
H1299 C1310 0.950 . S
H1300 C1312 0.950 . S
H1301 C1313 0.950 . S
C1302 H1294 0.950 . S
C1302 C1303 1.386 . S
C1302 C1304 1.391 . S
C1303 C1302 1.386 . S
C1303 C1307 1.393 . S
C1304 H1296 0.950 . S
C1304 C1302 1.391 . S
C1304 C1305 1.400 . S
C1305 C1304 1.400 . S
C1305 C1306 1.398 . S
C1305 C1311 1.491 . S
C1306 H1297 0.950 . S
C1306 C1305 1.398 . S
C1306 C1307 1.391 . S
C1307 H1295 0.950 . S
C1307 C1303 1.393 . S
C1307 C1306 1.391 . S
C1308 H1298 0.950 . S
C1308 C1309 1.386 . S
C1308 C1310 1.391 . S
C1309 C1308 1.386 . S
C1309 C1313 1.393 . S
C1310 H1299 0.950 . S
C1310 C1308 1.391 . S
C1310 C1311 1.400 . S
C1311 C1305 1.491 . S
C1311 C1310 1.400 . S
C1311 C1312 1.398 . S
C1312 H1300 0.950 . S
C1312 C1311 1.398 . S
C1312 C1313 1.391 . S
C1313 H1301 0.950 . S
C1313 C1309 1.393 . S
C1313 C1312 1.391 . S
H1314 C1322 0.950 . S
H1315 C1327 0.950 . S
H1316 C1324 0.950 . S
H1317 C1326 0.950 . S
H1318 C1328 0.950 . S
H1319 C1330 0.950 . S
H1320 C1332 0.950 . S
H1321 C1333 0.950 . S
C1322 H1314 0.950 . S
C1322 C1323 1.386 . S
C1322 C1324 1.391 . S
C1323 C1322 1.386 . S
C1323 C1327 1.393 . S
C1324 H1316 0.950 . S
C1324 C1322 1.391 . S
C1324 C1325 1.400 . S
C1325 C1324 1.400 . S
C1325 C1326 1.398 . S
C1325 C1331 1.491 . S
C1326 H1317 0.950 . S
C1326 C1325 1.398 . S
C1326 C1327 1.391 . S
C1327 H1315 0.950 . S
C1327 C1323 1.393 . S
C1327 C1326 1.391 . S
C1328 H1318 0.950 . S
C1328 C1329 1.386 . S
C1328 C1330 1.391 . S
C1329 C1328 1.386 . S
C1329 C1333 1.393 . S
C1330 H1319 0.950 . S
C1330 C1328 1.391 . S
C1330 C1331 1.400 . S
C1331 C1325 1.491 . S
C1331 C1330 1.400 . S
C1331 C1332 1.398 . S
C1332 H1320 0.950 . S
C1332 C1331 1.398 . S
C1332 C1333 1.391 . S
C1333 H1321 0.950 . S
C1333 C1329 1.393 . S
C1333 C1332 1.391 . S
H1334 C1342 0.950 . S
H1335 C1347 0.950 . S
H1336 C1344 0.950 . S
H1337 C1346 0.950 . S
H1338 C1348 0.950 . S
H1339 C1350 0.950 . S
H1340 C1352 0.950 . S
H1341 C1353 0.950 . S
C1342 H1334 0.950 . S
C1342 C1343 1.386 . S
C1342 C1344 1.391 . S
C1343 C1342 1.386 . S
C1343 C1347 1.393 . S
C1344 H1336 0.950 . S
C1344 C1342 1.391 . S
C1344 C1345 1.400 . S
C1345 C1344 1.400 . S
C1345 C1346 1.398 . S
C1345 C1351 1.491 . S
C1346 H1337 0.950 . S
C1346 C1345 1.398 . S
C1346 C1347 1.391 . S
C1347 H1335 0.950 . S
C1347 C1343 1.393 . S
C1347 C1346 1.391 . S
C1348 H1338 0.950 . S
C1348 C1349 1.386 . S
C1348 C1350 1.391 . S
C1349 C1348 1.386 . S
C1349 C1353 1.393 . S
C1350 H1339 0.950 . S
C1350 C1348 1.391 . S
C1350 C1351 1.400 . S
C1351 C1345 1.491 . S
C1351 C1350 1.400 . S
C1351 C1352 1.398 . S
C1352 H1340 0.950 . S
C1352 C1351 1.398 . S
C1352 C1353 1.391 . S
C1353 H1341 0.950 . S
C1353 C1349 1.393 . S
C1353 C1352 1.391 . S
H1354 C1362 0.950 . S
H1355 C1367 0.950 . S
H1356 C1364 0.950 . S
H1357 C1366 0.950 . S
H1358 C1368 0.950 . S
H1359 C1370 0.950 . S
H1360 C1372 0.950 . S
H1361 C1373 0.950 . S
C1362 H1354 0.950 . S
C1362 C1363 1.386 . S
C1362 C1364 1.391 . S
C1363 C1362 1.386 . S
C1363 C1367 1.393 . S
C1364 H1356 0.950 . S
C1364 C1362 1.391 . S
C1364 C1365 1.400 . S
C1365 C1364 1.400 . S
C1365 C1366 1.398 . S
C1365 C1371 1.491 . S
C1366 H1357 0.950 . S
C1366 C1365 1.398 . S
C1366 C1367 1.391 . S
C1367 H1355 0.950 . S
C1367 C1363 1.393 . S
C1367 C1366 1.391 . S
C1368 H1358 0.950 . S
C1368 C1369 1.386 . S
C1368 C1370 1.391 . S
C1369 C1368 1.386 . S
C1369 C1373 1.393 . S
C1370 H1359 0.950 . S
C1370 C1368 1.391 . S
C1370 C1371 1.400 . S
C1371 C1365 1.491 . S
C1371 C1370 1.400 . S
C1371 C1372 1.398 . S
C1372 H1360 0.950 . S
C1372 C1371 1.398 . S
C1372 C1373 1.391 . S
C1373 H1361 0.950 . S
C1373 C1369 1.393 . S
C1373 C1372 1.391 . S
H1374 C1382 0.950 . S
H1375 C1387 0.950 . S
H1376 C1384 0.950 . S
H1377 C1386 0.950 . S
H1378 C1388 0.950 . S
H1379 C1390 0.950 . S
H1380 C1392 0.950 . S
H1381 C1393 0.950 . S
C1382 H1374 0.950 . S
C1382 C1383 1.386 . S
C1382 C1384 1.391 . S
C1383 C1382 1.386 . S
C1383 C1387 1.393 . S
C1384 H1376 0.950 . S
C1384 C1382 1.391 . S
C1384 C1385 1.400 . S
C1385 C1384 1.400 . S
C1385 C1386 1.398 . S
C1385 C1391 1.491 . S
C1386 H1377 0.950 . S
C1386 C1385 1.398 . S
C1386 C1387 1.391 . S
C1387 H1375 0.950 . S
C1387 C1383 1.393 . S
C1387 C1386 1.391 . S
C1388 H1378 0.950 . S
C1388 C1389 1.386 . S
C1388 C1390 1.391 . S
C1389 C1388 1.386 . S
C1389 C1393 1.393 . S
C1390 H1379 0.950 . S
C1390 C1388 1.391 . S
C1390 C1391 1.400 . S
C1391 C1385 1.491 . S
C1391 C1390 1.400 . S
C1391 C1392 1.398 . S
C1392 H1380 0.950 . S
C1392 C1391 1.398 . S
C1392 C1393 1.391 . S
C1393 H1381 0.950 . S
C1393 C1389 1.393 . S
C1393 C1392 1.391 . S
H1394 C1402 0.950 . S
H1395 C1407 0.950 . S
H1396 C1404 0.950 . S
H1397 C1406 0.950 . S
H1398 C1408 0.950 . S
H1399 C1410 0.950 . S
H1400 C1412 0.950 . S
H1401 C1413 0.950 . S
C1402 H1394 0.950 . S
C1402 C1403 1.386 . S
C1402 C1404 1.391 . S
C1403 C1402 1.386 . S
C1403 C1407 1.393 . S
C1404 H1396 0.950 . S
C1404 C1402 1.391 . S
C1404 C1405 1.400 . S
C1405 C1404 1.400 . S
C1405 C1406 1.398 . S
C1405 C1411 1.491 . S
C1406 H1397 0.950 . S
C1406 C1405 1.398 . S
C1406 C1407 1.391 . S
C1407 H1395 0.950 . S
C1407 C1403 1.393 . S
C1407 C1406 1.391 . S
C1408 H1398 0.950 . S
C1408 C1409 1.386 . S
C1408 C1410 1.391 . S
C1409 C1408 1.386 . S
C1409 C1413 1.393 . S
C1410 H1399 0.950 . S
C1410 C1408 1.391 . S
C1410 C1411 1.400 . S
C1411 C1405 1.491 . S
C1411 C1410 1.400 . S
C1411 C1412 1.398 . S
C1412 H1400 0.950 . S
C1412 C1411 1.398 . S
C1412 C1413 1.391 . S
C1413 H1401 0.950 . S
C1413 C1409 1.393 . S
C1413 C1412 1.391 . S
H1414 C1422 0.950 . S
H1415 C1427 0.950 . S
H1416 C1424 0.950 . S
H1417 C1426 0.950 . S
H1418 C1428 0.950 . S
H1419 C1430 0.950 . S
H1420 C1432 0.950 . S
H1421 C1433 0.950 . S
C1422 H1414 0.950 . S
C1422 C1423 1.386 . S
C1422 C1424 1.391 . S
C1423 C1422 1.386 . S
C1423 C1427 1.393 . S
C1424 H1416 0.950 . S
C1424 C1422 1.391 . S
C1424 C1425 1.400 . S
C1425 C1424 1.400 . S
C1425 C1426 1.398 . S
C1425 C1431 1.491 . S
C1426 H1417 0.950 . S
C1426 C1425 1.398 . S
C1426 C1427 1.391 . S
C1427 H1415 0.950 . S
C1427 C1423 1.393 . S
C1427 C1426 1.391 . S
C1428 H1418 0.950 . S
C1428 C1429 1.386 . S
C1428 C1430 1.391 . S
C1429 C1428 1.386 . S
C1429 C1433 1.393 . S
C1430 H1419 0.950 . S
C1430 C1428 1.391 . S
C1430 C1431 1.400 . S
C1431 C1425 1.491 . S
C1431 C1430 1.400 . S
C1431 C1432 1.398 . S
C1432 H1420 0.950 . S
C1432 C1431 1.398 . S
C1432 C1433 1.391 . S
C1433 H1421 0.950 . S
C1433 C1429 1.393 . S
C1433 C1432 1.391 . S
H1434 C1442 0.950 . S
H1435 C1447 0.950 . S
H1436 C1444 0.950 . S
H1437 C1446 0.950 . S
H1438 C1448 0.950 . S
H1439 C1450 0.950 . S
H1440 C1452 0.950 . S
H1441 C1453 0.950 . S
C1442 H1434 0.950 . S
C1442 C1443 1.386 . S
C1442 C1444 1.391 . S
C1443 C1442 1.386 . S
C1443 C1447 1.393 . S
C1444 H1436 0.950 . S
C1444 C1442 1.391 . S
C1444 C1445 1.400 . S
C1445 C1444 1.400 . S
C1445 C1446 1.398 . S
C1445 C1451 1.491 . S
C1446 H1437 0.950 . S
C1446 C1445 1.398 . S
C1446 C1447 1.391 . S
C1447 H1435 0.950 . S
C1447 C1443 1.393 . S
C1447 C1446 1.391 . S
C1448 H1438 0.950 . S
C1448 C1449 1.386 . S
C1448 C1450 1.391 . S
C1449 C1448 1.386 . S
C1449 C1453 1.393 . S
C1450 H1439 0.950 . S
C1450 C1448 1.391 . S
C1450 C1451 1.400 . S
C1451 C1445 1.491 . S
C1451 C1450 1.400 . S
C1451 C1452 1.398 . S
C1452 H1440 0.950 . S
C1452 C1451 1.398 . S
C1452 C1453 1.391 . S
C1453 H1441 0.950 . S
C1453 C1449 1.393 . S
C1453 C1452 1.391 . S
H1454 C1462 0.950 . S
H1455 C1467 0.950 . S
H1456 C1464 0.950 . S
H1457 C1466 0.950 . S
H1458 C1468 0.950 . S
H1459 C1470 0.950 . S
H1460 C1472 0.950 . S
H1461 C1473 0.950 . S
C1462 H1454 0.950 . S
C1462 C1463 1.386 . S
C1462 C1464 1.391 . S
C1463 C1462 1.386 . S
C1463 C1467 1.393 . S
C1464 H1456 0.950 . S
C1464 C1462 1.391 . S
C1464 C1465 1.400 . S
C1465 C1464 1.400 . S
C1465 C1466 1.398 . S
C1465 C1471 1.491 . S
C1466 H1457 0.950 . S
C1466 C1465 1.398 . S
C1466 C1467 1.391 . S
C1467 H1455 0.950 . S
C1467 C1463 1.393 . S
C1467 C1466 1.391 . S
C1468 H1458 0.950 . S
C1468 C1469 1.386 . S
C1468 C1470 1.391 . S
C1469 C1468 1.386 . S
C1469 C1473 1.393 . S
C1470 H1459 0.950 . S
C1470 C1468 1.391 . S
C1470 C1471 1.400 . S
C1471 C1465 1.491 . S
C1471 C1470 1.400 . S
C1471 C1472 1.398 . S
C1472 H1460 0.950 . S
C1472 C1471 1.398 . S
C1472 C1473 1.391 . S
C1473 H1461 0.950 . S
C1473 C1469 1.393 . S
C1473 C1472 1.391 . S
H1474 C1482 0.950 . S
H1475 C1487 0.950 . S
H1476 C1484 0.950 . S
H1477 C1486 0.950 . S
H1478 C1488 0.950 . S
H1479 C1490 0.950 . S
H1480 C1492 0.950 . S
H1481 C1493 0.950 . S
C1482 H1474 0.950 . S
C1482 C1483 1.386 . S
C1482 C1484 1.391 . S
C1483 C1482 1.386 . S
C1483 C1487 1.393 . S
C1484 H1476 0.950 . S
C1484 C1482 1.391 . S
C1484 C1485 1.400 . S
C1485 C1484 1.400 . S
C1485 C1486 1.398 . S
C1485 C1491 1.491 . S
C1486 H1477 0.950 . S
C1486 C1485 1.398 . S
C1486 C1487 1.391 . S
C1487 H1475 0.950 . S
C1487 C1483 1.393 . S
C1487 C1486 1.391 . S
C1488 H1478 0.950 . S
C1488 C1489 1.386 . S
C1488 C1490 1.391 . S
C1489 C1488 1.386 . S
C1489 C1493 1.393 . S
C1490 H1479 0.950 . S
C1490 C1488 1.391 . S
C1490 C1491 1.400 . S
C1491 C1485 1.491 . S
C1491 C1490 1.400 . S
C1491 C1492 1.398 . S
C1492 H1480 0.950 . S
C1492 C1491 1.398 . S
C1492 C1493 1.391 . S
C1493 H1481 0.950 . S
C1493 C1489 1.393 . S
C1493 C1492 1.391 . S
C603 N335 1.776 . S
C609 N5 1.800 . S
C623 N38 1.775 . S
C629 N368 1.784 . S
C643 N302 1.774 . S
C649 N71 1.787 . S
C663 N467 1.794 . S
C669 N104 1.787 . S
C683 N137 1.800 . S
C689 N401 1.772 . S
C703 N434 1.778 . S
C709 N170 1.799 . S
C723 C193 1.780 . S
C729 C490 1.776 . S
C743 C424 1.778 . S
C749 C127 1.780 . S
C763 C457 1.771 . S
C769 C160 1.767 . S
C783 C61 1.773 . S
C789 C358 1.768 . S
C803 C94 1.766 . S
C809 C391 1.769 . S
C823 C28 1.780 . S
C829 C325 1.779 . S
C843 N533 1.778 . S
C849 N203 1.800 . S
C863 N566 1.782 . S
C869 N236 1.777 . S
C883 N500 1.792 . S
C889 N269 1.790 . S
C903 C259 1.780 . S
C909 C556 1.779 . S
C923 C589 1.772 . S
C929 C292 1.767 . S
C943 C226 1.767 . S
C949 C523 1.766 . S
C963 C17 1.316 . S
C969 C578 1.314 . S
C983 C50 1.314 . S
C989 C512 1.311 . S
C1003 C83 1.312 . S
C1009 C545 1.308 . S
C1023 C248 1.313 . S
C1029 C116 1.309 . S
C1043 C149 1.311 . S
C1049 C281 1.314 . S
C1063 C182 1.316 . S
C1069 C215 1.314 . S
C1083 C314 1.315 . S
C1089 C446 1.316 . S
C1103 C347 1.313 . S
C1109 C479 1.315 . S
C1123 C380 1.306 . S
C1129 C413 1.306 . S
C1143 N80 1.476 1_545 S
C1149 C8 1.465 . S
C1163 C41 1.464 . S
C1169 N14 1.478 1_655 S
C1183 N47 1.475 . S
C1189 C74 1.457 . S
C1203 N146 1.477 1_455 S
C1209 C107 1.461 . S
C1223 C140 1.465 . S
C1229 N179 1.478 . S
C1243 N113 1.470 1_565 S
C1249 C173 1.450 . S
C1263 C206 1.444 . S
C1269 N278 1.463 . S
C1283 N212 1.475 . S
C1289 C239 1.464 . S
C1303 C272 1.445 . S
C1309 N245 1.465 . S
C1323 C305 1.451 . S
C1329 N344 1.470 . S
C1343 N377 1.474 . S
C1349 C338 1.463 . S
C1363 C371 1.457 . S
C1369 N311 1.468 . S
C1383 C404 1.465 . S
C1389 N476 1.478 . S
C1403 N410 1.476 . S
C1409 C437 1.459 . S
C1423 C470 1.458 . S
C1429 N443 1.470 . S
C1443 C503 1.450 . S
C1449 N542 1.464 . S
C1463 N575 1.476 . S
C1469 C536 1.460 . S
C1483 N509 1.474 . S
C1489 C569 1.463 . S
