# Generated by pormake.
# Topology yfm, (5)-cn, num edge types: 1
# Building blocks:
#     Node 0, Type 0, BuildingBlock: BEQFEK_clean_sbu_0, # of connection points: 5
#     Node 1, Type 0, BuildingBlock: BEQFEK_clean_sbu_0, # of connection points: 5
#     Node 2, Type 0, BuildingBlock: BEQFEK_clean_sbu_0, # of connection points: 5
#     Node 3, Type 0, BuildingBlock: BEQFEK_clean_sbu_0, # of connection points: 5
#     Node 4, Type 0, BuildingBlock: BEQFEK_clean_sbu_0, # of connection points: 5
#     Node 5, Type 0, BuildingBlock: BEQFEK_clean_sbu_0, # of connection points: 5
#     Node 6, Type 0, BuildingBlock: BEQFEK_clean_sbu_0, # of connection points: 5
#     Node 7, Type 0, BuildingBlock: BEQFEK_clean_sbu_0, # of connection points: 5
#     Node 8, Type 0, BuildingBlock: BEQFEK_clean_sbu_0, # of connection points: 5
#     Node 9, Type 0, BuildingBlock: BEQFEK_clean_sbu_0, # of connection points: 5
#     Node 10, Type 0, BuildingBlock: BEQFEK_clean_sbu_0, # of connection points: 5
#     Node 11, Type 0, BuildingBlock: BEQFEK_clean_sbu_0, # of connection points: 5
#     Node 12, Type 0, BuildingBlock: BEQFEK_clean_sbu_0, # of connection points: 5
#     Node 13, Type 0, BuildingBlock: BEQFEK_clean_sbu_0, # of connection points: 5
#     Node 14, Type 0, BuildingBlock: BEQFEK_clean_sbu_0, # of connection points: 5
#     Node 15, Type 0, BuildingBlock: BEQFEK_clean_sbu_0, # of connection points: 5
#     Node 16, Type 0, BuildingBlock: BEQFEK_clean_sbu_0, # of connection points: 5
#     Node 17, Type 0, BuildingBlock: BEQFEK_clean_sbu_0, # of connection points: 5
#     Node 18, Type 0, BuildingBlock: BEQFEK_clean_sbu_0, # of connection points: 5
#     Node 19, Type 0, BuildingBlock: BEQFEK_clean_sbu_0, # of connection points: 5
#     Node 20, Type 0, BuildingBlock: BEQFEK_clean_sbu_0, # of connection points: 5
#     Node 21, Type 0, BuildingBlock: BEQFEK_clean_sbu_0, # of connection points: 5
#     Node 22, Type 0, BuildingBlock: BEQFEK_clean_sbu_0, # of connection points: 5
#     Node 23, Type 0, BuildingBlock: BEQFEK_clean_sbu_0, # of connection points: 5
#     Node 24, Type 0, BuildingBlock: BEQFEK_clean_sbu_0, # of connection points: 5
#     Node 25, Type 0, BuildingBlock: BEQFEK_clean_sbu_0, # of connection points: 5
#     Node 26, Type 0, BuildingBlock: BEQFEK_clean_sbu_0, # of connection points: 5
#     Node 27, Type 0, BuildingBlock: BEQFEK_clean_sbu_0, # of connection points: 5
#     Node 28, Type 0, BuildingBlock: BEQFEK_clean_sbu_0, # of connection points: 5
#     Node 29, Type 0, BuildingBlock: BEQFEK_clean_sbu_0, # of connection points: 5
#     Node 30, Type 0, BuildingBlock: BEQFEK_clean_sbu_0, # of connection points: 5
#     Node 31, Type 0, BuildingBlock: BEQFEK_clean_sbu_0, # of connection points: 5
#     Edge 32, Type (0, 0), BuildingBlock: ZUJKAS_clean_linker_0, # of connection points: 2
#     Edge 33, Type (0, 0), BuildingBlock: ZUJKAS_clean_linker_0, # of connection points: 2
#     Edge 34, Type (0, 0), BuildingBlock: ZUJKAS_clean_linker_0, # of connection points: 2
#     Edge 35, Type (0, 0), BuildingBlock: ZUJKAS_clean_linker_0, # of connection points: 2
#     Edge 36, Type (0, 0), BuildingBlock: ZUJKAS_clean_linker_0, # of connection points: 2
#     Edge 37, Type (0, 0), BuildingBlock: ZUJKAS_clean_linker_0, # of connection points: 2
#     Edge 38, Type (0, 0), BuildingBlock: ZUJKAS_clean_linker_0, # of connection points: 2
#     Edge 39, Type (0, 0), BuildingBlock: ZUJKAS_clean_linker_0, # of connection points: 2
#     Edge 40, Type (0, 0), BuildingBlock: ZUJKAS_clean_linker_0, # of connection points: 2
#     Edge 41, Type (0, 0), BuildingBlock: ZUJKAS_clean_linker_0, # of connection points: 2
#     Edge 42, Type (0, 0), BuildingBlock: ZUJKAS_clean_linker_0, # of connection points: 2
#     Edge 43, Type (0, 0), BuildingBlock: ZUJKAS_clean_linker_0, # of connection points: 2
#     Edge 44, Type (0, 0), BuildingBlock: ZUJKAS_clean_linker_0, # of connection points: 2
#     Edge 45, Type (0, 0), BuildingBlock: ZUJKAS_clean_linker_0, # of connection points: 2
#     Edge 46, Type (0, 0), BuildingBlock: ZUJKAS_clean_linker_0, # of connection points: 2
#     Edge 47, Type (0, 0), BuildingBlock: ZUJKAS_clean_linker_0, # of connection points: 2
#     Edge 48, Type (0, 0), BuildingBlock: ZUJKAS_clean_linker_0, # of connection points: 2
#     Edge 49, Type (0, 0), BuildingBlock: ZUJKAS_clean_linker_0, # of connection points: 2
#     Edge 50, Type (0, 0), BuildingBlock: ZUJKAS_clean_linker_0, # of connection points: 2
#     Edge 51, Type (0, 0), BuildingBlock: ZUJKAS_clean_linker_0, # of connection points: 2
#     Edge 52, Type (0, 0), BuildingBlock: ZUJKAS_clean_linker_0, # of connection points: 2
#     Edge 53, Type (0, 0), BuildingBlock: ZUJKAS_clean_linker_0, # of connection points: 2
#     Edge 54, Type (0, 0), BuildingBlock: ZUJKAS_clean_linker_0, # of connection points: 2
#     Edge 55, Type (0, 0), BuildingBlock: ZUJKAS_clean_linker_0, # of connection points: 2
#     Edge 56, Type (0, 0), BuildingBlock: ZUJKAS_clean_linker_0, # of connection points: 2
#     Edge 57, Type (0, 0), BuildingBlock: ZUJKAS_clean_linker_0, # of connection points: 2
#     Edge 58, Type (0, 0), BuildingBlock: ZUJKAS_clean_linker_0, # of connection points: 2
#     Edge 59, Type (0, 0), BuildingBlock: ZUJKAS_clean_linker_0, # of connection points: 2
#     Edge 60, Type (0, 0), BuildingBlock: ZUJKAS_clean_linker_0, # of connection points: 2
#     Edge 61, Type (0, 0), BuildingBlock: ZUJKAS_clean_linker_0, # of connection points: 2
#     Edge 62, Type (0, 0), BuildingBlock: ZUJKAS_clean_linker_0, # of connection points: 2
#     Edge 63, Type (0, 0), BuildingBlock: ZUJKAS_clean_linker_0, # of connection points: 2
#     Edge 64, Type (0, 0), BuildingBlock: ZUJKAS_clean_linker_0, # of connection points: 2
#     Edge 65, Type (0, 0), BuildingBlock: ZUJKAS_clean_linker_0, # of connection points: 2
#     Edge 66, Type (0, 0), BuildingBlock: ZUJKAS_clean_linker_0, # of connection points: 2
#     Edge 67, Type (0, 0), BuildingBlock: ZUJKAS_clean_linker_0, # of connection points: 2
#     Edge 68, Type (0, 0), BuildingBlock: ZUJKAS_clean_linker_0, # of connection points: 2
#     Edge 69, Type (0, 0), BuildingBlock: ZUJKAS_clean_linker_0, # of connection points: 2
#     Edge 70, Type (0, 0), BuildingBlock: ZUJKAS_clean_linker_0, # of connection points: 2
#     Edge 71, Type (0, 0), BuildingBlock: ZUJKAS_clean_linker_0, # of connection points: 2
#     Edge 72, Type (0, 0), BuildingBlock: ZUJKAS_clean_linker_0, # of connection points: 2
#     Edge 73, Type (0, 0), BuildingBlock: ZUJKAS_clean_linker_0, # of connection points: 2
#     Edge 74, Type (0, 0), BuildingBlock: ZUJKAS_clean_linker_0, # of connection points: 2
#     Edge 75, Type (0, 0), BuildingBlock: ZUJKAS_clean_linker_0, # of connection points: 2
#     Edge 76, Type (0, 0), BuildingBlock: ZUJKAS_clean_linker_0, # of connection points: 2
#     Edge 77, Type (0, 0), BuildingBlock: ZUJKAS_clean_linker_0, # of connection points: 2
#     Edge 78, Type (0, 0), BuildingBlock: ZUJKAS_clean_linker_0, # of connection points: 2
#     Edge 79, Type (0, 0), BuildingBlock: ZUJKAS_clean_linker_0, # of connection points: 2
#     Edge 80, Type (0, 0), BuildingBlock: ZUJKAS_clean_linker_0, # of connection points: 2
#     Edge 81, Type (0, 0), BuildingBlock: ZUJKAS_clean_linker_0, # of connection points: 2
#     Edge 82, Type (0, 0), BuildingBlock: ZUJKAS_clean_linker_0, # of connection points: 2
#     Edge 83, Type (0, 0), BuildingBlock: ZUJKAS_clean_linker_0, # of connection points: 2
#     Edge 84, Type (0, 0), BuildingBlock: ZUJKAS_clean_linker_0, # of connection points: 2
#     Edge 85, Type (0, 0), BuildingBlock: ZUJKAS_clean_linker_0, # of connection points: 2
#     Edge 86, Type (0, 0), BuildingBlock: ZUJKAS_clean_linker_0, # of connection points: 2
#     Edge 87, Type (0, 0), BuildingBlock: ZUJKAS_clean_linker_0, # of connection points: 2
#     Edge 88, Type (0, 0), BuildingBlock: ZUJKAS_clean_linker_0, # of connection points: 2
#     Edge 89, Type (0, 0), BuildingBlock: ZUJKAS_clean_linker_0, # of connection points: 2
#     Edge 90, Type (0, 0), BuildingBlock: ZUJKAS_clean_linker_0, # of connection points: 2
#     Edge 91, Type (0, 0), BuildingBlock: ZUJKAS_clean_linker_0, # of connection points: 2
#     Edge 92, Type (0, 0), BuildingBlock: ZUJKAS_clean_linker_0, # of connection points: 2
#     Edge 93, Type (0, 0), BuildingBlock: ZUJKAS_clean_linker_0, # of connection points: 2
#     Edge 94, Type (0, 0), BuildingBlock: ZUJKAS_clean_linker_0, # of connection points: 2
#     Edge 95, Type (0, 0), BuildingBlock: ZUJKAS_clean_linker_0, # of connection points: 2
#     Edge 96, Type (0, 0), BuildingBlock: ZUJKAS_clean_linker_0, # of connection points: 2
#     Edge 97, Type (0, 0), BuildingBlock: ZUJKAS_clean_linker_0, # of connection points: 2
#     Edge 98, Type (0, 0), BuildingBlock: ZUJKAS_clean_linker_0, # of connection points: 2
#     Edge 99, Type (0, 0), BuildingBlock: ZUJKAS_clean_linker_0, # of connection points: 2
#     Edge 100, Type (0, 0), BuildingBlock: ZUJKAS_clean_linker_0, # of connection points: 2
#     Edge 101, Type (0, 0), BuildingBlock: ZUJKAS_clean_linker_0, # of connection points: 2
#     Edge 102, Type (0, 0), BuildingBlock: ZUJKAS_clean_linker_0, # of connection points: 2
#     Edge 103, Type (0, 0), BuildingBlock: ZUJKAS_clean_linker_0, # of connection points: 2
#     Edge 104, Type (0, 0), BuildingBlock: ZUJKAS_clean_linker_0, # of connection points: 2
#     Edge 105, Type (0, 0), BuildingBlock: ZUJKAS_clean_linker_0, # of connection points: 2
#     Edge 106, Type (0, 0), BuildingBlock: ZUJKAS_clean_linker_0, # of connection points: 2
#     Edge 107, Type (0, 0), BuildingBlock: ZUJKAS_clean_linker_0, # of connection points: 2
#     Edge 108, Type (0, 0), BuildingBlock: ZUJKAS_clean_linker_0, # of connection points: 2
#     Edge 109, Type (0, 0), BuildingBlock: ZUJKAS_clean_linker_0, # of connection points: 2
#     Edge 110, Type (0, 0), BuildingBlock: ZUJKAS_clean_linker_0, # of connection points: 2
#     Edge 111, Type (0, 0), BuildingBlock: ZUJKAS_clean_linker_0, # of connection points: 2
# Relax obj value: 0.522
# Max RMSD: 0.225
# Mean RMSD: 0.225
data_MOF--net-yfm--node1-BEQFEK_clean_sbu_0--edge1-ZUJKAS_clean_linker_0
_symmetry_space_group_name_H-M    P1
_symmetry_Int_Tables_number       1
_symmetry_cell_setting            triclinic
loop_
_symmetry_equiv_pos_as_xyz
'x, y, z'
_cell_length_a     81.344217
_cell_length_b     81.339555
_cell_length_c     62.630189
_cell_angle_alpha  90.015561
_cell_angle_beta   90.004154
_cell_angle_gamma 89.999565
loop_
_atom_site_label
_atom_site_type_symbol
_atom_site_fract_x
_atom_site_fract_y
_atom_site_fract_z
_atom_type_partial_charge
Co0 Co 0.22524 0.1341 0.11053 0.0
Co1 Co 0.22494 0.11678 0.0654 0.0
C2 C 0.25501 0.11744 0.09334 0.0
O3 O 0.24775 0.12562 0.10779 0.0
O4 O 0.24757 0.11324 0.07633 0.0
C5 C 0.23769 0.155 0.14319 0.0
O6 O 0.24993 0.15652 0.12964 0.0
C7 C 0.23855 0.11103 0.02282 0.0
C8 C 0.21941 0.09636 0.00673 0.0
C9 C 0.23512 0.10268 0.00391 0.0
N10 N 0.22566 0.10946 0.03615 0.0
N11 N 0.2142 0.10074 0.02638 0.0
C12 C 0.25345 0.12107 0.028 0.0
H13 H 0.25044 0.13056 0.04012 0.0
H14 H 0.25836 0.12707 0.01343 0.0
H15 H 0.26308 0.11295 0.03476 0.0
C16 C 0.21641 0.16284 0.08435 0.0
N17 N 0.21942 0.14667 0.08638 0.0
N18 N 0.2191 0.1397 0.06738 0.0
C19 C 0.21583 0.1514 0.05263 0.0
C20 C 0.21421 0.16647 0.06293 0.0
C21 C 0.21605 0.17473 0.10259 0.0
H22 H 0.20966 0.16912 0.11642 0.0
H23 H 0.22883 0.17769 0.10738 0.0
H24 H 0.20969 0.18629 0.09809 0.0
O25 O 0.21025 0.11532 0.1141 0.0
O26 O 0.20984 0.10224 0.08291 0.0
H27 H 0.20897 0.13688 0.02549 0.0
H28 H 0.20959 0.15881 0.02048 0.0
C29 C 0.21557 0.14848 0.02905 0.0
H30 H 0.22837 0.14732 0.02316 0.0
H31 H 0.20298 0.0975 0.03327 0.0
O32 O 0.22511 0.14673 0.13769 0.0
C33 C 0.20533 0.10349 0.10242 0.0
Co34 Co 0.11757 0.975 0.35912 0.0
Co35 Co 0.13485 0.97425 0.31389 0.0
C36 C 0.13495 0.00431 0.34202 0.0
O37 O 0.1264 0.99733 0.35635 0.0
O38 O 0.13917 0.9967 0.32515 0.0
C39 C 0.0971 0.98764 0.39225 0.0
O40 O 0.09613 1.00027 0.37924 0.0
C41 C 0.14064 0.98665 0.27011 0.0
C42 C 0.1572 0.96775 0.25685 0.0
C43 C 0.15006 0.98282 0.25219 0.0
N44 N 0.14225 0.97445 0.28457 0.0
N45 N 0.15199 0.96309 0.27636 0.0
C46 C 0.13145 0.00228 0.27428 0.0
H47 H 0.13969 0.013 0.27185 0.0
H48 H 0.12625 0.00246 0.29059 0.0
H49 H 0.12103 0.00335 0.26299 0.0
C50 C 0.08866 0.96668 0.333 0.0
N51 N 0.10488 0.96944 0.33498 0.0
N52 N 0.11182 0.96896 0.31597 0.0
C53 C 0.10005 0.96578 0.30127 0.0
C54 C 0.08499 0.96441 0.31162 0.0
C55 C 0.0768 0.96662 0.35126 0.0
H56 H 0.08217 0.95989 0.36497 0.0
H57 H 0.07438 0.97947 0.35628 0.0
H58 H 0.06497 0.96077 0.34672 0.0
O59 O 0.13614 0.95972 0.36266 0.0
O60 O 0.14892 0.95869 0.33131 0.0
H61 H 0.11437 0.95844 0.27418 0.0
H62 H 0.09245 0.95954 0.26921 0.0
C63 C 0.10293 0.96533 0.27771 0.0
H64 H 0.10439 0.97807 0.27175 0.0
H65 H 0.15565 0.95249 0.28444 0.0
O66 O 0.10491 0.97489 0.38626 0.0
C67 C 0.14775 0.95439 0.3509 0.0
Co68 Co 0.28085 0.87257 0.60944 0.0
Co69 Co 0.27822 0.88871 0.56358 0.0
C70 C 0.24957 0.8877 0.59335 0.0
O71 O 0.25809 0.88071 0.60771 0.0
O72 O 0.25577 0.89135 0.57534 0.0
C73 C 0.26912 0.85246 0.6431 0.0
O74 O 0.25632 0.8516 0.63036 0.0
C75 C 0.26364 0.89384 0.52126 0.0
C76 C 0.28263 0.908 0.50414 0.0
C77 C 0.26682 0.90179 0.502 0.0
N78 N 0.27678 0.89553 0.53416 0.0
N79 N 0.28814 0.90394 0.52376 0.0
C80 C 0.24874 0.88403 0.5271 0.0
H81 H 0.25185 0.87467 0.53932 0.0
H82 H 0.24351 0.87789 0.5128 0.0
H83 H 0.23931 0.89235 0.53391 0.0
C84 C 0.28934 0.84354 0.58362 0.0
N85 N 0.28599 0.85967 0.58528 0.0
N86 N 0.28512 0.86616 0.56602 0.0
C87 C 0.28793 0.85417 0.5515 0.0
C88 C 0.29059 0.83946 0.56223 0.0
C89 C 0.29033 0.83199 0.60217 0.0
H90 H 0.29749 0.83771 0.61528 0.0
H91 H 0.27774 0.82944 0.60809 0.0
H92 H 0.29618 0.82018 0.59754 0.0
O93 O 0.29569 0.89166 0.61156 0.0
O94 O 0.29298 0.90422 0.58011 0.0
H95 H 0.29301 0.86791 0.52308 0.0
H96 H 0.29237 0.84583 0.51928 0.0
C97 C 0.28676 0.85638 0.52785 0.0
H98 H 0.27364 0.85727 0.52319 0.0
H99 H 0.29952 0.90717 0.53019 0.0
O100 O 0.28188 0.86011 0.63681 0.0
C101 C 0.29896 0.9035 0.59897 0.0
Co102 Co 0.38436 0.02985 0.86199 0.0
Co103 Co 0.36743 0.02874 0.81653 0.0
C104 C 0.36836 0.99939 0.84566 0.0
O105 O 0.37666 0.00706 0.85965 0.0
O106 O 0.36384 0.0064 0.82847 0.0
C107 C 0.4062 0.01918 0.89492 0.0
O108 O 0.40983 0.00764 0.88101 0.0
C109 C 0.35982 0.01455 0.77432 0.0
C110 C 0.35145 0.03598 0.7557 0.0
C111 C 0.3539 0.01916 0.75445 0.0
N112 N 0.3607 0.02794 0.78692 0.0
N113 N 0.3557 0.04074 0.77562 0.0
C114 C 0.36539 0.99775 0.78075 0.0
H115 H 0.37594 0.99863 0.79193 0.0
H116 H 0.36904 0.9904 0.76658 0.0
H117 H 0.35512 0.99134 0.78886 0.0
C118 C 0.41279 0.04035 0.83603 0.0
N119 N 0.39694 0.03588 0.83794 0.0
N120 N 0.39024 0.03486 0.81881 0.0
C121 C 0.40191 0.03818 0.80408 0.0
C122 C 0.41652 0.04189 0.81453 0.0
C123 C 0.42443 0.04185 0.85445 0.0
H124 H 0.4181 0.04757 0.86825 0.0
H125 H 0.42864 0.02941 0.85916 0.0
H126 H 0.4354 0.04926 0.85028 0.0
O127 O 0.36509 0.0442 0.86477 0.0
O128 O 0.35257 0.04416 0.83321 0.0
H129 H 0.38947 0.04639 0.77602 0.0
H130 H 0.41061 0.04048 0.77154 0.0
C131 C 0.39922 0.0375 0.78048 0.0
H132 H 0.39494 0.02502 0.77596 0.0
H133 H 0.35511 0.05273 0.78152 0.0
O134 O 0.39642 0.03065 0.88952 0.0
C135 C 0.35339 0.04884 0.85269 0.0
Co136 Co 0.22514 0.86723 0.89773 0.0
Co137 Co 0.22297 0.88453 0.9429 0.0
C138 C 0.25368 0.88523 0.91635 0.0
O139 O 0.2471 0.87666 0.90172 0.0
O140 O 0.24567 0.88928 0.93297 0.0
C141 C 0.2399 0.84739 0.86573 0.0
O142 O 0.25185 0.84702 0.87983 0.0
C143 C 0.23456 0.89083 0.98657 0.0
C144 C 0.21433 0.90535 1.00057 0.0
C145 C 0.22996 0.89937 0.00489 0.0
N146 N 0.22223 0.89172 0.97223 0.0
N147 N 0.21009 0.90025 0.98083 0.0
C148 C 0.25109 0.88369 0.98156 0.0
H149 H 0.25004 0.87443 0.96862 0.0
H150 H 0.25669 0.87779 0.99569 0.0
H151 H 0.2594 0.89369 0.97623 0.0
C152 C 0.21679 0.83817 0.92352 0.0
N153 N 0.21924 0.85444 0.92161 0.0
N154 N 0.21828 0.86138 0.94059 0.0
C155 C 0.21513 0.84956 0.95522 0.0
C156 C 0.21423 0.83446 0.94485 0.0
C157 C 0.21721 0.82634 0.90523 0.0
H158 H 0.21085 0.83173 0.89124 0.0
H159 H 0.23019 0.82394 0.90077 0.0
H160 H 0.21126 0.8145 0.90948 0.0
O161 O 0.2095 0.88543 0.89343 0.0
O162 O 0.20764 0.89829 0.92469 0.0
H163 H 0.20635 0.86317 0.98217 0.0
H164 H 0.20978 0.84154 0.98744 0.0
C165 C 0.21441 0.85249 0.97877 0.0
H166 H 0.22692 0.85541 0.98469 0.0
H167 H 0.19919 0.90315 0.97291 0.0
O168 O 0.22649 0.85452 0.87061 0.0
C169 C 0.20376 0.89698 0.90496 0.0
Co170 Co 0.3821 0.97098 0.14781 0.0
Co171 Co 0.36419 0.97278 0.19251 0.0
C172 C 0.36684 0.00208 0.16375 0.0
O173 O 0.37497 0.994 0.14998 0.0
O174 O 0.36178 0.99533 0.18085 0.0
C175 C 0.40461 0.98133 0.11545 0.0
O176 O 0.40804 0.99296 0.12932 0.0
C177 C 0.35769 0.98645 0.23528 0.0
C178 C 0.34311 0.96684 0.2506 0.0
C179 C 0.34926 0.98253 0.25395 0.0
N180 N 0.3566 0.97364 0.22168 0.0
N181 N 0.348 0.9619 0.23105 0.0
C182 C 0.36502 0.00268 0.22923 0.0
H183 H 0.35552 0.01011 0.22095 0.0
H184 H 0.37547 0.00081 0.21811 0.0
H185 H 0.36926 0.00973 0.24328 0.0
C186 C 0.40983 0.96036 0.17496 0.0
N187 N 0.39399 0.96467 0.17236 0.0
N188 N 0.38684 0.96586 0.19119 0.0
C189 C 0.39817 0.9627 0.20642 0.0
C190 C 0.41309 0.95907 0.19665 0.0
C191 C 0.42198 0.9593 0.15706 0.0
H192 H 0.4262 0.97187 0.15293 0.0
H193 H 0.43289 0.95191 0.16146 0.0
H194 H 0.4161 0.95376 0.14281 0.0
O195 O 0.36257 0.95706 0.14416 0.0
O196 O 0.34915 0.95808 0.17506 0.0
H197 H 0.38371 0.95676 0.2339 0.0
H198 H 0.40547 0.95883 0.23925 0.0
C199 C 0.39498 0.96377 0.22989 0.0
H200 H 0.39296 0.9768 0.23437 0.0
H201 H 0.34505 0.95071 0.22386 0.0
O202 O 0.3947 0.96993 0.1207 0.0
C203 C 0.35036 0.95308 0.15576 0.0
Co204 Co 0.27972 0.13455 0.39812 0.0
Co205 Co 0.27843 0.11643 0.44272 0.0
C206 C 0.24922 0.11803 0.41346 0.0
O207 O 0.25704 0.12641 0.39971 0.0
O208 O 0.25606 0.11333 0.43067 0.0
C209 C 0.26835 0.15589 0.36526 0.0
O210 O 0.25562 0.15717 0.37808 0.0
C211 C 0.26393 0.10945 0.48463 0.0
C212 C 0.28347 0.0957 0.50126 0.0
C213 C 0.26741 0.1012 0.5036 0.0
N214 N 0.27715 0.10861 0.47173 0.0
N215 N 0.28883 0.10042 0.48183 0.0
C216 C 0.24866 0.11879 0.47907 0.0
H217 H 0.25153 0.12875 0.46755 0.0
H218 H 0.24297 0.12416 0.49359 0.0
H219 H 0.23972 0.11033 0.47144 0.0
C220 C 0.28817 0.16267 0.42549 0.0
N221 N 0.28508 0.14657 0.42285 0.0
N222 N 0.28464 0.1393 0.44165 0.0
C223 C 0.28747 0.15075 0.45689 0.0
C224 C 0.28966 0.16594 0.4471 0.0
C225 C 0.28905 0.17487 0.40764 0.0
H226 H 0.2959 0.16953 0.394 0.0
H227 H 0.2764 0.17783 0.40224 0.0
H228 H 0.29517 0.18639 0.41282 0.0
O229 O 0.29441 0.11554 0.39458 0.0
O230 O 0.29365 0.10192 0.42535 0.0
H231 H 0.29369 0.13618 0.4842 0.0
H232 H 0.29177 0.15798 0.48964 0.0
C233 C 0.28671 0.14751 0.48037 0.0
H234 H 0.27373 0.14559 0.48514 0.0
H235 H 0.30036 0.09785 0.47534 0.0
O236 O 0.28077 0.14762 0.37135 0.0
C237 C 0.29871 0.10339 0.40611 0.0
Co238 Co 0.11766 0.02818 0.64745 0.0
Co239 Co 0.13557 0.02698 0.69217 0.0
C240 C 0.13311 0.99742 0.66358 0.0
O241 O 0.12488 0.00524 0.64969 0.0
O242 O 0.13814 0.00443 0.68051 0.0
C243 C 0.09606 0.01718 0.61468 0.0
O244 O 0.09413 0.00476 0.62784 0.0
C245 C 0.14158 0.01248 0.73423 0.0
C246 C 0.1563 0.03132 0.75084 0.0
C247 C 0.14998 0.01557 0.7532 0.0
N248 N 0.14312 0.0256 0.72129 0.0
N249 N 0.15187 0.03687 0.73137 0.0
C250 C 0.13149 0.99769 0.72871 0.0
H251 H 0.12163 0.00106 0.71727 0.0
H252 H 0.12593 0.99224 0.74326 0.0
H253 H 0.13947 0.98836 0.721 0.0
C254 C 0.09005 0.03915 0.67422 0.0
N255 N 0.10581 0.03454 0.67192 0.0
N256 N 0.11292 0.03381 0.69081 0.0
C257 C 0.10164 0.03772 0.70583 0.0
C258 C 0.08683 0.0413 0.69577 0.0
C259 C 0.07803 0.04008 0.65615 0.0
H260 H 0.08354 0.04704 0.64271 0.0
H261 H 0.07532 0.02745 0.65048 0.0
H262 H 0.06632 0.04597 0.66093 0.0
O263 O 0.13717 0.04215 0.64379 0.0
O264 O 0.15046 0.04191 0.67482 0.0
H265 H 0.11654 0.04439 0.73265 0.0
H266 H 0.09467 0.04377 0.73819 0.0
C267 C 0.10487 0.03781 0.72933 0.0
H268 H 0.10621 0.02497 0.73501 0.0
H269 H 0.15508 0.04823 0.72483 0.0
O270 O 0.10478 0.02936 0.62053 0.0
C271 C 0.14926 0.04657 0.65536 0.0
Co272 Co 0.78169 0.86962 0.89775 0.0
Co273 Co 0.77462 0.88581 0.94284 0.0
C274 C 0.74812 0.88216 0.91074 0.0
O275 O 0.75831 0.87592 0.89768 0.0
O276 O 0.75254 0.88646 0.92941 0.0
C277 C 0.77357 0.84718 0.86462 0.0
O278 O 0.76188 0.84313 0.87811 0.0
C279 C 0.75936 0.89732 0.98338 0.0
C280 C 0.78063 0.89783 0.00524 0.0
C281 C 0.76378 0.90031 0.00453 0.0
N282 N 0.77287 0.8928 0.97236 0.0
N283 N 0.78556 0.89338 0.98552 0.0
C284 C 0.743 0.90036 0.9732 0.0
H285 H 0.74482 0.90697 0.95791 0.0
H286 H 0.73696 0.88841 0.96979 0.0
H287 H 0.7349 0.90796 0.98345 0.0
C288 C 0.7915 0.84162 0.92484 0.0
N289 N 0.78665 0.85733 0.92247 0.0
N290 N 0.78297 0.86359 0.9413 0.0
C291 C 0.78471 0.85166 0.95616 0.0
C292 C 0.79033 0.83741 0.94625 0.0
C293 C 0.79531 0.83034 0.90662 0.0
H294 H 0.80096 0.83732 0.89331 0.0
H295 H 0.78375 0.82459 0.90093 0.0
H296 H 0.80379 0.82037 0.91151 0.0
O297 O 0.79513 0.88959 0.8965 0.0
O298 O 0.78895 0.90222 0.92701 0.0
H299 H 0.78997 0.8607 0.98736 0.0
H300 H 0.77913 0.84153 0.98737 0.0
C301 C 0.78022 0.85357 0.9792 0.0
H302 H 0.76846 0.86039 0.98064 0.0
H303 H 0.7976 0.89055 0.98109 0.0
O304 O 0.78442 0.85755 0.87036 0.0
C305 C 0.79638 0.90182 0.90903 0.0
Co306 Co 0.88272 0.02952 0.64908 0.0
Co307 Co 0.86621 0.02766 0.69481 0.0
C308 C 0.86732 0.99851 0.66564 0.0
O309 O 0.87483 0.00671 0.6514 0.0
O310 O 0.86321 0.00506 0.68332 0.0
C311 C 0.90353 0.01806 0.61581 0.0
O312 O 0.90558 0.00577 0.62915 0.0
C313 C 0.85716 0.01459 0.73735 0.0
C314 C 0.85114 0.03702 0.75553 0.0
C315 C 0.8518 0.02006 0.7571 0.0
N316 N 0.85947 0.02765 0.72447 0.0
N317 N 0.85587 0.04104 0.73553 0.0
C318 C 0.86058 0.99718 0.7312 0.0
H319 H 0.87149 0.99657 0.7206 0.0
H320 H 0.86278 0.98943 0.7455 0.0
H321 H 0.84974 0.99229 0.72259 0.0
C322 C 0.91128 0.03971 0.67477 0.0
N323 N 0.89539 0.03534 0.67309 0.0
N324 N 0.8889 0.03409 0.6923 0.0
C325 C 0.90076 0.03719 0.70688 0.0
C326 C 0.91525 0.04101 0.69622 0.0
C327 C 0.92273 0.04121 0.65616 0.0
H328 H 0.9166 0.04803 0.64305 0.0
H329 H 0.9258 0.02873 0.65025 0.0
H330 H 0.93432 0.04754 0.66054 0.0
O331 O 0.86361 0.04408 0.64639 0.0
O332 O 0.85103 0.04256 0.67787 0.0
H333 H 0.88957 0.04568 0.73565 0.0
H334 H 0.91012 0.03777 0.73925 0.0
C335 C 0.89837 0.03606 0.73051 0.0
H336 H 0.89303 0.02391 0.73459 0.0
H337 H 0.85655 0.05295 0.72938 0.0
O338 O 0.89502 0.03038 0.62169 0.0
C339 C 0.85179 0.04795 0.65871 0.0
Co340 Co 0.71915 0.13274 0.39826 0.0
Co341 Co 0.72495 0.1167 0.44376 0.0
C342 C 0.75192 0.11863 0.41207 0.0
O343 O 0.74216 0.12516 0.3987 0.0
O344 O 0.74712 0.11487 0.43078 0.0
C345 C 0.72938 0.15406 0.36522 0.0
O346 O 0.74141 0.15661 0.37882 0.0
C347 C 0.73941 0.10512 0.4847 0.0
C348 C 0.71801 0.10568 0.50634 0.0
C349 C 0.73477 0.10261 0.50587 0.0
N350 N 0.72613 0.10993 0.47342 0.0
N351 N 0.71334 0.10999 0.48645 0.0
C352 C 0.75571 0.10135 0.47479 0.0
H353 H 0.75375 0.09444 0.45976 0.0
H354 H 0.76213 0.11302 0.47098 0.0
H355 H 0.76354 0.09374 0.48539 0.0
C356 C 0.71025 0.16136 0.42466 0.0
N357 N 0.71453 0.14546 0.4227 0.0
N358 N 0.71763 0.13926 0.44173 0.0
C359 C 0.71602 0.15139 0.45635 0.0
C360 C 0.71112 0.16573 0.44604 0.0
C361 C 0.70725 0.17257 0.40611 0.0
H362 H 0.71923 0.17696 0.39988 0.0
H363 H 0.69987 0.18344 0.41074 0.0
H364 H 0.70077 0.16583 0.39322 0.0
O365 O 0.70476 0.11343 0.39694 0.0
O366 O 0.71011 0.10083 0.42776 0.0
H367 H 0.7213 0.16161 0.4876 0.0
H368 H 0.73129 0.14223 0.48163 0.0
C369 C 0.71988 0.14953 0.47959 0.0
H370 H 0.70963 0.14292 0.48747 0.0
H371 H 0.70144 0.11319 0.48183 0.0
O372 O 0.71738 0.14499 0.37086 0.0
C373 C 0.70289 0.10136 0.40962 0.0
Co374 Co 0.61636 0.9738 0.14863 0.0
Co375 Co 0.6334 0.97615 0.19403 0.0
C376 C 0.63272 0.00471 0.1641 0.0
O377 O 0.62516 0.99628 0.15014 0.0
O378 O 0.63659 0.99858 0.18211 0.0
C379 C 0.59583 0.98601 0.11579 0.0
O380 O 0.59508 0.99857 0.12896 0.0
C381 C 0.64263 0.98979 0.23613 0.0
C382 C 0.64893 0.96768 0.2548 0.0
C383 C 0.64806 0.98466 0.25602 0.0
N384 N 0.64051 0.97653 0.22354 0.0
N385 N 0.64432 0.96334 0.23486 0.0
C386 C 0.63876 0.00704 0.22961 0.0
H387 H 0.62764 0.00723 0.21938 0.0
H388 H 0.6367 0.01502 0.24374 0.0
H389 H 0.6493 0.01198 0.22041 0.0
C390 C 0.5878 0.965 0.17514 0.0
N391 N 0.60381 0.96881 0.17307 0.0
N392 N 0.61058 0.97004 0.19211 0.0
C393 C 0.59885 0.96737 0.20699 0.0
C394 C 0.58406 0.96396 0.19672 0.0
C395 C 0.57609 0.96407 0.15672 0.0
H396 H 0.57411 0.97663 0.15034 0.0
H397 H 0.56401 0.95893 0.16134 0.0
H398 H 0.58151 0.95645 0.14384 0.0
O399 O 0.63499 0.95864 0.14592 0.0
O400 O 0.64813 0.96084 0.17697 0.0
H401 H 0.61097 0.95908 0.23522 0.0
H402 H 0.59024 0.96615 0.23972 0.0
C403 C 0.60169 0.96839 0.23055 0.0
H404 H 0.60666 0.9807 0.23462 0.0
H405 H 0.64375 0.95134 0.22898 0.0
O406 O 0.60351 0.97313 0.1216 0.0
C407 C 0.64699 0.95498 0.15806 0.0
Co408 Co 0.77667 0.13542 0.11091 0.0
Co409 Co 0.77566 0.11741 0.06619 0.0
C410 C 0.7463 0.11879 0.09512 0.0
O411 O 0.75411 0.12711 0.10894 0.0
O412 O 0.75316 0.11413 0.0779 0.0
C413 C 0.76461 0.1565 0.14355 0.0
O414 O 0.75226 0.15793 0.13015 0.0
C415 C 0.76165 0.11023 0.02407 0.0
C416 C 0.7817 0.09714 0.00754 0.0
C417 C 0.76551 0.10221 0.00508 0.0
N418 N 0.77479 0.10969 0.03713 0.0
N419 N 0.78677 0.1019 0.0271 0.0
C420 C 0.74608 0.11913 0.02948 0.0
H421 H 0.74861 0.12922 0.04094 0.0
H422 H 0.74027 0.12425 0.01489 0.0
H423 H 0.73738 0.11043 0.03712 0.0
C424 C 0.78515 0.16366 0.08368 0.0
N425 N 0.78204 0.14756 0.08627 0.0
N426 N 0.78173 0.14029 0.06746 0.0
C427 C 0.78471 0.15173 0.05226 0.0
C428 C 0.78683 0.16692 0.06209 0.0
C429 C 0.78599 0.17583 0.10157 0.0
H430 H 0.79259 0.17038 0.11535 0.0
H431 H 0.77333 0.17898 0.10671 0.0
H432 H 0.79235 0.18727 0.09653 0.0
O433 O 0.79157 0.11655 0.11443 0.0
O434 O 0.79093 0.10305 0.08356 0.0
H435 H 0.79161 0.13739 0.02503 0.0
H436 H 0.78882 0.15907 0.01948 0.0
C437 C 0.78416 0.14844 0.02878 0.0
H438 H 0.77129 0.14596 0.02394 0.0
H439 H 0.79832 0.09962 0.0337 0.0
O440 O 0.77722 0.14835 0.13787 0.0
C441 C 0.79599 0.10449 0.10281 0.0
Co442 Co 0.61932 0.02298 0.85909 0.0
Co443 Co 0.63688 0.02472 0.81418 0.0
C444 C 0.63544 0.99358 0.84016 0.0
O445 O 0.62729 1.00044 0.85497 0.0
O446 O 0.63993 0.0016 0.82372 0.0
C447 C 0.59932 0.0098 0.89237 0.0
O448 O 0.59934 0.99683 0.87986 0.0
C449 C 0.64213 0.0126 0.77087 0.0
C450 C 0.65843 0.03119 0.75645 0.0
C451 C 0.65113 0.01606 0.75248 0.0
N452 N 0.64429 0.02487 0.785 0.0
N453 N 0.65396 0.03603 0.77622 0.0
C454 C 0.63106 0.99823 0.77488 0.0
H455 H 0.62153 0.00148 0.78684 0.0
H456 H 0.62509 0.99417 0.75984 0.0
H457 H 0.63838 0.9879 0.7814 0.0
C458 C 0.59126 0.03454 0.83369 0.0
N459 N 0.60713 0.03015 0.8353 0.0
N460 N 0.61413 0.03094 0.81635 0.0
C461 C 0.60271 0.03578 0.80198 0.0
C462 C 0.58789 0.03828 0.81256 0.0
C463 C 0.57938 0.03402 0.85194 0.0
H464 H 0.58406 0.04179 0.86516 0.0
H465 H 0.5785 0.02121 0.85791 0.0
H466 H 0.56693 0.03824 0.84728 0.0
O467 O 0.63841 0.03736 0.86367 0.0
O468 O 0.65144 0.0392 0.83257 0.0
H469 H 0.61788 0.04422 0.77624 0.0
H470 H 0.59596 0.04538 0.77105 0.0
C471 C 0.60587 0.03804 0.77865 0.0
H472 H 0.60639 0.02582 0.77083 0.0
H473 H 0.65788 0.04671 0.78392 0.0
O474 O 0.60635 0.0229 0.88604 0.0
C475 C 0.65024 0.04281 0.8524 0.0
Co476 Co 0.72577 0.86735 0.61152 0.0
Co477 Co 0.72752 0.8843 0.56595 0.0
C478 C 0.75685 0.88236 0.59494 0.0
O479 O 0.74863 0.87475 0.60904 0.0
O480 O 0.75025 0.88685 0.57745 0.0
C481 C 0.7368 0.84583 0.64453 0.0
O482 O 0.74852 0.84267 0.6307 0.0
C483 C 0.74038 0.89603 0.52425 0.0
C484 C 0.71831 0.89565 0.50381 0.0
C485 C 0.73509 0.89857 0.50337 0.0
N486 N 0.72747 0.89128 0.53626 0.0
N487 N 0.71426 0.89136 0.52395 0.0
C488 C 0.75695 0.89993 0.53327 0.0
H489 H 0.75533 0.90726 0.54804 0.0
H490 H 0.7634 0.88833 0.53732 0.0
H491 H 0.76455 0.90725 0.52209 0.0
C492 C 0.71554 0.83891 0.58555 0.0
N493 N 0.71967 0.85487 0.58739 0.0
N494 N 0.72104 0.86145 0.56823 0.0
C495 C 0.71838 0.84954 0.55355 0.0
C496 C 0.71464 0.83493 0.56405 0.0
C497 C 0.71426 0.82736 0.60409 0.0
H498 H 0.72679 0.8235 0.60892 0.0
H499 H 0.70715 0.81618 0.60005 0.0
H500 H 0.70833 0.83365 0.61778 0.0
O501 O 0.71161 0.8867 0.61445 0.0
O502 O 0.71258 0.89939 0.58305 0.0
H503 H 0.72047 0.84001 0.52131 0.0
H504 H 0.73114 0.85917 0.52632 0.0
C505 C 0.71995 0.8519 0.52994 0.0
H506 H 0.70908 0.85874 0.52407 0.0
H507 H 0.7025 0.88827 0.52922 0.0
O508 O 0.72502 0.85523 0.63908 0.0
C509 C 0.7075 0.89858 0.60236 0.0
Co510 Co 0.88108 0.97484 0.35986 0.0
Co511 Co 0.8648 0.97512 0.31402 0.0
C512 C 0.8647 0.00483 0.34243 0.0
O513 O 0.87245 0.99733 0.35709 0.0
O514 O 0.86095 0.99766 0.32505 0.0
C515 C 0.90135 0.98717 0.3933 0.0
O516 O 0.9028 0.99966 0.38013 0.0
C517 C 0.8596 0.98736 0.27002 0.0
C518 C 0.84338 0.96826 0.25651 0.0
C519 C 0.85047 0.98336 0.25191 0.0
N520 N 0.85788 0.97522 0.28454 0.0
N521 N 0.84835 0.96375 0.27618 0.0
C522 C 0.86857 0.0031 0.27425 0.0
H523 H 0.86015 0.0137 0.27197 0.0
H524 H 0.87383 0.00329 0.29053 0.0
H525 H 0.87892 0.00442 0.26289 0.0
C526 C 0.91038 0.96622 0.33453 0.0
N527 N 0.89419 0.96931 0.33604 0.0
N528 N 0.88764 0.96928 0.31678 0.0
C529 C 0.89964 0.96613 0.3024 0.0
C530 C 0.91446 0.96425 0.31321 0.0
C531 C 0.92183 0.96547 0.35321 0.0
H532 H 0.91587 0.95888 0.36663 0.0
H533 H 0.92474 0.97815 0.35849 0.0
H534 H 0.93347 0.95912 0.34898 0.0
O535 O 0.8624 0.95962 0.36268 0.0
O536 O 0.85001 0.95999 0.33101 0.0
H537 H 0.88597 0.95935 0.27451 0.0
H538 H 0.90794 0.961 0.27024 0.0
C539 C 0.89722 0.96633 0.27873 0.0
H540 H 0.89561 0.97921 0.27338 0.0
H541 H 0.84466 0.95315 0.28426 0.0
O542 O 0.89331 0.97457 0.38733 0.0
C543 C 0.85081 0.95506 0.35037 0.0
Co544 Co 0.72321 0.63257 0.6094 0.0
Co545 Co 0.72229 0.61426 0.56495 0.0
C546 C 0.7527 0.61556 0.59214 0.0
O547 O 0.74591 0.62462 0.6061 0.0
O548 O 0.74482 0.61042 0.57593 0.0
C549 C 0.73579 0.65404 0.64138 0.0
O550 O 0.74798 0.65537 0.62773 0.0
C551 C 0.73515 0.60752 0.52208 0.0
C552 C 0.7153 0.59306 0.5071 0.0
C553 C 0.73103 0.59904 0.50353 0.0
N554 N 0.72244 0.60664 0.53581 0.0
N555 N 0.71053 0.59812 0.52665 0.0
C556 C 0.75153 0.61463 0.52797 0.0
H557 H 0.75888 0.60505 0.53622 0.0
H558 H 0.74985 0.62513 0.53907 0.0
H559 H 0.75854 0.61877 0.51385 0.0
C560 C 0.71292 0.66052 0.58273 0.0
N561 N 0.71666 0.64453 0.58514 0.0
N562 N 0.71668 0.63724 0.56634 0.0
C563 C 0.71323 0.64862 0.55127 0.0
C564 C 0.71065 0.66371 0.56118 0.0
C565 C 0.71322 0.67275 0.6006 0.0
H566 H 0.72616 0.67499 0.60535 0.0
H567 H 0.70765 0.68465 0.59598 0.0
H568 H 0.70656 0.66771 0.61459 0.0
O569 O 0.70855 0.6136 0.61391 0.0
O570 O 0.70715 0.60025 0.58295 0.0
H571 H 0.7078 0.65586 0.5188 0.0
H572 H 0.72561 0.64284 0.52218 0.0
C573 C 0.71291 0.64527 0.5278 0.0
H574 H 0.7054 0.63417 0.52458 0.0
H575 H 0.69939 0.59528 0.53402 0.0
O576 O 0.7232 0.64567 0.63617 0.0
C577 C 0.70318 0.60173 0.60262 0.0
Co578 Co 0.61584 0.47386 0.86025 0.0
Co579 Co 0.6337 0.47298 0.81543 0.0
C580 C 0.63312 0.50326 0.84306 0.0
O581 O 0.62437 0.49631 0.85721 0.0
O582 O 0.63772 0.49556 0.82643 0.0
C583 C 0.59541 0.48675 0.89317 0.0
O584 O 0.59532 0.49965 0.88055 0.0
C585 C 0.63929 0.48501 0.77161 0.0
C586 C 0.65689 0.46683 0.75893 0.0
C587 C 0.64907 0.4815 0.75391 0.0
N588 N 0.64134 0.47305 0.78628 0.0
N589 N 0.6517 0.4621 0.77842 0.0
C590 C 0.62931 0.50021 0.77542 0.0
H591 H 0.62415 0.50036 0.79176 0.0
H592 H 0.61883 0.50055 0.76414 0.0
H593 H 0.63697 0.5113 0.77269 0.0
C594 C 0.58772 0.46358 0.83402 0.0
N595 N 0.60365 0.46765 0.83602 0.0
N596 N 0.61076 0.46736 0.81711 0.0
C597 C 0.59933 0.46318 0.80239 0.0
C598 C 0.58441 0.46061 0.81267 0.0
C599 C 0.57574 0.46367 0.85218 0.0
H600 H 0.58049 0.45584 0.86529 0.0
H601 H 0.57457 0.47639 0.85836 0.0
H602 H 0.5634 0.45928 0.84732 0.0
O603 O 0.63462 0.45894 0.86447 0.0
O604 O 0.64773 0.45771 0.83334 0.0
H605 H 0.61442 0.45512 0.77636 0.0
H606 H 0.59253 0.4548 0.77088 0.0
C607 C 0.60259 0.46158 0.77899 0.0
H608 H 0.60352 0.47403 0.77188 0.0
H609 H 0.65581 0.45178 0.78675 0.0
O610 O 0.60268 0.47373 0.88702 0.0
C611 C 0.6464 0.45362 0.85299 0.0
Co612 Co 0.77924 0.36779 0.11015 0.0
Co613 Co 0.77704 0.38571 0.06555 0.0
C614 C 0.74828 0.38382 0.09551 0.0
O615 O 0.7564 0.37552 0.10906 0.0
O616 O 0.75483 0.38861 0.07815 0.0
C617 C 0.76925 0.34525 0.14257 0.0
O618 O 0.75717 0.34231 0.12917 0.0
C619 C 0.7619 0.39237 0.02393 0.0
C620 C 0.78124 0.4059 0.00659 0.0
C621 C 0.76516 0.40038 0.00473 0.0
N622 N 0.77529 0.39336 0.03652 0.0
N623 N 0.78683 0.40142 0.02601 0.0
C624 C 0.74671 0.38308 0.02996 0.0
H625 H 0.74972 0.37323 0.04157 0.0
H626 H 0.74084 0.37758 0.01564 0.0
H627 H 0.73786 0.39161 0.03764 0.0
C628 C 0.78799 0.33969 0.08267 0.0
N629 N 0.78451 0.35571 0.08537 0.0
N630 N 0.78353 0.36292 0.06656 0.0
C631 C 0.78627 0.35149 0.05126 0.0
C632 C 0.78903 0.33638 0.06104 0.0
C633 C 0.78992 0.32758 0.10048 0.0
H634 H 0.79614 0.33346 0.11425 0.0
H635 H 0.7776 0.32329 0.10561 0.0
H636 H 0.79716 0.31674 0.09524 0.0
O637 O 0.79375 0.38695 0.11318 0.0
O638 O 0.79243 0.40043 0.08234 0.0
H639 H 0.79181 0.36593 0.02362 0.0
H640 H 0.78965 0.34414 0.01835 0.0
C641 C 0.78489 0.35464 0.02781 0.0
H642 H 0.7718 0.35661 0.02362 0.0
H643 H 0.79846 0.40404 0.03219 0.0
O644 O 0.78071 0.35501 0.13706 0.0
C645 C 0.7978 0.39907 0.10146 0.0
Co646 Co 0.88299 0.52577 0.36013 0.0
Co647 Co 0.86513 0.52679 0.31535 0.0
C648 C 0.86662 0.49616 0.34225 0.0
O649 O 0.87531 0.50301 0.35655 0.0
O650 O 0.86161 0.50406 0.32598 0.0
C651 C 0.90416 0.5136 0.39291 0.0
O652 O 0.90571 0.50116 0.37968 0.0
C653 C 0.85846 0.51425 0.2722 0.0
C654 C 0.84453 0.53452 0.2573 0.0
C655 C 0.85024 0.51871 0.2536 0.0
N656 N 0.85771 0.52687 0.28611 0.0
N657 N 0.84951 0.53901 0.277 0.0
C658 C 0.86521 0.49769 0.27788 0.0
H659 H 0.85557 0.49059 0.28637 0.0
H660 H 0.8759 0.49907 0.28875 0.0
H661 H 0.86895 0.49058 0.26364 0.0
C662 C 0.91136 0.53524 0.33378 0.0
N663 N 0.89521 0.53227 0.33605 0.0
N664 N 0.88806 0.53262 0.31717 0.0
C665 C 0.89964 0.5358 0.30224 0.0
C666 C 0.91479 0.53745 0.31232 0.0
C667 C 0.92346 0.53522 0.35178 0.0
H668 H 0.91815 0.5416 0.36582 0.0
H669 H 0.92623 0.52234 0.35632 0.0
H670 H 0.9351 0.54139 0.34713 0.0
O671 O 0.86386 0.5403 0.36438 0.0
O672 O 0.85074 0.54161 0.33327 0.0
H673 H 0.88574 0.54345 0.27499 0.0
H674 H 0.9074 0.5402 0.26969 0.0
C675 C 0.89656 0.53568 0.2787 0.0
H676 H 0.89379 0.52293 0.27353 0.0
H677 H 0.84684 0.55016 0.28449 0.0
O678 O 0.89577 0.52603 0.38716 0.0
C679 C 0.85202 0.54555 0.35297 0.0
Co680 Co 0.72607 0.36829 0.39427 0.0
Co681 Co 0.72605 0.38634 0.43884 0.0
C682 C 0.75631 0.38389 0.41137 0.0
O683 O 0.74914 0.3752 0.39734 0.0
O684 O 0.74866 0.38921 0.42767 0.0
C685 C 0.73679 0.34583 0.36197 0.0
O686 O 0.74864 0.34279 0.37567 0.0
C687 C 0.73993 0.3925 0.48115 0.0
C688 C 0.72067 0.40691 0.49742 0.0
C689 C 0.73647 0.40078 0.50009 0.0
N690 N 0.72696 0.39392 0.46793 0.0
N691 N 0.71544 0.40249 0.4778 0.0
C692 C 0.75492 0.38263 0.47587 0.0
H693 H 0.75181 0.37273 0.46437 0.0
H694 H 0.76031 0.37713 0.4905 0.0
H695 H 0.7642 0.39075 0.46831 0.0
C696 C 0.71477 0.34054 0.4209 0.0
N697 N 0.71913 0.35639 0.41852 0.0
N698 N 0.71946 0.36362 0.43736 0.0
C699 C 0.71559 0.35236 0.4524 0.0
C700 C 0.71245 0.33739 0.44246 0.0
C701 C 0.7145 0.32833 0.40301 0.0
H702 H 0.72731 0.32488 0.39897 0.0
H703 H 0.70775 0.31699 0.40732 0.0
H704 H 0.70872 0.3339 0.38872 0.0
O705 O 0.71213 0.38786 0.39018 0.0
O706 O 0.71131 0.40104 0.42128 0.0
H707 H 0.7093 0.34551 0.48473 0.0
H708 H 0.72809 0.35707 0.48174 0.0
C709 C 0.71531 0.35569 0.47588 0.0
H710 H 0.70866 0.36734 0.47904 0.0
H711 H 0.70413 0.40556 0.47103 0.0
O712 O 0.72527 0.3556 0.36722 0.0
C713 C 0.70721 0.39983 0.40163 0.0
Co714 Co 0.8836 0.47508 0.64858 0.0
Co715 Co 0.86497 0.47384 0.69273 0.0
C716 C 0.86672 0.50447 0.66558 0.0
O717 O 0.87603 0.49789 0.65173 0.0
O718 O 0.8614 0.49638 0.68151 0.0
C719 C 0.90486 0.48688 0.61562 0.0
O720 O 0.90582 0.4998 0.62816 0.0
C721 C 0.85852 0.48753 0.73495 0.0
C722 C 0.84395 0.4683 0.75102 0.0
C723 C 0.85009 0.48409 0.75377 0.0
N724 N 0.85717 0.47457 0.7217 0.0
N725 N 0.84851 0.46306 0.73145 0.0
C726 C 0.86845 0.5025 0.72978 0.0
H727 H 0.8784 0.49936 0.71836 0.0
H728 H 0.87389 0.50786 0.74447 0.0
H729 H 0.86039 0.51181 0.72215 0.0
C730 C 0.91121 0.46423 0.67544 0.0
N731 N 0.89531 0.46828 0.67294 0.0
N732 N 0.88786 0.46797 0.69162 0.0
C733 C 0.89902 0.46386 0.70671 0.0
C734 C 0.91413 0.46127 0.6969 0.0
C735 C 0.92358 0.46468 0.65774 0.0
H736 H 0.91909 0.45719 0.64414 0.0
H737 H 0.92495 0.47753 0.65213 0.0
H738 H 0.9358 0.46011 0.66285 0.0
O739 O 0.86431 0.46082 0.64391 0.0
O740 O 0.85098 0.45871 0.67478 0.0
H741 H 0.88382 0.45571 0.73253 0.0
H742 H 0.90557 0.45654 0.73877 0.0
C743 C 0.89538 0.46266 0.73005 0.0
H744 H 0.89368 0.4752 0.73664 0.0
H745 H 0.84546 0.45176 0.72462 0.0
O746 O 0.89682 0.47437 0.6219 0.0
C747 C 0.85242 0.4552 0.65496 0.0
Co748 Co 0.77796 0.63402 0.8963 0.0
Co749 Co 0.77745 0.61653 0.94128 0.0
C750 C 0.74776 0.61768 0.9127 0.0
O751 O 0.75525 0.62597 0.89855 0.0
O752 O 0.75498 0.61322 0.92975 0.0
C753 C 0.76632 0.65486 0.86307 0.0
O754 O 0.75351 0.65595 0.87576 0.0
C755 C 0.7633 0.61069 0.9835 0.0
C756 C 0.78237 0.59625 1.00007 0.0
C757 C 0.76658 0.60246 1.00251 0.0
N758 N 0.77636 0.60919 0.97045 0.0
N759 N 0.78777 0.6006 0.9805 0.0
C760 C 0.74838 0.62061 0.97801 0.0
H761 H 0.75154 0.63031 0.96625 0.0
H762 H 0.74306 0.62634 0.99253 0.0
H763 H 0.73901 0.61246 0.9707 0.0
C764 C 0.78775 0.66232 0.92276 0.0
N765 N 0.78391 0.64633 0.92062 0.0
N766 N 0.7836 0.63931 0.93958 0.0
C767 C 0.78707 0.65083 0.95446 0.0
C768 C 0.78987 0.66576 0.94428 0.0
C769 C 0.78768 0.67431 0.90461 0.0
H770 H 0.79515 0.66937 0.89125 0.0
H771 H 0.77488 0.67585 0.89884 0.0
H772 H 0.79247 0.68653 0.90929 0.0
O773 O 0.79257 0.61491 0.89288 0.0
O774 O 0.79269 0.60195 0.92415 0.0
H775 H 0.79404 0.63611 0.98134 0.0
H776 H 0.79348 0.658 0.98663 0.0
C777 C 0.78742 0.64774 0.97799 0.0
H778 H 0.77464 0.64649 0.98394 0.0
H779 H 0.79911 0.59746 0.97387 0.0
O780 O 0.77886 0.64684 0.86931 0.0
C781 C 0.7973 0.60306 0.90468 0.0
Co782 Co 0.61776 0.52811 0.14673 0.0
Co783 Co 0.63555 0.52924 0.19158 0.0
C784 C 0.63512 0.49883 0.16437 0.0
O785 O 0.62657 0.50576 0.15 0.0
O786 O 0.63953 0.50658 0.18104 0.0
C787 C 0.59687 0.51452 0.11501 0.0
O788 O 0.59635 0.50236 0.1288 0.0
C789 C 0.64153 0.51753 0.23543 0.0
C790 C 0.65896 0.53601 0.24778 0.0
C791 C 0.6514 0.52125 0.25298 0.0
N792 N 0.64329 0.52947 0.22068 0.0
N793 N 0.65354 0.5406 0.22834 0.0
C794 C 0.63183 0.50212 0.2318 0.0
H795 H 0.63987 0.49121 0.23384 0.0
H796 H 0.62614 0.50205 0.21576 0.0
H797 H 0.62174 0.50131 0.24363 0.0
C798 C 0.5894 0.53798 0.17308 0.0
N799 N 0.60545 0.53436 0.17096 0.0
N800 N 0.61258 0.53471 0.18985 0.0
C801 C 0.60109 0.53842 0.20467 0.0
C802 C 0.58605 0.54065 0.19451 0.0
C803 C 0.57733 0.53732 0.15504 0.0
H804 H 0.58219 0.54436 0.14126 0.0
H805 H 0.57575 0.52436 0.14999 0.0
H806 H 0.56514 0.54227 0.15958 0.0
O807 O 0.63635 0.54323 0.14231 0.0
O808 O 0.64946 0.54442 0.17343 0.0
H809 H 0.61606 0.5462 0.23097 0.0
H810 H 0.59418 0.54621 0.23639 0.0
C811 C 0.60431 0.53965 0.22811 0.0
H812 H 0.60534 0.5271 0.23487 0.0
H813 H 0.65745 0.55094 0.21989 0.0
O814 O 0.6046 0.52757 0.11996 0.0
C815 C 0.64812 0.54856 0.15381 0.0
Co816 Co 0.27927 0.36827 0.39658 0.0
Co817 Co 0.27697 0.38513 0.44196 0.0
C818 C 0.24803 0.38325 0.41254 0.0
O819 O 0.25633 0.37556 0.39858 0.0
O820 O 0.2545 0.38782 0.43006 0.0
C821 C 0.26881 0.34633 0.36385 0.0
O822 O 0.25718 0.34298 0.37774 0.0
C823 C 0.26299 0.39106 0.48471 0.0
C824 C 0.28265 0.40512 0.50075 0.0
C825 C 0.26684 0.39915 0.50365 0.0
N826 N 0.27595 0.39216 0.47136 0.0
N827 N 0.28772 0.40043 0.48117 0.0
C828 C 0.2467 0.3841 0.47822 0.0
H829 H 0.23945 0.39386 0.4702 0.0
H830 H 0.24848 0.37384 0.46678 0.0
H831 H 0.23952 0.37967 0.49207 0.0
C832 C 0.28873 0.33973 0.42291 0.0
N833 N 0.285 0.35575 0.42083 0.0
N834 N 0.28387 0.3625 0.43991 0.0
C835 C 0.28672 0.35077 0.45477 0.0
C836 C 0.28976 0.33594 0.44443 0.0
C837 C 0.29082 0.32807 0.40464 0.0
H838 H 0.29673 0.33441 0.39099 0.0
H839 H 0.27858 0.32353 0.39954 0.0
H840 H 0.29841 0.31733 0.40938 0.0
O841 O 0.2934 0.38777 0.39389 0.0
O842 O 0.29181 0.40048 0.42526 0.0
H843 H 0.29234 0.36416 0.48325 0.0
H844 H 0.28892 0.34241 0.48748 0.0
C845 C 0.28494 0.35337 0.4783 0.0
H846 H 0.27188 0.35597 0.48205 0.0
H847 H 0.29901 0.40335 0.47424 0.0
O848 O 0.28035 0.35606 0.36916 0.0
C849 C 0.29714 0.39973 0.40607 0.0
Co850 Co 0.38336 0.52589 0.14651 0.0
Co851 Co 0.36602 0.52458 0.1919 0.0
C852 C 0.36796 0.49508 0.16321 0.0
O853 O 0.37534 0.50317 0.14878 0.0
O854 O 0.36379 0.50178 0.18076 0.0
C855 C 0.4041 0.51405 0.11331 0.0
O856 O 0.40542 0.50146 0.12633 0.0
C857 C 0.35604 0.51167 0.23437 0.0
C858 C 0.35164 0.53435 0.25284 0.0
C859 C 0.35169 0.51736 0.25456 0.0
N860 N 0.35882 0.52467 0.22149 0.0
N861 N 0.35602 0.53819 0.23266 0.0
C862 C 0.35584 0.49426 0.22669 0.0
H863 H 0.34746 0.49336 0.21279 0.0
H864 H 0.36839 0.4907 0.22149 0.0
H865 H 0.35135 0.48554 0.23894 0.0
C866 C 0.41162 0.53579 0.17286 0.0
N867 N 0.39564 0.53183 0.17084 0.0
N868 N 0.38876 0.53112 0.18987 0.0
C869 C 0.40042 0.53428 0.20471 0.0
C870 C 0.41524 0.53748 0.1944 0.0
C871 C 0.42342 0.53612 0.15452 0.0
H872 H 0.41817 0.54354 0.14132 0.0
H873 H 0.42523 0.5234 0.1486 0.0
H874 H 0.43557 0.54117 0.15903 0.0
O875 O 0.36438 0.54047 0.14322 0.0
O876 O 0.35104 0.53928 0.1742 0.0
H877 H 0.38873 0.54368 0.23263 0.0
H878 H 0.40903 0.5357 0.23743 0.0
C879 C 0.39751 0.53382 0.22828 0.0
H880 H 0.39195 0.52185 0.23273 0.0
H881 H 0.3572 0.55006 0.22655 0.0
O882 O 0.39607 0.52664 0.11939 0.0
C883 C 0.35229 0.54452 0.15499 0.0
Co884 Co 0.2217 0.63192 0.8969 0.0
Co885 Co 0.22388 0.61476 0.94209 0.0
C886 C 0.25283 0.61641 0.91275 0.0
O887 O 0.24449 0.6241 0.89883 0.0
O888 O 0.24644 0.61195 0.93037 0.0
C889 C 0.23295 0.6532 0.86399 0.0
O890 O 0.24528 0.65516 0.87731 0.0
C891 C 0.23731 0.60803 0.985 0.0
C892 C 0.21718 0.59413 1.00026 0.0
C893 C 0.23308 0.59971 1.00363 0.0
N894 N 0.22449 0.60742 0.97137 0.0
N895 N 0.21244 0.59924 0.98073 0.0
C896 C 0.25382 0.61474 0.97904 0.0
H897 H 0.25243 0.62496 0.96746 0.0
H898 H 0.26072 0.61917 0.99313 0.0
H899 H 0.26112 0.60483 0.97141 0.0
C900 C 0.21292 0.66042 0.92348 0.0
N901 N 0.21626 0.64433 0.92129 0.0
N902 N 0.21729 0.63748 0.94032 0.0
C903 C 0.21471 0.64922 0.95526 0.0
C904 C 0.21199 0.66415 0.94502 0.0
C905 C 0.21131 0.6722 0.90525 0.0
H906 H 0.20473 0.66625 0.89181 0.0
H907 H 0.22375 0.6758 0.89971 0.0
H908 H 0.20457 0.68345 0.91014 0.0
O909 O 0.20718 0.61277 0.8939 0.0
O910 O 0.20895 0.59972 0.92502 0.0
H911 H 0.20891 0.63584 0.98367 0.0
H912 H 0.21271 0.65753 0.988 0.0
C913 C 0.21649 0.64652 0.97876 0.0
H914 H 0.22951 0.64368 0.98247 0.0
H915 H 0.20117 0.59667 0.9735 0.0
O916 O 0.2207 0.64454 0.86976 0.0
C917 C 0.20346 0.60072 0.90592 0.0
Co918 Co 0.11708 0.47152 0.64814 0.0
Co919 Co 0.13523 0.4722 0.69281 0.0
C920 C 0.13532 0.50119 0.6634 0.0
O921 O 0.12661 0.49362 0.64976 0.0
O922 O 0.13964 0.49433 0.68076 0.0
C923 C 0.09606 0.4849 0.61677 0.0
O924 O 0.09568 0.49697 0.6307 0.0
C925 C 0.14342 0.48635 0.73458 0.0
C926 C 0.15373 0.46537 0.75242 0.0
C927 C 0.15041 0.48205 0.75404 0.0
N928 N 0.14286 0.47295 0.72196 0.0
N929 N 0.14901 0.46042 0.73277 0.0
C930 C 0.13637 0.50269 0.72848 0.0
H931 H 0.12588 0.50102 0.71735 0.0
H932 H 0.13215 0.50953 0.74281 0.0
H933 H 0.14595 0.51006 0.72029 0.0
C934 C 0.08861 0.46451 0.67553 0.0
N935 N 0.10482 0.46693 0.67289 0.0
N936 N 0.11207 0.4673 0.69171 0.0
C937 C 0.10047 0.46521 0.70696 0.0
C938 C 0.08525 0.46348 0.69714 0.0
C939 C 0.0764 0.46379 0.65768 0.0
H940 H 0.08164 0.45692 0.64399 0.0
H941 H 0.07351 0.47648 0.65239 0.0
H942 H 0.06482 0.45777 0.66287 0.0
O943 O 0.13517 0.45571 0.6446 0.0
O944 O 0.14887 0.45618 0.67538 0.0
H945 H 0.11389 0.45775 0.73468 0.0
H946 H 0.09258 0.4629 0.73981 0.0
C947 C 0.10369 0.46617 0.73043 0.0
H948 H 0.1075 0.47886 0.73462 0.0
H949 H 0.15008 0.44852 0.72671 0.0
O950 O 0.10373 0.47177 0.62153 0.0
C951 C 0.14712 0.45099 0.65622 0.0
Co952 Co 0.27737 0.63397 0.60832 0.0
Co953 Co 0.27843 0.61725 0.56276 0.0
C954 C 0.24832 0.61645 0.59065 0.0
O955 O 0.2552 0.62488 0.60518 0.0
O956 O 0.25599 0.61253 0.5737 0.0
C957 C 0.26424 0.65389 0.64169 0.0
O958 O 0.25173 0.65491 0.6285 0.0
C959 C 0.26603 0.61193 0.51907 0.0
C960 C 0.28477 0.59542 0.50534 0.0
C961 C 0.26969 0.60264 0.501 0.0
N962 N 0.27833 0.61021 0.53333 0.0
N963 N 0.28961 0.6005 0.52484 0.0
C964 C 0.2503 0.6208 0.52375 0.0
H965 H 0.2509 0.62711 0.5394 0.0
H966 H 0.24794 0.63023 0.51139 0.0
H967 H 0.23991 0.61196 0.52355 0.0
C968 C 0.28543 0.66327 0.58292 0.0
N969 N 0.28286 0.647 0.58449 0.0
N970 N 0.28337 0.64034 0.56531 0.0
C971 C 0.28632 0.65237 0.55089 0.0
C972 C 0.28756 0.66729 0.56163 0.0
C973 C 0.28543 0.67485 0.60149 0.0
H974 H 0.29214 0.66928 0.61509 0.0
H975 H 0.27256 0.67719 0.60651 0.0
H976 H 0.29127 0.68675 0.59728 0.0
O977 O 0.29291 0.61563 0.61157 0.0
O978 O 0.29413 0.60317 0.58001 0.0
H979 H 0.29378 0.63862 0.52336 0.0
H980 H 0.29221 0.6606 0.519 0.0
C981 C 0.28669 0.64987 0.52725 0.0
H982 H 0.27394 0.64824 0.52137 0.0
H983 H 0.30024 0.59672 0.53277 0.0
O984 O 0.27713 0.64629 0.63574 0.0
C985 C 0.2984 0.60423 0.59962 0.0
Co986 Co 0.11798 0.52807 0.36208 0.0
Co987 Co 0.13489 0.52665 0.31648 0.0
C988 C 0.13498 0.49776 0.34604 0.0
O989 O 0.12734 0.50584 0.36026 0.0
O990 O 0.1386 0.50419 0.32812 0.0
C991 C 0.09788 0.51515 0.39495 0.0
O992 O 0.09767 0.50249 0.38192 0.0
C993 C 0.14561 0.51361 0.27454 0.0
C994 C 0.1477 0.53597 0.25482 0.0
C995 C 0.14947 0.51905 0.25418 0.0
N996 N 0.14182 0.52667 0.28684 0.0
N997 N 0.14318 0.54002 0.2749 0.0
C998 C 0.14448 0.49612 0.28173 0.0
H999 H 0.15482 0.49352 0.29277 0.0
H1000 H 0.13274 0.49419 0.29038 0.0
H1001 H 0.14507 0.48742 0.26811 0.0
C1002 C 0.08894 0.53545 0.33592 0.0
N1003 N 0.10517 0.53273 0.33779 0.0
N1004 N 0.11186 0.53198 0.31865 0.0
C1005 C 0.09984 0.53398 0.30393 0.0
C1006 C 0.08494 0.53622 0.31445 0.0
C1007 C 0.0774 0.53699 0.35443 0.0
H1008 H 0.08331 0.54411 0.36743 0.0
H1009 H 0.07444 0.52455 0.36054 0.0
H1010 H 0.06581 0.54318 0.34967 0.0
O1011 O 0.13618 0.54371 0.36481 0.0
O1012 O 0.1493 0.54227 0.33368 0.0
H1013 H 0.10922 0.54286 0.27429 0.0
H1014 H 0.09039 0.53128 0.27179 0.0
C1015 C 0.10229 0.5321 0.28039 0.0
H1016 H 0.10962 0.52088 0.27712 0.0
H1017 H 0.14082 0.55191 0.28039 0.0
O1018 O 0.10515 0.52826 0.38912 0.0
C1019 C 0.14803 0.54789 0.3527 0.0
Co1020 Co 0.22024 0.37006 0.11213 0.0
Co1021 Co 0.22461 0.38612 0.06642 0.0
C1022 C 0.25235 0.38457 0.09738 0.0
O1023 O 0.24324 0.3775 0.11105 0.0
O1024 O 0.2468 0.38872 0.07915 0.0
C1025 C 0.23014 0.3481 0.14492 0.0
O1026 O 0.24174 0.34464 0.13102 0.0
C1027 C 0.23913 0.39544 0.02467 0.0
C1028 C 0.21719 0.39904 0.00449 0.0
C1029 C 0.2342 0.39963 0.00417 0.0
N1030 N 0.22568 0.39263 0.0367 0.0
N1031 N 0.2126 0.39486 0.02447 0.0
C1032 C 0.2564 0.39307 0.03225 0.0
H1033 H 0.25723 0.38173 0.04201 0.0
H1034 H 0.26514 0.39214 0.01871 0.0
H1035 H 0.25992 0.40371 0.04233 0.0
C1036 C 0.21169 0.34114 0.08605 0.0
N1037 N 0.21539 0.35718 0.08791 0.0
N1038 N 0.21768 0.3635 0.06876 0.0
C1039 C 0.21586 0.3514 0.05412 0.0
C1040 C 0.21203 0.33684 0.06465 0.0
C1041 C 0.20827 0.32992 0.10446 0.0
H1042 H 0.20207 0.33676 0.11748 0.0
H1043 H 0.22004 0.3249 0.11056 0.0
H1044 H 0.20042 0.31946 0.0994 0.0
O1045 O 0.20578 0.38935 0.11365 0.0
O1046 O 0.20958 0.4018 0.08237 0.0
H1047 H 0.2098 0.36086 0.02334 0.0
H1048 H 0.22017 0.34126 0.02263 0.0
C1049 C 0.21957 0.35332 0.03087 0.0
H1050 H 0.23145 0.35983 0.02885 0.0
H1051 H 0.20052 0.39338 0.02973 0.0
O1052 O 0.21874 0.35801 0.13965 0.0
C1053 C 0.20307 0.40124 0.10094 0.0
Co1054 Co 0.38071 0.47072 0.8585 0.0
Co1055 Co 0.36455 0.47471 0.81293 0.0
C1056 C 0.36607 0.50267 0.84346 0.0
O1057 O 0.37279 0.49362 0.85749 0.0
O1058 O 0.36247 0.49709 0.82508 0.0
C1059 C 0.40206 0.4814 0.89136 0.0
O1060 O 0.40433 0.49352 0.87781 0.0
C1061 C 0.35927 0.48939 0.77062 0.0
C1062 C 0.34507 0.47036 0.75362 0.0
C1063 C 0.3513 0.48615 0.75138 0.0
N1064 N 0.35757 0.4763 0.7836 0.0
N1065 N 0.34913 0.46492 0.77327 0.0
C1066 C 0.3691 0.50429 0.77639 0.0
H1067 H 0.37854 0.50116 0.78851 0.0
H1068 H 0.37516 0.50954 0.76204 0.0
H1069 H 0.3608 0.51369 0.78331 0.0
C1070 C 0.4091 0.46057 0.83235 0.0
N1071 N 0.39337 0.46546 0.83419 0.0
N1072 N 0.38692 0.46725 0.81502 0.0
C1073 C 0.39861 0.46382 0.80033 0.0
C1074 C 0.41299 0.45942 0.81085 0.0
C1075 C 0.42048 0.45835 0.85092 0.0
H1076 H 0.41408 0.45164 0.86389 0.0
H1077 H 0.42411 0.47061 0.85705 0.0
H1078 H 0.43179 0.45158 0.84644 0.0
O1079 O 0.36152 0.45616 0.86043 0.0
O1080 O 0.34877 0.46006 0.82934 0.0
H1081 H 0.3846 0.45865 0.77218 0.0
H1082 H 0.40662 0.45936 0.76793 0.0
C1083 C 0.39617 0.46495 0.77671 0.0
H1084 H 0.3951 0.47806 0.77207 0.0
H1085 H 0.34591 0.45355 0.77975 0.0
O1086 O 0.39311 0.46931 0.88578 0.0
C1087 C 0.34949 0.45354 0.8479 0.0
H1088 H 0.12992 0.00379 0.22917 0.0
H1089 H 0.13792 0.02256 0.2006 0.0
H1090 H 0.18735 0.00346 0.20272 0.0
H1091 H 0.17961 0.98526 0.23211 0.0
H1092 H 0.18729 0.03637 0.2033 0.0
H1093 H 0.14677 0.01503 0.13788 0.0
H1094 H 0.13564 0.02015 0.16171 0.0
H1095 H 0.14994 0.00327 0.16198 0.0
C1096 C 0.14255 0.00376 0.2239 0.0
C1097 C 0.15423 0.99335 0.23348 0.0
C1098 C 0.14704 0.01426 0.20713 0.0
C1099 C 0.16323 0.01437 0.19931 0.0
C1100 C 0.17477 0.00361 0.20842 0.0
H1101 H 0.2028 0.07083 0.09107 0.0
H1102 H 0.19169 0.04845 0.1132 0.0
C1103 C 0.17031 0.99317 0.2252 0.0
C1104 C 0.16848 0.02648 0.18279 0.0
H1105 H 0.16001 0.04107 0.13269 0.0
C1106 C 0.18138 0.03727 0.18781 0.0
C1107 C 0.16094 0.0276 0.16243 0.0
C1108 C 0.14766 0.01578 0.15556 0.0
C1109 C 0.18665 0.04937 0.17337 0.0
C1110 C 0.1786 0.05102 0.15344 0.0
C1111 C 0.16603 0.03994 0.14808 0.0
C1112 C 0.18301 0.06447 0.13838 0.0
C1113 C 0.20089 0.06028 0.1796 0.0
C1114 C 0.1811 0.0809 0.14469 0.0
C1115 C 0.18744 0.09362 0.13219 0.0
C1116 C 0.19569 0.09024 0.11294 0.0
C1117 C 0.19647 0.07386 0.10578 0.0
C1118 C 0.19019 0.06105 0.11845 0.0
H1119 H 0.20842 0.05469 0.1925 0.0
H1120 H 0.20897 0.06279 0.16569 0.0
H1121 H 0.19607 0.07219 0.18556 0.0
H1122 H 0.17529 0.08385 0.15978 0.0
H1123 H 0.18645 0.10611 0.13809 0.0
H1124 H 0.17936 0.94831 0.33699 0.0
H1125 H 0.20171 0.93545 0.35748 0.0
H1126 H 0.16804 0.92578 0.40914 0.0
H1127 H 0.14581 0.93823 0.38887 0.0
H1128 H 0.21329 0.9465 0.39605 0.0
H1129 H 0.19199 0.88248 0.4055 0.0
H1130 H 0.18334 0.8962 0.38582 0.0
H1131 H 0.1763 0.89681 0.41308 0.0
C1132 C 0.17665 0.94303 0.35247 0.0
C1133 C 0.16077 0.94432 0.36125 0.0
C1134 C 0.18945 0.93577 0.36422 0.0
C1135 C 0.18655 0.92945 0.38478 0.0
C1136 C 0.17057 0.9302 0.39316 0.0
H1137 H 0.23323 0.90629 0.50183 0.0
H1138 H 0.21545 0.9115 0.47129 0.0
C1139 C 0.15785 0.93746 0.38154 0.0
C1140 C 0.20028 0.92352 0.39853 0.0
H1141 H 0.21118 0.89227 0.43218 0.0
C1142 C 0.21305 0.9345 0.40359 0.0
C1143 C 0.19998 0.90787 0.40842 0.0
C1144 C 0.18725 0.89512 0.40275 0.0
C1145 C 0.2249 0.93063 0.41918 0.0
C1146 C 0.22406 0.91532 0.42984 0.0
C1147 C 0.21175 0.90406 0.42411 0.0
C1148 C 0.23508 0.91126 0.44804 0.0
C1149 C 0.23771 0.94329 0.42495 0.0
C1150 C 0.25208 0.90919 0.44514 0.0
C1151 C 0.26232 0.9059 0.46264 0.0
C1152 C 0.25575 0.90446 0.48336 0.0
C1153 C 0.23871 0.90655 0.48612 0.0
C1154 C 0.2285 0.90977 0.46865 0.0
H1155 H 0.23509 0.95546 0.41767 0.0
H1156 H 0.23845 0.94477 0.44255 0.0
H1157 H 0.24991 0.93909 0.41921 0.0
H1158 H 0.25742 0.91017 0.42935 0.0
H1159 H 0.27539 0.90446 0.45996 0.0
H1160 H 0.28762 0.93438 0.60519 0.0
H1161 H 0.2997 0.95543 0.62817 0.0
H1162 H 0.34296 0.92528 0.63627 0.0
H1163 H 0.33013 0.90366 0.61471 0.0
H1164 H 0.33495 0.93449 0.67211 0.0
H1165 H 0.33162 0.99087 0.6238 0.0
H1166 H 0.31149 0.98216 0.6258 0.0
H1167 H 0.32763 0.97091 0.61241 0.0
C1168 C 0.29993 0.93253 0.61136 0.0
C1169 C 0.30809 0.91757 0.60793 0.0
C1170 C 0.30691 0.94462 0.62446 0.0
C1171 C 0.32247 0.94224 0.63383 0.0
C1172 C 0.33097 0.92755 0.62934 0.0
H1173 H 0.36426 0.02171 0.71309 0.0
H1174 H 0.35818 0.00291 0.68338 0.0
C1175 C 0.32374 0.91524 0.61683 0.0
C1176 C 0.32897 0.95404 0.65016 0.0
H1177 H 0.33287 0.99489 0.66214 0.0
C1178 C 0.33474 0.94769 0.66966 0.0
C1179 C 0.32907 0.97133 0.64717 0.0
C1180 C 0.3248 0.97916 0.62605 0.0
C1181 C 0.34006 0.95799 0.68629 0.0
C1182 C 0.33874 0.97528 0.684 0.0
C1183 C 0.33356 0.98167 0.66424 0.0
C1184 C 0.34244 0.98685 0.70194 0.0
C1185 C 0.34733 0.95008 0.70596 0.0
C1186 C 0.33541 0.9844 0.72223 0.0
C1187 C 0.33928 0.99483 0.73925 0.0
C1188 C 0.34978 0.00832 0.73623 0.0
C1189 C 0.35621 0.01131 0.7158 0.0
C1190 C 0.3527 1.00059 0.69885 0.0
H1191 H 0.35312 0.93808 0.70204 0.0
H1192 H 0.35676 0.95805 0.71352 0.0
H1193 H 0.3374 0.94766 0.71768 0.0
H1194 H 0.32688 0.97441 0.72495 0.0
H1195 H 0.33387 0.9925 0.75476 0.0
H1196 H 0.35447 0.06547 0.89034 0.0
H1197 H 0.33171 0.07743 0.91009 0.0
H1198 H 0.29887 0.06657 0.85791 0.0
H1199 H 0.32176 0.05408 0.838 0.0
H1200 H 0.31018 0.10256 0.90288 0.0
H1201 H 0.27691 0.04284 0.90759 0.0
H1202 H 0.29783 0.04429 0.89823 0.0
H1203 H 0.28114 0.05041 0.88121 0.0
C1204 C 0.34246 0.06573 0.88286 0.0
C1205 C 0.33994 0.0586 0.86263 0.0
C1206 C 0.32943 0.07263 0.89422 0.0
C1207 C 0.31348 0.07261 0.88574 0.0
C1208 C 0.31101 0.0664 0.86501 0.0
H1209 H 0.22573 0.09831 0.96238 0.0
H1210 H 0.24324 0.09235 0.93137 0.0
C1211 C 0.32413 0.05943 0.85354 0.0
C1212 C 0.29961 0.07844 0.89934 0.0
H1213 H 0.26592 0.06495 0.92696 0.0
C1214 C 0.30038 0.09439 0.90791 0.0
C1215 C 0.28679 0.06779 0.90597 0.0
C1216 C 0.28559 0.05033 0.89795 0.0
C1217 C 0.28908 0.09978 0.92338 0.0
C1218 C 0.27673 0.0889 0.93065 0.0
C1219 C 0.27542 0.07325 0.92136 0.0
C1220 C 0.26602 0.09303 0.94914 0.0
C1221 C 0.29063 0.11697 0.93216 0.0
C1222 C 0.27297 0.09509 0.96947 0.0
C1223 C 0.26302 0.09833 0.98719 0.0
C1224 C 0.24587 0.09979 0.98499 0.0
C1225 C 0.23891 0.0975 0.96461 0.0
C1226 C 0.24889 0.09411 0.94686 0.0
H1227 H 0.2976 0.1251 0.92115 0.0
H1228 H 0.27834 0.12246 0.93512 0.0
H1229 H 0.29734 0.11653 0.94758 0.0
H1230 H 0.28611 0.0938 0.97173 0.0
H1231 H 0.26883 0.0991 1.00266 0.0
H1232 H 0.19701 0.92856 0.91847 0.0
H1233 H 0.18413 0.95064 0.89752 0.0
H1234 H 0.17577 0.91666 0.84581 0.0
H1235 H 0.18829 0.89469 0.86652 0.0
H1236 H 0.19558 0.9622 0.85887 0.0
H1237 H 0.13192 0.93993 0.8487 0.0
H1238 H 0.14559 0.93167 0.86874 0.0
H1239 H 0.14664 0.92446 0.84157 0.0
C1240 C 0.19203 0.92571 0.90286 0.0
C1241 C 0.19369 0.90983 0.89421 0.0
C1242 C 0.18475 0.93837 0.89086 0.0
C1243 C 0.17879 0.9353 0.87015 0.0
C1244 C 0.17992 0.91931 0.86188 0.0
H1245 H 0.15432 0.98198 0.7531 0.0
H1246 H 0.15995 0.96409 0.78343 0.0
C1247 C 0.18721 0.90674 0.87375 0.0
C1248 C 0.17279 0.9489 0.85622 0.0
H1249 H 0.14153 0.9594 0.82238 0.0
C1250 C 0.18363 0.96179 0.85122 0.0
C1251 C 0.1572 0.94837 0.84619 0.0
C1252 C 0.14461 0.93545 0.85174 0.0
C1253 C 0.17967 0.97359 0.8356 0.0
C1254 C 0.16439 0.97259 0.82487 0.0
C1255 C 0.15329 0.9601 0.8305 0.0
C1256 C 0.16016 0.98367 0.80678 0.0
C1257 C 0.19221 0.98653 0.82992 0.0
C1258 C 0.1582 0.00067 0.80979 0.0
C1259 C 0.15471 0.01097 0.79241 0.0
C1260 C 0.15292 0.00445 0.77172 0.0
C1261 C 0.15489 0.98741 0.76883 0.0
C1262 C 0.15833 0.97714 0.78618 0.0
H1263 H 0.20448 0.98385 0.83691 0.0
H1264 H 0.19351 0.98757 0.81232 0.0
H1265 H 0.18805 0.99863 0.83607 0.0
H1266 H 0.15941 0.00598 0.82558 0.0
H1267 H 0.15337 0.02405 0.79518 0.0
H1268 H 0.24867 0.87902 0.03021 0.0
H1269 H 0.26722 0.88705 0.05918 0.0
H1270 H 0.2516 0.93747 0.05248 0.0
H1271 H 0.23371 0.92958 0.02274 0.0
H1272 H 0.28427 0.93539 0.05358 0.0
H1273 H 0.25898 0.89906 0.12068 0.0
H1274 H 0.26401 0.88656 0.09799 0.0
H1275 H 0.24804 0.90179 0.09584 0.0
C1276 C 0.24942 0.89185 0.03466 0.0
C1277 C 0.24017 0.90376 0.02371 0.0
C1278 C 0.25975 0.89638 0.05159 0.0
C1279 C 0.26076 0.91287 0.0582 0.0
C1280 C 0.25106 0.92467 0.04772 0.0
H1281 H 0.31743 0.95284 0.16615 0.0
H1282 H 0.29482 0.94235 0.14389 0.0
C1283 C 0.2408 0.92015 0.03075 0.0
C1284 C 0.27279 0.91806 0.07487 0.0
H1285 H 0.28578 0.91071 0.126 0.0
C1286 C 0.28447 0.93006 0.06946 0.0
C1287 C 0.27301 0.91129 0.09573 0.0
C1288 C 0.26023 0.89909 0.10301 0.0
C1289 C 0.29658 0.93515 0.08401 0.0
C1290 C 0.29732 0.9278 0.10448 0.0
C1291 C 0.28535 0.91617 0.11021 0.0
C1292 C 0.31073 0.93192 0.11974 0.0
C1293 C 0.30846 0.94844 0.07731 0.0
C1294 C 0.32713 0.92883 0.11409 0.0
C1295 C 0.33998 0.93483 0.12666 0.0
C1296 C 0.33676 0.9439 0.14534 0.0
C1297 C 0.32033 0.94587 0.1519 0.0
C1298 C 0.3074 0.93994 0.13915 0.0
H1299 H 0.30356 0.95584 0.06382 0.0
H1300 H 0.31125 0.95684 0.09082 0.0
H1301 H 0.32013 0.94269 0.072 0.0
H1302 H 0.33 0.92236 0.09944 0.0
H1303 H 0.35248 0.93292 0.12125 0.0
H1304 H 0.31883 0.10597 0.37158 0.0
H1305 H 0.32932 0.08371 0.3493 0.0
H1306 H 0.30974 0.04807 0.39341 0.0
H1307 H 0.29934 0.07043 0.41613 0.0
H1308 H 0.34109 0.03911 0.37481 0.0
H1309 H 0.29535 0.05781 0.31381 0.0
H1310 H 0.30875 0.07417 0.32203 0.0
H1311 H 0.29471 0.06523 0.34094 0.0
C1312 C 0.31703 0.09341 0.37683 0.0
C1313 C 0.30808 0.08998 0.39554 0.0
C1314 C 0.32298 0.08069 0.364 0.0
C1315 C 0.31996 0.06423 0.36939 0.0
C1316 C 0.31211 0.0607 0.38886 0.0
H1317 H 0.31948 0.98719 0.27257 0.0
H1318 H 0.31254 0.00551 0.30228 0.0
C1319 C 0.30623 0.07348 0.40188 0.0
C1320 C 0.32384 0.05096 0.35382 0.0
H1321 H 0.3153 0.03823 0.30302 0.0
C1322 C 0.33541 0.03883 0.35915 0.0
C1323 C 0.31619 0.05043 0.33351 0.0
C1324 C 0.30294 0.0625 0.32725 0.0
C1325 C 0.3399 0.02649 0.34446 0.0
C1326 C 0.33279 0.02643 0.32379 0.0
C1327 C 0.32089 0.03832 0.31875 0.0
C1328 C 0.33741 0.01427 0.30701 0.0
C1329 C 0.35204 0.01351 0.35133 0.0
C1330 C 0.35372 0.01292 0.29982 0.0
C1331 C 0.35771 0.00236 0.28289 0.0
C1332 C 0.34541 0.99321 0.27253 0.0
C1333 C 0.32919 0.99422 0.28011 0.0
C1334 C 0.32521 0.00471 0.29707 0.0
H1335 H 0.35246 0.01229 0.36899 0.0
H1336 H 0.34894 0.00135 0.34432 0.0
H1337 H 0.3645 0.01704 0.3458 0.0
H1338 H 0.36334 0.02028 0.30698 0.0
H1339 H 0.37043 0.00133 0.27799 0.0
H1340 H 0.18138 0.05109 0.6685 0.0
H1341 H 0.20382 0.06375 0.64791 0.0
H1342 H 0.16967 0.07563 0.59757 0.0
H1343 H 0.1474 0.06342 0.61794 0.0
H1344 H 0.21474 0.05371 0.60854 0.0
H1345 H 0.19444 0.11829 0.60271 0.0
H1346 H 0.1858 0.10415 0.6219 0.0
H1347 H 0.17836 0.10451 0.5948 0.0
C1348 C 0.17861 0.05678 0.65329 0.0
C1349 C 0.16256 0.05623 0.64492 0.0
C1350 C 0.19146 0.06393 0.64148 0.0
C1351 C 0.18842 0.07087 0.62127 0.0
C1352 C 0.17232 0.07075 0.61329 0.0
H1353 H 0.23392 0.09586 0.50398 0.0
H1354 H 0.21646 0.0898 0.53459 0.0
C1355 C 0.15957 0.06361 0.62496 0.0
C1356 C 0.20207 0.07693 0.60747 0.0
H1357 H 0.21292 0.1089 0.57493 0.0
C1358 C 0.21457 0.06591 0.60156 0.0
C1359 C 0.20188 0.09286 0.59831 0.0
C1360 C 0.18948 0.10567 0.60494 0.0
C1361 C 0.22623 0.07002 0.58583 0.0
C1362 C 0.22545 0.08561 0.57587 0.0
C1363 C 0.21342 0.0969 0.58245 0.0
C1364 C 0.23626 0.09001 0.5576 0.0
C1365 C 0.23881 0.05739 0.57918 0.0
C1366 C 0.25323 0.09231 0.56035 0.0
C1367 C 0.26328 0.09612 0.54283 0.0
C1368 C 0.25653 0.09783 0.52224 0.0
C1369 C 0.23952 0.09541 0.51961 0.0
C1370 C 0.2295 0.0917 0.53712 0.0
H1371 H 0.23635 0.04513 0.58632 0.0
H1372 H 0.23901 0.05614 0.56152 0.0
H1373 H 0.2512 0.06148 0.58435 0.0
H1374 H 0.25871 0.09114 0.57604 0.0
H1375 H 0.27634 0.09777 0.54541 0.0
H1376 H 0.82844 0.99632 0.75702 0.0
H1377 H 0.81995 0.97868 0.78663 0.0
H1378 H 0.85538 0.0025 0.82763 0.0
H1379 H 0.86312 0.02087 0.79817 0.0
H1380 H 0.83564 0.95666 0.8062 0.0
H1381 H 0.8178 0.00235 0.86739 0.0
H1382 H 0.82207 0.00808 0.84015 0.0
H1383 H 0.83864 0.00504 0.85883 0.0
C1384 C 0.83424 0.99789 0.77246 0.0
C1385 C 0.84641 0.0099 0.7754 0.0
C1386 C 0.82942 0.9878 0.78939 0.0
C1387 C 0.83684 0.98929 0.8096 0.0
C1388 C 0.84906 0.00135 0.8125 0.0
H1389 H 0.82741 0.90352 0.89315 0.0
H1390 H 0.8391 0.92589 0.87183 0.0
C1391 C 0.8536 0.01176 0.79562 0.0
C1392 C 0.83237 0.97751 0.82697 0.0
H1393 H 0.82016 0.97458 0.87913 0.0
C1394 C 0.83218 0.96065 0.8221 0.0
C1395 C 0.82767 0.9826 0.84776 0.0
C1396 C 0.82638 1.00051 0.8538 0.0
C1397 C 0.82726 0.94882 0.83711 0.0
C1398 C 0.82324 0.95381 0.85819 0.0
C1399 C 0.82351 0.97067 0.86316 0.0
C1400 C 0.81783 0.94176 0.87477 0.0
C1401 C 0.82573 0.93119 0.82977 0.0
C1402 C 0.8027 0.94384 0.88533 0.0
C1403 C 0.79637 0.93135 0.89837 0.0
C1404 C 0.80496 0.91649 0.9008 0.0
C1405 C 0.82057 0.91488 0.8915 0.0
C1406 C 0.82712 0.92756 0.87903 0.0
H1407 H 0.82424 0.93036 0.81216 0.0
H1408 H 0.83709 0.9244 0.83403 0.0
H1409 H 0.81507 0.92499 0.83736 0.0
H1410 H 0.79532 0.95471 0.88251 0.0
H1411 H 0.78421 0.93279 0.90517 0.0
H1412 H 0.76639 0.11234 0.51472 0.0
H1413 H 0.78357 0.10417 0.54487 0.0
H1414 H 0.74315 0.07646 0.57114 0.0
H1415 H 0.72618 0.08383 0.54024 0.0
H1416 H 0.78085 0.10936 0.58694 0.0
H1417 H 0.77865 0.04211 0.57164 0.0
H1418 H 0.7713 0.05696 0.55253 0.0
H1419 H 0.75885 0.05144 0.57516 0.0
C1420 C 0.76129 0.10409 0.52654 0.0
C1421 C 0.74514 0.09812 0.52456 0.0
C1422 C 0.77106 0.09964 0.54401 0.0
C1423 C 0.76483 0.08933 0.56007 0.0
C1424 C 0.74844 0.08399 0.55865 0.0
H1425 H 0.81896 0.04659 0.66887 0.0
H1426 H 0.79609 0.05812 0.64798 0.0
C1427 C 0.7387 0.08832 0.54105 0.0
C1428 C 0.7756 0.08427 0.5782 0.0
H1429 H 0.79292 0.05079 0.60239 0.0
C1430 C 0.7834 0.09654 0.59037 0.0
C1431 C 0.77894 0.06754 0.58279 0.0
C1432 C 0.77163 0.05374 0.56975 0.0
C1433 C 0.79463 0.09254 0.60663 0.0
C1434 C 0.79823 0.07586 0.61084 0.0
C1435 C 0.79003 0.06358 0.59924 0.0
C1436 C 0.81173 0.07087 0.62547 0.0
C1437 C 0.80276 0.10621 0.61902 0.0
C1438 C 0.82805 0.07445 0.61997 0.0
C1439 C 0.84105 0.0678 0.6317 0.0
C1440 C 0.83804 0.05749 0.64931 0.0
C1441 C 0.82167 0.05464 0.65556 0.0
C1442 C 0.80861 0.06113 0.64356 0.0
H1443 H 0.79563 0.11783 0.61801 0.0
H1444 H 0.80423 0.10278 0.63608 0.0
H1445 H 0.81517 0.10851 0.61229 0.0
H1446 H 0.83076 0.08172 0.60592 0.0
H1447 H 0.85351 0.0702 0.62644 0.0
H1448 H 0.67179 0.1005 0.39388 0.0
H1449 H 0.65928 0.07834 0.373 0.0
H1450 H 0.70261 0.04862 0.38288 0.0
H1451 H 0.71442 0.07028 0.40517 0.0
H1452 H 0.66832 0.0689 0.3375 0.0
H1453 H 0.67056 0.01309 0.38715 0.0
H1454 H 0.67429 0.03321 0.39821 0.0
H1455 H 0.69068 0.02187 0.38551 0.0
C1456 C 0.67827 0.08892 0.39233 0.0
C1457 C 0.69389 0.08693 0.40143 0.0
C1458 C 0.67121 0.07629 0.38021 0.0
C1459 C 0.67986 0.0616 0.37634 0.0
C1460 C 0.69532 0.05947 0.38608 0.0
H1461 H 0.66993 0.00986 0.25628 0.0
H1462 H 0.67727 0.02776 0.28616 0.0
C1463 C 0.70214 0.07191 0.39881 0.0
C1464 C 0.67368 0.0496 0.36008 0.0
H1465 H 0.66954 0.00862 0.34891 0.0
C1466 C 0.66835 0.05574 0.34025 0.0
C1467 C 0.67341 0.03235 0.36346 0.0
C1468 C 0.67737 0.02479 0.38484 0.0
C1469 C 0.66324 0.04527 0.32371 0.0
C1470 C 0.66429 0.02801 0.32648 0.0
C1471 C 0.66906 0.02182 0.3465 0.0
C1472 C 0.66064 0.01629 0.30872 0.0
C1473 C 0.65649 0.05296 0.30359 0.0
C1474 C 0.64964 0.00312 0.31165 0.0
C1475 C 0.64585 0.99252 0.29466 0.0
C1476 C 0.65278 0.99508 0.27441 0.0
C1477 C 0.66414 0.00788 0.27165 0.0
C1478 C 0.66823 0.0182 0.28869 0.0
H1479 H 0.65099 0.0652 0.3069 0.0
H1480 H 0.66666 0.05483 0.29203 0.0
H1481 H 0.64696 0.04509 0.29607 0.0
H1482 H 0.64374 0.00123 0.32695 0.0
H1483 H 0.63713 0.98264 0.29718 0.0
H1484 H 0.7323 0.89004 0.01339 0.0
H1485 H 0.71487 0.89819 0.04333 0.0
H1486 H 0.75461 0.92711 0.06916 0.0
H1487 H 0.7718 0.91976 0.03849 0.0
H1488 H 0.71764 0.89355 0.0855 0.0
H1489 H 0.71836 0.96063 0.06903 0.0
H1490 H 0.72606 0.94574 0.05019 0.0
H1491 H 0.7384 0.95186 0.07267 0.0
C1492 C 0.73718 0.89855 0.02505 0.0
C1493 C 0.75321 0.90484 0.02302 0.0
C1494 C 0.72728 0.90299 0.0424 0.0
C1495 C 0.73324 0.91363 0.05829 0.0
C1496 C 0.74951 0.91932 0.0568 0.0
H1497 H 0.67994 0.9566 0.16736 0.0
H1498 H 0.70253 0.94502 0.14604 0.0
C1499 C 0.75937 0.915 0.03933 0.0
C1500 C 0.72237 0.91865 0.07633 0.0
H1501 H 0.7047 0.95204 0.10032 0.0
C1502 C 0.71488 0.90636 0.08877 0.0
C1503 C 0.71875 0.93536 0.08071 0.0
C1504 C 0.72568 0.94916 0.06735 0.0
C1505 C 0.70374 0.9103 0.10517 0.0
C1506 C 0.69993 0.92696 0.10924 0.0
C1507 C 0.70777 0.93927 0.09729 0.0
C1508 C 0.68664 0.93189 0.12422 0.0
C1509 C 0.69598 0.89662 0.11791 0.0
C1510 C 0.67026 0.92807 0.11929 0.0
C1511 C 0.6574 0.93474 0.13128 0.0
C1512 C 0.66062 0.9453 0.14858 0.0
C1513 C 0.67706 0.94835 0.15431 0.0
C1514 C 0.68997 0.94184 0.14206 0.0
H1515 H 0.70322 0.88507 0.11681 0.0
H1516 H 0.69475 0.90013 0.13497 0.0
H1517 H 0.68348 0.89414 0.11155 0.0
H1518 H 0.66737 0.92062 0.10544 0.0
H1519 H 0.64487 0.93219 0.12642 0.0
H1520 H 0.79796 0.07182 0.09152 0.0
H1521 H 0.80907 0.04935 0.11344 0.0
H1522 H 0.82659 0.0846 0.15952 0.0
H1523 H 0.81543 0.10697 0.13802 0.0
H1524 H 0.84092 0.04158 0.13237 0.0
H1525 H 0.79322 0.05601 0.19283 0.0
H1526 H 0.79254 0.06404 0.16598 0.0
H1527 H 0.80577 0.07329 0.1856 0.0
C1528 C 0.80453 0.07479 0.10606 0.0
C1529 C 0.80562 0.09118 0.11315 0.0
C1530 C 0.81082 0.06194 0.1186 0.0
C1531 C 0.81832 0.0653 0.13835 0.0
C1532 C 0.82055 0.08171 0.14457 0.0
H1533 H 0.87089 0.00389 0.22873 0.0
H1534 H 0.86309 0.02272 0.20012 0.0
C1535 C 0.8142 0.09449 0.13219 0.0
C1536 C 0.82265 0.05181 0.15336 0.0
H1537 H 0.81405 0.03726 0.20327 0.0
C1538 C 0.835 0.04054 0.14782 0.0
C1539 C 0.81471 0.05029 0.17338 0.0
C1540 C 0.80071 0.06144 0.17978 0.0
C1541 C 0.83998 0.0281 0.16209 0.0
C1542 C 0.83254 0.02708 0.18252 0.0
C1543 C 0.81987 0.03809 0.18772 0.0
C1544 C 0.83768 0.01487 0.19894 0.0
C1545 C 0.85301 0.01607 0.15507 0.0
C1546 C 0.82601 0.00427 0.20808 0.0
C1547 C 0.83036 0.9938 0.22488 0.0
C1548 C 0.84644 0.99381 0.23312 0.0
C1549 C 0.85825 0.00402 0.22348 0.0
C1550 C 0.85388 0.01455 0.20669 0.0
H1551 H 0.85382 0.01535 0.13738 0.0
H1552 H 0.86513 0.02019 0.16117 0.0
H1553 H 0.85054 0.00357 0.16145 0.0
H1554 H 0.81342 0.00429 0.20242 0.0
H1555 H 0.82096 0.98603 0.23185 0.0
H1556 H 0.68103 0.05192 0.83773 0.0
H1557 H 0.703 0.06536 0.85834 0.0
H1558 H 0.67074 0.0686 0.91281 0.0
H1559 H 0.64887 0.05567 0.89248 0.0
H1560 H 0.68853 0.09686 0.907 0.0
H1561 H 0.72948 0.04201 0.90471 0.0
H1562 H 0.72337 0.05037 0.87936 0.0
H1563 H 0.70825 0.04109 0.89643 0.0
C1564 C 0.67858 0.0557 0.85401 0.0
C1565 C 0.6632 0.05255 0.86346 0.0
C1566 C 0.6912 0.06324 0.86584 0.0
C1567 C 0.68863 0.06771 0.88729 0.0
C1568 C 0.67308 0.0652 0.89635 0.0
H1569 H 0.73241 0.09527 0.00464 0.0
H1570 H 0.71516 0.08893 0.97394 0.0
C1571 C 0.66056 0.05773 0.88464 0.0
C1572 C 0.70201 0.07456 0.90089 0.0
H1573 H 0.73789 0.0642 0.92602 0.0
C1574 C 0.69943 0.0898 0.91093 0.0
C1575 C 0.71628 0.06538 0.90604 0.0
C1576 C 0.71955 0.04875 0.89624 0.0
C1577 C 0.71036 0.09582 0.92645 0.0
C1578 C 0.72418 0.08628 0.93233 0.0
C1579 C 0.72726 0.07146 0.92154 0.0
C1580 C 0.73478 0.09084 0.95076 0.0
C1581 C 0.70687 0.11223 0.9367 0.0
C1582 C 0.75168 0.09368 0.94809 0.0
C1583 C 0.7616 0.09756 0.96571 0.0
C1584 C 0.75481 0.09864 0.98634 0.0
C1585 C 0.73795 0.0954 0.98896 0.0
C1586 C 0.72805 0.09161 0.97138 0.0
H1587 H 0.69895 0.12003 0.92638 0.0
H1588 H 0.70029 0.11022 0.95201 0.0
H1589 H 0.71843 0.11898 0.94017 0.0
H1590 H 0.75718 0.09294 0.93237 0.0
H1591 H 0.77459 0.09976 0.96318 0.0
H1592 H 0.65732 0.02612 0.71162 0.0
H1593 H 0.66369 0.009 0.68037 0.0
H1594 H 0.65877 0.96543 0.71895 0.0
H1595 H 0.653 0.98227 0.7501 0.0
H1596 H 0.6901 0.98588 0.67664 0.0
H1597 H 0.62971 0.9555 0.66624 0.0
H1598 H 0.63223 0.97428 0.68131 0.0
H1599 H 0.63723 0.95478 0.69318 0.0
C1600 C 0.65741 0.01287 0.71337 0.0
C1601 C 0.65403 0.0056 0.7333 0.0
C1602 C 0.66104 0.00312 0.6955 0.0
C1603 C 0.6613 0.98591 0.69719 0.0
C1604 C 0.65811 0.97865 0.71708 0.0
H1605 H 0.6901 0.89768 0.63943 0.0
H1606 H 0.67776 0.92053 0.65862 0.0
C1607 C 0.65461 0.98836 0.73493 0.0
C1608 C 0.66588 0.9754 0.67869 0.0
H1609 H 0.65279 0.94236 0.64962 0.0
C1610 C 0.68186 0.97657 0.67038 0.0
C1611 C 0.6551 0.96329 0.67052 0.0
C1612 C 0.63755 0.96195 0.67811 0.0
C1613 C 0.68772 0.96524 0.65518 0.0
C1614 C 0.67716 0.9526 0.64776 0.0
C1615 C 0.66089 0.95201 0.65528 0.0
C1616 C 0.68332 0.93871 0.63448 0.0
C1617 C 0.70545 0.96626 0.64821 0.0
C1618 C 0.69013 0.94115 0.61407 0.0
C1619 C 0.6973 0.92797 0.60291 0.0
C1620 C 0.69777 0.91216 0.61203 0.0
C1621 C 0.69013 0.90969 0.63195 0.0
C1622 C 0.683 0.92277 0.64298 0.0
H1623 H 0.71267 0.97491 0.65823 0.0
H1624 H 0.71136 0.95396 0.64893 0.0
H1625 H 0.70601 0.97061 0.63144 0.0
H1626 H 0.69022 0.95329 0.60698 0.0
H1627 H 0.70304 0.9303 0.58761 0.0
H1628 H 0.76619 0.88824 0.49303 0.0
H1629 H 0.78296 0.89662 0.46262 0.0
H1630 H 0.74247 0.92523 0.43819 0.0
H1631 H 0.72595 0.91768 0.46945 0.0
H1632 H 0.78014 0.89237 0.42083 0.0
H1633 H 0.77796 0.95936 0.43794 0.0
H1634 H 0.7706 0.94423 0.45666 0.0
H1635 H 0.75815 0.95012 0.43419 0.0
C1636 C 0.76099 0.8967 0.48153 0.0
C1637 C 0.745 0.90293 0.48421 0.0
C1638 C 0.77052 0.90128 0.46392 0.0
C1639 C 0.76419 0.91195 0.44833 0.0
C1640 C 0.74787 0.91744 0.45033 0.0
H1641 H 0.81812 0.95503 0.33946 0.0
H1642 H 0.79537 0.94313 0.36022 0.0
C1643 C 0.73838 0.91301 0.46812 0.0
C1644 C 0.77484 0.91731 0.43023 0.0
H1645 H 0.79225 0.95117 0.40701 0.0
C1646 C 0.78268 0.90524 0.41775 0.0
C1647 C 0.77821 0.93412 0.42611 0.0
C1648 C 0.77093 0.94771 0.43953 0.0
C1649 C 0.794 0.9095 0.40171 0.0
C1650 C 0.79758 0.92624 0.39796 0.0
C1651 C 0.78934 0.93833 0.40982 0.0
C1652 C 0.81111 0.93145 0.38355 0.0
C1653 C 0.80231 0.89607 0.38909 0.0
C1654 C 0.82746 0.92859 0.38959 0.0
C1655 C 0.8404 0.93548 0.37796 0.0
C1656 C 0.83728 0.94527 0.3599 0.0
C1657 C 0.82092 0.94739 0.35315 0.0
C1658 C 0.80792 0.94069 0.36505 0.0
H1659 H 0.7956 0.88422 0.39034 0.0
H1660 H 0.80331 0.89955 0.37199 0.0
H1661 H 0.81494 0.89422 0.39535 0.0
H1662 H 0.8302 0.92167 0.40394 0.0
H1663 H 0.85286 0.93365 0.3836 0.0
H1664 H 0.67868 0.48496 0.73419 0.0
H1665 H 0.68605 0.50372 0.70524 0.0
H1666 H 0.63597 0.52086 0.70223 0.0
H1667 H 0.62833 0.50155 0.73043 0.0
H1668 H 0.65022 0.51705 0.66187 0.0
H1669 H 0.69087 0.55302 0.71557 0.0
H1670 H 0.69593 0.53157 0.71417 0.0
H1671 H 0.67659 0.53786 0.72545 0.0
C1672 C 0.66918 0.49262 0.72727 0.0
C1673 C 0.65301 0.49216 0.73526 0.0
C1674 C 0.67345 0.50343 0.71081 0.0
C1675 C 0.66167 0.51404 0.70195 0.0
C1676 C 0.64533 0.51299 0.70906 0.0
H1677 H 0.68471 0.60515 0.6385 0.0
H1678 H 0.67301 0.58345 0.6606 0.0
C1679 C 0.64104 0.50213 0.72551 0.0
C1680 C 0.66653 0.52665 0.68591 0.0
H1681 H 0.69138 0.56005 0.67897 0.0
C1682 C 0.6592 0.52648 0.66558 0.0
C1683 C 0.67809 0.53909 0.69085 0.0
C1684 C 0.68573 0.54055 0.71274 0.0
C1685 C 0.66327 0.53831 0.65001 0.0
C1686 C 0.67512 0.55051 0.65483 0.0
C1687 C 0.68235 0.55068 0.6752 0.0
C1688 C 0.67999 0.56361 0.63944 0.0
C1689 C 0.65457 0.53788 0.62875 0.0
C1690 C 0.68738 0.5598 0.61974 0.0
C1691 C 0.69395 0.5723 0.60684 0.0
C1692 C 0.69347 0.58879 0.61362 0.0
C1693 C 0.68537 0.59258 0.63284 0.0
C1694 C 0.67869 0.58017 0.64554 0.0
H1695 H 0.643 0.53065 0.62955 0.0
H1696 H 0.65165 0.55049 0.62314 0.0
H1697 H 0.66271 0.532 0.61675 0.0
H1698 H 0.6888 0.54712 0.61482 0.0
H1699 H 0.70027 0.56896 0.59224 0.0
H1700 H 0.67805 0.44725 0.83943 0.0
H1701 H 0.70026 0.43448 0.86028 0.0
H1702 H 0.66642 0.42579 0.91204 0.0
H1703 H 0.64433 0.43814 0.89142 0.0
H1704 H 0.71196 0.44576 0.89871 0.0
H1705 H 0.68977 0.38213 0.90913 0.0
H1706 H 0.68134 0.39579 0.88921 0.0
H1707 H 0.67427 0.39675 0.91645 0.0
C1708 C 0.67527 0.44222 0.85503 0.0
C1709 C 0.65939 0.44373 0.86371 0.0
C1710 C 0.688 0.43501 0.86698 0.0
C1711 C 0.68499 0.42897 0.88766 0.0
C1712 C 0.66902 0.42998 0.89598 0.0
H1713 H 0.73174 0.40596 0.00498 0.0
H1714 H 0.71387 0.41151 0.97458 0.0
C1715 C 0.65638 0.43719 0.88416 0.0
C1716 C 0.69863 0.423 0.90153 0.0
H1717 H 0.7091 0.39189 0.93564 0.0
C1718 C 0.71154 0.43384 0.90644 0.0
C1719 C 0.69811 0.40744 0.91166 0.0
C1720 C 0.68521 0.39481 0.90616 0.0
C1721 C 0.72335 0.42994 0.92207 0.0
C1722 C 0.72229 0.41473 0.93295 0.0
C1723 C 0.70982 0.4036 0.9274 0.0
C1724 C 0.73333 0.41062 0.9511 0.0
C1725 C 0.73636 0.44244 0.92763 0.0
C1726 C 0.75024 0.4081 0.94803 0.0
C1727 C 0.76051 0.40462 0.96544 0.0
C1728 C 0.75405 0.40344 0.98623 0.0
C1729 C 0.7371 0.40604 0.98919 0.0
C1730 C 0.72685 0.40944 0.97181 0.0
H1731 H 0.73394 0.45458 0.92015 0.0
H1732 H 0.73714 0.44407 0.9452 0.0
H1733 H 0.7485 0.43798 0.92196 0.0
H1734 H 0.7555 0.40884 0.93217 0.0
H1735 H 0.77352 0.40279 0.96261 0.0
H1736 H 0.82029 0.51462 0.23512 0.0
H1737 H 0.81295 0.49626 0.20555 0.0
H1738 H 0.86363 0.48132 0.19989 0.0
H1739 H 0.87109 0.50014 0.22897 0.0
H1740 H 0.84769 0.48603 0.15994 0.0
H1741 H 0.81116 0.44622 0.21416 0.0
H1742 H 0.80518 0.46747 0.21423 0.0
H1743 H 0.82516 0.46169 0.22395 0.0
C1744 C 0.82987 0.50749 0.22746 0.0
C1745 C 0.84616 0.50834 0.23483 0.0
C1746 C 0.82566 0.49696 0.21065 0.0
C1747 C 0.83767 0.48711 0.20083 0.0
C1748 C 0.85411 0.48862 0.20741 0.0
H1749 H 0.81902 0.39634 0.13474 0.0
H1750 H 0.83023 0.41844 0.15663 0.0
C1751 C 0.85833 0.49918 0.22423 0.0
C1752 C 0.83298 0.47472 0.18445 0.0
H1753 H 0.81018 0.43989 0.17742 0.0
C1754 C 0.83949 0.47593 0.16372 0.0
C1755 C 0.82243 0.46144 0.18947 0.0
C1756 C 0.81567 0.45897 0.21169 0.0
C1757 C 0.83561 0.46426 0.14784 0.0
C1758 C 0.82484 0.45115 0.15281 0.0
C1759 C 0.81839 0.44997 0.17356 0.0
C1760 C 0.82038 0.43808 0.13717 0.0
C1761 C 0.84335 0.46585 0.12606 0.0
C1762 C 0.81158 0.44171 0.11841 0.0
C1763 C 0.80525 0.42899 0.10564 0.0
C1764 C 0.80744 0.41246 0.11162 0.0
C1765 C 0.81704 0.40893 0.12973 0.0
C1766 C 0.82344 0.42157 0.14231 0.0
H1767 H 0.85421 0.47414 0.12631 0.0
H1768 H 0.84721 0.45364 0.11989 0.0
H1769 H 0.83421 0.47105 0.11479 0.0
H1770 H 0.80882 0.45433 0.11427 0.0
H1771 H 0.79775 0.43211 0.09193 0.0
H1772 H 0.73538 0.569 0.48538 0.0
H1773 H 0.7542 0.5615 0.45642 0.0
H1774 H 0.76935 0.61212 0.45082 0.0
H1775 H 0.74993 0.61977 0.4791 0.0
H1776 H 0.76602 0.59689 0.41138 0.0
H1777 H 0.80357 0.55857 0.46607 0.0
H1778 H 0.78233 0.55266 0.46501 0.0
H1779 H 0.78791 0.57244 0.47561 0.0
C1780 C 0.74266 0.57854 0.47787 0.0
C1781 C 0.74169 0.59487 0.48507 0.0
C1782 C 0.75348 0.57423 0.46142 0.0
C1783 C 0.76356 0.58616 0.45185 0.0
C1784 C 0.76191 0.60265 0.4582 0.0
H1785 H 0.85509 0.56445 0.38853 0.0
H1786 H 0.83316 0.5759 0.41049 0.0
C1787 C 0.75102 0.60697 0.4746 0.0
C1788 C 0.77623 0.58136 0.43585 0.0
H1789 H 0.81039 0.55748 0.42943 0.0
C1790 C 0.77575 0.58829 0.4153 0.0
C1791 C 0.78907 0.57032 0.44106 0.0
C1792 C 0.7909 0.56317 0.46318 0.0
C1793 C 0.78766 0.58434 0.39978 0.0
C1794 C 0.80025 0.57298 0.40486 0.0
C1795 C 0.80072 0.56613 0.42545 0.0
C1796 C 0.81345 0.56824 0.38952 0.0
C1797 C 0.78687 0.59266 0.37829 0.0
C1798 C 0.80978 0.56056 0.36996 0.0
C1799 C 0.82242 0.55415 0.35712 0.0
C1800 C 0.8389 0.55508 0.36384 0.0
C1801 C 0.84253 0.56345 0.38292 0.0
C1802 C 0.82998 0.56998 0.39555 0.0
H1803 H 0.77939 0.60409 0.37887 0.0
H1804 H 0.79937 0.59578 0.37241 0.0
H1805 H 0.78107 0.5842 0.3666 0.0
H1806 H 0.79714 0.55877 0.36511 0.0
H1807 H 0.81921 0.54761 0.34264 0.0
H1808 H 0.6814 0.51777 0.27165 0.0
H1809 H 0.68934 0.49898 0.30032 0.0
H1810 H 0.63929 0.48199 0.30514 0.0
H1811 H 0.6311 0.50136 0.27726 0.0
H1812 H 0.65438 0.48557 0.3449 0.0
H1813 H 0.69385 0.44975 0.28956 0.0
H1814 H 0.699 0.47118 0.29098 0.0
H1815 H 0.67942 0.465 0.28029 0.0
C1816 C 0.67203 0.51014 0.27892 0.0
C1817 C 0.6557 0.51064 0.27153 0.0
C1818 C 0.67663 0.49931 0.29522 0.0
C1819 C 0.66501 0.48872 0.30447 0.0
C1820 C 0.64853 0.48983 0.29798 0.0
H1821 H 0.68837 0.39703 0.36599 0.0
H1822 H 0.67668 0.41909 0.3445 0.0
C1823 C 0.64391 0.50072 0.28171 0.0
C1824 C 0.67018 0.47604 0.32025 0.0
H1825 H 0.69498 0.44248 0.32603 0.0
C1826 C 0.66325 0.47613 0.34081 0.0
C1827 C 0.68159 0.46359 0.31481 0.0
C1828 C 0.6888 0.46222 0.29266 0.0
C1829 C 0.66753 0.46417 0.35611 0.0
C1830 C 0.67922 0.45194 0.35078 0.0
C1831 C 0.68609 0.45188 0.33019 0.0
C1832 C 0.68422 0.43864 0.3658 0.0
C1833 C 0.65923 0.46449 0.37763 0.0
C1834 C 0.69194 0.44217 0.38537 0.0
C1835 C 0.69852 0.42946 0.39793 0.0
C1836 C 0.6977 0.41305 0.39092 0.0
C1837 C 0.68931 0.40955 0.37181 0.0
C1838 C 0.68263 0.42217 0.35946 0.0
H1839 H 0.64771 0.47183 0.3773 0.0
H1840 H 0.65628 0.45185 0.38314 0.0
H1841 H 0.66764 0.47017 0.38947 0.0
H1842 H 0.69359 0.45479 0.39046 0.0
H1843 H 0.70505 0.43257 0.41245 0.0
H1844 H 0.85441 0.44169 0.61526 0.0
H1845 H 0.83248 0.42946 0.5942 0.0
H1846 H 0.79916 0.4344 0.64734 0.0
H1847 H 0.82116 0.44707 0.66865 0.0
H1848 H 0.81284 0.40206 0.59948 0.0
H1849 H 0.77543 0.4594 0.59972 0.0
H1850 H 0.7965 0.459 0.60872 0.0
H1851 H 0.78047 0.45093 0.62541 0.0
C1852 C 0.84248 0.44009 0.62265 0.0
C1853 C 0.83954 0.44556 0.64364 0.0
C1854 C 0.82993 0.43303 0.61053 0.0
C1855 C 0.81408 0.43128 0.619 0.0
C1856 C 0.81122 0.43594 0.64031 0.0
H1857 H 0.72729 0.40408 0.54184 0.0
H1858 H 0.74489 0.40997 0.57278 0.0
C1859 C 0.82385 0.44304 0.65255 0.0
C1860 C 0.80064 0.42518 0.60491 0.0
H1861 H 0.76585 0.4375 0.57874 0.0
C1862 C 0.80245 0.40973 0.59515 0.0
C1863 C 0.78707 0.43519 0.59923 0.0
C1864 C 0.78472 0.45211 0.60864 0.0
C1865 C 0.79138 0.40424 0.57947 0.0
C1866 C 0.77823 0.41453 0.57315 0.0
C1867 C 0.77596 0.42964 0.58358 0.0
C1868 C 0.76752 0.4104 0.55466 0.0
C1869 C 0.79397 0.38753 0.56958 0.0
C1870 C 0.77433 0.409 0.53415 0.0
C1871 C 0.76433 0.40575 0.51649 0.0
C1872 C 0.74726 0.40369 0.51892 0.0
C1873 C 0.74042 0.40537 0.53945 0.0
C1874 C 0.75045 0.40871 0.55715 0.0
H1875 H 0.80132 0.37939 0.58017 0.0
H1876 H 0.78205 0.38145 0.56607 0.0
H1877 H 0.80078 0.38896 0.55434 0.0
H1878 H 0.78739 0.41079 0.53172 0.0
H1879 H 0.76999 0.4054 0.50089 0.0
H1880 H 0.84666 0.47503 0.79555 0.0
H1881 H 0.84062 0.49272 0.82636 0.0
H1882 H 0.83995 0.53512 0.78512 0.0
H1883 H 0.84547 0.51761 0.75438 0.0
H1884 H 0.85917 0.53848 0.82483 0.0
H1885 H 0.79531 0.51571 0.83752 0.0
H1886 H 0.81147 0.50066 0.83564 0.0
H1887 H 0.80611 0.51265 0.81264 0.0
C1888 C 0.84528 0.48814 0.79307 0.0
C1889 C 0.84702 0.49492 0.77252 0.0
C1890 C 0.8418 0.49822 0.81068 0.0
C1891 C 0.83987 0.51525 0.80803 0.0
C1892 C 0.84159 0.52203 0.78757 0.0
H1893 H 0.81403 0.60463 0.86711 0.0
H1894 H 0.82626 0.58214 0.84711 0.0
C1895 C 0.84497 0.51199 0.76999 0.0
C1896 C 0.8358 0.52613 0.82634 0.0
H1897 H 0.8043 0.53737 0.85936 0.0
C1898 C 0.84724 0.53812 0.83257 0.0
C1899 C 0.8203 0.52555 0.83657 0.0
C1900 C 0.80749 0.51304 0.83028 0.0
C1901 C 0.84343 0.54985 0.84829 0.0
C1902 C 0.8276 0.54986 0.85769 0.0
C1903 C 0.81643 0.53738 0.85218 0.0
C1904 C 0.82173 0.56369 0.87129 0.0
C1905 C 0.85637 0.56225 0.85449 0.0
C1906 C 0.81499 0.5609 0.89166 0.0
C1907 C 0.80785 0.57386 0.90325 0.0
C1908 C 0.80712 0.58978 0.89449 0.0
C1909 C 0.81437 0.59256 0.8744 0.0
C1910 C 0.82151 0.57969 0.86295 0.0
H1911 H 0.86894 0.55722 0.85209 0.0
H1912 H 0.85514 0.57329 0.84419 0.0
H1913 H 0.85505 0.5661 0.87141 0.0
H1914 H 0.81491 0.54862 0.89836 0.0
H1915 H 0.80227 0.57125 0.91857 0.0
H1916 H 0.67968 0.55503 0.16758 0.0
H1917 H 0.70189 0.56797 0.14696 0.0
H1918 H 0.6682 0.57671 0.09504 0.0
H1919 H 0.6461 0.56413 0.11542 0.0
H1920 H 0.71363 0.55678 0.10829 0.0
H1921 H 0.69147 0.62052 0.09872 0.0
H1922 H 0.68311 0.60673 0.11853 0.0
H1923 H 0.67599 0.6059 0.09131 0.0
C1924 C 0.67693 0.56009 0.15199 0.0
C1925 C 0.66108 0.55852 0.14318 0.0
C1926 C 0.68965 0.56741 0.14018 0.0
C1927 C 0.68669 0.57351 0.11952 0.0
C1928 C 0.67076 0.57245 0.11108 0.0
H1929 H 0.73307 0.59774 1.00268 0.0
H1930 H 0.71536 0.59217 0.03319 0.0
C1931 C 0.65812 0.56512 0.12276 0.0
C1932 C 0.70035 0.5796 0.1058 0.0
H1933 H 0.71091 0.61101 0.07224 0.0
C1934 C 0.71325 0.56878 0.10075 0.0
C1935 C 0.69987 0.59525 0.09594 0.0
C1936 C 0.68694 0.60782 0.10158 0.0
C1937 C 0.72506 0.57279 0.08519 0.0
C1938 C 0.72406 0.58811 0.07457 0.0
C1939 C 0.7116 0.59922 0.08029 0.0
C1940 C 0.73503 0.59233 0.0564 0.0
C1941 C 0.73801 0.56028 0.07941 0.0
C1942 C 0.75202 0.59447 0.05929 0.0
C1943 C 0.76221 0.59795 0.0418 0.0
C1944 C 0.75559 0.59952 0.02113 0.0
C1945 C 0.73856 0.59736 0.01837 0.0
C1946 C 0.7284 0.59394 0.03583 0.0
H1947 H 0.73546 0.54805 0.08656 0.0
H1948 H 0.73886 0.5589 0.0618 0.0
H1949 H 0.75015 0.56456 0.08529 0.0
H1950 H 0.75739 0.59341 0.07505 0.0
H1951 H 0.77529 0.59943 0.04445 0.0
H1952 H 0.32764 0.52337 0.28394 0.0
H1953 H 0.32039 0.5068 0.3153 0.0
H1954 H 0.35961 0.47299 0.30036 0.0
H1955 H 0.36742 0.48999 0.26987 0.0
H1956 H 0.30942 0.47628 0.31623 0.0
H1957 H 0.36698 0.47803 0.36288 0.0
H1958 H 0.36335 0.49163 0.34061 0.0
H1959 H 0.37074 0.47101 0.3362 0.0
C1960 C 0.33483 0.51251 0.28755 0.0
C1961 C 0.34779 0.50771 0.27408 0.0
C1962 C 0.33066 0.50302 0.30545 0.0
C1963 C 0.33951 0.48866 0.3104 0.0
C1964 C 0.35275 0.48414 0.29723 0.0
H1965 H 0.31747 0.39876 0.37158 0.0
H1966 H 0.32845 0.422 0.35143 0.0
C1967 C 0.35699 0.49369 0.27948 0.0
C1968 C 0.33419 0.47775 0.32827 0.0
H1969 H 0.34834 0.45568 0.37105 0.0
C1970 C 0.31787 0.47206 0.32844 0.0
C1971 C 0.34515 0.47223 0.34437 0.0
C1972 C 0.36247 0.4787 0.34615 0.0
C1973 C 0.31249 0.46045 0.34352 0.0
C1974 C 0.32368 0.45431 0.3588 0.0
C1975 C 0.3398 0.46039 0.35923 0.0
C1976 C 0.31908 0.44047 0.37303 0.0
C1977 C 0.29502 0.45427 0.34258 0.0
C1978 C 0.31061 0.44317 0.39226 0.0
C1979 C 0.30439 0.42984 0.404 0.0
C1980 C 0.3064 0.41365 0.3965 0.0
C1981 C 0.31564 0.41106 0.37778 0.0
C1982 C 0.32195 0.42432 0.36623 0.0
H1983 H 0.28767 0.4606 0.33008 0.0
H1984 H 0.295 0.44087 0.33924 0.0
H1985 H 0.28896 0.45615 0.35828 0.0
H1986 H 0.30824 0.45559 0.3977 0.0
H1987 H 0.29722 0.43226 0.41823 0.0
H1988 H 0.35522 0.56599 0.12207 0.0
H1989 H 0.33327 0.57756 0.10026 0.0
H1990 H 0.29709 0.55589 0.14196 0.0
H1991 H 0.31917 0.54443 0.16424 0.0
H1992 H 0.3117 0.55787 0.07894 0.0
H1993 H 0.27777 0.6017 0.13075 0.0
H1994 H 0.29821 0.59448 0.13707 0.0
H1995 H 0.2807 0.58154 0.14186 0.0
C1996 C 0.34259 0.56401 0.12696 0.0
C1997 C 0.33894 0.55423 0.14486 0.0
C1998 C 0.33004 0.57061 0.11441 0.0
C1999 C 0.3135 0.5676 0.11939 0.0
C2000 C 0.30975 0.5586 0.13795 0.0
H2001 H 0.23702 0.56956 0.02151 0.0
H2002 H 0.25543 0.56173 0.05078 0.0
C2003 C 0.32238 0.55205 0.15069 0.0
C2004 C 0.30053 0.57238 0.10378 0.0
H2005 H 0.26604 0.59585 0.09684 0.0
C2006 C 0.30172 0.56617 0.0829 0.0
C2007 C 0.28756 0.5833 0.10886 0.0
C2008 C 0.28598 0.59078 0.13079 0.0
C2009 C 0.29039 0.57057 0.06699 0.0
C2010 C 0.27725 0.58127 0.07212 0.0
C2011 C 0.27604 0.58755 0.09297 0.0
C2012 C 0.26495 0.58627 0.05576 0.0
C2013 C 0.29284 0.56403 0.04465 0.0
C2014 C 0.26368 0.60278 0.04938 0.0
C2015 C 0.25311 0.60728 0.0327 0.0
C2016 C 0.24367 0.59534 0.02206 0.0
C2017 C 0.24435 0.57897 0.02919 0.0
C2018 C 0.25491 0.57448 0.04585 0.0
H2019 H 0.30553 0.55934 0.04218 0.0
H2020 H 0.28418 0.55372 0.04184 0.0
H2021 H 0.29033 0.5737 0.03257 0.0
H2022 H 0.27115 0.61213 0.05698 0.0
H2023 H 0.25229 0.6201 0.02818 0.0
H2024 H 0.20378 0.56801 0.91707 0.0
H2025 H 0.1927 0.54499 0.89607 0.0
H2026 H 0.17142 0.57927 0.85148 0.0
H2027 H 0.18244 0.60221 0.87217 0.0
H2028 H 0.15092 0.55006 0.86296 0.0
H2029 H 0.21457 0.53584 0.83565 0.0
H2030 H 0.21098 0.53742 0.86394 0.0
H2031 H 0.20926 0.55537 0.84749 0.0
C2032 C 0.19638 0.57063 0.90311 0.0
C2033 C 0.19409 0.58694 0.89622 0.0
C2034 C 0.19016 0.55747 0.89105 0.0
C2035 C 0.18141 0.56044 0.87208 0.0
C2036 C 0.17817 0.5767 0.86602 0.0
H2037 H 0.16322 0.51316 0.7532 0.0
H2038 H 0.17008 0.5308 0.78355 0.0
C2039 C 0.1845 0.5898 0.87788 0.0
C2040 C 0.17682 0.54683 0.85739 0.0
H2041 H 0.19304 0.52093 0.8199 0.0
C2042 C 0.16011 0.54347 0.8538 0.0
C2043 C 0.18885 0.53844 0.84523 0.0
C2044 C 0.20694 0.54192 0.84806 0.0
C2045 C 0.15513 0.5321 0.83812 0.0
C2046 C 0.16716 0.52399 0.82568 0.0
C2047 C 0.18386 0.52712 0.82955 0.0
C2048 C 0.16265 0.51317 0.80751 0.0
C2049 C 0.13705 0.52928 0.83428 0.0
C2050 C 0.15631 0.49733 0.81092 0.0
C2051 C 0.15234 0.48719 0.79353 0.0
C2052 C 0.15443 0.49283 0.77248 0.0
C2053 C 0.16094 0.50864 0.76918 0.0
C2054 C 0.16503 0.51868 0.78652 0.0
H2055 H 0.12923 0.53757 0.84405 0.0
H2056 H 0.13411 0.5312 0.81715 0.0
H2057 H 0.13391 0.51636 0.83829 0.0
H2058 H 0.15455 0.49278 0.82701 0.0
H2059 H 0.1475 0.47501 0.79655 0.0
H2060 H 0.14351 0.43029 0.62245 0.0
H2061 H 0.16516 0.41868 0.60013 0.0
H2062 H 0.20188 0.4382 0.64285 0.0
H2063 H 0.18013 0.44963 0.6656 0.0
H2064 H 0.18695 0.43805 0.57959 0.0
H2065 H 0.22053 0.3928 0.62952 0.0
H2066 H 0.20035 0.40037 0.63646 0.0
H2067 H 0.21824 0.41273 0.64154 0.0
C2068 C 0.15618 0.43174 0.62746 0.0
C2069 C 0.16009 0.44093 0.6458 0.0
C2070 C 0.16856 0.42512 0.61462 0.0
C2071 C 0.18518 0.42755 0.61973 0.0
C2072 C 0.18916 0.43591 0.63871 0.0
H2073 H 0.26204 0.42882 0.52258 0.0
H2074 H 0.24318 0.43559 0.55182 0.0
C2075 C 0.1767 0.44245 0.65173 0.0
C2076 C 0.19808 0.42297 0.60388 0.0
H2077 H 0.23279 0.39996 0.59625 0.0
C2078 C 0.19695 0.42968 0.58326 0.0
C2079 C 0.21108 0.412 0.60859 0.0
C2080 C 0.21261 0.40392 0.63016 0.0
C2081 C 0.2084 0.42578 0.56728 0.0
C2082 C 0.22162 0.41511 0.57208 0.0
C2083 C 0.22274 0.40826 0.59264 0.0
C2084 C 0.23415 0.41074 0.5557 0.0
C2085 C 0.20601 0.43288 0.54522 0.0
C2086 C 0.23587 0.39441 0.54874 0.0
C2087 C 0.24672 0.39051 0.5321 0.0
C2088 C 0.25597 0.40289 0.52206 0.0
C2089 C 0.25485 0.41907 0.52978 0.0
C2090 C 0.24403 0.42296 0.54641 0.0
H2091 H 0.19324 0.43735 0.54277 0.0
H2092 H 0.21445 0.44346 0.54306 0.0
H2093 H 0.20884 0.42361 0.53273 0.0
H2094 H 0.22856 0.38473 0.55587 0.0
H2095 H 0.24788 0.37782 0.52713 0.0
H2096 H 0.34703 0.51977 0.75082 0.0
H2097 H 0.34183 0.53734 0.72006 0.0
H2098 H 0.34286 0.49503 0.67866 0.0
H2099 H 0.34854 0.47728 0.70948 0.0
H2100 H 0.36099 0.54112 0.68065 0.0
H2101 H 0.29756 0.51751 0.66708 0.0
H2102 H 0.30834 0.51435 0.69194 0.0
H2103 H 0.31385 0.5026 0.66879 0.0
C2104 C 0.34669 0.51417 0.73518 0.0
C2105 C 0.34869 0.4971 0.73263 0.0
C2106 C 0.3435 0.52426 0.71758 0.0
C2107 C 0.34192 0.51752 0.69707 0.0
C2108 C 0.3439 0.5005 0.69437 0.0
H2109 H 0.30434 0.57257 0.58578 0.0
H2110 H 0.31735 0.55029 0.60624 0.0
C2111 C 0.34718 0.49038 0.712 0.0
C2112 C 0.33784 0.5284 0.67874 0.0
H2113 H 0.30655 0.53906 0.64507 0.0
C2114 C 0.34916 0.54056 0.6727 0.0
C2115 C 0.32247 0.52756 0.66823 0.0
C2116 C 0.30976 0.51489 0.67432 0.0
C2117 C 0.34534 0.5522 0.65686 0.0
C2118 C 0.32963 0.55192 0.64712 0.0
C2119 C 0.31859 0.53928 0.65249 0.0
C2120 C 0.32369 0.56559 0.6333 0.0
C2121 C 0.35815 0.56479 0.65087 0.0
C2122 C 0.32311 0.58162 0.64152 0.0
C2123 C 0.31575 0.59429 0.62992 0.0
C2124 C 0.30865 0.59127 0.6098 0.0
C2125 C 0.30981 0.57535 0.60112 0.0
C2126 C 0.31716 0.56259 0.61286 0.0
H2127 H 0.37077 0.55996 0.65352 0.0
H2128 H 0.35696 0.56857 0.6339 0.0
H2129 H 0.35663 0.57582 0.66109 0.0
H2130 H 0.32769 0.58423 0.65741 0.0
H2131 H 0.31508 0.60637 0.63715 0.0
H2132 H 0.2505 0.62345 0.47669 0.0
H2133 H 0.23099 0.61582 0.44859 0.0
H2134 H 0.24594 0.56517 0.45422 0.0
H2135 H 0.26498 0.57262 0.48291 0.0
H2136 H 0.23502 0.59951 0.40857 0.0
H2137 H 0.19599 0.56361 0.46439 0.0
H2138 H 0.2116 0.5777 0.47354 0.0
H2139 H 0.21723 0.55761 0.46407 0.0
C2140 C 0.24938 0.61065 0.47231 0.0
C2141 C 0.25883 0.59855 0.48264 0.0
C2142 C 0.23842 0.60634 0.45595 0.0
C2143 C 0.23674 0.58987 0.44959 0.0
C2144 C 0.24677 0.57791 0.45915 0.0
H2145 H 0.18097 0.54831 0.34261 0.0
H2146 H 0.20321 0.56001 0.36436 0.0
C2147 C 0.25772 0.5822 0.47547 0.0
C2148 C 0.22406 0.58508 0.43362 0.0
H2149 H 0.18923 0.56209 0.42778 0.0
C2150 C 0.22498 0.59135 0.41273 0.0
C2151 C 0.21086 0.57458 0.43913 0.0
C2152 C 0.20871 0.56807 0.46153 0.0
C2153 C 0.21315 0.58722 0.39717 0.0
C2154 C 0.20014 0.57645 0.40261 0.0
C2155 C 0.19922 0.57029 0.42354 0.0
C2156 C 0.18699 0.57161 0.38727 0.0
C2157 C 0.21447 0.59469 0.37521 0.0
C2158 C 0.17048 0.57448 0.39259 0.0
C2159 C 0.15783 0.56773 0.38034 0.0
C2160 C 0.16134 0.55794 0.36238 0.0
C2161 C 0.17785 0.55594 0.35619 0.0
C2162 C 0.19058 0.56263 0.36864 0.0
H2163 H 0.22259 0.60567 0.37511 0.0
H2164 H 0.21975 0.58547 0.36409 0.0
H2165 H 0.20217 0.59828 0.36908 0.0
H2166 H 0.16737 0.5814 0.40682 0.0
H2167 H 0.14525 0.56957 0.38552 0.0
H2168 H 0.13507 0.51759 0.21485 0.0
H2169 H 0.14194 0.49882 0.18538 0.0
H2170 H 0.1827 0.4799 0.22202 0.0
H2171 H 0.17526 0.49796 0.25175 0.0
H2172 H 0.16683 0.49388 0.15982 0.0
H2173 H 0.15994 0.43807 0.20912 0.0
H2174 H 0.15408 0.4581 0.21873 0.0
H2175 H 0.17519 0.45142 0.22027 0.0
C2176 C 0.14549 0.5094 0.21649 0.0
C2177 C 0.15448 0.50896 0.23562 0.0
C2178 C 0.14943 0.49869 0.19968 0.0
C2179 C 0.16256 0.48753 0.20164 0.0
C2180 C 0.17213 0.48788 0.22035 0.0
H2181 H 0.21223 0.43341 0.10091 0.0
H2182 H 0.20084 0.45523 0.12336 0.0
C2183 C 0.16798 0.4983 0.23727 0.0
C2184 C 0.16616 0.47536 0.18439 0.0
H2185 H 0.17394 0.43465 0.17591 0.0
C2186 C 0.16822 0.48089 0.16329 0.0
C2187 C 0.16755 0.45831 0.18866 0.0
C2188 C 0.16388 0.45111 0.21038 0.0
C2189 C 0.17213 0.46996 0.14657 0.0
C2190 C 0.17467 0.45308 0.15117 0.0
C2191 C 0.17217 0.44755 0.1722 0.0
C2192 C 0.18022 0.44084 0.13483 0.0
C2193 C 0.17316 0.47666 0.12415 0.0
C2194 C 0.17254 0.42536 0.13358 0.0
C2195 C 0.17939 0.41273 0.12129 0.0
C2196 C 0.19379 0.41541 0.10946 0.0
C2197 C 0.20088 0.43115 0.10947 0.0
C2198 C 0.19431 0.44368 0.1223 0.0
H2199 H 0.16514 0.48762 0.12218 0.0
H2200 H 0.18598 0.48058 0.12087 0.0
H2201 H 0.16952 0.46731 0.11213 0.0
H2202 H 0.16166 0.42277 0.14295 0.0
H2203 H 0.1738 0.40064 0.12173 0.0
H2204 H 0.23361 0.38681 0.9639 0.0
H2205 H 0.25213 0.39334 0.93409 0.0
H2206 H 0.27594 0.43017 0.97292 0.0
H2207 H 0.2581 0.42296 1.00294 0.0
H2208 H 0.25801 0.4187 0.91054 0.0
H2209 H 0.31525 0.4056 0.95455 0.0
H2210 H 0.29533 0.40072 0.96537 0.0
H2211 H 0.30369 0.42117 0.96805 0.0
C2212 C 0.24289 0.39623 0.966 0.0
C2213 C 0.24471 0.40415 0.98579 0.0
C2214 C 0.25345 0.39998 0.94898 0.0
C2215 C 0.26583 0.41193 0.95136 0.0
C2216 C 0.267 0.42043 0.97086 0.0
H2217 H 0.31789 0.46395 0.85118 0.0
H2218 H 0.29663 0.45232 0.87428 0.0
C2219 C 0.25673 0.41641 0.98798 0.0
C2220 C 0.27748 0.41559 0.93352 0.0
H2221 H 0.31816 0.42146 0.92258 0.0
C2222 C 0.27119 0.4191 0.91311 0.0
C2223 C 0.29474 0.41572 0.93655 0.0
C2224 C 0.30263 0.41041 0.95726 0.0
C2225 C 0.28159 0.42326 0.89594 0.0
C2226 C 0.29876 0.42462 0.89944 0.0
C2227 C 0.30503 0.42063 0.91972 0.0
C2228 C 0.31055 0.43053 0.88276 0.0
C2229 C 0.27399 0.42582 0.87422 0.0
C2230 C 0.3256 0.42233 0.87965 0.0
C2231 C 0.33795 0.4293 0.86702 0.0
C2232 C 0.33536 0.44436 0.85666 0.0
C2233 C 0.32 0.45208 0.85854 0.0
C2234 C 0.3078 0.44537 0.87174 0.0
H2235 H 0.26261 0.41839 0.87239 0.0
H2236 H 0.27051 0.43893 0.87242 0.0
H2237 H 0.28262 0.42246 0.8612 0.0
H2238 H 0.32812 0.41087 0.88784 0.0
H2239 H 0.34979 0.42324 0.86605 0.0
H2240 H 0.29103 0.15233 0.3333 0.0
H2241 H 0.28689 0.15741 0.29521 0.0
H2242 H 0.23859 0.17679 0.30823 0.0
H2243 H 0.24264 0.17191 0.34634 0.0
H2244 H 0.26171 0.14162 0.27326 0.0
H2245 H 0.25681 0.20929 0.2638 0.0
H2246 H 0.26611 0.19979 0.28692 0.0
H2247 H 0.24412 0.20088 0.28458 0.0
C2248 C 0.27967 0.15804 0.32815 0.0
C2249 C 0.2671 0.16159 0.34286 0.0
C2250 C 0.27734 0.16093 0.30636 0.0
C2251 C 0.26247 0.16756 0.29891 0.0
C2252 C 0.25026 0.17193 0.31365 0.0
H2253 H 0.21678 0.14986 0.17677 0.0
H2254 H 0.22242 0.15478 0.21461 0.0
C2255 C 0.25257 0.16903 0.33545 0.0
C2256 C 0.25895 0.16789 0.2757 0.0
H2257 H 0.24801 0.19291 0.23421 0.0
C2258 C 0.25885 0.15286 0.2647 0.0
C2259 C 0.25521 0.18256 0.26459 0.0
C2260 C 0.25569 0.19908 0.27549 0.0
C2261 C 0.25482 0.15204 0.24298 0.0
C2262 C 0.25063 0.16663 0.23201 0.0
C2263 C 0.25105 0.18174 0.24281 0.0
C2264 C 0.24606 0.16619 0.20917 0.0
C2265 C 0.25509 0.13558 0.23186 0.0
C2266 C 0.25724 0.17155 0.19364 0.0
C2267 C 0.2541 0.16872 0.172 0.0
C2268 C 0.23969 0.16051 0.16558 0.0
C2269 C 0.22803 0.15613 0.18116 0.0
C2270 C 0.23122 0.15892 0.20279 0.0
H2271 H 0.26135 0.12601 0.24157 0.0
H2272 H 0.24228 0.13149 0.22886 0.0
H2273 H 0.2614 0.13655 0.21619 0.0
H2274 H 0.26876 0.1772 0.19832 0.0
H2275 H 0.26329 0.17233 0.16041 0.0
H2276 H 0.09993 0.96505 0.42442 0.0
H2277 H 0.09457 0.96941 0.46241 0.0
H2278 H 0.07656 0.01816 0.44889 0.0
H2279 H 0.08174 0.01389 0.41086 0.0
H2280 H 0.11063 0.99434 0.48473 0.0
H2281 H 0.04293 1.00055 0.49247 0.0
H2282 H 0.0526 0.99097 0.46966 0.0
H2283 H 0.05195 0.01299 0.47186 0.0
C2284 C 0.09448 0.97657 0.42944 0.0
C2285 C 0.09139 0.98917 0.41461 0.0
C2286 C 0.09143 0.97903 0.45116 0.0
C2287 C 0.08508 0.99406 0.45845 0.0
C2288 C 0.0812 0.00636 0.44358 0.0
H2289 H 0.10199 0.03847 0.58171 0.0
H2290 H 0.09739 0.03343 0.54366 0.0
C2291 C 0.08427 0.00393 0.42185 0.0
C2292 C 0.08447 0.9976 0.48164 0.0
H2293 H 0.059 0.00877 0.52257 0.0
C2294 C 0.09933 0.99739 0.49302 0.0
C2295 C 0.0697 0.00156 0.49239 0.0
C2296 C 0.05335 0.00141 0.48105 0.0
C2297 C 0.09987 0.00129 0.51479 0.0
C2298 C 0.08519 0.00568 0.52543 0.0
C2299 C 0.07025 0.00559 0.51423 0.0
C2300 C 0.08534 0.01002 0.54835 0.0
C2301 C 0.11615 0.00064 0.52634 0.0
C2302 C 0.07947 0.9988 0.56353 0.0
C2303 C 0.08211 0.00161 0.58529 0.0
C2304 C 0.09062 0.01571 0.59219 0.0
C2305 C 0.09547 0.02745 0.57695 0.0
C2306 C 0.09287 0.0246 0.5552 0.0
H2307 H 0.12574 0.99425 0.51682 0.0
H2308 H 0.12043 0.01335 0.52958 0.0
H2309 H 0.11481 0.99425 0.54191 0.0
H2310 H 0.07362 0.98749 0.55849 0.0
H2311 H 0.07813 0.99236 0.5966 0.0
H2312 H 0.24135 0.84281 0.66401 0.0
H2313 H 0.23817 0.83748 0.7021 0.0
H2314 H 0.29042 0.8434 0.71101 0.0
H2315 H 0.29364 0.84939 0.67291 0.0
H2316 H 0.2497 0.81552 0.73051 0.0
H2317 H 0.2727 0.87791 0.75077 0.0
H2318 H 0.26828 0.87178 0.72372 0.0
H2319 H 0.28723 0.86566 0.73625 0.0
C2320 C 0.25222 0.84282 0.674 0.0
C2321 C 0.26772 0.84679 0.66549 0.0
C2322 C 0.25037 0.83974 0.6958 0.0
C2323 C 0.26399 0.84044 0.70952 0.0
C2324 C 0.27967 0.84327 0.70083 0.0
H2325 H 0.26907 0.83762 0.84831 0.0
H2326 H 0.27522 0.83333 0.81052 0.0
C2327 C 0.2815 0.84658 0.67904 0.0
C2328 C 0.26151 0.83917 0.73296 0.0
H2329 H 0.2662 0.86046 0.7796 0.0
C2330 C 0.25337 0.82532 0.74125 0.0
C2331 C 0.26614 0.85206 0.74696 0.0
C2332 C 0.27392 0.86776 0.739 0.0
C2333 C 0.24975 0.82404 0.76313 0.0
C2334 C 0.25442 0.83689 0.777 0.0
C2335 C 0.26277 0.85058 0.76884 0.0
C2336 C 0.25018 0.83686 0.79995 0.0
C2337 C 0.24091 0.80903 0.77136 0.0
C2338 C 0.23398 0.83999 0.80649 0.0
C2339 C 0.23042 0.8426 0.82808 0.0
C2340 C 0.24301 0.84209 0.84347 0.0
C2341 C 0.25907 0.83809 0.83691 0.0
C2342 C 0.26264 0.83563 0.81532 0.0
H2343 H 0.24047 0.79903 0.75928 0.0
H2344 H 0.24701 0.80435 0.78601 0.0
H2345 H 0.22811 0.81242 0.77566 0.0
H2346 H 0.22424 0.84116 0.79479 0.0
H2347 H 0.21793 0.84564 0.8326 0.0
H2348 H 0.43224 0.00184 0.91097 0.0
H2349 H 0.43804 0.99587 0.94857 0.0
H2350 H 0.39618 0.02517 0.96721 0.0
H2351 H 0.39098 0.03193 0.92992 0.0
H2352 H 0.41938 0.02942 0.99461 0.0
H2353 H 0.41325 0.96226 0.98101 0.0
H2354 H 0.42983 0.97142 0.96641 0.0
H2355 H 0.40893 0.97711 0.96045 0.0
C2356 C 0.42445 0.00719 0.92316 0.0
C2357 C 0.41109 0.01724 0.91751 0.0
C2358 C 0.42766 0.00364 0.94463 0.0
C2359 C 0.41724 0.00962 0.96075 0.0
C2360 C 0.40437 0.0203 0.95512 0.0
H2361 H 0.38986 0.9685 0.08017 0.0
H2362 H 0.3956 0.97512 0.04297 0.0
C2363 C 0.4014 0.02417 0.93375 0.0
C2364 C 0.41912 0.00441 0.9834 0.0
H2365 H 0.41912 0.97076 0.01605 0.0
C2366 C 0.4194 0.01659 0.9993 0.0
C2367 C 0.41899 0.98764 0.98956 0.0
C2368 C 0.41757 0.97385 0.9735 0.0
C2369 C 0.41884 0.01255 0.02109 0.0
C2370 C 0.41883 0.99578 0.02725 0.0
C2371 C 0.41925 0.98359 0.01136 0.0
C2372 C 0.41665 0.99058 0.04986 0.0
C2373 C 0.41728 0.02634 0.03711 0.0
C2374 C 0.42689 0.99654 0.06619 0.0
C2375 C 0.42336 0.99307 0.0876 0.0
C2376 C 0.40986 0.98312 0.09298 0.0
C2377 C 0.40037 0.97618 0.07655 0.0
C2378 C 0.40365 0.97998 0.05523 0.0
H2379 H 0.4131 0.03795 0.0295 0.0
H2380 H 0.40846 0.02312 0.04997 0.0
H2381 H 0.42946 0.02872 0.04446 0.0
H2382 H 0.43735 0.00424 0.06246 0.0
H2383 H 0.431 0.99842 0.09995 0.0
H2384 H 0.75584 0.82095 0.66029 0.0
H2385 H 0.76162 0.81483 0.69782 0.0
H2386 H 0.72903 0.85402 0.71696 0.0
H2387 H 0.72258 0.85956 0.67968 0.0
H2388 H 0.77649 0.83267 0.72508 0.0
H2389 H 0.7152 0.82069 0.75884 0.0
H2390 H 0.71862 0.82168 0.73042 0.0
H2391 H 0.71502 0.84019 0.74562 0.0
C2392 C 0.7496 0.82797 0.67256 0.0
C2393 C 0.73869 0.84067 0.66704 0.0
C2394 C 0.75295 0.8245 0.69401 0.0
C2395 C 0.7456 0.83378 0.71036 0.0
C2396 C 0.73446 0.84628 0.7048 0.0
H2397 H 0.78673 0.86226 0.82972 0.0
H2398 H 0.78103 0.85627 0.79234 0.0
C2399 C 0.73085 0.84953 0.6834 0.0
C2400 C 0.75071 0.83155 0.73301 0.0
H2401 H 0.73579 0.83052 0.7839 0.0
C2402 C 0.76757 0.83188 0.73791 0.0
C2403 C 0.7392 0.8301 0.74986 0.0
C2404 C 0.72103 0.82795 0.74585 0.0
C2405 C 0.77316 0.83172 0.75912 0.0
C2406 C 0.76157 0.83195 0.77598 0.0
C2407 C 0.74475 0.83067 0.77107 0.0
C2408 C 0.76643 0.83451 0.79867 0.0
C2409 C 0.79145 0.83132 0.76311 0.0
C2410 C 0.75995 0.82449 0.8149 0.0
C2411 C 0.76284 0.82819 0.83639 0.0
C2412 C 0.77245 0.84187 0.84208 0.0
C2413 C 0.77949 0.85148 0.82585 0.0
C2414 C 0.77632 0.84799 0.8044 0.0
H2415 H 0.79795 0.82473 0.75005 0.0
H2416 H 0.79625 0.84409 0.76346 0.0
H2417 H 0.79446 0.82523 0.77848 0.0
H2418 H 0.75225 0.81405 0.81095 0.0
H2419 H 0.75723 0.82057 0.84856 0.0
H2420 H 0.91739 0.01309 0.41173 0.0
H2421 H 0.92247 0.01752 0.44975 0.0
H2422 H 0.90269 0.96955 0.46379 0.0
H2423 H 0.89743 0.96503 0.4258 0.0
H2424 H 0.88748 0.99526 0.48576 0.0
H2425 H 0.95537 0.99894 0.49365 0.0
H2426 H 0.94684 0.01154 0.47284 0.0
H2427 H 0.94538 0.98955 0.47094 0.0
C2428 C 0.91444 0.00332 0.42283 0.0
C2429 C 0.90688 0.98875 0.41573 0.0
C2430 C 0.91745 0.00585 0.44457 0.0
C2431 C 0.91306 0.99382 0.45956 0.0
C2432 C 0.90623 0.97896 0.45244 0.0
H2433 H 0.9208 0.99282 0.59765 0.0
H2434 H 0.92483 0.98764 0.55951 0.0
C2435 C 0.90324 0.9764 0.43071 0.0
C2436 C 0.91376 0.9975 0.48272 0.0
H2437 H 0.93958 0.0079 0.52361 0.0
C2438 C 0.89889 0.99793 0.49405 0.0
C2439 C 0.92865 0.00094 0.49348 0.0
C2440 C 0.945 1.0001 0.48219 0.0
C2441 C 0.89846 0.00196 0.51579 0.0
C2442 C 0.91329 0.00584 0.52643 0.0
C2443 C 0.92823 0.00511 0.51527 0.0
C2444 C 0.91331 0.01027 0.54934 0.0
C2445 C 0.88215 0.00194 0.5273 0.0
C2446 C 0.90605 0.02499 0.55617 0.0
C2447 C 0.90373 0.02802 0.57793 0.0
C2448 C 0.9086 0.01632 0.59321 0.0
C2449 C 0.91682 0.00205 0.58631 0.0
C2450 C 0.91917 0.99906 0.56453 0.0
H2451 H 0.87239 0.99572 0.51788 0.0
H2452 H 0.88326 0.99573 0.54302 0.0
H2453 H 0.87824 0.01482 0.53021 0.0
H2454 H 0.90156 0.03384 0.54462 0.0
H2455 H 0.89744 0.03917 0.58269 0.0
H2456 H 0.70936 0.14672 0.33132 0.0
H2457 H 0.71515 0.1514 0.29346 0.0
H2458 H 0.75946 0.17748 0.31011 0.0
H2459 H 0.75378 0.17296 0.348 0.0
H2460 H 0.74023 0.19142 0.27439 0.0
H2461 H 0.75422 0.12475 0.26662 0.0
H2462 H 0.73449 0.12962 0.27792 0.0
H2463 H 0.7529 0.13495 0.29217 0.0
C2464 C 0.72017 0.15373 0.32698 0.0
C2465 C 0.73122 0.15929 0.34269 0.0
C2466 C 0.72348 0.15634 0.30533 0.0
C2467 C 0.73786 0.16456 0.29904 0.0
C2468 C 0.74833 0.17106 0.31467 0.0
H2469 H 0.7861 0.15209 0.17673 0.0
H2470 H 0.78064 0.15639 0.21471 0.0
C2471 C 0.74507 0.16843 0.33632 0.0
C2472 C 0.7427 0.16511 0.27627 0.0
H2473 H 0.75479 0.14051 0.23502 0.0
C2474 C 0.74342 0.18032 0.26573 0.0
C2475 C 0.74715 0.15063 0.26519 0.0
C2476 C 0.74731 0.13405 0.27603 0.0
C2477 C 0.74814 0.18136 0.24416 0.0
C2478 C 0.75214 0.1668 0.23294 0.0
C2479 C 0.7517 0.15166 0.24365 0.0
C2480 C 0.75642 0.16676 0.20993 0.0
C2481 C 0.749 0.19801 0.23363 0.0
C2482 C 0.74476 0.1715 0.19462 0.0
C2483 C 0.74785 0.16907 0.17289 0.0
C2484 C 0.76261 0.16173 0.16607 0.0
C2485 C 0.7746 0.15776 0.1814 0.0
C2486 C 0.7715 0.16019 0.20313 0.0
H2487 H 0.74984 0.20807 0.24558 0.0
H2488 H 0.75974 0.1988 0.22273 0.0
H2489 H 0.7377 0.19998 0.22404 0.0
H2490 H 0.73294 0.17633 0.19951 0.0
H2491 H 0.73833 0.17225 0.16152 0.0
H2492 H 0.59513 0.03444 0.92169 0.0
H2493 H 0.58928 0.03137 0.95982 0.0
H2494 H 0.58508 0.97888 0.95172 0.0
H2495 H 0.59038 0.98187 0.91356 0.0
H2496 H 0.56267 0.99054 0.98048 0.0
H2497 H 0.62505 0.01445 0.99889 0.0
H2498 H 0.61251 0.02857 0.9841 0.0
H2499 H 0.61866 0.00943 0.97211 0.0
C2500 C 0.59272 0.02227 0.92798 0.0
C2501 C 0.59346 0.00838 0.91466 0.0
C2502 C 0.58947 0.02053 0.94979 0.0
C2503 C 0.58719 0.00485 0.9587 0.0
C2504 C 0.58692 0.99108 0.94521 0.0
H2505 H 0.59535 0.9627 0.08415 0.0
H2506 H 0.59041 0.9673 0.04601 0.0
C2507 C 0.58998 0.99283 0.92338 0.0
C2508 C 0.58622 0.0026 0.98217 0.0
H2509 H 0.6079 0.00847 0.02826 0.0
C2510 C 0.57253 0.99449 0.99094 0.0
C2511 C 0.59922 0.00759 0.99578 0.0
C2512 C 0.61476 0.01535 0.98727 0.0
C2513 C 0.57147 0.99136 0.01297 0.0
C2514 C 0.58438 0.9965 0.02645 0.0
C2515 C 0.59797 0.0047 0.01778 0.0
C2516 C 0.58446 0.99306 0.0496 0.0
C2517 C 0.55663 0.98261 0.02181 0.0
C2518 C 0.58241 0.00597 0.06417 0.0
C2519 C 0.58513 0.00338 0.08593 0.0
C2520 C 0.59021 0.98789 0.09344 0.0
C2521 C 0.59149 0.97478 0.07888 0.0
C2522 C 0.58862 0.97736 0.05711 0.0
H2523 H 0.54678 0.98113 0.00967 0.0
H2524 H 0.56032 0.97024 0.02756 0.0
H2525 H 0.55162 0.98949 0.03569 0.0
H2526 H 0.57932 0.01819 0.05859 0.0
H2527 H 0.58403 0.01375 0.09669 0.0
H2528 H 0.76152 0.67145 0.65811 0.0
H2529 H 0.76721 0.67658 0.69591 0.0
H2530 H 0.72084 0.65455 0.71288 0.0
H2531 H 0.71497 0.64938 0.67517 0.0
H2532 H 0.74579 0.69242 0.7324 0.0
H2533 H 0.76094 0.62583 0.73889 0.0
H2534 H 0.76102 0.63662 0.71369 0.0
H2535 H 0.74188 0.63106 0.72594 0.0
C2536 C 0.75236 0.668 0.66982 0.0
C2537 C 0.73788 0.65982 0.66364 0.0
C2538 C 0.75563 0.67099 0.6914 0.0
C2539 C 0.7445 0.66581 0.70708 0.0
C2540 C 0.72958 0.65858 0.70093 0.0
H2541 H 0.74048 0.6705 0.84395 0.0
H2542 H 0.73669 0.67563 0.80586 0.0
C2543 C 0.72627 0.65564 0.67937 0.0
C2544 C 0.74922 0.66626 0.72985 0.0
H2545 H 0.76107 0.64125 0.77072 0.0
C2546 C 0.74919 0.68128 0.74084 0.0
C2547 C 0.75388 0.65172 0.7406 0.0
C2548 C 0.75458 0.63536 0.72924 0.0
C2549 C 0.75334 0.68205 0.76262 0.0
C2550 C 0.7575 0.6674 0.77354 0.0
C2551 C 0.75789 0.65247 0.76232 0.0
C2552 C 0.76084 0.66695 0.79678 0.0
C2553 C 0.75332 0.69849 0.77375 0.0
C2554 C 0.77575 0.66053 0.80437 0.0
C2555 C 0.77794 0.65748 0.82615 0.0
C2556 C 0.76517 0.66066 0.84071 0.0
C2557 C 0.75056 0.6679 0.83318 0.0
C2558 C 0.7484 0.67095 0.8114 0.0
H2559 H 0.75436 0.7088 0.76219 0.0
H2560 H 0.74159 0.69998 0.78258 0.0
H2561 H 0.76357 0.69936 0.7854 0.0
H2562 H 0.78548 0.65729 0.79333 0.0
H2563 H 0.78935 0.65194 0.83141 0.0
H2564 H 0.59268 0.46241 0.92318 0.0
H2565 H 0.5867 0.46578 0.96121 0.0
H2566 H 0.5794 0.51778 0.9516 0.0
H2567 H 0.58489 0.51446 0.91359 0.0
H2568 H 0.60547 0.48344 0.98721 0.0
H2569 H 0.54214 0.50795 0.99161 0.0
H2570 H 0.55028 0.49856 0.96771 0.0
H2571 H 0.55477 0.51973 0.97382 0.0
C2572 C 0.58941 0.4745 0.92908 0.0
C2573 C 0.58934 0.48818 0.91537 0.0
C2574 C 0.58599 0.4764 0.95082 0.0
C2575 C 0.58244 0.49201 0.95926 0.0
C2576 C 0.58169 0.50556 0.94543 0.0
H2577 H 0.59734 0.53641 0.08175 0.0
H2578 H 0.59136 0.53057 0.04416 0.0
C2579 C 0.58497 0.50365 0.92367 0.0
C2580 C 0.58164 0.49448 0.98273 0.0
H2581 H 0.55918 0.5123 0.02268 0.0
C2582 C 0.59521 0.4895 0.99498 0.0
C2583 C 0.56829 0.50248 0.99288 0.0
C2584 C 0.55298 0.50734 0.98084 0.0
C2585 C 0.59604 0.49275 0.01692 0.0
C2586 C 0.58296 0.50119 0.02689 0.0
C2587 C 0.56921 0.50591 0.01486 0.0
C2588 C 0.5838 0.50547 0.04977 0.0
C2589 C 0.61109 0.48756 0.0293 0.0
C2590 C 0.58104 0.49339 0.0653 0.0
C2591 C 0.58442 0.49666 0.08676 0.0
C2592 C 0.59071 0.51205 0.09299 0.0
C2593 C 0.59257 0.52442 0.07748 0.0
C2594 C 0.58912 0.52114 0.05602 0.0
H2595 H 0.62077 0.48227 0.01883 0.0
H2596 H 0.61631 0.49825 0.038 0.0
H2597 H 0.60758 0.47819 0.04135 0.0
H2598 H 0.57695 0.48122 0.06069 0.0
H2599 H 0.58279 0.48687 0.09829 0.0
H2600 H 0.72249 0.35896 0.32659 0.0
H2601 H 0.72791 0.35193 0.2895 0.0
H2602 H 0.75929 0.31206 0.30973 0.0
H2603 H 0.75461 0.31972 0.34707 0.0
H2604 H 0.77426 0.328 0.28108 0.0
H2605 H 0.71197 0.31825 0.24968 0.0
H2606 H 0.71266 0.33809 0.26198 0.0
H2607 H 0.71588 0.31987 0.27794 0.0
C2608 C 0.73028 0.34848 0.32318 0.0
C2609 C 0.73812 0.33988 0.33974 0.0
C2610 C 0.73327 0.34436 0.30189 0.0
C2611 C 0.74375 0.33122 0.29668 0.0
C2612 C 0.7511 0.32221 0.31328 0.0
H2613 H 0.75175 0.31907 0.1578 0.0
H2614 H 0.7473 0.31158 0.19524 0.0
C2615 C 0.7484 0.32656 0.33462 0.0
C2616 C 0.7483 0.32813 0.27401 0.0
H2617 H 0.73232 0.32763 0.22367 0.0
C2618 C 0.76505 0.32755 0.26857 0.0
C2619 C 0.7364 0.32703 0.25756 0.0
C2620 C 0.71825 0.32564 0.26218 0.0
C2621 C 0.77019 0.32708 0.24719 0.0
C2622 C 0.75829 0.32796 0.23073 0.0
C2623 C 0.74154 0.32734 0.23618 0.0
C2624 C 0.76281 0.33088 0.20801 0.0
C2625 C 0.78836 0.32574 0.24259 0.0
C2626 C 0.77322 0.34403 0.2026 0.0
C2627 C 0.77609 0.34804 0.18125 0.0
C2628 C 0.76818 0.33933 0.16483 0.0
C2629 C 0.75801 0.32599 0.17015 0.0
C2630 C 0.75543 0.32173 0.19154 0.0
H2631 H 0.79467 0.31848 0.25519 0.0
H2632 H 0.79075 0.31987 0.2269 0.0
H2633 H 0.79388 0.33822 0.24264 0.0
H2634 H 0.7786 0.35169 0.21488 0.0
H2635 H 0.78379 0.35855 0.17769 0.0
H2636 H 0.90204 0.46363 0.58425 0.0
H2637 H 0.90731 0.46724 0.54613 0.0
H2638 H 0.92556 0.51616 0.55802 0.0
H2639 H 0.92046 0.51265 0.59619 0.0
H2640 H 0.89105 0.492 0.52349 0.0
H2641 H 0.95871 0.49765 0.5143 0.0
H2642 H 0.94925 0.48841 0.53748 0.0
H2643 H 0.94996 0.51039 0.53481 0.0
C2644 C 0.90754 0.47502 0.57886 0.0
C2645 C 0.9107 0.48791 0.59326 0.0
C2646 C 0.91054 0.47706 0.55705 0.0
C2647 C 0.9169 0.49193 0.54927 0.0
C2648 C 0.92091 0.50448 0.56372 0.0
H2649 H 0.89943 0.53529 0.42575 0.0
H2650 H 0.90451 0.53045 0.46372 0.0
C2651 C 0.91788 0.50248 0.58554 0.0
C2652 C 0.91728 0.49508 0.52598 0.0
H2653 H 0.94234 0.50545 0.48429 0.0
C2654 C 0.90229 0.49482 0.51491 0.0
C2655 C 0.93195 0.49877 0.51484 0.0
C2656 C 0.94842 0.4987 0.52589 0.0
C2657 C 0.90151 0.49841 0.49306 0.0
C2658 C 0.9161 0.50251 0.48203 0.0
C2659 C 0.93117 0.50247 0.49292 0.0
C2660 C 0.91568 0.5066 0.45905 0.0
C2661 C 0.88509 0.4978 0.48186 0.0
C2662 C 0.92084 0.49502 0.4439 0.0
C2663 C 0.91791 0.49771 0.42217 0.0
C2664 C 0.9098 0.51204 0.4153 0.0
C2665 C 0.90563 0.52409 0.43049 0.0
C2666 C 0.90851 0.52136 0.45219 0.0
H2667 H 0.87549 0.4918 0.49179 0.0
H2668 H 0.881 0.51051 0.47823 0.0
H2669 H 0.88614 0.49105 0.46651 0.0
H2670 H 0.92639 0.48355 0.44895 0.0
H2671 H 0.92136 0.48822 0.41089 0.0
H2672 H 0.24761 0.32185 0.15989 0.0
H2673 H 0.25317 0.31484 0.19721 0.0
H2674 H 0.22325 0.35577 0.21756 0.0
H2675 H 0.21696 0.36221 0.18048 0.0
H2676 H 0.26934 0.33126 0.22452 0.0
H2677 H 0.20775 0.32302 0.25913 0.0
H2678 H 0.21093 0.3241 0.23066 0.0
H2679 H 0.20864 0.34264 0.24625 0.0
C2680 C 0.24189 0.32907 0.17238 0.0
C2681 C 0.23178 0.34252 0.16728 0.0
C2682 C 0.24511 0.32509 0.19371 0.0
C2683 C 0.23846 0.3346 0.21034 0.0
C2684 C 0.2281 0.34786 0.20518 0.0
H2685 H 0.28245 0.36033 0.32853 0.0
H2686 H 0.27598 0.35447 0.29136 0.0
C2687 C 0.2246 0.35162 0.1839 0.0
C2688 C 0.24361 0.33181 0.23286 0.0
H2689 H 0.22913 0.33156 0.28397 0.0
C2690 C 0.2605 0.33099 0.23748 0.0
C2691 C 0.23218 0.33101 0.24988 0.0
C2692 C 0.21388 0.33004 0.24616 0.0
C2693 C 0.26626 0.33039 0.25859 0.0
C2694 C 0.25487 0.33135 0.27564 0.0
C2695 C 0.23796 0.33115 0.271 0.0
C2696 C 0.26011 0.33372 0.2982 0.0
C2697 C 0.28452 0.32876 0.26229 0.0
C2698 C 0.25315 0.32425 0.31466 0.0
C2699 C 0.2565 0.32791 0.33606 0.0
C2700 C 0.26702 0.34098 0.3414 0.0
C2701 C 0.27449 0.35002 0.32494 0.0
C2702 C 0.27088 0.34659 0.3036 0.0
H2703 H 0.29042 0.32169 0.24918 0.0
H2704 H 0.29018 0.34117 0.26244 0.0
H2705 H 0.28727 0.32255 0.27766 0.0
H2706 H 0.24477 0.3143 0.31097 0.0
H2707 H 0.25055 0.32075 0.34842 0.0
H2708 H 0.39549 0.46097 0.92506 0.0
H2709 H 0.40036 0.46659 0.96293 0.0
H2710 H 0.42537 0.51156 0.94652 0.0
H2711 H 0.42063 0.50607 0.90861 0.0
H2712 H 0.43984 0.49187 0.98221 0.0
H2713 H 0.37308 0.5055 0.98993 0.0
H2714 H 0.37814 0.48597 0.97819 0.0
H2715 H 0.38337 0.50461 0.96442 0.0
C2716 C 0.40231 0.4719 0.92945 0.0
C2717 C 0.40748 0.48319 0.91382 0.0
C2718 C 0.40505 0.4751 0.95109 0.0
C2719 C 0.41301 0.48959 0.95746 0.0
C2720 C 0.41915 0.50033 0.94189 0.0
H2721 H 0.39992 0.53616 0.08079 0.0
H2722 H 0.40455 0.53142 0.04271 0.0
C2723 C 0.41639 0.49717 0.92024 0.0
C2724 C 0.41353 0.49431 0.98026 0.0
H2725 H 0.38879 0.50587 0.02159 0.0
C2726 C 0.42871 0.49495 0.99087 0.0
C2727 C 0.39901 0.4986 0.99133 0.0
C2728 C 0.38246 0.4988 0.98042 0.0
C2729 C 0.42968 0.49942 0.01253 0.0
C2730 C 0.41508 0.50325 0.02375 0.0
C2731 C 0.39997 0.50292 0.01296 0.0
C2732 C 0.41492 0.50714 0.04687 0.0
C2733 C 0.44629 0.50017 0.02319 0.0
C2734 C 0.41957 0.49521 0.06186 0.0
C2735 C 0.41693 0.49787 0.08364 0.0
C2736 C 0.40949 0.51248 0.09081 0.0
C2737 C 0.40565 0.52477 0.07583 0.0
C2738 C 0.40827 0.52208 0.05405 0.0
H2739 H 0.45639 0.50121 0.01132 0.0
H2740 H 0.44702 0.51075 0.03436 0.0
H2741 H 0.44825 0.48874 0.03251 0.0
H2742 H 0.42445 0.48348 0.05666 0.0
H2743 H 0.42003 0.48814 0.09475 0.0
H2744 H 0.23776 0.66899 0.66012 0.0
H2745 H 0.23305 0.6737 0.69816 0.0
H2746 H 0.28161 0.65546 0.71228 0.0
H2747 H 0.28643 0.65059 0.67427 0.0
H2748 H 0.25622 0.63919 0.73381 0.0
H2749 H 0.25045 0.70688 0.74266 0.0
H2750 H 0.23827 0.6981 0.7216 0.0
H2751 H 0.2603 0.69737 0.71993 0.0
C2752 C 0.24759 0.6663 0.67125 0.0
C2753 C 0.26243 0.65928 0.66416 0.0
C2754 C 0.2449 0.6691 0.693 0.0
C2755 C 0.25702 0.66503 0.70802 0.0
C2756 C 0.27213 0.65875 0.70091 0.0
H2757 H 0.25787 0.67112 0.84617 0.0
H2758 H 0.26292 0.67575 0.80812 0.0
C2759 C 0.27485 0.65598 0.67918 0.0
C2760 C 0.25324 0.66541 0.73116 0.0
H2761 H 0.24204 0.69057 0.7724 0.0
C2762 C 0.25321 0.65044 0.74227 0.0
C2763 C 0.24933 0.68011 0.74212 0.0
C2764 C 0.2497 0.69657 0.73106 0.0
C2765 C 0.24916 0.64971 0.76399 0.0
C2766 C 0.24486 0.66433 0.77484 0.0
C2767 C 0.24516 0.67938 0.7639 0.0
C2768 C 0.24045 0.66402 0.79774 0.0
C2769 C 0.2496 0.63331 0.77525 0.0
C2770 C 0.22585 0.65643 0.80444 0.0
C2771 C 0.22291 0.65377 0.82615 0.0
C2772 C 0.23457 0.65861 0.84151 0.0
C2773 C 0.24869 0.66715 0.83476 0.0
C2774 C 0.25159 0.66985 0.81304 0.0
H2775 H 0.25599 0.62376 0.76565 0.0
H2776 H 0.25587 0.63443 0.79094 0.0
H2777 H 0.23683 0.62909 0.77822 0.0
H2778 H 0.21707 0.65195 0.79281 0.0
H2779 H 0.21187 0.64724 0.83079 0.0
H2780 H 0.09323 0.53923 0.42496 0.0
H2781 H 0.08736 0.5354 0.46299 0.0
H2782 H 0.08428 0.48298 0.45336 0.0
H2783 H 0.08951 0.48674 0.41532 0.0
H2784 H 0.06184 0.4932 0.48226 0.0
H2785 H 0.1232 0.51909 0.50188 0.0
H2786 H 0.11015 0.53309 0.48767 0.0
H2787 H 0.11706 0.51451 0.47488 0.0
C2788 C 0.09105 0.52692 0.43091 0.0
C2789 C 0.09206 0.51327 0.41719 0.0
C2790 C 0.0878 0.52473 0.45265 0.0
C2791 C 0.08585 0.50886 0.46111 0.0
C2792 C 0.08587 0.49533 0.44722 0.0
H2793 H 0.09474 0.46277 0.58377 0.0
H2794 H 0.08927 0.4688 0.54611 0.0
C2795 C 0.08888 0.49751 0.42545 0.0
C2796 C 0.08489 0.50614 0.48452 0.0
H2797 H 0.10632 0.51165 0.53088 0.0
C2798 C 0.07153 0.49729 0.4929 0.0
C2799 C 0.09766 0.51132 0.49837 0.0
C2800 C 0.11291 0.51988 0.49027 0.0
C2801 C 0.0706 0.4935 0.51477 0.0
C2802 C 0.08331 0.49875 0.5285 0.0
C2803 C 0.09653 0.50779 0.52023 0.0
C2804 C 0.08368 0.49447 0.55142 0.0
C2805 C 0.05612 0.48391 0.52314 0.0
C2806 C 0.08203 0.50686 0.56682 0.0
C2807 C 0.08507 0.50345 0.58832 0.0
C2808 C 0.09007 0.48765 0.59473 0.0
C2809 C 0.09093 0.47507 0.57936 0.0
C2810 C 0.08776 0.47847 0.55785 0.0
H2811 H 0.04608 0.48296 0.51117 0.0
H2812 H 0.06018 0.4713 0.5274 0.0
H2813 H 0.05122 0.48976 0.53785 0.0
H2814 H 0.07901 0.51931 0.56209 0.0
H2815 H 0.08428 0.51343 0.59973 0.0
H2816 H 0.34521 0.02155 0.18569 0.0
H2817 H 0.3319 0.04649 0.17253 0.0
H2818 H 0.36258 0.0456 0.11646 0.0
H2819 H 0.37607 0.02069 0.12942 0.0
H2820 H 0.35078 0.08046 0.14149 0.0
H2821 H 0.30541 0.03454 0.11138 0.0
H2822 H 0.31343 0.03199 0.138 0.0
H2823 H 0.32676 0.02938 0.11546 0.0
C2824 C 0.34952 0.02691 0.1709 0.0
C2825 C 0.3615 0.01896 0.15842 0.0
C2826 C 0.34194 0.04119 0.16346 0.0
C2827 C 0.34628 0.04774 0.14355 0.0
C2828 C 0.35917 0.0407 0.13192 0.0
H2829 H 0.27446 0.09908 0.06678 0.0
H2830 H 0.29984 0.08483 0.07618 0.0
C2831 C 0.36677 0.02641 0.13932 0.0
C2832 C 0.33543 0.05986 0.13328 0.0
H2833 H 0.29877 0.06241 0.1073 0.0
C2834 C 0.33946 0.0766 0.13384 0.0
C2835 C 0.32087 0.05463 0.12309 0.0
C2836 C 0.31628 0.03666 0.12176 0.0
C2837 C 0.32887 0.08841 0.12491 0.0
C2838 C 0.31393 0.08321 0.1155 0.0
C2839 C 0.31027 0.06638 0.11441 0.0
C2840 C 0.30112 0.09482 0.10817 0.0
C2841 C 0.33375 0.10628 0.12565 0.0
C2842 C 0.29375 0.10559 0.12279 0.0
C2843 C 0.27929 0.11385 0.11742 0.0
C2844 C 0.27182 0.11126 0.09743 0.0
C2845 C 0.27983 0.1013 0.08233 0.0
C2846 C 0.29436 0.09315 0.08766 0.0
H2847 H 0.34732 0.1077 0.12659 0.0
H2848 H 0.32919 0.11303 0.11143 0.0
H2849 H 0.32837 0.11204 0.14012 0.0
H2850 H 0.29853 0.1068 0.13885 0.0
H2851 H 0.27348 0.12148 0.12943 0.0
H2852 H 0.13052 0.02318 0.37766 0.0
H2853 H 0.14533 0.04813 0.38717 0.0
H2854 H 0.16877 0.04837 0.3254 0.0
H2855 H 0.1542 0.02315 0.3158 0.0
H2856 H 0.19041 0.04731 0.35825 0.0
H2857 H 0.14512 0.09688 0.37291 0.0
H2858 H 0.14004 0.07812 0.38645 0.0
H2859 H 0.14023 0.07863 0.35773 0.0
C2860 C 0.13851 0.02872 0.36586 0.0
C2861 C 0.1414 0.02101 0.3461 0.0
C2862 C 0.14685 0.04312 0.37127 0.0
C2863 C 0.15805 0.05016 0.35694 0.0
C2864 C 0.1601 0.04313 0.33664 0.0
H2865 H 0.23043 0.1265 0.37898 0.0
H2866 H 0.20604 0.11212 0.36592 0.0
C2867 C 0.15181 0.02869 0.33122 0.0
C2868 C 0.16958 0.06296 0.36447 0.0
H2869 H 0.1719 0.10047 0.38887 0.0
C2870 C 0.18637 0.05904 0.36463 0.0
C2871 C 0.16425 0.0782 0.37289 0.0
C2872 C 0.14643 0.08329 0.37232 0.0
C2873 C 0.19794 0.06971 0.37356 0.0
C2874 C 0.19255 0.08462 0.38274 0.0
C2875 C 0.17587 0.08888 0.38204 0.0
C2876 C 0.20444 0.09575 0.39299 0.0
C2877 C 0.21587 0.06489 0.37344 0.0
C2878 C 0.21109 0.09164 0.41293 0.0
C2879 C 0.22506 0.09976 0.42045 0.0
C2880 C 0.2326 0.11201 0.40801 0.0
C2881 C 0.22503 0.11698 0.38885 0.0
C2882 C 0.21104 0.10888 0.38139 0.0
H2883 H 0.21825 0.05402 0.36316 0.0
H2884 H 0.22356 0.07528 0.36774 0.0
H2885 H 0.2198 0.0619 0.38996 0.0
H2886 H 0.2061 0.08146 0.42202 0.0
H2887 H 0.23052 0.09569 0.43531 0.0
H2888 H 0.23369 0.88521 0.63166 0.0
H2889 H 0.20783 0.89811 0.64171 0.0
H2890 H 0.20095 0.91464 0.57687 0.0
H2891 H 0.22714 0.90226 0.5668 0.0
H2892 H 0.20069 0.93935 0.60421 0.0
H2893 H 0.15916 0.89109 0.63509 0.0
H2894 H 0.17905 0.89011 0.64736 0.0
H2895 H 0.17705 0.8864 0.61913 0.0
C2896 C 0.22652 0.89127 0.61938 0.0
C2897 C 0.23261 0.8929 0.59846 0.0
C2898 C 0.2116 0.89848 0.62513 0.0
C2899 C 0.20236 0.9072 0.61 0.0
C2900 C 0.20787 0.90789 0.58878 0.0
H2901 H 0.1245 0.97857 0.62921 0.0
H2902 H 0.1385 0.95383 0.61665 0.0
C2903 C 0.22287 0.90083 0.58305 0.0
C2904 C 0.1887 0.9179 0.61707 0.0
H2905 H 0.15359 0.91894 0.64704 0.0
C2906 C 0.19022 0.93481 0.61318 0.0
C2907 C 0.17511 0.91198 0.62893 0.0
C2908 C 0.1724 0.89387 0.63269 0.0
C2909 C 0.17891 0.94604 0.62149 0.0
C2910 C 0.16574 0.9402 0.63405 0.0
C2911 C 0.16383 0.92329 0.63749 0.0
C2912 C 0.1544 0.95192 0.64417 0.0
C2913 C 0.18134 0.96418 0.6174 0.0
C2914 C 0.15833 0.95851 0.6642 0.0
C2915 C 0.15047 0.97272 0.67141 0.0
C2916 C 0.13863 0.98054 0.65857 0.0
C2917 C 0.1337 0.97297 0.63938 0.0
C2918 C 0.14158 0.95877 0.63222 0.0
H2919 H 0.19237 0.96669 0.60746 0.0
H2920 H 0.17039 0.96926 0.60915 0.0
H2921 H 0.18267 0.9708 0.63281 0.0
H2922 H 0.16831 0.95337 0.67352 0.0
H2923 H 0.15448 0.97816 0.68631 0.0
H2924 H 0.3755 0.98066 0.88074 0.0
H2925 H 0.36072 0.95629 0.89288 0.0
H2926 H 0.3324 0.95612 0.83468 0.0
H2927 H 0.34679 0.98068 0.8226 0.0
H2928 H 0.31403 0.95957 0.87192 0.0
H2929 H 0.35718 0.90682 0.87824 0.0
H2930 H 0.36434 0.92579 0.88969 0.0
H2931 H 0.36115 0.92442 0.86138 0.0
C2932 C 0.36643 0.9752 0.87024 0.0
C2933 C 0.36218 0.98276 0.85078 0.0
C2934 C 0.3581 0.96117 0.87715 0.0
C2935 C 0.34554 0.9544 0.86463 0.0
C2936 C 0.34215 0.96116 0.8445 0.0
H2937 H 0.27458 0.87835 0.88339 0.0
H2938 H 0.2992 0.89366 0.87343 0.0
C2939 C 0.35041 0.97521 0.83761 0.0
C2940 C 0.33406 0.94233 0.87395 0.0
H2941 H 0.3309 0.9036 0.89459 0.0
C2942 C 0.31771 0.94731 0.8768 0.0
C2943 C 0.33897 0.92642 0.88037 0.0
C2944 C 0.35634 0.92043 0.87715 0.0
C2945 C 0.30606 0.9368 0.88587 0.0
C2946 C 0.31098 0.92097 0.8926 0.0
C2947 C 0.32731 0.91587 0.88968 0.0
C2948 C 0.29881 0.90935 0.90129 0.0
C2949 C 0.28848 0.94261 0.88779 0.0
C2950 C 0.29095 0.91267 0.92076 0.0
C2951 C 0.27678 0.90404 0.92647 0.0
C2952 C 0.27031 0.89198 0.91274 0.0
C2953 C 0.27911 0.88773 0.89419 0.0
C2954 C 0.29325 0.89637 0.88851 0.0
H2955 H 0.28618 0.95393 0.87833 0.0
H2956 H 0.27983 0.93291 0.88237 0.0
H2957 H 0.28573 0.94536 0.90478 0.0
H2958 H 0.29519 0.92262 0.93085 0.0
H2959 H 0.2704 0.90751 0.94096 0.0
H2960 H 0.65132 0.9738 0.81133 0.0
H2961 H 0.66448 0.9474 0.81847 0.0
H2962 H 0.6465 0.94882 0.88326 0.0
H2963 H 0.63272 0.97472 0.87601 0.0
H2964 H 0.6886 0.94563 0.84524 0.0
H2965 H 0.6421 0.9009 0.87209 0.0
H2966 H 0.63657 0.91963 0.85837 0.0
H2967 H 0.64007 0.91967 0.88681 0.0
C2968 C 0.64972 0.96824 0.82689 0.0
C2969 C 0.6411 0.97646 0.84314 0.0
C2970 C 0.65723 0.95313 0.83094 0.0
C2971 C 0.65638 0.94602 0.85135 0.0
C2972 C 0.64699 0.95377 0.86723 0.0
H2973 H 0.7237 0.89898 0.93167 0.0
H2974 H 0.69902 0.91082 0.91562 0.0
C2975 C 0.63927 0.96875 0.8631 0.0
C2976 C 0.66757 0.93238 0.8572 0.0
H2977 H 0.66996 0.89671 0.88589 0.0
C2978 C 0.68444 0.93472 0.85361 0.0
C2979 C 0.66219 0.91817 0.86826 0.0
C2980 C 0.64421 0.91438 0.87139 0.0
C2981 C 0.69611 0.92379 0.86178 0.0
C2982 C 0.69078 0.91013 0.87383 0.0
C2983 C 0.67393 0.9073 0.87672 0.0
C2984 C 0.70286 0.89957 0.88474 0.0
C2985 C 0.71416 0.92736 0.85842 0.0
C2986 C 0.71267 0.88879 0.87287 0.0
C2987 C 0.72684 0.88209 0.88192 0.0
C2988 C 0.73141 0.88616 0.90297 0.0
C2989 C 0.72067 0.89576 0.91538 0.0
C2990 C 0.7065 0.90246 0.90629 0.0
H2991 H 0.71625 0.93936 0.85039 0.0
H2992 H 0.72073 0.92742 0.87396 0.0
H2993 H 0.71967 0.91755 0.8484 0.0
H2994 H 0.70999 0.88647 0.85619 0.0
H2995 H 0.7347 0.87455 0.87197 0.0
H2996 H 0.8517 0.97655 0.69187 0.0
H2997 H 0.8388 0.95068 0.6816 0.0
H2998 H 0.8574 0.95639 0.61754 0.0
H2999 H 0.87063 0.98208 0.62778 0.0
H3000 H 0.81482 0.95141 0.6519 0.0
H3001 H 0.86285 0.90723 0.62662 0.0
H3002 H 0.86733 0.92505 0.64284 0.0
H3003 H 0.86508 0.92705 0.61438 0.0
C3004 C 0.85341 0.97214 0.67577 0.0
C3005 C 0.86198 0.98155 0.66061 0.0
C3006 C 0.84609 0.95729 0.66993 0.0
C3007 C 0.84722 0.95157 0.64885 0.0
C3008 C 0.85664 0.96039 0.63401 0.0
H3009 H 0.77756 0.90192 0.57138 0.0
H3010 H 0.80219 0.91588 0.58428 0.0
C3011 C 0.86405 0.9752 0.63987 0.0
C3012 C 0.83633 0.93815 0.64153 0.0
H3013 H 0.8353 0.90182 0.6141 0.0
C3014 C 0.81934 0.94044 0.64398 0.0
C3015 C 0.84225 0.92393 0.63102 0.0
C3016 C 0.86039 0.92057 0.62872 0.0
C3017 C 0.80808 0.92915 0.63568 0.0
C3018 C 0.81397 0.9152 0.62465 0.0
C3019 C 0.83092 0.91262 0.62252 0.0
C3020 C 0.80228 0.90362 0.6149 0.0
C3021 C 0.7899 0.93237 0.63821 0.0
C3022 C 0.7947 0.89166 0.62758 0.0
C3023 C 0.78055 0.88374 0.62033 0.0
C3024 C 0.77373 0.88778 0.60033 0.0
C3025 C 0.78231 0.89867 0.58692 0.0
C3026 C 0.79647 0.90658 0.5942 0.0
H3027 H 0.78737 0.94399 0.64694 0.0
H3028 H 0.78397 0.93305 0.62227 0.0
H3029 H 0.7841 0.92206 0.64705 0.0
H3030 H 0.79903 0.88933 0.64366 0.0
H3031 H 0.77439 0.87526 0.631 0.0
H3032 H 0.85073 0.02619 0.3139 0.0
H3033 H 0.8373 0.05235 0.322 0.0
H3034 H 0.85113 0.04734 0.3882 0.0
H3035 H 0.865 0.02159 0.38016 0.0
H3036 H 0.81153 0.05359 0.3469 0.0
H3037 H 0.85796 0.09559 0.38076 0.0
H3038 H 0.86355 0.07733 0.36604 0.0
H3039 H 0.85856 0.0761 0.39404 0.0
C3040 C 0.85126 0.03087 0.33008 0.0
C3041 C 0.85877 0.02173 0.34644 0.0
C3042 C 0.84364 0.04585 0.33467 0.0
C3043 C 0.84335 0.05191 0.35567 0.0
C3044 C 0.85156 0.04319 0.37178 0.0
H3045 H 0.77529 0.10095 0.43381 0.0
H3046 H 0.79978 0.08807 0.41864 0.0
C3047 C 0.85934 0.02833 0.36718 0.0
C3048 C 0.83228 0.06567 0.36144 0.0
H3049 H 0.82961 0.10049 0.3918 0.0
C3050 C 0.81557 0.06406 0.35624 0.0
C3051 C 0.83754 0.07929 0.37377 0.0
C3052 C 0.85543 0.08226 0.37877 0.0
C3053 C 0.80387 0.07516 0.36399 0.0
C3054 C 0.80902 0.08828 0.37716 0.0
C3055 C 0.82576 0.09034 0.38174 0.0
C3056 C 0.79682 0.09908 0.38745 0.0
C3057 C 0.78594 0.0723 0.35892 0.0
C3058 C 0.78756 0.11006 0.37514 0.0
C3059 C 0.7735 0.11736 0.38369 0.0
C3060 C 0.76849 0.11374 0.4047 0.0
C3061 C 0.77866 0.10385 0.41754 0.0
C3062 C 0.79272 0.09654 0.40894 0.0
H3063 H 0.78383 0.06035 0.35076 0.0
H3064 H 0.77848 0.0726 0.37376 0.0
H3065 H 0.78144 0.08226 0.34832 0.0
H3066 H 0.79063 0.11218 0.35853 0.0
H3067 H 0.7661 0.1251 0.37342 0.0
H3068 H 0.64331 0.02922 0.19083 0.0
H3069 H 0.65654 0.05501 0.18058 0.0
H3070 H 0.64874 0.0433 0.11414 0.0
H3071 H 0.63514 0.01786 0.12425 0.0
H3072 H 0.68425 0.05529 0.15952 0.0
H3073 H 0.63958 0.09145 0.11274 0.0
H3074 H 0.63341 0.07437 0.12933 0.0
H3075 H 0.64093 0.07089 0.10263 0.0
C3076 C 0.64413 0.0323 0.17408 0.0
C3077 C 0.63841 0.02138 0.15837 0.0
C3078 C 0.6516 0.04709 0.16823 0.0
C3079 C 0.65351 0.05119 0.14658 0.0
C3080 C 0.64704 0.04068 0.13094 0.0
H3081 H 0.72724 0.09681 0.07302 0.0
H3082 H 0.70216 0.08343 0.08578 0.0
C3083 C 0.6394 0.02601 0.13677 0.0
C3084 C 0.66449 0.06486 0.14024 0.0
H3085 H 0.6685 0.09685 0.10525 0.0
C3086 C 0.68066 0.06461 0.14805 0.0
C3087 C 0.65985 0.07697 0.12516 0.0
C3088 C 0.64243 0.07853 0.11718 0.0
C3089 C 0.69253 0.07558 0.14041 0.0
C3090 C 0.68808 0.08713 0.12461 0.0
C3091 C 0.67181 0.08786 0.1173 0.0
C3092 C 0.70065 0.09775 0.11481 0.0
C3093 C 0.70995 0.07427 0.14858 0.0
C3094 C 0.7076 0.11062 0.12658 0.0
C3095 C 0.72193 0.11824 0.11942 0.0
C3096 C 0.72954 0.11305 0.10038 0.0
C3097 C 0.72175 0.10103 0.08779 0.0
C3098 C 0.7074 0.09341 0.095 0.0
H3099 H 0.71175 0.06342 0.15909 0.0
H3100 H 0.7187 0.07343 0.13501 0.0
H3101 H 0.71305 0.08549 0.15783 0.0
H3102 H 0.70248 0.1141 0.1419 0.0
H3103 H 0.72749 0.1276 0.12939 0.0
H3104 H 0.76547 0.58623 0.57997 0.0
H3105 H 0.79093 0.57377 0.59247 0.0
H3106 H 0.8037 0.61883 0.62497 0.0
H3107 H 0.7775 0.63095 0.61374 0.0
H3108 H 0.82204 0.57823 0.58952 0.0
H3109 H 0.80465 0.58881 0.67433 0.0
H3110 H 0.79091 0.59345 0.65265 0.0
H3111 H 0.8076 0.60717 0.65899 0.0
C3112 C 0.7738 0.59355 0.58957 0.0
C3113 C 0.76943 0.60942 0.59622 0.0
C3114 C 0.78838 0.58644 0.5967 0.0
C3115 C 0.79904 0.59518 0.61024 0.0
C3116 C 0.79538 0.61161 0.61527 0.0
H3117 H 0.88151 0.52944 0.64351 0.0
H3118 H 0.86878 0.55531 0.63213 0.0
C3119 C 0.78051 0.61857 0.60868 0.0
C3120 C 0.81318 0.58646 0.62006 0.0
H3121 H 0.8282 0.57325 0.66798 0.0
C3122 C 0.8235 0.57723 0.60669 0.0
C3123 C 0.81509 0.58522 0.64251 0.0
C3124 C 0.80391 0.59407 0.65798 0.0
C3125 C 0.83468 0.56577 0.615 0.0
C3126 C 0.83626 0.5642 0.63746 0.0
C3127 C 0.82695 0.57446 0.65081 0.0
C3128 C 0.8454 0.55036 0.64739 0.0
C3129 C 0.84361 0.55462 0.59958 0.0
C3130 C 0.83701 0.53968 0.66126 0.0
C3131 C 0.84447 0.52529 0.66845 0.0
C3132 C 0.86033 0.52113 0.66154 0.0
C3133 C 0.86915 0.53228 0.64879 0.0
C3134 C 0.86183 0.54697 0.6421 0.0
H3135 H 0.83818 0.55505 0.58331 0.0
H3136 H 0.85662 0.55857 0.59829 0.0
H3137 H 0.84333 0.54167 0.60517 0.0
H3138 H 0.82435 0.54203 0.66569 0.0
H3139 H 0.83739 0.51693 0.67829 0.0
H3140 H 0.72923 0.62326 0.87697 0.0
H3141 H 0.70445 0.60855 0.86623 0.0
H3142 H 0.70356 0.5835 0.92689 0.0
H3143 H 0.72853 0.59789 0.93768 0.0
H3144 H 0.70597 0.5629 0.89216 0.0
H3145 H 0.65517 0.60751 0.88031 0.0
H3146 H 0.6742 0.61333 0.86787 0.0
H3147 H 0.67302 0.61203 0.89647 0.0
C3148 C 0.72355 0.61494 0.88828 0.0
C3149 C 0.73102 0.61156 0.90807 0.0
C3150 C 0.70927 0.60666 0.88216 0.0
C3151 C 0.70215 0.59501 0.8958 0.0
C3152 C 0.70887 0.59252 0.91618 0.0
H3153 H 0.62558 0.52347 0.87656 0.0
H3154 H 0.64056 0.54804 0.88768 0.0
C3155 C 0.72316 0.60074 0.9223 0.0
C3156 C 0.68967 0.58347 0.88751 0.0
H3157 H 0.65156 0.58079 0.86483 0.0
C3158 C 0.69402 0.56681 0.88638 0.0
C3159 C 0.67415 0.58864 0.87988 0.0
C3160 C 0.66875 0.60634 0.88133 0.0
C3161 C 0.68336 0.55517 0.87756 0.0
C3162 C 0.66803 0.56037 0.86942 0.0
C3163 C 0.66346 0.57697 0.87085 0.0
C3164 C 0.65655 0.54833 0.86013 0.0
C3165 C 0.68854 0.53734 0.87702 0.0
C3166 C 0.66021 0.54087 0.84052 0.0
C3167 C 0.65174 0.52678 0.83411 0.0
C3168 C 0.63957 0.51993 0.84735 0.0
C3169 C 0.63503 0.52831 0.86612 0.0
C3170 C 0.64348 0.54242 0.87246 0.0
H3171 H 0.69962 0.53502 0.88697 0.0
H3172 H 0.67842 0.52931 0.88274 0.0
H3173 H 0.69141 0.53378 0.86033 0.0
H3174 H 0.6703 0.54535 0.83084 0.0
H3175 H 0.65544 0.52072 0.81947 0.0
H3176 H 0.63172 0.48026 0.1283 0.0
H3177 H 0.64606 0.45485 0.11972 0.0
H3178 H 0.6667 0.45361 0.18315 0.0
H3179 H 0.65269 0.47935 0.19177 0.0
H3180 H 0.6898 0.45343 0.15296 0.0
H3181 H 0.64329 0.40637 0.13264 0.0
H3182 H 0.63982 0.42525 0.11857 0.0
H3183 H 0.63824 0.42485 0.14724 0.0
C3184 C 0.63899 0.47441 0.14063 0.0
C3185 C 0.64128 0.48198 0.16062 0.0
C3186 C 0.64705 0.45975 0.13575 0.0
C3187 C 0.65733 0.45225 0.15085 0.0
C3188 C 0.65876 0.45919 0.1713 0.0
H3189 H 0.73033 0.37569 0.13089 0.0
H3190 H 0.70591 0.38983 0.14426 0.0
C3191 C 0.65079 0.47392 0.17617 0.0
C3192 C 0.66865 0.43899 0.14412 0.0
H3193 H 0.6706 0.40209 0.11809 0.0
C3194 C 0.68557 0.44206 0.14574 0.0
C3195 C 0.66312 0.42421 0.13457 0.0
C3196 C 0.64511 0.41989 0.13334 0.0
C3197 C 0.6971 0.43109 0.13733 0.0
C3198 C 0.69156 0.41673 0.12693 0.0
C3199 C 0.67471 0.41326 0.12591 0.0
C3200 C 0.70344 0.4056 0.1167 0.0
C3201 C 0.71518 0.4351 0.13904 0.0
C3202 C 0.70964 0.40947 0.09644 0.0
C3203 C 0.72364 0.4015 0.08875 0.0
C3204 C 0.73166 0.38964 0.10133 0.0
C3205 C 0.72455 0.38489 0.12089 0.0
C3206 C 0.71054 0.39286 0.12853 0.0
H3207 H 0.7175 0.44617 0.14899 0.0
H3208 H 0.72194 0.42454 0.14606 0.0
H3209 H 0.72027 0.43731 0.12285 0.0
H3210 H 0.70428 0.41938 0.08721 0.0
H3211 H 0.72873 0.4054 0.0736 0.0
H3212 H 0.88217 0.47196 0.36467 0.0
H3213 H 0.87111 0.44497 0.37426 0.0
H3214 H 0.82687 0.45588 0.33884 0.0
H3215 H 0.83835 0.48219 0.32808 0.0
H3216 H 0.8477 0.43914 0.39827 0.0
H3217 H 0.83041 0.40966 0.32306 0.0
H3218 H 0.8436 0.42749 0.32348 0.0
H3219 H 0.82149 0.42974 0.32257 0.0
C3220 C 0.87028 0.46832 0.35846 0.0
C3221 C 0.86109 0.47912 0.34564 0.0
C3222 C 0.86397 0.45292 0.36395 0.0
C3223 C 0.84822 0.44818 0.35705 0.0
C3224 C 0.83928 0.45885 0.34374 0.0
H3225 H 0.77105 0.41147 0.4265 0.0
H3226 H 0.79702 0.42315 0.41495 0.0
C3227 C 0.84578 0.47403 0.33776 0.0
C3228 C 0.8401 0.43336 0.36607 0.0
H3229 H 0.81142 0.40449 0.35339 0.0
C3230 C 0.84014 0.43125 0.38835 0.0
C3231 C 0.83069 0.4225 0.35333 0.0
C3232 C 0.83176 0.42238 0.32928 0.0
C3233 C 0.82976 0.41981 0.39824 0.0
C3234 C 0.81844 0.41085 0.38563 0.0
C3235 C 0.81968 0.41168 0.36326 0.0
C3236 C 0.80395 0.40243 0.39506 0.0
C3237 C 0.8308 0.41782 0.42215 0.0
C3238 C 0.79889 0.38695 0.38755 0.0
C3239 C 0.78365 0.38051 0.39356 0.0
C3240 C 0.77333 0.38932 0.40747 0.0
C3241 C 0.77881 0.40431 0.41595 0.0
C3242 C 0.79382 0.41093 0.40951 0.0
H3243 H 0.84375 0.41893 0.42761 0.0
H3244 H 0.82375 0.42782 0.43 0.0
H3245 H 0.8259 0.40577 0.4275 0.0
H3246 H 0.80643 0.38015 0.37636 0.0
H3247 H 0.77972 0.36888 0.38685 0.0
H3248 H 0.22983 0.37422 0.3778 0.0
H3249 H 0.20466 0.38727 0.36496 0.0
H3250 H 0.20291 0.4173 0.42162 0.0
H3251 H 0.22809 0.40437 0.43469 0.0
H3252 H 0.17008 0.40457 0.40228 0.0
H3253 H 0.21315 0.43729 0.34748 0.0
H3254 H 0.21399 0.41519 0.34828 0.0
H3255 H 0.22026 0.42687 0.37117 0.0
C3256 C 0.2239 0.38332 0.38781 0.0
C3257 C 0.23115 0.3885 0.40709 0.0
C3258 C 0.20949 0.39069 0.38046 0.0
C3259 C 0.20212 0.40331 0.39228 0.0
C3260 C 0.20848 0.40753 0.41234 0.0
H3261 H 0.13837 0.48421 0.38551 0.0
H3262 H 0.15167 0.45837 0.3946 0.0
C3263 C 0.2229 0.40016 0.41974 0.0
C3264 C 0.18954 0.41387 0.38238 0.0
H3265 H 0.1858 0.44584 0.34763 0.0
C3266 C 0.17338 0.41347 0.39011 0.0
C3267 C 0.19395 0.42533 0.36643 0.0
C3268 C 0.21128 0.42636 0.35784 0.0
C3269 C 0.16153 0.42462 0.38261 0.0
C3270 C 0.16619 0.4367 0.3675 0.0
C3271 C 0.1822 0.43656 0.35915 0.0
C3272 C 0.1555 0.45077 0.36182 0.0
C3273 C 0.14422 0.42343 0.3911 0.0
C3274 C 0.15325 0.4552 0.34034 0.0
C3275 C 0.14598 0.47022 0.33508 0.0
C3276 C 0.14079 0.48103 0.35122 0.0
C3277 C 0.14221 0.47614 0.37267 0.0
C3278 C 0.14966 0.46125 0.37792 0.0
H3279 H 0.14111 0.41054 0.39537 0.0
H3280 H 0.1432 0.43093 0.40585 0.0
H3281 H 0.13509 0.42798 0.37932 0.0
H3282 H 0.15773 0.44732 0.32766 0.0
H3283 H 0.14479 0.4735 0.31843 0.0
H3284 H 0.26904 0.37527 0.13326 0.0
H3285 H 0.29469 0.38691 0.14682 0.0
H3286 H 0.29939 0.41624 0.08983 0.0
H3287 H 0.27379 0.4047 0.07607 0.0
H3288 H 0.33072 0.40218 0.10891 0.0
H3289 H 0.28999 0.43664 0.16492 0.0
H3290 H 0.28813 0.41461 0.16426 0.0
H3291 H 0.28206 0.4265 0.14146 0.0
C3292 C 0.27568 0.38395 0.12339 0.0
C3293 C 0.26921 0.38929 0.10371 0.0
C3294 C 0.29036 0.39052 0.13115 0.0
C3295 C 0.29876 0.40252 0.1194 0.0
C3296 C 0.29305 0.40694 0.09908 0.0
H3297 H 0.36463 0.48085 0.12414 0.0
H3298 H 0.35118 0.45493 0.11589 0.0
C3299 C 0.27838 0.40037 0.09127 0.0
C3300 C 0.31199 0.41223 0.12939 0.0
H3301 H 0.31769 0.44383 0.16427 0.0
C3302 C 0.32801 0.41113 0.12127 0.0
C3303 C 0.30835 0.42377 0.14558 0.0
C3304 C 0.29121 0.42561 0.15457 0.0
C3305 C 0.34045 0.42173 0.12851 0.0
C3306 C 0.33655 0.43396 0.14378 0.0
C3307 C 0.3207 0.43442 0.15263 0.0
C3308 C 0.34779 0.44773 0.1489 0.0
C3309 C 0.35754 0.41985 0.11949 0.0
C3310 C 0.35047 0.45236 0.17023 0.0
C3311 C 0.35784 0.46743 0.175 0.0
C3312 C 0.36268 0.47809 0.15853 0.0
C3313 C 0.36105 0.4729 0.13722 0.0
C3314 C 0.3535 0.45796 0.13246 0.0
H3315 H 0.3601 0.40682 0.11534 0.0
H3316 H 0.35854 0.42716 0.10459 0.0
H3317 H 0.36705 0.42418 0.13091 0.0
H3318 H 0.34613 0.44467 0.18318 0.0
H3319 H 0.35923 0.47093 0.19155 0.0
H3320 H 0.36174 0.51471 0.88363 0.0
H3321 H 0.34792 0.54013 0.89366 0.0
H3322 H 0.34504 0.55423 0.82736 0.0
H3323 H 0.35822 0.52836 0.81709 0.0
H3324 H 0.35144 0.57295 0.88923 0.0
H3325 H 0.29729 0.55101 0.84298 0.0
H3326 H 0.31507 0.53829 0.84752 0.0
H3327 H 0.31548 0.554 0.82729 0.0
C3328 C 0.3584 0.52332 0.87117 0.0
C3329 C 0.36069 0.51936 0.84951 0.0
C3330 C 0.35055 0.53789 0.87695 0.0
C3331 C 0.34504 0.54884 0.86121 0.0
C3332 C 0.34874 0.54568 0.8397 0.0
H3333 H 0.27021 0.62404 0.8768 0.0
H3334 H 0.29555 0.61116 0.8644 0.0
C3335 C 0.35631 0.53093 0.83386 0.0
C3336 C 0.33391 0.56245 0.86731 0.0
H3337 H 0.29439 0.57577 0.86152 0.0
C3338 C 0.33902 0.5737 0.88301 0.0
C3339 C 0.31763 0.56328 0.85932 0.0
C3340 C 0.31095 0.55093 0.84351 0.0
C3341 C 0.32817 0.58555 0.89123 0.0
C3342 C 0.3119 0.58613 0.88345 0.0
C3343 C 0.30697 0.57533 0.86725 0.0
C3344 C 0.29916 0.59673 0.893 0.0
C3345 C 0.33401 0.59716 0.90838 0.0
C3346 C 0.29308 0.59316 0.91344 0.0
C3347 C 0.27848 0.60037 0.92055 0.0
C3348 C 0.26973 0.61119 0.90723 0.0
C3349 C 0.27654 0.61563 0.88739 0.0
C3350 C 0.29108 0.60837 0.88029 0.0
H3351 H 0.34765 0.59773 0.90912 0.0
H3352 H 0.32912 0.60974 0.90562 0.0
H3353 H 0.3294 0.59287 0.92409 0.0
H3354 H 0.29902 0.58398 0.92331 0.0
H3355 H 0.2736 0.59671 0.93591 0.0
H3356 H 0.23008 0.5965 0.56456 0.0
H3357 H 0.20519 0.58141 0.57423 0.0
H3358 H 0.20447 0.60564 0.6355 0.0
H3359 H 0.22909 0.62096 0.62592 0.0
H3360 H 0.20676 0.56024 0.6077 0.0
H3361 H 0.15579 0.60425 0.6207 0.0
H3362 H 0.17396 0.60943 0.60551 0.0
H3363 H 0.17434 0.61014 0.63422 0.0
C3364 C 0.22438 0.59895 0.57987 0.0
C3365 C 0.23172 0.60972 0.59461 0.0
C3366 C 0.21013 0.59036 0.58533 0.0
C3367 C 0.20295 0.59248 0.60553 0.0
C3368 C 0.20961 0.60405 0.61968 0.0
H3369 H 0.15915 0.51876 0.68417 0.0
H3370 H 0.17365 0.54295 0.67064 0.0
C3371 C 0.22382 0.61268 0.61423 0.0
C3372 C 0.19047 0.58069 0.61323 0.0
H3373 H 0.15293 0.57766 0.63738 0.0
C3374 C 0.1949 0.56404 0.61389 0.0
C3375 C 0.17504 0.5857 0.62137 0.0
C3376 C 0.16942 0.60334 0.62025 0.0
C3377 C 0.18453 0.5523 0.62305 0.0
C3378 C 0.16944 0.55739 0.63202 0.0
C3379 C 0.16468 0.57393 0.63077 0.0
C3380 C 0.15854 0.54537 0.64241 0.0
C3381 C 0.18985 0.53451 0.6233 0.0
C3382 C 0.14488 0.53929 0.63137 0.0
C3383 C 0.13661 0.52545 0.63898 0.0
C3384 C 0.14191 0.51754 0.65775 0.0
C3385 C 0.15481 0.52451 0.66964 0.0
C3386 C 0.16309 0.53833 0.66196 0.0
H3387 H 0.20047 0.53223 0.61255 0.0
H3388 H 0.19349 0.53104 0.63977 0.0
H3389 H 0.17955 0.52638 0.61841 0.0
H3390 H 0.14125 0.54461 0.61623 0.0
H3391 H 0.1266 0.52049 0.62956 0.0
H3392 H 0.18987 0.18028 0.03864 0.0
H3393 H 0.18773 0.20932 0.02773 0.0
H3394 H 0.2349 0.21905 0.05664 0.0
H3395 H 0.23711 0.19022 0.06707 0.0
H3396 H 0.18674 0.23509 0.05539 0.0
H3397 H 0.23943 0.24379 1.00121 0.0
H3398 H 0.23157 0.22366 0.00786 0.0
H3399 H 0.24586 0.23392 0.02538 0.0
C3400 C 0.19993 0.1886 0.04205 0.0
C3401 C 0.21368 0.18312 0.05355 0.0
C3402 C 0.19869 0.20514 0.03592 0.0
C3403 C 0.21128 0.21632 0.04103 0.0
C3404 C 0.22523 0.21062 0.05197 0.0
H3405 H 0.23238 0.31198 0.0755 0.0
H3406 H 0.23062 0.28313 0.06469 0.0
C3407 C 0.22644 0.19419 0.05809 0.0
C3408 C 0.20927 0.23426 0.03737 0.0
H3409 H 0.23052 0.26816 0.02084 0.0
C3410 C 0.19604 0.24231 0.04727 0.0
C3411 C 0.22137 0.24369 0.02672 0.0
C3412 C 0.23525 0.23577 0.0145 0.0
C3413 C 0.19534 0.25956 0.04835 0.0
C3414 C 0.20814 0.26893 0.03914 0.0
C3415 C 0.22076 0.26092 0.02798 0.0
C3416 C 0.20985 0.28673 0.04363 0.0
C3417 C 0.18157 0.26763 0.06063 0.0
C3418 C 0.19896 0.29837 0.03498 0.0
C3419 C 0.2 0.31493 0.04111 0.0
C3420 C 0.21185 0.31992 0.05607 0.0
C3421 C 0.22306 0.30835 0.06408 0.0
C3422 C 0.2221 0.29192 0.05785 0.0
H3423 H 0.17324 0.25851 0.06821 0.0
H3424 H 0.18669 0.27574 0.07326 0.0
H3425 H 0.17421 0.27542 0.04968 0.0
H3426 H 0.18947 0.29458 0.02388 0.0
H3427 H 0.19125 0.3237 0.03478 0.0
H3428 H 0.92803 0.94021 0.28818 0.0
H3429 H 0.9571 0.93776 0.2775 0.0
H3430 H 0.96763 0.98392 0.30856 0.0
H3431 H 0.93874 0.98644 0.31891 0.0
H3432 H 0.98343 0.97972 0.26793 0.0
H3433 H 0.99266 0.92642 0.32261 0.0
H3434 H 0.97667 0.92482 0.30287 0.0
H3435 H 0.97471 0.9394 0.32423 0.0
C3436 C 0.93657 0.94992 0.29231 0.0
C3437 C 0.93129 0.96348 0.30438 0.0
C3438 C 0.95313 0.94848 0.28637 0.0
C3439 C 0.96454 0.96058 0.29247 0.0
C3440 C 0.95904 0.97445 0.3037 0.0
H3441 H 0.06155 0.98775 0.31449 0.0
H3442 H 0.03266 0.98551 0.30426 0.0
C3443 C 0.94258 0.97586 0.30966 0.0
C3444 C 0.98242 0.95858 0.28857 0.0
H3445 H 0.01611 0.93802 0.30714 0.0
C3446 C 0.99057 0.97041 0.27616 0.0
C3447 C 0.9917 0.94638 0.29924 0.0
C3448 C 0.98359 0.93355 0.31311 0.0
C3449 C 0.0078 0.97084 0.27497 0.0
C3450 C 0.01711 0.95933 0.28681 0.0
C3451 C 0.00894 0.94685 0.29808 0.0
C3452 C 0.03507 0.96132 0.29016 0.0
C3453 C 0.01588 0.98393 0.26152 0.0
C3454 C 0.04609 0.94844 0.28572 0.0
C3455 C 0.06267 0.94972 0.29163 0.0
C3456 C 0.06833 0.96381 0.30227 0.0
C3457 C 0.05743 0.97683 0.30613 0.0
C3458 C 0.04096 0.9756 0.30016 0.0
H3459 H 0.00782 0.98768 0.24806 0.0
H3460 H 0.01815 0.99496 0.27152 0.0
H3461 H 0.02783 0.97963 0.25499 0.0
H3462 H 0.04175 0.93723 0.27826 0.0
H3463 H 0.07087 0.93947 0.28877 0.0
H3464 H 0.26377 0.69019 0.565 0.0
H3465 H 0.26603 0.71958 0.55726 0.0
H3466 H 0.31472 0.71196 0.53186 0.0
H3467 H 0.31241 0.68232 0.53961 0.0
H3468 H 0.29394 0.73731 0.57753 0.0
H3469 H 0.29025 0.74527 0.48925 0.0
H3470 H 0.2807 0.72803 0.50259 0.0
H3471 H 0.30262 0.72886 0.50009 0.0
C3472 C 0.27476 0.69474 0.55721 0.0
C3473 C 0.28791 0.68412 0.55284 0.0
C3474 C 0.27605 0.71149 0.55282 0.0
C3475 C 0.2905 0.71791 0.54392 0.0
C3476 C 0.30337 0.70718 0.53845 0.0
H3477 H 0.31544 0.82337 0.54163 0.0
H3478 H 0.31676 0.79362 0.53408 0.0
C3479 C 0.30206 0.69032 0.54285 0.0
C3480 C 0.29271 0.73597 0.54325 0.0
H3481 H 0.29258 0.76937 0.51014 0.0
C3482 C 0.29381 0.74431 0.56278 0.0
C3483 C 0.29267 0.745 0.52397 0.0
C3484 C 0.29145 0.73644 0.50269 0.0
C3485 C 0.29436 0.7615 0.56363 0.0
C3486 C 0.29355 0.77061 0.54445 0.0
C3487 C 0.29312 0.76231 0.5248 0.0
C3488 C 0.29201 0.78873 0.54502 0.0
C3489 C 0.29546 0.76985 0.58512 0.0
C3490 C 0.27751 0.79578 0.55296 0.0
C3491 C 0.27679 0.81258 0.55728 0.0
C3492 C 0.29051 0.82261 0.55357 0.0
C3493 C 0.30469 0.8158 0.54438 0.0
C3494 C 0.30544 0.79889 0.54011 0.0
H3495 H 0.29968 0.76127 0.59779 0.0
H3496 H 0.304 0.7805 0.58448 0.0
H3497 H 0.28313 0.77453 0.58966 0.0
H3498 H 0.26702 0.78812 0.55683 0.0
H3499 H 0.26577 0.81763 0.56448 0.0
H3500 H 0.43514 0.02005 0.79229 0.0
H3501 H 0.46466 0.02244 0.78438 0.0
H3502 H 0.46453 0.07194 0.80909 0.0
H3503 H 0.43511 0.06948 0.81717 0.0
H3504 H 0.48607 0.04657 0.76154 0.0
H3505 H 0.49479 0.04446 0.84959 0.0
H3506 H 0.47565 0.0389 0.83696 0.0
H3507 H 0.48107 0.06016 0.84013 0.0
C3508 C 0.44137 0.03158 0.7954 0.0
C3509 C 0.43303 0.04456 0.80542 0.0
C3510 C 0.45818 0.03293 0.79092 0.0
C3511 C 0.46678 0.04729 0.79642 0.0
C3512 C 0.45812 0.06071 0.80491 0.0
H3513 H 0.56978 0.06553 0.82038 0.0
H3514 H 0.54054 0.06946 0.81252 0.0
C3515 C 0.44137 0.05933 0.80945 0.0
C3516 C 0.48499 0.04751 0.79586 0.0
H3517 H 0.51847 0.04809 0.82864 0.0
C3518 C 0.49321 0.04695 0.77616 0.0
C3519 C 0.49422 0.04788 0.81499 0.0
C3520 C 0.48604 0.04774 0.83665 0.0
C3521 C 0.51051 0.04705 0.77512 0.0
C3522 C 0.51972 0.04745 0.79429 0.0
C3523 C 0.51142 0.04797 0.81393 0.0
C3524 C 0.53796 0.04675 0.79479 0.0
C3525 C 0.51875 0.04697 0.75356 0.0
C3526 C 0.54639 0.03297 0.78679 0.0
C3527 C 0.56315 0.03084 0.79108 0.0
C3528 C 0.57161 0.04235 0.80364 0.0
C3529 C 0.56346 0.05658 0.81054 0.0
C3530 C 0.54678 0.05878 0.80612 0.0
H3531 H 0.51036 0.05148 0.74084 0.0
H3532 H 0.53001 0.05469 0.75364 0.0
H3533 H 0.52237 0.03419 0.74949 0.0
H3534 H 0.53981 0.02335 0.77843 0.0
H3535 H 0.56921 0.01968 0.78587 0.0
H3536 H 0.18939 0.82071 0.96826 0.0
H3537 H 0.18702 0.79173 0.97931 0.0
H3538 H 0.23482 0.78187 0.95231 0.0
H3539 H 0.23722 0.81065 0.9416 0.0
H3540 H 0.18708 0.76568 0.95118 0.0
H3541 H 0.23771 0.75779 0.00892 0.0
H3542 H 0.22976 0.77777 1.0017 0.0
H3543 H 0.2447 0.76767 0.985 0.0
C3544 C 0.19951 0.81237 0.96526 0.0
C3545 C 0.21351 0.8178 0.95421 0.0
C3546 C 0.19815 0.79587 0.97148 0.0
C3547 C 0.21086 0.78468 0.96695 0.0
C3548 C 0.22504 0.79032 0.95648 0.0
H3549 H 0.23437 0.68811 0.93857 0.0
H3550 H 0.23241 0.71703 0.94901 0.0
C3551 C 0.22636 0.80672 0.95022 0.0
C3552 C 0.20878 0.76678 0.97079 0.0
H3553 H 0.22923 0.73318 0.98982 0.0
C3554 C 0.19601 0.75857 0.96012 0.0
C3555 C 0.22042 0.75754 0.9825 0.0
C3556 C 0.23381 0.76568 0.99536 0.0
C3557 C 0.19536 0.74132 0.9594 0.0
C3558 C 0.20768 0.73207 0.9699 0.0
C3559 C 0.21982 0.74029 0.98173 0.0
C3560 C 0.20951 0.71415 0.9662 0.0
C3561 C 0.1822 0.73312 0.94615 0.0
C3562 C 0.19752 0.70284 0.97296 0.0
C3563 C 0.19867 0.68625 0.967 0.0
C3564 C 0.21179 0.68087 0.95423 0.0
C3565 C 0.22412 0.69205 0.94838 0.0
C3566 C 0.22303 0.70852 0.95437 0.0
H3567 H 0.17486 0.74212 0.93683 0.0
H3568 H 0.18778 0.72415 0.93492 0.0
H3569 H 0.17372 0.72628 0.95681 0.0
H3570 H 0.18709 0.70693 0.98229 0.0
H3571 H 0.18901 0.6778 0.97159 0.0
H3572 H 0.5633 0.93808 0.192 0.0
H3573 H 0.53405 0.93711 0.2014 0.0
H3574 H 0.53831 0.98447 0.23193 0.0
H3575 H 0.5675 0.98563 0.22196 0.0
H3576 H 0.51523 0.93971 0.23913 0.0
H3577 H 0.50485 0.9925 0.18424 0.0
H3578 H 0.52403 0.9814 0.18505 0.0
H3579 H 0.51922 0.99614 0.2055 0.0
C3580 C 0.558 0.94813 0.20104 0.0
C3581 C 0.56749 0.962 0.20607 0.0
C3582 C 0.54135 0.94756 0.20645 0.0
C3583 C 0.53394 0.96086 0.217 0.0
C3584 C 0.54372 0.9742 0.22345 0.0
H3585 H 0.42859 0.98198 0.22094 0.0
H3586 H 0.45772 0.98224 0.2312 0.0
C3587 C 0.56039 0.97481 0.21793 0.0
C3588 C 0.51578 0.96133 0.21931 0.0
H3589 H 0.48167 0.98119 0.2008 0.0
C3590 C 0.50788 0.94887 0.23096 0.0
C3591 C 0.5062 0.97327 0.20855 0.0
C3592 C 0.51394 0.98652 0.19497 0.0
C3593 C 0.49062 0.94791 0.23187 0.0
C3594 C 0.48108 0.95957 0.22061 0.0
C3595 C 0.489 0.97232 0.20956 0.0
C3596 C 0.46296 0.95811 0.21832 0.0
C3597 C 0.48279 0.93436 0.24477 0.0
C3598 C 0.45614 0.9443 0.20816 0.0
C3599 C 0.43954 0.94414 0.2024 0.0
C3600 C 0.42954 0.95782 0.20653 0.0
C3601 C 0.43608 0.97124 0.21775 0.0
C3602 C 0.4527 0.97142 0.22352 0.0
H3603 H 0.49111 0.93002 0.25766 0.0
H3604 H 0.47103 0.93847 0.25203 0.0
H3605 H 0.48017 0.92376 0.23414 0.0
H3606 H 0.46385 0.93404 0.20356 0.0
H3607 H 0.4347 0.93367 0.19374 0.0
H3608 H 0.31391 0.1798 0.47141 0.0
H3609 H 0.3159 0.20887 0.48229 0.0
H3610 H 0.26833 0.21816 0.45428 0.0
H3611 H 0.26633 0.18932 0.44371 0.0
H3612 H 0.31609 0.2345 0.45373 0.0
H3613 H 0.26466 0.24313 0.51005 0.0
H3614 H 0.27272 0.22305 0.50348 0.0
H3615 H 0.25794 0.23287 0.48626 0.0
C3616 C 0.30373 0.18803 0.46821 0.0
C3617 C 0.28993 0.18245 0.4569 0.0
C3618 C 0.30488 0.20459 0.47433 0.0
C3619 C 0.29214 0.21565 0.46941 0.0
C3620 C 0.27811 0.20982 0.45878 0.0
H3621 H 0.26821 0.31132 0.4373 0.0
H3622 H 0.27052 0.28258 0.44837 0.0
C3623 C 0.27702 0.19338 0.45261 0.0
C3624 C 0.29411 0.23362 0.47284 0.0
H3625 H 0.27311 0.26743 0.49016 0.0
C3626 C 0.30698 0.24172 0.46222 0.0
C3627 C 0.28223 0.24301 0.48395 0.0
C3628 C 0.26872 0.23503 0.49676 0.0
C3629 C 0.3075 0.25896 0.46092 0.0
C3630 C 0.29493 0.26831 0.47074 0.0
C3631 C 0.2827 0.26024 0.48257 0.0
C3632 C 0.29297 0.28611 0.46632 0.0
C3633 C 0.32079 0.267 0.44775 0.0
C3634 C 0.30463 0.29773 0.4732 0.0
C3635 C 0.3033 0.31422 0.46687 0.0
C3636 C 0.29032 0.3192 0.45358 0.0
C3637 C 0.27836 0.3077 0.44747 0.0
C3638 C 0.27964 0.29133 0.45384 0.0
H3639 H 0.32845 0.25787 0.43908 0.0
H3640 H 0.31529 0.27557 0.43594 0.0
H3641 H 0.32895 0.27427 0.45837 0.0
H3642 H 0.31493 0.29396 0.48301 0.0
H3643 H 0.31267 0.32292 0.47168 0.0
H3644 H 0.06831 0.06883 0.69213 0.0
H3645 H 0.03901 0.07159 0.70053 0.0
H3646 H 0.03912 0.02289 0.72783 0.0
H3647 H 0.06854 0.02029 0.71972 0.0
H3648 H 0.01729 0.05059 0.68136 0.0
H3649 H 0.00932 0.04785 0.76926 0.0
H3650 H 0.02877 0.05272 0.75684 0.0
H3651 H 0.02193 0.03174 0.75843 0.0
C3652 C 0.06216 0.05899 0.70062 0.0
C3653 C 0.07054 0.04438 0.70534 0.0
C3654 C 0.04545 0.06053 0.70535 0.0
C3655 C 0.03687 0.04748 0.71491 0.0
C3656 C 0.04553 0.03325 0.72086 0.0
H3657 H 0.9345 0.01884 0.71698 0.0
H3658 H 0.96407 0.02149 0.72444 0.0
C3659 C 0.0623 0.03175 0.7162 0.0
C3660 C 0.01862 0.04779 0.7155 0.0
H3661 H 0.9851 0.04417 0.74811 0.0
C3662 C 0.01027 0.04939 0.696 0.0
C3663 C 0.00948 0.04597 0.73457 0.0
C3664 C 0.01781 0.04461 0.756 0.0
C3665 C 0.99307 0.04897 0.69496 0.0
C3666 C 0.98389 0.04725 0.71401 0.0
C3667 C 0.99218 0.04562 0.73357 0.0
C3668 C 0.96567 0.04668 0.71351 0.0
C3669 C 0.98489 0.04989 0.67334 0.0
C3670 C 0.9567 0.06018 0.70582 0.0
C3671 C 0.93992 0.05864 0.7015 0.0
C3672 C 0.93185 0.04366 0.70505 0.0
C3673 C 0.94052 0.03054 0.71427 0.0
C3674 C 0.95736 0.03204 0.71849 0.0
H3675 H 0.99365 0.04726 0.66016 0.0
H3676 H 0.9745 0.04108 0.67225 0.0
H3677 H 0.97994 0.06247 0.67089 0.0
H3678 H 0.96285 0.07164 0.70213 0.0
H3679 H 0.93341 0.06888 0.69436 0.0
H3680 H 0.76554 0.81967 0.964 0.0
H3681 H 0.76586 0.7904 0.97333 0.0
H3682 H 0.81706 0.7877 0.95564 0.0
H3683 H 0.81688 0.81711 0.94722 0.0
H3684 H 0.77105 0.76692 0.94487 0.0
H3685 H 0.81744 0.76009 0.00875 0.0
H3686 H 0.80894 0.77981 1.00142 0.0
H3687 H 0.82551 0.77096 0.98617 0.0
C3688 C 0.77698 0.81291 0.96287 0.0
C3689 C 0.79121 0.82057 0.95505 0.0
C3690 C 0.77714 0.7962 0.96806 0.0
C3691 C 0.79153 0.78685 0.96545 0.0
C3692 C 0.80592 0.79469 0.95835 0.0
H3693 H 0.81517 0.68714 0.93887 0.0
H3694 H 0.81545 0.71643 0.9483 0.0
C3695 C 0.80578 0.81144 0.95333 0.0
C3696 C 0.79096 0.76864 0.96744 0.0
H3697 H 0.8108 0.73547 0.98892 0.0
C3698 C 0.77953 0.76008 0.95485 0.0
C3699 C 0.80209 0.75968 0.98035 0.0
C3700 C 0.81407 0.76813 0.99509 0.0
C3701 C 0.77936 0.74285 0.95411 0.0
C3702 C 0.79082 0.7339 0.96648 0.0
C3703 C 0.80201 0.74239 0.97949 0.0
C3704 C 0.79203 0.71579 0.96464 0.0
C3705 C 0.76739 0.73433 0.93935 0.0
C3706 C 0.7791 0.70565 0.97151 0.0
C3707 C 0.77896 0.68895 0.96617 0.0
C3708 C 0.79172 0.68224 0.95385 0.0
C3709 C 0.8052 0.69213 0.94834 0.0
C3710 C 0.80537 0.7088 0.95373 0.0
H3711 H 0.76119 0.74308 0.92836 0.0
H3712 H 0.77378 0.72484 0.92968 0.0
H3713 H 0.75781 0.72807 0.94898 0.0
H3714 H 0.76876 0.71083 0.98007 0.0
H3715 H 0.76842 0.68152 0.97052 0.0
H3716 H 0.73572 0.18333 0.46452 0.0
H3717 H 0.7355 0.21269 0.47351 0.0
H3718 H 0.68468 0.21573 0.45409 0.0
H3719 H 0.68479 0.18628 0.44588 0.0
H3720 H 0.73089 0.23609 0.44444 0.0
H3721 H 0.68365 0.2436 0.50715 0.0
H3722 H 0.6922 0.2238 0.50028 0.0
H3723 H 0.67591 0.23257 0.48448 0.0
C3724 C 0.72438 0.1902 0.46291 0.0
C3725 C 0.71024 0.18263 0.45467 0.0
C3726 C 0.72427 0.20696 0.46792 0.0
C3727 C 0.71002 0.21642 0.46474 0.0
C3728 C 0.6957 0.20867 0.45723 0.0
H3729 H 0.6868 0.31627 0.43786 0.0
H3730 H 0.68637 0.28702 0.44748 0.0
C3731 C 0.6958 0.19189 0.45235 0.0
C3732 C 0.7107 0.23463 0.46659 0.0
H3733 H 0.69081 0.26805 0.48735 0.0
C3734 C 0.72233 0.24305 0.45416 0.0
C3735 C 0.69945 0.24374 0.47916 0.0
C3736 C 0.68721 0.23545 0.49368 0.0
C3737 C 0.7226 0.26028 0.45324 0.0
C3738 C 0.71106 0.26938 0.46531 0.0
C3739 C 0.69966 0.26102 0.47816 0.0
C3740 C 0.70999 0.2875 0.46334 0.0
C3741 C 0.73477 0.2686 0.43858 0.0
C3742 C 0.72308 0.29757 0.46992 0.0
C3743 C 0.72332 0.31424 0.46443 0.0
C3744 C 0.71049 0.32101 0.4523 0.0
C3745 C 0.69685 0.31123 0.44715 0.0
C3746 C 0.69659 0.29458 0.45265 0.0
H3747 H 0.74083 0.25976 0.42758 0.0
H3748 H 0.7286 0.27824 0.42891 0.0
H3749 H 0.74445 0.27464 0.44829 0.0
H3750 H 0.73346 0.29235 0.47835 0.0
H3751 H 0.73398 0.32159 0.46851 0.0
H3752 H 0.76419 0.19098 0.06565 0.0
H3753 H 0.76663 0.21957 0.05408 0.0
H3754 H 0.81365 0.20878 0.02544 0.0
H3755 H 0.8112 0.17996 0.03724 0.0
H3756 H 0.8143 0.23521 0.05355 0.0
H3757 H 0.76298 0.24294 0.99675 0.0
H3758 H 0.75635 0.23316 0.02092 0.0
H3759 H 0.77104 0.22298 0.00393 0.0
C3760 C 0.77487 0.19466 0.05647 0.0
C3761 C 0.78748 0.18338 0.05221 0.0
C3762 C 0.77621 0.21094 0.04973 0.0
C3763 C 0.79019 0.21627 0.03857 0.0
C3764 C 0.80266 0.20487 0.03379 0.0
H3765 H 0.81217 0.32312 0.03432 0.0
H3766 H 0.81416 0.29412 0.02306 0.0
C3767 C 0.80126 0.18847 0.04045 0.0
C3768 C 0.7924 0.23408 0.03434 0.0
H3769 H 0.77183 0.26763 0.01537 0.0
C3770 C 0.80531 0.24231 0.04468 0.0
C3771 C 0.78066 0.2433 0.02274 0.0
C3772 C 0.76708 0.2351 0.01027 0.0
C3773 C 0.80599 0.25956 0.04529 0.0
C3774 C 0.79356 0.26879 0.03496 0.0
C3775 C 0.78132 0.26054 0.02334 0.0
C3776 C 0.79165 0.28669 0.03879 0.0
C3777 C 0.81927 0.26777 0.05834 0.0
C3778 C 0.77805 0.29219 0.05055 0.0
C3779 C 0.77689 0.30859 0.05681 0.0
C3780 C 0.78926 0.31984 0.05134 0.0
C3781 C 0.80247 0.31461 0.03861 0.0
C3782 C 0.80366 0.29809 0.03235 0.0
H3783 H 0.82663 0.25878 0.06766 0.0
H3784 H 0.82771 0.27452 0.04754 0.0
H3785 H 0.8138 0.27681 0.06957 0.0
H3786 H 0.76865 0.28362 0.05568 0.0
H3787 H 0.76658 0.3124 0.0666 0.0
H3788 H 0.68858 0.81424 0.56781 0.0
H3789 H 0.6877 0.78496 0.55849 0.0
H3790 H 0.73598 0.78884 0.5304 0.0
H3791 H 0.73711 0.81797 0.54053 0.0
H3792 H 0.69069 0.76638 0.52146 0.0
H3793 H 0.74282 0.75476 0.57689 0.0
H3794 H 0.73218 0.77419 0.57597 0.0
H3795 H 0.74717 0.76914 0.55591 0.0
C3796 C 0.69889 0.80883 0.55941 0.0
C3797 C 0.71296 0.81822 0.55502 0.0
C3798 C 0.69837 0.79216 0.55402 0.0
C3799 C 0.71191 0.78463 0.54412 0.0
C3800 C 0.72553 0.79431 0.53842 0.0
H3801 H 0.73274 0.67937 0.53583 0.0
H3802 H 0.73275 0.70869 0.52637 0.0
C3803 C 0.72611 0.81096 0.54399 0.0
C3804 C 0.71223 0.7665 0.54146 0.0
H3805 H 0.73197 0.73195 0.55883 0.0
C3806 C 0.69979 0.75884 0.52947 0.0
C3807 C 0.72408 0.75666 0.55202 0.0
C3808 C 0.73724 0.76405 0.56608 0.0
C3809 C 0.6988 0.74162 0.52795 0.0
C3810 C 0.71045 0.73183 0.53887 0.0
C3811 C 0.72314 0.73949 0.55031 0.0
C3812 C 0.70897 0.71369 0.54046 0.0
C3813 C 0.68522 0.73404 0.51485 0.0
C3814 C 0.69543 0.70671 0.551 0.0
C3815 C 0.69544 0.69004 0.55638 0.0
C3816 C 0.70901 0.68012 0.55136 0.0
C3817 C 0.72209 0.68681 0.53966 0.0
C3818 C 0.72212 0.70352 0.53435 0.0
H3819 H 0.68058 0.74272 0.50256 0.0
H3820 H 0.68946 0.72262 0.50682 0.0
H3821 H 0.67481 0.73083 0.52551 0.0
H3822 H 0.68531 0.71436 0.55628 0.0
H3823 H 0.68528 0.68509 0.56554 0.0
H3824 H 0.56578 0.43346 0.81885 0.0
H3825 H 0.53658 0.43018 0.81022 0.0
H3826 H 0.53691 0.47724 0.77843 0.0
H3827 H 0.56626 0.48029 0.78667 0.0
H3828 H 0.51455 0.45153 0.82687 0.0
H3829 H 0.50769 0.45043 0.73878 0.0
H3830 H 0.52708 0.44655 0.75191 0.0
H3831 H 0.51983 0.46727 0.74853 0.0
C3832 C 0.5597 0.44279 0.80936 0.0
C3833 C 0.56813 0.45709 0.80335 0.0
C3834 C 0.54305 0.44095 0.80449 0.0
C3835 C 0.53454 0.45341 0.79357 0.0
C3836 C 0.54325 0.4673 0.78645 0.0
H3837 H 0.43205 0.48126 0.78929 0.0
H3838 H 0.46163 0.47864 0.7819 0.0
C3839 C 0.55998 0.46907 0.79121 0.0
C3840 C 0.5163 0.45297 0.79261 0.0
H3841 H 0.48316 0.45497 0.75909 0.0
C3842 C 0.50771 0.45207 0.81201 0.0
C3843 C 0.50738 0.45392 0.77324 0.0
C3844 C 0.51595 0.45446 0.75191 0.0
C3845 C 0.4905 0.45233 0.81265 0.0
C3846 C 0.48156 0.45323 0.79332 0.0
C3847 C 0.49007 0.45417 0.77386 0.0
C3848 C 0.46334 0.45363 0.79344 0.0
C3849 C 0.48203 0.45209 0.83411 0.0
C3850 C 0.45443 0.44018 0.80142 0.0
C3851 C 0.43764 0.4417 0.80569 0.0
C3852 C 0.42953 0.45662 0.80187 0.0
C3853 C 0.43812 0.46962 0.79225 0.0
C3854 C 0.45496 0.46814 0.78807 0.0
H3855 H 0.49061 0.4551 0.84736 0.0
H3856 H 0.47165 0.46097 0.83448 0.0
H3857 H 0.47698 0.43963 0.83707 0.0
H3858 H 0.46066 0.42883 0.80545 0.0
H3859 H 0.43119 0.43153 0.81306 0.0
H3860 H 0.07206 0.55871 0.28662 0.0
H3861 H 0.04304 0.56121 0.27563 0.0
H3862 H 0.03134 0.51746 0.31145 0.0
H3863 H 0.06013 0.51497 0.32233 0.0
H3864 H 0.01603 0.52037 0.26861 0.0
H3865 H 0.00747 0.57506 0.32123 0.0
H3866 H 0.02407 0.57523 0.30221 0.0
H3867 H 0.02473 0.56132 0.32439 0.0
C3868 C 0.06327 0.54952 0.29177 0.0
C3869 C 0.06817 0.53673 0.3054 0.0
C3870 C 0.04676 0.55099 0.28561 0.0
C3871 C 0.03505 0.53959 0.29291 0.0
C3872 C 0.04017 0.52638 0.30566 0.0
H3873 H 0.93787 0.51374 0.3149 0.0
H3874 H 0.96673 0.51555 0.30444 0.0
C3875 C 0.05657 0.52499 0.31192 0.0
C3876 C 0.01726 0.54179 0.28874 0.0
H3877 H 0.98384 0.56306 0.30673 0.0
C3878 C 0.00899 0.5299 0.27657 0.0
C3879 C 0.00813 0.55428 0.29905 0.0
C3880 C 0.01644 0.56721 0.31256 0.0
C3881 C 0.99176 0.52971 0.27527 0.0
C3882 C 0.98257 0.54149 0.28685 0.0
C3883 C 0.99088 0.55402 0.29787 0.0
C3884 C 0.96459 0.53974 0.29026 0.0
C3885 C 0.98354 0.5166 0.262 0.0
C3886 C 0.95372 0.55276 0.28586 0.0
C3887 C 0.93715 0.55172 0.29193 0.0
C3888 C 0.93136 0.53775 0.30269 0.0
C3889 C 0.94209 0.52457 0.30646 0.0
C3890 C 0.95854 0.52556 0.30035 0.0
H3891 H 0.99154 0.51272 0.24853 0.0
H3892 H 0.98125 0.50563 0.2721 0.0
H3893 H 0.9716 0.52093 0.25548 0.0
H3894 H 0.95817 0.56389 0.27833 0.0
H3895 H 0.92908 0.56208 0.28911 0.0
H3896 H 0.0632 0.48811 0.69471 0.0
H3897 H 0.03388 0.48678 0.70331 0.0
H3898 H 0.04042 0.43779 0.72827 0.0
H3899 H 0.06996 0.43925 0.71986 0.0
H3900 H 0.01504 0.46258 0.68316 0.0
H3901 H 0.00805 0.45968 0.77141 0.0
H3902 H 0.02623 0.46786 0.75865 0.0
H3903 H 0.02303 0.44605 0.75981 0.0
C3904 C 0.05844 0.47729 0.70269 0.0
C3905 C 0.0687 0.46381 0.70675 0.0
C3906 C 0.04173 0.47652 0.70755 0.0
C3907 C 0.03498 0.46222 0.71651 0.0
C3908 C 0.04542 0.44904 0.72171 0.0
H3909 H 0.93388 0.43474 0.69182 0.0
H3910 H 0.96326 0.43313 0.70038 0.0
C3911 C 0.06224 0.44986 0.7169 0.0
C3912 C 0.01685 0.46038 0.71733 0.0
H3913 H 0.98392 0.45559 0.75069 0.0
C3914 C 0.00825 0.46104 0.69794 0.0
C3915 C 0.00805 0.45841 0.73663 0.0
C3916 C 0.01673 0.45807 0.75788 0.0
C3917 C 0.99108 0.45988 0.69726 0.0
C3918 C 0.98224 0.4577 0.7165 0.0
C3919 C 0.99078 0.45707 0.73598 0.0
C3920 C 0.96406 0.45672 0.7163 0.0
C3921 C 0.98251 0.46133 0.67595 0.0
C3922 C 0.95464 0.47008 0.72353 0.0
C3923 C 0.93784 0.47093 0.7188 0.0
C3924 C 0.93035 0.45845 0.70677 0.0
C3925 C 0.93947 0.44447 0.70115 0.0
C3926 C 0.95621 0.44357 0.70597 0.0
H3927 H 0.99076 0.46633 0.66339 0.0
H3928 H 0.9783 0.44898 0.67076 0.0
H3929 H 0.97154 0.46941 0.6772 0.0
H3930 H 0.9605 0.48036 0.73147 0.0
H3931 H 0.931 0.48186 0.72314 0.0
H3932 H 0.43618 0.56306 0.18845 0.0
H3933 H 0.4654 0.56413 0.19793 0.0
H3934 H 0.46069 0.51788 0.2311 0.0
H3935 H 0.43157 0.51654 0.22092 0.0
H3936 H 0.48413 0.56306 0.23509 0.0
H3937 H 0.49428 0.50751 0.18493 0.0
H3938 H 0.4751 0.51859 0.18493 0.0
H3939 H 0.47999 0.50485 0.20649 0.0
C3940 C 0.44138 0.55328 0.19806 0.0
C3941 C 0.43178 0.53964 0.20377 0.0
C3942 C 0.45802 0.55391 0.20352 0.0
C3943 C 0.46531 0.54091 0.21483 0.0
C3944 C 0.4554 0.52788 0.22198 0.0
H3945 H 0.57069 0.51984 0.22195 0.0
H3946 H 0.54154 0.52034 0.23223 0.0
C3947 C 0.43876 0.52719 0.21636 0.0
C3948 C 0.48345 0.5404 0.2173 0.0
H3949 H 0.51749 0.51934 0.20086 0.0
C3950 C 0.49143 0.55341 0.22781 0.0
C3951 C 0.49298 0.52784 0.20769 0.0
C3952 C 0.48521 0.51397 0.19521 0.0
C3953 C 0.50869 0.55432 0.22867 0.0
C3954 C 0.51816 0.54199 0.21858 0.0
C3955 C 0.51019 0.52871 0.20873 0.0
C3956 C 0.53626 0.54327 0.21611 0.0
C3957 C 0.51662 0.56854 0.24016 0.0
C3958 C 0.54301 0.55617 0.20407 0.0
C3959 C 0.55959 0.55587 0.19821 0.0
C3960 C 0.56963 0.54263 0.20421 0.0
C3961 C 0.56316 0.53021 0.21729 0.0
C3962 C 0.54654 0.53048 0.22309 0.0
H3963 H 0.50825 0.57389 0.25234 0.0
H3964 H 0.52822 0.56471 0.24809 0.0
H3965 H 0.51959 0.57833 0.22843 0.0
H3966 H 0.53527 0.56599 0.19812 0.0
H3967 H 0.56437 0.56553 0.18806 0.0
loop_
_geom_bond_atom_site_label_1
_geom_bond_atom_site_label_2
_geom_bond_distance
_geom_bond_site_symmetry_2
_ccdc_geom_bond_type
Co0 O3 1.970 . S
Co0 N17 1.989 . S
Co0 O25 1.967 . S
Co0 O32 1.920 . S
Co1 O4 1.966 . S
Co1 N10 2.022 . S
Co1 N18 1.993 . S
Co1 O26 1.941 . S
C2 O3 1.258 . S
C2 O4 1.263 . S
O3 Co0 1.970 . S
O3 C2 1.258 . S
O4 Co1 1.966 . S
O4 C2 1.263 . S
C5 O6 1.235 . S
C5 O32 1.289 . S
O6 C5 1.235 . S
C7 C9 1.400 1_554 S
C7 N10 1.351 . S
C7 C12 1.501 . S
C8 C9 1.387 . S
C8 N11 1.341 1_556 S
C9 C7 1.400 1_556 S
C9 C8 1.387 . S
N10 Co1 2.022 . S
N10 C7 1.351 . S
N10 N11 1.365 . S
N11 C8 1.341 1_554 S
N11 N10 1.365 . S
N11 H31 0.862 . S
C12 C7 1.501 . S
C12 H13 0.961 . S
C12 H14 0.961 . S
C12 H15 0.960 . S
H13 C12 0.961 . S
H14 C12 0.961 . S
H15 C12 0.960 . S
C16 N17 1.342 . S
C16 C20 1.401 . S
C16 C21 1.499 . S
N17 Co0 1.989 . S
N17 C16 1.342 . S
N17 N18 1.388 . S
N18 Co1 1.993 . S
N18 N17 1.388 . S
N18 C19 1.346 . S
C19 N18 1.346 . S
C19 C20 1.396 . S
C19 C29 1.510 . S
C20 C16 1.401 . S
C20 C19 1.396 . S
C21 C16 1.499 . S
C21 H22 0.959 . S
C21 H23 0.960 . S
C21 H24 0.961 . S
H22 C21 0.959 . S
H23 C21 0.960 . S
H24 C21 0.961 . S
O25 Co0 1.967 . S
O25 C33 1.258 . S
O26 Co1 1.941 . S
O26 C33 1.266 . S
H27 C29 0.959 . S
H28 C29 0.961 . S
C29 C19 1.510 . S
C29 H27 0.959 . S
C29 H28 0.961 . S
C29 H30 0.960 . S
H30 C29 0.960 . S
H31 N11 0.862 . S
O32 Co0 1.920 . S
O32 C5 1.289 . S
C33 O25 1.258 . S
C33 O26 1.266 . S
Co34 O37 1.970 . S
Co34 N51 1.989 . S
Co34 O59 1.967 . S
Co34 O66 1.920 . S
Co35 O38 1.966 . S
Co35 N44 2.022 . S
Co35 N52 1.993 . S
Co35 O60 1.941 . S
C36 O37 1.263 . S
C36 O38 1.281 . S
O37 Co34 1.970 . S
O37 C36 1.263 . S
O38 Co35 1.966 . S
O38 C36 1.281 . S
C39 O40 1.191 1_565 S
C39 O66 1.289 . S
O40 C39 1.191 1_545 S
C41 C43 1.400 . S
C41 N44 1.351 . S
C41 C46 1.501 1_565 S
C42 C43 1.387 . S
C42 N45 1.341 . S
C43 C41 1.400 . S
C43 C42 1.387 . S
N44 Co35 2.022 . S
N44 C41 1.351 . S
N44 N45 1.365 . S
N45 C42 1.341 . S
N45 N44 1.365 . S
N45 H65 0.862 . S
C46 C41 1.501 1_545 S
C46 H47 0.961 . S
C46 H48 0.961 . S
C46 H49 0.960 . S
H47 C46 0.961 . S
H48 C46 0.961 . S
H49 C46 0.960 . S
C50 N51 1.342 . S
C50 C54 1.401 . S
C50 C55 1.499 . S
N51 Co34 1.989 . S
N51 C50 1.342 . S
N51 N52 1.388 . S
N52 Co35 1.993 . S
N52 N51 1.388 . S
N52 C53 1.346 . S
C53 N52 1.346 . S
C53 C54 1.396 . S
C53 C63 1.510 . S
C54 C50 1.401 . S
C54 C53 1.396 . S
C55 C50 1.499 . S
C55 H56 0.959 . S
C55 H57 0.960 . S
C55 H58 0.961 . S
H56 C55 0.959 . S
H57 C55 0.960 . S
H58 C55 0.961 . S
O59 Co34 1.967 . S
O59 C67 1.258 . S
O60 Co35 1.941 . S
O60 C67 1.266 . S
H61 C63 0.959 . S
H62 C63 0.961 . S
C63 C53 1.510 . S
C63 H61 0.959 . S
C63 H62 0.961 . S
C63 H64 0.960 . S
H64 C63 0.960 . S
H65 N45 0.862 . S
O66 Co34 1.920 . S
O66 C39 1.289 . S
C67 O59 1.258 . S
C67 O60 1.266 . S
Co68 O71 1.970 . S
Co68 N85 1.989 . S
Co68 O93 1.967 . S
Co68 O100 1.920 . S
Co69 O72 1.966 . S
Co69 N78 2.022 . S
Co69 N86 1.993 . S
Co69 O94 1.941 . S
C70 O71 1.258 . S
C70 O72 1.263 . S
O71 Co68 1.970 . S
O71 C70 1.258 . S
O72 Co69 1.966 . S
O72 C70 1.263 . S
C73 O74 1.235 . S
C73 O100 1.289 . S
O74 C73 1.235 . S
C75 C77 1.400 . S
C75 N78 1.351 . S
C75 C80 1.501 . S
C76 C77 1.387 . S
C76 N79 1.341 . S
C77 C75 1.400 . S
C77 C76 1.387 . S
N78 Co69 2.022 . S
N78 C75 1.351 . S
N78 N79 1.365 . S
N79 C76 1.341 . S
N79 N78 1.365 . S
N79 H99 0.862 . S
C80 C75 1.501 . S
C80 H81 0.961 . S
C80 H82 0.961 . S
C80 H83 0.960 . S
H81 C80 0.961 . S
H82 C80 0.961 . S
H83 C80 0.960 . S
C84 N85 1.342 . S
C84 C88 1.401 . S
C84 C89 1.499 . S
N85 Co68 1.989 . S
N85 C84 1.342 . S
N85 N86 1.388 . S
N86 Co69 1.993 . S
N86 N85 1.388 . S
N86 C87 1.346 . S
C87 N86 1.346 . S
C87 C88 1.396 . S
C87 C97 1.510 . S
C88 C84 1.401 . S
C88 C87 1.396 . S
C89 C84 1.499 . S
C89 H90 0.959 . S
C89 H91 0.960 . S
C89 H92 0.961 . S
H90 C89 0.959 . S
H91 C89 0.960 . S
H92 C89 0.961 . S
O93 Co68 1.967 . S
O93 C101 1.258 . S
O94 Co69 1.941 . S
O94 C101 1.266 . S
H95 C97 0.959 . S
H96 C97 0.961 . S
C97 C87 1.510 . S
C97 H95 0.959 . S
C97 H96 0.961 . S
C97 H98 0.960 . S
H98 C97 0.960 . S
H99 N79 0.862 . S
O100 Co68 1.920 . S
O100 C73 1.289 . S
C101 O93 1.258 . S
C101 O94 1.266 . S
Co102 O105 1.970 . S
Co102 N119 1.989 . S
Co102 O127 1.967 . S
Co102 O134 1.920 . S
Co103 O106 1.966 . S
Co103 N112 2.022 . S
Co103 N120 1.993 . S
Co103 O128 1.941 . S
C104 O105 1.263 . S
C104 O106 1.281 . S
O105 Co102 1.970 . S
O105 C104 1.263 . S
O106 Co103 1.966 . S
O106 C104 1.281 . S
C107 O108 1.192 1_545 S
C107 O134 1.289 . S
O108 C107 1.192 1_565 S
C109 C111 1.400 . S
C109 N112 1.351 . S
C109 C114 1.501 1_545 S
C110 C111 1.387 . S
C110 N113 1.341 . S
C111 C109 1.400 . S
C111 C110 1.387 . S
N112 Co103 2.022 . S
N112 C109 1.351 . S
N112 N113 1.365 . S
N113 C110 1.341 . S
N113 N112 1.365 . S
N113 H133 0.862 . S
C114 C109 1.501 1_565 S
C114 H115 0.961 . S
C114 H116 0.961 . S
C114 H117 0.960 . S
H115 C114 0.961 . S
H116 C114 0.961 . S
H117 C114 0.960 . S
C118 N119 1.342 . S
C118 C122 1.401 . S
C118 C123 1.499 . S
N119 Co102 1.989 . S
N119 C118 1.342 . S
N119 N120 1.388 . S
N120 Co103 1.993 . S
N120 N119 1.388 . S
N120 C121 1.346 . S
C121 N120 1.346 . S
C121 C122 1.396 . S
C121 C131 1.510 . S
C122 C118 1.401 . S
C122 C121 1.396 . S
C123 C118 1.499 . S
C123 H124 0.959 . S
C123 H125 0.960 . S
C123 H126 0.961 . S
H124 C123 0.959 . S
H125 C123 0.960 . S
H126 C123 0.961 . S
O127 Co102 1.967 . S
O127 C135 1.258 . S
O128 Co103 1.941 . S
O128 C135 1.266 . S
H129 C131 0.959 . S
H130 C131 0.961 . S
C131 C121 1.510 . S
C131 H129 0.959 . S
C131 H130 0.961 . S
C131 H132 0.960 . S
H132 C131 0.960 . S
H133 N113 0.862 . S
O134 Co102 1.920 . S
O134 C107 1.289 . S
C135 O127 1.258 . S
C135 O128 1.266 . S
Co136 O139 1.970 . S
Co136 N153 1.989 . S
Co136 O161 1.967 . S
Co136 O168 1.920 . S
Co137 O140 1.966 . S
Co137 N146 2.022 . S
Co137 N154 1.993 . S
Co137 O162 1.941 . S
C138 O139 1.258 . S
C138 O140 1.263 . S
O139 Co136 1.970 . S
O139 C138 1.258 . S
O140 Co137 1.966 . S
O140 C138 1.263 . S
C141 O142 1.235 . S
C141 O168 1.289 . S
O142 C141 1.235 . S
C143 C145 1.400 1_556 S
C143 N146 1.351 . S
C143 C148 1.501 . S
C144 C145 1.387 . S
C144 N147 1.341 1_554 S
C145 C143 1.400 1_554 S
C145 C144 1.387 . S
N146 Co137 2.022 . S
N146 C143 1.351 . S
N146 N147 1.365 . S
N147 C144 1.341 1_556 S
N147 N146 1.365 . S
N147 H167 0.862 . S
C148 C143 1.501 . S
C148 H149 0.961 . S
C148 H150 0.961 . S
C148 H151 0.960 . S
H149 C148 0.961 . S
H150 C148 0.961 . S
H151 C148 0.960 . S
C152 N153 1.342 . S
C152 C156 1.401 . S
C152 C157 1.499 . S
N153 Co136 1.989 . S
N153 C152 1.342 . S
N153 N154 1.388 . S
N154 Co137 1.993 . S
N154 N153 1.388 . S
N154 C155 1.346 . S
C155 N154 1.346 . S
C155 C156 1.396 . S
C155 C165 1.510 . S
C156 C152 1.401 . S
C156 C155 1.396 . S
C157 C152 1.499 . S
C157 H158 0.959 . S
C157 H159 0.960 . S
C157 H160 0.961 . S
H158 C157 0.959 . S
H159 C157 0.960 . S
H160 C157 0.961 . S
O161 Co136 1.967 . S
O161 C169 1.258 . S
O162 Co137 1.941 . S
O162 C169 1.266 . S
H163 C165 0.959 . S
H164 C165 0.961 . S
C165 C155 1.510 . S
C165 H163 0.959 . S
C165 H164 0.961 . S
C165 H166 0.960 . S
H166 C165 0.960 . S
H167 N147 0.862 . S
O168 Co136 1.920 . S
O168 C141 1.289 . S
C169 O161 1.258 . S
C169 O162 1.266 . S
Co170 O173 1.970 . S
Co170 N187 1.989 . S
Co170 O195 1.967 . S
Co170 O202 1.920 . S
Co171 O174 1.966 . S
Co171 N180 2.022 . S
Co171 N188 1.993 . S
Co171 O196 1.941 . S
C172 O173 1.263 . S
C172 O174 1.281 . S
O173 Co170 1.970 . S
O173 C172 1.263 . S
O174 Co171 1.966 . S
O174 C172 1.281 . S
C175 O176 1.192 1_565 S
C175 O202 1.289 . S
O176 C175 1.192 1_545 S
C177 C179 1.400 . S
C177 N180 1.351 . S
C177 C182 1.501 1_565 S
C178 C179 1.387 . S
C178 N181 1.341 . S
C179 C177 1.400 . S
C179 C178 1.387 . S
N180 Co171 2.022 . S
N180 C177 1.351 . S
N180 N181 1.365 . S
N181 C178 1.341 . S
N181 N180 1.365 . S
N181 H201 0.862 . S
C182 C177 1.501 1_545 S
C182 H183 0.961 . S
C182 H184 0.961 . S
C182 H185 0.960 . S
H183 C182 0.961 . S
H184 C182 0.961 . S
H185 C182 0.960 . S
C186 N187 1.342 . S
C186 C190 1.401 . S
C186 C191 1.499 . S
N187 Co170 1.989 . S
N187 C186 1.342 . S
N187 N188 1.388 . S
N188 Co171 1.993 . S
N188 N187 1.388 . S
N188 C189 1.346 . S
C189 N188 1.346 . S
C189 C190 1.396 . S
C189 C199 1.510 . S
C190 C186 1.401 . S
C190 C189 1.396 . S
C191 C186 1.499 . S
C191 H192 0.959 . S
C191 H193 0.960 . S
C191 H194 0.961 . S
H192 C191 0.959 . S
H193 C191 0.960 . S
H194 C191 0.961 . S
O195 Co170 1.967 . S
O195 C203 1.258 . S
O196 Co171 1.941 . S
O196 C203 1.266 . S
H197 C199 0.959 . S
H198 C199 0.961 . S
C199 C189 1.510 . S
C199 H197 0.959 . S
C199 H198 0.961 . S
C199 H200 0.960 . S
H200 C199 0.960 . S
H201 N181 0.862 . S
O202 Co170 1.920 . S
O202 C175 1.289 . S
C203 O195 1.258 . S
C203 O196 1.266 . S
Co204 O207 1.970 . S
Co204 N221 1.989 . S
Co204 O229 1.967 . S
Co204 O236 1.920 . S
Co205 O208 1.966 . S
Co205 N214 2.022 . S
Co205 N222 1.993 . S
Co205 O230 1.941 . S
C206 O207 1.258 . S
C206 O208 1.263 . S
O207 Co204 1.970 . S
O207 C206 1.258 . S
O208 Co205 1.966 . S
O208 C206 1.263 . S
C209 O210 1.235 . S
C209 O236 1.289 . S
O210 C209 1.235 . S
C211 C213 1.400 . S
C211 N214 1.351 . S
C211 C216 1.501 . S
C212 C213 1.387 . S
C212 N215 1.341 . S
C213 C211 1.400 . S
C213 C212 1.387 . S
N214 Co205 2.022 . S
N214 C211 1.351 . S
N214 N215 1.365 . S
N215 C212 1.341 . S
N215 N214 1.365 . S
N215 H235 0.862 . S
C216 C211 1.501 . S
C216 H217 0.961 . S
C216 H218 0.961 . S
C216 H219 0.960 . S
H217 C216 0.961 . S
H218 C216 0.961 . S
H219 C216 0.960 . S
C220 N221 1.342 . S
C220 C224 1.401 . S
C220 C225 1.499 . S
N221 Co204 1.989 . S
N221 C220 1.342 . S
N221 N222 1.388 . S
N222 Co205 1.993 . S
N222 N221 1.388 . S
N222 C223 1.346 . S
C223 N222 1.346 . S
C223 C224 1.396 . S
C223 C233 1.510 . S
C224 C220 1.401 . S
C224 C223 1.396 . S
C225 C220 1.499 . S
C225 H226 0.959 . S
C225 H227 0.960 . S
C225 H228 0.961 . S
H226 C225 0.959 . S
H227 C225 0.960 . S
H228 C225 0.961 . S
O229 Co204 1.967 . S
O229 C237 1.258 . S
O230 Co205 1.941 . S
O230 C237 1.266 . S
H231 C233 0.959 . S
H232 C233 0.961 . S
C233 C223 1.510 . S
C233 H231 0.959 . S
C233 H232 0.961 . S
C233 H234 0.960 . S
H234 C233 0.960 . S
H235 N215 0.862 . S
O236 Co204 1.920 . S
O236 C209 1.289 . S
C237 O229 1.258 . S
C237 O230 1.266 . S
Co238 O241 1.970 . S
Co238 N255 1.989 . S
Co238 O263 1.967 . S
Co238 O270 1.920 . S
Co239 O242 1.966 . S
Co239 N248 2.022 . S
Co239 N256 1.993 . S
Co239 O264 1.941 . S
C240 O241 1.263 . S
C240 O242 1.281 . S
O241 Co238 1.970 . S
O241 C240 1.263 . S
O242 Co239 1.966 . S
O242 C240 1.281 . S
C243 O244 1.192 1_545 S
C243 O270 1.289 . S
O244 C243 1.192 1_565 S
C245 C247 1.400 . S
C245 N248 1.351 . S
C245 C250 1.501 1_545 S
C246 C247 1.387 . S
C246 N249 1.341 . S
C247 C245 1.400 . S
C247 C246 1.387 . S
N248 Co239 2.022 . S
N248 C245 1.351 . S
N248 N249 1.365 . S
N249 C246 1.341 . S
N249 N248 1.365 . S
N249 H269 0.862 . S
C250 C245 1.501 1_565 S
C250 H251 0.961 . S
C250 H252 0.961 . S
C250 H253 0.960 . S
H251 C250 0.961 . S
H252 C250 0.961 . S
H253 C250 0.960 . S
C254 N255 1.342 . S
C254 C258 1.401 . S
C254 C259 1.499 . S
N255 Co238 1.989 . S
N255 C254 1.342 . S
N255 N256 1.388 . S
N256 Co239 1.993 . S
N256 N255 1.388 . S
N256 C257 1.346 . S
C257 N256 1.346 . S
C257 C258 1.396 . S
C257 C267 1.510 . S
C258 C254 1.401 . S
C258 C257 1.396 . S
C259 C254 1.499 . S
C259 H260 0.959 . S
C259 H261 0.960 . S
C259 H262 0.961 . S
H260 C259 0.959 . S
H261 C259 0.960 . S
H262 C259 0.961 . S
O263 Co238 1.967 . S
O263 C271 1.258 . S
O264 Co239 1.941 . S
O264 C271 1.266 . S
H265 C267 0.959 . S
H266 C267 0.961 . S
C267 C257 1.510 . S
C267 H265 0.959 . S
C267 H266 0.961 . S
C267 H268 0.960 . S
H268 C267 0.960 . S
H269 N249 0.862 . S
O270 Co238 1.920 . S
O270 C243 1.289 . S
C271 O263 1.258 . S
C271 O264 1.266 . S
Co272 O275 1.970 . S
Co272 N289 1.989 . S
Co272 O297 1.967 . S
Co272 O304 1.920 . S
Co273 O276 1.966 . S
Co273 N282 2.022 . S
Co273 N290 1.993 . S
Co273 O298 1.941 . S
C274 O275 1.258 . S
C274 O276 1.263 . S
O275 Co272 1.970 . S
O275 C274 1.258 . S
O276 Co273 1.966 . S
O276 C274 1.263 . S
C277 O278 1.235 . S
C277 O304 1.289 . S
O278 C277 1.235 . S
C279 C281 1.400 1_556 S
C279 N282 1.351 . S
C279 C284 1.501 . S
C280 C281 1.387 . S
C280 N283 1.341 1_554 S
C281 C279 1.400 1_554 S
C281 C280 1.387 . S
N282 Co273 2.022 . S
N282 C279 1.351 . S
N282 N283 1.365 . S
N283 C280 1.341 1_556 S
N283 N282 1.365 . S
N283 H303 0.862 . S
C284 C279 1.501 . S
C284 H285 0.961 . S
C284 H286 0.961 . S
C284 H287 0.960 . S
H285 C284 0.961 . S
H286 C284 0.961 . S
H287 C284 0.960 . S
C288 N289 1.342 . S
C288 C292 1.401 . S
C288 C293 1.499 . S
N289 Co272 1.989 . S
N289 C288 1.342 . S
N289 N290 1.388 . S
N290 Co273 1.993 . S
N290 N289 1.388 . S
N290 C291 1.346 . S
C291 N290 1.346 . S
C291 C292 1.396 . S
C291 C301 1.510 . S
C292 C288 1.401 . S
C292 C291 1.396 . S
C293 C288 1.499 . S
C293 H294 0.959 . S
C293 H295 0.960 . S
C293 H296 0.961 . S
H294 C293 0.959 . S
H295 C293 0.960 . S
H296 C293 0.961 . S
O297 Co272 1.967 . S
O297 C305 1.258 . S
O298 Co273 1.941 . S
O298 C305 1.266 . S
H299 C301 0.959 . S
H300 C301 0.961 . S
C301 C291 1.510 . S
C301 H299 0.959 . S
C301 H300 0.961 . S
C301 H302 0.960 . S
H302 C301 0.960 . S
H303 N283 0.862 . S
O304 Co272 1.920 . S
O304 C277 1.289 . S
C305 O297 1.258 . S
C305 O298 1.266 . S
Co306 O309 1.970 . S
Co306 N323 1.989 . S
Co306 O331 1.967 . S
Co306 O338 1.920 . S
Co307 O310 1.966 . S
Co307 N316 2.022 . S
Co307 N324 1.993 . S
Co307 O332 1.941 . S
C308 O309 1.263 . S
C308 O310 1.281 . S
O309 Co306 1.970 . S
O309 C308 1.263 . S
O310 Co307 1.966 . S
O310 C308 1.281 . S
C311 O312 1.191 1_545 S
C311 O338 1.289 . S
O312 C311 1.191 1_565 S
C313 C315 1.400 . S
C313 N316 1.351 . S
C313 C318 1.501 1_545 S
C314 C315 1.387 . S
C314 N317 1.341 . S
C315 C313 1.400 . S
C315 C314 1.387 . S
N316 Co307 2.022 . S
N316 C313 1.351 . S
N316 N317 1.365 . S
N317 C314 1.341 . S
N317 N316 1.365 . S
N317 H337 0.862 . S
C318 C313 1.501 1_565 S
C318 H319 0.961 . S
C318 H320 0.961 . S
C318 H321 0.960 . S
H319 C318 0.961 . S
H320 C318 0.961 . S
H321 C318 0.960 . S
C322 N323 1.342 . S
C322 C326 1.401 . S
C322 C327 1.499 . S
N323 Co306 1.989 . S
N323 C322 1.342 . S
N323 N324 1.388 . S
N324 Co307 1.993 . S
N324 N323 1.388 . S
N324 C325 1.346 . S
C325 N324 1.346 . S
C325 C326 1.396 . S
C325 C335 1.510 . S
C326 C322 1.401 . S
C326 C325 1.396 . S
C327 C322 1.499 . S
C327 H328 0.959 . S
C327 H329 0.960 . S
C327 H330 0.961 . S
H328 C327 0.959 . S
H329 C327 0.960 . S
H330 C327 0.961 . S
O331 Co306 1.967 . S
O331 C339 1.258 . S
O332 Co307 1.941 . S
O332 C339 1.266 . S
H333 C335 0.959 . S
H334 C335 0.961 . S
C335 C325 1.510 . S
C335 H333 0.959 . S
C335 H334 0.961 . S
C335 H336 0.960 . S
H336 C335 0.960 . S
H337 N317 0.862 . S
O338 Co306 1.920 . S
O338 C311 1.289 . S
C339 O331 1.258 . S
C339 O332 1.266 . S
Co340 O343 1.970 . S
Co340 N357 1.989 . S
Co340 O365 1.967 . S
Co340 O372 1.920 . S
Co341 O344 1.966 . S
Co341 N350 2.022 . S
Co341 N358 1.993 . S
Co341 O366 1.941 . S
C342 O343 1.258 . S
C342 O344 1.263 . S
O343 Co340 1.970 . S
O343 C342 1.258 . S
O344 Co341 1.966 . S
O344 C342 1.263 . S
C345 O346 1.235 . S
C345 O372 1.289 . S
O346 C345 1.235 . S
C347 C349 1.400 . S
C347 N350 1.351 . S
C347 C352 1.501 . S
C348 C349 1.387 . S
C348 N351 1.341 . S
C349 C347 1.400 . S
C349 C348 1.387 . S
N350 Co341 2.022 . S
N350 C347 1.351 . S
N350 N351 1.365 . S
N351 C348 1.341 . S
N351 N350 1.365 . S
N351 H371 0.862 . S
C352 C347 1.501 . S
C352 H353 0.961 . S
C352 H354 0.961 . S
C352 H355 0.960 . S
H353 C352 0.961 . S
H354 C352 0.961 . S
H355 C352 0.960 . S
C356 N357 1.342 . S
C356 C360 1.401 . S
C356 C361 1.499 . S
N357 Co340 1.989 . S
N357 C356 1.342 . S
N357 N358 1.388 . S
N358 Co341 1.993 . S
N358 N357 1.388 . S
N358 C359 1.346 . S
C359 N358 1.346 . S
C359 C360 1.396 . S
C359 C369 1.510 . S
C360 C356 1.401 . S
C360 C359 1.396 . S
C361 C356 1.499 . S
C361 H362 0.959 . S
C361 H363 0.960 . S
C361 H364 0.961 . S
H362 C361 0.959 . S
H363 C361 0.960 . S
H364 C361 0.961 . S
O365 Co340 1.967 . S
O365 C373 1.258 . S
O366 Co341 1.941 . S
O366 C373 1.266 . S
H367 C369 0.959 . S
H368 C369 0.961 . S
C369 C359 1.510 . S
C369 H367 0.959 . S
C369 H368 0.961 . S
C369 H370 0.960 . S
H370 C369 0.960 . S
H371 N351 0.862 . S
O372 Co340 1.920 . S
O372 C345 1.289 . S
C373 O365 1.258 . S
C373 O366 1.266 . S
Co374 O377 1.970 . S
Co374 N391 1.989 . S
Co374 O399 1.967 . S
Co374 O406 1.920 . S
Co375 O378 1.966 . S
Co375 N384 2.022 . S
Co375 N392 1.993 . S
Co375 O400 1.941 . S
C376 O377 1.263 . S
C376 O378 1.281 . S
O377 Co374 1.970 . S
O377 C376 1.263 . S
O378 Co375 1.966 . S
O378 C376 1.281 . S
C379 O380 1.192 1_565 S
C379 O406 1.289 . S
O380 C379 1.192 1_545 S
C381 C383 1.400 . S
C381 N384 1.351 . S
C381 C386 1.501 1_565 S
C382 C383 1.387 . S
C382 N385 1.341 . S
C383 C381 1.400 . S
C383 C382 1.387 . S
N384 Co375 2.022 . S
N384 C381 1.351 . S
N384 N385 1.365 . S
N385 C382 1.341 . S
N385 N384 1.365 . S
N385 H405 0.862 . S
C386 C381 1.501 1_545 S
C386 H387 0.961 . S
C386 H388 0.961 . S
C386 H389 0.960 . S
H387 C386 0.961 . S
H388 C386 0.961 . S
H389 C386 0.960 . S
C390 N391 1.342 . S
C390 C394 1.401 . S
C390 C395 1.499 . S
N391 Co374 1.989 . S
N391 C390 1.342 . S
N391 N392 1.388 . S
N392 Co375 1.993 . S
N392 N391 1.388 . S
N392 C393 1.346 . S
C393 N392 1.346 . S
C393 C394 1.396 . S
C393 C403 1.510 . S
C394 C390 1.401 . S
C394 C393 1.396 . S
C395 C390 1.499 . S
C395 H396 0.959 . S
C395 H397 0.960 . S
C395 H398 0.961 . S
H396 C395 0.959 . S
H397 C395 0.960 . S
H398 C395 0.961 . S
O399 Co374 1.967 . S
O399 C407 1.258 . S
O400 Co375 1.941 . S
O400 C407 1.266 . S
H401 C403 0.959 . S
H402 C403 0.961 . S
C403 C393 1.510 . S
C403 H401 0.959 . S
C403 H402 0.961 . S
C403 H404 0.960 . S
H404 C403 0.960 . S
H405 N385 0.862 . S
O406 Co374 1.920 . S
O406 C379 1.289 . S
C407 O399 1.258 . S
C407 O400 1.266 . S
Co408 O411 1.970 . S
Co408 N425 1.989 . S
Co408 O433 1.967 . S
Co408 O440 1.920 . S
Co409 O412 1.966 . S
Co409 N418 2.022 . S
Co409 N426 1.993 . S
Co409 O434 1.941 . S
C410 O411 1.258 . S
C410 O412 1.263 . S
O411 Co408 1.970 . S
O411 C410 1.258 . S
O412 Co409 1.966 . S
O412 C410 1.263 . S
C413 O414 1.235 . S
C413 O440 1.289 . S
O414 C413 1.235 . S
C415 C417 1.400 1_554 S
C415 N418 1.351 . S
C415 C420 1.501 . S
C416 C417 1.387 . S
C416 N419 1.341 1_556 S
C417 C415 1.400 1_556 S
C417 C416 1.387 . S
N418 Co409 2.022 . S
N418 C415 1.351 . S
N418 N419 1.365 . S
N419 C416 1.341 1_554 S
N419 N418 1.365 . S
N419 H439 0.862 . S
C420 C415 1.501 . S
C420 H421 0.961 . S
C420 H422 0.961 . S
C420 H423 0.960 . S
H421 C420 0.961 . S
H422 C420 0.961 . S
H423 C420 0.960 . S
C424 N425 1.342 . S
C424 C428 1.401 . S
C424 C429 1.499 . S
N425 Co408 1.989 . S
N425 C424 1.342 . S
N425 N426 1.388 . S
N426 Co409 1.993 . S
N426 N425 1.388 . S
N426 C427 1.346 . S
C427 N426 1.346 . S
C427 C428 1.396 . S
C427 C437 1.510 . S
C428 C424 1.401 . S
C428 C427 1.396 . S
C429 C424 1.499 . S
C429 H430 0.959 . S
C429 H431 0.960 . S
C429 H432 0.961 . S
H430 C429 0.959 . S
H431 C429 0.960 . S
H432 C429 0.961 . S
O433 Co408 1.967 . S
O433 C441 1.258 . S
O434 Co409 1.941 . S
O434 C441 1.266 . S
H435 C437 0.959 . S
H436 C437 0.961 . S
C437 C427 1.510 . S
C437 H435 0.959 . S
C437 H436 0.961 . S
C437 H438 0.960 . S
H438 C437 0.960 . S
H439 N419 0.862 . S
O440 Co408 1.920 . S
O440 C413 1.289 . S
C441 O433 1.258 . S
C441 O434 1.266 . S
Co442 O445 1.970 . S
Co442 N459 1.989 . S
Co442 O467 1.967 . S
Co442 O474 1.920 . S
Co443 O446 1.966 . S
Co443 N452 2.022 . S
Co443 N460 1.993 . S
Co443 O468 1.941 . S
C444 O445 1.263 . S
C444 O446 1.281 . S
O445 Co442 1.970 . S
O445 C444 1.263 . S
O446 Co443 1.966 . S
O446 C444 1.281 . S
C447 O448 1.192 1_545 S
C447 O474 1.289 . S
O448 C447 1.192 1_565 S
C449 C451 1.400 . S
C449 N452 1.351 . S
C449 C454 1.501 1_545 S
C450 C451 1.387 . S
C450 N453 1.341 . S
C451 C449 1.400 . S
C451 C450 1.387 . S
N452 Co443 2.022 . S
N452 C449 1.351 . S
N452 N453 1.365 . S
N453 C450 1.341 . S
N453 N452 1.365 . S
N453 H473 0.862 . S
C454 C449 1.501 1_565 S
C454 H455 0.961 . S
C454 H456 0.961 . S
C454 H457 0.960 . S
H455 C454 0.961 . S
H456 C454 0.961 . S
H457 C454 0.960 . S
C458 N459 1.342 . S
C458 C462 1.401 . S
C458 C463 1.499 . S
N459 Co442 1.989 . S
N459 C458 1.342 . S
N459 N460 1.388 . S
N460 Co443 1.993 . S
N460 N459 1.388 . S
N460 C461 1.346 . S
C461 N460 1.346 . S
C461 C462 1.396 . S
C461 C471 1.510 . S
C462 C458 1.401 . S
C462 C461 1.396 . S
C463 C458 1.499 . S
C463 H464 0.959 . S
C463 H465 0.960 . S
C463 H466 0.961 . S
H464 C463 0.959 . S
H465 C463 0.960 . S
H466 C463 0.961 . S
O467 Co442 1.967 . S
O467 C475 1.258 . S
O468 Co443 1.941 . S
O468 C475 1.266 . S
H469 C471 0.959 . S
H470 C471 0.961 . S
C471 C461 1.510 . S
C471 H469 0.959 . S
C471 H470 0.961 . S
C471 H472 0.960 . S
H472 C471 0.960 . S
H473 N453 0.862 . S
O474 Co442 1.920 . S
O474 C447 1.289 . S
C475 O467 1.258 . S
C475 O468 1.266 . S
Co476 O479 1.970 . S
Co476 N493 1.989 . S
Co476 O501 1.967 . S
Co476 O508 1.920 . S
Co477 O480 1.966 . S
Co477 N486 2.022 . S
Co477 N494 1.993 . S
Co477 O502 1.941 . S
C478 O479 1.258 . S
C478 O480 1.263 . S
O479 Co476 1.970 . S
O479 C478 1.258 . S
O480 Co477 1.966 . S
O480 C478 1.263 . S
C481 O482 1.235 . S
C481 O508 1.289 . S
O482 C481 1.235 . S
C483 C485 1.400 . S
C483 N486 1.351 . S
C483 C488 1.501 . S
C484 C485 1.387 . S
C484 N487 1.341 . S
C485 C483 1.400 . S
C485 C484 1.387 . S
N486 Co477 2.022 . S
N486 C483 1.351 . S
N486 N487 1.365 . S
N487 C484 1.341 . S
N487 N486 1.365 . S
N487 H507 0.862 . S
C488 C483 1.501 . S
C488 H489 0.961 . S
C488 H490 0.961 . S
C488 H491 0.960 . S
H489 C488 0.961 . S
H490 C488 0.961 . S
H491 C488 0.960 . S
C492 N493 1.342 . S
C492 C496 1.401 . S
C492 C497 1.499 . S
N493 Co476 1.989 . S
N493 C492 1.342 . S
N493 N494 1.388 . S
N494 Co477 1.993 . S
N494 N493 1.388 . S
N494 C495 1.346 . S
C495 N494 1.346 . S
C495 C496 1.396 . S
C495 C505 1.510 . S
C496 C492 1.401 . S
C496 C495 1.396 . S
C497 C492 1.499 . S
C497 H498 0.959 . S
C497 H499 0.960 . S
C497 H500 0.961 . S
H498 C497 0.959 . S
H499 C497 0.960 . S
H500 C497 0.961 . S
O501 Co476 1.967 . S
O501 C509 1.258 . S
O502 Co477 1.941 . S
O502 C509 1.266 . S
H503 C505 0.959 . S
H504 C505 0.961 . S
C505 C495 1.510 . S
C505 H503 0.959 . S
C505 H504 0.961 . S
C505 H506 0.960 . S
H506 C505 0.960 . S
H507 N487 0.862 . S
O508 Co476 1.920 . S
O508 C481 1.289 . S
C509 O501 1.258 . S
C509 O502 1.266 . S
Co510 O513 1.970 . S
Co510 N527 1.989 . S
Co510 O535 1.967 . S
Co510 O542 1.920 . S
Co511 O514 1.966 . S
Co511 N520 2.022 . S
Co511 N528 1.993 . S
Co511 O536 1.941 . S
C512 O513 1.263 . S
C512 O514 1.281 . S
O513 Co510 1.970 . S
O513 C512 1.263 . S
O514 Co511 1.966 . S
O514 C512 1.281 . S
C515 O516 1.192 1_565 S
C515 O542 1.289 . S
O516 C515 1.192 1_545 S
C517 C519 1.400 . S
C517 N520 1.351 . S
C517 C522 1.501 1_565 S
C518 C519 1.387 . S
C518 N521 1.341 . S
C519 C517 1.400 . S
C519 C518 1.387 . S
N520 Co511 2.022 . S
N520 C517 1.351 . S
N520 N521 1.365 . S
N521 C518 1.341 . S
N521 N520 1.365 . S
N521 H541 0.862 . S
C522 C517 1.501 1_545 S
C522 H523 0.961 . S
C522 H524 0.961 . S
C522 H525 0.960 . S
H523 C522 0.961 . S
H524 C522 0.961 . S
H525 C522 0.960 . S
C526 N527 1.342 . S
C526 C530 1.401 . S
C526 C531 1.499 . S
N527 Co510 1.989 . S
N527 C526 1.342 . S
N527 N528 1.388 . S
N528 Co511 1.993 . S
N528 N527 1.388 . S
N528 C529 1.346 . S
C529 N528 1.346 . S
C529 C530 1.396 . S
C529 C539 1.510 . S
C530 C526 1.401 . S
C530 C529 1.396 . S
C531 C526 1.499 . S
C531 H532 0.959 . S
C531 H533 0.960 . S
C531 H534 0.961 . S
H532 C531 0.959 . S
H533 C531 0.960 . S
H534 C531 0.961 . S
O535 Co510 1.967 . S
O535 C543 1.258 . S
O536 Co511 1.941 . S
O536 C543 1.266 . S
H537 C539 0.959 . S
H538 C539 0.961 . S
C539 C529 1.510 . S
C539 H537 0.959 . S
C539 H538 0.961 . S
C539 H540 0.960 . S
H540 C539 0.960 . S
H541 N521 0.862 . S
O542 Co510 1.920 . S
O542 C515 1.289 . S
C543 O535 1.258 . S
C543 O536 1.266 . S
Co544 O547 1.970 . S
Co544 N561 1.989 . S
Co544 O569 1.967 . S
Co544 O576 1.920 . S
Co545 O548 1.966 . S
Co545 N554 2.022 . S
Co545 N562 1.993 . S
Co545 O570 1.941 . S
C546 O547 1.258 . S
C546 O548 1.263 . S
O547 Co544 1.970 . S
O547 C546 1.258 . S
O548 Co545 1.966 . S
O548 C546 1.263 . S
C549 O550 1.235 . S
C549 O576 1.289 . S
O550 C549 1.235 . S
C551 C553 1.400 . S
C551 N554 1.351 . S
C551 C556 1.501 . S
C552 C553 1.387 . S
C552 N555 1.341 . S
C553 C551 1.400 . S
C553 C552 1.387 . S
N554 Co545 2.022 . S
N554 C551 1.351 . S
N554 N555 1.365 . S
N555 C552 1.341 . S
N555 N554 1.365 . S
N555 H575 0.862 . S
C556 C551 1.501 . S
C556 H557 0.961 . S
C556 H558 0.961 . S
C556 H559 0.960 . S
H557 C556 0.961 . S
H558 C556 0.961 . S
H559 C556 0.960 . S
C560 N561 1.342 . S
C560 C564 1.401 . S
C560 C565 1.499 . S
N561 Co544 1.989 . S
N561 C560 1.342 . S
N561 N562 1.388 . S
N562 Co545 1.993 . S
N562 N561 1.388 . S
N562 C563 1.346 . S
C563 N562 1.346 . S
C563 C564 1.396 . S
C563 C573 1.510 . S
C564 C560 1.401 . S
C564 C563 1.396 . S
C565 C560 1.499 . S
C565 H566 0.959 . S
C565 H567 0.960 . S
C565 H568 0.961 . S
H566 C565 0.959 . S
H567 C565 0.960 . S
H568 C565 0.961 . S
O569 Co544 1.967 . S
O569 C577 1.258 . S
O570 Co545 1.941 . S
O570 C577 1.266 . S
H571 C573 0.959 . S
H572 C573 0.961 . S
C573 C563 1.510 . S
C573 H571 0.959 . S
C573 H572 0.961 . S
C573 H574 0.960 . S
H574 C573 0.960 . S
H575 N555 0.862 . S
O576 Co544 1.920 . S
O576 C549 1.289 . S
C577 O569 1.258 . S
C577 O570 1.266 . S
Co578 O581 1.970 . S
Co578 N595 1.989 . S
Co578 O603 1.967 . S
Co578 O610 1.920 . S
Co579 O582 1.966 . S
Co579 N588 2.022 . S
Co579 N596 1.993 . S
Co579 O604 1.941 . S
C580 O581 1.258 . S
C580 O582 1.263 . S
O581 Co578 1.970 . S
O581 C580 1.258 . S
O582 Co579 1.966 . S
O582 C580 1.263 . S
C583 O584 1.235 . S
C583 O610 1.289 . S
O584 C583 1.235 . S
C585 C587 1.400 . S
C585 N588 1.351 . S
C585 C590 1.501 . S
C586 C587 1.387 . S
C586 N589 1.341 . S
C587 C585 1.400 . S
C587 C586 1.387 . S
N588 Co579 2.022 . S
N588 C585 1.351 . S
N588 N589 1.365 . S
N589 C586 1.341 . S
N589 N588 1.365 . S
N589 H609 0.862 . S
C590 C585 1.501 . S
C590 H591 0.961 . S
C590 H592 0.961 . S
C590 H593 0.960 . S
H591 C590 0.961 . S
H592 C590 0.961 . S
H593 C590 0.960 . S
C594 N595 1.342 . S
C594 C598 1.401 . S
C594 C599 1.499 . S
N595 Co578 1.989 . S
N595 C594 1.342 . S
N595 N596 1.388 . S
N596 Co579 1.993 . S
N596 N595 1.388 . S
N596 C597 1.346 . S
C597 N596 1.346 . S
C597 C598 1.396 . S
C597 C607 1.510 . S
C598 C594 1.401 . S
C598 C597 1.396 . S
C599 C594 1.499 . S
C599 H600 0.959 . S
C599 H601 0.960 . S
C599 H602 0.961 . S
H600 C599 0.959 . S
H601 C599 0.960 . S
H602 C599 0.961 . S
O603 Co578 1.967 . S
O603 C611 1.258 . S
O604 Co579 1.941 . S
O604 C611 1.266 . S
H605 C607 0.959 . S
H606 C607 0.961 . S
C607 C597 1.510 . S
C607 H605 0.959 . S
C607 H606 0.961 . S
C607 H608 0.960 . S
H608 C607 0.960 . S
H609 N589 0.862 . S
O610 Co578 1.920 . S
O610 C583 1.289 . S
C611 O603 1.258 . S
C611 O604 1.266 . S
Co612 O615 1.970 . S
Co612 N629 1.989 . S
Co612 O637 1.967 . S
Co612 O644 1.920 . S
Co613 O616 1.966 . S
Co613 N622 2.022 . S
Co613 N630 1.993 . S
Co613 O638 1.941 . S
C614 O615 1.258 . S
C614 O616 1.263 . S
O615 Co612 1.970 . S
O615 C614 1.258 . S
O616 Co613 1.966 . S
O616 C614 1.263 . S
C617 O618 1.235 . S
C617 O644 1.289 . S
O618 C617 1.235 . S
C619 C621 1.400 1_554 S
C619 N622 1.351 . S
C619 C624 1.501 . S
C620 C621 1.387 . S
C620 N623 1.341 1_556 S
C621 C619 1.400 1_556 S
C621 C620 1.387 . S
N622 Co613 2.022 . S
N622 C619 1.351 . S
N622 N623 1.365 . S
N623 C620 1.341 1_554 S
N623 N622 1.365 . S
N623 H643 0.862 . S
C624 C619 1.501 . S
C624 H625 0.961 . S
C624 H626 0.961 . S
C624 H627 0.960 . S
H625 C624 0.961 . S
H626 C624 0.961 . S
H627 C624 0.960 . S
C628 N629 1.342 . S
C628 C632 1.401 . S
C628 C633 1.499 . S
N629 Co612 1.989 . S
N629 C628 1.342 . S
N629 N630 1.388 . S
N630 Co613 1.993 . S
N630 N629 1.388 . S
N630 C631 1.346 . S
C631 N630 1.346 . S
C631 C632 1.396 . S
C631 C641 1.510 . S
C632 C628 1.401 . S
C632 C631 1.396 . S
C633 C628 1.499 . S
C633 H634 0.959 . S
C633 H635 0.960 . S
C633 H636 0.961 . S
H634 C633 0.959 . S
H635 C633 0.960 . S
H636 C633 0.961 . S
O637 Co612 1.967 . S
O637 C645 1.258 . S
O638 Co613 1.941 . S
O638 C645 1.266 . S
H639 C641 0.959 . S
H640 C641 0.961 . S
C641 C631 1.510 . S
C641 H639 0.959 . S
C641 H640 0.961 . S
C641 H642 0.960 . S
H642 C641 0.960 . S
H643 N623 0.862 . S
O644 Co612 1.920 . S
O644 C617 1.289 . S
C645 O637 1.258 . S
C645 O638 1.266 . S
Co646 O649 1.970 . S
Co646 N663 1.989 . S
Co646 O671 1.967 . S
Co646 O678 1.920 . S
Co647 O650 1.966 . S
Co647 N656 2.022 . S
Co647 N664 1.993 . S
Co647 O672 1.941 . S
C648 O649 1.258 . S
C648 O650 1.263 . S
O649 Co646 1.970 . S
O649 C648 1.258 . S
O650 Co647 1.966 . S
O650 C648 1.263 . S
C651 O652 1.235 . S
C651 O678 1.289 . S
O652 C651 1.235 . S
C653 C655 1.400 . S
C653 N656 1.351 . S
C653 C658 1.501 . S
C654 C655 1.387 . S
C654 N657 1.341 . S
C655 C653 1.400 . S
C655 C654 1.387 . S
N656 Co647 2.022 . S
N656 C653 1.351 . S
N656 N657 1.365 . S
N657 C654 1.341 . S
N657 N656 1.365 . S
N657 H677 0.862 . S
C658 C653 1.501 . S
C658 H659 0.961 . S
C658 H660 0.961 . S
C658 H661 0.960 . S
H659 C658 0.961 . S
H660 C658 0.961 . S
H661 C658 0.960 . S
C662 N663 1.342 . S
C662 C666 1.401 . S
C662 C667 1.499 . S
N663 Co646 1.989 . S
N663 C662 1.342 . S
N663 N664 1.388 . S
N664 Co647 1.993 . S
N664 N663 1.388 . S
N664 C665 1.346 . S
C665 N664 1.346 . S
C665 C666 1.396 . S
C665 C675 1.510 . S
C666 C662 1.401 . S
C666 C665 1.396 . S
C667 C662 1.499 . S
C667 H668 0.959 . S
C667 H669 0.960 . S
C667 H670 0.961 . S
H668 C667 0.959 . S
H669 C667 0.960 . S
H670 C667 0.961 . S
O671 Co646 1.967 . S
O671 C679 1.258 . S
O672 Co647 1.941 . S
O672 C679 1.266 . S
H673 C675 0.959 . S
H674 C675 0.961 . S
C675 C665 1.510 . S
C675 H673 0.959 . S
C675 H674 0.961 . S
C675 H676 0.960 . S
H676 C675 0.960 . S
H677 N657 0.862 . S
O678 Co646 1.920 . S
O678 C651 1.289 . S
C679 O671 1.258 . S
C679 O672 1.266 . S
Co680 O683 1.970 . S
Co680 N697 1.989 . S
Co680 O705 1.967 . S
Co680 O712 1.920 . S
Co681 O684 1.966 . S
Co681 N690 2.022 . S
Co681 N698 1.993 . S
Co681 O706 1.941 . S
C682 O683 1.258 . S
C682 O684 1.263 . S
O683 Co680 1.970 . S
O683 C682 1.258 . S
O684 Co681 1.966 . S
O684 C682 1.263 . S
C685 O686 1.235 . S
C685 O712 1.289 . S
O686 C685 1.235 . S
C687 C689 1.400 . S
C687 N690 1.351 . S
C687 C692 1.501 . S
C688 C689 1.387 . S
C688 N691 1.341 . S
C689 C687 1.400 . S
C689 C688 1.387 . S
N690 Co681 2.022 . S
N690 C687 1.351 . S
N690 N691 1.365 . S
N691 C688 1.341 . S
N691 N690 1.365 . S
N691 H711 0.862 . S
C692 C687 1.501 . S
C692 H693 0.961 . S
C692 H694 0.961 . S
C692 H695 0.960 . S
H693 C692 0.961 . S
H694 C692 0.961 . S
H695 C692 0.960 . S
C696 N697 1.342 . S
C696 C700 1.401 . S
C696 C701 1.499 . S
N697 Co680 1.989 . S
N697 C696 1.342 . S
N697 N698 1.388 . S
N698 Co681 1.993 . S
N698 N697 1.388 . S
N698 C699 1.346 . S
C699 N698 1.346 . S
C699 C700 1.396 . S
C699 C709 1.510 . S
C700 C696 1.401 . S
C700 C699 1.396 . S
C701 C696 1.499 . S
C701 H702 0.959 . S
C701 H703 0.960 . S
C701 H704 0.961 . S
H702 C701 0.959 . S
H703 C701 0.960 . S
H704 C701 0.961 . S
O705 Co680 1.967 . S
O705 C713 1.258 . S
O706 Co681 1.941 . S
O706 C713 1.266 . S
H707 C709 0.959 . S
H708 C709 0.961 . S
C709 C699 1.510 . S
C709 H707 0.959 . S
C709 H708 0.961 . S
C709 H710 0.960 . S
H710 C709 0.960 . S
H711 N691 0.862 . S
O712 Co680 1.920 . S
O712 C685 1.289 . S
C713 O705 1.258 . S
C713 O706 1.266 . S
Co714 O717 1.970 . S
Co714 N731 1.989 . S
Co714 O739 1.967 . S
Co714 O746 1.920 . S
Co715 O718 1.966 . S
Co715 N724 2.022 . S
Co715 N732 1.993 . S
Co715 O740 1.941 . S
C716 O717 1.258 . S
C716 O718 1.263 . S
O717 Co714 1.970 . S
O717 C716 1.258 . S
O718 Co715 1.966 . S
O718 C716 1.263 . S
C719 O720 1.235 . S
C719 O746 1.289 . S
O720 C719 1.235 . S
C721 C723 1.400 . S
C721 N724 1.351 . S
C721 C726 1.501 . S
C722 C723 1.387 . S
C722 N725 1.341 . S
C723 C721 1.400 . S
C723 C722 1.387 . S
N724 Co715 2.022 . S
N724 C721 1.351 . S
N724 N725 1.365 . S
N725 C722 1.341 . S
N725 N724 1.365 . S
N725 H745 0.862 . S
C726 C721 1.501 . S
C726 H727 0.961 . S
C726 H728 0.961 . S
C726 H729 0.960 . S
H727 C726 0.961 . S
H728 C726 0.961 . S
H729 C726 0.960 . S
C730 N731 1.342 . S
C730 C734 1.401 . S
C730 C735 1.499 . S
N731 Co714 1.989 . S
N731 C730 1.342 . S
N731 N732 1.388 . S
N732 Co715 1.993 . S
N732 N731 1.388 . S
N732 C733 1.346 . S
C733 N732 1.346 . S
C733 C734 1.396 . S
C733 C743 1.510 . S
C734 C730 1.401 . S
C734 C733 1.396 . S
C735 C730 1.499 . S
C735 H736 0.959 . S
C735 H737 0.960 . S
C735 H738 0.961 . S
H736 C735 0.959 . S
H737 C735 0.960 . S
H738 C735 0.961 . S
O739 Co714 1.967 . S
O739 C747 1.258 . S
O740 Co715 1.941 . S
O740 C747 1.266 . S
H741 C743 0.959 . S
H742 C743 0.961 . S
C743 C733 1.510 . S
C743 H741 0.959 . S
C743 H742 0.961 . S
C743 H744 0.960 . S
H744 C743 0.960 . S
H745 N725 0.862 . S
O746 Co714 1.920 . S
O746 C719 1.289 . S
C747 O739 1.258 . S
C747 O740 1.266 . S
Co748 O751 1.970 . S
Co748 N765 1.989 . S
Co748 O773 1.967 . S
Co748 O780 1.920 . S
Co749 O752 1.966 . S
Co749 N758 2.022 . S
Co749 N766 1.993 . S
Co749 O774 1.941 . S
C750 O751 1.258 . S
C750 O752 1.263 . S
O751 Co748 1.970 . S
O751 C750 1.258 . S
O752 Co749 1.966 . S
O752 C750 1.263 . S
C753 O754 1.235 . S
C753 O780 1.289 . S
O754 C753 1.235 . S
C755 C757 1.400 1_556 S
C755 N758 1.351 . S
C755 C760 1.501 . S
C756 C757 1.387 . S
C756 N759 1.341 1_554 S
C757 C755 1.400 1_554 S
C757 C756 1.387 . S
N758 Co749 2.022 . S
N758 C755 1.351 . S
N758 N759 1.365 . S
N759 C756 1.341 1_556 S
N759 N758 1.365 . S
N759 H779 0.862 . S
C760 C755 1.501 . S
C760 H761 0.961 . S
C760 H762 0.961 . S
C760 H763 0.960 . S
H761 C760 0.961 . S
H762 C760 0.961 . S
H763 C760 0.960 . S
C764 N765 1.342 . S
C764 C768 1.401 . S
C764 C769 1.499 . S
N765 Co748 1.989 . S
N765 C764 1.342 . S
N765 N766 1.388 . S
N766 Co749 1.993 . S
N766 N765 1.388 . S
N766 C767 1.346 . S
C767 N766 1.346 . S
C767 C768 1.396 . S
C767 C777 1.510 . S
C768 C764 1.401 . S
C768 C767 1.396 . S
C769 C764 1.499 . S
C769 H770 0.959 . S
C769 H771 0.960 . S
C769 H772 0.961 . S
H770 C769 0.959 . S
H771 C769 0.960 . S
H772 C769 0.961 . S
O773 Co748 1.967 . S
O773 C781 1.258 . S
O774 Co749 1.941 . S
O774 C781 1.266 . S
H775 C777 0.959 . S
H776 C777 0.961 . S
C777 C767 1.510 . S
C777 H775 0.959 . S
C777 H776 0.961 . S
C777 H778 0.960 . S
H778 C777 0.960 . S
H779 N759 0.862 . S
O780 Co748 1.920 . S
O780 C753 1.289 . S
C781 O773 1.258 . S
C781 O774 1.266 . S
Co782 O785 1.970 . S
Co782 N799 1.989 . S
Co782 O807 1.967 . S
Co782 O814 1.920 . S
Co783 O786 1.966 . S
Co783 N792 2.022 . S
Co783 N800 1.993 . S
Co783 O808 1.941 . S
C784 O785 1.258 . S
C784 O786 1.263 . S
O785 Co782 1.970 . S
O785 C784 1.258 . S
O786 Co783 1.966 . S
O786 C784 1.263 . S
C787 O788 1.235 . S
C787 O814 1.289 . S
O788 C787 1.235 . S
C789 C791 1.400 . S
C789 N792 1.351 . S
C789 C794 1.501 . S
C790 C791 1.387 . S
C790 N793 1.341 . S
C791 C789 1.400 . S
C791 C790 1.387 . S
N792 Co783 2.022 . S
N792 C789 1.351 . S
N792 N793 1.365 . S
N793 C790 1.341 . S
N793 N792 1.365 . S
N793 H813 0.862 . S
C794 C789 1.501 . S
C794 H795 0.961 . S
C794 H796 0.961 . S
C794 H797 0.960 . S
H795 C794 0.961 . S
H796 C794 0.961 . S
H797 C794 0.960 . S
C798 N799 1.342 . S
C798 C802 1.401 . S
C798 C803 1.499 . S
N799 Co782 1.989 . S
N799 C798 1.342 . S
N799 N800 1.388 . S
N800 Co783 1.993 . S
N800 N799 1.388 . S
N800 C801 1.346 . S
C801 N800 1.346 . S
C801 C802 1.396 . S
C801 C811 1.510 . S
C802 C798 1.401 . S
C802 C801 1.396 . S
C803 C798 1.499 . S
C803 H804 0.959 . S
C803 H805 0.960 . S
C803 H806 0.961 . S
H804 C803 0.959 . S
H805 C803 0.960 . S
H806 C803 0.961 . S
O807 Co782 1.967 . S
O807 C815 1.258 . S
O808 Co783 1.941 . S
O808 C815 1.266 . S
H809 C811 0.959 . S
H810 C811 0.961 . S
C811 C801 1.510 . S
C811 H809 0.959 . S
C811 H810 0.961 . S
C811 H812 0.960 . S
H812 C811 0.960 . S
H813 N793 0.862 . S
O814 Co782 1.920 . S
O814 C787 1.289 . S
C815 O807 1.258 . S
C815 O808 1.266 . S
Co816 O819 1.970 . S
Co816 N833 1.989 . S
Co816 O841 1.967 . S
Co816 O848 1.920 . S
Co817 O820 1.966 . S
Co817 N826 2.022 . S
Co817 N834 1.993 . S
Co817 O842 1.941 . S
C818 O819 1.258 . S
C818 O820 1.263 . S
O819 Co816 1.970 . S
O819 C818 1.258 . S
O820 Co817 1.966 . S
O820 C818 1.263 . S
C821 O822 1.235 . S
C821 O848 1.289 . S
O822 C821 1.235 . S
C823 C825 1.400 . S
C823 N826 1.351 . S
C823 C828 1.501 . S
C824 C825 1.387 . S
C824 N827 1.341 . S
C825 C823 1.400 . S
C825 C824 1.387 . S
N826 Co817 2.022 . S
N826 C823 1.351 . S
N826 N827 1.365 . S
N827 C824 1.341 . S
N827 N826 1.365 . S
N827 H847 0.862 . S
C828 C823 1.501 . S
C828 H829 0.961 . S
C828 H830 0.961 . S
C828 H831 0.960 . S
H829 C828 0.961 . S
H830 C828 0.961 . S
H831 C828 0.960 . S
C832 N833 1.342 . S
C832 C836 1.401 . S
C832 C837 1.499 . S
N833 Co816 1.989 . S
N833 C832 1.342 . S
N833 N834 1.388 . S
N834 Co817 1.993 . S
N834 N833 1.388 . S
N834 C835 1.346 . S
C835 N834 1.346 . S
C835 C836 1.396 . S
C835 C845 1.510 . S
C836 C832 1.401 . S
C836 C835 1.396 . S
C837 C832 1.499 . S
C837 H838 0.959 . S
C837 H839 0.960 . S
C837 H840 0.961 . S
H838 C837 0.959 . S
H839 C837 0.960 . S
H840 C837 0.961 . S
O841 Co816 1.967 . S
O841 C849 1.258 . S
O842 Co817 1.941 . S
O842 C849 1.266 . S
H843 C845 0.959 . S
H844 C845 0.961 . S
C845 C835 1.510 . S
C845 H843 0.959 . S
C845 H844 0.961 . S
C845 H846 0.960 . S
H846 C845 0.960 . S
H847 N827 0.862 . S
O848 Co816 1.920 . S
O848 C821 1.289 . S
C849 O841 1.258 . S
C849 O842 1.266 . S
Co850 O853 1.970 . S
Co850 N867 1.989 . S
Co850 O875 1.967 . S
Co850 O882 1.920 . S
Co851 O854 1.966 . S
Co851 N860 2.022 . S
Co851 N868 1.993 . S
Co851 O876 1.941 . S
C852 O853 1.258 . S
C852 O854 1.263 . S
O853 Co850 1.970 . S
O853 C852 1.258 . S
O854 Co851 1.966 . S
O854 C852 1.263 . S
C855 O856 1.235 . S
C855 O882 1.289 . S
O856 C855 1.235 . S
C857 C859 1.400 . S
C857 N860 1.351 . S
C857 C862 1.501 . S
C858 C859 1.387 . S
C858 N861 1.341 . S
C859 C857 1.400 . S
C859 C858 1.387 . S
N860 Co851 2.022 . S
N860 C857 1.351 . S
N860 N861 1.365 . S
N861 C858 1.341 . S
N861 N860 1.365 . S
N861 H881 0.862 . S
C862 C857 1.501 . S
C862 H863 0.961 . S
C862 H864 0.961 . S
C862 H865 0.960 . S
H863 C862 0.961 . S
H864 C862 0.961 . S
H865 C862 0.960 . S
C866 N867 1.342 . S
C866 C870 1.401 . S
C866 C871 1.499 . S
N867 Co850 1.989 . S
N867 C866 1.342 . S
N867 N868 1.388 . S
N868 Co851 1.993 . S
N868 N867 1.388 . S
N868 C869 1.346 . S
C869 N868 1.346 . S
C869 C870 1.396 . S
C869 C879 1.510 . S
C870 C866 1.401 . S
C870 C869 1.396 . S
C871 C866 1.499 . S
C871 H872 0.959 . S
C871 H873 0.960 . S
C871 H874 0.961 . S
H872 C871 0.959 . S
H873 C871 0.960 . S
H874 C871 0.961 . S
O875 Co850 1.967 . S
O875 C883 1.258 . S
O876 Co851 1.941 . S
O876 C883 1.266 . S
H877 C879 0.959 . S
H878 C879 0.961 . S
C879 C869 1.510 . S
C879 H877 0.959 . S
C879 H878 0.961 . S
C879 H880 0.960 . S
H880 C879 0.960 . S
H881 N861 0.862 . S
O882 Co850 1.920 . S
O882 C855 1.289 . S
C883 O875 1.258 . S
C883 O876 1.266 . S
Co884 O887 1.970 . S
Co884 N901 1.989 . S
Co884 O909 1.967 . S
Co884 O916 1.920 . S
Co885 O888 1.966 . S
Co885 N894 2.022 . S
Co885 N902 1.993 . S
Co885 O910 1.941 . S
C886 O887 1.258 . S
C886 O888 1.263 . S
O887 Co884 1.970 . S
O887 C886 1.258 . S
O888 Co885 1.966 . S
O888 C886 1.263 . S
C889 O890 1.235 . S
C889 O916 1.289 . S
O890 C889 1.235 . S
C891 C893 1.400 1_556 S
C891 N894 1.351 . S
C891 C896 1.501 . S
C892 C893 1.387 . S
C892 N895 1.341 1_554 S
C893 C891 1.400 1_554 S
C893 C892 1.387 . S
N894 Co885 2.022 . S
N894 C891 1.351 . S
N894 N895 1.365 . S
N895 C892 1.341 1_556 S
N895 N894 1.365 . S
N895 H915 0.862 . S
C896 C891 1.501 . S
C896 H897 0.961 . S
C896 H898 0.961 . S
C896 H899 0.960 . S
H897 C896 0.961 . S
H898 C896 0.961 . S
H899 C896 0.960 . S
C900 N901 1.342 . S
C900 C904 1.401 . S
C900 C905 1.499 . S
N901 Co884 1.989 . S
N901 C900 1.342 . S
N901 N902 1.388 . S
N902 Co885 1.993 . S
N902 N901 1.388 . S
N902 C903 1.346 . S
C903 N902 1.346 . S
C903 C904 1.396 . S
C903 C913 1.510 . S
C904 C900 1.401 . S
C904 C903 1.396 . S
C905 C900 1.499 . S
C905 H906 0.959 . S
C905 H907 0.960 . S
C905 H908 0.961 . S
H906 C905 0.959 . S
H907 C905 0.960 . S
H908 C905 0.961 . S
O909 Co884 1.967 . S
O909 C917 1.258 . S
O910 Co885 1.941 . S
O910 C917 1.266 . S
H911 C913 0.959 . S
H912 C913 0.961 . S
C913 C903 1.510 . S
C913 H911 0.959 . S
C913 H912 0.961 . S
C913 H914 0.960 . S
H914 C913 0.960 . S
H915 N895 0.862 . S
O916 Co884 1.920 . S
O916 C889 1.289 . S
C917 O909 1.258 . S
C917 O910 1.266 . S
Co918 O921 1.970 . S
Co918 N935 1.989 . S
Co918 O943 1.967 . S
Co918 O950 1.920 . S
Co919 O922 1.966 . S
Co919 N928 2.022 . S
Co919 N936 1.993 . S
Co919 O944 1.941 . S
C920 O921 1.258 . S
C920 O922 1.263 . S
O921 Co918 1.970 . S
O921 C920 1.258 . S
O922 Co919 1.966 . S
O922 C920 1.263 . S
C923 O924 1.235 . S
C923 O950 1.289 . S
O924 C923 1.235 . S
C925 C927 1.400 . S
C925 N928 1.351 . S
C925 C930 1.501 . S
C926 C927 1.387 . S
C926 N929 1.341 . S
C927 C925 1.400 . S
C927 C926 1.387 . S
N928 Co919 2.022 . S
N928 C925 1.351 . S
N928 N929 1.365 . S
N929 C926 1.341 . S
N929 N928 1.365 . S
N929 H949 0.862 . S
C930 C925 1.501 . S
C930 H931 0.961 . S
C930 H932 0.961 . S
C930 H933 0.960 . S
H931 C930 0.961 . S
H932 C930 0.961 . S
H933 C930 0.960 . S
C934 N935 1.342 . S
C934 C938 1.401 . S
C934 C939 1.499 . S
N935 Co918 1.989 . S
N935 C934 1.342 . S
N935 N936 1.388 . S
N936 Co919 1.993 . S
N936 N935 1.388 . S
N936 C937 1.346 . S
C937 N936 1.346 . S
C937 C938 1.396 . S
C937 C947 1.510 . S
C938 C934 1.401 . S
C938 C937 1.396 . S
C939 C934 1.499 . S
C939 H940 0.959 . S
C939 H941 0.960 . S
C939 H942 0.961 . S
H940 C939 0.959 . S
H941 C939 0.960 . S
H942 C939 0.961 . S
O943 Co918 1.967 . S
O943 C951 1.258 . S
O944 Co919 1.941 . S
O944 C951 1.266 . S
H945 C947 0.959 . S
H946 C947 0.961 . S
C947 C937 1.510 . S
C947 H945 0.959 . S
C947 H946 0.961 . S
C947 H948 0.960 . S
H948 C947 0.960 . S
H949 N929 0.862 . S
O950 Co918 1.920 . S
O950 C923 1.289 . S
C951 O943 1.258 . S
C951 O944 1.266 . S
Co952 O955 1.970 . S
Co952 N969 1.989 . S
Co952 O977 1.967 . S
Co952 O984 1.920 . S
Co953 O956 1.966 . S
Co953 N962 2.022 . S
Co953 N970 1.993 . S
Co953 O978 1.941 . S
C954 O955 1.258 . S
C954 O956 1.263 . S
O955 Co952 1.970 . S
O955 C954 1.258 . S
O956 Co953 1.966 . S
O956 C954 1.263 . S
C957 O958 1.235 . S
C957 O984 1.289 . S
O958 C957 1.235 . S
C959 C961 1.400 . S
C959 N962 1.351 . S
C959 C964 1.501 . S
C960 C961 1.387 . S
C960 N963 1.341 . S
C961 C959 1.400 . S
C961 C960 1.387 . S
N962 Co953 2.022 . S
N962 C959 1.351 . S
N962 N963 1.365 . S
N963 C960 1.341 . S
N963 N962 1.365 . S
N963 H983 0.862 . S
C964 C959 1.501 . S
C964 H965 0.961 . S
C964 H966 0.961 . S
C964 H967 0.960 . S
H965 C964 0.961 . S
H966 C964 0.961 . S
H967 C964 0.960 . S
C968 N969 1.342 . S
C968 C972 1.401 . S
C968 C973 1.499 . S
N969 Co952 1.989 . S
N969 C968 1.342 . S
N969 N970 1.388 . S
N970 Co953 1.993 . S
N970 N969 1.388 . S
N970 C971 1.346 . S
C971 N970 1.346 . S
C971 C972 1.396 . S
C971 C981 1.510 . S
C972 C968 1.401 . S
C972 C971 1.396 . S
C973 C968 1.499 . S
C973 H974 0.959 . S
C973 H975 0.960 . S
C973 H976 0.961 . S
H974 C973 0.959 . S
H975 C973 0.960 . S
H976 C973 0.961 . S
O977 Co952 1.967 . S
O977 C985 1.258 . S
O978 Co953 1.941 . S
O978 C985 1.266 . S
H979 C981 0.959 . S
H980 C981 0.961 . S
C981 C971 1.510 . S
C981 H979 0.959 . S
C981 H980 0.961 . S
C981 H982 0.960 . S
H982 C981 0.960 . S
H983 N963 0.862 . S
O984 Co952 1.920 . S
O984 C957 1.289 . S
C985 O977 1.258 . S
C985 O978 1.266 . S
Co986 O989 1.970 . S
Co986 N1003 1.989 . S
Co986 O1011 1.967 . S
Co986 O1018 1.920 . S
Co987 O990 1.966 . S
Co987 N996 2.022 . S
Co987 N1004 1.993 . S
Co987 O1012 1.941 . S
C988 O989 1.258 . S
C988 O990 1.263 . S
O989 Co986 1.970 . S
O989 C988 1.258 . S
O990 Co987 1.966 . S
O990 C988 1.263 . S
C991 O992 1.235 . S
C991 O1018 1.289 . S
O992 C991 1.235 . S
C993 C995 1.400 . S
C993 N996 1.351 . S
C993 C998 1.501 . S
C994 C995 1.387 . S
C994 N997 1.341 . S
C995 C993 1.400 . S
C995 C994 1.387 . S
N996 Co987 2.022 . S
N996 C993 1.351 . S
N996 N997 1.365 . S
N997 C994 1.341 . S
N997 N996 1.365 . S
N997 H1017 0.862 . S
C998 C993 1.501 . S
C998 H999 0.961 . S
C998 H1000 0.961 . S
C998 H1001 0.960 . S
H999 C998 0.961 . S
H1000 C998 0.961 . S
H1001 C998 0.960 . S
C1002 N1003 1.342 . S
C1002 C1006 1.401 . S
C1002 C1007 1.499 . S
N1003 Co986 1.989 . S
N1003 C1002 1.342 . S
N1003 N1004 1.388 . S
N1004 Co987 1.993 . S
N1004 N1003 1.388 . S
N1004 C1005 1.346 . S
C1005 N1004 1.346 . S
C1005 C1006 1.396 . S
C1005 C1015 1.510 . S
C1006 C1002 1.401 . S
C1006 C1005 1.396 . S
C1007 C1002 1.499 . S
C1007 H1008 0.959 . S
C1007 H1009 0.960 . S
C1007 H1010 0.961 . S
H1008 C1007 0.959 . S
H1009 C1007 0.960 . S
H1010 C1007 0.961 . S
O1011 Co986 1.967 . S
O1011 C1019 1.258 . S
O1012 Co987 1.941 . S
O1012 C1019 1.266 . S
H1013 C1015 0.959 . S
H1014 C1015 0.961 . S
C1015 C1005 1.510 . S
C1015 H1013 0.959 . S
C1015 H1014 0.961 . S
C1015 H1016 0.960 . S
H1016 C1015 0.960 . S
H1017 N997 0.862 . S
O1018 Co986 1.920 . S
O1018 C991 1.289 . S
C1019 O1011 1.258 . S
C1019 O1012 1.266 . S
Co1020 O1023 1.970 . S
Co1020 N1037 1.989 . S
Co1020 O1045 1.967 . S
Co1020 O1052 1.920 . S
Co1021 O1024 1.966 . S
Co1021 N1030 2.022 . S
Co1021 N1038 1.993 . S
Co1021 O1046 1.941 . S
C1022 O1023 1.258 . S
C1022 O1024 1.263 . S
O1023 Co1020 1.970 . S
O1023 C1022 1.258 . S
O1024 Co1021 1.966 . S
O1024 C1022 1.263 . S
C1025 O1026 1.235 . S
C1025 O1052 1.289 . S
O1026 C1025 1.235 . S
C1027 C1029 1.400 1_554 S
C1027 N1030 1.351 . S
C1027 C1032 1.501 . S
C1028 C1029 1.387 . S
C1028 N1031 1.341 1_556 S
C1029 C1027 1.400 1_556 S
C1029 C1028 1.387 . S
N1030 Co1021 2.022 . S
N1030 C1027 1.351 . S
N1030 N1031 1.365 . S
N1031 C1028 1.341 1_554 S
N1031 N1030 1.365 . S
N1031 H1051 0.862 . S
C1032 C1027 1.501 . S
C1032 H1033 0.961 . S
C1032 H1034 0.961 . S
C1032 H1035 0.960 . S
H1033 C1032 0.961 . S
H1034 C1032 0.961 . S
H1035 C1032 0.960 . S
C1036 N1037 1.342 . S
C1036 C1040 1.401 . S
C1036 C1041 1.499 . S
N1037 Co1020 1.989 . S
N1037 C1036 1.342 . S
N1037 N1038 1.388 . S
N1038 Co1021 1.993 . S
N1038 N1037 1.388 . S
N1038 C1039 1.346 . S
C1039 N1038 1.346 . S
C1039 C1040 1.396 . S
C1039 C1049 1.510 . S
C1040 C1036 1.401 . S
C1040 C1039 1.396 . S
C1041 C1036 1.499 . S
C1041 H1042 0.959 . S
C1041 H1043 0.960 . S
C1041 H1044 0.961 . S
H1042 C1041 0.959 . S
H1043 C1041 0.960 . S
H1044 C1041 0.961 . S
O1045 Co1020 1.967 . S
O1045 C1053 1.258 . S
O1046 Co1021 1.941 . S
O1046 C1053 1.266 . S
H1047 C1049 0.959 . S
H1048 C1049 0.961 . S
C1049 C1039 1.510 . S
C1049 H1047 0.959 . S
C1049 H1048 0.961 . S
C1049 H1050 0.960 . S
H1050 C1049 0.960 . S
H1051 N1031 0.862 . S
O1052 Co1020 1.920 . S
O1052 C1025 1.289 . S
C1053 O1045 1.258 . S
C1053 O1046 1.266 . S
Co1054 O1057 1.970 . S
Co1054 N1071 1.989 . S
Co1054 O1079 1.967 . S
Co1054 O1086 1.920 . S
Co1055 O1058 1.966 . S
Co1055 N1064 2.022 . S
Co1055 N1072 1.993 . S
Co1055 O1080 1.941 . S
C1056 O1057 1.258 . S
C1056 O1058 1.263 . S
O1057 Co1054 1.970 . S
O1057 C1056 1.258 . S
O1058 Co1055 1.966 . S
O1058 C1056 1.263 . S
C1059 O1060 1.235 . S
C1059 O1086 1.289 . S
O1060 C1059 1.235 . S
C1061 C1063 1.400 . S
C1061 N1064 1.351 . S
C1061 C1066 1.501 . S
C1062 C1063 1.387 . S
C1062 N1065 1.341 . S
C1063 C1061 1.400 . S
C1063 C1062 1.387 . S
N1064 Co1055 2.022 . S
N1064 C1061 1.351 . S
N1064 N1065 1.365 . S
N1065 C1062 1.341 . S
N1065 N1064 1.365 . S
N1065 H1085 0.862 . S
C1066 C1061 1.501 . S
C1066 H1067 0.961 . S
C1066 H1068 0.961 . S
C1066 H1069 0.960 . S
H1067 C1066 0.961 . S
H1068 C1066 0.961 . S
H1069 C1066 0.960 . S
C1070 N1071 1.342 . S
C1070 C1074 1.401 . S
C1070 C1075 1.499 . S
N1071 Co1054 1.989 . S
N1071 C1070 1.342 . S
N1071 N1072 1.388 . S
N1072 Co1055 1.993 . S
N1072 N1071 1.388 . S
N1072 C1073 1.346 . S
C1073 N1072 1.346 . S
C1073 C1074 1.396 . S
C1073 C1083 1.510 . S
C1074 C1070 1.401 . S
C1074 C1073 1.396 . S
C1075 C1070 1.499 . S
C1075 H1076 0.959 . S
C1075 H1077 0.960 . S
C1075 H1078 0.961 . S
H1076 C1075 0.959 . S
H1077 C1075 0.960 . S
H1078 C1075 0.961 . S
O1079 Co1054 1.967 . S
O1079 C1087 1.258 . S
O1080 Co1055 1.941 . S
O1080 C1087 1.266 . S
H1081 C1083 0.959 . S
H1082 C1083 0.961 . S
C1083 C1073 1.510 . S
C1083 H1081 0.959 . S
C1083 H1082 0.961 . S
C1083 H1084 0.960 . S
H1084 C1083 0.960 . S
H1085 N1065 0.862 . S
O1086 Co1054 1.920 . S
O1086 C1059 1.289 . S
C1087 O1079 1.258 . S
C1087 O1080 1.266 . S
H1088 C1096 0.929 . S
H1089 C1098 0.930 . S
H1090 C1100 0.930 . S
H1091 C1103 0.929 . S
H1092 C1106 0.930 . S
H1093 C1108 0.960 . S
H1094 C1108 0.960 . S
H1095 C1108 1.001 . S
C1096 H1088 0.929 . S
C1096 C1097 1.377 1_545 S
C1096 C1098 1.384 . S
C1097 C1096 1.377 1_565 S
C1097 C1103 1.390 . S
C1098 H1089 0.930 . S
C1098 C1096 1.384 . S
C1098 C1099 1.372 . S
C1099 C1098 1.372 . S
C1099 C1100 1.400 . S
C1099 C1104 1.490 . S
C1100 H1090 0.930 . S
C1100 C1099 1.400 . S
C1100 C1103 1.386 1_545 S
H1101 C1117 0.930 . S
H1102 C1118 0.931 . S
C1103 H1091 0.929 . S
C1103 C1097 1.390 . S
C1103 C1100 1.386 1_565 S
C1104 C1099 1.490 . S
C1104 C1106 1.395 . S
C1104 C1107 1.403 . S
H1105 C1111 0.930 . S
C1106 H1092 0.930 . S
C1106 C1104 1.395 . S
C1106 C1109 1.403 . S
C1107 C1104 1.403 . S
C1107 C1108 1.524 . S
C1107 C1111 1.400 . S
C1108 H1093 0.960 . S
C1108 H1094 0.960 . S
C1108 H1095 1.001 . S
C1108 C1107 1.524 . S
C1109 C1106 1.403 . S
C1109 C1110 1.392 . S
C1109 C1113 1.495 . S
C1110 C1109 1.392 . S
C1110 C1111 1.385 . S
C1110 C1112 1.478 . S
C1111 H1105 0.930 . S
C1111 C1107 1.400 . S
C1111 C1110 1.385 . S
C1112 C1110 1.478 . S
C1112 C1114 1.381 . S
C1112 C1118 1.383 . S
C1113 C1109 1.495 . S
C1113 H1119 0.959 . S
C1113 H1120 0.961 . S
C1113 H1121 0.960 . S
C1114 C1112 1.381 . S
C1114 C1115 1.394 . S
C1114 H1122 0.930 . S
C1115 C1114 1.394 . S
C1115 C1116 1.383 . S
C1115 H1123 0.929 . S
C1116 C1115 1.383 . S
C1116 C1117 1.377 . S
C1117 H1101 0.930 . S
C1117 C1116 1.377 . S
C1117 C1118 1.379 . S
C1118 H1102 0.931 . S
C1118 C1112 1.383 . S
C1118 C1117 1.379 . S
H1119 C1113 0.959 . S
H1120 C1113 0.961 . S
H1121 C1113 0.960 . S
H1122 C1114 0.930 . S
H1123 C1115 0.929 . S
H1124 C1132 0.929 . S
H1125 C1134 0.930 . S
H1126 C1136 0.930 . S
H1127 C1139 0.929 . S
H1128 C1142 0.930 . S
H1129 C1144 0.960 . S
H1130 C1144 0.960 . S
H1131 C1144 0.960 . S
C1132 H1124 0.929 . S
C1132 C1133 1.377 . S
C1132 C1134 1.384 . S
C1133 C1132 1.377 . S
C1133 C1139 1.390 . S
C1134 H1125 0.930 . S
C1134 C1132 1.384 . S
C1134 C1135 1.372 . S
C1135 C1134 1.372 . S
C1135 C1136 1.400 . S
C1135 C1140 1.490 . S
C1136 H1126 0.930 . S
C1136 C1135 1.400 . S
C1136 C1139 1.386 . S
H1137 C1153 0.930 . S
H1138 C1154 0.931 . S
C1139 H1127 0.929 . S
C1139 C1133 1.390 . S
C1139 C1136 1.386 . S
C1140 C1135 1.490 . S
C1140 C1142 1.395 . S
C1140 C1143 1.403 . S
H1141 C1147 0.930 . S
C1142 H1128 0.930 . S
C1142 C1140 1.395 . S
C1142 C1145 1.403 . S
C1143 C1140 1.403 . S
C1143 C1144 1.524 . S
C1143 C1147 1.400 . S
C1144 H1129 0.960 . S
C1144 H1130 0.960 . S
C1144 H1131 0.960 . S
C1144 C1143 1.524 . S
C1145 C1142 1.403 . S
C1145 C1146 1.392 . S
C1145 C1149 1.495 . S
C1146 C1145 1.392 . S
C1146 C1147 1.385 . S
C1146 C1148 1.478 . S
C1147 H1141 0.930 . S
C1147 C1143 1.400 . S
C1147 C1146 1.385 . S
C1148 C1146 1.478 . S
C1148 C1150 1.381 . S
C1148 C1154 1.383 . S
C1149 C1145 1.495 . S
C1149 H1155 0.959 . S
C1149 H1156 0.961 . S
C1149 H1157 0.960 . S
C1150 C1148 1.381 . S
C1150 C1151 1.394 . S
C1150 H1158 0.930 . S
C1151 C1150 1.394 . S
C1151 C1152 1.383 . S
C1151 H1159 0.929 . S
C1152 C1151 1.383 . S
C1152 C1153 1.377 . S
C1153 H1137 0.930 . S
C1153 C1152 1.377 . S
C1153 C1154 1.379 . S
C1154 H1138 0.931 . S
C1154 C1148 1.383 . S
C1154 C1153 1.379 . S
H1155 C1149 0.959 . S
H1156 C1149 0.961 . S
H1157 C1149 0.960 . S
H1158 C1150 0.930 . S
H1159 C1151 0.929 . S
H1160 C1168 0.929 . S
H1161 C1170 0.930 . S
H1162 C1172 0.930 . S
H1163 C1175 0.929 . S
H1164 C1178 0.930 . S
H1165 C1180 0.960 . S
H1166 C1180 0.960 . S
H1167 C1180 0.960 . S
C1168 H1160 0.929 . S
C1168 C1169 1.377 . S
C1168 C1170 1.384 . S
C1169 C1168 1.377 . S
C1169 C1175 1.390 . S
C1170 H1161 0.930 . S
C1170 C1168 1.384 . S
C1170 C1171 1.372 . S
C1171 C1170 1.372 . S
C1171 C1172 1.400 . S
C1171 C1176 1.490 . S
C1172 H1162 0.930 . S
C1172 C1171 1.400 . S
C1172 C1175 1.386 . S
H1173 C1189 0.909 1_545 S
H1174 C1190 0.931 . S
C1175 H1163 0.929 . S
C1175 C1169 1.390 . S
C1175 C1172 1.386 . S
C1176 C1171 1.490 . S
C1176 C1178 1.395 . S
C1176 C1179 1.403 . S
H1177 C1183 0.930 . S
C1178 H1164 0.930 . S
C1178 C1176 1.395 . S
C1178 C1181 1.403 . S
C1179 C1176 1.403 . S
C1179 C1180 1.524 . S
C1179 C1183 1.400 . S
C1180 H1165 0.960 . S
C1180 H1166 0.960 . S
C1180 H1167 0.960 . S
C1180 C1179 1.524 . S
C1181 C1178 1.403 . S
C1181 C1182 1.392 . S
C1181 C1185 1.495 . S
C1182 C1181 1.392 . S
C1182 C1183 1.385 . S
C1182 C1184 1.478 . S
C1183 H1177 0.930 . S
C1183 C1179 1.400 . S
C1183 C1182 1.385 . S
C1184 C1182 1.478 . S
C1184 C1186 1.381 . S
C1184 C1190 1.383 . S
C1185 C1181 1.495 . S
C1185 H1191 0.959 . S
C1185 H1192 0.961 . S
C1185 H1193 0.960 . S
C1186 C1184 1.381 . S
C1186 C1187 1.421 . S
C1186 H1194 0.930 . S
C1187 C1186 1.421 . S
C1187 C1188 1.371 1_565 S
C1187 H1195 0.916 1_565 S
C1188 C1187 1.371 1_545 S
C1188 C1189 1.355 1_545 S
C1189 H1173 0.909 1_565 S
C1189 C1188 1.355 1_565 S
C1189 C1190 1.426 . S
C1190 H1174 0.931 . S
C1190 C1184 1.383 . S
C1190 C1189 1.426 . S
H1191 C1185 0.959 . S
H1192 C1185 0.961 . S
H1193 C1185 0.960 . S
H1194 C1186 0.930 . S
H1195 C1187 0.916 1_545 S
H1196 C1204 0.929 . S
H1197 C1206 0.930 . S
H1198 C1208 0.930 . S
H1199 C1211 0.929 . S
H1200 C1214 0.930 . S
H1201 C1216 0.960 . S
H1202 C1216 0.960 . S
H1203 C1216 0.960 . S
C1204 H1196 0.929 . S
C1204 C1205 1.377 . S
C1204 C1206 1.384 . S
C1205 C1204 1.377 . S
C1205 C1211 1.390 . S
C1206 H1197 0.930 . S
C1206 C1204 1.384 . S
C1206 C1207 1.372 . S
C1207 C1206 1.372 . S
C1207 C1208 1.400 . S
C1207 C1212 1.490 . S
C1208 H1198 0.930 . S
C1208 C1207 1.400 . S
C1208 C1211 1.386 . S
H1209 C1225 0.930 . S
H1210 C1226 0.931 . S
C1211 H1199 0.929 . S
C1211 C1205 1.390 . S
C1211 C1208 1.386 . S
C1212 C1207 1.490 . S
C1212 C1214 1.395 . S
C1212 C1215 1.403 . S
H1213 C1219 0.930 . S
C1214 H1200 0.930 . S
C1214 C1212 1.395 . S
C1214 C1217 1.403 . S
C1215 C1212 1.403 . S
C1215 C1216 1.524 . S
C1215 C1219 1.400 . S
C1216 H1201 0.960 . S
C1216 H1202 0.960 . S
C1216 H1203 0.960 . S
C1216 C1215 1.524 . S
C1217 C1214 1.403 . S
C1217 C1218 1.392 . S
C1217 C1221 1.495 . S
C1218 C1217 1.392 . S
C1218 C1219 1.385 . S
C1218 C1220 1.478 . S
C1219 H1213 0.930 . S
C1219 C1215 1.400 . S
C1219 C1218 1.385 . S
C1220 C1218 1.478 . S
C1220 C1222 1.381 . S
C1220 C1226 1.383 . S
C1221 C1217 1.495 . S
C1221 H1227 0.959 . S
C1221 H1228 0.961 . S
C1221 H1229 0.960 . S
C1222 C1220 1.381 . S
C1222 C1223 1.394 . S
C1222 H1230 0.930 . S
C1223 C1222 1.394 . S
C1223 C1224 1.383 . S
C1223 H1231 0.958 . S
C1224 C1223 1.383 . S
C1224 C1225 1.377 . S
C1225 H1209 0.930 . S
C1225 C1224 1.377 . S
C1225 C1226 1.379 . S
C1226 H1210 0.931 . S
C1226 C1220 1.383 . S
C1226 C1225 1.379 . S
H1227 C1221 0.959 . S
H1228 C1221 0.961 . S
H1229 C1221 0.960 . S
H1230 C1222 0.930 . S
H1231 C1223 0.958 . S
H1232 C1240 0.929 . S
H1233 C1242 0.930 . S
H1234 C1244 0.930 . S
H1235 C1247 0.929 . S
H1236 C1250 0.930 . S
H1237 C1252 0.960 . S
H1238 C1252 0.960 . S
H1239 C1252 0.960 . S
C1240 H1232 0.929 . S
C1240 C1241 1.377 . S
C1240 C1242 1.384 . S
C1241 C1240 1.377 . S
C1241 C1247 1.390 . S
C1242 H1233 0.930 . S
C1242 C1240 1.384 . S
C1242 C1243 1.372 . S
C1243 C1242 1.372 . S
C1243 C1244 1.400 . S
C1243 C1248 1.490 . S
C1244 H1234 0.930 . S
C1244 C1243 1.400 . S
C1244 C1247 1.386 . S
H1245 C1261 0.930 . S
H1246 C1262 0.931 . S
C1247 H1235 0.929 . S
C1247 C1241 1.390 . S
C1247 C1244 1.386 . S
C1248 C1243 1.490 . S
C1248 C1250 1.395 . S
C1248 C1251 1.403 . S
H1249 C1255 0.930 . S
C1250 H1236 0.930 . S
C1250 C1248 1.395 . S
C1250 C1253 1.403 . S
C1251 C1248 1.403 . S
C1251 C1252 1.524 . S
C1251 C1255 1.400 . S
C1252 H1237 0.960 . S
C1252 H1238 0.960 . S
C1252 H1239 0.960 . S
C1252 C1251 1.524 . S
C1253 C1250 1.403 . S
C1253 C1254 1.392 . S
C1253 C1257 1.495 . S
C1254 C1253 1.392 . S
C1254 C1255 1.385 . S
C1254 C1256 1.478 . S
C1255 H1249 0.930 . S
C1255 C1251 1.400 . S
C1255 C1254 1.385 . S
C1256 C1254 1.478 . S
C1256 C1258 1.376 . S
C1256 C1262 1.383 . S
C1257 C1253 1.495 . S
C1257 H1263 0.959 . S
C1257 H1264 0.961 . S
C1257 H1265 0.960 1_565 S
C1258 C1256 1.376 . S
C1258 C1259 1.398 1_565 S
C1258 H1266 0.931 1_565 S
C1259 C1258 1.398 1_545 S
C1259 C1260 1.383 . S
C1259 H1267 0.929 . S
C1260 C1259 1.383 . S
C1260 C1261 1.377 1_545 S
C1261 H1245 0.930 . S
C1261 C1260 1.377 1_565 S
C1261 C1262 1.379 . S
C1262 H1246 0.931 . S
C1262 C1256 1.383 . S
C1262 C1261 1.379 . S
H1263 C1257 0.959 . S
H1264 C1257 0.961 . S
H1265 C1257 0.960 1_545 S
H1266 C1258 0.931 1_545 S
H1267 C1259 0.929 . S
H1268 C1276 0.929 . S
H1269 C1278 0.930 . S
H1270 C1280 0.930 . S
H1271 C1283 0.929 . S
H1272 C1286 0.930 . S
H1273 C1288 0.960 . S
H1274 C1288 0.960 . S
H1275 C1288 0.960 . S
C1276 H1268 0.929 . S
C1276 C1277 1.377 . S
C1276 C1278 1.384 . S
C1277 C1276 1.377 . S
C1277 C1283 1.390 . S
C1278 H1269 0.930 . S
C1278 C1276 1.384 . S
C1278 C1279 1.372 . S
C1279 C1278 1.372 . S
C1279 C1280 1.400 . S
C1279 C1284 1.490 . S
C1280 H1270 0.930 . S
C1280 C1279 1.400 . S
C1280 C1283 1.386 . S
H1281 C1297 0.930 . S
H1282 C1298 0.931 . S
C1283 H1271 0.929 . S
C1283 C1277 1.390 . S
C1283 C1280 1.386 . S
C1284 C1279 1.490 . S
C1284 C1286 1.395 . S
C1284 C1287 1.403 . S
H1285 C1291 0.930 . S
C1286 H1272 0.930 . S
C1286 C1284 1.395 . S
C1286 C1289 1.403 . S
C1287 C1284 1.403 . S
C1287 C1288 1.524 . S
C1287 C1291 1.400 . S
C1288 H1273 0.960 . S
C1288 H1274 0.960 . S
C1288 H1275 0.960 . S
C1288 C1287 1.524 . S
C1289 C1286 1.403 . S
C1289 C1290 1.392 . S
C1289 C1293 1.495 . S
C1290 C1289 1.392 . S
C1290 C1291 1.385 . S
C1290 C1292 1.478 . S
C1291 H1285 0.930 . S
C1291 C1287 1.400 . S
C1291 C1290 1.385 . S
C1292 C1290 1.478 . S
C1292 C1294 1.381 . S
C1292 C1298 1.383 . S
C1293 C1289 1.495 . S
C1293 H1299 0.959 . S
C1293 H1300 0.961 . S
C1293 H1301 0.960 . S
C1294 C1292 1.381 . S
C1294 C1295 1.394 . S
C1294 H1302 0.930 . S
C1295 C1294 1.394 . S
C1295 C1296 1.383 . S
C1295 H1303 0.929 . S
C1296 C1295 1.383 . S
C1296 C1297 1.377 . S
C1297 H1281 0.930 . S
C1297 C1296 1.377 . S
C1297 C1298 1.379 . S
C1298 H1282 0.931 . S
C1298 C1292 1.383 . S
C1298 C1297 1.379 . S
H1299 C1293 0.959 . S
H1300 C1293 0.961 . S
H1301 C1293 0.960 . S
H1302 C1294 0.930 . S
H1303 C1295 0.929 . S
H1304 C1312 0.929 . S
H1305 C1314 0.930 . S
H1306 C1316 0.930 . S
H1307 C1319 0.929 . S
H1308 C1322 0.930 . S
H1309 C1324 0.960 . S
H1310 C1324 0.960 . S
H1311 C1324 0.960 . S
C1312 H1304 0.929 . S
C1312 C1313 1.377 . S
C1312 C1314 1.384 . S
C1313 C1312 1.377 . S
C1313 C1319 1.390 . S
C1314 H1305 0.930 . S
C1314 C1312 1.384 . S
C1314 C1315 1.372 . S
C1315 C1314 1.372 . S
C1315 C1316 1.400 . S
C1315 C1320 1.490 . S
C1316 H1306 0.930 . S
C1316 C1315 1.400 . S
C1316 C1319 1.386 . S
H1317 C1333 0.930 . S
H1318 C1334 0.931 . S
C1319 H1307 0.929 . S
C1319 C1313 1.390 . S
C1319 C1316 1.386 . S
C1320 C1315 1.490 . S
C1320 C1322 1.395 . S
C1320 C1323 1.403 . S
H1321 C1327 0.930 . S
C1322 H1308 0.930 . S
C1322 C1320 1.395 . S
C1322 C1325 1.403 . S
C1323 C1320 1.403 . S
C1323 C1324 1.524 . S
C1323 C1327 1.400 . S
C1324 H1309 0.960 . S
C1324 H1310 0.960 . S
C1324 H1311 0.960 . S
C1324 C1323 1.524 . S
C1325 C1322 1.403 . S
C1325 C1326 1.392 . S
C1325 C1329 1.495 . S
C1326 C1325 1.392 . S
C1326 C1327 1.385 . S
C1326 C1328 1.478 . S
C1327 H1321 0.930 . S
C1327 C1323 1.400 . S
C1327 C1326 1.385 . S
C1328 C1326 1.478 . S
C1328 C1330 1.381 . S
C1328 C1334 1.383 . S
C1329 C1325 1.495 . S
C1329 H1335 0.959 . S
C1329 H1336 0.961 . S
C1329 H1337 0.960 . S
C1330 C1328 1.381 . S
C1330 C1331 1.394 . S
C1330 H1338 0.930 . S
C1331 C1330 1.394 . S
C1331 C1332 1.383 1_545 S
C1331 H1339 0.929 . S
C1332 C1331 1.383 1_565 S
C1332 C1333 1.377 . S
C1333 H1317 0.930 . S
C1333 C1332 1.377 . S
C1333 C1334 1.379 1_565 S
C1334 H1318 0.931 . S
C1334 C1328 1.383 . S
C1334 C1333 1.379 1_545 S
H1335 C1329 0.959 . S
H1336 C1329 0.961 . S
H1337 C1329 0.960 . S
H1338 C1330 0.930 . S
H1339 C1331 0.929 . S
H1340 C1348 0.929 . S
H1341 C1350 0.930 . S
H1342 C1352 0.930 . S
H1343 C1355 0.929 . S
H1344 C1358 0.930 . S
H1345 C1360 0.960 . S
H1346 C1360 0.960 . S
H1347 C1360 0.960 . S
C1348 H1340 0.929 . S
C1348 C1349 1.377 . S
C1348 C1350 1.384 . S
C1349 C1348 1.377 . S
C1349 C1355 1.390 . S
C1350 H1341 0.930 . S
C1350 C1348 1.384 . S
C1350 C1351 1.372 . S
C1351 C1350 1.372 . S
C1351 C1352 1.400 . S
C1351 C1356 1.490 . S
C1352 H1342 0.930 . S
C1352 C1351 1.400 . S
C1352 C1355 1.386 . S
H1353 C1369 0.930 . S
H1354 C1370 0.931 . S
C1355 H1343 0.929 . S
C1355 C1349 1.390 . S
C1355 C1352 1.386 . S
C1356 C1351 1.490 . S
C1356 C1358 1.395 . S
C1356 C1359 1.403 . S
H1357 C1363 0.930 . S
C1358 H1344 0.930 . S
C1358 C1356 1.395 . S
C1358 C1361 1.403 . S
C1359 C1356 1.403 . S
C1359 C1360 1.524 . S
C1359 C1363 1.400 . S
C1360 H1345 0.960 . S
C1360 H1346 0.960 . S
C1360 H1347 0.960 . S
C1360 C1359 1.524 . S
C1361 C1358 1.403 . S
C1361 C1362 1.392 . S
C1361 C1365 1.495 . S
C1362 C1361 1.392 . S
C1362 C1363 1.385 . S
C1362 C1364 1.478 . S
C1363 H1357 0.930 . S
C1363 C1359 1.400 . S
C1363 C1362 1.385 . S
C1364 C1362 1.478 . S
C1364 C1366 1.381 . S
C1364 C1370 1.383 . S
C1365 C1361 1.495 . S
C1365 H1371 0.959 . S
C1365 H1372 0.961 . S
C1365 H1373 0.960 . S
C1366 C1364 1.381 . S
C1366 C1367 1.394 . S
C1366 H1374 0.930 . S
C1367 C1366 1.394 . S
C1367 C1368 1.383 . S
C1367 H1375 0.929 . S
C1368 C1367 1.383 . S
C1368 C1369 1.377 . S
C1369 H1353 0.930 . S
C1369 C1368 1.377 . S
C1369 C1370 1.379 . S
C1370 H1354 0.931 . S
C1370 C1364 1.383 . S
C1370 C1369 1.379 . S
H1371 C1365 0.959 . S
H1372 C1365 0.961 . S
H1373 C1365 0.960 . S
H1374 C1366 0.930 . S
H1375 C1367 0.929 . S
H1376 C1384 0.927 1_545 S
H1377 C1386 0.930 . S
H1378 C1388 0.930 . S
H1379 C1391 0.929 . S
H1380 C1394 0.930 . S
H1381 C1396 0.960 . S
H1382 C1396 0.960 . S
H1383 C1396 0.960 . S
C1384 H1376 0.927 1_565 S
C1384 C1385 1.374 1_565 S
C1384 C1386 1.390 . S
C1385 C1384 1.374 1_545 S
C1385 C1391 1.390 . S
C1386 H1377 0.930 . S
C1386 C1384 1.390 . S
C1386 C1387 1.372 . S
C1387 C1386 1.372 . S
C1387 C1388 1.400 . S
C1387 C1392 1.490 . S
C1388 H1378 0.930 . S
C1388 C1387 1.400 . S
C1388 C1391 1.386 1_565 S
H1389 C1405 0.930 . S
H1390 C1406 0.931 . S
C1391 H1379 0.929 . S
C1391 C1385 1.390 . S
C1391 C1388 1.386 1_545 S
C1392 C1387 1.490 . S
C1392 C1394 1.395 . S
C1392 C1395 1.403 . S
H1393 C1399 0.930 . S
C1394 H1380 0.930 . S
C1394 C1392 1.395 . S
C1394 C1397 1.403 . S
C1395 C1392 1.403 . S
C1395 C1396 1.524 . S
C1395 C1399 1.400 . S
C1396 H1381 0.960 . S
C1396 H1382 0.960 . S
C1396 H1383 0.960 . S
C1396 C1395 1.524 . S
C1397 C1394 1.403 . S
C1397 C1398 1.392 . S
C1397 C1401 1.495 . S
C1398 C1397 1.392 . S
C1398 C1399 1.385 . S
C1398 C1400 1.478 . S
C1399 H1393 0.930 . S
C1399 C1395 1.400 . S
C1399 C1398 1.385 . S
C1400 C1398 1.478 . S
C1400 C1402 1.381 . S
C1400 C1406 1.383 . S
C1401 C1397 1.495 . S
C1401 H1407 0.959 . S
C1401 H1408 0.961 . S
C1401 H1409 0.960 . S
C1402 C1400 1.381 . S
C1402 C1403 1.394 . S
C1402 H1410 0.930 . S
C1403 C1402 1.394 . S
C1403 C1404 1.383 . S
C1403 H1411 0.929 . S
C1404 C1403 1.383 . S
C1404 C1405 1.377 . S
C1405 H1389 0.930 . S
C1405 C1404 1.377 . S
C1405 C1406 1.379 . S
C1406 H1390 0.931 . S
C1406 C1400 1.383 . S
C1406 C1405 1.379 . S
H1407 C1401 0.959 . S
H1408 C1401 0.961 . S
H1409 C1401 0.960 . S
H1410 C1402 0.930 . S
H1411 C1403 0.929 . S
H1412 C1420 0.929 . S
H1413 C1422 0.930 . S
H1414 C1424 0.930 . S
H1415 C1427 0.929 . S
H1416 C1430 0.930 . S
H1417 C1432 0.960 . S
H1418 C1432 0.960 . S
H1419 C1432 0.960 . S
C1420 H1412 0.929 . S
C1420 C1421 1.377 . S
C1420 C1422 1.384 . S
C1421 C1420 1.377 . S
C1421 C1427 1.390 . S
C1422 H1413 0.930 . S
C1422 C1420 1.384 . S
C1422 C1423 1.372 . S
C1423 C1422 1.372 . S
C1423 C1424 1.400 . S
C1423 C1428 1.490 . S
C1424 H1414 0.930 . S
C1424 C1423 1.400 . S
C1424 C1427 1.386 . S
H1425 C1441 0.930 . S
H1426 C1442 0.931 . S
C1427 H1415 0.929 . S
C1427 C1421 1.390 . S
C1427 C1424 1.386 . S
C1428 C1423 1.490 . S
C1428 C1430 1.395 . S
C1428 C1431 1.403 . S
H1429 C1435 0.930 . S
C1430 H1416 0.930 . S
C1430 C1428 1.395 . S
C1430 C1433 1.403 . S
C1431 C1428 1.403 . S
C1431 C1432 1.524 . S
C1431 C1435 1.400 . S
C1432 H1417 0.960 . S
C1432 H1418 0.960 . S
C1432 H1419 0.960 . S
C1432 C1431 1.524 . S
C1433 C1430 1.403 . S
C1433 C1434 1.392 . S
C1433 C1437 1.495 . S
C1434 C1433 1.392 . S
C1434 C1435 1.385 . S
C1434 C1436 1.478 . S
C1435 H1429 0.930 . S
C1435 C1431 1.400 . S
C1435 C1434 1.385 . S
C1436 C1434 1.478 . S
C1436 C1438 1.381 . S
C1436 C1442 1.383 . S
C1437 C1433 1.495 . S
C1437 H1443 0.959 . S
C1437 H1444 0.961 . S
C1437 H1445 0.960 . S
C1438 C1436 1.381 . S
C1438 C1439 1.394 . S
C1438 H1446 0.930 . S
C1439 C1438 1.394 . S
C1439 C1440 1.383 . S
C1439 H1447 0.929 . S
C1440 C1439 1.383 . S
C1440 C1441 1.377 . S
C1441 H1425 0.930 . S
C1441 C1440 1.377 . S
C1441 C1442 1.379 . S
C1442 H1426 0.931 . S
C1442 C1436 1.383 . S
C1442 C1441 1.379 . S
H1443 C1437 0.959 . S
H1444 C1437 0.961 . S
H1445 C1437 0.960 . S
H1446 C1438 0.930 . S
H1447 C1439 0.929 . S
H1448 C1456 0.929 . S
H1449 C1458 0.930 . S
H1450 C1460 0.930 . S
H1451 C1463 0.929 . S
H1452 C1466 0.930 . S
H1453 C1468 0.960 . S
H1454 C1468 0.960 . S
H1455 C1468 0.960 . S
C1456 H1448 0.929 . S
C1456 C1457 1.377 . S
C1456 C1458 1.384 . S
C1457 C1456 1.377 . S
C1457 C1463 1.390 . S
C1458 H1449 0.930 . S
C1458 C1456 1.384 . S
C1458 C1459 1.372 . S
C1459 C1458 1.372 . S
C1459 C1460 1.400 . S
C1459 C1464 1.490 . S
C1460 H1450 0.930 . S
C1460 C1459 1.400 . S
C1460 C1463 1.386 . S
H1461 C1477 0.926 1_565 S
H1462 C1478 0.931 . S
C1463 H1451 0.929 . S
C1463 C1457 1.390 . S
C1463 C1460 1.386 . S
C1464 C1459 1.490 . S
C1464 C1466 1.395 . S
C1464 C1467 1.403 . S
H1465 C1471 0.930 . S
C1466 H1452 0.930 . S
C1466 C1464 1.395 . S
C1466 C1469 1.403 . S
C1467 C1464 1.403 . S
C1467 C1468 1.524 . S
C1467 C1471 1.400 . S
C1468 H1453 0.960 . S
C1468 H1454 0.960 . S
C1468 H1455 0.960 . S
C1468 C1467 1.524 . S
C1469 C1466 1.403 . S
C1469 C1470 1.392 . S
C1469 C1473 1.495 . S
C1470 C1469 1.392 . S
C1470 C1471 1.385 . S
C1470 C1472 1.478 . S
C1471 H1465 0.930 . S
C1471 C1467 1.400 . S
C1471 C1470 1.385 . S
C1472 C1470 1.478 . S
C1472 C1474 1.381 . S
C1472 C1478 1.383 . S
C1473 C1469 1.495 . S
C1473 H1479 0.959 . S
C1473 H1480 0.961 . S
C1473 H1481 0.960 . S
C1474 C1472 1.381 . S
C1474 C1475 1.394 . S
C1474 H1482 0.930 . S
C1475 C1474 1.394 . S
C1475 C1476 1.383 1_545 S
C1475 H1483 0.929 1_545 S
C1476 C1475 1.383 1_565 S
C1476 C1477 1.374 1_565 S
C1477 H1461 0.926 1_545 S
C1477 C1476 1.374 1_545 S
C1477 C1478 1.386 . S
C1478 H1462 0.931 . S
C1478 C1472 1.383 . S
C1478 C1477 1.386 . S
H1479 C1473 0.959 . S
H1480 C1473 0.961 . S
H1481 C1473 0.960 . S
H1482 C1474 0.930 . S
H1483 C1475 0.929 1_565 S
H1484 C1492 0.969 . S
H1485 C1494 0.930 . S
H1486 C1496 0.930 . S
H1487 C1499 0.929 . S
H1488 C1502 0.930 . S
H1489 C1504 0.960 . S
H1490 C1504 0.960 . S
H1491 C1504 0.960 . S
C1492 H1484 0.969 . S
C1492 C1493 1.377 . S
C1492 C1494 1.384 . S
C1493 C1492 1.377 . S
C1493 C1499 1.390 . S
C1494 H1485 0.930 . S
C1494 C1492 1.384 . S
C1494 C1495 1.372 . S
C1495 C1494 1.372 . S
C1495 C1496 1.400 . S
C1495 C1500 1.490 . S
C1496 H1486 0.930 . S
C1496 C1495 1.400 . S
C1496 C1499 1.386 . S
H1497 C1513 0.930 . S
H1498 C1514 0.931 . S
C1499 H1487 0.929 . S
C1499 C1493 1.390 . S
C1499 C1496 1.386 . S
C1500 C1495 1.490 . S
C1500 C1502 1.395 . S
C1500 C1503 1.403 . S
H1501 C1507 0.930 . S
C1502 H1488 0.930 . S
C1502 C1500 1.395 . S
C1502 C1505 1.403 . S
C1503 C1500 1.403 . S
C1503 C1504 1.524 . S
C1503 C1507 1.400 . S
C1504 H1489 0.960 . S
C1504 H1490 0.960 . S
C1504 H1491 0.960 . S
C1504 C1503 1.524 . S
C1505 C1502 1.403 . S
C1505 C1506 1.392 . S
C1505 C1509 1.495 . S
C1506 C1505 1.392 . S
C1506 C1507 1.385 . S
C1506 C1508 1.478 . S
C1507 H1501 0.930 . S
C1507 C1503 1.400 . S
C1507 C1506 1.385 . S
C1508 C1506 1.478 . S
C1508 C1510 1.381 . S
C1508 C1514 1.383 . S
C1509 C1505 1.495 . S
C1509 H1515 0.959 . S
C1509 H1516 0.961 . S
C1509 H1517 0.960 . S
C1510 C1508 1.381 . S
C1510 C1511 1.394 . S
C1510 H1518 0.930 . S
C1511 C1510 1.394 . S
C1511 C1512 1.383 . S
C1511 H1519 0.929 . S
C1512 C1511 1.383 . S
C1512 C1513 1.377 . S
C1513 H1497 0.930 . S
C1513 C1512 1.377 . S
C1513 C1514 1.379 . S
C1514 H1498 0.931 . S
C1514 C1508 1.383 . S
C1514 C1513 1.379 . S
H1515 C1509 0.959 . S
H1516 C1509 0.961 . S
H1517 C1509 0.960 . S
H1518 C1510 0.930 . S
H1519 C1511 0.929 . S
H1520 C1528 0.929 . S
H1521 C1530 0.930 . S
H1522 C1532 0.930 . S
H1523 C1535 0.929 . S
H1524 C1538 0.930 . S
H1525 C1540 0.960 . S
H1526 C1540 0.960 . S
H1527 C1540 0.960 . S
C1528 H1520 0.929 . S
C1528 C1529 1.377 . S
C1528 C1530 1.384 . S
C1529 C1528 1.377 . S
C1529 C1535 1.390 . S
C1530 H1521 0.930 . S
C1530 C1528 1.384 . S
C1530 C1531 1.372 . S
C1531 C1530 1.372 . S
C1531 C1532 1.400 . S
C1531 C1536 1.490 . S
C1532 H1522 0.930 . S
C1532 C1531 1.400 . S
C1532 C1535 1.386 . S
H1533 C1549 0.930 . S
H1534 C1550 0.931 . S
C1535 H1523 0.929 . S
C1535 C1529 1.390 . S
C1535 C1532 1.386 . S
C1536 C1531 1.490 . S
C1536 C1538 1.395 . S
C1536 C1539 1.403 . S
H1537 C1543 0.930 . S
C1538 H1524 0.930 . S
C1538 C1536 1.395 . S
C1538 C1541 1.403 . S
C1539 C1536 1.403 . S
C1539 C1540 1.524 . S
C1539 C1543 1.400 . S
C1540 H1525 0.960 . S
C1540 H1526 0.960 . S
C1540 H1527 0.960 . S
C1540 C1539 1.524 . S
C1541 C1538 1.403 . S
C1541 C1542 1.392 . S
C1541 C1545 1.495 . S
C1542 C1541 1.392 . S
C1542 C1543 1.385 . S
C1542 C1544 1.478 . S
C1543 H1537 0.930 . S
C1543 C1539 1.400 . S
C1543 C1542 1.385 . S
C1544 C1542 1.478 . S
C1544 C1546 1.381 1_545 S
C1544 C1550 1.383 . S
C1545 C1541 1.495 . S
C1545 H1551 0.959 . S
C1545 H1552 0.961 . S
C1545 H1553 0.960 . S
C1546 C1544 1.381 1_565 S
C1546 C1547 1.394 . S
C1546 H1554 0.930 . S
C1547 C1546 1.394 . S
C1547 C1548 1.383 . S
C1547 H1555 0.929 . S
C1548 C1547 1.383 . S
C1548 C1549 1.377 1_565 S
C1549 H1533 0.930 . S
C1549 C1548 1.377 1_545 S
C1549 C1550 1.379 . S
C1550 H1534 0.931 . S
C1550 C1544 1.383 . S
C1550 C1549 1.379 . S
H1551 C1545 0.959 . S
H1552 C1545 0.961 . S
H1553 C1545 0.960 . S
H1554 C1546 0.930 . S
H1555 C1547 0.929 . S
H1556 C1564 0.929 . S
H1557 C1566 0.930 . S
H1558 C1568 0.930 . S
H1559 C1571 0.929 . S
H1560 C1574 0.930 . S
H1561 C1576 0.960 . S
H1562 C1576 0.960 . S
H1563 C1576 0.960 . S
C1564 H1556 0.929 . S
C1564 C1565 1.377 . S
C1564 C1566 1.384 . S
C1565 C1564 1.377 . S
C1565 C1571 1.390 . S
C1566 H1557 0.930 . S
C1566 C1564 1.384 . S
C1566 C1567 1.372 . S
C1567 C1566 1.372 . S
C1567 C1568 1.400 . S
C1567 C1572 1.490 . S
C1568 H1558 0.930 . S
C1568 C1567 1.400 . S
C1568 C1571 1.386 . S
H1569 C1585 0.930 . S
H1570 C1586 0.931 . S
C1571 H1559 0.929 . S
C1571 C1565 1.390 . S
C1571 C1568 1.386 . S
C1572 C1567 1.490 . S
C1572 C1574 1.395 . S
C1572 C1575 1.403 . S
H1573 C1579 0.930 . S
C1574 H1560 0.930 . S
C1574 C1572 1.395 . S
C1574 C1577 1.403 . S
C1575 C1572 1.403 . S
C1575 C1576 1.524 . S
C1575 C1579 1.400 . S
C1576 H1561 0.960 . S
C1576 H1562 0.960 . S
C1576 H1563 0.960 . S
C1576 C1575 1.524 . S
C1577 C1574 1.403 . S
C1577 C1578 1.392 . S
C1577 C1581 1.495 . S
C1578 C1577 1.392 . S
C1578 C1579 1.385 . S
C1578 C1580 1.478 . S
C1579 H1573 0.930 . S
C1579 C1575 1.400 . S
C1579 C1578 1.385 . S
C1580 C1578 1.478 . S
C1580 C1582 1.381 . S
C1580 C1586 1.383 . S
C1581 C1577 1.495 . S
C1581 H1587 0.959 . S
C1581 H1588 0.961 . S
C1581 H1589 0.960 . S
C1582 C1580 1.381 . S
C1582 C1583 1.394 . S
C1582 H1590 0.930 . S
C1583 C1582 1.394 . S
C1583 C1584 1.383 . S
C1583 H1591 0.929 . S
C1584 C1583 1.383 . S
C1584 C1585 1.377 . S
C1585 H1569 0.930 . S
C1585 C1584 1.377 . S
C1585 C1586 1.379 . S
C1586 H1570 0.931 . S
C1586 C1580 1.383 . S
C1586 C1585 1.379 . S
H1587 C1581 0.959 . S
H1588 C1581 0.961 . S
H1589 C1581 0.960 . S
H1590 C1582 0.930 . S
H1591 C1583 0.929 . S
H1592 C1600 0.929 . S
H1593 C1602 0.930 . S
H1594 C1604 0.930 . S
H1595 C1607 0.929 . S
H1596 C1610 0.930 . S
H1597 C1612 0.960 . S
H1598 C1612 0.960 . S
H1599 C1612 0.960 . S
C1600 H1592 0.929 . S
C1600 C1601 1.377 . S
C1600 C1602 1.384 1_545 S
C1601 C1600 1.377 . S
C1601 C1607 1.390 1_545 S
C1602 H1593 0.930 . S
C1602 C1600 1.384 1_565 S
C1602 C1603 1.372 . S
C1603 C1602 1.372 . S
C1603 C1604 1.400 . S
C1603 C1608 1.490 . S
C1604 H1594 0.930 . S
C1604 C1603 1.400 . S
C1604 C1607 1.386 . S
H1605 C1621 0.930 . S
H1606 C1622 0.931 . S
C1607 H1595 0.929 . S
C1607 C1601 1.390 1_565 S
C1607 C1604 1.386 . S
C1608 C1603 1.490 . S
C1608 C1610 1.395 . S
C1608 C1611 1.403 . S
H1609 C1615 0.930 . S
C1610 H1596 0.930 . S
C1610 C1608 1.395 . S
C1610 C1613 1.403 . S
C1611 C1608 1.403 . S
C1611 C1612 1.524 . S
C1611 C1615 1.400 . S
C1612 H1597 0.960 . S
C1612 H1598 0.960 . S
C1612 H1599 0.960 . S
C1612 C1611 1.524 . S
C1613 C1610 1.403 . S
C1613 C1614 1.392 . S
C1613 C1617 1.495 . S
C1614 C1613 1.392 . S
C1614 C1615 1.385 . S
C1614 C1616 1.478 . S
C1615 H1609 0.930 . S
C1615 C1611 1.400 . S
C1615 C1614 1.385 . S
C1616 C1614 1.478 . S
C1616 C1618 1.381 . S
C1616 C1622 1.383 . S
C1617 C1613 1.495 . S
C1617 H1623 0.959 . S
C1617 H1624 0.961 . S
C1617 H1625 0.960 . S
C1618 C1616 1.381 . S
C1618 C1619 1.394 . S
C1618 H1626 0.930 . S
C1619 C1618 1.394 . S
C1619 C1620 1.383 . S
C1619 H1627 0.929 . S
C1620 C1619 1.383 . S
C1620 C1621 1.377 . S
C1621 H1605 0.930 . S
C1621 C1620 1.377 . S
C1621 C1622 1.379 . S
C1622 H1606 0.931 . S
C1622 C1616 1.383 . S
C1622 C1621 1.379 . S
H1623 C1617 0.959 . S
H1624 C1617 0.961 . S
H1625 C1617 0.960 . S
H1626 C1618 0.930 . S
H1627 C1619 0.929 . S
H1628 C1636 0.929 . S
H1629 C1638 0.930 . S
H1630 C1640 0.930 . S
H1631 C1643 0.929 . S
H1632 C1646 0.930 . S
H1633 C1648 0.960 . S
H1634 C1648 0.960 . S
H1635 C1648 0.960 . S
C1636 H1628 0.929 . S
C1636 C1637 1.377 . S
C1636 C1638 1.384 . S
C1637 C1636 1.377 . S
C1637 C1643 1.390 . S
C1638 H1629 0.930 . S
C1638 C1636 1.384 . S
C1638 C1639 1.372 . S
C1639 C1638 1.372 . S
C1639 C1640 1.400 . S
C1639 C1644 1.490 . S
C1640 H1630 0.930 . S
C1640 C1639 1.400 . S
C1640 C1643 1.386 . S
H1641 C1657 0.930 . S
H1642 C1658 0.931 . S
C1643 H1631 0.929 . S
C1643 C1637 1.390 . S
C1643 C1640 1.386 . S
C1644 C1639 1.490 . S
C1644 C1646 1.395 . S
C1644 C1647 1.403 . S
H1645 C1651 0.930 . S
C1646 H1632 0.930 . S
C1646 C1644 1.395 . S
C1646 C1649 1.403 . S
C1647 C1644 1.403 . S
C1647 C1648 1.524 . S
C1647 C1651 1.400 . S
C1648 H1633 0.960 . S
C1648 H1634 0.960 . S
C1648 H1635 0.960 . S
C1648 C1647 1.524 . S
C1649 C1646 1.403 . S
C1649 C1650 1.392 . S
C1649 C1653 1.495 . S
C1650 C1649 1.392 . S
C1650 C1651 1.385 . S
C1650 C1652 1.478 . S
C1651 H1645 0.930 . S
C1651 C1647 1.400 . S
C1651 C1650 1.385 . S
C1652 C1650 1.478 . S
C1652 C1654 1.381 . S
C1652 C1658 1.383 . S
C1653 C1649 1.495 . S
C1653 H1659 0.959 . S
C1653 H1660 0.961 . S
C1653 H1661 0.960 . S
C1654 C1652 1.381 . S
C1654 C1655 1.394 . S
C1654 H1662 0.930 . S
C1655 C1654 1.394 . S
C1655 C1656 1.383 . S
C1655 H1663 0.929 . S
C1656 C1655 1.383 . S
C1656 C1657 1.377 . S
C1657 H1641 0.930 . S
C1657 C1656 1.377 . S
C1657 C1658 1.379 . S
C1658 H1642 0.931 . S
C1658 C1652 1.383 . S
C1658 C1657 1.379 . S
H1659 C1653 0.959 . S
H1660 C1653 0.961 . S
H1661 C1653 0.960 . S
H1662 C1654 0.930 . S
H1663 C1655 0.929 . S
H1664 C1672 0.929 . S
H1665 C1674 0.930 . S
H1666 C1676 0.930 . S
H1667 C1679 0.929 . S
H1668 C1682 0.930 . S
H1669 C1684 0.960 . S
H1670 C1684 0.960 . S
H1671 C1684 0.960 . S
C1672 H1664 0.929 . S
C1672 C1673 1.377 . S
C1672 C1674 1.384 . S
C1673 C1672 1.377 . S
C1673 C1679 1.390 . S
C1674 H1665 0.930 . S
C1674 C1672 1.384 . S
C1674 C1675 1.372 . S
C1675 C1674 1.372 . S
C1675 C1676 1.400 . S
C1675 C1680 1.490 . S
C1676 H1666 0.930 . S
C1676 C1675 1.400 . S
C1676 C1679 1.386 . S
H1677 C1693 0.930 . S
H1678 C1694 0.931 . S
C1679 H1667 0.929 . S
C1679 C1673 1.390 . S
C1679 C1676 1.386 . S
C1680 C1675 1.490 . S
C1680 C1682 1.395 . S
C1680 C1683 1.403 . S
H1681 C1687 0.930 . S
C1682 H1668 0.930 . S
C1682 C1680 1.395 . S
C1682 C1685 1.403 . S
C1683 C1680 1.403 . S
C1683 C1684 1.524 . S
C1683 C1687 1.400 . S
C1684 H1669 0.960 . S
C1684 H1670 0.960 . S
C1684 H1671 0.960 . S
C1684 C1683 1.524 . S
C1685 C1682 1.403 . S
C1685 C1686 1.392 . S
C1685 C1689 1.495 . S
C1686 C1685 1.392 . S
C1686 C1687 1.385 . S
C1686 C1688 1.478 . S
C1687 H1681 0.930 . S
C1687 C1683 1.400 . S
C1687 C1686 1.385 . S
C1688 C1686 1.478 . S
C1688 C1690 1.381 . S
C1688 C1694 1.383 . S
C1689 C1685 1.495 . S
C1689 H1695 0.959 . S
C1689 H1696 0.961 . S
C1689 H1697 0.960 . S
C1690 C1688 1.381 . S
C1690 C1691 1.394 . S
C1690 H1698 0.930 . S
C1691 C1690 1.394 . S
C1691 C1692 1.383 . S
C1691 H1699 0.929 . S
C1692 C1691 1.383 . S
C1692 C1693 1.377 . S
C1693 H1677 0.930 . S
C1693 C1692 1.377 . S
C1693 C1694 1.379 . S
C1694 H1678 0.931 . S
C1694 C1688 1.383 . S
C1694 C1693 1.379 . S
H1695 C1689 0.959 . S
H1696 C1689 0.961 . S
H1697 C1689 0.960 . S
H1698 C1690 0.930 . S
H1699 C1691 0.929 . S
H1700 C1708 0.929 . S
H1701 C1710 0.930 . S
H1702 C1712 0.930 . S
H1703 C1715 0.929 . S
H1704 C1718 0.930 . S
H1705 C1720 0.960 . S
H1706 C1720 0.960 . S
H1707 C1720 0.960 . S
C1708 H1700 0.929 . S
C1708 C1709 1.377 . S
C1708 C1710 1.384 . S
C1709 C1708 1.377 . S
C1709 C1715 1.390 . S
C1710 H1701 0.930 . S
C1710 C1708 1.384 . S
C1710 C1711 1.372 . S
C1711 C1710 1.372 . S
C1711 C1712 1.400 . S
C1711 C1716 1.490 . S
C1712 H1702 0.930 . S
C1712 C1711 1.400 . S
C1712 C1715 1.386 . S
H1713 C1729 0.930 . S
H1714 C1730 0.931 . S
C1715 H1703 0.929 . S
C1715 C1709 1.390 . S
C1715 C1712 1.386 . S
C1716 C1711 1.490 . S
C1716 C1718 1.395 . S
C1716 C1719 1.403 . S
H1717 C1723 0.930 . S
C1718 H1704 0.930 . S
C1718 C1716 1.395 . S
C1718 C1721 1.403 . S
C1719 C1716 1.403 . S
C1719 C1720 1.524 . S
C1719 C1723 1.400 . S
C1720 H1705 0.960 . S
C1720 H1706 0.960 . S
C1720 H1707 0.960 . S
C1720 C1719 1.524 . S
C1721 C1718 1.403 . S
C1721 C1722 1.392 . S
C1721 C1725 1.495 . S
C1722 C1721 1.392 . S
C1722 C1723 1.385 . S
C1722 C1724 1.478 . S
C1723 H1717 0.930 . S
C1723 C1719 1.400 . S
C1723 C1722 1.385 . S
C1724 C1722 1.478 . S
C1724 C1726 1.381 . S
C1724 C1730 1.383 . S
C1725 C1721 1.495 . S
C1725 H1731 0.959 . S
C1725 H1732 0.961 . S
C1725 H1733 0.960 . S
C1726 C1724 1.381 . S
C1726 C1727 1.394 . S
C1726 H1734 0.930 . S
C1727 C1726 1.394 . S
C1727 C1728 1.383 . S
C1727 H1735 0.929 . S
C1728 C1727 1.383 . S
C1728 C1729 1.377 . S
C1729 H1713 0.930 . S
C1729 C1728 1.377 . S
C1729 C1730 1.379 . S
C1730 H1714 0.931 . S
C1730 C1724 1.383 . S
C1730 C1729 1.379 . S
H1731 C1725 0.959 . S
H1732 C1725 0.961 . S
H1733 C1725 0.960 . S
H1734 C1726 0.930 . S
H1735 C1727 0.929 . S
H1736 C1744 0.929 . S
H1737 C1746 0.930 . S
H1738 C1748 0.930 . S
H1739 C1751 0.929 . S
H1740 C1754 0.930 . S
H1741 C1756 0.960 . S
H1742 C1756 0.960 . S
H1743 C1756 0.960 . S
C1744 H1736 0.929 . S
C1744 C1745 1.377 . S
C1744 C1746 1.384 . S
C1745 C1744 1.377 . S
C1745 C1751 1.390 . S
C1746 H1737 0.930 . S
C1746 C1744 1.384 . S
C1746 C1747 1.372 . S
C1747 C1746 1.372 . S
C1747 C1748 1.400 . S
C1747 C1752 1.490 . S
C1748 H1738 0.930 . S
C1748 C1747 1.400 . S
C1748 C1751 1.386 . S
H1749 C1765 0.930 . S
H1750 C1766 0.931 . S
C1751 H1739 0.929 . S
C1751 C1745 1.390 . S
C1751 C1748 1.386 . S
C1752 C1747 1.490 . S
C1752 C1754 1.395 . S
C1752 C1755 1.403 . S
H1753 C1759 0.930 . S
C1754 H1740 0.930 . S
C1754 C1752 1.395 . S
C1754 C1757 1.403 . S
C1755 C1752 1.403 . S
C1755 C1756 1.524 . S
C1755 C1759 1.400 . S
C1756 H1741 0.960 . S
C1756 H1742 0.960 . S
C1756 H1743 0.960 . S
C1756 C1755 1.524 . S
C1757 C1754 1.403 . S
C1757 C1758 1.392 . S
C1757 C1761 1.495 . S
C1758 C1757 1.392 . S
C1758 C1759 1.385 . S
C1758 C1760 1.478 . S
C1759 H1753 0.930 . S
C1759 C1755 1.400 . S
C1759 C1758 1.385 . S
C1760 C1758 1.478 . S
C1760 C1762 1.381 . S
C1760 C1766 1.383 . S
C1761 C1757 1.495 . S
C1761 H1767 0.959 . S
C1761 H1768 0.961 . S
C1761 H1769 0.960 . S
C1762 C1760 1.381 . S
C1762 C1763 1.394 . S
C1762 H1770 0.930 . S
C1763 C1762 1.394 . S
C1763 C1764 1.383 . S
C1763 H1771 0.929 . S
C1764 C1763 1.383 . S
C1764 C1765 1.377 . S
C1765 H1749 0.930 . S
C1765 C1764 1.377 . S
C1765 C1766 1.379 . S
C1766 H1750 0.931 . S
C1766 C1760 1.383 . S
C1766 C1765 1.379 . S
H1767 C1761 0.959 . S
H1768 C1761 0.961 . S
H1769 C1761 0.960 . S
H1770 C1762 0.930 . S
H1771 C1763 0.929 . S
H1772 C1780 0.929 . S
H1773 C1782 0.930 . S
H1774 C1784 0.930 . S
H1775 C1787 0.929 . S
H1776 C1790 0.930 . S
H1777 C1792 0.960 . S
H1778 C1792 0.960 . S
H1779 C1792 0.960 . S
C1780 H1772 0.929 . S
C1780 C1781 1.377 . S
C1780 C1782 1.384 . S
C1781 C1780 1.377 . S
C1781 C1787 1.390 . S
C1782 H1773 0.930 . S
C1782 C1780 1.384 . S
C1782 C1783 1.372 . S
C1783 C1782 1.372 . S
C1783 C1784 1.400 . S
C1783 C1788 1.490 . S
C1784 H1774 0.930 . S
C1784 C1783 1.400 . S
C1784 C1787 1.386 . S
H1785 C1801 0.930 . S
H1786 C1802 0.931 . S
C1787 H1775 0.929 . S
C1787 C1781 1.390 . S
C1787 C1784 1.386 . S
C1788 C1783 1.490 . S
C1788 C1790 1.395 . S
C1788 C1791 1.403 . S
H1789 C1795 0.930 . S
C1790 H1776 0.930 . S
C1790 C1788 1.395 . S
C1790 C1793 1.403 . S
C1791 C1788 1.403 . S
C1791 C1792 1.524 . S
C1791 C1795 1.400 . S
C1792 H1777 0.960 . S
C1792 H1778 0.960 . S
C1792 H1779 0.960 . S
C1792 C1791 1.524 . S
C1793 C1790 1.403 . S
C1793 C1794 1.392 . S
C1793 C1797 1.495 . S
C1794 C1793 1.392 . S
C1794 C1795 1.385 . S
C1794 C1796 1.478 . S
C1795 H1789 0.930 . S
C1795 C1791 1.400 . S
C1795 C1794 1.385 . S
C1796 C1794 1.478 . S
C1796 C1798 1.381 . S
C1796 C1802 1.383 . S
C1797 C1793 1.495 . S
C1797 H1803 0.959 . S
C1797 H1804 0.961 . S
C1797 H1805 0.960 . S
C1798 C1796 1.381 . S
C1798 C1799 1.394 . S
C1798 H1806 0.930 . S
C1799 C1798 1.394 . S
C1799 C1800 1.383 . S
C1799 H1807 0.929 . S
C1800 C1799 1.383 . S
C1800 C1801 1.377 . S
C1801 H1785 0.930 . S
C1801 C1800 1.377 . S
C1801 C1802 1.379 . S
C1802 H1786 0.931 . S
C1802 C1796 1.383 . S
C1802 C1801 1.379 . S
H1803 C1797 0.959 . S
H1804 C1797 0.961 . S
H1805 C1797 0.960 . S
H1806 C1798 0.930 . S
H1807 C1799 0.929 . S
H1808 C1816 0.929 . S
H1809 C1818 0.930 . S
H1810 C1820 0.930 . S
H1811 C1823 0.929 . S
H1812 C1826 0.930 . S
H1813 C1828 0.960 . S
H1814 C1828 0.960 . S
H1815 C1828 0.960 . S
C1816 H1808 0.929 . S
C1816 C1817 1.377 . S
C1816 C1818 1.384 . S
C1817 C1816 1.377 . S
C1817 C1823 1.390 . S
C1818 H1809 0.930 . S
C1818 C1816 1.384 . S
C1818 C1819 1.372 . S
C1819 C1818 1.372 . S
C1819 C1820 1.400 . S
C1819 C1824 1.490 . S
C1820 H1810 0.930 . S
C1820 C1819 1.400 . S
C1820 C1823 1.386 . S
H1821 C1837 0.930 . S
H1822 C1838 0.931 . S
C1823 H1811 0.929 . S
C1823 C1817 1.390 . S
C1823 C1820 1.386 . S
C1824 C1819 1.490 . S
C1824 C1826 1.395 . S
C1824 C1827 1.403 . S
H1825 C1831 0.930 . S
C1826 H1812 0.930 . S
C1826 C1824 1.395 . S
C1826 C1829 1.403 . S
C1827 C1824 1.403 . S
C1827 C1828 1.524 . S
C1827 C1831 1.400 . S
C1828 H1813 0.960 . S
C1828 H1814 0.960 . S
C1828 H1815 0.960 . S
C1828 C1827 1.524 . S
C1829 C1826 1.403 . S
C1829 C1830 1.392 . S
C1829 C1833 1.495 . S
C1830 C1829 1.392 . S
C1830 C1831 1.385 . S
C1830 C1832 1.478 . S
C1831 H1825 0.930 . S
C1831 C1827 1.400 . S
C1831 C1830 1.385 . S
C1832 C1830 1.478 . S
C1832 C1834 1.381 . S
C1832 C1838 1.383 . S
C1833 C1829 1.495 . S
C1833 H1839 0.959 . S
C1833 H1840 0.961 . S
C1833 H1841 0.960 . S
C1834 C1832 1.381 . S
C1834 C1835 1.394 . S
C1834 H1842 0.930 . S
C1835 C1834 1.394 . S
C1835 C1836 1.383 . S
C1835 H1843 0.929 . S
C1836 C1835 1.383 . S
C1836 C1837 1.377 . S
C1837 H1821 0.930 . S
C1837 C1836 1.377 . S
C1837 C1838 1.379 . S
C1838 H1822 0.931 . S
C1838 C1832 1.383 . S
C1838 C1837 1.379 . S
H1839 C1833 0.959 . S
H1840 C1833 0.961 . S
H1841 C1833 0.960 . S
H1842 C1834 0.930 . S
H1843 C1835 0.929 . S
H1844 C1852 0.929 . S
H1845 C1854 0.930 . S
H1846 C1856 0.930 . S
H1847 C1859 0.929 . S
H1848 C1862 0.930 . S
H1849 C1864 0.960 . S
H1850 C1864 0.960 . S
H1851 C1864 0.960 . S
C1852 H1844 0.929 . S
C1852 C1853 1.377 . S
C1852 C1854 1.384 . S
C1853 C1852 1.377 . S
C1853 C1859 1.390 . S
C1854 H1845 0.930 . S
C1854 C1852 1.384 . S
C1854 C1855 1.372 . S
C1855 C1854 1.372 . S
C1855 C1856 1.400 . S
C1855 C1860 1.490 . S
C1856 H1846 0.930 . S
C1856 C1855 1.400 . S
C1856 C1859 1.386 . S
H1857 C1873 0.930 . S
H1858 C1874 0.931 . S
C1859 H1847 0.929 . S
C1859 C1853 1.390 . S
C1859 C1856 1.386 . S
C1860 C1855 1.490 . S
C1860 C1862 1.395 . S
C1860 C1863 1.403 . S
H1861 C1867 0.930 . S
C1862 H1848 0.930 . S
C1862 C1860 1.395 . S
C1862 C1865 1.403 . S
C1863 C1860 1.403 . S
C1863 C1864 1.524 . S
C1863 C1867 1.400 . S
C1864 H1849 0.960 . S
C1864 H1850 0.960 . S
C1864 H1851 0.960 . S
C1864 C1863 1.524 . S
C1865 C1862 1.403 . S
C1865 C1866 1.392 . S
C1865 C1869 1.495 . S
C1866 C1865 1.392 . S
C1866 C1867 1.385 . S
C1866 C1868 1.478 . S
C1867 H1861 0.930 . S
C1867 C1863 1.400 . S
C1867 C1866 1.385 . S
C1868 C1866 1.478 . S
C1868 C1870 1.381 . S
C1868 C1874 1.383 . S
C1869 C1865 1.495 . S
C1869 H1875 0.959 . S
C1869 H1876 0.961 . S
C1869 H1877 0.960 . S
C1870 C1868 1.381 . S
C1870 C1871 1.394 . S
C1870 H1878 0.930 . S
C1871 C1870 1.394 . S
C1871 C1872 1.383 . S
C1871 H1879 0.929 . S
C1872 C1871 1.383 . S
C1872 C1873 1.377 . S
C1873 H1857 0.930 . S
C1873 C1872 1.377 . S
C1873 C1874 1.379 . S
C1874 H1858 0.931 . S
C1874 C1868 1.383 . S
C1874 C1873 1.379 . S
H1875 C1869 0.959 . S
H1876 C1869 0.961 . S
H1877 C1869 0.960 . S
H1878 C1870 0.930 . S
H1879 C1871 0.929 . S
H1880 C1888 0.929 . S
H1881 C1890 0.930 . S
H1882 C1892 0.930 . S
H1883 C1895 0.929 . S
H1884 C1898 0.930 . S
H1885 C1900 0.960 . S
H1886 C1900 0.960 . S
H1887 C1900 0.960 . S
C1888 H1880 0.929 . S
C1888 C1889 1.377 . S
C1888 C1890 1.384 . S
C1889 C1888 1.377 . S
C1889 C1895 1.390 . S
C1890 H1881 0.930 . S
C1890 C1888 1.384 . S
C1890 C1891 1.372 . S
C1891 C1890 1.372 . S
C1891 C1892 1.400 . S
C1891 C1896 1.490 . S
C1892 H1882 0.930 . S
C1892 C1891 1.400 . S
C1892 C1895 1.386 . S
H1893 C1909 0.930 . S
H1894 C1910 0.931 . S
C1895 H1883 0.929 . S
C1895 C1889 1.390 . S
C1895 C1892 1.386 . S
C1896 C1891 1.490 . S
C1896 C1898 1.395 . S
C1896 C1899 1.403 . S
H1897 C1903 0.930 . S
C1898 H1884 0.930 . S
C1898 C1896 1.395 . S
C1898 C1901 1.403 . S
C1899 C1896 1.403 . S
C1899 C1900 1.524 . S
C1899 C1903 1.400 . S
C1900 H1885 0.960 . S
C1900 H1886 0.960 . S
C1900 H1887 0.960 . S
C1900 C1899 1.524 . S
C1901 C1898 1.403 . S
C1901 C1902 1.392 . S
C1901 C1905 1.495 . S
C1902 C1901 1.392 . S
C1902 C1903 1.385 . S
C1902 C1904 1.478 . S
C1903 H1897 0.930 . S
C1903 C1899 1.400 . S
C1903 C1902 1.385 . S
C1904 C1902 1.478 . S
C1904 C1906 1.381 . S
C1904 C1910 1.383 . S
C1905 C1901 1.495 . S
C1905 H1911 0.959 . S
C1905 H1912 0.961 . S
C1905 H1913 0.960 . S
C1906 C1904 1.381 . S
C1906 C1907 1.394 . S
C1906 H1914 0.930 . S
C1907 C1906 1.394 . S
C1907 C1908 1.383 . S
C1907 H1915 0.929 . S
C1908 C1907 1.383 . S
C1908 C1909 1.377 . S
C1909 H1893 0.930 . S
C1909 C1908 1.377 . S
C1909 C1910 1.379 . S
C1910 H1894 0.931 . S
C1910 C1904 1.383 . S
C1910 C1909 1.379 . S
H1911 C1905 0.959 . S
H1912 C1905 0.961 . S
H1913 C1905 0.960 . S
H1914 C1906 0.930 . S
H1915 C1907 0.929 . S
H1916 C1924 0.929 . S
H1917 C1926 0.930 . S
H1918 C1928 0.930 . S
H1919 C1931 0.929 . S
H1920 C1934 0.930 . S
H1921 C1936 0.960 . S
H1922 C1936 0.960 . S
H1923 C1936 0.960 . S
C1924 H1916 0.929 . S
C1924 C1925 1.377 . S
C1924 C1926 1.384 . S
C1925 C1924 1.377 . S
C1925 C1931 1.390 . S
C1926 H1917 0.930 . S
C1926 C1924 1.384 . S
C1926 C1927 1.372 . S
C1927 C1926 1.372 . S
C1927 C1928 1.400 . S
C1927 C1932 1.490 . S
C1928 H1918 0.930 . S
C1928 C1927 1.400 . S
C1928 C1931 1.386 . S
H1929 C1945 0.930 . S
H1930 C1946 0.931 . S
C1931 H1919 0.929 . S
C1931 C1925 1.390 . S
C1931 C1928 1.386 . S
C1932 C1927 1.490 . S
C1932 C1934 1.395 . S
C1932 C1935 1.403 . S
H1933 C1939 0.930 . S
C1934 H1920 0.930 . S
C1934 C1932 1.395 . S
C1934 C1937 1.403 . S
C1935 C1932 1.403 . S
C1935 C1936 1.524 . S
C1935 C1939 1.400 . S
C1936 H1921 0.960 . S
C1936 H1922 0.960 . S
C1936 H1923 0.960 . S
C1936 C1935 1.524 . S
C1937 C1934 1.403 . S
C1937 C1938 1.392 . S
C1937 C1941 1.495 . S
C1938 C1937 1.392 . S
C1938 C1939 1.385 . S
C1938 C1940 1.478 . S
C1939 H1933 0.930 . S
C1939 C1935 1.400 . S
C1939 C1938 1.385 . S
C1940 C1938 1.478 . S
C1940 C1942 1.381 . S
C1940 C1946 1.383 . S
C1941 C1937 1.495 . S
C1941 H1947 0.959 . S
C1941 H1948 0.961 . S
C1941 H1949 0.960 . S
C1942 C1940 1.381 . S
C1942 C1943 1.394 . S
C1942 H1950 0.930 . S
C1943 C1942 1.394 . S
C1943 C1944 1.383 . S
C1943 H1951 0.929 . S
C1944 C1943 1.383 . S
C1944 C1945 1.377 . S
C1945 H1929 0.930 . S
C1945 C1944 1.377 . S
C1945 C1946 1.379 . S
C1946 H1930 0.931 . S
C1946 C1940 1.383 . S
C1946 C1945 1.379 . S
H1947 C1941 0.959 . S
H1948 C1941 0.961 . S
H1949 C1941 0.960 . S
H1950 C1942 0.930 . S
H1951 C1943 0.929 . S
H1952 C1960 0.929 . S
H1953 C1962 0.930 . S
H1954 C1964 0.930 . S
H1955 C1967 0.929 . S
H1956 C1970 0.930 . S
H1957 C1972 0.960 . S
H1958 C1972 0.960 . S
H1959 C1972 0.960 . S
C1960 H1952 0.929 . S
C1960 C1961 1.377 . S
C1960 C1962 1.384 . S
C1961 C1960 1.377 . S
C1961 C1967 1.390 . S
C1962 H1953 0.930 . S
C1962 C1960 1.384 . S
C1962 C1963 1.372 . S
C1963 C1962 1.372 . S
C1963 C1964 1.400 . S
C1963 C1968 1.490 . S
C1964 H1954 0.930 . S
C1964 C1963 1.400 . S
C1964 C1967 1.386 . S
H1965 C1981 0.930 . S
H1966 C1982 0.931 . S
C1967 H1955 0.929 . S
C1967 C1961 1.390 . S
C1967 C1964 1.386 . S
C1968 C1963 1.490 . S
C1968 C1970 1.395 . S
C1968 C1971 1.403 . S
H1969 C1975 0.930 . S
C1970 H1956 0.930 . S
C1970 C1968 1.395 . S
C1970 C1973 1.403 . S
C1971 C1968 1.403 . S
C1971 C1972 1.524 . S
C1971 C1975 1.400 . S
C1972 H1957 0.960 . S
C1972 H1958 0.960 . S
C1972 H1959 0.960 . S
C1972 C1971 1.524 . S
C1973 C1970 1.403 . S
C1973 C1974 1.392 . S
C1973 C1977 1.495 . S
C1974 C1973 1.392 . S
C1974 C1975 1.385 . S
C1974 C1976 1.478 . S
C1975 H1969 0.930 . S
C1975 C1971 1.400 . S
C1975 C1974 1.385 . S
C1976 C1974 1.478 . S
C1976 C1978 1.381 . S
C1976 C1982 1.383 . S
C1977 C1973 1.495 . S
C1977 H1983 0.959 . S
C1977 H1984 0.961 . S
C1977 H1985 0.960 . S
C1978 C1976 1.381 . S
C1978 C1979 1.394 . S
C1978 H1986 0.930 . S
C1979 C1978 1.394 . S
C1979 C1980 1.383 . S
C1979 H1987 0.929 . S
C1980 C1979 1.383 . S
C1980 C1981 1.377 . S
C1981 H1965 0.930 . S
C1981 C1980 1.377 . S
C1981 C1982 1.379 . S
C1982 H1966 0.931 . S
C1982 C1976 1.383 . S
C1982 C1981 1.379 . S
H1983 C1977 0.959 . S
H1984 C1977 0.961 . S
H1985 C1977 0.960 . S
H1986 C1978 0.930 . S
H1987 C1979 0.929 . S
H1988 C1996 0.929 . S
H1989 C1998 0.930 . S
H1990 C2000 0.930 . S
H1991 C2003 0.929 . S
H1992 C2006 0.930 . S
H1993 C2008 0.960 . S
H1994 C2008 0.960 . S
H1995 C2008 0.960 . S
C1996 H1988 0.929 . S
C1996 C1997 1.377 . S
C1996 C1998 1.384 . S
C1997 C1996 1.377 . S
C1997 C2003 1.390 . S
C1998 H1989 0.930 . S
C1998 C1996 1.384 . S
C1998 C1999 1.372 . S
C1999 C1998 1.372 . S
C1999 C2000 1.400 . S
C1999 C2004 1.490 . S
C2000 H1990 0.930 . S
C2000 C1999 1.400 . S
C2000 C2003 1.386 . S
H2001 C2017 0.930 . S
H2002 C2018 0.931 . S
C2003 H1991 0.929 . S
C2003 C1997 1.390 . S
C2003 C2000 1.386 . S
C2004 C1999 1.490 . S
C2004 C2006 1.395 . S
C2004 C2007 1.403 . S
H2005 C2011 0.930 . S
C2006 H1992 0.930 . S
C2006 C2004 1.395 . S
C2006 C2009 1.403 . S
C2007 C2004 1.403 . S
C2007 C2008 1.524 . S
C2007 C2011 1.400 . S
C2008 H1993 0.960 . S
C2008 H1994 0.960 . S
C2008 H1995 0.960 . S
C2008 C2007 1.524 . S
C2009 C2006 1.403 . S
C2009 C2010 1.392 . S
C2009 C2013 1.495 . S
C2010 C2009 1.392 . S
C2010 C2011 1.385 . S
C2010 C2012 1.478 . S
C2011 H2005 0.930 . S
C2011 C2007 1.400 . S
C2011 C2010 1.385 . S
C2012 C2010 1.478 . S
C2012 C2014 1.381 . S
C2012 C2018 1.383 . S
C2013 C2009 1.495 . S
C2013 H2019 0.959 . S
C2013 H2020 0.961 . S
C2013 H2021 0.960 . S
C2014 C2012 1.381 . S
C2014 C2015 1.394 . S
C2014 H2022 0.930 . S
C2015 C2014 1.394 . S
C2015 C2016 1.383 . S
C2015 H2023 0.929 . S
C2016 C2015 1.383 . S
C2016 C2017 1.377 . S
C2017 H2001 0.930 . S
C2017 C2016 1.377 . S
C2017 C2018 1.379 . S
C2018 H2002 0.931 . S
C2018 C2012 1.383 . S
C2018 C2017 1.379 . S
H2019 C2013 0.959 . S
H2020 C2013 0.961 . S
H2021 C2013 0.960 . S
H2022 C2014 0.930 . S
H2023 C2015 0.929 . S
H2024 C2032 0.929 . S
H2025 C2034 0.930 . S
H2026 C2036 0.930 . S
H2027 C2039 0.929 . S
H2028 C2042 0.930 . S
H2029 C2044 0.960 . S
H2030 C2044 0.960 . S
H2031 C2044 0.960 . S
C2032 H2024 0.929 . S
C2032 C2033 1.377 . S
C2032 C2034 1.384 . S
C2033 C2032 1.377 . S
C2033 C2039 1.390 . S
C2034 H2025 0.930 . S
C2034 C2032 1.384 . S
C2034 C2035 1.372 . S
C2035 C2034 1.372 . S
C2035 C2036 1.400 . S
C2035 C2040 1.490 . S
C2036 H2026 0.930 . S
C2036 C2035 1.400 . S
C2036 C2039 1.386 . S
H2037 C2053 0.930 . S
H2038 C2054 0.931 . S
C2039 H2027 0.929 . S
C2039 C2033 1.390 . S
C2039 C2036 1.386 . S
C2040 C2035 1.490 . S
C2040 C2042 1.395 . S
C2040 C2043 1.403 . S
H2041 C2047 0.930 . S
C2042 H2028 0.930 . S
C2042 C2040 1.395 . S
C2042 C2045 1.403 . S
C2043 C2040 1.403 . S
C2043 C2044 1.524 . S
C2043 C2047 1.400 . S
C2044 H2029 0.960 . S
C2044 H2030 0.960 . S
C2044 H2031 0.960 . S
C2044 C2043 1.524 . S
C2045 C2042 1.403 . S
C2045 C2046 1.392 . S
C2045 C2049 1.495 . S
C2046 C2045 1.392 . S
C2046 C2047 1.385 . S
C2046 C2048 1.478 . S
C2047 H2041 0.930 . S
C2047 C2043 1.400 . S
C2047 C2046 1.385 . S
C2048 C2046 1.478 . S
C2048 C2050 1.381 . S
C2048 C2054 1.383 . S
C2049 C2045 1.495 . S
C2049 H2055 0.959 . S
C2049 H2056 0.961 . S
C2049 H2057 0.960 . S
C2050 C2048 1.381 . S
C2050 C2051 1.394 . S
C2050 H2058 0.930 . S
C2051 C2050 1.394 . S
C2051 C2052 1.383 . S
C2051 H2059 0.929 . S
C2052 C2051 1.383 . S
C2052 C2053 1.377 . S
C2053 H2037 0.930 . S
C2053 C2052 1.377 . S
C2053 C2054 1.379 . S
C2054 H2038 0.931 . S
C2054 C2048 1.383 . S
C2054 C2053 1.379 . S
H2055 C2049 0.959 . S
H2056 C2049 0.961 . S
H2057 C2049 0.960 . S
H2058 C2050 0.930 . S
H2059 C2051 0.929 . S
H2060 C2068 0.929 . S
H2061 C2070 0.930 . S
H2062 C2072 0.930 . S
H2063 C2075 0.929 . S
H2064 C2078 0.930 . S
H2065 C2080 0.960 . S
H2066 C2080 0.960 . S
H2067 C2080 0.960 . S
C2068 H2060 0.929 . S
C2068 C2069 1.377 . S
C2068 C2070 1.384 . S
C2069 C2068 1.377 . S
C2069 C2075 1.390 . S
C2070 H2061 0.930 . S
C2070 C2068 1.384 . S
C2070 C2071 1.372 . S
C2071 C2070 1.372 . S
C2071 C2072 1.400 . S
C2071 C2076 1.490 . S
C2072 H2062 0.930 . S
C2072 C2071 1.400 . S
C2072 C2075 1.386 . S
H2073 C2089 0.930 . S
H2074 C2090 0.931 . S
C2075 H2063 0.929 . S
C2075 C2069 1.390 . S
C2075 C2072 1.386 . S
C2076 C2071 1.490 . S
C2076 C2078 1.395 . S
C2076 C2079 1.403 . S
H2077 C2083 0.930 . S
C2078 H2064 0.930 . S
C2078 C2076 1.395 . S
C2078 C2081 1.403 . S
C2079 C2076 1.403 . S
C2079 C2080 1.524 . S
C2079 C2083 1.400 . S
C2080 H2065 0.960 . S
C2080 H2066 0.960 . S
C2080 H2067 0.960 . S
C2080 C2079 1.524 . S
C2081 C2078 1.403 . S
C2081 C2082 1.392 . S
C2081 C2085 1.495 . S
C2082 C2081 1.392 . S
C2082 C2083 1.385 . S
C2082 C2084 1.478 . S
C2083 H2077 0.930 . S
C2083 C2079 1.400 . S
C2083 C2082 1.385 . S
C2084 C2082 1.478 . S
C2084 C2086 1.381 . S
C2084 C2090 1.383 . S
C2085 C2081 1.495 . S
C2085 H2091 0.959 . S
C2085 H2092 0.961 . S
C2085 H2093 0.960 . S
C2086 C2084 1.381 . S
C2086 C2087 1.394 . S
C2086 H2094 0.930 . S
C2087 C2086 1.394 . S
C2087 C2088 1.383 . S
C2087 H2095 0.929 . S
C2088 C2087 1.383 . S
C2088 C2089 1.377 . S
C2089 H2073 0.930 . S
C2089 C2088 1.377 . S
C2089 C2090 1.379 . S
C2090 H2074 0.931 . S
C2090 C2084 1.383 . S
C2090 C2089 1.379 . S
H2091 C2085 0.959 . S
H2092 C2085 0.961 . S
H2093 C2085 0.960 . S
H2094 C2086 0.930 . S
H2095 C2087 0.929 . S
H2096 C2104 0.929 . S
H2097 C2106 0.930 . S
H2098 C2108 0.930 . S
H2099 C2111 0.929 . S
H2100 C2114 0.930 . S
H2101 C2116 0.960 . S
H2102 C2116 0.960 . S
H2103 C2116 0.960 . S
C2104 H2096 0.929 . S
C2104 C2105 1.377 . S
C2104 C2106 1.384 . S
C2105 C2104 1.377 . S
C2105 C2111 1.390 . S
C2106 H2097 0.930 . S
C2106 C2104 1.384 . S
C2106 C2107 1.372 . S
C2107 C2106 1.372 . S
C2107 C2108 1.400 . S
C2107 C2112 1.490 . S
C2108 H2098 0.930 . S
C2108 C2107 1.400 . S
C2108 C2111 1.386 . S
H2109 C2125 0.930 . S
H2110 C2126 0.931 . S
C2111 H2099 0.929 . S
C2111 C2105 1.390 . S
C2111 C2108 1.386 . S
C2112 C2107 1.490 . S
C2112 C2114 1.395 . S
C2112 C2115 1.403 . S
H2113 C2119 0.930 . S
C2114 H2100 0.930 . S
C2114 C2112 1.395 . S
C2114 C2117 1.403 . S
C2115 C2112 1.403 . S
C2115 C2116 1.524 . S
C2115 C2119 1.400 . S
C2116 H2101 0.960 . S
C2116 H2102 0.960 . S
C2116 H2103 0.960 . S
C2116 C2115 1.524 . S
C2117 C2114 1.403 . S
C2117 C2118 1.392 . S
C2117 C2121 1.495 . S
C2118 C2117 1.392 . S
C2118 C2119 1.385 . S
C2118 C2120 1.478 . S
C2119 H2113 0.930 . S
C2119 C2115 1.400 . S
C2119 C2118 1.385 . S
C2120 C2118 1.478 . S
C2120 C2122 1.381 . S
C2120 C2126 1.383 . S
C2121 C2117 1.495 . S
C2121 H2127 0.959 . S
C2121 H2128 0.961 . S
C2121 H2129 0.960 . S
C2122 C2120 1.381 . S
C2122 C2123 1.394 . S
C2122 H2130 0.930 . S
C2123 C2122 1.394 . S
C2123 C2124 1.383 . S
C2123 H2131 0.929 . S
C2124 C2123 1.383 . S
C2124 C2125 1.377 . S
C2125 H2109 0.930 . S
C2125 C2124 1.377 . S
C2125 C2126 1.379 . S
C2126 H2110 0.931 . S
C2126 C2120 1.383 . S
C2126 C2125 1.379 . S
H2127 C2121 0.959 . S
H2128 C2121 0.961 . S
H2129 C2121 0.960 . S
H2130 C2122 0.930 . S
H2131 C2123 0.929 . S
H2132 C2140 0.929 . S
H2133 C2142 0.930 . S
H2134 C2144 0.930 . S
H2135 C2147 0.929 . S
H2136 C2150 0.930 . S
H2137 C2152 0.960 . S
H2138 C2152 0.960 . S
H2139 C2152 0.960 . S
C2140 H2132 0.929 . S
C2140 C2141 1.377 . S
C2140 C2142 1.384 . S
C2141 C2140 1.377 . S
C2141 C2147 1.390 . S
C2142 H2133 0.930 . S
C2142 C2140 1.384 . S
C2142 C2143 1.372 . S
C2143 C2142 1.372 . S
C2143 C2144 1.400 . S
C2143 C2148 1.490 . S
C2144 H2134 0.930 . S
C2144 C2143 1.400 . S
C2144 C2147 1.386 . S
H2145 C2161 0.930 . S
H2146 C2162 0.931 . S
C2147 H2135 0.929 . S
C2147 C2141 1.390 . S
C2147 C2144 1.386 . S
C2148 C2143 1.490 . S
C2148 C2150 1.395 . S
C2148 C2151 1.403 . S
H2149 C2155 0.930 . S
C2150 H2136 0.930 . S
C2150 C2148 1.395 . S
C2150 C2153 1.403 . S
C2151 C2148 1.403 . S
C2151 C2152 1.524 . S
C2151 C2155 1.400 . S
C2152 H2137 0.960 . S
C2152 H2138 0.960 . S
C2152 H2139 0.960 . S
C2152 C2151 1.524 . S
C2153 C2150 1.403 . S
C2153 C2154 1.392 . S
C2153 C2157 1.495 . S
C2154 C2153 1.392 . S
C2154 C2155 1.385 . S
C2154 C2156 1.478 . S
C2155 H2149 0.930 . S
C2155 C2151 1.400 . S
C2155 C2154 1.385 . S
C2156 C2154 1.478 . S
C2156 C2158 1.381 . S
C2156 C2162 1.383 . S
C2157 C2153 1.495 . S
C2157 H2163 0.959 . S
C2157 H2164 0.961 . S
C2157 H2165 0.960 . S
C2158 C2156 1.381 . S
C2158 C2159 1.394 . S
C2158 H2166 0.930 . S
C2159 C2158 1.394 . S
C2159 C2160 1.383 . S
C2159 H2167 0.929 . S
C2160 C2159 1.383 . S
C2160 C2161 1.377 . S
C2161 H2145 0.930 . S
C2161 C2160 1.377 . S
C2161 C2162 1.379 . S
C2162 H2146 0.931 . S
C2162 C2156 1.383 . S
C2162 C2161 1.379 . S
H2163 C2157 0.959 . S
H2164 C2157 0.961 . S
H2165 C2157 0.960 . S
H2166 C2158 0.930 . S
H2167 C2159 0.929 . S
H2168 C2176 0.929 . S
H2169 C2178 0.930 . S
H2170 C2180 0.930 . S
H2171 C2183 0.929 . S
H2172 C2186 0.930 . S
H2173 C2188 0.960 . S
H2174 C2188 0.960 . S
H2175 C2188 0.960 . S
C2176 H2168 0.929 . S
C2176 C2177 1.377 . S
C2176 C2178 1.384 . S
C2177 C2176 1.377 . S
C2177 C2183 1.390 . S
C2178 H2169 0.930 . S
C2178 C2176 1.384 . S
C2178 C2179 1.372 . S
C2179 C2178 1.372 . S
C2179 C2180 1.400 . S
C2179 C2184 1.490 . S
C2180 H2170 0.930 . S
C2180 C2179 1.400 . S
C2180 C2183 1.386 . S
H2181 C2197 0.930 . S
H2182 C2198 0.931 . S
C2183 H2171 0.929 . S
C2183 C2177 1.390 . S
C2183 C2180 1.386 . S
C2184 C2179 1.490 . S
C2184 C2186 1.395 . S
C2184 C2187 1.403 . S
H2185 C2191 0.930 . S
C2186 H2172 0.930 . S
C2186 C2184 1.395 . S
C2186 C2189 1.403 . S
C2187 C2184 1.403 . S
C2187 C2188 1.524 . S
C2187 C2191 1.400 . S
C2188 H2173 0.960 . S
C2188 H2174 0.960 . S
C2188 H2175 0.960 . S
C2188 C2187 1.524 . S
C2189 C2186 1.403 . S
C2189 C2190 1.392 . S
C2189 C2193 1.495 . S
C2190 C2189 1.392 . S
C2190 C2191 1.385 . S
C2190 C2192 1.478 . S
C2191 H2185 0.930 . S
C2191 C2187 1.400 . S
C2191 C2190 1.385 . S
C2192 C2190 1.478 . S
C2192 C2194 1.381 . S
C2192 C2198 1.383 . S
C2193 C2189 1.495 . S
C2193 H2199 0.959 . S
C2193 H2200 0.961 . S
C2193 H2201 0.960 . S
C2194 C2192 1.381 . S
C2194 C2195 1.394 . S
C2194 H2202 0.930 . S
C2195 C2194 1.394 . S
C2195 C2196 1.383 . S
C2195 H2203 0.929 . S
C2196 C2195 1.383 . S
C2196 C2197 1.377 . S
C2197 H2181 0.930 . S
C2197 C2196 1.377 . S
C2197 C2198 1.379 . S
C2198 H2182 0.931 . S
C2198 C2192 1.383 . S
C2198 C2197 1.379 . S
H2199 C2193 0.959 . S
H2200 C2193 0.961 . S
H2201 C2193 0.960 . S
H2202 C2194 0.930 . S
H2203 C2195 0.929 . S
H2204 C2212 0.929 . S
H2205 C2214 0.930 . S
H2206 C2216 0.930 . S
H2207 C2219 0.929 . S
H2208 C2222 0.930 . S
H2209 C2224 0.960 . S
H2210 C2224 0.960 . S
H2211 C2224 0.960 . S
C2212 H2204 0.929 . S
C2212 C2213 1.377 . S
C2212 C2214 1.384 . S
C2213 C2212 1.377 . S
C2213 C2219 1.390 . S
C2214 H2205 0.930 . S
C2214 C2212 1.384 . S
C2214 C2215 1.372 . S
C2215 C2214 1.372 . S
C2215 C2216 1.400 . S
C2215 C2220 1.490 . S
C2216 H2206 0.930 . S
C2216 C2215 1.400 . S
C2216 C2219 1.386 . S
H2217 C2233 0.930 . S
H2218 C2234 0.931 . S
C2219 H2207 0.929 . S
C2219 C2213 1.390 . S
C2219 C2216 1.386 . S
C2220 C2215 1.490 . S
C2220 C2222 1.395 . S
C2220 C2223 1.403 . S
H2221 C2227 0.930 . S
C2222 H2208 0.930 . S
C2222 C2220 1.395 . S
C2222 C2225 1.403 . S
C2223 C2220 1.403 . S
C2223 C2224 1.524 . S
C2223 C2227 1.400 . S
C2224 H2209 0.960 . S
C2224 H2210 0.960 . S
C2224 H2211 0.960 . S
C2224 C2223 1.524 . S
C2225 C2222 1.403 . S
C2225 C2226 1.392 . S
C2225 C2229 1.495 . S
C2226 C2225 1.392 . S
C2226 C2227 1.385 . S
C2226 C2228 1.478 . S
C2227 H2221 0.930 . S
C2227 C2223 1.400 . S
C2227 C2226 1.385 . S
C2228 C2226 1.478 . S
C2228 C2230 1.381 . S
C2228 C2234 1.383 . S
C2229 C2225 1.495 . S
C2229 H2235 0.959 . S
C2229 H2236 0.961 . S
C2229 H2237 0.960 . S
C2230 C2228 1.381 . S
C2230 C2231 1.394 . S
C2230 H2238 0.930 . S
C2231 C2230 1.394 . S
C2231 C2232 1.383 . S
C2231 H2239 0.929 . S
C2232 C2231 1.383 . S
C2232 C2233 1.377 . S
C2233 H2217 0.930 . S
C2233 C2232 1.377 . S
C2233 C2234 1.379 . S
C2234 H2218 0.931 . S
C2234 C2228 1.383 . S
C2234 C2233 1.379 . S
H2235 C2229 0.959 . S
H2236 C2229 0.961 . S
H2237 C2229 0.960 . S
H2238 C2230 0.930 . S
H2239 C2231 0.929 . S
H2240 C2248 0.929 . S
H2241 C2250 0.930 . S
H2242 C2252 0.930 . S
H2243 C2255 0.929 . S
H2244 C2258 0.930 . S
H2245 C2260 0.960 . S
H2246 C2260 0.960 . S
H2247 C2260 0.960 . S
C2248 H2240 0.929 . S
C2248 C2249 1.377 . S
C2248 C2250 1.384 . S
C2249 C2248 1.377 . S
C2249 C2255 1.390 . S
C2250 H2241 0.930 . S
C2250 C2248 1.384 . S
C2250 C2251 1.372 . S
C2251 C2250 1.372 . S
C2251 C2252 1.400 . S
C2251 C2256 1.490 . S
C2252 H2242 0.930 . S
C2252 C2251 1.400 . S
C2252 C2255 1.386 . S
H2253 C2269 0.930 . S
H2254 C2270 0.931 . S
C2255 H2243 0.929 . S
C2255 C2249 1.390 . S
C2255 C2252 1.386 . S
C2256 C2251 1.490 . S
C2256 C2258 1.395 . S
C2256 C2259 1.403 . S
H2257 C2263 0.930 . S
C2258 H2244 0.930 . S
C2258 C2256 1.395 . S
C2258 C2261 1.403 . S
C2259 C2256 1.403 . S
C2259 C2260 1.524 . S
C2259 C2263 1.400 . S
C2260 H2245 0.960 . S
C2260 H2246 0.960 . S
C2260 H2247 0.960 . S
C2260 C2259 1.524 . S
C2261 C2258 1.403 . S
C2261 C2262 1.392 . S
C2261 C2265 1.495 . S
C2262 C2261 1.392 . S
C2262 C2263 1.385 . S
C2262 C2264 1.478 . S
C2263 H2257 0.930 . S
C2263 C2259 1.400 . S
C2263 C2262 1.385 . S
C2264 C2262 1.478 . S
C2264 C2266 1.381 . S
C2264 C2270 1.383 . S
C2265 C2261 1.495 . S
C2265 H2271 0.959 . S
C2265 H2272 0.961 . S
C2265 H2273 0.960 . S
C2266 C2264 1.381 . S
C2266 C2267 1.394 . S
C2266 H2274 0.930 . S
C2267 C2266 1.394 . S
C2267 C2268 1.383 . S
C2267 H2275 0.929 . S
C2268 C2267 1.383 . S
C2268 C2269 1.377 . S
C2269 H2253 0.930 . S
C2269 C2268 1.377 . S
C2269 C2270 1.379 . S
C2270 H2254 0.931 . S
C2270 C2264 1.383 . S
C2270 C2269 1.379 . S
H2271 C2265 0.959 . S
H2272 C2265 0.961 . S
H2273 C2265 0.960 . S
H2274 C2266 0.930 . S
H2275 C2267 0.929 . S
H2276 C2284 0.929 . S
H2277 C2286 0.930 . S
H2278 C2288 0.930 . S
H2279 C2291 0.929 . S
H2280 C2294 0.930 . S
H2281 C2296 0.960 . S
H2282 C2296 0.960 . S
H2283 C2296 0.960 . S
C2284 H2276 0.929 . S
C2284 C2285 1.377 . S
C2284 C2286 1.384 . S
C2285 C2284 1.377 . S
C2285 C2291 1.390 1_565 S
C2286 H2277 0.930 . S
C2286 C2284 1.384 . S
C2286 C2287 1.372 . S
C2287 C2286 1.372 . S
C2287 C2288 1.400 1_565 S
C2287 C2292 1.490 . S
C2288 H2278 0.930 . S
C2288 C2287 1.400 1_545 S
C2288 C2291 1.386 . S
H2289 C2305 0.930 . S
H2290 C2306 0.931 . S
C2291 H2279 0.929 . S
C2291 C2285 1.390 1_545 S
C2291 C2288 1.386 . S
C2292 C2287 1.490 . S
C2292 C2294 1.395 . S
C2292 C2295 1.403 1_565 S
H2293 C2299 0.930 . S
C2294 H2280 0.930 . S
C2294 C2292 1.395 . S
C2294 C2297 1.403 . S
C2295 C2292 1.403 1_545 S
C2295 C2296 1.524 . S
C2295 C2299 1.400 . S
C2296 H2281 0.960 . S
C2296 H2282 0.960 . S
C2296 H2283 0.960 . S
C2296 C2295 1.524 . S
C2297 C2294 1.403 . S
C2297 C2298 1.357 1_565 S
C2297 C2301 1.495 . S
C2298 C2297 1.357 1_545 S
C2298 C2299 1.413 . S
C2298 C2300 1.490 . S
C2299 H2293 0.930 . S
C2299 C2295 1.400 . S
C2299 C2298 1.413 . S
C2300 C2298 1.490 . S
C2300 C2302 1.381 1_545 S
C2300 C2306 1.383 . S
C2301 C2297 1.495 . S
C2301 H2307 0.959 . S
C2301 H2308 0.961 . S
C2301 H2309 0.960 . S
C2302 C2300 1.381 1_565 S
C2302 C2303 1.394 . S
C2302 H2310 0.930 . S
C2303 C2302 1.394 . S
C2303 C2304 1.383 1_565 S
C2303 H2311 0.929 . S
C2304 C2303 1.383 1_545 S
C2304 C2305 1.377 . S
C2305 H2289 0.930 . S
C2305 C2304 1.377 . S
C2305 C2306 1.379 . S
C2306 H2290 0.931 . S
C2306 C2300 1.383 . S
C2306 C2305 1.379 . S
H2307 C2301 0.959 . S
H2308 C2301 0.961 . S
H2309 C2301 0.960 . S
H2310 C2302 0.930 . S
H2311 C2303 0.929 . S
H2312 C2320 0.929 . S
H2313 C2322 0.930 . S
H2314 C2324 0.930 . S
H2315 C2327 0.929 . S
H2316 C2330 0.930 . S
H2317 C2332 0.960 . S
H2318 C2332 0.960 . S
H2319 C2332 0.960 . S
C2320 H2312 0.929 . S
C2320 C2321 1.377 . S
C2320 C2322 1.384 . S
C2321 C2320 1.377 . S
C2321 C2327 1.390 . S
C2322 H2313 0.930 . S
C2322 C2320 1.384 . S
C2322 C2323 1.372 . S
C2323 C2322 1.372 . S
C2323 C2324 1.400 . S
C2323 C2328 1.490 . S
C2324 H2314 0.930 . S
C2324 C2323 1.400 . S
C2324 C2327 1.386 . S
H2325 C2341 0.930 . S
H2326 C2342 0.931 . S
C2327 H2315 0.929 . S
C2327 C2321 1.390 . S
C2327 C2324 1.386 . S
C2328 C2323 1.490 . S
C2328 C2330 1.395 . S
C2328 C2331 1.403 . S
H2329 C2335 0.930 . S
C2330 H2316 0.930 . S
C2330 C2328 1.395 . S
C2330 C2333 1.403 . S
C2331 C2328 1.403 . S
C2331 C2332 1.524 . S
C2331 C2335 1.400 . S
C2332 H2317 0.960 . S
C2332 H2318 0.960 . S
C2332 H2319 0.960 . S
C2332 C2331 1.524 . S
C2333 C2330 1.403 . S
C2333 C2334 1.392 . S
C2333 C2337 1.495 . S
C2334 C2333 1.392 . S
C2334 C2335 1.385 . S
C2334 C2336 1.478 . S
C2335 H2329 0.930 . S
C2335 C2331 1.400 . S
C2335 C2334 1.385 . S
C2336 C2334 1.478 . S
C2336 C2338 1.381 . S
C2336 C2342 1.383 . S
C2337 C2333 1.495 . S
C2337 H2343 0.959 . S
C2337 H2344 0.961 . S
C2337 H2345 0.960 . S
C2338 C2336 1.381 . S
C2338 C2339 1.394 . S
C2338 H2346 0.930 . S
C2339 C2338 1.394 . S
C2339 C2340 1.383 . S
C2339 H2347 0.929 . S
C2340 C2339 1.383 . S
C2340 C2341 1.377 . S
C2341 H2325 0.930 . S
C2341 C2340 1.377 . S
C2341 C2342 1.379 . S
C2342 H2326 0.931 . S
C2342 C2336 1.383 . S
C2342 C2341 1.379 . S
H2343 C2337 0.959 . S
H2344 C2337 0.961 . S
H2345 C2337 0.960 . S
H2346 C2338 0.930 . S
H2347 C2339 0.929 . S
H2348 C2356 0.929 . S
H2349 C2358 0.930 . S
H2350 C2360 0.930 . S
H2351 C2363 0.929 . S
H2352 C2366 0.930 . S
H2353 C2368 0.960 . S
H2354 C2368 0.960 . S
H2355 C2368 0.960 . S
C2356 H2348 0.929 . S
C2356 C2357 1.377 . S
C2356 C2358 1.384 . S
C2357 C2356 1.377 . S
C2357 C2363 1.390 . S
C2358 H2349 0.930 . S
C2358 C2356 1.384 . S
C2358 C2359 1.372 . S
C2359 C2358 1.372 . S
C2359 C2360 1.400 . S
C2359 C2364 1.490 . S
C2360 H2350 0.930 . S
C2360 C2359 1.400 . S
C2360 C2363 1.386 . S
H2361 C2377 0.930 . S
H2362 C2378 0.946 . S
C2363 H2351 0.929 . S
C2363 C2357 1.390 . S
C2363 C2360 1.386 . S
C2364 C2359 1.490 . S
C2364 C2366 1.395 . S
C2364 C2367 1.403 1_545 S
H2365 C2371 0.930 . S
C2366 H2352 0.930 . S
C2366 C2364 1.395 . S
C2366 C2369 1.403 1_556 S
C2367 C2364 1.403 1_565 S
C2367 C2368 1.524 . S
C2367 C2371 1.400 1_556 S
C2368 H2353 0.960 . S
C2368 H2354 0.960 . S
C2368 H2355 0.960 . S
C2368 C2367 1.524 . S
C2369 C2366 1.403 1_554 S
C2369 C2370 1.352 1_545 S
C2369 C2373 1.495 . S
C2370 C2369 1.352 1_565 S
C2370 C2371 1.419 . S
C2370 C2372 1.487 . S
C2371 H2365 0.930 . S
C2371 C2367 1.400 1_554 S
C2371 C2370 1.419 . S
C2372 C2370 1.487 . S
C2372 C2374 1.381 . S
C2372 C2378 1.383 . S
C2373 C2369 1.495 . S
C2373 H2379 0.959 . S
C2373 H2380 0.961 . S
C2373 H2381 0.960 . S
C2374 C2372 1.381 . S
C2374 C2375 1.394 . S
C2374 H2382 0.930 . S
C2375 C2374 1.394 . S
C2375 C2376 1.383 . S
C2375 H2383 0.929 . S
C2376 C2375 1.383 . S
C2376 C2377 1.377 . S
C2377 H2361 0.930 . S
C2377 C2376 1.377 . S
C2377 C2378 1.379 . S
C2378 H2362 0.946 . S
C2378 C2372 1.383 . S
C2378 C2377 1.379 . S
H2379 C2373 0.959 . S
H2380 C2373 0.961 . S
H2381 C2373 0.960 . S
H2382 C2374 0.930 . S
H2383 C2375 0.929 . S
H2384 C2392 0.929 . S
H2385 C2394 0.930 . S
H2386 C2396 0.930 . S
H2387 C2399 0.929 . S
H2388 C2402 0.930 . S
H2389 C2404 0.960 . S
H2390 C2404 0.960 . S
H2391 C2404 0.960 . S
C2392 H2384 0.929 . S
C2392 C2393 1.377 . S
C2392 C2394 1.384 . S
C2393 C2392 1.377 . S
C2393 C2399 1.390 . S
C2394 H2385 0.930 . S
C2394 C2392 1.384 . S
C2394 C2395 1.372 . S
C2395 C2394 1.372 . S
C2395 C2396 1.400 . S
C2395 C2400 1.490 . S
C2396 H2386 0.930 . S
C2396 C2395 1.400 . S
C2396 C2399 1.386 . S
H2397 C2413 0.930 . S
H2398 C2414 0.931 . S
C2399 H2387 0.929 . S
C2399 C2393 1.390 . S
C2399 C2396 1.386 . S
C2400 C2395 1.490 . S
C2400 C2402 1.395 . S
C2400 C2403 1.403 . S
H2401 C2407 0.930 . S
C2402 H2388 0.930 . S
C2402 C2400 1.395 . S
C2402 C2405 1.403 . S
C2403 C2400 1.403 . S
C2403 C2404 1.524 . S
C2403 C2407 1.400 . S
C2404 H2389 0.960 . S
C2404 H2390 0.960 . S
C2404 H2391 0.960 . S
C2404 C2403 1.524 . S
C2405 C2402 1.403 . S
C2405 C2406 1.392 . S
C2405 C2409 1.495 . S
C2406 C2405 1.392 . S
C2406 C2407 1.385 . S
C2406 C2408 1.478 . S
C2407 H2401 0.930 . S
C2407 C2403 1.400 . S
C2407 C2406 1.385 . S
C2408 C2406 1.478 . S
C2408 C2410 1.381 . S
C2408 C2414 1.383 . S
C2409 C2405 1.495 . S
C2409 H2415 0.959 . S
C2409 H2416 0.961 . S
C2409 H2417 0.960 . S
C2410 C2408 1.381 . S
C2410 C2411 1.394 . S
C2410 H2418 0.930 . S
C2411 C2410 1.394 . S
C2411 C2412 1.383 . S
C2411 H2419 0.929 . S
C2412 C2411 1.383 . S
C2412 C2413 1.377 . S
C2413 H2397 0.930 . S
C2413 C2412 1.377 . S
C2413 C2414 1.379 . S
C2414 H2398 0.931 . S
C2414 C2408 1.383 . S
C2414 C2413 1.379 . S
H2415 C2409 0.959 . S
H2416 C2409 0.961 . S
H2417 C2409 0.960 . S
H2418 C2410 0.930 . S
H2419 C2411 0.929 . S
H2420 C2428 0.929 1_545 S
H2421 C2430 0.930 . S
H2422 C2432 0.930 . S
H2423 C2435 0.929 . S
H2424 C2438 0.930 . S
H2425 C2440 0.960 . S
H2426 C2440 0.960 . S
H2427 C2440 0.960 1_565 S
C2428 H2420 0.929 1_565 S
C2428 C2429 1.377 . S
C2428 C2430 1.384 1_565 S
C2429 C2428 1.377 . S
C2429 C2435 1.390 . S
C2430 H2421 0.930 . S
C2430 C2428 1.384 1_545 S
C2430 C2431 1.372 1_545 S
C2431 C2430 1.372 1_565 S
C2431 C2432 1.400 . S
C2431 C2436 1.490 . S
C2432 H2422 0.930 . S
C2432 C2431 1.400 . S
C2432 C2435 1.386 . S
H2433 C2449 0.937 . S
H2434 C2450 0.931 . S
C2435 H2423 0.929 . S
C2435 C2429 1.390 . S
C2435 C2432 1.386 . S
C2436 C2431 1.490 . S
C2436 C2438 1.395 . S
C2436 C2439 1.403 1_565 S
H2437 C2443 0.930 . S
C2438 H2424 0.930 . S
C2438 C2436 1.395 . S
C2438 C2441 1.403 . S
C2439 C2436 1.403 1_545 S
C2439 C2440 1.524 . S
C2439 C2443 1.400 . S
C2440 H2425 0.960 . S
C2440 H2426 0.960 . S
C2440 H2427 0.960 1_545 S
C2440 C2439 1.524 . S
C2441 C2438 1.403 . S
C2441 C2442 1.392 1_565 S
C2441 C2445 1.495 . S
C2442 C2441 1.392 1_545 S
C2442 C2443 1.385 . S
C2442 C2444 1.478 . S
C2443 H2437 0.930 . S
C2443 C2439 1.400 . S
C2443 C2442 1.385 . S
C2444 C2442 1.478 . S
C2444 C2446 1.381 . S
C2444 C2450 1.383 1_545 S
C2445 C2441 1.495 . S
C2445 H2451 0.959 . S
C2445 H2452 0.961 . S
C2445 H2453 0.960 1_565 S
C2446 C2444 1.381 . S
C2446 C2447 1.394 . S
C2446 H2454 0.930 . S
C2447 C2446 1.394 . S
C2447 C2448 1.383 . S
C2447 H2455 0.929 . S
C2448 C2447 1.383 . S
C2448 C2449 1.367 1_545 S
C2449 H2433 0.937 . S
C2449 C2448 1.367 1_565 S
C2449 C2450 1.382 . S
C2450 H2434 0.931 . S
C2450 C2444 1.383 1_565 S
C2450 C2449 1.382 . S
H2451 C2445 0.959 . S
H2452 C2445 0.961 . S
H2453 C2445 0.960 1_545 S
H2454 C2446 0.930 . S
H2455 C2447 0.929 . S
H2456 C2464 0.929 . S
H2457 C2466 0.930 . S
H2458 C2468 0.930 . S
H2459 C2471 0.929 . S
H2460 C2474 0.930 . S
H2461 C2476 0.960 . S
H2462 C2476 0.960 . S
H2463 C2476 0.960 . S
C2464 H2456 0.929 . S
C2464 C2465 1.377 . S
C2464 C2466 1.384 . S
C2465 C2464 1.377 . S
C2465 C2471 1.390 . S
C2466 H2457 0.930 . S
C2466 C2464 1.384 . S
C2466 C2467 1.372 . S
C2467 C2466 1.372 . S
C2467 C2468 1.400 . S
C2467 C2472 1.490 . S
C2468 H2458 0.930 . S
C2468 C2467 1.400 . S
C2468 C2471 1.386 . S
H2469 C2485 0.930 . S
H2470 C2486 0.931 . S
C2471 H2459 0.929 . S
C2471 C2465 1.390 . S
C2471 C2468 1.386 . S
C2472 C2467 1.490 . S
C2472 C2474 1.395 . S
C2472 C2475 1.403 . S
H2473 C2479 0.930 . S
C2474 H2460 0.930 . S
C2474 C2472 1.395 . S
C2474 C2477 1.403 . S
C2475 C2472 1.403 . S
C2475 C2476 1.524 . S
C2475 C2479 1.400 . S
C2476 H2461 0.960 . S
C2476 H2462 0.960 . S
C2476 H2463 0.960 . S
C2476 C2475 1.524 . S
C2477 C2474 1.403 . S
C2477 C2478 1.392 . S
C2477 C2481 1.495 . S
C2478 C2477 1.392 . S
C2478 C2479 1.385 . S
C2478 C2480 1.478 . S
C2479 H2473 0.930 . S
C2479 C2475 1.400 . S
C2479 C2478 1.385 . S
C2480 C2478 1.478 . S
C2480 C2482 1.381 . S
C2480 C2486 1.383 . S
C2481 C2477 1.495 . S
C2481 H2487 0.959 . S
C2481 H2488 0.961 . S
C2481 H2489 0.960 . S
C2482 C2480 1.381 . S
C2482 C2483 1.394 . S
C2482 H2490 0.930 . S
C2483 C2482 1.394 . S
C2483 C2484 1.383 . S
C2483 H2491 0.929 . S
C2484 C2483 1.383 . S
C2484 C2485 1.377 . S
C2485 H2469 0.930 . S
C2485 C2484 1.377 . S
C2485 C2486 1.379 . S
C2486 H2470 0.931 . S
C2486 C2480 1.383 . S
C2486 C2485 1.379 . S
H2487 C2481 0.959 . S
H2488 C2481 0.961 . S
H2489 C2481 0.960 . S
H2490 C2482 0.930 . S
H2491 C2483 0.929 . S
H2492 C2500 0.929 . S
H2493 C2502 0.930 . S
H2494 C2504 0.930 1_565 S
H2495 C2507 0.929 . S
H2496 C2510 0.930 . S
H2497 C2512 0.960 . S
H2498 C2512 0.960 . S
H2499 C2512 0.960 . S
C2500 H2492 0.929 . S
C2500 C2501 1.377 . S
C2500 C2502 1.384 . S
C2501 C2500 1.377 . S
C2501 C2507 1.390 . S
C2502 H2493 0.930 . S
C2502 C2500 1.384 . S
C2502 C2503 1.372 . S
C2503 C2502 1.372 . S
C2503 C2504 1.400 . S
C2503 C2508 1.490 . S
C2504 H2494 0.930 1_545 S
C2504 C2503 1.400 . S
C2504 C2507 1.386 . S
H2505 C2521 0.930 . S
H2506 C2522 0.931 . S
C2507 H2495 0.929 . S
C2507 C2501 1.390 . S
C2507 C2504 1.386 . S
C2508 C2503 1.490 . S
C2508 C2510 1.395 1_545 S
C2508 C2511 1.403 . S
H2509 C2515 0.930 . S
C2510 H2496 0.930 . S
C2510 C2508 1.395 1_565 S
C2510 C2513 1.403 1_556 S
C2511 C2508 1.403 . S
C2511 C2512 1.524 . S
C2511 C2515 1.400 1_556 S
C2512 H2497 0.960 . S
C2512 H2498 0.960 . S
C2512 H2499 0.960 . S
C2512 C2511 1.524 . S
C2513 C2510 1.403 1_554 S
C2513 C2514 1.392 . S
C2513 C2517 1.495 . S
C2514 C2513 1.392 . S
C2514 C2515 1.385 1_565 S
C2514 C2516 1.478 . S
C2515 H2509 0.930 . S
C2515 C2511 1.400 1_554 S
C2515 C2514 1.385 1_545 S
C2516 C2514 1.478 . S
C2516 C2518 1.381 . S
C2516 C2522 1.383 . S
C2517 C2513 1.495 . S
C2517 H2523 0.959 . S
C2517 H2524 0.961 . S
C2517 H2525 0.960 . S
C2518 C2516 1.381 . S
C2518 C2519 1.394 . S
C2518 H2526 0.930 1_565 S
C2519 C2518 1.394 . S
C2519 C2520 1.383 . S
C2519 H2527 0.930 1_565 S
C2520 C2519 1.383 . S
C2520 C2521 1.377 . S
C2521 H2505 0.930 . S
C2521 C2520 1.377 . S
C2521 C2522 1.379 . S
C2522 H2506 0.931 . S
C2522 C2516 1.383 . S
C2522 C2521 1.379 . S
H2523 C2517 0.959 . S
H2524 C2517 0.961 . S
H2525 C2517 0.960 . S
H2526 C2518 0.930 1_545 S
H2527 C2519 0.930 1_545 S
H2528 C2536 0.929 . S
H2529 C2538 0.930 . S
H2530 C2540 0.930 . S
H2531 C2543 0.929 . S
H2532 C2546 0.930 . S
H2533 C2548 0.960 . S
H2534 C2548 0.960 . S
H2535 C2548 0.960 . S
C2536 H2528 0.929 . S
C2536 C2537 1.377 . S
C2536 C2538 1.384 . S
C2537 C2536 1.377 . S
C2537 C2543 1.390 . S
C2538 H2529 0.930 . S
C2538 C2536 1.384 . S
C2538 C2539 1.372 . S
C2539 C2538 1.372 . S
C2539 C2540 1.400 . S
C2539 C2544 1.490 . S
C2540 H2530 0.930 . S
C2540 C2539 1.400 . S
C2540 C2543 1.386 . S
H2541 C2557 0.930 . S
H2542 C2558 0.931 . S
C2543 H2531 0.929 . S
C2543 C2537 1.390 . S
C2543 C2540 1.386 . S
C2544 C2539 1.490 . S
C2544 C2546 1.395 . S
C2544 C2547 1.403 . S
H2545 C2551 0.930 . S
C2546 H2532 0.930 . S
C2546 C2544 1.395 . S
C2546 C2549 1.403 . S
C2547 C2544 1.403 . S
C2547 C2548 1.524 . S
C2547 C2551 1.400 . S
C2548 H2533 0.960 . S
C2548 H2534 0.960 . S
C2548 H2535 0.960 . S
C2548 C2547 1.524 . S
C2549 C2546 1.403 . S
C2549 C2550 1.392 . S
C2549 C2553 1.495 . S
C2550 C2549 1.392 . S
C2550 C2551 1.385 . S
C2550 C2552 1.478 . S
C2551 H2545 0.930 . S
C2551 C2547 1.400 . S
C2551 C2550 1.385 . S
C2552 C2550 1.478 . S
C2552 C2554 1.381 . S
C2552 C2558 1.383 . S
C2553 C2549 1.495 . S
C2553 H2559 0.959 . S
C2553 H2560 0.961 . S
C2553 H2561 0.960 . S
C2554 C2552 1.381 . S
C2554 C2555 1.394 . S
C2554 H2562 0.930 . S
C2555 C2554 1.394 . S
C2555 C2556 1.383 . S
C2555 H2563 0.929 . S
C2556 C2555 1.383 . S
C2556 C2557 1.377 . S
C2557 H2541 0.930 . S
C2557 C2556 1.377 . S
C2557 C2558 1.379 . S
C2558 H2542 0.931 . S
C2558 C2552 1.383 . S
C2558 C2557 1.379 . S
H2559 C2553 0.959 . S
H2560 C2553 0.961 . S
H2561 C2553 0.960 . S
H2562 C2554 0.930 . S
H2563 C2555 0.929 . S
H2564 C2572 0.929 . S
H2565 C2574 0.930 . S
H2566 C2576 0.930 . S
H2567 C2579 0.929 . S
H2568 C2582 0.930 . S
H2569 C2584 0.960 . S
H2570 C2584 0.960 . S
H2571 C2584 0.960 . S
C2572 H2564 0.929 . S
C2572 C2573 1.377 . S
C2572 C2574 1.384 . S
C2573 C2572 1.377 . S
C2573 C2579 1.390 . S
C2574 H2565 0.930 . S
C2574 C2572 1.384 . S
C2574 C2575 1.372 . S
C2575 C2574 1.372 . S
C2575 C2576 1.400 . S
C2575 C2580 1.490 . S
C2576 H2566 0.930 . S
C2576 C2575 1.400 . S
C2576 C2579 1.386 . S
H2577 C2593 0.930 . S
H2578 C2594 0.931 . S
C2579 H2567 0.929 . S
C2579 C2573 1.390 . S
C2579 C2576 1.386 . S
C2580 C2575 1.490 . S
C2580 C2582 1.395 . S
C2580 C2583 1.403 . S
H2581 C2587 0.930 . S
C2582 H2568 0.930 . S
C2582 C2580 1.395 . S
C2582 C2585 1.403 1_556 S
C2583 C2580 1.403 . S
C2583 C2584 1.524 . S
C2583 C2587 1.400 1_556 S
C2584 H2569 0.960 . S
C2584 H2570 0.960 . S
C2584 H2571 0.960 . S
C2584 C2583 1.524 . S
C2585 C2582 1.403 1_554 S
C2585 C2586 1.392 . S
C2585 C2589 1.495 . S
C2586 C2585 1.392 . S
C2586 C2587 1.385 . S
C2586 C2588 1.478 . S
C2587 H2581 0.930 . S
C2587 C2583 1.400 1_554 S
C2587 C2586 1.385 . S
C2588 C2586 1.478 . S
C2588 C2590 1.381 . S
C2588 C2594 1.383 . S
C2589 C2585 1.495 . S
C2589 H2595 0.959 . S
C2589 H2596 0.961 . S
C2589 H2597 0.960 . S
C2590 C2588 1.381 . S
C2590 C2591 1.394 . S
C2590 H2598 0.930 . S
C2591 C2590 1.394 . S
C2591 C2592 1.383 . S
C2591 H2599 0.929 . S
C2592 C2591 1.383 . S
C2592 C2593 1.377 . S
C2593 H2577 0.930 . S
C2593 C2592 1.377 . S
C2593 C2594 1.379 . S
C2594 H2578 0.931 . S
C2594 C2588 1.383 . S
C2594 C2593 1.379 . S
H2595 C2589 0.959 . S
H2596 C2589 0.961 . S
H2597 C2589 0.960 . S
H2598 C2590 0.930 . S
H2599 C2591 0.929 . S
H2600 C2608 0.929 . S
H2601 C2610 0.930 . S
H2602 C2612 0.930 . S
H2603 C2615 0.929 . S
H2604 C2618 0.930 . S
H2605 C2620 0.960 . S
H2606 C2620 0.960 . S
H2607 C2620 0.960 . S
C2608 H2600 0.929 . S
C2608 C2609 1.377 . S
C2608 C2610 1.384 . S
C2609 C2608 1.377 . S
C2609 C2615 1.390 . S
C2610 H2601 0.930 . S
C2610 C2608 1.384 . S
C2610 C2611 1.372 . S
C2611 C2610 1.372 . S
C2611 C2612 1.400 . S
C2611 C2616 1.490 . S
C2612 H2602 0.930 . S
C2612 C2611 1.400 . S
C2612 C2615 1.386 . S
H2613 C2629 0.930 . S
H2614 C2630 0.931 . S
C2615 H2603 0.929 . S
C2615 C2609 1.390 . S
C2615 C2612 1.386 . S
C2616 C2611 1.490 . S
C2616 C2618 1.395 . S
C2616 C2619 1.403 . S
H2617 C2623 0.930 . S
C2618 H2604 0.930 . S
C2618 C2616 1.395 . S
C2618 C2621 1.403 . S
C2619 C2616 1.403 . S
C2619 C2620 1.524 . S
C2619 C2623 1.400 . S
C2620 H2605 0.960 . S
C2620 H2606 0.960 . S
C2620 H2607 0.960 . S
C2620 C2619 1.524 . S
C2621 C2618 1.403 . S
C2621 C2622 1.392 . S
C2621 C2625 1.495 . S
C2622 C2621 1.392 . S
C2622 C2623 1.385 . S
C2622 C2624 1.478 . S
C2623 H2617 0.930 . S
C2623 C2619 1.400 . S
C2623 C2622 1.385 . S
C2624 C2622 1.478 . S
C2624 C2626 1.381 . S
C2624 C2630 1.383 . S
C2625 C2621 1.495 . S
C2625 H2631 0.959 . S
C2625 H2632 0.961 . S
C2625 H2633 0.960 . S
C2626 C2624 1.381 . S
C2626 C2627 1.394 . S
C2626 H2634 0.930 . S
C2627 C2626 1.394 . S
C2627 C2628 1.383 . S
C2627 H2635 0.929 . S
C2628 C2627 1.383 . S
C2628 C2629 1.377 . S
C2629 H2613 0.930 . S
C2629 C2628 1.377 . S
C2629 C2630 1.379 . S
C2630 H2614 0.931 . S
C2630 C2624 1.383 . S
C2630 C2629 1.379 . S
H2631 C2625 0.959 . S
H2632 C2625 0.961 . S
H2633 C2625 0.960 . S
H2634 C2626 0.930 . S
H2635 C2627 0.929 . S
H2636 C2644 0.929 . S
H2637 C2646 0.930 . S
H2638 C2648 0.930 . S
H2639 C2651 0.929 . S
H2640 C2654 0.930 . S
H2641 C2656 0.960 . S
H2642 C2656 0.960 . S
H2643 C2656 0.960 . S
C2644 H2636 0.929 . S
C2644 C2645 1.377 . S
C2644 C2646 1.384 . S
C2645 C2644 1.377 . S
C2645 C2651 1.390 . S
C2646 H2637 0.930 . S
C2646 C2644 1.384 . S
C2646 C2647 1.372 . S
C2647 C2646 1.372 . S
C2647 C2648 1.400 . S
C2647 C2652 1.490 . S
C2648 H2638 0.930 . S
C2648 C2647 1.400 . S
C2648 C2651 1.386 . S
H2649 C2665 0.930 . S
H2650 C2666 0.931 . S
C2651 H2639 0.929 . S
C2651 C2645 1.390 . S
C2651 C2648 1.386 . S
C2652 C2647 1.490 . S
C2652 C2654 1.395 . S
C2652 C2655 1.403 . S
H2653 C2659 0.930 . S
C2654 H2640 0.930 . S
C2654 C2652 1.395 . S
C2654 C2657 1.403 . S
C2655 C2652 1.403 . S
C2655 C2656 1.524 . S
C2655 C2659 1.400 . S
C2656 H2641 0.960 . S
C2656 H2642 0.960 . S
C2656 H2643 0.960 . S
C2656 C2655 1.524 . S
C2657 C2654 1.403 . S
C2657 C2658 1.392 . S
C2657 C2661 1.495 . S
C2658 C2657 1.392 . S
C2658 C2659 1.385 . S
C2658 C2660 1.478 . S
C2659 H2653 0.930 . S
C2659 C2655 1.400 . S
C2659 C2658 1.385 . S
C2660 C2658 1.478 . S
C2660 C2662 1.381 . S
C2660 C2666 1.383 . S
C2661 C2657 1.495 . S
C2661 H2667 0.959 . S
C2661 H2668 0.961 . S
C2661 H2669 0.960 . S
C2662 C2660 1.381 . S
C2662 C2663 1.394 . S
C2662 H2670 0.930 . S
C2663 C2662 1.394 . S
C2663 C2664 1.383 . S
C2663 H2671 0.929 . S
C2664 C2663 1.383 . S
C2664 C2665 1.377 . S
C2665 H2649 0.930 . S
C2665 C2664 1.377 . S
C2665 C2666 1.379 . S
C2666 H2650 0.931 . S
C2666 C2660 1.383 . S
C2666 C2665 1.379 . S
H2667 C2661 0.959 . S
H2668 C2661 0.961 . S
H2669 C2661 0.960 . S
H2670 C2662 0.930 . S
H2671 C2663 0.929 . S
H2672 C2680 0.929 . S
H2673 C2682 0.930 . S
H2674 C2684 0.930 . S
H2675 C2687 0.929 . S
H2676 C2690 0.930 . S
H2677 C2692 0.960 . S
H2678 C2692 0.960 . S
H2679 C2692 0.960 . S
C2680 H2672 0.929 . S
C2680 C2681 1.377 . S
C2680 C2682 1.384 . S
C2681 C2680 1.377 . S
C2681 C2687 1.390 . S
C2682 H2673 0.930 . S
C2682 C2680 1.384 . S
C2682 C2683 1.372 . S
C2683 C2682 1.372 . S
C2683 C2684 1.400 . S
C2683 C2688 1.490 . S
C2684 H2674 0.930 . S
C2684 C2683 1.400 . S
C2684 C2687 1.386 . S
H2685 C2701 0.930 . S
H2686 C2702 0.931 . S
C2687 H2675 0.929 . S
C2687 C2681 1.390 . S
C2687 C2684 1.386 . S
C2688 C2683 1.490 . S
C2688 C2690 1.395 . S
C2688 C2691 1.403 . S
H2689 C2695 0.930 . S
C2690 H2676 0.930 . S
C2690 C2688 1.395 . S
C2690 C2693 1.403 . S
C2691 C2688 1.403 . S
C2691 C2692 1.524 . S
C2691 C2695 1.400 . S
C2692 H2677 0.960 . S
C2692 H2678 0.960 . S
C2692 H2679 0.960 . S
C2692 C2691 1.524 . S
C2693 C2690 1.403 . S
C2693 C2694 1.392 . S
C2693 C2697 1.495 . S
C2694 C2693 1.392 . S
C2694 C2695 1.385 . S
C2694 C2696 1.478 . S
C2695 H2689 0.930 . S
C2695 C2691 1.400 . S
C2695 C2694 1.385 . S
C2696 C2694 1.478 . S
C2696 C2698 1.381 . S
C2696 C2702 1.383 . S
C2697 C2693 1.495 . S
C2697 H2703 0.959 . S
C2697 H2704 0.961 . S
C2697 H2705 0.960 . S
C2698 C2696 1.381 . S
C2698 C2699 1.394 . S
C2698 H2706 0.930 . S
C2699 C2698 1.394 . S
C2699 C2700 1.383 . S
C2699 H2707 0.929 . S
C2700 C2699 1.383 . S
C2700 C2701 1.377 . S
C2701 H2685 0.930 . S
C2701 C2700 1.377 . S
C2701 C2702 1.379 . S
C2702 H2686 0.931 . S
C2702 C2696 1.383 . S
C2702 C2701 1.379 . S
H2703 C2697 0.959 . S
H2704 C2697 0.961 . S
H2705 C2697 0.960 . S
H2706 C2698 0.930 . S
H2707 C2699 0.929 . S
H2708 C2716 0.929 . S
H2709 C2718 0.930 . S
H2710 C2720 0.930 . S
H2711 C2723 0.929 . S
H2712 C2726 0.930 . S
H2713 C2728 0.960 . S
H2714 C2728 0.960 . S
H2715 C2728 0.960 . S
C2716 H2708 0.929 . S
C2716 C2717 1.377 . S
C2716 C2718 1.384 . S
C2717 C2716 1.377 . S
C2717 C2723 1.390 . S
C2718 H2709 0.930 . S
C2718 C2716 1.384 . S
C2718 C2719 1.372 . S
C2719 C2718 1.372 . S
C2719 C2720 1.400 . S
C2719 C2724 1.490 . S
C2720 H2710 0.930 . S
C2720 C2719 1.400 . S
C2720 C2723 1.386 . S
H2721 C2737 0.930 . S
H2722 C2738 0.931 . S
C2723 H2711 0.929 . S
C2723 C2717 1.390 . S
C2723 C2720 1.386 . S
C2724 C2719 1.490 . S
C2724 C2726 1.395 . S
C2724 C2727 1.403 . S
H2725 C2731 0.930 . S
C2726 H2712 0.930 . S
C2726 C2724 1.395 . S
C2726 C2729 1.403 1_556 S
C2727 C2724 1.403 . S
C2727 C2728 1.524 . S
C2727 C2731 1.400 1_556 S
C2728 H2713 0.960 . S
C2728 H2714 0.960 . S
C2728 H2715 0.960 . S
C2728 C2727 1.524 . S
C2729 C2726 1.403 1_554 S
C2729 C2730 1.392 . S
C2729 C2733 1.495 . S
C2730 C2729 1.392 . S
C2730 C2731 1.385 . S
C2730 C2732 1.478 . S
C2731 H2725 0.930 . S
C2731 C2727 1.400 1_554 S
C2731 C2730 1.385 . S
C2732 C2730 1.478 . S
C2732 C2734 1.381 . S
C2732 C2738 1.383 . S
C2733 C2729 1.495 . S
C2733 H2739 0.959 . S
C2733 H2740 0.961 . S
C2733 H2741 0.960 . S
C2734 C2732 1.381 . S
C2734 C2735 1.394 . S
C2734 H2742 0.930 . S
C2735 C2734 1.394 . S
C2735 C2736 1.383 . S
C2735 H2743 0.929 . S
C2736 C2735 1.383 . S
C2736 C2737 1.377 . S
C2737 H2721 0.930 . S
C2737 C2736 1.377 . S
C2737 C2738 1.379 . S
C2738 H2722 0.931 . S
C2738 C2732 1.383 . S
C2738 C2737 1.379 . S
H2739 C2733 0.959 . S
H2740 C2733 0.961 . S
H2741 C2733 0.960 . S
H2742 C2734 0.930 . S
H2743 C2735 0.929 . S
H2744 C2752 0.929 . S
H2745 C2754 0.930 . S
H2746 C2756 0.930 . S
H2747 C2759 0.929 . S
H2748 C2762 0.930 . S
H2749 C2764 0.960 . S
H2750 C2764 0.960 . S
H2751 C2764 0.960 . S
C2752 H2744 0.929 . S
C2752 C2753 1.377 . S
C2752 C2754 1.384 . S
C2753 C2752 1.377 . S
C2753 C2759 1.390 . S
C2754 H2745 0.930 . S
C2754 C2752 1.384 . S
C2754 C2755 1.372 . S
C2755 C2754 1.372 . S
C2755 C2756 1.400 . S
C2755 C2760 1.490 . S
C2756 H2746 0.930 . S
C2756 C2755 1.400 . S
C2756 C2759 1.386 . S
H2757 C2773 0.930 . S
H2758 C2774 0.931 . S
C2759 H2747 0.929 . S
C2759 C2753 1.390 . S
C2759 C2756 1.386 . S
C2760 C2755 1.490 . S
C2760 C2762 1.395 . S
C2760 C2763 1.403 . S
H2761 C2767 0.930 . S
C2762 H2748 0.930 . S
C2762 C2760 1.395 . S
C2762 C2765 1.403 . S
C2763 C2760 1.403 . S
C2763 C2764 1.524 . S
C2763 C2767 1.400 . S
C2764 H2749 0.960 . S
C2764 H2750 0.960 . S
C2764 H2751 0.960 . S
C2764 C2763 1.524 . S
C2765 C2762 1.403 . S
C2765 C2766 1.392 . S
C2765 C2769 1.495 . S
C2766 C2765 1.392 . S
C2766 C2767 1.385 . S
C2766 C2768 1.478 . S
C2767 H2761 0.930 . S
C2767 C2763 1.400 . S
C2767 C2766 1.385 . S
C2768 C2766 1.478 . S
C2768 C2770 1.381 . S
C2768 C2774 1.383 . S
C2769 C2765 1.495 . S
C2769 H2775 0.959 . S
C2769 H2776 0.961 . S
C2769 H2777 0.960 . S
C2770 C2768 1.381 . S
C2770 C2771 1.394 . S
C2770 H2778 0.930 . S
C2771 C2770 1.394 . S
C2771 C2772 1.383 . S
C2771 H2779 0.929 . S
C2772 C2771 1.383 . S
C2772 C2773 1.377 . S
C2773 H2757 0.930 . S
C2773 C2772 1.377 . S
C2773 C2774 1.379 . S
C2774 H2758 0.931 . S
C2774 C2768 1.383 . S
C2774 C2773 1.379 . S
H2775 C2769 0.959 . S
H2776 C2769 0.961 . S
H2777 C2769 0.960 . S
H2778 C2770 0.930 . S
H2779 C2771 0.929 . S
H2780 C2788 0.929 . S
H2781 C2790 0.930 . S
H2782 C2792 0.930 . S
H2783 C2795 0.929 . S
H2784 C2798 0.930 . S
H2785 C2800 0.960 . S
H2786 C2800 0.960 . S
H2787 C2800 0.960 . S
C2788 H2780 0.929 . S
C2788 C2789 1.377 . S
C2788 C2790 1.384 . S
C2789 C2788 1.377 . S
C2789 C2795 1.390 . S
C2790 H2781 0.930 . S
C2790 C2788 1.384 . S
C2790 C2791 1.372 . S
C2791 C2790 1.372 . S
C2791 C2792 1.400 . S
C2791 C2796 1.490 . S
C2792 H2782 0.930 . S
C2792 C2791 1.400 . S
C2792 C2795 1.386 . S
H2793 C2809 0.930 . S
H2794 C2810 0.931 . S
C2795 H2783 0.929 . S
C2795 C2789 1.390 . S
C2795 C2792 1.386 . S
C2796 C2791 1.490 . S
C2796 C2798 1.395 . S
C2796 C2799 1.403 . S
H2797 C2803 0.930 . S
C2798 H2784 0.930 . S
C2798 C2796 1.395 . S
C2798 C2801 1.403 . S
C2799 C2796 1.403 . S
C2799 C2800 1.524 . S
C2799 C2803 1.400 . S
C2800 H2785 0.960 . S
C2800 H2786 0.960 . S
C2800 H2787 0.960 . S
C2800 C2799 1.524 . S
C2801 C2798 1.403 . S
C2801 C2802 1.392 . S
C2801 C2805 1.495 . S
C2802 C2801 1.392 . S
C2802 C2803 1.385 . S
C2802 C2804 1.478 . S
C2803 H2797 0.930 . S
C2803 C2799 1.400 . S
C2803 C2802 1.385 . S
C2804 C2802 1.478 . S
C2804 C2806 1.381 . S
C2804 C2810 1.383 . S
C2805 C2801 1.495 . S
C2805 H2811 0.959 . S
C2805 H2812 0.961 . S
C2805 H2813 0.960 . S
C2806 C2804 1.381 . S
C2806 C2807 1.394 . S
C2806 H2814 0.930 . S
C2807 C2806 1.394 . S
C2807 C2808 1.383 . S
C2807 H2815 0.929 . S
C2808 C2807 1.383 . S
C2808 C2809 1.377 . S
C2809 H2793 0.930 . S
C2809 C2808 1.377 . S
C2809 C2810 1.379 . S
C2810 H2794 0.931 . S
C2810 C2804 1.383 . S
C2810 C2809 1.379 . S
H2811 C2805 0.959 . S
H2812 C2805 0.961 . S
H2813 C2805 0.960 . S
H2814 C2806 0.930 . S
H2815 C2807 0.929 . S
H2816 C2824 0.929 . S
H2817 C2826 0.930 . S
H2818 C2828 0.930 . S
H2819 C2831 0.929 1_565 S
H2820 C2834 0.930 . S
H2821 C2836 0.960 . S
H2822 C2836 0.960 . S
H2823 C2836 0.960 . S
C2824 H2816 0.929 . S
C2824 C2825 1.377 . S
C2824 C2826 1.384 . S
C2825 C2824 1.377 . S
C2825 C2831 1.390 . S
C2826 H2817 0.930 . S
C2826 C2824 1.384 . S
C2826 C2827 1.372 . S
C2827 C2826 1.372 . S
C2827 C2828 1.400 . S
C2827 C2832 1.490 . S
C2828 H2818 0.930 . S
C2828 C2827 1.400 . S
C2828 C2831 1.386 . S
H2829 C2845 0.930 . S
H2830 C2846 0.931 . S
C2831 H2819 0.929 1_545 S
C2831 C2825 1.390 . S
C2831 C2828 1.386 . S
C2832 C2827 1.490 . S
C2832 C2834 1.395 . S
C2832 C2835 1.403 . S
H2833 C2839 0.930 . S
C2834 H2820 0.930 . S
C2834 C2832 1.395 . S
C2834 C2837 1.403 . S
C2835 C2832 1.403 . S
C2835 C2836 1.524 . S
C2835 C2839 1.400 . S
C2836 H2821 0.960 . S
C2836 H2822 0.960 . S
C2836 H2823 0.960 . S
C2836 C2835 1.524 . S
C2837 C2834 1.403 . S
C2837 C2838 1.392 . S
C2837 C2841 1.495 . S
C2838 C2837 1.392 . S
C2838 C2839 1.385 . S
C2838 C2840 1.478 . S
C2839 H2833 0.930 . S
C2839 C2835 1.400 . S
C2839 C2838 1.385 . S
C2840 C2838 1.478 . S
C2840 C2842 1.381 . S
C2840 C2846 1.383 . S
C2841 C2837 1.495 . S
C2841 H2847 0.959 . S
C2841 H2848 0.961 . S
C2841 H2849 0.960 . S
C2842 C2840 1.381 . S
C2842 C2843 1.394 . S
C2842 H2850 0.930 . S
C2843 C2842 1.394 . S
C2843 C2844 1.383 . S
C2843 H2851 0.929 . S
C2844 C2843 1.383 . S
C2844 C2845 1.377 . S
C2845 H2829 0.930 . S
C2845 C2844 1.377 . S
C2845 C2846 1.379 . S
C2846 H2830 0.931 . S
C2846 C2840 1.383 . S
C2846 C2845 1.379 . S
H2847 C2841 0.959 . S
H2848 C2841 0.961 . S
H2849 C2841 0.960 . S
H2850 C2842 0.930 . S
H2851 C2843 0.929 . S
H2852 C2860 0.939 . S
H2853 C2862 0.930 . S
H2854 C2864 0.930 . S
H2855 C2867 0.929 . S
H2856 C2870 0.930 . S
H2857 C2872 0.960 . S
H2858 C2872 0.960 . S
H2859 C2872 0.960 . S
C2860 H2852 0.939 . S
C2860 C2861 1.375 1_565 S
C2860 C2862 1.376 1_565 S
C2861 C2860 1.375 1_545 S
C2861 C2867 1.390 . S
C2862 H2853 0.930 . S
C2862 C2860 1.376 1_545 S
C2862 C2863 1.372 . S
C2863 C2862 1.372 . S
C2863 C2864 1.400 . S
C2863 C2868 1.490 . S
C2864 H2854 0.930 . S
C2864 C2863 1.400 . S
C2864 C2867 1.386 . S
H2865 C2881 0.930 . S
H2866 C2882 0.931 . S
C2867 H2855 0.929 . S
C2867 C2861 1.390 . S
C2867 C2864 1.386 . S
C2868 C2863 1.490 . S
C2868 C2870 1.395 . S
C2868 C2871 1.403 . S
H2869 C2875 0.930 . S
C2870 H2856 0.930 . S
C2870 C2868 1.395 . S
C2870 C2873 1.403 . S
C2871 C2868 1.403 . S
C2871 C2872 1.524 . S
C2871 C2875 1.400 . S
C2872 H2857 0.960 . S
C2872 H2858 0.960 . S
C2872 H2859 0.960 . S
C2872 C2871 1.524 . S
C2873 C2870 1.403 . S
C2873 C2874 1.392 . S
C2873 C2877 1.495 . S
C2874 C2873 1.392 . S
C2874 C2875 1.385 . S
C2874 C2876 1.478 . S
C2875 H2869 0.930 . S
C2875 C2871 1.400 . S
C2875 C2874 1.385 . S
C2876 C2874 1.478 . S
C2876 C2878 1.381 . S
C2876 C2882 1.383 . S
C2877 C2873 1.495 . S
C2877 H2883 0.959 . S
C2877 H2884 0.961 . S
C2877 H2885 0.960 . S
C2878 C2876 1.381 . S
C2878 C2879 1.394 . S
C2878 H2886 0.930 . S
C2879 C2878 1.394 . S
C2879 C2880 1.383 . S
C2879 H2887 0.929 . S
C2880 C2879 1.383 . S
C2880 C2881 1.377 . S
C2881 H2865 0.930 . S
C2881 C2880 1.377 . S
C2881 C2882 1.379 . S
C2882 H2866 0.931 . S
C2882 C2876 1.383 . S
C2882 C2881 1.379 . S
H2883 C2877 0.959 . S
H2884 C2877 0.961 . S
H2885 C2877 0.960 . S
H2886 C2878 0.930 . S
H2887 C2879 0.929 . S
H2888 C2896 0.929 . S
H2889 C2898 0.930 . S
H2890 C2900 0.930 . S
H2891 C2903 0.929 . S
H2892 C2906 0.930 . S
H2893 C2908 0.960 . S
H2894 C2908 0.960 . S
H2895 C2908 0.960 . S
C2896 H2888 0.929 . S
C2896 C2897 1.377 . S
C2896 C2898 1.384 . S
C2897 C2896 1.377 . S
C2897 C2903 1.390 . S
C2898 H2889 0.930 . S
C2898 C2896 1.384 . S
C2898 C2899 1.372 . S
C2899 C2898 1.372 . S
C2899 C2900 1.400 . S
C2899 C2904 1.490 . S
C2900 H2890 0.930 . S
C2900 C2899 1.400 . S
C2900 C2903 1.386 . S
H2901 C2917 0.930 . S
H2902 C2918 0.931 . S
C2903 H2891 0.929 . S
C2903 C2897 1.390 . S
C2903 C2900 1.386 . S
C2904 C2899 1.490 . S
C2904 C2906 1.395 . S
C2904 C2907 1.403 . S
H2905 C2911 0.930 . S
C2906 H2892 0.930 . S
C2906 C2904 1.395 . S
C2906 C2909 1.403 . S
C2907 C2904 1.403 . S
C2907 C2908 1.524 . S
C2907 C2911 1.400 . S
C2908 H2893 0.960 . S
C2908 H2894 0.960 . S
C2908 H2895 0.960 . S
C2908 C2907 1.524 . S
C2909 C2906 1.403 . S
C2909 C2910 1.392 . S
C2909 C2913 1.495 . S
C2910 C2909 1.392 . S
C2910 C2911 1.385 . S
C2910 C2912 1.478 . S
C2911 H2905 0.930 . S
C2911 C2907 1.400 . S
C2911 C2910 1.385 . S
C2912 C2910 1.478 . S
C2912 C2914 1.381 . S
C2912 C2918 1.383 . S
C2913 C2909 1.495 . S
C2913 H2919 0.959 . S
C2913 H2920 0.961 . S
C2913 H2921 0.960 . S
C2914 C2912 1.381 . S
C2914 C2915 1.394 . S
C2914 H2922 0.930 . S
C2915 C2914 1.394 . S
C2915 C2916 1.383 . S
C2915 H2923 0.929 . S
C2916 C2915 1.383 . S
C2916 C2917 1.377 . S
C2917 H2901 0.930 . S
C2917 C2916 1.377 . S
C2917 C2918 1.379 . S
C2918 H2902 0.931 . S
C2918 C2912 1.383 . S
C2918 C2917 1.379 . S
H2919 C2913 0.959 . S
H2920 C2913 0.961 . S
H2921 C2913 0.960 . S
H2922 C2914 0.930 . S
H2923 C2915 0.929 . S
H2924 C2932 0.929 1_545 S
H2925 C2934 0.930 . S
H2926 C2936 0.930 . S
H2927 C2939 0.929 . S
H2928 C2942 0.930 . S
H2929 C2944 0.960 . S
H2930 C2944 0.960 . S
H2931 C2944 0.960 . S
C2932 H2924 0.929 1_565 S
C2932 C2933 1.377 . S
C2932 C2934 1.384 . S
C2933 C2932 1.377 . S
C2933 C2939 1.390 . S
C2934 H2925 0.930 . S
C2934 C2932 1.384 . S
C2934 C2935 1.372 . S
C2935 C2934 1.372 . S
C2935 C2936 1.400 . S
C2935 C2940 1.490 . S
C2936 H2926 0.930 . S
C2936 C2935 1.400 . S
C2936 C2939 1.386 . S
H2937 C2953 0.930 . S
H2938 C2954 0.931 . S
C2939 H2927 0.929 . S
C2939 C2933 1.390 . S
C2939 C2936 1.386 . S
C2940 C2935 1.490 . S
C2940 C2942 1.395 . S
C2940 C2943 1.403 . S
H2941 C2947 0.930 . S
C2942 H2928 0.930 . S
C2942 C2940 1.395 . S
C2942 C2945 1.403 . S
C2943 C2940 1.403 . S
C2943 C2944 1.524 . S
C2943 C2947 1.400 . S
C2944 H2929 0.960 . S
C2944 H2930 0.960 . S
C2944 H2931 0.960 . S
C2944 C2943 1.524 . S
C2945 C2942 1.403 . S
C2945 C2946 1.392 . S
C2945 C2949 1.495 . S
C2946 C2945 1.392 . S
C2946 C2947 1.385 . S
C2946 C2948 1.478 . S
C2947 H2941 0.930 . S
C2947 C2943 1.400 . S
C2947 C2946 1.385 . S
C2948 C2946 1.478 . S
C2948 C2950 1.381 . S
C2948 C2954 1.383 . S
C2949 C2945 1.495 . S
C2949 H2955 0.959 . S
C2949 H2956 0.961 . S
C2949 H2957 0.960 . S
C2950 C2948 1.381 . S
C2950 C2951 1.394 . S
C2950 H2958 0.930 . S
C2951 C2950 1.394 . S
C2951 C2952 1.383 . S
C2951 H2959 0.929 . S
C2952 C2951 1.383 . S
C2952 C2953 1.377 . S
C2953 H2937 0.930 . S
C2953 C2952 1.377 . S
C2953 C2954 1.379 . S
C2954 H2938 0.931 . S
C2954 C2948 1.383 . S
C2954 C2953 1.379 . S
H2955 C2949 0.959 . S
H2956 C2949 0.961 . S
H2957 C2949 0.960 . S
H2958 C2950 0.930 . S
H2959 C2951 0.929 . S
H2960 C2968 0.930 1_545 S
H2961 C2970 0.930 . S
H2962 C2972 0.930 . S
H2963 C2975 0.929 . S
H2964 C2978 0.930 . S
H2965 C2980 0.960 . S
H2966 C2980 0.960 . S
H2967 C2980 0.960 . S
C2968 H2960 0.930 1_565 S
C2968 C2969 1.377 . S
C2968 C2970 1.384 . S
C2969 C2968 1.377 . S
C2969 C2975 1.390 . S
C2970 H2961 0.930 . S
C2970 C2968 1.384 . S
C2970 C2971 1.372 . S
C2971 C2970 1.372 . S
C2971 C2972 1.400 . S
C2971 C2976 1.490 . S
C2972 H2962 0.930 . S
C2972 C2971 1.400 . S
C2972 C2975 1.386 . S
H2973 C2989 0.930 . S
H2974 C2990 0.931 . S
C2975 H2963 0.929 . S
C2975 C2969 1.390 . S
C2975 C2972 1.386 . S
C2976 C2971 1.490 . S
C2976 C2978 1.395 . S
C2976 C2979 1.403 . S
H2977 C2983 0.930 . S
C2978 H2964 0.930 . S
C2978 C2976 1.395 . S
C2978 C2981 1.403 . S
C2979 C2976 1.403 . S
C2979 C2980 1.524 . S
C2979 C2983 1.400 . S
C2980 H2965 0.960 . S
C2980 H2966 0.960 . S
C2980 H2967 0.960 . S
C2980 C2979 1.524 . S
C2981 C2978 1.403 . S
C2981 C2982 1.392 . S
C2981 C2985 1.495 . S
C2982 C2981 1.392 . S
C2982 C2983 1.385 . S
C2982 C2984 1.478 . S
C2983 H2977 0.930 . S
C2983 C2979 1.400 . S
C2983 C2982 1.385 . S
C2984 C2982 1.478 . S
C2984 C2986 1.381 . S
C2984 C2990 1.383 . S
C2985 C2981 1.495 . S
C2985 H2991 0.959 . S
C2985 H2992 0.961 . S
C2985 H2993 0.960 . S
C2986 C2984 1.381 . S
C2986 C2987 1.394 . S
C2986 H2994 0.930 . S
C2987 C2986 1.394 . S
C2987 C2988 1.383 . S
C2987 H2995 0.929 . S
C2988 C2987 1.383 . S
C2988 C2989 1.377 . S
C2989 H2973 0.930 . S
C2989 C2988 1.377 . S
C2989 C2990 1.379 . S
C2990 H2974 0.931 . S
C2990 C2984 1.383 . S
C2990 C2989 1.379 . S
H2991 C2985 0.959 . S
H2992 C2985 0.961 . S
H2993 C2985 0.960 . S
H2994 C2986 0.930 . S
H2995 C2987 0.929 . S
H2996 C3004 0.929 . S
H2997 C3006 0.930 . S
H2998 C3008 0.930 . S
H2999 C3011 0.929 . S
H3000 C3014 0.930 . S
H3001 C3016 0.960 . S
H3002 C3016 0.960 . S
H3003 C3016 0.960 . S
C3004 H2996 0.929 . S
C3004 C3005 1.377 . S
C3004 C3006 1.384 . S
C3005 C3004 1.377 . S
C3005 C3011 1.390 . S
C3006 H2997 0.930 . S
C3006 C3004 1.384 . S
C3006 C3007 1.372 . S
C3007 C3006 1.372 . S
C3007 C3008 1.400 . S
C3007 C3012 1.490 . S
C3008 H2998 0.930 . S
C3008 C3007 1.400 . S
C3008 C3011 1.386 . S
H3009 C3025 0.930 . S
H3010 C3026 0.931 . S
C3011 H2999 0.929 . S
C3011 C3005 1.390 . S
C3011 C3008 1.386 . S
C3012 C3007 1.490 . S
C3012 C3014 1.395 . S
C3012 C3015 1.403 . S
H3013 C3019 0.930 . S
C3014 H3000 0.930 . S
C3014 C3012 1.395 . S
C3014 C3017 1.403 . S
C3015 C3012 1.403 . S
C3015 C3016 1.524 . S
C3015 C3019 1.400 . S
C3016 H3001 0.960 . S
C3016 H3002 0.960 . S
C3016 H3003 0.960 . S
C3016 C3015 1.524 . S
C3017 C3014 1.403 . S
C3017 C3018 1.392 . S
C3017 C3021 1.495 . S
C3018 C3017 1.392 . S
C3018 C3019 1.385 . S
C3018 C3020 1.478 . S
C3019 H3013 0.930 . S
C3019 C3015 1.400 . S
C3019 C3018 1.385 . S
C3020 C3018 1.478 . S
C3020 C3022 1.381 . S
C3020 C3026 1.383 . S
C3021 C3017 1.495 . S
C3021 H3027 0.959 . S
C3021 H3028 0.961 . S
C3021 H3029 0.960 . S
C3022 C3020 1.381 . S
C3022 C3023 1.394 . S
C3022 H3030 0.930 . S
C3023 C3022 1.394 . S
C3023 C3024 1.383 . S
C3023 H3031 0.929 . S
C3024 C3023 1.383 . S
C3024 C3025 1.377 . S
C3025 H3009 0.930 . S
C3025 C3024 1.377 . S
C3025 C3026 1.379 . S
C3026 H3010 0.931 . S
C3026 C3020 1.383 . S
C3026 C3025 1.379 . S
H3027 C3021 0.959 . S
H3028 C3021 0.961 . S
H3029 C3021 0.960 . S
H3030 C3022 0.930 . S
H3031 C3023 0.929 . S
H3032 C3040 0.929 . S
H3033 C3042 0.930 . S
H3034 C3044 0.930 . S
H3035 C3047 0.929 . S
H3036 C3050 0.930 . S
H3037 C3052 0.960 . S
H3038 C3052 0.960 . S
H3039 C3052 0.960 . S
C3040 H3032 0.929 . S
C3040 C3041 1.377 . S
C3040 C3042 1.384 . S
C3041 C3040 1.377 . S
C3041 C3047 1.390 . S
C3042 H3033 0.930 . S
C3042 C3040 1.384 . S
C3042 C3043 1.372 . S
C3043 C3042 1.372 . S
C3043 C3044 1.400 . S
C3043 C3048 1.490 . S
C3044 H3034 0.930 . S
C3044 C3043 1.400 . S
C3044 C3047 1.386 . S
H3045 C3061 0.930 . S
H3046 C3062 0.931 . S
C3047 H3035 0.929 . S
C3047 C3041 1.390 . S
C3047 C3044 1.386 . S
C3048 C3043 1.490 . S
C3048 C3050 1.395 . S
C3048 C3051 1.403 . S
H3049 C3055 0.930 . S
C3050 H3036 0.930 . S
C3050 C3048 1.395 . S
C3050 C3053 1.403 . S
C3051 C3048 1.403 . S
C3051 C3052 1.524 . S
C3051 C3055 1.400 . S
C3052 H3037 0.960 . S
C3052 H3038 0.960 . S
C3052 H3039 0.960 . S
C3052 C3051 1.524 . S
C3053 C3050 1.403 . S
C3053 C3054 1.392 . S
C3053 C3057 1.495 . S
C3054 C3053 1.392 . S
C3054 C3055 1.385 . S
C3054 C3056 1.478 . S
C3055 H3049 0.930 . S
C3055 C3051 1.400 . S
C3055 C3054 1.385 . S
C3056 C3054 1.478 . S
C3056 C3058 1.381 . S
C3056 C3062 1.383 . S
C3057 C3053 1.495 . S
C3057 H3063 0.959 . S
C3057 H3064 0.961 . S
C3057 H3065 0.960 . S
C3058 C3056 1.381 . S
C3058 C3059 1.394 . S
C3058 H3066 0.930 . S
C3059 C3058 1.394 . S
C3059 C3060 1.383 . S
C3059 H3067 0.929 . S
C3060 C3059 1.383 . S
C3060 C3061 1.377 . S
C3061 H3045 0.930 . S
C3061 C3060 1.377 . S
C3061 C3062 1.379 . S
C3062 H3046 0.931 . S
C3062 C3056 1.383 . S
C3062 C3061 1.379 . S
H3063 C3057 0.959 . S
H3064 C3057 0.961 . S
H3065 C3057 0.960 . S
H3066 C3058 0.930 . S
H3067 C3059 0.929 . S
H3068 C3076 0.929 . S
H3069 C3078 0.930 . S
H3070 C3080 0.930 . S
H3071 C3083 0.905 1_565 S
H3072 C3086 0.930 . S
H3073 C3088 0.960 . S
H3074 C3088 0.960 . S
H3075 C3088 0.960 . S
C3076 H3068 0.929 . S
C3076 C3077 1.377 . S
C3076 C3078 1.384 . S
C3077 C3076 1.377 . S
C3077 C3083 1.395 . S
C3078 H3069 0.930 . S
C3078 C3076 1.384 . S
C3078 C3079 1.372 . S
C3079 C3078 1.372 . S
C3079 C3080 1.400 . S
C3079 C3084 1.490 . S
C3080 H3070 0.930 . S
C3080 C3079 1.400 . S
C3080 C3083 1.405 . S
H3081 C3097 0.930 . S
H3082 C3098 0.931 . S
C3083 H3071 0.905 1_545 S
C3083 C3077 1.395 . S
C3083 C3080 1.405 . S
C3084 C3079 1.490 . S
C3084 C3086 1.395 . S
C3084 C3087 1.403 . S
H3085 C3091 0.930 . S
C3086 H3072 0.930 . S
C3086 C3084 1.395 . S
C3086 C3089 1.403 . S
C3087 C3084 1.403 . S
C3087 C3088 1.524 . S
C3087 C3091 1.400 . S
C3088 H3073 0.960 . S
C3088 H3074 0.960 . S
C3088 H3075 0.960 . S
C3088 C3087 1.524 . S
C3089 C3086 1.403 . S
C3089 C3090 1.392 . S
C3089 C3093 1.495 . S
C3090 C3089 1.392 . S
C3090 C3091 1.385 . S
C3090 C3092 1.478 . S
C3091 H3085 0.930 . S
C3091 C3087 1.400 . S
C3091 C3090 1.385 . S
C3092 C3090 1.478 . S
C3092 C3094 1.381 . S
C3092 C3098 1.383 . S
C3093 C3089 1.495 . S
C3093 H3099 0.959 . S
C3093 H3100 0.961 . S
C3093 H3101 0.960 . S
C3094 C3092 1.381 . S
C3094 C3095 1.394 . S
C3094 H3102 0.930 . S
C3095 C3094 1.394 . S
C3095 C3096 1.383 . S
C3095 H3103 0.929 . S
C3096 C3095 1.383 . S
C3096 C3097 1.377 . S
C3097 H3081 0.930 . S
C3097 C3096 1.377 . S
C3097 C3098 1.379 . S
C3098 H3082 0.931 . S
C3098 C3092 1.383 . S
C3098 C3097 1.379 . S
H3099 C3093 0.959 . S
H3100 C3093 0.961 . S
H3101 C3093 0.960 . S
H3102 C3094 0.930 . S
H3103 C3095 0.929 . S
H3104 C3112 0.929 . S
H3105 C3114 0.930 . S
H3106 C3116 0.930 . S
H3107 C3119 0.929 . S
H3108 C3122 0.930 . S
H3109 C3124 0.960 . S
H3110 C3124 0.960 . S
H3111 C3124 0.960 . S
C3112 H3104 0.929 . S
C3112 C3113 1.377 . S
C3112 C3114 1.384 . S
C3113 C3112 1.377 . S
C3113 C3119 1.390 . S
C3114 H3105 0.930 . S
C3114 C3112 1.384 . S
C3114 C3115 1.372 . S
C3115 C3114 1.372 . S
C3115 C3116 1.400 . S
C3115 C3120 1.490 . S
C3116 H3106 0.930 . S
C3116 C3115 1.400 . S
C3116 C3119 1.386 . S
H3117 C3133 0.930 . S
H3118 C3134 0.931 . S
C3119 H3107 0.929 . S
C3119 C3113 1.390 . S
C3119 C3116 1.386 . S
C3120 C3115 1.490 . S
C3120 C3122 1.395 . S
C3120 C3123 1.403 . S
H3121 C3127 0.930 . S
C3122 H3108 0.930 . S
C3122 C3120 1.395 . S
C3122 C3125 1.403 . S
C3123 C3120 1.403 . S
C3123 C3124 1.524 . S
C3123 C3127 1.400 . S
C3124 H3109 0.960 . S
C3124 H3110 0.960 . S
C3124 H3111 0.960 . S
C3124 C3123 1.524 . S
C3125 C3122 1.403 . S
C3125 C3126 1.392 . S
C3125 C3129 1.495 . S
C3126 C3125 1.392 . S
C3126 C3127 1.385 . S
C3126 C3128 1.478 . S
C3127 H3121 0.930 . S
C3127 C3123 1.400 . S
C3127 C3126 1.385 . S
C3128 C3126 1.478 . S
C3128 C3130 1.381 . S
C3128 C3134 1.383 . S
C3129 C3125 1.495 . S
C3129 H3135 0.959 . S
C3129 H3136 0.961 . S
C3129 H3137 0.960 . S
C3130 C3128 1.381 . S
C3130 C3131 1.394 . S
C3130 H3138 0.930 . S
C3131 C3130 1.394 . S
C3131 C3132 1.383 . S
C3131 H3139 0.929 . S
C3132 C3131 1.383 . S
C3132 C3133 1.377 . S
C3133 H3117 0.930 . S
C3133 C3132 1.377 . S
C3133 C3134 1.379 . S
C3134 H3118 0.931 . S
C3134 C3128 1.383 . S
C3134 C3133 1.379 . S
H3135 C3129 0.959 . S
H3136 C3129 0.961 . S
H3137 C3129 0.960 . S
H3138 C3130 0.930 . S
H3139 C3131 0.929 . S
H3140 C3148 0.929 . S
H3141 C3150 0.930 . S
H3142 C3152 0.930 . S
H3143 C3155 0.929 . S
H3144 C3158 0.930 . S
H3145 C3160 0.960 . S
H3146 C3160 0.960 . S
H3147 C3160 0.960 . S
C3148 H3140 0.929 . S
C3148 C3149 1.377 . S
C3148 C3150 1.384 . S
C3149 C3148 1.377 . S
C3149 C3155 1.390 . S
C3150 H3141 0.930 . S
C3150 C3148 1.384 . S
C3150 C3151 1.372 . S
C3151 C3150 1.372 . S
C3151 C3152 1.400 . S
C3151 C3156 1.490 . S
C3152 H3142 0.930 . S
C3152 C3151 1.400 . S
C3152 C3155 1.386 . S
H3153 C3169 0.930 . S
H3154 C3170 0.931 . S
C3155 H3143 0.929 . S
C3155 C3149 1.390 . S
C3155 C3152 1.386 . S
C3156 C3151 1.490 . S
C3156 C3158 1.395 . S
C3156 C3159 1.403 . S
H3157 C3163 0.930 . S
C3158 H3144 0.930 . S
C3158 C3156 1.395 . S
C3158 C3161 1.403 . S
C3159 C3156 1.403 . S
C3159 C3160 1.524 . S
C3159 C3163 1.400 . S
C3160 H3145 0.960 . S
C3160 H3146 0.960 . S
C3160 H3147 0.960 . S
C3160 C3159 1.524 . S
C3161 C3158 1.403 . S
C3161 C3162 1.392 . S
C3161 C3165 1.495 . S
C3162 C3161 1.392 . S
C3162 C3163 1.385 . S
C3162 C3164 1.478 . S
C3163 H3157 0.930 . S
C3163 C3159 1.400 . S
C3163 C3162 1.385 . S
C3164 C3162 1.478 . S
C3164 C3166 1.381 . S
C3164 C3170 1.383 . S
C3165 C3161 1.495 . S
C3165 H3171 0.959 . S
C3165 H3172 0.961 . S
C3165 H3173 0.960 . S
C3166 C3164 1.381 . S
C3166 C3167 1.394 . S
C3166 H3174 0.930 . S
C3167 C3166 1.394 . S
C3167 C3168 1.383 . S
C3167 H3175 0.929 . S
C3168 C3167 1.383 . S
C3168 C3169 1.377 . S
C3169 H3153 0.930 . S
C3169 C3168 1.377 . S
C3169 C3170 1.379 . S
C3170 H3154 0.931 . S
C3170 C3164 1.383 . S
C3170 C3169 1.379 . S
H3171 C3165 0.959 . S
H3172 C3165 0.961 . S
H3173 C3165 0.960 . S
H3174 C3166 0.930 . S
H3175 C3167 0.929 . S
H3176 C3184 0.929 . S
H3177 C3186 0.930 . S
H3178 C3188 0.930 . S
H3179 C3191 0.929 . S
H3180 C3194 0.930 . S
H3181 C3196 0.960 . S
H3182 C3196 0.960 . S
H3183 C3196 0.960 . S
C3184 H3176 0.929 . S
C3184 C3185 1.377 . S
C3184 C3186 1.384 . S
C3185 C3184 1.377 . S
C3185 C3191 1.390 . S
C3186 H3177 0.930 . S
C3186 C3184 1.384 . S
C3186 C3187 1.372 . S
C3187 C3186 1.372 . S
C3187 C3188 1.400 . S
C3187 C3192 1.490 . S
C3188 H3178 0.930 . S
C3188 C3187 1.400 . S
C3188 C3191 1.386 . S
H3189 C3205 0.930 . S
H3190 C3206 0.931 . S
C3191 H3179 0.929 . S
C3191 C3185 1.390 . S
C3191 C3188 1.386 . S
C3192 C3187 1.490 . S
C3192 C3194 1.395 . S
C3192 C3195 1.403 . S
H3193 C3199 0.930 . S
C3194 H3180 0.930 . S
C3194 C3192 1.395 . S
C3194 C3197 1.403 . S
C3195 C3192 1.403 . S
C3195 C3196 1.524 . S
C3195 C3199 1.400 . S
C3196 H3181 0.960 . S
C3196 H3182 0.960 . S
C3196 H3183 0.960 . S
C3196 C3195 1.524 . S
C3197 C3194 1.403 . S
C3197 C3198 1.392 . S
C3197 C3201 1.495 . S
C3198 C3197 1.392 . S
C3198 C3199 1.385 . S
C3198 C3200 1.478 . S
C3199 H3193 0.930 . S
C3199 C3195 1.400 . S
C3199 C3198 1.385 . S
C3200 C3198 1.478 . S
C3200 C3202 1.381 . S
C3200 C3206 1.383 . S
C3201 C3197 1.495 . S
C3201 H3207 0.959 . S
C3201 H3208 0.961 . S
C3201 H3209 0.960 . S
C3202 C3200 1.381 . S
C3202 C3203 1.394 . S
C3202 H3210 0.930 . S
C3203 C3202 1.394 . S
C3203 C3204 1.383 . S
C3203 H3211 0.929 . S
C3204 C3203 1.383 . S
C3204 C3205 1.377 . S
C3205 H3189 0.930 . S
C3205 C3204 1.377 . S
C3205 C3206 1.379 . S
C3206 H3190 0.931 . S
C3206 C3200 1.383 . S
C3206 C3205 1.379 . S
H3207 C3201 0.959 . S
H3208 C3201 0.961 . S
H3209 C3201 0.960 . S
H3210 C3202 0.930 . S
H3211 C3203 0.929 . S
H3212 C3220 0.929 . S
H3213 C3222 0.930 . S
H3214 C3224 0.930 . S
H3215 C3227 0.929 . S
H3216 C3230 0.930 . S
H3217 C3232 0.960 . S
H3218 C3232 0.960 . S
H3219 C3232 0.960 . S
C3220 H3212 0.929 . S
C3220 C3221 1.377 . S
C3220 C3222 1.384 . S
C3221 C3220 1.377 . S
C3221 C3227 1.390 . S
C3222 H3213 0.930 . S
C3222 C3220 1.384 . S
C3222 C3223 1.372 . S
C3223 C3222 1.372 . S
C3223 C3224 1.400 . S
C3223 C3228 1.490 . S
C3224 H3214 0.930 . S
C3224 C3223 1.400 . S
C3224 C3227 1.386 . S
H3225 C3241 0.930 . S
H3226 C3242 0.931 . S
C3227 H3215 0.929 . S
C3227 C3221 1.390 . S
C3227 C3224 1.386 . S
C3228 C3223 1.490 . S
C3228 C3230 1.395 . S
C3228 C3231 1.403 . S
H3229 C3235 0.930 . S
C3230 H3216 0.930 . S
C3230 C3228 1.395 . S
C3230 C3233 1.403 . S
C3231 C3228 1.403 . S
C3231 C3232 1.524 . S
C3231 C3235 1.400 . S
C3232 H3217 0.960 . S
C3232 H3218 0.960 . S
C3232 H3219 0.960 . S
C3232 C3231 1.524 . S
C3233 C3230 1.403 . S
C3233 C3234 1.392 . S
C3233 C3237 1.495 . S
C3234 C3233 1.392 . S
C3234 C3235 1.385 . S
C3234 C3236 1.478 . S
C3235 H3229 0.930 . S
C3235 C3231 1.400 . S
C3235 C3234 1.385 . S
C3236 C3234 1.478 . S
C3236 C3238 1.381 . S
C3236 C3242 1.383 . S
C3237 C3233 1.495 . S
C3237 H3243 0.959 . S
C3237 H3244 0.961 . S
C3237 H3245 0.960 . S
C3238 C3236 1.381 . S
C3238 C3239 1.394 . S
C3238 H3246 0.930 . S
C3239 C3238 1.394 . S
C3239 C3240 1.383 . S
C3239 H3247 0.929 . S
C3240 C3239 1.383 . S
C3240 C3241 1.377 . S
C3241 H3225 0.930 . S
C3241 C3240 1.377 . S
C3241 C3242 1.379 . S
C3242 H3226 0.931 . S
C3242 C3236 1.383 . S
C3242 C3241 1.379 . S
H3243 C3237 0.959 . S
H3244 C3237 0.961 . S
H3245 C3237 0.960 . S
H3246 C3238 0.930 . S
H3247 C3239 0.929 . S
H3248 C3256 0.929 . S
H3249 C3258 0.930 . S
H3250 C3260 0.930 . S
H3251 C3263 0.929 . S
H3252 C3266 0.930 . S
H3253 C3268 0.960 . S
H3254 C3268 0.960 . S
H3255 C3268 0.960 . S
C3256 H3248 0.929 . S
C3256 C3257 1.377 . S
C3256 C3258 1.384 . S
C3257 C3256 1.377 . S
C3257 C3263 1.390 . S
C3258 H3249 0.930 . S
C3258 C3256 1.384 . S
C3258 C3259 1.372 . S
C3259 C3258 1.372 . S
C3259 C3260 1.400 . S
C3259 C3264 1.490 . S
C3260 H3250 0.930 . S
C3260 C3259 1.400 . S
C3260 C3263 1.386 . S
H3261 C3277 0.930 . S
H3262 C3278 0.931 . S
C3263 H3251 0.929 . S
C3263 C3257 1.390 . S
C3263 C3260 1.386 . S
C3264 C3259 1.490 . S
C3264 C3266 1.395 . S
C3264 C3267 1.403 . S
H3265 C3271 0.930 . S
C3266 H3252 0.930 . S
C3266 C3264 1.395 . S
C3266 C3269 1.403 . S
C3267 C3264 1.403 . S
C3267 C3268 1.524 . S
C3267 C3271 1.400 . S
C3268 H3253 0.960 . S
C3268 H3254 0.960 . S
C3268 H3255 0.960 . S
C3268 C3267 1.524 . S
C3269 C3266 1.403 . S
C3269 C3270 1.392 . S
C3269 C3273 1.495 . S
C3270 C3269 1.392 . S
C3270 C3271 1.385 . S
C3270 C3272 1.478 . S
C3271 H3265 0.930 . S
C3271 C3267 1.400 . S
C3271 C3270 1.385 . S
C3272 C3270 1.478 . S
C3272 C3274 1.381 . S
C3272 C3278 1.383 . S
C3273 C3269 1.495 . S
C3273 H3279 0.959 . S
C3273 H3280 0.961 . S
C3273 H3281 0.960 . S
C3274 C3272 1.381 . S
C3274 C3275 1.394 . S
C3274 H3282 0.930 . S
C3275 C3274 1.394 . S
C3275 C3276 1.383 . S
C3275 H3283 0.929 . S
C3276 C3275 1.383 . S
C3276 C3277 1.377 . S
C3277 H3261 0.930 . S
C3277 C3276 1.377 . S
C3277 C3278 1.379 . S
C3278 H3262 0.931 . S
C3278 C3272 1.383 . S
C3278 C3277 1.379 . S
H3279 C3273 0.959 . S
H3280 C3273 0.961 . S
H3281 C3273 0.960 . S
H3282 C3274 0.930 . S
H3283 C3275 0.929 . S
H3284 C3292 0.929 . S
H3285 C3294 0.930 . S
H3286 C3296 0.930 . S
H3287 C3299 0.929 . S
H3288 C3302 0.930 . S
H3289 C3304 0.960 . S
H3290 C3304 0.960 . S
H3291 C3304 0.960 . S
C3292 H3284 0.929 . S
C3292 C3293 1.377 . S
C3292 C3294 1.384 . S
C3293 C3292 1.377 . S
C3293 C3299 1.390 . S
C3294 H3285 0.930 . S
C3294 C3292 1.384 . S
C3294 C3295 1.372 . S
C3295 C3294 1.372 . S
C3295 C3296 1.400 . S
C3295 C3300 1.490 . S
C3296 H3286 0.930 . S
C3296 C3295 1.400 . S
C3296 C3299 1.386 . S
H3297 C3313 0.930 . S
H3298 C3314 0.931 . S
C3299 H3287 0.929 . S
C3299 C3293 1.390 . S
C3299 C3296 1.386 . S
C3300 C3295 1.490 . S
C3300 C3302 1.395 . S
C3300 C3303 1.403 . S
H3301 C3307 0.930 . S
C3302 H3288 0.930 . S
C3302 C3300 1.395 . S
C3302 C3305 1.403 . S
C3303 C3300 1.403 . S
C3303 C3304 1.524 . S
C3303 C3307 1.400 . S
C3304 H3289 0.960 . S
C3304 H3290 0.960 . S
C3304 H3291 0.960 . S
C3304 C3303 1.524 . S
C3305 C3302 1.403 . S
C3305 C3306 1.392 . S
C3305 C3309 1.495 . S
C3306 C3305 1.392 . S
C3306 C3307 1.385 . S
C3306 C3308 1.478 . S
C3307 H3301 0.930 . S
C3307 C3303 1.400 . S
C3307 C3306 1.385 . S
C3308 C3306 1.478 . S
C3308 C3310 1.381 . S
C3308 C3314 1.383 . S
C3309 C3305 1.495 . S
C3309 H3315 0.959 . S
C3309 H3316 0.961 . S
C3309 H3317 0.960 . S
C3310 C3308 1.381 . S
C3310 C3311 1.394 . S
C3310 H3318 0.930 . S
C3311 C3310 1.394 . S
C3311 C3312 1.383 . S
C3311 H3319 0.929 . S
C3312 C3311 1.383 . S
C3312 C3313 1.377 . S
C3313 H3297 0.930 . S
C3313 C3312 1.377 . S
C3313 C3314 1.379 . S
C3314 H3298 0.931 . S
C3314 C3308 1.383 . S
C3314 C3313 1.379 . S
H3315 C3309 0.959 . S
H3316 C3309 0.961 . S
H3317 C3309 0.960 . S
H3318 C3310 0.930 . S
H3319 C3311 0.929 . S
H3320 C3328 0.929 . S
H3321 C3330 0.930 . S
H3322 C3332 0.930 . S
H3323 C3335 0.929 . S
H3324 C3338 0.930 . S
H3325 C3340 0.960 . S
H3326 C3340 0.960 . S
H3327 C3340 0.960 . S
C3328 H3320 0.929 . S
C3328 C3329 1.377 . S
C3328 C3330 1.384 . S
C3329 C3328 1.377 . S
C3329 C3335 1.390 . S
C3330 H3321 0.930 . S
C3330 C3328 1.384 . S
C3330 C3331 1.372 . S
C3331 C3330 1.372 . S
C3331 C3332 1.400 . S
C3331 C3336 1.490 . S
C3332 H3322 0.930 . S
C3332 C3331 1.400 . S
C3332 C3335 1.386 . S
H3333 C3349 0.930 . S
H3334 C3350 0.931 . S
C3335 H3323 0.929 . S
C3335 C3329 1.390 . S
C3335 C3332 1.386 . S
C3336 C3331 1.490 . S
C3336 C3338 1.395 . S
C3336 C3339 1.403 . S
H3337 C3343 0.930 . S
C3338 H3324 0.930 . S
C3338 C3336 1.395 . S
C3338 C3341 1.403 . S
C3339 C3336 1.403 . S
C3339 C3340 1.524 . S
C3339 C3343 1.400 . S
C3340 H3325 0.960 . S
C3340 H3326 0.960 . S
C3340 H3327 0.960 . S
C3340 C3339 1.524 . S
C3341 C3338 1.403 . S
C3341 C3342 1.392 . S
C3341 C3345 1.495 . S
C3342 C3341 1.392 . S
C3342 C3343 1.385 . S
C3342 C3344 1.478 . S
C3343 H3337 0.930 . S
C3343 C3339 1.400 . S
C3343 C3342 1.385 . S
C3344 C3342 1.478 . S
C3344 C3346 1.381 . S
C3344 C3350 1.383 . S
C3345 C3341 1.495 . S
C3345 H3351 0.959 . S
C3345 H3352 0.961 . S
C3345 H3353 0.960 . S
C3346 C3344 1.381 . S
C3346 C3347 1.394 . S
C3346 H3354 0.930 . S
C3347 C3346 1.394 . S
C3347 C3348 1.383 . S
C3347 H3355 0.929 . S
C3348 C3347 1.383 . S
C3348 C3349 1.377 . S
C3349 H3333 0.930 . S
C3349 C3348 1.377 . S
C3349 C3350 1.379 . S
C3350 H3334 0.931 . S
C3350 C3344 1.383 . S
C3350 C3349 1.379 . S
H3351 C3345 0.959 . S
H3352 C3345 0.961 . S
H3353 C3345 0.960 . S
H3354 C3346 0.930 . S
H3355 C3347 0.929 . S
H3356 C3364 0.929 . S
H3357 C3366 0.930 . S
H3358 C3368 0.930 . S
H3359 C3371 0.929 . S
H3360 C3374 0.930 . S
H3361 C3376 0.960 . S
H3362 C3376 0.960 . S
H3363 C3376 0.960 . S
C3364 H3356 0.929 . S
C3364 C3365 1.377 . S
C3364 C3366 1.384 . S
C3365 C3364 1.377 . S
C3365 C3371 1.390 . S
C3366 H3357 0.930 . S
C3366 C3364 1.384 . S
C3366 C3367 1.372 . S
C3367 C3366 1.372 . S
C3367 C3368 1.400 . S
C3367 C3372 1.490 . S
C3368 H3358 0.930 . S
C3368 C3367 1.400 . S
C3368 C3371 1.386 . S
H3369 C3385 0.930 . S
H3370 C3386 0.931 . S
C3371 H3359 0.929 . S
C3371 C3365 1.390 . S
C3371 C3368 1.386 . S
C3372 C3367 1.490 . S
C3372 C3374 1.395 . S
C3372 C3375 1.403 . S
H3373 C3379 0.930 . S
C3374 H3360 0.930 . S
C3374 C3372 1.395 . S
C3374 C3377 1.403 . S
C3375 C3372 1.403 . S
C3375 C3376 1.524 . S
C3375 C3379 1.400 . S
C3376 H3361 0.960 . S
C3376 H3362 0.960 . S
C3376 H3363 0.960 . S
C3376 C3375 1.524 . S
C3377 C3374 1.403 . S
C3377 C3378 1.392 . S
C3377 C3381 1.495 . S
C3378 C3377 1.392 . S
C3378 C3379 1.385 . S
C3378 C3380 1.478 . S
C3379 H3373 0.930 . S
C3379 C3375 1.400 . S
C3379 C3378 1.385 . S
C3380 C3378 1.478 . S
C3380 C3382 1.381 . S
C3380 C3386 1.383 . S
C3381 C3377 1.495 . S
C3381 H3387 0.959 . S
C3381 H3388 0.961 . S
C3381 H3389 0.960 . S
C3382 C3380 1.381 . S
C3382 C3383 1.394 . S
C3382 H3390 0.930 . S
C3383 C3382 1.394 . S
C3383 C3384 1.383 . S
C3383 H3391 0.929 . S
C3384 C3383 1.383 . S
C3384 C3385 1.377 . S
C3385 H3369 0.930 . S
C3385 C3384 1.377 . S
C3385 C3386 1.379 . S
C3386 H3370 0.931 . S
C3386 C3380 1.383 . S
C3386 C3385 1.379 . S
H3387 C3381 0.959 . S
H3388 C3381 0.961 . S
H3389 C3381 0.960 . S
H3390 C3382 0.930 . S
H3391 C3383 0.929 . S
H3392 C3400 0.929 . S
H3393 C3402 0.930 . S
H3394 C3404 0.930 . S
H3395 C3407 0.929 . S
H3396 C3410 0.930 . S
H3397 C3412 0.960 . S
H3398 C3412 0.960 . S
H3399 C3412 0.960 . S
C3400 H3392 0.929 . S
C3400 C3401 1.377 . S
C3400 C3402 1.384 . S
C3401 C3400 1.377 . S
C3401 C3407 1.390 . S
C3402 H3393 0.930 . S
C3402 C3400 1.384 . S
C3402 C3403 1.372 . S
C3403 C3402 1.372 . S
C3403 C3404 1.400 . S
C3403 C3408 1.490 . S
C3404 H3394 0.930 . S
C3404 C3403 1.400 . S
C3404 C3407 1.386 . S
H3405 C3421 0.930 . S
H3406 C3422 0.931 . S
C3407 H3395 0.929 . S
C3407 C3401 1.390 . S
C3407 C3404 1.386 . S
C3408 C3403 1.490 . S
C3408 C3410 1.395 . S
C3408 C3411 1.403 . S
H3409 C3415 0.930 . S
C3410 H3396 0.930 . S
C3410 C3408 1.395 . S
C3410 C3413 1.403 . S
C3411 C3408 1.403 . S
C3411 C3412 1.524 . S
C3411 C3415 1.400 . S
C3412 H3397 0.960 . S
C3412 H3398 0.960 . S
C3412 H3399 0.960 . S
C3412 C3411 1.524 . S
C3413 C3410 1.403 . S
C3413 C3414 1.392 . S
C3413 C3417 1.495 . S
C3414 C3413 1.392 . S
C3414 C3415 1.385 . S
C3414 C3416 1.478 . S
C3415 H3409 0.930 . S
C3415 C3411 1.400 . S
C3415 C3414 1.385 . S
C3416 C3414 1.478 . S
C3416 C3418 1.381 . S
C3416 C3422 1.383 . S
C3417 C3413 1.495 . S
C3417 H3423 0.959 . S
C3417 H3424 0.961 . S
C3417 H3425 0.960 . S
C3418 C3416 1.381 . S
C3418 C3419 1.394 . S
C3418 H3426 0.930 . S
C3419 C3418 1.394 . S
C3419 C3420 1.383 . S
C3419 H3427 0.929 . S
C3420 C3419 1.383 . S
C3420 C3421 1.377 . S
C3421 H3405 0.930 . S
C3421 C3420 1.377 . S
C3421 C3422 1.379 . S
C3422 H3406 0.931 . S
C3422 C3416 1.383 . S
C3422 C3421 1.379 . S
H3423 C3417 0.959 . S
H3424 C3417 0.961 . S
H3425 C3417 0.960 . S
H3426 C3418 0.930 . S
H3427 C3419 0.929 . S
H3428 C3436 0.929 . S
H3429 C3438 0.930 . S
H3430 C3440 0.930 . S
H3431 C3443 0.929 . S
H3432 C3446 0.930 . S
H3433 C3448 0.960 . S
H3434 C3448 0.960 . S
H3435 C3448 0.960 . S
C3436 H3428 0.929 . S
C3436 C3437 1.377 . S
C3436 C3438 1.384 . S
C3437 C3436 1.377 . S
C3437 C3443 1.390 . S
C3438 H3429 0.930 . S
C3438 C3436 1.384 . S
C3438 C3439 1.372 . S
C3439 C3438 1.372 . S
C3439 C3440 1.400 . S
C3439 C3444 1.490 . S
C3440 H3430 0.930 . S
C3440 C3439 1.400 . S
C3440 C3443 1.386 . S
H3441 C3457 0.930 . S
H3442 C3458 0.931 . S
C3443 H3431 0.929 . S
C3443 C3437 1.390 . S
C3443 C3440 1.386 . S
C3444 C3439 1.490 . S
C3444 C3446 1.395 . S
C3444 C3447 1.403 . S
H3445 C3451 0.930 . S
C3446 H3432 0.930 . S
C3446 C3444 1.395 . S
C3446 C3449 1.403 1_655 S
C3447 C3444 1.403 . S
C3447 C3448 1.524 . S
C3447 C3451 1.400 1_655 S
C3448 H3433 0.960 . S
C3448 H3434 0.960 . S
C3448 H3435 0.960 . S
C3448 C3447 1.524 . S
C3449 C3446 1.403 1_455 S
C3449 C3450 1.392 . S
C3449 C3453 1.495 1_565 S
C3450 C3449 1.392 . S
C3450 C3451 1.385 . S
C3450 C3452 1.478 . S
C3451 H3445 0.930 . S
C3451 C3447 1.400 1_455 S
C3451 C3450 1.385 . S
C3452 C3450 1.478 . S
C3452 C3454 1.381 . S
C3452 C3458 1.383 . S
C3453 C3449 1.495 1_545 S
C3453 H3459 0.959 . S
C3453 H3460 0.961 . S
C3453 H3461 0.960 1_545 S
C3454 C3452 1.381 . S
C3454 C3455 1.394 . S
C3454 H3462 0.930 . S
C3455 C3454 1.394 . S
C3455 C3456 1.383 . S
C3455 H3463 0.929 . S
C3456 C3455 1.383 . S
C3456 C3457 1.377 . S
C3457 H3441 0.930 . S
C3457 C3456 1.377 . S
C3457 C3458 1.379 . S
C3458 H3442 0.931 . S
C3458 C3452 1.383 . S
C3458 C3457 1.379 . S
H3459 C3453 0.959 . S
H3460 C3453 0.961 . S
H3461 C3453 0.960 1_565 S
H3462 C3454 0.930 . S
H3463 C3455 0.929 . S
H3464 C3472 0.929 . S
H3465 C3474 0.930 . S
H3466 C3476 0.930 . S
H3467 C3479 0.929 . S
H3468 C3482 0.930 . S
H3469 C3484 0.960 . S
H3470 C3484 0.960 . S
H3471 C3484 0.960 . S
C3472 H3464 0.929 . S
C3472 C3473 1.377 . S
C3472 C3474 1.384 . S
C3473 C3472 1.377 . S
C3473 C3479 1.390 . S
C3474 H3465 0.930 . S
C3474 C3472 1.384 . S
C3474 C3475 1.372 . S
C3475 C3474 1.372 . S
C3475 C3476 1.400 . S
C3475 C3480 1.490 . S
C3476 H3466 0.930 . S
C3476 C3475 1.400 . S
C3476 C3479 1.386 . S
H3477 C3493 0.930 . S
H3478 C3494 0.931 . S
C3479 H3467 0.929 . S
C3479 C3473 1.390 . S
C3479 C3476 1.386 . S
C3480 C3475 1.490 . S
C3480 C3482 1.395 . S
C3480 C3483 1.403 . S
H3481 C3487 0.930 . S
C3482 H3468 0.930 . S
C3482 C3480 1.395 . S
C3482 C3485 1.403 . S
C3483 C3480 1.403 . S
C3483 C3484 1.524 . S
C3483 C3487 1.400 . S
C3484 H3469 0.960 . S
C3484 H3470 0.960 . S
C3484 H3471 0.960 . S
C3484 C3483 1.524 . S
C3485 C3482 1.403 . S
C3485 C3486 1.392 . S
C3485 C3489 1.495 . S
C3486 C3485 1.392 . S
C3486 C3487 1.385 . S
C3486 C3488 1.478 . S
C3487 H3481 0.930 . S
C3487 C3483 1.400 . S
C3487 C3486 1.385 . S
C3488 C3486 1.478 . S
C3488 C3490 1.381 . S
C3488 C3494 1.383 . S
C3489 C3485 1.495 . S
C3489 H3495 0.959 . S
C3489 H3496 0.961 . S
C3489 H3497 0.960 . S
C3490 C3488 1.381 . S
C3490 C3491 1.394 . S
C3490 H3498 0.930 . S
C3491 C3490 1.394 . S
C3491 C3492 1.383 . S
C3491 H3499 0.929 . S
C3492 C3491 1.383 . S
C3492 C3493 1.377 . S
C3493 H3477 0.930 . S
C3493 C3492 1.377 . S
C3493 C3494 1.379 . S
C3494 H3478 0.931 . S
C3494 C3488 1.383 . S
C3494 C3493 1.379 . S
H3495 C3489 0.959 . S
H3496 C3489 0.961 . S
H3497 C3489 0.960 . S
H3498 C3490 0.930 . S
H3499 C3491 0.929 . S
H3500 C3508 0.929 . S
H3501 C3510 0.930 . S
H3502 C3512 0.930 . S
H3503 C3515 0.929 . S
H3504 C3518 0.930 . S
H3505 C3520 0.960 . S
H3506 C3520 0.960 . S
H3507 C3520 0.960 . S
C3508 H3500 0.929 . S
C3508 C3509 1.377 . S
C3508 C3510 1.384 . S
C3509 C3508 1.377 . S
C3509 C3515 1.390 . S
C3510 H3501 0.930 . S
C3510 C3508 1.384 . S
C3510 C3511 1.372 . S
C3511 C3510 1.372 . S
C3511 C3512 1.400 . S
C3511 C3516 1.490 . S
C3512 H3502 0.930 . S
C3512 C3511 1.400 . S
C3512 C3515 1.386 . S
H3513 C3529 0.930 . S
H3514 C3530 0.931 . S
C3515 H3503 0.929 . S
C3515 C3509 1.390 . S
C3515 C3512 1.386 . S
C3516 C3511 1.490 . S
C3516 C3518 1.395 . S
C3516 C3519 1.403 . S
H3517 C3523 0.930 . S
C3518 H3504 0.930 . S
C3518 C3516 1.395 . S
C3518 C3521 1.403 . S
C3519 C3516 1.403 . S
C3519 C3520 1.524 . S
C3519 C3523 1.400 . S
C3520 H3505 0.960 . S
C3520 H3506 0.960 . S
C3520 H3507 0.960 . S
C3520 C3519 1.524 . S
C3521 C3518 1.403 . S
C3521 C3522 1.392 . S
C3521 C3525 1.495 . S
C3522 C3521 1.392 . S
C3522 C3523 1.385 . S
C3522 C3524 1.478 . S
C3523 H3517 0.930 . S
C3523 C3519 1.400 . S
C3523 C3522 1.385 . S
C3524 C3522 1.478 . S
C3524 C3526 1.381 . S
C3524 C3530 1.383 . S
C3525 C3521 1.495 . S
C3525 H3531 0.959 . S
C3525 H3532 0.961 . S
C3525 H3533 0.960 . S
C3526 C3524 1.381 . S
C3526 C3527 1.394 . S
C3526 H3534 0.930 . S
C3527 C3526 1.394 . S
C3527 C3528 1.383 . S
C3527 H3535 0.929 . S
C3528 C3527 1.383 . S
C3528 C3529 1.377 . S
C3529 H3513 0.930 . S
C3529 C3528 1.377 . S
C3529 C3530 1.379 . S
C3530 H3514 0.931 . S
C3530 C3524 1.383 . S
C3530 C3529 1.379 . S
H3531 C3525 0.959 . S
H3532 C3525 0.961 . S
H3533 C3525 0.960 . S
H3534 C3526 0.930 . S
H3535 C3527 0.929 . S
H3536 C3544 0.929 . S
H3537 C3546 0.930 . S
H3538 C3548 0.930 . S
H3539 C3551 0.929 . S
H3540 C3554 0.930 . S
H3541 C3556 0.960 . S
H3542 C3556 0.960 . S
H3543 C3556 0.960 . S
C3544 H3536 0.929 . S
C3544 C3545 1.377 . S
C3544 C3546 1.384 . S
C3545 C3544 1.377 . S
C3545 C3551 1.390 . S
C3546 H3537 0.930 . S
C3546 C3544 1.384 . S
C3546 C3547 1.372 . S
C3547 C3546 1.372 . S
C3547 C3548 1.400 . S
C3547 C3552 1.490 . S
C3548 H3538 0.930 . S
C3548 C3547 1.400 . S
C3548 C3551 1.386 . S
H3549 C3565 0.930 . S
H3550 C3566 0.931 . S
C3551 H3539 0.929 . S
C3551 C3545 1.390 . S
C3551 C3548 1.386 . S
C3552 C3547 1.490 . S
C3552 C3554 1.395 . S
C3552 C3555 1.403 . S
H3553 C3559 0.930 . S
C3554 H3540 0.930 . S
C3554 C3552 1.395 . S
C3554 C3557 1.403 . S
C3555 C3552 1.403 . S
C3555 C3556 1.524 . S
C3555 C3559 1.400 . S
C3556 H3541 0.960 . S
C3556 H3542 0.960 . S
C3556 H3543 0.960 . S
C3556 C3555 1.524 . S
C3557 C3554 1.403 . S
C3557 C3558 1.392 . S
C3557 C3561 1.495 . S
C3558 C3557 1.392 . S
C3558 C3559 1.385 . S
C3558 C3560 1.478 . S
C3559 H3553 0.930 . S
C3559 C3555 1.400 . S
C3559 C3558 1.385 . S
C3560 C3558 1.478 . S
C3560 C3562 1.381 . S
C3560 C3566 1.383 . S
C3561 C3557 1.495 . S
C3561 H3567 0.959 . S
C3561 H3568 0.961 . S
C3561 H3569 0.960 . S
C3562 C3560 1.381 . S
C3562 C3563 1.394 . S
C3562 H3570 0.930 . S
C3563 C3562 1.394 . S
C3563 C3564 1.383 . S
C3563 H3571 0.929 . S
C3564 C3563 1.383 . S
C3564 C3565 1.377 . S
C3565 H3549 0.930 . S
C3565 C3564 1.377 . S
C3565 C3566 1.379 . S
C3566 H3550 0.931 . S
C3566 C3560 1.383 . S
C3566 C3565 1.379 . S
H3567 C3561 0.959 . S
H3568 C3561 0.961 . S
H3569 C3561 0.960 . S
H3570 C3562 0.930 . S
H3571 C3563 0.929 . S
H3572 C3580 0.929 . S
H3573 C3582 0.930 . S
H3574 C3584 0.930 . S
H3575 C3587 0.929 . S
H3576 C3590 0.930 . S
H3577 C3592 0.915 1_545 S
H3578 C3592 0.971 . S
H3579 C3592 0.939 1_545 S
C3580 H3572 0.929 . S
C3580 C3581 1.377 . S
C3580 C3582 1.384 . S
C3581 C3580 1.377 . S
C3581 C3587 1.390 . S
C3582 H3573 0.930 . S
C3582 C3580 1.384 . S
C3582 C3583 1.372 . S
C3583 C3582 1.372 . S
C3583 C3584 1.400 . S
C3583 C3588 1.490 . S
C3584 H3574 0.930 . S
C3584 C3583 1.400 . S
C3584 C3587 1.386 . S
H3585 C3601 0.930 . S
H3586 C3602 0.931 . S
C3587 H3575 0.929 . S
C3587 C3581 1.390 . S
C3587 C3584 1.386 . S
C3588 C3583 1.490 . S
C3588 C3590 1.395 . S
C3588 C3591 1.403 . S
H3589 C3595 0.930 . S
C3590 H3576 0.930 . S
C3590 C3588 1.395 . S
C3590 C3593 1.403 . S
C3591 C3588 1.403 . S
C3591 C3592 1.585 . S
C3591 C3595 1.400 . S
C3592 H3577 0.915 1_565 S
C3592 H3578 0.971 . S
C3592 H3579 0.939 1_565 S
C3592 C3591 1.585 . S
C3593 C3590 1.403 . S
C3593 C3594 1.392 . S
C3593 C3597 1.495 . S
C3594 C3593 1.392 . S
C3594 C3595 1.385 . S
C3594 C3596 1.478 . S
C3595 H3589 0.930 . S
C3595 C3591 1.400 . S
C3595 C3594 1.385 . S
C3596 C3594 1.478 . S
C3596 C3598 1.381 . S
C3596 C3602 1.383 . S
C3597 C3593 1.495 . S
C3597 H3603 0.959 . S
C3597 H3604 0.961 . S
C3597 H3605 0.960 . S
C3598 C3596 1.381 . S
C3598 C3599 1.394 . S
C3598 H3606 0.930 . S
C3599 C3598 1.394 . S
C3599 C3600 1.383 . S
C3599 H3607 0.929 . S
C3600 C3599 1.383 . S
C3600 C3601 1.377 . S
C3601 H3585 0.930 . S
C3601 C3600 1.377 . S
C3601 C3602 1.379 . S
C3602 H3586 0.931 . S
C3602 C3596 1.383 . S
C3602 C3601 1.379 . S
H3603 C3597 0.959 . S
H3604 C3597 0.961 . S
H3605 C3597 0.960 . S
H3606 C3598 0.930 . S
H3607 C3599 0.929 . S
H3608 C3616 0.929 . S
H3609 C3618 0.930 . S
H3610 C3620 0.930 . S
H3611 C3623 0.929 . S
H3612 C3626 0.930 . S
H3613 C3628 0.960 . S
H3614 C3628 0.960 . S
H3615 C3628 0.960 . S
C3616 H3608 0.929 . S
C3616 C3617 1.377 . S
C3616 C3618 1.384 . S
C3617 C3616 1.377 . S
C3617 C3623 1.390 . S
C3618 H3609 0.930 . S
C3618 C3616 1.384 . S
C3618 C3619 1.372 . S
C3619 C3618 1.372 . S
C3619 C3620 1.400 . S
C3619 C3624 1.490 . S
C3620 H3610 0.930 . S
C3620 C3619 1.400 . S
C3620 C3623 1.386 . S
H3621 C3637 0.930 . S
H3622 C3638 0.931 . S
C3623 H3611 0.929 . S
C3623 C3617 1.390 . S
C3623 C3620 1.386 . S
C3624 C3619 1.490 . S
C3624 C3626 1.395 . S
C3624 C3627 1.403 . S
H3625 C3631 0.930 . S
C3626 H3612 0.930 . S
C3626 C3624 1.395 . S
C3626 C3629 1.403 . S
C3627 C3624 1.403 . S
C3627 C3628 1.524 . S
C3627 C3631 1.400 . S
C3628 H3613 0.960 . S
C3628 H3614 0.960 . S
C3628 H3615 0.960 . S
C3628 C3627 1.524 . S
C3629 C3626 1.403 . S
C3629 C3630 1.392 . S
C3629 C3633 1.495 . S
C3630 C3629 1.392 . S
C3630 C3631 1.385 . S
C3630 C3632 1.478 . S
C3631 H3625 0.930 . S
C3631 C3627 1.400 . S
C3631 C3630 1.385 . S
C3632 C3630 1.478 . S
C3632 C3634 1.381 . S
C3632 C3638 1.383 . S
C3633 C3629 1.495 . S
C3633 H3639 0.959 . S
C3633 H3640 0.961 . S
C3633 H3641 0.960 . S
C3634 C3632 1.381 . S
C3634 C3635 1.394 . S
C3634 H3642 0.930 . S
C3635 C3634 1.394 . S
C3635 C3636 1.383 . S
C3635 H3643 0.929 . S
C3636 C3635 1.383 . S
C3636 C3637 1.377 . S
C3637 H3621 0.930 . S
C3637 C3636 1.377 . S
C3637 C3638 1.379 . S
C3638 H3622 0.931 . S
C3638 C3632 1.383 . S
C3638 C3637 1.379 . S
H3639 C3633 0.959 . S
H3640 C3633 0.961 . S
H3641 C3633 0.960 . S
H3642 C3634 0.930 . S
H3643 C3635 0.929 . S
H3644 C3652 0.929 . S
H3645 C3654 0.930 . S
H3646 C3656 0.930 . S
H3647 C3659 0.929 . S
H3648 C3662 0.930 . S
H3649 C3664 0.960 . S
H3650 C3664 0.960 . S
H3651 C3664 0.960 . S
C3652 H3644 0.929 . S
C3652 C3653 1.377 . S
C3652 C3654 1.384 . S
C3653 C3652 1.377 . S
C3653 C3659 1.390 . S
C3654 H3645 0.930 . S
C3654 C3652 1.384 . S
C3654 C3655 1.372 . S
C3655 C3654 1.372 . S
C3655 C3656 1.400 . S
C3655 C3660 1.490 . S
C3656 H3646 0.930 . S
C3656 C3655 1.400 . S
C3656 C3659 1.386 . S
H3657 C3673 0.930 . S
H3658 C3674 0.931 . S
C3659 H3647 0.929 . S
C3659 C3653 1.390 . S
C3659 C3656 1.386 . S
C3660 C3655 1.490 . S
C3660 C3662 1.395 . S
C3660 C3663 1.403 . S
H3661 C3667 0.930 . S
C3662 H3648 0.930 . S
C3662 C3660 1.395 . S
C3662 C3665 1.403 1_455 S
C3663 C3660 1.403 . S
C3663 C3664 1.524 . S
C3663 C3667 1.400 1_455 S
C3664 H3649 0.960 . S
C3664 H3650 0.960 . S
C3664 H3651 0.960 . S
C3664 C3663 1.524 . S
C3665 C3662 1.403 1_655 S
C3665 C3666 1.392 . S
C3665 C3669 1.495 . S
C3666 C3665 1.392 . S
C3666 C3667 1.385 . S
C3666 C3668 1.478 . S
C3667 H3661 0.930 . S
C3667 C3663 1.400 1_655 S
C3667 C3666 1.385 . S
C3668 C3666 1.478 . S
C3668 C3670 1.381 . S
C3668 C3674 1.383 . S
C3669 C3665 1.495 . S
C3669 H3675 0.959 . S
C3669 H3676 0.961 . S
C3669 H3677 0.960 . S
C3670 C3668 1.381 . S
C3670 C3671 1.394 . S
C3670 H3678 0.930 . S
C3671 C3670 1.394 . S
C3671 C3672 1.383 . S
C3671 H3679 0.929 . S
C3672 C3671 1.383 . S
C3672 C3673 1.377 . S
C3673 H3657 0.930 . S
C3673 C3672 1.377 . S
C3673 C3674 1.379 . S
C3674 H3658 0.931 . S
C3674 C3668 1.383 . S
C3674 C3673 1.379 . S
H3675 C3669 0.959 . S
H3676 C3669 0.961 . S
H3677 C3669 0.960 . S
H3678 C3670 0.930 . S
H3679 C3671 0.929 . S
H3680 C3688 0.929 . S
H3681 C3690 0.930 . S
H3682 C3692 0.930 . S
H3683 C3695 0.929 . S
H3684 C3698 0.930 . S
H3685 C3700 0.960 . S
H3686 C3700 0.960 . S
H3687 C3700 0.960 . S
C3688 H3680 0.929 . S
C3688 C3689 1.377 . S
C3688 C3690 1.384 . S
C3689 C3688 1.377 . S
C3689 C3695 1.390 . S
C3690 H3681 0.930 . S
C3690 C3688 1.384 . S
C3690 C3691 1.372 . S
C3691 C3690 1.372 . S
C3691 C3692 1.400 . S
C3691 C3696 1.490 . S
C3692 H3682 0.930 . S
C3692 C3691 1.400 . S
C3692 C3695 1.386 . S
H3693 C3709 0.930 . S
H3694 C3710 0.931 . S
C3695 H3683 0.929 . S
C3695 C3689 1.390 . S
C3695 C3692 1.386 . S
C3696 C3691 1.490 . S
C3696 C3698 1.395 . S
C3696 C3699 1.403 . S
H3697 C3703 0.930 . S
C3698 H3684 0.930 . S
C3698 C3696 1.395 . S
C3698 C3701 1.403 . S
C3699 C3696 1.403 . S
C3699 C3700 1.524 . S
C3699 C3703 1.400 . S
C3700 H3685 0.960 . S
C3700 H3686 0.960 . S
C3700 H3687 0.960 . S
C3700 C3699 1.524 . S
C3701 C3698 1.403 . S
C3701 C3702 1.392 . S
C3701 C3705 1.495 . S
C3702 C3701 1.392 . S
C3702 C3703 1.385 . S
C3702 C3704 1.478 . S
C3703 H3697 0.930 . S
C3703 C3699 1.400 . S
C3703 C3702 1.385 . S
C3704 C3702 1.478 . S
C3704 C3706 1.381 . S
C3704 C3710 1.383 . S
C3705 C3701 1.495 . S
C3705 H3711 0.959 . S
C3705 H3712 0.961 . S
C3705 H3713 0.960 . S
C3706 C3704 1.381 . S
C3706 C3707 1.394 . S
C3706 H3714 0.930 . S
C3707 C3706 1.394 . S
C3707 C3708 1.383 . S
C3707 H3715 0.929 . S
C3708 C3707 1.383 . S
C3708 C3709 1.377 . S
C3709 H3693 0.930 . S
C3709 C3708 1.377 . S
C3709 C3710 1.379 . S
C3710 H3694 0.931 . S
C3710 C3704 1.383 . S
C3710 C3709 1.379 . S
H3711 C3705 0.959 . S
H3712 C3705 0.961 . S
H3713 C3705 0.960 . S
H3714 C3706 0.930 . S
H3715 C3707 0.929 . S
H3716 C3724 0.929 . S
H3717 C3726 0.930 . S
H3718 C3728 0.930 . S
H3719 C3731 0.929 . S
H3720 C3734 0.930 . S
H3721 C3736 0.960 . S
H3722 C3736 0.960 . S
H3723 C3736 0.960 . S
C3724 H3716 0.929 . S
C3724 C3725 1.377 . S
C3724 C3726 1.384 . S
C3725 C3724 1.377 . S
C3725 C3731 1.390 . S
C3726 H3717 0.930 . S
C3726 C3724 1.384 . S
C3726 C3727 1.372 . S
C3727 C3726 1.372 . S
C3727 C3728 1.400 . S
C3727 C3732 1.490 . S
C3728 H3718 0.930 . S
C3728 C3727 1.400 . S
C3728 C3731 1.386 . S
H3729 C3745 0.930 . S
H3730 C3746 0.931 . S
C3731 H3719 0.929 . S
C3731 C3725 1.390 . S
C3731 C3728 1.386 . S
C3732 C3727 1.490 . S
C3732 C3734 1.395 . S
C3732 C3735 1.403 . S
H3733 C3739 0.930 . S
C3734 H3720 0.930 . S
C3734 C3732 1.395 . S
C3734 C3737 1.403 . S
C3735 C3732 1.403 . S
C3735 C3736 1.524 . S
C3735 C3739 1.400 . S
C3736 H3721 0.960 . S
C3736 H3722 0.960 . S
C3736 H3723 0.960 . S
C3736 C3735 1.524 . S
C3737 C3734 1.403 . S
C3737 C3738 1.392 . S
C3737 C3741 1.495 . S
C3738 C3737 1.392 . S
C3738 C3739 1.385 . S
C3738 C3740 1.478 . S
C3739 H3733 0.930 . S
C3739 C3735 1.400 . S
C3739 C3738 1.385 . S
C3740 C3738 1.478 . S
C3740 C3742 1.381 . S
C3740 C3746 1.383 . S
C3741 C3737 1.495 . S
C3741 H3747 0.959 . S
C3741 H3748 0.961 . S
C3741 H3749 0.960 . S
C3742 C3740 1.381 . S
C3742 C3743 1.394 . S
C3742 H3750 0.930 . S
C3743 C3742 1.394 . S
C3743 C3744 1.383 . S
C3743 H3751 0.929 . S
C3744 C3743 1.383 . S
C3744 C3745 1.377 . S
C3745 H3729 0.930 . S
C3745 C3744 1.377 . S
C3745 C3746 1.379 . S
C3746 H3730 0.931 . S
C3746 C3740 1.383 . S
C3746 C3745 1.379 . S
H3747 C3741 0.959 . S
H3748 C3741 0.961 . S
H3749 C3741 0.960 . S
H3750 C3742 0.930 . S
H3751 C3743 0.929 . S
H3752 C3760 0.929 . S
H3753 C3762 0.930 . S
H3754 C3764 0.930 . S
H3755 C3767 0.929 . S
H3756 C3770 0.930 . S
H3757 C3772 0.960 . S
H3758 C3772 0.960 . S
H3759 C3772 0.960 . S
C3760 H3752 0.929 . S
C3760 C3761 1.377 . S
C3760 C3762 1.384 . S
C3761 C3760 1.377 . S
C3761 C3767 1.390 . S
C3762 H3753 0.930 . S
C3762 C3760 1.384 . S
C3762 C3763 1.372 . S
C3763 C3762 1.372 . S
C3763 C3764 1.400 . S
C3763 C3768 1.490 . S
C3764 H3754 0.930 . S
C3764 C3763 1.400 . S
C3764 C3767 1.386 . S
H3765 C3781 0.930 . S
H3766 C3782 0.931 . S
C3767 H3755 0.929 . S
C3767 C3761 1.390 . S
C3767 C3764 1.386 . S
C3768 C3763 1.490 . S
C3768 C3770 1.395 . S
C3768 C3771 1.403 . S
H3769 C3775 0.930 . S
C3770 H3756 0.930 . S
C3770 C3768 1.395 . S
C3770 C3773 1.403 . S
C3771 C3768 1.403 . S
C3771 C3772 1.524 . S
C3771 C3775 1.400 . S
C3772 H3757 0.960 . S
C3772 H3758 0.960 . S
C3772 H3759 0.960 . S
C3772 C3771 1.524 . S
C3773 C3770 1.403 . S
C3773 C3774 1.392 . S
C3773 C3777 1.495 . S
C3774 C3773 1.392 . S
C3774 C3775 1.385 . S
C3774 C3776 1.478 . S
C3775 H3769 0.930 . S
C3775 C3771 1.400 . S
C3775 C3774 1.385 . S
C3776 C3774 1.478 . S
C3776 C3778 1.381 . S
C3776 C3782 1.383 . S
C3777 C3773 1.495 . S
C3777 H3783 0.959 . S
C3777 H3784 0.961 . S
C3777 H3785 0.960 . S
C3778 C3776 1.381 . S
C3778 C3779 1.394 . S
C3778 H3786 0.930 . S
C3779 C3778 1.394 . S
C3779 C3780 1.383 . S
C3779 H3787 0.929 . S
C3780 C3779 1.383 . S
C3780 C3781 1.377 . S
C3781 H3765 0.930 . S
C3781 C3780 1.377 . S
C3781 C3782 1.379 . S
C3782 H3766 0.931 . S
C3782 C3776 1.383 . S
C3782 C3781 1.379 . S
H3783 C3777 0.959 . S
H3784 C3777 0.961 . S
H3785 C3777 0.960 . S
H3786 C3778 0.930 . S
H3787 C3779 0.929 . S
H3788 C3796 0.929 . S
H3789 C3798 0.930 . S
H3790 C3800 0.930 . S
H3791 C3803 0.929 . S
H3792 C3806 0.930 . S
H3793 C3808 0.960 . S
H3794 C3808 0.960 . S
H3795 C3808 0.960 . S
C3796 H3788 0.929 . S
C3796 C3797 1.377 . S
C3796 C3798 1.384 . S
C3797 C3796 1.377 . S
C3797 C3803 1.390 . S
C3798 H3789 0.930 . S
C3798 C3796 1.384 . S
C3798 C3799 1.372 . S
C3799 C3798 1.372 . S
C3799 C3800 1.400 . S
C3799 C3804 1.490 . S
C3800 H3790 0.930 . S
C3800 C3799 1.400 . S
C3800 C3803 1.386 . S
H3801 C3817 0.930 . S
H3802 C3818 0.931 . S
C3803 H3791 0.929 . S
C3803 C3797 1.390 . S
C3803 C3800 1.386 . S
C3804 C3799 1.490 . S
C3804 C3806 1.395 . S
C3804 C3807 1.403 . S
H3805 C3811 0.930 . S
C3806 H3792 0.930 . S
C3806 C3804 1.395 . S
C3806 C3809 1.403 . S
C3807 C3804 1.403 . S
C3807 C3808 1.524 . S
C3807 C3811 1.400 . S
C3808 H3793 0.960 . S
C3808 H3794 0.960 . S
C3808 H3795 0.960 . S
C3808 C3807 1.524 . S
C3809 C3806 1.403 . S
C3809 C3810 1.392 . S
C3809 C3813 1.495 . S
C3810 C3809 1.392 . S
C3810 C3811 1.385 . S
C3810 C3812 1.478 . S
C3811 H3805 0.930 . S
C3811 C3807 1.400 . S
C3811 C3810 1.385 . S
C3812 C3810 1.478 . S
C3812 C3814 1.381 . S
C3812 C3818 1.383 . S
C3813 C3809 1.495 . S
C3813 H3819 0.959 . S
C3813 H3820 0.961 . S
C3813 H3821 0.960 . S
C3814 C3812 1.381 . S
C3814 C3815 1.394 . S
C3814 H3822 0.930 . S
C3815 C3814 1.394 . S
C3815 C3816 1.383 . S
C3815 H3823 0.929 . S
C3816 C3815 1.383 . S
C3816 C3817 1.377 . S
C3817 H3801 0.930 . S
C3817 C3816 1.377 . S
C3817 C3818 1.379 . S
C3818 H3802 0.931 . S
C3818 C3812 1.383 . S
C3818 C3817 1.379 . S
H3819 C3813 0.959 . S
H3820 C3813 0.961 . S
H3821 C3813 0.960 . S
H3822 C3814 0.930 . S
H3823 C3815 0.929 . S
H3824 C3832 0.929 . S
H3825 C3834 0.930 . S
H3826 C3836 0.930 . S
H3827 C3839 0.929 . S
H3828 C3842 0.930 . S
H3829 C3844 0.960 . S
H3830 C3844 0.960 . S
H3831 C3844 0.960 . S
C3832 H3824 0.929 . S
C3832 C3833 1.377 . S
C3832 C3834 1.384 . S
C3833 C3832 1.377 . S
C3833 C3839 1.390 . S
C3834 H3825 0.930 . S
C3834 C3832 1.384 . S
C3834 C3835 1.372 . S
C3835 C3834 1.372 . S
C3835 C3836 1.400 . S
C3835 C3840 1.490 . S
C3836 H3826 0.930 . S
C3836 C3835 1.400 . S
C3836 C3839 1.386 . S
H3837 C3853 0.930 . S
H3838 C3854 0.931 . S
C3839 H3827 0.929 . S
C3839 C3833 1.390 . S
C3839 C3836 1.386 . S
C3840 C3835 1.490 . S
C3840 C3842 1.395 . S
C3840 C3843 1.403 . S
H3841 C3847 0.930 . S
C3842 H3828 0.930 . S
C3842 C3840 1.395 . S
C3842 C3845 1.403 . S
C3843 C3840 1.403 . S
C3843 C3844 1.524 . S
C3843 C3847 1.400 . S
C3844 H3829 0.960 . S
C3844 H3830 0.960 . S
C3844 H3831 0.960 . S
C3844 C3843 1.524 . S
C3845 C3842 1.403 . S
C3845 C3846 1.392 . S
C3845 C3849 1.495 . S
C3846 C3845 1.392 . S
C3846 C3847 1.385 . S
C3846 C3848 1.478 . S
C3847 H3841 0.930 . S
C3847 C3843 1.400 . S
C3847 C3846 1.385 . S
C3848 C3846 1.478 . S
C3848 C3850 1.381 . S
C3848 C3854 1.383 . S
C3849 C3845 1.495 . S
C3849 H3855 0.959 . S
C3849 H3856 0.961 . S
C3849 H3857 0.960 . S
C3850 C3848 1.381 . S
C3850 C3851 1.394 . S
C3850 H3858 0.930 . S
C3851 C3850 1.394 . S
C3851 C3852 1.383 . S
C3851 H3859 0.929 . S
C3852 C3851 1.383 . S
C3852 C3853 1.377 . S
C3853 H3837 0.930 . S
C3853 C3852 1.377 . S
C3853 C3854 1.379 . S
C3854 H3838 0.931 . S
C3854 C3848 1.383 . S
C3854 C3853 1.379 . S
H3855 C3849 0.959 . S
H3856 C3849 0.961 . S
H3857 C3849 0.960 . S
H3858 C3850 0.930 . S
H3859 C3851 0.929 . S
H3860 C3868 0.929 . S
H3861 C3870 0.930 . S
H3862 C3872 0.930 . S
H3863 C3875 0.929 . S
H3864 C3878 0.930 . S
H3865 C3880 0.960 . S
H3866 C3880 0.960 . S
H3867 C3880 0.960 . S
C3868 H3860 0.929 . S
C3868 C3869 1.377 . S
C3868 C3870 1.384 . S
C3869 C3868 1.377 . S
C3869 C3875 1.390 . S
C3870 H3861 0.930 . S
C3870 C3868 1.384 . S
C3870 C3871 1.372 . S
C3871 C3870 1.372 . S
C3871 C3872 1.400 . S
C3871 C3876 1.490 . S
C3872 H3862 0.930 . S
C3872 C3871 1.400 . S
C3872 C3875 1.386 . S
H3873 C3889 0.930 . S
H3874 C3890 0.931 . S
C3875 H3863 0.929 . S
C3875 C3869 1.390 . S
C3875 C3872 1.386 . S
C3876 C3871 1.490 . S
C3876 C3878 1.395 . S
C3876 C3879 1.403 . S
H3877 C3883 0.930 . S
C3878 H3864 0.930 . S
C3878 C3876 1.395 . S
C3878 C3881 1.403 1_455 S
C3879 C3876 1.403 . S
C3879 C3880 1.524 . S
C3879 C3883 1.400 1_455 S
C3880 H3865 0.960 . S
C3880 H3866 0.960 . S
C3880 H3867 0.960 . S
C3880 C3879 1.524 . S
C3881 C3878 1.403 1_655 S
C3881 C3882 1.392 . S
C3881 C3885 1.495 . S
C3882 C3881 1.392 . S
C3882 C3883 1.385 . S
C3882 C3884 1.478 . S
C3883 H3877 0.930 . S
C3883 C3879 1.400 1_655 S
C3883 C3882 1.385 . S
C3884 C3882 1.478 . S
C3884 C3886 1.381 . S
C3884 C3890 1.383 . S
C3885 C3881 1.495 . S
C3885 H3891 0.959 . S
C3885 H3892 0.961 . S
C3885 H3893 0.960 . S
C3886 C3884 1.381 . S
C3886 C3887 1.394 . S
C3886 H3894 0.930 . S
C3887 C3886 1.394 . S
C3887 C3888 1.383 . S
C3887 H3895 0.929 . S
C3888 C3887 1.383 . S
C3888 C3889 1.377 . S
C3889 H3873 0.930 . S
C3889 C3888 1.377 . S
C3889 C3890 1.379 . S
C3890 H3874 0.931 . S
C3890 C3884 1.383 . S
C3890 C3889 1.379 . S
H3891 C3885 0.959 . S
H3892 C3885 0.961 . S
H3893 C3885 0.960 . S
H3894 C3886 0.930 . S
H3895 C3887 0.929 . S
H3896 C3904 0.929 . S
H3897 C3906 0.930 . S
H3898 C3908 0.930 . S
H3899 C3911 0.929 . S
H3900 C3914 0.930 . S
H3901 C3916 0.960 . S
H3902 C3916 0.960 . S
H3903 C3916 0.960 . S
C3904 H3896 0.929 . S
C3904 C3905 1.377 . S
C3904 C3906 1.384 . S
C3905 C3904 1.377 . S
C3905 C3911 1.390 . S
C3906 H3897 0.930 . S
C3906 C3904 1.384 . S
C3906 C3907 1.372 . S
C3907 C3906 1.372 . S
C3907 C3908 1.400 . S
C3907 C3912 1.490 . S
C3908 H3898 0.930 . S
C3908 C3907 1.400 . S
C3908 C3911 1.386 . S
H3909 C3925 0.930 . S
H3910 C3926 0.931 . S
C3911 H3899 0.929 . S
C3911 C3905 1.390 . S
C3911 C3908 1.386 . S
C3912 C3907 1.490 . S
C3912 C3914 1.395 . S
C3912 C3915 1.403 . S
H3913 C3919 0.930 . S
C3914 H3900 0.930 . S
C3914 C3912 1.395 . S
C3914 C3917 1.403 1_455 S
C3915 C3912 1.403 . S
C3915 C3916 1.524 . S
C3915 C3919 1.400 1_455 S
C3916 H3901 0.960 . S
C3916 H3902 0.960 . S
C3916 H3903 0.960 . S
C3916 C3915 1.524 . S
C3917 C3914 1.403 1_655 S
C3917 C3918 1.392 . S
C3917 C3921 1.495 . S
C3918 C3917 1.392 . S
C3918 C3919 1.385 . S
C3918 C3920 1.478 . S
C3919 H3913 0.930 . S
C3919 C3915 1.400 1_655 S
C3919 C3918 1.385 . S
C3920 C3918 1.478 . S
C3920 C3922 1.381 . S
C3920 C3926 1.383 . S
C3921 C3917 1.495 . S
C3921 H3927 0.959 . S
C3921 H3928 0.961 . S
C3921 H3929 0.960 . S
C3922 C3920 1.381 . S
C3922 C3923 1.394 . S
C3922 H3930 0.930 . S
C3923 C3922 1.394 . S
C3923 C3924 1.383 . S
C3923 H3931 0.929 . S
C3924 C3923 1.383 . S
C3924 C3925 1.377 . S
C3925 H3909 0.930 . S
C3925 C3924 1.377 . S
C3925 C3926 1.379 . S
C3926 H3910 0.931 . S
C3926 C3920 1.383 . S
C3926 C3925 1.379 . S
H3927 C3921 0.959 . S
H3928 C3921 0.961 . S
H3929 C3921 0.960 . S
H3930 C3922 0.930 . S
H3931 C3923 0.929 . S
H3932 C3940 0.929 . S
H3933 C3942 0.930 . S
H3934 C3944 0.930 . S
H3935 C3947 0.929 . S
H3936 C3950 0.930 . S
H3937 C3952 0.960 . S
H3938 C3952 0.960 . S
H3939 C3952 0.960 . S
C3940 H3932 0.929 . S
C3940 C3941 1.377 . S
C3940 C3942 1.384 . S
C3941 C3940 1.377 . S
C3941 C3947 1.390 . S
C3942 H3933 0.930 . S
C3942 C3940 1.384 . S
C3942 C3943 1.372 . S
C3943 C3942 1.372 . S
C3943 C3944 1.400 . S
C3943 C3948 1.490 . S
C3944 H3934 0.930 . S
C3944 C3943 1.400 . S
C3944 C3947 1.386 . S
H3945 C3961 0.930 . S
H3946 C3962 0.931 . S
C3947 H3935 0.929 . S
C3947 C3941 1.390 . S
C3947 C3944 1.386 . S
C3948 C3943 1.490 . S
C3948 C3950 1.395 . S
C3948 C3951 1.403 . S
H3949 C3955 0.930 . S
C3950 H3936 0.930 . S
C3950 C3948 1.395 . S
C3950 C3953 1.403 . S
C3951 C3948 1.403 . S
C3951 C3952 1.524 . S
C3951 C3955 1.400 . S
C3952 H3937 0.960 . S
C3952 H3938 0.960 . S
C3952 H3939 0.960 . S
C3952 C3951 1.524 . S
C3953 C3950 1.403 . S
C3953 C3954 1.392 . S
C3953 C3957 1.495 . S
C3954 C3953 1.392 . S
C3954 C3955 1.385 . S
C3954 C3956 1.478 . S
C3955 H3949 0.930 . S
C3955 C3951 1.400 . S
C3955 C3954 1.385 . S
C3956 C3954 1.478 . S
C3956 C3958 1.381 . S
C3956 C3962 1.383 . S
C3957 C3953 1.495 . S
C3957 H3963 0.959 . S
C3957 H3964 0.961 . S
C3957 H3965 0.960 . S
C3958 C3956 1.381 . S
C3958 C3959 1.394 . S
C3958 H3966 0.930 . S
C3959 C3958 1.394 . S
C3959 C3960 1.383 . S
C3959 H3967 0.929 . S
C3960 C3959 1.383 . S
C3960 C3961 1.377 . S
C3961 H3945 0.930 . S
C3961 C3960 1.377 . S
C3961 C3962 1.379 . S
C3962 H3946 0.931 . S
C3962 C3956 1.383 . S
C3962 C3961 1.379 . S
H3963 C3957 0.959 . S
H3964 C3957 0.961 . S
H3965 C3957 0.960 . S
H3966 C3958 0.930 . S
H3967 C3959 0.929 . S
C1097 C43 1.632 . S
C1116 C33 1.556 . S
C1133 C67 1.572 . S
C1152 C77 1.621 . S
C1169 C101 1.562 . S
C1188 C111 1.619 . S
C1205 C135 1.560 . S
C1224 C9 1.628 . S
C1241 C169 1.572 . S
C1260 C247 1.619 . S
C1277 C145 1.632 . S
C1296 C203 1.562 . S
C1313 C237 1.567 . S
C1332 C179 1.639 . S
C1349 C271 1.572 . S
C1368 C213 1.620 . S
C1385 C315 1.627 . S
C1404 C305 1.555 . S
C1421 C349 1.626 . S
C1440 C339 1.582 . S
C1457 C373 1.571 . S
C1476 C383 1.627 . S
C1493 C281 1.626 . S
C1512 C407 1.579 . S
C1529 C441 1.561 . S
C1548 C519 1.638 . S
C1565 C475 1.570 . S
C1584 C417 1.629 . S
C1601 C451 1.631 . S
C1620 C509 1.560 . S
C1637 C485 1.627 . S
C1656 C543 1.591 . S
C1673 C587 1.626 . S
C1692 C577 1.566 . S
C1709 C611 1.571 . S
C1728 C621 1.629 . S
C1745 C655 1.627 . S
C1764 C645 1.589 . S
C1781 C553 1.626 . S
C1800 C679 1.580 . S
C1817 C791 1.626 . S
C1836 C713 1.584 . S
C1853 C747 1.561 . S
C1872 C689 1.621 . S
C1889 C723 1.630 . S
C1908 C781 1.583 . S
C1925 C815 1.572 . S
C1944 C757 1.626 . S
C1961 C859 1.632 . S
C1980 C849 1.537 . S
C1997 C883 1.572 . S
C2016 C893 1.614 . S
C2033 C917 1.565 . S
C2052 C927 1.638 . S
C2069 C951 1.572 . S
C2088 C825 1.614 . S
C2105 C1063 1.626 . S
C2124 C985 1.565 . S
C2141 C961 1.629 . S
C2160 C1019 1.587 . S
C2177 C995 1.629 . S
C2196 C1053 1.582 . S
C2213 C1029 1.630 . S
C2232 C1087 1.573 . S
C2249 C209 0.809 . S
C2268 C5 0.768 . S
C2285 C39 0.811 . S
C2304 C243 0.771 . S
C2321 C73 0.804 . S
C2340 C141 0.833 . S
C2357 C107 0.802 . S
C2376 C175 0.786 . S
C2393 C481 0.811 . S
C2412 C277 0.837 . S
C2429 C515 0.799 . S
C2448 C311 0.775 . S
C2465 C345 0.805 . S
C2484 C413 0.812 . S
C2501 C447 0.811 . S
C2520 C379 0.837 . S
C2537 C549 0.800 . S
C2556 C753 0.793 . S
C2573 C583 0.806 . S
C2592 C787 0.771 . S
C2609 C685 0.806 . S
C2628 C617 0.826 . S
C2645 C719 0.811 . S
C2664 C651 0.776 . S
C2681 C1025 0.812 . S
C2700 C821 0.837 . S
C2717 C1059 0.809 . S
C2736 C855 0.829 . S
C2753 C957 0.801 . S
C2772 C889 0.785 . S
C2789 C991 0.811 . S
C2808 C923 0.838 . S
C2825 C172 0.414 1_545 S
C2844 C2 0.438 . S
C2861 C36 0.392 1_545 S
C2880 C206 0.424 . S
C2897 C70 0.416 . S
C2916 C240 0.419 1_565 S
C2933 C104 0.395 1_565 S
C2952 C138 0.454 . S
C2969 C444 0.413 1_565 S
C2988 C274 0.444 . S
C3005 C308 0.411 1_565 S
C3024 C478 0.427 . S
C3041 C512 0.412 1_545 S
C3060 C342 0.435 . S
C3077 C376 0.403 1_545 S
C3096 C410 0.386 . S
C3113 C546 0.417 . S
C3132 C716 0.380 . S
C3149 C750 0.415 . S
C3168 C580 0.420 . S
C3185 C784 0.414 . S
C3204 C614 0.418 . S
C3221 C648 0.434 . S
C3240 C682 0.476 . S
C3257 C818 0.415 . S
C3276 C988 0.391 . S
C3293 C1022 0.415 . S
C3312 C852 0.421 . S
C3329 C1056 0.421 . S
C3348 C886 0.463 . S
C3365 C954 0.433 . S
C3384 C920 0.415 . S
C3401 C20 1.529 . S
C3420 C1040 1.535 . S
C3437 C530 1.531 . S
C3456 C54 1.518 . S
C3473 C972 1.527 . S
C3492 C88 1.509 . S
C3509 C122 1.524 . S
C3528 C462 1.538 . S
C3545 C156 1.528 . S
C3564 C904 1.537 . S
C3581 C394 1.524 . S
C3600 C190 1.539 . S
C3617 C224 1.529 . S
C3636 C836 1.532 . S
C3653 C258 1.531 . S
C3672 C326 1.514 . S
C3689 C292 1.530 . S
C3708 C768 1.507 . S
C3725 C360 1.531 . S
C3744 C700 1.514 . S
C3761 C428 1.524 . S
C3780 C632 1.526 . S
C3797 C496 1.524 . S
C3816 C564 1.536 . S
C3833 C598 1.531 . S
C3852 C1074 1.516 . S
C3869 C1006 1.529 . S
C3888 C666 1.534 . S
C3905 C938 1.528 . S
C3924 C734 1.508 . S
C3941 C870 1.524 . S
C3960 C802 1.540 . S
