# Generated by pormake.
# Topology vcl, (7)-cn, num edge types: 1
# Building blocks:
#     Node 0, Type 0, BuildingBlock: NUHQUE_clean_sbu_2, # of connection points: 7
#     Node 1, Type 0, BuildingBlock: NUHQUE_clean_sbu_2, # of connection points: 7
#     Node 2, Type 0, BuildingBlock: NUHQUE_clean_sbu_2, # of connection points: 7
#     Node 3, Type 0, BuildingBlock: NUHQUE_clean_sbu_2, # of connection points: 7
#     Node 4, Type 0, BuildingBlock: NUHQUE_clean_sbu_2, # of connection points: 7
#     Node 5, Type 0, BuildingBlock: NUHQUE_clean_sbu_2, # of connection points: 7
#     Node 6, Type 0, BuildingBlock: NUHQUE_clean_sbu_2, # of connection points: 7
#     Node 7, Type 0, BuildingBlock: NUHQUE_clean_sbu_2, # of connection points: 7
#     Node 8, Type 0, BuildingBlock: NUHQUE_clean_sbu_2, # of connection points: 7
#     Node 9, Type 0, BuildingBlock: NUHQUE_clean_sbu_2, # of connection points: 7
#     Node 10, Type 0, BuildingBlock: NUHQUE_clean_sbu_2, # of connection points: 7
#     Node 11, Type 0, BuildingBlock: NUHQUE_clean_sbu_2, # of connection points: 7
#     Node 12, Type 0, BuildingBlock: NUHQUE_clean_sbu_2, # of connection points: 7
#     Node 13, Type 0, BuildingBlock: NUHQUE_clean_sbu_2, # of connection points: 7
#     Node 14, Type 0, BuildingBlock: NUHQUE_clean_sbu_2, # of connection points: 7
#     Node 15, Type 0, BuildingBlock: NUHQUE_clean_sbu_2, # of connection points: 7
#     Edge 16, Type (0, 0), BuildingBlock: EZIPEK_clean_linker_0, # of connection points: 2
#     Edge 17, Type (0, 0), BuildingBlock: EZIPEK_clean_linker_0, # of connection points: 2
#     Edge 18, Type (0, 0), BuildingBlock: EZIPEK_clean_linker_0, # of connection points: 2
#     Edge 19, Type (0, 0), BuildingBlock: EZIPEK_clean_linker_0, # of connection points: 2
#     Edge 20, Type (0, 0), BuildingBlock: EZIPEK_clean_linker_0, # of connection points: 2
#     Edge 21, Type (0, 0), BuildingBlock: EZIPEK_clean_linker_0, # of connection points: 2
#     Edge 22, Type (0, 0), BuildingBlock: EZIPEK_clean_linker_0, # of connection points: 2
#     Edge 23, Type (0, 0), BuildingBlock: EZIPEK_clean_linker_0, # of connection points: 2
#     Edge 24, Type (0, 0), BuildingBlock: EZIPEK_clean_linker_0, # of connection points: 2
#     Edge 25, Type (0, 0), BuildingBlock: EZIPEK_clean_linker_0, # of connection points: 2
#     Edge 26, Type (0, 0), BuildingBlock: EZIPEK_clean_linker_0, # of connection points: 2
#     Edge 27, Type (0, 0), BuildingBlock: EZIPEK_clean_linker_0, # of connection points: 2
#     Edge 28, Type (0, 0), BuildingBlock: EZIPEK_clean_linker_0, # of connection points: 2
#     Edge 29, Type (0, 0), BuildingBlock: EZIPEK_clean_linker_0, # of connection points: 2
#     Edge 30, Type (0, 0), BuildingBlock: EZIPEK_clean_linker_0, # of connection points: 2
#     Edge 31, Type (0, 0), BuildingBlock: EZIPEK_clean_linker_0, # of connection points: 2
#     Edge 32, Type (0, 0), BuildingBlock: EZIPEK_clean_linker_0, # of connection points: 2
#     Edge 33, Type (0, 0), BuildingBlock: EZIPEK_clean_linker_0, # of connection points: 2
#     Edge 34, Type (0, 0), BuildingBlock: EZIPEK_clean_linker_0, # of connection points: 2
#     Edge 35, Type (0, 0), BuildingBlock: EZIPEK_clean_linker_0, # of connection points: 2
#     Edge 36, Type (0, 0), BuildingBlock: EZIPEK_clean_linker_0, # of connection points: 2
#     Edge 37, Type (0, 0), BuildingBlock: EZIPEK_clean_linker_0, # of connection points: 2
#     Edge 38, Type (0, 0), BuildingBlock: EZIPEK_clean_linker_0, # of connection points: 2
#     Edge 39, Type (0, 0), BuildingBlock: EZIPEK_clean_linker_0, # of connection points: 2
#     Edge 40, Type (0, 0), BuildingBlock: EZIPEK_clean_linker_0, # of connection points: 2
#     Edge 41, Type (0, 0), BuildingBlock: EZIPEK_clean_linker_0, # of connection points: 2
#     Edge 42, Type (0, 0), BuildingBlock: EZIPEK_clean_linker_0, # of connection points: 2
#     Edge 43, Type (0, 0), BuildingBlock: EZIPEK_clean_linker_0, # of connection points: 2
#     Edge 44, Type (0, 0), BuildingBlock: EZIPEK_clean_linker_0, # of connection points: 2
#     Edge 45, Type (0, 0), BuildingBlock: EZIPEK_clean_linker_0, # of connection points: 2
#     Edge 46, Type (0, 0), BuildingBlock: EZIPEK_clean_linker_0, # of connection points: 2
#     Edge 47, Type (0, 0), BuildingBlock: EZIPEK_clean_linker_0, # of connection points: 2
#     Edge 48, Type (0, 0), BuildingBlock: EZIPEK_clean_linker_0, # of connection points: 2
#     Edge 49, Type (0, 0), BuildingBlock: EZIPEK_clean_linker_0, # of connection points: 2
#     Edge 50, Type (0, 0), BuildingBlock: EZIPEK_clean_linker_0, # of connection points: 2
#     Edge 51, Type (0, 0), BuildingBlock: EZIPEK_clean_linker_0, # of connection points: 2
#     Edge 52, Type (0, 0), BuildingBlock: EZIPEK_clean_linker_0, # of connection points: 2
#     Edge 53, Type (0, 0), BuildingBlock: EZIPEK_clean_linker_0, # of connection points: 2
#     Edge 54, Type (0, 0), BuildingBlock: EZIPEK_clean_linker_0, # of connection points: 2
#     Edge 55, Type (0, 0), BuildingBlock: EZIPEK_clean_linker_0, # of connection points: 2
#     Edge 56, Type (0, 0), BuildingBlock: EZIPEK_clean_linker_0, # of connection points: 2
#     Edge 57, Type (0, 0), BuildingBlock: EZIPEK_clean_linker_0, # of connection points: 2
#     Edge 58, Type (0, 0), BuildingBlock: EZIPEK_clean_linker_0, # of connection points: 2
#     Edge 59, Type (0, 0), BuildingBlock: EZIPEK_clean_linker_0, # of connection points: 2
#     Edge 60, Type (0, 0), BuildingBlock: EZIPEK_clean_linker_0, # of connection points: 2
#     Edge 61, Type (0, 0), BuildingBlock: EZIPEK_clean_linker_0, # of connection points: 2
#     Edge 62, Type (0, 0), BuildingBlock: EZIPEK_clean_linker_0, # of connection points: 2
#     Edge 63, Type (0, 0), BuildingBlock: EZIPEK_clean_linker_0, # of connection points: 2
#     Edge 64, Type (0, 0), BuildingBlock: EZIPEK_clean_linker_0, # of connection points: 2
#     Edge 65, Type (0, 0), BuildingBlock: EZIPEK_clean_linker_0, # of connection points: 2
#     Edge 66, Type (0, 0), BuildingBlock: EZIPEK_clean_linker_0, # of connection points: 2
#     Edge 67, Type (0, 0), BuildingBlock: EZIPEK_clean_linker_0, # of connection points: 2
#     Edge 68, Type (0, 0), BuildingBlock: EZIPEK_clean_linker_0, # of connection points: 2
#     Edge 69, Type (0, 0), BuildingBlock: EZIPEK_clean_linker_0, # of connection points: 2
#     Edge 70, Type (0, 0), BuildingBlock: EZIPEK_clean_linker_0, # of connection points: 2
#     Edge 71, Type (0, 0), BuildingBlock: EZIPEK_clean_linker_0, # of connection points: 2
# Relax obj value: 0.251
# Max RMSD: 0.260
# Mean RMSD: 0.260
data_MOF--net-vcl--node1-NUHQUE_clean_sbu_2--edge1-EZIPEK_clean_linker_0
_symmetry_space_group_name_H-M    P1
_symmetry_Int_Tables_number       1
_symmetry_cell_setting            triclinic
loop_
_symmetry_equiv_pos_as_xyz
'x, y, z'
_cell_length_a     49.353944
_cell_length_b     37.072075
_cell_length_c     25.087395
_cell_angle_alpha  90.214058
_cell_angle_beta   90.196534
_cell_angle_gamma 90.108586
loop_
_atom_site_label
_atom_site_type_symbol
_atom_site_fract_x
_atom_site_fract_y
_atom_site_fract_z
_atom_type_partial_charge
O0 O 0.35248 1.01362 0.09454 0.0
Tb1 Tb 0.3347 0.06705 0.07608 0.0
Eu2 Eu 0.27981 0.12988 0.03803 0.0
C3 C 0.33804 0.98418 0.10431 0.0
O4 O 0.31218 0.98368 0.09178 0.0
C5 C 0.28158 0.07662 0.13896 0.0
O6 O 0.25579 0.18275 0.03213 0.0
C7 C 0.26344 0.08205 0.96738 0.0
C8 C 0.2676 0.21431 0.04184 0.0
O9 O 0.2933 0.21476 0.05562 0.0
C10 C 0.339 0.12701 0.99091 0.0
C11 C 0.24062 0.07853 0.92945 0.0
C12 C 0.24197 0.0557 0.88408 0.0
C13 C 0.22047 0.05513 0.84656 0.0
C14 C 0.19801 0.07746 0.85503 0.0
C15 C 0.19702 0.10061 0.89926 0.0
C16 C 0.21804 0.10073 0.93654 0.0
O17 O 0.29465 0.05425 0.10728 0.0
O18 O 0.27696 0.11026 0.12404 0.0
O19 O 0.37044 0.08096 0.12252 0.0
O20 O 0.33715 0.11624 0.12454 0.0
C21 C 0.36154 0.111 0.14264 0.0
O22 O 0.32342 0.14538 1.02378 0.0
O23 O 0.34173 0.09152 0.9969 0.0
O24 O 0.25719 0.08089 1.01815 0.0
O25 O 0.28069 0.10795 0.95708 0.0
H26 H 0.25977 0.03927 0.87735 0.0
H27 H 0.18195 0.07845 0.82542 0.0
H28 H 0.21748 0.11968 0.9696 0.0
O29 O 0.62884 0.05605 0.08567 0.0
Tb30 Tb 0.6474 1.00222 0.07259 0.0
Eu31 Eu 0.70174 0.94023 0.04631 0.0
C32 C 0.6422 0.08392 0.1064 0.0
O33 O 0.66871 0.08261 0.10975 0.0
C34 C 0.69697 0.99287 0.14616 0.0
O35 O 0.72323 0.88563 0.03976 0.0
C36 C 0.72454 0.98731 0.98264 0.0
C37 C 0.71042 0.85531 0.05188 0.0
O38 O 0.68523 0.85709 0.06838 0.0
C39 C 0.64455 0.94182 0.98565 0.0
C40 C 0.74433 0.98533 0.93817 0.0
C41 C 0.7417 1.00623 0.89118 0.0
C42 C 0.76129 1.00348 0.85009 0.0
C43 C 0.78294 0.97939 0.85621 0.0
C44 C 0.78554 0.95877 0.90256 0.0
C45 C 0.76645 0.96199 0.94317 0.0
O46 O 0.68581 1.01521 0.11192 0.0
O47 O 0.70011 0.95864 0.13306 0.0
O48 O 0.61042 0.99045 0.11576 0.0
O49 O 0.64197 0.95254 0.11838 0.0
C50 C 0.61766 0.95954 0.13529 0.0
O51 O 0.66039 0.92248 1.01683 0.0
O52 O 0.64216 0.97736 0.99271 0.0
O53 O 0.73385 0.97904 0.03015 0.0
O54 O 0.70061 0.9733 0.97389 0.0
H55 H 0.72483 1.02466 0.88682 0.0
H56 H 0.79798 0.97689 0.82498 0.0
H57 H 0.76884 0.94571 0.97872 0.0
O58 O 0.87644 0.26236 0.34567 0.0
Tb59 Tb 0.89576 0.31492 0.32749 0.0
Eu60 Eu 0.95097 0.37698 0.29142 0.0
C61 C 0.88995 0.23295 0.35961 0.0
O62 O 0.91618 0.23159 0.35114 0.0
C63 C 0.94819 0.32462 0.39275 0.0
O64 O 0.97403 0.43049 0.28458 0.0
C65 C 0.96981 0.32904 0.22394 0.0
C66 C 0.96235 0.46123 0.29868 0.0
O67 O 0.93754 0.46038 0.3174 0.0
C68 C 0.89132 0.37479 0.24189 0.0
C69 C -0.00837 0.32838 0.18368 0.0
C70 C -0.00999 0.30641 0.13751 0.0
C71 C 0.01054 0.30813 0.09838 0.0
C72 C 0.03229 0.332 0.10589 0.0
C73 C 0.0339 0.35391 0.15139 0.0
C74 C 0.01388 0.35143 0.1905 0.0
O75 O 0.93534 0.30191 0.36097 0.0
O76 O 0.95259 0.35824 0.3777 0.0
O77 O 0.8938 0.36501 0.37361 0.0
O78 O 0.86057 0.32942 0.37428 0.0
C79 C 0.86965 0.35995 0.39259 0.0
O80 O 0.90789 0.39356 0.27263 0.0
O81 O 0.8885 0.33934 0.24842 0.0
O82 O 0.97761 0.33155 0.27388 0.0
O83 O 0.94941 0.35038 0.21354 0.0
H84 H 0.97289 0.28845 0.13182 0.0
H85 H 0.04814 0.33338 0.07634 0.0
H86 H 0.01524 0.36854 0.2256 0.0
O87 O 0.10053 0.80496 0.33989 0.0
Tb88 Tb 0.08238 0.75069 0.32757 0.0
Eu89 Eu 0.02793 0.6867 0.29273 0.0
C90 C 0.08709 0.83286 0.35998 0.0
O91 O 0.06068 0.83075 0.36466 0.0
C92 C 0.03018 0.74027 0.39339 0.0
O93 O 0.00341 0.6341 0.28871 0.0
C94 C 0.01158 0.73399 0.22194 0.0
C95 C 0.01559 0.60236 0.28474 0.0
O96 O 0.04211 0.60133 0.2812 0.0
C97 C 0.08695 0.68854 0.24482 0.0
C98 C -0.01023 0.73549 0.18159 0.0
C99 C -0.00926 0.75924 0.13746 0.0
C100 C 0.97039 0.75762 0.09752 0.0
C101 C 0.94928 0.7326 0.10286 0.0
C102 C 0.94855 0.70897 0.14628 0.0
C103 C 0.96864 0.71051 0.18535 0.0
O104 O 0.04264 0.76284 0.3612 0.0
O105 O 0.02603 0.70645 0.37875 0.0
O106 O 0.11828 0.73916 0.37501 0.0
O107 O 0.08603 0.70217 0.37651 0.0
C108 C 0.11011 0.70883 0.39518 0.0
O109 O 0.0713 0.67049 0.27782 0.0
O110 O 0.08925 0.72423 0.24941 0.0
O111 O 0.00383 0.73408 0.27196 0.0
O112 O 0.03027 0.70977 0.21296 0.0
H113 H 0.00739 0.77813 0.13357 0.0
H114 H 0.93385 0.73057 0.07205 0.0
H115 H 0.96833 0.69122 0.21779 0.0
O116 O 0.34739 0.50905 0.58356 0.0
Tb117 Tb 0.33075 0.56441 0.57718 0.0
Eu118 Eu 0.27548 0.62859 0.54548 0.0
C119 C 0.334 0.48206 0.60609 0.0
O120 O 0.30787 0.48543 0.61418 0.0
C121 C 0.27998 0.57729 0.64825 0.0
O122 O 0.25125 0.68105 0.54057 0.0
C123 C 0.25909 0.58146 0.47422 0.0
C124 C 0.2638 0.7122 0.53281 0.0
O125 O 0.29016 0.71232 0.52599 0.0
C126 C 0.33476 0.62935 0.49886 0.0
C127 C 0.23669 0.58062 0.435 0.0
C128 C 0.23797 0.55996 0.38749 0.0
C129 C 0.21683 0.56207 0.34934 0.0
C130 C 0.19509 0.58553 0.35874 0.0
C131 C 0.19393 0.60621 0.4056 0.0
C132 C 0.21436 0.60298 0.44389 0.0
O133 O 0.29206 0.55399 0.61653 0.0
O134 O 0.2746 0.61033 0.63198 0.0
O135 O 0.36866 0.56922 0.62109 0.0
O136 O 0.34095 0.61256 0.62345 0.0
C137 C 0.36513 0.60215 0.63713 0.0
O138 O 0.31844 0.64604 0.53209 0.0
O139 O 0.33699 0.59345 0.50064 0.0
O140 O 0.252 0.58056 0.52466 0.0
O141 O 0.27783 0.60572 0.46522 0.0
H142 H 0.25522 0.54264 0.38013 0.0
H143 H 0.17911 0.58782 0.32933 0.0
H144 H 0.21335 0.6192 0.47994 0.0
O145 O 0.63338 0.55913 0.58018 0.0
Tb146 Tb 0.64987 0.50374 0.57037 0.0
Eu147 Eu 0.70427 0.44016 0.54269 0.0
C148 C 0.64617 0.58494 0.60731 0.0
O149 O 0.67188 0.58064 0.61903 0.0
C150 C 0.69795 0.48767 0.6476 0.0
O151 O 0.72586 0.38619 0.52842 0.0
C152 C 0.72578 0.491 0.48394 0.0
C153 C 0.71838 0.35667 0.55422 0.0
O154 O 0.699 0.35924 0.5898 0.0
C155 C 0.64744 0.44301 0.48369 0.0
C156 C 0.74614 0.49106 0.44051 0.0
C157 C 0.74316 0.51216 0.39385 0.0
C158 C 0.76268 0.50999 0.3526 0.0
C159 C 0.7845 0.48606 0.35803 0.0
C160 C 0.78739 0.46521 0.40408 0.0
C161 C 0.76858 0.4683 0.44521 0.0
O162 O 0.6874 0.51202 0.61557 0.0
O163 O 0.702 0.45441 0.63061 0.0
O164 O 0.61114 0.4983 0.61063 0.0
O165 O 0.63756 0.45341 0.6086 0.0
C166 C 0.61356 0.46445 0.62225 0.0
O167 O 0.66212 0.42388 0.51712 0.0
O168 O 0.64599 0.47881 0.48973 0.0
O169 O 0.73475 0.48198 0.53143 0.0
O170 O 0.70251 0.47579 0.47296 0.0
H171 H 0.72592 0.52997 0.38958 0.0
H172 H 0.79922 0.48353 0.32622 0.0
H173 H 0.77113 0.45171 0.4804 0.0
O174 O 0.87963 0.76079 0.8407 0.0
Tb175 Tb 0.8981 0.81476 0.82749 0.0
Eu176 Eu 0.95267 0.87787 0.79266 0.0
C177 C 0.89192 0.73489 0.86812 0.0
O178 O 0.91766 0.73863 0.88014 0.0
C179 C 0.95003 0.82649 0.89429 0.0
O180 O 0.97419 0.93203 0.78131 0.0
C181 C 0.97134 0.82967 0.72553 0.0
C182 C 0.9669 0.96055 0.80972 0.0
O183 O 0.94812 0.95641 0.84621 0.0
C184 C 0.89305 0.87635 0.74402 0.0
C185 C -0.00838 0.83056 0.68224 0.0
C186 C -0.00987 0.80738 0.63724 0.0
C187 C 0.01003 0.80948 0.59677 0.0
C188 C 0.03116 0.83456 0.60222 0.0
C189 C 0.03216 0.85811 0.646 0.0
C190 C 0.01246 0.85612 0.68553 0.0
O191 O 0.93797 0.80353 0.86166 0.0
O192 O 0.95431 0.86009 0.87925 0.0
O193 O 0.86263 0.82655 0.87531 0.0
O194 O 0.89448 0.86422 0.87461 0.0
C195 C 0.87062 0.85753 0.89389 0.0
O196 O 0.90964 0.89477 0.77509 0.0
O197 O 0.89043 0.84075 0.74943 0.0
O198 O 0.98093 0.83454 0.77393 0.0
O199 O 0.94921 0.84819 0.71734 0.0
H200 H 0.97366 0.78817 0.63353 0.0
H201 H 0.04629 0.83684 0.57112 0.0
H202 H 0.01319 0.87507 0.71858 0.0
O203 O 0.10084 0.30488 0.84144 0.0
Tb204 Tb 0.08281 0.25072 0.82864 0.0
Eu205 Eu 0.02626 0.18892 0.79135 0.0
C206 C 0.08682 0.33338 0.85754 0.0
O207 O 0.06031 0.33293 0.85281 0.0
C208 C 0.03069 0.23945 0.89515 0.0
O209 O 0.0032 0.13571 0.78121 0.0
C210 C 0.00938 0.23702 0.72273 0.0
C211 C 0.01153 0.10669 0.80711 0.0
O212 O 0.03219 0.11004 0.83995 0.0
C213 C 0.08627 0.18805 0.74569 0.0
C214 C 0.98774 0.237 0.68185 0.0
C215 C 0.98918 0.25845 0.63538 0.0
C216 C 0.96867 0.25586 0.59594 0.0
C217 C 0.94714 0.23171 0.60353 0.0
C218 C 0.94572 0.21048 0.64949 0.0
C219 C 0.96577 0.21358 0.6886 0.0
O220 O 0.04358 0.26245 0.86442 0.0
O221 O 0.02512 0.20648 0.87826 0.0
O222 O 0.11962 0.24287 0.87479 0.0
O223 O 0.0905 0.20103 0.87274 0.0
C224 C 0.11467 0.20994 0.88899 0.0
O225 O 0.06895 0.17078 0.77622 0.0
O226 O 0.08936 0.22374 0.75049 0.0
O227 O 0.00116 0.23551 0.77243 0.0
O228 O 0.02964 0.2151 0.71359 0.0
H229 H 0.00608 0.27672 0.62975 0.0
H230 H 0.93125 0.22972 0.57388 0.0
H231 H 0.96459 0.19675 0.72382 0.0
O232 O 0.84363 1.00956 0.58858 0.0
Tb233 Tb 0.83027 0.06576 0.57515 0.0
Eu234 Eu 0.77523 0.12789 0.54947 0.0
C235 C 0.84599 0.99834 0.63867 0.0
O236 O 0.8403 1.02137 0.67696 0.0
C237 C 0.78039 0.07401 0.64753 0.0
O238 O 0.75379 0.18292 0.54988 0.0
C239 C 0.75272 0.08168 0.48305 0.0
C240 C 0.76181 0.21062 0.52053 0.0
O241 O 0.78145 0.20582 0.48602 0.0
C242 C 0.83249 0.12708 0.49016 0.0
C243 C 0.73428 0.08456 0.43635 0.0
C244 C 0.73594 0.06139 0.39122 0.0
C245 C 0.71735 0.0652 0.34821 0.0
C246 C 0.69753 0.09221 0.3511 0.0
C247 C 0.69608 0.11501 0.39556 0.0
C248 C 0.71439 0.1113 0.43744 0.0
O249 O 0.7919 0.05203 0.61316 0.0
O250 O 0.77692 0.10821 0.63519 0.0
O251 O 0.86885 0.07731 0.61338 0.0
O252 O 0.83623 0.11305 0.62606 0.0
C253 C 0.86151 0.10678 0.63757 0.0
O254 O 0.81656 0.1462 0.52148 0.0
O255 O 0.83468 0.09142 0.49594 0.0
O256 O 0.74236 0.09087 0.52932 0.0
O257 O 0.7772 0.09448 0.47713 0.0
H258 H 0.75132 0.04061 0.38966 0.0
H259 H 0.68324 0.09554 0.31862 0.0
H260 H 0.71301 0.12959 0.47119 0.0
O261 O 0.13275 0.05961 0.58244 0.0
Tb262 Tb 0.14895 1.00414 0.57312 0.0
Eu263 Eu 0.20372 0.9389 0.53689 0.0
C264 C 0.14526 0.08459 0.61165 0.0
O265 O 0.17054 0.07921 0.62579 0.0
C266 C 0.20076 0.98981 0.64019 0.0
O267 O 0.22659 0.88555 0.52992 0.0
C268 C 0.22006 0.98609 0.4663 0.0
C269 C 0.21429 0.85519 0.54354 0.0
O270 O 0.18938 0.85677 0.56165 0.0
C271 C 0.14361 0.93984 0.49301 0.0
C272 C 0.24245 0.98759 0.42726 0.0
C273 C 0.24079 1.00827 0.38001 0.0
C274 C 0.26208 1.00725 0.34233 0.0
C275 C 0.28443 0.98479 0.35195 0.0
C276 C 0.28586 0.9638 0.39826 0.0
C277 C 0.26525 0.9661 0.43619 0.0
O278 O 0.18896 1.0132 0.60834 0.0
O279 O 0.20575 0.95667 0.62367 0.0
O280 O 0.11204 0.99975 0.61983 0.0
O281 O 0.13908 0.95566 0.61826 0.0
C282 C 0.11542 0.96653 0.6342 0.0
O283 O 0.16029 0.92271 0.52507 0.0
O284 O 0.1413 0.97571 0.49618 0.0
O285 O 0.22719 0.9869 0.51682 0.0
O286 O 0.20143 0.96168 0.45669 0.0
H287 H 0.22312 1.02481 0.37249 0.0
H288 H 0.30064 0.98334 0.32303 0.0
H289 H 0.2665 0.9497 0.47186 0.0
O290 O 0.38108 0.25654 0.82886 0.0
Tb291 Tb 0.3965 0.31229 0.81775 0.0
Eu292 Eu 0.45151 0.37908 0.78369 0.0
C293 C 0.39473 0.23179 0.85599 0.0
O294 O 0.42066 0.23688 0.86507 0.0
C295 C 0.44778 0.32767 0.88562 0.0
O296 O 0.47423 0.43273 0.77385 0.0
C297 C 0.46808 0.33073 0.71474 0.0
C298 C 0.46262 0.46378 0.78688 0.0
O299 O 0.43802 0.46321 0.80665 0.0
C300 C 0.39147 0.37673 0.73855 0.0
C301 C 0.48926 0.33008 0.67327 0.0
C302 C 0.48768 0.30709 0.62812 0.0
C303 C 0.50756 0.30926 0.58767 0.0
C304 C 0.52871 0.33425 0.59315 0.0
C305 C 0.53018 0.35693 0.63774 0.0
C306 C 0.51064 0.35476 0.67756 0.0
O307 O 0.43665 0.30442 0.85232 0.0
O308 O 0.45301 0.36097 0.87019 0.0
O309 O 0.35884 0.31631 0.86184 0.0
O310 O 0.38664 0.35982 0.8654 0.0
C311 C 0.36257 0.34893 0.87907 0.0
O312 O 0.40788 0.3942 0.77118 0.0
O313 O 0.38925 0.34083 0.74124 0.0
O314 O 0.47682 0.33273 0.7642 0.0
O315 O 0.44787 0.35277 0.70581 0.0
H316 H 0.47099 0.28825 0.62399 0.0
H317 H 0.54372 0.33677 0.56187 0.0
H318 H 0.51158 0.37338 0.71101 0.0
O319 O 0.60183 0.80676 0.83724 0.0
Tb320 Tb 0.58355 0.75284 0.82309 0.0
Eu321 Eu 0.52734 0.68976 0.78435 0.0
C322 C 0.58787 0.83544 0.85294 0.0
O323 O 0.56143 0.83547 0.84674 0.0
C324 C 0.53039 0.7427 0.88668 0.0
O325 O 0.50257 0.63729 0.78101 0.0
C326 C 0.51219 0.73622 0.71158 0.0
C327 C 0.51455 0.60603 0.77082 0.0
O328 O 0.54055 0.60593 0.75991 0.0
C329 C 0.58777 0.68929 0.74158 0.0
C330 C 0.48978 0.73769 0.67254 0.0
C331 C 0.49061 0.76011 0.62694 0.0
C332 C 0.4694 0.75869 0.58878 0.0
C333 C 0.44781 0.73467 0.59684 0.0
C334 C 0.44734 0.7121 0.64157 0.0
C335 C 0.46808 0.71391 0.67927 0.0
O336 O 0.5438 0.76521 0.85601 0.0
O337 O 0.5247 0.70963 0.87025 0.0
O338 O 0.61961 0.7445 0.87126 0.0
O339 O 0.58984 0.70343 0.86863 0.0
C340 C 0.61392 0.71187 0.88589 0.0
O341 O 0.57055 0.67238 0.77281 0.0
O342 O 0.59091 0.72502 0.74576 0.0
O343 O 0.50518 0.73837 0.76196 0.0
O344 O 0.52998 0.71065 0.70322 0.0
H345 H 0.50771 0.77794 0.62071 0.0
H346 H 0.4319 0.73239 0.56705 0.0
H347 H 0.46791 0.69548 0.71279 0.0
O348 O 0.84006 0.50687 0.08644 0.0
Tb349 Tb 0.82925 0.56424 0.07547 0.0
Eu350 Eu 0.77363 0.62876 0.0463 0.0
C351 C 0.8426 0.49522 0.1363 0.0
O352 O 0.83766 0.51823 0.17503 0.0
C353 C 0.77944 0.57782 0.14824 0.0
O354 O 0.74889 0.68098 0.04116 0.0
C355 C 0.75767 0.57922 0.97805 0.0
C356 C 0.76126 0.71277 0.03981 0.0
O357 O 0.78785 0.71377 0.03969 0.0
C358 C 0.83264 0.62943 0.99782 0.0
C359 C 0.73564 0.57591 0.9383 0.0
C360 C 0.73748 0.55263 0.89347 0.0
C361 C 0.71677 0.55254 0.8542 0.0
C362 C 0.69467 0.57584 0.86038 0.0
C363 C 0.69327 0.59936 0.90408 0.0
C364 C 0.71342 0.59898 0.94308 0.0
O365 O 0.79064 0.5546 0.11526 0.0
O366 O 0.77436 0.61114 0.13297 0.0
O367 O 0.86963 0.56822 0.10927 0.0
O368 O 0.84115 0.6097 0.12576 0.0
C369 C 0.86628 0.5996 0.13133 0.0
O370 O 0.81641 0.64638 0.03098 0.0
O371 O 0.83424 0.59344 0.99883 0.0
O372 O 0.75014 0.58024 0.02823 0.0
O373 O 0.77609 0.60362 0.96749 0.0
H374 H 0.75506 0.53551 0.88848 0.0
H375 H 0.6793 0.57724 0.82942 0.0
H376 H 0.71254 0.61828 0.97567 0.0
O377 O 0.12803 0.555 0.08892 0.0
Tb378 Tb 0.1465 0.50135 0.07365 0.0
Eu379 Eu 0.20204 0.44003 0.04532 0.0
C380 C 0.1416 0.58275 0.10948 0.0
O381 O 0.16815 0.58154 0.11143 0.0
C382 C 0.19672 0.49223 0.14523 0.0
O383 O 0.22567 0.38674 0.03985 0.0
C384 C 0.22281 0.48895 0.98194 0.0
C385 C 0.21308 0.35512 0.03744 0.0
O386 O 0.18648 0.35457 0.03657 0.0
C387 C 0.1441 0.44081 0.98704 0.0
C388 C 0.24245 0.48786 0.93748 0.0
C389 C 0.24124 0.51192 0.89364 0.0
C390 C 0.26015 0.50883 0.85139 0.0
C391 C 0.28012 0.48208 0.85417 0.0
C392 C 0.28121 0.45842 0.89747 0.0
C393 C 0.26238 0.46111 0.93841 0.0
O394 O 0.18532 0.51438 0.11104 0.0
O395 O 0.20041 0.45815 0.13198 0.0
O396 O 0.10952 0.48805 0.11588 0.0
O397 O 0.14232 0.45215 0.12096 0.0
C398 C 0.11764 0.45794 0.13675 0.0
O399 O 0.1604 0.42181 1.01782 0.0
O400 O 0.14133 0.4763 0.99398 0.0
O401 O 0.23258 0.48116 0.02926 0.0
O402 O 0.19957 0.47303 0.97318 0.0
H403 H 0.22564 0.53241 0.89205 0.0
H404 H 0.29458 0.47917 0.82196 0.0
H405 H 0.26309 0.44178 0.97077 0.0
O406 O 0.37792 0.76153 0.33881 0.0
Tb407 Tb 0.39566 0.81562 0.32277 0.0
Eu408 Eu 0.44988 0.88023 0.28404 0.0
C409 C 0.39087 0.73613 0.36608 0.0
O410 O 0.41667 0.74056 0.37695 0.0
C411 C 0.44885 0.82746 0.38511 0.0
O412 O 0.47283 0.93385 0.27788 0.0
C413 C 0.46749 0.83324 0.21371 0.0
C414 C 0.46019 0.96482 0.28657 0.0
O415 O 0.43443 0.96416 0.2995 0.0
C416 C 0.39024 0.87563 0.23731 0.0
C417 C 0.49009 0.83147 0.17524 0.0
C418 C 0.4886 0.81015 0.12835 0.0
C419 C 0.50963 0.81166 0.09018 0.0
C420 C 0.53158 0.83499 0.09916 0.0
C421 C 0.53305 0.85621 0.14541 0.0
C422 C 0.51273 0.85349 0.18389 0.0
O423 O 0.43638 0.80475 0.35277 0.0
O424 O 0.45304 0.86119 0.37027 0.0
O425 O 0.36055 0.82869 0.37113 0.0
O426 O 0.39295 0.86541 0.36968 0.0
C427 C 0.36907 0.85951 0.38948 0.0
O428 O 0.40602 0.89463 0.2693 0.0
O429 O 0.38775 0.84013 0.24386 0.0
O430 O 0.47414 0.83275 0.26441 0.0
O431 O 0.44905 0.8576 0.20355 0.0
H432 H 0.47118 0.79294 0.12129 0.0
H433 H 0.54769 0.83649 0.07017 0.0
H434 H 0.51393 0.87015 0.21948 0.0
O435 O 0.59444 0.31238 0.32355 0.0
Tb436 Tb 0.58107 0.25556 0.31558 0.0
Eu437 Eu 0.5269 0.18972 0.28164 0.0
C438 C 0.59425 0.32767 0.3716 0.0
O439 O 0.58403 0.30935 0.4115 0.0
C440 C 0.52914 0.24239 0.3841 0.0
O441 O 0.50152 0.13792 0.2781 0.0
C442 C 0.51156 0.23666 0.20977 0.0
C443 C 0.51345 0.10595 0.27568 0.0
O444 O 0.54001 0.10452 0.27377 0.0
C445 C 0.58584 0.19098 0.2371 0.0
C446 C 0.48793 0.23988 0.17397 0.0
C447 C 0.4887 0.2607 0.12688 0.0
C448 C 0.46694 0.25913 0.09006 0.0
C449 C 0.44497 0.23614 0.10064 0.0
C450 C 0.44413 0.21577 0.14766 0.0
C451 C 0.46521 0.21868 0.1847 0.0
O452 O 0.54201 0.26584 0.35373 0.0
O453 O 0.52394 0.2093 0.36718 0.0
O454 O 0.62075 0.2493 0.35117 0.0
O455 O 0.58989 0.21283 0.37296 0.0
C456 C 0.61516 0.22174 0.38087 0.0
O457 O 0.57042 0.17364 0.27109 0.0
O458 O 0.58694 0.22685 0.2387 0.0
O459 O 0.50671 0.24022 0.26096 0.0
O460 O 0.52731 0.20909 0.19969 0.0
H461 H 0.50624 0.27729 0.11834 0.0
H462 H 0.42858 0.23402 0.07208 0.0
H463 H 0.46462 0.2025 0.22065 0.0
C464 C 0.35098 0.91757 0.21947 0.0
C465 C 0.3727 0.89662 0.19913 0.0
C466 C 0.37135 0.93206 0.11571 0.0
C467 C 0.34985 0.95348 0.13634 0.0
N468 N 0.31685 0.96372 0.20571 0.0
N469 N 0.39927 0.87807 0.1241 0.0
C470 C 0.33884 0.94508 0.18738 0.0
C471 C 0.38154 0.90214 0.14596 0.0
N472 N 0.34266 0.91196 0.27068 0.0
N473 N 0.38223 0.94053 0.06731 0.0
H474 H 0.40587 0.85534 0.14473 0.0
H475 H 0.40533 0.8784 0.08443 0.0
H476 H 0.3744 0.96077 0.04299 0.0
H477 H 0.3998 0.92893 0.05226 0.0
H478 H 0.32964 0.929 0.29132 0.0
H479 H 0.34954 0.89028 0.2933 0.0
H480 H 0.30504 0.95522 0.23755 0.0
H481 H 0.30946 0.98701 0.18772 0.0
C482 C 0.62074 0.14237 0.22506 0.0
C483 C 0.60347 0.16834 0.20111 0.0
C484 C 0.61298 0.14065 0.11305 0.0
C485 C 0.62769 0.11244 0.13822 0.0
N486 N 0.6418 0.08344 0.21965 0.0
N487 N 0.58172 0.19111 0.12209 0.0
C488 C 0.6306 0.1126 0.19464 0.0
C489 C 0.59937 0.16736 0.14488 0.0
N490 N 0.62839 0.1468 0.27704 0.0
N491 N 0.61255 0.14237 0.05868 0.0
H492 H 0.57267 0.21198 0.14347 0.0
H493 H 0.57509 0.18921 0.08274 0.0
H494 H 0.62168 0.12289 0.03463 0.0
H495 H 0.60476 0.16413 0.0375 0.0
H496 H 0.64303 0.13106 0.29565 0.0
H497 H 0.62219 0.16881 0.29982 0.0
H498 H 0.64165 0.08003 0.26083 0.0
H499 H 0.64892 0.06082 0.19924 0.0
C500 C 0.88774 0.18974 0.43851 0.0
C501 C 0.87621 0.20281 0.38996 0.0
C502 C 0.83711 0.16213 0.4036 0.0
C503 C 0.8493 0.14789 0.45057 0.0
N504 N 0.88881 0.14283 0.50622 0.0
N505 N 0.84277 0.195 0.32069 0.0
C506 C 0.87559 0.1598 0.46548 0.0
C507 C 0.85168 0.18715 0.37095 0.0
N508 N 0.90918 0.20752 0.46122 0.0
N509 N 0.81125 0.15232 0.39056 0.0
H510 H 0.85318 0.21229 0.29521 0.0
H511 H 0.8266 0.18177 0.30231 0.0
H512 H 0.80079 0.13229 0.41091 0.0
H513 H 0.79978 0.16521 0.36142 0.0
H514 H 0.91728 0.20083 0.49813 0.0
H515 H 0.91729 0.23133 0.44611 0.0
H516 H 0.909 0.14761 0.51613 0.0
H517 H 0.88031 0.12125 0.52683 0.0
C518 C 0.12546 0.91984 0.40132 0.0
C519 C 0.12584 0.91622 0.45788 0.0
C520 C 0.10346 0.85663 0.44837 0.0
C521 C 0.10166 0.86117 0.39236 0.0
N522 N 0.10702 0.89946 0.316 0.0
N523 N 0.10969 0.88404 0.53509 0.0
C524 C 0.11144 0.89357 0.36901 0.0
C525 C 0.11317 0.88542 0.48116 0.0
N526 N 0.13967 0.9472 0.3781 0.0
N527 N 0.09661 0.82415 0.47044 0.0
H528 H 0.11648 0.90428 0.56058 0.0
H529 H 0.09778 0.86481 0.55411 0.0
H530 H 0.08915 0.80243 0.44824 0.0
H531 H 0.10054 0.81752 0.51002 0.0
H532 H 0.14291 0.94899 0.33722 0.0
H533 H 0.14986 0.96696 0.40002 0.0
H534 H 0.11084 0.92401 0.29743 0.0
H535 H 0.09771 0.88039 0.29129 0.0
C536 C 0.35965 0.42242 0.61446 0.0
C537 C 0.34891 0.45419 0.63822 0.0
C538 C 0.36022 0.43002 0.72687 0.0
C539 C 0.37367 0.39991 0.70335 0.0
N540 N 0.38881 0.36985 0.62344 0.0
N541 N 0.34298 0.49082 0.71691 0.0
C542 C 0.37389 0.39656 0.6467 0.0
C543 C 0.35029 0.45859 0.69439 0.0
N544 N 0.35586 0.41667 0.56116 0.0
N545 N 0.35627 0.43096 0.78072 0.0
H546 H 0.33572 0.51259 0.69487 0.0
H547 H 0.34648 0.49732 0.75677 0.0
H548 H 0.36319 0.4108 0.80596 0.0
H549 H 0.34386 0.44966 0.79975 0.0
H550 H 0.36044 0.39245 0.54211 0.0
H551 H 0.34635 0.43548 0.53658 0.0
H552 H 0.39249 0.36839 0.58266 0.0
H553 H 0.39909 0.35032 0.64533 0.0
C554 C 0.61698 0.63378 0.72864 0.0
C555 C 0.60531 0.66559 0.70631 0.0
C556 C 0.62145 0.64532 0.61746 0.0
C557 C 0.63049 0.61216 0.63957 0.0
N558 N 0.63248 0.57238 0.71521 0.0
N559 N 0.59333 0.69883 0.62721 0.0
C560 C 0.627 0.60581 0.69487 0.0
C561 C 0.6069 0.67076 0.65006 0.0
N562 N 0.61933 0.6306 0.78269 0.0
N563 N 0.62716 0.65279 0.56545 0.0
H564 H 0.58259 0.71786 0.64928 0.0
H565 H 0.59103 0.70181 0.5862 0.0
H566 H 0.63687 0.63436 0.54047 0.0
H567 H 0.62394 0.67793 0.54819 0.0
H568 H 0.63059 0.61048 0.8013 0.0
H569 H 0.61242 0.65015 0.80907 0.0
H570 H 0.62736 0.56464 0.75375 0.0
H571 H 0.63979 0.55106 0.69216 0.0
C572 C 0.8508 0.64972 0.90653 0.0
C573 C 0.85038 0.65314 0.96319 0.0
C574 C 0.87345 0.71224 0.95501 0.0
C575 C 0.87587 0.7075 0.8991 0.0
N576 N 0.87017 0.66942 0.82212 0.0
N577 N 0.86686 0.68489 0.04121 0.0
C578 C 0.86551 0.67551 0.875 0.0
C579 C 0.86337 0.68362 0.98719 0.0
N580 N 0.83602 0.62306 0.88243 0.0
N581 N 0.87993 0.74484 0.97753 0.0
H582 H 0.85998 0.66473 0.06646 0.0
H583 H 0.87902 0.70392 0.06049 0.0
H584 H 0.88707 0.76672 0.95558 0.0
H585 H 0.87571 0.75146 1.01703 0.0
H586 H 0.83292 0.62154 0.84141 0.0
H587 H 0.82514 0.60381 0.90369 0.0
H588 H 0.86594 0.64501 0.80315 0.0
H589 H 0.88002 0.68816 0.79798 0.0
C590 C 0.12338 0.38204 0.86658 0.0
C591 C 0.1004 0.36392 0.88777 0.0
C592 C 0.10181 0.40533 0.96555 0.0
C593 C 0.12683 0.41984 0.94805 0.0
N594 N 0.16242 0.42067 0.88274 0.0
N595 N 0.07073 0.35472 0.96306 0.0
C596 C 0.13781 0.40786 0.89865 0.0
C597 C 0.0902 0.37491 0.9385 0.0
N598 N 0.13086 0.37561 0.81503 0.0
N599 N 0.08928 0.42043 1.00866 0.0
H600 H 0.06318 0.33057 0.94764 0.0
H601 H 0.06406 0.35978 1.00157 0.0
H602 H 0.09735 0.44254 0.02906 0.0
H603 H 0.06977 0.41364 1.02078 0.0
H604 H 0.14567 0.39043 0.79531 0.0
H605 H 0.12053 0.35758 0.79021 0.0
H606 H 0.17341 0.4097 0.85127 0.0
H607 H 0.17237 0.4415 0.90276 0.0
C608 C 0.83922 0.94253 0.69477 0.0
C609 C 0.85432 0.96059 0.65442 0.0
C610 C 0.88803 0.91154 0.6589 0.0
C611 C 0.87598 0.8982 0.70619 0.0
N612 N 0.83975 0.90116 0.7698 0.0
N613 N 0.89469 0.9627 0.60032 0.0
C614 C 0.85123 0.91347 0.72386 0.0
C615 C 0.87893 0.94484 0.63628 0.0
N616 N 0.81315 0.95289 0.70471 0.0
N617 N 0.90824 0.89212 0.63553 0.0
H618 H 0.88915 0.98713 0.58316 0.0
H619 H 0.91427 0.95466 0.59055 0.0
H620 H 0.9141 0.86703 0.65016 0.0
H621 H 0.91665 0.89861 0.59876 0.0
H622 H 0.80028 0.93916 0.73047 0.0
H623 H 0.80348 0.97306 0.68287 0.0
H624 H 0.82376 0.91408 0.78894 0.0
H625 H 0.84719 0.87871 0.79004 0.0
C626 C 0.12061 0.14497 0.62178 0.0
C627 C 0.12931 0.11158 0.64363 0.0
C628 C 0.11542 0.13266 0.73261 0.0
C629 C 0.10402 0.16469 0.71049 0.0
N630 N 0.09261 0.19857 0.63164 0.0
N631 N 0.1302 0.07109 0.71856 0.0
C632 C 0.10594 0.17026 0.65438 0.0
C633 C 0.12533 0.10481 0.69867 0.0
N634 N 0.12676 0.15279 0.57009 0.0
N635 N 0.11762 0.12915 0.78663 0.0
H636 H 0.13735 0.04977 0.69533 0.0
H637 H 0.12464 0.0632 0.75681 0.0
H638 H 0.11083 0.14867 0.81318 0.0
H639 H 0.12871 0.10877 0.80504 0.0
H640 H 0.12378 0.17809 0.55317 0.0
H641 H 0.13659 0.13447 0.5451 0.0
H642 H 0.09062 0.20186 0.59062 0.0
H643 H 0.08178 0.21749 0.65373 0.0
C644 C 0.38258 0.20518 0.94507 0.0
C645 C 0.38025 0.20365 0.88859 0.0
C646 C 0.35252 0.14821 0.89757 0.0
C647 C 0.3566 0.14872 0.9538 0.0
N648 N 0.38183 0.17229 0.02816 0.0
N649 N 0.36594 0.17097 0.81037 0.0
C650 C 0.37359 0.1756 0.97646 0.0
C651 C 0.36601 0.17433 0.86458 0.0
N652 N 0.39208 0.23581 0.96932 0.0
N653 N 0.3351 0.12352 0.87588 0.0
H654 H 0.37514 0.18985 0.78552 0.0
H655 H 0.35841 0.14845 0.79027 0.0
H656 H 0.32615 0.10316 0.89838 0.0
H657 H 0.32858 0.1242 0.83639 0.0
H658 H 0.3911 0.23997 1.01036 0.0
H659 H 0.398 0.25875 0.94836 0.0
H660 H 0.39637 0.18899 0.04555 0.0
H661 H 0.37654 0.15013 0.05136 0.0
C662 C 0.59044 0.87721 0.93392 0.0
C663 C 0.60134 0.86577 0.88394 0.0
C664 C 0.63918 0.9088 0.89706 0.0
C665 C 0.62757 0.92122 0.94568 0.0
N666 N 0.58915 0.92277 1.0041 0.0
N667 N 0.63312 0.87664 0.81313 0.0
C668 C 0.60207 0.90737 0.96166 0.0
C669 C 0.62491 0.88329 0.86418 0.0
N670 N 0.57019 0.85765 0.95717 0.0
N671 N 0.66424 0.92088 0.8827 0.0
H672 H 0.62291 0.8589 0.78767 0.0
H673 H 0.64845 0.89108 0.79433 0.0
H674 H 0.67416 0.94152 0.90318 0.0
H675 H 0.67559 0.90947 0.85208 0.0
H676 H 0.56274 0.86313 0.99498 0.0
H677 H 0.56265 0.83357 0.94149 0.0
H678 H 0.56936 0.91654 1.01508 0.0
H679 H 0.59731 0.94454 0.02521 0.0
C680 C 0.87573 0.44199 0.13303 0.0
C681 C 0.85109 0.45747 0.15155 0.0
C682 C 0.84901 0.41106 0.22213 0.0
C683 C 0.87384 0.39616 0.20419 0.0
N684 N 0.90571 0.38993 0.13288 0.0
N685 N 0.81045 0.44975 0.20335 0.0
C686 C 0.88541 0.40918 0.15625 0.0
C687 C 0.83649 0.43959 0.19274 0.0
N688 N 0.89102 0.45972 0.09614 0.0
N689 N 0.83796 0.39898 0.2686 0.0
H690 H 0.80047 0.46961 0.18142 0.0
H691 H 0.7979 0.43619 0.22991 0.0
H692 H 0.84574 0.37683 0.28903 0.0
H693 H 0.82199 0.41179 0.28795 0.0
H694 H 0.91064 0.45202 0.08613 0.0
H695 H 0.88501 0.4837 0.07825 0.0
H696 H 0.91379 0.39615 0.09572 0.0
H697 H 0.91204 0.36519 0.14807 0.0
C698 C 0.12183 0.64034 0.23011 0.0
C699 C 0.10428 0.66649 0.20756 0.0
C700 C 0.11255 0.6395 0.11855 0.0
C701 C 0.12748 0.611 0.14249 0.0
N702 N 0.14246 0.58128 0.22275 0.0
N703 N 0.08184 0.69036 0.13009 0.0
C704 C 0.13112 0.61072 0.19874 0.0
C705 C 0.0995 0.66607 0.15154 0.0
N706 N 0.13035 0.64457 0.28157 0.0
N707 N 0.11139 0.64162 0.06425 0.0
H708 H 0.07346 0.71133 0.15233 0.0
H709 H 0.0747 0.68899 0.09105 0.0
H710 H 0.12011 0.62225 0.03942 0.0
H711 H 0.10336 0.66355 0.04381 0.0
H712 H 0.14522 0.62863 0.29907 0.0
H713 H 0.12477 0.66674 0.30468 0.0
H714 H 0.14264 0.57757 0.26387 0.0
H715 H 0.14924 0.55876 0.20164 0.0
C716 C 0.36443 0.68444 0.48662 0.0
C717 C 0.35188 0.65336 0.46341 0.0
C718 C 0.36574 0.67585 0.37447 0.0
C719 C 0.3756 0.70836 0.39787 0.0
N720 N 0.37965 0.74618 0.47578 0.0
N721 N 0.33755 0.62225 0.38349 0.0
C722 C 0.37361 0.71327 0.45381 0.0
C723 C 0.3519 0.64965 0.40678 0.0
N724 N 0.36835 0.68611 0.54048 0.0
N725 N 0.37005 0.66969 0.32149 0.0
H726 H 0.32741 0.60261 0.40533 0.0
H727 H 0.33411 0.6204 0.3426 0.0
H728 H 0.37925 0.68868 0.29682 0.0
H729 H 0.36621 0.64502 0.30293 0.0
H730 H 0.38023 0.70569 0.55921 0.0
H731 H 0.36207 0.66584 0.5661 0.0
H732 H 0.37565 0.75284 0.51535 0.0
H733 H 0.38616 0.76819 0.45336 0.0
C734 C 0.60545 0.42241 0.43062 0.0
C735 C 0.63395 0.42183 0.43886 0.0
C736 C 0.6366 0.36531 0.38587 0.0
C737 C 0.60785 0.36324 0.38408 0.0
N738 N 0.56462 0.39 0.40329 0.0
N739 N 0.67699 0.39982 0.40822 0.0
C740 C 0.59226 0.39225 0.40527 0.0
C741 C 0.64956 0.39537 0.41135 0.0
N742 N 0.5911 0.45214 0.44563 0.0
N743 N 0.6516 0.33717 0.36671 0.0
H744 H 0.68681 0.42209 0.42463 0.0
H745 H 0.68966 0.38386 0.38499 0.0
H746 H 0.64315 0.31577 0.34537 0.0
H747 H 0.67221 0.33392 0.37402 0.0
H748 H 0.57071 0.45601 0.43682 0.0
H749 H 0.60028 0.47486 0.46215 0.0
H750 H 0.5517 0.40722 0.42389 0.0
H751 H 0.5545 0.36964 0.38232 0.0
C752 C 0.22154 0.29398 0.07899 0.0
C753 C 0.22816 0.31976 0.03908 0.0
C754 C 0.26086 0.27637 1.0009 0.0
C755 C 0.25255 0.24961 0.03824 0.0
N756 N 0.22248 0.23175 0.10895 0.0
N757 N 0.25156 0.33372 0.95755 0.0
C758 C 0.23199 0.25804 0.0758 0.0
C759 C 0.24729 0.31055 0.99901 0.0
N760 N 0.20647 0.30452 0.12197 0.0
N761 N 0.28179 0.26908 0.96698 0.0
H762 H 0.24208 0.35875 0.95463 0.0
H763 H 0.26287 0.32723 0.92393 0.0
H764 H 0.29065 0.24366 0.96374 0.0
H765 H 0.29131 0.28861 0.9439 0.0
H766 H 0.20328 0.28845 0.1553 0.0
H767 H 0.1994 0.3308 0.12706 0.0
H768 H 0.20528 0.23478 0.13245 0.0
H769 H 0.23057 0.20582 0.11032 0.0
C770 C 0.74642 0.77111 0.99607 0.0
C771 C 0.74604 0.74786 0.04111 0.0
C772 C 0.72535 0.79667 0.09425 0.0
C773 C 0.72394 0.81901 0.04828 0.0
N774 N 0.72842 0.82463 0.95307 0.0
N775 N 0.73169 0.73675 0.13126 0.0
C776 C 0.73331 0.8055 0.99855 0.0
C777 C 0.73427 0.76008 0.08952 0.0
N778 N 0.75956 0.76046 0.95081 0.0
N779 N 0.71951 0.81106 0.14315 0.0
H780 H 0.73891 0.71035 0.1302 0.0
H781 H 0.72055 0.74255 0.16539 0.0
H782 H 0.71371 0.83786 0.14854 0.0
H783 H 0.72286 0.79764 0.17894 0.0
H784 H 0.76364 0.77776 0.91921 0.0
H785 H 0.76781 0.73477 0.94609 0.0
H786 H 0.7317 0.81435 0.91496 0.0
H787 H 0.71896 0.84975 0.95307 0.0
C788 C 0.98431 0.511 0.24421 0.0
C789 C 0.97668 0.49698 0.29465 0.0
C790 C -0.00981 0.55473 0.33678 0.0
C791 C 0.00019 0.56738 0.28715 0.0
N792 N 0.00973 0.55577 0.19449 0.0
N793 N 0.9761 0.5035 0.39022 0.0
C794 C -0.00183 0.54489 0.24118 0.0
C795 C 0.98051 0.51844 0.34125 0.0
N796 N 0.977 0.49291 0.19881 0.0
N797 N -0.01003 0.57742 0.37986 0.0
H798 H 0.96963 0.47692 0.39522 0.0
H799 H 0.98118 0.51612 0.42602 0.0
H800 H -0.00214 0.60351 0.37886 0.0
H801 H 0.98016 0.57147 0.41543 0.0
H802 H 0.979 0.50369 0.16075 0.0
H803 H 0.96692 0.46816 0.19923 0.0
H804 H 0.01204 0.53885 0.16158 0.0
H805 H 0.01854 0.58115 0.18968 0.0
C806 C 0.24772 0.76935 0.48778 0.0
C807 C 0.24919 0.74764 0.5344 0.0
C808 C 0.23124 0.79835 0.5874 0.0
C809 C 0.22799 0.81915 0.54028 0.0
N810 N 0.22894 0.82229 0.44443 0.0
N811 N 0.23921 0.73978 0.62763 0.0
C812 C 0.23524 0.80413 0.49013 0.0
C813 C 0.23982 0.7616 0.58383 0.0
N814 N 0.25842 0.75677 0.4411 0.0
N815 N 0.2274 0.81437 0.63599 0.0
H816 H 0.2465 0.71342 0.62749 0.0
H817 H 0.22969 0.74679 0.66314 0.0
H818 H 0.22178 0.84134 0.64028 0.0
H819 H 0.23217 0.80218 0.67211 0.0
H820 H 0.26128 0.77282 0.40761 0.0
H821 H 0.26583 0.7306 0.43666 0.0
H822 H 0.23067 0.81113 0.40646 0.0
H823 H 0.22005 0.84779 0.44444 0.0
C824 C 0.76828 0.27677 0.54458 0.0
C825 C 0.75056 0.24809 0.529 0.0
C826 C 0.71241 0.29131 0.52612 0.0
C827 C 0.73009 0.31993 0.54193 0.0
N828 N 0.77522 0.34095 0.56165 0.0
N829 N 0.70542 0.22709 0.50944 0.0
C830 C 0.75818 0.31294 0.54945 0.0
C831 C 0.72249 0.25514 0.5213 0.0
N832 N 0.79445 0.26887 0.55856 0.0
N833 N 0.6862 0.29929 0.51263 0.0
H834 H 0.71222 0.2011 0.501 0.0
H835 H 0.68441 0.22879 0.51017 0.0
H836 H 0.67866 0.32555 0.51192 0.0
H837 H 0.67214 0.28066 0.49856 0.0
H838 H 0.80808 0.2873 0.57479 0.0
H839 H 0.80229 0.24278 0.55807 0.0
H840 H 0.79624 0.33916 0.5618 0.0
H841 H 0.76848 0.36707 0.56922 0.0
C842 C 0.96052 1.02778 0.79698 0.0
C843 C 0.9784 0.9977 0.80009 0.0
C844 C 0.01681 0.03973 0.79056 0.0
C845 C -0.00069 0.0698 0.79836 0.0
N846 N 0.95392 0.09156 0.81419 0.0
N847 N 0.0245 0.9761 0.80588 0.0
C848 C 0.97094 0.06365 0.80241 0.0
C849 C 0.00682 1.00389 0.79792 0.0
N850 N 0.93358 1.02216 0.78721 0.0
N851 N 0.04291 0.04534 0.77453 0.0
H852 H 0.01833 0.94967 0.81293 0.0
H853 H 0.0453 0.97989 0.81045 0.0
H854 H 0.05061 0.07096 0.76641 0.0
H855 H 0.05584 1.02447 0.76332 0.0
H856 H 0.91991 0.04299 0.78014 0.0
H857 H 0.92545 0.99658 0.78017 0.0
H858 H 0.93353 0.08793 0.82339 0.0
H859 H 0.96051 0.11804 0.81943 0.0
C860 C 0.47792 0.5613 0.74212 0.0
C861 C 0.50004 0.57041 0.77608 0.0
C862 C 0.49994 0.50816 0.81154 0.0
C863 C 0.47671 0.49963 0.78024 0.0
N864 N 0.44202 0.519 0.71868 0.0
N865 N 0.52863 0.55469 0.85047 0.0
C866 C 0.46519 0.5266 0.74661 0.0
C867 C 0.51018 0.54431 0.81254 0.0
N868 N 0.46988 0.58517 0.70377 0.0
N869 N 0.51224 0.48177 0.84081 0.0
H870 H 0.53589 0.58104 0.85388 0.0
H871 H 0.53476 0.53835 0.8819 0.0
H872 H 0.50454 0.4557 0.84418 0.0
H873 H 0.53112 0.48492 0.85889 0.0
H874 H 0.45601 0.57902 0.67374 0.0
H875 H 0.4785 0.61071 0.69956 0.0
H876 H 0.4305 0.53843 0.69921 0.0
H877 H 0.43349 0.49326 0.71684 0.0
C878 C 0.47561 1.02332 0.32923 0.0
C879 C 0.47448 1.00063 0.28337 0.0
C880 C 0.49796 0.04778 0.23158 0.0
C881 C 0.49772 0.07118 0.27674 0.0
N882 N 0.48296 0.08319 0.3665 0.0
N883 N 0.48056 0.99343 0.18874 0.0
C884 C 0.48536 0.05957 0.32481 0.0
C885 C 0.48469 1.0134 0.23397 0.0
N886 N 0.46863 1.00953 0.37779 0.0
N887 N 0.51097 0.05846 0.18626 0.0
H888 H 0.47104 0.96829 0.18888 0.0
H889 H 0.48472 1.00268 0.15052 0.0
H890 H 0.51909 0.08425 0.18157 0.0
H891 H 0.51487 0.04138 0.15418 0.0
H892 H 0.47167 1.02307 0.41374 0.0
H893 H 0.46201 0.98304 0.38291 0.0
H894 H 0.4714 0.07802 0.40024 0.0
H895 H 0.49089 0.10927 0.36586 0.0
C896 C 0.25312 1.01188 0.24317 0.0
C897 C 0.26153 1.02858 0.29154 0.0
C898 C 0.28046 0.07938 0.24056 0.0
C899 C 0.27186 0.06283 0.19196 0.0
N900 N 0.24398 1.01813 0.14843 0.0
N901 N 0.27777 0.08147 0.33734 0.0
C902 C 0.25633 1.0305 0.19381 0.0
C903 C 0.27329 0.06351 0.29045 0.0
N904 N 0.24288 0.97762 0.24424 0.0
N905 N 0.29703 0.10891 0.2393 0.0
H906 H 0.27332 0.07029 0.3744 0.0
H907 H 0.28358 0.10845 0.33945 0.0
H908 H 0.30261 0.12169 0.20421 0.0
H909 H 0.30689 0.11935 0.27273 0.0
H910 H 0.23971 0.96203 0.21017 0.0
H911 H 0.23898 0.96391 0.27966 0.0
H912 H 0.23035 0.99667 0.14779 0.0
H913 H 0.24525 1.03164 0.11212 0.0
C914 C 0.72511 0.03597 0.20215 0.0
C915 C 0.70615 1.00707 0.19964 0.0
C916 C 0.70183 1.00974 0.29776 0.0
C917 C 0.71767 0.04173 0.2991 0.0
N918 N 0.74378 0.08644 0.25257 0.0
N919 N 0.67467 0.96808 0.24515 0.0
C920 C 0.72934 0.05495 0.25127 0.0
C921 C 0.69437 0.99399 0.24763 0.0
N922 N 0.73967 0.04464 0.15772 0.0
N923 N 0.69373 0.99456 0.34465 0.0
H924 H 0.66868 0.9558 0.2097 0.0
H925 H 0.66283 0.96054 0.27751 0.0
H926 H 0.69839 1.00583 0.38173 0.0
H927 H 0.68455 0.96933 0.34716 0.0
H928 H 0.75565 0.063 0.15778 0.0
H929 H 0.73743 1.03093 0.12157 0.0
H930 H 0.74986 0.10023 0.21856 0.0
H931 H 0.74855 0.09985 0.28804 0.0
C932 C 0.94719 0.32687 0.49397 0.0
C933 C 0.95774 0.31146 0.44622 0.0
C934 C 0.98174 0.2656 0.49982 0.0
C935 C 0.96856 0.27839 0.54638 0.0
N936 N 0.93848 0.32045 0.5889 0.0
N937 N 0.98605 0.26729 0.40321 0.0
C938 C 0.95154 0.30918 0.5438 0.0
C939 C 0.97548 0.28126 0.44917 0.0
N940 N 0.93276 0.35826 0.49181 0.0
N941 N 0.00034 0.23847 0.50434 0.0
H942 H 0.98398 0.27988 0.36631 0.0
H943 H -0.0037 0.24286 0.40088 0.0
H944 H 0.00499 0.22628 0.54063 0.0
H945 H 0.01256 0.22951 0.47335 0.0
H946 H 0.92721 0.37318 0.52522 0.0
H947 H 0.9277 0.37104 0.4564 0.0
H948 H 0.92289 0.33929 0.5892 0.0
H949 H 0.94239 0.30957 0.62644 0.0
C950 C -0.00051 0.80299 0.49854 0.0
C951 C 0.00906 0.78727 0.54661 0.0
C952 C 0.02989 0.73804 0.49496 0.0
C953 C 0.02045 0.75384 0.44661 0.0
N954 N -0.00947 0.79605 0.40371 0.0
N955 N 0.02789 0.73607 0.59183 0.0
C956 C 0.00349 0.78476 0.4489 0.0
C957 C 0.02232 0.75341 0.54509 0.0
N958 N 0.98729 0.83605 0.50024 0.0
N959 N 0.04757 0.70977 0.49316 0.0
H960 H 0.02308 0.74698 0.62899 0.0
H961 H 0.03495 0.70966 0.59378 0.0
H962 H 0.05342 0.69743 0.45782 0.0
H963 H 0.05797 0.70007 0.52629 0.0
H964 H 0.9831 0.85135 0.4665 0.0
H965 H 0.98252 0.84906 0.53594 0.0
H966 H 0.97591 0.81625 0.40333 0.0
H967 H -0.00755 0.78278 0.36718 0.0
C968 C 0.25154 0.53591 0.70579 0.0
C969 C 0.27055 0.56472 0.70203 0.0
C970 C 0.278 0.562 0.79935 0.0
C971 C 0.25977 0.5324 0.80274 0.0
N972 N 0.22547 0.49523 0.76216 0.0
N973 N 0.29813 0.60968 0.7461 0.0
C974 C 0.24528 0.52079 0.75675 0.0
C975 C 0.28239 0.57937 0.74923 0.0
N976 N 0.23981 0.52266 0.66027 0.0
N977 N 0.29214 0.5723 0.84387 0.0
H978 H 0.303 0.62209 0.71021 0.0
H979 H 0.30503 0.62409 0.77913 0.0
H980 H 0.28833 0.56151 0.88147 0.0
H981 H 0.30834 0.59028 0.84359 0.0
H982 H 0.22837 0.4991 0.6585 0.0
H983 H 0.24217 0.53488 0.62318 0.0
H984 H 0.21242 0.48724 0.7317 0.0
H985 H 0.22068 0.48362 0.79876 0.0
C986 C 0.72862 0.54742 0.75661 0.0
C987 C 0.71835 0.53103 0.80348 0.0
C988 C 0.69789 0.48264 0.74891 0.0
C989 C 0.70776 0.49943 0.70179 0.0
N990 N 0.73895 0.54158 0.66239 0.0
N991 N 0.69881 0.47923 0.84587 0.0
C992 C 0.72512 0.52995 0.70623 0.0
C993 C 0.70493 0.49723 0.80002 0.0
N994 N 0.74083 0.58047 0.76002 0.0
N995 N 0.68044 0.4541 0.74492 0.0
H996 H 0.70351 0.48955 0.88356 0.0
H997 H 0.69139 0.45294 0.84668 0.0
H998 H 0.67511 0.44221 0.70872 0.0
H999 H 0.66985 0.44349 0.77708 0.0
H1000 H 0.7455 0.59616 0.72695 0.0
H1001 H 0.74505 0.59313 0.79633 0.0
H1002 H 0.75382 0.56151 0.66375 0.0
H1003 H 0.73755 0.52868 0.62545 0.0
C1004 C 0.98418 0.76838 1.00199 0.0
C1005 C 0.97059 0.78073 0.04842 0.0
C1006 C 0.94857 0.82853 0.9956 0.0
C1007 C 0.95955 0.81348 0.94798 0.0
N1008 N 0.9891 0.77059 0.90544 0.0
N1009 N 0.93984 0.82201 0.09056 0.0
C1010 C 0.97791 0.78395 0.95123 0.0
C1011 C 0.95312 0.81104 0.04556 0.0
N1012 N 0.00311 0.74168 1.00674 0.0
N1013 N 0.93356 0.85942 0.99315 0.0
H1014 H 0.94393 0.81128 0.12813 0.0
H1015 H 0.924 0.84048 0.09079 0.0
H1016 H 0.92848 0.87202 0.95759 0.0
H1017 H 0.92751 0.87414 0.0264 0.0
H1018 H 0.01551 0.73289 0.97593 0.0
H1019 H 0.0078 0.72957 0.04308 0.0
H1020 H 3e-05 0.7467 0.90316 0.0
H1021 H 0.98696 0.78322 0.86859 0.0
C1022 C 0.02708 0.2543 0.04611 0.0
C1023 C 0.01027 0.28533 0.04884 0.0
C1024 C 0.00314 0.28243 0.95161 0.0
C1025 C 0.0209 0.25227 0.94851 0.0
N1026 N 0.04593 0.20537 0.99328 0.0
N1027 N 0.97856 0.32546 1.00698 0.0
C1028 C 0.03144 0.23673 0.99604 0.0
C1029 C -0.00298 0.29817 1.00233 0.0
N1030 N 0.03991 0.24274 0.09134 0.0
N1031 N -0.00754 0.2963 0.90568 0.0
H1032 H 0.97402 0.33772 0.04334 0.0
H1033 H 0.96636 0.33457 0.97599 0.0
H1034 H -0.0055 0.28364 0.86871 0.0
H1035 H 0.9821 0.32065 0.90344 0.0
H1036 H 0.05522 0.2235 0.09182 0.0
H1037 H 0.03598 0.25366 0.12892 0.0
H1038 H 0.0517 0.1904 0.0264 0.0
H1039 H 0.05094 0.19275 0.95752 0.0
C1040 C 0.77421 0.05927 0.79902 0.0
C1041 C 0.76042 1.02568 0.80017 0.0
C1042 C 0.75419 1.0289 0.70274 0.0
C1043 C 0.77147 0.05961 0.70068 0.0
N1044 N 0.80025 0.1021 0.74741 0.0
N1045 N 0.73833 0.97714 0.75308 0.0
C1046 C 0.78175 0.07466 0.74906 0.0
C1047 C 0.75051 1.01026 0.75198 0.0
N1048 N 0.78035 0.07632 0.84593 0.0
N1049 N 0.7406 1.01817 0.65782 0.0
H1050 H 0.73399 0.96371 0.78854 0.0
H1051 H 0.73386 0.96216 0.71897 0.0
H1052 H 0.74223 1.03172 0.62159 0.0
H1053 H 0.72576 0.99818 0.65757 0.0
H1054 H 0.78781 0.10258 0.84811 0.0
H1055 H 0.77567 0.0654 0.88304 0.0
H1056 H 0.81108 0.11114 0.78056 0.0
H1057 H 0.80653 0.1141 0.71217 0.0
C1058 C 0.23115 0.05067 0.74832 0.0
C1059 C 0.22147 1.03399 0.79547 0.0
C1060 C 0.20078 0.98557 0.74136 0.0
C1061 C 0.21041 1.00233 0.69403 0.0
N1062 N 0.24073 0.04519 0.65372 0.0
N1063 N 0.20258 0.98188 0.83821 0.0
C1064 C 0.22744 1.0332 0.69798 0.0
C1065 C 0.2082 1.00008 0.79228 0.0
N1066 N 0.243 0.08397 0.75144 0.0
N1067 N 0.18315 0.95718 0.73777 0.0
H1068 H 0.20754 0.99211 0.87581 0.0
H1069 H 0.19535 0.95549 0.83904 0.0
H1070 H 0.17712 0.94573 0.70166 0.0
H1071 H 0.17293 0.94648 0.77032 0.0
H1072 H 0.24725 0.09977 0.71828 0.0
H1073 H 0.24728 0.09674 0.78764 0.0
H1074 H 0.2554 0.06539 0.65466 0.0
H1075 H 0.23905 1.03244 0.6167 0.0
C1076 C 0.48016 0.26826 0.99357 0.0
C1077 C 0.46646 0.28096 0.03969 0.0
C1078 C 0.44551 0.32951 0.98657 0.0
C1079 C 0.45688 0.31451 0.93938 0.0
N1080 N 0.48675 0.27178 0.89746 0.0
N1081 N 0.43607 0.32313 0.08125 0.0
C1082 C 0.47487 0.2846 0.94293 0.0
C1083 C 0.44943 0.31177 0.03653 0.0
N1084 N 0.49818 0.24045 0.99845 0.0
N1085 N 0.43083 0.36069 0.98364 0.0
H1086 H 0.43974 0.31235 0.11894 0.0
H1087 H 0.42055 0.34206 0.08115 0.0
H1088 H 0.4261 0.37342 0.9479 0.0
H1089 H 0.42458 0.37545 1.01671 0.0
H1090 H 0.51053 0.23109 0.96796 0.0
H1091 H 0.5019 0.22738 0.03445 0.0
H1092 H 0.49769 0.24792 0.89498 0.0
H1093 H 0.48545 0.28513 0.86101 0.0
C1094 C 0.52574 0.7576 0.03777 0.0
C1095 C 0.50963 0.78928 0.04013 0.0
C1096 C 0.50354 0.78703 0.94251 0.0
C1097 C 0.52051 0.75603 0.93985 0.0
N1098 N 0.54384 0.70793 0.98551 0.0
N1099 N 0.47952 0.83103 0.99721 0.0
C1100 C 0.53016 0.73994 0.98776 0.0
C1101 C 0.49729 0.8029 0.99312 0.0
N1102 N 0.53791 0.74543 0.08335 0.0
N1103 N 0.49368 0.8015 0.89628 0.0
H1104 H 0.47489 0.84337 0.03347 0.0
H1105 H 0.46793 0.84084 0.96578 0.0
H1106 H 0.49568 0.78879 0.85934 0.0
H1107 H 0.48403 0.82634 0.89381 0.0
H1108 H 0.55284 0.72566 0.08416 0.0
H1109 H 0.53392 0.75639 0.12087 0.0
H1110 H 0.54867 0.69257 1.01882 0.0
H1111 H 0.54909 0.69521 0.94998 0.0
C1112 C 0.75345 0.53396 0.20543 0.0
C1113 C 0.7705 0.5648 0.20195 0.0
C1114 C 0.7744 0.56562 0.30002 0.0
C1115 C 0.761 0.53177 0.30245 0.0
N1116 N 0.73859 0.48253 0.25753 0.0
N1117 N 0.79887 0.60894 0.24603 0.0
C1118 C 0.75052 0.51579 0.25515 0.0
C1119 C 0.78105 0.58077 0.24938 0.0
N1120 N 0.73942 0.52265 0.16135 0.0
N1121 N 0.78102 0.5831 0.34633 0.0
H1122 H 0.80431 0.6209 0.21011 0.0
H1123 H 0.80984 0.61893 0.2784 0.0
H1124 H 0.7769 0.57236 0.38382 0.0
H1125 H 0.78834 0.60944 0.34778 0.0
H1126 H 0.72474 0.50246 0.16216 0.0
H1127 H 0.74049 0.53595 0.12485 0.0
H1128 H 0.73379 0.46718 0.22395 0.0
H1129 H 0.73481 0.46936 0.29344 0.0
C1130 C 0.22668 0.5558 0.25079 0.0
C1131 C 0.2167 0.54043 0.29864 0.0
C1132 C 0.19521 0.49158 0.24669 0.0
C1133 C 0.20566 0.50649 0.19868 0.0
N1134 N 0.23669 0.54776 0.15675 0.0
N1135 N 0.19642 0.49004 0.34358 0.0
C1136 C 0.22301 0.53715 0.20132 0.0
C1137 C 0.20269 0.50701 0.29693 0.0
N1138 N 0.23894 0.58888 0.2524 0.0
N1139 N 0.17671 0.46415 0.24438 0.0
H1140 H 0.20116 0.50094 0.38087 0.0
H1141 H 0.18878 0.46388 0.3454 0.0
H1142 H 0.17066 0.45197 0.2089 0.0
H1143 H 0.16573 0.45523 0.27717 0.0
H1144 H 0.24355 0.60376 0.2185 0.0
H1145 H 0.24312 0.60246 0.288 0.0
H1146 H 0.2516 0.56766 0.15696 0.0
H1147 H 0.23506 0.5342 0.12036 0.0
C1148 C 0.44949 0.83002 0.4868 0.0
C1149 C 0.45866 0.81398 0.43836 0.0
C1150 C 0.47878 0.76415 0.49001 0.0
C1151 C 0.46969 0.78027 0.5382 0.0
N1152 N 0.45176 0.83209 0.58369 0.0
N1153 N 0.48793 0.77095 0.39546 0.0
C1154 C 0.45692 0.81449 0.53686 0.0
C1155 C 0.47511 0.78256 0.44056 0.0
N1156 N 0.43223 0.85875 0.48514 0.0
N1157 N 0.49016 0.73058 0.49134 0.0
H1158 H 0.48632 0.78437 0.35911 0.0
H1159 H 0.50222 0.75032 0.3951 0.0
H1160 H 0.4945 0.71718 0.52685 0.0
H1161 H 0.49396 0.71521 0.45737 0.0
H1162 H 0.42198 0.86866 0.51827 0.0
H1163 H 0.42661 0.87134 0.4499 0.0
H1164 H 0.44511 0.85868 0.58577 0.0
H1165 H 0.45649 0.82112 0.62081 0.0
C1166 C 0.49485 0.30085 0.4911 0.0
C1167 C 0.50688 0.28666 0.538 0.0
C1168 C 0.52734 0.23769 0.48507 0.0
C1169 C 0.51857 0.25481 0.43724 0.0
N1170 N 0.4919 0.30069 0.39418 0.0
N1171 N 0.53457 0.24205 0.58089 0.0
C1172 C 0.50152 0.28572 0.44024 0.0
C1173 C 0.52272 0.25481 0.53536 0.0
N1174 N 0.47697 0.32882 0.49561 0.0
N1175 N 0.5403 0.20518 0.48262 0.0
H1176 H 0.53044 0.25273 0.61853 0.0
H1177 H 0.5494 0.22214 0.58149 0.0
H1178 H 0.54539 0.19244 0.44707 0.0
H1179 H 0.54442 0.18933 0.5158 0.0
H1180 H 0.46573 0.33924 0.46414 0.0
H1181 H 0.47186 0.34028 0.53226 0.0
H1182 H 0.48218 0.3255 0.39214 0.0
H1183 H 0.49404 0.28833 0.35702 0.0
C1184 C 0.15787 0.18248 0.85737 0.0
C1185 C 0.13653 0.18322 0.89541 0.0
C1186 C 0.15421 0.12797 0.9358 0.0
C1187 C 0.17668 0.12967 0.9008 0.0
N1188 N 0.2036 0.16389 0.83859 0.0
N1189 N 0.11606 0.15969 0.97506 0.0
C1190 C 0.17975 0.15878 0.86516 0.0
C1191 C 0.13517 0.1568 0.93603 0.0
N1192 N 0.15623 0.20174 0.81102 0.0
N1193 N 0.15075 0.09847 0.96757 0.0
H1194 H 0.10201 0.18066 0.9761 0.0
H1195 H 0.11549 0.14315 1.00848 0.0
H1196 H 0.16462 0.07728 0.96875 0.0
H1197 H 0.13338 0.09387 0.98996 0.0
H1198 H 0.17006 0.19876 0.78001 0.0
H1199 H 0.1394 0.21681 0.79982 0.0
H1200 H 0.20762 0.18698 0.81636 0.0
H1201 H 0.22035 0.14703 0.84303 0.0
C1202 C 0.83536 0.94693 0.91397 0.0
C1203 C 0.80847 0.93351 0.90935 0.0
C1204 C 0.82491 0.87273 0.9264 0.0
C1205 C 0.85162 0.88453 0.91658 0.0
N1206 N 0.88348 0.93394 0.91282 0.0
N1207 N 0.77782 0.88247 0.90602 0.0
C1208 C 0.85732 0.92208 0.91446 0.0
C1209 C 0.80319 0.89611 0.91486 0.0
N1210 N 0.83975 0.98317 0.91973 0.0
N1211 N 0.82042 0.8392 0.94693 0.0
H1212 H 0.76132 0.8984 0.8952 0.0
H1213 H 0.77395 0.85486 0.90402 0.0
H1214 H 0.83638 0.82251 0.95864 0.0
H1215 H 0.80127 0.83017 0.95831 0.0
H1216 H 0.85863 0.99448 0.92797 0.0
H1217 H 0.82407 1.00198 0.92067 0.0
H1218 H 0.88899 0.96008 0.90231 0.0
H1219 H 0.89975 0.91751 0.92305 0.0
C1220 C 0.08357 0.36802 0.16259 0.0
C1221 C 0.05639 0.38024 0.15765 0.0
C1222 C 0.0718 0.44218 0.16964 0.0
C1223 C 0.09883 0.43111 0.16085 0.0
N1224 N 0.13151 0.38273 0.16114 0.0
N1225 N 0.02472 0.43024 0.15534 0.0
C1226 C 0.10513 0.3937 0.16156 0.0
C1227 C 0.05053 0.41759 0.16129 0.0
N1228 N 0.0886 0.33216 0.17038 0.0
N1229 N 0.06569 0.47637 0.18549 0.0
H1230 H 0.00827 0.41389 0.14529 0.0
H1231 H 0.02032 0.45774 0.15689 0.0
H1232 H 0.08031 0.49545 0.1964 0.0
H1233 H 0.08031 0.49545 0.1964 0.0
H1234 H 0.10768 0.32171 0.17884 0.0
H1235 H 0.07322 0.3129 0.1728 0.0
H1236 H 0.13754 0.35647 0.15251 0.0
H1237 H 0.14745 0.40001 0.17076 0.0
C1238 C 0.90714 0.67879 0.18403 0.0
C1239 C 0.92874 0.67917 0.14687 0.0
C1240 C 0.90914 0.62827 0.09936 0.0
C1241 C 0.88876 0.62533 0.13921 0.0
N1242 N 0.87102 0.64384 0.22437 0.0
N1243 N 0.95456 0.64788 0.07955 0.0
C1244 C 0.88858 0.6494 0.18322 0.0
C1245 C 0.9312 0.65164 0.1082 0.0
N1246 N 0.90384 0.70696 0.21865 0.0
N1247 N 0.9063 0.61191 0.05066 0.0
H1248 H 0.97144 0.66448 0.08508 0.0
H1249 H 0.95806 0.62592 0.05442 0.0
H1250 H 0.88897 0.5981 0.03851 0.0
H1251 H 0.91959 0.61654 1.01919 0.0
H1252 H 0.88688 0.70995 0.24283 0.0
H1253 H 0.91715 0.72884 0.22031 0.0
H1254 H 0.87155 0.65865 0.25971 0.0
H1255 H 0.85754 0.62215 0.22508 0.0
C1256 C 0.17726 0.66958 0.41908 0.0
C1257 C 0.17153 0.63214 0.41437 0.0
C1258 C 0.12283 0.64464 0.41949 0.0
C1259 C 0.1289 0.68213 0.41957 0.0
N1260 N 0.16052 0.72763 0.44836 0.0
N1261 N 0.13982 0.58336 0.42701 0.0
C1262 C 0.15574 0.69366 0.42934 0.0
C1263 C 0.14453 0.61938 0.41991 0.0
N1264 N 0.20282 0.68256 0.41045 0.0
N1265 N 0.09654 0.63322 0.41837 0.0
H1266 H 0.15537 0.56436 0.42858 0.0
H1267 H 0.1209 0.57255 0.43582 0.0
H1268 H 0.08048 0.65024 0.42756 0.0
H1269 H 0.09072 0.6069 0.40927 0.0
H1270 H 0.20723 0.71004 0.4087 0.0
H1271 H 0.2191 0.66621 0.39985 0.0
H1272 H 0.1797 0.73666 0.45982 0.0
H1273 H 0.14469 0.74491 0.4588 0.0
C1274 C 0.8583 0.42521 0.41285 0.0
C1275 C 0.85162 0.38798 0.41553 0.0
C1276 C 0.80351 0.40178 0.41533 0.0
C1277 C 0.80975 0.43893 0.40942 0.0
N1278 N 0.84242 0.48713 0.41819 0.0
N1279 N 0.81954 0.34415 0.44705 0.0
C1280 C 0.83702 0.45109 0.4129 0.0
C1281 C 0.8247 0.37745 0.42634 0.0
N1282 N 0.88475 0.4358 0.41024 0.0
N1283 N 0.77769 0.38936 0.40759 0.0
H1284 H 0.83517 0.32689 0.4587 0.0
H1285 H 0.80027 0.33571 0.45841 0.0
H1286 H 0.76163 0.40598 0.39645 0.0
H1287 H 0.7728 0.362 0.40691 0.0
H1288 H 0.89086 0.46164 0.3994 0.0
H1289 H 0.90066 0.41867 0.4201 0.0
H1290 H 0.86166 0.49756 0.42568 0.0
H1291 H 0.82727 0.50667 0.41948 0.0
C1292 C 0.07419 0.88719 0.68405 0.0
C1293 C 0.05218 0.88775 0.64744 0.0
C1294 C 0.0711 0.94029 0.6034 0.0
C1295 C 0.09255 0.94138 0.64166 0.0
N1296 N 0.11181 0.92004 0.72394 0.0
N1297 N 0.02711 0.91849 0.57828 0.0
C1298 C 0.09327 0.91604 0.68379 0.0
C1299 C 0.04967 0.9158 0.60985 0.0
N1300 N 0.07747 0.8584 0.71731 0.0
N1301 N 0.07112 0.96025 0.55787 0.0
H1302 H 0.01021 0.90179 0.58238 0.0
H1303 H 0.0248 0.93879 0.5499 0.0
H1304 H 0.08695 0.97671 0.54518 0.0
H1305 H 0.08695 0.97671 0.54518 0.0
H1306 H 0.09464 0.85452 0.7408 0.0
H1307 H 0.06386 0.83686 0.71855 0.0
H1308 H 0.11184 0.90446 0.75838 0.0
H1309 H 0.12573 0.94124 0.72493 0.0
C1310 C 0.90838 0.12156 0.66633 0.0
C1311 C 0.88124 0.13303 0.66038 0.0
C1312 C 0.89637 0.19582 0.66309 0.0
C1313 C 0.92352 0.18396 0.6564 0.0
N1314 N 0.95526 0.13457 0.64733 0.0
N1315 N 0.84902 0.1817 0.67057 0.0
C1316 C 0.92961 0.14654 0.6577 0.0
C1317 C 0.87508 0.17028 0.66422 0.0
N1318 N 0.91372 0.08695 0.68145 0.0
N1319 N 0.89009 0.23138 0.6689 0.0
H1320 H 0.83318 0.16421 0.67955 0.0
H1321 H 0.84379 0.20898 0.67119 0.0
H1322 H 0.90437 0.25217 0.67022 0.0
H1323 H 0.90437 0.25217 0.67022 0.0
H1324 H 0.93313 0.07777 0.69057 0.0
H1325 H 0.89826 0.06897 0.69149 0.0
H1326 H 0.95998 0.10736 0.64259 0.0
H1327 H 0.97134 0.15173 0.63835 0.0
C1328 C 0.64879 0.13486 0.41598 0.0
C1329 C 0.67545 0.14361 0.39919 0.0
C1330 C 0.66382 0.20756 0.397 0.0
C1331 C 0.63631 0.19801 0.404 0.0
N1332 N 0.60502 0.15731 0.44511 0.0
N1333 N 0.70888 0.18778 0.37311 0.0
C1334 C 0.62942 0.16293 0.42112 0.0
C1335 C 0.68327 0.17993 0.39029 0.0
N1336 N 0.64191 0.09972 0.42547 0.0
N1337 N 0.67129 0.24302 0.39927 0.0
H1338 H 0.72376 0.16818 0.36753 0.0
H1339 H 0.71488 0.21329 0.36054 0.0
H1340 H 0.65756 0.26321 0.40958 0.0
H1341 H 0.6913 0.25191 0.39823 0.0
H1342 H 0.62214 0.09103 0.43201 0.0
H1343 H 0.65587 0.07865 0.42404 0.0
H1344 H 0.59896 0.13286 0.4615 0.0
H1345 H 0.59227 0.17875 0.45461 0.0
C1346 C 0.30238 0.9004 0.4107 0.0
C1347 C 0.3083 0.93776 0.40624 0.0
C1348 C 0.35695 0.92454 0.4111 0.0
C1349 C 0.35057 0.88714 0.41252 0.0
N1350 N 0.31844 0.84281 0.44238 0.0
N1351 N 0.34051 0.98615 0.41822 0.0
C1352 C 0.32363 0.87626 0.42225 0.0
C1353 C 0.33544 0.95016 0.41142 0.0
N1354 N 0.27694 0.88747 0.40046 0.0
N1355 N 0.3833 0.93557 0.40914 0.0
H1356 H 0.32513 1.0054 0.41982 0.0
H1357 H 0.35959 0.99669 0.42685 0.0
H1358 H 0.39934 0.9185 0.41837 0.0
H1359 H 0.3892 0.96167 0.39923 0.0
H1360 H 0.27266 0.85997 0.39812 0.0
H1361 H 0.26085 0.90379 0.38858 0.0
H1362 H 0.29909 0.83443 0.45352 0.0
H1363 H 0.33403 0.82551 0.45407 0.0
C1364 C 0.57444 0.3828 0.66938 0.0
C1365 C 0.55027 0.38633 0.6393 0.0
C1366 C 0.56655 0.44229 0.60022 0.0
C1367 C 0.59047 0.43992 0.63212 0.0
N1368 N 0.61393 0.41295 0.70623 0.0
N1369 N 0.51992 0.42381 0.58844 0.0
C1370 C 0.59345 0.41162 0.66955 0.0
C1371 C 0.54519 0.41763 0.60901 0.0
N1372 N 0.57949 0.35165 0.69658 0.0
N1373 N 0.56475 0.46594 0.55865 0.0
H1374 H 0.50375 0.40592 0.59305 0.0
H1375 H 0.5143 0.44826 0.57134 0.0
H1376 H 0.58001 0.48361 0.54747 0.0
H1377 H 0.54896 0.46539 0.53098 0.0
H1378 H 0.59806 0.34594 0.71448 0.0
H1379 H 0.56566 0.33036 0.69817 0.0
H1380 H 0.61588 0.39472 0.73748 0.0
H1381 H 0.62732 0.43467 0.70866 0.0
C1382 C 0.40869 0.62836 0.60406 0.0
C1383 C 0.38781 0.62786 0.64315 0.0
C1384 C 0.4055 0.68413 0.68117 0.0
C1385 C 0.4274 0.6825 0.6448 0.0
N1386 N 0.45409 0.64752 0.583 0.0
N1387 N 0.36872 0.65179 0.72405 0.0
C1388 C 0.43045 0.65266 0.61025 0.0
C1389 C 0.38697 0.65471 0.68347 0.0
N1390 N 0.40663 0.6086 0.55803 0.0
N1391 N 0.40198 0.71413 0.71214 0.0
H1392 H 0.35515 0.63026 0.7268 0.0
H1393 H 0.36861 0.66879 0.75718 0.0
H1394 H 0.41539 0.73592 0.71167 0.0
H1395 H 0.38487 0.71853 0.73541 0.0
H1396 H 0.42019 0.61135 0.52653 0.0
H1397 H 0.38974 0.59333 0.54746 0.0
H1398 H 0.45811 0.624 0.56153 0.0
H1399 H 0.47068 0.66487 0.58627 0.0
C1400 C 0.6322 0.65836 0.93514 0.0
C1401 C 0.63516 0.68463 0.89467 0.0
C1402 C 0.67842 0.65827 0.86847 0.0
C1403 C 0.67366 0.62925 0.90355 0.0
N1404 N 0.64534 0.59926 0.96771 0.0
N1405 N 0.65737 0.70221 0.81222 0.0
C1406 C 0.65037 0.6286 0.93645 0.0
C1407 C 0.65739 0.68299 0.8587 0.0
N1408 N 0.61241 0.66226 0.97264 0.0
N1409 N 0.70302 0.66227 0.84421 0.0
H1410 H 0.64116 0.7178 0.79921 0.0
H1411 H 0.67192 0.69867 0.78265 0.0
H1412 H 0.71915 0.64456 0.85003 0.0
H1413 H 0.70821 0.68522 0.8226 0.0
H1414 H 0.61065 0.64575 1.00593 0.0
H1415 H 0.5991 0.68408 0.97278 0.0
H1416 H 0.62732 0.5955 0.98844 0.0
H1417 H 0.65855 0.57738 0.97003 0.0
C1418 C 0.34209 0.39977 0.93062 0.0
C1419 C 0.34004 0.37408 0.88889 0.0
C1420 C 0.29643 0.39936 0.8621 0.0
C1421 C 0.30072 0.4284 0.89765 0.0
N1422 N 0.3285 0.45861 0.96341 0.0
N1423 N 0.31838 0.35637 0.80536 0.0
C1424 C 0.32373 0.42923 0.93165 0.0
C1425 C 0.31788 0.37523 0.85234 0.0
N1426 N 0.36128 0.39565 0.96948 0.0
N1427 N 0.27195 0.39494 0.83721 0.0
H1428 H 0.33488 0.34143 0.79221 0.0
H1429 H 0.30377 0.3596 0.77566 0.0
H1430 H 0.25563 0.41232 0.8432 0.0
H1431 H 0.26711 0.37198 0.815 0.0
H1432 H 0.36232 0.41179 1.00349 0.0
H1433 H 0.37458 0.37382 0.97006 0.0
H1434 H 0.3464 0.46239 0.98482 0.0
H1435 H 0.31534 0.48056 0.96533 0.0
C1436 C 0.58256 0.87035 0.15804 0.0
C1437 C 0.55543 0.88258 0.15275 0.0
C1438 C 0.57101 0.94471 0.16503 0.0
C1439 C 0.59809 0.93322 0.15822 0.0
N1440 N 0.62966 0.88332 0.16726 0.0
N1441 N 0.52432 0.93371 0.14965 0.0
C1442 C 0.60398 0.89577 0.16052 0.0
C1443 C 0.54971 0.92009 0.15651 0.0
N1444 N 0.58814 0.83434 0.16126 0.0
N1445 N 0.56541 0.97954 0.17891 0.0
H1446 H 0.5073 0.9184 0.13954 0.0
H1447 H 0.5073 0.9184 0.13954 0.0
H1448 H 0.58056 0.99757 0.1908 0.0
H1449 H 0.54563 0.98896 0.18347 0.0
H1450 H 0.60789 0.82447 0.16423 0.0
H1451 H 0.57311 0.81454 0.16238 0.0
H1452 H 0.64638 0.89984 0.17468 0.0
H1453 H 0.64638 0.89984 0.17468 0.0
C1454 C 0.42802 0.1524 0.1631 0.0
C1455 C 0.4219 0.18962 0.15732 0.0
C1456 C 0.37337 0.17605 0.16456 0.0
C1457 C 0.37989 0.13877 0.16613 0.0
N1458 N 0.41225 0.09488 0.19601 0.0
N1459 N 0.38973 0.23792 0.16897 0.0
C1460 C 0.40691 0.1282 0.1756 0.0
C1461 C 0.39479 0.20187 0.16325 0.0
N1462 N 0.45349 0.13961 0.15316 0.0
N1463 N 0.34693 0.18668 0.16372 0.0
H1464 H 0.40507 0.25732 0.16929 0.0
H1465 H 0.37074 0.24845 0.17781 0.0
H1466 H 0.33117 0.16933 0.17382 0.0
H1467 H 0.3407 0.21265 0.15395 0.0
H1468 H 0.45807 0.11217 0.15255 0.0
H1469 H 0.46936 0.15586 0.14009 0.0
H1470 H 0.43165 0.08668 0.20725 0.0
H1471 H 0.39671 0.07748 0.20764 0.0
loop_
_geom_bond_atom_site_label_1
_geom_bond_atom_site_label_2
_geom_bond_distance
_geom_bond_site_symmetry_2
_ccdc_geom_bond_type
O0 Tb1 2.292 . S
O0 C3 1.255 1_545 S
Tb1 O0 2.292 . S
Tb1 O17 2.326 . S
Tb1 O19 2.500 . S
Tb1 O20 2.473 . S
Tb1 O23 2.324 1_554 S
Eu2 O6 2.292 . S
Eu2 C7 2.852 1_554 S
Eu2 O18 2.324 . S
Eu2 O22 2.326 1_554 S
Eu2 O24 2.500 1_554 S
Eu2 O25 2.473 . S
C3 O0 1.255 1_565 S
C3 O4 1.247 . S
O4 C3 1.247 . S
C5 O17 1.242 . S
C5 O18 1.258 . S
O6 Eu2 2.292 . S
O6 C8 1.255 . S
C7 Eu2 2.852 1_556 S
C7 C11 1.503 . S
C7 O24 1.273 . S
C7 O25 1.257 1_556 S
C8 O6 1.255 . S
C8 O9 1.247 . S
O9 C8 1.247 . S
C10 O22 1.242 . S
C10 O23 1.258 . S
C11 C7 1.503 . S
C11 C12 1.379 . S
C11 C16 1.392 . S
C12 C11 1.379 . S
C12 C13 1.404 . S
C12 H26 0.929 . S
C13 C12 1.404 . S
C13 C14 1.389 . S
C14 C13 1.389 . S
C14 C15 1.399 . S
C14 H27 0.931 . S
C15 C14 1.399 . S
C15 C16 1.390 . S
C16 C11 1.392 . S
C16 C15 1.390 . S
C16 H28 0.929 . S
O17 Tb1 2.326 . S
O17 C5 1.242 . S
O18 Eu2 2.324 . S
O18 C5 1.258 . S
O19 Tb1 2.500 . S
O19 C21 1.273 . S
O20 Tb1 2.473 . S
O20 C21 1.257 . S
C21 O19 1.273 . S
C21 O20 1.257 . S
O22 Eu2 2.326 1_556 S
O22 C10 1.242 . S
O23 Tb1 2.324 1_556 S
O23 C10 1.258 . S
O24 Eu2 2.500 1_556 S
O24 C7 1.273 . S
O25 Eu2 2.473 . S
O25 C7 1.257 1_554 S
H26 C12 0.929 . S
H27 C14 0.931 . S
H28 C16 0.929 . S
O29 Tb30 2.292 . S
O29 C32 1.255 1_565 S
Tb30 O29 2.292 . S
Tb30 O46 2.326 . S
Tb30 O48 2.500 . S
Tb30 O49 2.473 . S
Tb30 O52 2.324 1_554 S
Eu31 O35 2.292 . S
Eu31 C36 2.852 1_554 S
Eu31 O47 2.324 . S
Eu31 O51 2.326 1_554 S
Eu31 O53 2.500 1_554 S
Eu31 O54 2.473 . S
C32 O29 1.255 1_545 S
C32 O33 1.247 . S
O33 C32 1.247 . S
C34 O46 1.242 . S
C34 O47 1.258 . S
O35 Eu31 2.292 . S
O35 C37 1.255 . S
C36 Eu31 2.852 1_556 S
C36 C40 1.503 . S
C36 O53 1.273 . S
C36 O54 1.257 1_556 S
C37 O35 1.255 . S
C37 O38 1.247 . S
O38 C37 1.247 . S
C39 O51 1.242 . S
C39 O52 1.258 . S
C40 C36 1.503 . S
C40 C41 1.379 . S
C40 C45 1.392 . S
C41 C40 1.379 . S
C41 C42 1.404 . S
C41 H55 0.929 . S
C42 C41 1.404 . S
C42 C43 1.389 . S
C43 C42 1.389 . S
C43 C44 1.399 . S
C43 H56 0.931 . S
C44 C43 1.399 . S
C44 C45 1.390 . S
C45 C40 1.392 . S
C45 C44 1.390 . S
C45 H57 0.929 . S
O46 Tb30 2.326 . S
O46 C34 1.242 . S
O47 Eu31 2.324 . S
O47 C34 1.258 . S
O48 Tb30 2.500 . S
O48 C50 1.273 . S
O49 Tb30 2.473 . S
O49 C50 1.257 . S
C50 O48 1.273 . S
C50 O49 1.257 . S
O51 Eu31 2.326 1_556 S
O51 C39 1.242 . S
O52 Tb30 2.324 1_556 S
O52 C39 1.258 . S
O53 Eu31 2.500 1_556 S
O53 C36 1.273 . S
O54 Eu31 2.473 . S
O54 C36 1.257 1_554 S
H55 C41 0.929 . S
H56 C43 0.931 . S
H57 C45 0.929 . S
O58 Tb59 2.292 . S
O58 C61 1.255 . S
Tb59 O58 2.292 . S
Tb59 O75 2.326 . S
Tb59 O77 2.500 . S
Tb59 O78 2.473 . S
Tb59 O81 2.324 . S
Eu60 O64 2.292 . S
Eu60 C65 2.852 1_655 S
Eu60 O76 2.324 . S
Eu60 O80 2.326 . S
Eu60 O82 2.500 1_655 S
Eu60 O83 2.473 . S
C61 O58 1.255 . S
C61 O62 1.247 . S
O62 C61 1.247 . S
C63 O75 1.242 . S
C63 O76 1.258 . S
O64 Eu60 2.292 . S
O64 C66 1.255 . S
C65 Eu60 2.852 1_455 S
C65 C69 1.503 . S
C65 O82 1.273 . S
C65 O83 1.257 1_455 S
C66 O64 1.255 . S
C66 O67 1.247 . S
O67 C66 1.247 . S
C68 O80 1.242 . S
C68 O81 1.258 . S
C69 C65 1.503 . S
C69 C70 1.379 . S
C69 C74 1.392 . S
C70 C69 1.379 . S
C70 C71 1.404 . S
C70 H84 0.929 1_455 S
C71 C70 1.404 . S
C71 C72 1.389 . S
C72 C71 1.389 . S
C72 C73 1.399 . S
C72 H85 0.931 . S
C73 C72 1.399 . S
C73 C74 1.390 . S
C74 C69 1.392 . S
C74 C73 1.390 . S
C74 H86 0.929 . S
O75 Tb59 2.326 . S
O75 C63 1.242 . S
O76 Eu60 2.324 . S
O76 C63 1.258 . S
O77 Tb59 2.500 . S
O77 C79 1.273 . S
O78 Tb59 2.473 . S
O78 C79 1.257 . S
C79 O77 1.273 . S
C79 O78 1.257 . S
O80 Eu60 2.326 . S
O80 C68 1.242 . S
O81 Tb59 2.324 . S
O81 C68 1.258 . S
O82 Eu60 2.500 1_455 S
O82 C65 1.273 . S
O83 Eu60 2.473 . S
O83 C65 1.257 1_655 S
H84 C70 0.929 1_655 S
H85 C72 0.931 . S
H86 C74 0.929 . S
O87 Tb88 2.292 . S
O87 C90 1.255 . S
Tb88 O87 2.292 . S
Tb88 O104 2.326 . S
Tb88 O106 2.500 . S
Tb88 O107 2.473 . S
Tb88 O110 2.324 . S
Eu89 O93 2.292 . S
Eu89 C94 2.852 1_455 S
Eu89 O105 2.324 . S
Eu89 O109 2.326 . S
Eu89 O111 2.500 1_455 S
Eu89 O112 2.473 . S
C90 O87 1.255 . S
C90 O91 1.247 . S
O91 C90 1.247 . S
C92 O104 1.242 . S
C92 O105 1.258 . S
O93 Eu89 2.292 . S
O93 C95 1.255 . S
C94 Eu89 2.852 1_655 S
C94 C98 1.503 . S
C94 O111 1.273 . S
C94 O112 1.257 1_655 S
C95 O93 1.255 . S
C95 O96 1.247 . S
O96 C95 1.247 . S
C97 O109 1.242 . S
C97 O110 1.258 . S
C98 C94 1.503 . S
C98 C99 1.379 . S
C98 C103 1.392 . S
C99 C98 1.379 . S
C99 C100 1.404 . S
C99 H113 0.929 1_655 S
C100 C99 1.404 . S
C100 C101 1.389 . S
C101 C100 1.389 . S
C101 C102 1.399 . S
C101 H114 0.931 . S
C102 C101 1.399 . S
C102 C103 1.390 . S
C103 C98 1.392 . S
C103 C102 1.390 . S
C103 H115 0.929 . S
O104 Tb88 2.326 . S
O104 C92 1.242 . S
O105 Eu89 2.324 . S
O105 C92 1.258 . S
O106 Tb88 2.500 . S
O106 C108 1.273 . S
O107 Tb88 2.473 . S
O107 C108 1.257 . S
C108 O106 1.273 . S
C108 O107 1.257 . S
O109 Eu89 2.326 . S
O109 C97 1.242 . S
O110 Tb88 2.324 . S
O110 C97 1.258 . S
O111 Eu89 2.500 1_655 S
O111 C94 1.273 . S
O112 Eu89 2.473 . S
O112 C94 1.257 1_455 S
H113 C99 0.929 1_455 S
H114 C101 0.931 . S
H115 C103 0.929 . S
O116 Tb117 2.292 . S
O116 C119 1.255 . S
Tb117 O116 2.292 . S
Tb117 O133 2.326 . S
Tb117 O135 2.500 . S
Tb117 O136 2.473 . S
Tb117 O139 2.324 . S
Eu118 O122 2.292 . S
Eu118 C123 2.852 . S
Eu118 O134 2.324 . S
Eu118 O138 2.326 . S
Eu118 O140 2.500 . S
Eu118 O141 2.473 . S
C119 O116 1.255 . S
C119 O120 1.247 . S
O120 C119 1.247 . S
C121 O133 1.242 . S
C121 O134 1.258 . S
O122 Eu118 2.292 . S
O122 C124 1.255 . S
C123 Eu118 2.852 . S
C123 C127 1.503 . S
C123 O140 1.273 . S
C123 O141 1.257 . S
C124 O122 1.255 . S
C124 O125 1.247 . S
O125 C124 1.247 . S
C126 O138 1.242 . S
C126 O139 1.258 . S
C127 C123 1.503 . S
C127 C128 1.379 . S
C127 C132 1.392 . S
C128 C127 1.379 . S
C128 C129 1.404 . S
C128 H142 0.929 . S
C129 C128 1.404 . S
C129 C130 1.389 . S
C130 C129 1.389 . S
C130 C131 1.399 . S
C130 H143 0.931 . S
C131 C130 1.399 . S
C131 C132 1.390 . S
C132 C127 1.392 . S
C132 C131 1.390 . S
C132 H144 0.929 . S
O133 Tb117 2.326 . S
O133 C121 1.242 . S
O134 Eu118 2.324 . S
O134 C121 1.258 . S
O135 Tb117 2.500 . S
O135 C137 1.273 . S
O136 Tb117 2.473 . S
O136 C137 1.257 . S
C137 O135 1.273 . S
C137 O136 1.257 . S
O138 Eu118 2.326 . S
O138 C126 1.242 . S
O139 Tb117 2.324 . S
O139 C126 1.258 . S
O140 Eu118 2.500 . S
O140 C123 1.273 . S
O141 Eu118 2.473 . S
O141 C123 1.257 . S
H142 C128 0.929 . S
H143 C130 0.931 . S
H144 C132 0.929 . S
O145 Tb146 2.292 . S
O145 C148 1.255 . S
Tb146 O145 2.292 . S
Tb146 O162 2.326 . S
Tb146 O164 2.500 . S
Tb146 O165 2.473 . S
Tb146 O168 2.324 . S
Eu147 O151 2.292 . S
Eu147 C152 2.852 . S
Eu147 O163 2.324 . S
Eu147 O167 2.326 . S
Eu147 O169 2.500 . S
Eu147 O170 2.473 . S
C148 O145 1.255 . S
C148 O149 1.247 . S
O149 C148 1.247 . S
C150 O162 1.242 . S
C150 O163 1.258 . S
O151 Eu147 2.292 . S
O151 C153 1.255 . S
C152 Eu147 2.852 . S
C152 C156 1.503 . S
C152 O169 1.273 . S
C152 O170 1.257 . S
C153 O151 1.255 . S
C153 O154 1.247 . S
O154 C153 1.247 . S
C155 O167 1.242 . S
C155 O168 1.258 . S
C156 C152 1.503 . S
C156 C157 1.379 . S
C156 C161 1.392 . S
C157 C156 1.379 . S
C157 C158 1.404 . S
C157 H171 0.929 . S
C158 C157 1.404 . S
C158 C159 1.389 . S
C159 C158 1.389 . S
C159 C160 1.399 . S
C159 H172 0.931 . S
C160 C159 1.399 . S
C160 C161 1.390 . S
C161 C156 1.392 . S
C161 C160 1.390 . S
C161 H173 0.929 . S
O162 Tb146 2.326 . S
O162 C150 1.242 . S
O163 Eu147 2.324 . S
O163 C150 1.258 . S
O164 Tb146 2.500 . S
O164 C166 1.273 . S
O165 Tb146 2.473 . S
O165 C166 1.257 . S
C166 O164 1.273 . S
C166 O165 1.257 . S
O167 Eu147 2.326 . S
O167 C155 1.242 . S
O168 Tb146 2.324 . S
O168 C155 1.258 . S
O169 Eu147 2.500 . S
O169 C152 1.273 . S
O170 Eu147 2.473 . S
O170 C152 1.257 . S
H171 C157 0.929 . S
H172 C159 0.931 . S
H173 C161 0.929 . S
O174 Tb175 2.292 . S
O174 C177 1.255 . S
Tb175 O174 2.292 . S
Tb175 O191 2.326 . S
Tb175 O193 2.500 . S
Tb175 O194 2.473 . S
Tb175 O197 2.324 . S
Eu176 O180 2.292 . S
Eu176 C181 2.852 1_655 S
Eu176 O192 2.324 . S
Eu176 O196 2.326 . S
Eu176 O198 2.500 1_655 S
Eu176 O199 2.473 . S
C177 O174 1.255 . S
C177 O178 1.247 . S
O178 C177 1.247 . S
C179 O191 1.242 . S
C179 O192 1.258 . S
O180 Eu176 2.292 . S
O180 C182 1.255 . S
C181 Eu176 2.852 1_455 S
C181 C185 1.503 . S
C181 O198 1.273 . S
C181 O199 1.257 1_455 S
C182 O180 1.255 . S
C182 O183 1.247 . S
O183 C182 1.247 . S
C184 O196 1.242 . S
C184 O197 1.258 . S
C185 C181 1.503 . S
C185 C186 1.379 . S
C185 C190 1.392 . S
C186 C185 1.379 . S
C186 C187 1.404 . S
C186 H200 0.929 1_455 S
C187 C186 1.404 . S
C187 C188 1.389 . S
C188 C187 1.389 . S
C188 C189 1.399 . S
C188 H201 0.931 . S
C189 C188 1.399 . S
C189 C190 1.390 . S
C190 C185 1.392 . S
C190 C189 1.390 . S
C190 H202 0.929 . S
O191 Tb175 2.326 . S
O191 C179 1.242 . S
O192 Eu176 2.324 . S
O192 C179 1.258 . S
O193 Tb175 2.500 . S
O193 C195 1.273 . S
O194 Tb175 2.473 . S
O194 C195 1.257 . S
C195 O193 1.273 . S
C195 O194 1.257 . S
O196 Eu176 2.326 . S
O196 C184 1.242 . S
O197 Tb175 2.324 . S
O197 C184 1.258 . S
O198 Eu176 2.500 1_455 S
O198 C181 1.273 . S
O199 Eu176 2.473 . S
O199 C181 1.257 1_655 S
H200 C186 0.929 1_655 S
H201 C188 0.931 . S
H202 C190 0.929 . S
O203 Tb204 2.292 . S
O203 C206 1.255 . S
Tb204 O203 2.292 . S
Tb204 O220 2.326 . S
Tb204 O222 2.500 . S
Tb204 O223 2.473 . S
Tb204 O226 2.324 . S
Eu205 O209 2.292 . S
Eu205 C210 2.852 1_455 S
Eu205 O221 2.324 . S
Eu205 O225 2.326 . S
Eu205 O227 2.500 1_455 S
Eu205 O228 2.473 . S
C206 O203 1.255 . S
C206 O207 1.247 . S
O207 C206 1.247 . S
C208 O220 1.242 . S
C208 O221 1.258 . S
O209 Eu205 2.292 . S
O209 C211 1.255 . S
C210 Eu205 2.852 1_655 S
C210 C214 1.503 . S
C210 O227 1.273 . S
C210 O228 1.257 1_655 S
C211 O209 1.255 . S
C211 O212 1.247 . S
O212 C211 1.247 . S
C213 O225 1.242 . S
C213 O226 1.258 . S
C214 C210 1.503 . S
C214 C215 1.379 . S
C214 C219 1.392 . S
C215 C214 1.379 . S
C215 C216 1.404 . S
C215 H229 0.929 1_655 S
C216 C215 1.404 . S
C216 C217 1.389 . S
C217 C216 1.389 . S
C217 C218 1.399 . S
C217 H230 0.931 . S
C218 C217 1.399 . S
C218 C219 1.390 . S
C219 C214 1.392 . S
C219 C218 1.390 . S
C219 H231 0.929 . S
O220 Tb204 2.326 . S
O220 C208 1.242 . S
O221 Eu205 2.324 . S
O221 C208 1.258 . S
O222 Tb204 2.500 . S
O222 C224 1.273 . S
O223 Tb204 2.473 . S
O223 C224 1.257 . S
C224 O222 1.273 . S
C224 O223 1.257 . S
O225 Eu205 2.326 . S
O225 C213 1.242 . S
O226 Tb204 2.324 . S
O226 C213 1.258 . S
O227 Eu205 2.500 1_655 S
O227 C210 1.273 . S
O228 Eu205 2.473 . S
O228 C210 1.257 1_455 S
H229 C215 0.929 1_455 S
H230 C217 0.931 . S
H231 C219 0.929 . S
O232 Tb233 2.292 . S
O232 C235 1.255 1_545 S
Tb233 O232 2.292 . S
Tb233 O249 2.326 . S
Tb233 O251 2.500 . S
Tb233 O252 2.473 . S
Tb233 O255 2.324 . S
Eu234 O238 2.292 . S
Eu234 C239 2.852 . S
Eu234 O250 2.324 . S
Eu234 O254 2.326 . S
Eu234 O256 2.500 . S
Eu234 O257 2.473 . S
C235 O232 1.255 1_565 S
C235 O236 1.247 . S
O236 C235 1.247 . S
C237 O249 1.242 . S
C237 O250 1.258 . S
O238 Eu234 2.292 . S
O238 C240 1.255 . S
C239 Eu234 2.852 . S
C239 C243 1.503 . S
C239 O256 1.273 . S
C239 O257 1.257 . S
C240 O238 1.255 . S
C240 O241 1.247 . S
O241 C240 1.247 . S
C242 O254 1.242 . S
C242 O255 1.258 . S
C243 C239 1.503 . S
C243 C244 1.379 . S
C243 C248 1.392 . S
C244 C243 1.379 . S
C244 C245 1.404 . S
C244 H258 0.929 . S
C245 C244 1.404 . S
C245 C246 1.389 . S
C246 C245 1.389 . S
C246 C247 1.399 . S
C246 H259 0.931 . S
C247 C246 1.399 . S
C247 C248 1.390 . S
C248 C243 1.392 . S
C248 C247 1.390 . S
C248 H260 0.929 . S
O249 Tb233 2.326 . S
O249 C237 1.242 . S
O250 Eu234 2.324 . S
O250 C237 1.258 . S
O251 Tb233 2.500 . S
O251 C253 1.273 . S
O252 Tb233 2.473 . S
O252 C253 1.257 . S
C253 O251 1.273 . S
C253 O252 1.257 . S
O254 Eu234 2.326 . S
O254 C242 1.242 . S
O255 Tb233 2.324 . S
O255 C242 1.258 . S
O256 Eu234 2.500 . S
O256 C239 1.273 . S
O257 Eu234 2.473 . S
O257 C239 1.257 . S
H258 C244 0.929 . S
H259 C246 0.931 . S
H260 C248 0.929 . S
O261 Tb262 2.292 . S
O261 C264 1.255 1_565 S
Tb262 O261 2.292 . S
Tb262 O278 2.326 . S
Tb262 O280 2.500 . S
Tb262 O281 2.473 . S
Tb262 O284 2.324 . S
Eu263 O267 2.292 . S
Eu263 C268 2.852 . S
Eu263 O279 2.324 . S
Eu263 O283 2.326 . S
Eu263 O285 2.500 . S
Eu263 O286 2.473 . S
C264 O261 1.255 1_545 S
C264 O265 1.247 . S
O265 C264 1.247 . S
C266 O278 1.242 . S
C266 O279 1.258 . S
O267 Eu263 2.292 . S
O267 C269 1.255 . S
C268 Eu263 2.852 . S
C268 C272 1.503 . S
C268 O285 1.273 . S
C268 O286 1.257 . S
C269 O267 1.255 . S
C269 O270 1.247 . S
O270 C269 1.247 . S
C271 O283 1.242 . S
C271 O284 1.258 . S
C272 C268 1.503 . S
C272 C273 1.379 . S
C272 C277 1.392 . S
C273 C272 1.379 . S
C273 C274 1.404 . S
C273 H287 0.929 . S
C274 C273 1.404 . S
C274 C275 1.389 . S
C275 C274 1.389 . S
C275 C276 1.399 . S
C275 H288 0.931 . S
C276 C275 1.399 . S
C276 C277 1.390 . S
C277 C272 1.392 . S
C277 C276 1.390 . S
C277 H289 0.929 . S
O278 Tb262 2.326 . S
O278 C266 1.242 . S
O279 Eu263 2.324 . S
O279 C266 1.258 . S
O280 Tb262 2.500 . S
O280 C282 1.273 . S
O281 Tb262 2.473 . S
O281 C282 1.257 . S
C282 O280 1.273 . S
C282 O281 1.257 . S
O283 Eu263 2.326 . S
O283 C271 1.242 . S
O284 Tb262 2.324 . S
O284 C271 1.258 . S
O285 Eu263 2.500 . S
O285 C268 1.273 . S
O286 Eu263 2.473 . S
O286 C268 1.257 . S
H287 C273 0.929 . S
H288 C275 0.931 . S
H289 C277 0.929 . S
O290 Tb291 2.292 . S
O290 C293 1.255 . S
Tb291 O290 2.292 . S
Tb291 O307 2.326 . S
Tb291 O309 2.500 . S
Tb291 O310 2.473 . S
Tb291 O313 2.324 . S
Eu292 O296 2.292 . S
Eu292 C297 2.852 . S
Eu292 O308 2.324 . S
Eu292 O312 2.326 . S
Eu292 O314 2.500 . S
Eu292 O315 2.473 . S
C293 O290 1.255 . S
C293 O294 1.247 . S
O294 C293 1.247 . S
C295 O307 1.242 . S
C295 O308 1.258 . S
O296 Eu292 2.292 . S
O296 C298 1.255 . S
C297 Eu292 2.852 . S
C297 C301 1.503 . S
C297 O314 1.273 . S
C297 O315 1.257 . S
C298 O296 1.255 . S
C298 O299 1.247 . S
O299 C298 1.247 . S
C300 O312 1.242 . S
C300 O313 1.258 . S
C301 C297 1.503 . S
C301 C302 1.379 . S
C301 C306 1.392 . S
C302 C301 1.379 . S
C302 C303 1.404 . S
C302 H316 0.929 . S
C303 C302 1.404 . S
C303 C304 1.389 . S
C304 C303 1.389 . S
C304 C305 1.399 . S
C304 H317 0.931 . S
C305 C304 1.399 . S
C305 C306 1.390 . S
C306 C301 1.392 . S
C306 C305 1.390 . S
C306 H318 0.929 . S
O307 Tb291 2.326 . S
O307 C295 1.242 . S
O308 Eu292 2.324 . S
O308 C295 1.258 . S
O309 Tb291 2.500 . S
O309 C311 1.273 . S
O310 Tb291 2.473 . S
O310 C311 1.257 . S
C311 O309 1.273 . S
C311 O310 1.257 . S
O312 Eu292 2.326 . S
O312 C300 1.242 . S
O313 Tb291 2.324 . S
O313 C300 1.258 . S
O314 Eu292 2.500 . S
O314 C297 1.273 . S
O315 Eu292 2.473 . S
O315 C297 1.257 . S
H316 C302 0.929 . S
H317 C304 0.931 . S
H318 C306 0.929 . S
O319 Tb320 2.292 . S
O319 C322 1.255 . S
Tb320 O319 2.292 . S
Tb320 O336 2.326 . S
Tb320 O338 2.500 . S
Tb320 O339 2.473 . S
Tb320 O342 2.324 . S
Eu321 O325 2.292 . S
Eu321 C326 2.852 . S
Eu321 O337 2.324 . S
Eu321 O341 2.326 . S
Eu321 O343 2.500 . S
Eu321 O344 2.473 . S
C322 O319 1.255 . S
C322 O323 1.247 . S
O323 C322 1.247 . S
C324 O336 1.242 . S
C324 O337 1.258 . S
O325 Eu321 2.292 . S
O325 C327 1.255 . S
C326 Eu321 2.852 . S
C326 C330 1.503 . S
C326 O343 1.273 . S
C326 O344 1.257 . S
C327 O325 1.255 . S
C327 O328 1.247 . S
O328 C327 1.247 . S
C329 O341 1.242 . S
C329 O342 1.258 . S
C330 C326 1.503 . S
C330 C331 1.379 . S
C330 C335 1.392 . S
C331 C330 1.379 . S
C331 C332 1.404 . S
C331 H345 0.929 . S
C332 C331 1.404 . S
C332 C333 1.389 . S
C333 C332 1.389 . S
C333 C334 1.399 . S
C333 H346 0.931 . S
C334 C333 1.399 . S
C334 C335 1.390 . S
C335 C330 1.392 . S
C335 C334 1.390 . S
C335 H347 0.929 . S
O336 Tb320 2.326 . S
O336 C324 1.242 . S
O337 Eu321 2.324 . S
O337 C324 1.258 . S
O338 Tb320 2.500 . S
O338 C340 1.273 . S
O339 Tb320 2.473 . S
O339 C340 1.257 . S
C340 O338 1.273 . S
C340 O339 1.257 . S
O341 Eu321 2.326 . S
O341 C329 1.242 . S
O342 Tb320 2.324 . S
O342 C329 1.258 . S
O343 Eu321 2.500 . S
O343 C326 1.273 . S
O344 Eu321 2.473 . S
O344 C326 1.257 . S
H345 C331 0.929 . S
H346 C333 0.931 . S
H347 C335 0.929 . S
O348 Tb349 2.292 . S
O348 C351 1.255 . S
Tb349 O348 2.292 . S
Tb349 O365 2.326 . S
Tb349 O367 2.500 . S
Tb349 O368 2.473 . S
Tb349 O371 2.324 1_554 S
Eu350 O354 2.292 . S
Eu350 C355 2.852 1_554 S
Eu350 O366 2.324 . S
Eu350 O370 2.326 1_554 S
Eu350 O372 2.500 1_554 S
Eu350 O373 2.473 . S
C351 O348 1.255 . S
C351 O352 1.247 . S
O352 C351 1.247 . S
C353 O365 1.242 . S
C353 O366 1.258 . S
O354 Eu350 2.292 . S
O354 C356 1.255 . S
C355 Eu350 2.852 1_556 S
C355 C359 1.503 . S
C355 O372 1.273 . S
C355 O373 1.257 1_556 S
C356 O354 1.255 . S
C356 O357 1.247 . S
O357 C356 1.247 . S
C358 O370 1.242 . S
C358 O371 1.258 . S
C359 C355 1.503 . S
C359 C360 1.379 . S
C359 C364 1.392 . S
C360 C359 1.379 . S
C360 C361 1.404 . S
C360 H374 0.929 . S
C361 C360 1.404 . S
C361 C362 1.389 . S
C362 C361 1.389 . S
C362 C363 1.399 . S
C362 H375 0.931 . S
C363 C362 1.399 . S
C363 C364 1.390 . S
C364 C359 1.392 . S
C364 C363 1.390 . S
C364 H376 0.929 . S
O365 Tb349 2.326 . S
O365 C353 1.242 . S
O366 Eu350 2.324 . S
O366 C353 1.258 . S
O367 Tb349 2.500 . S
O367 C369 1.273 . S
O368 Tb349 2.473 . S
O368 C369 1.257 . S
C369 O367 1.273 . S
C369 O368 1.257 . S
O370 Eu350 2.326 1_556 S
O370 C358 1.242 . S
O371 Tb349 2.324 1_556 S
O371 C358 1.258 . S
O372 Eu350 2.500 1_556 S
O372 C355 1.273 . S
O373 Eu350 2.473 . S
O373 C355 1.257 1_554 S
H374 C360 0.929 . S
H375 C362 0.931 . S
H376 C364 0.929 . S
O377 Tb378 2.292 . S
O377 C380 1.255 . S
Tb378 O377 2.292 . S
Tb378 O394 2.326 . S
Tb378 O396 2.500 . S
Tb378 O397 2.473 . S
Tb378 O400 2.324 1_554 S
Eu379 O383 2.292 . S
Eu379 C384 2.852 1_554 S
Eu379 O395 2.324 . S
Eu379 O399 2.326 1_554 S
Eu379 O401 2.500 1_554 S
Eu379 O402 2.473 . S
C380 O377 1.255 . S
C380 O381 1.247 . S
O381 C380 1.247 . S
C382 O394 1.242 . S
C382 O395 1.258 . S
O383 Eu379 2.292 . S
O383 C385 1.255 . S
C384 Eu379 2.852 1_556 S
C384 C388 1.503 . S
C384 O401 1.273 . S
C384 O402 1.257 1_556 S
C385 O383 1.255 . S
C385 O386 1.247 . S
O386 C385 1.247 . S
C387 O399 1.242 . S
C387 O400 1.258 . S
C388 C384 1.503 . S
C388 C389 1.379 . S
C388 C393 1.392 . S
C389 C388 1.379 . S
C389 C390 1.404 . S
C389 H403 0.929 . S
C390 C389 1.404 . S
C390 C391 1.389 . S
C391 C390 1.389 . S
C391 C392 1.399 . S
C391 H404 0.931 . S
C392 C391 1.399 . S
C392 C393 1.390 . S
C393 C388 1.392 . S
C393 C392 1.390 . S
C393 H405 0.929 . S
O394 Tb378 2.326 . S
O394 C382 1.242 . S
O395 Eu379 2.324 . S
O395 C382 1.258 . S
O396 Tb378 2.500 . S
O396 C398 1.273 . S
O397 Tb378 2.473 . S
O397 C398 1.257 . S
C398 O396 1.273 . S
C398 O397 1.257 . S
O399 Eu379 2.326 1_556 S
O399 C387 1.242 . S
O400 Tb378 2.324 1_556 S
O400 C387 1.258 . S
O401 Eu379 2.500 1_556 S
O401 C384 1.273 . S
O402 Eu379 2.473 . S
O402 C384 1.257 1_554 S
H403 C389 0.929 . S
H404 C391 0.931 . S
H405 C393 0.929 . S
O406 Tb407 2.292 . S
O406 C409 1.255 . S
Tb407 O406 2.292 . S
Tb407 O423 2.326 . S
Tb407 O425 2.500 . S
Tb407 O426 2.473 . S
Tb407 O429 2.324 . S
Eu408 O412 2.292 . S
Eu408 C413 2.852 . S
Eu408 O424 2.324 . S
Eu408 O428 2.326 . S
Eu408 O430 2.500 . S
Eu408 O431 2.473 . S
C409 O406 1.255 . S
C409 O410 1.247 . S
O410 C409 1.247 . S
C411 O423 1.242 . S
C411 O424 1.258 . S
O412 Eu408 2.292 . S
O412 C414 1.255 . S
C413 Eu408 2.852 . S
C413 C417 1.503 . S
C413 O430 1.273 . S
C413 O431 1.257 . S
C414 O412 1.255 . S
C414 O415 1.247 . S
O415 C414 1.247 . S
C416 O428 1.242 . S
C416 O429 1.258 . S
C417 C413 1.503 . S
C417 C418 1.379 . S
C417 C422 1.392 . S
C418 C417 1.379 . S
C418 C419 1.404 . S
C418 H432 0.929 . S
C419 C418 1.404 . S
C419 C420 1.389 . S
C420 C419 1.389 . S
C420 C421 1.399 . S
C420 H433 0.931 . S
C421 C420 1.399 . S
C421 C422 1.390 . S
C422 C417 1.392 . S
C422 C421 1.390 . S
C422 H434 0.929 . S
O423 Tb407 2.326 . S
O423 C411 1.242 . S
O424 Eu408 2.324 . S
O424 C411 1.258 . S
O425 Tb407 2.500 . S
O425 C427 1.273 . S
O426 Tb407 2.473 . S
O426 C427 1.257 . S
C427 O425 1.273 . S
C427 O426 1.257 . S
O428 Eu408 2.326 . S
O428 C416 1.242 . S
O429 Tb407 2.324 . S
O429 C416 1.258 . S
O430 Eu408 2.500 . S
O430 C413 1.273 . S
O431 Eu408 2.473 . S
O431 C413 1.257 . S
H432 C418 0.929 . S
H433 C420 0.931 . S
H434 C422 0.929 . S
O435 Tb436 2.292 . S
O435 C438 1.255 . S
Tb436 O435 2.292 . S
Tb436 O452 2.326 . S
Tb436 O454 2.500 . S
Tb436 O455 2.473 . S
Tb436 O458 2.324 . S
Eu437 O441 2.292 . S
Eu437 C442 2.852 . S
Eu437 O453 2.324 . S
Eu437 O457 2.326 . S
Eu437 O459 2.500 . S
Eu437 O460 2.473 . S
C438 O435 1.255 . S
C438 O439 1.247 . S
O439 C438 1.247 . S
C440 O452 1.242 . S
C440 O453 1.258 . S
O441 Eu437 2.292 . S
O441 C443 1.255 . S
C442 Eu437 2.852 . S
C442 C446 1.503 . S
C442 O459 1.273 . S
C442 O460 1.257 . S
C443 O441 1.255 . S
C443 O444 1.247 . S
O444 C443 1.247 . S
C445 O457 1.242 . S
C445 O458 1.258 . S
C446 C442 1.503 . S
C446 C447 1.379 . S
C446 C451 1.392 . S
C447 C446 1.379 . S
C447 C448 1.404 . S
C447 H461 0.929 . S
C448 C447 1.404 . S
C448 C449 1.389 . S
C449 C448 1.389 . S
C449 C450 1.399 . S
C449 H462 0.931 . S
C450 C449 1.399 . S
C450 C451 1.390 . S
C451 C446 1.392 . S
C451 C450 1.390 . S
C451 H463 0.929 . S
O452 Tb436 2.326 . S
O452 C440 1.242 . S
O453 Eu437 2.324 . S
O453 C440 1.258 . S
O454 Tb436 2.500 . S
O454 C456 1.273 . S
O455 Tb436 2.473 . S
O455 C456 1.257 . S
C456 O454 1.273 . S
C456 O455 1.257 . S
O457 Eu437 2.326 . S
O457 C445 1.242 . S
O458 Tb436 2.324 . S
O458 C445 1.258 . S
O459 Eu437 2.500 . S
O459 C442 1.273 . S
O460 Eu437 2.473 . S
O460 C442 1.257 . S
H461 C447 0.929 . S
H462 C449 0.931 . S
H463 C451 0.929 . S
C464 C465 1.363 . S
C464 C470 1.379 . S
C464 N472 1.356 . S
C465 C464 1.363 . S
C465 C471 1.363 . S
C466 C467 1.363 . S
C466 C471 1.379 . S
C466 N473 1.356 . S
C467 C466 1.363 . S
C467 C470 1.363 . S
N468 C470 1.356 . S
N468 H480 0.984 . S
N468 H481 0.985 . S
N469 C471 1.356 . S
N469 H474 0.984 . S
N469 H475 0.985 . S
C470 C464 1.379 . S
C470 C467 1.363 . S
C470 N468 1.356 . S
C471 C465 1.363 . S
C471 C466 1.379 . S
C471 N469 1.356 . S
N472 C464 1.356 . S
N472 H478 0.984 . S
N472 H479 0.984 . S
N473 C466 1.356 . S
N473 H476 0.984 . S
N473 H477 0.985 . S
H474 N469 0.984 . S
H475 N469 0.985 . S
H476 N473 0.984 . S
H477 N473 0.985 . S
H478 N472 0.984 . S
H479 N472 0.984 . S
H480 N468 0.984 . S
H481 N468 0.985 . S
C482 C483 1.363 . S
C482 C488 1.379 . S
C482 N490 1.356 . S
C483 C482 1.363 . S
C483 C489 1.363 . S
C484 C485 1.363 . S
C484 C489 1.379 . S
C484 N491 1.356 . S
C485 C484 1.363 . S
C485 C488 1.363 . S
N486 C488 1.356 . S
N486 H498 0.984 1_545 S
N486 H499 0.985 . S
N487 C489 1.356 . S
N487 H492 0.984 . S
N487 H493 0.985 . S
C488 C482 1.379 . S
C488 C485 1.363 . S
C488 N486 1.356 . S
C489 C483 1.363 . S
C489 C484 1.379 . S
C489 N487 1.356 . S
N490 C482 1.356 . S
N490 H496 0.984 . S
N490 H497 0.984 . S
N491 C484 1.356 . S
N491 H494 0.984 . S
N491 H495 0.985 . S
H492 N487 0.984 . S
H493 N487 0.985 . S
H494 N491 0.984 . S
H495 N491 0.985 . S
H496 N490 0.984 . S
H497 N490 0.984 . S
H498 N486 0.984 1_565 S
H499 N486 0.985 . S
C500 C501 1.363 . S
C500 C506 1.379 . S
C500 N508 1.356 . S
C501 C500 1.363 . S
C501 C507 1.363 . S
C502 C503 1.363 . S
C502 C507 1.379 . S
C502 N509 1.356 . S
C503 C502 1.363 . S
C503 C506 1.363 . S
N504 C506 1.356 . S
N504 H516 0.984 . S
N504 H517 0.985 . S
N505 C507 1.356 . S
N505 H510 0.984 . S
N505 H511 0.985 . S
C506 C500 1.379 . S
C506 C503 1.363 . S
C506 N504 1.356 . S
C507 C501 1.363 . S
C507 C502 1.379 . S
C507 N505 1.356 . S
N508 C500 1.356 . S
N508 H514 0.984 . S
N508 H515 0.984 . S
N509 C502 1.356 . S
N509 H512 0.984 . S
N509 H513 0.985 . S
H510 N505 0.984 . S
H511 N505 0.985 . S
H512 N509 0.984 . S
H513 N509 0.985 . S
H514 N508 0.984 . S
H515 N508 0.984 . S
H516 N504 0.984 . S
H517 N504 0.985 . S
C518 C519 1.363 . S
C518 C524 1.379 . S
C518 N526 1.356 . S
C519 C518 1.363 . S
C519 C525 1.363 . S
C520 C521 1.363 . S
C520 C525 1.379 . S
C520 N527 1.356 . S
C521 C520 1.363 . S
C521 C524 1.363 . S
N522 C524 1.356 . S
N522 H534 0.984 . S
N522 H535 0.985 . S
N523 C525 1.356 . S
N523 H528 0.984 . S
N523 H529 0.985 . S
C524 C518 1.379 . S
C524 C521 1.363 . S
C524 N522 1.356 . S
C525 C519 1.363 . S
C525 C520 1.379 . S
C525 N523 1.356 . S
N526 C518 1.356 . S
N526 H532 0.984 . S
N526 H533 0.984 . S
N527 C520 1.356 . S
N527 H530 0.984 . S
N527 H531 0.985 . S
H528 N523 0.984 . S
H529 N523 0.985 . S
H530 N527 0.984 . S
H531 N527 0.985 . S
H532 N526 0.984 . S
H533 N526 0.984 . S
H534 N522 0.984 . S
H535 N522 0.985 . S
C536 C537 1.363 . S
C536 C542 1.379 . S
C536 N544 1.356 . S
C537 C536 1.363 . S
C537 C543 1.363 . S
C538 C539 1.363 . S
C538 C543 1.379 . S
C538 N545 1.356 . S
C539 C538 1.363 . S
C539 C542 1.363 . S
N540 C542 1.356 . S
N540 H552 0.984 . S
N540 H553 0.985 . S
N541 C543 1.356 . S
N541 H546 0.984 . S
N541 H547 0.985 . S
C542 C536 1.379 . S
C542 C539 1.363 . S
C542 N540 1.356 . S
C543 C537 1.363 . S
C543 C538 1.379 . S
C543 N541 1.356 . S
N544 C536 1.356 . S
N544 H550 0.984 . S
N544 H551 0.984 . S
N545 C538 1.356 . S
N545 H548 0.984 . S
N545 H549 0.985 . S
H546 N541 0.984 . S
H547 N541 0.985 . S
H548 N545 0.984 . S
H549 N545 0.985 . S
H550 N544 0.984 . S
H551 N544 0.984 . S
H552 N540 0.984 . S
H553 N540 0.985 . S
C554 C555 1.363 . S
C554 C560 1.379 . S
C554 N562 1.356 . S
C555 C554 1.363 . S
C555 C561 1.363 . S
C556 C557 1.363 . S
C556 C561 1.379 . S
C556 N563 1.356 . S
C557 C556 1.363 . S
C557 C560 1.363 . S
N558 C560 1.356 . S
N558 H570 0.984 . S
N558 H571 0.985 . S
N559 C561 1.356 . S
N559 H564 0.984 . S
N559 H565 0.985 . S
C560 C554 1.379 . S
C560 C557 1.363 . S
C560 N558 1.356 . S
C561 C555 1.363 . S
C561 C556 1.379 . S
C561 N559 1.356 . S
N562 C554 1.356 . S
N562 H568 0.984 . S
N562 H569 0.984 . S
N563 C556 1.356 . S
N563 H566 0.984 . S
N563 H567 0.985 . S
H564 N559 0.984 . S
H565 N559 0.985 . S
H566 N563 0.984 . S
H567 N563 0.985 . S
H568 N562 0.984 . S
H569 N562 0.984 . S
H570 N558 0.984 . S
H571 N558 0.985 . S
C572 C573 1.363 . S
C572 C578 1.379 . S
C572 N580 1.356 . S
C573 C572 1.363 . S
C573 C579 1.363 . S
C574 C575 1.363 . S
C574 C579 1.379 . S
C574 N581 1.356 . S
C575 C574 1.363 . S
C575 C578 1.363 . S
N576 C578 1.356 . S
N576 H588 0.984 . S
N576 H589 0.985 . S
N577 C579 1.356 . S
N577 H582 0.984 . S
N577 H583 0.985 . S
C578 C572 1.379 . S
C578 C575 1.363 . S
C578 N576 1.356 . S
C579 C573 1.363 . S
C579 C574 1.379 . S
C579 N577 1.356 . S
N580 C572 1.356 . S
N580 H586 0.984 . S
N580 H587 0.984 . S
N581 C574 1.356 . S
N581 H584 0.984 . S
N581 H585 0.985 . S
H582 N577 0.984 . S
H583 N577 0.985 . S
H584 N581 0.984 . S
H585 N581 0.985 . S
H586 N580 0.984 . S
H587 N580 0.984 . S
H588 N576 0.984 . S
H589 N576 0.985 . S
C590 C591 1.363 . S
C590 C596 1.379 . S
C590 N598 1.356 . S
C591 C590 1.363 . S
C591 C597 1.363 . S
C592 C593 1.363 . S
C592 C597 1.379 . S
C592 N599 1.356 . S
C593 C592 1.363 . S
C593 C596 1.363 . S
N594 C596 1.356 . S
N594 H606 0.984 . S
N594 H607 0.985 . S
N595 C597 1.356 . S
N595 H600 0.984 . S
N595 H601 0.985 . S
C596 C590 1.379 . S
C596 C593 1.363 . S
C596 N594 1.356 . S
C597 C591 1.363 . S
C597 C592 1.379 . S
C597 N595 1.356 . S
N598 C590 1.356 . S
N598 H604 0.984 . S
N598 H605 0.984 . S
N599 C592 1.356 . S
N599 H602 0.984 . S
N599 H603 0.985 . S
H600 N595 0.984 . S
H601 N595 0.985 . S
H602 N599 0.984 . S
H603 N599 0.985 . S
H604 N598 0.984 . S
H605 N598 0.984 . S
H606 N594 0.984 . S
H607 N594 0.985 . S
C608 C609 1.363 . S
C608 C614 1.379 . S
C608 N616 1.356 . S
C609 C608 1.363 . S
C609 C615 1.363 . S
C610 C611 1.363 . S
C610 C615 1.379 . S
C610 N617 1.356 . S
C611 C610 1.363 . S
C611 C614 1.363 . S
N612 C614 1.356 . S
N612 H624 0.984 . S
N612 H625 0.985 . S
N613 C615 1.356 . S
N613 H618 0.984 . S
N613 H619 0.985 1_565 S
C614 C608 1.379 . S
C614 C611 1.363 . S
C614 N612 1.356 . S
C615 C609 1.363 . S
C615 C610 1.379 . S
C615 N613 1.356 . S
N616 C608 1.356 . S
N616 H622 0.984 . S
N616 H623 0.984 . S
N617 C610 1.356 . S
N617 H620 0.984 . S
N617 H621 0.985 . S
H618 N613 0.984 . S
H619 N613 0.985 1_545 S
H620 N617 0.984 . S
H621 N617 0.985 . S
H622 N616 0.984 . S
H623 N616 0.984 . S
H624 N612 0.984 . S
H625 N612 0.985 . S
C626 C627 1.363 . S
C626 C632 1.379 . S
C626 N634 1.356 . S
C627 C626 1.363 . S
C627 C633 1.363 . S
C628 C629 1.363 . S
C628 C633 1.379 . S
C628 N635 1.356 . S
C629 C628 1.363 . S
C629 C632 1.363 . S
N630 C632 1.356 . S
N630 H642 0.984 . S
N630 H643 0.985 . S
N631 C633 1.356 . S
N631 H636 0.984 . S
N631 H637 0.985 . S
C632 C626 1.379 . S
C632 C629 1.363 . S
C632 N630 1.356 . S
C633 C627 1.363 . S
C633 C628 1.379 . S
C633 N631 1.356 . S
N634 C626 1.356 . S
N634 H640 0.984 . S
N634 H641 0.984 . S
N635 C628 1.356 . S
N635 H638 0.984 . S
N635 H639 0.985 . S
H636 N631 0.984 . S
H637 N631 0.985 . S
H638 N635 0.984 . S
H639 N635 0.985 . S
H640 N634 0.984 . S
H641 N634 0.984 . S
H642 N630 0.984 . S
H643 N630 0.985 . S
C644 C645 1.363 . S
C644 C650 1.379 . S
C644 N652 1.356 . S
C645 C644 1.363 . S
C645 C651 1.363 . S
C646 C647 1.363 . S
C646 C651 1.379 . S
C646 N653 1.356 . S
C647 C646 1.363 . S
C647 C650 1.363 . S
N648 C650 1.356 . S
N648 H660 0.984 . S
N648 H661 0.985 . S
N649 C651 1.356 . S
N649 H654 0.984 . S
N649 H655 0.985 . S
C650 C644 1.379 . S
C650 C647 1.363 . S
C650 N648 1.356 . S
C651 C645 1.363 . S
C651 C646 1.379 . S
C651 N649 1.356 . S
N652 C644 1.356 . S
N652 H658 0.984 . S
N652 H659 0.984 . S
N653 C646 1.356 . S
N653 H656 0.984 . S
N653 H657 0.985 . S
H654 N649 0.984 . S
H655 N649 0.985 . S
H656 N653 0.984 . S
H657 N653 0.985 . S
H658 N652 0.984 . S
H659 N652 0.984 . S
H660 N648 0.984 . S
H661 N648 0.985 . S
C662 C663 1.363 . S
C662 C668 1.379 . S
C662 N670 1.356 . S
C663 C662 1.363 . S
C663 C669 1.363 . S
C664 C665 1.363 . S
C664 C669 1.379 . S
C664 N671 1.356 . S
C665 C664 1.363 . S
C665 C668 1.363 . S
N666 C668 1.356 . S
N666 H678 0.984 . S
N666 H679 0.985 . S
N667 C669 1.356 . S
N667 H672 0.984 . S
N667 H673 0.985 . S
C668 C662 1.379 . S
C668 C665 1.363 . S
C668 N666 1.356 . S
C669 C663 1.363 . S
C669 C664 1.379 . S
C669 N667 1.356 . S
N670 C662 1.356 . S
N670 H676 0.984 . S
N670 H677 0.984 . S
N671 C664 1.356 . S
N671 H674 0.984 . S
N671 H675 0.985 . S
H672 N667 0.984 . S
H673 N667 0.985 . S
H674 N671 0.984 . S
H675 N671 0.985 . S
H676 N670 0.984 . S
H677 N670 0.984 . S
H678 N666 0.984 . S
H679 N666 0.985 . S
C680 C681 1.363 . S
C680 C686 1.379 . S
C680 N688 1.356 . S
C681 C680 1.363 . S
C681 C687 1.363 . S
C682 C683 1.363 . S
C682 C687 1.379 . S
C682 N689 1.356 . S
C683 C682 1.363 . S
C683 C686 1.363 . S
N684 C686 1.356 . S
N684 H696 0.984 . S
N684 H697 0.985 . S
N685 C687 1.356 . S
N685 H690 0.984 . S
N685 H691 0.985 . S
C686 C680 1.379 . S
C686 C683 1.363 . S
C686 N684 1.356 . S
C687 C681 1.363 . S
C687 C682 1.379 . S
C687 N685 1.356 . S
N688 C680 1.356 . S
N688 H694 0.984 . S
N688 H695 0.984 . S
N689 C682 1.356 . S
N689 H692 0.984 . S
N689 H693 0.985 . S
H690 N685 0.984 . S
H691 N685 0.985 . S
H692 N689 0.984 . S
H693 N689 0.985 . S
H694 N688 0.984 . S
H695 N688 0.984 . S
H696 N684 0.984 . S
H697 N684 0.985 . S
C698 C699 1.363 . S
C698 C704 1.379 . S
C698 N706 1.356 . S
C699 C698 1.363 . S
C699 C705 1.363 . S
C700 C701 1.363 . S
C700 C705 1.379 . S
C700 N707 1.356 . S
C701 C700 1.363 . S
C701 C704 1.363 . S
N702 C704 1.356 . S
N702 H714 0.984 . S
N702 H715 0.985 . S
N703 C705 1.356 . S
N703 H708 0.984 . S
N703 H709 0.985 . S
C704 C698 1.379 . S
C704 C701 1.363 . S
C704 N702 1.356 . S
C705 C699 1.363 . S
C705 C700 1.379 . S
C705 N703 1.356 . S
N706 C698 1.356 . S
N706 H712 0.984 . S
N706 H713 0.984 . S
N707 C700 1.356 . S
N707 H710 0.984 . S
N707 H711 0.985 . S
H708 N703 0.984 . S
H709 N703 0.985 . S
H710 N707 0.984 . S
H711 N707 0.985 . S
H712 N706 0.984 . S
H713 N706 0.984 . S
H714 N702 0.984 . S
H715 N702 0.985 . S
C716 C717 1.363 . S
C716 C722 1.379 . S
C716 N724 1.356 . S
C717 C716 1.363 . S
C717 C723 1.363 . S
C718 C719 1.363 . S
C718 C723 1.379 . S
C718 N725 1.356 . S
C719 C718 1.363 . S
C719 C722 1.363 . S
N720 C722 1.356 . S
N720 H732 0.984 . S
N720 H733 0.985 . S
N721 C723 1.356 . S
N721 H726 0.984 . S
N721 H727 0.985 . S
C722 C716 1.379 . S
C722 C719 1.363 . S
C722 N720 1.356 . S
C723 C717 1.363 . S
C723 C718 1.379 . S
C723 N721 1.356 . S
N724 C716 1.356 . S
N724 H730 0.984 . S
N724 H731 0.984 . S
N725 C718 1.356 . S
N725 H728 0.984 . S
N725 H729 0.985 . S
H726 N721 0.984 . S
H727 N721 0.985 . S
H728 N725 0.984 . S
H729 N725 0.985 . S
H730 N724 0.984 . S
H731 N724 0.984 . S
H732 N720 0.984 . S
H733 N720 0.985 . S
C734 C735 1.363 . S
C734 C740 1.379 . S
C734 N742 1.356 . S
C735 C734 1.363 . S
C735 C741 1.363 . S
C736 C737 1.363 . S
C736 C741 1.379 . S
C736 N743 1.356 . S
C737 C736 1.363 . S
C737 C740 1.363 . S
N738 C740 1.356 . S
N738 H750 0.984 . S
N738 H751 0.985 . S
N739 C741 1.356 . S
N739 H744 0.984 . S
N739 H745 0.985 . S
C740 C734 1.379 . S
C740 C737 1.363 . S
C740 N738 1.356 . S
C741 C735 1.363 . S
C741 C736 1.379 . S
C741 N739 1.356 . S
N742 C734 1.356 . S
N742 H748 0.984 . S
N742 H749 0.984 . S
N743 C736 1.356 . S
N743 H746 0.984 . S
N743 H747 0.985 . S
H744 N739 0.984 . S
H745 N739 0.985 . S
H746 N743 0.984 . S
H747 N743 0.985 . S
H748 N742 0.984 . S
H749 N742 0.984 . S
H750 N738 0.984 . S
H751 N738 0.985 . S
C752 C753 1.363 . S
C752 C758 1.379 . S
C752 N760 1.356 . S
C753 C752 1.363 . S
C753 C759 1.365 . S
C754 C755 1.365 . S
C754 C759 1.379 . S
C754 N761 1.355 1_554 S
C755 C754 1.365 . S
C755 C758 1.363 . S
N756 C758 1.356 . S
N756 H768 0.984 . S
N756 H769 0.985 . S
N757 C759 1.355 1_556 S
N757 H762 0.984 . S
N757 H763 0.985 . S
C758 C752 1.379 . S
C758 C755 1.363 . S
C758 N756 1.356 . S
C759 C753 1.365 . S
C759 C754 1.379 . S
C759 N757 1.355 1_554 S
N760 C752 1.356 . S
N760 H766 0.984 . S
N760 H767 0.984 . S
N761 C754 1.355 1_556 S
N761 H764 0.984 . S
N761 H765 0.985 . S
H762 N757 0.984 . S
H763 N757 0.985 . S
H764 N761 0.984 . S
H765 N761 0.985 . S
H766 N760 0.984 . S
H767 N760 0.984 . S
H768 N756 0.984 . S
H769 N756 0.985 . S
C770 C771 1.363 1_556 S
C770 C776 1.379 . S
C770 N778 1.356 . S
C771 C770 1.363 1_554 S
C771 C777 1.363 . S
C772 C773 1.363 . S
C772 C777 1.379 . S
C772 N779 1.356 . S
C773 C772 1.363 . S
C773 C776 1.363 1_554 S
N774 C776 1.356 . S
N774 H786 0.984 . S
N774 H787 0.985 . S
N775 C777 1.356 . S
N775 H780 0.984 . S
N775 H781 0.985 . S
C776 C770 1.379 . S
C776 C773 1.363 1_556 S
C776 N774 1.356 . S
C777 C771 1.363 . S
C777 C772 1.379 . S
C777 N775 1.356 . S
N778 C770 1.356 . S
N778 H784 0.984 . S
N778 H785 0.984 . S
N779 C772 1.356 . S
N779 H782 0.984 . S
N779 H783 0.985 . S
H780 N775 0.984 . S
H781 N775 0.985 . S
H782 N779 0.984 . S
H783 N779 0.985 . S
H784 N778 0.984 . S
H785 N778 0.984 . S
H786 N774 0.984 . S
H787 N774 0.985 . S
C788 C789 1.363 1_455 S
C788 C794 1.379 . S
C788 N796 1.353 1_455 S
C789 C788 1.363 1_655 S
C789 C795 1.363 . S
C790 C791 1.363 1_655 S
C790 C795 1.379 . S
C790 N797 1.353 1_655 S
C791 C790 1.363 1_455 S
C791 C794 1.363 . S
N792 C794 1.356 . S
N792 H804 0.984 . S
N792 H805 0.985 . S
N793 C795 1.356 . S
N793 H798 0.984 . S
N793 H799 0.985 . S
C794 C788 1.379 . S
C794 C791 1.363 . S
C794 N792 1.356 . S
C795 C789 1.363 . S
C795 C790 1.379 . S
C795 N793 1.356 . S
N796 C788 1.353 1_655 S
N796 H802 0.966 1_655 S
N796 H803 1.008 . S
N797 C790 1.353 1_455 S
N797 H800 1.008 . S
N797 H801 0.966 1_455 S
H798 N793 0.984 . S
H799 N793 0.985 . S
H800 N797 1.008 . S
H801 N797 0.966 1_655 S
H802 N796 0.966 1_455 S
H803 N796 1.008 . S
H804 N792 0.984 . S
H805 N792 0.985 . S
C806 C807 1.363 . S
C806 C812 1.379 . S
C806 N814 1.356 . S
C807 C806 1.363 . S
C807 C813 1.363 . S
C808 C809 1.363 . S
C808 C813 1.379 . S
C808 N815 1.356 . S
C809 C808 1.363 . S
C809 C812 1.363 . S
N810 C812 1.356 . S
N810 H822 0.984 . S
N810 H823 0.985 . S
N811 C813 1.356 . S
N811 H816 0.984 . S
N811 H817 0.985 . S
C812 C806 1.379 . S
C812 C809 1.363 . S
C812 N810 1.356 . S
C813 C807 1.363 . S
C813 C808 1.379 . S
C813 N811 1.356 . S
N814 C806 1.356 . S
N814 H820 0.984 . S
N814 H821 0.984 . S
N815 C808 1.356 . S
N815 H818 0.984 . S
N815 H819 0.985 . S
H816 N811 0.984 . S
H817 N811 0.985 . S
H818 N815 0.984 . S
H819 N815 0.985 . S
H820 N814 0.984 . S
H821 N814 0.984 . S
H822 N810 0.984 . S
H823 N810 0.985 . S
C824 C825 1.363 . S
C824 C830 1.379 . S
C824 N832 1.356 . S
C825 C824 1.363 . S
C825 C831 1.363 . S
C826 C827 1.363 . S
C826 C831 1.379 . S
C826 N833 1.356 . S
C827 C826 1.363 . S
C827 C830 1.363 . S
N828 C830 1.356 . S
N828 H840 0.984 . S
N828 H841 0.985 . S
N829 C831 1.356 . S
N829 H834 0.984 . S
N829 H835 0.985 . S
C830 C824 1.379 . S
C830 C827 1.363 . S
C830 N828 1.356 . S
C831 C825 1.363 . S
C831 C826 1.379 . S
C831 N829 1.356 . S
N832 C824 1.356 . S
N832 H838 0.984 . S
N832 H839 0.984 . S
N833 C826 1.356 . S
N833 H836 0.984 . S
N833 H837 0.985 . S
H834 N829 0.984 . S
H835 N829 0.985 . S
H836 N833 0.984 . S
H837 N833 0.985 . S
H838 N832 0.984 . S
H839 N832 0.984 . S
H840 N828 0.984 . S
H841 N828 0.985 . S
C842 C843 1.361 1_545 S
C842 C848 1.380 . S
C842 N850 1.356 1_545 S
C843 C842 1.361 1_565 S
C843 C849 1.363 1_655 S
C844 C845 1.361 1_565 S
C844 C849 1.380 . S
C844 N851 1.356 1_565 S
C845 C844 1.361 1_545 S
C845 C848 1.363 1_455 S
N846 C848 1.356 . S
N846 H858 0.984 . S
N846 H859 0.985 1_655 S
N847 C849 1.356 . S
N847 H852 0.984 1_455 S
N847 H853 0.985 . S
C848 C842 1.380 . S
C848 C845 1.363 1_655 S
C848 N846 1.356 . S
C849 C843 1.363 1_455 S
C849 C844 1.380 . S
C849 N847 1.356 . S
N850 C842 1.356 1_565 S
N850 H856 0.984 1_565 S
N850 H857 0.984 . S
N851 C844 1.356 1_545 S
N851 H854 0.984 . S
N851 H855 0.985 1_545 S
H852 N847 0.984 1_655 S
H853 N847 0.985 . S
H854 N851 0.984 . S
H855 N851 0.985 1_565 S
H856 N850 0.984 1_545 S
H857 N850 0.984 . S
H858 N846 0.984 . S
H859 N846 0.985 1_455 S
C860 C861 1.363 . S
C860 C866 1.379 . S
C860 N868 1.356 . S
C861 C860 1.363 . S
C861 C867 1.363 . S
C862 C863 1.363 . S
C862 C867 1.379 . S
C862 N869 1.356 . S
C863 C862 1.363 . S
C863 C866 1.363 . S
N864 C866 1.356 . S
N864 H876 0.984 . S
N864 H877 0.985 . S
N865 C867 1.356 . S
N865 H870 0.984 . S
N865 H871 0.985 . S
C866 C860 1.379 . S
C866 C863 1.363 . S
C866 N864 1.356 . S
C867 C861 1.363 . S
C867 C862 1.379 . S
C867 N865 1.356 . S
N868 C860 1.356 . S
N868 H874 0.984 . S
N868 H875 0.984 . S
N869 C862 1.356 . S
N869 H872 0.984 . S
N869 H873 0.985 . S
H870 N865 0.984 . S
H871 N865 0.985 . S
H872 N869 0.984 . S
H873 N869 0.985 . S
H874 N868 0.984 . S
H875 N868 0.984 . S
H876 N864 0.984 . S
H877 N864 0.985 . S
C878 C879 1.363 . S
C878 C884 1.379 1_565 S
C878 N886 1.356 . S
C879 C878 1.363 . S
C879 C885 1.363 . S
C880 C881 1.363 . S
C880 C885 1.379 1_545 S
C880 N887 1.356 . S
C881 C880 1.363 . S
C881 C884 1.363 . S
N882 C884 1.356 . S
N882 H894 0.984 . S
N882 H895 0.985 . S
N883 C885 1.356 . S
N883 H888 0.984 . S
N883 H889 0.985 . S
C884 C878 1.379 1_545 S
C884 C881 1.363 . S
C884 N882 1.356 . S
C885 C879 1.363 . S
C885 C880 1.379 1_565 S
C885 N883 1.356 . S
N886 C878 1.356 . S
N886 H892 0.984 . S
N886 H893 0.984 . S
N887 C880 1.356 . S
N887 H890 0.984 . S
N887 H891 0.985 . S
H888 N883 0.984 . S
H889 N883 0.985 . S
H890 N887 0.984 . S
H891 N887 0.985 . S
H892 N886 0.984 . S
H893 N886 0.984 . S
H894 N882 0.984 . S
H895 N882 0.985 . S
C896 C897 1.363 . S
C896 C902 1.379 . S
C896 N904 1.356 . S
C897 C896 1.363 . S
C897 C903 1.363 1_545 S
C898 C899 1.363 . S
C898 C903 1.379 1_545 S
C898 N905 1.358 . S
C899 C898 1.363 . S
C899 C902 1.363 . S
N900 C902 1.356 . S
N900 H912 0.984 . S
N900 H913 0.985 . S
N901 C903 1.356 . S
N901 H906 0.984 . S
N901 H907 0.985 . S
C902 C896 1.379 . S
C902 C899 1.363 . S
C902 N900 1.356 . S
C903 C897 1.363 1_565 S
C903 C898 1.379 1_565 S
C903 N901 1.356 . S
N904 C896 1.356 . S
N904 H910 0.984 . S
N904 H911 0.984 . S
N905 C898 1.358 . S
N905 H908 0.989 . S
N905 H909 0.978 1_545 S
H906 N901 0.984 . S
H907 N901 0.985 . S
H908 N905 0.989 . S
H909 N905 0.978 1_565 S
H910 N904 0.984 . S
H911 N904 0.984 . S
H912 N900 0.984 . S
H913 N900 0.985 . S
C914 C915 1.363 . S
C914 C920 1.379 . S
C914 N922 1.356 . S
C915 C914 1.363 . S
C915 C921 1.363 . S
C916 C917 1.363 . S
C916 C921 1.379 . S
C916 N923 1.356 1_565 S
C917 C916 1.363 . S
C917 C920 1.363 . S
N918 C920 1.356 . S
N918 H930 0.984 . S
N918 H931 0.985 . S
N919 C921 1.356 . S
N919 H924 0.984 . S
N919 H925 0.985 . S
C920 C914 1.379 . S
C920 C917 1.363 . S
C920 N918 1.356 . S
C921 C915 1.363 . S
C921 C916 1.379 . S
C921 N919 1.356 . S
N922 C914 1.356 . S
N922 H928 0.984 . S
N922 H929 0.984 . S
N923 C916 1.356 1_545 S
N923 H926 0.984 . S
N923 H927 0.985 . S
H924 N919 0.984 . S
H925 N919 0.985 . S
H926 N923 0.984 . S
H927 N923 0.985 . S
H928 N922 0.984 . S
H929 N922 0.984 . S
H930 N918 0.984 . S
H931 N918 0.985 . S
C932 C933 1.363 . S
C932 C938 1.379 . S
C932 N940 1.356 . S
C933 C932 1.363 . S
C933 C939 1.363 . S
C934 C935 1.363 . S
C934 C939 1.379 . S
C934 N941 1.356 . S
C935 C934 1.363 . S
C935 C938 1.363 . S
N936 C938 1.359 . S
N936 H948 0.983 1_655 S
N936 H949 0.984 1_655 S
N937 C939 1.356 . S
N937 H942 0.984 . S
N937 H943 0.985 . S
C938 C932 1.379 . S
C938 C935 1.363 . S
C938 N936 1.359 . S
C939 C933 1.363 . S
C939 C934 1.379 . S
C939 N937 1.356 . S
N940 C932 1.356 . S
N940 H946 0.984 . S
N940 H947 0.984 . S
N941 C934 1.356 . S
N941 H944 0.984 . S
N941 H945 0.985 . S
H942 N937 0.984 . S
H943 N937 0.985 . S
H944 N941 0.984 . S
H945 N941 0.985 . S
H946 N940 0.984 . S
H947 N940 0.984 . S
H948 N936 0.983 1_455 S
H949 N936 0.984 1_455 S
C950 C951 1.363 . S
C950 C956 1.379 . S
C950 N958 1.356 1_455 S
C951 C950 1.363 . S
C951 C957 1.363 . S
C952 C953 1.363 . S
C952 C957 1.379 . S
C952 N959 1.356 . S
C953 C952 1.363 . S
C953 C956 1.363 . S
N954 C956 1.356 1_655 S
N954 H966 0.984 . S
N954 H967 0.985 1_655 S
N955 C957 1.356 . S
N955 H960 0.984 . S
N955 H961 0.985 . S
C956 C950 1.379 . S
C956 C953 1.363 . S
C956 N954 1.356 1_455 S
C957 C951 1.363 . S
C957 C952 1.379 . S
C957 N955 1.356 . S
N958 C950 1.356 1_655 S
N958 H964 0.984 . S
N958 H965 0.984 . S
N959 C952 1.356 . S
N959 H962 0.984 . S
N959 H963 0.985 . S
H960 N955 0.984 . S
H961 N955 0.985 . S
H962 N959 0.984 . S
H963 N959 0.985 . S
H964 N958 0.984 . S
H965 N958 0.984 . S
H966 N954 0.984 . S
H967 N954 0.985 1_455 S
C968 C969 1.363 . S
C968 C974 1.379 . S
C968 N976 1.356 . S
C969 C968 1.363 . S
C969 C975 1.363 . S
C970 C971 1.363 . S
C970 C975 1.379 . S
C970 N977 1.356 . S
C971 C970 1.363 . S
C971 C974 1.363 . S
N972 C974 1.356 . S
N972 H984 0.984 . S
N972 H985 0.985 . S
N973 C975 1.356 . S
N973 H978 0.984 . S
N973 H979 0.985 . S
C974 C968 1.379 . S
C974 C971 1.363 . S
C974 N972 1.356 . S
C975 C969 1.363 . S
C975 C970 1.379 . S
C975 N973 1.356 . S
N976 C968 1.356 . S
N976 H982 0.984 . S
N976 H983 0.984 . S
N977 C970 1.356 . S
N977 H980 0.984 . S
N977 H981 0.985 . S
H978 N973 0.984 . S
H979 N973 0.985 . S
H980 N977 0.984 . S
H981 N977 0.985 . S
H982 N976 0.984 . S
H983 N976 0.984 . S
H984 N972 0.984 . S
H985 N972 0.985 . S
C986 C987 1.363 . S
C986 C992 1.379 . S
C986 N994 1.356 . S
C987 C986 1.363 . S
C987 C993 1.363 . S
C988 C989 1.363 . S
C988 C993 1.379 . S
C988 N995 1.356 . S
C989 C988 1.363 . S
C989 C992 1.363 . S
N990 C992 1.356 . S
N990 H1002 0.984 . S
N990 H1003 0.985 . S
N991 C993 1.356 . S
N991 H996 0.984 . S
N991 H997 0.985 . S
C992 C986 1.379 . S
C992 C989 1.363 . S
C992 N990 1.356 . S
C993 C987 1.363 . S
C993 C988 1.379 . S
C993 N991 1.356 . S
N994 C986 1.356 . S
N994 H1000 0.984 . S
N994 H1001 0.984 . S
N995 C988 1.356 . S
N995 H998 0.984 . S
N995 H999 0.985 . S
H996 N991 0.984 . S
H997 N991 0.985 . S
H998 N995 0.984 . S
H999 N995 0.985 . S
H1000 N994 0.984 . S
H1001 N994 0.984 . S
H1002 N990 0.984 . S
H1003 N990 0.985 . S
C1004 C1005 1.363 . S
C1004 C1010 1.379 1_554 S
C1004 N1012 1.356 1_655 S
C1005 C1004 1.363 . S
C1005 C1011 1.363 . S
C1006 C1007 1.363 . S
C1006 C1011 1.379 1_556 S
C1006 N1013 1.356 . S
C1007 C1006 1.363 . S
C1007 C1010 1.363 . S
N1008 C1010 1.356 . S
N1008 H1020 0.984 1_655 S
N1008 H1021 0.985 . S
N1009 C1011 1.356 . S
N1009 H1014 0.984 . S
N1009 H1015 0.985 . S
C1010 C1004 1.379 1_556 S
C1010 C1007 1.363 . S
C1010 N1008 1.356 . S
C1011 C1005 1.363 . S
C1011 C1006 1.379 1_554 S
C1011 N1009 1.356 . S
N1012 C1004 1.356 1_455 S
N1012 H1018 0.984 . S
N1012 H1019 0.984 . S
N1013 C1006 1.356 . S
N1013 H1016 0.984 . S
N1013 H1017 0.985 . S
H1014 N1009 0.984 . S
H1015 N1009 0.985 . S
H1016 N1013 0.984 . S
H1017 N1013 0.985 . S
H1018 N1012 0.984 . S
H1019 N1012 0.984 . S
H1020 N1008 0.984 1_455 S
H1021 N1008 0.985 . S
C1022 C1023 1.363 . S
C1022 C1028 1.379 1_554 S
C1022 N1030 1.356 . S
C1023 C1022 1.363 . S
C1023 C1029 1.363 . S
C1024 C1025 1.363 . S
C1024 C1029 1.379 1_556 S
C1024 N1031 1.356 . S
C1025 C1024 1.363 . S
C1025 C1028 1.363 . S
N1026 C1028 1.356 . S
N1026 H1038 0.984 . S
N1026 H1039 0.985 . S
N1027 C1029 1.356 1_655 S
N1027 H1032 0.984 . S
N1027 H1033 0.985 . S
C1028 C1022 1.379 1_556 S
C1028 C1025 1.363 . S
C1028 N1026 1.356 . S
C1029 C1023 1.363 . S
C1029 C1024 1.379 1_554 S
C1029 N1027 1.356 1_455 S
N1030 C1022 1.356 . S
N1030 H1036 0.984 . S
N1030 H1037 0.984 . S
N1031 C1024 1.356 . S
N1031 H1034 0.984 . S
N1031 H1035 0.985 1_455 S
H1032 N1027 0.984 . S
H1033 N1027 0.985 . S
H1034 N1031 0.984 . S
H1035 N1031 0.985 1_655 S
H1036 N1030 0.984 . S
H1037 N1030 0.984 . S
H1038 N1026 0.984 . S
H1039 N1026 0.985 . S
C1040 C1041 1.363 . S
C1040 C1046 1.379 . S
C1040 N1048 1.356 1_545 S
C1041 C1040 1.363 . S
C1041 C1047 1.363 . S
C1042 C1043 1.363 . S
C1042 C1047 1.379 . S
C1042 N1049 1.356 . S
C1043 C1042 1.363 . S
C1043 C1046 1.363 . S
N1044 C1046 1.356 . S
N1044 H1056 0.984 . S
N1044 H1057 0.985 . S
N1045 C1047 1.356 . S
N1045 H1050 0.984 . S
N1045 H1051 0.985 . S
C1046 C1040 1.379 . S
C1046 C1043 1.363 . S
C1046 N1044 1.356 . S
C1047 C1041 1.363 . S
C1047 C1042 1.379 . S
C1047 N1045 1.356 . S
N1048 C1040 1.356 1_565 S
N1048 H1054 0.984 . S
N1048 H1055 0.984 . S
N1049 C1042 1.356 . S
N1049 H1052 0.984 . S
N1049 H1053 0.985 . S
H1050 N1045 0.984 . S
H1051 N1045 0.985 . S
H1052 N1049 0.984 . S
H1053 N1049 0.985 . S
H1054 N1048 0.984 . S
H1055 N1048 0.984 . S
H1056 N1044 0.984 . S
H1057 N1044 0.985 . S
C1058 C1059 1.363 . S
C1058 C1064 1.379 . S
C1058 N1066 1.356 . S
C1059 C1058 1.363 . S
C1059 C1065 1.363 1_565 S
C1060 C1061 1.363 . S
C1060 C1065 1.379 1_565 S
C1060 N1067 1.356 1_565 S
C1061 C1060 1.363 . S
C1061 C1064 1.363 . S
N1062 C1064 1.356 . S
N1062 H1074 0.984 . S
N1062 H1075 0.985 . S
N1063 C1065 1.356 . S
N1063 H1068 0.984 . S
N1063 H1069 0.985 . S
C1064 C1058 1.379 . S
C1064 C1061 1.363 . S
C1064 N1062 1.356 . S
C1065 C1059 1.363 1_545 S
C1065 C1060 1.379 1_545 S
C1065 N1063 1.356 . S
N1066 C1058 1.356 . S
N1066 H1072 0.984 . S
N1066 H1073 0.984 . S
N1067 C1060 1.356 1_545 S
N1067 H1070 0.984 1_545 S
N1067 H1071 0.985 . S
H1068 N1063 0.984 . S
H1069 N1063 0.985 . S
H1070 N1067 0.984 1_565 S
H1071 N1067 0.985 . S
H1072 N1066 0.984 . S
H1073 N1066 0.984 . S
H1074 N1062 0.984 . S
H1075 N1062 0.985 . S
C1076 C1077 1.363 . S
C1076 C1082 1.379 1_554 S
C1076 N1084 1.356 . S
C1077 C1076 1.363 . S
C1077 C1083 1.363 . S
C1078 C1079 1.363 . S
C1078 C1083 1.379 1_556 S
C1078 N1085 1.356 . S
C1079 C1078 1.363 . S
C1079 C1082 1.363 . S
N1080 C1082 1.356 . S
N1080 H1092 0.984 . S
N1080 H1093 0.985 . S
N1081 C1083 1.356 . S
N1081 H1086 0.984 . S
N1081 H1087 0.985 . S
C1082 C1076 1.379 1_556 S
C1082 C1079 1.363 . S
C1082 N1080 1.356 . S
C1083 C1077 1.363 . S
C1083 C1078 1.379 1_554 S
C1083 N1081 1.356 . S
N1084 C1076 1.356 . S
N1084 H1090 0.984 . S
N1084 H1091 0.984 . S
N1085 C1078 1.356 . S
N1085 H1088 0.984 . S
N1085 H1089 0.985 . S
H1086 N1081 0.984 . S
H1087 N1081 0.985 . S
H1088 N1085 0.984 . S
H1089 N1085 0.985 . S
H1090 N1084 0.984 . S
H1091 N1084 0.984 . S
H1092 N1080 0.984 . S
H1093 N1080 0.985 . S
C1094 C1095 1.363 . S
C1094 C1100 1.379 1_554 S
C1094 N1102 1.356 . S
C1095 C1094 1.363 . S
C1095 C1101 1.363 . S
C1096 C1097 1.363 . S
C1096 C1101 1.379 1_556 S
C1096 N1103 1.356 . S
C1097 C1096 1.363 . S
C1097 C1100 1.363 . S
N1098 C1100 1.356 . S
N1098 H1110 0.984 . S
N1098 H1111 0.985 . S
N1099 C1101 1.356 . S
N1099 H1104 0.984 . S
N1099 H1105 0.985 . S
C1100 C1094 1.379 1_556 S
C1100 C1097 1.363 . S
C1100 N1098 1.356 . S
C1101 C1095 1.363 . S
C1101 C1096 1.379 1_554 S
C1101 N1099 1.356 . S
N1102 C1094 1.356 . S
N1102 H1108 0.984 . S
N1102 H1109 0.984 . S
N1103 C1096 1.356 . S
N1103 H1106 0.984 . S
N1103 H1107 0.985 . S
H1104 N1099 0.984 . S
H1105 N1099 0.985 . S
H1106 N1103 0.984 . S
H1107 N1103 0.985 . S
H1108 N1102 0.984 . S
H1109 N1102 0.984 . S
H1110 N1098 0.984 . S
H1111 N1098 0.985 . S
C1112 C1113 1.363 . S
C1112 C1118 1.379 . S
C1112 N1120 1.356 . S
C1113 C1112 1.363 . S
C1113 C1119 1.363 . S
C1114 C1115 1.363 . S
C1114 C1119 1.379 . S
C1114 N1121 1.356 . S
C1115 C1114 1.363 . S
C1115 C1118 1.363 . S
N1116 C1118 1.356 . S
N1116 H1128 0.984 . S
N1116 H1129 0.985 . S
N1117 C1119 1.356 . S
N1117 H1122 0.984 . S
N1117 H1123 0.985 . S
C1118 C1112 1.379 . S
C1118 C1115 1.363 . S
C1118 N1116 1.356 . S
C1119 C1113 1.363 . S
C1119 C1114 1.379 . S
C1119 N1117 1.356 . S
N1120 C1112 1.356 . S
N1120 H1126 0.984 . S
N1120 H1127 0.984 . S
N1121 C1114 1.356 . S
N1121 H1124 0.984 . S
N1121 H1125 0.985 . S
H1122 N1117 0.984 . S
H1123 N1117 0.985 . S
H1124 N1121 0.984 . S
H1125 N1121 0.985 . S
H1126 N1120 0.984 . S
H1127 N1120 0.984 . S
H1128 N1116 0.984 . S
H1129 N1116 0.985 . S
C1130 C1131 1.363 . S
C1130 C1136 1.379 . S
C1130 N1138 1.356 . S
C1131 C1130 1.363 . S
C1131 C1137 1.363 . S
C1132 C1133 1.363 . S
C1132 C1137 1.379 . S
C1132 N1139 1.356 . S
C1133 C1132 1.363 . S
C1133 C1136 1.363 . S
N1134 C1136 1.356 . S
N1134 H1146 0.984 . S
N1134 H1147 0.985 . S
N1135 C1137 1.356 . S
N1135 H1140 0.984 . S
N1135 H1141 0.985 . S
C1136 C1130 1.379 . S
C1136 C1133 1.363 . S
C1136 N1134 1.356 . S
C1137 C1131 1.363 . S
C1137 C1132 1.379 . S
C1137 N1135 1.356 . S
N1138 C1130 1.356 . S
N1138 H1144 0.984 . S
N1138 H1145 0.984 . S
N1139 C1132 1.356 . S
N1139 H1142 0.984 . S
N1139 H1143 0.985 . S
H1140 N1135 0.984 . S
H1141 N1135 0.985 . S
H1142 N1139 0.984 . S
H1143 N1139 0.985 . S
H1144 N1138 0.984 . S
H1145 N1138 0.984 . S
H1146 N1134 0.984 . S
H1147 N1134 0.985 . S
C1148 C1149 1.363 . S
C1148 C1154 1.379 . S
C1148 N1156 1.356 . S
C1149 C1148 1.363 . S
C1149 C1155 1.363 . S
C1150 C1151 1.363 . S
C1150 C1155 1.379 . S
C1150 N1157 1.356 . S
C1151 C1150 1.363 . S
C1151 C1154 1.363 . S
N1152 C1154 1.356 . S
N1152 H1164 0.984 . S
N1152 H1165 0.985 . S
N1153 C1155 1.356 . S
N1153 H1158 0.984 . S
N1153 H1159 0.985 . S
C1154 C1148 1.379 . S
C1154 C1151 1.363 . S
C1154 N1152 1.356 . S
C1155 C1149 1.363 . S
C1155 C1150 1.379 . S
C1155 N1153 1.356 . S
N1156 C1148 1.356 . S
N1156 H1162 0.984 . S
N1156 H1163 0.984 . S
N1157 C1150 1.356 . S
N1157 H1160 0.984 . S
N1157 H1161 0.985 . S
H1158 N1153 0.984 . S
H1159 N1153 0.985 . S
H1160 N1157 0.984 . S
H1161 N1157 0.985 . S
H1162 N1156 0.984 . S
H1163 N1156 0.984 . S
H1164 N1152 0.984 . S
H1165 N1152 0.985 . S
C1166 C1167 1.363 . S
C1166 C1172 1.379 . S
C1166 N1174 1.356 . S
C1167 C1166 1.363 . S
C1167 C1173 1.363 . S
C1168 C1169 1.363 . S
C1168 C1173 1.379 . S
C1168 N1175 1.356 . S
C1169 C1168 1.363 . S
C1169 C1172 1.363 . S
N1170 C1172 1.356 . S
N1170 H1182 0.984 . S
N1170 H1183 0.985 . S
N1171 C1173 1.356 . S
N1171 H1176 0.984 . S
N1171 H1177 0.985 . S
C1172 C1166 1.379 . S
C1172 C1169 1.363 . S
C1172 N1170 1.356 . S
C1173 C1167 1.363 . S
C1173 C1168 1.379 . S
C1173 N1171 1.356 . S
N1174 C1166 1.356 . S
N1174 H1180 0.984 . S
N1174 H1181 0.984 . S
N1175 C1168 1.356 . S
N1175 H1178 0.984 . S
N1175 H1179 0.985 . S
H1176 N1171 0.984 . S
H1177 N1171 0.985 . S
H1178 N1175 0.984 . S
H1179 N1175 0.985 . S
H1180 N1174 0.984 . S
H1181 N1174 0.984 . S
H1182 N1170 0.984 . S
H1183 N1170 0.985 . S
C1184 C1185 1.363 . S
C1184 C1190 1.379 . S
C1184 N1192 1.356 . S
C1185 C1184 1.363 . S
C1185 C1191 1.363 . S
C1186 C1187 1.363 . S
C1186 C1191 1.379 . S
C1186 N1193 1.356 . S
C1187 C1186 1.363 . S
C1187 C1190 1.363 . S
N1188 C1190 1.356 . S
N1188 H1200 0.984 . S
N1188 H1201 0.985 . S
N1189 C1191 1.356 . S
N1189 H1194 0.984 . S
N1189 H1195 0.985 . S
C1190 C1184 1.379 . S
C1190 C1187 1.363 . S
C1190 N1188 1.356 . S
C1191 C1185 1.363 . S
C1191 C1186 1.379 . S
C1191 N1189 1.356 . S
N1192 C1184 1.356 . S
N1192 H1198 0.984 . S
N1192 H1199 0.984 . S
N1193 C1186 1.356 . S
N1193 H1196 0.984 . S
N1193 H1197 0.985 . S
H1194 N1189 0.984 . S
H1195 N1189 0.985 . S
H1196 N1193 0.984 . S
H1197 N1193 0.985 . S
H1198 N1192 0.984 . S
H1199 N1192 0.984 . S
H1200 N1188 0.984 . S
H1201 N1188 0.985 . S
C1202 C1203 1.363 . S
C1202 C1208 1.379 . S
C1202 N1210 1.356 . S
C1203 C1202 1.363 . S
C1203 C1209 1.363 . S
C1204 C1205 1.363 . S
C1204 C1209 1.379 . S
C1204 N1211 1.356 . S
C1205 C1204 1.363 . S
C1205 C1208 1.363 . S
N1206 C1208 1.356 . S
N1206 H1218 0.984 . S
N1206 H1219 0.985 . S
N1207 C1209 1.356 . S
N1207 H1212 0.984 . S
N1207 H1213 0.985 . S
C1208 C1202 1.379 . S
C1208 C1205 1.363 . S
C1208 N1206 1.356 . S
C1209 C1203 1.363 . S
C1209 C1204 1.379 . S
C1209 N1207 1.356 . S
N1210 C1202 1.356 . S
N1210 H1216 0.984 . S
N1210 H1217 0.984 . S
N1211 C1204 1.356 . S
N1211 H1214 0.984 . S
N1211 H1215 0.985 . S
H1212 N1207 0.984 . S
H1213 N1207 0.985 . S
H1214 N1211 0.984 . S
H1215 N1211 0.985 . S
H1216 N1210 0.984 . S
H1217 N1210 0.984 . S
H1218 N1206 0.984 . S
H1219 N1206 0.985 . S
C1220 C1221 1.363 . S
C1220 C1226 1.379 . S
C1220 N1228 1.356 . S
C1221 C1220 1.363 . S
C1221 C1227 1.363 . S
C1222 C1223 1.363 . S
C1222 C1227 1.379 . S
C1222 N1229 1.356 . S
C1223 C1222 1.363 . S
C1223 C1226 1.363 . S
N1224 C1226 1.356 . S
N1224 H1236 0.984 . S
N1224 H1237 0.985 . S
N1225 C1227 1.356 . S
N1225 H1230 0.984 . S
N1225 H1231 0.985 1_554 S
C1226 C1220 1.379 . S
C1226 C1223 1.363 . S
C1226 N1224 1.356 . S
C1227 C1221 1.363 . S
C1227 C1222 1.379 . S
C1227 N1225 1.356 . S
N1228 C1220 1.356 . S
N1228 H1234 0.984 . S
N1228 H1235 0.984 . S
N1229 C1222 1.356 . S
N1229 H1232 0.984 . S
N1229 H1233 0.985 . S
H1230 N1225 0.984 . S
H1231 N1225 0.985 1_556 S
H1232 N1229 0.984 . S
H1233 N1229 0.985 . S
H1234 N1228 0.984 . S
H1235 N1228 0.984 . S
H1236 N1224 0.984 . S
H1237 N1224 0.985 . S
C1238 C1239 1.363 . S
C1238 C1244 1.379 . S
C1238 N1246 1.356 . S
C1239 C1238 1.363 . S
C1239 C1245 1.363 . S
C1240 C1241 1.363 . S
C1240 C1245 1.379 . S
C1240 N1247 1.356 . S
C1241 C1240 1.363 . S
C1241 C1244 1.363 . S
N1242 C1244 1.356 . S
N1242 H1254 0.984 . S
N1242 H1255 0.985 . S
N1243 C1245 1.356 . S
N1243 H1248 0.984 . S
N1243 H1249 0.985 . S
C1244 C1238 1.379 . S
C1244 C1241 1.363 . S
C1244 N1242 1.356 . S
C1245 C1239 1.363 . S
C1245 C1240 1.379 . S
C1245 N1243 1.356 . S
N1246 C1238 1.356 . S
N1246 H1252 0.984 . S
N1246 H1253 0.984 . S
N1247 C1240 1.356 . S
N1247 H1250 0.984 . S
N1247 H1251 0.985 . S
H1248 N1243 0.984 . S
H1249 N1243 0.985 . S
H1250 N1247 0.984 . S
H1251 N1247 0.985 . S
H1252 N1246 0.984 . S
H1253 N1246 0.984 . S
H1254 N1242 0.984 . S
H1255 N1242 0.985 . S
C1256 C1257 1.363 . S
C1256 C1262 1.379 . S
C1256 N1264 1.356 . S
C1257 C1256 1.363 . S
C1257 C1263 1.363 . S
C1258 C1259 1.363 . S
C1258 C1263 1.379 . S
C1258 N1265 1.356 . S
C1259 C1258 1.363 . S
C1259 C1262 1.363 . S
N1260 C1262 1.356 . S
N1260 H1272 0.984 . S
N1260 H1273 0.985 . S
N1261 C1263 1.356 . S
N1261 H1266 0.984 . S
N1261 H1267 0.985 . S
C1262 C1256 1.379 . S
C1262 C1259 1.363 . S
C1262 N1260 1.356 . S
C1263 C1257 1.363 . S
C1263 C1258 1.379 . S
C1263 N1261 1.356 . S
N1264 C1256 1.356 . S
N1264 H1270 0.984 . S
N1264 H1271 0.984 . S
N1265 C1258 1.356 . S
N1265 H1268 0.984 . S
N1265 H1269 0.985 . S
H1266 N1261 0.984 . S
H1267 N1261 0.985 . S
H1268 N1265 0.984 . S
H1269 N1265 0.985 . S
H1270 N1264 0.984 . S
H1271 N1264 0.984 . S
H1272 N1260 0.984 . S
H1273 N1260 0.985 . S
C1274 C1275 1.363 . S
C1274 C1280 1.379 . S
C1274 N1282 1.356 . S
C1275 C1274 1.363 . S
C1275 C1281 1.363 . S
C1276 C1277 1.363 . S
C1276 C1281 1.379 . S
C1276 N1283 1.356 . S
C1277 C1276 1.363 . S
C1277 C1280 1.363 . S
N1278 C1280 1.356 . S
N1278 H1290 0.984 . S
N1278 H1291 0.985 . S
N1279 C1281 1.356 . S
N1279 H1284 0.984 . S
N1279 H1285 0.985 . S
C1280 C1274 1.379 . S
C1280 C1277 1.363 . S
C1280 N1278 1.356 . S
C1281 C1275 1.363 . S
C1281 C1276 1.379 . S
C1281 N1279 1.356 . S
N1282 C1274 1.356 . S
N1282 H1288 0.984 . S
N1282 H1289 0.984 . S
N1283 C1276 1.356 . S
N1283 H1286 0.984 . S
N1283 H1287 0.985 . S
H1284 N1279 0.984 . S
H1285 N1279 0.985 . S
H1286 N1283 0.984 . S
H1287 N1283 0.985 . S
H1288 N1282 0.984 . S
H1289 N1282 0.984 . S
H1290 N1278 0.984 . S
H1291 N1278 0.985 . S
C1292 C1293 1.363 . S
C1292 C1298 1.379 . S
C1292 N1300 1.356 . S
C1293 C1292 1.363 . S
C1293 C1299 1.363 . S
C1294 C1295 1.363 . S
C1294 C1299 1.379 . S
C1294 N1301 1.356 . S
C1295 C1294 1.363 . S
C1295 C1298 1.363 . S
N1296 C1298 1.356 . S
N1296 H1308 0.984 . S
N1296 H1309 0.985 . S
N1297 C1299 1.356 . S
N1297 H1302 0.984 . S
N1297 H1303 0.985 . S
C1298 C1292 1.379 . S
C1298 C1295 1.363 . S
C1298 N1296 1.356 . S
C1299 C1293 1.363 . S
C1299 C1294 1.379 . S
C1299 N1297 1.356 . S
N1300 C1292 1.356 . S
N1300 H1306 0.984 . S
N1300 H1307 0.984 . S
N1301 C1294 1.356 . S
N1301 H1304 0.984 . S
N1301 H1305 0.985 . S
H1302 N1297 0.984 . S
H1303 N1297 0.985 . S
H1304 N1301 0.984 . S
H1305 N1301 0.985 . S
H1306 N1300 0.984 . S
H1307 N1300 0.984 . S
H1308 N1296 0.984 . S
H1309 N1296 0.985 . S
C1310 C1311 1.363 . S
C1310 C1316 1.379 . S
C1310 N1318 1.356 . S
C1311 C1310 1.363 . S
C1311 C1317 1.363 . S
C1312 C1313 1.363 . S
C1312 C1317 1.379 . S
C1312 N1319 1.356 . S
C1313 C1312 1.363 . S
C1313 C1316 1.363 . S
N1314 C1316 1.356 . S
N1314 H1326 0.984 . S
N1314 H1327 0.985 . S
N1315 C1317 1.356 . S
N1315 H1320 0.984 . S
N1315 H1321 0.985 . S
C1316 C1310 1.379 . S
C1316 C1313 1.363 . S
C1316 N1314 1.356 . S
C1317 C1311 1.363 . S
C1317 C1312 1.379 . S
C1317 N1315 1.356 . S
N1318 C1310 1.356 . S
N1318 H1324 0.984 . S
N1318 H1325 0.984 . S
N1319 C1312 1.356 . S
N1319 H1322 0.984 . S
N1319 H1323 0.985 . S
H1320 N1315 0.984 . S
H1321 N1315 0.985 . S
H1322 N1319 0.984 . S
H1323 N1319 0.985 . S
H1324 N1318 0.984 . S
H1325 N1318 0.984 . S
H1326 N1314 0.984 . S
H1327 N1314 0.985 . S
C1328 C1329 1.363 . S
C1328 C1334 1.379 . S
C1328 N1336 1.356 . S
C1329 C1328 1.363 . S
C1329 C1335 1.363 . S
C1330 C1331 1.363 . S
C1330 C1335 1.379 . S
C1330 N1337 1.356 . S
C1331 C1330 1.363 . S
C1331 C1334 1.363 . S
N1332 C1334 1.356 . S
N1332 H1344 0.984 . S
N1332 H1345 0.985 . S
N1333 C1335 1.356 . S
N1333 H1338 0.984 . S
N1333 H1339 0.985 . S
C1334 C1328 1.379 . S
C1334 C1331 1.363 . S
C1334 N1332 1.356 . S
C1335 C1329 1.363 . S
C1335 C1330 1.379 . S
C1335 N1333 1.356 . S
N1336 C1328 1.356 . S
N1336 H1342 0.984 . S
N1336 H1343 0.984 . S
N1337 C1330 1.356 . S
N1337 H1340 0.984 . S
N1337 H1341 0.985 . S
H1338 N1333 0.984 . S
H1339 N1333 0.985 . S
H1340 N1337 0.984 . S
H1341 N1337 0.985 . S
H1342 N1336 0.984 . S
H1343 N1336 0.984 . S
H1344 N1332 0.984 . S
H1345 N1332 0.985 . S
C1346 C1347 1.363 . S
C1346 C1352 1.379 . S
C1346 N1354 1.356 . S
C1347 C1346 1.363 . S
C1347 C1353 1.363 . S
C1348 C1349 1.363 . S
C1348 C1353 1.379 . S
C1348 N1355 1.356 . S
C1349 C1348 1.363 . S
C1349 C1352 1.363 . S
N1350 C1352 1.356 . S
N1350 H1362 0.984 . S
N1350 H1363 0.985 . S
N1351 C1353 1.356 . S
N1351 H1356 0.984 . S
N1351 H1357 0.985 . S
C1352 C1346 1.379 . S
C1352 C1349 1.363 . S
C1352 N1350 1.356 . S
C1353 C1347 1.363 . S
C1353 C1348 1.379 . S
C1353 N1351 1.356 . S
N1354 C1346 1.356 . S
N1354 H1360 0.984 . S
N1354 H1361 0.984 . S
N1355 C1348 1.356 . S
N1355 H1358 0.984 . S
N1355 H1359 0.985 . S
H1356 N1351 0.984 . S
H1357 N1351 0.985 . S
H1358 N1355 0.984 . S
H1359 N1355 0.985 . S
H1360 N1354 0.984 . S
H1361 N1354 0.984 . S
H1362 N1350 0.984 . S
H1363 N1350 0.985 . S
C1364 C1365 1.363 . S
C1364 C1370 1.379 . S
C1364 N1372 1.356 . S
C1365 C1364 1.363 . S
C1365 C1371 1.363 . S
C1366 C1367 1.363 . S
C1366 C1371 1.379 . S
C1366 N1373 1.356 . S
C1367 C1366 1.363 . S
C1367 C1370 1.363 . S
N1368 C1370 1.356 . S
N1368 H1380 0.984 . S
N1368 H1381 0.985 . S
N1369 C1371 1.356 . S
N1369 H1374 0.984 . S
N1369 H1375 0.985 . S
C1370 C1364 1.379 . S
C1370 C1367 1.363 . S
C1370 N1368 1.356 . S
C1371 C1365 1.363 . S
C1371 C1366 1.379 . S
C1371 N1369 1.356 . S
N1372 C1364 1.356 . S
N1372 H1378 0.984 . S
N1372 H1379 0.984 . S
N1373 C1366 1.356 . S
N1373 H1376 0.984 . S
N1373 H1377 0.985 . S
H1374 N1369 0.984 . S
H1375 N1369 0.985 . S
H1376 N1373 0.984 . S
H1377 N1373 0.985 . S
H1378 N1372 0.984 . S
H1379 N1372 0.984 . S
H1380 N1368 0.984 . S
H1381 N1368 0.985 . S
C1382 C1383 1.363 . S
C1382 C1388 1.379 . S
C1382 N1390 1.356 . S
C1383 C1382 1.363 . S
C1383 C1389 1.363 . S
C1384 C1385 1.363 . S
C1384 C1389 1.379 . S
C1384 N1391 1.356 . S
C1385 C1384 1.363 . S
C1385 C1388 1.363 . S
N1386 C1388 1.356 . S
N1386 H1398 0.984 . S
N1386 H1399 0.985 . S
N1387 C1389 1.356 . S
N1387 H1392 0.984 . S
N1387 H1393 0.985 . S
C1388 C1382 1.379 . S
C1388 C1385 1.363 . S
C1388 N1386 1.356 . S
C1389 C1383 1.363 . S
C1389 C1384 1.379 . S
C1389 N1387 1.356 . S
N1390 C1382 1.356 . S
N1390 H1396 0.984 . S
N1390 H1397 0.984 . S
N1391 C1384 1.356 . S
N1391 H1394 0.984 . S
N1391 H1395 0.985 . S
H1392 N1387 0.984 . S
H1393 N1387 0.985 . S
H1394 N1391 0.984 . S
H1395 N1391 0.985 . S
H1396 N1390 0.984 . S
H1397 N1390 0.984 . S
H1398 N1386 0.984 . S
H1399 N1386 0.985 . S
C1400 C1401 1.363 . S
C1400 C1406 1.379 . S
C1400 N1408 1.356 . S
C1401 C1400 1.363 . S
C1401 C1407 1.363 . S
C1402 C1403 1.363 . S
C1402 C1407 1.379 . S
C1402 N1409 1.356 . S
C1403 C1402 1.363 . S
C1403 C1406 1.363 . S
N1404 C1406 1.356 . S
N1404 H1416 0.984 . S
N1404 H1417 0.985 . S
N1405 C1407 1.356 . S
N1405 H1410 0.984 . S
N1405 H1411 0.985 . S
C1406 C1400 1.379 . S
C1406 C1403 1.363 . S
C1406 N1404 1.356 . S
C1407 C1401 1.363 . S
C1407 C1402 1.379 . S
C1407 N1405 1.356 . S
N1408 C1400 1.356 . S
N1408 H1414 0.984 . S
N1408 H1415 0.984 . S
N1409 C1402 1.356 . S
N1409 H1412 0.984 . S
N1409 H1413 0.985 . S
H1410 N1405 0.984 . S
H1411 N1405 0.985 . S
H1412 N1409 0.984 . S
H1413 N1409 0.985 . S
H1414 N1408 0.984 . S
H1415 N1408 0.984 . S
H1416 N1404 0.984 . S
H1417 N1404 0.985 . S
C1418 C1419 1.363 . S
C1418 C1424 1.379 . S
C1418 N1426 1.356 . S
C1419 C1418 1.363 . S
C1419 C1425 1.363 . S
C1420 C1421 1.363 . S
C1420 C1425 1.379 . S
C1420 N1427 1.356 . S
C1421 C1420 1.363 . S
C1421 C1424 1.363 . S
N1422 C1424 1.356 . S
N1422 H1434 0.984 . S
N1422 H1435 0.985 . S
N1423 C1425 1.356 . S
N1423 H1428 0.984 . S
N1423 H1429 0.985 . S
C1424 C1418 1.379 . S
C1424 C1421 1.363 . S
C1424 N1422 1.356 . S
C1425 C1419 1.363 . S
C1425 C1420 1.379 . S
C1425 N1423 1.356 . S
N1426 C1418 1.356 . S
N1426 H1432 0.984 . S
N1426 H1433 0.984 . S
N1427 C1420 1.356 . S
N1427 H1430 0.984 . S
N1427 H1431 0.985 . S
H1428 N1423 0.984 . S
H1429 N1423 0.985 . S
H1430 N1427 0.984 . S
H1431 N1427 0.985 . S
H1432 N1426 0.984 . S
H1433 N1426 0.984 . S
H1434 N1422 0.984 . S
H1435 N1422 0.985 . S
C1436 C1437 1.363 . S
C1436 C1442 1.379 . S
C1436 N1444 1.356 . S
C1437 C1436 1.363 . S
C1437 C1443 1.363 . S
C1438 C1439 1.363 . S
C1438 C1443 1.379 . S
C1438 N1445 1.356 . S
C1439 C1438 1.363 . S
C1439 C1442 1.363 . S
N1440 C1442 1.356 . S
N1440 H1452 0.984 . S
N1440 H1453 0.985 . S
N1441 C1443 1.356 . S
N1441 H1446 0.984 . S
N1441 H1447 0.985 . S
C1442 C1436 1.379 . S
C1442 C1439 1.363 . S
C1442 N1440 1.356 . S
C1443 C1437 1.363 . S
C1443 C1438 1.379 . S
C1443 N1441 1.356 . S
N1444 C1436 1.356 . S
N1444 H1450 0.984 1_554 S
N1444 H1451 0.984 . S
N1445 C1438 1.356 . S
N1445 H1448 0.984 . S
N1445 H1449 0.985 . S
H1446 N1441 0.984 . S
H1447 N1441 0.985 . S
H1448 N1445 0.984 . S
H1449 N1445 0.985 . S
H1450 N1444 0.984 1_556 S
H1451 N1444 0.984 . S
H1452 N1440 0.984 . S
H1453 N1440 0.985 . S
C1454 C1455 1.363 . S
C1454 C1460 1.379 . S
C1454 N1462 1.356 . S
C1455 C1454 1.363 . S
C1455 C1461 1.363 . S
C1456 C1457 1.363 . S
C1456 C1461 1.379 . S
C1456 N1463 1.356 . S
C1457 C1456 1.363 . S
C1457 C1460 1.363 . S
N1458 C1460 1.356 . S
N1458 H1470 0.984 . S
N1458 H1471 0.985 . S
N1459 C1461 1.356 . S
N1459 H1464 0.984 . S
N1459 H1465 0.985 . S
C1460 C1454 1.379 . S
C1460 C1457 1.363 . S
C1460 N1458 1.356 . S
C1461 C1455 1.363 . S
C1461 C1456 1.379 . S
C1461 N1459 1.356 . S
N1462 C1454 1.356 . S
N1462 H1468 0.984 . S
N1462 H1469 0.984 . S
N1463 C1456 1.356 . S
N1463 H1466 0.984 . S
N1463 H1467 0.985 . S
H1464 N1459 0.984 . S
H1465 N1459 0.985 . S
H1466 N1463 0.984 . S
H1467 N1463 0.985 . S
H1468 N1462 0.984 . S
H1469 N1462 0.984 . S
H1470 N1458 0.984 . S
H1471 N1458 0.985 . S
C465 C416 2.279 . S
C467 C3 2.338 . S
C483 C445 2.279 . S
C485 C32 2.338 . S
C501 C61 2.339 . S
C503 C242 2.279 . S
C519 C271 2.279 . S
C521 C90 2.339 . S
C537 C119 2.339 . S
C539 C300 2.279 . S
C555 C329 2.279 . S
C557 C148 2.339 . S
C573 C358 2.279 . S
C575 C177 2.341 . S
C591 C206 2.339 . S
C593 C387 2.280 . S
C609 C235 2.339 . S
C611 C184 2.279 . S
C627 C264 2.339 . S
C629 C213 2.279 . S
C645 C293 2.339 . S
C647 C10 2.280 . S
C663 C322 2.339 . S
C665 C39 2.280 . S
C681 C351 2.339 . S
C683 C68 2.277 . S
C699 C97 2.279 . S
C701 C380 2.338 . S
C717 C126 2.279 . S
C719 C409 2.339 . S
C735 C155 2.279 . S
C737 C438 2.339 . S
C753 C385 0.926 . S
C755 C8 0.926 . S
C771 C356 0.926 . S
C773 C37 0.926 . S
C789 C66 0.926 . S
C791 C95 0.926 . S
C807 C124 0.926 . S
C809 C269 0.926 . S
C825 C240 0.926 . S
C827 C153 0.926 . S
C843 C182 0.926 . S
C845 C211 0.926 . S
C861 C327 0.926 . S
C863 C298 0.926 . S
C879 C414 0.926 . S
C881 C443 0.926 . S
C897 C274 2.135 1_545 S
C899 C5 2.404 . S
C915 C34 2.406 . S
C917 C245 2.133 1_565 S
C933 C63 2.406 . S
C935 C216 2.135 . S
C951 C187 2.135 . S
C953 C92 2.406 . S
C969 C121 2.406 . S
C971 C390 2.138 . S
C987 C361 2.135 . S
C989 C150 2.408 . S
C1005 C100 2.135 . S
C1007 C179 2.406 . S
C1023 C71 2.135 . S
C1025 C208 2.406 . S
C1041 C42 2.135 1_545 S
C1043 C237 2.408 . S
C1059 C13 2.135 1_565 S
C1061 C266 2.408 . S
C1077 C448 2.135 . S
C1079 C295 2.406 . S
C1095 C419 2.135 . S
C1097 C324 2.406 . S
C1113 C353 2.406 . S
C1115 C158 2.133 . S
C1131 C129 2.135 . S
C1133 C382 2.404 . S
C1149 C411 2.406 . S
C1151 C332 2.135 . S
C1167 C303 2.135 . S
C1169 C440 2.406 . S
C1185 C224 1.389 . S
C1187 C15 1.524 . S
C1203 C44 1.524 . S
C1205 C195 1.389 . S
C1221 C73 1.524 . S
C1223 C398 1.389 . S
C1239 C102 1.524 . S
C1241 C369 1.388 . S
C1257 C131 1.524 . S
C1259 C108 1.389 . S
C1275 C79 1.389 . S
C1277 C160 1.524 . S
C1293 C189 1.524 . S
C1295 C282 1.389 . S
C1311 C253 1.389 . S
C1313 C218 1.524 . S
C1329 C247 1.524 . S
C1331 C456 1.389 . S
C1347 C276 1.524 . S
C1349 C427 1.389 . S
C1365 C305 1.524 . S
C1367 C166 1.389 . S
C1383 C137 1.389 . S
C1385 C334 1.524 . S
C1401 C340 1.389 . S
C1403 C363 1.524 . S
C1419 C311 1.389 . S
C1421 C392 1.524 . S
C1437 C421 1.524 . S
C1439 C50 1.389 . S
C1455 C450 1.524 . S
C1457 C21 1.388 . S
