# Generated by pormake.
# Topology uoa, (4)-cn, num edge types: 1
# Building blocks:
#     Node 0, Type 0, BuildingBlock: QUQFOY_clean_sbu_1, # of connection points: 4
#     Node 1, Type 0, BuildingBlock: QUQFOY_clean_sbu_1, # of connection points: 4
#     Node 2, Type 0, BuildingBlock: QUQFOY_clean_sbu_1, # of connection points: 4
#     Node 3, Type 0, BuildingBlock: QUQFOY_clean_sbu_1, # of connection points: 4
#     Node 4, Type 0, BuildingBlock: QUQFOY_clean_sbu_1, # of connection points: 4
#     Node 5, Type 0, BuildingBlock: QUQFOY_clean_sbu_1, # of connection points: 4
#     Node 6, Type 0, BuildingBlock: QUQFOY_clean_sbu_1, # of connection points: 4
#     Node 7, Type 0, BuildingBlock: QUQFOY_clean_sbu_1, # of connection points: 4
#     Node 8, Type 0, BuildingBlock: QUQFOY_clean_sbu_1, # of connection points: 4
#     Node 9, Type 0, BuildingBlock: QUQFOY_clean_sbu_1, # of connection points: 4
#     Node 10, Type 0, BuildingBlock: QUQFOY_clean_sbu_1, # of connection points: 4
#     Node 11, Type 0, BuildingBlock: QUQFOY_clean_sbu_1, # of connection points: 4
#     Node 12, Type 0, BuildingBlock: QUQFOY_clean_sbu_1, # of connection points: 4
#     Node 13, Type 0, BuildingBlock: QUQFOY_clean_sbu_1, # of connection points: 4
#     Node 14, Type 0, BuildingBlock: QUQFOY_clean_sbu_1, # of connection points: 4
#     Node 15, Type 0, BuildingBlock: QUQFOY_clean_sbu_1, # of connection points: 4
#     Node 16, Type 0, BuildingBlock: QUQFOY_clean_sbu_1, # of connection points: 4
#     Node 17, Type 0, BuildingBlock: QUQFOY_clean_sbu_1, # of connection points: 4
#     Node 18, Type 0, BuildingBlock: QUQFOY_clean_sbu_1, # of connection points: 4
#     Node 19, Type 0, BuildingBlock: QUQFOY_clean_sbu_1, # of connection points: 4
#     Node 20, Type 0, BuildingBlock: QUQFOY_clean_sbu_1, # of connection points: 4
#     Node 21, Type 0, BuildingBlock: QUQFOY_clean_sbu_1, # of connection points: 4
#     Node 22, Type 0, BuildingBlock: QUQFOY_clean_sbu_1, # of connection points: 4
#     Node 23, Type 0, BuildingBlock: QUQFOY_clean_sbu_1, # of connection points: 4
#     Node 24, Type 0, BuildingBlock: QUQFOY_clean_sbu_1, # of connection points: 4
#     Node 25, Type 0, BuildingBlock: QUQFOY_clean_sbu_1, # of connection points: 4
#     Node 26, Type 0, BuildingBlock: QUQFOY_clean_sbu_1, # of connection points: 4
#     Node 27, Type 0, BuildingBlock: QUQFOY_clean_sbu_1, # of connection points: 4
#     Node 28, Type 0, BuildingBlock: QUQFOY_clean_sbu_1, # of connection points: 4
#     Node 29, Type 0, BuildingBlock: QUQFOY_clean_sbu_1, # of connection points: 4
#     Node 30, Type 0, BuildingBlock: QUQFOY_clean_sbu_1, # of connection points: 4
#     Node 31, Type 0, BuildingBlock: QUQFOY_clean_sbu_1, # of connection points: 4
#     Edge 32, Type (0, 0), BuildingBlock: AJUNOK_clean_linker_0, # of connection points: 2
#     Edge 33, Type (0, 0), BuildingBlock: AJUNOK_clean_linker_0, # of connection points: 2
#     Edge 34, Type (0, 0), BuildingBlock: AJUNOK_clean_linker_0, # of connection points: 2
#     Edge 35, Type (0, 0), BuildingBlock: AJUNOK_clean_linker_0, # of connection points: 2
#     Edge 36, Type (0, 0), BuildingBlock: AJUNOK_clean_linker_0, # of connection points: 2
#     Edge 37, Type (0, 0), BuildingBlock: AJUNOK_clean_linker_0, # of connection points: 2
#     Edge 38, Type (0, 0), BuildingBlock: AJUNOK_clean_linker_0, # of connection points: 2
#     Edge 39, Type (0, 0), BuildingBlock: AJUNOK_clean_linker_0, # of connection points: 2
#     Edge 40, Type (0, 0), BuildingBlock: AJUNOK_clean_linker_0, # of connection points: 2
#     Edge 41, Type (0, 0), BuildingBlock: AJUNOK_clean_linker_0, # of connection points: 2
#     Edge 42, Type (0, 0), BuildingBlock: AJUNOK_clean_linker_0, # of connection points: 2
#     Edge 43, Type (0, 0), BuildingBlock: AJUNOK_clean_linker_0, # of connection points: 2
#     Edge 44, Type (0, 0), BuildingBlock: AJUNOK_clean_linker_0, # of connection points: 2
#     Edge 45, Type (0, 0), BuildingBlock: AJUNOK_clean_linker_0, # of connection points: 2
#     Edge 46, Type (0, 0), BuildingBlock: AJUNOK_clean_linker_0, # of connection points: 2
#     Edge 47, Type (0, 0), BuildingBlock: AJUNOK_clean_linker_0, # of connection points: 2
#     Edge 48, Type (0, 0), BuildingBlock: AJUNOK_clean_linker_0, # of connection points: 2
#     Edge 49, Type (0, 0), BuildingBlock: AJUNOK_clean_linker_0, # of connection points: 2
#     Edge 50, Type (0, 0), BuildingBlock: AJUNOK_clean_linker_0, # of connection points: 2
#     Edge 51, Type (0, 0), BuildingBlock: AJUNOK_clean_linker_0, # of connection points: 2
#     Edge 52, Type (0, 0), BuildingBlock: AJUNOK_clean_linker_0, # of connection points: 2
#     Edge 53, Type (0, 0), BuildingBlock: AJUNOK_clean_linker_0, # of connection points: 2
#     Edge 54, Type (0, 0), BuildingBlock: AJUNOK_clean_linker_0, # of connection points: 2
#     Edge 55, Type (0, 0), BuildingBlock: AJUNOK_clean_linker_0, # of connection points: 2
#     Edge 56, Type (0, 0), BuildingBlock: AJUNOK_clean_linker_0, # of connection points: 2
#     Edge 57, Type (0, 0), BuildingBlock: AJUNOK_clean_linker_0, # of connection points: 2
#     Edge 58, Type (0, 0), BuildingBlock: AJUNOK_clean_linker_0, # of connection points: 2
#     Edge 59, Type (0, 0), BuildingBlock: AJUNOK_clean_linker_0, # of connection points: 2
#     Edge 60, Type (0, 0), BuildingBlock: AJUNOK_clean_linker_0, # of connection points: 2
#     Edge 61, Type (0, 0), BuildingBlock: AJUNOK_clean_linker_0, # of connection points: 2
#     Edge 62, Type (0, 0), BuildingBlock: AJUNOK_clean_linker_0, # of connection points: 2
#     Edge 63, Type (0, 0), BuildingBlock: AJUNOK_clean_linker_0, # of connection points: 2
#     Edge 64, Type (0, 0), BuildingBlock: AJUNOK_clean_linker_0, # of connection points: 2
#     Edge 65, Type (0, 0), BuildingBlock: AJUNOK_clean_linker_0, # of connection points: 2
#     Edge 66, Type (0, 0), BuildingBlock: AJUNOK_clean_linker_0, # of connection points: 2
#     Edge 67, Type (0, 0), BuildingBlock: AJUNOK_clean_linker_0, # of connection points: 2
#     Edge 68, Type (0, 0), BuildingBlock: AJUNOK_clean_linker_0, # of connection points: 2
#     Edge 69, Type (0, 0), BuildingBlock: AJUNOK_clean_linker_0, # of connection points: 2
#     Edge 70, Type (0, 0), BuildingBlock: AJUNOK_clean_linker_0, # of connection points: 2
#     Edge 71, Type (0, 0), BuildingBlock: AJUNOK_clean_linker_0, # of connection points: 2
#     Edge 72, Type (0, 0), BuildingBlock: AJUNOK_clean_linker_0, # of connection points: 2
#     Edge 73, Type (0, 0), BuildingBlock: AJUNOK_clean_linker_0, # of connection points: 2
#     Edge 74, Type (0, 0), BuildingBlock: AJUNOK_clean_linker_0, # of connection points: 2
#     Edge 75, Type (0, 0), BuildingBlock: AJUNOK_clean_linker_0, # of connection points: 2
#     Edge 76, Type (0, 0), BuildingBlock: AJUNOK_clean_linker_0, # of connection points: 2
#     Edge 77, Type (0, 0), BuildingBlock: AJUNOK_clean_linker_0, # of connection points: 2
#     Edge 78, Type (0, 0), BuildingBlock: AJUNOK_clean_linker_0, # of connection points: 2
#     Edge 79, Type (0, 0), BuildingBlock: AJUNOK_clean_linker_0, # of connection points: 2
#     Edge 80, Type (0, 0), BuildingBlock: AJUNOK_clean_linker_0, # of connection points: 2
#     Edge 81, Type (0, 0), BuildingBlock: AJUNOK_clean_linker_0, # of connection points: 2
#     Edge 82, Type (0, 0), BuildingBlock: AJUNOK_clean_linker_0, # of connection points: 2
#     Edge 83, Type (0, 0), BuildingBlock: AJUNOK_clean_linker_0, # of connection points: 2
#     Edge 84, Type (0, 0), BuildingBlock: AJUNOK_clean_linker_0, # of connection points: 2
#     Edge 85, Type (0, 0), BuildingBlock: AJUNOK_clean_linker_0, # of connection points: 2
#     Edge 86, Type (0, 0), BuildingBlock: AJUNOK_clean_linker_0, # of connection points: 2
#     Edge 87, Type (0, 0), BuildingBlock: AJUNOK_clean_linker_0, # of connection points: 2
#     Edge 88, Type (0, 0), BuildingBlock: AJUNOK_clean_linker_0, # of connection points: 2
#     Edge 89, Type (0, 0), BuildingBlock: AJUNOK_clean_linker_0, # of connection points: 2
#     Edge 90, Type (0, 0), BuildingBlock: AJUNOK_clean_linker_0, # of connection points: 2
#     Edge 91, Type (0, 0), BuildingBlock: AJUNOK_clean_linker_0, # of connection points: 2
#     Edge 92, Type (0, 0), BuildingBlock: AJUNOK_clean_linker_0, # of connection points: 2
#     Edge 93, Type (0, 0), BuildingBlock: AJUNOK_clean_linker_0, # of connection points: 2
#     Edge 94, Type (0, 0), BuildingBlock: AJUNOK_clean_linker_0, # of connection points: 2
#     Edge 95, Type (0, 0), BuildingBlock: AJUNOK_clean_linker_0, # of connection points: 2
# Relax obj value: 0.072
# Max RMSD: 0.151
# Mean RMSD: 0.151
data_MOF--net-uoa--node1-QUQFOY_clean_sbu_1--edge1-AJUNOK_clean_linker_0
_symmetry_space_group_name_H-M    P1
_symmetry_Int_Tables_number       1
_symmetry_cell_setting            triclinic
loop_
_symmetry_equiv_pos_as_xyz
'x, y, z'
_cell_length_a     57.765945
_cell_length_b     57.69982
_cell_length_c     21.100573
_cell_angle_alpha  89.977937
_cell_angle_beta   89.91648
_cell_angle_gamma 90.075701
loop_
_atom_site_label
_atom_site_type_symbol
_atom_site_fract_x
_atom_site_fract_y
_atom_site_fract_z
_atom_type_partial_charge
O0 O 0.05017 0.10621 0.21323 0.0
Cd1 Cd 0.06463 0.10021 0.12561 0.0
Cd2 Cd 0.02423 0.11583 0.09099 0.0
O3 O 0.02353 0.13077 0.18017 0.0
O4 O 0.09911 0.10275 0.13739 0.0
O5 O 0.07765 0.12955 0.0907 0.0
C6 C 0.09742 0.12332 0.11359 0.0
C7 C 1.02062 0.13338 0.99247 0.0
C8 C 0.03521 0.12179 0.22493 0.0
C9 C 0.03205 0.06663 0.06591 0.0
O10 O 1.01689 0.08119 0.08342 0.0
O11 O 0.05346 0.07181 0.07118 0.0
O12 O 1.00297 0.13101 0.02963 0.0
O13 O 0.04076 0.12814 0.0147 0.0
O14 O 0.18544 0.80158 0.46802 0.0
Cd15 Cd 0.19179 0.81593 0.38038 0.0
Cd16 Cd 0.17737 0.77481 0.34669 0.0
O17 O 0.1614 0.77449 0.43443 0.0
O18 O 0.18789 0.85038 0.39129 0.0
O19 O 0.16238 0.82767 0.34348 0.0
C20 C 0.16754 0.84769 0.36691 0.0
C21 C 0.16126 0.76991 0.24712 0.0
C22 C 0.16984 0.78654 0.47929 0.0
C23 C 0.22642 0.78387 0.32372 0.0
O24 O 0.21221 0.7685 0.34229 0.0
O25 O 0.22067 0.8052 0.32711 0.0
O26 O 0.16373 0.75252 0.28518 0.0
O27 O 0.16546 0.7904 0.26884 0.0
O28 O 0.49027 0.93319 0.7121 0.0
Cd29 Cd 0.4754 0.94224 0.62687 0.0
Cd30 Cd 0.51585 0.92672 0.58996 0.0
O31 O 0.51794 0.91038 0.67671 0.0
O32 O 0.44174 0.94277 0.64958 0.0
O33 O 0.45737 0.91665 0.58546 0.0
C34 C 0.43968 0.9239 0.61726 0.0
C35 C 0.51929 0.91023 0.49053 0.0
C36 C 0.50589 0.91816 0.72234 0.0
C37 C 0.50814 0.97674 0.57137 0.0
O38 O 0.52321 0.96151 0.58469 0.0
O39 O 0.48671 0.97193 0.57833 0.0
O40 O 0.53706 0.91264 0.52705 0.0
O41 O 0.49909 0.91475 0.51385 0.0
O42 O 0.35521 0.24037 0.96056 0.0
Cd43 Cd 0.34961 0.22535 0.87348 0.0
Cd44 Cd 0.36271 0.26682 0.83767 0.0
O45 O 0.37778 0.26864 0.92642 0.0
O46 O 0.35362 0.19105 0.88678 0.0
O47 O 0.37923 0.21342 0.83796 0.0
C48 C 0.37402 0.19356 0.86241 0.0
C49 C 0.38005 0.27091 0.73907 0.0
C50 C 0.36982 0.25638 0.97157 0.0
C51 C 0.31412 0.25581 0.81332 0.0
O52 O 0.32769 0.27202 0.83004 0.0
O53 O 0.32063 0.23479 0.81934 0.0
O54 O 0.37672 0.28863 0.77544 0.0
O55 O 0.37587 0.2506 0.76212 0.0
O56 O 0.05134 0.93923 0.30258 0.0
Cd57 Cd 0.06593 0.94417 0.39056 0.0
Cd58 Cd 0.02528 0.92894 0.424 0.0
O59 O 0.02509 0.91407 0.33485 0.0
O60 O 0.10033 0.93963 0.38006 0.0
O61 O 0.07691 0.914 0.42479 0.0
C62 C 0.09715 0.91903 0.40266 0.0
C63 C 1.0202 0.91168 0.52216 0.0
C64 C 0.03647 0.92359 0.29018 0.0
C65 C 0.03387 0.97778 0.45138 0.0
O66 O 1.01864 0.96369 0.43156 0.0
O67 O 0.05523 0.97227 0.44705 0.0
O68 O 1.00295 0.91437 0.4839 0.0
O69 O 0.0407 0.91628 0.50115 0.0
O70 O 0.35826 0.80386 0.55485 0.0
Cd71 Cd 0.34946 0.81877 0.64029 0.0
Cd72 Cd 0.36273 0.77707 0.67689 0.0
O73 O 0.37874 0.77428 0.5895 0.0
O74 O 0.34973 0.85249 0.61783 0.0
O75 O 0.37543 0.83626 0.68174 0.0
C76 C 0.36873 0.85411 0.64963 0.0
C77 C 0.37936 0.77265 0.7761 0.0
C78 C 0.37221 0.7873 0.54438 0.0
C79 C 0.31328 0.78745 0.69569 0.0
O80 O 0.32767 0.7715 0.68293 0.0
O81 O 0.3192 0.8086 0.68804 0.0
O82 O 0.37594 0.75509 0.73933 0.0
O83 O 0.3757 0.79312 0.7532 0.0
O84 O 0.48989 0.10288 0.79745 0.0
Cd85 Cd 0.47537 0.09716 0.8852 0.0
Cd86 Cd 0.51613 0.11186 0.91891 0.0
O87 O 0.51631 0.12761 0.83088 0.0
O88 O 0.44101 0.10168 0.87487 0.0
O89 O 0.46428 0.12695 0.92152 0.0
C90 C 0.44411 0.12208 0.8988 0.0
C91 C 0.52128 0.12827 0.01808 0.0
C92 C 0.5048 0.11858 0.78583 0.0
C93 C 0.50727 0.06274 0.94245 0.0
O94 O 0.52256 0.07699 0.92371 0.0
O95 O 0.48595 0.06843 0.93918 0.0
O96 O 0.53854 0.12574 0.97965 0.0
O97 O 0.50077 0.12392 0.99696 0.0
O98 O 0.18673 0.24071 0.049 0.0
Cd99 Cd 0.19203 0.22636 0.13726 0.0
Cd100 Cd 0.17679 0.26703 0.16983 0.0
O101 O 0.16191 0.26725 0.08093 0.0
O102 O 0.18907 0.19181 0.12664 0.0
O103 O 0.16236 0.2139 0.17157 0.0
C104 C 0.16845 0.19389 0.1498 0.0
C105 C 0.15958 0.27162 0.26802 0.0
C106 C 0.17123 0.25567 0.03645 0.0
C107 C 0.22554 0.25881 0.19727 0.0
O108 O 0.21146 0.27399 0.17734 0.0
O109 O 0.22008 0.23741 0.19311 0.0
O110 O 0.16213 0.28905 0.2301 0.0
O111 O 0.16425 0.25119 0.24658 0.0
O112 O 0.98903 0.93747 0.80121 0.0
Cd113 Cd 0.97439 0.94304 0.88887 0.0
Cd114 Cd 1.01587 0.93034 0.92296 0.0
O115 O 1.01699 0.91465 0.83492 0.0
O116 O 0.94015 0.93845 0.87722 0.0
O117 O 0.963 0.91341 0.92609 0.0
C118 C 0.94296 0.91822 0.90241 0.0
C119 C 0.0215 0.91375 0.02168 0.0
C120 C 1.00485 0.92272 0.7898 0.0
C121 C 1.00477 0.97903 0.94634 0.0
O122 O 1.02087 0.9655 0.92885 0.0
O123 O 0.98377 0.97232 0.94187 0.0
O124 O 0.03869 0.91724 0.98355 0.0
O125 O 1.00085 0.91724 1.0004 0.0
O126 O 0.86215 0.24311 0.56152 0.0
Cd127 Cd 0.85293 0.22767 0.64595 0.0
Cd128 Cd 0.86892 0.26793 0.6854 0.0
O129 O 0.8844 0.27118 0.59751 0.0
O130 O 0.85216 0.19414 0.62137 0.0
O131 O 0.87819 0.20908 0.68686 0.0
C132 C 0.87087 0.19168 0.65396 0.0
C133 C 0.88675 0.27071 0.78357 0.0
C134 C 0.87674 0.25921 0.5516 0.0
C135 C 0.81863 0.26007 0.70372 0.0
O136 O 0.8342 0.27517 0.69347 0.0
O137 O 0.82308 0.2387 0.69393 0.0
O138 O 0.88369 0.28873 0.74826 0.0
O139 O 0.88184 0.25065 0.75977 0.0
O140 O 0.55191 0.10334 0.29925 0.0
Cd141 Cd 0.56637 0.09889 0.3876 0.0
Cd142 Cd 0.52489 0.11183 0.42012 0.0
O143 O 0.52408 0.1267 0.33103 0.0
O144 O 0.60067 0.10345 0.37644 0.0
O145 O 0.57749 0.1291 0.42177 0.0
C146 C 0.59766 0.124 0.39937 0.0
C147 C 0.51947 0.12917 0.51786 0.0
C148 C 0.5362 0.11806 0.28659 0.0
C149 C 0.53584 0.06361 0.44826 0.0
O150 O 0.51979 0.07676 0.42853 0.0
O151 O 0.55683 0.07038 0.44382 0.0
O152 O 0.50222 0.12563 0.4801 0.0
O153 O 0.54007 0.12536 0.4965 0.0
O154 O 0.68791 0.80078 0.04163 0.0
Cd155 Cd 0.69321 0.81446 0.13055 0.0
Cd156 Cd 0.67921 0.77298 0.16071 0.0
O157 O 0.66379 0.7733 0.07237 0.0
O158 O 0.69 0.84903 0.12124 0.0
O159 O 0.66339 0.82645 0.16499 0.0
C160 C 0.66934 0.84661 0.14393 0.0
C161 C 0.66263 0.76873 0.25992 0.0
C162 C 0.6725 0.78575 0.02863 0.0
C163 C 0.72761 0.78217 0.18791 0.0
O164 O 0.71403 0.76676 0.16645 0.0
O165 O 0.7214 0.8034 0.18595 0.0
O166 O 0.66493 0.75114 0.22247 0.0
O167 O 0.66726 0.78906 0.23763 0.0
O168 O 0.99017 0.10996 0.71416 0.0
Cd169 Cd 0.97538 0.10123 0.62857 0.0
Cd170 Cd 1.01722 0.11439 0.59249 0.0
O171 O 1.01987 0.13042 0.67975 0.0
O172 O 0.94168 0.10141 0.65086 0.0
O173 O 0.95799 0.1273 0.58735 0.0
C174 C 0.94012 0.12051 0.61934 0.0
C175 C 0.02174 0.13117 0.49343 0.0
C176 C 1.00674 0.12392 0.72473 0.0
C177 C 1.00659 0.065 0.57317 0.0
O178 O 0.02262 0.07928 0.58637 0.0
O179 O 0.98551 0.07103 0.58059 0.0
O180 O 0.03925 0.12766 0.53017 0.0
O181 O 1.00127 0.1275 0.5163 0.0
O182 O 0.69044 0.23973 0.46496 0.0
Cd183 Cd 0.6948 0.22527 0.37663 0.0
Cd184 Cd 0.68206 0.2668 0.3438 0.0
O185 O 0.66719 0.26763 0.43315 0.0
O186 O 0.68972 0.19099 0.38751 0.0
O187 O 0.6645 0.21464 0.3423 0.0
C188 C 0.66925 0.19436 0.36467 0.0
C189 C 0.66472 0.27254 0.24601 0.0
C190 C 0.67576 0.25549 0.47761 0.0
C191 C 0.73036 0.25557 0.31661 0.0
O192 O 0.71713 0.27172 0.33552 0.0
O193 O 0.72355 0.23458 0.32117 0.0
O194 O 0.66838 0.28967 0.28414 0.0
O195 O 0.66847 0.25185 0.26696 0.0
O196 O 0.55016 0.93417 0.20989 0.0
Cd197 Cd 0.56495 0.93972 0.12225 0.0
Cd198 Cd 0.52357 0.92645 0.08797 0.0
O199 O 0.52171 0.9117 0.17705 0.0
O200 O 0.59934 0.93698 0.13511 0.0
O201 O 0.578 0.91042 0.08696 0.0
C202 C 0.59773 0.91657 0.11031 0.0
C203 C 0.51971 0.90866 0.99018 0.0
C204 C 0.53395 0.91986 0.22184 0.0
C205 C 0.53419 0.97509 0.06229 0.0
O206 O 0.51806 0.96144 0.07919 0.0
O207 O 0.55521 0.96866 0.06825 0.0
O208 O 0.50195 0.91202 0.02635 0.0
O209 O 0.53996 0.91304 0.01313 0.0
O210 O 0.85177 0.80208 0.96667 0.0
Cd211 Cd 0.84702 0.81609 0.87799 0.0
Cd212 Cd 0.86171 0.77514 0.84677 0.0
O213 O 0.87693 0.77569 0.93558 0.0
O214 O 0.8513 0.85053 0.88758 0.0
O215 O 0.87731 0.8271 0.8446 0.0
C216 C 0.87205 0.84736 0.8662 0.0
C217 C 0.87838 0.76985 0.74778 0.0
C218 C 0.86763 0.78756 0.97957 0.0
C219 C 0.81322 0.78383 0.81906 0.0
O220 O 0.82693 0.76862 0.84075 0.0
O221 O 0.81913 0.80515 0.82139 0.0
O222 O 0.87599 0.75271 0.78671 0.0
O223 O 0.87388 0.79042 0.76853 0.0
O224 O 0.55 0.60484 0.71188 0.0
Cd225 Cd 0.56404 0.59983 0.62316 0.0
Cd226 Cd 0.52345 0.61528 0.59152 0.0
O227 O 0.52355 0.62989 0.68098 0.0
O228 O 0.59856 0.60258 0.6332 0.0
O229 O 0.57656 0.6296 0.58945 0.0
C230 C 0.59656 0.62331 0.61063 0.0
C231 C 0.51879 0.63303 0.4939 0.0
C232 C 0.53518 0.62041 0.72506 0.0
C233 C 0.53148 0.56648 0.56281 0.0
O234 O 0.51633 0.58061 0.58288 0.0
O235 O 0.55286 0.57189 0.567 0.0
O236 O 0.50148 0.63043 0.53212 0.0
O237 O 0.5392 0.62808 0.51484 0.0
O238 O 0.68913 0.30305 0.96603 0.0
Cd239 Cd 0.69433 0.3173 0.87778 0.0
Cd240 Cd 0.68214 0.27536 0.84543 0.0
O241 O 0.66656 0.27455 0.93379 0.0
O242 O 0.6894 0.35159 0.88853 0.0
O243 O 0.66432 0.32805 0.84204 0.0
C244 C 0.66902 0.34826 0.86496 0.0
C245 C 0.66568 0.27005 0.74646 0.0
C246 C 0.67441 0.28724 0.97813 0.0
C247 C 0.73046 0.28697 0.82036 0.0
O248 O 0.71728 0.27076 0.83934 0.0
O249 O 0.72345 0.30791 0.8239 0.0
O250 O 0.66899 0.25271 0.78418 0.0
O251 O 0.66926 0.29065 0.76832 0.0
O252 O 0.99115 0.43182 0.21198 0.0
Cd253 Cd 0.97615 0.44114 0.12711 0.0
Cd254 Cd 1.01786 0.42784 0.08943 0.0
O255 O 1.02085 0.41169 0.17646 0.0
O256 O 0.94256 0.44118 0.15053 0.0
O257 O 0.95821 0.41552 0.08527 0.0
C258 C 0.94058 0.42231 0.11815 0.0
C259 C 0.02246 0.41119 0.99022 0.0
C260 C 1.00782 0.41794 0.22186 0.0
C261 C 1.00745 0.47747 0.07194 0.0
O262 O 0.0234 0.46296 0.08364 0.0
O263 O 0.98634 0.47159 0.08022 0.0
O264 O 0.03993 0.41477 0.02704 0.0
O265 O 1.00197 0.41473 0.01304 0.0
O266 O 0.85359 0.7399 0.46602 0.0
Cd267 Cd 0.84933 0.72595 0.37701 0.0
Cd268 Cd 0.86102 0.76813 0.34669 0.0
O269 O 0.87617 0.76866 0.43553 0.0
O270 O 0.85423 0.69166 0.3872 0.0
O271 O 0.87971 0.71538 0.34288 0.0
C272 C 0.87481 0.69506 0.36487 0.0
C273 C 0.87778 0.77419 0.24821 0.0
C274 C 0.86813 0.75575 0.47921 0.0
C275 C 0.81334 0.75603 0.31813 0.0
O276 O 0.82586 0.77232 0.33957 0.0
O277 O 0.82079 0.73523 0.32092 0.0
O278 O 0.87413 0.79124 0.28664 0.0
O279 O 0.87446 0.75342 0.26927 0.0
O280 O 0.55047 0.43771 0.80272 0.0
Cd281 Cd 0.56552 0.44266 0.89003 0.0
Cd282 Cd 0.52435 0.42935 0.92571 0.0
O283 O 0.52243 0.41479 0.83617 0.0
O284 O 0.59977 0.43846 0.87693 0.0
O285 O 0.57723 0.41282 0.92496 0.0
C286 C 0.59716 0.41802 0.90105 0.0
C287 C 0.51958 0.4114 0.02337 0.0
C288 C 0.53439 0.42325 0.79105 0.0
C289 C 0.53528 0.47799 0.95137 0.0
O290 O 0.5191 0.46437 0.9348 0.0
O291 O 0.55628 0.47155 0.94484 0.0
O292 O 0.50214 0.41513 0.98648 0.0
O293 O 0.54004 0.41557 1.00134 0.0
O294 O 0.86313 0.30007 0.05966 0.0
Cd295 Cd 0.85303 0.31542 0.14336 0.0
Cd296 Cd 0.8688 0.27518 0.18383 0.0
O297 O 0.88506 0.272 0.09704 0.0
O298 O 0.8523 0.34888 0.11823 0.0
O299 O 0.87784 0.33424 0.1856 0.0
C300 C 0.87076 0.35152 0.15186 0.0
C301 C 0.88571 0.27293 0.28322 0.0
C302 C 0.87792 0.28413 0.05082 0.0
C303 C 0.81843 0.28278 0.1995 0.0
O304 O 0.83406 0.26774 0.18988 0.0
O305 O 0.82291 0.30418 0.18991 0.0
O306 O 0.88318 0.25475 0.2482 0.0
O307 O 0.8809 0.29285 0.2585 0.0
O308 O 0.99171 0.60577 0.29914 0.0
Cd309 Cd 0.97743 0.59992 0.38704 0.0
Cd310 Cd 1.01936 0.61195 0.41994 0.0
O311 O 1.02038 0.62794 0.3322 0.0
O312 O 0.94317 0.60431 0.37556 0.0
O313 O 0.96597 0.62951 0.42421 0.0
C314 C 0.94597 0.62459 0.40044 0.0
C315 C 0.02457 0.62818 0.51925 0.0
C316 C 1.00762 0.62044 0.28761 0.0
C317 C 1.00768 0.56344 0.4431 0.0
O318 O 0.02393 0.57674 0.42503 0.0
O319 O 0.98678 0.57046 0.43947 0.0
O320 O 0.04193 0.62485 0.48164 0.0
O321 O 1.00401 0.62473 0.49719 0.0
O322 O 0.68757 0.73969 0.54212 0.0
Cd323 Cd 0.69219 0.72566 0.63096 0.0
Cd324 Cd 0.67957 0.76739 0.66194 0.0
O325 O 0.66457 0.76795 0.57304 0.0
O326 O 0.68863 0.69122 0.62055 0.0
O327 O 0.66226 0.71374 0.66538 0.0
C328 C 0.66807 0.6936 0.64382 0.0
C329 C 0.66245 0.77276 0.7601 0.0
C330 C 0.67299 0.75548 0.52901 0.0
C331 C 0.7276 0.75649 0.68996 0.0
O332 O 0.71459 0.77257 0.66961 0.0
O333 O 0.72067 0.73552 0.68646 0.0
O334 O 0.6658 0.79 0.72207 0.0
O335 O 0.66628 0.75213 0.73875 0.0
O336 O 0.48799 0.43398 0.30122 0.0
Cd337 Cd 0.47309 0.44276 0.38675 0.0
Cd338 Cd 0.51482 0.42991 0.42271 0.0
O339 O 0.51761 0.41362 0.33588 0.0
O340 O 0.43943 0.4424 0.36458 0.0
O341 O 0.45573 0.41672 0.42852 0.0
C342 C 0.43787 0.42339 0.39654 0.0
C343 C 0.51911 0.41371 0.52238 0.0
C344 C 0.50456 0.42004 0.29079 0.0
C345 C 0.50413 0.47926 0.44122 0.0
O346 O 0.52018 0.46506 0.42779 0.0
O347 O 0.48306 0.47309 0.43434 0.0
O348 O 0.53672 0.417 0.48562 0.0
O349 O 0.4987 0.41716 0.49918 0.0
O350 O 0.35498 0.74203 0.05529 0.0
Cd351 Cd 0.3495 0.727 0.14243 0.0
Cd352 Cd 0.36273 0.76837 0.17859 0.0
O353 O 0.3776 0.77024 0.08928 0.0
O354 O 0.35376 0.69273 0.12917 0.0
O355 O 0.37919 0.7153 0.17777 0.0
C356 C 0.37414 0.6954 0.15336 0.0
C357 C 0.38047 0.77276 0.27662 0.0
C358 C 0.36958 0.75804 0.04415 0.0
C359 C 0.31408 0.75736 0.20344 0.0
O360 O 0.32772 0.77359 0.1872 0.0
O361 O 0.32052 0.73634 0.19676 0.0
O362 O 0.3769 0.79034 0.24 0.0
O363 O 0.37621 0.75237 0.25421 0.0
O364 O 0.05316 0.60298 0.80173 0.0
Cd365 Cd 0.06739 0.5983 0.89025 0.0
Cd366 Cd 0.02683 0.61364 0.92238 0.0
O367 O 0.0268 0.62815 0.8327 0.0
O368 O 0.10189 0.60162 0.87978 0.0
O369 O 0.07944 0.62838 0.92312 0.0
C370 C 0.09954 0.6224 0.90179 0.0
C371 C 0.022 0.63126 0.02013 0.0
C372 C 0.03832 0.61853 0.78854 0.0
C373 C 0.035 0.56492 0.95144 0.0
O374 O 1.01983 0.57896 0.93114 0.0
O375 O 0.05638 0.57039 0.94708 0.0
O376 O 1.00475 0.62864 0.98188 0.0
O377 O 0.04245 0.62643 0.99914 0.0
O378 O 0.18656 0.30077 0.54742 0.0
Cd379 Cd 0.19266 0.31511 0.63524 0.0
Cd380 Cd 0.17774 0.27437 0.66878 0.0
O381 O 0.16207 0.2741 0.58088 0.0
O382 O 0.18996 0.34963 0.62406 0.0
O383 O 0.16341 0.32788 0.67124 0.0
C384 C 0.16951 0.34777 0.6485 0.0
C385 C 0.1611 0.2698 0.76781 0.0
C386 C 0.17096 0.28576 0.53586 0.0
C387 C 0.22679 0.28274 0.69261 0.0
O388 O 0.21248 0.26749 0.67408 0.0
O389 O 0.22124 0.30411 0.68896 0.0
O390 O 0.1635 0.25235 0.72995 0.0
O391 O 0.1657 0.29022 0.74609 0.0
O392 O 0.49066 0.60651 0.2153 0.0
Cd393 Cd 0.4764 0.60022 0.12775 0.0
Cd394 Cd 0.51743 0.6148 0.09397 0.0
O395 O 0.51745 0.63087 0.18154 0.0
O396 O 0.44201 0.6042 0.13874 0.0
O397 O 0.4648 0.62973 0.09103 0.0
C398 C 0.44478 0.62462 0.11455 0.0
C399 C 0.52202 0.63094 0.99423 0.0
C400 C 0.50548 0.62231 0.22645 0.0
C401 C 0.50854 0.56567 0.0713 0.0
O402 O 0.52384 0.57992 0.08987 0.0
O403 O 0.48722 0.57139 0.07451 0.0
O404 O 0.53948 0.62862 0.03196 0.0
O405 O 0.50164 0.62652 0.0163 0.0
O406 O 0.1875 0.74106 0.96542 0.0
Cd407 Cd 0.19279 0.72683 0.87701 0.0
Cd408 Cd 0.17713 0.76732 0.84439 0.0
O409 O 0.16247 0.76743 0.93384 0.0
O410 O 0.1902 0.69228 0.88792 0.0
O411 O 0.16321 0.71401 0.8431 0.0
C412 C 0.16954 0.69408 0.865 0.0
C413 C 0.15946 0.77224 0.74681 0.0
C414 C 0.17192 0.75592 0.97821 0.0
C415 C 0.22603 0.75951 0.81635 0.0
O416 O 0.21173 0.7746 0.83579 0.0
O417 O 0.2208 0.73806 0.82105 0.0
O418 O 0.16211 0.78947 0.78522 0.0
O419 O 0.16431 0.75174 0.76752 0.0
O420 O 0.0516 0.43593 0.71025 0.0
Cd421 Cd 0.06627 0.4418 0.62279 0.0
Cd422 Cd 0.02585 0.42634 0.58756 0.0
O423 O 0.02483 0.41151 0.67691 0.0
O424 O 0.10072 0.43913 0.63512 0.0
O425 O 0.07917 0.41237 0.58834 0.0
C426 C 0.09893 0.41854 0.61147 0.0
C427 C 0.02225 0.40864 0.48923 0.0
C428 C 0.03647 0.42045 0.72181 0.0
C429 C 0.03407 0.47554 0.56243 0.0
O430 O 1.01877 0.46102 0.57954 0.0
O431 O 0.05544 0.47026 0.56812 0.0
O432 O 1.00457 0.41116 0.52617 0.0
O433 O 0.0424 0.41385 0.51155 0.0
O434 O 0.35688 0.30218 0.46043 0.0
Cd435 Cd 0.34854 0.31737 0.37512 0.0
Cd436 Cd 0.36209 0.27595 0.33796 0.0
O437 O 0.37787 0.27304 0.42546 0.0
O438 O 0.34887 0.351 0.39824 0.0
O439 O 0.37455 0.33486 0.33374 0.0
C440 C 0.36772 0.35269 0.3657 0.0
C441 C 0.37911 0.27135 0.23926 0.0
C442 C 0.37087 0.28565 0.47093 0.0
C443 C 0.3126 0.28631 0.31872 0.0
O444 O 0.32702 0.27034 0.33119 0.0
O445 O 0.31844 0.30743 0.32695 0.0
O446 O 0.37546 0.25385 0.27613 0.0
O447 O 0.37542 0.29185 0.26181 0.0
C448 C 0.03303 0.13222 0.8162 0.0
C449 C 1.01064 0.1318 0.79043 0.0
C450 C 0.03637 0.13489 0.88175 0.0
C451 C 1.01742 0.13745 0.92349 0.0
H452 H 0.04792 0.12883 0.78633 0.0
H453 H 0.0538 0.13339 0.90009 0.0
S454 S 0.95573 0.14272 0.87642 0.0
N455 N 0.96962 0.13777 0.80937 0.0
N456 N 0.97578 0.14327 0.93204 0.0
C457 C 0.99516 0.13949 0.89696 0.0
C458 C 0.9918 0.13647 0.83055 0.0
C459 C 0.16722 0.74089 0.088 0.0
C460 C 0.1651 0.75942 0.04515 0.0
C461 C 0.16375 0.74405 0.15304 0.0
C462 C 0.15845 0.76602 0.17809 0.0
H463 H 0.17231 0.72387 0.07139 0.0
H464 H 0.16674 0.72942 0.18411 0.0
S465 S 0.14817 0.81965 0.08507 0.0
N466 N 0.15496 0.79998 0.03132 0.0
N467 N 0.14893 0.80615 0.15408 0.0
C468 C 0.15478 0.7844 0.13533 0.0
C469 C 0.15798 0.78106 0.06873 0.0
C470 C 0.54846 0.91289 0.33092 0.0
C471 C 0.52976 0.91303 0.28842 0.0
C472 C 0.54501 0.90971 0.39591 0.0
C473 C 0.52263 0.90699 0.42136 0.0
H474 H 0.56592 0.91604 0.31409 0.0
H475 H 0.55996 0.91091 0.42666 0.0
S476 S 0.46809 0.90299 0.32902 0.0
N477 N 0.48833 0.90757 0.27505 0.0
N478 N 0.48165 0.90209 0.39784 0.0
C479 C 0.50389 0.90544 0.37884 0.0
C480 C 0.5075 0.90835 0.31221 0.0
C481 C 0.37902 0.30016 0.57948 0.0
C482 C 0.37829 0.2814 0.53701 0.0
C483 C 0.38197 0.29668 0.64455 0.0
C484 C 0.38392 0.27423 0.67006 0.0
H485 H 0.37633 0.31769 0.56263 0.0
H486 H 0.38111 0.31168 0.67529 0.0
S487 S 0.38665 0.21948 0.57773 0.0
N488 N 0.38267 0.23981 0.52372 0.0
N489 N 0.38787 0.23309 0.64652 0.0
C490 C 0.38516 0.25542 0.6275 0.0
C491 C 0.38241 0.25905 0.56083 0.0
C492 C 0.99034 0.91638 0.68026 0.0
C493 C 1.00881 0.91539 0.72348 0.0
C494 C 0.99386 0.91277 0.61543 0.0
C495 C 1.01611 0.90845 0.59098 0.0
H496 H 0.97307 0.9208 0.69632 0.0
H497 H 0.97923 0.91501 0.58399 0.0
S498 S 0.06975 0.90076 0.68542 0.0
N499 N 0.04966 0.90698 0.73851 0.0
N500 N 0.05648 0.90063 0.61615 0.0
C501 C 0.03446 0.90565 0.63425 0.0
C502 C 0.03077 0.90903 0.70064 0.0
C503 C 0.38066 0.78803 0.88726 0.0
C504 C 0.38297 0.76916 0.84519 0.0
C505 C 0.37785 0.78452 0.95275 0.0
C506 C 0.377 0.76203 0.97809 0.0
H507 H 0.37954 0.80557 0.86922 0.0
H508 H 0.3748 0.79938 0.983 0.0
S509 S 0.38697 0.70712 0.89121 0.0
N510 N 0.38797 0.72736 0.83595 0.0
N511 N 0.38215 0.72092 0.95844 0.0
C512 C 0.38127 0.74321 0.93763 0.0
C513 C 0.38446 0.74674 0.87132 0.0
C514 C 0.54743 0.12646 0.1115 0.0
C515 C 0.52533 0.13129 0.08696 0.0
C516 C 0.55083 0.12308 0.17646 0.0
C517 C 0.53238 0.1248 0.21973 0.0
H518 H 0.56203 0.12375 0.08009 0.0
H519 H 0.56799 0.11836 0.19264 0.0
S520 S 0.47181 0.14063 0.18117 0.0
N521 N 0.48513 0.14012 0.11188 0.0
N522 N 0.49171 0.1342 0.23446 0.0
C523 C 0.51057 0.1315 0.19664 0.0
C524 C 0.50701 0.13465 0.13013 0.0
C525 C 0.16495 0.30082 0.42674 0.0
C526 C 0.16357 0.28219 0.46952 0.0
C527 C 0.16125 0.2976 0.36187 0.0
C528 C 0.15647 0.27549 0.33695 0.0
H529 H 0.16974 0.31796 0.44321 0.0
H530 H 0.16378 0.31232 0.33075 0.0
S531 S 0.14783 0.22157 0.43018 0.0
N532 N 0.15441 0.24139 0.48371 0.0
N533 N 0.14794 0.23511 0.3612 0.0
C534 C 0.15335 0.257 0.37979 0.0
C535 C 0.15679 0.2604 0.44624 0.0
C536 C 0.0511 0.9191 0.17999 0.0
C537 C 0.03274 0.91682 0.22334 0.0
C538 C 0.0477 0.91584 0.115 0.0
C539 C 0.02566 0.9106 0.0905 0.0
H540 H 0.06817 0.92419 0.19616 0.0
H541 H 0.06221 0.91898 0.08357 0.0
S542 S 0.97246 0.89973 0.18502 0.0
N543 N 0.99231 0.90643 0.23827 0.0
N544 N 0.98568 0.90078 0.1156 0.0
C545 C 1.00747 0.90667 0.13377 0.0
C546 C 1.01106 0.90967 0.20033 0.0
C547 C 0.88568 0.25763 0.95941 0.0
C548 C 0.88618 0.27997 0.98568 0.0
C549 C 0.88812 0.2544 0.8937 0.0
C550 C 0.89129 0.27342 0.85246 0.0
H551 H 0.88165 0.24281 0.98898 0.0
H552 H 0.88582 0.23709 0.87487 0.0
S553 S 0.89902 0.33482 0.90118 0.0
N554 N 0.89364 0.32085 0.96789 0.0
N555 N 0.89877 0.31491 0.84499 0.0
C556 C 0.89431 0.29552 0.87957 0.0
C557 C 0.89154 0.29877 0.94608 0.0
C558 C 0.48995 0.12423 0.67643 0.0
C559 C 0.50845 0.1259 0.7194 0.0
C560 C 0.4933 0.12771 0.61148 0.0
C561 C 0.51541 0.13254 0.58666 0.0
H562 H 0.47283 0.11937 0.69283 0.0
H563 H 0.47868 0.12496 0.58028 0.0
S564 S 0.56896 0.14202 0.68035 0.0
N565 N 0.54908 0.13547 0.73382 0.0
N566 N 0.5556 0.14155 0.6112 0.0
C567 C 0.53373 0.13601 0.62965 0.0
C568 C 0.53021 0.13279 0.69618 0.0
C569 C 0.66741 0.74015 0.41989 0.0
C570 C 0.66616 0.75896 0.4621 0.0
C571 C 0.66399 0.74316 0.3548 0.0
C572 C 0.65958 0.76521 0.32905 0.0
H573 H 0.67182 0.723 0.43699 0.0
H574 H 0.66635 0.72827 0.32421 0.0
S575 S 0.65156 0.81963 0.42033 0.0
N576 N 0.65765 0.79995 0.47465 0.0
N577 N 0.65166 0.8058 0.35181 0.0
C578 C 0.65668 0.78392 0.37123 0.0
C579 C 0.65986 0.78075 0.43788 0.0
C580 C 1.0062 0.13363 0.38265 0.0
C581 C 0.02524 0.13488 0.42436 0.0
C582 C 1.00942 0.13096 0.31702 0.0
C583 C 0.03176 0.12916 0.29119 0.0
H584 H 0.98869 0.13327 0.40103 0.0
H585 H 0.99438 0.12874 0.28701 0.0
S586 S 0.08725 0.13602 0.37711 0.0
N587 N 0.06723 0.13781 0.43281 0.0
N588 N 0.07308 0.13218 0.31006 0.0
C589 C 0.05084 0.13233 0.33133 0.0
C590 C 0.04763 0.13541 0.39779 0.0
C591 C 0.6617 0.25775 0.13471 0.0
C592 C 0.66095 0.2766 0.17727 0.0
C593 C 0.66455 0.26125 0.06928 0.0
C594 C 0.66699 0.2837 0.04441 0.0
H595 H 0.66155 0.24011 0.15225 0.0
H596 H 0.66637 0.24629 0.03869 0.0
S597 S 0.66131 0.33891 0.13283 0.0
N598 N 0.65906 0.31861 0.18767 0.0
N599 N 0.66485 0.32503 0.06514 0.0
C600 C 0.6642 0.30266 0.0854 0.0
C601 C 0.661 0.29916 0.15174 0.0
C602 C 0.49091 0.91003 0.83039 0.0
C603 C 0.50977 0.91044 0.78825 0.0
C604 C 0.49417 0.90697 0.89548 0.0
C605 C 0.5165 0.90463 0.92129 0.0
H606 H 0.4735 0.91312 0.81326 0.0
H607 H 0.47912 0.90812 0.92602 0.0
S608 S 0.57134 0.90089 0.82972 0.0
N609 N 0.55124 0.90526 0.77543 0.0
N610 N 0.55757 0.8999 0.89834 0.0
C611 C 0.53536 0.90302 0.87901 0.0
C612 C 0.53195 0.90585 0.81231 0.0
C613 C 0.88122 0.78469 0.63638 0.0
C614 C 0.88162 0.76578 0.67879 0.0
C615 C 0.87822 0.78135 0.57097 0.0
C616 C 0.87523 0.75901 0.54588 0.0
H617 H 0.88189 0.8023 0.65407 0.0
H618 H 0.87683 0.79641 0.54051 0.0
S619 S 0.87935 0.70354 0.63394 0.0
N620 N 0.88223 0.72371 0.68885 0.0
N621 N 0.87619 0.71761 0.56639 0.0
C622 C 0.87748 0.73993 0.58676 0.0
C623 C 0.88085 0.74326 0.65309 0.0
C624 C 0.53089 0.63314 0.31765 0.0
C625 C 0.50862 0.63024 0.29229 0.0
C626 C 0.53404 0.63623 0.38308 0.0
C627 C 0.51501 0.63681 0.42507 0.0
H628 H 0.54599 0.63141 0.28751 0.0
H629 H 0.55158 0.63668 0.40115 0.0
S630 S 0.45298 0.6352 0.37887 0.0
N631 N 0.46722 0.63171 0.31169 0.0
N632 N 0.47296 0.63802 0.43421 0.0
C633 C 0.49259 0.63637 0.3989 0.0
C634 C 0.48945 0.63287 0.33259 0.0
C635 C 0.67054 0.2407 0.5875 0.0
C636 C 0.66898 0.25926 0.54451 0.0
C637 C 0.66722 0.24402 0.65252 0.0
C638 C 0.66259 0.26615 0.67748 0.0
H639 H 0.67511 0.22351 0.57103 0.0
H640 H 0.6698 0.22932 0.68366 0.0
S641 S 0.65363 0.31995 0.58403 0.0
N642 N 0.65989 0.30006 0.53042 0.0
N643 N 0.65406 0.3065 0.65313 0.0
C644 C 0.65934 0.28458 0.63455 0.0
C645 C 0.66244 0.2811 0.56795 0.0
C646 C 1.01043 0.41151 0.81362 0.0
C647 C 0.03283 0.41314 0.78807 0.0
C648 C 1.00707 0.40887 0.87923 0.0
C649 C 0.02603 0.40748 0.92118 0.0
H650 H 0.99546 0.41383 0.78341 0.0
H651 H 0.98953 0.40936 0.89739 0.0
S652 S 0.0881 0.40586 0.87471 0.0
N653 N 0.07408 0.40981 0.80747 0.0
N654 N 0.06797 0.40424 0.93017 0.0
C655 C 0.04846 0.40678 0.89489 0.0
C656 C 0.05181 0.40983 0.82847 0.0
C657 C 0.88178 0.7594 0.13704 0.0
C658 C 0.88113 0.77835 0.17928 0.0
C659 C 0.87885 0.76254 0.07151 0.0
C660 C 0.87486 0.78469 0.0462 0.0
H661 H 0.88321 0.74186 0.15491 0.0
H662 H 0.87823 0.74742 0.04113 0.0
S663 S 0.87607 0.84036 0.13376 0.0
N664 N 0.87975 0.82042 0.18894 0.0
N665 N 0.87378 0.8261 0.06628 0.0
C666 C 0.87608 0.80389 0.08692 0.0
C667 C 0.87941 0.80079 0.15334 0.0
C668 C 0.53479 0.40918 0.13441 0.0
C669 C 0.51601 0.40702 0.09209 0.0
C670 C 0.53118 0.41165 0.19993 0.0
C671 C 0.50867 0.41224 0.22509 0.0
H672 H 0.55233 0.41057 0.11659 0.0
H673 H 0.54597 0.41478 0.23029 0.0
S674 S 0.45404 0.40216 0.13727 0.0
N675 N 0.47436 0.40163 0.08219 0.0
N676 N 0.46766 0.40673 0.20484 0.0
C677 C 0.48996 0.4079 0.18433 0.0
C678 C 0.49361 0.40511 0.11793 0.0
C679 C 0.88888 0.24793 0.37888 0.0
C680 C 0.88959 0.27032 0.35242 0.0
C681 C 0.88603 0.24462 0.44405 0.0
C682 C 0.88427 0.26353 0.48569 0.0
H683 H 0.8889 0.23272 0.34881 0.0
H684 H 0.88421 0.22706 0.46166 0.0
S685 S 0.88913 0.32561 0.44257 0.0
N686 N 0.89116 0.31175 0.37429 0.0
N687 N 0.88629 0.30536 0.49742 0.0
C688 C 0.88717 0.28596 0.46103 0.0
C689 C 0.88974 0.2894 0.3942 0.0
C690 C 0.0534 0.62274 0.67867 0.0
C691 C 0.03487 0.62511 0.72143 0.0
C692 C 0.05029 0.62594 0.61354 0.0
C693 C 0.02839 0.63122 0.58826 0.0
H694 H 0.07038 0.61765 0.69545 0.0
H695 H 0.06493 0.62277 0.58262 0.0
S696 S 0.97482 0.64218 0.68093 0.0
N697 N 0.9944 0.63552 0.7349 0.0
N698 N 0.98834 0.64106 0.61196 0.0
C699 C 1.01002 0.63518 0.6309 0.0
C700 C 1.01331 0.63223 0.69761 0.0
C701 C 0.66178 0.76066 0.93648 0.0
C702 C 0.6652 0.78285 0.96209 0.0
C703 C 0.65884 0.75759 0.87096 0.0
C704 C 0.65892 0.77665 0.82904 0.0
H705 H 0.66287 0.74549 0.9666 0.0
H706 H 0.65789 0.74005 0.85282 0.0
S707 S 0.66226 0.83868 0.87549 0.0
N708 N 0.66507 0.82433 0.94271 0.0
N709 N 0.65906 0.81876 0.82003 0.0
C710 C 0.66002 0.79907 0.85531 0.0
C711 C 0.66336 0.80211 0.92173 0.0
C712 C 0.54866 0.41677 0.68135 0.0
C713 C 0.53009 0.41653 0.72443 0.0
C714 C 0.54507 0.41364 0.61641 0.0
C715 C 0.52267 0.41058 0.59155 0.0
H716 H 0.56612 0.42016 0.6977 0.0
H717 H 0.55993 0.4151 0.58527 0.0
S718 S 0.46847 0.40561 0.68549 0.0
N719 N 0.48879 0.41041 0.73892 0.0
N720 N 0.48185 0.40502 0.61626 0.0
C721 C 0.50409 0.40868 0.63462 0.0
C722 C 0.50784 0.41154 0.7012 0.0
C723 C 0.38243 0.75722 0.38748 0.0
C724 C 0.38488 0.77609 0.34539 0.0
C725 C 0.38009 0.76072 0.4531 0.0
C726 C 0.37992 0.78319 0.47858 0.0
H727 H 0.38072 0.73973 0.36944 0.0
H728 H 0.37673 0.7459 0.4833 0.0
S729 S 0.39084 0.83792 0.39136 0.0
N730 N 0.39096 0.81772 0.33599 0.0
N731 N 0.38609 0.8242 0.4588 0.0
C732 C 0.38452 0.80195 0.438 0.0
C733 C 0.38719 0.79842 0.37151 0.0
C734 C 0.03699 0.63372 0.13125 0.0
C735 C 1.01811 0.63491 0.08901 0.0
C736 C 0.03356 0.63056 0.1966 0.0
C737 C 1.01116 0.62823 0.22167 0.0
H738 H 0.05459 0.63373 0.11344 0.0
H739 H 0.04853 0.62839 0.22689 0.0
S740 S 0.95593 0.63496 0.13432 0.0
N741 N 0.97615 0.6373 0.07931 0.0
N742 N 0.96987 0.63093 0.20165 0.0
C743 C 0.99218 0.63147 0.1811 0.0
C744 C 0.99562 0.635 0.11487 0.0
C745 C 0.16278 0.24389 0.8619 0.0
C746 C 0.158 0.26597 0.83678 0.0
C747 C 0.16613 0.24067 0.92692 0.0
C748 C 0.16439 0.25926 0.96966 0.0
H749 H 0.1655 0.22918 0.83089 0.0
H750 H 0.17087 0.22355 0.9436 0.0
S751 S 0.14873 0.31982 0.92963 0.0
N752 N 0.14926 0.30629 0.86065 0.0
N753 N 0.15507 0.30002 0.98342 0.0
C754 C 0.15772 0.28103 0.94607 0.0
C755 C 0.15464 0.28443 0.87947 0.0
C756 C 0.55053 0.62505 0.83439 0.0
C757 C 0.53189 0.62721 0.79206 0.0
C758 C 0.54758 0.6285 0.8995 0.0
C759 C 0.52572 0.63382 0.92513 0.0
H760 H 0.56748 0.61994 0.81732 0.0
H761 H 0.56228 0.62546 0.93019 0.0
S762 S 0.47188 0.64426 0.8336 0.0
N763 N 0.49135 0.63745 0.77932 0.0
N764 N 0.48558 0.64345 0.90224 0.0
C765 C 0.50723 0.63755 0.88289 0.0
C766 C 0.51036 0.63437 0.81621 0.0
C767 C 0.15938 0.76073 0.57024 0.0
C768 C 0.16208 0.78312 0.54527 0.0
C769 C 0.15638 0.75732 0.63565 0.0
C770 C 0.1557 0.77622 0.67804 0.0
H771 H 0.16117 0.74572 0.53978 0.0
H772 H 0.15607 0.7397 0.65337 0.0
S773 S 0.15684 0.83849 0.63306 0.0
N774 N 0.16037 0.82449 0.56555 0.0
N775 N 0.15421 0.81828 0.68802 0.0
C776 C 0.15598 0.79876 0.6523 0.0
C777 C 0.15938 0.80216 0.58601 0.0
C778 C 0.03443 0.41012 0.31288 0.0
C779 C 1.01201 0.40996 0.28732 0.0
C780 C 0.03791 0.4075 0.3784 0.0
C781 C 1.01908 0.40443 0.4203 0.0
H782 H 0.04919 0.41395 0.28288 0.0
H783 H 0.05533 0.40949 0.39658 0.0
S784 S 0.9575 0.39742 0.37378 0.0
N785 N 0.97117 0.40283 0.30661 0.0
N786 N 0.97763 0.39741 0.42922 0.0
C787 C 0.99686 0.40178 0.39397 0.0
C788 C 0.99333 0.40474 0.32759 0.0
C789 C 0.38081 0.28657 0.128 0.0
C790 C 0.38295 0.26775 0.17032 0.0
C791 C 0.3781 0.28296 0.06256 0.0
C792 C 0.3772 0.26043 0.03755 0.0
H793 H 0.37971 0.30414 0.14578 0.0
H794 H 0.37515 0.29778 0.0321 0.0
S795 S 0.38684 0.20562 0.12519 0.0
N796 N 0.38782 0.22595 0.18018 0.0
N797 N 0.38218 0.21933 0.05775 0.0
C798 C 0.38134 0.24165 0.07825 0.0
C799 C 0.38443 0.24528 0.14452 0.0
C800 C 0.0411 0.02822 0.01516 0.0
C801 C 0.02454 0.0443 0.03642 0.0
C802 C 0.03449 1.00747 0.98547 0.0
C803 C 1.01099 1.00177 0.97557 0.0
H804 H 0.0594 0.03165 0.02131 0.0
H805 H 0.04805 0.99573 0.97055 0.0
S806 S 0.96062 0.03801 0.02139 0.0
N807 N 0.98336 0.05309 0.04472 0.0
N808 N 0.9711 1.01418 0.98913 0.0
C809 C 0.99421 1.01771 0.99635 0.0
C810 C 1.00093 0.03889 0.02666 0.0
C811 C 0.26464 0.79332 0.27229 0.0
C812 C 0.24887 0.7766 0.2946 0.0
C813 C 0.2854 0.78688 0.24243 0.0
C814 C 0.29141 0.76339 0.2333 0.0
H815 H 0.26093 0.81161 0.27765 0.0
H816 H 0.29688 0.80056 0.22655 0.0
S817 S 0.25613 0.71263 0.28248 0.0
N818 N 0.24078 0.73527 0.3051 0.0
N819 N 0.27967 0.72333 0.24911 0.0
C820 C 0.2758 0.74646 0.25528 0.0
C821 C 0.25464 0.753 0.28584 0.0
C822 C 0.50602 0.03514 0.4869 0.0
C823 C 0.52955 0.04126 0.47971 0.0
C824 C 0.49927 1.01465 0.51781 0.0
C825 C 0.51572 0.99924 0.54295 0.0
H826 H 0.49252 0.04627 0.46852 0.0
H827 H 0.48096 1.01076 0.52117 0.0
S828 S 0.57965 1.00727 0.53849 0.0
N829 N 0.56935 0.03027 0.50162 0.0
N830 N 0.55682 0.99186 0.55954 0.0
C831 C 0.53935 1.00523 0.53669 0.0
C832 C 0.54621 0.02614 0.50516 0.0
C833 C 0.28537 0.28542 0.77558 0.0
C834 C 0.29149 0.26192 0.78346 0.0
C835 C 0.26471 0.29197 0.74556 0.0
C836 C 0.24914 0.27534 0.72189 0.0
H837 H 0.29668 0.29905 0.79255 0.0
H838 H 0.2609 0.31028 0.74121 0.0
S839 S 0.25681 0.21135 0.73018 0.0
N840 N 0.28012 0.22192 0.76487 0.0
N841 N 0.24139 0.23406 0.7086 0.0
C842 C 0.25503 0.25171 0.72938 0.0
C843 C 0.2761 0.24506 0.76009 0.0
C844 C 0.04299 1.01606 0.50307 0.0
C845 C 0.02644 0.99987 0.48233 0.0
C846 C 0.03638 0.03671 0.53337 0.0
C847 C 1.01289 0.04215 0.54457 0.0
H848 H 0.06127 1.01286 0.49573 0.0
H849 H 0.04993 0.0486 0.54758 0.0
S850 S 0.96258 1.00529 0.50157 0.0
N851 N 0.98529 0.99055 0.47668 0.0
N852 N 0.97305 0.02922 0.5334 0.0
C853 C 0.99614 0.02599 0.52479 0.0
C854 C 1.00285 1.00495 0.49377 0.0
C855 C 0.26458 0.75072 0.76603 0.0
C856 C 0.24809 0.76715 0.78559 0.0
C857 C 0.28524 0.75747 0.73604 0.0
C858 C 0.29042 0.781 0.72399 0.0
H859 H 0.2616 0.73242 0.7741 0.0
H860 H 0.29736 0.74401 0.72278 0.0
S861 S 0.25272 0.83102 0.76358 0.0
N862 N 0.23819 0.80821 0.78908 0.0
N863 N 0.27691 0.82074 0.73296 0.0
C864 C 0.27397 0.79763 0.74255 0.0
C865 C 0.2529 0.79077 0.77324 0.0
C866 C 0.50456 1.00394 0.02504 0.0
C867 C 0.52804 0.99776 0.03252 0.0
C868 C 0.49801 0.0247 0.99528 0.0
C869 C 0.51462 0.04028 0.97146 0.0
H870 H 0.49096 0.99261 0.04218 0.0
H871 H 0.47973 0.02855 0.99125 0.0
S872 S 0.57855 0.03247 0.97863 0.0
N873 N 0.56799 1.0091 0.01333 0.0
N874 N 0.55585 0.04797 0.95753 0.0
C875 C 0.53822 0.03433 0.97851 0.0
C876 C 0.54487 1.01318 0.00896 0.0
C877 C 0.26405 0.2498 0.24725 0.0
C878 C 0.24758 0.26631 0.22817 0.0
C879 C 0.28468 0.25645 0.27743 0.0
C880 C 0.28981 0.27992 0.29018 0.0
H881 H 0.26109 0.23154 0.23862 0.0
H882 H 0.2968 0.24295 0.29029 0.0
S883 S 0.25209 0.33008 0.25221 0.0
N884 N 0.23761 0.30736 0.22599 0.0
N885 N 0.27626 0.31969 0.28247 0.0
C886 C 0.27336 0.29662 0.27213 0.0
C887 C 0.25234 0.28987 0.24123 0.0
C888 C 0.78005 0.25085 0.75318 0.0
C889 C 0.79593 0.26749 0.73102 0.0
C890 C 0.75921 0.25738 0.78243 0.0
C891 C 0.75317 0.28089 0.7908 0.0
H892 H 0.78382 0.23254 0.74866 0.0
H893 H 0.74771 0.24374 0.79848 0.0
S894 S 0.7884 0.33147 0.73996 0.0
N895 N 0.8039 0.30875 0.71869 0.0
N896 N 0.76481 0.32089 0.77344 0.0
C897 C 0.76878 0.29775 0.76841 0.0
C898 C 0.79007 0.29111 0.73864 0.0
C899 C 0.76381 0.79166 0.24889 0.0
C900 C 0.74967 0.77503 0.21927 0.0
C901 C 0.78402 0.78525 0.28139 0.0
C902 C 0.79108 0.76189 0.2859 0.0
H903 H 0.75921 0.80984 0.24742 0.0
H904 H 0.79423 0.79888 0.30295 0.0
S905 S 0.76032 0.71141 0.21646 0.0
N906 N 0.74433 0.73394 0.19652 0.0
N907 N 0.78218 0.72205 0.25748 0.0
C908 C 0.77713 0.74504 0.25651 0.0
C909 C 0.75652 0.75156 0.22327 0.0
C910 C 0.75894 0.28527 0.27784 0.0
C911 C 0.75295 0.26175 0.28642 0.0
C912 C 0.77975 0.29189 0.24846 0.0
C913 C 0.79565 0.2753 0.22635 0.0
H914 H 0.74744 0.29887 0.29396 0.0
H915 H 0.78351 0.31021 0.24393 0.0
S916 S 0.78816 0.21129 0.23533 0.0
N917 N 0.7646 0.22178 0.26897 0.0
N918 N 0.80363 0.23406 0.21394 0.0
C919 C 0.7898 0.25166 0.23396 0.0
C920 C 0.76855 0.24494 0.26388 0.0
C921 C 0.75589 0.78628 0.72973 0.0
C922 C 0.74985 0.76274 0.72168 0.0
C923 C 0.77612 0.79292 0.76182 0.0
C924 C 0.7913 0.77636 0.7875 0.0
H925 H 0.74482 0.79984 0.71141 0.0
H926 H 0.77988 0.81125 0.76631 0.0
S927 S 0.78381 0.71233 0.77895 0.0
N928 N 0.76098 0.7228 0.74182 0.0
N929 N 0.79888 0.73513 0.80195 0.0
C930 C 0.78553 0.75271 0.77968 0.0
C931 C 0.7649 0.74596 0.74687 0.0
C932 C 0.54051 0.52828 0.51086 0.0
C933 C 0.52397 0.54443 0.53183 0.0
C934 C 0.5339 0.50764 0.48057 0.0
C935 C 0.51041 0.50214 0.46964 0.0
H936 H 0.5588 0.53151 0.51802 0.0
H937 H 0.54744 0.49579 0.46621 0.0
S938 S 0.46012 0.53887 0.51324 0.0
N939 N 0.48284 0.55367 0.53792 0.0
N940 N 0.47056 0.51498 0.48124 0.0
C941 C 0.49366 0.51826 0.48962 0.0
C942 C 0.50039 0.5393 0.52061 0.0
C943 C 0.03729 0.50547 0.03055 0.0
C944 C 1.01385 0.50042 0.04401 0.0
C945 C 0.04394 0.5262 1.00066 0.0
C946 C 0.02749 0.54288 0.98259 0.0
H947 H 0.05074 0.49317 0.04252 0.0
H948 H 0.06217 0.52905 0.99133 0.0
S949 S 0.96389 0.53877 0.00929 0.0
N950 N 0.97421 0.51434 0.0384 0.0
N951 N 0.98657 0.5532 0.9825 0.0
C952 C 1.00399 0.53824 0.99655 0.0
C953 C 0.99723 0.51711 0.02714 0.0
C954 C 0.50572 0.5067 0.9899 0.0
C955 C 0.5292 0.50065 0.98129 0.0
C956 C 0.49922 0.52747 0.01967 0.0
C957 C 0.51588 0.5432 0.04238 0.0
H958 H 0.49209 0.49526 0.97365 0.0
H959 H 0.48094 0.53122 0.02458 0.0
S960 S 0.57979 0.53577 0.03188 0.0
N961 N 0.56918 0.51227 0.99816 0.0
N962 N 0.55713 0.55117 0.05397 0.0
C963 C 0.53947 0.53737 0.03421 0.0
C964 C 0.54607 0.5162 1.00375 0.0
C965 C 0.04351 0.51377 0.51096 0.0
C966 C 0.02679 0.49794 0.53296 0.0
C967 C 0.03711 0.53458 0.48129 0.0
C968 C 1.01366 0.54061 0.47219 0.0
H969 H 0.06178 0.51008 0.51646 0.0
H970 H 0.05079 0.54611 0.46577 0.0
S971 S 0.96292 0.50515 0.52031 0.0
N972 N 0.98551 0.48977 0.54292 0.0
N973 N 0.97364 0.52879 0.48739 0.0
C974 C 0.99672 0.52493 0.49374 0.0
C975 C 1.00323 0.50368 0.524 0.0
C976 C 0.11062 0.16415 0.12593 0.0
C977 C 0.11636 0.14055 0.12039 0.0
C978 C 0.12754 0.18097 0.13787 0.0
C979 C 0.15107 0.17505 0.14349 0.0
H980 H 0.09276 0.16972 0.12234 0.0
H981 H 0.12212 0.1989 0.1413 0.0
S982 S 0.17539 0.1157 0.13242 0.0
N983 N 0.14727 0.11201 0.12226 0.0
N984 N 0.17931 0.14385 0.14231 0.0
C985 C 0.15717 0.15154 0.13755 0.0
C986 C 0.13977 0.13425 0.12672 0.0
C987 C 0.15566 0.88949 0.37901 0.0
C988 C 0.14956 0.86594 0.37338 0.0
C989 C 0.13872 0.90665 0.38919 0.0
C990 C 0.11517 0.90079 0.39618 0.0
H991 H 0.17362 0.89472 0.37511 0.0
H992 H 0.14414 0.9246 0.39197 0.0
S993 S 0.09026 0.84147 0.38738 0.0
N994 N 0.11827 0.8377 0.3763 0.0
N995 N 0.08674 0.86962 0.39689 0.0
C996 C 0.10895 0.87724 0.39154 0.0
C997 C 0.12605 0.85993 0.37972 0.0
C998 C 0.39747 0.88231 0.69385 0.0
C999 C 0.38409 0.87454 0.64249 0.0
C1000 C 0.41448 0.89949 0.68564 0.0
C1001 C 0.41921 0.90888 0.62544 0.0
H1002 H 0.39514 0.8747 0.74037 0.0
H1003 H 0.42483 0.90459 0.72611 0.0
S1004 S 0.38897 0.89478 0.47592 0.0
N1005 N 0.37617 0.87831 0.52966 0.0
N1006 N 0.409 0.90967 0.51414 0.0
C1007 C 0.40578 0.90159 0.57398 0.0
C1008 C 0.38795 0.88466 0.58258 0.0
C1009 C 0.40262 0.13455 0.88493 0.0
C1010 C 0.42613 0.14037 0.89283 0.0
C1011 C 0.38575 0.15175 0.8746 0.0
C1012 C 0.39192 0.17531 0.86967 0.0
H1013 H 0.39718 0.11659 0.88697 0.0
H1014 H 0.36782 0.14655 0.86983 0.0
S1015 S 0.45111 0.19971 0.88658 0.0
N1016 N 0.45456 0.17152 0.89548 0.0
N1017 N 0.42316 0.20353 0.87455 0.0
C1018 C 0.41537 0.1813 0.87713 0.0
C1019 C 0.43239 0.16393 0.88913 0.0
C1020 C 0.88445 0.88911 0.8752 0.0
C1021 C 0.89018 0.86541 0.8739 0.0
C1022 C 0.90149 0.90616 0.88559 0.0
C1023 C 0.92473 0.90009 0.89706 0.0
H1024 H 0.86673 0.89453 0.86744 0.0
H1025 H 0.8964 0.92422 0.88464 0.0
S1026 S 0.94844 0.84028 0.90193 0.0
N1027 N 0.92066 0.83675 0.88666 0.0
N1028 N 0.95237 0.86853 0.90761 0.0
C1029 C 0.93052 0.87639 0.89728 0.0
C1030 C 0.91334 0.85914 0.88529 0.0
C1031 C 0.9124 0.14986 0.57605 0.0
C1032 C 0.91975 0.13589 0.62675 0.0
C1033 C 0.89537 0.16693 0.5848 0.0
C1034 C 0.8857 0.17113 0.64494 0.0
H1035 H 0.92024 0.14794 0.52968 0.0
H1036 H 0.89061 0.17774 0.54488 0.0
S1037 S 0.89857 0.1392 0.79276 0.0
N1038 N 0.91523 0.12683 0.7388 0.0
N1039 N 0.88412 0.15976 0.75539 0.0
C1040 C 0.89253 0.1571 0.69569 0.0
C1041 C 0.90932 0.13922 0.6865 0.0
C1042 C 0.65659 0.1528 0.37651 0.0
C1043 C 0.65089 0.17644 0.371 0.0
C1044 C 0.63937 0.13588 0.38646 0.0
C1045 C 0.61592 0.14205 0.39325 0.0
H1046 H 0.67446 0.14731 0.37269 0.0
H1047 H 0.6445 0.11786 0.3892 0.0
S1048 S 0.59195 0.20168 0.38426 0.0
N1049 N 0.62005 0.2051 0.37357 0.0
N1050 N 0.58797 0.17357 0.39369 0.0
C1051 C 0.61007 0.16568 0.38863 0.0
C1052 C 0.62746 0.18278 0.37709 0.0
C1053 C 0.61129 0.87578 0.11998 0.0
C1054 C 0.6168 0.89949 0.11611 0.0
C1055 C 0.62836 0.85908 0.13129 0.0
C1056 C 0.6518 0.86526 0.13789 0.0
H1057 H 0.5935 0.87002 0.11564 0.0
H1058 H 0.62311 0.84106 0.13353 0.0
S1059 S 0.67557 0.92496 0.13051 0.0
N1060 N 0.64744 0.92839 0.12006 0.0
N1061 N 0.67974 0.8968 0.13892 0.0
C1062 C 0.65768 0.88888 0.13333 0.0
C1063 C 0.64015 0.90602 0.12315 0.0
C1064 C 0.60995 0.66415 0.62216 0.0
C1065 C 0.61557 0.64051 0.61659 0.0
C1066 C 0.62701 0.68092 0.63336 0.0
C1067 C 0.65053 0.67488 0.63821 0.0
H1068 H 0.5921 0.66978 0.61915 0.0
H1069 H 0.62169 0.69887 0.63685 0.0
S1070 S 0.67456 0.61543 0.62653 0.0
N1071 N 0.64638 0.61185 0.61739 0.0
N1072 N 0.67863 0.64356 0.63619 0.0
C1073 C 0.6565 0.65134 0.63219 0.0
C1074 C 0.63899 0.63412 0.62204 0.0
C1075 C 0.63889 0.40655 0.88642 0.0
C1076 C 0.61553 0.40015 0.89459 0.0
C1077 C 0.65618 0.38976 0.87614 0.0
C1078 C 0.65061 0.36606 0.87159 0.0
H1079 H 0.64389 0.42463 0.88834 0.0
H1080 H 0.67398 0.39541 0.87129 0.0
S1081 S 0.592 0.34024 0.88891 0.0
N1082 N 0.58786 0.36834 0.89759 0.0
N1083 N 0.62004 0.33708 0.8768 0.0
C1084 C 0.62729 0.3595 0.87914 0.0
C1085 C 0.60985 0.37646 0.89106 0.0
C1086 C 0.8947 0.37698 0.08283 0.0
C1087 C 0.88561 0.37212 0.14332 0.0
C1088 C 0.91193 0.39391 0.0743 0.0
C1089 C 0.92005 0.40712 0.12565 0.0
H1090 H 0.88936 0.36674 0.04234 0.0
H1091 H 0.91933 0.3963 0.02754 0.0
S1092 S 0.90055 0.402 0.29287 0.0
N1093 N 0.8854 0.3821 0.25483 0.0
N1094 N 0.91683 0.41483 0.23875 0.0
C1095 C 0.91018 0.40319 0.18585 0.0
C1096 C 0.89321 0.38541 0.19475 0.0
C1097 C 0.90437 0.63651 0.38638 0.0
C1098 C 0.92779 0.64266 0.3945 0.0
C1099 C 0.88728 0.65346 0.3761 0.0
C1100 C 0.89307 0.67712 0.37154 0.0
H1101 H 0.89919 0.61847 0.38824 0.0
H1102 H 0.86942 0.64798 0.37125 0.0
S1103 S 0.95195 0.70232 0.38842 0.0
N1104 N 0.95579 0.67417 0.39722 0.0
N1105 N 0.92394 0.70578 0.37648 0.0
C1106 C 0.91645 0.68344 0.379 0.0
C1107 C 0.93372 0.6663 0.3909 0.0
C1108 C 0.39256 0.37762 0.43344 0.0
C1109 C 0.38304 0.37295 0.37343 0.0
C1110 C 0.40979 0.39458 0.44129 0.0
C1111 C 0.41749 0.40799 0.38976 0.0
H1112 H 0.38746 0.36729 0.47405 0.0
H1113 H 0.41746 0.3969 0.48769 0.0
S1114 S 0.39698 0.40322 0.22356 0.0
N1115 N 0.38209 0.38321 0.26211 0.0
N1116 N 0.41358 0.41595 0.27697 0.0
C1117 C 0.40728 0.40415 0.33003 0.0
C1118 C 0.3903 0.38637 0.32178 0.0
C1119 C 0.38617 0.65375 0.13916 0.0
C1120 C 0.39219 0.67728 0.14592 0.0
C1121 C 0.40316 0.63672 0.12821 0.0
C1122 C 0.42668 0.64272 0.12148 0.0
H1123 H 0.36823 0.64843 0.14283 0.0
H1124 H 0.39783 0.61876 0.12464 0.0
S1125 S 0.45143 0.70201 0.1336 0.0
N1126 N 0.42339 0.70564 0.14465 0.0
N1127 N 0.45503 0.67394 0.1226 0.0
C1128 C 0.43283 0.66624 0.12732 0.0
C1129 C 0.41568 0.68342 0.13995 0.0
C1130 C 0.11209 0.66345 0.88871 0.0
C1131 C 0.1182 0.63996 0.89492 0.0
C1132 C 0.12878 0.68053 0.87665 0.0
C1133 C 0.15242 0.67499 0.87154 0.0
H1134 H 0.09413 0.66873 0.89188 0.0
H1135 H 0.12307 0.69835 0.87269 0.0
S1136 S 0.1777 0.6161 0.88468 0.0
N1137 N 0.14961 0.61196 0.89444 0.0
N1138 N 0.18117 0.64427 0.87406 0.0
C1139 C 0.15888 0.6516 0.87822 0.0
C1140 C 0.14175 0.63405 0.88923 0.0
C1141 C 0.11183 0.37771 0.6253 0.0
C1142 C 0.11775 0.40125 0.61874 0.0
C1143 C 0.12866 0.36085 0.6375 0.0
C1144 C 0.15225 0.36668 0.64233 0.0
H1145 H 0.09392 0.37223 0.62225 0.0
H1146 H 0.12311 0.34297 0.64164 0.0
S1147 S 0.177 0.42584 0.62866 0.0
N1148 N 0.14887 0.42964 0.619 0.0
N1149 N 0.18072 0.39773 0.63945 0.0
C1150 C 0.15851 0.39013 0.63547 0.0
C1151 C 0.14122 0.40746 0.62442 0.0
loop_
_geom_bond_atom_site_label_1
_geom_bond_atom_site_label_2
_geom_bond_distance
_geom_bond_site_symmetry_2
_ccdc_geom_bond_type
O0 Cd1 2.223 . S
O0 C8 1.315 . S
Cd1 O0 2.223 . S
Cd1 O4 2.297 . S
Cd1 O5 2.439 . S
Cd1 O11 2.240 . S
Cd2 O3 2.240 1_656 S
Cd2 O10 2.223 1_556 S
Cd2 O12 2.297 . S
Cd2 O13 2.439 1_655 S
O3 Cd2 2.240 1_454 S
O3 C8 1.279 . S
O4 Cd1 2.297 . S
O4 C6 1.247 . S
O5 Cd1 2.439 . S
O5 C6 1.208 . S
C6 O4 1.247 . S
C6 O5 1.208 . S
C7 O12 1.247 1_455 S
C7 O13 1.208 . S
C8 O0 1.315 . S
C8 O3 1.279 . S
C9 O10 1.315 1_455 S
C9 O11 1.279 . S
O10 Cd2 2.223 1_554 S
O10 C9 1.315 1_655 S
O11 Cd1 2.240 . S
O11 C9 1.279 . S
O12 Cd2 2.297 . S
O12 C7 1.247 1_655 S
O13 Cd2 2.439 1_455 S
O13 C7 1.208 . S
O14 Cd15 2.223 . S
O14 C22 1.315 . S
Cd15 O14 2.223 . S
Cd15 O18 2.297 . S
Cd15 O19 2.439 . S
Cd15 O25 2.240 . S
Cd16 O17 2.240 . S
Cd16 O24 2.223 . S
Cd16 O26 2.297 . S
Cd16 O27 2.439 . S
O17 Cd16 2.240 . S
O17 C22 1.279 . S
O18 Cd15 2.297 . S
O18 C20 1.247 . S
O19 Cd15 2.439 . S
O19 C20 1.208 . S
C20 O18 1.247 . S
C20 O19 1.208 . S
C21 O26 1.247 . S
C21 O27 1.208 . S
C22 O14 1.315 . S
C22 O17 1.279 . S
C23 O24 1.315 . S
C23 O25 1.279 . S
O24 Cd16 2.223 . S
O24 C23 1.315 . S
O25 Cd15 2.240 . S
O25 C23 1.279 . S
O26 Cd16 2.297 . S
O26 C21 1.247 . S
O27 Cd16 2.439 . S
O27 C21 1.208 . S
O28 Cd29 2.223 . S
O28 C36 1.315 . S
Cd29 O28 2.223 . S
Cd29 O32 2.297 . S
Cd29 O33 2.439 . S
Cd29 O39 2.240 . S
Cd30 O31 2.240 . S
Cd30 O38 2.223 . S
Cd30 O40 2.297 . S
Cd30 O41 2.439 . S
O31 Cd30 2.240 . S
O31 C36 1.279 . S
O32 Cd29 2.297 . S
O32 C34 1.247 . S
O33 Cd29 2.439 . S
O33 C34 1.208 . S
C34 O32 1.247 . S
C34 O33 1.208 . S
C35 O40 1.247 . S
C35 O41 1.208 . S
C36 O28 1.315 . S
C36 O31 1.279 . S
C37 O38 1.315 . S
C37 O39 1.279 . S
O38 Cd30 2.223 . S
O38 C37 1.315 . S
O39 Cd29 2.240 . S
O39 C37 1.279 . S
O40 Cd30 2.297 . S
O40 C35 1.247 . S
O41 Cd30 2.439 . S
O41 C35 1.208 . S
O42 Cd43 2.223 . S
O42 C50 1.315 . S
Cd43 O42 2.223 . S
Cd43 O46 2.297 . S
Cd43 O47 2.439 . S
Cd43 O53 2.240 . S
Cd44 O45 2.240 . S
Cd44 O52 2.223 . S
Cd44 O54 2.297 . S
Cd44 O55 2.439 . S
O45 Cd44 2.240 . S
O45 C50 1.279 . S
O46 Cd43 2.297 . S
O46 C48 1.247 . S
O47 Cd43 2.439 . S
O47 C48 1.208 . S
C48 O46 1.247 . S
C48 O47 1.208 . S
C49 O54 1.247 . S
C49 O55 1.208 . S
C50 O42 1.315 . S
C50 O45 1.279 . S
C51 O52 1.315 . S
C51 O53 1.279 . S
O52 Cd44 2.223 . S
O52 C51 1.315 . S
O53 Cd43 2.240 . S
O53 C51 1.279 . S
O54 Cd44 2.297 . S
O54 C49 1.247 . S
O55 Cd44 2.439 . S
O55 C49 1.208 . S
O56 Cd57 2.223 . S
O56 C64 1.315 . S
Cd57 O56 2.223 . S
Cd57 O60 2.297 . S
Cd57 O61 2.439 . S
Cd57 O67 2.240 . S
Cd58 O59 2.240 1_655 S
Cd58 O66 2.223 . S
Cd58 O68 2.297 . S
Cd58 O69 2.439 1_655 S
O59 Cd58 2.240 1_455 S
O59 C64 1.279 . S
O60 Cd57 2.297 . S
O60 C62 1.247 . S
O61 Cd57 2.439 . S
O61 C62 1.208 . S
C62 O60 1.247 . S
C62 O61 1.208 . S
C63 O68 1.247 1_455 S
C63 O69 1.208 . S
C64 O56 1.315 . S
C64 O59 1.279 . S
C65 O66 1.315 1_455 S
C65 O67 1.279 . S
O66 Cd58 2.223 . S
O66 C65 1.315 1_655 S
O67 Cd57 2.240 . S
O67 C65 1.279 . S
O68 Cd58 2.297 . S
O68 C63 1.247 1_655 S
O69 Cd58 2.439 1_455 S
O69 C63 1.208 . S
O70 Cd71 2.223 . S
O70 C78 1.315 . S
Cd71 O70 2.223 . S
Cd71 O74 2.297 . S
Cd71 O75 2.439 . S
Cd71 O81 2.240 . S
Cd72 O73 2.240 . S
Cd72 O80 2.223 . S
Cd72 O82 2.297 . S
Cd72 O83 2.439 . S
O73 Cd72 2.240 . S
O73 C78 1.279 . S
O74 Cd71 2.297 . S
O74 C76 1.247 . S
O75 Cd71 2.439 . S
O75 C76 1.208 . S
C76 O74 1.247 . S
C76 O75 1.208 . S
C77 O82 1.247 . S
C77 O83 1.208 . S
C78 O70 1.315 . S
C78 O73 1.279 . S
C79 O80 1.315 . S
C79 O81 1.279 . S
O80 Cd72 2.223 . S
O80 C79 1.315 . S
O81 Cd71 2.240 . S
O81 C79 1.279 . S
O82 Cd72 2.297 . S
O82 C77 1.247 . S
O83 Cd72 2.439 . S
O83 C77 1.208 . S
O84 Cd85 2.223 . S
O84 C92 1.315 . S
Cd85 O84 2.223 . S
Cd85 O88 2.297 . S
Cd85 O89 2.439 . S
Cd85 O95 2.240 . S
Cd86 O87 2.240 1_554 S
Cd86 O94 2.223 1_554 S
Cd86 O96 2.297 . S
Cd86 O97 2.439 . S
O87 Cd86 2.240 1_556 S
O87 C92 1.279 . S
O88 Cd85 2.297 . S
O88 C90 1.247 . S
O89 Cd85 2.439 . S
O89 C90 1.208 . S
C90 O88 1.247 . S
C90 O89 1.208 . S
C91 O96 1.247 . S
C91 O97 1.208 . S
C92 O84 1.315 . S
C92 O87 1.279 . S
C93 O94 1.315 . S
C93 O95 1.279 . S
O94 Cd86 2.223 1_556 S
O94 C93 1.315 . S
O95 Cd85 2.240 . S
O95 C93 1.279 . S
O96 Cd86 2.297 . S
O96 C91 1.247 . S
O97 Cd86 2.439 . S
O97 C91 1.208 . S
O98 Cd99 2.223 . S
O98 C106 1.315 . S
Cd99 O98 2.223 . S
Cd99 O102 2.297 . S
Cd99 O103 2.439 . S
Cd99 O109 2.240 . S
Cd100 O101 2.240 . S
Cd100 O108 2.223 . S
Cd100 O110 2.297 . S
Cd100 O111 2.439 . S
O101 Cd100 2.240 . S
O101 C106 1.279 . S
O102 Cd99 2.297 . S
O102 C104 1.247 . S
O103 Cd99 2.439 . S
O103 C104 1.208 . S
C104 O102 1.247 . S
C104 O103 1.208 . S
C105 O110 1.247 . S
C105 O111 1.208 . S
C106 O98 1.315 . S
C106 O101 1.279 . S
C107 O108 1.315 . S
C107 O109 1.279 . S
O108 Cd100 2.223 . S
O108 C107 1.315 . S
O109 Cd99 2.240 . S
O109 C107 1.279 . S
O110 Cd100 2.297 . S
O110 C105 1.247 . S
O111 Cd100 2.439 . S
O111 C105 1.208 . S
O112 Cd113 2.223 . S
O112 C120 1.315 . S
Cd113 O112 2.223 . S
Cd113 O116 2.297 . S
Cd113 O117 2.439 . S
Cd113 O123 2.240 . S
Cd114 O115 2.240 1_454 S
Cd114 O122 2.223 1_554 S
Cd114 O124 2.297 . S
Cd114 O125 2.439 1_455 S
O115 Cd114 2.240 1_656 S
O115 C120 1.279 . S
O116 Cd113 2.297 . S
O116 C118 1.247 . S
O117 Cd113 2.439 . S
O117 C118 1.208 . S
C118 O116 1.247 . S
C118 O117 1.208 . S
C119 O124 1.247 1_655 S
C119 O125 1.208 . S
C120 O112 1.315 . S
C120 O115 1.279 . S
C121 O122 1.315 1_655 S
C121 O123 1.279 . S
O122 Cd114 2.223 1_556 S
O122 C121 1.315 1_455 S
O123 Cd113 2.240 . S
O123 C121 1.279 . S
O124 Cd114 2.297 . S
O124 C119 1.247 1_455 S
O125 Cd114 2.439 1_655 S
O125 C119 1.208 . S
O126 Cd127 2.223 . S
O126 C134 1.315 . S
Cd127 O126 2.223 . S
Cd127 O130 2.297 . S
Cd127 O131 2.439 . S
Cd127 O137 2.240 . S
Cd128 O129 2.240 . S
Cd128 O136 2.223 . S
Cd128 O138 2.297 . S
Cd128 O139 2.439 . S
O129 Cd128 2.240 . S
O129 C134 1.279 . S
O130 Cd127 2.297 . S
O130 C132 1.247 . S
O131 Cd127 2.439 . S
O131 C132 1.208 . S
C132 O130 1.247 . S
C132 O131 1.208 . S
C133 O138 1.247 . S
C133 O139 1.208 . S
C134 O126 1.315 . S
C134 O129 1.279 . S
C135 O136 1.315 . S
C135 O137 1.279 . S
O136 Cd128 2.223 . S
O136 C135 1.315 . S
O137 Cd127 2.240 . S
O137 C135 1.279 . S
O138 Cd128 2.297 . S
O138 C133 1.247 . S
O139 Cd128 2.439 . S
O139 C133 1.208 . S
O140 Cd141 2.223 . S
O140 C148 1.315 . S
Cd141 O140 2.223 . S
Cd141 O144 2.297 . S
Cd141 O145 2.439 . S
Cd141 O151 2.240 . S
Cd142 O143 2.240 . S
Cd142 O150 2.223 . S
Cd142 O152 2.297 . S
Cd142 O153 2.439 . S
O143 Cd142 2.240 . S
O143 C148 1.279 . S
O144 Cd141 2.297 . S
O144 C146 1.247 . S
O145 Cd141 2.439 . S
O145 C146 1.208 . S
C146 O144 1.247 . S
C146 O145 1.208 . S
C147 O152 1.247 . S
C147 O153 1.208 . S
C148 O140 1.315 . S
C148 O143 1.279 . S
C149 O150 1.315 . S
C149 O151 1.279 . S
O150 Cd142 2.223 . S
O150 C149 1.315 . S
O151 Cd141 2.240 . S
O151 C149 1.279 . S
O152 Cd142 2.297 . S
O152 C147 1.247 . S
O153 Cd142 2.439 . S
O153 C147 1.208 . S
O154 Cd155 2.223 . S
O154 C162 1.315 . S
Cd155 O154 2.223 . S
Cd155 O158 2.297 . S
Cd155 O159 2.439 . S
Cd155 O165 2.240 . S
Cd156 O157 2.240 . S
Cd156 O164 2.223 . S
Cd156 O166 2.297 . S
Cd156 O167 2.439 . S
O157 Cd156 2.240 . S
O157 C162 1.279 . S
O158 Cd155 2.297 . S
O158 C160 1.247 . S
O159 Cd155 2.439 . S
O159 C160 1.208 . S
C160 O158 1.247 . S
C160 O159 1.208 . S
C161 O166 1.247 . S
C161 O167 1.208 . S
C162 O154 1.315 . S
C162 O157 1.279 . S
C163 O164 1.315 . S
C163 O165 1.279 . S
O164 Cd156 2.223 . S
O164 C163 1.315 . S
O165 Cd155 2.240 . S
O165 C163 1.279 . S
O166 Cd156 2.297 . S
O166 C161 1.247 . S
O167 Cd156 2.439 . S
O167 C161 1.208 . S
O168 Cd169 2.223 . S
O168 C176 1.315 . S
Cd169 O168 2.223 . S
Cd169 O172 2.297 . S
Cd169 O173 2.439 . S
Cd169 O179 2.240 . S
Cd170 O171 2.240 1_455 S
Cd170 O178 2.223 . S
Cd170 O180 2.297 . S
Cd170 O181 2.439 1_455 S
O171 Cd170 2.240 1_655 S
O171 C176 1.279 . S
O172 Cd169 2.297 . S
O172 C174 1.247 . S
O173 Cd169 2.439 . S
O173 C174 1.208 . S
C174 O172 1.247 . S
C174 O173 1.208 . S
C175 O180 1.247 1_655 S
C175 O181 1.208 . S
C176 O168 1.315 . S
C176 O171 1.279 . S
C177 O178 1.315 1_655 S
C177 O179 1.279 . S
O178 Cd170 2.223 . S
O178 C177 1.315 1_455 S
O179 Cd169 2.240 . S
O179 C177 1.279 . S
O180 Cd170 2.297 . S
O180 C175 1.247 1_455 S
O181 Cd170 2.439 1_655 S
O181 C175 1.208 . S
O182 Cd183 2.223 . S
O182 C190 1.315 . S
Cd183 O182 2.223 . S
Cd183 O186 2.297 . S
Cd183 O187 2.439 . S
Cd183 O193 2.240 . S
Cd184 O185 2.240 . S
Cd184 O192 2.223 . S
Cd184 O194 2.297 . S
Cd184 O195 2.439 . S
O185 Cd184 2.240 . S
O185 C190 1.279 . S
O186 Cd183 2.297 . S
O186 C188 1.247 . S
O187 Cd183 2.439 . S
O187 C188 1.208 . S
C188 O186 1.247 . S
C188 O187 1.208 . S
C189 O194 1.247 . S
C189 O195 1.208 . S
C190 O182 1.315 . S
C190 O185 1.279 . S
C191 O192 1.315 . S
C191 O193 1.279 . S
O192 Cd184 2.223 . S
O192 C191 1.315 . S
O193 Cd183 2.240 . S
O193 C191 1.279 . S
O194 Cd184 2.297 . S
O194 C189 1.247 . S
O195 Cd184 2.439 . S
O195 C189 1.208 . S
O196 Cd197 2.223 . S
O196 C204 1.315 . S
Cd197 O196 2.223 . S
Cd197 O200 2.297 . S
Cd197 O201 2.439 . S
Cd197 O207 2.240 . S
Cd198 O199 2.240 1_556 S
Cd198 O206 2.223 1_556 S
Cd198 O208 2.297 . S
Cd198 O209 2.439 . S
O199 Cd198 2.240 1_554 S
O199 C204 1.279 . S
O200 Cd197 2.297 . S
O200 C202 1.247 . S
O201 Cd197 2.439 . S
O201 C202 1.208 . S
C202 O200 1.247 . S
C202 O201 1.208 . S
C203 O208 1.247 . S
C203 O209 1.208 . S
C204 O196 1.315 . S
C204 O199 1.279 . S
C205 O206 1.315 . S
C205 O207 1.279 . S
O206 Cd198 2.223 1_554 S
O206 C205 1.315 . S
O207 Cd197 2.240 . S
O207 C205 1.279 . S
O208 Cd198 2.297 . S
O208 C203 1.247 . S
O209 Cd198 2.439 . S
O209 C203 1.208 . S
O210 Cd211 2.223 . S
O210 C218 1.315 . S
Cd211 O210 2.223 . S
Cd211 O214 2.297 . S
Cd211 O215 2.439 . S
Cd211 O221 2.240 . S
Cd212 O213 2.240 . S
Cd212 O220 2.223 . S
Cd212 O222 2.297 . S
Cd212 O223 2.439 . S
O213 Cd212 2.240 . S
O213 C218 1.279 . S
O214 Cd211 2.297 . S
O214 C216 1.247 . S
O215 Cd211 2.439 . S
O215 C216 1.208 . S
C216 O214 1.247 . S
C216 O215 1.208 . S
C217 O222 1.247 . S
C217 O223 1.208 . S
C218 O210 1.315 . S
C218 O213 1.279 . S
C219 O220 1.315 . S
C219 O221 1.279 . S
O220 Cd212 2.223 . S
O220 C219 1.315 . S
O221 Cd211 2.240 . S
O221 C219 1.279 . S
O222 Cd212 2.297 . S
O222 C217 1.247 . S
O223 Cd212 2.439 . S
O223 C217 1.208 . S
O224 Cd225 2.223 . S
O224 C232 1.315 . S
Cd225 O224 2.223 . S
Cd225 O228 2.297 . S
Cd225 O229 2.439 . S
Cd225 O235 2.240 . S
Cd226 O227 2.240 . S
Cd226 O234 2.223 . S
Cd226 O236 2.297 . S
Cd226 O237 2.439 . S
O227 Cd226 2.240 . S
O227 C232 1.279 . S
O228 Cd225 2.297 . S
O228 C230 1.247 . S
O229 Cd225 2.439 . S
O229 C230 1.208 . S
C230 O228 1.247 . S
C230 O229 1.208 . S
C231 O236 1.247 . S
C231 O237 1.208 . S
C232 O224 1.315 . S
C232 O227 1.279 . S
C233 O234 1.315 . S
C233 O235 1.279 . S
O234 Cd226 2.223 . S
O234 C233 1.315 . S
O235 Cd225 2.240 . S
O235 C233 1.279 . S
O236 Cd226 2.297 . S
O236 C231 1.247 . S
O237 Cd226 2.439 . S
O237 C231 1.208 . S
O238 Cd239 2.223 . S
O238 C246 1.315 . S
Cd239 O238 2.223 . S
Cd239 O242 2.297 . S
Cd239 O243 2.439 . S
Cd239 O249 2.240 . S
Cd240 O241 2.240 . S
Cd240 O248 2.223 . S
Cd240 O250 2.297 . S
Cd240 O251 2.439 . S
O241 Cd240 2.240 . S
O241 C246 1.279 . S
O242 Cd239 2.297 . S
O242 C244 1.247 . S
O243 Cd239 2.439 . S
O243 C244 1.208 . S
C244 O242 1.247 . S
C244 O243 1.208 . S
C245 O250 1.247 . S
C245 O251 1.208 . S
C246 O238 1.315 . S
C246 O241 1.279 . S
C247 O248 1.315 . S
C247 O249 1.279 . S
O248 Cd240 2.223 . S
O248 C247 1.315 . S
O249 Cd239 2.240 . S
O249 C247 1.279 . S
O250 Cd240 2.297 . S
O250 C245 1.247 . S
O251 Cd240 2.439 . S
O251 C245 1.208 . S
O252 Cd253 2.223 . S
O252 C260 1.315 . S
Cd253 O252 2.223 . S
Cd253 O256 2.297 . S
Cd253 O257 2.439 . S
Cd253 O263 2.240 . S
Cd254 O255 2.240 1_456 S
Cd254 O262 2.223 1_556 S
Cd254 O264 2.297 . S
Cd254 O265 2.439 1_455 S
O255 Cd254 2.240 1_654 S
O255 C260 1.279 . S
O256 Cd253 2.297 . S
O256 C258 1.247 . S
O257 Cd253 2.439 . S
O257 C258 1.208 . S
C258 O256 1.247 . S
C258 O257 1.208 . S
C259 O264 1.247 1_655 S
C259 O265 1.208 . S
C260 O252 1.315 . S
C260 O255 1.279 . S
C261 O262 1.315 1_655 S
C261 O263 1.279 . S
O262 Cd254 2.223 1_554 S
O262 C261 1.315 1_455 S
O263 Cd253 2.240 . S
O263 C261 1.279 . S
O264 Cd254 2.297 . S
O264 C259 1.247 1_455 S
O265 Cd254 2.439 1_655 S
O265 C259 1.208 . S
O266 Cd267 2.223 . S
O266 C274 1.315 . S
Cd267 O266 2.223 . S
Cd267 O270 2.297 . S
Cd267 O271 2.439 . S
Cd267 O277 2.240 . S
Cd268 O269 2.240 . S
Cd268 O276 2.223 . S
Cd268 O278 2.297 . S
Cd268 O279 2.439 . S
O269 Cd268 2.240 . S
O269 C274 1.279 . S
O270 Cd267 2.297 . S
O270 C272 1.247 . S
O271 Cd267 2.439 . S
O271 C272 1.208 . S
C272 O270 1.247 . S
C272 O271 1.208 . S
C273 O278 1.247 . S
C273 O279 1.208 . S
C274 O266 1.315 . S
C274 O269 1.279 . S
C275 O276 1.315 . S
C275 O277 1.279 . S
O276 Cd268 2.223 . S
O276 C275 1.315 . S
O277 Cd267 2.240 . S
O277 C275 1.279 . S
O278 Cd268 2.297 . S
O278 C273 1.247 . S
O279 Cd268 2.439 . S
O279 C273 1.208 . S
O280 Cd281 2.223 . S
O280 C288 1.315 . S
Cd281 O280 2.223 . S
Cd281 O284 2.297 . S
Cd281 O285 2.439 . S
Cd281 O291 2.240 . S
Cd282 O283 2.240 1_554 S
Cd282 O290 2.223 1_554 S
Cd282 O292 2.297 . S
Cd282 O293 2.439 . S
O283 Cd282 2.240 1_556 S
O283 C288 1.279 . S
O284 Cd281 2.297 . S
O284 C286 1.247 . S
O285 Cd281 2.439 . S
O285 C286 1.208 . S
C286 O284 1.247 . S
C286 O285 1.208 . S
C287 O292 1.247 . S
C287 O293 1.208 . S
C288 O280 1.315 . S
C288 O283 1.279 . S
C289 O290 1.315 . S
C289 O291 1.279 . S
O290 Cd282 2.223 1_556 S
O290 C289 1.315 . S
O291 Cd281 2.240 . S
O291 C289 1.279 . S
O292 Cd282 2.297 . S
O292 C287 1.247 . S
O293 Cd282 2.439 . S
O293 C287 1.208 . S
O294 Cd295 2.223 . S
O294 C302 1.315 . S
Cd295 O294 2.223 . S
Cd295 O298 2.297 . S
Cd295 O299 2.439 . S
Cd295 O305 2.240 . S
Cd296 O297 2.240 . S
Cd296 O304 2.223 . S
Cd296 O306 2.297 . S
Cd296 O307 2.439 . S
O297 Cd296 2.240 . S
O297 C302 1.279 . S
O298 Cd295 2.297 . S
O298 C300 1.247 . S
O299 Cd295 2.439 . S
O299 C300 1.208 . S
C300 O298 1.247 . S
C300 O299 1.208 . S
C301 O306 1.247 . S
C301 O307 1.208 . S
C302 O294 1.315 . S
C302 O297 1.279 . S
C303 O304 1.315 . S
C303 O305 1.279 . S
O304 Cd296 2.223 . S
O304 C303 1.315 . S
O305 Cd295 2.240 . S
O305 C303 1.279 . S
O306 Cd296 2.297 . S
O306 C301 1.247 . S
O307 Cd296 2.439 . S
O307 C301 1.208 . S
O308 Cd309 2.223 . S
O308 C316 1.315 . S
Cd309 O308 2.223 . S
Cd309 O312 2.297 . S
Cd309 O313 2.439 . S
Cd309 O319 2.240 . S
Cd310 O311 2.240 1_455 S
Cd310 O318 2.223 . S
Cd310 O320 2.297 . S
Cd310 O321 2.439 1_455 S
O311 Cd310 2.240 1_655 S
O311 C316 1.279 . S
O312 Cd309 2.297 . S
O312 C314 1.247 . S
O313 Cd309 2.439 . S
O313 C314 1.208 . S
C314 O312 1.247 . S
C314 O313 1.208 . S
C315 O320 1.247 1_655 S
C315 O321 1.208 . S
C316 O308 1.315 . S
C316 O311 1.279 . S
C317 O318 1.315 1_655 S
C317 O319 1.279 . S
O318 Cd310 2.223 . S
O318 C317 1.315 1_455 S
O319 Cd309 2.240 . S
O319 C317 1.279 . S
O320 Cd310 2.297 . S
O320 C315 1.247 1_455 S
O321 Cd310 2.439 1_655 S
O321 C315 1.208 . S
O322 Cd323 2.223 . S
O322 C330 1.315 . S
Cd323 O322 2.223 . S
Cd323 O326 2.297 . S
Cd323 O327 2.439 . S
Cd323 O333 2.240 . S
Cd324 O325 2.240 . S
Cd324 O332 2.223 . S
Cd324 O334 2.297 . S
Cd324 O335 2.439 . S
O325 Cd324 2.240 . S
O325 C330 1.279 . S
O326 Cd323 2.297 . S
O326 C328 1.247 . S
O327 Cd323 2.439 . S
O327 C328 1.208 . S
C328 O326 1.247 . S
C328 O327 1.208 . S
C329 O334 1.247 . S
C329 O335 1.208 . S
C330 O322 1.315 . S
C330 O325 1.279 . S
C331 O332 1.315 . S
C331 O333 1.279 . S
O332 Cd324 2.223 . S
O332 C331 1.315 . S
O333 Cd323 2.240 . S
O333 C331 1.279 . S
O334 Cd324 2.297 . S
O334 C329 1.247 . S
O335 Cd324 2.439 . S
O335 C329 1.208 . S
O336 Cd337 2.223 . S
O336 C344 1.315 . S
Cd337 O336 2.223 . S
Cd337 O340 2.297 . S
Cd337 O341 2.439 . S
Cd337 O347 2.240 . S
Cd338 O339 2.240 . S
Cd338 O346 2.223 . S
Cd338 O348 2.297 . S
Cd338 O349 2.439 . S
O339 Cd338 2.240 . S
O339 C344 1.279 . S
O340 Cd337 2.297 . S
O340 C342 1.247 . S
O341 Cd337 2.439 . S
O341 C342 1.208 . S
C342 O340 1.247 . S
C342 O341 1.208 . S
C343 O348 1.247 . S
C343 O349 1.208 . S
C344 O336 1.315 . S
C344 O339 1.279 . S
C345 O346 1.315 . S
C345 O347 1.279 . S
O346 Cd338 2.223 . S
O346 C345 1.315 . S
O347 Cd337 2.240 . S
O347 C345 1.279 . S
O348 Cd338 2.297 . S
O348 C343 1.247 . S
O349 Cd338 2.439 . S
O349 C343 1.208 . S
O350 Cd351 2.223 . S
O350 C358 1.315 . S
Cd351 O350 2.223 . S
Cd351 O354 2.297 . S
Cd351 O355 2.439 . S
Cd351 O361 2.240 . S
Cd352 O353 2.240 . S
Cd352 O360 2.223 . S
Cd352 O362 2.297 . S
Cd352 O363 2.439 . S
O353 Cd352 2.240 . S
O353 C358 1.279 . S
O354 Cd351 2.297 . S
O354 C356 1.247 . S
O355 Cd351 2.439 . S
O355 C356 1.208 . S
C356 O354 1.247 . S
C356 O355 1.208 . S
C357 O362 1.247 . S
C357 O363 1.208 . S
C358 O350 1.315 . S
C358 O353 1.279 . S
C359 O360 1.315 . S
C359 O361 1.279 . S
O360 Cd352 2.223 . S
O360 C359 1.315 . S
O361 Cd351 2.240 . S
O361 C359 1.279 . S
O362 Cd352 2.297 . S
O362 C357 1.247 . S
O363 Cd352 2.439 . S
O363 C357 1.208 . S
O364 Cd365 2.223 . S
O364 C372 1.315 . S
Cd365 O364 2.223 . S
Cd365 O368 2.297 . S
Cd365 O369 2.439 . S
Cd365 O375 2.240 . S
Cd366 O367 2.240 1_654 S
Cd366 O374 2.223 1_554 S
Cd366 O376 2.297 . S
Cd366 O377 2.439 1_655 S
O367 Cd366 2.240 1_456 S
O367 C372 1.279 . S
O368 Cd365 2.297 . S
O368 C370 1.247 . S
O369 Cd365 2.439 . S
O369 C370 1.208 . S
C370 O368 1.247 . S
C370 O369 1.208 . S
C371 O376 1.247 1_455 S
C371 O377 1.208 . S
C372 O364 1.315 . S
C372 O367 1.279 . S
C373 O374 1.315 1_455 S
C373 O375 1.279 . S
O374 Cd366 2.223 1_556 S
O374 C373 1.315 1_655 S
O375 Cd365 2.240 . S
O375 C373 1.279 . S
O376 Cd366 2.297 . S
O376 C371 1.247 1_655 S
O377 Cd366 2.439 1_455 S
O377 C371 1.208 . S
O378 Cd379 2.223 . S
O378 C386 1.315 . S
Cd379 O378 2.223 . S
Cd379 O382 2.297 . S
Cd379 O383 2.439 . S
Cd379 O389 2.240 . S
Cd380 O381 2.240 . S
Cd380 O388 2.223 . S
Cd380 O390 2.297 . S
Cd380 O391 2.439 . S
O381 Cd380 2.240 . S
O381 C386 1.279 . S
O382 Cd379 2.297 . S
O382 C384 1.247 . S
O383 Cd379 2.439 . S
O383 C384 1.208 . S
C384 O382 1.247 . S
C384 O383 1.208 . S
C385 O390 1.247 . S
C385 O391 1.208 . S
C386 O378 1.315 . S
C386 O381 1.279 . S
C387 O388 1.315 . S
C387 O389 1.279 . S
O388 Cd380 2.223 . S
O388 C387 1.315 . S
O389 Cd379 2.240 . S
O389 C387 1.279 . S
O390 Cd380 2.297 . S
O390 C385 1.247 . S
O391 Cd380 2.439 . S
O391 C385 1.208 . S
O392 Cd393 2.223 . S
O392 C400 1.315 . S
Cd393 O392 2.223 . S
Cd393 O396 2.297 . S
Cd393 O397 2.439 . S
Cd393 O403 2.240 . S
Cd394 O395 2.240 1_556 S
Cd394 O402 2.223 1_556 S
Cd394 O404 2.297 . S
Cd394 O405 2.439 . S
O395 Cd394 2.240 1_554 S
O395 C400 1.279 . S
O396 Cd393 2.297 . S
O396 C398 1.247 . S
O397 Cd393 2.439 . S
O397 C398 1.208 . S
C398 O396 1.247 . S
C398 O397 1.208 . S
C399 O404 1.247 . S
C399 O405 1.208 . S
C400 O392 1.315 . S
C400 O395 1.279 . S
C401 O402 1.315 . S
C401 O403 1.279 . S
O402 Cd394 2.223 1_554 S
O402 C401 1.315 . S
O403 Cd393 2.240 . S
O403 C401 1.279 . S
O404 Cd394 2.297 . S
O404 C399 1.247 . S
O405 Cd394 2.439 . S
O405 C399 1.208 . S
O406 Cd407 2.223 . S
O406 C414 1.315 . S
Cd407 O406 2.223 . S
Cd407 O410 2.297 . S
Cd407 O411 2.439 . S
Cd407 O417 2.240 . S
Cd408 O409 2.240 . S
Cd408 O416 2.223 . S
Cd408 O418 2.297 . S
Cd408 O419 2.439 . S
O409 Cd408 2.240 . S
O409 C414 1.279 . S
O410 Cd407 2.297 . S
O410 C412 1.247 . S
O411 Cd407 2.439 . S
O411 C412 1.208 . S
C412 O410 1.247 . S
C412 O411 1.208 . S
C413 O418 1.247 . S
C413 O419 1.208 . S
C414 O406 1.315 . S
C414 O409 1.279 . S
C415 O416 1.315 . S
C415 O417 1.279 . S
O416 Cd408 2.223 . S
O416 C415 1.315 . S
O417 Cd407 2.240 . S
O417 C415 1.279 . S
O418 Cd408 2.297 . S
O418 C413 1.247 . S
O419 Cd408 2.439 . S
O419 C413 1.208 . S
O420 Cd421 2.223 . S
O420 C428 1.315 . S
Cd421 O420 2.223 . S
Cd421 O424 2.297 . S
Cd421 O425 2.439 . S
Cd421 O431 2.240 . S
Cd422 O423 2.240 1_655 S
Cd422 O430 2.223 . S
Cd422 O432 2.297 . S
Cd422 O433 2.439 1_655 S
O423 Cd422 2.240 1_455 S
O423 C428 1.279 . S
O424 Cd421 2.297 . S
O424 C426 1.247 . S
O425 Cd421 2.439 . S
O425 C426 1.208 . S
C426 O424 1.247 . S
C426 O425 1.208 . S
C427 O432 1.247 1_455 S
C427 O433 1.208 . S
C428 O420 1.315 . S
C428 O423 1.279 . S
C429 O430 1.315 1_455 S
C429 O431 1.279 . S
O430 Cd422 2.223 . S
O430 C429 1.315 1_655 S
O431 Cd421 2.240 . S
O431 C429 1.279 . S
O432 Cd422 2.297 . S
O432 C427 1.247 1_655 S
O433 Cd422 2.439 1_455 S
O433 C427 1.208 . S
O434 Cd435 2.223 . S
O434 C442 1.315 . S
Cd435 O434 2.223 . S
Cd435 O438 2.297 . S
Cd435 O439 2.439 . S
Cd435 O445 2.240 . S
Cd436 O437 2.240 . S
Cd436 O444 2.223 . S
Cd436 O446 2.297 . S
Cd436 O447 2.439 . S
O437 Cd436 2.240 . S
O437 C442 1.279 . S
O438 Cd435 2.297 . S
O438 C440 1.247 . S
O439 Cd435 2.439 . S
O439 C440 1.208 . S
C440 O438 1.247 . S
C440 O439 1.208 . S
C441 O446 1.247 . S
C441 O447 1.208 . S
C442 O434 1.315 . S
C442 O437 1.279 . S
C443 O444 1.315 . S
C443 O445 1.279 . S
O444 Cd436 2.223 . S
O444 C443 1.315 . S
O445 Cd435 2.240 . S
O445 C443 1.279 . S
O446 Cd436 2.297 . S
O446 C441 1.247 . S
O447 Cd436 2.439 . S
O447 C441 1.208 . S
C448 C449 1.369 1_455 S
C448 C450 1.419 . S
C448 H452 0.930 . S
C449 C448 1.369 1_655 S
C449 C458 1.429 . S
C450 C448 1.419 . S
C450 C451 1.363 . S
C450 H453 0.929 . S
C451 C450 1.363 . S
C451 C457 1.428 1_455 S
H452 C448 0.930 . S
H453 C450 0.929 . S
S454 N455 1.613 . S
S454 N456 1.610 . S
N455 S454 1.613 . S
N455 C458 1.350 . S
N456 S454 1.610 . S
N456 C457 1.351 . S
C457 C451 1.428 1_655 S
C457 N456 1.351 . S
C457 C458 1.434 . S
C458 C449 1.429 . S
C458 N455 1.350 . S
C458 C457 1.434 . S
C459 C460 1.369 . S
C459 C461 1.419 1_556 S
C459 H463 0.930 . S
C460 C459 1.369 . S
C460 C469 1.429 . S
C461 C459 1.419 1_554 S
C461 C462 1.363 . S
C461 H464 0.929 . S
C462 C461 1.363 . S
C462 C468 1.428 . S
H463 C459 0.930 . S
H464 C461 0.929 . S
S465 N466 1.613 . S
S465 N467 1.610 1_556 S
N466 S465 1.613 . S
N466 C469 1.350 . S
N467 S465 1.610 1_554 S
N467 C468 1.351 . S
C468 C462 1.428 . S
C468 N467 1.351 . S
C468 C469 1.434 1_554 S
C469 C460 1.429 . S
C469 N466 1.350 . S
C469 C468 1.434 1_556 S
C470 C471 1.369 . S
C470 C472 1.419 . S
C470 H474 0.930 . S
C471 C470 1.369 . S
C471 C480 1.429 . S
C472 C470 1.419 . S
C472 C473 1.363 . S
C472 H475 0.929 . S
C473 C472 1.363 . S
C473 C479 1.428 . S
H474 C470 0.930 . S
H475 C472 0.929 . S
S476 N477 1.613 . S
S476 N478 1.610 . S
N477 S476 1.613 . S
N477 C480 1.350 . S
N478 S476 1.610 . S
N478 C479 1.351 . S
C479 C473 1.428 . S
C479 N478 1.351 . S
C479 C480 1.434 . S
C480 C471 1.429 . S
C480 N477 1.350 . S
C480 C479 1.434 . S
C481 C482 1.369 . S
C481 C483 1.419 . S
C481 H485 0.930 . S
C482 C481 1.369 . S
C482 C491 1.429 . S
C483 C481 1.419 . S
C483 C484 1.363 . S
C483 H486 0.929 . S
C484 C483 1.363 . S
C484 C490 1.428 . S
H485 C481 0.930 . S
H486 C483 0.929 . S
S487 N488 1.613 . S
S487 N489 1.610 . S
N488 S487 1.613 . S
N488 C491 1.350 . S
N489 S487 1.610 . S
N489 C490 1.351 . S
C490 C484 1.428 . S
C490 N489 1.351 . S
C490 C491 1.434 . S
C491 C482 1.429 . S
C491 N488 1.350 . S
C491 C490 1.434 . S
C492 C493 1.369 . S
C492 C494 1.419 1_655 S
C492 H496 0.930 . S
C493 C492 1.369 . S
C493 C502 1.429 . S
C494 C492 1.419 1_455 S
C494 C495 1.363 . S
C494 H497 0.929 . S
C495 C494 1.363 . S
C495 C501 1.428 . S
H496 C492 0.930 . S
H497 C494 0.929 . S
S498 N499 1.613 . S
S498 N500 1.610 1_655 S
N499 S498 1.613 . S
N499 C502 1.350 . S
N500 S498 1.610 1_455 S
N500 C501 1.351 . S
C501 C495 1.428 . S
C501 N500 1.351 . S
C501 C502 1.434 1_455 S
C502 C493 1.429 . S
C502 N499 1.350 . S
C502 C501 1.434 1_655 S
C503 C504 1.369 . S
C503 C505 1.419 1_556 S
C503 H507 0.930 . S
C504 C503 1.369 . S
C504 C513 1.429 . S
C505 C503 1.419 1_554 S
C505 C506 1.363 . S
C505 H508 0.929 . S
C506 C505 1.363 . S
C506 C512 1.428 . S
H507 C503 0.930 . S
H508 C505 0.929 . S
S509 N510 1.613 . S
S509 N511 1.610 1_556 S
N510 S509 1.613 . S
N510 C513 1.350 . S
N511 S509 1.610 1_554 S
N511 C512 1.351 . S
C512 C506 1.428 . S
C512 N511 1.351 . S
C512 C513 1.434 1_554 S
C513 C504 1.429 . S
C513 N510 1.350 . S
C513 C512 1.434 1_556 S
C514 C515 1.369 . S
C514 C516 1.419 . S
C514 H518 0.930 . S
C515 C514 1.369 . S
C515 C524 1.429 . S
C516 C514 1.419 . S
C516 C517 1.363 . S
C516 H519 0.929 . S
C517 C516 1.363 . S
C517 C523 1.428 . S
H518 C514 0.930 . S
H519 C516 0.929 . S
S520 N521 1.613 . S
S520 N522 1.610 . S
N521 S520 1.613 . S
N521 C524 1.350 . S
N522 S520 1.610 . S
N522 C523 1.351 . S
C523 C517 1.428 . S
C523 N522 1.351 . S
C523 C524 1.434 . S
C524 C515 1.429 . S
C524 N521 1.350 . S
C524 C523 1.434 . S
C525 C526 1.369 . S
C525 C527 1.419 . S
C525 H529 0.930 . S
C526 C525 1.369 . S
C526 C535 1.429 . S
C527 C525 1.419 . S
C527 C528 1.363 . S
C527 H530 0.929 . S
C528 C527 1.363 . S
C528 C534 1.428 . S
H529 C525 0.930 . S
H530 C527 0.929 . S
S531 N532 1.613 . S
S531 N533 1.610 . S
N532 S531 1.613 . S
N532 C535 1.350 . S
N533 S531 1.610 . S
N533 C534 1.351 . S
C534 C528 1.428 . S
C534 N533 1.351 . S
C534 C535 1.434 . S
C535 C526 1.429 . S
C535 N532 1.350 . S
C535 C534 1.434 . S
C536 C537 1.369 . S
C536 C538 1.422 . S
C536 H540 0.930 . S
C537 C536 1.369 . S
C537 C546 1.430 1_455 S
C538 C536 1.422 . S
C538 C539 1.359 1_455 S
C538 H541 0.928 . S
C539 C538 1.359 1_655 S
C539 C545 1.428 . S
H540 C536 0.930 . S
H541 C538 0.928 . S
S542 N543 1.613 1_655 S
S542 N544 1.610 . S
N543 S542 1.613 1_455 S
N543 C546 1.350 1_455 S
N544 S542 1.610 . S
N544 C545 1.351 . S
C545 C539 1.428 . S
C545 N544 1.351 . S
C545 C546 1.433 . S
C546 C537 1.430 1_655 S
C546 N543 1.350 1_655 S
C546 C545 1.433 . S
C547 C548 1.369 . S
C547 C549 1.419 1_554 S
C547 H551 0.930 . S
C548 C547 1.369 . S
C548 C557 1.429 . S
C549 C547 1.419 1_556 S
C549 C550 1.363 . S
C549 H552 0.929 . S
C550 C549 1.363 . S
C550 C556 1.428 . S
H551 C547 0.930 . S
H552 C549 0.929 . S
S553 N554 1.613 1_556 S
S553 N555 1.610 . S
N554 S553 1.613 1_554 S
N554 C557 1.350 . S
N555 S553 1.610 . S
N555 C556 1.351 . S
C556 C550 1.428 . S
C556 N555 1.351 . S
C556 C557 1.434 1_556 S
C557 C548 1.429 . S
C557 N554 1.350 . S
C557 C556 1.434 1_554 S
C558 C559 1.369 . S
C558 C560 1.419 . S
C558 H562 0.930 . S
C559 C558 1.369 . S
C559 C568 1.429 . S
C560 C558 1.419 . S
C560 C561 1.363 . S
C560 H563 0.929 . S
C561 C560 1.363 . S
C561 C567 1.428 . S
H562 C558 0.930 . S
H563 C560 0.929 . S
S564 N565 1.613 . S
S564 N566 1.610 . S
N565 S564 1.613 . S
N565 C568 1.350 . S
N566 S564 1.610 . S
N566 C567 1.351 . S
C567 C561 1.428 . S
C567 N566 1.351 . S
C567 C568 1.434 . S
C568 C559 1.429 . S
C568 N565 1.350 . S
C568 C567 1.434 . S
C569 C570 1.369 . S
C569 C571 1.419 . S
C569 H573 0.930 . S
C570 C569 1.369 . S
C570 C579 1.429 . S
C571 C569 1.419 . S
C571 C572 1.363 . S
C571 H574 0.929 . S
C572 C571 1.363 . S
C572 C578 1.428 . S
H573 C569 0.930 . S
H574 C571 0.929 . S
S575 N576 1.613 . S
S575 N577 1.610 . S
N576 S575 1.613 . S
N576 C579 1.350 . S
N577 S575 1.610 . S
N577 C578 1.351 . S
C578 C572 1.428 . S
C578 N577 1.351 . S
C578 C579 1.434 . S
C579 C570 1.429 . S
C579 N576 1.350 . S
C579 C578 1.434 . S
C580 C581 1.369 . S
C580 C582 1.419 . S
C580 H584 0.930 . S
C581 C580 1.369 . S
C581 C590 1.429 1_655 S
C582 C580 1.419 . S
C582 C583 1.363 1_655 S
C582 H585 0.929 . S
C583 C582 1.363 1_455 S
C583 C589 1.428 . S
H584 C580 0.930 . S
H585 C582 0.929 . S
S586 N587 1.613 . S
S586 N588 1.610 . S
N587 S586 1.613 . S
N587 C590 1.350 . S
N588 S586 1.610 . S
N588 C589 1.351 . S
C589 C583 1.428 . S
C589 N588 1.351 . S
C589 C590 1.434 . S
C590 C581 1.429 1_455 S
C590 N587 1.350 . S
C590 C589 1.434 . S
C591 C592 1.369 . S
C591 C593 1.419 1_554 S
C591 H595 0.930 . S
C592 C591 1.369 . S
C592 C601 1.429 . S
C593 C591 1.419 1_556 S
C593 C594 1.363 . S
C593 H596 0.929 . S
C594 C593 1.363 . S
C594 C600 1.428 . S
H595 C591 0.930 . S
H596 C593 0.929 . S
S597 N598 1.613 . S
S597 N599 1.610 1_554 S
N598 S597 1.613 . S
N598 C601 1.350 . S
N599 S597 1.610 1_556 S
N599 C600 1.351 . S
C600 C594 1.428 . S
C600 N599 1.351 . S
C600 C601 1.434 1_556 S
C601 C592 1.429 . S
C601 N598 1.350 . S
C601 C600 1.434 1_554 S
C602 C603 1.369 . S
C602 C604 1.419 . S
C602 H606 0.930 . S
C603 C602 1.369 . S
C603 C612 1.429 . S
C604 C602 1.419 . S
C604 C605 1.363 . S
C604 H607 0.929 . S
C605 C604 1.363 . S
C605 C611 1.428 . S
H606 C602 0.930 . S
H607 C604 0.929 . S
S608 N609 1.613 . S
S608 N610 1.610 . S
N609 S608 1.613 . S
N609 C612 1.350 . S
N610 S608 1.610 . S
N610 C611 1.351 . S
C611 C605 1.428 . S
C611 N610 1.351 . S
C611 C612 1.434 . S
C612 C603 1.429 . S
C612 N609 1.350 . S
C612 C611 1.434 . S
C613 C614 1.369 . S
C613 C615 1.419 . S
C613 H617 0.930 . S
C614 C613 1.369 . S
C614 C623 1.429 . S
C615 C613 1.419 . S
C615 C616 1.363 . S
C615 H618 0.929 . S
C616 C615 1.363 . S
C616 C622 1.428 . S
H617 C613 0.930 . S
H618 C615 0.929 . S
S619 N620 1.613 . S
S619 N621 1.610 . S
N620 S619 1.613 . S
N620 C623 1.350 . S
N621 S619 1.610 . S
N621 C622 1.351 . S
C622 C616 1.428 . S
C622 N621 1.351 . S
C622 C623 1.434 . S
C623 C614 1.429 . S
C623 N620 1.350 . S
C623 C622 1.434 . S
C624 C625 1.369 . S
C624 C626 1.419 . S
C624 H628 0.930 . S
C625 C624 1.369 . S
C625 C634 1.429 . S
C626 C624 1.419 . S
C626 C627 1.363 . S
C626 H629 0.929 . S
C627 C626 1.363 . S
C627 C633 1.428 . S
H628 C624 0.930 . S
H629 C626 0.929 . S
S630 N631 1.613 . S
S630 N632 1.610 . S
N631 S630 1.613 . S
N631 C634 1.350 . S
N632 S630 1.610 . S
N632 C633 1.351 . S
C633 C627 1.428 . S
C633 N632 1.351 . S
C633 C634 1.434 . S
C634 C625 1.429 . S
C634 N631 1.350 . S
C634 C633 1.434 . S
C635 C636 1.369 . S
C635 C637 1.419 . S
C635 H639 0.930 . S
C636 C635 1.369 . S
C636 C645 1.429 . S
C637 C635 1.419 . S
C637 C638 1.363 . S
C637 H640 0.929 . S
C638 C637 1.363 . S
C638 C644 1.428 . S
H639 C635 0.930 . S
H640 C637 0.929 . S
S641 N642 1.613 . S
S641 N643 1.610 . S
N642 S641 1.613 . S
N642 C645 1.350 . S
N643 S641 1.610 . S
N643 C644 1.351 . S
C644 C638 1.428 . S
C644 N643 1.351 . S
C644 C645 1.434 . S
C645 C636 1.429 . S
C645 N642 1.350 . S
C645 C644 1.434 . S
C646 C647 1.369 1_655 S
C646 C648 1.419 . S
C646 H650 0.930 . S
C647 C646 1.369 1_455 S
C647 C656 1.429 . S
C648 C646 1.419 . S
C648 C649 1.363 . S
C648 H651 0.929 . S
C649 C648 1.363 . S
C649 C655 1.428 1_655 S
H650 C646 0.930 . S
H651 C648 0.929 . S
S652 N653 1.613 . S
S652 N654 1.610 . S
N653 S652 1.613 . S
N653 C656 1.350 . S
N654 S652 1.610 . S
N654 C655 1.351 . S
C655 C649 1.428 1_455 S
C655 N654 1.351 . S
C655 C656 1.434 . S
C656 C647 1.429 . S
C656 N653 1.350 . S
C656 C655 1.434 . S
C657 C658 1.369 . S
C657 C659 1.419 1_554 S
C657 H661 0.930 . S
C658 C657 1.369 . S
C658 C667 1.429 . S
C659 C657 1.419 1_556 S
C659 C660 1.363 . S
C659 H662 0.929 . S
C660 C659 1.363 . S
C660 C666 1.428 . S
H661 C657 0.930 . S
H662 C659 0.929 . S
S663 N664 1.613 . S
S663 N665 1.610 1_554 S
N664 S663 1.613 . S
N664 C667 1.350 . S
N665 S663 1.610 1_556 S
N665 C666 1.351 . S
C666 C660 1.428 . S
C666 N665 1.351 . S
C666 C667 1.434 1_556 S
C667 C658 1.429 . S
C667 N664 1.350 . S
C667 C666 1.434 1_554 S
C668 C669 1.369 . S
C668 C670 1.419 . S
C668 H672 0.930 . S
C669 C668 1.369 . S
C669 C678 1.429 . S
C670 C668 1.419 . S
C670 C671 1.363 . S
C670 H673 0.929 . S
C671 C670 1.363 . S
C671 C677 1.428 . S
H672 C668 0.930 . S
H673 C670 0.929 . S
S674 N675 1.613 . S
S674 N676 1.610 . S
N675 S674 1.613 . S
N675 C678 1.350 . S
N676 S674 1.610 . S
N676 C677 1.351 . S
C677 C671 1.428 . S
C677 N676 1.351 . S
C677 C678 1.434 . S
C678 C669 1.429 . S
C678 N675 1.350 . S
C678 C677 1.434 . S
C679 C680 1.369 . S
C679 C681 1.419 . S
C679 H683 0.930 . S
C680 C679 1.369 . S
C680 C689 1.429 . S
C681 C679 1.419 . S
C681 C682 1.363 . S
C681 H684 0.929 . S
C682 C681 1.363 . S
C682 C688 1.428 . S
H683 C679 0.930 . S
H684 C681 0.929 . S
S685 N686 1.613 . S
S685 N687 1.610 . S
N686 S685 1.613 . S
N686 C689 1.350 . S
N687 S685 1.610 . S
N687 C688 1.351 . S
C688 C682 1.428 . S
C688 N687 1.351 . S
C688 C689 1.434 . S
C689 C680 1.429 . S
C689 N686 1.350 . S
C689 C688 1.434 . S
C690 C691 1.369 . S
C690 C692 1.419 1_455 S
C690 H694 0.930 . S
C691 C690 1.369 . S
C691 C700 1.429 . S
C692 C690 1.419 1_655 S
C692 C693 1.363 . S
C692 H695 0.929 . S
C693 C692 1.363 . S
C693 C699 1.428 . S
H694 C690 0.930 . S
H695 C692 0.929 . S
S696 N697 1.613 . S
S696 N698 1.610 1_455 S
N697 S696 1.613 . S
N697 C700 1.350 . S
N698 S696 1.610 1_655 S
N698 C699 1.351 . S
C699 C693 1.428 . S
C699 N698 1.351 . S
C699 C700 1.434 1_655 S
C700 C691 1.429 . S
C700 N697 1.350 . S
C700 C699 1.434 1_455 S
C701 C702 1.369 . S
C701 C703 1.419 1_554 S
C701 H705 0.930 . S
C702 C701 1.369 . S
C702 C711 1.429 . S
C703 C701 1.419 1_556 S
C703 C704 1.363 . S
C703 H706 0.929 . S
C704 C703 1.363 . S
C704 C710 1.428 . S
H705 C701 0.930 . S
H706 C703 0.929 . S
S707 N708 1.613 1_556 S
S707 N709 1.610 . S
N708 S707 1.613 1_554 S
N708 C711 1.350 . S
N709 S707 1.610 . S
N709 C710 1.351 . S
C710 C704 1.428 . S
C710 N709 1.351 . S
C710 C711 1.434 1_556 S
C711 C702 1.429 . S
C711 N708 1.350 . S
C711 C710 1.434 1_554 S
C712 C713 1.369 . S
C712 C714 1.419 . S
C712 H716 0.930 . S
C713 C712 1.369 . S
C713 C722 1.429 . S
C714 C712 1.419 . S
C714 C715 1.363 . S
C714 H717 0.929 . S
C715 C714 1.363 . S
C715 C721 1.428 . S
H716 C712 0.930 . S
H717 C714 0.929 . S
S718 N719 1.613 . S
S718 N720 1.610 . S
N719 S718 1.613 . S
N719 C722 1.350 . S
N720 S718 1.610 . S
N720 C721 1.351 . S
C721 C715 1.428 . S
C721 N720 1.351 . S
C721 C722 1.434 . S
C722 C713 1.429 . S
C722 N719 1.350 . S
C722 C721 1.434 . S
C723 C724 1.369 . S
C723 C725 1.419 . S
C723 H727 0.930 . S
C724 C723 1.369 . S
C724 C733 1.429 . S
C725 C723 1.419 . S
C725 C726 1.363 . S
C725 H728 0.929 . S
C726 C725 1.363 . S
C726 C732 1.428 . S
H727 C723 0.930 . S
H728 C725 0.929 . S
S729 N730 1.613 . S
S729 N731 1.610 . S
N730 S729 1.613 . S
N730 C733 1.350 . S
N731 S729 1.610 . S
N731 C732 1.351 . S
C732 C726 1.428 . S
C732 N731 1.351 . S
C732 C733 1.434 . S
C733 C724 1.429 . S
C733 N730 1.350 . S
C733 C732 1.434 . S
C734 C735 1.369 . S
C734 C736 1.419 . S
C734 H738 0.930 . S
C735 C734 1.369 . S
C735 C744 1.429 1_455 S
C736 C734 1.419 . S
C736 C737 1.363 1_455 S
C736 H739 0.929 . S
C737 C736 1.363 1_655 S
C737 C743 1.428 . S
H738 C734 0.930 . S
H739 C736 0.929 . S
S740 N741 1.613 . S
S740 N742 1.610 . S
N741 S740 1.613 . S
N741 C744 1.350 . S
N742 S740 1.610 . S
N742 C743 1.351 . S
C743 C737 1.428 . S
C743 N742 1.351 . S
C743 C744 1.434 . S
C744 C735 1.429 1_655 S
C744 N741 1.350 . S
C744 C743 1.434 . S
C745 C746 1.369 . S
C745 C747 1.419 1_556 S
C745 H749 0.930 . S
C746 C745 1.369 . S
C746 C755 1.429 . S
C747 C745 1.419 1_554 S
C747 C748 1.363 . S
C747 H750 0.929 . S
C748 C747 1.363 . S
C748 C754 1.428 . S
H749 C745 0.930 . S
H750 C747 0.929 . S
S751 N752 1.613 1_554 S
S751 N753 1.610 . S
N752 S751 1.613 1_556 S
N752 C755 1.350 . S
N753 S751 1.610 . S
N753 C754 1.351 . S
C754 C748 1.428 . S
C754 N753 1.351 . S
C754 C755 1.434 1_554 S
C755 C746 1.429 . S
C755 N752 1.350 . S
C755 C754 1.434 1_556 S
C756 C757 1.369 . S
C756 C758 1.419 . S
C756 H760 0.930 . S
C757 C756 1.369 . S
C757 C766 1.429 . S
C758 C756 1.419 . S
C758 C759 1.363 . S
C758 H761 0.929 . S
C759 C758 1.363 . S
C759 C765 1.428 . S
H760 C756 0.930 . S
H761 C758 0.929 . S
S762 N763 1.613 . S
S762 N764 1.610 . S
N763 S762 1.613 . S
N763 C766 1.350 . S
N764 S762 1.610 . S
N764 C765 1.351 . S
C765 C759 1.428 . S
C765 N764 1.351 . S
C765 C766 1.434 . S
C766 C757 1.429 . S
C766 N763 1.350 . S
C766 C765 1.434 . S
C767 C768 1.369 . S
C767 C769 1.419 . S
C767 H771 0.930 . S
C768 C767 1.369 . S
C768 C777 1.429 . S
C769 C767 1.419 . S
C769 C770 1.363 . S
C769 H772 0.929 . S
C770 C769 1.363 . S
C770 C776 1.428 . S
H771 C767 0.930 . S
H772 C769 0.929 . S
S773 N774 1.613 . S
S773 N775 1.610 . S
N774 S773 1.613 . S
N774 C777 1.350 . S
N775 S773 1.610 . S
N775 C776 1.351 . S
C776 C770 1.428 . S
C776 N775 1.351 . S
C776 C777 1.434 . S
C777 C768 1.429 . S
C777 N774 1.350 . S
C777 C776 1.434 . S
C778 C779 1.369 1_455 S
C778 C780 1.419 . S
C778 H782 0.930 . S
C779 C778 1.369 1_655 S
C779 C788 1.429 . S
C780 C778 1.419 . S
C780 C781 1.363 . S
C780 H783 0.929 . S
C781 C780 1.363 . S
C781 C787 1.428 1_455 S
H782 C778 0.930 . S
H783 C780 0.929 . S
S784 N785 1.613 . S
S784 N786 1.610 . S
N785 S784 1.613 . S
N785 C788 1.350 . S
N786 S784 1.610 . S
N786 C787 1.351 . S
C787 C781 1.428 1_655 S
C787 N786 1.351 . S
C787 C788 1.434 . S
C788 C779 1.429 . S
C788 N785 1.350 . S
C788 C787 1.434 . S
C789 C790 1.369 . S
C789 C791 1.419 1_554 S
C789 H793 0.930 . S
C790 C789 1.369 . S
C790 C799 1.429 . S
C791 C789 1.419 1_556 S
C791 C792 1.363 . S
C791 H794 0.929 . S
C792 C791 1.363 . S
C792 C798 1.428 . S
H793 C789 0.930 . S
H794 C791 0.929 . S
S795 N796 1.613 . S
S795 N797 1.610 1_554 S
N796 S795 1.613 . S
N796 C799 1.350 . S
N797 S795 1.610 1_556 S
N797 C798 1.351 . S
C798 C792 1.428 . S
C798 N797 1.351 . S
C798 C799 1.434 1_556 S
C799 C790 1.429 . S
C799 N796 1.350 . S
C799 C798 1.434 1_554 S
C800 C801 1.369 . S
C800 C802 1.419 1_445 S
C800 H804 0.930 . S
C801 C800 1.369 . S
C801 C810 1.429 1_554 S
C802 C800 1.419 1_665 S
C802 C803 1.363 1_554 S
C802 H805 0.929 . S
C803 C802 1.363 1_556 S
C803 C809 1.428 . S
H804 C800 0.930 . S
H805 C802 0.929 . S
S806 N807 1.613 . S
S806 N808 1.610 1_445 S
N807 S806 1.613 . S
N807 C810 1.350 . S
N808 S806 1.610 1_665 S
N808 C809 1.351 . S
C809 C803 1.428 . S
C809 N808 1.351 . S
C809 C810 1.434 1_665 S
C810 C801 1.429 1_556 S
C810 N807 1.350 . S
C810 C809 1.434 1_445 S
C811 C812 1.369 . S
C811 C813 1.419 . S
C811 H815 0.930 . S
C812 C811 1.369 . S
C812 C821 1.429 . S
C813 C811 1.419 . S
C813 C814 1.363 . S
C813 H816 0.929 . S
C814 C813 1.363 . S
C814 C820 1.428 . S
H815 C811 0.930 . S
H816 C813 0.929 . S
S817 N818 1.613 . S
S817 N819 1.610 . S
N818 S817 1.613 . S
N818 C821 1.350 . S
N819 S817 1.610 . S
N819 C820 1.351 . S
C820 C814 1.428 . S
C820 N819 1.351 . S
C820 C821 1.434 . S
C821 C812 1.429 . S
C821 N818 1.350 . S
C821 C820 1.434 . S
C822 C823 1.369 . S
C822 C824 1.423 . S
C822 H826 0.930 . S
C823 C822 1.369 . S
C823 C832 1.387 1_545 S
C824 C822 1.423 . S
C824 C825 1.358 1_545 S
C824 H827 0.930 . S
C825 C824 1.358 1_565 S
C825 C831 1.428 . S
H826 C822 0.930 . S
H827 C824 0.930 . S
S828 N829 1.613 . S
S828 N830 1.610 . S
N829 S828 1.613 . S
N829 C832 1.358 . S
N830 S828 1.610 . S
N830 C831 1.351 . S
C831 C825 1.428 . S
C831 N830 1.351 . S
C831 C832 1.474 . S
C832 C823 1.387 1_565 S
C832 N829 1.358 . S
C832 C831 1.474 . S
C833 C834 1.369 . S
C833 C835 1.419 . S
C833 H837 0.930 . S
C834 C833 1.369 . S
C834 C843 1.429 . S
C835 C833 1.419 . S
C835 C836 1.363 . S
C835 H838 0.929 . S
C836 C835 1.363 . S
C836 C842 1.428 . S
H837 C833 0.930 . S
H838 C835 0.929 . S
S839 N840 1.613 . S
S839 N841 1.610 . S
N840 S839 1.613 . S
N840 C843 1.350 . S
N841 S839 1.610 . S
N841 C842 1.351 . S
C842 C836 1.428 . S
C842 N841 1.351 . S
C842 C843 1.434 . S
C843 C834 1.429 . S
C843 N840 1.350 . S
C843 C842 1.434 . S
C844 C845 1.369 . S
C844 C846 1.419 1_465 S
C844 H848 0.930 . S
C845 C844 1.369 . S
C845 C854 1.429 . S
C846 C844 1.419 1_645 S
C846 C847 1.363 . S
C846 H849 0.929 . S
C847 C846 1.363 . S
C847 C853 1.428 . S
H848 C844 0.930 . S
H849 C846 0.929 . S
S850 N851 1.613 1_645 S
S850 N852 1.610 . S
N851 S850 1.613 1_465 S
N851 C854 1.350 . S
N852 S850 1.610 . S
N852 C853 1.351 . S
C853 C847 1.428 . S
C853 N852 1.351 . S
C853 C854 1.434 1_645 S
C854 C845 1.429 . S
C854 N851 1.350 . S
C854 C853 1.434 1_465 S
C855 C856 1.369 . S
C855 C857 1.419 . S
C855 H859 0.930 . S
C856 C855 1.369 . S
C856 C865 1.429 . S
C857 C855 1.419 . S
C857 C858 1.363 . S
C857 H860 0.929 . S
C858 C857 1.363 . S
C858 C864 1.428 . S
H859 C855 0.930 . S
H860 C857 0.929 . S
S861 N862 1.613 . S
S861 N863 1.610 . S
N862 S861 1.613 . S
N862 C865 1.350 . S
N863 S861 1.610 . S
N863 C864 1.351 . S
C864 C858 1.428 . S
C864 N863 1.351 . S
C864 C865 1.434 . S
C865 C856 1.429 . S
C865 N862 1.350 . S
C865 C864 1.434 . S
C866 C867 1.369 . S
C866 C868 1.419 1_565 S
C866 H870 0.930 . S
C867 C866 1.369 . S
C867 C876 1.429 1_554 S
C868 C866 1.419 1_545 S
C868 C869 1.363 1_554 S
C868 H871 0.929 . S
C869 C868 1.363 1_556 S
C869 C875 1.428 . S
H870 C866 0.930 . S
H871 C868 0.929 . S
S872 N873 1.613 1_545 S
S872 N874 1.610 . S
N873 S872 1.613 1_565 S
N873 C876 1.350 . S
N874 S872 1.610 . S
N874 C875 1.351 . S
C875 C869 1.428 . S
C875 N874 1.351 . S
C875 C876 1.434 1_545 S
C876 C867 1.429 1_556 S
C876 N873 1.350 . S
C876 C875 1.434 1_565 S
C877 C878 1.369 . S
C877 C879 1.419 . S
C877 H881 0.930 . S
C878 C877 1.369 . S
C878 C887 1.429 . S
C879 C877 1.419 . S
C879 C880 1.363 . S
C879 H882 0.929 . S
C880 C879 1.363 . S
C880 C886 1.428 . S
H881 C877 0.930 . S
H882 C879 0.929 . S
S883 N884 1.613 . S
S883 N885 1.610 . S
N884 S883 1.613 . S
N884 C887 1.350 . S
N885 S883 1.610 . S
N885 C886 1.351 . S
C886 C880 1.428 . S
C886 N885 1.351 . S
C886 C887 1.434 . S
C887 C878 1.429 . S
C887 N884 1.350 . S
C887 C886 1.434 . S
C888 C889 1.369 . S
C888 C890 1.419 . S
C888 H892 0.930 . S
C889 C888 1.369 . S
C889 C898 1.429 . S
C890 C888 1.419 . S
C890 C891 1.363 . S
C890 H893 0.929 . S
C891 C890 1.363 . S
C891 C897 1.428 . S
H892 C888 0.930 . S
H893 C890 0.929 . S
S894 N895 1.613 . S
S894 N896 1.610 . S
N895 S894 1.613 . S
N895 C898 1.350 . S
N896 S894 1.610 . S
N896 C897 1.351 . S
C897 C891 1.428 . S
C897 N896 1.351 . S
C897 C898 1.434 . S
C898 C889 1.429 . S
C898 N895 1.350 . S
C898 C897 1.434 . S
C899 C900 1.369 . S
C899 C901 1.419 . S
C899 H903 0.930 . S
C900 C899 1.369 . S
C900 C909 1.429 . S
C901 C899 1.419 . S
C901 C902 1.363 . S
C901 H904 0.929 . S
C902 C901 1.363 . S
C902 C908 1.428 . S
H903 C899 0.930 . S
H904 C901 0.929 . S
S905 N906 1.613 . S
S905 N907 1.610 . S
N906 S905 1.613 . S
N906 C909 1.350 . S
N907 S905 1.610 . S
N907 C908 1.351 . S
C908 C902 1.428 . S
C908 N907 1.351 . S
C908 C909 1.434 . S
C909 C900 1.429 . S
C909 N906 1.350 . S
C909 C908 1.434 . S
C910 C911 1.369 . S
C910 C912 1.419 . S
C910 H914 0.930 . S
C911 C910 1.369 . S
C911 C920 1.429 . S
C912 C910 1.419 . S
C912 C913 1.363 . S
C912 H915 0.929 . S
C913 C912 1.363 . S
C913 C919 1.428 . S
H914 C910 0.930 . S
H915 C912 0.929 . S
S916 N917 1.613 . S
S916 N918 1.610 . S
N917 S916 1.613 . S
N917 C920 1.350 . S
N918 S916 1.610 . S
N918 C919 1.351 . S
C919 C913 1.428 . S
C919 N918 1.351 . S
C919 C920 1.434 . S
C920 C911 1.429 . S
C920 N917 1.350 . S
C920 C919 1.434 . S
C921 C922 1.369 . S
C921 C923 1.419 . S
C921 H925 0.930 . S
C922 C921 1.369 . S
C922 C931 1.429 . S
C923 C921 1.419 . S
C923 C924 1.363 . S
C923 H926 0.929 . S
C924 C923 1.363 . S
C924 C930 1.428 . S
H925 C921 0.930 . S
H926 C923 0.929 . S
S927 N928 1.613 . S
S927 N929 1.610 . S
N928 S927 1.613 . S
N928 C931 1.350 . S
N929 S927 1.610 . S
N929 C930 1.351 . S
C930 C924 1.428 . S
C930 N929 1.351 . S
C930 C931 1.434 . S
C931 C922 1.429 . S
C931 N928 1.350 . S
C931 C930 1.434 . S
C932 C933 1.369 . S
C932 C934 1.419 . S
C932 H936 0.930 . S
C933 C932 1.369 . S
C933 C942 1.429 . S
C934 C932 1.419 . S
C934 C935 1.363 . S
C934 H937 0.929 . S
C935 C934 1.363 . S
C935 C941 1.428 . S
H936 C932 0.930 . S
H937 C934 0.929 . S
S938 N939 1.613 . S
S938 N940 1.610 . S
N939 S938 1.613 . S
N939 C942 1.350 . S
N940 S938 1.610 . S
N940 C941 1.351 . S
C941 C935 1.428 . S
C941 N940 1.351 . S
C941 C942 1.434 . S
C942 C933 1.429 . S
C942 N939 1.350 . S
C942 C941 1.434 . S
C943 C944 1.369 1_455 S
C943 C945 1.419 . S
C943 H947 0.930 . S
C944 C943 1.369 1_655 S
C944 C953 1.429 1_554 S
C945 C943 1.419 . S
C945 C946 1.363 1_554 S
C945 H948 0.929 . S
C946 C945 1.363 1_556 S
C946 C952 1.428 1_455 S
H947 C943 0.930 . S
H948 C945 0.929 . S
S949 N950 1.613 . S
S949 N951 1.610 . S
N950 S949 1.613 . S
N950 C953 1.350 . S
N951 S949 1.610 . S
N951 C952 1.351 . S
C952 C946 1.428 1_655 S
C952 N951 1.351 . S
C952 C953 1.434 . S
C953 C944 1.429 1_556 S
C953 N950 1.350 . S
C953 C952 1.434 . S
C954 C955 1.369 1_554 S
C954 C956 1.419 . S
C954 H958 0.930 . S
C955 C954 1.369 1_556 S
C955 C964 1.429 . S
C956 C954 1.419 . S
C956 C957 1.363 . S
C956 H959 0.929 . S
C957 C956 1.363 . S
C957 C963 1.428 1_554 S
H958 C954 0.930 . S
H959 C956 0.929 . S
S960 N961 1.613 . S
S960 N962 1.610 . S
N961 S960 1.613 . S
N961 C964 1.350 . S
N962 S960 1.610 . S
N962 C963 1.351 . S
C963 C957 1.428 1_556 S
C963 N962 1.351 . S
C963 C964 1.434 . S
C964 C955 1.429 . S
C964 N961 1.350 . S
C964 C963 1.434 . S
C965 C966 1.369 . S
C965 C967 1.419 1_455 S
C965 H969 0.930 . S
C966 C965 1.369 . S
C966 C975 1.429 . S
C967 C965 1.419 1_655 S
C967 C968 1.363 . S
C967 H970 0.929 . S
C968 C967 1.363 . S
C968 C974 1.428 . S
H969 C965 0.930 . S
H970 C967 0.929 . S
S971 N972 1.613 . S
S971 N973 1.610 1_455 S
N972 S971 1.613 . S
N972 C975 1.350 . S
N973 S971 1.610 1_655 S
N973 C974 1.351 . S
C974 C968 1.428 . S
C974 N973 1.351 . S
C974 C975 1.434 1_655 S
C975 C966 1.429 . S
C975 N972 1.350 . S
C975 C974 1.434 1_455 S
C976 C977 1.369 . S
C976 C978 1.419 . S
C976 H980 0.930 . S
C977 C976 1.369 . S
C977 C986 1.429 . S
C978 C976 1.419 . S
C978 C979 1.363 . S
C978 H981 0.929 . S
C979 C978 1.363 . S
C979 C985 1.428 . S
H980 C976 0.930 . S
H981 C978 0.929 . S
S982 N983 1.613 . S
S982 N984 1.610 . S
N983 S982 1.613 . S
N983 C986 1.350 . S
N984 S982 1.610 . S
N984 C985 1.351 . S
C985 C979 1.428 . S
C985 N984 1.351 . S
C985 C986 1.434 . S
C986 C977 1.429 . S
C986 N983 1.350 . S
C986 C985 1.434 . S
C987 C988 1.369 . S
C987 C989 1.419 . S
C987 H991 0.930 . S
C988 C987 1.369 . S
C988 C997 1.429 . S
C989 C987 1.419 . S
C989 C990 1.363 . S
C989 H992 0.929 . S
C990 C989 1.363 . S
C990 C996 1.428 . S
H991 C987 0.930 . S
H992 C989 0.929 . S
S993 N994 1.613 . S
S993 N995 1.610 . S
N994 S993 1.613 . S
N994 C997 1.350 . S
N995 S993 1.610 . S
N995 C996 1.351 . S
C996 C990 1.428 . S
C996 N995 1.351 . S
C996 C997 1.434 . S
C997 C988 1.429 . S
C997 N994 1.350 . S
C997 C996 1.434 . S
C998 C999 1.369 . S
C998 C1000 1.419 . S
C998 H1002 0.930 . S
C999 C998 1.369 . S
C999 C1008 1.429 . S
C1000 C998 1.419 . S
C1000 C1001 1.363 . S
C1000 H1003 0.929 . S
C1001 C1000 1.363 . S
C1001 C1007 1.428 . S
H1002 C998 0.930 . S
H1003 C1000 0.929 . S
S1004 N1005 1.613 . S
S1004 N1006 1.610 . S
N1005 S1004 1.613 . S
N1005 C1008 1.350 . S
N1006 S1004 1.610 . S
N1006 C1007 1.351 . S
C1007 C1001 1.428 . S
C1007 N1006 1.351 . S
C1007 C1008 1.434 . S
C1008 C999 1.429 . S
C1008 N1005 1.350 . S
C1008 C1007 1.434 . S
C1009 C1010 1.369 . S
C1009 C1011 1.419 . S
C1009 H1013 0.930 . S
C1010 C1009 1.369 . S
C1010 C1019 1.429 . S
C1011 C1009 1.419 . S
C1011 C1012 1.363 . S
C1011 H1014 0.929 . S
C1012 C1011 1.363 . S
C1012 C1018 1.428 . S
H1013 C1009 0.930 . S
H1014 C1011 0.929 . S
S1015 N1016 1.613 . S
S1015 N1017 1.610 . S
N1016 S1015 1.613 . S
N1016 C1019 1.350 . S
N1017 S1015 1.610 . S
N1017 C1018 1.351 . S
C1018 C1012 1.428 . S
C1018 N1017 1.351 . S
C1018 C1019 1.434 . S
C1019 C1010 1.429 . S
C1019 N1016 1.350 . S
C1019 C1018 1.434 . S
C1020 C1021 1.369 . S
C1020 C1022 1.419 . S
C1020 H1024 0.930 . S
C1021 C1020 1.369 . S
C1021 C1030 1.429 . S
C1022 C1020 1.419 . S
C1022 C1023 1.363 . S
C1022 H1025 0.929 . S
C1023 C1022 1.363 . S
C1023 C1029 1.428 . S
H1024 C1020 0.930 . S
H1025 C1022 0.929 . S
S1026 N1027 1.613 . S
S1026 N1028 1.610 . S
N1027 S1026 1.613 . S
N1027 C1030 1.350 . S
N1028 S1026 1.610 . S
N1028 C1029 1.351 . S
C1029 C1023 1.428 . S
C1029 N1028 1.351 . S
C1029 C1030 1.434 . S
C1030 C1021 1.429 . S
C1030 N1027 1.350 . S
C1030 C1029 1.434 . S
C1031 C1032 1.369 . S
C1031 C1033 1.419 . S
C1031 H1035 0.930 . S
C1032 C1031 1.369 . S
C1032 C1041 1.429 . S
C1033 C1031 1.419 . S
C1033 C1034 1.363 . S
C1033 H1036 0.929 . S
C1034 C1033 1.363 . S
C1034 C1040 1.428 . S
H1035 C1031 0.930 . S
H1036 C1033 0.929 . S
S1037 N1038 1.613 . S
S1037 N1039 1.610 . S
N1038 S1037 1.613 . S
N1038 C1041 1.350 . S
N1039 S1037 1.610 . S
N1039 C1040 1.351 . S
C1040 C1034 1.428 . S
C1040 N1039 1.351 . S
C1040 C1041 1.434 . S
C1041 C1032 1.429 . S
C1041 N1038 1.350 . S
C1041 C1040 1.434 . S
C1042 C1043 1.369 . S
C1042 C1044 1.419 . S
C1042 H1046 0.930 . S
C1043 C1042 1.369 . S
C1043 C1052 1.429 . S
C1044 C1042 1.419 . S
C1044 C1045 1.363 . S
C1044 H1047 0.929 . S
C1045 C1044 1.363 . S
C1045 C1051 1.428 . S
H1046 C1042 0.930 . S
H1047 C1044 0.929 . S
S1048 N1049 1.613 . S
S1048 N1050 1.610 . S
N1049 S1048 1.613 . S
N1049 C1052 1.350 . S
N1050 S1048 1.610 . S
N1050 C1051 1.351 . S
C1051 C1045 1.428 . S
C1051 N1050 1.351 . S
C1051 C1052 1.434 . S
C1052 C1043 1.429 . S
C1052 N1049 1.350 . S
C1052 C1051 1.434 . S
C1053 C1054 1.369 . S
C1053 C1055 1.419 . S
C1053 H1057 0.930 . S
C1054 C1053 1.369 . S
C1054 C1063 1.429 . S
C1055 C1053 1.419 . S
C1055 C1056 1.363 . S
C1055 H1058 0.929 . S
C1056 C1055 1.363 . S
C1056 C1062 1.428 . S
H1057 C1053 0.930 . S
H1058 C1055 0.929 . S
S1059 N1060 1.613 . S
S1059 N1061 1.610 . S
N1060 S1059 1.613 . S
N1060 C1063 1.350 . S
N1061 S1059 1.610 . S
N1061 C1062 1.351 . S
C1062 C1056 1.428 . S
C1062 N1061 1.351 . S
C1062 C1063 1.434 . S
C1063 C1054 1.429 . S
C1063 N1060 1.350 . S
C1063 C1062 1.434 . S
C1064 C1065 1.369 . S
C1064 C1066 1.419 . S
C1064 H1068 0.930 . S
C1065 C1064 1.369 . S
C1065 C1074 1.429 . S
C1066 C1064 1.419 . S
C1066 C1067 1.363 . S
C1066 H1069 0.929 . S
C1067 C1066 1.363 . S
C1067 C1073 1.428 . S
H1068 C1064 0.930 . S
H1069 C1066 0.929 . S
S1070 N1071 1.613 . S
S1070 N1072 1.610 . S
N1071 S1070 1.613 . S
N1071 C1074 1.350 . S
N1072 S1070 1.610 . S
N1072 C1073 1.351 . S
C1073 C1067 1.428 . S
C1073 N1072 1.351 . S
C1073 C1074 1.434 . S
C1074 C1065 1.429 . S
C1074 N1071 1.350 . S
C1074 C1073 1.434 . S
C1075 C1076 1.369 . S
C1075 C1077 1.419 . S
C1075 H1079 0.930 . S
C1076 C1075 1.369 . S
C1076 C1085 1.429 . S
C1077 C1075 1.419 . S
C1077 C1078 1.363 . S
C1077 H1080 0.929 . S
C1078 C1077 1.363 . S
C1078 C1084 1.428 . S
H1079 C1075 0.930 . S
H1080 C1077 0.929 . S
S1081 N1082 1.613 . S
S1081 N1083 1.610 . S
N1082 S1081 1.613 . S
N1082 C1085 1.350 . S
N1083 S1081 1.610 . S
N1083 C1084 1.351 . S
C1084 C1078 1.428 . S
C1084 N1083 1.351 . S
C1084 C1085 1.434 . S
C1085 C1076 1.429 . S
C1085 N1082 1.350 . S
C1085 C1084 1.434 . S
C1086 C1087 1.369 . S
C1086 C1088 1.419 . S
C1086 H1090 0.930 . S
C1087 C1086 1.369 . S
C1087 C1096 1.429 . S
C1088 C1086 1.419 . S
C1088 C1089 1.363 . S
C1088 H1091 0.929 . S
C1089 C1088 1.363 . S
C1089 C1095 1.428 . S
H1090 C1086 0.930 . S
H1091 C1088 0.929 . S
S1092 N1093 1.613 . S
S1092 N1094 1.610 . S
N1093 S1092 1.613 . S
N1093 C1096 1.350 . S
N1094 S1092 1.610 . S
N1094 C1095 1.351 . S
C1095 C1089 1.428 . S
C1095 N1094 1.351 . S
C1095 C1096 1.434 . S
C1096 C1087 1.429 . S
C1096 N1093 1.350 . S
C1096 C1095 1.434 . S
C1097 C1098 1.369 . S
C1097 C1099 1.419 . S
C1097 H1101 0.930 . S
C1098 C1097 1.369 . S
C1098 C1107 1.429 . S
C1099 C1097 1.419 . S
C1099 C1100 1.363 . S
C1099 H1102 0.929 . S
C1100 C1099 1.363 . S
C1100 C1106 1.428 . S
H1101 C1097 0.930 . S
H1102 C1099 0.929 . S
S1103 N1104 1.613 . S
S1103 N1105 1.610 . S
N1104 S1103 1.613 . S
N1104 C1107 1.350 . S
N1105 S1103 1.610 . S
N1105 C1106 1.351 . S
C1106 C1100 1.428 . S
C1106 N1105 1.351 . S
C1106 C1107 1.434 . S
C1107 C1098 1.429 . S
C1107 N1104 1.350 . S
C1107 C1106 1.434 . S
C1108 C1109 1.369 . S
C1108 C1110 1.419 . S
C1108 H1112 0.930 . S
C1109 C1108 1.369 . S
C1109 C1118 1.429 . S
C1110 C1108 1.419 . S
C1110 C1111 1.363 . S
C1110 H1113 0.929 . S
C1111 C1110 1.363 . S
C1111 C1117 1.428 . S
H1112 C1108 0.930 . S
H1113 C1110 0.929 . S
S1114 N1115 1.613 . S
S1114 N1116 1.610 . S
N1115 S1114 1.613 . S
N1115 C1118 1.350 . S
N1116 S1114 1.610 . S
N1116 C1117 1.351 . S
C1117 C1111 1.428 . S
C1117 N1116 1.351 . S
C1117 C1118 1.434 . S
C1118 C1109 1.429 . S
C1118 N1115 1.350 . S
C1118 C1117 1.434 . S
C1119 C1120 1.369 . S
C1119 C1121 1.419 . S
C1119 H1123 0.930 . S
C1120 C1119 1.369 . S
C1120 C1129 1.429 . S
C1121 C1119 1.419 . S
C1121 C1122 1.363 . S
C1121 H1124 0.929 . S
C1122 C1121 1.363 . S
C1122 C1128 1.428 . S
H1123 C1119 0.930 . S
H1124 C1121 0.929 . S
S1125 N1126 1.613 . S
S1125 N1127 1.610 . S
N1126 S1125 1.613 . S
N1126 C1129 1.350 . S
N1127 S1125 1.610 . S
N1127 C1128 1.351 . S
C1128 C1122 1.428 . S
C1128 N1127 1.351 . S
C1128 C1129 1.434 . S
C1129 C1120 1.429 . S
C1129 N1126 1.350 . S
C1129 C1128 1.434 . S
C1130 C1131 1.369 . S
C1130 C1132 1.419 . S
C1130 H1134 0.930 . S
C1131 C1130 1.369 . S
C1131 C1140 1.429 . S
C1132 C1130 1.419 . S
C1132 C1133 1.363 . S
C1132 H1135 0.929 . S
C1133 C1132 1.363 . S
C1133 C1139 1.428 . S
H1134 C1130 0.930 . S
H1135 C1132 0.929 . S
S1136 N1137 1.613 . S
S1136 N1138 1.610 . S
N1137 S1136 1.613 . S
N1137 C1140 1.350 . S
N1138 S1136 1.610 . S
N1138 C1139 1.351 . S
C1139 C1133 1.428 . S
C1139 N1138 1.351 . S
C1139 C1140 1.434 . S
C1140 C1131 1.429 . S
C1140 N1137 1.350 . S
C1140 C1139 1.434 . S
C1141 C1142 1.369 . S
C1141 C1143 1.419 . S
C1141 H1145 0.930 . S
C1142 C1141 1.369 . S
C1142 C1151 1.429 . S
C1143 C1141 1.419 . S
C1143 C1144 1.363 . S
C1143 H1146 0.929 . S
C1144 C1143 1.363 . S
C1144 C1150 1.428 . S
H1145 C1141 0.930 . S
H1146 C1143 0.929 . S
S1147 N1148 1.613 . S
S1147 N1149 1.610 . S
N1148 S1147 1.613 . S
N1148 C1151 1.350 . S
N1149 S1147 1.610 . S
N1149 C1150 1.351 . S
C1150 C1144 1.428 . S
C1150 N1149 1.351 . S
C1150 C1151 1.434 . S
C1151 C1142 1.429 . S
C1151 N1148 1.350 . S
C1151 C1150 1.434 . S
C449 C176 1.254 . S
C451 C7 1.274 . S
C460 C414 1.264 . S
C462 C21 1.275 . S
C471 C204 1.265 . S
C473 C35 1.278 . S
C482 C442 1.263 . S
C484 C49 1.279 . S
C493 C120 1.257 . S
C495 C63 1.272 . S
C504 C77 1.273 . S
C506 C358 1.255 . S
C515 C91 1.280 . S
C517 C148 1.260 . S
C526 C386 1.264 . S
C528 C105 1.278 . S
C537 C64 1.257 . S
C539 C119 1.278 . S
C548 C302 1.255 . S
C550 C133 1.272 . S
C559 C92 1.264 . S
C561 C147 1.279 . S
C570 C330 1.265 . S
C572 C161 1.277 . S
C581 C175 1.279 . S
C583 C8 1.259 . S
C592 C189 1.272 . S
C594 C246 1.255 . S
C603 C36 1.263 . S
C605 C203 1.274 . S
C614 C217 1.272 . S
C616 C274 1.255 . S
C625 C400 1.256 . S
C627 C231 1.277 . S
C636 C190 1.261 . S
C638 C245 1.279 . S
C647 C428 1.259 . S
C649 C259 1.278 . S
C658 C273 1.273 . S
C660 C218 1.261 . S
C669 C287 1.272 . S
C671 C344 1.259 . S
C680 C301 1.279 . S
C682 C134 1.263 . S
C691 C372 1.260 . S
C693 C315 1.279 . S
C702 C162 1.254 . S
C704 C329 1.275 . S
C713 C288 1.260 . S
C715 C343 1.279 . S
C724 C357 1.271 . S
C726 C78 1.256 . S
C735 C371 1.278 . S
C737 C316 1.257 . S
C746 C385 1.280 . S
C748 C106 1.262 . S
C757 C232 1.259 . S
C759 C399 1.279 . S
C768 C22 1.255 . S
C770 C413 1.276 . S
C779 C260 1.255 . S
C781 C427 1.277 . S
C790 C441 1.273 . S
C792 C50 1.255 . S
C801 C9 1.350 . S
C803 C121 1.359 . S
C812 C23 1.348 . S
C814 C359 1.361 . S
C823 C149 1.361 . S
C825 C37 1.351 . S
C834 C51 1.356 . S
C836 C387 1.354 . S
C845 C65 1.360 . S
C847 C177 1.353 . S
C856 C415 1.348 . S
C858 C79 1.360 . S
C867 C205 1.358 . S
C869 C93 1.354 . S
C878 C107 1.348 . S
C880 C443 1.360 . S
C889 C135 1.348 . S
C891 C247 1.361 . S
C900 C163 1.355 . S
C902 C275 1.355 . S
C911 C191 1.359 . S
C913 C303 1.352 . S
C922 C331 1.354 . S
C924 C219 1.356 . S
C933 C233 1.356 . S
C935 C345 1.356 . S
C944 C261 1.358 . S
C946 C373 1.353 . S
C955 C289 1.363 . S
C957 C401 1.350 . S
C966 C429 1.355 . S
C968 C317 1.357 . S
C977 C6 1.429 . S
C979 C104 1.435 . S
C988 C20 1.438 . S
C990 C62 1.433 . S
C999 C76 1.429 . S
C1001 C34 1.436 . S
C1010 C90 1.432 . S
C1012 C48 1.437 . S
C1021 C216 1.437 . S
C1023 C118 1.433 . S
C1032 C174 1.430 . S
C1034 C132 1.435 . S
C1043 C188 1.436 . S
C1045 C146 1.434 . S
C1054 C202 1.433 . S
C1056 C160 1.432 . S
C1065 C230 1.430 . S
C1067 C328 1.434 . S
C1076 C286 1.435 . S
C1078 C244 1.436 . S
C1087 C300 1.438 . S
C1089 C258 1.430 . S
C1098 C314 1.437 . S
C1100 C272 1.434 . S
C1109 C440 1.438 . S
C1111 C342 1.430 . S
C1120 C356 1.434 . S
C1122 C398 1.435 . S
C1131 C370 1.435 . S
C1133 C412 1.431 . S
C1142 C426 1.431 . S
C1144 C384 1.433 . S
