# Generated by pormake.
# Topology can, (4)-cn, num edge types: 1
# Building blocks:
#     Node 0, Type 0, BuildingBlock: TATPOV_clean_sbu_0, # of connection points: 4
#     Node 1, Type 0, BuildingBlock: TATPOV_clean_sbu_0, # of connection points: 4
#     Node 2, Type 0, BuildingBlock: TATPOV_clean_sbu_0, # of connection points: 4
#     Node 3, Type 0, BuildingBlock: TATPOV_clean_sbu_0, # of connection points: 4
#     Node 4, Type 0, BuildingBlock: TATPOV_clean_sbu_0, # of connection points: 4
#     Node 5, Type 0, BuildingBlock: TATPOV_clean_sbu_0, # of connection points: 4
#     Node 6, Type 0, BuildingBlock: TATPOV_clean_sbu_0, # of connection points: 4
#     Node 7, Type 0, BuildingBlock: TATPOV_clean_sbu_0, # of connection points: 4
#     Node 8, Type 0, BuildingBlock: TATPOV_clean_sbu_0, # of connection points: 4
#     Node 9, Type 0, BuildingBlock: TATPOV_clean_sbu_0, # of connection points: 4
#     Node 10, Type 0, BuildingBlock: TATPOV_clean_sbu_0, # of connection points: 4
#     Node 11, Type 0, BuildingBlock: TATPOV_clean_sbu_0, # of connection points: 4
#     Edge 12, Type (0, 0), BuildingBlock: ZUJKAS_clean_linker_0, # of connection points: 2
#     Edge 13, Type (0, 0), BuildingBlock: ZUJKAS_clean_linker_0, # of connection points: 2
#     Edge 14, Type (0, 0), BuildingBlock: ZUJKAS_clean_linker_0, # of connection points: 2
#     Edge 15, Type (0, 0), BuildingBlock: ZUJKAS_clean_linker_0, # of connection points: 2
#     Edge 16, Type (0, 0), BuildingBlock: ZUJKAS_clean_linker_0, # of connection points: 2
#     Edge 17, Type (0, 0), BuildingBlock: ZUJKAS_clean_linker_0, # of connection points: 2
#     Edge 18, Type (0, 0), BuildingBlock: ZUJKAS_clean_linker_0, # of connection points: 2
#     Edge 19, Type (0, 0), BuildingBlock: ZUJKAS_clean_linker_0, # of connection points: 2
#     Edge 20, Type (0, 0), BuildingBlock: ZUJKAS_clean_linker_0, # of connection points: 2
#     Edge 21, Type (0, 0), BuildingBlock: ZUJKAS_clean_linker_0, # of connection points: 2
#     Edge 22, Type (0, 0), BuildingBlock: ZUJKAS_clean_linker_0, # of connection points: 2
#     Edge 23, Type (0, 0), BuildingBlock: ZUJKAS_clean_linker_0, # of connection points: 2
#     Edge 24, Type (0, 0), BuildingBlock: ZUJKAS_clean_linker_0, # of connection points: 2
#     Edge 25, Type (0, 0), BuildingBlock: ZUJKAS_clean_linker_0, # of connection points: 2
#     Edge 26, Type (0, 0), BuildingBlock: ZUJKAS_clean_linker_0, # of connection points: 2
#     Edge 27, Type (0, 0), BuildingBlock: ZUJKAS_clean_linker_0, # of connection points: 2
#     Edge 28, Type (0, 0), BuildingBlock: ZUJKAS_clean_linker_0, # of connection points: 2
#     Edge 29, Type (0, 0), BuildingBlock: ZUJKAS_clean_linker_0, # of connection points: 2
#     Edge 30, Type (0, 0), BuildingBlock: ZUJKAS_clean_linker_0, # of connection points: 2
#     Edge 31, Type (0, 0), BuildingBlock: ZUJKAS_clean_linker_0, # of connection points: 2
#     Edge 32, Type (0, 0), BuildingBlock: ZUJKAS_clean_linker_0, # of connection points: 2
#     Edge 33, Type (0, 0), BuildingBlock: ZUJKAS_clean_linker_0, # of connection points: 2
#     Edge 34, Type (0, 0), BuildingBlock: ZUJKAS_clean_linker_0, # of connection points: 2
#     Edge 35, Type (0, 0), BuildingBlock: ZUJKAS_clean_linker_0, # of connection points: 2
# Relax obj value: 0.056
# Max RMSD: 0.071
# Mean RMSD: 0.071
data_MOF--net-can--node1-TATPOV_clean_sbu_0--edge1-ZUJKAS_clean_linker_0
_symmetry_space_group_name_H-M    P1
_symmetry_Int_Tables_number       1
_symmetry_cell_setting            triclinic
loop_
_symmetry_equiv_pos_as_xyz
'x, y, z'
_cell_length_a     74.763959
_cell_length_b     74.770471
_cell_length_c     34.33407
_cell_angle_alpha  90.004273
_cell_angle_beta   90.007569
_cell_angle_gamma 119.97251
loop_
_atom_site_label
_atom_site_type_symbol
_atom_site_fract_x
_atom_site_fract_y
_atom_site_fract_z
_atom_type_partial_charge
Zn0 Zn 0.03485 0.39976 0.24189 0.0
Zn1 Zn 0.07233 0.40394 0.24128 0.0
O2 O 0.05952 0.38688 0.29153 0.0
O3 O 0.02789 0.38202 0.28925 0.0
O4 O 0.10037 0.40624 0.23711 0.0
O5 O 0.02765 0.38567 0.19056 0.0
O6 O 0.05842 0.38857 0.18995 0.0
C7 C 0.0413 0.37891 0.3054 0.0
C8 C 0.06722 0.44223 0.24565 0.0
O9 O 0.0789 0.43433 0.24449 0.0
O10 O 0.04779 0.43065 0.24515 0.0
C11 C 0.11346 0.41223 0.26468 0.0
O12 O 0.10887 0.4174 0.29823 0.0
C13 C 0.04084 0.38236 0.17411 0.0
Zn14 Zn 0.64082 0.03376 0.73055 0.0
Zn15 Zn 0.67533 0.07011 0.73394 0.0
O16 O 0.67402 0.05747 0.78828 0.0
O17 O 0.64469 0.02792 0.78559 0.0
O18 O 0.70232 0.09712 0.73478 0.0
O19 O 0.65251 0.02376 0.68948 0.0
O20 O 0.67998 0.05486 0.68796 0.0
C21 C 0.66075 0.04052 0.80405 0.0
C22 C 0.63382 0.06783 0.71791 0.0
O23 O 0.65312 0.07853 0.72502 0.0
O24 O 0.62503 0.0483 0.71716 0.0
C25 C 0.70506 0.11314 0.75284 0.0
O26 O 0.68965 0.11246 0.77248 0.0
C27 C 0.66993 0.03638 0.67531 0.0
Zn28 Zn 0.59866 0.63438 0.22551 0.0
Zn29 Zn 0.59783 0.66897 0.22702 0.0
O30 O 0.6111 0.66935 0.28019 0.0
O31 O 0.60787 0.63843 0.28099 0.0
O32 O 0.59738 0.69577 0.22496 0.0
O33 O 0.62059 0.64496 0.18503 0.0
O34 O 0.61644 0.67203 0.1796 0.0
C35 C 0.61344 0.65555 0.2975 0.0
C36 C 0.55807 0.62747 0.21428 0.0
O37 O 0.56686 0.64663 0.22268 0.0
O38 O 0.5686 0.61857 0.21091 0.0
C39 C 0.59391 0.704 0.25425 0.0
O40 O 0.59039 0.69485 0.28832 0.0
C41 C 0.62497 0.66177 0.16855 0.0
Zn42 Zn 0.96959 0.60165 0.73101 0.0
Zn43 Zn 0.93488 0.60233 0.7393 0.0
O44 O 0.95049 0.61629 0.79029 0.0
O45 O 0.97811 0.6131 0.78467 0.0
O46 O 0.90813 0.60285 0.7423 0.0
O47 O 0.97833 0.62108 0.68609 0.0
O48 O 0.94825 0.61962 0.68955 0.0
C49 C 0.9675 0.6189 0.80401 0.0
C50 C 0.93465 0.56129 0.7271 0.0
O51 O 0.92517 0.57104 0.73516 0.0
O52 O 0.954 0.57108 0.72213 0.0
C53 C 0.89226 0.58929 0.76033 0.0
O54 O 0.8933 0.57458 0.77932 0.0
C55 C 0.96572 0.62621 0.67304 0.0
Zn56 Zn 0.37113 0.96906 0.25423 0.0
Zn57 Zn 0.33601 0.9345 0.24705 0.0
O58 O 0.33183 0.94728 0.29751 0.0
O59 O 0.35987 0.97794 0.29812 0.0
O60 O 0.3091 0.90768 0.24023 0.0
O61 O 0.36909 0.97777 0.20035 0.0
O62 O 0.33774 0.95086 0.19705 0.0
C63 C 0.34255 0.96518 0.31258 0.0
C64 C 0.3767 0.93429 0.26015 0.0
O65 O 0.35754 0.92471 0.25144 0.0
O66 O 0.38612 0.95366 0.26488 0.0
C67 C 0.29979 0.89593 0.26895 0.0
O68 O 0.30777 0.90148 0.30397 0.0
C69 C 0.35219 0.9675 0.18233 0.0
Zn70 Zn 0.41071 0.37098 0.73733 0.0
Zn71 Zn 0.41164 0.33687 0.73715 0.0
O72 O 0.3997 0.33679 0.79195 0.0
O73 O 0.40476 0.3684 0.79427 0.0
O74 O 0.41235 0.31017 0.73449 0.0
O75 O 0.38704 0.3599 0.7001 0.0
O76 O 0.39188 0.33345 0.6916 0.0
C77 C 0.39912 0.35124 0.81063 0.0
C78 C 0.45081 0.37851 0.72022 0.0
O79 O 0.44244 0.35945 0.72931 0.0
O80 O 0.43992 0.38709 0.71842 0.0
C81 C 0.41624 0.30212 0.76356 0.0
O82 O 0.42001 0.31136 0.79757 0.0
C83 C 0.38266 0.34334 0.68259 0.0
Zn84 Zn 0.59783 0.96975 0.2589 0.0
Zn85 Zn 0.59648 0.93376 0.24993 0.0
O86 O 0.61094 0.94915 0.19913 0.0
O87 O 0.61258 0.97915 0.20803 0.0
O88 O 0.59571 0.90635 0.24777 0.0
O89 O 0.61497 0.97637 0.3067 0.0
O90 O 0.61415 0.94673 0.29952 0.0
C91 C 0.61654 0.96745 0.18769 0.0
C92 C 0.55642 0.93566 0.25903 0.0
O93 O 0.56551 0.92526 0.25373 0.0
O94 O 0.56692 0.9551 0.26239 0.0
C95 C 0.59538 0.89667 0.21709 0.0
O96 O 0.59545 0.90457 0.18287 0.0
C97 C 0.62029 0.96361 0.318 0.0
Zn98 Zn 0.63668 0.60562 0.73937 0.0
Zn99 Zn 0.6709 0.60287 0.73487 0.0
O100 O 0.67227 0.6186 0.68425 0.0
O101 O 0.64459 0.62178 0.68987 0.0
O102 O 0.69745 0.60185 0.73485 0.0
O103 O 0.64594 0.6216 0.78867 0.0
O104 O 0.67415 0.61932 0.78559 0.0
C105 C 0.66072 0.62535 0.67156 0.0
C106 C 0.62808 0.56359 0.73797 0.0
O107 O 0.64769 0.57217 0.73558 0.0
O108 O 0.61958 0.57457 0.74003 0.0
C109 C 0.69945 0.58733 0.72018 0.0
O110 O 0.68358 0.57192 0.70276 0.0
C111 C 0.66325 0.62574 0.80259 0.0
Zn112 Zn 0.03707 0.63265 0.25325 0.0
Zn113 Zn 0.0723 0.66703 0.25137 0.0
O114 O 0.05954 0.66666 0.19747 0.0
O115 O 0.03252 0.63531 0.19679 0.0
O116 O 0.09953 0.69387 0.25247 0.0
O117 O 0.02544 0.64407 0.29194 0.0
O118 O 0.05672 0.67093 0.29757 0.0
C119 C 0.04394 0.65231 0.17982 0.0
C120 C 0.07033 0.62558 0.26787 0.0
O121 O 0.0808 0.64466 0.25881 0.0
O122 O 0.05087 0.61684 0.27033 0.0
C123 C 0.11101 0.70202 0.22289 0.0
O124 O 0.10526 0.69267 0.18901 0.0
C125 C 0.03785 0.66099 0.30813 0.0
Zn126 Zn 0.41175 0.03599 0.74534 0.0
Zn127 Zn 0.41404 0.07229 0.7449 0.0
O128 O 0.39634 0.05822 0.69579 0.0
O129 O 0.39292 0.02721 0.69933 0.0
O130 O 0.41567 0.10013 0.74761 0.0
O131 O 0.39909 0.0292 0.79777 0.0
O132 O 0.39897 0.05856 0.79679 0.0
C133 C 0.38876 0.03984 0.6829 0.0
C134 C 0.45339 0.06863 0.73967 0.0
O135 O 0.44488 0.07977 0.74116 0.0
O136 O 0.44238 0.04916 0.74021 0.0
C137 C 0.41702 0.11086 0.71783 0.0
O138 O 0.41757 0.10385 0.68303 0.0
C139 C 0.39446 0.0416 0.81364 0.0
Zn140 Zn 0.37053 0.40176 0.2609 0.0
Zn141 Zn 0.33595 0.40162 0.25029 0.0
O142 O 0.33779 0.38734 0.19986 0.0
O143 O 0.36879 0.39117 0.20677 0.0
O144 O 0.30877 0.40122 0.24641 0.0
O145 O 0.3593 0.3816 0.3045 0.0
O146 O 0.33159 0.38468 0.30099 0.0
C147 C 0.35257 0.38516 0.18674 0.0
C148 C 0.37665 0.44233 0.26344 0.0
O149 O 0.35777 0.4329 0.2528 0.0
O150 O 0.38558 0.43222 0.27153 0.0
C151 C 0.30572 0.41319 0.22463 0.0
O152 O 0.32074 0.42637 0.20208 0.0
C153 C 0.34178 0.37729 0.31748 0.0
Zn154 Zn 0.9701 0.37654 0.74371 0.0
Zn155 Zn 0.93434 0.34176 0.74371 0.0
O156 O 0.94728 0.34097 0.69075 0.0
O157 O 0.97567 0.37132 0.68935 0.0
O158 O 0.90658 0.31554 0.74468 0.0
O159 O 0.98039 0.36611 0.78668 0.0
O160 O 0.94953 0.33844 0.79123 0.0
C161 C 0.96373 0.35415 0.6734 0.0
C162 C 0.93659 0.3839 0.75388 0.0
O163 O 0.92618 0.36442 0.74867 0.0
O164 O 0.95611 0.39299 0.75465 0.0
C165 C 0.90382 0.29838 0.73185 0.0
O166 O 0.91955 0.29748 0.71702 0.0
C167 C 0.96814 0.34916 0.80298 0.0
H168 H 0.0667 0.37844 0.12213 0.0
H169 H 0.05791 0.36393 0.05608 0.0
H170 H 0.99454 0.3478 0.07469 0.0
H171 H 1.00299 0.36189 0.14023 0.0
H172 H 0.99971 0.31761 0.03116 0.0
H173 H 0.0464 0.39817 0.97525 0.0
H174 H 0.05912 0.38852 0.00611 0.0
H175 H 0.03937 0.39282 0.0259 0.0
C176 C 0.05085 0.3715 0.1123 0.0
C177 C 0.03563 0.37167 0.13609 0.0
C178 C 0.04586 0.36322 0.07465 0.0
C179 C 0.02563 0.35502 0.06052 0.0
C180 C 0.01024 0.35404 0.08511 0.0
H181 H 0.94739 0.32978 0.86943 0.0
H182 H 0.96288 0.32642 0.92986 0.0
C183 C 0.01517 0.3623 0.12247 0.0
C184 C 0.02062 0.34976 0.019 0.0
H185 H 0.02495 0.37283 0.93133 0.0
C186 C 0.00553 0.32954 0.00898 0.0
C187 C 0.02823 0.36539 0.99031 0.0
C188 C 0.04409 0.38749 -0.0003 0.0
C189 C 0.9972 0.32473 0.97124 0.0
C190 C 1.00388 0.34067 0.94325 0.0
C191 C 0.01983 0.36059 0.95278 0.0
C192 C 0.99341 0.33793 0.90524 0.0
C193 C 0.98109 0.30275 0.96202 0.0
C194 C 0.00527 0.34521 0.8712 0.0
C195 C 0.99659 0.34768 0.83717 0.0
C196 C 0.97579 0.3426 0.83638 0.0
C197 C 0.96342 0.33366 0.86935 0.0
C198 C 0.97225 0.33159 0.90378 0.0
H199 H 0.98335 0.29169 0.98002 0.0
H200 H 0.96558 0.30046 0.96891 0.0
H201 H 0.98143 0.29908 0.93078 0.0
H202 H 0.0216 0.3502 0.87162 0.0
H203 H 0.00639 0.35443 0.81192 0.0
H204 H 0.6304 0.93831 0.35929 0.0
H205 H 0.65007 0.94668 0.42048 0.0
H206 H 0.65978 0.00856 0.41578 0.0
H207 H 0.64056 1.00054 0.35515 0.0
H208 H 0.69504 0.00569 0.4431 0.0
H209 H 0.62099 0.95252 0.51857 0.0
H210 H 0.62965 0.94242 0.47997 0.0
H211 H 0.62132 0.96058 0.46896 0.0
C212 C 0.63699 0.95376 0.37111 0.0
C213 C 0.63359 0.96864 0.3528 0.0
C214 C 0.64823 0.95852 0.40593 0.0
C215 C 0.65621 0.97819 0.42266 0.0
C216 C 0.6538 0.99331 0.40324 0.0
H217 H 0.68663 0.05648 0.60725 0.0
H218 H 0.68985 0.04063 0.54738 0.0
C219 C 0.6426 0.9886 0.36875 0.0
C220 C 0.66474 0.98272 0.46254 0.0
H221 H 0.64802 0.97668 0.55629 0.0
C222 C 0.68501 0.999 0.46813 0.0
C223 C 0.65164 0.97385 0.49504 0.0
C224 C 0.62966 0.95643 0.49066 0.0
C225 C 0.69205 0.00762 0.50518 0.0
C226 C 0.67826 1.00004 0.53707 0.0
C227 C 0.65862 0.98259 0.53189 0.0
C228 C 0.68227 0.01144 0.57439 0.0
C229 C 0.71392 0.02518 0.50942 0.0
C230 C 0.67742 1.00059 0.60975 0.0
C231 C 0.67489 0.00942 0.64356 0.0
C232 C 0.67768 0.02942 0.64277 0.0
C233 C 0.68462 0.0411 0.60851 0.0
C234 C 0.68663 0.03206 0.57436 0.0
H235 H 0.72437 0.02326 0.489 0.0
H236 H 0.71449 0.03989 0.50187 0.0
H237 H 0.71976 0.02633 0.53957 0.0
H238 H 0.67399 0.9847 0.61056 0.0
H239 H 0.66961 1.00018 0.66984 0.0
H240 H 0.62208 0.67857 0.09992 0.0
H241 H 0.64128 0.68143 0.04005 0.0
H242 H 0.67971 0.66356 0.10347 0.0
H243 H 0.65995 0.65973 0.16272 0.0
H244 H 0.68216 0.70067 0.01228 0.0
H245 H 0.64869 0.61573 0.02894 0.0
H246 H 0.64089 0.63028 0.05927 0.0
H247 H 0.665 0.6311 0.06814 0.0
C248 C 0.63497 0.67579 0.10116 0.0
C249 C 0.63935 0.66855 0.13548 0.0
C250 C 0.64594 0.67744 0.06706 0.0
C251 C 0.66154 0.67216 0.06723 0.0
C252 C 0.66737 0.66717 0.10256 0.0
H253 H 0.69181 0.62764 0.85526 0.0
H254 H 0.69902 0.64374 0.92005 0.0
C255 C 0.65614 0.66505 0.13633 0.0
C256 C 0.66943 0.66896 0.02993 0.0
H257 H 0.66693 0.63071 0.97199 0.0
C258 C 0.67914 0.68546 0.00363 0.0
C259 C 0.66553 0.64907 0.01878 0.0
C260 C 0.65432 0.63047 0.04504 0.0
C261 C 0.68424 0.68238 0.96582 0.0
C262 C 0.6793 0.66229 0.95412 0.0
C263 C 0.67085 0.64613 0.98121 0.0
C264 C 0.67901 0.65669 0.91275 0.0
C265 C 0.69423 0.70049 0.93832 0.0
C266 C 0.66562 0.65889 0.8872 0.0
C267 C 0.6613 0.64954 0.85072 0.0
C268 C 0.67027 0.63778 0.83901 0.0
C269 C 0.68467 0.6366 0.86359 0.0
C270 C 0.68885 0.64584 0.90046 0.0
H271 H 0.7037 0.71515 0.95447 0.0
H272 H 0.70417 0.69855 0.91668 0.0
H273 H 0.68202 0.70182 0.92243 0.0
H274 H 0.65744 0.66672 0.89638 0.0
H275 H 0.65028 0.6509 0.83226 0.0
H276 H 0.99996 0.65698 0.31515 0.0
H277 H 0.98478 0.66244 0.37373 0.0
H278 H 0.04292 0.68517 0.43371 0.0
H279 H 0.05839 0.6807 0.37441 0.0
H280 H 0.97998 0.64014 0.43371 0.0
H281 H 0.02387 0.72099 0.48273 0.0
H282 H 0.02605 0.71342 0.43377 0.0
H283 H 0.04121 0.71156 0.47278 0.0
C284 C 0.00965 0.6638 0.34051 0.0
C285 C 0.03026 0.66825 0.34056 0.0
C286 C 1.001 0.66697 0.3739 0.0
C287 C 0.01268 0.67429 0.40819 0.0
C288 C 0.03369 0.68002 0.40745 0.0
H289 H 1.00364 0.64794 0.63986 0.0
H290 H 0.01197 0.66388 0.57575 0.0
C291 C 0.04251 0.67728 0.37365 0.0
C292 C 1.00207 0.67201 0.44592 0.0
H293 H 0.00747 0.69502 0.53436 0.0
C294 C 0.98557 0.65236 0.45529 0.0
C295 C 0.00932 0.6879 0.47413 0.0
C296 C 0.02595 0.70969 0.4651 0.0
C297 C 0.97729 0.64767 0.49291 0.0
C298 C 0.98561 0.66315 0.52192 0.0
C299 C 1.00113 0.68319 0.512 0.0
C300 C 0.981 0.65766 0.56348 0.0
C301 C 0.96088 0.62574 0.50206 0.0
C302 C 0.96095 0.64961 0.57847 0.0
C303 C 0.95604 0.64027 0.61525 0.0
C304 C 0.97116 0.63889 0.63732 0.0
C305 C 0.99155 0.64843 0.62333 0.0
C306 C 0.99641 0.65774 0.5868 0.0
H307 H 0.9579 0.6151 0.47719 0.0
H308 H 0.96549 0.61988 0.52766 0.0
H309 H 0.94621 0.62531 0.50932 0.0
H310 H 0.94891 0.64961 0.56094 0.0
H311 H 0.94025 0.63321 0.62544 0.0
H312 H 0.38884 0.01003 0.86035 0.0
H313 H 0.37037 0.99919 0.92144 0.0
H314 H 0.35606 0.0483 0.91417 0.0
H315 H 0.37521 0.05973 0.85235 0.0
H316 H 0.36921 0.04623 0.9851 0.0
H317 H 0.31002 0.9676 0.94541 0.0
H318 H 0.33442 0.97113 0.92981 0.0
H319 H 0.32476 0.98687 0.90901 0.0
C320 C 0.38167 0.01852 0.87136 0.0
C321 C 0.38341 0.0357 0.85131 0.0
C322 C 0.37084 0.01209 0.90618 0.0
C323 C 0.36116 0.02243 0.92171 0.0
C324 C 0.36307 0.03984 0.90224 0.0
H325 H 0.31598 0.95749 0.14421 0.0
H326 H 0.31225 0.97277 0.08349 0.0
C327 C 0.3741 0.04642 0.86714 0.0
C328 C 0.35102 0.01587 0.96022 0.0
H329 H 0.3241 0.97158 0.01271 0.0
C330 C 0.35877 0.03002 0.99109 0.0
C331 C 0.3367 0.99488 0.96818 0.0
C332 C 0.32584 0.97937 0.93614 0.0
C333 C 0.35483 0.02322 0.02984 0.0
C334 C 0.34351 1.00176 0.0376 0.0
C335 C 0.33338 0.98799 0.00686 0.0
C336 C 0.34509 0.99322 0.07556 0.0
C337 C 0.36383 0.03906 0.06196 0.0
C338 C 0.36474 0.99916 0.09056 0.0
C339 C 0.36689 0.9906 0.12495 0.0
C340 C 0.34943 0.97552 0.14487 0.0
C341 C 0.32971 0.96907 0.12942 0.0
C342 C 0.32755 0.97788 0.09496 0.0
H343 H 0.36353 0.05328 0.05373 0.0
H344 H 0.35531 0.03307 0.08977 0.0
H345 H 0.38023 0.04349 0.06654 0.0
H346 H 0.37855 0.01023 0.07527 0.0
H347 H 0.38232 0.99571 0.13576 0.0
H348 H 0.35313 0.35053 0.34556 0.0
H349 H 0.34629 0.33506 0.41002 0.0
H350 H 0.30669 0.36019 0.43537 0.0
H351 H 0.3136 0.37594 0.37035 0.0
H352 H 0.33963 0.37334 0.48485 0.0
H353 H 0.30083 0.2885 0.47282 0.0
H354 H 0.32199 0.30083 0.43935 0.0
H355 H 0.30011 0.3046 0.43427 0.0
C356 C 0.34252 0.35233 0.36442 0.0
C357 C 0.33413 0.36469 0.35318 0.0
C358 C 0.33839 0.34322 0.40114 0.0
C359 C 0.32579 0.34625 0.42737 0.0
C360 C 0.31627 0.35747 0.41534 0.0
H361 H 0.34855 0.34715 0.67705 0.0
H362 H 0.32838 0.3432 0.61833 0.0
C363 C 0.32027 0.36649 0.37828 0.0
C364 C 0.32623 0.34135 0.46898 0.0
H365 H 0.32335 0.30366 0.52919 0.0
C366 C 0.3355 0.35801 0.49496 0.0
C367 C 0.32105 0.32137 0.48185 0.0
C368 C 0.31025 0.30279 0.45563 0.0
C369 C 0.34129 0.35559 0.53251 0.0
C370 C 0.33704 0.33576 0.54485 0.0
C371 C 0.32661 0.31883 0.51966 0.0
C372 C 0.34525 0.33296 0.5822 0.0
C373 C 0.35331 0.37462 0.5574 0.0
C374 C 0.36024 0.32685 0.58205 0.0
C375 C 0.37144 0.32859 0.61587 0.0
C376 C 0.36794 0.33674 0.64996 0.0
C377 C 0.35174 0.34114 0.65087 0.0
C378 C 0.34026 0.33895 0.61738 0.0
H379 H 0.35912 0.38909 0.54028 0.0
H380 H 0.34312 0.37483 0.58067 0.0
H381 H 0.3667 0.37464 0.57139 0.0
H382 H 0.36423 0.32207 0.5552 0.0
H383 H 0.38384 0.32508 0.61451 0.0
H384 H 0.95389 0.64006 0.84967 0.0
H385 H 0.96816 0.6568 0.91268 0.0
H386 H 0.01262 0.6361 0.90763 0.0
H387 H 0.99903 0.62005 0.8451 0.0
H388 H 0.96952 0.64025 0.97944 0.0
H389 H 0.04976 0.69469 0.93863 0.0
H390 H 0.02959 0.68233 0.90261 0.0
H391 H 0.04323 0.66972 0.92042 0.0
C392 C 0.96682 0.63928 0.86196 0.0
C393 C 0.97541 0.62884 0.84226 0.0
C394 C 0.97502 0.64893 0.89779 0.0
C395 C 0.99191 0.6483 0.91428 0.0
C396 C 1.00018 0.63759 0.89481 0.0
H397 H 0.01815 0.62261 0.12968 0.0
H398 H 0.00567 0.62696 0.06714 0.0
C399 C 0.99218 0.62815 0.85916 0.0
C400 C 0.99982 0.65678 0.95358 0.0
H401 H 0.04492 0.6799 0.00494 0.0
C402 C 0.98597 0.64946 0.98497 0.0
C403 C 0.02122 0.66938 0.96104 0.0
C404 C 0.03671 0.67966 0.92873 0.0
C405 C 0.99314 0.6524 0.02345 0.0
C406 C 0.01466 0.66234 0.0305 0.0
C407 C 0.02842 0.67175 -0.00052 0.0
C408 C 0.02294 0.66037 0.06844 0.0
C409 C 0.97756 0.64393 0.05608 0.0
C410 C 0.0378 0.67773 0.08898 0.0
C411 C 0.04533 0.67526 0.12481 0.0
C412 C 0.03808 0.6554 0.14036 0.0
C413 C 0.02382 0.63813 0.11884 0.0
C414 C 0.01649 0.64059 0.08321 0.0
H415 H 0.96342 0.64448 0.04832 0.0
H416 H 0.97291 0.62751 0.06111 0.0
H417 H 0.98399 0.65263 0.08358 0.0
H418 H 0.04326 0.69312 0.07767 0.0
H419 H 0.05633 0.68884 0.14075 0.0
H420 H 0.31624 0.93969 0.36911 0.0
H421 H 0.31212 0.9501 0.43479 0.0
H422 H 0.35061 0.01411 0.40309 0.0
H423 H 0.35464 0.0039 0.33791 0.0
H424 H 0.34741 0.97086 0.47843 0.0
H425 H 0.30833 0.01699 0.47313 0.0
H426 H 0.30595 0.99943 0.43462 0.0
H427 H 0.32815 0.02498 0.43687 0.0
C428 C 0.32319 0.95597 0.37582 0.0
C429 C 0.336 0.97098 0.34867 0.0
C430 C 0.32081 0.9619 0.41328 0.0
C431 C 0.33091 0.98289 0.42371 0.0
C432 C 0.34231 0.99787 0.39554 0.0
H433 H 0.3919 0.06124 0.6161 0.0
H434 H 0.37346 0.04635 0.55467 0.0
C435 C 0.34481 0.99198 0.35838 0.0
C436 C 0.33329 0.98913 0.46513 0.0
H437 H 0.33185 0.02407 0.5273 0.0
C438 C 0.34352 0.98209 0.48948 0.0
C439 C 0.32854 0.00407 0.47915 0.0
C440 C 0.31696 0.01166 0.45463 0.0
C441 C 0.35022 0.9904 0.52669 0.0
C442 C 0.346 0.00578 0.54042 0.0
C443 C 0.33506 0.0123 0.51667 0.0
C444 C 0.35389 0.01582 0.57861 0.0
C445 C 0.36284 0.98348 0.54997 0.0
C446 C 0.34824 0.00386 0.61259 0.0
C447 C 0.359 0.01216 0.64714 0.0
C448 C 0.37518 0.03273 0.64855 0.0
C449 C 0.37949 0.04533 0.61559 0.0
C450 C 0.36897 0.03685 0.58063 0.0
H451 H 0.36888 0.97546 0.53153 0.0
H452 H 0.37612 0.99681 0.56433 0.0
H453 H 0.353 0.97254 0.57292 0.0
H454 H 0.33633 0.98774 0.61182 0.0
H455 H 0.35519 1.00224 0.67243 0.0
H456 H 0.40793 0.38096 0.86425 0.0
H457 H 0.39186 0.37741 0.92747 0.0
H458 H 0.35511 0.31152 0.91083 0.0
H459 H 0.37169 0.31496 0.84715 0.0
H460 H 0.34992 0.362 0.93944 0.0
H461 H 0.37857 0.31688 0.02121 0.0
H462 H 0.39017 0.32969 0.97593 0.0
H463 H 0.36542 0.30655 0.97578 0.0
C464 C 0.39662 0.36565 0.87415 0.0
C465 C 0.39101 0.34823 0.85073 0.0
C466 C 0.38738 0.36365 0.91024 0.0
C467 C 0.37222 0.34424 0.92376 0.0
C468 C 0.36692 0.32664 0.90106 0.0
H469 H 0.31849 0.3636 0.1395 0.0
H470 H 0.31741 0.34804 0.07579 0.0
C471 C 0.3764 0.32861 0.8648 0.0
C472 C 0.36195 0.34313 0.96128 0.0
H473 H 0.36171 0.33077 0.05691 0.0
C474 C 0.35208 0.35483 0.96511 0.0
C475 C 0.3647 0.33361 -0.00552 0.0
C476 C 0.37536 0.32103 0.992 0.0
C477 C 0.34656 0.35886 0.00175 0.0
C478 C 0.35055 0.35045 0.03532 0.0
C479 C 0.35873 0.33722 0.03108 0.0
C480 C 0.35007 0.35817 0.07485 0.0
C481 C 0.33817 0.37346 0.00439 0.0
C482 C 0.36862 0.36856 0.09572 0.0
C483 C 0.36923 0.37718 0.13192 0.0
C484 C 0.3513 0.37574 0.14818 0.0
C485 C 0.33259 0.36514 0.12752 0.0
C486 C 0.33196 0.35627 0.09117 0.0
H487 H 0.33891 0.38096 0.97604 0.0
H488 H 0.32178 0.36479 0.01372 0.0
H489 H 0.34691 0.38571 0.0263 0.0
H490 H 0.38282 0.37037 0.08361 0.0
H491 H 0.38392 0.38525 0.14692 0.0
H492 H 0.99933 0.378 0.63371 0.0
H493 H 0.00998 0.37086 0.57156 0.0
H494 H 0.95319 0.31258 0.56446 0.0
H495 H 0.94218 0.31959 0.62742 0.0
H496 H 0.01354 0.33451 0.54735 0.0
H497 H 0.95632 0.34658 0.46406 0.0
H498 H 0.96338 0.35578 0.51338 0.0
H499 H 0.94746 0.32867 0.50417 0.0
C500 C 0.989 0.36361 0.61915 0.0
C501 C 0.96978 0.34943 0.63541 0.0
C502 C 0.99524 0.3595 0.58373 0.0
C503 C 0.9824 0.34122 0.56359 0.0
C504 C 0.96328 0.32681 0.57971 0.0
H505 H 0.00667 0.34235 0.31715 0.0
H506 H 0.99223 0.32615 0.3799 0.0
C507 C 0.95701 0.33087 0.61551 0.0
C508 C 0.98884 0.33838 0.52454 0.0
H509 H 0.98258 0.34582 0.42891 0.0
C510 C 0.00654 0.33648 0.52123 0.0
C511 C 0.97959 0.34087 0.49072 0.0
C512 C 0.96067 0.34317 0.4929 0.0
C513 C 0.01586 0.33805 0.48492 0.0
C514 C 0.00751 0.34215 0.45139 0.0
C515 C 0.98903 0.3427 0.45457 0.0
C516 C 0.01856 0.34823 0.41355 0.0
C517 C 0.03476 0.33574 0.48309 0.0
C518 C 0.03864 0.3654 0.41133 0.0
C519 C 0.04713 0.37436 0.37528 0.0
C520 C 0.03538 0.36657 0.34125 0.0
C521 C 0.01596 0.34859 0.34317 0.0
C522 C 0.00771 0.33937 0.37897 0.0
H523 H 0.03423 0.32499 0.50599 0.0
H524 H 0.03633 0.32997 0.45423 0.0
H525 H 0.04869 0.35098 0.48848 0.0
H526 H 0.04714 0.37287 0.43755 0.0
H527 H 0.06202 0.38839 0.37442 0.0
H528 H 0.68352 0.06648 0.86362 0.0
H529 H 0.6845 0.05668 0.93168 0.0
H530 H 0.64559 0.99252 0.90165 0.0
H531 H 0.64437 1.00207 0.83432 0.0
H532 H 0.64592 0.03357 0.97429 0.0
H533 H 0.69102 0.99305 0.97268 0.0
H534 H 0.69377 0.0115 0.93576 0.0
H535 H 0.67229 0.98557 0.93426 0.0
C536 C 0.67554 0.05029 0.8715 0.0
C537 C 0.6637 0.03505 0.84387 0.0
C538 C 0.67615 0.04473 0.91023 0.0
C539 C 0.66535 0.02387 0.92141 0.0
C540 C 0.65434 0.00865 0.89342 0.0
H541 H 0.61386 0.94606 0.12094 0.0
H542 H 0.62879 0.96104 0.05715 0.0
C543 C 0.65349 0.01418 0.85506 0.0
C544 C 0.66291 0.01791 0.96287 0.0
H545 H 0.66856 0.98632 0.02733 0.0
C546 C 0.65122 0.02359 0.98626 0.0
C547 C 0.66955 0.0046 0.97789 0.0
C548 C 0.68251 0.99843 0.95398 0.0
C549 C 0.64512 0.01554 0.02383 0.0
C550 C 0.65148 1.00194 0.0388 0.0
C551 C 0.66371 0.99673 0.01577 0.0
C552 C 0.64497 0.99262 0.07791 0.0
C553 C 0.63101 0.02085 0.04628 0.0
C554 C 0.64986 0.00533 0.11076 0.0
C555 C 0.6411 0.9969 0.14671 0.0
C556 C 0.62769 0.97553 0.1507 0.0
C557 C 0.62408 0.96258 0.11852 0.0
C558 C 0.6326 0.97111 0.0822 0.0
H559 H 0.62326 0.02681 0.02691 0.0
H560 H 0.61895 0.00717 0.06211 0.0
H561 H 0.64022 0.03305 0.06793 0.0
H562 H 0.65983 0.02188 0.10827 0.0
H563 H 0.64446 0.0072 0.17129 0.0
H564 H 0.62611 0.6318 0.33479 0.0
H565 H 0.64169 0.63706 0.39893 0.0
H566 H 0.63925 0.69312 0.41257 0.0
H567 H 0.62348 0.68802 0.34762 0.0
H568 H 0.67947 0.67388 0.43131 0.0
H569 H 0.60507 0.65299 0.50521 0.0
H570 H 0.60583 0.64629 0.45497 0.0
H571 H 0.61462 0.67261 0.46806 0.0
C572 C 0.62888 0.64532 0.35121 0.0
C573 C 0.62333 0.6594 0.33624 0.0
C574 C 0.63797 0.64837 0.38776 0.0
C575 C 0.6416 0.66544 0.41031 0.0
C576 C 0.63651 0.67983 0.39541 0.0
H577 H 0.65755 0.65925 0.65886 0.0
H578 H 0.65861 0.6752 0.59621 0.0
C579 C 0.62748 0.67686 0.35847 0.0
C580 C 0.64924 0.66691 0.45046 0.0
H581 H 0.63162 0.65469 0.5435 0.0
C582 C 0.66923 0.67014 0.45613 0.0
C583 C 0.6358 0.66204 0.48254 0.0
C584 C 0.61408 0.65819 0.47772 0.0
C585 C 0.67589 0.66783 0.49307 0.0
C586 C 0.66195 0.66159 0.52473 0.0
C587 C 0.64234 0.65946 0.51927 0.0
C588 C 0.66636 0.65539 0.56298 0.0
C589 C 0.69765 0.67182 0.49757 0.0
C590 C 0.67124 0.63952 0.56543 0.0
C591 C 0.6711 0.63069 0.60146 0.0
C592 C 0.66552 0.63726 0.63522 0.0
C593 C 0.66179 0.65387 0.63305 0.0
C594 C 0.6624 0.66298 0.59732 0.0
H595 H 0.70819 0.68352 0.47623 0.0
H596 H 0.70368 0.67723 0.52738 0.0
H597 H 0.69785 0.65731 0.49178 0.0
H598 H 0.67381 0.633 0.53931 0.0
H599 H 0.67381 0.61775 0.60249 0.0
H600 H 0.05533 0.58974 0.30816 0.0
H601 H 0.0681 0.56554 0.30782 0.0
H602 H 0.12023 0.60781 0.23811 0.0
H603 H 0.10739 0.63235 0.23832 0.0
H604 H 0.09777 0.56915 0.20529 0.0
H605 H 0.11465 0.56069 0.35826 0.0
H606 H 0.09013 0.55944 0.35447 0.0
H607 H 0.11332 0.58287 0.34117 0.0
C608 C 0.06978 0.59415 0.2935 0.0
C609 C 0.08029 0.6129 0.27306 0.0
C610 C 0.0772 0.58036 0.29367 0.0
C611 C 0.09529 0.58495 0.27341 0.0
C612 C 0.10637 0.60407 0.25432 0.0
H613 H 0.1069 0.47249 0.26413 0.0
H614 H 0.12013 0.50994 0.26848 0.0
C615 C 0.09903 0.61807 0.2545 0.0
C616 C 0.10045 0.56837 0.2677 0.0
H617 H 0.10185 0.52961 0.31763 0.0
C618 C 0.09937 0.56089 0.22977 0.0
C619 C 0.10282 0.55769 0.29949 0.0
C620 C 0.10552 0.56575 0.34058 0.0
C621 C 0.09839 0.5419 0.22325 0.0
C622 C 0.09835 0.5301 0.25544 0.0
C623 C 0.10162 0.53857 0.29299 0.0
C624 C 0.09129 0.50783 0.25134 0.0
C625 C 0.09608 0.53396 0.18211 0.0
C626 C 0.07073 0.49437 0.24073 0.0
C627 C 0.06314 0.47318 0.23868 0.0
C628 C 0.07595 0.4649 0.24707 0.0
C629 C 0.09668 0.47842 0.25734 0.0
C630 C 0.10425 0.49976 0.25986 0.0
H631 H 0.10267 0.54684 0.16074 0.0
H632 H 0.10374 0.5246 0.17844 0.0
H633 H 0.07942 0.524 0.1754 0.0
H634 H 0.06039 0.50026 0.23466 0.0
H635 H 0.04712 0.46327 0.23058 0.0
H636 H 0.47538 0.05066 0.76213 0.0
H637 H 0.51235 0.0642 0.75704 0.0
H638 H 0.52027 0.12092 0.70866 0.0
H639 H 0.48275 0.1074 0.71414 0.0
H640 H 0.5387 0.09988 0.66486 0.0
H641 H 0.56109 0.11087 0.82017 0.0
H642 H 0.53778 0.08684 0.81151 0.0
H643 H 0.53827 0.1108 0.80244 0.0
C644 C 0.48492 0.06611 0.7507 0.0
C645 C 0.47612 0.07794 0.73838 0.0
C646 C 0.50611 0.07389 0.74811 0.0
C647 C 0.51907 0.09365 0.73298 0.0
C648 C 0.5105 0.1057 0.72083 0.0
H649 H 0.64253 0.10666 0.74053 0.0
H650 H 0.61884 0.12054 0.73923 0.0
C651 C 0.48913 0.09798 0.72398 0.0
C652 C 0.54119 0.10042 0.72739 0.0
H653 H 0.58127 0.10178 0.77736 0.0
C654 C 0.54836 0.10103 0.68939 0.0
C655 C 0.55393 0.10224 0.75934 0.0
C656 C 0.54746 0.10287 0.80068 0.0
C657 C 0.56694 0.10112 0.68269 0.0
C658 C 0.5784 0.10034 0.71481 0.0
C659 C 0.57237 0.10211 0.75268 0.0
C660 C 0.59414 0.09393 0.71031 0.0
C661 C 0.57352 0.10085 0.64129 0.0
C662 C 0.58816 0.07447 0.69433 0.0
C663 C 0.60147 0.06648 0.69538 0.0
C664 C 0.62112 0.07776 0.71247 0.0
C665 C 0.62752 0.09766 0.72699 0.0
C666 C 0.61402 0.1056 0.72629 0.0
H667 H 0.5683 0.10915 0.62164 0.0
H668 H 0.59055 0.10799 0.63893 0.0
H669 H 0.56628 0.08462 0.63107 0.0
H670 H 0.57275 0.06495 0.68273 0.0
H671 H 0.59607 0.05114 0.68386 0.0
H672 H 0.53625 0.6002 0.15746 0.0
H673 H 0.49989 0.57341 0.15983 0.0
H674 H 0.49321 0.59786 0.26934 0.0
H675 H 0.52933 0.62549 0.26556 0.0
H676 H 0.48806 0.54561 0.21195 0.0
H677 H 0.43747 0.57956 0.22481 0.0
H678 H 0.46403 0.59448 0.2092 0.0
H679 H 0.45778 0.5902 0.26027 0.0
C680 C 0.52674 0.60031 0.18117 0.0
C681 C 0.53546 0.61483 0.21129 0.0
C682 C 0.50599 0.58499 0.18261 0.0
C683 C 0.49369 0.58352 0.21477 0.0
C684 C 0.50211 0.59886 0.24375 0.0
H685 H 0.40825 0.46663 0.31162 0.0
H686 H 0.43433 0.50276 0.30122 0.0
C687 C 0.52281 0.6146 0.24172 0.0
C688 C 0.47371 0.56414 0.22114 0.0
H689 H 0.42315 0.54434 0.24766 0.0
C690 C 0.47384 0.54544 0.2191 0.0
C691 C 0.45504 0.56373 0.23049 0.0
C692 C 0.4535 0.58307 0.23092 0.0
C693 C 0.45614 0.52652 0.22692 0.0
C694 C 0.43784 0.52619 0.2385 0.0
C695 C 0.43734 0.54471 0.23943 0.0
C696 C 0.41946 0.50655 0.25038 0.0
C697 C 0.45727 0.50699 0.22283 0.0
C698 C 0.40174 0.49721 0.22683 0.0
C699 C 0.38656 0.47656 0.23317 0.0
C700 C 0.38915 0.46508 0.26281 0.0
C701 C 0.406 0.47508 0.28832 0.0
C702 C 0.4209 0.4957 0.28241 0.0
H703 H 0.47032 0.50934 0.20388 0.0
H704 H 0.45968 0.50213 0.25198 0.0
H705 H 0.44273 0.49426 0.21048 0.0
H706 H 0.40036 0.50537 0.20199 0.0
H707 H 0.37372 0.46917 0.21305 0.0
H708 H 0.94725 0.53748 0.6902 0.0
H709 H 0.93255 0.50035 0.69492 0.0
H710 H 0.88269 0.49593 0.76526 0.0
H711 H 0.89755 0.53358 0.76071 0.0
H712 H 0.90284 0.47798 0.79975 0.0
H713 H 0.88383 0.44947 0.64925 0.0
H714 H 0.90904 0.47191 0.65047 0.0
H715 H 0.88687 0.47406 0.66392 0.0
C716 C 0.93292 0.52862 0.70603 0.0
C717 C 0.92363 0.53847 0.72529 0.0
C718 C 0.92437 0.5073 0.70833 0.0
C719 C 0.90632 0.49527 0.7299 0.0
C720 C 0.8965 0.50491 0.74805 0.0
H721 H 0.89683 0.37321 0.73369 0.0
H722 H 0.88177 0.39588 0.73329 0.0
C723 C 0.90498 0.52638 0.74541 0.0
C724 C 0.89991 0.47335 0.73758 0.0
H725 H 0.89724 0.43183 0.69089 0.0
C726 C 0.90088 0.46755 0.77606 0.0
C727 C 0.89683 0.45946 0.70691 0.0
C728 C 0.89384 0.464 0.66539 0.0
C729 C 0.90142 0.44943 0.78409 0.0
C730 C 0.90133 0.43707 0.75282 0.0
C731 C 0.89775 0.44152 0.71487 0.0
C732 C 0.90878 0.42217 0.75779 0.0
C733 C 0.90338 0.44437 0.82583 0.0
C734 C 0.92889 0.42942 0.77169 0.0
C735 C 0.93752 0.41668 0.77163 0.0
C736 C 0.92628 0.39634 0.75756 0.0
C737 C 0.90584 0.38878 0.74486 0.0
C738 C 0.89722 0.40169 0.74461 0.0
H739 H 0.89533 0.44976 0.84574 0.0
H740 H 0.89694 0.42752 0.83004 0.0
H741 H 0.91994 0.45248 0.83415 0.0
H742 H 0.93831 0.4453 0.78105 0.0
H743 H 0.95328 0.42299 0.7817 0.0
H744 H 0.36904 0.89777 0.22607 0.0
H745 H 0.39178 0.88269 0.22723 0.0
H746 H 0.43354 0.9314 0.30407 0.0
H747 H 0.41126 0.9464 0.30287 0.0
H748 H 0.43331 0.90452 0.20152 0.0
H749 H 0.43023 0.88016 0.35395 0.0
H750 H 0.40998 0.88339 0.33222 0.0
H751 H 0.43278 0.90529 0.3518 0.0
C752 C 0.38286 0.90492 0.24384 0.0
C753 C 0.38845 0.92331 0.26423 0.0
C754 C 0.3958 0.89632 0.24446 0.0
C755 C 0.41417 0.90573 0.26626 0.0
C756 C 0.41922 0.92359 0.28778 0.0
H757 H 0.53386 0.95198 0.28755 0.0
H758 H 0.49654 0.93679 0.28778 0.0
C759 C 0.40656 0.93228 0.28674 0.0
C760 C 0.42968 0.89897 0.26332 0.0
H761 H 0.46397 0.89402 0.32137 0.0
C762 C 0.43957 0.90132 0.22738 0.0
C763 C 0.43772 0.89463 0.297 0.0
C764 C 0.42695 0.8905 0.33583 0.0
C765 C 0.45867 0.902 0.22521 0.0
C766 C 0.46791 0.90022 0.2598 0.0
C767 C 0.45689 0.89553 0.29492 0.0
C768 C 0.49036 0.90796 0.26161 0.0
C769 C 0.46989 0.90676 0.18678 0.0
C770 C 0.49923 0.89659 0.24721 0.0
C771 C 0.52078 0.90526 0.24718 0.0
C772 C 0.53362 0.92546 0.26116 0.0
C773 C 0.52449 0.93647 0.27626 0.0
C774 C 0.50313 0.92779 0.2766 0.0
H775 H 0.46019 0.90672 0.16223 0.0
H776 H 0.48406 0.92218 0.18826 0.0
H777 H 0.47474 0.89522 0.18071 0.0
H778 H 0.48955 0.88123 0.23553 0.0
H779 H 0.52738 0.8964 0.23535 0.0
H780 H 0.58789 0.54137 0.75992 0.0
H781 H 0.56507 0.50419 0.75687 0.0
H782 H 0.61491 0.49664 0.71286 0.0
H783 H 0.63819 0.53428 0.71599 0.0
H784 H 0.57707 0.47618 0.66859 0.0
H785 H 0.56281 0.4576 0.82518 0.0
H786 H 0.56065 0.47975 0.81269 0.0
H787 H 0.58512 0.48079 0.80745 0.0
C788 C 0.59415 0.53187 0.74992 0.0
C789 C 0.61488 0.54081 0.73813 0.0
C790 C 0.58109 0.51057 0.7485 0.0
C791 C 0.58837 0.49763 0.73524 0.0
C792 C 0.60908 0.50638 0.72361 0.0
H793 H 0.48161 0.37216 0.74849 0.0
H794 H 0.51888 0.39709 0.74801 0.0
C795 C 0.62233 0.52783 0.72543 0.0
C796 C 0.57354 0.47527 0.73095 0.0
H797 H 0.53489 0.43537 0.78126 0.0
C798 C 0.56821 0.46697 0.69329 0.0
C799 C 0.56225 0.46309 0.76318 0.0
C800 C 0.56814 0.4707 0.80445 0.0
C801 C 0.55054 0.44766 0.6868 0.0
C802 C 0.53783 0.43661 0.71872 0.0
C803 C 0.54445 0.44392 0.75667 0.0
C804 C 0.51618 0.41979 0.71329 0.0
C805 C 0.54506 0.43978 0.64561 0.0
C806 C 0.50237 0.42415 0.69355 0.0
C807 C 0.48124 0.41013 0.69408 0.0
C808 C 0.47337 0.39138 0.7144 0.0
C809 C 0.48725 0.38644 0.73241 0.0
C810 C 0.50851 0.40066 0.7322 0.0
H811 H 0.55919 0.44509 0.62766 0.0
H812 H 0.53591 0.42265 0.64472 0.0
H813 H 0.53579 0.44601 0.63224 0.0
H814 H 0.50779 0.43897 0.67957 0.0
H815 H 0.47095 0.41437 0.67985 0.0
H816 H 0.14442 0.42283 0.31806 0.0
H817 H 0.17724 0.4236 0.3087 0.0
H818 H 0.16096 0.40462 0.18922 0.0
H819 H 0.12799 0.40349 0.19843 0.0
H820 H 0.17584 0.3824 0.22682 0.0
H821 H 0.22819 0.46626 0.25003 0.0
H822 H 0.21037 0.45383 0.28933 0.0
H823 H 0.20081 0.45521 0.24201 0.0
C824 C 0.14785 0.41892 0.28972 0.0
C825 C 0.13357 0.41315 0.25898 0.0
C826 C 0.16669 0.41949 0.28436 0.0
C827 C 0.1717 0.41448 0.24809 0.0
C828 C 0.15746 0.40865 0.2174 0.0
H829 H 0.29375 0.43635 0.18174 0.0
H830 H 0.26098 0.43621 0.18549 0.0
C831 C 0.13862 0.40803 0.22274 0.0
C832 C 0.19145 0.4146 0.24245 0.0
H833 H 0.24386 0.44527 0.24818 0.0
C834 C 0.19071 0.39617 0.23131 0.0
C835 C 0.21086 0.43264 0.24774 0.0
C836 C 0.21269 0.45316 0.25756 0.0
C837 C 0.20883 0.39518 0.22616 0.0
C838 C 0.22822 0.41301 0.23304 0.0
C839 C 0.22898 0.43156 0.24329 0.0
C840 C 0.24788 0.41269 0.23014 0.0
C841 C 0.20704 0.3751 0.21295 0.0
C842 C 0.25146 0.39963 0.25418 0.0
C843 C 0.27012 0.3996 0.25201 0.0
C844 C 0.28569 0.4128 0.22598 0.0
C845 C 0.28209 0.42595 0.20203 0.0
C846 C 0.26338 0.42592 0.20417 0.0
H847 H 0.19201 0.365 0.1984 0.0
H848 H 0.21968 0.37785 0.19252 0.0
H849 H 0.20809 0.36668 0.23867 0.0
H850 H 0.23992 0.38962 0.27505 0.0
H851 H 0.27242 0.38939 0.2711 0.0
H852 H 0.892 0.25994 0.70293 0.0
H853 H 0.85787 0.22898 0.70667 0.0
H854 H 0.83488 0.26312 0.77008 0.0
H855 H 0.86881 0.29424 0.76586 0.0
H856 H 0.83551 0.20831 0.77161 0.0
H857 H 0.79216 0.23653 0.68417 0.0
H858 H 0.82001 0.24962 0.68502 0.0
H859 H 0.80608 0.25294 0.72443 0.0
C860 C 0.87966 0.26091 0.7175 0.0
C861 C 0.88313 0.27961 0.73392 0.0
C862 C 0.86017 0.24319 0.71963 0.0
C863 C 0.84373 0.24381 0.73811 0.0
C864 C 0.84719 0.26239 0.75487 0.0
H865 H 0.71607 0.15056 0.78616 0.0
H866 H 0.7498 0.18219 0.78374 0.0
C867 C 0.86665 0.28015 0.75263 0.0
C868 C 0.82317 0.22484 0.7408 0.0
H869 H 0.7723 0.20453 0.7168 0.0
C870 C 0.8217 0.20745 0.75949 0.0
C871 C 0.80516 0.22378 0.72508 0.0
C872 C 0.80588 0.24164 0.70322 0.0
C873 C 0.80269 0.1891 0.76325 0.0
C874 C 0.7847 0.18803 0.74743 0.0
C875 C 0.78612 0.20543 0.72898 0.0
C876 C 0.76433 0.16883 0.74908 0.0
C877 C 0.80194 0.17112 0.78469 0.0
C878 C 0.76127 0.15092 0.73 0.0
C879 C 0.74204 0.13285 0.73128 0.0
C880 C 0.72544 0.13235 0.75157 0.0
C881 C 0.72852 0.15039 0.77039 0.0
C882 C 0.74778 0.16848 0.76901 0.0
H883 H 0.81574 0.17607 0.80343 0.0
H884 H 0.78788 0.16319 0.80311 0.0
H885 H 0.80147 0.1598 0.76322 0.0
H886 H 0.77373 0.15096 0.71383 0.0
H887 H 0.7402 0.11928 0.71628 0.0
H888 H 0.58947 0.72709 0.31134 0.0
H889 H 0.58945 0.75964 0.30378 0.0
H890 H 0.5984 0.75821 0.18004 0.0
H891 H 0.59836 0.72564 0.18718 0.0
H892 H 0.62156 0.79749 0.27108 0.0
H893 H 0.54787 0.76665 0.18913 0.0
H894 H 0.55468 0.75026 0.21641 0.0
H895 H 0.56612 0.76004 0.16959 0.0
C896 C 0.59136 0.73364 0.28247 0.0
C897 C 0.59384 0.7237 0.24984 0.0
C898 C 0.59136 0.75225 0.27824 0.0
C899 C 0.59366 0.76118 0.2413 0.0
C900 C 0.59626 0.75139 0.20871 0.0
H901 H 0.59681 0.87276 0.15793 0.0
H902 H 0.59698 0.84019 0.16364 0.0
C903 C 0.59633 0.73282 0.21291 0.0
C904 C 0.59384 0.781 0.23699 0.0
H905 H 0.56783 0.80297 0.19583 0.0
C906 C 0.60979 0.7987 0.25476 0.0
C907 C 0.57853 0.78252 0.21547 0.0
C908 C 0.56071 0.76386 0.19677 0.0
C909 C 0.61099 0.81799 0.25118 0.0
C910 C 0.59555 0.81949 0.22998 0.0
C911 C 0.57965 0.80179 0.21205 0.0
C912 C 0.59544 0.83923 0.22659 0.0
C913 C 0.62903 0.83664 0.26945 0.0
C914 C 0.59418 0.84934 0.26004 0.0
C915 C 0.59415 0.86796 0.2569 0.0
C916 C 0.59517 0.87678 0.22018 0.0
C917 C 0.59606 0.86644 0.18665 0.0
C918 C 0.59616 0.84782 0.18985 0.0
H919 H 0.64225 0.83408 0.27467 0.0
H920 H 0.63434 0.85051 0.25077 0.0
H921 H 0.62421 0.83981 0.29798 0.0
H922 H 0.59311 0.84275 0.28863 0.0
H923 H 0.59328 0.8754 0.28333 0.0
H924 H 0.8549 0.56138 0.79177 0.0
H925 H 0.82197 0.56067 0.78492 0.0
H926 H 0.85193 0.61674 0.71736 0.0
H927 H 0.88485 0.61744 0.72354 0.0
H928 H 0.81052 0.58923 0.80703 0.0
H929 H 0.80417 0.5776 0.64695 0.0
H930 H 0.82238 0.57425 0.67608 0.0
H931 H 0.82786 0.59971 0.66236 0.0
C932 C 0.85451 0.57359 0.77547 0.0
C933 C 0.8725 0.58939 0.75797 0.0
C934 C 0.83567 0.57315 0.77161 0.0
C935 C 0.83443 0.58844 0.75004 0.0
C936 C 0.85244 0.60452 0.73338 0.0
H937 H 0.73541 0.6172 0.7531 0.0
H938 H 0.76785 0.61708 0.76058 0.0
C939 C 0.87128 0.60496 0.73717 0.0
C940 C 0.81431 0.58764 0.74521 0.0
H941 H 0.77998 0.58514 0.67674 0.0
C942 C 0.80379 0.58827 0.77857 0.0
C943 C 0.80542 0.58606 0.70807 0.0
C944 C 0.81541 0.58416 0.67132 0.0
C945 C 0.78482 0.58781 0.77576 0.0
C946 C 0.77632 0.58703 0.73853 0.0
C947 C 0.78663 0.58596 0.70522 0.0
C948 C 0.75669 0.58722 0.73351 0.0
C949 C 0.7739 0.58783 0.81271 0.0
C950 C 0.73982 0.57076 0.71473 0.0
C951 C 0.72127 0.57085 0.71008 0.0
C952 C 0.71928 0.58747 0.72401 0.0
C953 C 0.73635 0.60409 0.74225 0.0
C954 C 0.75488 0.604 0.7468 0.0
H955 H 0.77941 0.58277 0.83821 0.0
H956 H 0.77702 0.60373 0.81854 0.0
H957 H 0.75694 0.57755 0.80998 0.0
H958 H 0.74093 0.55772 0.70403 0.0
H959 H 0.70846 0.55782 0.69584 0.0
H960 H 0.27412 0.86931 0.32459 0.0
H961 H 0.24215 0.83648 0.31472 0.0
H962 H 0.24938 0.84481 0.19034 0.0
H963 H 0.28137 0.8777 0.19983 0.0
H964 H 0.20567 0.83007 0.27087 0.0
H965 H 0.24152 0.78606 0.21163 0.0
H966 H 0.25597 0.80956 0.23936 0.0
H967 H 0.24935 0.81071 0.18955 0.0
C968 C 0.26896 0.86417 0.2951 0.0
C969 C 0.28034 0.87612 0.26299 0.0
C970 C 0.25067 0.84542 0.28955 0.0
C971 C 0.24355 0.83815 0.25183 0.0
C972 C 0.25478 0.85004 0.21969 0.0
H973 H 0.13792 0.72513 0.165 0.0
H974 H 0.16974 0.75846 0.17139 0.0
C975 C 0.273 0.86888 0.22519 0.0
C976 C 0.22417 0.81826 0.24621 0.0
H977 H 0.2051 0.76901 0.21284 0.0
C978 C 0.20551 0.81669 0.25824 0.0
C979 C 0.22405 0.80092 0.22949 0.0
C980 C 0.24377 0.80171 0.21695 0.0
C981 C 0.18664 0.79824 0.2537 0.0
C982 C 0.18653 0.78075 0.23759 0.0
C983 C 0.20521 0.7824 0.22523 0.0
C984 C 0.16723 0.76052 0.23382 0.0
C985 C 0.16698 0.7978 0.2655 0.0
C986 C 0.15543 0.75044 0.26686 0.0
C987 C 0.1372 0.73145 0.2633 0.0
C988 C 0.13051 0.72203 0.22663 0.0
C989 C 0.14258 0.73197 0.19365 0.0
C990 C 0.16078 0.75102 0.19724 0.0
H991 H 0.16901 0.81356 0.26632 0.0
H992 H 0.15416 0.78817 0.2452 0.0
H993 H 0.16248 0.7911 0.29513 0.0
H994 H 0.16036 0.75721 0.2955 0.0
H995 H 0.12839 0.72415 0.28936 0.0
H996 H 0.41231 0.28072 0.69632 0.0
H997 H 0.41267 0.24834 0.68911 0.0
H998 H 0.42129 0.24679 0.81295 0.0
H999 H 0.42091 0.27915 0.82055 0.0
H1000 H 0.44502 0.23997 0.7124 0.0
H1001 H 0.3705 0.18943 0.7873 0.0
H1002 H 0.37746 0.21477 0.7692 0.0
H1003 H 0.38853 0.21212 0.81372 0.0
C1004 C 0.41422 0.27348 0.72208 0.0
C1005 C 0.4165 0.28251 0.75906 0.0
C1006 C 0.41446 0.25499 0.71786 0.0
C1007 C 0.41677 0.24506 0.75053 0.0
C1008 C 0.41918 0.25406 0.78743 0.0
H1009 H 0.41812 0.1307 0.78562 0.0
H1010 H 0.41888 0.1636 0.79303 0.0
C1011 C 0.41905 0.27261 0.79168 0.0
C1012 C 0.41695 0.22543 0.7459 0.0
H1013 H 0.39046 0.17422 0.76946 0.0
C1014 C 0.43308 0.22556 0.72474 0.0
C1015 C 0.40138 0.20671 0.76217 0.0
C1016 C 0.38337 0.20558 0.78414 0.0
C1017 C 0.43424 0.20751 0.71995 0.0
C1018 C 0.41858 0.18872 0.736 0.0
C1019 C 0.40246 0.18862 0.75718 0.0
C1020 C 0.41857 0.16896 0.73117 0.0
C1021 C 0.4525 0.20884 0.69856 0.0
C1022 C 0.41796 0.16091 0.69392 0.0
C1023 C 0.41762 0.14214 0.68956 0.0
C1024 C 0.41767 0.13092 0.7224 0.0
C1025 C 0.41811 0.13894 0.75969 0.0
C1026 C 0.41852 0.15775 0.764 0.0
H1027 H 0.46574 0.2249 0.69792 0.0
H1028 H 0.45766 0.19872 0.7122 0.0
H1029 H 0.448 0.20374 0.66801 0.0
H1030 H 0.41748 0.16903 0.66817 0.0
H1031 H 0.41713 0.13635 0.66043 0.0
loop_
_geom_bond_atom_site_label_1
_geom_bond_atom_site_label_2
_geom_bond_distance
_geom_bond_site_symmetry_2
_ccdc_geom_bond_type
Zn0 O3 2.031 . S
Zn0 O5 2.049 . S
Zn0 O10 2.067 . S
Zn1 O2 1.962 . S
Zn1 O4 1.986 . S
Zn1 O6 1.996 . S
Zn1 O9 1.943 . S
O2 Zn1 1.962 . S
O2 C7 1.254 . S
O3 Zn0 2.031 . S
O3 C7 1.269 . S
O4 Zn1 1.986 . S
O4 C11 1.262 . S
O5 Zn0 2.049 . S
O5 C13 1.260 . S
O6 Zn1 1.996 . S
O6 C13 1.257 . S
C7 O2 1.254 . S
C7 O3 1.269 . S
C8 O9 1.249 . S
C8 O10 1.270 . S
O9 Zn1 1.943 . S
O9 C8 1.249 . S
O10 Zn0 2.067 . S
O10 C8 1.270 . S
C11 O4 1.262 . S
C11 O12 1.232 . S
O12 C11 1.232 . S
C13 O5 1.260 . S
C13 O6 1.257 . S
Zn14 O17 2.031 . S
Zn14 O19 2.049 . S
Zn14 O24 2.067 . S
Zn15 O16 1.962 . S
Zn15 O18 1.986 . S
Zn15 O20 1.996 . S
Zn15 O23 1.943 . S
O16 Zn15 1.962 . S
O16 C21 1.254 . S
O17 Zn14 2.031 . S
O17 C21 1.269 . S
O18 Zn15 1.986 . S
O18 C25 1.262 . S
O19 Zn14 2.049 . S
O19 C27 1.260 . S
O20 Zn15 1.996 . S
O20 C27 1.257 . S
C21 O16 1.254 . S
C21 O17 1.269 . S
C22 O23 1.249 . S
C22 O24 1.270 . S
O23 Zn15 1.943 . S
O23 C22 1.249 . S
O24 Zn14 2.067 . S
O24 C22 1.270 . S
C25 O18 1.262 . S
C25 O26 1.232 . S
O26 C25 1.232 . S
C27 O19 1.260 . S
C27 O20 1.257 . S
Zn28 O31 2.031 . S
Zn28 O33 2.049 . S
Zn28 O38 2.067 . S
Zn29 O30 1.962 . S
Zn29 O32 1.986 . S
Zn29 O34 1.996 . S
Zn29 O37 1.943 . S
O30 Zn29 1.962 . S
O30 C35 1.254 . S
O31 Zn28 2.031 . S
O31 C35 1.269 . S
O32 Zn29 1.986 . S
O32 C39 1.262 . S
O33 Zn28 2.049 . S
O33 C41 1.260 . S
O34 Zn29 1.996 . S
O34 C41 1.257 . S
C35 O30 1.254 . S
C35 O31 1.269 . S
C36 O37 1.249 . S
C36 O38 1.270 . S
O37 Zn29 1.943 . S
O37 C36 1.249 . S
O38 Zn28 2.067 . S
O38 C36 1.270 . S
C39 O32 1.262 . S
C39 O40 1.232 . S
O40 C39 1.232 . S
C41 O33 1.260 . S
C41 O34 1.257 . S
Zn42 O45 2.031 . S
Zn42 O47 2.049 . S
Zn42 O52 2.067 . S
Zn43 O44 1.962 . S
Zn43 O46 1.986 . S
Zn43 O48 1.996 . S
Zn43 O51 1.943 . S
O44 Zn43 1.962 . S
O44 C49 1.254 . S
O45 Zn42 2.031 . S
O45 C49 1.269 . S
O46 Zn43 1.986 . S
O46 C53 1.262 . S
O47 Zn42 2.049 . S
O47 C55 1.260 . S
O48 Zn43 1.996 . S
O48 C55 1.257 . S
C49 O44 1.254 . S
C49 O45 1.269 . S
C50 O51 1.249 . S
C50 O52 1.270 . S
O51 Zn43 1.943 . S
O51 C50 1.249 . S
O52 Zn42 2.067 . S
O52 C50 1.270 . S
C53 O46 1.262 . S
C53 O54 1.232 . S
O54 C53 1.232 . S
C55 O47 1.260 . S
C55 O48 1.257 . S
Zn56 O59 2.031 . S
Zn56 O61 2.049 . S
Zn56 O66 2.067 . S
Zn57 O58 1.962 . S
Zn57 O60 1.986 . S
Zn57 O62 1.996 . S
Zn57 O65 1.943 . S
O58 Zn57 1.962 . S
O58 C63 1.254 . S
O59 Zn56 2.031 . S
O59 C63 1.269 . S
O60 Zn57 1.986 . S
O60 C67 1.262 . S
O61 Zn56 2.049 . S
O61 C69 1.260 . S
O62 Zn57 1.996 . S
O62 C69 1.257 . S
C63 O58 1.254 . S
C63 O59 1.269 . S
C64 O65 1.249 . S
C64 O66 1.270 . S
O65 Zn57 1.943 . S
O65 C64 1.249 . S
O66 Zn56 2.067 . S
O66 C64 1.270 . S
C67 O60 1.262 . S
C67 O68 1.232 . S
O68 C67 1.232 . S
C69 O61 1.260 . S
C69 O62 1.257 . S
Zn70 O73 2.031 . S
Zn70 O75 2.049 . S
Zn70 O80 2.067 . S
Zn71 O72 1.962 . S
Zn71 O74 1.986 . S
Zn71 O76 1.996 . S
Zn71 O79 1.943 . S
O72 Zn71 1.962 . S
O72 C77 1.254 . S
O73 Zn70 2.031 . S
O73 C77 1.269 . S
O74 Zn71 1.986 . S
O74 C81 1.262 . S
O75 Zn70 2.049 . S
O75 C83 1.260 . S
O76 Zn71 1.996 . S
O76 C83 1.257 . S
C77 O72 1.254 . S
C77 O73 1.269 . S
C78 O79 1.249 . S
C78 O80 1.270 . S
O79 Zn71 1.943 . S
O79 C78 1.249 . S
O80 Zn70 2.067 . S
O80 C78 1.270 . S
C81 O74 1.262 . S
C81 O82 1.232 . S
O82 C81 1.232 . S
C83 O75 1.260 . S
C83 O76 1.257 . S
Zn84 O87 2.031 . S
Zn84 O89 2.049 . S
Zn84 O94 2.067 . S
Zn85 O86 1.962 . S
Zn85 O88 1.986 . S
Zn85 O90 1.996 . S
Zn85 O93 1.943 . S
O86 Zn85 1.962 . S
O86 C91 1.254 . S
O87 Zn84 2.031 . S
O87 C91 1.269 . S
O88 Zn85 1.986 . S
O88 C95 1.262 . S
O89 Zn84 2.049 . S
O89 C97 1.260 . S
O90 Zn85 1.996 . S
O90 C97 1.257 . S
C91 O86 1.254 . S
C91 O87 1.269 . S
C92 O93 1.249 . S
C92 O94 1.270 . S
O93 Zn85 1.943 . S
O93 C92 1.249 . S
O94 Zn84 2.067 . S
O94 C92 1.270 . S
C95 O88 1.262 . S
C95 O96 1.232 . S
O96 C95 1.232 . S
C97 O89 1.260 . S
C97 O90 1.257 . S
Zn98 O101 2.031 . S
Zn98 O103 2.049 . S
Zn98 O108 2.067 . S
Zn99 O100 1.962 . S
Zn99 O102 1.986 . S
Zn99 O104 1.996 . S
Zn99 O107 1.943 . S
O100 Zn99 1.962 . S
O100 C105 1.254 . S
O101 Zn98 2.031 . S
O101 C105 1.269 . S
O102 Zn99 1.986 . S
O102 C109 1.262 . S
O103 Zn98 2.049 . S
O103 C111 1.260 . S
O104 Zn99 1.996 . S
O104 C111 1.257 . S
C105 O100 1.254 . S
C105 O101 1.269 . S
C106 O107 1.249 . S
C106 O108 1.270 . S
O107 Zn99 1.943 . S
O107 C106 1.249 . S
O108 Zn98 2.067 . S
O108 C106 1.270 . S
C109 O102 1.262 . S
C109 O110 1.232 . S
O110 C109 1.232 . S
C111 O103 1.260 . S
C111 O104 1.257 . S
Zn112 O115 2.031 . S
Zn112 O117 2.049 . S
Zn112 O122 2.067 . S
Zn113 O114 1.962 . S
Zn113 O116 1.986 . S
Zn113 O118 1.996 . S
Zn113 O121 1.943 . S
O114 Zn113 1.962 . S
O114 C119 1.254 . S
O115 Zn112 2.031 . S
O115 C119 1.269 . S
O116 Zn113 1.986 . S
O116 C123 1.262 . S
O117 Zn112 2.049 . S
O117 C125 1.260 . S
O118 Zn113 1.996 . S
O118 C125 1.257 . S
C119 O114 1.254 . S
C119 O115 1.269 . S
C120 O121 1.249 . S
C120 O122 1.270 . S
O121 Zn113 1.943 . S
O121 C120 1.249 . S
O122 Zn112 2.067 . S
O122 C120 1.270 . S
C123 O116 1.262 . S
C123 O124 1.232 . S
O124 C123 1.232 . S
C125 O117 1.260 . S
C125 O118 1.257 . S
Zn126 O129 2.031 . S
Zn126 O131 2.049 . S
Zn126 O136 2.067 . S
Zn127 O128 1.962 . S
Zn127 O130 1.986 . S
Zn127 O132 1.996 . S
Zn127 O135 1.943 . S
O128 Zn127 1.962 . S
O128 C133 1.254 . S
O129 Zn126 2.031 . S
O129 C133 1.269 . S
O130 Zn127 1.986 . S
O130 C137 1.262 . S
O131 Zn126 2.049 . S
O131 C139 1.260 . S
O132 Zn127 1.996 . S
O132 C139 1.257 . S
C133 O128 1.254 . S
C133 O129 1.269 . S
C134 O135 1.249 . S
C134 O136 1.270 . S
O135 Zn127 1.943 . S
O135 C134 1.249 . S
O136 Zn126 2.067 . S
O136 C134 1.270 . S
C137 O130 1.262 . S
C137 O138 1.232 . S
O138 C137 1.232 . S
C139 O131 1.260 . S
C139 O132 1.257 . S
Zn140 O143 2.031 . S
Zn140 O145 2.049 . S
Zn140 O150 2.067 . S
Zn141 O142 1.962 . S
Zn141 O144 1.986 . S
Zn141 O146 1.996 . S
Zn141 O149 1.943 . S
O142 Zn141 1.962 . S
O142 C147 1.254 . S
O143 Zn140 2.031 . S
O143 C147 1.269 . S
O144 Zn141 1.986 . S
O144 C151 1.262 . S
O145 Zn140 2.049 . S
O145 C153 1.260 . S
O146 Zn141 1.996 . S
O146 C153 1.257 . S
C147 O142 1.254 . S
C147 O143 1.269 . S
C148 O149 1.249 . S
C148 O150 1.270 . S
O149 Zn141 1.943 . S
O149 C148 1.249 . S
O150 Zn140 2.067 . S
O150 C148 1.270 . S
C151 O144 1.262 . S
C151 O152 1.232 . S
O152 C151 1.232 . S
C153 O145 1.260 . S
C153 O146 1.257 . S
Zn154 O157 2.031 . S
Zn154 O159 2.049 . S
Zn154 O164 2.067 . S
Zn155 O156 1.962 . S
Zn155 O158 1.986 . S
Zn155 O160 1.996 . S
Zn155 O163 1.943 . S
O156 Zn155 1.962 . S
O156 C161 1.254 . S
O157 Zn154 2.031 . S
O157 C161 1.269 . S
O158 Zn155 1.986 . S
O158 C165 1.262 . S
O159 Zn154 2.049 . S
O159 C167 1.260 . S
O160 Zn155 1.996 . S
O160 C167 1.257 . S
C161 O156 1.254 . S
C161 O157 1.269 . S
C162 O163 1.249 . S
C162 O164 1.270 . S
O163 Zn155 1.943 . S
O163 C162 1.249 . S
O164 Zn154 2.067 . S
O164 C162 1.270 . S
C165 O158 1.262 . S
C165 O166 1.232 . S
O166 C165 1.232 . S
C167 O159 1.260 . S
C167 O160 1.257 . S
H168 C176 0.929 . S
H169 C178 0.930 . S
H170 C180 0.930 . S
H171 C183 0.929 . S
H172 C186 0.930 . S
H173 C188 0.960 . S
H174 C188 0.960 . S
H175 C188 0.960 . S
C176 H168 0.929 . S
C176 C177 1.377 . S
C176 C178 1.384 . S
C177 C176 1.377 . S
C177 C183 1.390 . S
C178 H169 0.930 . S
C178 C176 1.384 . S
C178 C179 1.372 . S
C179 C178 1.372 . S
C179 C180 1.400 . S
C179 C184 1.490 . S
C180 H170 0.930 . S
C180 C179 1.400 . S
C180 C183 1.386 . S
H181 C197 0.930 . S
H182 C198 0.931 . S
C183 H171 0.929 . S
C183 C177 1.390 . S
C183 C180 1.386 . S
C184 C179 1.490 . S
C184 C186 1.395 . S
C184 C187 1.403 . S
H185 C191 0.930 . S
C186 H172 0.930 . S
C186 C184 1.395 . S
C186 C189 1.403 1_454 S
C187 C184 1.403 . S
C187 C188 1.524 . S
C187 C191 1.400 1_454 S
C188 H173 0.960 . S
C188 H174 0.960 . S
C188 H175 0.960 . S
C188 C187 1.524 . S
C189 C186 1.403 1_656 S
C189 C190 1.392 . S
C189 C193 1.495 . S
C190 C189 1.392 . S
C190 C191 1.385 . S
C190 C192 1.478 . S
C191 H185 0.930 . S
C191 C187 1.400 1_656 S
C191 C190 1.385 . S
C192 C190 1.478 . S
C192 C194 1.381 . S
C192 C198 1.383 . S
C193 C189 1.495 . S
C193 H199 0.959 . S
C193 H200 0.961 . S
C193 H201 0.960 . S
C194 C192 1.381 . S
C194 C195 1.394 . S
C194 H202 0.970 . S
C195 C194 1.394 . S
C195 C196 1.383 . S
C195 H203 0.929 . S
C196 C195 1.383 . S
C196 C197 1.377 . S
C197 H181 0.930 . S
C197 C196 1.377 . S
C197 C198 1.379 . S
C198 H182 0.931 . S
C198 C192 1.383 . S
C198 C197 1.379 . S
H199 C193 0.959 . S
H200 C193 0.961 . S
H201 C193 0.960 . S
H202 C194 0.970 . S
H203 C195 0.929 . S
H204 C212 0.929 . S
H205 C214 0.930 . S
H206 C216 0.930 . S
H207 C219 0.929 . S
H208 C222 0.930 . S
H209 C224 0.960 . S
H210 C224 0.960 . S
H211 C224 0.960 . S
C212 H204 0.929 . S
C212 C213 1.377 . S
C212 C214 1.384 . S
C213 C212 1.377 . S
C213 C219 1.390 . S
C214 H205 0.930 . S
C214 C212 1.384 . S
C214 C215 1.372 . S
C215 C214 1.372 . S
C215 C216 1.400 . S
C215 C220 1.490 . S
C216 H206 0.930 . S
C216 C215 1.400 . S
C216 C219 1.386 . S
H217 C233 0.930 . S
H218 C234 0.931 . S
C219 H207 0.929 . S
C219 C213 1.390 . S
C219 C216 1.386 . S
C220 C215 1.490 . S
C220 C222 1.395 . S
C220 C223 1.403 . S
H221 C227 0.930 . S
C222 H208 0.930 . S
C222 C220 1.395 . S
C222 C225 1.403 1_565 S
C223 C220 1.403 . S
C223 C224 1.524 . S
C223 C227 1.400 1_565 S
C224 H209 0.960 . S
C224 H210 0.960 . S
C224 H211 0.960 . S
C224 C223 1.524 . S
C225 C222 1.403 1_545 S
C225 C226 1.392 . S
C225 C229 1.495 . S
C226 C225 1.392 . S
C226 C227 1.385 . S
C226 C228 1.478 . S
C227 H221 0.930 . S
C227 C223 1.400 1_545 S
C227 C226 1.385 . S
C228 C226 1.478 . S
C228 C230 1.381 . S
C228 C234 1.383 . S
C229 C225 1.495 . S
C229 H235 0.959 . S
C229 H236 0.961 . S
C229 H237 0.960 . S
C230 C228 1.381 . S
C230 C231 1.394 . S
C230 H238 0.930 . S
C231 C230 1.394 . S
C231 C232 1.383 . S
C231 H239 0.929 . S
C232 C231 1.383 . S
C232 C233 1.377 . S
C233 H217 0.930 . S
C233 C232 1.377 . S
C233 C234 1.379 . S
C234 H218 0.931 . S
C234 C228 1.383 . S
C234 C233 1.379 . S
H235 C229 0.959 . S
H236 C229 0.961 . S
H237 C229 0.960 . S
H238 C230 0.930 . S
H239 C231 0.929 . S
H240 C248 0.929 . S
H241 C250 0.930 . S
H242 C252 0.930 . S
H243 C255 0.929 . S
H244 C258 0.930 . S
H245 C260 0.960 . S
H246 C260 0.960 . S
H247 C260 0.960 . S
C248 H240 0.929 . S
C248 C249 1.377 . S
C248 C250 1.384 . S
C249 C248 1.377 . S
C249 C255 1.390 . S
C250 H241 0.930 . S
C250 C248 1.384 . S
C250 C251 1.372 . S
C251 C250 1.372 . S
C251 C252 1.400 . S
C251 C256 1.490 . S
C252 H242 0.930 . S
C252 C251 1.400 . S
C252 C255 1.386 . S
H253 C269 0.930 . S
H254 C270 0.931 . S
C255 H243 0.929 . S
C255 C249 1.390 . S
C255 C252 1.386 . S
C256 C251 1.490 . S
C256 C258 1.395 . S
C256 C259 1.403 . S
H257 C263 0.930 . S
C258 H244 0.930 . S
C258 C256 1.395 . S
C258 C261 1.403 1_554 S
C259 C256 1.403 . S
C259 C260 1.524 . S
C259 C263 1.400 1_554 S
C260 H245 0.960 . S
C260 H246 0.960 . S
C260 H247 0.960 . S
C260 C259 1.524 . S
C261 C258 1.403 1_556 S
C261 C262 1.392 . S
C261 C265 1.495 . S
C262 C261 1.392 . S
C262 C263 1.385 . S
C262 C264 1.478 . S
C263 H257 0.930 . S
C263 C259 1.400 1_556 S
C263 C262 1.385 . S
C264 C262 1.478 . S
C264 C266 1.381 . S
C264 C270 1.383 . S
C265 C261 1.495 . S
C265 H271 0.959 . S
C265 H272 0.961 . S
C265 H273 0.960 . S
C266 C264 1.381 . S
C266 C267 1.394 . S
C266 H274 0.930 . S
C267 C266 1.394 . S
C267 C268 1.383 . S
C267 H275 0.929 . S
C268 C267 1.383 . S
C268 C269 1.377 . S
C269 H253 0.930 . S
C269 C268 1.377 . S
C269 C270 1.379 . S
C270 H254 0.931 . S
C270 C264 1.383 . S
C270 C269 1.379 . S
H271 C265 0.959 . S
H272 C265 0.961 . S
H273 C265 0.960 . S
H274 C266 0.930 . S
H275 C267 0.929 . S
H276 C284 0.929 . S
H277 C286 0.930 . S
H278 C288 0.930 . S
H279 C291 0.929 . S
H280 C294 0.930 . S
H281 C296 0.960 . S
H282 C296 0.960 . S
H283 C296 0.960 . S
C284 H276 0.929 . S
C284 C285 1.377 . S
C284 C286 1.384 . S
C285 C284 1.377 . S
C285 C291 1.390 . S
C286 H277 0.930 . S
C286 C284 1.384 . S
C286 C287 1.372 . S
C287 C286 1.372 . S
C287 C288 1.400 . S
C287 C292 1.490 . S
C288 H278 0.930 . S
C288 C287 1.400 . S
C288 C291 1.386 . S
H289 C305 0.930 . S
H290 C306 0.931 . S
C291 H279 0.929 . S
C291 C285 1.390 . S
C291 C288 1.386 . S
C292 C287 1.490 . S
C292 C294 1.395 1_455 S
C292 C295 1.403 . S
H293 C299 0.930 . S
C294 H280 0.930 . S
C294 C292 1.395 1_655 S
C294 C297 1.403 . S
C295 C292 1.403 . S
C295 C296 1.524 . S
C295 C299 1.400 . S
C296 H281 0.960 . S
C296 H282 0.960 . S
C296 H283 0.960 . S
C296 C295 1.524 . S
C297 C294 1.403 . S
C297 C298 1.392 . S
C297 C301 1.495 . S
C298 C297 1.392 . S
C298 C299 1.385 1_655 S
C298 C300 1.478 . S
C299 H293 0.930 . S
C299 C295 1.400 . S
C299 C298 1.385 1_455 S
C300 C298 1.478 . S
C300 C302 1.381 . S
C300 C306 1.383 . S
C301 C297 1.495 . S
C301 H307 0.959 . S
C301 H308 0.961 . S
C301 H309 0.960 . S
C302 C300 1.381 . S
C302 C303 1.394 . S
C302 H310 0.930 . S
C303 C302 1.394 . S
C303 C304 1.383 . S
C303 H311 0.929 . S
C304 C303 1.383 . S
C304 C305 1.377 . S
C305 H289 0.930 . S
C305 C304 1.377 . S
C305 C306 1.379 . S
C306 H290 0.931 . S
C306 C300 1.383 . S
C306 C305 1.379 . S
H307 C301 0.959 . S
H308 C301 0.961 . S
H309 C301 0.960 . S
H310 C302 0.930 . S
H311 C303 0.929 . S
H312 C320 0.929 . S
H313 C322 0.930 . S
H314 C324 0.930 . S
H315 C327 0.929 . S
H316 C330 0.930 . S
H317 C332 0.960 . S
H318 C332 0.960 . S
H319 C332 0.960 . S
C320 H312 0.929 . S
C320 C321 1.377 . S
C320 C322 1.384 . S
C321 C320 1.377 . S
C321 C327 1.390 . S
C322 H313 0.930 . S
C322 C320 1.384 . S
C322 C323 1.372 . S
C323 C322 1.372 . S
C323 C324 1.400 . S
C323 C328 1.490 . S
C324 H314 0.930 . S
C324 C323 1.400 . S
C324 C327 1.386 . S
H325 C341 0.930 . S
H326 C342 0.931 . S
C327 H315 0.929 . S
C327 C321 1.390 . S
C327 C324 1.386 . S
C328 C323 1.490 . S
C328 C330 1.395 . S
C328 C331 1.403 1_545 S
H329 C335 0.930 . S
C330 H316 0.930 . S
C330 C328 1.395 . S
C330 C333 1.403 1_556 S
C331 C328 1.403 1_565 S
C331 C332 1.524 . S
C331 C335 1.400 1_556 S
C332 H317 0.960 . S
C332 H318 0.960 . S
C332 H319 0.960 . S
C332 C331 1.524 . S
C333 C330 1.403 1_554 S
C333 C334 1.392 1_545 S
C333 C337 1.495 . S
C334 C333 1.392 1_565 S
C334 C335 1.385 . S
C334 C336 1.478 . S
C335 H329 0.930 . S
C335 C331 1.400 1_554 S
C335 C334 1.385 . S
C336 C334 1.478 . S
C336 C338 1.381 . S
C336 C342 1.383 . S
C337 C333 1.495 . S
C337 H343 0.959 . S
C337 H344 0.961 . S
C337 H345 0.960 . S
C338 C336 1.381 . S
C338 C339 1.394 . S
C338 H346 0.930 . S
C339 C338 1.394 . S
C339 C340 1.383 . S
C339 H347 0.929 . S
C340 C339 1.383 . S
C340 C341 1.377 . S
C341 H325 0.930 . S
C341 C340 1.377 . S
C341 C342 1.379 . S
C342 H326 0.931 . S
C342 C336 1.383 . S
C342 C341 1.379 . S
H343 C337 0.959 . S
H344 C337 0.961 . S
H345 C337 0.960 . S
H346 C338 0.930 . S
H347 C339 0.929 . S
H348 C356 0.929 . S
H349 C358 0.930 . S
H350 C360 0.930 . S
H351 C363 0.929 . S
H352 C366 0.930 . S
H353 C368 0.960 . S
H354 C368 0.960 . S
H355 C368 0.960 . S
C356 H348 0.929 . S
C356 C357 1.377 . S
C356 C358 1.384 . S
C357 C356 1.377 . S
C357 C363 1.390 . S
C358 H349 0.930 . S
C358 C356 1.384 . S
C358 C359 1.372 . S
C359 C358 1.372 . S
C359 C360 1.400 . S
C359 C364 1.490 . S
C360 H350 0.930 . S
C360 C359 1.400 . S
C360 C363 1.386 . S
H361 C377 0.930 . S
H362 C378 0.931 . S
C363 H351 0.929 . S
C363 C357 1.390 . S
C363 C360 1.386 . S
C364 C359 1.490 . S
C364 C366 1.395 . S
C364 C367 1.403 . S
H365 C371 0.930 . S
C366 H352 0.930 . S
C366 C364 1.395 . S
C366 C369 1.403 . S
C367 C364 1.403 . S
C367 C368 1.524 . S
C367 C371 1.400 . S
C368 H353 0.960 . S
C368 H354 0.960 . S
C368 H355 0.960 . S
C368 C367 1.524 . S
C369 C366 1.403 . S
C369 C370 1.392 . S
C369 C373 1.495 . S
C370 C369 1.392 . S
C370 C371 1.385 . S
C370 C372 1.478 . S
C371 H365 0.930 . S
C371 C367 1.400 . S
C371 C370 1.385 . S
C372 C370 1.478 . S
C372 C374 1.381 . S
C372 C378 1.383 . S
C373 C369 1.495 . S
C373 H379 0.959 . S
C373 H380 0.961 . S
C373 H381 0.960 . S
C374 C372 1.381 . S
C374 C375 1.394 . S
C374 H382 0.930 . S
C375 C374 1.394 . S
C375 C376 1.383 . S
C375 H383 0.929 . S
C376 C375 1.383 . S
C376 C377 1.377 . S
C377 H361 0.930 . S
C377 C376 1.377 . S
C377 C378 1.379 . S
C378 H362 0.931 . S
C378 C372 1.383 . S
C378 C377 1.379 . S
H379 C373 0.959 . S
H380 C373 0.961 . S
H381 C373 0.960 . S
H382 C374 0.930 . S
H383 C375 0.929 . S
H384 C392 0.929 . S
H385 C394 0.930 . S
H386 C396 0.930 . S
H387 C399 0.929 . S
H388 C402 0.930 . S
H389 C404 0.960 . S
H390 C404 0.960 . S
H391 C404 0.960 . S
C392 H384 0.929 . S
C392 C393 1.377 . S
C392 C394 1.384 . S
C393 C392 1.377 . S
C393 C399 1.390 . S
C394 H385 0.930 . S
C394 C392 1.384 . S
C394 C395 1.372 . S
C395 C394 1.372 . S
C395 C396 1.400 . S
C395 C400 1.490 . S
C396 H386 0.930 . S
C396 C395 1.400 . S
C396 C399 1.386 . S
H397 C413 0.930 . S
H398 C414 0.931 . S
C399 H387 0.929 . S
C399 C393 1.390 . S
C399 C396 1.386 . S
C400 C395 1.490 . S
C400 C402 1.395 . S
C400 C403 1.403 1_655 S
H401 C407 0.930 . S
C402 H388 0.930 . S
C402 C400 1.395 . S
C402 C405 1.403 1_556 S
C403 C400 1.403 1_455 S
C403 C404 1.524 . S
C403 C407 1.400 1_556 S
C404 H389 0.960 . S
C404 H390 0.960 . S
C404 H391 0.960 . S
C404 C403 1.524 . S
C405 C402 1.403 1_554 S
C405 C406 1.392 1_655 S
C405 C409 1.495 . S
C406 C405 1.392 1_455 S
C406 C407 1.385 . S
C406 C408 1.478 . S
C407 H401 0.930 . S
C407 C403 1.400 1_554 S
C407 C406 1.385 . S
C408 C406 1.478 . S
C408 C410 1.381 . S
C408 C414 1.383 . S
C409 C405 1.495 . S
C409 H415 0.959 . S
C409 H416 0.961 . S
C409 H417 0.960 . S
C410 C408 1.381 . S
C410 C411 1.394 . S
C410 H418 0.930 . S
C411 C410 1.394 . S
C411 C412 1.383 . S
C411 H419 0.929 . S
C412 C411 1.383 . S
C412 C413 1.377 . S
C413 H397 0.930 . S
C413 C412 1.377 . S
C413 C414 1.379 . S
C414 H398 0.931 . S
C414 C408 1.383 . S
C414 C413 1.379 . S
H415 C409 0.959 . S
H416 C409 0.961 . S
H417 C409 0.960 . S
H418 C410 0.930 . S
H419 C411 0.929 . S
H420 C428 0.929 . S
H421 C430 0.930 . S
H422 C432 0.930 1_545 S
H423 C435 0.929 . S
H424 C438 0.930 . S
H425 C440 0.960 . S
H426 C440 0.965 . S
H427 C440 0.960 . S
C428 H420 0.929 . S
C428 C429 1.377 . S
C428 C430 1.384 . S
C429 C428 1.377 . S
C429 C435 1.390 . S
C430 H421 0.930 . S
C430 C428 1.384 . S
C430 C431 1.372 . S
C431 C430 1.372 . S
C431 C432 1.400 . S
C431 C436 1.490 . S
C432 H422 0.930 1_565 S
C432 C431 1.400 . S
C432 C435 1.386 . S
H433 C449 0.930 . S
H434 C450 0.931 . S
C435 H423 0.929 . S
C435 C429 1.390 . S
C435 C432 1.386 . S
C436 C431 1.490 . S
C436 C438 1.395 . S
C436 C439 1.403 1_565 S
H437 C443 0.930 . S
C438 H424 0.930 . S
C438 C436 1.395 . S
C438 C441 1.403 . S
C439 C436 1.403 1_545 S
C439 C440 1.524 . S
C439 C443 1.400 . S
C440 H425 0.960 . S
C440 H426 0.965 . S
C440 H427 0.960 . S
C440 C439 1.524 . S
C441 C438 1.403 . S
C441 C442 1.392 1_565 S
C441 C445 1.495 . S
C442 C441 1.392 1_545 S
C442 C443 1.385 . S
C442 C444 1.478 . S
C443 H437 0.930 . S
C443 C439 1.400 . S
C443 C442 1.385 . S
C444 C442 1.478 . S
C444 C446 1.381 . S
C444 C450 1.383 . S
C445 C441 1.495 . S
C445 H451 0.959 . S
C445 H452 0.961 . S
C445 H453 0.960 . S
C446 C444 1.381 . S
C446 C447 1.394 . S
C446 H454 0.930 1_545 S
C447 C446 1.394 . S
C447 C448 1.383 . S
C447 H455 0.929 . S
C448 C447 1.383 . S
C448 C449 1.377 . S
C449 H433 0.930 . S
C449 C448 1.377 . S
C449 C450 1.379 . S
C450 H434 0.931 . S
C450 C444 1.383 . S
C450 C449 1.379 . S
H451 C445 0.959 . S
H452 C445 0.961 . S
H453 C445 0.960 . S
H454 C446 0.930 1_565 S
H455 C447 0.929 . S
H456 C464 0.929 . S
H457 C466 0.930 . S
H458 C468 0.930 . S
H459 C471 0.929 . S
H460 C474 0.930 . S
H461 C476 0.960 1_554 S
H462 C476 0.960 . S
H463 C476 0.960 . S
C464 H456 0.929 . S
C464 C465 1.377 . S
C464 C466 1.384 . S
C465 C464 1.377 . S
C465 C471 1.390 . S
C466 H457 0.930 . S
C466 C464 1.384 . S
C466 C467 1.372 . S
C467 C466 1.372 . S
C467 C468 1.400 . S
C467 C472 1.490 . S
C468 H458 0.930 . S
C468 C467 1.400 . S
C468 C471 1.386 . S
H469 C485 0.930 . S
H470 C486 0.931 . S
C471 H459 0.929 . S
C471 C465 1.390 . S
C471 C468 1.386 . S
C472 C467 1.490 . S
C472 C474 1.395 . S
C472 C475 1.403 . S
H473 C479 0.930 . S
C474 H460 0.930 . S
C474 C472 1.395 . S
C474 C477 1.393 1_556 S
C475 C472 1.403 . S
C475 C476 1.524 . S
C475 C479 1.400 1_556 S
C476 H461 0.960 1_556 S
C476 H462 0.960 . S
C476 H463 0.960 . S
C476 C475 1.524 . S
C477 C474 1.393 1_554 S
C477 C478 1.402 . S
C477 C481 1.495 . S
C478 C477 1.402 . S
C478 C479 1.385 . S
C478 C480 1.478 . S
C479 H473 0.930 . S
C479 C475 1.400 1_554 S
C479 C478 1.385 . S
C480 C478 1.478 . S
C480 C482 1.381 . S
C480 C486 1.383 . S
C481 C477 1.495 . S
C481 H487 0.950 1_554 S
C481 H488 0.963 . S
C481 H489 0.967 . S
C482 C480 1.381 . S
C482 C483 1.394 . S
C482 H490 0.930 . S
C483 C482 1.394 . S
C483 C484 1.383 . S
C483 H491 0.929 . S
C484 C483 1.383 . S
C484 C485 1.377 . S
C485 H469 0.930 . S
C485 C484 1.377 . S
C485 C486 1.379 . S
C486 H470 0.931 . S
C486 C480 1.383 . S
C486 C485 1.379 . S
H487 C481 0.950 1_556 S
H488 C481 0.963 . S
H489 C481 0.967 . S
H490 C482 0.930 . S
H491 C483 0.929 . S
H492 C500 0.929 . S
H493 C502 0.930 . S
H494 C504 0.930 . S
H495 C507 0.929 . S
H496 C510 0.930 . S
H497 C512 0.960 . S
H498 C512 0.960 . S
H499 C512 0.960 . S
C500 H492 0.929 . S
C500 C501 1.377 . S
C500 C502 1.384 . S
C501 C500 1.377 . S
C501 C507 1.390 . S
C502 H493 0.930 . S
C502 C500 1.384 . S
C502 C503 1.372 . S
C503 C502 1.372 . S
C503 C504 1.400 . S
C503 C508 1.490 . S
C504 H494 0.930 . S
C504 C503 1.400 . S
C504 C507 1.386 . S
H505 C521 0.930 . S
H506 C522 0.931 . S
C507 H495 0.929 . S
C507 C501 1.390 . S
C507 C504 1.386 . S
C508 C503 1.490 . S
C508 C510 1.395 1_655 S
C508 C511 1.403 . S
H509 C515 0.930 . S
C510 H496 0.930 . S
C510 C508 1.395 1_455 S
C510 C513 1.403 . S
C511 C508 1.403 . S
C511 C512 1.524 . S
C511 C515 1.400 . S
C512 H497 0.960 . S
C512 H498 0.960 . S
C512 H499 0.960 . S
C512 C511 1.524 . S
C513 C510 1.403 . S
C513 C514 1.392 . S
C513 C517 1.495 . S
C514 C513 1.392 . S
C514 C515 1.385 1_455 S
C514 C516 1.478 . S
C515 H509 0.930 . S
C515 C511 1.400 . S
C515 C514 1.385 1_655 S
C516 C514 1.478 . S
C516 C518 1.381 . S
C516 C522 1.383 . S
C517 C513 1.495 . S
C517 H523 0.959 . S
C517 H524 0.961 . S
C517 H525 0.960 . S
C518 C516 1.381 . S
C518 C519 1.394 . S
C518 H526 0.930 . S
C519 C518 1.394 . S
C519 C520 1.383 . S
C519 H527 0.929 . S
C520 C519 1.383 . S
C520 C521 1.377 . S
C521 H505 0.930 . S
C521 C520 1.377 . S
C521 C522 1.379 . S
C522 H506 0.931 . S
C522 C516 1.383 . S
C522 C521 1.379 . S
H523 C517 0.959 . S
H524 C517 0.961 . S
H525 C517 0.960 . S
H526 C518 0.930 . S
H527 C519 0.929 . S
H528 C536 0.929 . S
H529 C538 0.930 . S
H530 C540 0.924 1_565 S
H531 C543 0.929 . S
H532 C546 0.930 . S
H533 C548 0.960 . S
H534 C548 0.960 . S
H535 C548 0.960 . S
C536 H528 0.929 . S
C536 C537 1.377 . S
C536 C538 1.384 . S
C537 C536 1.377 . S
C537 C543 1.390 . S
C538 H529 0.930 . S
C538 C536 1.384 . S
C538 C539 1.372 . S
C539 C538 1.372 . S
C539 C540 1.400 . S
C539 C544 1.490 . S
C540 H530 0.924 1_545 S
C540 C539 1.400 . S
C540 C543 1.386 . S
H541 C557 0.930 . S
H542 C558 0.931 . S
C543 H531 0.929 . S
C543 C537 1.390 . S
C543 C540 1.386 . S
C544 C539 1.490 . S
C544 C546 1.395 . S
C544 C547 1.403 . S
H545 C551 0.930 . S
C546 H532 0.930 . S
C546 C544 1.395 . S
C546 C549 1.403 1_546 S
C547 C544 1.403 . S
C547 C548 1.524 . S
C547 C551 1.400 1_546 S
C548 H533 0.960 . S
C548 H534 0.960 . S
C548 H535 0.960 . S
C548 C547 1.524 . S
C549 C546 1.403 1_564 S
C549 C550 1.392 . S
C549 C553 1.495 . S
C550 C549 1.392 . S
C550 C551 1.385 . S
C550 C552 1.478 . S
C551 H545 0.930 . S
C551 C547 1.400 1_564 S
C551 C550 1.385 . S
C552 C550 1.478 . S
C552 C554 1.381 . S
C552 C558 1.383 . S
C553 C549 1.495 . S
C553 H559 0.959 . S
C553 H560 0.961 . S
C553 H561 0.960 . S
C554 C552 1.381 . S
C554 C555 1.394 . S
C554 H562 0.930 1_565 S
C555 C554 1.394 . S
C555 C556 1.383 . S
C555 H563 0.929 . S
C556 C555 1.383 . S
C556 C557 1.377 . S
C557 H541 0.930 . S
C557 C556 1.377 . S
C557 C558 1.379 . S
C558 H542 0.931 . S
C558 C552 1.383 . S
C558 C557 1.379 . S
H559 C553 0.959 . S
H560 C553 0.961 . S
H561 C553 0.960 . S
H562 C554 0.930 1_545 S
H563 C555 0.929 . S
H564 C572 0.929 . S
H565 C574 0.930 . S
H566 C576 0.930 . S
H567 C579 0.929 . S
H568 C582 0.930 . S
H569 C584 0.960 . S
H570 C584 0.960 . S
H571 C584 0.960 . S
C572 H564 0.929 . S
C572 C573 1.377 . S
C572 C574 1.384 . S
C573 C572 1.377 . S
C573 C579 1.390 . S
C574 H565 0.930 . S
C574 C572 1.384 . S
C574 C575 1.372 . S
C575 C574 1.372 . S
C575 C576 1.400 . S
C575 C580 1.490 . S
C576 H566 0.930 . S
C576 C575 1.400 . S
C576 C579 1.386 . S
H577 C593 0.930 . S
H578 C594 0.931 . S
C579 H567 0.929 . S
C579 C573 1.390 . S
C579 C576 1.386 . S
C580 C575 1.490 . S
C580 C582 1.395 . S
C580 C583 1.403 . S
H581 C587 0.930 . S
C582 H568 0.930 . S
C582 C580 1.395 . S
C582 C585 1.403 . S
C583 C580 1.403 . S
C583 C584 1.524 . S
C583 C587 1.400 . S
C584 H569 0.960 . S
C584 H570 0.960 . S
C584 H571 0.960 . S
C584 C583 1.524 . S
C585 C582 1.403 . S
C585 C586 1.392 . S
C585 C589 1.495 . S
C586 C585 1.392 . S
C586 C587 1.385 . S
C586 C588 1.478 . S
C587 H581 0.930 . S
C587 C583 1.400 . S
C587 C586 1.385 . S
C588 C586 1.478 . S
C588 C590 1.381 . S
C588 C594 1.383 . S
C589 C585 1.495 . S
C589 H595 0.959 . S
C589 H596 0.961 . S
C589 H597 0.960 . S
C590 C588 1.381 . S
C590 C591 1.394 . S
C590 H598 0.930 . S
C591 C590 1.394 . S
C591 C592 1.383 . S
C591 H599 0.929 . S
C592 C591 1.383 . S
C592 C593 1.377 . S
C593 H577 0.930 . S
C593 C592 1.377 . S
C593 C594 1.379 . S
C594 H578 0.931 . S
C594 C588 1.383 . S
C594 C593 1.379 . S
H595 C589 0.959 . S
H596 C589 0.961 . S
H597 C589 0.960 . S
H598 C590 0.930 . S
H599 C591 0.929 . S
H600 C608 0.929 . S
H601 C610 0.930 . S
H602 C612 0.930 . S
H603 C615 0.929 . S
H604 C618 0.930 . S
H605 C620 0.960 . S
H606 C620 0.960 . S
H607 C620 0.960 . S
C608 H600 0.929 . S
C608 C609 1.377 . S
C608 C610 1.384 . S
C609 C608 1.377 . S
C609 C615 1.390 . S
C610 H601 0.930 . S
C610 C608 1.384 . S
C610 C611 1.372 . S
C611 C610 1.372 . S
C611 C612 1.400 . S
C611 C616 1.490 . S
C612 H602 0.930 . S
C612 C611 1.400 . S
C612 C615 1.386 . S
H613 C629 0.930 . S
H614 C630 0.931 . S
C615 H603 0.929 . S
C615 C609 1.390 . S
C615 C612 1.386 . S
C616 C611 1.490 . S
C616 C618 1.395 . S
C616 C619 1.403 . S
H617 C623 0.930 . S
C618 H604 0.930 . S
C618 C616 1.395 . S
C618 C621 1.403 . S
C619 C616 1.403 . S
C619 C620 1.524 . S
C619 C623 1.400 . S
C620 H605 0.960 . S
C620 H606 0.960 . S
C620 H607 0.960 . S
C620 C619 1.524 . S
C621 C618 1.403 . S
C621 C622 1.392 . S
C621 C625 1.495 . S
C622 C621 1.392 . S
C622 C623 1.385 . S
C622 C624 1.478 . S
C623 H617 0.930 . S
C623 C619 1.400 . S
C623 C622 1.385 . S
C624 C622 1.478 . S
C624 C626 1.381 . S
C624 C630 1.383 . S
C625 C621 1.495 . S
C625 H631 0.959 . S
C625 H632 0.961 . S
C625 H633 0.960 . S
C626 C624 1.381 . S
C626 C627 1.394 . S
C626 H634 0.930 . S
C627 C626 1.394 . S
C627 C628 1.383 . S
C627 H635 0.929 . S
C628 C627 1.383 . S
C628 C629 1.377 . S
C629 H613 0.930 . S
C629 C628 1.377 . S
C629 C630 1.379 . S
C630 H614 0.931 . S
C630 C624 1.383 . S
C630 C629 1.379 . S
H631 C625 0.959 . S
H632 C625 0.961 . S
H633 C625 0.960 . S
H634 C626 0.930 . S
H635 C627 0.929 . S
H636 C644 0.929 . S
H637 C646 0.930 . S
H638 C648 0.930 . S
H639 C651 0.929 . S
H640 C654 0.930 . S
H641 C656 0.960 . S
H642 C656 0.960 . S
H643 C656 0.960 . S
C644 H636 0.929 . S
C644 C645 1.377 . S
C644 C646 1.384 . S
C645 C644 1.377 . S
C645 C651 1.390 . S
C646 H637 0.930 . S
C646 C644 1.384 . S
C646 C647 1.372 . S
C647 C646 1.372 . S
C647 C648 1.400 . S
C647 C652 1.490 . S
C648 H638 0.930 . S
C648 C647 1.400 . S
C648 C651 1.386 . S
H649 C665 0.930 . S
H650 C666 0.931 . S
C651 H639 0.929 . S
C651 C645 1.390 . S
C651 C648 1.386 . S
C652 C647 1.490 . S
C652 C654 1.395 . S
C652 C655 1.403 . S
H653 C659 0.930 . S
C654 H640 0.930 . S
C654 C652 1.395 . S
C654 C657 1.403 . S
C655 C652 1.403 . S
C655 C656 1.524 . S
C655 C659 1.400 . S
C656 H641 0.960 . S
C656 H642 0.960 . S
C656 H643 0.960 . S
C656 C655 1.524 . S
C657 C654 1.403 . S
C657 C658 1.392 . S
C657 C661 1.495 . S
C658 C657 1.392 . S
C658 C659 1.385 . S
C658 C660 1.478 . S
C659 H653 0.930 . S
C659 C655 1.400 . S
C659 C658 1.385 . S
C660 C658 1.478 . S
C660 C662 1.381 . S
C660 C666 1.383 . S
C661 C657 1.495 . S
C661 H667 0.959 . S
C661 H668 0.961 . S
C661 H669 0.960 . S
C662 C660 1.381 . S
C662 C663 1.394 . S
C662 H670 0.930 . S
C663 C662 1.394 . S
C663 C664 1.383 . S
C663 H671 0.929 . S
C664 C663 1.383 . S
C664 C665 1.377 . S
C665 H649 0.930 . S
C665 C664 1.377 . S
C665 C666 1.379 . S
C666 H650 0.931 . S
C666 C660 1.383 . S
C666 C665 1.379 . S
H667 C661 0.959 . S
H668 C661 0.961 . S
H669 C661 0.960 . S
H670 C662 0.930 . S
H671 C663 0.929 . S
H672 C680 0.929 . S
H673 C682 0.930 . S
H674 C684 0.930 . S
H675 C687 0.929 . S
H676 C690 0.930 . S
H677 C692 0.960 . S
H678 C692 0.960 . S
H679 C692 0.960 . S
C680 H672 0.929 . S
C680 C681 1.377 . S
C680 C682 1.384 . S
C681 C680 1.377 . S
C681 C687 1.390 . S
C682 H673 0.930 . S
C682 C680 1.384 . S
C682 C683 1.372 . S
C683 C682 1.372 . S
C683 C684 1.400 . S
C683 C688 1.490 . S
C684 H674 0.930 . S
C684 C683 1.400 . S
C684 C687 1.386 . S
H685 C701 0.930 . S
H686 C702 0.931 . S
C687 H675 0.929 . S
C687 C681 1.390 . S
C687 C684 1.386 . S
C688 C683 1.490 . S
C688 C690 1.395 . S
C688 C691 1.403 . S
H689 C695 0.930 . S
C690 H676 0.930 . S
C690 C688 1.395 . S
C690 C693 1.403 . S
C691 C688 1.403 . S
C691 C692 1.524 . S
C691 C695 1.400 . S
C692 H677 0.960 . S
C692 H678 0.960 . S
C692 H679 0.960 . S
C692 C691 1.524 . S
C693 C690 1.403 . S
C693 C694 1.392 . S
C693 C697 1.495 . S
C694 C693 1.392 . S
C694 C695 1.385 . S
C694 C696 1.478 . S
C695 H689 0.930 . S
C695 C691 1.400 . S
C695 C694 1.385 . S
C696 C694 1.478 . S
C696 C698 1.381 . S
C696 C702 1.383 . S
C697 C693 1.495 . S
C697 H703 0.959 . S
C697 H704 0.961 . S
C697 H705 0.960 . S
C698 C696 1.381 . S
C698 C699 1.394 . S
C698 H706 0.930 . S
C699 C698 1.394 . S
C699 C700 1.383 . S
C699 H707 0.929 . S
C700 C699 1.383 . S
C700 C701 1.377 . S
C701 H685 0.930 . S
C701 C700 1.377 . S
C701 C702 1.379 . S
C702 H686 0.931 . S
C702 C696 1.383 . S
C702 C701 1.379 . S
H703 C697 0.959 . S
H704 C697 0.961 . S
H705 C697 0.960 . S
H706 C698 0.930 . S
H707 C699 0.929 . S
H708 C716 0.929 . S
H709 C718 0.930 . S
H710 C720 0.930 . S
H711 C723 0.929 . S
H712 C726 0.930 . S
H713 C728 0.960 . S
H714 C728 0.960 . S
H715 C728 0.960 . S
C716 H708 0.929 . S
C716 C717 1.377 . S
C716 C718 1.384 . S
C717 C716 1.377 . S
C717 C723 1.390 . S
C718 H709 0.930 . S
C718 C716 1.384 . S
C718 C719 1.372 . S
C719 C718 1.372 . S
C719 C720 1.400 . S
C719 C724 1.490 . S
C720 H710 0.930 . S
C720 C719 1.400 . S
C720 C723 1.386 . S
H721 C737 0.930 . S
H722 C738 0.931 . S
C723 H711 0.929 . S
C723 C717 1.390 . S
C723 C720 1.386 . S
C724 C719 1.490 . S
C724 C726 1.395 . S
C724 C727 1.403 . S
H725 C731 0.930 . S
C726 H712 0.930 . S
C726 C724 1.395 . S
C726 C729 1.403 . S
C727 C724 1.403 . S
C727 C728 1.524 . S
C727 C731 1.400 . S
C728 H713 0.960 . S
C728 H714 0.960 . S
C728 H715 0.960 . S
C728 C727 1.524 . S
C729 C726 1.403 . S
C729 C730 1.392 . S
C729 C733 1.495 . S
C730 C729 1.392 . S
C730 C731 1.385 . S
C730 C732 1.478 . S
C731 H725 0.930 . S
C731 C727 1.400 . S
C731 C730 1.385 . S
C732 C730 1.478 . S
C732 C734 1.381 . S
C732 C738 1.383 . S
C733 C729 1.495 . S
C733 H739 0.959 . S
C733 H740 0.961 . S
C733 H741 0.960 . S
C734 C732 1.381 . S
C734 C735 1.394 . S
C734 H742 0.930 . S
C735 C734 1.394 . S
C735 C736 1.383 . S
C735 H743 0.929 . S
C736 C735 1.383 . S
C736 C737 1.377 . S
C737 H721 0.930 . S
C737 C736 1.377 . S
C737 C738 1.379 . S
C738 H722 0.931 . S
C738 C732 1.383 . S
C738 C737 1.379 . S
H739 C733 0.959 . S
H740 C733 0.961 . S
H741 C733 0.960 . S
H742 C734 0.930 . S
H743 C735 0.929 . S
H744 C752 0.929 . S
H745 C754 0.930 . S
H746 C756 0.930 . S
H747 C759 0.929 . S
H748 C762 0.930 . S
H749 C764 0.960 . S
H750 C764 0.960 . S
H751 C764 0.960 . S
C752 H744 0.929 . S
C752 C753 1.377 . S
C752 C754 1.384 . S
C753 C752 1.377 . S
C753 C759 1.390 . S
C754 H745 0.930 . S
C754 C752 1.384 . S
C754 C755 1.372 . S
C755 C754 1.372 . S
C755 C756 1.400 . S
C755 C760 1.490 . S
C756 H746 0.930 . S
C756 C755 1.400 . S
C756 C759 1.386 . S
H757 C773 0.930 . S
H758 C774 0.931 . S
C759 H747 0.929 . S
C759 C753 1.390 . S
C759 C756 1.386 . S
C760 C755 1.490 . S
C760 C762 1.395 . S
C760 C763 1.403 . S
H761 C767 0.930 . S
C762 H748 0.930 . S
C762 C760 1.395 . S
C762 C765 1.403 . S
C763 C760 1.403 . S
C763 C764 1.524 . S
C763 C767 1.400 . S
C764 H749 0.960 . S
C764 H750 0.960 . S
C764 H751 0.960 . S
C764 C763 1.524 . S
C765 C762 1.403 . S
C765 C766 1.392 . S
C765 C769 1.495 . S
C766 C765 1.392 . S
C766 C767 1.385 . S
C766 C768 1.478 . S
C767 H761 0.930 . S
C767 C763 1.400 . S
C767 C766 1.385 . S
C768 C766 1.478 . S
C768 C770 1.381 . S
C768 C774 1.383 . S
C769 C765 1.495 . S
C769 H775 0.959 . S
C769 H776 0.961 . S
C769 H777 0.960 . S
C770 C768 1.381 . S
C770 C771 1.394 . S
C770 H778 0.930 . S
C771 C770 1.394 . S
C771 C772 1.383 . S
C771 H779 0.929 . S
C772 C771 1.383 . S
C772 C773 1.377 . S
C773 H757 0.930 . S
C773 C772 1.377 . S
C773 C774 1.379 . S
C774 H758 0.931 . S
C774 C768 1.383 . S
C774 C773 1.379 . S
H775 C769 0.959 . S
H776 C769 0.961 . S
H777 C769 0.960 . S
H778 C770 0.930 . S
H779 C771 0.929 . S
H780 C788 0.929 . S
H781 C790 0.930 . S
H782 C792 0.930 . S
H783 C795 0.929 . S
H784 C798 0.930 . S
H785 C800 0.960 . S
H786 C800 0.960 . S
H787 C800 0.960 . S
C788 H780 0.929 . S
C788 C789 1.377 . S
C788 C790 1.384 . S
C789 C788 1.377 . S
C789 C795 1.390 . S
C790 H781 0.930 . S
C790 C788 1.384 . S
C790 C791 1.372 . S
C791 C790 1.372 . S
C791 C792 1.400 . S
C791 C796 1.490 . S
C792 H782 0.930 . S
C792 C791 1.400 . S
C792 C795 1.386 . S
H793 C809 0.930 . S
H794 C810 0.931 . S
C795 H783 0.929 . S
C795 C789 1.390 . S
C795 C792 1.386 . S
C796 C791 1.490 . S
C796 C798 1.395 . S
C796 C799 1.403 . S
H797 C803 0.930 . S
C798 H784 0.930 . S
C798 C796 1.395 . S
C798 C801 1.403 . S
C799 C796 1.403 . S
C799 C800 1.524 . S
C799 C803 1.400 . S
C800 H785 0.960 . S
C800 H786 0.960 . S
C800 H787 0.960 . S
C800 C799 1.524 . S
C801 C798 1.403 . S
C801 C802 1.392 . S
C801 C805 1.495 . S
C802 C801 1.392 . S
C802 C803 1.385 . S
C802 C804 1.478 . S
C803 H797 0.930 . S
C803 C799 1.400 . S
C803 C802 1.385 . S
C804 C802 1.478 . S
C804 C806 1.381 . S
C804 C810 1.383 . S
C805 C801 1.495 . S
C805 H811 0.959 . S
C805 H812 0.961 . S
C805 H813 0.960 . S
C806 C804 1.381 . S
C806 C807 1.394 . S
C806 H814 0.930 . S
C807 C806 1.394 . S
C807 C808 1.383 . S
C807 H815 0.929 . S
C808 C807 1.383 . S
C808 C809 1.377 . S
C809 H793 0.930 . S
C809 C808 1.377 . S
C809 C810 1.379 . S
C810 H794 0.931 . S
C810 C804 1.383 . S
C810 C809 1.379 . S
H811 C805 0.959 . S
H812 C805 0.961 . S
H813 C805 0.960 . S
H814 C806 0.930 . S
H815 C807 0.929 . S
H816 C824 0.929 . S
H817 C826 0.930 . S
H818 C828 0.930 . S
H819 C831 0.929 . S
H820 C834 0.930 . S
H821 C836 0.960 . S
H822 C836 0.960 . S
H823 C836 0.960 . S
C824 H816 0.929 . S
C824 C825 1.377 . S
C824 C826 1.384 . S
C825 C824 1.377 . S
C825 C831 1.390 . S
C826 H817 0.930 . S
C826 C824 1.384 . S
C826 C827 1.372 . S
C827 C826 1.372 . S
C827 C828 1.400 . S
C827 C832 1.490 . S
C828 H818 0.930 . S
C828 C827 1.400 . S
C828 C831 1.386 . S
H829 C845 0.930 . S
H830 C846 0.931 . S
C831 H819 0.929 . S
C831 C825 1.390 . S
C831 C828 1.386 . S
C832 C827 1.490 . S
C832 C834 1.395 . S
C832 C835 1.403 . S
H833 C839 0.930 . S
C834 H820 0.930 . S
C834 C832 1.395 . S
C834 C837 1.403 . S
C835 C832 1.403 . S
C835 C836 1.524 . S
C835 C839 1.400 . S
C836 H821 0.960 . S
C836 H822 0.960 . S
C836 H823 0.960 . S
C836 C835 1.524 . S
C837 C834 1.403 . S
C837 C838 1.392 . S
C837 C841 1.495 . S
C838 C837 1.392 . S
C838 C839 1.385 . S
C838 C840 1.478 . S
C839 H833 0.930 . S
C839 C835 1.400 . S
C839 C838 1.385 . S
C840 C838 1.478 . S
C840 C842 1.381 . S
C840 C846 1.383 . S
C841 C837 1.495 . S
C841 H847 0.959 . S
C841 H848 0.961 . S
C841 H849 0.960 . S
C842 C840 1.381 . S
C842 C843 1.394 . S
C842 H850 0.930 . S
C843 C842 1.394 . S
C843 C844 1.383 . S
C843 H851 0.929 . S
C844 C843 1.383 . S
C844 C845 1.377 . S
C845 H829 0.930 . S
C845 C844 1.377 . S
C845 C846 1.379 . S
C846 H830 0.931 . S
C846 C840 1.383 . S
C846 C845 1.379 . S
H847 C841 0.959 . S
H848 C841 0.961 . S
H849 C841 0.960 . S
H850 C842 0.930 . S
H851 C843 0.929 . S
H852 C860 0.929 . S
H853 C862 0.930 . S
H854 C864 0.930 . S
H855 C867 0.929 . S
H856 C870 0.930 . S
H857 C872 0.960 . S
H858 C872 0.960 . S
H859 C872 0.960 . S
C860 H852 0.929 . S
C860 C861 1.377 . S
C860 C862 1.384 . S
C861 C860 1.377 . S
C861 C867 1.390 . S
C862 H853 0.930 . S
C862 C860 1.384 . S
C862 C863 1.372 . S
C863 C862 1.372 . S
C863 C864 1.400 . S
C863 C868 1.490 . S
C864 H854 0.930 . S
C864 C863 1.400 . S
C864 C867 1.386 . S
H865 C881 0.930 . S
H866 C882 0.931 . S
C867 H855 0.929 . S
C867 C861 1.390 . S
C867 C864 1.386 . S
C868 C863 1.490 . S
C868 C870 1.395 . S
C868 C871 1.403 . S
H869 C875 0.930 . S
C870 H856 0.930 . S
C870 C868 1.395 . S
C870 C873 1.403 . S
C871 C868 1.403 . S
C871 C872 1.524 . S
C871 C875 1.400 . S
C872 H857 0.960 . S
C872 H858 0.960 . S
C872 H859 0.960 . S
C872 C871 1.524 . S
C873 C870 1.403 . S
C873 C874 1.392 . S
C873 C877 1.495 . S
C874 C873 1.392 . S
C874 C875 1.385 . S
C874 C876 1.478 . S
C875 H869 0.930 . S
C875 C871 1.400 . S
C875 C874 1.385 . S
C876 C874 1.478 . S
C876 C878 1.381 . S
C876 C882 1.383 . S
C877 C873 1.495 . S
C877 H883 0.959 . S
C877 H884 0.961 . S
C877 H885 0.960 . S
C878 C876 1.381 . S
C878 C879 1.394 . S
C878 H886 0.930 . S
C879 C878 1.394 . S
C879 C880 1.383 . S
C879 H887 0.929 . S
C880 C879 1.383 . S
C880 C881 1.377 . S
C881 H865 0.930 . S
C881 C880 1.377 . S
C881 C882 1.379 . S
C882 H866 0.931 . S
C882 C876 1.383 . S
C882 C881 1.379 . S
H883 C877 0.959 . S
H884 C877 0.961 . S
H885 C877 0.960 . S
H886 C878 0.930 . S
H887 C879 0.929 . S
H888 C896 0.929 . S
H889 C898 0.930 . S
H890 C900 0.930 . S
H891 C903 0.929 . S
H892 C906 0.930 . S
H893 C908 0.960 . S
H894 C908 0.960 . S
H895 C908 0.960 . S
C896 H888 0.929 . S
C896 C897 1.377 . S
C896 C898 1.384 . S
C897 C896 1.377 . S
C897 C903 1.390 . S
C898 H889 0.930 . S
C898 C896 1.384 . S
C898 C899 1.372 . S
C899 C898 1.372 . S
C899 C900 1.400 . S
C899 C904 1.490 . S
C900 H890 0.930 . S
C900 C899 1.400 . S
C900 C903 1.386 . S
H901 C917 0.930 . S
H902 C918 0.931 . S
C903 H891 0.929 . S
C903 C897 1.390 . S
C903 C900 1.386 . S
C904 C899 1.490 . S
C904 C906 1.395 . S
C904 C907 1.403 . S
H905 C911 0.930 . S
C906 H892 0.930 . S
C906 C904 1.395 . S
C906 C909 1.403 . S
C907 C904 1.403 . S
C907 C908 1.524 . S
C907 C911 1.400 . S
C908 H893 0.960 . S
C908 H894 0.960 . S
C908 H895 0.960 . S
C908 C907 1.524 . S
C909 C906 1.403 . S
C909 C910 1.392 . S
C909 C913 1.495 . S
C910 C909 1.392 . S
C910 C911 1.385 . S
C910 C912 1.478 . S
C911 H905 0.930 . S
C911 C907 1.400 . S
C911 C910 1.385 . S
C912 C910 1.478 . S
C912 C914 1.381 . S
C912 C918 1.383 . S
C913 C909 1.495 . S
C913 H919 0.959 . S
C913 H920 0.961 . S
C913 H921 0.960 . S
C914 C912 1.381 . S
C914 C915 1.394 . S
C914 H922 0.930 . S
C915 C914 1.394 . S
C915 C916 1.383 . S
C915 H923 0.929 . S
C916 C915 1.383 . S
C916 C917 1.377 . S
C917 H901 0.930 . S
C917 C916 1.377 . S
C917 C918 1.379 . S
C918 H902 0.931 . S
C918 C912 1.383 . S
C918 C917 1.379 . S
H919 C913 0.959 . S
H920 C913 0.961 . S
H921 C913 0.960 . S
H922 C914 0.930 . S
H923 C915 0.929 . S
H924 C932 0.929 . S
H925 C934 0.930 . S
H926 C936 0.930 . S
H927 C939 0.929 . S
H928 C942 0.930 . S
H929 C944 0.960 . S
H930 C944 0.960 . S
H931 C944 0.960 . S
C932 H924 0.929 . S
C932 C933 1.377 . S
C932 C934 1.384 . S
C933 C932 1.377 . S
C933 C939 1.390 . S
C934 H925 0.930 . S
C934 C932 1.384 . S
C934 C935 1.372 . S
C935 C934 1.372 . S
C935 C936 1.400 . S
C935 C940 1.490 . S
C936 H926 0.930 . S
C936 C935 1.400 . S
C936 C939 1.386 . S
H937 C953 0.930 . S
H938 C954 0.931 . S
C939 H927 0.929 . S
C939 C933 1.390 . S
C939 C936 1.386 . S
C940 C935 1.490 . S
C940 C942 1.395 . S
C940 C943 1.403 . S
H941 C947 0.930 . S
C942 H928 0.930 . S
C942 C940 1.395 . S
C942 C945 1.403 . S
C943 C940 1.403 . S
C943 C944 1.524 . S
C943 C947 1.400 . S
C944 H929 0.960 . S
C944 H930 0.960 . S
C944 H931 0.960 . S
C944 C943 1.524 . S
C945 C942 1.403 . S
C945 C946 1.392 . S
C945 C949 1.495 . S
C946 C945 1.392 . S
C946 C947 1.385 . S
C946 C948 1.478 . S
C947 H941 0.930 . S
C947 C943 1.400 . S
C947 C946 1.385 . S
C948 C946 1.478 . S
C948 C950 1.381 . S
C948 C954 1.383 . S
C949 C945 1.495 . S
C949 H955 0.959 . S
C949 H956 0.961 . S
C949 H957 0.960 . S
C950 C948 1.381 . S
C950 C951 1.394 . S
C950 H958 0.930 . S
C951 C950 1.394 . S
C951 C952 1.383 . S
C951 H959 0.929 . S
C952 C951 1.383 . S
C952 C953 1.377 . S
C953 H937 0.930 . S
C953 C952 1.377 . S
C953 C954 1.379 . S
C954 H938 0.931 . S
C954 C948 1.383 . S
C954 C953 1.379 . S
H955 C949 0.959 . S
H956 C949 0.961 . S
H957 C949 0.960 . S
H958 C950 0.930 . S
H959 C951 0.929 . S
H960 C968 0.929 . S
H961 C970 0.930 . S
H962 C972 0.930 . S
H963 C975 0.929 . S
H964 C978 0.930 . S
H965 C980 0.960 . S
H966 C980 0.960 . S
H967 C980 0.960 . S
C968 H960 0.929 . S
C968 C969 1.377 . S
C968 C970 1.384 . S
C969 C968 1.377 . S
C969 C975 1.390 . S
C970 H961 0.930 . S
C970 C968 1.384 . S
C970 C971 1.372 . S
C971 C970 1.372 . S
C971 C972 1.400 . S
C971 C976 1.490 . S
C972 H962 0.930 . S
C972 C971 1.400 . S
C972 C975 1.386 . S
H973 C989 0.930 . S
H974 C990 0.931 . S
C975 H963 0.929 . S
C975 C969 1.390 . S
C975 C972 1.386 . S
C976 C971 1.490 . S
C976 C978 1.395 . S
C976 C979 1.403 . S
H977 C983 0.930 . S
C978 H964 0.930 . S
C978 C976 1.395 . S
C978 C981 1.403 . S
C979 C976 1.403 . S
C979 C980 1.524 . S
C979 C983 1.400 . S
C980 H965 0.960 . S
C980 H966 0.960 . S
C980 H967 0.960 . S
C980 C979 1.524 . S
C981 C978 1.403 . S
C981 C982 1.392 . S
C981 C985 1.495 . S
C982 C981 1.392 . S
C982 C983 1.385 . S
C982 C984 1.478 . S
C983 H977 0.930 . S
C983 C979 1.400 . S
C983 C982 1.385 . S
C984 C982 1.478 . S
C984 C986 1.381 . S
C984 C990 1.383 . S
C985 C981 1.495 . S
C985 H991 0.959 . S
C985 H992 0.961 . S
C985 H993 0.960 . S
C986 C984 1.381 . S
C986 C987 1.394 . S
C986 H994 0.930 . S
C987 C986 1.394 . S
C987 C988 1.383 . S
C987 H995 0.929 . S
C988 C987 1.383 . S
C988 C989 1.377 . S
C989 H973 0.930 . S
C989 C988 1.377 . S
C989 C990 1.379 . S
C990 H974 0.931 . S
C990 C984 1.383 . S
C990 C989 1.379 . S
H991 C985 0.959 . S
H992 C985 0.961 . S
H993 C985 0.960 . S
H994 C986 0.930 . S
H995 C987 0.929 . S
H996 C1004 0.929 . S
H997 C1006 0.930 . S
H998 C1008 0.930 . S
H999 C1011 0.929 . S
H1000 C1014 0.930 . S
H1001 C1016 0.960 . S
H1002 C1016 0.960 . S
H1003 C1016 0.960 . S
C1004 H996 0.929 . S
C1004 C1005 1.377 . S
C1004 C1006 1.384 . S
C1005 C1004 1.377 . S
C1005 C1011 1.390 . S
C1006 H997 0.930 . S
C1006 C1004 1.384 . S
C1006 C1007 1.372 . S
C1007 C1006 1.372 . S
C1007 C1008 1.400 . S
C1007 C1012 1.490 . S
C1008 H998 0.930 . S
C1008 C1007 1.400 . S
C1008 C1011 1.386 . S
H1009 C1025 0.930 . S
H1010 C1026 0.931 . S
C1011 H999 0.929 . S
C1011 C1005 1.390 . S
C1011 C1008 1.386 . S
C1012 C1007 1.490 . S
C1012 C1014 1.395 . S
C1012 C1015 1.403 . S
H1013 C1019 0.930 . S
C1014 H1000 0.930 . S
C1014 C1012 1.395 . S
C1014 C1017 1.403 . S
C1015 C1012 1.403 . S
C1015 C1016 1.524 . S
C1015 C1019 1.400 . S
C1016 H1001 0.960 . S
C1016 H1002 0.960 . S
C1016 H1003 0.960 . S
C1016 C1015 1.524 . S
C1017 C1014 1.403 . S
C1017 C1018 1.392 . S
C1017 C1021 1.495 . S
C1018 C1017 1.392 . S
C1018 C1019 1.385 . S
C1018 C1020 1.478 . S
C1019 H1013 0.930 . S
C1019 C1015 1.400 . S
C1019 C1018 1.385 . S
C1020 C1018 1.478 . S
C1020 C1022 1.381 . S
C1020 C1026 1.383 . S
C1021 C1017 1.495 . S
C1021 H1027 0.959 . S
C1021 H1028 0.961 . S
C1021 H1029 0.960 . S
C1022 C1020 1.381 . S
C1022 C1023 1.394 . S
C1022 H1030 0.930 . S
C1023 C1022 1.394 . S
C1023 C1024 1.383 . S
C1023 H1031 0.929 . S
C1024 C1023 1.383 . S
C1024 C1025 1.377 . S
C1025 H1009 0.930 . S
C1025 C1024 1.377 . S
C1025 C1026 1.379 . S
C1026 H1010 0.931 . S
C1026 C1020 1.383 . S
C1026 C1025 1.379 . S
H1027 C1021 0.959 . S
H1028 C1021 0.961 . S
H1029 C1021 0.960 . S
H1030 C1022 0.930 . S
H1031 C1023 0.929 . S
C177 C13 1.241 . S
C196 C167 1.266 . S
C213 C97 1.242 . S
C232 C27 1.270 . S
C249 C41 1.230 . S
C268 C111 1.217 . S
C285 C125 1.242 . S
C304 C55 1.258 . S
C321 C139 1.226 . S
C340 C69 1.190 . S
C357 C153 1.227 . S
C376 C83 1.190 . S
C393 C49 1.438 . S
C412 C119 1.434 . S
C429 C63 1.441 . S
C448 C133 1.423 . S
C465 C77 1.439 . S
C484 C147 1.439 . S
C501 C161 1.438 . S
C520 C7 1.443 . S
C537 C21 1.441 . S
C556 C91 1.427 . S
C573 C35 1.436 . S
C592 C105 1.449 . S
C609 C120 1.394 . S
C628 C8 1.369 . S
C645 C134 1.390 . S
C664 C22 1.368 . S
C681 C36 1.394 . S
C700 C148 1.367 . S
C717 C50 1.391 . S
C736 C162 1.364 . S
C753 C64 1.400 . S
C772 C92 1.391 . S
C789 C106 1.390 . S
C808 C78 1.377 . S
C825 C11 1.302 . S
C844 C151 1.299 . S
C861 C165 1.302 . S
C880 C25 1.297 . S
C897 C39 1.303 . S
C916 C95 1.305 . S
C933 C53 1.305 . S
C952 C109 1.312 . S
C969 C67 1.302 . S
C988 C123 1.297 . S
C1005 C81 1.305 . S
C1024 C137 1.301 . S
