# Generated by pormake.
# Topology wgu, (5)-cn, num edge types: 1
# Building blocks:
#     Node 0, Type 0, BuildingBlock: BEQFEK_clean_sbu_0, # of connection points: 5
#     Node 1, Type 0, BuildingBlock: BEQFEK_clean_sbu_0, # of connection points: 5
#     Node 2, Type 0, BuildingBlock: BEQFEK_clean_sbu_0, # of connection points: 5
#     Node 3, Type 0, BuildingBlock: BEQFEK_clean_sbu_0, # of connection points: 5
#     Node 4, Type 0, BuildingBlock: BEQFEK_clean_sbu_0, # of connection points: 5
#     Node 5, Type 0, BuildingBlock: BEQFEK_clean_sbu_0, # of connection points: 5
#     Node 6, Type 0, BuildingBlock: BEQFEK_clean_sbu_0, # of connection points: 5
#     Node 7, Type 0, BuildingBlock: BEQFEK_clean_sbu_0, # of connection points: 5
#     Edge 8, Type (0, 0), BuildingBlock: AJUNOK_clean_linker_0, # of connection points: 2
#     Edge 9, Type (0, 0), BuildingBlock: AJUNOK_clean_linker_0, # of connection points: 2
#     Edge 10, Type (0, 0), BuildingBlock: AJUNOK_clean_linker_0, # of connection points: 2
#     Edge 11, Type (0, 0), BuildingBlock: AJUNOK_clean_linker_0, # of connection points: 2
#     Edge 12, Type (0, 0), BuildingBlock: AJUNOK_clean_linker_0, # of connection points: 2
#     Edge 13, Type (0, 0), BuildingBlock: AJUNOK_clean_linker_0, # of connection points: 2
#     Edge 14, Type (0, 0), BuildingBlock: AJUNOK_clean_linker_0, # of connection points: 2
#     Edge 15, Type (0, 0), BuildingBlock: AJUNOK_clean_linker_0, # of connection points: 2
#     Edge 16, Type (0, 0), BuildingBlock: AJUNOK_clean_linker_0, # of connection points: 2
#     Edge 17, Type (0, 0), BuildingBlock: AJUNOK_clean_linker_0, # of connection points: 2
#     Edge 18, Type (0, 0), BuildingBlock: AJUNOK_clean_linker_0, # of connection points: 2
#     Edge 19, Type (0, 0), BuildingBlock: AJUNOK_clean_linker_0, # of connection points: 2
#     Edge 20, Type (0, 0), BuildingBlock: AJUNOK_clean_linker_0, # of connection points: 2
#     Edge 21, Type (0, 0), BuildingBlock: AJUNOK_clean_linker_0, # of connection points: 2
#     Edge 22, Type (0, 0), BuildingBlock: AJUNOK_clean_linker_0, # of connection points: 2
#     Edge 23, Type (0, 0), BuildingBlock: AJUNOK_clean_linker_0, # of connection points: 2
#     Edge 24, Type (0, 0), BuildingBlock: AJUNOK_clean_linker_0, # of connection points: 2
#     Edge 25, Type (0, 0), BuildingBlock: AJUNOK_clean_linker_0, # of connection points: 2
#     Edge 26, Type (0, 0), BuildingBlock: AJUNOK_clean_linker_0, # of connection points: 2
#     Edge 27, Type (0, 0), BuildingBlock: AJUNOK_clean_linker_0, # of connection points: 2
# Relax obj value: 0.550
# Max RMSD: 0.235
# Mean RMSD: 0.235
data_MOF--net-wgu--node1-BEQFEK_clean_sbu_0--edge1-AJUNOK_clean_linker_0
_symmetry_space_group_name_H-M    P1
_symmetry_Int_Tables_number       1
_symmetry_cell_setting            triclinic
loop_
_symmetry_equiv_pos_as_xyz
'x, y, z'
_cell_length_a     25.188656
_cell_length_b     25.170544
_cell_length_c     20.132769
_cell_angle_alpha  90.247746
_cell_angle_beta   89.898012
_cell_angle_gamma 90.084982
loop_
_atom_site_label
_atom_site_type_symbol
_atom_site_fract_x
_atom_site_fract_y
_atom_site_fract_z
_atom_type_partial_charge
Co0 Co 0.32081 0.43704 1.05431 0.0
Co1 Co 0.39315 0.33692 1.04469 0.0
C2 C 0.31103 0.35528 0.94217 0.0
O3 O 0.29482 0.39694 0.97245 0.0
O4 O 0.35124 0.32981 0.96319 0.0
C5 C 0.21894 0.48824 1.05783 0.0
O6 O 0.20266 0.4462 1.02485 0.0
C7 C 0.42261 0.22491 1.03569 0.0
C8 C 0.4624 0.21353 0.13173 0.0
C9 C 0.43908 0.18582 0.07967 0.0
N10 N 0.4324 0.27293 0.06231 0.0
N11 N 0.45849 0.26582 0.11846 0.0
C12 C 0.39484 0.21664 0.97098 0.0
H13 H 0.41201 0.24398 0.93356 0.0
H14 H 0.35212 0.22605 0.97686 0.0
H15 H 0.39911 0.17503 0.95325 0.0
C16 C 0.2965 0.38875 0.18612 0.0
N17 N 0.32312 0.39066 0.12801 0.0
N18 N 0.34419 0.34421 0.11596 0.0
C19 C 0.32556 0.30906 0.16035 0.0
C20 C 0.29722 0.33632 0.20979 0.0
C21 C 0.27243 0.43692 0.21777 0.0
H22 H 0.29196 0.47341 0.19892 0.0
H23 H 0.22961 0.43879 0.20513 0.0
H24 H 0.27692 0.43559 0.27255 0.0
O25 O 0.39208 0.46994 1.04134 0.0
O26 O 0.44415 0.39891 1.04023 0.0
H27 H 0.35508 0.22921 0.15727 0.0
H28 H 0.28385 0.23384 0.16636 0.0
C29 C 0.31938 0.25156 0.14238 0.0
H30 H 0.31506 0.24764 0.08779 0.0
H31 H 0.46832 0.29645 0.15133 0.0
O32 O 0.26756 0.49257 0.07419 0.0
C33 C 0.4383 0.44933 1.03844 0.0
Co34 Co 0.60586 0.31039 0.55574 0.0
Co35 Co 0.69966 0.39067 0.56118 0.0
C36 C 0.69095 0.30689 0.4528 0.0
O37 O 0.64865 0.28687 0.47672 0.0
O38 O 0.71189 0.34738 0.48003 0.0
C39 C 0.55474 0.20724 0.56016 0.0
O40 O 0.60281 0.18794 0.55309 0.0
C41 C 0.81199 0.40429 0.56629 0.0
C42 C 0.82488 0.48701 0.59951 0.0
C43 C 0.85106 0.44042 0.58277 0.0
N44 N 0.76467 0.42814 0.57191 0.0
N45 N 0.77243 0.47797 0.59076 0.0
C46 C 0.81922 0.34568 0.55544 0.0
H47 H 0.78198 0.3237 0.56567 0.0
H48 H 0.85111 0.33009 0.58794 0.0
H49 H 0.83138 0.33827 0.50335 0.0
C50 C 0.65093 0.2815 0.68999 0.0
N51 N 0.64956 0.31096 0.634 0.0
N52 N 0.68816 0.3463 0.63665 0.0
C53 C 0.71453 0.34091 0.69465 0.0
C54 C 0.69251 0.299 0.72976 0.0
C55 C 0.61248 0.23826 0.70655 0.0
H56 H 0.57199 0.24948 0.69041 0.0
H57 H 0.62449 0.20142 0.68027 0.0
H58 H 0.61216 0.23019 0.76073 0.0
O59 O 0.57197 0.38325 0.54342 0.0
O60 O 0.63922 0.44014 0.54967 0.0
H61 H 0.75587 0.41551 0.69937 0.0
H62 H 0.76744 0.37348 0.76956 0.0
C63 C 0.76138 0.37384 0.71517 0.0
H64 H 0.7978 0.35756 0.69198 0.0
H65 H 0.74197 0.50502 0.60035 0.0
O66 O 0.54759 0.25724 0.56361 0.0
C67 C 0.5897 0.43098 0.54301 0.0
Co68 Co 0.74004 0.61513 1.05269 0.0
Co69 Co 0.65874 0.70745 1.05648 0.0
C70 C 0.74152 0.69734 0.94679 0.0
O71 O 0.76119 0.65545 0.97193 0.0
O72 O 0.7013 0.71948 0.97346 0.0
C73 C 0.83846 0.55521 1.04056 0.0
O74 O 0.85283 0.59029 0.99601 0.0
C75 C 0.64101 0.8188 0.0618 0.0
C76 C 0.5603 0.82844 0.10324 0.0
C77 C 0.60485 0.8565 0.08299 0.0
N78 N 0.619 0.7707 0.0683 0.0
N79 N 0.57031 0.77644 0.09196 0.0
C80 C 0.69866 0.8275 1.04598 0.0
H81 H 0.72233 0.7918 1.05815 0.0
H82 H 0.71493 0.8619 0.07398 0.0
H83 H 0.703 0.83563 0.99218 0.0
C84 C 0.7738 0.66544 0.18002 0.0
N85 N 0.74088 0.66153 0.12743 0.0
N86 N 0.7049 0.69922 0.13131 0.0
C87 C 0.71295 0.72735 0.18789 0.0
C88 C 0.75748 0.70743 0.2199 0.0
C89 C 0.81948 0.62897 0.19235 0.0
H90 H 0.80443 0.58765 0.19495 0.0
H91 H 0.84792 0.63153 0.15035 0.0
H92 H 0.84021 0.63861 0.23946 0.0
O93 O 0.66847 0.57934 1.04289 0.0
O94 O 0.61036 0.64532 1.04733 0.0
H95 H 0.68316 0.78062 0.26414 0.0
H96 H 0.69487 0.81029 0.18507 0.0
C97 C 0.68025 0.77389 0.20988 0.0
H98 H 0.63805 0.76742 0.19693 0.0
H99 H 0.54515 0.7449 0.10385 0.0
O100 O 0.79319 0.55878 0.06833 0.0
C101 C 0.62051 0.59583 1.04229 0.0
Co102 Co 0.42373 0.73057 0.55446 0.0
Co103 Co 0.33034 0.6512 0.56468 0.0
C104 C 0.33727 0.73439 0.45529 0.0
O105 O 0.38019 0.75384 0.47791 0.0
O106 O 0.31629 0.69408 0.48282 0.0
C107 C 0.48035 0.83102 0.55305 0.0
O108 O 0.43388 0.8541 0.54752 0.0
C109 C 0.21832 0.64138 0.58256 0.0
C110 C 0.20411 0.55725 0.60771 0.0
C111 C 0.17916 0.60589 0.60047 0.0
N112 N 0.26474 0.61555 0.57972 0.0
N113 N 0.25612 0.56498 0.5939 0.0
C114 C 0.21195 0.69986 0.57072 0.0
H115 H 0.25081 0.72046 0.57115 0.0
H116 H 0.18609 0.71826 0.60894 0.0
H117 H 0.19246 0.70588 0.52201 0.0
C118 C 0.38283 0.76345 0.68903 0.0
N119 N 0.38269 0.73239 0.63408 0.0
N120 N 0.34481 0.69657 0.6398 0.0
C121 C 0.32087 0.70287 0.69949 0.0
C122 C 0.34321 0.74623 0.73187 0.0
C123 C 0.42087 0.80804 0.70156 0.0
H124 H 0.46133 0.79639 0.68551 0.0
H125 H 0.40834 0.84324 0.6727 0.0
H126 H 0.42163 0.81908 0.755 0.0
O127 O 0.45569 0.6576 0.54192 0.0
O128 O 0.38978 0.59966 0.55148 0.0
H129 H 0.27894 0.6285 0.70472 0.0
H130 H 0.27578 0.66733 0.77944 0.0
C131 C 0.27602 0.66944 0.72456 0.0
H132 H 0.2381 0.68767 0.70918 0.0
H133 H 0.28583 0.5362 0.59628 0.0
O134 O 0.48359 0.78082 0.55859 0.0
C135 C 0.43903 0.60962 0.54293 0.0
Co136 Co 0.80706 0.11497 0.13113 0.0
Co137 Co 0.88779 0.20814 0.12714 0.0
C138 C 0.80395 0.19774 0.2363 0.0
O139 O 0.78453 0.15509 0.21226 0.0
O140 O 0.84388 0.21967 0.20883 0.0
C141 C 0.71355 0.0482 0.14934 0.0
O142 O 0.70519 0.07553 0.20406 0.0
C143 C 0.90232 0.3203 0.11893 0.0
C144 C 0.98606 0.33161 0.08945 0.0
C145 C 0.93925 0.35867 0.10253 0.0
N146 N 0.92586 0.27267 0.11636 0.0
N147 N 0.97622 0.27947 0.09962 0.0
C148 C 0.8436 0.32818 0.1271 0.0
H149 H 0.82178 0.29012 0.1226 0.0
H150 H 0.82857 0.35631 0.08923 0.0
H151 H 0.83539 0.34592 0.17646 0.0
C152 C 0.77251 0.16669 1.00419 0.0
N153 N 0.80569 0.16175 1.05647 0.0
N154 N 0.84278 0.19844 1.05209 0.0
C155 C 0.83548 0.22625 0.9955 0.0
C156 C 0.7905 0.20731 0.96384 0.0
C157 C 0.72206 0.13639 0.99504 0.0
H158 H 0.70552 0.1241 1.04356 0.0
H159 H 0.69217 0.1607 0.96848 0.0
H160 H 0.7306 0.101 0.964 0.0
O161 O 0.87987 0.08016 0.14095 0.0
O162 O 0.93696 0.1472 0.13693 0.0
H163 H 0.87104 0.26953 0.91488 0.0
H164 H 0.85748 0.30813 0.98771 0.0
C165 C 0.87156 0.26887 0.97002 0.0
H166 H 0.91275 0.26226 0.9872 0.0
H167 H 1.0032 0.24853 0.09257 0.0
O168 O 0.75452 0.0577 0.11425 0.0
C169 C 0.92767 0.09758 0.14187 0.0
Co170 Co 0.93559 0.8171 0.63014 0.0
Co171 Co 0.83863 0.89318 0.62127 0.0
C172 C 0.84817 0.81 0.72928 0.0
O173 O 0.89235 0.79399 0.70656 0.0
O174 O 0.82454 0.84892 0.70226 0.0
C175 C 0.98389 0.71491 0.63291 0.0
O176 O 0.93479 0.6979 0.63826 0.0
C177 C 0.72617 0.89631 0.60148 0.0
C178 C 0.7077 0.97821 0.57047 0.0
C179 C 0.68527 0.92844 0.57987 0.0
N180 N 0.77109 0.92504 0.60354 0.0
N181 N 0.75984 0.97428 0.58575 0.0
C182 C 0.72311 0.83872 0.62 0.0
H183 H 0.75831 0.81719 0.60064 0.0
H184 H 0.68637 0.81933 0.6019 0.0
H185 H 0.72333 0.83558 0.6749 0.0
C186 C 0.89523 0.78478 0.49461 0.0
N187 N 0.89454 0.81449 0.55084 0.0
N188 N 0.85665 0.85017 0.54596 0.0
C189 C 0.83411 0.84587 0.48554 0.0
C190 C 0.85633 0.80339 0.4519 0.0
C191 C 0.93044 0.73793 0.48291 0.0
H192 H 0.91482 0.70373 0.5114 0.0
H193 H 0.9315 0.7265 0.42968 0.0
H194 H 0.97128 0.74698 0.49996 0.0
O195 O 0.96629 0.89139 0.64188 0.0
O196 O 0.8969 0.94581 0.63624 0.0
H197 H 0.79594 0.88329 0.40212 0.0
H198 H 0.75555 0.87414 0.47438 0.0
C199 C 0.79558 0.88459 0.45726 0.0
H200 H 0.80516 0.92538 0.47454 0.0
H201 H 0.78789 1.00469 0.58203 0.0
O202 O 0.99347 0.76435 0.62693 0.0
C203 C 0.94686 0.93844 0.64269 0.0
Co204 Co 0.22701 0.92952 0.13653 0.0
Co205 Co 0.14702 0.8362 0.12831 0.0
C206 C 0.22885 0.84689 0.23977 0.0
O207 O 0.24984 0.88874 0.21609 0.0
O208 O 0.18871 0.82602 0.21164 0.0
C209 C 0.32632 0.98996 0.13886 0.0
O210 O 0.34792 0.94866 0.16782 0.0
C211 C 0.14086 0.72368 0.12249 0.0
C212 C 0.05822 0.70414 0.09546 0.0
C213 C 0.1072 0.68157 0.10932 0.0
N214 N 0.11342 0.76905 0.11747 0.0
N215 N 0.06374 0.75736 0.10203 0.0
C216 C 0.19999 0.72125 0.13151 0.0
H217 H 0.2188 0.76019 0.12169 0.0
H218 H 0.21761 0.69106 0.09774 0.0
H219 H 0.2092 0.70959 0.18321 0.0
C220 C 0.26219 0.88317 1.00656 0.0
N221 N 0.22939 0.88534 0.05968 0.0
N222 N 0.19368 0.84737 1.05449 0.0
C223 C 0.20223 0.82041 0.99728 0.0
C224 C 0.24622 0.8417 0.96558 0.0
C225 C 0.31013 0.91758 0.99768 0.0
H226 H 0.33798 0.9106 1.03929 0.0
H227 H 0.33093 0.90902 0.95024 0.0
H228 H 0.29811 0.95994 0.99881 0.0
O229 O 0.15365 0.96177 0.14635 0.0
O230 O 0.09528 0.89608 0.13691 0.0
H231 H 0.16993 0.77393 0.91683 0.0
H232 H 0.18424 0.73747 0.99086 0.0
C233 C 0.16862 0.77564 0.97193 0.0
H234 H 0.12693 0.78057 0.9884 0.0
H235 H 0.03409 0.78557 0.09429 0.0
O236 O 0.27726 0.98882 0.12376 0.0
C237 C 0.10553 0.94546 0.14434 0.0
Co238 Co 0.11067 0.23809 0.62098 0.0
Co239 Co 0.20792 0.16098 0.62803 0.0
C240 C 0.1946 0.24638 0.7294 0.0
O241 O 0.15371 0.26481 0.70001 0.0
O242 O 0.21693 0.20412 0.70857 0.0
C243 C 0.04361 0.33056 0.63979 0.0
O244 O 0.06702 0.33442 0.69779 0.0
C245 C 0.32086 0.12866 0.63113 0.0
C246 C 0.32341 0.07214 0.5473 0.0
C247 C 0.35557 0.09999 0.59107 0.0
N248 N 0.27067 0.11877 0.6115 0.0
N249 N 0.27256 0.08339 0.56282 0.0
C250 C 0.33597 0.1705 0.68078 0.0
H251 H 0.31054 0.20595 0.67552 0.0
H252 H 0.37799 0.18298 0.67577 0.0
H253 H 0.33017 0.15401 0.73125 0.0
C254 C 0.1559 0.25532 0.48508 0.0
N255 N 0.15537 0.23193 0.54527 0.0
N256 N 0.20087 0.20814 0.55475 0.0
C257 C 0.23423 0.22118 0.50515 0.0
C258 C 0.20634 0.24932 0.45666 0.0
C259 C 0.10811 0.28083 0.45524 0.0
H260 H 0.07149 0.263 0.47626 0.0
H261 H 0.10859 0.32389 0.46719 0.0
H262 H 0.10783 0.27557 0.40049 0.0
O263 O 0.07582 0.16816 0.6378 0.0
O264 O 0.14381 0.11221 0.63591 0.0
H265 H 0.30728 0.1788 0.50034 0.0
H266 H 0.31376 0.24898 0.48213 0.0
C267 C 0.29321 0.21906 0.5133 0.0
H268 H 0.30369 0.2273 0.56558 0.0
H269 H 0.23942 0.07078 0.53597 0.0
O270 O 0.05542 0.29214 0.60126 0.0
C271 C 0.09385 0.12086 0.6404 0.0
C272 C 0.33254 0.08019 0.09025 0.0
C273 C 0.35824 0.03742 0.12104 0.0
C274 C 0.35969 0.12663 0.0744 0.0
C275 C 0.41417 0.13273 0.08783 0.0
H276 H 0.29044 0.07864 0.07944 0.0
H277 H 0.33652 0.15869 1.05423 0.0
S278 S 0.50135 0.03198 0.16511 0.0
N279 N 0.44236 1.00322 0.16248 0.0
N280 N 0.4935 0.09155 0.13241 0.0
C281 C 0.44095 0.09005 0.11747 0.0
C282 C 0.4131 0.04217 0.13385 0.0
C283 C 0.97376 0.39653 0.67216 0.0
C284 C 1.00045 0.36776 0.62202 0.0
C285 C 0.92753 0.42535 0.658 0.0
C286 C 0.90711 0.42672 0.59323 0.0
H287 H 0.98659 0.39408 0.72338 0.0
H288 H 0.90551 0.44312 0.69869 0.0
S289 S 0.96711 0.36728 0.44242 0.0
N290 N 1.00657 0.34897 0.50354 0.0
N291 N 0.92028 0.40379 0.47734 0.0
C292 C 0.93598 0.40254 0.54188 0.0
C293 C 0.98252 0.37277 0.55619 0.0
C294 C 0.64679 0.97803 0.17789 0.0
C295 C 0.67673 1.00515 0.12955 0.0
C296 C 0.61811 0.93197 0.16136 0.0
C297 C 0.61779 0.91258 0.09584 0.0
H298 H 0.64837 0.99027 0.2295 0.0
H299 H 0.59965 0.9093 0.20079 0.0
S300 S 0.68035 0.97459 0.94894 0.0
N301 N 0.69848 1.01243 1.01211 0.0
N302 N 0.64202 0.92803 0.98099 0.0
C303 C 0.64253 0.94249 1.04615 0.0
C304 C 0.67294 0.98816 0.06306 0.0
C305 C 0.0692 0.68368 0.67845 0.0
C306 C 0.02814 0.67722 0.63223 0.0
C307 C 0.1163 0.65488 0.6722 0.0
C308 C 0.12445 0.62036 0.61814 0.0
H309 H 0.06572 0.7128 0.71804 0.0
H310 H 0.14808 0.66278 0.70698 0.0
S311 S 0.0266 0.585 0.48839 0.0
N312 N 0.99562 0.62903 0.53564 0.0
N313 N 0.08605 0.5771 0.52156 0.0
C314 C 0.08231 0.61058 0.57444 0.0
C315 C 0.03358 0.63879 0.58193 0.0
C316 C 0.8704 0.48926 0.12254 0.0
C317 C 0.87385 0.51093 1.05847 0.0
C318 C 0.89699 0.44249 0.13862 0.0
C319 C 0.92689 0.41498 0.09075 0.0
H320 H 0.84527 0.50732 0.15994 0.0
H321 H 0.89124 0.42583 0.18766 0.0
S322 S 0.95352 0.45784 0.91808 0.0
N323 N 0.91434 0.50447 0.94889 0.0
N324 N 0.9629 0.41487 0.97876 0.0
C325 C 0.93415 0.4381 1.02808 0.0
C326 C 0.90772 0.48649 1.0119 0.0
C327 C 0.53698 0.90602 0.59417 0.0
C328 C 0.52954 0.8623 0.55141 0.0
C329 C 0.58723 0.93004 0.6004 0.0
C330 C 0.63077 0.91118 0.56343 0.0
H331 H 0.50478 0.91959 0.62567 0.0
H332 H 0.59269 0.9614 0.63678 0.0
S333 S 0.62844 0.80427 0.4359 0.0
N334 N 0.56753 0.80541 0.46621 0.0
N335 N 0.66086 0.85155 0.47588 0.0
C336 C 0.62219 0.87063 0.51647 0.0
C337 C 0.57176 0.84574 0.5111 0.0
C338 C 0.18788 0.5583 0.13557 0.0
C339 C 0.18169 0.53118 0.07502 0.0
C340 C 0.1587 0.60417 0.14943 0.0
C341 C 0.12378 0.62559 0.10224 0.0
H342 H 0.21677 0.54498 0.17164 0.0
H343 H 0.166 0.62484 0.19583 0.0
S344 S 0.08806 0.5655 0.94 0.0
N345 N 0.13298 0.52483 0.97106 0.0
N346 N 0.07983 0.61303 0.99596 0.0
C347 C 0.11391 0.59655 1.04385 0.0
C348 C 0.14278 0.54891 1.03033 0.0
C349 C 0.42246 0.14497 0.52006 0.0
C350 C 0.41109 0.1157 0.57776 0.0
C351 C 0.47014 0.17318 0.51379 0.0
C352 C 0.50871 0.17144 0.56389 0.0
H353 H 0.39307 0.14885 0.48127 0.0
H354 H 0.47622 0.19778 0.47038 0.0
S355 S 0.5012 0.09492 0.72035 0.0
N356 N 0.4438 0.08324 0.68336 0.0
N357 N 0.53498 0.13409 0.66987 0.0
C358 C 0.49978 0.13891 0.61926 0.0
C359 C 0.45055 0.11134 0.62652 0.0
C360 C 0.52256 0.57573 1.0391 0.0
C361 C 0.57531 0.55708 1.03787 0.0
C362 C 0.47906 0.54076 1.03805 0.0
C363 C 0.48589 0.48519 1.03578 0.0
H364 H 0.51447 0.61795 1.04169 0.0
H365 H 0.43961 0.55775 1.03995 0.0
S366 S 0.61572 0.41517 1.02882 0.0
N367 N 0.63175 0.47874 1.03202 0.0
N368 N 0.55021 0.41319 1.03013 0.0
C369 C 0.53843 0.46582 1.03321 0.0
C370 C 0.58292 0.50158 1.03423 0.0
C371 C 0.49663 0.46868 0.54274 0.0
C372 C 0.55191 0.4769 0.53797 0.0
C373 C 0.46061 0.51146 0.54279 0.0
C374 C 0.47801 0.56464 0.53786 0.0
H375 H 0.48088 0.42886 0.54793 0.0
H376 H 0.41872 0.50262 0.54793 0.0
S377 S 0.61851 0.60811 0.51972 0.0
N378 N 0.62199 0.54281 0.52491 0.0
N379 N 0.55478 0.6226 0.52488 0.0
C380 C 0.53313 0.57335 0.53111 0.0
C381 C 0.56982 0.5298 0.53122 0.0
C382 C 1.00748 0.96779 0.14377 0.0
C383 C 0.06079 0.98493 0.14768 0.0
C384 C 0.96492 1.00412 0.1432 0.0
C385 C 0.97347 0.05948 0.14634 0.0
H386 H 0.99833 0.92582 0.14023 0.0
H387 H 0.92497 0.98851 0.13917 0.0
S388 S 0.10527 0.12564 0.1603 0.0
N389 N 0.11928 0.06168 0.1571 0.0
N390 N 0.03999 0.12941 0.15599 0.0
C391 C 0.02656 0.07717 0.15165 0.0
C392 C 0.06987 0.04018 0.15234 0.0
C393 C 0.03906 0.97858 0.6434 0.0
C394 C 0.98353 0.98551 0.64721 0.0
C395 C 0.07423 1.02219 0.64262 0.0
C396 C 0.05572 0.07501 0.64572 0.0
H397 H 0.05574 0.93905 0.63956 0.0
H398 H 0.11634 1.01423 0.63835 0.0
S399 S 0.91408 0.11543 0.66081 0.0
N400 N 0.912 0.04996 0.6574 0.0
N401 N 0.97754 0.13135 0.65605 0.0
C402 C 1.0003 0.08252 0.65143 0.0
C403 C 0.96449 0.03809 0.65214 0.0
C404 C 0.22929 0.33704 0.3037 0.0
C405 C 0.27369 0.31359 0.27249 0.0
C406 C 0.20828 0.31694 0.3633 0.0
C407 C 0.22715 0.26938 0.39132 0.0
H408 H 0.21012 0.37132 0.28271 0.0
H409 H 0.17736 0.33959 0.3874 0.0
S410 S 0.33905 0.18847 0.32621 0.0
N411 N 0.3386 0.24208 0.2796 0.0
N412 N 0.28753 0.19491 0.37608 0.0
C413 C 0.26842 0.24302 0.35731 0.0
C414 C 0.29437 0.26723 0.30202 0.0
C415 C 0.74507 0.28175 0.90522 0.0
C416 C 0.76417 0.22932 0.90437 0.0
C417 C 0.71996 0.30344 0.84938 0.0
C418 C 0.71417 0.27379 0.79045 0.0
H419 H 0.74935 0.306 0.94949 0.0
H420 H 0.70553 0.34392 0.85204 0.0
S421 S 0.75815 0.13487 0.76305 0.0
N422 N 0.77507 0.14802 0.84065 0.0
N423 N 0.72969 0.18936 0.73477 0.0
C424 C 0.73266 0.22113 0.78937 0.0
C425 C 0.7574 0.1988 0.84655 0.0
C426 C 0.78179 0.75605 0.39604 0.0
C427 C 0.83362 0.77676 0.39271 0.0
C428 C 0.75781 0.7326 0.34033 0.0
C429 C 0.78458 0.72977 0.27914 0.0
H430 H 0.75957 0.75816 0.44213 0.0
H431 H 0.7179 0.71692 0.345 0.0
S432 S 0.92029 0.77976 0.24407 0.0
N433 N 0.91076 0.79353 0.32354 0.0
N434 N 0.8654 0.7502 0.21822 0.0
C435 C 0.8365 0.75018 0.27526 0.0
C436 C 0.86108 0.77364 0.3322 0.0
C437 C 0.29543 0.76828 0.90899 0.0
C438 C 0.27394 0.81974 0.90666 0.0
C439 C 0.31989 0.74551 0.85303 0.0
C440 C 0.32276 0.77307 0.79253 0.0
H441 H 0.29309 0.74541 0.95438 0.0
H442 H 0.33599 0.70577 0.85684 0.0
S443 S 0.27231 0.90895 0.76095 0.0
N444 N 0.25782 0.898 0.8398 0.0
N445 N 0.30243 0.85472 0.7339 0.0
C446 C 0.30218 0.82492 0.79 0.0
C447 C 0.2779 0.84832 0.84722 0.0
C448 C 0.74842 0.77203 0.86421 0.0
C449 C 0.76823 0.72365 0.8891 0.0
C450 C 0.77473 0.79985 0.81347 0.0
C451 C 0.82217 0.78068 0.78505 0.0
H452 H 0.71232 0.78902 0.88431 0.0
H453 H 0.75761 0.83684 0.79658 0.0
S454 S 0.89002 0.65467 0.8299 0.0
N455 N 0.83772 0.657 0.87925 0.0
N456 N 0.88717 0.70912 0.78477 0.0
C457 C 0.8422 0.73202 0.80888 0.0
C458 C 0.81524 0.70358 0.86039 0.0
C459 C 0.33017 0.80873 0.37225 0.0
C460 C 0.30925 0.76156 0.39945 0.0
C461 C 0.30342 0.83664 0.32208 0.0
C462 C 0.25429 0.81891 0.29689 0.0
H463 H 0.36763 0.82452 0.38987 0.0
H464 H 0.32187 0.87218 0.30247 0.0
S465 S 0.18138 0.69807 0.35172 0.0
N466 N 0.23603 0.69833 0.39673 0.0
N467 N 0.18511 0.75146 0.30472 0.0
C468 C 0.23252 0.77211 0.32423 0.0
C469 C 0.26011 0.74332 0.3747 0.0
C470 C 0.26913 0.25646 0.80972 0.0
C471 C 0.22093 0.27613 0.78482 0.0
C472 C 0.29848 0.284 0.85726 0.0
C473 C 0.28042 0.33182 0.88556 0.0
H474 H 0.28513 0.2192 0.79225 0.0
H475 H 0.33573 0.26677 0.87214 0.0
S476 S 0.15605 0.40158 0.83911 0.0
N477 N 0.15651 0.34798 0.79146 0.0
N478 N 0.21057 0.39858 0.88443 0.0
C479 C 0.23198 0.35242 0.8618 0.0
C480 C 0.20243 0.32477 0.81118 0.0
C481 C 0.73033 0.20367 0.32153 0.0
C482 C 0.77693 0.22511 0.29327 0.0
C483 C 0.70223 0.23062 0.37194 0.0
C484 C 0.7191 0.28054 0.39599 0.0
H485 H 0.71512 0.16574 0.30446 0.0
H486 H 0.66716 0.21186 0.39245 0.0
S487 S 0.83811 0.35501 0.33809 0.0
N488 N 0.839 0.29938 0.29459 0.0
N489 N 0.78486 0.35108 0.38556 0.0
C490 C 0.76529 0.30274 0.36756 0.0
C491 C 0.7945 0.27481 0.31741 0.0
loop_
_geom_bond_atom_site_label_1
_geom_bond_atom_site_label_2
_geom_bond_distance
_geom_bond_site_symmetry_2
_ccdc_geom_bond_type
Co0 O3 1.970 1_554 S
Co0 N17 1.989 . S
Co0 O25 1.967 1_554 S
Co0 O32 1.920 . S
Co1 O4 1.966 1_554 S
Co1 N10 2.022 . S
Co1 N18 1.993 . S
Co1 O26 1.941 1_554 S
C2 O3 1.258 . S
C2 O4 1.263 . S
O3 Co0 1.970 1_556 S
O3 C2 1.258 . S
O4 Co1 1.966 1_556 S
O4 C2 1.263 . S
C5 O6 1.235 . S
C5 O32 1.289 . S
O6 C5 1.235 . S
C7 C9 1.400 1_556 S
C7 N10 1.351 1_556 S
C7 C12 1.501 . S
C8 C9 1.387 . S
C8 N11 1.341 . S
C9 C7 1.400 1_554 S
C9 C8 1.387 . S
N10 Co1 2.022 . S
N10 C7 1.351 1_554 S
N10 N11 1.365 . S
N11 C8 1.341 . S
N11 N10 1.365 . S
N11 H31 0.862 . S
C12 C7 1.501 . S
C12 H13 0.961 . S
C12 H14 0.961 . S
C12 H15 0.960 . S
H13 C12 0.961 . S
H14 C12 0.961 . S
H15 C12 0.960 . S
C16 N17 1.342 . S
C16 C20 1.401 . S
C16 C21 1.499 . S
N17 Co0 1.989 . S
N17 C16 1.342 . S
N17 N18 1.388 . S
N18 Co1 1.993 . S
N18 N17 1.388 . S
N18 C19 1.346 . S
C19 N18 1.346 . S
C19 C20 1.396 . S
C19 C29 1.510 . S
C20 C16 1.401 . S
C20 C19 1.396 . S
C21 C16 1.499 . S
C21 H22 0.959 . S
C21 H23 0.960 . S
C21 H24 0.961 . S
H22 C21 0.959 . S
H23 C21 0.960 . S
H24 C21 0.961 . S
O25 Co0 1.967 1_556 S
O25 C33 1.258 . S
O26 Co1 1.941 1_556 S
O26 C33 1.266 . S
H27 C29 0.959 . S
H28 C29 0.961 . S
C29 C19 1.510 . S
C29 H27 0.959 . S
C29 H28 0.961 . S
C29 H30 0.960 . S
H30 C29 0.960 . S
H31 N11 0.862 . S
O32 Co0 1.920 . S
O32 C5 1.289 . S
C33 O25 1.258 . S
C33 O26 1.266 . S
Co34 O37 1.970 . S
Co34 N51 1.989 . S
Co34 O59 1.967 . S
Co34 O66 1.920 . S
Co35 O38 1.966 . S
Co35 N44 2.022 . S
Co35 N52 1.993 . S
Co35 O60 1.941 . S
C36 O37 1.258 . S
C36 O38 1.263 . S
O37 Co34 1.970 . S
O37 C36 1.258 . S
O38 Co35 1.966 . S
O38 C36 1.263 . S
C39 O40 1.235 . S
C39 O66 1.289 . S
O40 C39 1.235 . S
C41 C43 1.400 . S
C41 N44 1.351 . S
C41 C46 1.501 . S
C42 C43 1.387 . S
C42 N45 1.341 . S
C43 C41 1.400 . S
C43 C42 1.387 . S
N44 Co35 2.022 . S
N44 C41 1.351 . S
N44 N45 1.365 . S
N45 C42 1.341 . S
N45 N44 1.365 . S
N45 H65 0.862 . S
C46 C41 1.501 . S
C46 H47 0.961 . S
C46 H48 0.961 . S
C46 H49 0.960 . S
H47 C46 0.961 . S
H48 C46 0.961 . S
H49 C46 0.960 . S
C50 N51 1.342 . S
C50 C54 1.401 . S
C50 C55 1.499 . S
N51 Co34 1.989 . S
N51 C50 1.342 . S
N51 N52 1.388 . S
N52 Co35 1.993 . S
N52 N51 1.388 . S
N52 C53 1.346 . S
C53 N52 1.346 . S
C53 C54 1.396 . S
C53 C63 1.510 . S
C54 C50 1.401 . S
C54 C53 1.396 . S
C55 C50 1.499 . S
C55 H56 0.959 . S
C55 H57 0.960 . S
C55 H58 0.961 . S
H56 C55 0.959 . S
H57 C55 0.960 . S
H58 C55 0.961 . S
O59 Co34 1.967 . S
O59 C67 1.258 . S
O60 Co35 1.941 . S
O60 C67 1.266 . S
H61 C63 0.959 . S
H62 C63 0.961 . S
C63 C53 1.510 . S
C63 H61 0.959 . S
C63 H62 0.961 . S
C63 H64 0.960 . S
H64 C63 0.960 . S
H65 N45 0.862 . S
O66 Co34 1.920 . S
O66 C39 1.289 . S
C67 O59 1.258 . S
C67 O60 1.266 . S
Co68 O71 1.970 1_554 S
Co68 N85 1.989 . S
Co68 O93 1.967 1_554 S
Co68 O100 1.920 . S
Co69 O72 1.966 1_554 S
Co69 N78 2.022 . S
Co69 N86 1.993 . S
Co69 O94 1.941 1_554 S
C70 O71 1.258 . S
C70 O72 1.263 . S
O71 Co68 1.970 1_556 S
O71 C70 1.258 . S
O72 Co69 1.966 1_556 S
O72 C70 1.263 . S
C73 O74 1.235 . S
C73 O100 1.289 . S
O74 C73 1.235 . S
C75 C77 1.400 1_556 S
C75 N78 1.351 1_556 S
C75 C80 1.501 . S
C76 C77 1.387 . S
C76 N79 1.341 . S
C77 C75 1.400 1_554 S
C77 C76 1.387 . S
N78 Co69 2.022 . S
N78 C75 1.351 1_554 S
N78 N79 1.365 . S
N79 C76 1.341 . S
N79 N78 1.365 . S
N79 H99 0.862 . S
C80 C75 1.501 . S
C80 H81 0.961 . S
C80 H82 0.961 . S
C80 H83 0.960 . S
H81 C80 0.961 . S
H82 C80 0.961 . S
H83 C80 0.960 . S
C84 N85 1.342 . S
C84 C88 1.401 . S
C84 C89 1.499 . S
N85 Co68 1.989 . S
N85 C84 1.342 . S
N85 N86 1.388 . S
N86 Co69 1.993 . S
N86 N85 1.388 . S
N86 C87 1.346 . S
C87 N86 1.346 . S
C87 C88 1.396 . S
C87 C97 1.510 . S
C88 C84 1.401 . S
C88 C87 1.396 . S
C89 C84 1.499 . S
C89 H90 0.959 . S
C89 H91 0.960 . S
C89 H92 0.961 . S
H90 C89 0.959 . S
H91 C89 0.960 . S
H92 C89 0.961 . S
O93 Co68 1.967 1_556 S
O93 C101 1.258 . S
O94 Co69 1.941 1_556 S
O94 C101 1.266 . S
H95 C97 0.959 . S
H96 C97 0.961 . S
C97 C87 1.510 . S
C97 H95 0.959 . S
C97 H96 0.961 . S
C97 H98 0.960 . S
H98 C97 0.960 . S
H99 N79 0.862 . S
O100 Co68 1.920 . S
O100 C73 1.289 . S
C101 O93 1.258 . S
C101 O94 1.266 . S
Co102 O105 1.970 . S
Co102 N119 1.989 . S
Co102 O127 1.967 . S
Co102 O134 1.920 . S
Co103 O106 1.966 . S
Co103 N112 2.022 . S
Co103 N120 1.993 . S
Co103 O128 1.941 . S
C104 O105 1.258 . S
C104 O106 1.263 . S
O105 Co102 1.970 . S
O105 C104 1.258 . S
O106 Co103 1.966 . S
O106 C104 1.263 . S
C107 O108 1.235 . S
C107 O134 1.289 . S
O108 C107 1.235 . S
C109 C111 1.400 . S
C109 N112 1.351 . S
C109 C114 1.501 . S
C110 C111 1.387 . S
C110 N113 1.341 . S
C111 C109 1.400 . S
C111 C110 1.387 . S
N112 Co103 2.022 . S
N112 C109 1.351 . S
N112 N113 1.365 . S
N113 C110 1.341 . S
N113 N112 1.365 . S
N113 H133 0.862 . S
C114 C109 1.501 . S
C114 H115 0.961 . S
C114 H116 0.961 . S
C114 H117 0.960 . S
H115 C114 0.961 . S
H116 C114 0.961 . S
H117 C114 0.960 . S
C118 N119 1.342 . S
C118 C122 1.401 . S
C118 C123 1.499 . S
N119 Co102 1.989 . S
N119 C118 1.342 . S
N119 N120 1.388 . S
N120 Co103 1.993 . S
N120 N119 1.388 . S
N120 C121 1.346 . S
C121 N120 1.346 . S
C121 C122 1.396 . S
C121 C131 1.510 . S
C122 C118 1.401 . S
C122 C121 1.396 . S
C123 C118 1.499 . S
C123 H124 0.959 . S
C123 H125 0.960 . S
C123 H126 0.961 . S
H124 C123 0.959 . S
H125 C123 0.960 . S
H126 C123 0.961 . S
O127 Co102 1.967 . S
O127 C135 1.258 . S
O128 Co103 1.941 . S
O128 C135 1.266 . S
H129 C131 0.959 . S
H130 C131 0.961 . S
C131 C121 1.510 . S
C131 H129 0.959 . S
C131 H130 0.961 . S
C131 H132 0.960 . S
H132 C131 0.960 . S
H133 N113 0.862 . S
O134 Co102 1.920 . S
O134 C107 1.289 . S
C135 O127 1.258 . S
C135 O128 1.266 . S
Co136 O139 1.970 . S
Co136 N153 1.989 1_554 S
Co136 O161 1.967 . S
Co136 O168 1.920 1_545 S
Co137 O140 1.966 . S
Co137 N146 2.022 . S
Co137 N154 1.993 1_554 S
Co137 O162 1.941 . S
C138 O139 1.258 . S
C138 O140 1.263 . S
O139 Co136 1.970 . S
O139 C138 1.258 . S
O140 Co137 1.966 . S
O140 C138 1.263 . S
C141 O142 1.235 . S
C141 O168 1.289 . S
O142 C141 1.235 . S
C143 C145 1.400 . S
C143 N146 1.351 . S
C143 C148 1.501 . S
C144 C145 1.391 . S
C144 N147 1.341 . S
C145 C143 1.400 . S
C145 C144 1.391 . S
N146 Co137 2.022 . S
N146 C143 1.351 . S
N146 N147 1.365 . S
N147 C144 1.341 . S
N147 N146 1.365 . S
N147 H167 0.862 1_554 S
C148 C143 1.501 . S
C148 H149 0.961 . S
C148 H150 0.961 . S
C148 H151 0.960 . S
H149 C148 0.961 . S
H150 C148 0.961 . S
H151 C148 0.960 . S
C152 N153 1.342 . S
C152 C156 1.401 . S
C152 C157 1.499 . S
N153 Co136 1.989 1_556 S
N153 C152 1.342 . S
N153 N154 1.388 . S
N154 Co137 1.993 1_556 S
N154 N153 1.388 . S
N154 C155 1.346 . S
C155 N154 1.346 . S
C155 C156 1.396 . S
C155 C165 1.510 . S
C156 C152 1.401 . S
C156 C155 1.396 . S
C157 C152 1.499 . S
C157 H158 0.959 1_545 S
C157 H159 0.960 . S
C157 H160 0.961 . S
H158 C157 0.959 1_565 S
H159 C157 0.960 . S
H160 C157 0.961 . S
O161 Co136 1.967 . S
O161 C169 1.258 . S
O162 Co137 1.941 . S
O162 C169 1.266 . S
H163 C165 0.959 . S
H164 C165 0.961 . S
C165 C155 1.510 . S
C165 H163 0.959 . S
C165 H164 0.961 . S
C165 H166 0.960 . S
H166 C165 0.960 . S
H167 N147 0.862 1_556 S
O168 Co136 1.920 1_565 S
O168 C141 1.289 . S
C169 O161 1.258 . S
C169 O162 1.266 . S
Co170 O173 1.970 . S
Co170 N187 1.989 . S
Co170 O195 1.967 . S
Co170 O202 1.920 1_655 S
Co171 O174 1.966 . S
Co171 N180 2.022 . S
Co171 N188 1.993 . S
Co171 O196 1.941 . S
C172 O173 1.258 . S
C172 O174 1.263 . S
O173 Co170 1.970 . S
O173 C172 1.258 . S
O174 Co171 1.966 . S
O174 C172 1.263 . S
C175 O176 1.235 . S
C175 O202 1.289 . S
O176 C175 1.235 . S
C177 C179 1.400 . S
C177 N180 1.351 . S
C177 C182 1.501 . S
C178 C179 1.387 . S
C178 N181 1.341 . S
C179 C177 1.400 . S
C179 C178 1.387 . S
N180 Co171 2.022 . S
N180 C177 1.351 . S
N180 N181 1.365 . S
N181 C178 1.341 . S
N181 N180 1.365 . S
N181 H201 0.862 . S
C182 C177 1.501 . S
C182 H183 0.961 . S
C182 H184 0.961 . S
C182 H185 0.960 . S
H183 C182 0.961 . S
H184 C182 0.961 . S
H185 C182 0.960 . S
C186 N187 1.342 . S
C186 C190 1.401 . S
C186 C191 1.499 . S
N187 Co170 1.989 . S
N187 C186 1.342 . S
N187 N188 1.388 . S
N188 Co171 1.993 . S
N188 N187 1.388 . S
N188 C189 1.346 . S
C189 N188 1.346 . S
C189 C190 1.396 . S
C189 C199 1.510 . S
C190 C186 1.401 . S
C190 C189 1.396 . S
C191 C186 1.499 . S
C191 H192 0.959 1_655 S
C191 H193 0.960 . S
C191 H194 0.961 . S
H192 C191 0.959 1_455 S
H193 C191 0.960 . S
H194 C191 0.961 . S
O195 Co170 1.967 . S
O195 C203 1.258 . S
O196 Co171 1.941 . S
O196 C203 1.266 . S
H197 C199 0.959 . S
H198 C199 0.961 . S
C199 C189 1.510 . S
C199 H197 0.959 . S
C199 H198 0.961 . S
C199 H200 0.960 . S
H200 C199 0.960 . S
H201 N181 0.862 . S
O202 Co170 1.920 1_455 S
O202 C175 1.289 . S
C203 O195 1.258 . S
C203 O196 1.266 . S
Co204 O207 1.970 . S
Co204 N221 1.989 1_554 S
Co204 O229 1.967 . S
Co204 O236 1.920 1_565 S
Co205 O208 1.966 . S
Co205 N214 2.022 . S
Co205 N222 1.993 1_554 S
Co205 O230 1.941 . S
C206 O207 1.258 . S
C206 O208 1.263 . S
O207 Co204 1.970 . S
O207 C206 1.258 . S
O208 Co205 1.966 . S
O208 C206 1.263 . S
C209 O210 1.235 . S
C209 O236 1.289 . S
O210 C209 1.235 . S
C211 C213 1.400 . S
C211 N214 1.351 . S
C211 C216 1.501 . S
C212 C213 1.391 . S
C212 N215 1.341 . S
C213 C211 1.400 . S
C213 C212 1.391 . S
N214 Co205 2.022 . S
N214 C211 1.351 . S
N214 N215 1.365 . S
N215 C212 1.341 . S
N215 N214 1.365 . S
N215 H235 0.862 1_554 S
C216 C211 1.501 . S
C216 H217 0.961 . S
C216 H218 0.961 . S
C216 H219 0.960 . S
H217 C216 0.961 . S
H218 C216 0.961 . S
H219 C216 0.960 . S
C220 N221 1.342 . S
C220 C224 1.401 . S
C220 C225 1.499 . S
N221 Co204 1.989 1_556 S
N221 C220 1.342 . S
N221 N222 1.388 . S
N222 Co205 1.993 1_556 S
N222 N221 1.388 . S
N222 C223 1.346 . S
C223 N222 1.346 . S
C223 C224 1.396 . S
C223 C233 1.510 . S
C224 C220 1.401 . S
C224 C223 1.396 . S
C225 C220 1.499 . S
C225 H226 0.959 1_565 S
C225 H227 0.960 . S
C225 H228 0.961 . S
H226 C225 0.959 1_545 S
H227 C225 0.960 . S
H228 C225 0.961 . S
O229 Co204 1.967 . S
O229 C237 1.258 . S
O230 Co205 1.941 . S
O230 C237 1.266 . S
H231 C233 0.959 . S
H232 C233 0.961 . S
C233 C223 1.510 . S
C233 H231 0.959 . S
C233 H232 0.961 . S
C233 H234 0.960 . S
H234 C233 0.960 . S
H235 N215 0.862 1_556 S
O236 Co204 1.920 1_545 S
O236 C209 1.289 . S
C237 O229 1.258 . S
C237 O230 1.266 . S
Co238 O241 1.970 . S
Co238 N255 1.989 . S
Co238 O263 1.967 . S
Co238 O270 1.920 1_455 S
Co239 O242 1.966 . S
Co239 N248 2.022 . S
Co239 N256 1.993 . S
Co239 O264 1.941 . S
C240 O241 1.258 . S
C240 O242 1.263 . S
O241 Co238 1.970 . S
O241 C240 1.258 . S
O242 Co239 1.966 . S
O242 C240 1.263 . S
C243 O244 1.235 . S
C243 O270 1.289 . S
O244 C243 1.235 . S
C245 C247 1.400 . S
C245 N248 1.351 . S
C245 C250 1.501 . S
C246 C247 1.387 . S
C246 N249 1.341 . S
C247 C245 1.400 . S
C247 C246 1.387 . S
N248 Co239 2.022 . S
N248 C245 1.351 . S
N248 N249 1.365 . S
N249 C246 1.341 . S
N249 N248 1.365 . S
N249 H269 0.862 . S
C250 C245 1.501 . S
C250 H251 0.961 . S
C250 H252 0.961 . S
C250 H253 0.960 . S
H251 C250 0.961 . S
H252 C250 0.961 . S
H253 C250 0.960 . S
C254 N255 1.342 . S
C254 C258 1.401 . S
C254 C259 1.499 . S
N255 Co238 1.989 . S
N255 C254 1.342 . S
N255 N256 1.388 . S
N256 Co239 1.993 . S
N256 N255 1.388 . S
N256 C257 1.346 . S
C257 N256 1.346 . S
C257 C258 1.396 . S
C257 C267 1.510 . S
C258 C254 1.401 . S
C258 C257 1.396 . S
C259 C254 1.499 . S
C259 H260 0.959 1_455 S
C259 H261 0.960 . S
C259 H262 0.961 . S
H260 C259 0.959 1_655 S
H261 C259 0.960 . S
H262 C259 0.961 . S
O263 Co238 1.967 . S
O263 C271 1.258 . S
O264 Co239 1.941 . S
O264 C271 1.266 . S
H265 C267 0.959 . S
H266 C267 0.961 . S
C267 C257 1.510 . S
C267 H265 0.959 . S
C267 H266 0.961 . S
C267 H268 0.960 . S
H268 C267 0.960 . S
H269 N249 0.862 . S
O270 Co238 1.920 1_655 S
O270 C243 1.289 . S
C271 O263 1.258 . S
C271 O264 1.266 . S
C272 C273 1.369 . S
C272 C274 1.419 1_554 S
C272 H276 0.930 . S
C273 C272 1.369 . S
C273 C282 1.429 . S
C274 C272 1.419 1_556 S
C274 C275 1.363 1_556 S
C274 H277 0.929 . S
C275 C274 1.363 1_554 S
C275 C281 1.428 . S
H276 C272 0.930 . S
H277 C274 0.929 . S
S278 N279 1.613 . S
S278 N280 1.610 . S
N279 S278 1.613 . S
N279 C282 1.350 . S
N280 S278 1.610 . S
N280 C281 1.351 . S
C281 C275 1.428 . S
C281 N280 1.351 . S
C281 C282 1.434 . S
C282 C273 1.429 . S
C282 N279 1.350 . S
C282 C281 1.434 . S
C283 C284 1.369 . S
C283 C285 1.419 . S
C283 H287 0.930 . S
C284 C283 1.369 . S
C284 C293 1.429 . S
C285 C283 1.419 . S
C285 C286 1.363 . S
C285 H288 0.929 . S
C286 C285 1.363 . S
C286 C292 1.428 . S
H287 C283 0.930 . S
H288 C285 0.929 . S
S289 N290 1.613 . S
S289 N291 1.610 . S
N290 S289 1.613 . S
N290 C293 1.350 . S
N291 S289 1.610 . S
N291 C292 1.351 . S
C292 C286 1.428 . S
C292 N291 1.351 . S
C292 C293 1.434 . S
C293 C284 1.429 . S
C293 N290 1.350 . S
C293 C292 1.434 . S
C294 C295 1.369 . S
C294 C296 1.419 . S
C294 H298 0.930 . S
C295 C294 1.369 . S
C295 C304 1.427 1_554 S
C296 C294 1.419 . S
C296 C297 1.363 . S
C296 H299 0.929 . S
C297 C296 1.363 . S
C297 C303 1.428 1_554 S
H298 C294 0.930 . S
H299 C296 0.929 . S
S300 N301 1.613 . S
S300 N302 1.610 . S
N301 S300 1.613 . S
N301 C304 1.351 . S
N302 S300 1.610 . S
N302 C303 1.351 . S
C303 C297 1.428 1_556 S
C303 N302 1.351 . S
C303 C304 1.435 . S
C304 C295 1.427 1_556 S
C304 N301 1.351 . S
C304 C303 1.435 . S
C305 C306 1.369 . S
C305 C307 1.419 . S
C305 H309 0.930 . S
C306 C305 1.369 . S
C306 C315 1.429 . S
C307 C305 1.419 . S
C307 C308 1.363 . S
C307 H310 0.929 . S
C308 C307 1.363 . S
C308 C314 1.428 . S
H309 C305 0.930 . S
H310 C307 0.929 . S
S311 N312 1.613 . S
S311 N313 1.610 . S
N312 S311 1.613 . S
N312 C315 1.350 . S
N313 S311 1.610 . S
N313 C314 1.351 . S
C314 C308 1.428 . S
C314 N313 1.351 . S
C314 C315 1.434 . S
C315 C306 1.429 . S
C315 N312 1.350 . S
C315 C314 1.434 . S
C316 C317 1.369 . S
C316 C318 1.419 . S
C316 H320 0.930 . S
C317 C316 1.369 . S
C317 C326 1.429 1_554 S
C318 C316 1.419 . S
C318 C319 1.363 . S
C318 H321 0.929 . S
C319 C318 1.363 . S
C319 C325 1.428 1_554 S
H320 C316 0.930 . S
H321 C318 0.929 . S
S322 N323 1.613 . S
S322 N324 1.610 . S
N323 S322 1.613 . S
N323 C326 1.350 . S
N324 S322 1.610 . S
N324 C325 1.351 . S
C325 C319 1.428 1_556 S
C325 N324 1.351 . S
C325 C326 1.434 . S
C326 C317 1.429 1_556 S
C326 N323 1.350 . S
C326 C325 1.434 . S
C327 C328 1.369 . S
C327 C329 1.419 . S
C327 H331 0.930 . S
C328 C327 1.369 . S
C328 C337 1.429 . S
C329 C327 1.419 . S
C329 C330 1.363 . S
C329 H332 0.929 . S
C330 C329 1.363 . S
C330 C336 1.428 . S
H331 C327 0.930 . S
H332 C329 0.929 . S
S333 N334 1.613 . S
S333 N335 1.610 . S
N334 S333 1.613 . S
N334 C337 1.350 . S
N335 S333 1.610 . S
N335 C336 1.351 . S
C336 C330 1.428 . S
C336 N335 1.351 . S
C336 C337 1.434 . S
C337 C328 1.429 . S
C337 N334 1.350 . S
C337 C336 1.434 . S
C338 C339 1.369 . S
C338 C340 1.419 . S
C338 H342 0.930 . S
C339 C338 1.369 . S
C339 C348 1.429 . S
C340 C338 1.419 . S
C340 C341 1.363 . S
C340 H343 0.929 . S
C341 C340 1.363 . S
C341 C347 1.428 . S
H342 C338 0.930 . S
H343 C340 0.929 . S
S344 N345 1.613 1_554 S
S344 N346 1.610 . S
N345 S344 1.613 1_556 S
N345 C348 1.350 1_556 S
N346 S344 1.610 . S
N346 C347 1.351 . S
C347 C341 1.428 . S
C347 N346 1.351 . S
C347 C348 1.434 . S
C348 C339 1.429 . S
C348 N345 1.350 1_554 S
C348 C347 1.434 . S
C349 C350 1.369 . S
C349 C351 1.419 . S
C349 H353 0.930 . S
C350 C349 1.369 . S
C350 C359 1.429 . S
C351 C349 1.419 . S
C351 C352 1.363 . S
C351 H354 0.929 . S
C352 C351 1.363 . S
C352 C358 1.428 . S
H353 C349 0.930 . S
H354 C351 0.929 . S
S355 N356 1.613 . S
S355 N357 1.610 . S
N356 S355 1.613 . S
N356 C359 1.350 . S
N357 S355 1.610 . S
N357 C358 1.351 . S
C358 C352 1.428 . S
C358 N357 1.351 . S
C358 C359 1.434 . S
C359 C350 1.429 . S
C359 N356 1.350 . S
C359 C358 1.434 . S
C360 C361 1.369 . S
C360 C362 1.419 . S
C360 H364 0.930 . S
C361 C360 1.369 . S
C361 C370 1.429 . S
C362 C360 1.419 . S
C362 C363 1.363 . S
C362 H365 0.929 . S
C363 C362 1.363 . S
C363 C369 1.428 . S
H364 C360 0.930 . S
H365 C362 0.929 . S
S366 N367 1.613 . S
S366 N368 1.610 . S
N367 S366 1.613 . S
N367 C370 1.350 . S
N368 S366 1.610 . S
N368 C369 1.351 . S
C369 C363 1.428 . S
C369 N368 1.351 . S
C369 C370 1.434 . S
C370 C361 1.429 . S
C370 N367 1.350 . S
C370 C369 1.434 . S
C371 C372 1.369 . S
C371 C373 1.419 . S
C371 H375 0.930 . S
C372 C371 1.369 . S
C372 C381 1.429 . S
C373 C371 1.419 . S
C373 C374 1.363 . S
C373 H376 0.929 . S
C374 C373 1.363 . S
C374 C380 1.428 . S
H375 C371 0.930 . S
H376 C373 0.929 . S
S377 N378 1.613 . S
S377 N379 1.610 . S
N378 S377 1.613 . S
N378 C381 1.350 . S
N379 S377 1.610 . S
N379 C380 1.351 . S
C380 C374 1.428 . S
C380 N379 1.351 . S
C380 C381 1.434 . S
C381 C372 1.429 . S
C381 N378 1.350 . S
C381 C380 1.434 . S
C382 C383 1.369 . S
C382 C384 1.419 1_465 S
C382 H386 0.930 1_554 S
C383 C382 1.369 . S
C383 C392 1.429 . S
C384 C382 1.419 1_645 S
C384 C385 1.363 . S
C384 H387 0.929 1_554 S
C385 C384 1.363 . S
C385 C391 1.428 . S
H386 C382 0.930 1_556 S
H387 C384 0.929 1_556 S
S388 N389 1.613 1_545 S
S388 N390 1.610 1_455 S
N389 S388 1.613 1_565 S
N389 C392 1.350 . S
N390 S388 1.610 1_655 S
N390 C391 1.351 . S
C391 C385 1.428 . S
C391 N390 1.351 . S
C391 C392 1.434 1_645 S
C392 C383 1.429 . S
C392 N389 1.350 . S
C392 C391 1.434 1_465 S
C393 C394 1.369 1_455 S
C393 C395 1.419 1_565 S
C393 H397 0.930 . S
C394 C393 1.369 1_655 S
C394 C403 1.429 . S
C395 C393 1.419 1_545 S
C395 C396 1.363 . S
C395 H398 0.929 . S
C396 C395 1.363 . S
C396 C402 1.428 1_455 S
H397 C393 0.930 . S
H398 C395 0.929 . S
S399 N400 1.613 1_545 S
S399 N401 1.610 . S
N400 S399 1.613 1_565 S
N400 C403 1.350 . S
N401 S399 1.610 . S
N401 C402 1.351 . S
C402 C396 1.428 1_655 S
C402 N401 1.351 . S
C402 C403 1.434 1_545 S
C403 C394 1.429 . S
C403 N400 1.350 . S
C403 C402 1.434 1_565 S
C404 C405 1.369 . S
C404 C406 1.419 . S
C404 H408 0.930 . S
C405 C404 1.369 . S
C405 C414 1.429 . S
C406 C404 1.419 . S
C406 C407 1.363 . S
C406 H409 0.929 . S
C407 C406 1.363 . S
C407 C413 1.428 . S
H408 C404 0.930 . S
H409 C406 0.929 . S
S410 N411 1.613 . S
S410 N412 1.610 . S
N411 S410 1.613 . S
N411 C414 1.350 . S
N412 S410 1.610 . S
N412 C413 1.351 . S
C413 C407 1.428 . S
C413 N412 1.351 . S
C413 C414 1.434 . S
C414 C405 1.429 . S
C414 N411 1.350 . S
C414 C413 1.434 . S
C415 C416 1.369 . S
C415 C417 1.419 . S
C415 H419 0.930 . S
C416 C415 1.369 . S
C416 C425 1.429 . S
C417 C415 1.419 . S
C417 C418 1.363 . S
C417 H420 0.929 . S
C418 C417 1.363 . S
C418 C424 1.428 . S
H419 C415 0.930 . S
H420 C417 0.929 . S
S421 N422 1.613 . S
S421 N423 1.610 . S
N422 S421 1.613 . S
N422 C425 1.350 . S
N423 S421 1.610 . S
N423 C424 1.351 . S
C424 C418 1.428 . S
C424 N423 1.351 . S
C424 C425 1.434 . S
C425 C416 1.429 . S
C425 N422 1.350 . S
C425 C424 1.434 . S
C426 C427 1.369 . S
C426 C428 1.419 . S
C426 H430 0.930 . S
C427 C426 1.369 . S
C427 C436 1.429 . S
C428 C426 1.419 . S
C428 C429 1.363 . S
C428 H431 0.929 . S
C429 C428 1.363 . S
C429 C435 1.428 . S
H430 C426 0.930 . S
H431 C428 0.929 . S
S432 N433 1.613 . S
S432 N434 1.610 . S
N433 S432 1.613 . S
N433 C436 1.350 . S
N434 S432 1.610 . S
N434 C435 1.351 . S
C435 C429 1.428 . S
C435 N434 1.351 . S
C435 C436 1.434 . S
C436 C427 1.429 . S
C436 N433 1.350 . S
C436 C435 1.434 . S
C437 C438 1.369 . S
C437 C439 1.419 . S
C437 H441 0.930 . S
C438 C437 1.369 . S
C438 C447 1.429 . S
C439 C437 1.419 . S
C439 C440 1.363 . S
C439 H442 0.929 . S
C440 C439 1.363 . S
C440 C446 1.428 . S
H441 C437 0.930 . S
H442 C439 0.929 . S
S443 N444 1.613 . S
S443 N445 1.610 . S
N444 S443 1.613 . S
N444 C447 1.350 . S
N445 S443 1.610 . S
N445 C446 1.351 . S
C446 C440 1.428 . S
C446 N445 1.351 . S
C446 C447 1.434 . S
C447 C438 1.429 . S
C447 N444 1.350 . S
C447 C446 1.434 . S
C448 C449 1.369 . S
C448 C450 1.419 . S
C448 H452 0.930 . S
C449 C448 1.369 . S
C449 C458 1.429 . S
C450 C448 1.419 . S
C450 C451 1.363 . S
C450 H453 0.929 . S
C451 C450 1.363 . S
C451 C457 1.428 . S
H452 C448 0.930 . S
H453 C450 0.929 . S
S454 N455 1.613 . S
S454 N456 1.610 . S
N455 S454 1.613 . S
N455 C458 1.350 . S
N456 S454 1.610 . S
N456 C457 1.351 . S
C457 C451 1.428 . S
C457 N456 1.351 . S
C457 C458 1.434 . S
C458 C449 1.429 . S
C458 N455 1.350 . S
C458 C457 1.434 . S
C459 C460 1.369 . S
C459 C461 1.419 . S
C459 H463 0.930 . S
C460 C459 1.369 . S
C460 C469 1.429 . S
C461 C459 1.419 . S
C461 C462 1.363 . S
C461 H464 0.929 . S
C462 C461 1.363 . S
C462 C468 1.428 . S
H463 C459 0.930 . S
H464 C461 0.929 . S
S465 N466 1.613 . S
S465 N467 1.610 . S
N466 S465 1.613 . S
N466 C469 1.350 . S
N467 S465 1.610 . S
N467 C468 1.351 . S
C468 C462 1.428 . S
C468 N467 1.351 . S
C468 C469 1.434 . S
C469 C460 1.429 . S
C469 N466 1.350 . S
C469 C468 1.434 . S
C470 C471 1.369 . S
C470 C472 1.419 . S
C470 H474 0.930 . S
C471 C470 1.369 . S
C471 C480 1.429 . S
C472 C470 1.419 . S
C472 C473 1.363 . S
C472 H475 0.929 . S
C473 C472 1.363 . S
C473 C479 1.428 . S
H474 C470 0.930 . S
H475 C472 0.929 . S
S476 N477 1.613 . S
S476 N478 1.610 . S
N477 S476 1.613 . S
N477 C480 1.350 . S
N478 S476 1.610 . S
N478 C479 1.351 . S
C479 C473 1.428 . S
C479 N478 1.351 . S
C479 C480 1.434 . S
C480 C471 1.429 . S
C480 N477 1.350 . S
C480 C479 1.434 . S
C481 C482 1.369 . S
C481 C483 1.419 . S
C481 H485 0.930 . S
C482 C481 1.369 . S
C482 C491 1.429 . S
C483 C481 1.419 . S
C483 C484 1.363 . S
C483 H486 0.929 . S
C484 C483 1.363 . S
C484 C490 1.428 . S
H485 C481 0.930 . S
H486 C483 0.929 . S
S487 N488 1.613 . S
S487 N489 1.610 . S
N488 S487 1.613 . S
N488 C491 1.350 . S
N489 S487 1.610 . S
N489 C490 1.351 . S
C490 C484 1.428 . S
C490 N489 1.351 . S
C490 C491 1.434 . S
C491 C482 1.429 . S
C491 N488 1.350 . S
C491 C490 1.434 . S
C273 C209 0.560 . S
C275 C9 0.649 . S
C284 C243 0.542 . S
C286 C43 0.668 . S
C295 C141 0.541 . S
C297 C77 0.670 . S
C306 C175 0.548 . S
C308 C111 0.662 . S
C317 C73 0.547 . S
C319 C145 0.663 . S
C328 C107 0.537 . S
C330 C179 0.673 . S
C339 C5 0.561 . S
C341 C213 0.647 . S
C350 C247 0.672 . S
C352 C39 0.543 . S
C361 C101 2.769 . S
C363 C33 2.771 . S
C372 C67 2.771 . S
C374 C135 2.769 . S
C383 C237 2.771 . S
C385 C169 2.771 . S
C394 C203 2.770 . S
C396 C271 2.770 . S
C405 C20 1.759 . S
C407 C258 1.761 . S
C416 C156 1.764 . S
C418 C54 1.760 . S
C427 C190 1.764 . S
C429 C88 1.759 . S
C438 C224 1.764 . S
C440 C122 1.759 . S
C449 C70 2.181 . S
C451 C172 2.186 . S
C460 C104 2.184 . S
C462 C206 2.184 . S
C471 C240 2.181 . S
C473 C2 2.186 . S
C482 C138 2.184 . S
C484 C36 2.183 . S
