# Generated by pormake.
# Topology zga, (5)-cn, num edge types: 1
# Building blocks:
#     Node 0, Type 0, BuildingBlock: BEQFEK_clean_sbu_0, # of connection points: 5
#     Node 1, Type 0, BuildingBlock: BEQFEK_clean_sbu_0, # of connection points: 5
#     Node 2, Type 0, BuildingBlock: BEQFEK_clean_sbu_0, # of connection points: 5
#     Node 3, Type 0, BuildingBlock: BEQFEK_clean_sbu_0, # of connection points: 5
#     Node 4, Type 0, BuildingBlock: BEQFEK_clean_sbu_0, # of connection points: 5
#     Node 5, Type 0, BuildingBlock: BEQFEK_clean_sbu_0, # of connection points: 5
#     Node 6, Type 0, BuildingBlock: BEQFEK_clean_sbu_0, # of connection points: 5
#     Node 7, Type 0, BuildingBlock: BEQFEK_clean_sbu_0, # of connection points: 5
#     Node 8, Type 0, BuildingBlock: BEQFEK_clean_sbu_0, # of connection points: 5
#     Node 9, Type 0, BuildingBlock: BEQFEK_clean_sbu_0, # of connection points: 5
#     Node 10, Type 0, BuildingBlock: BEQFEK_clean_sbu_0, # of connection points: 5
#     Node 11, Type 0, BuildingBlock: BEQFEK_clean_sbu_0, # of connection points: 5
#     Node 12, Type 0, BuildingBlock: BEQFEK_clean_sbu_0, # of connection points: 5
#     Node 13, Type 0, BuildingBlock: BEQFEK_clean_sbu_0, # of connection points: 5
#     Node 14, Type 0, BuildingBlock: BEQFEK_clean_sbu_0, # of connection points: 5
#     Node 15, Type 0, BuildingBlock: BEQFEK_clean_sbu_0, # of connection points: 5
#     Edge 16, Type (0, 0), BuildingBlock: TEMPAE_clean_linker_10, # of connection points: 2
#     Edge 17, Type (0, 0), BuildingBlock: TEMPAE_clean_linker_10, # of connection points: 2
#     Edge 18, Type (0, 0), BuildingBlock: TEMPAE_clean_linker_10, # of connection points: 2
#     Edge 19, Type (0, 0), BuildingBlock: TEMPAE_clean_linker_10, # of connection points: 2
#     Edge 20, Type (0, 0), BuildingBlock: TEMPAE_clean_linker_10, # of connection points: 2
#     Edge 21, Type (0, 0), BuildingBlock: TEMPAE_clean_linker_10, # of connection points: 2
#     Edge 22, Type (0, 0), BuildingBlock: TEMPAE_clean_linker_10, # of connection points: 2
#     Edge 23, Type (0, 0), BuildingBlock: TEMPAE_clean_linker_10, # of connection points: 2
#     Edge 24, Type (0, 0), BuildingBlock: TEMPAE_clean_linker_10, # of connection points: 2
#     Edge 25, Type (0, 0), BuildingBlock: TEMPAE_clean_linker_10, # of connection points: 2
#     Edge 26, Type (0, 0), BuildingBlock: TEMPAE_clean_linker_10, # of connection points: 2
#     Edge 27, Type (0, 0), BuildingBlock: TEMPAE_clean_linker_10, # of connection points: 2
#     Edge 28, Type (0, 0), BuildingBlock: TEMPAE_clean_linker_10, # of connection points: 2
#     Edge 29, Type (0, 0), BuildingBlock: TEMPAE_clean_linker_10, # of connection points: 2
#     Edge 30, Type (0, 0), BuildingBlock: TEMPAE_clean_linker_10, # of connection points: 2
#     Edge 31, Type (0, 0), BuildingBlock: TEMPAE_clean_linker_10, # of connection points: 2
#     Edge 32, Type (0, 0), BuildingBlock: TEMPAE_clean_linker_10, # of connection points: 2
#     Edge 33, Type (0, 0), BuildingBlock: TEMPAE_clean_linker_10, # of connection points: 2
#     Edge 34, Type (0, 0), BuildingBlock: TEMPAE_clean_linker_10, # of connection points: 2
#     Edge 35, Type (0, 0), BuildingBlock: TEMPAE_clean_linker_10, # of connection points: 2
#     Edge 36, Type (0, 0), BuildingBlock: TEMPAE_clean_linker_10, # of connection points: 2
#     Edge 37, Type (0, 0), BuildingBlock: TEMPAE_clean_linker_10, # of connection points: 2
#     Edge 38, Type (0, 0), BuildingBlock: TEMPAE_clean_linker_10, # of connection points: 2
#     Edge 39, Type (0, 0), BuildingBlock: TEMPAE_clean_linker_10, # of connection points: 2
#     Edge 40, Type (0, 0), BuildingBlock: TEMPAE_clean_linker_10, # of connection points: 2
#     Edge 41, Type (0, 0), BuildingBlock: TEMPAE_clean_linker_10, # of connection points: 2
#     Edge 42, Type (0, 0), BuildingBlock: TEMPAE_clean_linker_10, # of connection points: 2
#     Edge 43, Type (0, 0), BuildingBlock: TEMPAE_clean_linker_10, # of connection points: 2
#     Edge 44, Type (0, 0), BuildingBlock: TEMPAE_clean_linker_10, # of connection points: 2
#     Edge 45, Type (0, 0), BuildingBlock: TEMPAE_clean_linker_10, # of connection points: 2
#     Edge 46, Type (0, 0), BuildingBlock: TEMPAE_clean_linker_10, # of connection points: 2
#     Edge 47, Type (0, 0), BuildingBlock: TEMPAE_clean_linker_10, # of connection points: 2
#     Edge 48, Type (0, 0), BuildingBlock: TEMPAE_clean_linker_10, # of connection points: 2
#     Edge 49, Type (0, 0), BuildingBlock: TEMPAE_clean_linker_10, # of connection points: 2
#     Edge 50, Type (0, 0), BuildingBlock: TEMPAE_clean_linker_10, # of connection points: 2
#     Edge 51, Type (0, 0), BuildingBlock: TEMPAE_clean_linker_10, # of connection points: 2
#     Edge 52, Type (0, 0), BuildingBlock: TEMPAE_clean_linker_10, # of connection points: 2
#     Edge 53, Type (0, 0), BuildingBlock: TEMPAE_clean_linker_10, # of connection points: 2
#     Edge 54, Type (0, 0), BuildingBlock: TEMPAE_clean_linker_10, # of connection points: 2
#     Edge 55, Type (0, 0), BuildingBlock: TEMPAE_clean_linker_10, # of connection points: 2
# Relax obj value: 0.161
# Max RMSD: 0.223
# Mean RMSD: 0.180
data_MOF--net-zga--node1-BEQFEK_clean_sbu_0--edge1-TEMPAE_clean_linker_10
_symmetry_space_group_name_H-M    P1
_symmetry_Int_Tables_number       1
_symmetry_cell_setting            triclinic
loop_
_symmetry_equiv_pos_as_xyz
'x, y, z'
_cell_length_a     53.51782
_cell_length_b     90.482719
_cell_length_c     19.157938
_cell_angle_alpha  91.085204
_cell_angle_beta   90.114521
_cell_angle_gamma 101.28447
loop_
_atom_site_label
_atom_site_type_symbol
_atom_site_fract_x
_atom_site_fract_y
_atom_site_fract_z
_atom_type_partial_charge
Co0 Co 0.09038 0.54014 0.06098 0.0
Co1 Co 0.06916 0.53887 0.21328 0.0
C2 C 0.08777 0.56822 0.1401 0.0
O3 O 0.09396 0.56162 0.08553 0.0
O4 O 0.07781 0.56078 0.19224 0.0
C5 C 0.11425 0.54914 0.93012 0.0
O6 O 0.11974 0.56256 0.96012 0.0
C7 C 0.07829 0.54313 0.36294 0.0
C8 C 0.04339 0.52954 0.40765 0.0
C9 C 0.0669 0.53826 0.42554 0.0
N10 N 0.06247 0.5373 0.31051 0.0
N11 N 0.04154 0.5293 0.33751 0.0
C12 C 0.10339 0.55357 0.35281 0.0
H13 H 0.10353 0.55959 0.30299 0.0
H14 H 0.11884 0.54702 0.35065 0.0
H15 H 0.10746 0.56185 0.39687 0.0
C16 C 0.12626 0.52321 0.12447 0.0
N17 N 0.10648 0.53034 0.12831 0.0
N18 N 0.09637 0.52869 0.19089 0.0
C19 C 0.10872 0.51977 0.22797 0.0
C20 C 0.12837 0.51622 0.1876 0.0
C21 C 0.14324 0.5237 0.06225 0.0
H22 H 0.14475 0.53463 0.03578 0.0
H23 H 0.16258 0.52217 0.07749 0.0
H24 H 0.13485 0.51456 0.02482 0.0
O25 O 0.0539 0.53037 0.0538 0.0
O26 O 0.03802 0.52965 0.16102 0.0
H27 H 0.10508 0.50188 0.30236 0.0
H28 H 0.10921 0.52051 0.33987 0.0
C29 C 0.09991 0.5131 0.29677 0.0
H30 H 0.07897 0.51182 0.30141 0.0
H31 H 0.02622 0.52344 0.30804 0.0
O32 O 0.10364 0.53796 0.96579 0.0
C33 C 0.03534 0.52693 0.09575 0.0
Co34 Co 0.14619 0.71009 0.23325 0.0
Co35 Co 0.12835 0.71079 0.07813 0.0
C36 C 0.12458 0.68177 0.15443 0.0
O37 O 0.13436 0.68858 0.20954 0.0
O38 O 0.12089 0.68898 0.10015 0.0
C39 C 0.16515 0.70064 0.36209 0.0
O40 O 0.16345 0.6876 0.32923 0.0
C41 C 0.1318 0.70465 0.92919 0.0
C42 C 0.11267 0.72173 0.88297 0.0
C43 C 0.12582 0.7104 0.86611 0.0
N44 N 0.12306 0.71244 0.9809 0.0
N45 N 0.11134 0.7225 0.95306 0.0
C46 C 0.1446 0.69159 0.94117 0.0
H47 H 0.13057 0.68228 0.96397 0.0
H48 H 0.16024 0.69483 0.9799 0.0
H49 H 0.15195 0.68735 0.89223 0.0
C50 C 0.19507 0.72546 0.17274 0.0
N51 N 0.17022 0.71904 0.16714 0.0
N52 N 0.16258 0.71993 0.10224 0.0
C53 C 0.18223 0.72744 0.06495 0.0
C54 C 0.20342 0.73104 0.10825 0.0
C55 C 0.21013 0.7265 0.23909 0.0
H56 H 0.20115 0.73275 0.27918 0.0
H57 H 0.20962 0.71499 0.25871 0.0
H58 H 0.23019 0.73229 0.23154 0.0
O59 O 0.11702 0.72068 0.23726 0.0
O60 O 0.10445 0.72135 0.12725 0.0
H61 H 0.16307 0.73492 0.97781 0.0
H62 H 0.19733 0.73972 0.97306 0.0
C63 C 0.18096 0.73097 0.98909 0.0
H64 H 0.18134 0.72066 0.95738 0.0
H65 H 0.10305 0.73015 0.98192 0.0
O66 O 0.1604 0.71183 0.32906 0.0
C67 C 0.10226 0.72449 0.19168 0.0
Co68 Co 0.82092 0.44757 0.92331 0.0
Co69 Co 0.84044 0.45626 0.77366 0.0
C70 C 0.83846 0.42521 0.83116 0.0
O71 O 0.82739 0.42815 0.88694 0.0
O72 O 0.84496 0.43517 0.78514 0.0
C73 C 0.81427 0.43566 0.05764 0.0
O74 O 0.8287 0.42674 0.03168 0.0
C75 C 0.83924 0.4523 0.6229 0.0
C76 C 0.85566 0.47519 0.58661 0.0
C77 C 0.84439 0.46082 0.56345 0.0
N78 N 0.84645 0.46132 0.67872 0.0
N79 N 0.85661 0.47493 0.65682 0.0
C80 C 0.82819 0.4358 0.62764 0.0
H81 H 0.84211 0.43016 0.65403 0.0
H82 H 0.81072 0.43419 0.66 0.0
H83 H 0.82388 0.43028 0.57575 0.0
C84 C 0.77677 0.45977 0.87316 0.0
N85 N 0.7994 0.45569 0.86317 0.0
N86 N 0.80717 0.45888 0.79915 0.0
C87 C 0.78947 0.46493 0.76582 0.0
C88 C 0.76972 0.46582 0.81172 0.0
C89 C 0.76358 0.4591 0.94218 0.0
H90 H 0.77741 0.46419 0.98331 0.0
H91 H 0.75652 0.44713 0.95545 0.0
H92 H 0.74742 0.46512 0.94186 0.0
O93 O 0.8539 0.46164 0.93654 0.0
O94 O 0.86646 0.46969 0.83115 0.0
H95 H 0.80741 0.47907 0.68465 0.0
H96 H 0.77346 0.47272 0.67221 0.0
C97 C 0.7912 0.46949 0.69097 0.0
H98 H 0.79459 0.45991 0.65802 0.0
H99 H 0.86345 0.48414 0.68986 0.0
O100 O 0.80674 0.445 0.01789 0.0
C101 C 0.86962 0.46991 0.89704 0.0
Co102 Co 0.91933 0.30553 0.92119 0.0
Co103 Co 0.89851 0.29582 0.77165 0.0
C104 C 0.9003 0.32721 0.83312 0.0
O105 O 0.91193 0.32476 0.88841 0.0
O106 O 0.89381 0.31692 0.78663 0.0
C107 C 0.92752 0.31737 0.05872 0.0
O108 O 0.91423 0.32706 0.03578 0.0
C109 C 0.90494 0.29893 0.62191 0.0
C110 C 0.87798 0.27916 0.57917 0.0
C111 C 0.89617 0.29152 0.55989 0.0
N112 N 0.89285 0.29116 0.67513 0.0
N113 N 0.87669 0.27938 0.64937 0.0
C114 C 0.9238 0.31344 0.631 0.0
H115 H 0.92147 0.31886 0.68215 0.0
H116 H 0.94341 0.31116 0.62929 0.0
H117 H 0.92167 0.32129 0.58853 0.0
C118 C 0.96323 0.29348 0.86869 0.0
N119 N 0.94058 0.29752 0.85926 0.0
N120 N 0.93178 0.29314 0.79651 0.0
C121 C 0.94858 0.28604 0.76411 0.0
C122 C 0.96911 0.28621 0.80851 0.0
C123 C 0.97794 0.29562 0.93577 0.0
H124 H 0.97941 0.30738 0.95538 0.0
H125 H 0.9973 0.29313 0.92906 0.0
H126 H 0.96751 0.288 0.97531 0.0
O127 O 0.88696 0.291 0.93255 0.0
O128 O 0.87246 0.28264 0.82765 0.0
H129 H 0.95599 0.26898 0.69044 0.0
H130 H 0.94776 0.28539 0.65253 0.0
C131 C 0.94365 0.27746 0.69624 0.0
H132 H 0.92342 0.27166 0.69283 0.0
H133 H 0.86492 0.27146 0.67969 0.0
O134 O 0.93383 0.30784 0.01613 0.0
C135 C 0.87048 0.28258 0.89391 0.0
Co136 Co 0.08606 0.03976 0.59695 0.0
Co137 Co 0.0636 0.03937 0.74833 0.0
C138 C 0.08336 0.06826 0.67267 0.0
O139 O 0.08978 0.06131 0.61947 0.0
O140 O 0.07288 0.06118 0.72515 0.0
C141 C 0.1099 0.04829 0.46557 0.0
O142 O 0.11554 0.06174 0.49531 0.0
C143 C 0.07228 0.04403 0.89825 0.0
C144 C 0.0371 0.03073 0.94279 0.0
C145 C 0.06075 0.03927 0.96086 0.0
N146 N 0.05645 0.03828 0.84568 0.0
N147 N 0.03533 0.03048 0.87263 0.0
C148 C 0.09765 0.05421 0.88818 0.0
H149 H 0.09774 0.06053 0.8392 0.0
H150 H 0.11273 0.04741 0.88414 0.0
H151 H 0.10227 0.06223 0.93306 0.0
C152 C 0.1213 0.0231 0.66602 0.0
N153 N 0.10146 0.03021 0.66685 0.0
N154 N 0.09067 0.02886 0.72868 0.0
C155 C 0.10255 0.0201 0.76809 0.0
C156 C 0.12271 0.01643 0.73036 0.0
C157 C 0.13903 0.02335 0.60556 0.0
H158 H 0.14005 0.03389 0.57615 0.0
H159 H 0.15842 0.02249 0.62342 0.0
H160 H 0.13165 0.01367 0.5699 0.0
O161 O 0.04956 0.03018 0.58917 0.0
O162 O 0.03267 0.03007 0.69508 0.0
H163 H 0.09762 0.0023 0.84308 0.0
H164 H 0.10159 0.02095 0.88003 0.0
C165 C 0.09274 0.01356 0.83635 0.0
H166 H 0.07176 0.01239 0.83886 0.0
H167 H 0.01998 0.02467 0.8431 0.0
O168 O 0.09952 0.03715 0.50187 0.0
C169 C 0.03059 0.02704 0.62993 0.0
Co170 Co 0.14521 0.21061 0.73862 0.0
Co171 Co 0.12715 0.20997 0.58295 0.0
C172 C 0.12243 0.18171 0.66438 0.0
O173 O 0.13205 0.18904 0.71845 0.0
O174 O 0.11935 0.18836 0.60795 0.0
C175 C 0.16517 0.20147 0.86648 0.0
O176 O 0.16467 0.1887 0.83229 0.0
C177 C 0.13046 0.20324 0.43418 0.0
C178 C 0.11095 0.22002 0.38689 0.0
C179 C 0.12427 0.20874 0.37069 0.0
N180 N 0.12165 0.21113 0.48543 0.0
N181 N 0.1097 0.221 0.45693 0.0
C182 C 0.1435 0.19032 0.44697 0.0
H183 H 0.12945 0.18088 0.46875 0.0
H184 H 0.15874 0.19362 0.48683 0.0
H185 H 0.15142 0.18624 0.3985 0.0
C186 C 0.19423 0.22493 0.67596 0.0
N187 N 0.16933 0.21861 0.6711 0.0
N188 N 0.16161 0.21909 0.60599 0.0
C189 C 0.18132 0.22623 0.56775 0.0
C190 C 0.2026 0.22999 0.6107 0.0
C191 C 0.20928 0.22648 0.74245 0.0
H192 H 0.20012 0.23285 0.78159 0.0
H193 H 0.20905 0.21511 0.76353 0.0
H194 H 0.22927 0.23236 0.73451 0.0
O195 O 0.11717 0.22204 0.74038 0.0
O196 O 0.10331 0.22086 0.63075 0.0
H197 H 0.16203 0.23318 0.4795 0.0
H198 H 0.19627 0.23813 0.47477 0.0
C199 C 0.18 0.22939 0.49148 0.0
H200 H 0.18057 0.21896 0.46086 0.0
H201 H 0.10133 0.22869 0.48529 0.0
O202 O 0.15948 0.21256 0.83449 0.0
C203 C 0.10198 0.22511 0.69409 0.0
Co204 Co 0.81986 0.94596 0.43897 0.0
Co205 Co 0.84132 0.95542 0.29153 0.0
C206 C 0.84063 0.92441 0.35173 0.0
O207 O 0.82823 0.92685 0.40587 0.0
O208 O 0.84715 0.93456 0.30647 0.0
C209 C 0.80954 0.93377 0.57392 0.0
O210 O 0.82087 0.92322 0.54867 0.0
C211 C 0.83493 0.95143 0.14144 0.0
C212 C 0.86194 0.97092 0.1003 0.0
C213 C 0.84361 0.9585 0.07999 0.0
N214 N 0.84717 0.95945 0.19532 0.0
N215 N 0.8634 0.97104 0.17051 0.0
C216 C 0.81596 0.93701 0.14944 0.0
H217 H 0.8187 0.93175 0.19985 0.0
H218 H 0.79641 0.93939 0.14894 0.0
H219 H 0.81762 0.92901 0.10584 0.0
C220 C 0.77441 0.95566 0.38065 0.0
N221 N 0.79824 0.95302 0.37521 0.0
N222 N 0.80768 0.95763 0.3143 0.0
C223 C 0.79045 0.96385 0.2799 0.0
C224 C 0.76861 0.96256 0.32017 0.0
C225 C 0.75775 0.95164 0.44277 0.0
H226 H 0.76092 0.94087 0.46449 0.0
H227 H 0.73734 0.95062 0.42888 0.0
H228 H 0.76292 0.96058 0.48367 0.0
O229 O 0.85215 0.96088 0.45244 0.0
O230 O 0.86616 0.96949 0.34899 0.0
H231 H 0.78452 0.98176 0.21243 0.0
H232 H 0.79132 0.9653 0.16846 0.0
C233 C 0.79606 0.97283 0.21488 0.0
H234 H 0.81648 0.97824 0.2132 0.0
H235 H 0.87525 0.97912 0.20149 0.0
O236 O 0.80518 0.94399 0.53368 0.0
C237 C 0.86818 0.96956 0.4152 0.0
Co238 Co 0.91834 0.80316 0.43281 0.0
Co239 Co 0.8974 0.79473 0.28204 0.0
C240 C 0.90142 0.82599 0.34653 0.0
O241 O 0.91211 0.82284 0.40219 0.0
O242 O 0.89474 0.8161 0.29847 0.0
C243 C 0.93047 0.81553 0.56947 0.0
O244 O 0.92091 0.82681 0.54605 0.0
C245 C 0.90443 0.79825 0.13258 0.0
C246 C 0.8764 0.77916 0.08826 0.0
C247 C 0.89539 0.7912 0.07006 0.0
N248 N 0.89174 0.79056 0.18515 0.0
N249 N 0.87491 0.7792 0.15843 0.0
C250 C 0.92425 0.81234 0.14262 0.0
H251 H 0.9221 0.81781 0.19374 0.0
H252 H 0.94347 0.80948 0.14157 0.0
H253 H 0.92304 0.82036 0.10019 0.0
C254 C 0.96131 0.79039 0.37868 0.0
N255 N 0.93906 0.79496 0.36983 0.0
N256 N 0.92976 0.79066 0.30748 0.0
C257 C 0.94553 0.78279 0.27527 0.0
C258 C 0.96609 0.7825 0.3191 0.0
C259 C 0.97603 0.79212 0.44577 0.0
H260 H 0.96487 0.78493 0.48565 0.0
H261 H 0.97878 0.80399 0.46478 0.0
H262 H 0.9948 0.7888 0.43958 0.0
O263 O 0.8853 0.78898 0.44282 0.0
O264 O 0.87017 0.78221 0.33644 0.0
H265 H 0.91994 0.76923 0.20232 0.0
H266 H 0.95246 0.76652 0.1964 0.0
C267 C 0.94024 0.77492 0.20576 0.0
H268 H 0.94411 0.78332 0.16392 0.0
H269 H 0.86258 0.77142 0.18808 0.0
O270 O 0.93292 0.80484 0.52776 0.0
C271 C 0.86828 0.78146 0.4026 0.0
Co272 Co 0.58728 0.5422 0.56888 0.0
Co273 Co 0.56561 0.53934 0.72022 0.0
C274 C 0.58477 0.56946 0.65184 0.0
O275 O 0.592 0.56341 0.59711 0.0
O276 O 0.57376 0.5615 0.7013 0.0
C277 C 0.60966 0.55163 0.43683 0.0
O278 O 0.61349 0.56518 0.46561 0.0
C279 C 0.57463 0.54318 0.86992 0.0
C280 C 0.53999 0.52918 0.914 0.0
C281 C 0.5633 0.53808 0.93228 0.0
N282 N 0.55897 0.5373 0.81725 0.0
N283 N 0.53821 0.52903 0.84387 0.0
C284 C 0.59951 0.55386 0.86021 0.0
H285 H 0.5997 0.55976 0.81008 0.0
H286 H 0.61525 0.54752 0.85909 0.0
H287 H 0.60309 0.56224 0.90399 0.0
C288 C 0.62309 0.52468 0.62951 0.0
N289 N 0.60304 0.53159 0.63416 0.0
N290 N 0.59297 0.52955 0.69663 0.0
C291 C 0.6055 0.52058 0.73264 0.0
C292 C 0.62534 0.51742 0.69191 0.0
C293 C 0.64037 0.52578 0.56773 0.0
H294 H 0.6415 0.53683 0.54252 0.0
H295 H 0.6598 0.52447 0.58315 0.0
H296 H 0.63249 0.51676 0.52916 0.0
O297 O 0.55026 0.53351 0.56015 0.0
O298 O 0.53497 0.52972 0.66748 0.0
H299 H 0.57579 0.51195 0.80512 0.0
H300 H 0.60246 0.50246 0.80573 0.0
C301 C 0.59679 0.51356 0.80085 0.0
H302 H 0.60569 0.52093 0.84455 0.0
H303 H 0.52302 0.5231 0.81413 0.0
O304 O 0.60047 0.54032 0.47351 0.0
C305 C 0.53199 0.5288 0.60157 0.0
Co306 Co 0.64548 0.71156 0.74134 0.0
Co307 Co 0.62807 0.71136 0.58541 0.0
C308 C 0.62206 0.68291 0.66622 0.0
O309 O 0.63207 0.69003 0.72041 0.0
O310 O 0.6191 0.68976 0.61028 0.0
C311 C 0.66508 0.70213 0.86903 0.0
O312 O 0.6643 0.68935 0.83469 0.0
C313 C 0.63127 0.70454 0.43682 0.0
C314 C 0.61262 0.72169 0.38927 0.0
C315 C 0.62536 0.71013 0.37327 0.0
N316 N 0.62282 0.71263 0.48794 0.0
N317 N 0.6114 0.72273 0.45929 0.0
C318 C 0.6436 0.69134 0.44982 0.0
H319 H 0.62899 0.68197 0.46982 0.0
H320 H 0.65842 0.69429 0.49106 0.0
H321 H 0.65189 0.68733 0.40176 0.0
C322 C 0.69502 0.72554 0.67975 0.0
N323 N 0.66999 0.71953 0.67442 0.0
N324 N 0.66271 0.71972 0.60874 0.0
C325 C 0.68295 0.7261 0.57043 0.0
C326 C 0.70398 0.72978 0.61396 0.0
C327 C 0.70994 0.72693 0.7464 0.0
H328 H 0.70874 0.71557 0.76851 0.0
H329 H 0.73023 0.73222 0.73816 0.0
H330 H 0.70136 0.73378 0.78478 0.0
O331 O 0.61739 0.72295 0.74333 0.0
O332 O 0.6051 0.72292 0.63278 0.0
H333 H 0.69882 0.73822 0.47941 0.0
H334 H 0.68298 0.71909 0.46325 0.0
C335 C 0.68224 0.72944 0.49428 0.0
H336 H 0.66449 0.73339 0.48137 0.0
H337 H 0.60339 0.73059 0.48755 0.0
O338 O 0.65961 0.7133 0.83726 0.0
C339 C 0.60304 0.7267 0.69651 0.0
Co340 Co 0.32394 0.44772 0.42241 0.0
Co341 Co 0.34188 0.45328 0.26834 0.0
C342 C 0.34229 0.42395 0.33713 0.0
O343 O 0.33306 0.42827 0.39339 0.0
O344 O 0.34654 0.43254 0.28496 0.0
C345 C 0.30685 0.43394 0.55241 0.0
O346 O 0.31073 0.42147 0.522 0.0
C347 C 0.33849 0.4477 0.11859 0.0
C348 C 0.35766 0.46957 0.0765 0.0
C349 C 0.34442 0.45536 0.05702 0.0
N350 N 0.34727 0.45709 0.17207 0.0
N351 N 0.35902 0.47008 0.14672 0.0
C352 C 0.32527 0.43166 0.1275 0.0
H353 H 0.33859 0.4254 0.15276 0.0
H354 H 0.30874 0.43124 0.16283 0.0
H355 H 0.31898 0.42591 0.07709 0.0
C356 C 0.27872 0.45801 0.36836 0.0
N357 N 0.30132 0.45386 0.35899 0.0
N358 N 0.30866 0.45622 0.29398 0.0
C359 C 0.29072 0.46185 0.25951 0.0
C360 C 0.27122 0.46325 0.30554 0.0
C361 C 0.26633 0.45852 0.43812 0.0
H362 H 0.28038 0.46478 0.47609 0.0
H363 H 0.26034 0.44686 0.45714 0.0
H364 H 0.24958 0.46403 0.43604 0.0
O365 O 0.35515 0.46344 0.43054 0.0
O366 O 0.3687 0.4672 0.3215 0.0
H367 H 0.30937 0.47475 0.17529 0.0
H368 H 0.27508 0.46982 0.16563 0.0
C369 C 0.29226 0.46588 0.18394 0.0
H370 H 0.29399 0.45581 0.15213 0.0
H371 H 0.36735 0.4794 0.17738 0.0
O372 O 0.30983 0.44597 0.51759 0.0
C373 C 0.37116 0.47005 0.38675 0.0
Co374 Co 0.41971 0.30304 0.43782 0.0
Co375 Co 0.39842 0.2935 0.28861 0.0
C376 C 0.40173 0.32507 0.35037 0.0
O377 O 0.41346 0.32254 0.4053 0.0
O378 O 0.3947 0.31478 0.30424 0.0
C379 C 0.42819 0.31474 0.57533 0.0
O380 O 0.41533 0.32463 0.55219 0.0
C381 C 0.4047 0.29675 0.13872 0.0
C382 C 0.37756 0.27707 0.09595 0.0
C383 C 0.39583 0.28939 0.07669 0.0
N384 N 0.39262 0.28898 0.19197 0.0
N385 N 0.37633 0.27726 0.16616 0.0
C386 C 0.42381 0.31117 0.14777 0.0
H387 H 0.42148 0.31668 0.19867 0.0
H388 H 0.44332 0.30872 0.14659 0.0
H389 H 0.42198 0.31901 0.10502 0.0
C390 C 0.4629 0.29022 0.38486 0.0
N391 N 0.44048 0.29458 0.37579 0.0
N392 N 0.43114 0.28999 0.31381 0.0
C393 C 0.44707 0.28218 0.28203 0.0
C394 C 0.46777 0.28218 0.32579 0.0
C395 C 0.47777 0.29233 0.45169 0.0
H396 H 0.46685 0.28523 0.49225 0.0
H397 H 0.48028 0.30425 0.46974 0.0
H398 H 0.49666 0.28915 0.4456 0.0
O399 O 0.38653 0.28905 0.44901 0.0
O400 O 0.37193 0.28074 0.34412 0.0
H401 H 0.4218 0.26801 0.21049 0.0
H402 H 0.45471 0.2661 0.20309 0.0
C403 C 0.44187 0.27414 0.2129 0.0
H404 H 0.44489 0.28249 0.17076 0.0
H405 H 0.36454 0.26935 0.19648 0.0
O406 O 0.43417 0.30508 0.53285 0.0
C407 C 0.36978 0.28083 0.41031 0.0
Co408 Co 0.59223 0.04055 0.05246 0.0
Co409 Co 0.57209 0.04003 0.20575 0.0
C410 C 0.59174 0.06902 0.13195 0.0
O411 O 0.59717 0.06221 0.07703 0.0
O412 O 0.58186 0.06178 0.18465 0.0
C413 C 0.61731 0.04894 0.92187 0.0
O414 O 0.62514 0.06213 0.9527 0.0
C415 C 0.58057 0.04564 0.35431 0.0
C416 C 0.54711 0.03105 0.40124 0.0
C417 C 0.56975 0.04084 0.41761 0.0
N418 N 0.56526 0.03878 0.30288 0.0
N419 N 0.54513 0.0302 0.33111 0.0
C420 C 0.60444 0.05701 0.34185 0.0
H421 H 0.61412 0.05386 0.29423 0.0
H422 H 0.61762 0.0583 0.38717 0.0
H423 H 0.5992 0.06809 0.3326 0.0
C424 C 0.62647 0.0223 0.11374 0.0
N425 N 0.60769 0.03018 0.11902 0.0
N426 N 0.59874 0.02937 0.1831 0.0
C427 C 0.61134 0.0206 0.22044 0.0
C428 C 0.62942 0.01594 0.1778 0.0
C429 C 0.64037 0.02042 0.04747 0.0
H430 H 0.62638 0.01577 0.00597 0.0
H431 H 0.65061 0.03163 0.03042 0.0
H432 H 0.65408 0.0128 0.05374 0.0
O433 O 0.55561 0.03153 0.04598 0.0
O434 O 0.54047 0.03117 0.15391 0.0
H435 H 0.58603 0.01456 0.30653 0.0
H436 H 0.61523 0.00755 0.31259 0.0
C437 C 0.60676 0.01715 0.29606 0.0
H438 H 0.61567 0.02711 0.32812 0.0
H439 H 0.53036 0.02351 0.30254 0.0
O440 O 0.60496 0.03815 0.95695 0.0
C441 C 0.53726 0.02843 0.08874 0.0
Co442 Co 0.64869 0.21069 0.23082 0.0
Co443 Co 0.6304 0.21188 0.07637 0.0
C444 C 0.6277 0.18259 0.15014 0.0
O445 O 0.63748 0.18922 0.20566 0.0
O446 O 0.62356 0.18999 0.09689 0.0
C447 C 0.66697 0.20115 0.36048 0.0
O448 O 0.66433 0.18795 0.32866 0.0
C449 C 0.63399 0.20611 0.92729 0.0
C450 C 0.61445 0.22309 0.88174 0.0
C451 C 0.62791 0.21193 0.86445 0.0
N452 N 0.62501 0.21372 0.97929 0.0
N453 N 0.61306 0.22372 0.95185 0.0
C454 C 0.64708 0.19316 0.9388 0.0
H455 H 0.66281 0.19649 0.97724 0.0
H456 H 0.65441 0.189 0.88966 0.0
H457 H 0.63328 0.18377 0.96172 0.0
C458 C 0.69739 0.2262 0.16993 0.0
N459 N 0.67244 0.21998 0.16486 0.0
N460 N 0.66457 0.22116 0.10039 0.0
C461 C 0.68416 0.22871 0.06302 0.0
C462 C 0.70554 0.23197 0.10565 0.0
C463 C 0.71285 0.22663 0.23529 0.0
H464 H 0.7048 0.2331 0.27637 0.0
H465 H 0.7115 0.21498 0.25418 0.0
H466 H 0.73312 0.23189 0.22674 0.0
O467 O 0.61918 0.22101 0.23615 0.0
O468 O 0.6063 0.2221 0.12668 0.0
H469 H 0.6646 0.23629 0.97689 0.0
H470 H 0.69881 0.24165 0.97276 0.0
C471 C 0.68273 0.23258 0.98764 0.0
H472 H 0.68365 0.22251 0.95476 0.0
H473 H 0.60456 0.23123 0.98101 0.0
O474 O 0.66305 0.21242 0.3265 0.0
C475 C 0.60421 0.22494 0.19145 0.0
Co476 Co 0.3222 0.9475 0.94953 0.0
Co477 Co 0.3358 0.95575 0.79675 0.0
C478 C 0.33637 0.92486 0.85382 0.0
O479 O 0.32724 0.92787 0.91246 0.0
O480 O 0.3411 0.93474 0.80676 0.0
C481 C 0.29785 0.93595 0.08177 0.0
O482 O 0.28192 0.9252 0.04868 0.0
C483 C 0.32748 0.95034 0.64908 0.0
C484 C 0.34311 0.97254 0.60415 0.0
C485 C 0.33042 0.95804 0.58707 0.0
N486 N 0.33772 0.95987 0.70057 0.0
N487 N 0.34738 0.97307 0.67351 0.0
C488 C 0.31238 0.93484 0.66119 0.0
H489 H 0.30393 0.93421 0.71416 0.0
H490 H 0.29698 0.9317 0.62163 0.0
H491 H 0.32525 0.92662 0.65751 0.0
C492 C 0.27608 0.95976 0.91338 0.0
N493 N 0.29813 0.95544 0.89717 0.0
N494 N 0.3037 0.95858 0.83158 0.0
C495 C 0.28521 0.96484 0.80363 0.0
C496 C 0.26721 0.96591 0.85459 0.0
C497 C 0.2651 0.95926 0.98525 0.0
H498 H 0.2805 0.96319 0.02402 0.0
H499 H 0.25629 0.94744 0.9971 0.0
H500 H 0.25044 0.96635 0.99012 0.0
O501 O 0.35536 0.96162 0.95235 0.0
O502 O 0.36392 0.96968 0.84485 0.0
H503 H 0.30128 0.97872 0.71936 0.0
H504 H 0.2669 0.9735 0.71597 0.0
C505 C 0.28465 0.96959 0.72924 0.0
H506 H 0.28578 0.95988 0.69429 0.0
H507 H 0.35605 0.98255 0.70268 0.0
O508 O 0.31352 0.9455 0.04804 0.0
C509 C 0.3695 0.96992 0.90947 0.0
Co510 Co 0.418 0.80551 0.92636 0.0
Co511 Co 0.39633 0.79566 0.77766 0.0
C512 C 0.39908 0.82723 0.83898 0.0
O513 O 0.41106 0.82481 0.89366 0.0
O514 O 0.39209 0.81688 0.79303 0.0
C515 C 0.42518 0.81686 0.06406 0.0
O516 O 0.41105 0.8261 0.04098 0.0
C517 C 0.40214 0.79876 0.62749 0.0
C518 C 0.37552 0.77876 0.58561 0.0
C519 C 0.39341 0.79121 0.56575 0.0
N520 N 0.39037 0.79098 0.68112 0.0
N521 N 0.37437 0.77907 0.65584 0.0
C522 C 0.42087 0.81335 0.63591 0.0
H523 H 0.44052 0.81111 0.63513 0.0
H524 H 0.41882 0.82103 0.59269 0.0
H525 H 0.41833 0.81894 0.68645 0.0
C526 C 0.46147 0.79315 0.87256 0.0
N527 N 0.43883 0.79726 0.86391 0.0
N528 N 0.42938 0.79253 0.80221 0.0
C529 C 0.44549 0.78488 0.77021 0.0
C530 C 0.4664 0.78514 0.8135 0.0
C531 C 0.47647 0.79541 0.93917 0.0
H532 H 0.46585 0.7882 0.97981 0.0
H533 H 0.47861 0.80732 0.95734 0.0
H534 H 0.49554 0.79249 0.93273 0.0
O535 O 0.38525 0.79124 0.93837 0.0
O536 O 0.37026 0.78273 0.83412 0.0
H537 H 0.42026 0.77035 0.6998 0.0
H538 H 0.4533 0.76875 0.6917 0.0
C539 C 0.44023 0.77666 0.70149 0.0
H540 H 0.44286 0.78493 0.65896 0.0
H541 H 0.36287 0.7711 0.68653 0.0
O542 O 0.43257 0.80774 0.02131 0.0
C543 C 0.36848 0.78286 0.90042 0.0
C544 C 0.25342 0.48496 0.26361 0.0
C545 C 0.24936 0.47062 0.29274 0.0
C546 C 0.23294 0.49191 0.24808 0.0
C547 C 0.20784 0.48447 0.26375 0.0
C548 C 0.20368 0.47016 0.29518 0.0
C549 C 0.22455 0.46333 0.30888 0.0
C550 C 0.23816 0.50712 0.21407 0.0
C551 C 0.17722 0.46203 0.31383 0.0
C552 C 0.1593 0.50984 0.27427 0.0
C553 C 0.14761 0.50738 0.20842 0.0
C554 C 0.17824 0.502 0.29412 0.0
C555 C 0.18603 0.49169 0.24632 0.0
C556 C 0.17399 0.48898 0.18015 0.0
C557 C 0.15471 0.49676 0.16228 0.0
C558 C 0.19038 0.50504 0.36551 0.0
C559 C 0.18196 0.47819 0.1275 0.0
H560 H 0.27271 0.49069 0.25242 0.0
H561 H 0.2215 0.45224 0.33155 0.0
H562 H 0.22784 0.50644 0.16345 0.0
H563 H 0.23101 0.51551 0.24757 0.0
H564 H 0.25878 0.51128 0.20455 0.0
H565 H 0.17735 0.45127 0.34067 0.0
H566 H 0.16793 0.46933 0.3483 0.0
H567 H 0.16536 0.45956 0.2659 0.0
H568 H 0.15406 0.51817 0.30977 0.0
H569 H 0.14533 0.49462 0.11191 0.0
H570 H 0.21061 0.5107 0.36013 0.0
H571 H 0.19013 0.49429 0.39264 0.0
H572 H 0.18056 0.51232 0.3987 0.0
H573 H 0.20221 0.48221 0.11323 0.0
H574 H 0.17019 0.47703 0.07914 0.0
H575 H 0.18047 0.4669 0.1505 0.0
C576 C 0.07851 0.73571 0.28496 0.0
C577 C 0.08247 0.73296 0.21385 0.0
C578 C 0.05998 0.74384 0.30648 0.0
C579 C 0.04515 0.7494 0.25569 0.0
C580 C 0.04907 0.74671 0.18391 0.0
C581 C 0.06764 0.7385 0.16386 0.0
C582 C 0.05621 0.74644 0.38352 0.0
C583 C 0.03364 0.7525 0.12822 0.0
C584 C 0.98084 0.75829 0.30272 0.0
C585 C 0.98663 0.77402 0.30812 0.0
C586 C -0.00012 0.75008 0.28741 0.0
C587 C 0.02522 0.75786 0.27734 0.0
C588 C 0.03123 0.77378 0.2849 0.0
C589 C 0.01178 0.78169 0.30047 0.0
C590 C 0.99275 0.73312 0.28023 0.0
C591 C 0.05802 0.78246 0.2745 0.0
H592 H 0.08985 0.73148 0.32401 0.0
H593 H 0.07059 0.73649 0.10881 0.0
H594 H 0.05921 0.7587 0.39554 0.0
H595 H 0.03635 0.74146 0.39821 0.0
H596 H 0.06943 0.74144 0.41637 0.0
H597 H 0.03925 0.74959 0.07466 0.0
H598 H 0.01309 0.74771 0.13511 0.0
H599 H 0.03605 0.76494 0.13323 0.0
H600 H 0.9613 0.75244 0.30937 0.0
H601 H 0.01606 0.79389 0.30491 0.0
H602 H 0.00495 0.7278 0.31483 0.0
H603 H 0.9961 0.72958 0.22584 0.0
H604 H 0.97247 0.72876 0.29333 0.0
H605 H 0.07149 0.77806 0.3088 0.0
H606 H 0.05975 0.79471 0.2857 0.0
H607 H 0.06396 0.78092 0.2198 0.0
C608 C 0.34349 0.77451 0.00763 0.0
C609 C 0.34596 0.77377 0.93469 0.0
C610 C 0.32142 0.76704 0.04084 0.0
C611 C 0.30134 0.75858 0.00022 0.0
C612 C 0.30403 0.75732 0.92693 0.0
C613 C 0.32632 0.76495 0.89498 0.0
C614 C 0.31924 0.76865 0.11911 0.0
C615 C 0.28302 0.7483 0.882 0.0
C616 C 0.24891 0.73042 0.08556 0.0
C617 C 0.22923 0.73855 0.08816 0.0
C618 C 0.27279 0.7369 0.05833 0.0
C619 C 0.27687 0.75183 0.03369 0.0
C620 C 0.25721 0.76024 0.03888 0.0
C621 C 0.23355 0.75346 0.06606 0.0
C622 C 0.29331 0.72761 0.05367 0.0
C623 C 0.26091 0.77624 0.01375 0.0
H624 H 0.35858 0.78124 0.03895 0.0
H625 H 0.32808 0.76425 0.83872 0.0
H626 H 0.30389 0.77491 0.13172 0.0
H627 H 0.31394 0.7574 0.14292 0.0
H628 H 0.33725 0.77475 0.14364 0.0
H629 H 0.28872 0.74766 0.82647 0.0
H630 H 0.27744 0.73668 0.90175 0.0
H631 H 0.26592 0.75351 0.88467 0.0
H632 H 0.24531 0.71883 0.10257 0.0
H633 H 0.21815 0.75966 0.06847 0.0
H634 H 0.31113 0.73378 0.07869 0.0
H635 H 0.29767 0.72565 0.99806 0.0
H636 H 0.28759 0.71652 0.07893 0.0
H637 H 0.27788 0.78328 0.03932 0.0
H638 H 0.2441 0.78143 0.02453 0.0
H639 H 0.26439 0.77643 0.95668 0.0
C640 C 0.90345 0.47439 0.98844 0.0
C641 C 0.89268 0.47928 0.92849 0.0
C642 C 0.92622 0.48258 0.01698 0.0
C643 C 0.93804 0.49624 0.98603 0.0
C644 C 0.92673 0.50153 0.92699 0.0
C645 C 0.90436 0.49284 0.8981 0.0
C646 C 0.93808 0.47634 0.07871 0.0
C647 C 0.9384 0.51628 0.89393 0.0
C648 C 0.98778 0.52208 0.09706 0.0
C649 C 0.0104 0.51932 0.06766 0.0
C650 C 0.964 0.51499 0.06966 0.0
C651 C 0.96296 0.50453 0.01329 0.0
C652 C 0.98581 0.50159 0.98405 0.0
C653 C 0.00927 0.50922 0.01088 0.0
C654 C 0.94003 0.51873 0.10073 0.0
C655 C 0.9855 0.49016 0.92538 0.0
H656 H 0.89453 0.46384 0.01166 0.0
H657 H 0.89589 0.49668 0.85208 0.0
H658 H 0.95714 0.4742 0.06421 0.0
H659 H 0.94089 0.48465 0.12267 0.0
H660 H 0.92625 0.46565 0.09714 0.0
H661 H 0.92608 0.51942 0.85221 0.0
H662 H 0.94189 0.52545 0.93414 0.0
H663 H 0.9571 0.51549 0.87092 0.0
H664 H 0.9887 0.53 0.14061 0.0
H665 H 0.0268 0.50701 0.98851 0.0
H666 H 0.92842 0.50854 0.12416 0.0
H667 H 0.92827 0.52242 0.05918 0.0
H668 H 0.94418 0.52775 0.14165 0.0
H669 H 0.97488 0.47898 0.94174 0.0
H670 H 0.00498 0.489 0.90946 0.0
H671 H 0.97546 0.49345 0.87921 0.0
C672 C 0.7229 0.46551 0.81381 0.0
C673 C 0.7477 0.47308 0.79947 0.0
C674 C 0.70188 0.47216 0.79938 0.0
C675 C 0.70591 0.48658 0.76902 0.0
C676 C 0.731 0.49432 0.75532 0.0
C677 C 0.75161 0.48753 0.77156 0.0
C678 C 0.67541 0.46373 0.81598 0.0
C679 C 0.73609 0.50966 0.72249 0.0
C680 C 0.65295 0.49865 0.66581 0.0
C681 C 0.6451 0.50892 0.71243 0.0
C682 C 0.67246 0.49108 0.68398 0.0
C683 C 0.68398 0.49364 0.75089 0.0
C684 C 0.67553 0.50364 0.79896 0.0
C685 C 0.65639 0.51129 0.77881 0.0
C686 C 0.6812 0.48063 0.63102 0.0
C687 C 0.68712 0.50653 0.87107 0.0
H688 H 0.71994 0.45431 0.83534 0.0
H689 H 0.77088 0.49347 0.76165 0.0
H690 H 0.66556 0.47079 0.85013 0.0
H691 H 0.66403 0.46128 0.7672 0.0
H692 H 0.67563 0.45292 0.84235 0.0
H693 H 0.75674 0.51405 0.71445 0.0
H694 H 0.7262 0.50905 0.67124 0.0
H695 H 0.72839 0.51782 0.75598 0.0
H696 H 0.64392 0.49659 0.61494 0.0
H697 H 0.65063 0.5194 0.81464 0.0
H698 H 0.67977 0.46925 0.65306 0.0
H699 H 0.70152 0.48487 0.61828 0.0
H700 H 0.66985 0.47959 0.58192 0.0
H701 H 0.68689 0.49571 0.89758 0.0
H702 H 0.67688 0.51361 0.90417 0.0
H703 H 0.70732 0.51234 0.86703 0.0
C704 C 0.08715 0.2442 0.77103 0.0
C705 C 0.08273 0.23406 0.71404 0.0
C706 C 0.06944 0.25317 0.78911 0.0
C707 C 0.04651 0.25164 0.75035 0.0
C708 C 0.04174 0.24121 0.69357 0.0
C709 C 0.06009 0.23268 0.67549 0.0
C710 C 0.07544 0.26444 0.84888 0.0
C711 C 0.01722 0.23902 0.65205 0.0
C712 C 0.99003 0.26468 0.83333 0.0
C713 C 0.99002 0.27804 0.79791 0.0
C714 C 0.00848 0.25599 0.81877 0.0
C715 C 0.02753 0.26104 0.76869 0.0
C716 C 0.02794 0.27482 0.7344 0.0
C717 C 0.00888 0.28307 0.74877 0.0
C718 C 0.00708 0.2412 0.85519 0.0
C719 C 0.04826 0.28071 0.68181 0.0
H720 H 0.10476 0.24539 0.80054 0.0
H721 H 0.05656 0.22478 0.63168 0.0
H722 H 0.07537 0.27595 0.83002 0.0
H723 H 0.06056 0.262 0.88955 0.0
H724 H 0.09426 0.26435 0.87324 0.0
H725 H 0.01604 0.23003 0.6112 0.0
H726 H 0.00067 0.23605 0.6874 0.0
H727 H 0.01555 0.24968 0.62647 0.0
H728 H 0.97511 0.26082 0.87073 0.0
H729 H 0.00857 0.29341 0.72138 0.0
H730 H 0.02527 0.24107 0.88272 0.0
H731 H 0.00418 0.23182 0.81603 0.0
H732 H 0.99132 0.23905 0.8936 0.0
H733 H 0.06745 0.28124 0.70495 0.0
H734 H 0.04688 0.29211 0.66352 0.0
H735 H 0.04656 0.27292 0.63589 0.0
C736 C 0.73682 0.2542 0.06684 0.0
C737 C 0.73145 0.23901 0.08447 0.0
C738 C 0.76045 0.26067 0.03846 0.0
C739 C 0.77893 0.25162 0.02717 0.0
C740 C 0.77376 0.23632 0.04689 0.0
C741 C 0.74998 0.23018 0.07563 0.0
C742 C 0.76535 0.27706 0.01876 0.0
C743 C 0.79298 0.22634 0.03548 0.0
C744 C 0.82747 0.26556 0.88729 0.0
C745 C 0.84801 0.2733 0.92749 0.0
C746 C 0.80513 0.25799 0.91923 0.0
C747 C 0.80336 0.25816 0.993 0.0
C748 C 0.82438 0.26542 0.03387 0.0
C749 C 0.84644 0.27289 0.00065 0.0
C750 C 0.78308 0.25028 0.87399 0.0
C751 C 0.82323 0.2658 0.11267 0.0
H752 H 0.72225 0.26091 0.07374 0.0
H753 H 0.7455 0.21837 0.08899 0.0
H754 H 0.78305 0.28322 0.04443 0.0
H755 H 0.76819 0.27802 0.96155 0.0
H756 H 0.74939 0.28267 0.03372 0.0
H757 H 0.78651 0.21493 0.05709 0.0
H758 H 0.79642 0.22514 0.97876 0.0
H759 H 0.81147 0.23154 0.06011 0.0
H760 H 0.82852 0.26577 0.83081 0.0
H761 H 0.86227 0.27873 0.0323 0.0
H762 H 0.76677 0.25609 0.88072 0.0
H763 H 0.77658 0.23845 0.8902 0.0
H764 H 0.7881 0.25029 0.81775 0.0
H765 H 0.80878 0.27235 0.12986 0.0
H766 H 0.84184 0.271 0.13688 0.0
H767 H 0.81726 0.25423 0.13266 0.0
C768 C 0.22063 0.9658 0.86536 0.0
C769 C 0.24516 0.9734 0.84844 0.0
C770 C 0.19935 0.97234 0.85253 0.0
C771 C 0.20287 0.98667 0.82132 0.0
C772 C 0.22777 0.99459 0.8068 0.0
C773 C 0.24864 0.98792 0.82147 0.0
C774 C 0.17311 0.96374 0.87029 0.0
C775 C 0.23235 0.00984 0.77316 0.0
C776 C 0.15036 0.99737 0.7115 0.0
C777 C 0.142 0.00799 0.75511 0.0
C778 C 0.16976 0.99005 0.73313 0.0
C779 C 0.18061 0.99319 0.80059 0.0
C780 C 0.17147 0.00343 0.84593 0.0
C781 C 0.15249 0.01085 0.82228 0.0
C782 C 0.17922 0.97932 0.68295 0.0
C783 C 0.18228 0.0069 0.91859 0.0
H784 H 0.21804 0.95458 0.88657 0.0
H785 H 0.26774 0.99388 0.80975 0.0
H786 H 0.16263 0.97102 0.90126 0.0
H787 H 0.16206 0.96036 0.82158 0.0
H788 H 0.17383 0.95344 0.90028 0.0
H789 H 0.25296 0.01463 0.76678 0.0
H790 H 0.22308 0.00887 0.72096 0.0
H791 H 0.2237 0.01787 0.80496 0.0
H792 H 0.1419 0.9949 0.66013 0.0
H793 H 0.14633 0.0192 0.85586 0.0
H794 H 0.17802 0.96817 0.70717 0.0
H795 H 0.19957 0.98369 0.67082 0.0
H796 H 0.16821 0.97775 0.63324 0.0
H797 H 0.18268 0.99631 0.94648 0.0
H798 H 0.17112 0.01376 0.94992 0.0
H799 H 0.20222 0.0132 0.91539 0.0
C800 C 0.24815 0.22919 0.59002 0.0
C801 C 0.22845 0.23732 0.5901 0.0
C802 C 0.27224 0.23555 0.56378 0.0
C803 C 0.27654 0.25036 0.53765 0.0
C804 C 0.25681 0.25876 0.53999 0.0
C805 C 0.23292 0.25209 0.5662 0.0
C806 C 0.29282 0.22627 0.56206 0.0
C807 C 0.26073 0.27463 0.51321 0.0
C808 C 0.34349 0.27294 0.5159 0.0
C809 C 0.34683 0.27192 0.44337 0.0
C810 C 0.32099 0.26562 0.54763 0.0
C811 C 0.30138 0.25702 0.50592 0.0
C812 C 0.30495 0.25548 0.43311 0.0
C813 C 0.32763 0.26297 0.40265 0.0
C814 C 0.31786 0.26754 0.62544 0.0
C815 C 0.28448 0.24629 0.38707 0.0
H816 H 0.24443 0.21772 0.60851 0.0
H817 H 0.21753 0.2583 0.5668 0.0
H818 H 0.29795 0.22422 0.50713 0.0
H819 H 0.31028 0.2325 0.58859 0.0
H820 H 0.28677 0.21522 0.58751 0.0
H821 H 0.24376 0.27981 0.52144 0.0
H822 H 0.27734 0.28182 0.53976 0.0
H823 H 0.26496 0.27459 0.45654 0.0
H824 H 0.35822 0.27978 0.54797 0.0
H825 H 0.33007 0.26205 0.34668 0.0
H826 H 0.3123 0.25638 0.65002 0.0
H827 H 0.30234 0.27381 0.63568 0.0
H828 H 0.33556 0.27376 0.6511 0.0
H829 H 0.27865 0.23474 0.40756 0.0
H830 H 0.29085 0.24544 0.33223 0.0
H831 H 0.26736 0.2515 0.38737 0.0
C832 C 0.90242 0.99274 0.42032 0.0
C833 C 0.89034 0.97917 0.44984 0.0
C834 C 0.92416 0.00156 0.45187 0.0
C835 C 0.93444 0.99639 0.51289 0.0
C836 C 0.92211 0.98277 0.54323 0.0
C837 C 0.89998 0.97444 0.51187 0.0
C838 C 0.93639 0.01626 0.41927 0.0
C839 C 0.93287 0.97665 0.60709 0.0
C840 C 0.00534 0.0091 0.54456 0.0
C841 C 0.0059 0.01937 0.60045 0.0
C842 C 0.98218 0.0015 0.5159 0.0
C843 C 0.95904 0.00463 0.54234 0.0
C844 C 0.9595 0.01523 0.59789 0.0
C845 C 0.98298 0.02231 0.62719 0.0
C846 C 0.98248 0.98992 0.45817 0.0
C847 C 0.93523 0.01916 0.62596 0.0
H848 H 0.89483 0.99647 0.37269 0.0
H849 H 0.89076 0.96389 0.53453 0.0
H850 H 0.93953 0.02547 0.45931 0.0
H851 H 0.95531 0.01535 0.39803 0.0
H852 H 0.92462 0.01941 0.37626 0.0
H853 H 0.92052 0.96612 0.62541 0.0
H854 H 0.95199 0.97426 0.59506 0.0
H855 H 0.93533 0.98513 0.65036 0.0
H856 H 0.02309 0.00675 0.52423 0.0
H857 H 0.98346 0.03037 0.67003 0.0
H858 H 0.97324 0.9932 0.41057 0.0
H859 H 0.9714 0.97883 0.47412 0.0
H860 H 0.00211 0.98859 0.4447 0.0
H861 H 0.9242 0.02291 0.58286 0.0
H862 H 0.93895 0.02821 0.66683 0.0
H863 H 0.92309 0.00905 0.64853 0.0
C864 C 0.6745 0.01316 0.19056 0.0
C865 C 0.64856 0.00703 0.19756 0.0
C866 C 0.69304 0.00513 0.2115 0.0
C867 C 0.68534 0.99067 0.24043 0.0
C868 C 0.65909 0.98436 0.24685 0.0
C869 C 0.64097 0.9926 0.22477 0.0
C870 C 0.72085 0.01217 0.20317 0.0
C871 C 0.65018 0.96899 0.27754 0.0
C872 C 0.73456 0.96573 0.23634 0.0
C873 C 0.74542 0.96838 0.30309 0.0
C874 C 0.71447 0.97258 0.21582 0.0
C875 C 0.70488 0.98218 0.26361 0.0
C876 C 0.71504 0.98436 0.33221 0.0
C877 C 0.73534 0.97747 0.35107 0.0
C878 C 0.7042 0.97001 0.14218 0.0
C879 C 0.70515 0.99442 0.38476 0.0
H880 H 0.68025 0.02435 0.16949 0.0
H881 H 0.62082 0.98782 0.22909 0.0
H882 H 0.73044 0.01351 0.25495 0.0
H883 H 0.73045 0.00467 0.17074 0.0
H884 H 0.72361 0.02338 0.17848 0.0
H885 H 0.62907 0.96574 0.27912 0.0
H886 H 0.65767 0.96036 0.24646 0.0
H887 H 0.65776 0.96885 0.33142 0.0
H888 H 0.74224 0.95856 0.19954 0.0
H889 H 0.74394 0.97966 0.40242 0.0
H890 H 0.70821 0.98078 0.11373 0.0
H891 H 0.68322 0.96613 0.1428 0.0
H892 H 0.71278 0.96156 0.11279 0.0
H893 H 0.70964 0.00626 0.3672 0.0
H894 H 0.71362 0.99393 0.43745 0.0
H895 H 0.68412 0.99116 0.38874 0.0
C896 C 0.74435 0.72755 0.55559 0.0
C897 C 0.73006 0.73639 0.59279 0.0
C898 C 0.76798 0.73403 0.52711 0.0
C899 C 0.77703 0.74976 0.53481 0.0
C900 C 0.76276 0.75866 0.57376 0.0
C901 C 0.73942 0.75181 0.60281 0.0
C902 C 0.78286 0.72413 0.4871 0.0
C903 C 0.77161 0.7755 0.58218 0.0
C904 C 0.84634 0.76721 0.50267 0.0
C905 C 0.84536 0.7723 0.43419 0.0
C906 C 0.82437 0.75945 0.53543 0.0
C907 C 0.80079 0.75704 0.49935 0.0
C908 C 0.79975 0.76196 0.42983 0.0
C909 C 0.82214 0.76939 0.39776 0.0
C910 C 0.82632 0.75403 0.60895 0.0
C911 C 0.77485 0.7598 0.39011 0.0
H912 H 0.73675 0.71561 0.54763 0.0
H913 H 0.72797 0.75858 0.63093 0.0
H914 H 0.78363 0.72712 0.43115 0.0
H915 H 0.80278 0.72601 0.5067 0.0
H916 H 0.77425 0.71197 0.49118 0.0
H917 H 0.7587 0.7807 0.61592 0.0
H918 H 0.79105 0.77813 0.60513 0.0
H919 H 0.77261 0.7808 0.53022 0.0
H920 H 0.86432 0.76934 0.53083 0.0
H921 H 0.82128 0.77341 0.34503 0.0
H922 H 0.81811 0.7418 0.61143 0.0
H923 H 0.81513 0.75994 0.64482 0.0
H924 H 0.84633 0.756 0.62814 0.0
H925 H 0.76587 0.74767 0.38705 0.0
H926 H 0.77734 0.76417 0.33624 0.0
H927 H 0.76142 0.76571 0.41818 0.0
C928 C 0.4818 0.76109 0.79949 0.0
C929 C 0.48721 0.77684 0.80314 0.0
C930 C 0.50106 0.753 0.78518 0.0
C931 C 0.52627 0.76092 0.77432 0.0
C932 C 0.5319 0.77687 0.77988 0.0
C933 C 0.51222 0.78466 0.7945 0.0
C934 C 0.49434 0.736 0.78011 0.0
C935 C 0.55854 0.78568 0.76858 0.0
C936 C 0.57974 0.73901 0.78702 0.0
C937 C 0.58367 0.73565 0.71652 0.0
C938 C 0.56129 0.74736 0.80663 0.0
C939 C 0.54648 0.75251 0.75451 0.0
C940 C 0.55049 0.74929 0.68328 0.0
C941 C 0.56899 0.74088 0.66515 0.0
C942 C 0.55745 0.75053 0.88313 0.0
C943 C 0.53509 0.75464 0.62621 0.0
H944 H 0.46236 0.75513 0.80685 0.0
H945 H 0.5162 0.79688 0.79756 0.0
H946 H 0.49795 0.73217 0.72637 0.0
H947 H 0.50658 0.73102 0.81597 0.0
H948 H 0.47407 0.73156 0.79304 0.0
H949 H 0.55994 0.79798 0.77784 0.0
H950 H 0.57216 0.78168 0.80387 0.0
H951 H 0.56455 0.78382 0.71425 0.0
H952 H 0.59097 0.73503 0.82713 0.0
H953 H 0.57193 0.73841 0.61054 0.0
H954 H 0.5377 0.74542 0.89837 0.0
H955 H 0.55998 0.76285 0.89301 0.0
H956 H 0.57092 0.74601 0.91712 0.0
H957 H 0.51457 0.74972 0.63288 0.0
H958 H 0.54097 0.7515 0.57326 0.0
H959 H 0.53717 0.76708 0.62971 0.0
C960 C 0.49759 0.52754 0.51284 0.0
C961 C 0.50715 0.52157 0.57188 0.0
C962 C 0.47451 0.52036 0.48194 0.0
C963 C 0.46135 0.50658 0.50914 0.0
C964 C 0.47097 0.50054 0.56894 0.0
C965 C 0.49355 0.50829 0.60047 0.0
C966 C 0.46432 0.52744 0.41995 0.0
C967 C 0.45791 0.48563 0.59814 0.0
C968 C 0.39185 0.4906 0.4681 0.0
C969 C 0.39392 0.48047 0.41325 0.0
C970 C 0.41365 0.49973 0.4977 0.0
C971 C 0.43802 0.49816 0.47372 0.0
C972 C 0.44013 0.48802 0.4178 0.0
C973 C 0.41797 0.47948 0.38728 0.0
C974 C 0.41062 0.51084 0.55534 0.0
C975 C 0.46578 0.48567 0.39229 0.0
H976 H 0.50812 0.53789 0.49118 0.0
H977 H 0.50116 0.50365 0.6458 0.0
H978 H 0.4645 0.52016 0.3728 0.0
H979 H 0.44424 0.52843 0.42916 0.0
H980 H 0.47569 0.5388 0.40909 0.0
H981 H 0.46807 0.48242 0.64439 0.0
H982 H 0.43812 0.48613 0.61343 0.0
H983 H 0.45677 0.47663 0.55745 0.0
H984 H 0.37315 0.49136 0.48783 0.0
H985 H 0.41947 0.47149 0.34536 0.0
H986 H 0.42194 0.52216 0.54364 0.0
H987 H 0.41797 0.50729 0.60519 0.0
H988 H 0.3904 0.51179 0.56281 0.0
H989 H 0.47744 0.49649 0.37522 0.0
H990 H 0.4641 0.47739 0.34813 0.0
H991 H 0.47626 0.48158 0.43564 0.0
C992 C 0.51353 0.28158 0.30672 0.0
C993 C 0.48849 0.27381 0.31517 0.0
C994 C 0.53305 0.27376 0.29045 0.0
C995 C 0.52721 0.25784 0.28295 0.0
C996 C 0.502 0.24995 0.2941 0.0
C997 C 0.4829 0.25807 0.31011 0.0
C998 C 0.5597 0.28255 0.27898 0.0
C999 C 0.49505 0.23299 0.28701 0.0
C1000 C 0.56909 0.23876 0.16626 0.0
C1001 C 0.58438 0.23325 0.21513 0.0
C1002 C 0.55054 0.24686 0.18773 0.0
C1003 C 0.54712 0.24948 0.25983 0.0
C1004 C 0.56241 0.24394 0.3095 0.0
C1005 C 0.58089 0.23591 0.28657 0.0
C1006 C 0.5346 0.25262 0.13319 0.0
C1007 C 0.55919 0.24647 0.38684 0.0
H1008 H 0.51766 0.29378 0.31084 0.0
H1009 H 0.46344 0.25215 0.31731 0.0
H1010 H 0.57348 0.27814 0.31217 0.0
H1011 H 0.56525 0.28115 0.22384 0.0
H1012 H 0.56136 0.29477 0.29082 0.0
H1013 H 0.47493 0.22854 0.30143 0.0
H1014 H 0.49795 0.22948 0.23231 0.0
H1015 H 0.50765 0.22773 0.32059 0.0
H1016 H 0.57166 0.23681 0.11097 0.0
H1017 H 0.59259 0.2317 0.32478 0.0
H1018 H 0.53692 0.26505 0.13845 0.0
H1019 H 0.51414 0.24776 0.14119 0.0
H1020 H 0.53983 0.24976 0.07921 0.0
H1021 H 0.56215 0.25873 0.3991 0.0
H1022 H 0.57272 0.24151 0.41871 0.0
H1023 H 0.53948 0.24142 0.40257 0.0
C1024 C 0.40604 0.97468 0.99244 0.0
C1025 C 0.3933 0.97948 0.93571 0.0
C1026 C 0.42908 0.98325 0.01743 0.0
C1027 C 0.43922 0.99718 0.98625 0.0
C1028 C 0.42608 0.0023 0.93015 0.0
C1029 C 0.40343 0.99324 0.90468 0.0
C1030 C 0.44289 0.97718 0.07595 0.0
C1031 C 0.436 0.01729 0.89699 0.0
C1032 C 0.48966 0.02324 0.0942 0.0
C1033 C 0.51205 0.02094 0.06172 0.0
C1034 C 0.46568 0.01604 0.06843 0.0
C1035 C 0.46423 0.00596 0.01043 0.0
C1036 C 0.48683 0.0036 0.97763 0.0
C1037 C 0.51045 0.0113 0.00306 0.0
C1038 C 0.44194 0.01913 0.10349 0.0
C1039 C 0.48612 0.99259 0.91704 0.0
H1040 H 0.39832 0.96398 0.01615 0.0
H1041 H 0.39344 0.997 0.86121 0.0
H1042 H 0.46203 0.97581 0.05809 0.0
H1043 H 0.44575 0.98527 0.12082 0.0
H1044 H 0.43239 0.96613 0.09438 0.0
H1045 H 0.4226 0.02011 0.85731 0.0
H1046 H 0.43941 0.02638 0.93762 0.0
H1047 H 0.45453 0.01713 0.87146 0.0
H1048 H 0.4909 0.03081 0.13919 0.0
H1049 H 0.52778 0.00943 0.9782 0.0
H1050 H 0.43155 0.00874 0.12814 0.0
H1051 H 0.42894 0.02248 0.06417 0.0
H1052 H 0.4463 0.02817 0.14427 0.0
H1053 H 0.47687 0.98112 0.93343 0.0
H1054 H 0.50545 0.99214 0.89714 0.0
H1055 H 0.47459 0.99571 0.87359 0.0
C1056 C 0.06144 0.54286 0.55241 0.0
C1057 C 0.07745 0.54074 0.49702 0.0
C1058 C 0.07064 0.54455 0.62121 0.0
C1059 C 0.09643 0.54391 0.63489 0.0
C1060 C 0.11272 0.54178 0.57911 0.0
C1061 C 0.10299 0.54016 0.51072 0.0
C1062 C 0.05266 0.54681 0.67937 0.0
C1063 C 0.14023 0.54087 0.59182 0.0
C1064 C 0.11995 0.56039 0.81167 0.0
C1065 C 0.11494 0.54754 0.85317 0.0
C1066 C 0.11545 0.55928 0.7394 0.0
C1067 C 0.10587 0.545 0.70811 0.0
C1068 C 0.10274 0.53189 0.74883 0.0
C1069 C 0.10732 0.53332 0.82094 0.0
C1070 C 0.11923 0.57351 0.69751 0.0
C1071 C 0.09283 0.51643 0.71721 0.0
H1072 H 0.04165 0.54322 0.54184 0.0
H1073 H 0.1152 0.53795 0.46839 0.0
H1074 H 0.05079 0.53736 0.71627 0.0
H1075 H 0.06043 0.55734 0.70925 0.0
H1076 H 0.03339 0.54747 0.65965 0.0
H1077 H 0.15073 0.54003 0.5424 0.0
H1078 H 0.15003 0.55095 0.62193 0.0
H1079 H 0.14121 0.53087 0.62356 0.0
H1080 H 0.12601 0.57142 0.83603 0.0
H1081 H 0.10368 0.52331 0.85252 0.0
H1082 H 0.10038 0.57582 0.68213 0.0
H1083 H 0.12981 0.57215 0.64883 0.0
H1084 H 0.12973 0.58343 0.72751 0.0
H1085 H 0.07245 0.5154 0.70287 0.0
H1086 H 0.0945 0.50729 0.75385 0.0
H1087 H 0.1033 0.51474 0.66873 0.0
C1088 C 0.11681 0.70551 0.7398 0.0
C1089 C 0.13416 0.70706 0.79534 0.0
C1090 C 0.12476 0.70369 0.67107 0.0
C1091 C 0.1508 0.7037 0.65773 0.0
C1092 C 0.16838 0.7051 0.71387 0.0
C1093 C 0.15983 0.70682 0.7822 0.0
C1094 C 0.1054 0.70215 0.61257 0.0
C1095 C 0.19631 0.70535 0.70158 0.0
C1096 C 0.16274 0.68835 0.47824 0.0
C1097 C 0.1669 0.70155 0.43914 0.0
C1098 C 0.15895 0.68891 0.55062 0.0
C1099 C 0.15956 0.70302 0.58446 0.0
C1100 C 0.16584 0.71645 0.54615 0.0
C1101 C 0.16937 0.71555 0.47384 0.0
C1102 C 0.15243 0.67436 0.58983 0.0
C1103 C 0.16708 0.73173 0.5806 0.0
H1104 H 0.09702 0.70586 0.75017 0.0
H1105 H 0.17341 0.70854 0.82507 0.0
H1106 H 0.11019 0.71191 0.57753 0.0
H1107 H 0.10586 0.69184 0.58075 0.0
H1108 H 0.08571 0.70158 0.63216 0.0
H1109 H 0.20707 0.70527 0.75117 0.0
H1110 H 0.19877 0.6955 0.66885 0.0
H1111 H 0.20478 0.71562 0.67272 0.0
H1112 H 0.16091 0.67748 0.45186 0.0
H1113 H 0.17289 0.72581 0.44404 0.0
H1114 H 0.132 0.67228 0.60439 0.0
H1115 H 0.16369 0.6751 0.6389 0.0
H1116 H 0.15595 0.66456 0.55817 0.0
H1117 H 0.1476 0.73306 0.5955 0.0
H1118 H 0.17526 0.74107 0.54556 0.0
H1119 H 0.17871 0.73277 0.62907 0.0
C1120 C 0.8128 0.44816 0.47467 0.0
C1121 C 0.83721 0.45639 0.49071 0.0
C1122 C 0.80584 0.44378 0.40569 0.0
C1123 C 0.82356 0.44809 0.35162 0.0
C1124 C 0.84797 0.45682 0.36739 0.0
C1125 C 0.85448 0.4609 0.43696 0.0
C1126 C 0.77964 0.43452 0.39071 0.0
C1127 C 0.86726 0.46178 0.31085 0.0
C1128 C 0.82081 0.4272 0.17822 0.0
C1129 C 0.81179 0.43719 0.13404 0.0
C1130 C 0.82333 0.43016 0.25021 0.0
C1131 C 0.81682 0.44346 0.2783 0.0
C1132 C 0.80603 0.45304 0.23475 0.0
C1133 C 0.8035 0.44973 0.16304 0.0
C1134 C 0.83445 0.41954 0.29543 0.0
C1135 C 0.79883 0.46733 0.26293 0.0
H1136 H 0.79904 0.44525 0.51608 0.0
H1137 H 0.8732 0.46748 0.44951 0.0
H1138 H 0.76916 0.44061 0.3546 0.0
H1139 H 0.7813 0.42373 0.3644 0.0
H1140 H 0.76822 0.43199 0.43891 0.0
H1141 H 0.8852 0.46877 0.33182 0.0
H1142 H 0.87192 0.45176 0.28339 0.0
H1143 H 0.85915 0.46838 0.27151 0.0
H1144 H 0.82699 0.41739 0.15621 0.0
H1145 H 0.79639 0.45748 0.12926 0.0
H1146 H 0.82273 0.41677 0.34284 0.0
H1147 H 0.85386 0.42509 0.31296 0.0
H1148 H 0.83579 0.40889 0.26721 0.0
H1149 H 0.78722 0.46506 0.31081 0.0
H1150 H 0.78799 0.47258 0.22413 0.0
H1151 H 0.81637 0.47557 0.27742 0.0
C1152 C 0.92332 0.32582 0.18217 0.0
C1153 C 0.9298 0.31525 0.13456 0.0
C1154 C 0.92069 0.32264 0.25342 0.0
C1155 C 0.92432 0.30849 0.2772 0.0
C1156 C 0.9324 0.29817 0.23012 0.0
C1157 C 0.93525 0.30173 0.15935 0.0
C1158 C 0.91261 0.33406 0.30252 0.0
C1159 C 0.93632 0.28292 0.25344 0.0
C1160 C 0.92901 0.30223 0.4716 0.0
C1161 C 0.90374 0.29568 0.48756 0.0
C1162 C 0.93601 0.3066 0.40344 0.0
C1163 C 0.91743 0.30395 0.34973 0.0
C1164 C 0.89208 0.29687 0.36504 0.0
C1165 C 0.88554 0.29285 0.43387 0.0
C1166 C 0.96323 0.31409 0.38895 0.0
C1167 C 0.87182 0.29363 0.30877 0.0
H1168 H 0.91932 0.33635 0.16339 0.0
H1169 H 0.9403 0.2935 0.1229 0.0
H1170 H 0.89279 0.32981 0.31994 0.0
H1171 H 0.92493 0.33576 0.34979 0.0
H1172 H 0.91341 0.34512 0.27753 0.0
H1173 H 0.94527 0.27691 0.21227 0.0
H1174 H 0.94843 0.28408 0.30102 0.0
H1175 H 0.91764 0.27586 0.26689 0.0
H1176 H 0.94348 0.30376 0.51197 0.0
H1177 H 0.86605 0.28764 0.44587 0.0
H1178 H 0.96376 0.32525 0.36536 0.0
H1179 H 0.97176 0.30719 0.3507 0.0
H1180 H 0.97521 0.31569 0.43695 0.0
H1181 H 0.86923 0.30433 0.28503 0.0
H1182 H 0.85315 0.28775 0.32911 0.0
H1183 H 0.87785 0.28655 0.26656 0.0
C1184 C 0.10135 0.0326 0.35598 0.0
C1185 C 0.10998 0.04672 0.38843 0.0
C1186 C 0.09638 0.03135 0.28394 0.0
C1187 C 0.10008 0.04452 0.2435 0.0
C1188 C 0.11054 0.05866 0.275 0.0
C1189 C 0.11545 0.05958 0.34711 0.0
C1190 C 0.08556 0.01603 0.2521 0.0
C1191 C 0.11491 0.07295 0.23353 0.0
C1192 C 0.09677 0.04029 0.04567 0.0
C1193 C 0.07143 0.0414 0.03237 0.0
C1194 C 0.10654 0.04145 0.11407 0.0
C1195 C 0.09052 0.04371 0.17031 0.0
C1196 C 0.06494 0.0449 0.15702 0.0
C1197 C 0.05567 0.04362 0.08822 0.0
C1198 C 0.1338 0.03993 0.12626 0.0
C1199 C 0.04725 0.04736 0.21559 0.0
H1200 H 0.09729 0.02258 0.38734 0.0
H1201 H 0.12227 0.07053 0.37156 0.0
H1202 H 0.06523 0.01542 0.23828 0.0
H1203 H 0.09572 0.01419 0.20327 0.0
H1204 H 0.0868 0.00676 0.28838 0.0
H1205 H 0.12582 0.08272 0.2637 0.0
H1206 H 0.12534 0.07148 0.18472 0.0
H1207 H 0.09627 0.07559 0.21837 0.0
H1208 H 0.10878 0.03802 0.00296 0.0
H1209 H 0.03603 0.04438 0.07799 0.0
H1210 H 0.13423 0.02986 0.15805 0.0
H1211 H 0.14422 0.04987 0.15614 0.0
H1212 H 0.14406 0.03883 0.07665 0.0
H1213 H 0.04493 0.0378 0.25197 0.0
H1214 H 0.02812 0.04843 0.19624 0.0
H1215 H 0.05555 0.05773 0.24594 0.0
C1216 C 0.1586 0.20559 0.287 0.0
C1217 C 0.13278 0.20539 0.30008 0.0
C1218 C 0.16734 0.20422 0.2186 0.0
C1219 C 0.14979 0.20268 0.16231 0.0
C1220 C 0.12359 0.20211 0.17564 0.0
C1221 C 0.11545 0.20362 0.24442 0.0
C1222 C 0.19543 0.20505 0.20638 0.0
C1223 C 0.10424 0.20038 0.11704 0.0
C1224 C 0.16805 0.21579 0.97981 0.0
C1225 C 0.1666 0.20203 0.94362 0.0
C1226 C 0.16428 0.21622 0.05215 0.0
C1227 C 0.15875 0.20256 0.08898 0.0
C1228 C 0.15909 0.18873 0.05362 0.0
C1229 C 0.16315 0.18863 0.98127 0.0
C1230 C 0.1645 0.23123 0.08822 0.0
C1231 C 0.15335 0.17394 0.09117 0.0
H1232 H 0.17214 0.20747 0.32995 0.0
H1233 H 0.09553 0.20364 0.25473 0.0
H1234 H 0.1985 0.19553 0.17227 0.0
H1235 H 0.20346 0.21562 0.17908 0.0
H1236 H 0.20616 0.20484 0.25594 0.0
H1237 H 0.08444 0.19923 0.13659 0.0
H1238 H 0.10839 0.21036 0.08309 0.0
H1239 H 0.10547 0.19033 0.08411 0.0
H1240 H 0.17101 0.2262 0.95114 0.0
H1241 H 0.16207 0.17795 0.95374 0.0
H1242 H 0.17614 0.23229 0.13669 0.0
H1243 H 0.1448 0.23202 0.10342 0.0
H1244 H 0.17213 0.24087 0.05419 0.0
H1245 H 0.16453 0.17466 0.14036 0.0
H1246 H 0.15757 0.16446 0.0585 0.0
H1247 H 0.13288 0.17136 0.10534 0.0
C1248 C 0.8535 0.9567 0.95358 0.0
C1249 C 0.83556 0.95418 0.00731 0.0
C1250 C 0.84644 0.95277 0.88418 0.0
C1251 C 0.82079 0.94616 0.86821 0.0
C1252 C 0.8025 0.94374 0.92208 0.0
C1253 C 0.81006 0.94795 0.99095 0.0
C1254 C 0.86645 0.95568 0.82794 0.0
C1255 C 0.77497 0.93677 0.90693 0.0
C1256 C 0.80282 0.94937 0.67867 0.0
C1257 C 0.80734 0.93572 0.65035 0.0
C1258 C 0.80587 0.95263 0.75037 0.0
C1259 C 0.81329 0.94192 0.79477 0.0
C1260 C 0.81592 0.92767 0.76735 0.0
C1261 C 0.813 0.92476 0.69532 0.0
C1262 C 0.8029 0.96796 0.77766 0.0
C1263 C 0.82335 0.91586 0.81338 0.0
H1264 H 0.87317 0.96164 0.96594 0.0
H1265 H 0.79585 0.94661 0.03158 0.0
H1266 H 0.8681 0.94492 0.80135 0.0
H1267 H 0.86078 0.9631 0.78785 0.0
H1268 H 0.88548 0.96107 0.84901 0.0
H1269 H 0.76329 0.93523 0.95508 0.0
H1270 H 0.76665 0.944 0.87101 0.0
H1271 H 0.77367 0.92564 0.88036 0.0
H1272 H 0.79834 0.95789 0.64436 0.0
H1273 H 0.81627 0.91413 0.67392 0.0
H1274 H 0.82189 0.97466 0.79248 0.0
H1275 H 0.79094 0.96688 0.82519 0.0
H1276 H 0.79423 0.9743 0.73823 0.0
H1277 H 0.84338 0.91962 0.83112 0.0
H1278 H 0.82168 0.9048 0.78571 0.0
H1279 H 0.81125 0.91432 0.86064 0.0
C1280 C 0.88564 0.79343 0.94412 0.0
C1281 C 0.90365 0.79533 -0.00174 0.0
C1282 C 0.8929 0.79732 0.87561 0.0
C1283 C 0.91883 0.80324 0.86106 0.0
C1284 C 0.93717 0.805 0.91533 0.0
C1285 C 0.92939 0.80085 0.98322 0.0
C1286 C 0.87282 0.7951 0.81881 0.0
C1287 C 0.96499 0.8112 0.90161 0.0
C1288 C 0.93604 0.79959 0.67105 0.0
C1289 C 0.9327 0.81352 0.64547 0.0
C1290 C 0.93287 0.79635 0.74207 0.0
C1291 C 0.92656 0.80736 0.78859 0.0
C1292 C 0.92522 0.82184 0.76407 0.0
C1293 C 0.92822 0.82474 0.69261 0.0
C1294 C 0.93446 0.78076 0.76625 0.0
C1295 C 0.91903 0.83396 0.81252 0.0
H1296 H 0.86576 0.78904 0.95551 0.0
H1297 H 0.94359 0.80168 0.02409 0.0
H1298 H 0.87218 0.80605 0.79446 0.0
H1299 H 0.8777 0.78748 0.77718 0.0
H1300 H 0.85354 0.79026 0.83879 0.0
H1301 H 0.9767 0.81238 0.95009 0.0
H1302 H 0.97257 0.80368 0.86429 0.0
H1303 H 0.96723 0.82241 0.87721 0.0
H1304 H 0.93967 0.79087 0.63507 0.0
H1305 H 0.92589 0.83558 0.67333 0.0
H1306 H 0.9151 0.77457 0.77959 0.0
H1307 H 0.94638 0.78143 0.81405 0.0
H1308 H 0.94247 0.77414 0.72557 0.0
H1309 H 0.8989 0.83082 0.82941 0.0
H1310 H 0.92174 0.8451 0.78714 0.0
H1311 H 0.93113 0.83506 0.86014 0.0
C1312 C 0.55726 0.54263 0.05891 0.0
C1313 C 0.57361 0.54077 0.00393 0.0
C1314 C 0.56633 0.54469 0.12776 0.0
C1315 C 0.59234 0.54475 0.14189 0.0
C1316 C 0.60895 0.54283 0.08656 0.0
C1317 C 0.59932 0.54078 0.01814 0.0
C1318 C 0.548 0.54667 0.18548 0.0
C1319 C 0.63671 0.54267 0.09979 0.0
C1320 C 0.61458 0.56244 0.31741 0.0
C1321 C 0.61053 0.54977 0.36005 0.0
C1322 C 0.61023 0.56092 0.24516 0.0
C1323 C 0.60173 0.54639 0.2151 0.0
C1324 C 0.59959 0.5335 0.25703 0.0
C1325 C 0.60406 0.53534 0.32906 0.0
C1326 C 0.613 0.57491 0.2019 0.0
C1327 C 0.59081 0.5178 0.22676 0.0
H1328 H 0.53734 0.54252 0.04797 0.0
H1329 H 0.61182 0.53875 0.9762 0.0
H1330 H 0.54691 0.53745 0.22338 0.0
H1331 H 0.55495 0.55744 0.21434 0.0
H1332 H 0.5285 0.54667 0.16547 0.0
H1333 H 0.64737 0.54184 0.05062 0.0
H1334 H 0.64587 0.55305 0.12883 0.0
H1335 H 0.63841 0.53297 0.13276 0.0
H1336 H 0.61979 0.57362 0.34081 0.0
H1337 H 0.60117 0.52548 0.36153 0.0
H1338 H 0.59384 0.57663 0.18592 0.0
H1339 H 0.62381 0.57364 0.15355 0.0
H1340 H 0.62279 0.58515 0.23111 0.0
H1341 H 0.57035 0.51616 0.21233 0.0
H1342 H 0.59322 0.50897 0.26428 0.0
H1343 H 0.60149 0.51622 0.17852 0.0
C1344 C 0.66864 0.71646 0.98235 0.0
C1345 C 0.66669 0.70267 0.94612 0.0
C1346 C 0.66504 0.71694 0.05473 0.0
C1347 C 0.65918 0.70329 0.09157 0.0
C1348 C 0.65905 0.68941 0.05615 0.0
C1349 C 0.66294 0.68927 0.98374 0.0
C1350 C 0.66577 0.732 0.09087 0.0
C1351 C 0.65297 0.67463 0.09373 0.0
C1352 C 0.65935 0.70646 0.28951 0.0
C1353 C 0.63364 0.70657 0.30274 0.0
C1354 C 0.66793 0.7049 0.22108 0.0
C1355 C 0.65034 0.7035 0.16495 0.0
C1356 C 0.62423 0.70323 0.17845 0.0
C1357 C 0.61625 0.70491 0.24726 0.0
C1358 C 0.69593 0.70542 0.20865 0.0
C1359 C 0.60484 0.70166 0.12002 0.0
H1360 H 0.67184 0.72687 0.95368 0.0
H1361 H 0.66149 0.67856 0.95616 0.0
H1362 H 0.64618 0.733 0.10629 0.0
H1363 H 0.67746 0.73294 0.1392 0.0
H1364 H 0.67361 0.74158 0.05678 0.0
H1365 H 0.65691 0.66508 0.06102 0.0
H1366 H 0.66417 0.67525 0.14286 0.0
H1367 H 0.63251 0.67223 0.10801 0.0
H1368 H 0.67294 0.70824 0.33233 0.0
H1369 H 0.59643 0.70516 0.25771 0.0
H1370 H 0.70425 0.71595 0.18147 0.0
H1371 H 0.69866 0.69586 0.17437 0.0
H1372 H 0.70664 0.70506 0.25813 0.0
H1373 H 0.60921 0.71162 0.086 0.0
H1374 H 0.58509 0.70069 0.13973 0.0
H1375 H 0.60576 0.69156 0.08711 0.0
C1376 C 0.35351 0.45325 0.93068 0.0
C1377 C 0.33614 0.45051 0.9855 0.0
C1378 C 0.34575 0.44938 0.86174 0.0
C1379 C 0.31992 0.44283 0.84756 0.0
C1380 C 0.30226 0.44009 0.90289 0.0
C1381 C 0.31059 0.44406 0.97137 0.0
C1382 C 0.36514 0.4525 0.80399 0.0
C1383 C 0.27455 0.43328 0.8896 0.0
C1384 C 0.30102 0.44839 0.6613 0.0
C1385 C 0.30472 0.43493 0.62916 0.0
C1386 C 0.3043 0.45075 0.73348 0.0
C1387 C 0.31148 0.43938 0.77428 0.0
C1388 C 0.31324 0.42532 0.74304 0.0
C1389 C 0.30975 0.42324 0.67069 0.0
C1390 C 0.30191 0.46582 0.76511 0.0
C1391 C 0.32063 0.41289 0.78512 0.0
H1392 H 0.37319 0.4584 0.94185 0.0
H1393 H 0.29697 0.44246 0.01371 0.0
H1394 H 0.36574 0.44195 0.77411 0.0
H1395 H 0.35957 0.46058 0.76699 0.0
H1396 H 0.3846 0.45724 0.82413 0.0
H1397 H 0.26361 0.43109 0.9388 0.0
H1398 H 0.26574 0.441 0.85759 0.0
H1399 H 0.27279 0.42252 0.85955 0.0
H1400 H 0.29679 0.45741 0.62961 0.0
H1401 H 0.31249 0.41277 0.64632 0.0
H1402 H 0.32109 0.47224 0.77991 0.0
H1403 H 0.29032 0.46428 0.81331 0.0
H1404 H 0.29309 0.47268 0.72829 0.0
H1405 H 0.34096 0.41617 0.8009 0.0
H1406 H 0.31803 0.40207 0.75507 0.0
H1407 H 0.30922 0.41109 0.83357 0.0
C1408 C 0.38535 0.29078 0.95061 0.0
C1409 C 0.40352 0.29349 0.00439 0.0
C1410 C 0.39203 0.29472 0.88176 0.0
C1411 C 0.4175 0.30159 0.86653 0.0
C1412 C 0.43604 0.30412 0.92035 0.0
C1413 C 0.42889 0.29983 0.98852 0.0
C1414 C 0.37179 0.29162 0.82539 0.0
C1415 C 0.46338 0.31137 0.90595 0.0
C1416 C 0.43538 0.29904 0.67631 0.0
C1417 C 0.43033 0.31264 0.65123 0.0
C1418 C 0.43239 0.29555 0.74713 0.0
C1419 C 0.42456 0.30602 0.79396 0.0
C1420 C 0.42134 0.32022 0.7699 0.0
C1421 C 0.42412 0.32334 0.6986 0.0
C1422 C 0.43588 0.28025 0.77079 0.0
C1423 C 0.41353 0.33178 0.81871 0.0
H1424 H 0.36578 0.28573 0.96254 0.0
H1425 H 0.44331 0.30127 0.02899 0.0
H1426 H 0.36952 0.30236 0.80146 0.0
H1427 H 0.37765 0.28444 0.78333 0.0
H1428 H 0.35302 0.2859 0.84568 0.0
H1429 H 0.47532 0.31292 0.95404 0.0
H1430 H 0.47175 0.30435 0.86793 0.0
H1431 H 0.46421 0.32254 0.88213 0.0
H1432 H 0.44023 0.29072 0.64004 0.0
H1433 H 0.42044 0.33392 0.67961 0.0
H1434 H 0.41707 0.27336 0.78434 0.0
H1435 H 0.44798 0.28135 0.81838 0.0
H1436 H 0.44465 0.2741 0.72977 0.0
H1437 H 0.39364 0.32771 0.83604 0.0
H1438 H 0.41464 0.34285 0.79351 0.0
H1439 H 0.42582 0.33342 0.86605 0.0
C1440 C 0.60502 0.04065 0.50251 0.0
C1441 C 0.58082 0.04363 0.48816 0.0
C1442 C 0.61478 0.04188 0.57087 0.0
C1443 C 0.59985 0.04611 0.62587 0.0
C1444 C 0.57557 0.04941 0.6112 0.0
C1445 C 0.56625 0.04797 0.54246 0.0
C1446 C 0.64058 0.03811 0.58455 0.0
C1447 C 0.55913 0.05402 0.66841 0.0
C1448 C 0.606 0.03388 0.81178 0.0
C1449 C 0.61759 0.04749 0.84477 0.0
C1450 C 0.60136 0.03308 0.73967 0.0
C1451 C 0.60865 0.04617 0.69948 0.0
C1452 C 0.62212 0.05962 0.73148 0.0
C1453 C 0.62642 0.06013 0.80389 0.0
C1454 C 0.58712 0.01848 0.7074 0.0
C1455 C 0.63051 0.07374 0.69009 0.0
H1456 H 0.61593 0.03681 0.46065 0.0
H1457 H 0.54743 0.05011 0.53113 0.0
H1458 H 0.65263 0.04723 0.616 0.0
H1459 H 0.63828 0.02766 0.61526 0.0
H1460 H 0.65074 0.03637 0.53546 0.0
H1461 H 0.54139 0.05701 0.6477 0.0
H1462 H 0.55381 0.04466 0.70544 0.0
H1463 H 0.56989 0.06385 0.69839 0.0
H1464 H 0.59933 0.02401 0.84279 0.0
H1465 H 0.63558 0.07066 0.82881 0.0
H1466 H 0.59696 0.0155 0.65979 0.0
H1467 H 0.56776 0.01984 0.69142 0.0
H1468 H 0.58515 0.00897 0.74415 0.0
H1469 H 0.64025 0.0712 0.64153 0.0
H1470 H 0.64356 0.08262 0.72055 0.0
H1471 H 0.61355 0.07828 0.67449 0.0
C1472 C 0.61891 0.20712 0.73805 0.0
C1473 C 0.63628 0.2087 0.79355 0.0
C1474 C 0.62683 0.20524 0.66934 0.0
C1475 C 0.65285 0.20519 0.65597 0.0
C1476 C 0.67047 0.2067 0.71205 0.0
C1477 C 0.66196 0.2085 0.78034 0.0
C1478 C 0.60744 0.20363 0.61089 0.0
C1479 C 0.69838 0.20688 0.69972 0.0
C1480 C 0.66448 0.18923 0.47752 0.0
C1481 C 0.66877 0.2023 0.43751 0.0
C1482 C 0.66075 0.19004 0.54986 0.0
C1483 C 0.66153 0.20426 0.58275 0.0
C1484 C 0.66792 0.21756 0.54353 0.0
C1485 C 0.67142 0.21642 0.47129 0.0
C1486 C 0.65416 0.17562 0.59009 0.0
C1487 C 0.6693 0.23295 0.57692 0.0
H1488 H 0.59912 0.20746 0.74846 0.0
H1489 H 0.67556 0.21025 0.82316 0.0
H1490 H 0.61234 0.21327 0.57518 0.0
H1491 H 0.60771 0.1932 0.57978 0.0
H1492 H 0.5878 0.20323 0.63047 0.0
H1493 H 0.70922 0.20702 0.74932 0.0
H1494 H 0.70077 0.19688 0.66795 0.0
H1495 H 0.70682 0.21701 0.66982 0.0
H1496 H 0.66253 0.17828 0.45191 0.0
H1497 H 0.67504 0.22658 0.44082 0.0
H1498 H 0.63375 0.17367 0.6049 0.0
H1499 H 0.66549 0.17648 0.63906 0.0
H1500 H 0.65751 0.1657 0.55907 0.0
H1501 H 0.64986 0.23439 0.5916 0.0
H1502 H 0.67756 0.24216 0.54129 0.0
H1503 H 0.68094 0.23411 0.62542 0.0
C1504 C 0.32299 0.93832 0.4926 0.0
C1505 C 0.3206 0.95262 0.51754 0.0
C1506 C 0.31548 0.93358 0.42439 0.0
C1507 C 0.30547 0.94344 0.3805 0.0
C1508 C 0.30175 0.95756 0.40688 0.0
C1509 C 0.30961 0.96205 0.47506 0.0
C1510 C 0.32 0.91851 0.39785 0.0
C1511 C 0.29101 0.96834 0.36171 0.0
C1512 C 0.32239 0.94396 0.18988 0.0
C1513 C 0.29945 0.93672 0.15851 0.0
C1514 C 0.32467 0.94575 0.26217 0.0
C1515 C 0.30336 0.9403 0.30441 0.0
C1516 C 0.28026 0.93261 0.27349 0.0
C1517 C 0.27861 0.93081 0.20042 0.0
C1518 C 0.34978 0.95384 0.29311 0.0
C1519 C 0.2572 0.92674 0.31733 0.0
H1520 H 0.33184 0.93112 0.52522 0.0
H1521 H 0.30754 0.97305 0.49482 0.0
H1522 H 0.30331 0.91245 0.36753 0.0
H1523 H 0.33662 0.92031 0.36227 0.0
H1524 H 0.32394 0.91126 0.44105 0.0
H1525 H 0.28588 0.9778 0.39274 0.0
H1526 H 0.30536 0.97312 0.32231 0.0
H1527 H 0.27384 0.96236 0.33306 0.0
H1528 H 0.33871 0.94834 0.15771 0.0
H1529 H 0.26088 0.9252 0.17611 0.0
H1530 H 0.35656 0.94675 0.33283 0.0
H1531 H 0.34723 0.96443 0.31975 0.0
H1532 H 0.36482 0.9567 0.25298 0.0
H1533 H 0.26225 0.91962 0.3596 0.0
H1534 H 0.24134 0.92003 0.28588 0.0
H1535 H 0.25039 0.93634 0.34265 0.0
C1536 C 0.43288 0.80121 0.16476 0.0
C1537 C 0.42721 0.81467 0.13992 0.0
C1538 C 0.42986 0.79759 0.23545 0.0
C1539 C 0.42139 0.80779 0.28241 0.0
C1540 C 0.41745 0.82187 0.25856 0.0
C1541 C 0.42026 0.82511 0.18739 0.0
C1542 C 0.43409 0.78241 0.25884 0.0
C1543 C 0.40894 0.83318 0.3075 0.0
C1544 C 0.38279 0.79212 0.43944 0.0
C1545 C 0.40094 0.79522 0.4932 0.0
C1546 C 0.3893 0.79602 0.37042 0.0
C1547 C 0.41457 0.80324 0.355 0.0
C1548 C 0.43311 0.80613 0.40876 0.0
C1549 C 0.42615 0.80186 0.47709 0.0
C1550 C 0.36909 0.79252 0.31411 0.0
C1551 C 0.46024 0.81377 0.39418 0.0
H1552 H 0.43824 0.79307 0.12835 0.0
H1553 H 0.41606 0.83559 0.16855 0.0
H1554 H 0.44617 0.78366 0.3065 0.0
H1555 H 0.4155 0.77523 0.27219 0.0
H1556 H 0.44322 0.77648 0.21775 0.0
H1557 H 0.40938 0.84419 0.2824 0.0
H1558 H 0.38919 0.82872 0.32493 0.0
H1559 H 0.42125 0.83504 0.35477 0.0
H1560 H 0.36336 0.78682 0.45152 0.0
H1561 H 0.44061 0.80358 0.51752 0.0
H1562 H 0.37538 0.78552 0.272 0.0
H1563 H 0.36615 0.80313 0.29023 0.0
H1564 H 0.35055 0.78646 0.33446 0.0
H1565 H 0.46891 0.80696 0.35585 0.0
H1566 H 0.47225 0.81545 0.44214 0.0
H1567 H 0.46054 0.82492 0.37067 0.0
C1568 C 0.11075 0.59322 0.09939 0.0
C1569 C 0.09235 0.58486 0.14272 0.0
C1570 C 0.11554 0.60901 0.10132 0.0
C1571 C 0.1012 0.61662 0.14664 0.0
C1572 C 0.08234 0.60825 0.18984 0.0
C1573 C 0.07834 0.59244 0.18795 0.0
C1574 C 0.1362 0.61756 0.0556 0.0
C1575 C 0.06637 0.61599 0.23784 0.0
C1576 C 0.12969 0.65693 0.20049 0.0
C1577 C 0.118 0.66512 0.15321 0.0
C1578 C 0.12433 0.64113 0.19901 0.0
C1579 C 0.10646 0.63335 0.14996 0.0
C1580 C 0.0942 0.64155 0.10294 0.0
C1581 C 0.10035 0.65736 0.10458 0.0
C1582 C 0.1382 0.63278 0.24899 0.0
C1583 C 0.07468 0.63362 0.05081 0.0
H1584 H 0.12177 0.58741 0.06471 0.0
H1585 H 0.06397 0.58602 0.22116 0.0
H1586 H 0.12807 0.62496 0.02012 0.0
H1587 H 0.15082 0.62493 0.08846 0.0
H1588 H 0.14569 0.60993 0.02354 0.0
H1589 H 0.05182 0.60783 0.26602 0.0
H1590 H 0.07877 0.62315 0.27686 0.0
H1591 H 0.05657 0.62351 0.20745 0.0
H1592 H 0.14352 0.66286 0.23779 0.0
H1593 H 0.09116 0.66366 0.06819 0.0
H1594 H 0.14923 0.62561 0.21925 0.0
H1595 H 0.12432 0.6252 0.28154 0.0
H1596 H 0.15148 0.64053 0.28408 0.0
H1597 H 0.08368 0.62664 0.01404 0.0
H1598 H 0.066 0.64164 0.02019 0.0
H1599 H 0.0593 0.62589 0.07819 0.0
C1600 C 0.8352 0.39836 0.8653 0.0
C1601 C 0.84582 0.41035 0.82249 0.0
C1602 C 0.8438 0.38469 0.86231 0.0
C1603 C 0.86377 0.38305 0.8162 0.0
C1604 C 0.87412 0.39496 0.77158 0.0
C1605 C 0.86488 0.40843 0.77485 0.0
C1606 C 0.83195 0.37212 0.90979 0.0
C1607 C 0.89562 0.39368 0.72231 0.0
C1608 C 0.90278 0.35422 0.8685 0.0
C1609 C 0.89254 0.34191 0.82483 0.0
C1610 C 0.8941 0.36785 0.86471 0.0
C1611 C 0.87445 0.36909 0.81686 0.0
C1612 C 0.8644 0.35682 0.77164 0.0
C1613 C 0.87372 0.34341 0.77578 0.0
C1614 C 0.90558 0.3808 0.91297 0.0
C1615 C 0.84322 0.35767 0.72056 0.0
H1616 H 0.82038 0.39974 0.90194 0.0
H1617 H 0.87329 0.41767 0.74185 0.0
H1618 H 0.82541 0.36157 0.87893 0.0
H1619 H 0.84639 0.36991 0.94779 0.0
H1620 H 0.8155 0.37483 0.93921 0.0
H1621 H 0.90073 0.40369 0.68871 0.0
H1622 H 0.91274 0.39245 0.75274 0.0
H1623 H 0.89036 0.38348 0.68833 0.0
H1624 H 0.91742 0.35318 0.90624 0.0
H1625 H 0.86561 0.33392 0.74202 0.0
H1626 H 0.89085 0.38334 0.94948 0.0
H1627 H 0.9124 0.3911 0.88245 0.0
H1628 H 0.92176 0.37832 0.94406 0.0
H1629 H 0.82595 0.35923 0.74949 0.0
H1630 H 0.83825 0.34736 0.68701 0.0
H1631 H 0.84876 0.36755 0.68657 0.0
C1632 C 0.10735 0.09284 0.63022 0.0
C1633 C 0.0883 0.0849 0.673 0.0
C1634 C 0.11235 0.10862 0.62933 0.0
C1635 C 0.09756 0.11665 0.67118 0.0
C1636 C 0.0781 0.10871 0.71396 0.0
C1637 C 0.07389 0.0929 0.71499 0.0
C1638 C 0.13365 0.1167 0.58422 0.0
C1639 C 0.06166 0.11691 0.75827 0.0
C1640 C 0.12616 0.15733 0.71802 0.0
C1641 C 0.11532 0.1651 0.66709 0.0
C1642 C 0.12039 0.14156 0.72024 0.0
C1643 C 0.10296 0.13338 0.67117 0.0
C1644 C 0.09149 0.14117 0.62056 0.0
C1645 C 0.09804 0.15695 0.61861 0.0
C1646 C 0.13342 0.13364 0.77403 0.0
C1647 C 0.07246 0.13281 0.56823 0.0
H1648 H 0.11869 0.0867 0.59808 0.0
H1649 H 0.05902 0.0868 0.74773 0.0
H1650 H 0.12604 0.12375 0.54591 0.0
H1651 H 0.14787 0.12436 0.61708 0.0
H1652 H 0.14351 0.10877 0.5553 0.0
H1653 H 0.04677 0.10905 0.7868 0.0
H1654 H 0.07365 0.12444 0.79684 0.0
H1655 H 0.05224 0.12413 0.72495 0.0
H1656 H 0.13968 0.16355 0.75531 0.0
H1657 H 0.08949 0.16292 0.57942 0.0
H1658 H 0.14482 0.12621 0.7475 0.0
H1659 H 0.11904 0.12637 0.80641 0.0
H1660 H 0.14624 0.14168 0.80906 0.0
H1661 H 0.08179 0.12551 0.53398 0.0
H1662 H 0.06418 0.14058 0.53493 0.0
H1663 H 0.05676 0.12536 0.59569 0.0
C1664 C 0.83788 0.89747 0.38356 0.0
C1665 C 0.84903 0.90984 0.3436 0.0
C1666 C 0.84682 0.88391 0.37998 0.0
C1667 C 0.86769 0.88277 0.33626 0.0
C1668 C 0.87882 0.89513 0.29507 0.0
C1669 C 0.8692 0.90848 0.29878 0.0
C1670 C 0.83416 0.87087 0.42376 0.0
C1671 C 0.9013 0.89438 0.24854 0.0
C1672 C 0.90469 0.85281 0.38665 0.0
C1673 C 0.89477 0.84103 0.3397 0.0
C1674 C 0.8967 0.86667 0.38447 0.0
C1675 C 0.87808 0.8687 0.33484 0.0
C1676 C 0.8685 0.85702 0.28612 0.0
C1677 C 0.87711 0.84336 0.28879 0.0
C1678 C 0.90767 0.87899 0.43649 0.0
C1679 C 0.84843 0.85871 0.23296 0.0
H1680 H 0.8222 0.89842 0.41803 0.0
H1681 H 0.87803 0.91802 0.26808 0.0
H1682 H 0.82782 0.86071 0.39012 0.0
H1683 H 0.84802 0.8681 0.46211 0.0
H1684 H 0.81743 0.87337 0.4526 0.0
H1685 H 0.90737 0.90486 0.21858 0.0
H1686 H 0.91763 0.8925 0.28064 0.0
H1687 H 0.89653 0.88472 0.21118 0.0
H1688 H 0.91846 0.85114 0.42584 0.0
H1689 H 0.86928 0.83431 0.25239 0.0
H1690 H 0.89248 0.88119 0.47229 0.0
H1691 H 0.9151 0.88963 0.40906 0.0
H1692 H 0.92331 0.87602 0.46822 0.0
H1693 H 0.83069 0.86005 0.26014 0.0
H1694 H 0.84389 0.84884 0.19653 0.0
H1695 H 0.85482 0.86899 0.20206 0.0
C1696 C 0.62506 0.65826 0.71852 0.0
C1697 C 0.61461 0.6663 0.66787 0.0
C1698 C 0.61936 0.64247 0.71876 0.0
C1699 C 0.60242 0.63454 0.66791 0.0
C1700 C 0.59115 0.64259 0.61799 0.0
C1701 C 0.5976 0.6584 0.61807 0.0
C1702 C 0.63216 0.63427 0.77193 0.0
C1703 C 0.57263 0.63451 0.56376 0.0
C1704 C 0.60868 0.59473 0.61788 0.0
C1705 C 0.58936 0.58608 0.65748 0.0
C1706 C 0.61323 0.6105 0.62134 0.0
C1707 C 0.59773 0.61781 0.66437 0.0
C1708 C 0.57809 0.60916 0.70425 0.0
C1709 C 0.57432 0.59336 0.70095 0.0
C1710 C 0.63473 0.61934 0.57921 0.0
C1711 C 0.56091 0.6166 0.74971 0.0
H1712 H 0.63833 0.66428 0.75692 0.0
H1713 H 0.58933 0.66456 0.57911 0.0
H1714 H 0.61769 0.62641 0.80158 0.0
H1715 H 0.6444 0.62741 0.74487 0.0
H1716 H 0.64414 0.64212 0.80952 0.0
H1717 H 0.56406 0.64243 0.5322 0.0
H1718 H 0.58254 0.6278 0.52801 0.0
H1719 H 0.55711 0.62652 0.58927 0.0
H1720 H 0.62051 0.58915 0.58462 0.0
H1721 H 0.55925 0.5867 0.73127 0.0
H1722 H 0.64828 0.6269 0.61429 0.0
H1723 H 0.62713 0.62657 0.54173 0.0
H1724 H 0.64537 0.61192 0.54957 0.0
H1725 H 0.57236 0.62397 0.78982 0.0
H1726 H 0.54622 0.60825 0.77645 0.0
H1727 H 0.5512 0.62387 0.71755 0.0
C1728 C 0.3404 0.39799 0.38227 0.0
C1729 C 0.3499 0.4091 0.3339 0.0
C1730 C 0.34872 0.38421 0.38223 0.0
C1731 C 0.36734 0.38162 0.33352 0.0
C1732 C 0.37683 0.39273 0.28414 0.0
C1733 C 0.3678 0.40628 0.28447 0.0
C1734 C 0.33777 0.37249 0.43476 0.0
C1735 C 0.39699 0.39047 0.23212 0.0
C1736 C 0.40605 0.35239 0.38291 0.0
C1737 C 0.39433 0.33988 0.34235 0.0
C1738 C 0.39787 0.36617 0.37921 0.0
C1739 C 0.37715 0.36736 0.33496 0.0
C1740 C 0.36546 0.35484 0.29323 0.0
C1741 C 0.37436 0.34129 0.29691 0.0
C1742 C 0.41115 0.3794 0.42339 0.0
C1743 C 0.34307 0.35561 0.24626 0.0
H1744 H 0.32646 0.40006 0.42032 0.0
H1745 H 0.37538 0.41486 0.24723 0.0
H1746 H 0.32969 0.36167 0.40754 0.0
H1747 H 0.35309 0.37035 0.47003 0.0
H1748 H 0.32262 0.37598 0.46698 0.0
H1749 H 0.40215 0.40016 0.19667 0.0
H1750 H 0.41441 0.38891 0.26021 0.0
H1751 H 0.39024 0.38012 0.20008 0.0
H1752 H 0.42155 0.35139 0.41789 0.0
H1753 H 0.36507 0.33163 0.26577 0.0
H1754 H 0.39762 0.38264 0.46187 0.0
H1755 H 0.4177 0.3893 0.3901 0.0
H1756 H 0.42782 0.37686 0.45211 0.0
H1757 H 0.327 0.35806 0.27804 0.0
H1758 H 0.33643 0.34493 0.21619 0.0
H1759 H 0.34823 0.36492 0.20895 0.0
C1760 C 0.63424 0.15771 0.19235 0.0
C1761 C 0.62179 0.16594 0.14708 0.0
C1762 C 0.62939 0.14192 0.18937 0.0
C1763 C 0.61124 0.13417 0.14093 0.0
C1764 C 0.59837 0.14239 0.0956 0.0
C1765 C 0.60402 0.15821 0.09866 0.0
C1766 C 0.6439 0.13355 0.23754 0.0
C1767 C 0.57853 0.13448 0.04422 0.0
C1768 C 0.61471 0.09392 0.08947 0.0
C1769 C 0.5967 0.08566 0.13417 0.0
C1770 C 0.61967 0.10973 0.09119 0.0
C1771 C 0.60588 0.11743 0.13766 0.0
C1772 C 0.58741 0.10916 0.1822 0.0
C1773 C 0.58325 0.09336 0.1805 0.0
C1774 C 0.63992 0.11818 0.04402 0.0
C1775 C 0.572 0.11699 0.2315 0.0
H1776 H 0.6482 0.16363 0.22937 0.0
H1777 H 0.59428 0.16453 0.06376 0.0
H1778 H 0.63044 0.12603 0.27144 0.0
H1779 H 0.65442 0.12631 0.20647 0.0
H1780 H 0.65771 0.14129 0.27133 0.0
H1781 H 0.56978 0.14252 0.01391 0.0
H1782 H 0.58724 0.12742 0.00715 0.0
H1783 H 0.56325 0.12683 0.07229 0.0
H1784 H 0.62526 0.08802 0.05387 0.0
H1785 H 0.56915 0.08702 0.21476 0.0
H1786 H 0.65493 0.1255 0.07587 0.0
H1787 H 0.63153 0.12562 0.00935 0.0
H1788 H 0.64898 0.11049 0.01108 0.0
H1789 H 0.58482 0.12412 0.26972 0.0
H1790 H 0.55765 0.1089 0.26061 0.0
H1791 H 0.56201 0.12456 0.20196 0.0
C1792 C 0.40257 0.85438 0.87293 0.0
C1793 C 0.39127 0.84192 0.83145 0.0
C1794 C 0.39369 0.86796 0.87099 0.0
C1795 C 0.37271 0.86901 0.82746 0.0
C1796 C 0.36163 0.85661 0.78415 0.0
C1797 C 0.3712 0.84325 0.7862 0.0
C1798 C 0.40633 0.88106 0.91692 0.0
C1799 C 0.33903 0.85724 0.73775 0.0
C1800 C 0.33447 0.89804 0.88665 0.0
C1801 C 0.34361 0.91004 0.84237 0.0
C1802 C 0.34313 0.88442 0.88062 0.0
C1803 C 0.36169 0.88285 0.82988 0.0
C1804 C 0.37048 0.89476 0.78376 0.0
C1805 C 0.36115 0.90817 0.79014 0.0
C1806 C 0.33293 0.87184 0.92982 0.0
C1807 C 0.39048 0.89357 0.72957 0.0
H1808 H 0.41819 0.85347 0.90768 0.0
H1809 H 0.36227 0.83364 0.75423 0.0
H1810 H 0.4119 0.89133 0.88538 0.0
H1811 H 0.39269 0.88353 0.95698 0.0
H1812 H 0.42354 0.87878 0.9439 0.0
H1813 H 0.33349 0.84692 0.7045 0.0
H1814 H 0.32249 0.85858 0.77043 0.0
H1815 H 0.3433 0.86715 0.70351 0.0
H1816 H 0.32078 0.89937 0.92677 0.0
H1817 H 0.36838 0.91741 0.75587 0.0
H1818 H 0.34847 0.86979 0.96449 0.0
H1819 H 0.32578 0.86123 0.89989 0.0
H1820 H 0.31725 0.87445 0.96285 0.0
H1821 H 0.40855 0.89257 0.7559 0.0
H1822 H 0.39426 0.90351 0.69524 0.0
H1823 H 0.38449 0.88327 0.69658 0.0
loop_
_geom_bond_atom_site_label_1
_geom_bond_atom_site_label_2
_geom_bond_distance
_geom_bond_site_symmetry_2
_ccdc_geom_bond_type
Co0 O3 1.970 . S
Co0 N17 1.989 . S
Co0 O25 1.967 . S
Co0 O32 1.920 1_554 S
Co1 O4 1.966 . S
Co1 N10 2.022 . S
Co1 N18 1.993 . S
Co1 O26 1.941 . S
C2 O3 1.258 . S
C2 O4 1.263 . S
O3 Co0 1.970 . S
O3 C2 1.258 . S
O4 Co1 1.966 . S
O4 C2 1.263 . S
C5 O6 1.235 . S
C5 O32 1.289 . S
O6 C5 1.235 . S
C7 C9 1.400 . S
C7 N10 1.351 . S
C7 C12 1.501 . S
C8 C9 1.387 . S
C8 N11 1.341 . S
C9 C7 1.400 . S
C9 C8 1.387 . S
N10 Co1 2.022 . S
N10 C7 1.351 . S
N10 N11 1.365 . S
N11 C8 1.341 . S
N11 N10 1.365 . S
N11 H31 0.862 . S
C12 C7 1.501 . S
C12 H13 0.961 . S
C12 H14 0.961 . S
C12 H15 0.960 . S
H13 C12 0.961 . S
H14 C12 0.961 . S
H15 C12 0.960 . S
C16 N17 1.342 . S
C16 C20 1.401 . S
C16 C21 1.499 . S
N17 Co0 1.989 . S
N17 C16 1.342 . S
N17 N18 1.388 . S
N18 Co1 1.993 . S
N18 N17 1.388 . S
N18 C19 1.346 . S
C19 N18 1.346 . S
C19 C20 1.396 . S
C19 C29 1.510 . S
C20 C16 1.401 . S
C20 C19 1.396 . S
C21 C16 1.499 . S
C21 H22 0.959 . S
C21 H23 0.960 . S
C21 H24 0.961 . S
H22 C21 0.959 . S
H23 C21 0.960 . S
H24 C21 0.961 . S
O25 Co0 1.967 . S
O25 C33 1.258 . S
O26 Co1 1.941 . S
O26 C33 1.266 . S
H27 C29 0.959 . S
H28 C29 0.961 . S
C29 C19 1.510 . S
C29 H27 0.959 . S
C29 H28 0.961 . S
C29 H30 0.960 . S
H30 C29 0.960 . S
H31 N11 0.862 . S
O32 Co0 1.920 1_556 S
O32 C5 1.289 . S
C33 O25 1.258 . S
C33 O26 1.266 . S
Co34 O37 1.970 . S
Co34 N51 1.989 . S
Co34 O59 1.967 . S
Co34 O66 1.920 . S
Co35 O38 1.966 . S
Co35 N44 2.022 1_554 S
Co35 N52 1.993 . S
Co35 O60 1.941 . S
C36 O37 1.258 . S
C36 O38 1.263 . S
O37 Co34 1.970 . S
O37 C36 1.258 . S
O38 Co35 1.966 . S
O38 C36 1.263 . S
C39 O40 1.235 . S
C39 O66 1.289 . S
O40 C39 1.235 . S
C41 C43 1.400 . S
C41 N44 1.351 . S
C41 C46 1.501 . S
C42 C43 1.387 . S
C42 N45 1.341 . S
C43 C41 1.400 . S
C43 C42 1.387 . S
N44 Co35 2.022 1_556 S
N44 C41 1.351 . S
N44 N45 1.365 . S
N45 C42 1.341 . S
N45 N44 1.365 . S
N45 H65 0.862 . S
C46 C41 1.501 . S
C46 H47 0.961 . S
C46 H48 0.961 . S
C46 H49 0.960 . S
H47 C46 0.961 . S
H48 C46 0.961 . S
H49 C46 0.960 . S
C50 N51 1.342 . S
C50 C54 1.401 . S
C50 C55 1.499 . S
N51 Co34 1.989 . S
N51 C50 1.342 . S
N51 N52 1.388 . S
N52 Co35 1.993 . S
N52 N51 1.388 . S
N52 C53 1.346 . S
C53 N52 1.346 . S
C53 C54 1.396 . S
C53 C63 1.510 1_554 S
C54 C50 1.401 . S
C54 C53 1.396 . S
C55 C50 1.499 . S
C55 H56 0.959 . S
C55 H57 0.960 . S
C55 H58 0.961 . S
H56 C55 0.959 . S
H57 C55 0.960 . S
H58 C55 0.961 . S
O59 Co34 1.967 . S
O59 C67 1.258 . S
O60 Co35 1.941 . S
O60 C67 1.266 . S
H61 C63 0.959 . S
H62 C63 0.961 . S
C63 C53 1.510 1_556 S
C63 H61 0.959 . S
C63 H62 0.961 . S
C63 H64 0.960 . S
H64 C63 0.960 . S
H65 N45 0.862 . S
O66 Co34 1.920 . S
O66 C39 1.289 . S
C67 O59 1.258 . S
C67 O60 1.266 . S
Co68 O71 1.970 . S
Co68 N85 1.989 . S
Co68 O93 1.967 . S
Co68 O100 1.920 1_556 S
Co69 O72 1.966 . S
Co69 N78 2.022 . S
Co69 N86 1.993 . S
Co69 O94 1.941 . S
C70 O71 1.258 . S
C70 O72 1.263 . S
O71 Co68 1.970 . S
O71 C70 1.258 . S
O72 Co69 1.966 . S
O72 C70 1.263 . S
C73 O74 1.235 . S
C73 O100 1.289 . S
O74 C73 1.235 . S
C75 C77 1.400 . S
C75 N78 1.351 . S
C75 C80 1.501 . S
C76 C77 1.387 . S
C76 N79 1.341 . S
C77 C75 1.400 . S
C77 C76 1.387 . S
N78 Co69 2.022 . S
N78 C75 1.351 . S
N78 N79 1.365 . S
N79 C76 1.341 . S
N79 N78 1.365 . S
N79 H99 0.862 . S
C80 C75 1.501 . S
C80 H81 0.961 . S
C80 H82 0.961 . S
C80 H83 0.960 . S
H81 C80 0.961 . S
H82 C80 0.961 . S
H83 C80 0.960 . S
C84 N85 1.342 . S
C84 C88 1.401 . S
C84 C89 1.499 . S
N85 Co68 1.989 . S
N85 C84 1.342 . S
N85 N86 1.388 . S
N86 Co69 1.993 . S
N86 N85 1.388 . S
N86 C87 1.346 . S
C87 N86 1.346 . S
C87 C88 1.396 . S
C87 C97 1.510 . S
C88 C84 1.401 . S
C88 C87 1.396 . S
C89 C84 1.499 . S
C89 H90 0.959 1_556 S
C89 H91 0.961 . S
C89 H92 0.961 1_556 S
H90 C89 0.959 1_554 S
H91 C89 0.961 . S
H92 C89 0.961 1_554 S
O93 Co68 1.967 . S
O93 C101 1.258 . S
O94 Co69 1.941 . S
O94 C101 1.266 . S
H95 C97 0.959 . S
H96 C97 0.961 . S
C97 C87 1.510 . S
C97 H95 0.959 . S
C97 H96 0.961 . S
C97 H98 0.960 . S
H98 C97 0.960 . S
H99 N79 0.862 . S
O100 Co68 1.920 1_554 S
O100 C73 1.289 . S
C101 O93 1.258 . S
C101 O94 1.266 . S
Co102 O105 1.970 . S
Co102 N119 1.989 . S
Co102 O127 1.967 . S
Co102 O134 1.920 1_556 S
Co103 O106 1.966 . S
Co103 N112 2.022 . S
Co103 N120 1.993 . S
Co103 O128 1.941 . S
C104 O105 1.258 . S
C104 O106 1.263 . S
O105 Co102 1.970 . S
O105 C104 1.258 . S
O106 Co103 1.966 . S
O106 C104 1.263 . S
C107 O108 1.235 . S
C107 O134 1.289 . S
O108 C107 1.235 . S
C109 C111 1.400 . S
C109 N112 1.351 . S
C109 C114 1.501 . S
C110 C111 1.387 . S
C110 N113 1.341 . S
C111 C109 1.400 . S
C111 C110 1.387 . S
N112 Co103 2.022 . S
N112 C109 1.351 . S
N112 N113 1.365 . S
N113 C110 1.341 . S
N113 N112 1.365 . S
N113 H133 0.862 . S
C114 C109 1.501 . S
C114 H115 0.961 . S
C114 H116 0.961 . S
C114 H117 0.960 . S
H115 C114 0.961 . S
H116 C114 0.961 . S
H117 C114 0.960 . S
C118 N119 1.342 . S
C118 C122 1.401 . S
C118 C123 1.499 . S
N119 Co102 1.989 . S
N119 C118 1.342 . S
N119 N120 1.388 . S
N120 Co103 1.993 . S
N120 N119 1.388 . S
N120 C121 1.346 . S
C121 N120 1.346 . S
C121 C122 1.396 . S
C121 C131 1.510 . S
C122 C118 1.401 . S
C122 C121 1.396 . S
C123 C118 1.499 . S
C123 H124 0.959 1_556 S
C123 H125 0.960 . S
C123 H126 0.961 . S
H124 C123 0.959 1_554 S
H125 C123 0.960 . S
H126 C123 0.961 . S
O127 Co102 1.967 . S
O127 C135 1.258 . S
O128 Co103 1.941 . S
O128 C135 1.266 . S
H129 C131 0.959 . S
H130 C131 0.961 . S
C131 C121 1.510 . S
C131 H129 0.959 . S
C131 H130 0.961 . S
C131 H132 0.960 . S
H132 C131 0.960 . S
H133 N113 0.862 . S
O134 Co102 1.920 1_554 S
O134 C107 1.289 . S
C135 O127 1.258 . S
C135 O128 1.266 . S
Co136 O139 1.970 . S
Co136 N153 1.989 . S
Co136 O161 1.967 . S
Co136 O168 1.920 . S
Co137 O140 1.966 . S
Co137 N146 2.022 . S
Co137 N154 1.993 . S
Co137 O162 1.941 . S
C138 O139 1.258 . S
C138 O140 1.263 . S
O139 Co136 1.970 . S
O139 C138 1.258 . S
O140 Co137 1.966 . S
O140 C138 1.263 . S
C141 O142 1.235 . S
C141 O168 1.289 . S
O142 C141 1.235 . S
C143 C145 1.400 . S
C143 N146 1.351 . S
C143 C148 1.501 . S
C144 C145 1.387 . S
C144 N147 1.341 . S
C145 C143 1.400 . S
C145 C144 1.387 . S
N146 Co137 2.022 . S
N146 C143 1.351 . S
N146 N147 1.365 . S
N147 C144 1.341 . S
N147 N146 1.365 . S
N147 H167 0.862 . S
C148 C143 1.501 . S
C148 H149 0.961 . S
C148 H150 0.961 . S
C148 H151 0.960 . S
H149 C148 0.961 . S
H150 C148 0.961 . S
H151 C148 0.960 . S
C152 N153 1.342 . S
C152 C156 1.401 . S
C152 C157 1.499 . S
N153 Co136 1.989 . S
N153 C152 1.342 . S
N153 N154 1.388 . S
N154 Co137 1.993 . S
N154 N153 1.388 . S
N154 C155 1.346 . S
C155 N154 1.346 . S
C155 C156 1.396 . S
C155 C165 1.510 . S
C156 C152 1.401 . S
C156 C155 1.396 . S
C157 C152 1.499 . S
C157 H158 0.959 . S
C157 H159 0.960 . S
C157 H160 0.961 . S
H158 C157 0.959 . S
H159 C157 0.960 . S
H160 C157 0.961 . S
O161 Co136 1.967 . S
O161 C169 1.258 . S
O162 Co137 1.941 . S
O162 C169 1.266 . S
H163 C165 0.959 . S
H164 C165 0.961 . S
C165 C155 1.510 . S
C165 H163 0.959 . S
C165 H164 0.961 . S
C165 H166 0.960 . S
H166 C165 0.960 . S
H167 N147 0.862 . S
O168 Co136 1.920 . S
O168 C141 1.289 . S
C169 O161 1.258 . S
C169 O162 1.266 . S
Co170 O173 1.970 . S
Co170 N187 1.989 . S
Co170 O195 1.967 . S
Co170 O202 1.920 . S
Co171 O174 1.966 . S
Co171 N180 2.022 . S
Co171 N188 1.993 . S
Co171 O196 1.941 . S
C172 O173 1.258 . S
C172 O174 1.263 . S
O173 Co170 1.970 . S
O173 C172 1.258 . S
O174 Co171 1.966 . S
O174 C172 1.263 . S
C175 O176 1.235 . S
C175 O202 1.289 . S
O176 C175 1.235 . S
C177 C179 1.400 . S
C177 N180 1.351 . S
C177 C182 1.501 . S
C178 C179 1.387 . S
C178 N181 1.341 . S
C179 C177 1.400 . S
C179 C178 1.387 . S
N180 Co171 2.022 . S
N180 C177 1.351 . S
N180 N181 1.365 . S
N181 C178 1.341 . S
N181 N180 1.365 . S
N181 H201 0.862 . S
C182 C177 1.501 . S
C182 H183 0.961 . S
C182 H184 0.961 . S
C182 H185 0.960 . S
H183 C182 0.961 . S
H184 C182 0.961 . S
H185 C182 0.960 . S
C186 N187 1.342 . S
C186 C190 1.401 . S
C186 C191 1.499 . S
N187 Co170 1.989 . S
N187 C186 1.342 . S
N187 N188 1.388 . S
N188 Co171 1.993 . S
N188 N187 1.388 . S
N188 C189 1.346 . S
C189 N188 1.346 . S
C189 C190 1.396 . S
C189 C199 1.510 . S
C190 C186 1.401 . S
C190 C189 1.396 . S
C191 C186 1.499 . S
C191 H192 0.959 . S
C191 H193 0.960 . S
C191 H194 0.961 . S
H192 C191 0.959 . S
H193 C191 0.960 . S
H194 C191 0.961 . S
O195 Co170 1.967 . S
O195 C203 1.258 . S
O196 Co171 1.941 . S
O196 C203 1.266 . S
H197 C199 0.959 . S
H198 C199 0.961 . S
C199 C189 1.510 . S
C199 H197 0.959 . S
C199 H198 0.961 . S
C199 H200 0.960 . S
H200 C199 0.960 . S
H201 N181 0.862 . S
O202 Co170 1.920 . S
O202 C175 1.289 . S
C203 O195 1.258 . S
C203 O196 1.266 . S
Co204 O207 1.970 . S
Co204 N221 1.989 . S
Co204 O229 1.967 . S
Co204 O236 1.920 . S
Co205 O208 1.966 . S
Co205 N214 2.022 . S
Co205 N222 1.993 . S
Co205 O230 1.941 . S
C206 O207 1.258 . S
C206 O208 1.263 . S
O207 Co204 1.970 . S
O207 C206 1.258 . S
O208 Co205 1.966 . S
O208 C206 1.263 . S
C209 O210 1.235 . S
C209 O236 1.289 . S
O210 C209 1.235 . S
C211 C213 1.400 . S
C211 N214 1.351 . S
C211 C216 1.501 . S
C212 C213 1.387 . S
C212 N215 1.341 . S
C213 C211 1.400 . S
C213 C212 1.387 . S
N214 Co205 2.022 . S
N214 C211 1.351 . S
N214 N215 1.365 . S
N215 C212 1.341 . S
N215 N214 1.365 . S
N215 H235 0.862 . S
C216 C211 1.501 . S
C216 H217 0.961 . S
C216 H218 0.961 . S
C216 H219 0.960 . S
H217 C216 0.961 . S
H218 C216 0.961 . S
H219 C216 0.960 . S
C220 N221 1.342 . S
C220 C224 1.401 . S
C220 C225 1.499 . S
N221 Co204 1.989 . S
N221 C220 1.342 . S
N221 N222 1.388 . S
N222 Co205 1.993 . S
N222 N221 1.388 . S
N222 C223 1.346 . S
C223 N222 1.346 . S
C223 C224 1.396 . S
C223 C233 1.510 . S
C224 C220 1.401 . S
C224 C223 1.396 . S
C225 C220 1.499 . S
C225 H226 0.959 . S
C225 H227 0.960 . S
C225 H228 0.961 . S
H226 C225 0.959 . S
H227 C225 0.960 . S
H228 C225 0.961 . S
O229 Co204 1.967 . S
O229 C237 1.258 . S
O230 Co205 1.941 . S
O230 C237 1.266 . S
H231 C233 0.959 . S
H232 C233 0.961 . S
C233 C223 1.510 . S
C233 H231 0.959 . S
C233 H232 0.961 . S
C233 H234 0.960 . S
H234 C233 0.960 . S
H235 N215 0.862 . S
O236 Co204 1.920 . S
O236 C209 1.289 . S
C237 O229 1.258 . S
C237 O230 1.266 . S
Co238 O241 1.970 . S
Co238 N255 1.989 . S
Co238 O263 1.967 . S
Co238 O270 1.920 . S
Co239 O242 1.966 . S
Co239 N248 2.022 . S
Co239 N256 1.993 . S
Co239 O264 1.941 . S
C240 O241 1.258 . S
C240 O242 1.263 . S
O241 Co238 1.970 . S
O241 C240 1.258 . S
O242 Co239 1.966 . S
O242 C240 1.263 . S
C243 O244 1.235 . S
C243 O270 1.289 . S
O244 C243 1.235 . S
C245 C247 1.400 . S
C245 N248 1.351 . S
C245 C250 1.501 . S
C246 C247 1.387 . S
C246 N249 1.341 . S
C247 C245 1.400 . S
C247 C246 1.387 . S
N248 Co239 2.022 . S
N248 C245 1.351 . S
N248 N249 1.365 . S
N249 C246 1.341 . S
N249 N248 1.365 . S
N249 H269 0.862 . S
C250 C245 1.501 . S
C250 H251 0.961 . S
C250 H252 0.961 . S
C250 H253 0.960 . S
H251 C250 0.961 . S
H252 C250 0.961 . S
H253 C250 0.960 . S
C254 N255 1.342 . S
C254 C258 1.401 . S
C254 C259 1.499 . S
N255 Co238 1.989 . S
N255 C254 1.342 . S
N255 N256 1.388 . S
N256 Co239 1.993 . S
N256 N255 1.388 . S
N256 C257 1.346 . S
C257 N256 1.346 . S
C257 C258 1.396 . S
C257 C267 1.510 . S
C258 C254 1.401 . S
C258 C257 1.396 . S
C259 C254 1.499 . S
C259 H260 0.959 . S
C259 H261 0.960 . S
C259 H262 0.961 . S
H260 C259 0.959 . S
H261 C259 0.960 . S
H262 C259 0.961 . S
O263 Co238 1.967 . S
O263 C271 1.258 . S
O264 Co239 1.941 . S
O264 C271 1.266 . S
H265 C267 0.959 . S
H266 C267 0.961 . S
C267 C257 1.510 . S
C267 H265 0.959 . S
C267 H266 0.961 . S
C267 H268 0.960 . S
H268 C267 0.960 . S
H269 N249 0.862 . S
O270 Co238 1.920 . S
O270 C243 1.289 . S
C271 O263 1.258 . S
C271 O264 1.266 . S
Co272 O275 1.970 . S
Co272 N289 1.989 . S
Co272 O297 1.967 . S
Co272 O304 1.920 . S
Co273 O276 1.966 . S
Co273 N282 2.022 . S
Co273 N290 1.993 . S
Co273 O298 1.941 . S
C274 O275 1.258 . S
C274 O276 1.263 . S
O275 Co272 1.970 . S
O275 C274 1.258 . S
O276 Co273 1.966 . S
O276 C274 1.263 . S
C277 O278 1.235 . S
C277 O304 1.289 . S
O278 C277 1.235 . S
C279 C281 1.400 . S
C279 N282 1.351 . S
C279 C284 1.501 . S
C280 C281 1.387 . S
C280 N283 1.341 . S
C281 C279 1.400 . S
C281 C280 1.387 . S
N282 Co273 2.022 . S
N282 C279 1.351 . S
N282 N283 1.365 . S
N283 C280 1.341 . S
N283 N282 1.365 . S
N283 H303 0.862 . S
C284 C279 1.501 . S
C284 H285 0.961 . S
C284 H286 0.961 . S
C284 H287 0.960 . S
H285 C284 0.961 . S
H286 C284 0.961 . S
H287 C284 0.960 . S
C288 N289 1.342 . S
C288 C292 1.401 . S
C288 C293 1.499 . S
N289 Co272 1.989 . S
N289 C288 1.342 . S
N289 N290 1.388 . S
N290 Co273 1.993 . S
N290 N289 1.388 . S
N290 C291 1.346 . S
C291 N290 1.346 . S
C291 C292 1.396 . S
C291 C301 1.510 . S
C292 C288 1.401 . S
C292 C291 1.396 . S
C293 C288 1.499 . S
C293 H294 0.959 . S
C293 H295 0.960 . S
C293 H296 0.961 . S
H294 C293 0.959 . S
H295 C293 0.960 . S
H296 C293 0.961 . S
O297 Co272 1.967 . S
O297 C305 1.258 . S
O298 Co273 1.941 . S
O298 C305 1.266 . S
H299 C301 0.959 . S
H300 C301 0.961 . S
C301 C291 1.510 . S
C301 H299 0.959 . S
C301 H300 0.961 . S
C301 H302 0.960 . S
H302 C301 0.960 . S
H303 N283 0.862 . S
O304 Co272 1.920 . S
O304 C277 1.289 . S
C305 O297 1.258 . S
C305 O298 1.266 . S
Co306 O309 1.970 . S
Co306 N323 1.989 . S
Co306 O331 1.967 . S
Co306 O338 1.920 . S
Co307 O310 1.966 . S
Co307 N316 2.022 . S
Co307 N324 1.993 . S
Co307 O332 1.941 . S
C308 O309 1.258 . S
C308 O310 1.263 . S
O309 Co306 1.970 . S
O309 C308 1.258 . S
O310 Co307 1.966 . S
O310 C308 1.263 . S
C311 O312 1.235 . S
C311 O338 1.289 . S
O312 C311 1.235 . S
C313 C315 1.400 . S
C313 N316 1.351 . S
C313 C318 1.501 . S
C314 C315 1.387 . S
C314 N317 1.341 . S
C315 C313 1.400 . S
C315 C314 1.387 . S
N316 Co307 2.022 . S
N316 C313 1.351 . S
N316 N317 1.365 . S
N317 C314 1.341 . S
N317 N316 1.365 . S
N317 H337 0.862 . S
C318 C313 1.501 . S
C318 H319 0.961 . S
C318 H320 0.961 . S
C318 H321 0.960 . S
H319 C318 0.961 . S
H320 C318 0.961 . S
H321 C318 0.960 . S
C322 N323 1.342 . S
C322 C326 1.401 . S
C322 C327 1.499 . S
N323 Co306 1.989 . S
N323 C322 1.342 . S
N323 N324 1.388 . S
N324 Co307 1.993 . S
N324 N323 1.388 . S
N324 C325 1.346 . S
C325 N324 1.346 . S
C325 C326 1.396 . S
C325 C335 1.510 . S
C326 C322 1.401 . S
C326 C325 1.396 . S
C327 C322 1.499 . S
C327 H328 0.959 . S
C327 H329 0.960 . S
C327 H330 0.961 . S
H328 C327 0.959 . S
H329 C327 0.960 . S
H330 C327 0.961 . S
O331 Co306 1.967 . S
O331 C339 1.258 . S
O332 Co307 1.941 . S
O332 C339 1.266 . S
H333 C335 0.959 . S
H334 C335 0.961 . S
C335 C325 1.510 . S
C335 H333 0.959 . S
C335 H334 0.961 . S
C335 H336 0.960 . S
H336 C335 0.960 . S
H337 N317 0.862 . S
O338 Co306 1.920 . S
O338 C311 1.289 . S
C339 O331 1.258 . S
C339 O332 1.266 . S
Co340 O343 1.970 . S
Co340 N357 1.989 . S
Co340 O365 1.967 . S
Co340 O372 1.920 . S
Co341 O344 1.966 . S
Co341 N350 2.022 . S
Co341 N358 1.993 . S
Co341 O366 1.941 . S
C342 O343 1.258 . S
C342 O344 1.263 . S
O343 Co340 1.970 . S
O343 C342 1.258 . S
O344 Co341 1.966 . S
O344 C342 1.263 . S
C345 O346 1.235 . S
C345 O372 1.289 . S
O346 C345 1.235 . S
C347 C349 1.400 . S
C347 N350 1.351 . S
C347 C352 1.501 . S
C348 C349 1.387 . S
C348 N351 1.341 . S
C349 C347 1.400 . S
C349 C348 1.387 . S
N350 Co341 2.022 . S
N350 C347 1.351 . S
N350 N351 1.365 . S
N351 C348 1.341 . S
N351 N350 1.365 . S
N351 H371 0.862 . S
C352 C347 1.501 . S
C352 H353 0.961 . S
C352 H354 0.961 . S
C352 H355 0.960 . S
H353 C352 0.961 . S
H354 C352 0.961 . S
H355 C352 0.960 . S
C356 N357 1.342 . S
C356 C360 1.401 . S
C356 C361 1.499 . S
N357 Co340 1.989 . S
N357 C356 1.342 . S
N357 N358 1.388 . S
N358 Co341 1.993 . S
N358 N357 1.388 . S
N358 C359 1.346 . S
C359 N358 1.346 . S
C359 C360 1.396 . S
C359 C369 1.510 . S
C360 C356 1.401 . S
C360 C359 1.396 . S
C361 C356 1.499 . S
C361 H362 0.959 . S
C361 H363 0.960 . S
C361 H364 0.961 . S
H362 C361 0.959 . S
H363 C361 0.960 . S
H364 C361 0.961 . S
O365 Co340 1.967 . S
O365 C373 1.258 . S
O366 Co341 1.941 . S
O366 C373 1.266 . S
H367 C369 0.959 . S
H368 C369 0.961 . S
C369 C359 1.510 . S
C369 H367 0.959 . S
C369 H368 0.961 . S
C369 H370 0.960 . S
H370 C369 0.960 . S
H371 N351 0.862 . S
O372 Co340 1.920 . S
O372 C345 1.289 . S
C373 O365 1.258 . S
C373 O366 1.266 . S
Co374 O377 1.970 . S
Co374 N391 1.989 . S
Co374 O399 1.967 . S
Co374 O406 1.920 . S
Co375 O378 1.966 . S
Co375 N384 2.022 . S
Co375 N392 1.993 . S
Co375 O400 1.941 . S
C376 O377 1.258 . S
C376 O378 1.263 . S
O377 Co374 1.970 . S
O377 C376 1.258 . S
O378 Co375 1.966 . S
O378 C376 1.263 . S
C379 O380 1.235 . S
C379 O406 1.289 . S
O380 C379 1.235 . S
C381 C383 1.400 . S
C381 N384 1.351 . S
C381 C386 1.501 . S
C382 C383 1.387 . S
C382 N385 1.341 . S
C383 C381 1.400 . S
C383 C382 1.387 . S
N384 Co375 2.022 . S
N384 C381 1.351 . S
N384 N385 1.365 . S
N385 C382 1.341 . S
N385 N384 1.365 . S
N385 H405 0.862 . S
C386 C381 1.501 . S
C386 H387 0.961 . S
C386 H388 0.961 . S
C386 H389 0.960 . S
H387 C386 0.961 . S
H388 C386 0.961 . S
H389 C386 0.960 . S
C390 N391 1.342 . S
C390 C394 1.401 . S
C390 C395 1.499 . S
N391 Co374 1.989 . S
N391 C390 1.342 . S
N391 N392 1.388 . S
N392 Co375 1.993 . S
N392 N391 1.388 . S
N392 C393 1.346 . S
C393 N392 1.346 . S
C393 C394 1.396 . S
C393 C403 1.510 . S
C394 C390 1.401 . S
C394 C393 1.396 . S
C395 C390 1.499 . S
C395 H396 0.959 . S
C395 H397 0.960 . S
C395 H398 0.961 . S
H396 C395 0.959 . S
H397 C395 0.960 . S
H398 C395 0.961 . S
O399 Co374 1.967 . S
O399 C407 1.258 . S
O400 Co375 1.941 . S
O400 C407 1.266 . S
H401 C403 0.959 . S
H402 C403 0.961 . S
C403 C393 1.510 . S
C403 H401 0.959 . S
C403 H402 0.961 . S
C403 H404 0.960 . S
H404 C403 0.960 . S
H405 N385 0.862 . S
O406 Co374 1.920 . S
O406 C379 1.289 . S
C407 O399 1.258 . S
C407 O400 1.266 . S
Co408 O411 1.970 . S
Co408 N425 1.989 . S
Co408 O433 1.967 . S
Co408 O440 1.920 1_554 S
Co409 O412 1.966 . S
Co409 N418 2.022 . S
Co409 N426 1.993 . S
Co409 O434 1.941 . S
C410 O411 1.258 . S
C410 O412 1.263 . S
O411 Co408 1.970 . S
O411 C410 1.258 . S
O412 Co409 1.966 . S
O412 C410 1.263 . S
C413 O414 1.235 . S
C413 O440 1.289 . S
O414 C413 1.235 . S
C415 C417 1.400 . S
C415 N418 1.351 . S
C415 C420 1.501 . S
C416 C417 1.387 . S
C416 N419 1.341 . S
C417 C415 1.400 . S
C417 C416 1.387 . S
N418 Co409 2.022 . S
N418 C415 1.351 . S
N418 N419 1.365 . S
N419 C416 1.341 . S
N419 N418 1.365 . S
N419 H439 0.862 . S
C420 C415 1.501 . S
C420 H421 0.961 . S
C420 H422 0.961 . S
C420 H423 0.960 . S
H421 C420 0.961 . S
H422 C420 0.961 . S
H423 C420 0.960 . S
C424 N425 1.342 . S
C424 C428 1.401 . S
C424 C429 1.499 . S
N425 Co408 1.989 . S
N425 C424 1.342 . S
N425 N426 1.388 . S
N426 Co409 1.993 . S
N426 N425 1.388 . S
N426 C427 1.346 . S
C427 N426 1.346 . S
C427 C428 1.396 . S
C427 C437 1.510 . S
C428 C424 1.401 . S
C428 C427 1.396 . S
C429 C424 1.499 . S
C429 H430 0.959 . S
C429 H431 0.960 . S
C429 H432 0.961 . S
H430 C429 0.959 . S
H431 C429 0.960 . S
H432 C429 0.961 . S
O433 Co408 1.967 . S
O433 C441 1.258 . S
O434 Co409 1.941 . S
O434 C441 1.266 . S
H435 C437 0.959 . S
H436 C437 0.961 . S
C437 C427 1.510 . S
C437 H435 0.959 . S
C437 H436 0.961 . S
C437 H438 0.960 . S
H438 C437 0.960 . S
H439 N419 0.862 . S
O440 Co408 1.920 1_556 S
O440 C413 1.289 . S
C441 O433 1.258 . S
C441 O434 1.266 . S
Co442 O445 1.970 . S
Co442 N459 1.989 . S
Co442 O467 1.967 . S
Co442 O474 1.920 . S
Co443 O446 1.966 . S
Co443 N452 2.022 1_554 S
Co443 N460 1.993 . S
Co443 O468 1.941 . S
C444 O445 1.258 . S
C444 O446 1.263 . S
O445 Co442 1.970 . S
O445 C444 1.258 . S
O446 Co443 1.966 . S
O446 C444 1.263 . S
C447 O448 1.235 . S
C447 O474 1.289 . S
O448 C447 1.235 . S
C449 C451 1.400 . S
C449 N452 1.351 . S
C449 C454 1.501 . S
C450 C451 1.387 . S
C450 N453 1.341 . S
C451 C449 1.400 . S
C451 C450 1.387 . S
N452 Co443 2.022 1_556 S
N452 C449 1.351 . S
N452 N453 1.365 . S
N453 C450 1.341 . S
N453 N452 1.365 . S
N453 H473 0.862 . S
C454 C449 1.501 . S
C454 H455 0.961 . S
C454 H456 0.961 . S
C454 H457 0.960 . S
H455 C454 0.961 . S
H456 C454 0.961 . S
H457 C454 0.960 . S
C458 N459 1.342 . S
C458 C462 1.401 . S
C458 C463 1.499 . S
N459 Co442 1.989 . S
N459 C458 1.342 . S
N459 N460 1.388 . S
N460 Co443 1.993 . S
N460 N459 1.388 . S
N460 C461 1.346 . S
C461 N460 1.346 . S
C461 C462 1.396 . S
C461 C471 1.510 1_554 S
C462 C458 1.401 . S
C462 C461 1.396 . S
C463 C458 1.499 . S
C463 H464 0.959 . S
C463 H465 0.960 . S
C463 H466 0.961 . S
H464 C463 0.959 . S
H465 C463 0.960 . S
H466 C463 0.961 . S
O467 Co442 1.967 . S
O467 C475 1.258 . S
O468 Co443 1.941 . S
O468 C475 1.266 . S
H469 C471 0.959 . S
H470 C471 0.961 . S
C471 C461 1.510 1_556 S
C471 H469 0.959 . S
C471 H470 0.961 . S
C471 H472 0.960 . S
H472 C471 0.960 . S
H473 N453 0.862 . S
O474 Co442 1.920 . S
O474 C447 1.289 . S
C475 O467 1.258 . S
C475 O468 1.266 . S
Co476 O479 1.970 . S
Co476 N493 1.989 . S
Co476 O501 1.967 . S
Co476 O508 1.920 1_556 S
Co477 O480 1.966 . S
Co477 N486 2.022 . S
Co477 N494 1.993 . S
Co477 O502 1.941 . S
C478 O479 1.258 . S
C478 O480 1.263 . S
O479 Co476 1.970 . S
O479 C478 1.258 . S
O480 Co477 1.966 . S
O480 C478 1.263 . S
C481 O482 1.235 . S
C481 O508 1.289 . S
O482 C481 1.235 . S
C483 C485 1.400 . S
C483 N486 1.351 . S
C483 C488 1.501 . S
C484 C485 1.387 . S
C484 N487 1.341 . S
C485 C483 1.400 . S
C485 C484 1.387 . S
N486 Co477 2.022 . S
N486 C483 1.351 . S
N486 N487 1.365 . S
N487 C484 1.341 . S
N487 N486 1.365 . S
N487 H507 0.862 . S
C488 C483 1.501 . S
C488 H489 0.961 . S
C488 H490 0.961 . S
C488 H491 0.960 . S
H489 C488 0.961 . S
H490 C488 0.961 . S
H491 C488 0.960 . S
C492 N493 1.342 . S
C492 C496 1.401 . S
C492 C497 1.499 . S
N493 Co476 1.989 . S
N493 C492 1.342 . S
N493 N494 1.388 . S
N494 Co477 1.993 . S
N494 N493 1.388 . S
N494 C495 1.346 . S
C495 N494 1.346 . S
C495 C496 1.396 . S
C495 C505 1.510 . S
C496 C492 1.401 . S
C496 C495 1.396 . S
C497 C492 1.499 . S
C497 H498 0.959 1_556 S
C497 H499 0.961 . S
C497 H500 0.961 1_556 S
H498 C497 0.959 1_554 S
H499 C497 0.961 . S
H500 C497 0.961 1_554 S
O501 Co476 1.967 . S
O501 C509 1.258 . S
O502 Co477 1.941 . S
O502 C509 1.266 . S
H503 C505 0.959 . S
H504 C505 0.961 . S
C505 C495 1.510 . S
C505 H503 0.959 . S
C505 H504 0.961 . S
C505 H506 0.960 . S
H506 C505 0.960 . S
H507 N487 0.862 . S
O508 Co476 1.920 1_554 S
O508 C481 1.289 . S
C509 O501 1.258 . S
C509 O502 1.266 . S
Co510 O513 1.970 . S
Co510 N527 1.989 . S
Co510 O535 1.967 . S
Co510 O542 1.920 1_556 S
Co511 O514 1.966 . S
Co511 N520 2.022 . S
Co511 N528 1.993 . S
Co511 O536 1.941 . S
C512 O513 1.258 . S
C512 O514 1.263 . S
O513 Co510 1.970 . S
O513 C512 1.258 . S
O514 Co511 1.966 . S
O514 C512 1.263 . S
C515 O516 1.235 . S
C515 O542 1.289 . S
O516 C515 1.235 . S
C517 C519 1.400 . S
C517 N520 1.351 . S
C517 C522 1.501 . S
C518 C519 1.387 . S
C518 N521 1.341 . S
C519 C517 1.400 . S
C519 C518 1.387 . S
N520 Co511 2.022 . S
N520 C517 1.351 . S
N520 N521 1.365 . S
N521 C518 1.341 . S
N521 N520 1.365 . S
N521 H541 0.862 . S
C522 C517 1.501 . S
C522 H523 0.961 . S
C522 H524 0.961 . S
C522 H525 0.960 . S
H523 C522 0.961 . S
H524 C522 0.961 . S
H525 C522 0.960 . S
C526 N527 1.342 . S
C526 C530 1.401 . S
C526 C531 1.499 . S
N527 Co510 1.989 . S
N527 C526 1.342 . S
N527 N528 1.388 . S
N528 Co511 1.993 . S
N528 N527 1.388 . S
N528 C529 1.346 . S
C529 N528 1.346 . S
C529 C530 1.396 . S
C529 C539 1.510 . S
C530 C526 1.401 . S
C530 C529 1.396 . S
C531 C526 1.499 . S
C531 H532 0.959 1_556 S
C531 H533 0.960 . S
C531 H534 0.961 . S
H532 C531 0.959 1_554 S
H533 C531 0.960 . S
H534 C531 0.961 . S
O535 Co510 1.967 . S
O535 C543 1.258 . S
O536 Co511 1.941 . S
O536 C543 1.266 . S
H537 C539 0.959 . S
H538 C539 0.961 . S
C539 C529 1.510 . S
C539 H537 0.959 . S
C539 H538 0.961 . S
C539 H540 0.960 . S
H540 C539 0.960 . S
H541 N521 0.862 . S
O542 Co510 1.920 1_554 S
O542 C515 1.289 . S
C543 O535 1.258 . S
C543 O536 1.266 . S
C544 C545 1.391 . S
C544 C546 1.394 . S
C544 H560 0.931 . S
C545 C544 1.391 . S
C545 C549 1.376 . S
C546 C544 1.394 . S
C546 C547 1.369 . S
C546 C550 1.531 . S
C547 C546 1.369 . S
C547 C548 1.410 . S
C547 C555 1.503 . S
C548 C547 1.410 . S
C548 C549 1.392 . S
C548 C551 1.511 . S
C549 C545 1.376 . S
C549 C548 1.392 . S
C549 H561 0.929 . S
C550 C546 1.531 . S
C550 H562 0.960 . S
C550 H563 0.962 . S
C550 H564 0.960 . S
C551 C548 1.511 . S
C551 H565 0.961 . S
C551 H566 0.961 . S
C551 H567 0.961 . S
C552 C553 1.370 . S
C552 C554 1.363 . S
C552 H568 0.931 . S
C553 C552 1.370 . S
C553 C557 1.408 . S
C554 C552 1.363 . S
C554 C555 1.370 . S
C554 C558 1.524 . S
C555 C547 1.503 . S
C555 C554 1.370 . S
C555 C556 1.403 . S
C556 C555 1.403 . S
C556 C557 1.404 . S
C556 C559 1.539 . S
C557 C553 1.408 . S
C557 C556 1.404 . S
C557 H569 0.930 . S
C558 C554 1.524 . S
C558 H570 0.956 . S
C558 H571 0.961 . S
C558 H572 0.961 . S
C559 C556 1.539 . S
C559 H573 0.958 . S
C559 H574 0.961 . S
C559 H575 0.960 . S
H560 C544 0.931 . S
H561 C549 0.929 . S
H562 C550 0.960 . S
H563 C550 0.962 . S
H564 C550 0.960 . S
H565 C551 0.961 . S
H566 C551 0.961 . S
H567 C551 0.961 . S
H568 C552 0.931 . S
H569 C557 0.930 . S
H570 C558 0.956 . S
H571 C558 0.961 . S
H572 C558 0.961 . S
H573 C559 0.958 . S
H574 C559 0.961 . S
H575 C559 0.960 . S
C576 C577 1.391 . S
C576 C578 1.394 . S
C576 H592 0.931 . S
C577 C576 1.391 . S
C577 C581 1.376 . S
C578 C576 1.394 . S
C578 C579 1.369 . S
C578 C582 1.531 . S
C579 C578 1.369 . S
C579 C580 1.410 . S
C579 C587 1.503 . S
C580 C579 1.410 . S
C580 C581 1.392 . S
C580 C583 1.511 . S
C581 C577 1.376 . S
C581 C580 1.392 . S
C581 H593 0.929 . S
C582 C578 1.531 . S
C582 H594 0.960 . S
C582 H595 0.962 . S
C582 H596 0.960 . S
C583 C580 1.511 . S
C583 H597 0.961 . S
C583 H598 0.961 . S
C583 H599 0.961 . S
C584 C585 1.370 . S
C584 C586 1.363 1_655 S
C584 H600 0.931 . S
C585 C584 1.370 . S
C585 C589 1.408 1_655 S
C586 C584 1.363 1_455 S
C586 C587 1.370 . S
C586 C590 1.524 1_455 S
C587 C579 1.503 . S
C587 C586 1.370 . S
C587 C588 1.403 . S
C588 C587 1.403 . S
C588 C589 1.404 . S
C588 C591 1.539 . S
C589 C585 1.408 1_455 S
C589 C588 1.404 . S
C589 H601 0.930 . S
C590 C586 1.524 1_655 S
C590 H602 0.956 . S
C590 H603 0.961 1_655 S
C590 H604 0.961 . S
C591 C588 1.539 . S
C591 H605 0.958 . S
C591 H606 0.961 . S
C591 H607 0.960 . S
H592 C576 0.931 . S
H593 C581 0.929 . S
H594 C582 0.960 . S
H595 C582 0.962 . S
H596 C582 0.960 . S
H597 C583 0.961 . S
H598 C583 0.961 . S
H599 C583 0.961 . S
H600 C584 0.931 . S
H601 C589 0.930 . S
H602 C590 0.956 . S
H603 C590 0.961 1_455 S
H604 C590 0.961 . S
H605 C591 0.958 . S
H606 C591 0.961 . S
H607 C591 0.960 . S
C608 C609 1.391 . S
C608 C610 1.394 . S
C608 H624 0.931 . S
C609 C608 1.391 . S
C609 C613 1.376 . S
C610 C608 1.394 . S
C610 C611 1.369 . S
C610 C614 1.531 1_556 S
C611 C610 1.369 . S
C611 C612 1.410 . S
C611 C619 1.503 . S
C612 C611 1.410 . S
C612 C613 1.392 . S
C612 C615 1.511 . S
C613 C609 1.376 . S
C613 C612 1.392 . S
C613 H625 0.929 . S
C614 C610 1.531 1_554 S
C614 H626 0.960 . S
C614 H627 0.962 . S
C614 H628 0.961 . S
C615 C612 1.511 . S
C615 H629 0.961 . S
C615 H630 0.961 . S
C615 H631 0.961 . S
C616 C617 1.370 . S
C616 C618 1.363 . S
C616 H632 0.931 . S
C617 C616 1.370 . S
C617 C621 1.408 1_554 S
C618 C616 1.363 . S
C618 C619 1.370 1_554 S
C618 C622 1.524 . S
C619 C611 1.503 . S
C619 C618 1.370 1_556 S
C619 C620 1.403 . S
C620 C619 1.403 . S
C620 C621 1.404 . S
C620 C623 1.539 . S
C621 C617 1.408 1_556 S
C621 C620 1.404 . S
C621 H633 0.930 . S
C622 C618 1.524 . S
C622 H634 0.956 . S
C622 H635 0.961 . S
C622 H636 0.961 . S
C623 C620 1.539 . S
C623 H637 0.958 . S
C623 H638 0.961 . S
C623 H639 0.960 . S
H624 C608 0.931 . S
H625 C613 0.929 . S
H626 C614 0.960 . S
H627 C614 0.962 . S
H628 C614 0.961 . S
H629 C615 0.961 . S
H630 C615 0.961 . S
H631 C615 0.961 . S
H632 C616 0.931 . S
H633 C621 0.930 . S
H634 C622 0.956 . S
H635 C622 0.961 . S
H636 C622 0.961 . S
H637 C623 0.958 . S
H638 C623 0.961 . S
H639 C623 0.960 . S
C640 C641 1.391 1_554 S
C640 C642 1.394 . S
C640 H656 0.931 . S
C641 C640 1.391 1_556 S
C641 C645 1.376 . S
C642 C640 1.394 . S
C642 C643 1.369 . S
C642 C646 1.531 . S
C643 C642 1.369 . S
C643 C644 1.410 1_554 S
C643 C651 1.503 . S
C644 C643 1.410 1_556 S
C644 C645 1.392 . S
C644 C647 1.511 . S
C645 C641 1.376 . S
C645 C644 1.392 . S
C645 H657 0.929 . S
C646 C642 1.531 . S
C646 H658 0.960 . S
C646 H659 0.962 . S
C646 H660 0.960 . S
C647 C644 1.511 . S
C647 H661 0.961 . S
C647 H662 0.961 . S
C647 H663 0.961 . S
C648 C649 1.370 1_655 S
C648 C650 1.363 . S
C648 H664 0.931 . S
C649 C648 1.370 1_455 S
C649 C653 1.408 . S
C650 C648 1.363 . S
C650 C651 1.370 . S
C650 C654 1.524 . S
C651 C643 1.503 . S
C651 C650 1.370 . S
C651 C652 1.403 . S
C652 C651 1.403 . S
C652 C653 1.404 1_655 S
C652 C655 1.553 . S
C653 C649 1.408 . S
C653 C652 1.404 1_455 S
C653 H665 0.930 . S
C654 C650 1.524 . S
C654 H666 0.956 . S
C654 H667 0.961 . S
C654 H668 0.961 . S
C655 C652 1.553 . S
C655 H669 0.958 . S
C655 H670 0.928 1_654 S
C655 H671 0.981 1_554 S
H656 C640 0.931 . S
H657 C645 0.929 . S
H658 C646 0.960 . S
H659 C646 0.962 . S
H660 C646 0.960 . S
H661 C647 0.961 . S
H662 C647 0.961 . S
H663 C647 0.961 . S
H664 C648 0.931 . S
H665 C653 0.930 . S
H666 C654 0.956 . S
H667 C654 0.961 . S
H668 C654 0.961 . S
H669 C655 0.958 . S
H670 C655 0.928 1_456 S
H671 C655 0.981 1_556 S
C672 C673 1.391 . S
C672 C674 1.394 . S
C672 H688 0.931 . S
C673 C672 1.391 . S
C673 C677 1.376 . S
C674 C672 1.394 . S
C674 C675 1.369 . S
C674 C678 1.531 . S
C675 C674 1.369 . S
C675 C676 1.410 . S
C675 C683 1.503 . S
C676 C675 1.410 . S
C676 C677 1.392 . S
C676 C679 1.511 . S
C677 C673 1.376 . S
C677 C676 1.392 . S
C677 H689 0.929 . S
C678 C674 1.531 . S
C678 H690 0.960 . S
C678 H691 0.962 . S
C678 H692 0.960 . S
C679 C676 1.511 . S
C679 H693 0.961 . S
C679 H694 0.961 . S
C679 H695 0.961 . S
C680 C681 1.370 . S
C680 C682 1.363 . S
C680 H696 0.931 . S
C681 C680 1.370 . S
C681 C685 1.408 . S
C682 C680 1.363 . S
C682 C683 1.370 . S
C682 C686 1.524 . S
C683 C675 1.503 . S
C683 C682 1.370 . S
C683 C684 1.403 . S
C684 C683 1.403 . S
C684 C685 1.404 . S
C684 C687 1.539 . S
C685 C681 1.408 . S
C685 C684 1.404 . S
C685 H697 0.930 . S
C686 C682 1.524 . S
C686 H698 0.956 . S
C686 H699 0.961 . S
C686 H700 0.961 . S
C687 C684 1.539 . S
C687 H701 0.958 . S
C687 H702 0.961 . S
C687 H703 0.960 . S
H688 C672 0.931 . S
H689 C677 0.929 . S
H690 C678 0.960 . S
H691 C678 0.962 . S
H692 C678 0.960 . S
H693 C679 0.961 . S
H694 C679 0.961 . S
H695 C679 0.961 . S
H696 C680 0.931 . S
H697 C685 0.930 . S
H698 C686 0.956 . S
H699 C686 0.961 . S
H700 C686 0.961 . S
H701 C687 0.958 . S
H702 C687 0.961 . S
H703 C687 0.960 . S
C704 C705 1.391 . S
C704 C706 1.394 . S
C704 H720 0.931 . S
C705 C704 1.391 . S
C705 C709 1.376 . S
C706 C704 1.394 . S
C706 C707 1.369 . S
C706 C710 1.531 . S
C707 C706 1.369 . S
C707 C708 1.410 . S
C707 C715 1.503 . S
C708 C707 1.410 . S
C708 C709 1.392 . S
C708 C711 1.511 . S
C709 C705 1.376 . S
C709 C708 1.392 . S
C709 H721 0.929 . S
C710 C706 1.531 . S
C710 H722 0.960 . S
C710 H723 0.962 . S
C710 H724 0.960 . S
C711 C708 1.511 . S
C711 H725 0.961 1_455 S
C711 H726 0.961 1_455 S
C711 H727 0.961 1_455 S
C712 C713 1.367 1_455 S
C712 C714 1.367 . S
C712 H728 0.930 1_455 S
C713 C712 1.367 1_655 S
C713 C717 1.408 . S
C714 C712 1.367 . S
C714 C715 1.370 . S
C714 C718 1.524 . S
C715 C707 1.503 . S
C715 C714 1.370 . S
C715 C716 1.403 . S
C716 C715 1.403 . S
C716 C717 1.404 1_455 S
C716 C719 1.539 . S
C717 C713 1.408 . S
C717 C716 1.404 1_655 S
C717 H729 0.930 . S
C718 C714 1.524 . S
C718 H730 0.956 . S
C718 H731 0.961 . S
C718 H732 0.961 . S
C719 C716 1.539 . S
C719 H733 0.958 . S
C719 H734 0.961 . S
C719 H735 0.960 . S
H720 C704 0.931 . S
H721 C709 0.929 . S
H722 C710 0.960 . S
H723 C710 0.962 . S
H724 C710 0.960 . S
H725 C711 0.961 1_655 S
H726 C711 0.961 1_655 S
H727 C711 0.961 1_655 S
H728 C712 0.930 1_655 S
H729 C717 0.930 . S
H730 C718 0.956 . S
H731 C718 0.961 . S
H732 C718 0.961 . S
H733 C719 0.958 . S
H734 C719 0.961 . S
H735 C719 0.960 . S
C736 C737 1.391 . S
C736 C738 1.394 . S
C736 H752 0.931 . S
C737 C736 1.391 . S
C737 C741 1.376 . S
C738 C736 1.394 . S
C738 C739 1.369 . S
C738 C742 1.531 . S
C739 C738 1.369 . S
C739 C740 1.409 1_554 S
C739 C747 1.503 1_554 S
C740 C739 1.409 1_556 S
C740 C741 1.391 1_556 S
C740 C743 1.514 . S
C741 C737 1.376 . S
C741 C740 1.391 1_554 S
C741 H753 0.929 . S
C742 C738 1.531 . S
C742 H754 0.960 . S
C742 H755 0.962 . S
C742 H756 0.960 . S
C743 C740 1.514 . S
C743 H757 0.961 . S
C743 H758 0.961 . S
C743 H759 0.961 . S
C744 C745 1.370 . S
C744 C746 1.363 . S
C744 H760 0.931 . S
C745 C744 1.370 . S
C745 C749 1.408 . S
C746 C744 1.363 . S
C746 C747 1.370 . S
C746 C750 1.524 . S
C747 C739 1.503 1_556 S
C747 C746 1.370 . S
C747 C748 1.403 1_556 S
C748 C747 1.403 1_554 S
C748 C749 1.404 1_554 S
C748 C751 1.539 . S
C749 C745 1.408 . S
C749 C748 1.404 1_556 S
C749 H761 0.930 1_556 S
C750 C746 1.524 . S
C750 H762 0.956 . S
C750 H763 0.961 . S
C750 H764 0.961 . S
C751 C748 1.539 . S
C751 H765 0.958 . S
C751 H766 0.961 . S
C751 H767 0.960 . S
H752 C736 0.931 . S
H753 C741 0.929 . S
H754 C742 0.960 . S
H755 C742 0.962 . S
H756 C742 0.960 . S
H757 C743 0.961 . S
H758 C743 0.961 . S
H759 C743 0.961 . S
H760 C744 0.931 . S
H761 C749 0.930 1_554 S
H762 C750 0.956 . S
H763 C750 0.961 . S
H764 C750 0.961 . S
H765 C751 0.958 . S
H766 C751 0.961 . S
H767 C751 0.960 . S
C768 C769 1.391 . S
C768 C770 1.394 . S
C768 H784 0.931 . S
C769 C768 1.391 . S
C769 C773 1.376 . S
C770 C768 1.394 . S
C770 C771 1.369 . S
C770 C774 1.531 . S
C771 C770 1.369 . S
C771 C772 1.410 . S
C771 C779 1.503 . S
C772 C771 1.410 . S
C772 C773 1.392 . S
C772 C775 1.511 1_565 S
C773 C769 1.376 . S
C773 C772 1.392 . S
C773 H785 0.929 . S
C774 C770 1.531 . S
C774 H786 0.960 . S
C774 H787 0.962 . S
C774 H788 0.960 . S
C775 C772 1.511 1_545 S
C775 H789 0.961 . S
C775 H790 0.961 . S
C775 H791 0.961 . S
C776 C777 1.370 1_565 S
C776 C778 1.363 . S
C776 H792 0.931 . S
C777 C776 1.370 1_545 S
C777 C781 1.408 . S
C778 C776 1.363 . S
C778 C779 1.370 . S
C778 C782 1.524 . S
C779 C771 1.503 . S
C779 C778 1.370 . S
C779 C780 1.403 1_565 S
C780 C779 1.403 1_545 S
C780 C781 1.404 . S
C780 C783 1.539 . S
C781 C777 1.408 . S
C781 C780 1.404 . S
C781 H793 0.930 . S
C782 C778 1.524 . S
C782 H794 0.956 . S
C782 H795 0.961 . S
C782 H796 0.961 . S
C783 C780 1.539 . S
C783 H797 0.958 . S
C783 H798 0.961 . S
C783 H799 0.960 . S
H784 C768 0.931 . S
H785 C773 0.929 . S
H786 C774 0.960 . S
H787 C774 0.962 . S
H788 C774 0.960 . S
H789 C775 0.961 . S
H790 C775 0.961 . S
H791 C775 0.961 . S
H792 C776 0.931 . S
H793 C781 0.930 . S
H794 C782 0.956 . S
H795 C782 0.961 . S
H796 C782 0.961 . S
H797 C783 0.958 . S
H798 C783 0.961 . S
H799 C783 0.960 . S
C800 C801 1.391 . S
C800 C802 1.394 . S
C800 H816 0.931 . S
C801 C800 1.391 . S
C801 C805 1.376 . S
C802 C800 1.394 . S
C802 C803 1.369 . S
C802 C806 1.531 . S
C803 C802 1.369 . S
C803 C804 1.410 . S
C803 C811 1.503 . S
C804 C803 1.410 . S
C804 C805 1.392 . S
C804 C807 1.511 . S
C805 C801 1.376 . S
C805 C804 1.392 . S
C805 H817 0.929 . S
C806 C802 1.531 . S
C806 H818 0.960 . S
C806 H819 0.962 . S
C806 H820 0.960 . S
C807 C804 1.511 . S
C807 H821 0.961 . S
C807 H822 0.961 . S
C807 H823 0.961 . S
C808 C809 1.370 . S
C808 C810 1.363 . S
C808 H824 0.931 . S
C809 C808 1.370 . S
C809 C813 1.408 . S
C810 C808 1.363 . S
C810 C811 1.370 . S
C810 C814 1.524 . S
C811 C803 1.503 . S
C811 C810 1.370 . S
C811 C812 1.403 . S
C812 C811 1.403 . S
C812 C813 1.404 . S
C812 C815 1.539 . S
C813 C809 1.408 . S
C813 C812 1.404 . S
C813 H825 0.930 . S
C814 C810 1.524 . S
C814 H826 0.956 . S
C814 H827 0.961 . S
C814 H828 0.961 . S
C815 C812 1.539 . S
C815 H829 0.958 . S
C815 H830 0.961 . S
C815 H831 0.960 . S
H816 C800 0.931 . S
H817 C805 0.929 . S
H818 C806 0.960 . S
H819 C806 0.962 . S
H820 C806 0.960 . S
H821 C807 0.961 . S
H822 C807 0.961 . S
H823 C807 0.961 . S
H824 C808 0.931 . S
H825 C813 0.930 . S
H826 C814 0.956 . S
H827 C814 0.961 . S
H828 C814 0.961 . S
H829 C815 0.958 . S
H830 C815 0.961 . S
H831 C815 0.960 . S
C832 C833 1.391 . S
C832 C834 1.377 1_565 S
C832 H848 0.931 . S
C833 C832 1.391 . S
C833 C837 1.376 . S
C834 C832 1.377 1_545 S
C834 C835 1.342 1_545 S
C834 C838 1.576 . S
C835 C834 1.342 1_565 S
C835 C836 1.410 . S
C835 C843 1.503 1_565 S
C836 C835 1.410 . S
C836 C837 1.392 . S
C836 C839 1.511 . S
C837 C833 1.376 . S
C837 C836 1.392 . S
C837 H849 0.929 . S
C838 C834 1.576 . S
C838 H850 0.960 . S
C838 H851 0.962 . S
C838 H852 0.960 . S
C839 C836 1.511 . S
C839 H853 0.961 . S
C839 H854 0.961 . S
C839 H855 0.961 . S
C840 C841 1.370 . S
C840 C842 1.363 1_455 S
C840 H856 0.931 . S
C841 C840 1.370 . S
C841 C845 1.408 1_455 S
C842 C840 1.363 1_655 S
C842 C843 1.370 . S
C842 C846 1.524 . S
C843 C835 1.503 1_545 S
C843 C842 1.370 . S
C843 C844 1.403 . S
C844 C843 1.403 . S
C844 C845 1.404 . S
C844 C847 1.539 . S
C845 C841 1.408 1_655 S
C845 C844 1.404 . S
C845 H857 0.930 . S
C846 C842 1.524 . S
C846 H858 0.956 . S
C846 H859 0.961 1_545 S
C846 H860 0.961 1_655 S
C847 C844 1.539 . S
C847 H861 0.958 . S
C847 H862 0.974 . S
C847 H863 0.960 1_545 S
H848 C832 0.931 . S
H849 C837 0.929 . S
H850 C838 0.960 . S
H851 C838 0.962 . S
H852 C838 0.960 . S
H853 C839 0.961 . S
H854 C839 0.961 . S
H855 C839 0.961 . S
H856 C840 0.931 . S
H857 C845 0.930 . S
H858 C846 0.956 . S
H859 C846 0.961 1_565 S
H860 C846 0.961 1_455 S
H861 C847 0.958 . S
H862 C847 0.974 . S
H863 C847 0.960 1_565 S
C864 C865 1.391 . S
C864 C866 1.394 . S
C864 H880 0.931 . S
C865 C864 1.391 . S
C865 C869 1.376 1_545 S
C866 C864 1.394 . S
C866 C867 1.369 1_545 S
C866 C870 1.531 . S
C867 C866 1.369 1_565 S
C867 C868 1.410 . S
C867 C875 1.503 . S
C868 C867 1.410 . S
C868 C869 1.392 . S
C868 C871 1.511 . S
C869 C865 1.376 1_565 S
C869 C868 1.392 . S
C869 H881 0.929 . S
C870 C866 1.531 . S
C870 H882 0.960 . S
C870 H883 0.962 . S
C870 H884 0.960 . S
C871 C868 1.511 . S
C871 H885 0.961 . S
C871 H886 0.961 . S
C871 H887 0.961 . S
C872 C873 1.370 . S
C872 C874 1.363 . S
C872 H888 0.931 . S
C873 C872 1.370 . S
C873 C877 1.408 . S
C874 C872 1.363 . S
C874 C875 1.370 . S
C874 C878 1.524 . S
C875 C867 1.503 . S
C875 C874 1.370 . S
C875 C876 1.403 . S
C876 C875 1.403 . S
C876 C877 1.404 . S
C876 C879 1.539 1_565 S
C877 C873 1.408 . S
C877 C876 1.404 . S
C877 H889 0.930 . S
C878 C874 1.524 . S
C878 H890 0.956 . S
C878 H891 0.961 . S
C878 H892 0.961 . S
C879 C876 1.539 1_545 S
C879 H893 0.958 . S
C879 H894 0.961 . S
C879 H895 0.960 . S
H880 C864 0.931 . S
H881 C869 0.929 . S
H882 C870 0.960 . S
H883 C870 0.962 . S
H884 C870 0.960 . S
H885 C871 0.961 . S
H886 C871 0.961 . S
H887 C871 0.961 . S
H888 C872 0.931 . S
H889 C877 0.930 . S
H890 C878 0.956 . S
H891 C878 0.961 . S
H892 C878 0.961 . S
H893 C879 0.958 . S
H894 C879 0.961 . S
H895 C879 0.960 . S
C896 C897 1.391 . S
C896 C898 1.394 . S
C896 H912 0.931 . S
C897 C896 1.391 . S
C897 C901 1.376 . S
C898 C896 1.394 . S
C898 C899 1.369 . S
C898 C902 1.531 . S
C899 C898 1.369 . S
C899 C900 1.410 . S
C899 C907 1.503 . S
C900 C899 1.410 . S
C900 C901 1.392 . S
C900 C903 1.511 . S
C901 C897 1.376 . S
C901 C900 1.392 . S
C901 H913 0.929 . S
C902 C898 1.531 . S
C902 H914 0.960 . S
C902 H915 0.962 . S
C902 H916 0.960 . S
C903 C900 1.511 . S
C903 H917 0.961 . S
C903 H918 0.961 . S
C903 H919 0.961 . S
C904 C905 1.370 . S
C904 C906 1.363 . S
C904 H920 0.931 . S
C905 C904 1.370 . S
C905 C909 1.408 . S
C906 C904 1.363 . S
C906 C907 1.370 . S
C906 C910 1.524 . S
C907 C899 1.503 . S
C907 C906 1.370 . S
C907 C908 1.403 . S
C908 C907 1.403 . S
C908 C909 1.404 . S
C908 C911 1.539 . S
C909 C905 1.408 . S
C909 C908 1.404 . S
C909 H921 0.930 . S
C910 C906 1.524 . S
C910 H922 0.956 . S
C910 H923 0.961 . S
C910 H924 0.961 . S
C911 C908 1.539 . S
C911 H925 0.958 . S
C911 H926 0.961 . S
C911 H927 0.960 . S
H912 C896 0.931 . S
H913 C901 0.929 . S
H914 C902 0.960 . S
H915 C902 0.962 . S
H916 C902 0.960 . S
H917 C903 0.961 . S
H918 C903 0.961 . S
H919 C903 0.961 . S
H920 C904 0.931 . S
H921 C909 0.930 . S
H922 C910 0.956 . S
H923 C910 0.961 . S
H924 C910 0.961 . S
H925 C911 0.958 . S
H926 C911 0.961 . S
H927 C911 0.960 . S
C928 C929 1.391 . S
C928 C930 1.394 . S
C928 H944 0.931 . S
C929 C928 1.391 . S
C929 C933 1.376 . S
C930 C928 1.394 . S
C930 C931 1.369 . S
C930 C934 1.531 . S
C931 C930 1.369 . S
C931 C932 1.410 . S
C931 C939 1.503 . S
C932 C931 1.410 . S
C932 C933 1.392 . S
C932 C935 1.511 . S
C933 C929 1.376 . S
C933 C932 1.392 . S
C933 H945 0.929 . S
C934 C930 1.531 . S
C934 H946 0.960 . S
C934 H947 0.962 . S
C934 H948 0.960 . S
C935 C932 1.511 . S
C935 H949 0.961 . S
C935 H950 0.961 . S
C935 H951 0.961 . S
C936 C937 1.370 . S
C936 C938 1.363 . S
C936 H952 0.931 . S
C937 C936 1.370 . S
C937 C941 1.408 . S
C938 C936 1.363 . S
C938 C939 1.370 . S
C938 C942 1.524 . S
C939 C931 1.503 . S
C939 C938 1.370 . S
C939 C940 1.403 . S
C940 C939 1.403 . S
C940 C941 1.404 . S
C940 C943 1.539 . S
C941 C937 1.408 . S
C941 C940 1.404 . S
C941 H953 0.930 . S
C942 C938 1.524 . S
C942 H954 0.956 . S
C942 H955 0.961 . S
C942 H956 0.961 . S
C943 C940 1.539 . S
C943 H957 0.958 . S
C943 H958 0.961 . S
C943 H959 0.960 . S
H944 C928 0.931 . S
H945 C933 0.929 . S
H946 C934 0.960 . S
H947 C934 0.962 . S
H948 C934 0.960 . S
H949 C935 0.961 . S
H950 C935 0.961 . S
H951 C935 0.961 . S
H952 C936 0.931 . S
H953 C941 0.930 . S
H954 C942 0.956 . S
H955 C942 0.961 . S
H956 C942 0.961 . S
H957 C943 0.958 . S
H958 C943 0.961 . S
H959 C943 0.960 . S
C960 C961 1.391 . S
C960 C962 1.394 . S
C960 H976 0.931 . S
C961 C960 1.391 . S
C961 C965 1.376 . S
C962 C960 1.394 . S
C962 C963 1.369 . S
C962 C966 1.531 . S
C963 C962 1.369 . S
C963 C964 1.410 . S
C963 C971 1.503 . S
C964 C963 1.410 . S
C964 C965 1.392 . S
C964 C967 1.511 . S
C965 C961 1.376 . S
C965 C964 1.392 . S
C965 H977 0.929 . S
C966 C962 1.531 . S
C966 H978 0.960 . S
C966 H979 0.962 . S
C966 H980 0.960 . S
C967 C964 1.511 . S
C967 H981 0.961 . S
C967 H982 0.961 . S
C967 H983 0.961 . S
C968 C969 1.370 . S
C968 C970 1.363 . S
C968 H984 0.931 . S
C969 C968 1.370 . S
C969 C973 1.408 . S
C970 C968 1.363 . S
C970 C971 1.370 . S
C970 C974 1.524 . S
C971 C963 1.503 . S
C971 C970 1.370 . S
C971 C972 1.403 . S
C972 C971 1.403 . S
C972 C973 1.404 . S
C972 C975 1.539 . S
C973 C969 1.408 . S
C973 C972 1.404 . S
C973 H985 0.930 . S
C974 C970 1.524 . S
C974 H986 0.956 . S
C974 H987 0.961 . S
C974 H988 0.961 . S
C975 C972 1.539 . S
C975 H989 0.958 . S
C975 H990 0.961 . S
C975 H991 0.960 . S
H976 C960 0.931 . S
H977 C965 0.929 . S
H978 C966 0.960 . S
H979 C966 0.962 . S
H980 C966 0.960 . S
H981 C967 0.961 . S
H982 C967 0.961 . S
H983 C967 0.961 . S
H984 C968 0.931 . S
H985 C973 0.930 . S
H986 C974 0.956 . S
H987 C974 0.961 . S
H988 C974 0.961 . S
H989 C975 0.958 . S
H990 C975 0.961 . S
H991 C975 0.960 . S
C992 C993 1.391 . S
C992 C994 1.394 . S
C992 H1008 0.931 . S
C993 C992 1.391 . S
C993 C997 1.376 . S
C994 C992 1.394 . S
C994 C995 1.369 . S
C994 C998 1.531 . S
C995 C994 1.369 . S
C995 C996 1.410 . S
C995 C1003 1.503 . S
C996 C995 1.410 . S
C996 C997 1.392 . S
C996 C999 1.511 . S
C997 C993 1.376 . S
C997 C996 1.392 . S
C997 H1009 0.929 . S
C998 C994 1.531 . S
C998 H1010 0.960 . S
C998 H1011 0.962 . S
C998 H1012 0.960 . S
C999 C996 1.511 . S
C999 H1013 0.961 . S
C999 H1014 0.961 . S
C999 H1015 0.961 . S
C1000 C1001 1.370 . S
C1000 C1002 1.363 . S
C1000 H1016 0.931 . S
C1001 C1000 1.370 . S
C1001 C1005 1.408 . S
C1002 C1000 1.363 . S
C1002 C1003 1.370 . S
C1002 C1006 1.524 . S
C1003 C995 1.503 . S
C1003 C1002 1.370 . S
C1003 C1004 1.403 . S
C1004 C1003 1.403 . S
C1004 C1005 1.404 . S
C1004 C1007 1.539 . S
C1005 C1001 1.408 . S
C1005 C1004 1.404 . S
C1005 H1017 0.930 . S
C1006 C1002 1.524 . S
C1006 H1018 0.956 . S
C1006 H1019 0.961 . S
C1006 H1020 0.961 . S
C1007 C1004 1.539 . S
C1007 H1021 0.958 . S
C1007 H1022 0.961 . S
C1007 H1023 0.960 . S
H1008 C992 0.931 . S
H1009 C997 0.929 . S
H1010 C998 0.960 . S
H1011 C998 0.962 . S
H1012 C998 0.960 . S
H1013 C999 0.961 . S
H1014 C999 0.961 . S
H1015 C999 0.961 . S
H1016 C1000 0.931 . S
H1017 C1005 0.930 . S
H1018 C1006 0.956 . S
H1019 C1006 0.961 . S
H1020 C1006 0.961 . S
H1021 C1007 0.958 . S
H1022 C1007 0.961 . S
H1023 C1007 0.960 . S
C1024 C1025 1.391 1_554 S
C1024 C1026 1.394 . S
C1024 H1040 0.931 . S
C1025 C1024 1.391 1_556 S
C1025 C1029 1.376 . S
C1026 C1024 1.394 . S
C1026 C1027 1.369 . S
C1026 C1030 1.531 . S
C1027 C1026 1.369 . S
C1027 C1028 1.410 1_554 S
C1027 C1035 1.503 1_565 S
C1028 C1027 1.410 1_556 S
C1028 C1029 1.392 . S
C1028 C1031 1.511 1_565 S
C1029 C1025 1.376 . S
C1029 C1028 1.392 . S
C1029 H1041 0.929 . S
C1030 C1026 1.531 . S
C1030 H1042 0.960 . S
C1030 H1043 0.962 . S
C1030 H1044 0.960 . S
C1031 C1028 1.511 1_545 S
C1031 H1045 0.961 . S
C1031 H1046 0.961 . S
C1031 H1047 0.961 . S
C1032 C1033 1.370 . S
C1032 C1034 1.363 . S
C1032 H1048 0.931 . S
C1033 C1032 1.370 . S
C1033 C1037 1.408 . S
C1034 C1032 1.363 . S
C1034 C1035 1.370 . S
C1034 C1038 1.524 . S
C1035 C1027 1.503 1_545 S
C1035 C1034 1.370 . S
C1035 C1036 1.403 1_545 S
C1036 C1035 1.403 1_565 S
C1036 C1037 1.404 1_565 S
C1036 C1039 1.539 1_554 S
C1037 C1033 1.408 . S
C1037 C1036 1.404 1_545 S
C1037 H1049 0.930 . S
C1038 C1034 1.524 . S
C1038 H1050 0.956 . S
C1038 H1051 0.961 . S
C1038 H1052 0.961 . S
C1039 C1036 1.539 1_556 S
C1039 H1053 0.958 1_556 S
C1039 H1054 0.961 . S
C1039 H1055 0.960 . S
H1040 C1024 0.931 . S
H1041 C1029 0.929 . S
H1042 C1030 0.960 . S
H1043 C1030 0.962 . S
H1044 C1030 0.960 . S
H1045 C1031 0.961 . S
H1046 C1031 0.961 . S
H1047 C1031 0.961 . S
H1048 C1032 0.931 . S
H1049 C1037 0.930 . S
H1050 C1038 0.956 . S
H1051 C1038 0.961 . S
H1052 C1038 0.961 . S
H1053 C1039 0.958 1_554 S
H1054 C1039 0.961 . S
H1055 C1039 0.960 . S
C1056 C1057 1.391 . S
C1056 C1058 1.394 . S
C1056 H1072 0.931 . S
C1057 C1056 1.391 . S
C1057 C1061 1.376 . S
C1058 C1056 1.394 . S
C1058 C1059 1.369 . S
C1058 C1062 1.531 . S
C1059 C1058 1.369 . S
C1059 C1060 1.410 . S
C1059 C1067 1.503 . S
C1060 C1059 1.410 . S
C1060 C1061 1.392 . S
C1060 C1063 1.511 . S
C1061 C1057 1.376 . S
C1061 C1060 1.392 . S
C1061 H1073 0.929 . S
C1062 C1058 1.531 . S
C1062 H1074 0.960 . S
C1062 H1075 0.962 . S
C1062 H1076 0.960 . S
C1063 C1060 1.511 . S
C1063 H1077 0.961 . S
C1063 H1078 0.961 . S
C1063 H1079 0.961 . S
C1064 C1065 1.370 . S
C1064 C1066 1.363 . S
C1064 H1080 0.931 . S
C1065 C1064 1.370 . S
C1065 C1069 1.408 . S
C1066 C1064 1.363 . S
C1066 C1067 1.370 . S
C1066 C1070 1.524 . S
C1067 C1059 1.503 . S
C1067 C1066 1.370 . S
C1067 C1068 1.403 . S
C1068 C1067 1.403 . S
C1068 C1069 1.404 . S
C1068 C1071 1.539 . S
C1069 C1065 1.408 . S
C1069 C1068 1.404 . S
C1069 H1081 0.930 . S
C1070 C1066 1.524 . S
C1070 H1082 0.956 . S
C1070 H1083 0.961 . S
C1070 H1084 0.961 . S
C1071 C1068 1.539 . S
C1071 H1085 0.958 . S
C1071 H1086 0.961 . S
C1071 H1087 0.960 . S
H1072 C1056 0.931 . S
H1073 C1061 0.929 . S
H1074 C1062 0.960 . S
H1075 C1062 0.962 . S
H1076 C1062 0.960 . S
H1077 C1063 0.961 . S
H1078 C1063 0.961 . S
H1079 C1063 0.961 . S
H1080 C1064 0.931 . S
H1081 C1069 0.930 . S
H1082 C1070 0.956 . S
H1083 C1070 0.961 . S
H1084 C1070 0.961 . S
H1085 C1071 0.958 . S
H1086 C1071 0.961 . S
H1087 C1071 0.960 . S
C1088 C1089 1.391 . S
C1088 C1090 1.394 . S
C1088 H1104 0.931 . S
C1089 C1088 1.391 . S
C1089 C1093 1.376 . S
C1090 C1088 1.394 . S
C1090 C1091 1.369 . S
C1090 C1094 1.531 . S
C1091 C1090 1.369 . S
C1091 C1092 1.410 . S
C1091 C1099 1.503 . S
C1092 C1091 1.410 . S
C1092 C1093 1.392 . S
C1092 C1095 1.511 . S
C1093 C1089 1.376 . S
C1093 C1092 1.392 . S
C1093 H1105 0.929 . S
C1094 C1090 1.531 . S
C1094 H1106 0.960 . S
C1094 H1107 0.962 . S
C1094 H1108 0.960 . S
C1095 C1092 1.511 . S
C1095 H1109 0.961 . S
C1095 H1110 0.961 . S
C1095 H1111 0.961 . S
C1096 C1097 1.370 . S
C1096 C1098 1.363 . S
C1096 H1112 0.931 . S
C1097 C1096 1.370 . S
C1097 C1101 1.408 . S
C1098 C1096 1.363 . S
C1098 C1099 1.370 . S
C1098 C1102 1.524 . S
C1099 C1091 1.503 . S
C1099 C1098 1.370 . S
C1099 C1100 1.403 . S
C1100 C1099 1.403 . S
C1100 C1101 1.404 . S
C1100 C1103 1.539 . S
C1101 C1097 1.408 . S
C1101 C1100 1.404 . S
C1101 H1113 0.930 . S
C1102 C1098 1.524 . S
C1102 H1114 0.956 . S
C1102 H1115 0.961 . S
C1102 H1116 0.961 . S
C1103 C1100 1.539 . S
C1103 H1117 0.958 . S
C1103 H1118 0.961 . S
C1103 H1119 0.960 . S
H1104 C1088 0.931 . S
H1105 C1093 0.929 . S
H1106 C1094 0.960 . S
H1107 C1094 0.962 . S
H1108 C1094 0.960 . S
H1109 C1095 0.961 . S
H1110 C1095 0.961 . S
H1111 C1095 0.961 . S
H1112 C1096 0.931 . S
H1113 C1101 0.930 . S
H1114 C1102 0.956 . S
H1115 C1102 0.961 . S
H1116 C1102 0.961 . S
H1117 C1103 0.958 . S
H1118 C1103 0.961 . S
H1119 C1103 0.960 . S
C1120 C1121 1.391 . S
C1120 C1122 1.394 . S
C1120 H1136 0.931 . S
C1121 C1120 1.391 . S
C1121 C1125 1.376 . S
C1122 C1120 1.394 . S
C1122 C1123 1.369 . S
C1122 C1126 1.531 . S
C1123 C1122 1.369 . S
C1123 C1124 1.410 . S
C1123 C1131 1.503 . S
C1124 C1123 1.410 . S
C1124 C1125 1.392 . S
C1124 C1127 1.511 . S
C1125 C1121 1.376 . S
C1125 C1124 1.392 . S
C1125 H1137 0.929 . S
C1126 C1122 1.531 . S
C1126 H1138 0.960 . S
C1126 H1139 0.962 . S
C1126 H1140 0.960 . S
C1127 C1124 1.511 . S
C1127 H1141 0.961 . S
C1127 H1142 0.961 . S
C1127 H1143 0.961 . S
C1128 C1129 1.370 . S
C1128 C1130 1.363 . S
C1128 H1144 0.931 . S
C1129 C1128 1.370 . S
C1129 C1133 1.408 . S
C1130 C1128 1.363 . S
C1130 C1131 1.370 . S
C1130 C1134 1.524 . S
C1131 C1123 1.503 . S
C1131 C1130 1.370 . S
C1131 C1132 1.403 . S
C1132 C1131 1.403 . S
C1132 C1133 1.404 . S
C1132 C1135 1.539 . S
C1133 C1129 1.408 . S
C1133 C1132 1.404 . S
C1133 H1145 0.930 . S
C1134 C1130 1.524 . S
C1134 H1146 0.956 . S
C1134 H1147 0.961 . S
C1134 H1148 0.961 . S
C1135 C1132 1.539 . S
C1135 H1149 0.958 . S
C1135 H1150 0.961 . S
C1135 H1151 0.960 . S
H1136 C1120 0.931 . S
H1137 C1125 0.929 . S
H1138 C1126 0.960 . S
H1139 C1126 0.962 . S
H1140 C1126 0.960 . S
H1141 C1127 0.961 . S
H1142 C1127 0.961 . S
H1143 C1127 0.961 . S
H1144 C1128 0.931 . S
H1145 C1133 0.930 . S
H1146 C1134 0.956 . S
H1147 C1134 0.961 . S
H1148 C1134 0.961 . S
H1149 C1135 0.958 . S
H1150 C1135 0.961 . S
H1151 C1135 0.960 . S
C1152 C1153 1.391 . S
C1152 C1154 1.394 . S
C1152 H1168 0.931 . S
C1153 C1152 1.391 . S
C1153 C1157 1.376 . S
C1154 C1152 1.394 . S
C1154 C1155 1.369 . S
C1154 C1158 1.531 . S
C1155 C1154 1.369 . S
C1155 C1156 1.410 . S
C1155 C1163 1.503 . S
C1156 C1155 1.410 . S
C1156 C1157 1.392 . S
C1156 C1159 1.511 . S
C1157 C1153 1.376 . S
C1157 C1156 1.392 . S
C1157 H1169 0.929 . S
C1158 C1154 1.531 . S
C1158 H1170 0.960 . S
C1158 H1171 0.962 . S
C1158 H1172 0.960 . S
C1159 C1156 1.511 . S
C1159 H1173 0.961 . S
C1159 H1174 0.961 . S
C1159 H1175 0.961 . S
C1160 C1161 1.370 . S
C1160 C1162 1.363 . S
C1160 H1176 0.931 . S
C1161 C1160 1.370 . S
C1161 C1165 1.408 . S
C1162 C1160 1.363 . S
C1162 C1163 1.370 . S
C1162 C1166 1.524 . S
C1163 C1155 1.503 . S
C1163 C1162 1.370 . S
C1163 C1164 1.403 . S
C1164 C1163 1.403 . S
C1164 C1165 1.404 . S
C1164 C1167 1.539 . S
C1165 C1161 1.408 . S
C1165 C1164 1.404 . S
C1165 H1177 0.930 . S
C1166 C1162 1.524 . S
C1166 H1178 0.956 . S
C1166 H1179 0.961 . S
C1166 H1180 0.961 . S
C1167 C1164 1.539 . S
C1167 H1181 0.958 . S
C1167 H1182 0.961 . S
C1167 H1183 0.960 . S
H1168 C1152 0.931 . S
H1169 C1157 0.929 . S
H1170 C1158 0.960 . S
H1171 C1158 0.962 . S
H1172 C1158 0.960 . S
H1173 C1159 0.961 . S
H1174 C1159 0.961 . S
H1175 C1159 0.961 . S
H1176 C1160 0.931 . S
H1177 C1165 0.930 . S
H1178 C1166 0.956 . S
H1179 C1166 0.961 . S
H1180 C1166 0.961 . S
H1181 C1167 0.958 . S
H1182 C1167 0.961 . S
H1183 C1167 0.960 . S
C1184 C1185 1.391 . S
C1184 C1186 1.394 . S
C1184 H1200 0.931 . S
C1185 C1184 1.391 . S
C1185 C1189 1.376 . S
C1186 C1184 1.394 . S
C1186 C1187 1.369 . S
C1186 C1190 1.531 . S
C1187 C1186 1.369 . S
C1187 C1188 1.410 . S
C1187 C1195 1.503 . S
C1188 C1187 1.410 . S
C1188 C1189 1.392 . S
C1188 C1191 1.511 . S
C1189 C1185 1.376 . S
C1189 C1188 1.392 . S
C1189 H1201 0.929 . S
C1190 C1186 1.531 . S
C1190 H1202 0.960 . S
C1190 H1203 0.962 . S
C1190 H1204 0.960 . S
C1191 C1188 1.511 . S
C1191 H1205 0.961 . S
C1191 H1206 0.961 . S
C1191 H1207 0.961 . S
C1192 C1193 1.370 . S
C1192 C1194 1.363 . S
C1192 H1208 0.931 . S
C1193 C1192 1.370 . S
C1193 C1197 1.408 . S
C1194 C1192 1.363 . S
C1194 C1195 1.370 . S
C1194 C1198 1.524 . S
C1195 C1187 1.503 . S
C1195 C1194 1.370 . S
C1195 C1196 1.403 . S
C1196 C1195 1.403 . S
C1196 C1197 1.404 . S
C1196 C1199 1.539 . S
C1197 C1193 1.408 . S
C1197 C1196 1.404 . S
C1197 H1209 0.930 . S
C1198 C1194 1.524 . S
C1198 H1210 0.956 . S
C1198 H1211 0.961 . S
C1198 H1212 0.961 . S
C1199 C1196 1.539 . S
C1199 H1213 0.958 . S
C1199 H1214 0.961 . S
C1199 H1215 0.960 . S
H1200 C1184 0.931 . S
H1201 C1189 0.929 . S
H1202 C1190 0.960 . S
H1203 C1190 0.962 . S
H1204 C1190 0.960 . S
H1205 C1191 0.961 . S
H1206 C1191 0.961 . S
H1207 C1191 0.961 . S
H1208 C1192 0.931 . S
H1209 C1197 0.930 . S
H1210 C1198 0.956 . S
H1211 C1198 0.961 . S
H1212 C1198 0.961 . S
H1213 C1199 0.958 . S
H1214 C1199 0.961 . S
H1215 C1199 0.960 . S
C1216 C1217 1.391 . S
C1216 C1218 1.394 . S
C1216 H1232 0.931 . S
C1217 C1216 1.391 . S
C1217 C1221 1.376 . S
C1218 C1216 1.394 . S
C1218 C1219 1.369 . S
C1218 C1222 1.531 . S
C1219 C1218 1.369 . S
C1219 C1220 1.410 . S
C1219 C1227 1.503 . S
C1220 C1219 1.410 . S
C1220 C1221 1.392 . S
C1220 C1223 1.511 . S
C1221 C1217 1.376 . S
C1221 C1220 1.392 . S
C1221 H1233 0.929 . S
C1222 C1218 1.531 . S
C1222 H1234 0.960 . S
C1222 H1235 0.962 . S
C1222 H1236 0.960 . S
C1223 C1220 1.511 . S
C1223 H1237 0.961 . S
C1223 H1238 0.961 . S
C1223 H1239 0.961 . S
C1224 C1225 1.370 . S
C1224 C1226 1.363 1_556 S
C1224 H1240 0.931 . S
C1225 C1224 1.370 . S
C1225 C1229 1.408 . S
C1226 C1224 1.363 1_554 S
C1226 C1227 1.370 . S
C1226 C1230 1.524 . S
C1227 C1219 1.503 . S
C1227 C1226 1.370 . S
C1227 C1228 1.403 1_554 S
C1228 C1227 1.403 1_556 S
C1228 C1229 1.404 . S
C1228 C1231 1.537 1_556 S
C1229 C1225 1.408 . S
C1229 C1228 1.404 . S
C1229 H1241 0.930 . S
C1230 C1226 1.524 . S
C1230 H1242 0.956 . S
C1230 H1243 0.961 . S
C1230 H1244 0.961 . S
C1231 C1228 1.537 1_554 S
C1231 H1245 0.959 . S
C1231 H1246 0.956 1_554 S
C1231 H1247 0.966 . S
H1232 C1216 0.931 . S
H1233 C1221 0.929 . S
H1234 C1222 0.960 . S
H1235 C1222 0.962 . S
H1236 C1222 0.960 . S
H1237 C1223 0.961 . S
H1238 C1223 0.961 . S
H1239 C1223 0.961 . S
H1240 C1224 0.931 . S
H1241 C1229 0.930 . S
H1242 C1230 0.956 . S
H1243 C1230 0.961 . S
H1244 C1230 0.961 . S
H1245 C1231 0.959 . S
H1246 C1231 0.956 1_556 S
H1247 C1231 0.966 . S
C1248 C1249 1.391 1_556 S
C1248 C1250 1.394 . S
C1248 H1264 0.931 1_556 S
C1249 C1248 1.391 1_554 S
C1249 C1253 1.376 1_554 S
C1250 C1248 1.394 . S
C1250 C1251 1.369 . S
C1250 C1254 1.531 . S
C1251 C1250 1.369 . S
C1251 C1252 1.410 . S
C1251 C1259 1.503 . S
C1252 C1251 1.410 . S
C1252 C1253 1.392 . S
C1252 C1255 1.511 . S
C1253 C1249 1.376 1_556 S
C1253 C1252 1.392 . S
C1253 H1265 0.929 1_556 S
C1254 C1250 1.531 . S
C1254 H1266 0.960 . S
C1254 H1267 0.962 . S
C1254 H1268 0.960 . S
C1255 C1252 1.511 . S
C1255 H1269 0.961 . S
C1255 H1270 0.961 . S
C1255 H1271 0.961 . S
C1256 C1257 1.370 . S
C1256 C1258 1.363 . S
C1256 H1272 0.931 . S
C1257 C1256 1.370 . S
C1257 C1261 1.408 . S
C1258 C1256 1.363 . S
C1258 C1259 1.370 . S
C1258 C1262 1.524 . S
C1259 C1251 1.503 . S
C1259 C1258 1.370 . S
C1259 C1260 1.403 . S
C1260 C1259 1.403 . S
C1260 C1261 1.404 . S
C1260 C1263 1.539 . S
C1261 C1257 1.408 . S
C1261 C1260 1.404 . S
C1261 H1273 0.930 . S
C1262 C1258 1.524 . S
C1262 H1274 0.956 . S
C1262 H1275 0.961 . S
C1262 H1276 0.961 . S
C1263 C1260 1.539 . S
C1263 H1277 0.958 . S
C1263 H1278 0.961 . S
C1263 H1279 0.960 . S
H1264 C1248 0.931 1_554 S
H1265 C1253 0.929 1_554 S
H1266 C1254 0.960 . S
H1267 C1254 0.962 . S
H1268 C1254 0.960 . S
H1269 C1255 0.961 . S
H1270 C1255 0.961 . S
H1271 C1255 0.961 . S
H1272 C1256 0.931 . S
H1273 C1261 0.930 . S
H1274 C1262 0.956 . S
H1275 C1262 0.961 . S
H1276 C1262 0.961 . S
H1277 C1263 0.958 . S
H1278 C1263 0.961 . S
H1279 C1263 0.960 . S
C1280 C1281 1.391 1_556 S
C1280 C1282 1.394 . S
C1280 H1296 0.931 . S
C1281 C1280 1.391 1_554 S
C1281 C1285 1.376 1_554 S
C1282 C1280 1.394 . S
C1282 C1283 1.369 . S
C1282 C1286 1.531 . S
C1283 C1282 1.369 . S
C1283 C1284 1.410 . S
C1283 C1291 1.503 . S
C1284 C1283 1.410 . S
C1284 C1285 1.392 . S
C1284 C1287 1.511 . S
C1285 C1281 1.376 1_556 S
C1285 C1284 1.392 . S
C1285 H1297 0.929 1_556 S
C1286 C1282 1.531 . S
C1286 H1298 0.960 . S
C1286 H1299 0.962 . S
C1286 H1300 0.960 . S
C1287 C1284 1.511 . S
C1287 H1301 0.961 . S
C1287 H1302 0.961 . S
C1287 H1303 0.961 . S
C1288 C1289 1.370 . S
C1288 C1290 1.363 . S
C1288 H1304 0.931 . S
C1289 C1288 1.370 . S
C1289 C1293 1.408 . S
C1290 C1288 1.363 . S
C1290 C1291 1.370 . S
C1290 C1294 1.524 . S
C1291 C1283 1.503 . S
C1291 C1290 1.370 . S
C1291 C1292 1.403 . S
C1292 C1291 1.403 . S
C1292 C1293 1.404 . S
C1292 C1295 1.539 . S
C1293 C1289 1.408 . S
C1293 C1292 1.404 . S
C1293 H1305 0.930 . S
C1294 C1290 1.524 . S
C1294 H1306 0.956 . S
C1294 H1307 0.961 . S
C1294 H1308 0.961 . S
C1295 C1292 1.539 . S
C1295 H1309 0.958 . S
C1295 H1310 0.961 . S
C1295 H1311 0.960 . S
H1296 C1280 0.931 . S
H1297 C1285 0.929 1_554 S
H1298 C1286 0.960 . S
H1299 C1286 0.962 . S
H1300 C1286 0.960 . S
H1301 C1287 0.961 . S
H1302 C1287 0.961 . S
H1303 C1287 0.961 . S
H1304 C1288 0.931 . S
H1305 C1293 0.930 . S
H1306 C1294 0.956 . S
H1307 C1294 0.961 . S
H1308 C1294 0.961 . S
H1309 C1295 0.958 . S
H1310 C1295 0.961 . S
H1311 C1295 0.960 . S
C1312 C1313 1.391 . S
C1312 C1314 1.394 . S
C1312 H1328 0.931 . S
C1313 C1312 1.391 . S
C1313 C1317 1.376 . S
C1314 C1312 1.394 . S
C1314 C1315 1.369 . S
C1314 C1318 1.531 . S
C1315 C1314 1.369 . S
C1315 C1316 1.410 . S
C1315 C1323 1.503 . S
C1316 C1315 1.410 . S
C1316 C1317 1.392 . S
C1316 C1319 1.511 . S
C1317 C1313 1.376 . S
C1317 C1316 1.392 . S
C1317 H1329 0.929 . S
C1318 C1314 1.531 . S
C1318 H1330 0.960 . S
C1318 H1331 0.962 . S
C1318 H1332 0.960 . S
C1319 C1316 1.511 . S
C1319 H1333 0.961 . S
C1319 H1334 0.961 . S
C1319 H1335 0.961 . S
C1320 C1321 1.370 . S
C1320 C1322 1.363 . S
C1320 H1336 0.931 . S
C1321 C1320 1.370 . S
C1321 C1325 1.408 . S
C1322 C1320 1.363 . S
C1322 C1323 1.370 . S
C1322 C1326 1.524 . S
C1323 C1315 1.503 . S
C1323 C1322 1.370 . S
C1323 C1324 1.403 . S
C1324 C1323 1.403 . S
C1324 C1325 1.404 . S
C1324 C1327 1.539 . S
C1325 C1321 1.408 . S
C1325 C1324 1.404 . S
C1325 H1337 0.930 . S
C1326 C1322 1.524 . S
C1326 H1338 0.956 . S
C1326 H1339 0.961 . S
C1326 H1340 0.961 . S
C1327 C1324 1.539 . S
C1327 H1341 0.958 . S
C1327 H1342 0.961 . S
C1327 H1343 0.960 . S
H1328 C1312 0.931 . S
H1329 C1317 0.929 . S
H1330 C1318 0.960 . S
H1331 C1318 0.962 . S
H1332 C1318 0.960 . S
H1333 C1319 0.961 . S
H1334 C1319 0.961 . S
H1335 C1319 0.961 . S
H1336 C1320 0.931 . S
H1337 C1325 0.930 . S
H1338 C1326 0.956 . S
H1339 C1326 0.961 . S
H1340 C1326 0.961 . S
H1341 C1327 0.958 . S
H1342 C1327 0.961 . S
H1343 C1327 0.960 . S
C1344 C1345 1.391 . S
C1344 C1346 1.394 1_556 S
C1344 H1360 0.931 . S
C1345 C1344 1.391 . S
C1345 C1349 1.376 . S
C1346 C1344 1.394 1_554 S
C1346 C1347 1.369 . S
C1346 C1350 1.531 . S
C1347 C1346 1.369 . S
C1347 C1348 1.410 1_554 S
C1347 C1355 1.503 . S
C1348 C1347 1.410 1_556 S
C1348 C1349 1.392 . S
C1348 C1351 1.511 1_556 S
C1349 C1345 1.376 . S
C1349 C1348 1.392 . S
C1349 H1361 0.929 . S
C1350 C1346 1.531 . S
C1350 H1362 0.960 . S
C1350 H1363 0.962 . S
C1350 H1364 0.960 . S
C1351 C1348 1.511 1_554 S
C1351 H1365 0.961 1_554 S
C1351 H1366 0.961 . S
C1351 H1367 0.961 . S
C1352 C1353 1.370 . S
C1352 C1354 1.363 . S
C1352 H1368 0.931 . S
C1353 C1352 1.370 . S
C1353 C1357 1.408 . S
C1354 C1352 1.363 . S
C1354 C1355 1.370 . S
C1354 C1358 1.524 . S
C1355 C1347 1.503 . S
C1355 C1354 1.370 . S
C1355 C1356 1.403 . S
C1356 C1355 1.403 . S
C1356 C1357 1.404 . S
C1356 C1359 1.539 . S
C1357 C1353 1.408 . S
C1357 C1356 1.404 . S
C1357 H1369 0.930 . S
C1358 C1354 1.524 . S
C1358 H1370 0.956 . S
C1358 H1371 0.961 . S
C1358 H1372 0.961 . S
C1359 C1356 1.539 . S
C1359 H1373 0.958 . S
C1359 H1374 0.961 . S
C1359 H1375 0.960 . S
H1360 C1344 0.931 . S
H1361 C1349 0.929 . S
H1362 C1350 0.960 . S
H1363 C1350 0.962 . S
H1364 C1350 0.960 . S
H1365 C1351 0.961 1_556 S
H1366 C1351 0.961 . S
H1367 C1351 0.961 . S
H1368 C1352 0.931 . S
H1369 C1357 0.930 . S
H1370 C1358 0.956 . S
H1371 C1358 0.961 . S
H1372 C1358 0.961 . S
H1373 C1359 0.958 . S
H1374 C1359 0.961 . S
H1375 C1359 0.960 . S
C1376 C1377 1.391 1_556 S
C1376 C1378 1.394 . S
C1376 H1392 0.931 . S
C1377 C1376 1.391 1_554 S
C1377 C1381 1.376 1_554 S
C1378 C1376 1.394 . S
C1378 C1379 1.369 . S
C1378 C1382 1.531 . S
C1379 C1378 1.369 . S
C1379 C1380 1.410 . S
C1379 C1387 1.503 . S
C1380 C1379 1.410 . S
C1380 C1381 1.392 . S
C1380 C1383 1.511 . S
C1381 C1377 1.376 1_556 S
C1381 C1380 1.392 . S
C1381 H1393 0.929 1_556 S
C1382 C1378 1.531 . S
C1382 H1394 0.960 . S
C1382 H1395 0.962 . S
C1382 H1396 0.960 . S
C1383 C1380 1.511 . S
C1383 H1397 0.961 . S
C1383 H1398 0.961 . S
C1383 H1399 0.961 . S
C1384 C1385 1.370 . S
C1384 C1386 1.363 . S
C1384 H1400 0.931 . S
C1385 C1384 1.370 . S
C1385 C1389 1.408 . S
C1386 C1384 1.363 . S
C1386 C1387 1.370 . S
C1386 C1390 1.524 . S
C1387 C1379 1.503 . S
C1387 C1386 1.370 . S
C1387 C1388 1.403 . S
C1388 C1387 1.403 . S
C1388 C1389 1.404 . S
C1388 C1391 1.539 . S
C1389 C1385 1.408 . S
C1389 C1388 1.404 . S
C1389 H1401 0.930 . S
C1390 C1386 1.524 . S
C1390 H1402 0.956 . S
C1390 H1403 0.961 . S
C1390 H1404 0.961 . S
C1391 C1388 1.539 . S
C1391 H1405 0.958 . S
C1391 H1406 0.961 . S
C1391 H1407 0.960 . S
H1392 C1376 0.931 . S
H1393 C1381 0.929 1_554 S
H1394 C1382 0.960 . S
H1395 C1382 0.962 . S
H1396 C1382 0.960 . S
H1397 C1383 0.961 . S
H1398 C1383 0.961 . S
H1399 C1383 0.961 . S
H1400 C1384 0.931 . S
H1401 C1389 0.930 . S
H1402 C1390 0.956 . S
H1403 C1390 0.961 . S
H1404 C1390 0.961 . S
H1405 C1391 0.958 . S
H1406 C1391 0.961 . S
H1407 C1391 0.960 . S
C1408 C1409 1.391 1_556 S
C1408 C1410 1.394 . S
C1408 H1424 0.931 . S
C1409 C1408 1.391 1_554 S
C1409 C1413 1.376 1_554 S
C1410 C1408 1.394 . S
C1410 C1411 1.369 . S
C1410 C1414 1.531 . S
C1411 C1410 1.369 . S
C1411 C1412 1.410 . S
C1411 C1419 1.503 . S
C1412 C1411 1.410 . S
C1412 C1413 1.392 . S
C1412 C1415 1.511 . S
C1413 C1409 1.376 1_556 S
C1413 C1412 1.392 . S
C1413 H1425 0.929 1_556 S
C1414 C1410 1.531 . S
C1414 H1426 0.960 . S
C1414 H1427 0.962 . S
C1414 H1428 0.960 . S
C1415 C1412 1.511 . S
C1415 H1429 0.961 . S
C1415 H1430 0.961 . S
C1415 H1431 0.961 . S
C1416 C1417 1.370 . S
C1416 C1418 1.363 . S
C1416 H1432 0.931 . S
C1417 C1416 1.370 . S
C1417 C1421 1.408 . S
C1418 C1416 1.363 . S
C1418 C1419 1.370 . S
C1418 C1422 1.524 . S
C1419 C1411 1.503 . S
C1419 C1418 1.370 . S
C1419 C1420 1.403 . S
C1420 C1419 1.403 . S
C1420 C1421 1.404 . S
C1420 C1423 1.539 . S
C1421 C1417 1.408 . S
C1421 C1420 1.404 . S
C1421 H1433 0.930 . S
C1422 C1418 1.524 . S
C1422 H1434 0.956 . S
C1422 H1435 0.961 . S
C1422 H1436 0.961 . S
C1423 C1420 1.539 . S
C1423 H1437 0.958 . S
C1423 H1438 0.961 . S
C1423 H1439 0.960 . S
H1424 C1408 0.931 . S
H1425 C1413 0.929 1_554 S
H1426 C1414 0.960 . S
H1427 C1414 0.962 . S
H1428 C1414 0.960 . S
H1429 C1415 0.961 . S
H1430 C1415 0.961 . S
H1431 C1415 0.961 . S
H1432 C1416 0.931 . S
H1433 C1421 0.930 . S
H1434 C1422 0.956 . S
H1435 C1422 0.961 . S
H1436 C1422 0.961 . S
H1437 C1423 0.958 . S
H1438 C1423 0.961 . S
H1439 C1423 0.960 . S
C1440 C1441 1.391 . S
C1440 C1442 1.394 . S
C1440 H1456 0.931 . S
C1441 C1440 1.391 . S
C1441 C1445 1.376 . S
C1442 C1440 1.394 . S
C1442 C1443 1.369 . S
C1442 C1446 1.531 . S
C1443 C1442 1.369 . S
C1443 C1444 1.410 . S
C1443 C1451 1.503 . S
C1444 C1443 1.410 . S
C1444 C1445 1.392 . S
C1444 C1447 1.511 . S
C1445 C1441 1.376 . S
C1445 C1444 1.392 . S
C1445 H1457 0.929 . S
C1446 C1442 1.531 . S
C1446 H1458 0.960 . S
C1446 H1459 0.962 . S
C1446 H1460 0.960 . S
C1447 C1444 1.511 . S
C1447 H1461 0.961 . S
C1447 H1462 0.961 . S
C1447 H1463 0.961 . S
C1448 C1449 1.370 . S
C1448 C1450 1.363 . S
C1448 H1464 0.931 . S
C1449 C1448 1.370 . S
C1449 C1453 1.408 . S
C1450 C1448 1.363 . S
C1450 C1451 1.370 . S
C1450 C1454 1.524 . S
C1451 C1443 1.503 . S
C1451 C1450 1.370 . S
C1451 C1452 1.403 . S
C1452 C1451 1.403 . S
C1452 C1453 1.404 . S
C1452 C1455 1.539 . S
C1453 C1449 1.408 . S
C1453 C1452 1.404 . S
C1453 H1465 0.930 . S
C1454 C1450 1.524 . S
C1454 H1466 0.956 . S
C1454 H1467 0.961 . S
C1454 H1468 0.961 . S
C1455 C1452 1.539 . S
C1455 H1469 0.958 . S
C1455 H1470 0.961 . S
C1455 H1471 0.960 . S
H1456 C1440 0.931 . S
H1457 C1445 0.929 . S
H1458 C1446 0.960 . S
H1459 C1446 0.962 . S
H1460 C1446 0.960 . S
H1461 C1447 0.961 . S
H1462 C1447 0.961 . S
H1463 C1447 0.961 . S
H1464 C1448 0.931 . S
H1465 C1453 0.930 . S
H1466 C1454 0.956 . S
H1467 C1454 0.961 . S
H1468 C1454 0.961 . S
H1469 C1455 0.958 . S
H1470 C1455 0.961 . S
H1471 C1455 0.960 . S
C1472 C1473 1.391 . S
C1472 C1474 1.394 . S
C1472 H1488 0.931 . S
C1473 C1472 1.391 . S
C1473 C1477 1.376 . S
C1474 C1472 1.394 . S
C1474 C1475 1.369 . S
C1474 C1478 1.531 . S
C1475 C1474 1.369 . S
C1475 C1476 1.410 . S
C1475 C1483 1.503 . S
C1476 C1475 1.410 . S
C1476 C1477 1.392 . S
C1476 C1479 1.511 . S
C1477 C1473 1.376 . S
C1477 C1476 1.392 . S
C1477 H1489 0.929 . S
C1478 C1474 1.531 . S
C1478 H1490 0.960 . S
C1478 H1491 0.962 . S
C1478 H1492 0.960 . S
C1479 C1476 1.511 . S
C1479 H1493 0.961 . S
C1479 H1494 0.961 . S
C1479 H1495 0.961 . S
C1480 C1481 1.370 . S
C1480 C1482 1.363 . S
C1480 H1496 0.931 . S
C1481 C1480 1.370 . S
C1481 C1485 1.408 . S
C1482 C1480 1.363 . S
C1482 C1483 1.370 . S
C1482 C1486 1.524 . S
C1483 C1475 1.503 . S
C1483 C1482 1.370 . S
C1483 C1484 1.403 . S
C1484 C1483 1.403 . S
C1484 C1485 1.404 . S
C1484 C1487 1.539 . S
C1485 C1481 1.408 . S
C1485 C1484 1.404 . S
C1485 H1497 0.930 . S
C1486 C1482 1.524 . S
C1486 H1498 0.956 . S
C1486 H1499 0.961 . S
C1486 H1500 0.961 . S
C1487 C1484 1.539 . S
C1487 H1501 0.958 . S
C1487 H1502 0.961 . S
C1487 H1503 0.960 . S
H1488 C1472 0.931 . S
H1489 C1477 0.929 . S
H1490 C1478 0.960 . S
H1491 C1478 0.962 . S
H1492 C1478 0.960 . S
H1493 C1479 0.961 . S
H1494 C1479 0.961 . S
H1495 C1479 0.961 . S
H1496 C1480 0.931 . S
H1497 C1485 0.930 . S
H1498 C1486 0.956 . S
H1499 C1486 0.961 . S
H1500 C1486 0.961 . S
H1501 C1487 0.958 . S
H1502 C1487 0.961 . S
H1503 C1487 0.960 . S
C1504 C1505 1.391 . S
C1504 C1506 1.394 . S
C1504 H1520 0.931 . S
C1505 C1504 1.391 . S
C1505 C1509 1.376 . S
C1506 C1504 1.394 . S
C1506 C1507 1.369 . S
C1506 C1510 1.531 . S
C1507 C1506 1.369 . S
C1507 C1508 1.410 . S
C1507 C1515 1.503 . S
C1508 C1507 1.410 . S
C1508 C1509 1.392 . S
C1508 C1511 1.511 . S
C1509 C1505 1.376 . S
C1509 C1508 1.392 . S
C1509 H1521 0.929 . S
C1510 C1506 1.531 . S
C1510 H1522 0.960 . S
C1510 H1523 0.962 . S
C1510 H1524 0.960 . S
C1511 C1508 1.511 . S
C1511 H1525 0.961 . S
C1511 H1526 0.961 . S
C1511 H1527 0.961 . S
C1512 C1513 1.370 . S
C1512 C1514 1.363 . S
C1512 H1528 0.931 . S
C1513 C1512 1.370 . S
C1513 C1517 1.408 . S
C1514 C1512 1.363 . S
C1514 C1515 1.370 . S
C1514 C1518 1.524 . S
C1515 C1507 1.503 . S
C1515 C1514 1.370 . S
C1515 C1516 1.403 . S
C1516 C1515 1.403 . S
C1516 C1517 1.404 . S
C1516 C1519 1.539 . S
C1517 C1513 1.408 . S
C1517 C1516 1.404 . S
C1517 H1529 0.930 . S
C1518 C1514 1.524 . S
C1518 H1530 0.956 . S
C1518 H1531 0.961 . S
C1518 H1532 0.961 . S
C1519 C1516 1.539 . S
C1519 H1533 0.958 . S
C1519 H1534 0.961 . S
C1519 H1535 0.960 . S
H1520 C1504 0.931 . S
H1521 C1509 0.929 . S
H1522 C1510 0.960 . S
H1523 C1510 0.962 . S
H1524 C1510 0.960 . S
H1525 C1511 0.961 . S
H1526 C1511 0.961 . S
H1527 C1511 0.961 . S
H1528 C1512 0.931 . S
H1529 C1517 0.930 . S
H1530 C1518 0.956 . S
H1531 C1518 0.961 . S
H1532 C1518 0.961 . S
H1533 C1519 0.958 . S
H1534 C1519 0.961 . S
H1535 C1519 0.960 . S
C1536 C1537 1.391 . S
C1536 C1538 1.394 . S
C1536 H1552 0.931 . S
C1537 C1536 1.391 . S
C1537 C1541 1.376 . S
C1538 C1536 1.394 . S
C1538 C1539 1.369 . S
C1538 C1542 1.531 . S
C1539 C1538 1.369 . S
C1539 C1540 1.410 . S
C1539 C1547 1.503 . S
C1540 C1539 1.410 . S
C1540 C1541 1.392 . S
C1540 C1543 1.511 . S
C1541 C1537 1.376 . S
C1541 C1540 1.392 . S
C1541 H1553 0.929 . S
C1542 C1538 1.531 . S
C1542 H1554 0.960 . S
C1542 H1555 0.962 . S
C1542 H1556 0.960 . S
C1543 C1540 1.511 . S
C1543 H1557 0.961 . S
C1543 H1558 0.961 . S
C1543 H1559 0.961 . S
C1544 C1545 1.370 . S
C1544 C1546 1.363 . S
C1544 H1560 0.931 . S
C1545 C1544 1.370 . S
C1545 C1549 1.408 . S
C1546 C1544 1.363 . S
C1546 C1547 1.370 . S
C1546 C1550 1.524 . S
C1547 C1539 1.503 . S
C1547 C1546 1.370 . S
C1547 C1548 1.403 . S
C1548 C1547 1.403 . S
C1548 C1549 1.404 . S
C1548 C1551 1.539 . S
C1549 C1545 1.408 . S
C1549 C1548 1.404 . S
C1549 H1561 0.930 . S
C1550 C1546 1.524 . S
C1550 H1562 0.956 . S
C1550 H1563 0.961 . S
C1550 H1564 0.961 . S
C1551 C1548 1.539 . S
C1551 H1565 0.958 . S
C1551 H1566 0.961 . S
C1551 H1567 0.960 . S
H1552 C1536 0.931 . S
H1553 C1541 0.929 . S
H1554 C1542 0.960 . S
H1555 C1542 0.962 . S
H1556 C1542 0.960 . S
H1557 C1543 0.961 . S
H1558 C1543 0.961 . S
H1559 C1543 0.961 . S
H1560 C1544 0.931 . S
H1561 C1549 0.930 . S
H1562 C1550 0.956 . S
H1563 C1550 0.961 . S
H1564 C1550 0.961 . S
H1565 C1551 0.958 . S
H1566 C1551 0.961 . S
H1567 C1551 0.960 . S
C1568 C1569 1.391 . S
C1568 C1570 1.394 . S
C1568 H1584 0.931 . S
C1569 C1568 1.391 . S
C1569 C1573 1.376 . S
C1570 C1568 1.394 . S
C1570 C1571 1.369 . S
C1570 C1574 1.531 . S
C1571 C1570 1.369 . S
C1571 C1572 1.410 . S
C1571 C1579 1.503 . S
C1572 C1571 1.410 . S
C1572 C1573 1.392 . S
C1572 C1575 1.511 . S
C1573 C1569 1.376 . S
C1573 C1572 1.392 . S
C1573 H1585 0.929 . S
C1574 C1570 1.531 . S
C1574 H1586 0.960 . S
C1574 H1587 0.962 . S
C1574 H1588 0.960 . S
C1575 C1572 1.511 . S
C1575 H1589 0.961 . S
C1575 H1590 0.961 . S
C1575 H1591 0.961 . S
C1576 C1577 1.370 . S
C1576 C1578 1.363 . S
C1576 H1592 0.931 . S
C1577 C1576 1.370 . S
C1577 C1581 1.408 . S
C1578 C1576 1.363 . S
C1578 C1579 1.370 . S
C1578 C1582 1.524 . S
C1579 C1571 1.503 . S
C1579 C1578 1.370 . S
C1579 C1580 1.403 . S
C1580 C1579 1.403 . S
C1580 C1581 1.404 . S
C1580 C1583 1.539 . S
C1581 C1577 1.408 . S
C1581 C1580 1.404 . S
C1581 H1593 0.930 . S
C1582 C1578 1.524 . S
C1582 H1594 0.956 . S
C1582 H1595 0.961 . S
C1582 H1596 0.961 . S
C1583 C1580 1.539 . S
C1583 H1597 0.958 1_554 S
C1583 H1598 0.961 . S
C1583 H1599 0.960 . S
H1584 C1568 0.931 . S
H1585 C1573 0.929 . S
H1586 C1574 0.960 . S
H1587 C1574 0.962 . S
H1588 C1574 0.960 . S
H1589 C1575 0.961 . S
H1590 C1575 0.961 . S
H1591 C1575 0.961 . S
H1592 C1576 0.931 . S
H1593 C1581 0.930 . S
H1594 C1582 0.956 . S
H1595 C1582 0.961 . S
H1596 C1582 0.961 . S
H1597 C1583 0.958 1_556 S
H1598 C1583 0.961 . S
H1599 C1583 0.960 . S
C1600 C1601 1.391 . S
C1600 C1602 1.394 . S
C1600 H1616 0.931 . S
C1601 C1600 1.391 . S
C1601 C1605 1.376 . S
C1602 C1600 1.394 . S
C1602 C1603 1.369 . S
C1602 C1606 1.531 . S
C1603 C1602 1.369 . S
C1603 C1604 1.410 . S
C1603 C1611 1.503 . S
C1604 C1603 1.410 . S
C1604 C1605 1.392 . S
C1604 C1607 1.511 . S
C1605 C1601 1.376 . S
C1605 C1604 1.392 . S
C1605 H1617 0.929 . S
C1606 C1602 1.531 . S
C1606 H1618 0.960 . S
C1606 H1619 0.962 . S
C1606 H1620 0.960 . S
C1607 C1604 1.511 . S
C1607 H1621 0.961 . S
C1607 H1622 0.961 . S
C1607 H1623 0.961 . S
C1608 C1609 1.370 . S
C1608 C1610 1.363 . S
C1608 H1624 0.931 . S
C1609 C1608 1.370 . S
C1609 C1613 1.408 . S
C1610 C1608 1.363 . S
C1610 C1611 1.370 . S
C1610 C1614 1.524 . S
C1611 C1603 1.503 . S
C1611 C1610 1.370 . S
C1611 C1612 1.403 . S
C1612 C1611 1.403 . S
C1612 C1613 1.404 . S
C1612 C1615 1.539 . S
C1613 C1609 1.408 . S
C1613 C1612 1.404 . S
C1613 H1625 0.930 . S
C1614 C1610 1.524 . S
C1614 H1626 0.956 . S
C1614 H1627 0.961 . S
C1614 H1628 0.961 1_556 S
C1615 C1612 1.539 . S
C1615 H1629 0.958 . S
C1615 H1630 0.961 . S
C1615 H1631 0.960 . S
H1616 C1600 0.931 . S
H1617 C1605 0.929 . S
H1618 C1606 0.960 . S
H1619 C1606 0.962 . S
H1620 C1606 0.960 . S
H1621 C1607 0.961 . S
H1622 C1607 0.961 . S
H1623 C1607 0.961 . S
H1624 C1608 0.931 . S
H1625 C1613 0.930 . S
H1626 C1614 0.956 . S
H1627 C1614 0.961 . S
H1628 C1614 0.961 1_554 S
H1629 C1615 0.958 . S
H1630 C1615 0.961 . S
H1631 C1615 0.960 . S
C1632 C1633 1.391 . S
C1632 C1634 1.394 . S
C1632 H1648 0.931 . S
C1633 C1632 1.391 . S
C1633 C1637 1.376 . S
C1634 C1632 1.394 . S
C1634 C1635 1.369 . S
C1634 C1638 1.531 . S
C1635 C1634 1.369 . S
C1635 C1636 1.410 . S
C1635 C1643 1.503 . S
C1636 C1635 1.410 . S
C1636 C1637 1.392 . S
C1636 C1639 1.511 . S
C1637 C1633 1.376 . S
C1637 C1636 1.392 . S
C1637 H1649 0.929 . S
C1638 C1634 1.531 . S
C1638 H1650 0.960 . S
C1638 H1651 0.962 . S
C1638 H1652 0.960 . S
C1639 C1636 1.511 . S
C1639 H1653 0.961 . S
C1639 H1654 0.961 . S
C1639 H1655 0.961 . S
C1640 C1641 1.370 . S
C1640 C1642 1.363 . S
C1640 H1656 0.931 . S
C1641 C1640 1.370 . S
C1641 C1645 1.408 . S
C1642 C1640 1.363 . S
C1642 C1643 1.370 . S
C1642 C1646 1.524 . S
C1643 C1635 1.503 . S
C1643 C1642 1.370 . S
C1643 C1644 1.403 . S
C1644 C1643 1.403 . S
C1644 C1645 1.404 . S
C1644 C1647 1.539 . S
C1645 C1641 1.408 . S
C1645 C1644 1.404 . S
C1645 H1657 0.930 . S
C1646 C1642 1.524 . S
C1646 H1658 0.956 . S
C1646 H1659 0.961 . S
C1646 H1660 0.961 . S
C1647 C1644 1.539 . S
C1647 H1661 0.958 . S
C1647 H1662 0.961 . S
C1647 H1663 0.960 . S
H1648 C1632 0.931 . S
H1649 C1637 0.929 . S
H1650 C1638 0.960 . S
H1651 C1638 0.962 . S
H1652 C1638 0.960 . S
H1653 C1639 0.961 . S
H1654 C1639 0.961 . S
H1655 C1639 0.961 . S
H1656 C1640 0.931 . S
H1657 C1645 0.930 . S
H1658 C1646 0.956 . S
H1659 C1646 0.961 . S
H1660 C1646 0.961 . S
H1661 C1647 0.958 . S
H1662 C1647 0.961 . S
H1663 C1647 0.960 . S
C1664 C1665 1.391 . S
C1664 C1666 1.394 . S
C1664 H1680 0.931 . S
C1665 C1664 1.391 . S
C1665 C1669 1.376 . S
C1666 C1664 1.394 . S
C1666 C1667 1.369 . S
C1666 C1670 1.531 . S
C1667 C1666 1.369 . S
C1667 C1668 1.410 . S
C1667 C1675 1.503 . S
C1668 C1667 1.410 . S
C1668 C1669 1.392 . S
C1668 C1671 1.511 . S
C1669 C1665 1.376 . S
C1669 C1668 1.392 . S
C1669 H1681 0.929 . S
C1670 C1666 1.531 . S
C1670 H1682 0.960 . S
C1670 H1683 0.962 . S
C1670 H1684 0.960 . S
C1671 C1668 1.511 . S
C1671 H1685 0.961 . S
C1671 H1686 0.961 . S
C1671 H1687 0.961 . S
C1672 C1673 1.370 . S
C1672 C1674 1.363 . S
C1672 H1688 0.931 . S
C1673 C1672 1.370 . S
C1673 C1677 1.408 . S
C1674 C1672 1.363 . S
C1674 C1675 1.370 . S
C1674 C1678 1.524 . S
C1675 C1667 1.503 . S
C1675 C1674 1.370 . S
C1675 C1676 1.403 . S
C1676 C1675 1.403 . S
C1676 C1677 1.404 . S
C1676 C1679 1.539 . S
C1677 C1673 1.408 . S
C1677 C1676 1.404 . S
C1677 H1689 0.930 . S
C1678 C1674 1.524 . S
C1678 H1690 0.956 . S
C1678 H1691 0.961 . S
C1678 H1692 0.961 . S
C1679 C1676 1.539 . S
C1679 H1693 0.958 . S
C1679 H1694 0.961 . S
C1679 H1695 0.960 . S
H1680 C1664 0.931 . S
H1681 C1669 0.929 . S
H1682 C1670 0.960 . S
H1683 C1670 0.962 . S
H1684 C1670 0.960 . S
H1685 C1671 0.961 . S
H1686 C1671 0.961 . S
H1687 C1671 0.961 . S
H1688 C1672 0.931 . S
H1689 C1677 0.930 . S
H1690 C1678 0.956 . S
H1691 C1678 0.961 . S
H1692 C1678 0.961 . S
H1693 C1679 0.958 . S
H1694 C1679 0.961 . S
H1695 C1679 0.960 . S
C1696 C1697 1.391 . S
C1696 C1698 1.394 . S
C1696 H1712 0.931 . S
C1697 C1696 1.391 . S
C1697 C1701 1.376 . S
C1698 C1696 1.394 . S
C1698 C1699 1.369 . S
C1698 C1702 1.531 . S
C1699 C1698 1.369 . S
C1699 C1700 1.410 . S
C1699 C1707 1.503 . S
C1700 C1699 1.410 . S
C1700 C1701 1.392 . S
C1700 C1703 1.511 . S
C1701 C1697 1.376 . S
C1701 C1700 1.392 . S
C1701 H1713 0.929 . S
C1702 C1698 1.531 . S
C1702 H1714 0.960 . S
C1702 H1715 0.962 . S
C1702 H1716 0.960 . S
C1703 C1700 1.511 . S
C1703 H1717 0.961 . S
C1703 H1718 0.961 . S
C1703 H1719 0.961 . S
C1704 C1705 1.370 . S
C1704 C1706 1.363 . S
C1704 H1720 0.931 . S
C1705 C1704 1.370 . S
C1705 C1709 1.408 . S
C1706 C1704 1.363 . S
C1706 C1707 1.370 . S
C1706 C1710 1.524 . S
C1707 C1699 1.503 . S
C1707 C1706 1.370 . S
C1707 C1708 1.403 . S
C1708 C1707 1.403 . S
C1708 C1709 1.404 . S
C1708 C1711 1.539 . S
C1709 C1705 1.408 . S
C1709 C1708 1.404 . S
C1709 H1721 0.930 . S
C1710 C1706 1.524 . S
C1710 H1722 0.956 . S
C1710 H1723 0.961 . S
C1710 H1724 0.961 . S
C1711 C1708 1.539 . S
C1711 H1725 0.958 . S
C1711 H1726 0.961 . S
C1711 H1727 0.960 . S
H1712 C1696 0.931 . S
H1713 C1701 0.929 . S
H1714 C1702 0.960 . S
H1715 C1702 0.962 . S
H1716 C1702 0.960 . S
H1717 C1703 0.961 . S
H1718 C1703 0.961 . S
H1719 C1703 0.961 . S
H1720 C1704 0.931 . S
H1721 C1709 0.930 . S
H1722 C1710 0.956 . S
H1723 C1710 0.961 . S
H1724 C1710 0.961 . S
H1725 C1711 0.958 . S
H1726 C1711 0.961 . S
H1727 C1711 0.960 . S
C1728 C1729 1.391 . S
C1728 C1730 1.394 . S
C1728 H1744 0.931 . S
C1729 C1728 1.391 . S
C1729 C1733 1.376 . S
C1730 C1728 1.394 . S
C1730 C1731 1.369 . S
C1730 C1734 1.531 . S
C1731 C1730 1.369 . S
C1731 C1732 1.410 . S
C1731 C1739 1.503 . S
C1732 C1731 1.410 . S
C1732 C1733 1.392 . S
C1732 C1735 1.511 . S
C1733 C1729 1.376 . S
C1733 C1732 1.392 . S
C1733 H1745 0.929 . S
C1734 C1730 1.531 . S
C1734 H1746 0.960 . S
C1734 H1747 0.962 . S
C1734 H1748 0.960 . S
C1735 C1732 1.511 . S
C1735 H1749 0.961 . S
C1735 H1750 0.961 . S
C1735 H1751 0.961 . S
C1736 C1737 1.370 . S
C1736 C1738 1.363 . S
C1736 H1752 0.931 . S
C1737 C1736 1.370 . S
C1737 C1741 1.408 . S
C1738 C1736 1.363 . S
C1738 C1739 1.370 . S
C1738 C1742 1.524 . S
C1739 C1731 1.503 . S
C1739 C1738 1.370 . S
C1739 C1740 1.403 . S
C1740 C1739 1.403 . S
C1740 C1741 1.404 . S
C1740 C1743 1.539 . S
C1741 C1737 1.408 . S
C1741 C1740 1.404 . S
C1741 H1753 0.930 . S
C1742 C1738 1.524 . S
C1742 H1754 0.956 . S
C1742 H1755 0.961 . S
C1742 H1756 0.961 . S
C1743 C1740 1.539 . S
C1743 H1757 0.958 . S
C1743 H1758 0.961 . S
C1743 H1759 0.960 . S
H1744 C1728 0.931 . S
H1745 C1733 0.929 . S
H1746 C1734 0.960 . S
H1747 C1734 0.962 . S
H1748 C1734 0.960 . S
H1749 C1735 0.961 . S
H1750 C1735 0.961 . S
H1751 C1735 0.961 . S
H1752 C1736 0.931 . S
H1753 C1741 0.930 . S
H1754 C1742 0.956 . S
H1755 C1742 0.961 . S
H1756 C1742 0.961 . S
H1757 C1743 0.958 . S
H1758 C1743 0.961 . S
H1759 C1743 0.960 . S
C1760 C1761 1.391 . S
C1760 C1762 1.394 . S
C1760 H1776 0.931 . S
C1761 C1760 1.391 . S
C1761 C1765 1.376 . S
C1762 C1760 1.394 . S
C1762 C1763 1.369 . S
C1762 C1766 1.531 . S
C1763 C1762 1.369 . S
C1763 C1764 1.410 . S
C1763 C1771 1.503 . S
C1764 C1763 1.410 . S
C1764 C1765 1.392 . S
C1764 C1767 1.511 . S
C1765 C1761 1.376 . S
C1765 C1764 1.392 . S
C1765 H1777 0.929 . S
C1766 C1762 1.531 . S
C1766 H1778 0.960 . S
C1766 H1779 0.962 . S
C1766 H1780 0.960 . S
C1767 C1764 1.511 . S
C1767 H1781 0.961 . S
C1767 H1782 0.961 . S
C1767 H1783 0.961 . S
C1768 C1769 1.370 . S
C1768 C1770 1.363 . S
C1768 H1784 0.931 . S
C1769 C1768 1.370 . S
C1769 C1773 1.408 . S
C1770 C1768 1.363 . S
C1770 C1771 1.370 . S
C1770 C1774 1.524 . S
C1771 C1763 1.503 . S
C1771 C1770 1.370 . S
C1771 C1772 1.403 . S
C1772 C1771 1.403 . S
C1772 C1773 1.404 . S
C1772 C1775 1.539 . S
C1773 C1769 1.408 . S
C1773 C1772 1.404 . S
C1773 H1785 0.930 . S
C1774 C1770 1.524 . S
C1774 H1786 0.956 . S
C1774 H1787 0.961 . S
C1774 H1788 0.961 . S
C1775 C1772 1.539 . S
C1775 H1789 0.958 . S
C1775 H1790 0.961 . S
C1775 H1791 0.960 . S
H1776 C1760 0.931 . S
H1777 C1765 0.929 . S
H1778 C1766 0.960 . S
H1779 C1766 0.962 . S
H1780 C1766 0.960 . S
H1781 C1767 0.961 . S
H1782 C1767 0.961 . S
H1783 C1767 0.961 . S
H1784 C1768 0.931 . S
H1785 C1773 0.930 . S
H1786 C1774 0.956 . S
H1787 C1774 0.961 . S
H1788 C1774 0.961 . S
H1789 C1775 0.958 . S
H1790 C1775 0.961 . S
H1791 C1775 0.960 . S
C1792 C1793 1.391 . S
C1792 C1794 1.394 . S
C1792 H1808 0.931 . S
C1793 C1792 1.391 . S
C1793 C1797 1.376 . S
C1794 C1792 1.394 . S
C1794 C1795 1.369 . S
C1794 C1798 1.531 . S
C1795 C1794 1.369 . S
C1795 C1796 1.410 . S
C1795 C1803 1.503 . S
C1796 C1795 1.410 . S
C1796 C1797 1.392 . S
C1796 C1799 1.511 . S
C1797 C1793 1.376 . S
C1797 C1796 1.392 . S
C1797 H1809 0.929 . S
C1798 C1794 1.531 . S
C1798 H1810 0.960 . S
C1798 H1811 0.962 . S
C1798 H1812 0.960 . S
C1799 C1796 1.511 . S
C1799 H1813 0.961 . S
C1799 H1814 0.961 . S
C1799 H1815 0.961 . S
C1800 C1801 1.370 . S
C1800 C1802 1.363 . S
C1800 H1816 0.931 . S
C1801 C1800 1.370 . S
C1801 C1805 1.408 . S
C1802 C1800 1.363 . S
C1802 C1803 1.370 . S
C1802 C1806 1.524 . S
C1803 C1795 1.503 . S
C1803 C1802 1.370 . S
C1803 C1804 1.403 . S
C1804 C1803 1.403 . S
C1804 C1805 1.404 . S
C1804 C1807 1.539 . S
C1805 C1801 1.408 . S
C1805 C1804 1.404 . S
C1805 H1817 0.930 . S
C1806 C1802 1.524 . S
C1806 H1818 0.956 . S
C1806 H1819 0.961 . S
C1806 H1820 0.961 1_556 S
C1807 C1804 1.539 . S
C1807 H1821 0.958 . S
C1807 H1822 0.961 . S
C1807 H1823 0.960 . S
H1808 C1792 0.931 . S
H1809 C1797 0.929 . S
H1810 C1798 0.960 . S
H1811 C1798 0.962 . S
H1812 C1798 0.960 . S
H1813 C1799 0.961 . S
H1814 C1799 0.961 . S
H1815 C1799 0.961 . S
H1816 C1800 0.931 . S
H1817 C1805 0.930 . S
H1818 C1806 0.956 . S
H1819 C1806 0.961 . S
H1820 C1806 0.961 1_554 S
H1821 C1807 0.958 . S
H1822 C1807 0.961 . S
H1823 C1807 0.960 . S
C545 C360 1.556 . S
C553 C20 1.569 . S
C577 C67 1.579 . S
C585 C258 1.597 . S
C609 C543 1.551 . S
C617 C54 1.534 . S
C641 C101 1.578 . S
C649 C33 1.562 . S
C673 C88 1.581 . S
C681 C292 1.555 . S
C705 C203 1.597 . S
C713 C122 1.586 . S
C737 C462 1.536 . S
C745 C135 1.551 . S
C769 C496 1.581 . S
C777 C156 1.556 . S
C801 C190 1.516 . S
C809 C407 1.555 . S
C833 C237 1.559 . S
C841 C169 1.574 . S
C865 C428 1.544 . S
C873 C224 1.578 . S
C897 C326 1.544 . S
C905 C271 1.549 . S
C929 C530 1.584 . S
C937 C339 1.593 . S
C961 C305 1.548 . S
C969 C373 1.581 . S
C993 C394 1.599 . S
C1001 C475 1.596 . S
C1025 C509 1.578 . S
C1033 C441 1.561 . S
C1057 C9 1.207 . S
C1065 C5 1.278 . S
C1089 C43 1.215 . S
C1097 C39 1.291 . S
C1121 C77 1.216 . S
C1129 C73 1.266 . S
C1153 C107 1.247 . S
C1161 C111 1.195 . S
C1185 C141 1.266 . S
C1193 C145 1.213 1_554 S
C1217 C179 1.257 . S
C1225 C175 1.274 . S
C1249 C213 1.257 . S
C1257 C209 1.264 . S
C1281 C247 1.241 . S
C1289 C243 1.253 . S
C1313 C281 1.199 1_554 S
C1321 C277 1.278 . S
C1345 C311 1.283 . S
C1353 C315 1.216 . S
C1377 C349 1.255 . S
C1385 C345 1.258 . S
C1409 C383 1.247 . S
C1417 C379 1.251 . S
C1441 C417 1.231 . S
C1449 C413 1.276 . S
C1473 C451 1.184 . S
C1481 C447 1.291 . S
C1505 C485 1.232 . S
C1513 C481 1.266 . S
C1537 C515 1.261 . S
C1545 C519 1.217 . S
C1569 C2 1.574 . S
C1577 C36 1.585 . S
C1601 C70 1.519 . S
C1609 C104 1.523 . S
C1633 C138 1.569 . S
C1641 C172 1.584 . S
C1665 C206 1.517 . S
C1673 C240 1.524 . S
C1697 C308 1.582 . S
C1705 C274 1.581 . S
C1729 C342 1.520 . S
C1737 C376 1.519 . S
C1761 C444 1.578 . S
C1769 C410 1.581 . S
C1793 C512 1.514 . S
C1801 C478 1.524 . S
