# Generated by pormake.
# Topology ths, (3)-cn, num edge types: 1
# Building blocks:
#     Node 0, Type 0, BuildingBlock: WUSLED_clean_sbu_0, # of connection points: 3
#     Node 1, Type 0, BuildingBlock: WUSLED_clean_sbu_0, # of connection points: 3
#     Node 2, Type 0, BuildingBlock: WUSLED_clean_sbu_0, # of connection points: 3
#     Node 3, Type 0, BuildingBlock: WUSLED_clean_sbu_0, # of connection points: 3
#     Node 4, Type 0, BuildingBlock: WUSLED_clean_sbu_0, # of connection points: 3
#     Node 5, Type 0, BuildingBlock: WUSLED_clean_sbu_0, # of connection points: 3
#     Node 6, Type 0, BuildingBlock: WUSLED_clean_sbu_0, # of connection points: 3
#     Node 7, Type 0, BuildingBlock: WUSLED_clean_sbu_0, # of connection points: 3
#     Edge 8, Type (0, 0), BuildingBlock: FUNLAD_clean_linker_0, # of connection points: 2
#     Edge 9, Type (0, 0), BuildingBlock: FUNLAD_clean_linker_0, # of connection points: 2
#     Edge 10, Type (0, 0), BuildingBlock: FUNLAD_clean_linker_0, # of connection points: 2
#     Edge 11, Type (0, 0), BuildingBlock: FUNLAD_clean_linker_0, # of connection points: 2
#     Edge 12, Type (0, 0), BuildingBlock: FUNLAD_clean_linker_0, # of connection points: 2
#     Edge 13, Type (0, 0), BuildingBlock: FUNLAD_clean_linker_0, # of connection points: 2
#     Edge 14, Type (0, 0), BuildingBlock: FUNLAD_clean_linker_0, # of connection points: 2
#     Edge 15, Type (0, 0), BuildingBlock: FUNLAD_clean_linker_0, # of connection points: 2
#     Edge 16, Type (0, 0), BuildingBlock: FUNLAD_clean_linker_0, # of connection points: 2
#     Edge 17, Type (0, 0), BuildingBlock: FUNLAD_clean_linker_0, # of connection points: 2
#     Edge 18, Type (0, 0), BuildingBlock: FUNLAD_clean_linker_0, # of connection points: 2
#     Edge 19, Type (0, 0), BuildingBlock: FUNLAD_clean_linker_0, # of connection points: 2
# Relax obj value: 0.000
# Max RMSD: 0.003
# Mean RMSD: 0.003
data_MOF--net-ths--node1-WUSLED_clean_sbu_0--edge1-FUNLAD_clean_linker_0
_symmetry_space_group_name_H-M    P1
_symmetry_Int_Tables_number       1
_symmetry_cell_setting            triclinic
loop_
_symmetry_equiv_pos_as_xyz
'x, y, z'
_cell_length_a     44.991204
_cell_length_b     45.210523
_cell_length_c     150.6479
_cell_angle_alpha  88.746518
_cell_angle_beta   90.465981
_cell_angle_gamma 90.430591
loop_
_atom_site_label
_atom_site_type_symbol
_atom_site_fract_x
_atom_site_fract_y
_atom_site_fract_z
_atom_type_partial_charge
C0 C 0.07098 0.82049 0.0363 0.0
C1 C 0.06544 0.84413 0.04194 0.0
C2 C 0.06933 0.87935 0.02942 0.0
C3 C 0.06464 0.8733 0.03853 0.0
C4 C 0.07524 0.85548 0.02387 0.0
C5 C 0.07603 0.82644 0.02727 0.0
U6 U 0.07259 0.76031 0.05493 0.0
O7 O 0.04862 0.7177 0.05573 0.0
O8 O 0.09734 0.71838 0.05549 0.0
C9 C 0.07307 0.70202 0.05541 0.0
C10 C 0.07129 0.78947 0.03961 0.0
C11 C 0.07278 0.67702 0.04925 0.0
C12 C 0.0648 0.65636 0.03461 0.0
C13 C 0.06553 0.68079 0.04022 0.0
C14 C 0.07882 0.62425 0.04699 0.0
C15 C 0.07139 0.6277 0.03793 0.0
C16 C 0.0795 0.64861 0.05257 0.0
C17 C 0.07502 0.78509 0.07954 0.0
C18 C 0.06092 0.75835 0.09312 0.0
C19 C 0.0894 0.80384 0.09398 0.0
C20 C 0.08947 0.80629 0.08472 0.0
C21 C 0.07477 0.78009 0.09834 0.0
C22 C 0.061 0.76085 0.0838 0.0
C23 C 0.07389 0.78988 0.0698 0.0
O24 O 0.09599 0.7806 0.0435 0.0
O25 O 0.04729 0.78009 0.04376 0.0
O26 O 0.04916 0.78229 0.0657 0.0
O27 O 0.09792 0.78309 0.0654 0.0
H28 H 0.06149 0.84001 0.04895 0.0
H29 H 0.05976 0.89102 0.04301 0.0
H30 H 0.0795 0.85923 0.01687 0.0
H31 H 0.08051 0.80854 0.02282 0.0
H32 H 0.05933 0.65997 0.02766 0.0
H33 H 0.06036 0.70257 0.03751 0.0
H34 H 0.08359 0.60258 0.04983 0.0
H35 H 0.08505 0.6452 0.05953 0.0
H36 H 0.04933 0.73984 0.09623 0.0
H37 H 0.10082 0.82067 0.09775 0.0
H38 H 0.10051 0.82511 0.08158 0.0
H39 H 0.04971 0.74416 0.07995 0.0
C40 C 0.50378 0.76377 0.28813 0.0
C41 C 0.48089 0.74791 0.29245 0.0
C42 C 0.4454 0.76295 0.28084 0.0
C43 C 0.452 0.74752 0.28884 0.0
C44 C 0.4683 0.77941 0.2767 0.0
C45 C 0.49708 0.77975 0.28029 0.0
U46 U 0.5658 0.76204 0.30624 0.0
O47 O 0.6074 0.73639 0.30653 0.0
O48 O 0.60914 0.78491 0.30622 0.0
C49 C 0.62428 0.76019 0.30589 0.0
C50 C 0.53503 0.76285 0.2913 0.0
C51 C 0.64887 0.75938 0.29941 0.0
C52 C 0.69827 0.7419 0.29572 0.0
C53 C 0.67372 0.74178 0.30137 0.0
C54 C 0.67342 0.77702 0.2859 0.0
C55 C 0.69867 0.75976 0.28794 0.0
C56 C 0.64879 0.77682 0.29157 0.0
C57 C 0.54505 0.76314 0.33114 0.0
C58 C 0.57823 0.75292 0.34368 0.0
C59 C 0.52888 0.77174 0.34624 0.0
C60 C 0.52333 0.77233 0.33708 0.0
C61 C 0.55634 0.76189 0.34969 0.0
C62 C 0.57266 0.7536 0.33449 0.0
C63 C 0.53798 0.76319 0.32154 0.0
O64 O 0.54543 0.7869 0.29501 0.0
O65 O 0.54372 0.73837 0.29539 0.0
O66 O 0.54362 0.73868 0.31735 0.0
O67 O 0.54552 0.78717 0.31699 0.0
H68 H 0.48544 0.73538 0.29851 0.0
H69 H 0.43507 0.73443 0.29219 0.0
H70 H 0.46402 0.79203 0.27063 0.0
H71 H 0.51432 0.79221 0.27685 0.0
H72 H 0.71696 0.72791 0.29745 0.0
H73 H 0.6743 0.72813 0.30738 0.0
H74 H 0.67294 0.79128 0.28004 0.0
H75 H 0.62993 0.79065 0.28989 0.0
H76 H 0.59975 0.74555 0.34607 0.0
H77 H 0.51134 0.77841 0.35064 0.0
H78 H 0.50185 0.77969 0.33464 0.0
H79 H 0.5898 0.74653 0.33001 0.0
C80 C 0.56439 0.31994 0.53846 0.0
C81 C 0.58005 0.34224 0.54293 0.0
C82 C 0.56287 0.37941 0.53205 0.0
C83 C 0.57937 0.37166 0.53974 0.0
C84 C 0.54709 0.35696 0.52766 0.0
C85 C 0.54789 0.32763 0.53083 0.0
U86 U 0.56508 0.2571 0.55636 0.0
O87 O 0.54099 0.21438 0.55637 0.0
O88 O 0.58976 0.21522 0.55671 0.0
C89 C 0.56554 0.19887 0.5561 0.0
C90 C 0.56529 0.28848 0.54143 0.0
C91 C 0.5659 0.1743 0.54973 0.0
C92 C 0.54938 0.12461 0.54598 0.0
C93 C 0.54816 0.1492 0.55145 0.0
C94 C 0.58591 0.14991 0.53681 0.0
C95 C 0.56849 0.12445 0.53862 0.0
C96 C 0.5846 0.17459 0.5423 0.0
C97 C 0.56214 0.2781 0.58126 0.0
C98 C 0.57601 0.24921 0.59449 0.0
C99 C 0.5467 0.29351 0.59589 0.0
C100 C 0.54719 0.29786 0.58667 0.0
C101 C 0.5612 0.26921 0.59995 0.0
C102 C 0.57642 0.25357 0.58523 0.0
C103 C 0.56325 0.2845 0.57159 0.0
O104 O 0.58964 0.27942 0.54551 0.0
O105 O 0.54091 0.27784 0.54508 0.0
O106 O 0.53938 0.2776 0.56698 0.0
O107 O 0.58812 0.27831 0.56752 0.0
H108 H 0.59286 0.33695 0.54887 0.0
H109 H 0.59151 0.38838 0.54335 0.0
H110 H 0.53447 0.36195 0.52167 0.0
H111 H 0.53574 0.31082 0.52725 0.0
H112 H 0.53594 0.10537 0.54767 0.0
H113 H 0.5337 0.14836 0.55717 0.0
H114 H 0.60059 0.15078 0.53115 0.0
H115 H 0.59848 0.19368 0.54079 0.0
H116 H 0.58715 0.2301 0.59736 0.0
H117 H 0.53548 0.30964 0.59985 0.0
H118 H 0.53617 0.31703 0.58376 0.0
H119 H 0.58806 0.23795 0.58118 0.0
C120 C 1.01304 0.26034 0.78839 0.0
C121 C 0.98984 0.26187 0.79454 0.0
C122 C 0.95302 0.26067 0.7825 0.0
C123 C 0.96012 0.26207 0.79162 0.0
C124 C 0.97649 0.25909 0.7764 0.0
C125 C 1.00612 0.25893 0.77932 0.0
U126 U 0.0749 0.2579 0.80627 0.0
O127 O 0.11712 0.23361 0.80637 0.0
O128 O 0.11766 0.28207 0.80669 0.0
C129 C 0.13346 0.25784 0.80618 0.0
C130 C 0.04452 0.26017 0.79126 0.0
C131 C 0.15831 0.25866 0.79982 0.0
C132 C 0.17871 0.25144 0.7851 0.0
C133 C 0.1543 0.25165 0.79086 0.0
C134 C 0.21124 0.26567 0.79717 0.0
C135 C 0.20758 0.25832 0.78819 0.0
C136 C 0.1869 0.26582 0.8029 0.0
C137 C 0.05223 0.25302 0.83111 0.0
C138 C 0.08133 0.26471 0.84432 0.0
C139 C 0.03592 0.23599 0.84573 0.0
C140 C 0.03176 0.23779 0.83653 0.0
C141 C 0.06073 0.24944 0.84978 0.0
C142 C 0.07717 0.26641 0.83507 0.0
C143 C 0.0463 0.25512 0.82145 0.0
O144 O 0.05403 0.2838 0.79538 0.0
O145 O 0.05403 0.23538 0.79496 0.0
O146 O 0.05279 0.23168 0.81686 0.0
O147 O 0.05349 0.28014 0.81737 0.0
H148 H 0.99472 0.26285 0.80158 0.0
H149 H 0.9427 0.26295 0.79652 0.0
H150 H 0.97201 0.25842 0.76934 0.0
H151 H 0.0237 0.25781 0.77447 0.0
H152 H 0.17492 0.24604 0.77821 0.0
H153 H 0.13239 0.24613 0.78833 0.0
H154 H 0.23307 0.27067 0.79985 0.0
H155 H 0.19051 0.27118 0.80981 0.0
H156 H 0.10083 0.27507 0.84719 0.0
H157 H 0.01936 0.22445 0.8497 0.0
H158 H 1.01228 0.22744 0.83363 0.0
H159 H 0.09334 0.27824 0.83103 0.0
C160 C 0.07099 0.20147 0.99462 0.0
C161 C 0.07736 0.17814 0.98895 0.0
C162 C 0.07278 0.1424 1.00132 0.0
C163 C 0.07821 0.14885 0.99227 0.0
C164 C 0.066 0.16595 1.0069 0.0
C165 C 0.06514 0.1951 1.00359 0.0
U166 U 0.07201 0.26327 0.97639 0.0
O167 O 0.04704 0.3051 0.97583 0.0
O168 O 0.09575 0.30601 0.97638 0.0
C169 C 0.07116 0.32154 0.97643 0.0
C170 C 0.07079 0.23265 0.99146 0.0
C171 C 0.07027 0.34612 0.98273 0.0
C172 C 0.07777 0.36632 0.99745 0.0
C173 C 0.07762 0.34213 0.99175 0.0
C174 C 0.06285 0.39858 0.98521 0.0
C175 C 0.07052 0.39495 0.99424 0.0
C176 C 0.06274 0.37446 0.97954 0.0
C177 C 0.07533 0.24281 0.95149 0.0
C178 C 0.05369 0.26378 0.93787 0.0
C179 C 0.09837 0.23453 0.93717 0.0
C180 C 0.09794 0.23048 0.94641 0.0
C181 C 0.07604 0.25092 0.93274 0.0
C182 C 0.05333 0.25979 0.94713 0.0
C183 C 0.07422 0.2359 0.96117 0.0
O184 O 0.09542 0.24264 0.9878 0.0
O185 O 0.04672 0.24146 0.9872 0.0
O186 O 0.04928 0.2415 0.96529 0.0
O187 O 0.09802 0.24268 0.96584 0.0
H188 H 0.08195 0.1826 0.982 0.0
H189 H 0.08374 0.13136 0.98779 0.0
H190 H 0.06117 0.16188 1.01385 0.0
H191 H 0.06003 0.21276 1.00807 0.0
H192 H 0.08343 0.36255 1.00438 0.0
H193 H 0.08344 0.3204 0.99437 0.0
H194 H 0.05757 0.42024 0.98244 0.0
H195 H 0.05713 0.37805 0.97259 0.0
H196 H 0.03594 0.27628 0.93471 0.0
H197 H 0.11626 0.22473 0.93351 0.0
H198 H 0.11513 0.21724 0.9496 0.0
H199 H 0.0355 0.26954 0.95084 0.0
C200 C 0.12659 0.75525 0.24328 0.0
C201 C 0.14944 0.77117 0.23896 0.0
C202 C 0.18496 0.75621 0.25057 0.0
C203 C 0.17832 0.77163 0.24257 0.0
C204 C 0.16209 0.73971 0.25471 0.0
C205 C 0.13331 0.7393 0.25112 0.0
U206 U 0.06468 0.75664 0.22513 0.0
O207 O 0.02151 0.73335 0.22516 0.0
O208 O 0.0229 0.78183 0.22481 0.0
C209 C 1.00614 0.75793 0.22534 0.0
C210 C 0.09535 0.756 0.24009 0.0
C211 C 0.98141 0.75848 0.23172 0.0
C212 C 0.96189 0.75533 0.24675 0.0
C213 C 0.98609 0.7552 0.24091 0.0
C214 C 0.92822 0.76213 0.23427 0.0
C215 C 0.93258 0.75878 0.2435 0.0
C216 C 0.95234 0.76199 0.22847 0.0
C217 C 0.08515 0.75552 0.20008 0.0
C218 C 0.07399 0.78167 0.18611 0.0
C219 C 0.08478 0.72937 0.18607 0.0
C220 C 0.08855 0.72938 0.19531 0.0
C221 C 0.07777 0.75558 0.18132 0.0
C222 C 0.07767 0.78167 0.19536 0.0
C223 C 0.09216 0.75568 0.20977 0.0
O224 O 0.08653 0.78044 0.236 0.0
O225 O 0.08513 0.7319 0.23637 0.0
O226 O 0.08525 0.73166 0.21441 0.0
O227 O 0.08682 0.78015 0.21403 0.0
H228 H 0.14486 0.78367 0.23289 0.0
H229 H 0.19524 0.78475 0.23921 0.0
H230 H 0.16639 0.7271 0.26078 0.0
H231 H 0.1161 0.7268 0.25455 0.0
H232 H 0.96619 0.75301 0.25381 0.0
H233 H 1.00838 0.75251 0.24356 0.0
H234 H 0.90606 0.76435 0.23149 0.0
H235 H 0.94825 0.76443 0.22139 0.0
H236 H 0.06827 0.80221 0.18269 0.0
H237 H 0.08832 0.70895 0.18262 0.0
H238 H 0.09482 0.70897 0.19871 0.0
H239 H 0.07514 0.80231 0.19877 0.0
C240 C 0.5754 0.69708 0.49396 0.0
C241 C 0.55967 0.67477 0.48951 0.0
C242 C 0.57718 0.63758 0.50034 0.0
C243 C 0.56049 0.64535 0.49269 0.0
C244 C 0.59308 0.66002 0.50469 0.0
C245 C 0.59215 0.68937 0.50154 0.0
U246 U 0.57268 0.76032 0.47619 0.0
O247 O 0.54759 0.80193 0.47616 0.0
O248 O 0.59635 0.80328 0.47608 0.0
C249 C 0.57169 0.81852 0.47661 0.0
C250 C 0.5742 0.72857 0.49104 0.0
C251 C 0.57168 0.84294 0.48303 0.0
C252 C 0.58818 0.89265 0.48676 0.0
C253 C 0.58923 0.86814 0.48126 0.0
C254 C 0.55223 0.86709 0.49606 0.0
C255 C 0.56942 0.89266 0.4942 0.0
C256 C 0.55337 0.84248 0.49055 0.0
C257 C 0.57258 0.74062 0.45123 0.0
C258 C 0.55956 0.7726 0.43858 0.0
C259 C 0.58247 0.72521 0.43616 0.0
C260 C 0.58357 0.71983 0.44534 0.0
C261 C 0.57027 0.75158 0.43263 0.0
C262 C 0.56076 0.7672 0.44779 0.0
C263 C 0.57294 0.73344 0.46085 0.0
O264 O 0.59814 0.73932 0.48717 0.0
O265 O 0.54941 0.73763 0.48722 0.0
O266 O 0.54855 0.7391 0.46523 0.0
O267 O 0.59728 0.74053 0.46521 0.0
H268 H 0.54667 0.68009 0.48362 0.0
H269 H 0.54826 0.62863 0.4891 0.0
H270 H 0.60585 0.65503 0.51066 0.0
H271 H 0.60435 0.70619 0.50511 0.0
H272 H 0.60143 0.91198 0.48502 0.0
H273 H 0.60338 0.86912 0.47547 0.0
H274 H 0.53782 0.86609 0.50179 0.0
H275 H 0.53963 0.82332 0.4921 0.0
H276 H 0.55036 0.7933 0.43613 0.0
H277 H 0.59055 0.70834 0.43181 0.0
H278 H 0.59269 0.69913 0.44785 0.0
H279 H 0.55225 0.78363 0.45222 0.0
C280 C 0.63607 0.25753 0.74383 0.0
C281 C 0.65929 0.2555 0.73771 0.0
C282 C 0.69607 0.25764 0.74974 0.0
C283 C 0.689 0.25554 0.74064 0.0
C284 C 0.67258 0.25976 0.75582 0.0
C285 C 0.64295 0.2597 0.75288 0.0
U286 U 0.57456 0.25484 0.7259 0.0
O287 O 0.53216 0.23007 0.72599 0.0
O288 O 0.53201 0.27854 0.72509 0.0
C289 C 0.516 0.25417 0.72584 0.0
C290 C 0.6046 0.25711 0.74095 0.0
C291 C 0.49098 0.2547 0.73213 0.0
C292 C 0.47046 0.26343 0.74675 0.0
C293 C 0.49493 0.2625 0.74103 0.0
C294 C 0.43795 0.24849 0.73475 0.0
C295 C 0.44158 0.25647 0.74367 0.0
C296 C 0.46236 0.24763 0.72906 0.0
C297 C 0.59811 0.25114 0.70119 0.0
C298 C 0.56629 0.25698 0.68811 0.0
C299 C 0.61733 0.24155 0.68649 0.0
C300 C 0.62142 0.24279 0.69569 0.0
C301 C 0.58974 0.24863 0.68255 0.0
C302 C 0.57042 0.25816 0.69735 0.0
C303 C 0.60372 0.2528 0.71084 0.0
O304 O 0.59527 0.28074 0.73656 0.0
O305 O 0.59503 0.23231 0.7375 0.0
O306 O 0.59674 0.22915 0.71562 0.0
O307 O 0.59645 0.27762 0.71463 0.0
H308 H 0.65444 0.25387 0.73068 0.0
H309 H 0.70642 0.25424 0.73575 0.0
H310 H 0.67702 0.26097 0.76287 0.0
H311 H 0.62535 0.26117 0.75771 0.0
H312 H 0.47421 0.26933 0.75359 0.0
H313 H 0.51688 0.26796 0.74354 0.0
H314 H 0.41612 0.24344 0.73208 0.0
H315 H 0.4588 0.24165 0.7222 0.0
H316 H 0.54467 0.26232 0.68532 0.0
H317 H 0.63606 0.23554 0.68245 0.0
H318 H 0.643 0.23744 0.69851 0.0
H319 H 0.55209 0.2646 0.70149 0.0
C320 C 0.05021 0.44367 0.99935 0.0
C321 C 0.07149 0.42107 1.00019 0.0
C322 C 0.05166 0.46863 1.00471 0.0
C323 C 0.07461 0.47178 1.01106 0.0
C324 C 0.09551 0.44892 1.012 0.0
C325 C 0.09406 0.42399 1.00664 0.0
C326 C 0.07726 0.49792 0.01698 0.0
C327 C 0.06408 0.52434 1.01536 0.0
C328 C 0.0668 0.55052 0.02126 0.0
C329 C 0.04614 0.57358 0.02025 0.0
C330 C 0.04772 0.5986 0.02557 0.0
C331 C 0.07017 0.60141 0.03206 0.0
H332 H 0.10665 0.53699 0.02853 0.0
C333 C 0.09117 0.57858 0.03299 0.0
C334 C 0.0896 0.55354 0.02766 0.0
H335 H 0.10917 0.5802 0.03777 0.0
H336 H 0.03211 0.44195 0.99461 0.0
H337 H 0.03444 0.48503 1.00392 0.0
H338 H 0.11335 0.45049 0.01685 0.0
H339 H 0.11104 0.40727 1.00744 0.0
H340 H 0.09106 0.49503 0.02286 0.0
H341 H 0.0503 0.52721 1.00947 0.0
H342 H 0.02842 0.57212 1.01536 0.0
H343 H 0.03096 0.61551 0.0247 0.0
C344 C 0.88223 0.77745 0.24804 0.0
C345 C 0.90655 0.75856 0.24964 0.0
C346 C 0.85742 0.77666 0.25362 0.0
C347 C 0.85615 0.75682 0.26095 0.0
C348 C 0.88068 0.73839 0.26264 0.0
C349 C 0.90548 0.73914 0.25706 0.0
C350 C 0.83023 0.75527 0.26712 0.0
C351 C 0.80249 0.76431 0.2649 0.0
C352 C 0.7764 0.76251 0.271 0.0
C353 C 0.74756 0.76369 0.26735 0.0
C354 C 0.72245 0.76267 0.27279 0.0
C355 C 0.72544 0.76066 0.28209 0.0
H356 H 0.80113 0.76073 0.28347 0.0
C357 C 0.75433 0.75976 0.28577 0.0
C358 C 0.77946 0.76073 0.28031 0.0
H359 H 0.75762 0.75891 0.29289 0.0
H360 H 0.88249 0.7932 0.24253 0.0
H361 H 0.83959 0.79202 0.25222 0.0
H362 H 0.88055 0.72302 0.26827 0.0
H363 H 0.92357 0.72406 0.25848 0.0
H364 H 0.83407 0.74496 0.27359 0.0
H365 H 0.79814 0.77226 0.25817 0.0
H366 H 0.74439 0.76525 0.26021 0.0
H367 H 0.70066 0.76313 0.26969 0.0
C368 C 0.58788 0.42845 0.52842 0.0
C369 C 0.56208 0.41065 0.52856 0.0
C370 C 0.58718 0.45746 0.52491 0.0
C371 C 0.56056 0.46945 0.52142 0.0
C372 C 0.53473 0.45179 0.52173 0.0
C373 C 0.53547 0.42281 0.52521 0.0
C374 C 0.55835 0.5003 0.51764 0.0
C375 C 0.58178 0.51672 0.51478 0.0
C376 C 0.57956 0.54756 0.51099 0.0
C377 C 0.6054 0.5652 0.51064 0.0
C378 C 0.60465 0.59416 0.50716 0.0
C379 C 0.57801 0.60634 0.50383 0.0
H380 H 0.53258 0.5467 0.5074 0.0
C381 C 0.55219 0.58856 0.50401 0.0
C382 C 0.55291 0.55956 0.50753 0.0
H383 H 0.53125 0.5972 0.50153 0.0
H384 H 0.6088 0.41983 0.53092 0.0
H385 H 0.6075 0.47036 0.52506 0.0
H386 H 0.5138 0.46037 0.51922 0.0
H387 H 0.51503 0.41001 0.52533 0.0
H388 H 0.5362 0.5095 0.51713 0.0
H389 H 0.60393 0.50751 0.51529 0.0
H390 H 0.62635 0.5566 0.51314 0.0
H391 H 0.6251 0.60694 0.507 0.0
C392 C 0.91205 0.24329 0.77224 0.0
C393 C 0.9214 0.26103 0.77932 0.0
C394 C 0.88257 0.24394 0.76916 0.0
C395 C 0.86155 0.26255 0.77305 0.0
C396 C 0.87085 0.27995 0.7802 0.0
C397 C 0.90032 0.27928 0.78328 0.0
C398 C 0.82969 0.26402 0.77008 0.0
C399 C 0.81938 0.25439 0.76218 0.0
C400 C 0.78753 0.25582 0.75922 0.0
C401 C 0.77815 0.23811 0.75215 0.0
C402 C 0.74869 0.23874 0.74907 0.0
C403 C 0.72768 0.25731 0.75293 0.0
H404 H 0.77283 0.28951 0.76827 0.0
C405 C 0.73711 0.27536 0.75993 0.0
C406 C 0.7666 0.27472 0.76302 0.0
H407 H 0.72178 0.29042 0.76296 0.0
H408 H 0.92746 0.22846 0.76915 0.0
H409 H 0.87644 0.22938 0.76384 0.0
H410 H 0.85528 0.29441 0.78338 0.0
H411 H 0.90667 0.29348 0.78868 0.0
H412 H 0.8143 0.27376 0.77466 0.0
H413 H 0.83475 0.24464 0.75759 0.0
H414 H 0.79366 0.22342 0.74903 0.0
H415 H 0.74228 0.22428 0.74373 0.0
C416 C 0.39214 0.23675 0.74914 0.0
C417 C 0.41524 0.25786 0.74966 0.0
C418 C 0.36703 0.23848 0.75456 0.0
C419 C 0.36421 0.26155 0.76063 0.0
C420 C 0.38754 0.28231 0.76125 0.0
C421 C 0.41264 0.28057 0.75584 0.0
C422 C 0.33794 0.26442 0.7666 0.0
C423 C 0.3112 0.25131 0.76522 0.0
C424 C 0.28492 0.25404 0.7712 0.0
C425 C 0.26151 0.23342 0.77047 0.0
C426 C 0.23642 0.23493 0.77589 0.0
C427 C 0.23389 0.25728 0.78219 0.0
H428 H 0.29903 0.29377 0.77802 0.0
C429 C 0.25706 0.27828 0.78281 0.0
C430 C 0.28218 0.27676 0.77739 0.0
H431 H 0.25566 0.2962 0.78744 0.0
H432 H 0.39361 0.21855 0.74462 0.0
H433 H 0.35027 0.22135 0.75402 0.0
H434 H 0.38623 0.30023 0.76589 0.0
H435 H 0.42976 0.29741 0.75639 0.0
H436 H 0.34103 0.27826 0.77233 0.0
H437 H 0.30813 0.23753 0.75948 0.0
H438 H 0.26275 0.21575 0.76574 0.0
H439 H 0.21926 0.21817 0.77526 0.0
C440 C 0.24114 0.75771 0.24957 0.0
C441 C 0.21523 0.75789 0.25475 0.0
C442 C 0.26941 0.75927 0.25356 0.0
C443 C 0.27253 0.76101 0.26286 0.0
C444 C 0.2466 0.76155 0.26799 0.0
C445 C 0.21842 0.75993 0.26401 0.0
C446 C 0.30203 0.76322 0.26751 0.0
C447 C 0.32833 0.75601 0.26389 0.0
C448 C 0.35783 0.75821 0.26854 0.0
C449 C 0.38376 0.75767 0.26341 0.0
C450 C 0.41194 0.75927 0.26739 0.0
C451 C 0.41513 0.76131 0.27666 0.0
H452 H 0.34179 0.75968 0.28213 0.0
C453 C 0.38922 0.76151 0.28184 0.0
C454 C 0.36094 0.75996 0.27785 0.0
H455 H 0.39074 0.76312 0.28899 0.0
H456 H 0.23961 0.75609 0.24242 0.0
H457 H 0.28857 0.75955 0.24927 0.0
H458 H 0.2481 0.76319 0.27514 0.0
H459 H 0.19907 0.76074 0.26823 0.0
H460 H 0.30167 0.77093 0.27428 0.0
H461 H 0.32869 0.7483 0.25713 0.0
H462 H 0.38227 0.75602 0.25626 0.0
H463 H 0.43129 0.75845 0.26318 0.0
C464 C 0.59234 0.93702 0.50167 0.0
C465 C 0.56711 0.91961 0.49976 0.0
C466 C 0.58994 0.96302 0.50653 0.0
C467 C 0.56212 0.97233 0.50964 0.0
C468 C 0.53699 0.95478 0.50776 0.0
C469 C 0.53942 0.92881 0.50292 0.0
C470 C 0.55788 1.00042 0.5146 0.0
C471 C 0.58009 0.01661 0.51825 0.0
C472 C 0.57586 0.0447 0.52321 0.0
C473 C 0.60104 0.06207 0.52519 0.0
C474 C 0.59861 0.08806 0.53002 0.0
C475 C 0.57086 0.09747 0.53308 0.0
H476 H 0.52792 0.04161 0.52505 0.0
C477 C 0.54557 0.08025 0.53107 0.0
C478 C 0.54799 0.05423 0.52622 0.0
H479 H 0.52378 0.08687 0.53325 0.0
H480 H 0.61409 0.93057 0.49941 0.0
H481 H 0.60994 0.97583 0.50762 0.0
H482 H 0.51521 0.9613 0.50999 0.0
H483 H 0.51939 0.91633 0.50147 0.0
H484 H 0.53514 1.00778 0.51523 0.0
H485 H 0.60282 1.00922 0.51762 0.0
H486 H 0.62286 0.05539 0.52303 0.0
H487 H 0.61866 0.10039 0.53155 0.0
C488 C 0.07952 0.93437 0.03033 0.0
C489 C 0.06776 0.91025 0.02566 0.0
C490 C 0.07835 0.96321 0.02669 0.0
C491 C 0.06538 0.96869 0.01826 0.0
C492 C 0.05326 0.9446 1.01369 0.0
C493 C 0.05449 0.91584 0.01731 0.0
C494 C 0.06315 0.99897 1.01406 0.0
C495 C 0.07962 0.02262 0.01651 0.0
C496 C 0.07728 0.05293 1.01233 0.0
C497 C 0.08887 0.07706 0.017 0.0
C498 C 0.08747 0.10585 1.01342 0.0
C499 C 0.07459 0.11144 1.00501 0.0
H500 H 0.05623 0.04054 0.99988 0.0
C501 C 0.06342 0.08728 1.00025 0.0
C502 C 0.06473 0.05839 1.00385 0.0
H503 H 0.05329 0.0907 0.99376 0.0
H504 H 0.08999 0.93096 0.03676 0.0
H505 H 0.08729 0.981 0.0306 0.0
H506 H 0.04281 0.94799 1.00724 0.0
H507 H 0.04467 0.89799 1.01358 0.0
H508 H 0.04726 1.00154 1.00865 0.0
H509 H 0.09549 0.0201 0.02192 0.0
H510 H 0.09899 0.07367 0.02349 0.0
H511 H 0.09684 0.12375 0.01723 0.0
C512 C 0.08732 0.77946 0.1663 0.0
C513 C 0.07538 0.75585 0.1714 0.0
C514 C 0.086 0.77933 0.157 0.0
C515 C 0.07243 0.75564 0.15253 0.0
C516 C 0.06059 0.73205 0.15764 0.0
C517 C 0.06196 0.73216 0.16694 0.0
C518 C 0.07118 0.75411 0.1426 0.0
C519 C 0.07388 0.77796 0.13709 0.0
C520 C 0.07296 0.77704 0.12715 0.0
C521 C 0.06922 0.80378 0.12236 0.0
C522 C 0.0694 0.8046 0.11308 0.0
C523 C 0.07353 0.77866 0.10826 0.0
H524 H 0.08048 0.72987 0.12571 0.0
C525 C 0.07698 0.75174 0.11302 0.0
C526 C 0.07683 0.75091 0.12235 0.0
H527 H 0.08057 0.73138 0.10954 0.0
H528 H 0.09843 0.79776 0.16948 0.0
H529 H 0.09635 0.79753 0.15339 0.0
H530 H 0.05013 0.71341 0.15443 0.0
H531 H 0.05231 0.71369 0.17063 0.0
H532 H 0.06679 0.73256 0.13983 0.0
H533 H 0.07594 0.79971 0.13994 0.0
H534 H 0.06619 0.82429 0.12582 0.0
H535 H 0.06617 0.82568 0.10967 0.0
C536 C 0.59126 0.74793 0.41719 0.0
C537 C 0.56816 0.75664 0.4228 0.0
C538 C 0.5888 0.75159 0.40794 0.0
C539 C 0.563 0.76388 0.40404 0.0
C540 C 0.54025 0.77315 0.40966 0.0
C541 C 0.54272 0.76953 0.4189 0.0
C542 C 0.55903 0.76798 0.3942 0.0
C543 C 0.57469 0.75337 0.38807 0.0
C544 C 0.56993 0.75661 0.37824 0.0
C545 C 0.58094 0.73462 0.37271 0.0
C546 C 0.57686 0.73646 0.36348 0.0
C547 C 0.56173 0.76048 0.3595 0.0
H548 H 0.54736 0.79903 0.37816 0.0
C549 C 0.55123 0.78283 0.36501 0.0
C550 C 0.55534 0.78102 0.37424 0.0
H551 H 0.54003 0.80198 0.36217 0.0
H552 H 0.61146 0.73851 0.41995 0.0
H553 H 0.60738 0.74505 0.40394 0.0
H554 H 0.52019 0.78289 0.4069 0.0
H555 H 0.52436 0.77627 0.42298 0.0
H556 H 0.54129 0.78259 0.39201 0.0
H557 H 0.59083 0.73704 0.39028 0.0
H558 H 0.59246 0.71565 0.37555 0.0
H559 H 0.58505 0.71869 0.35949 0.0
C560 C 0.58701 0.25637 0.61448 0.0
C561 C 0.56122 0.26532 0.60984 0.0
C562 C 0.58745 0.25449 0.6238 0.0
C563 C 0.56196 0.26132 0.62872 0.0
C564 C 0.53615 0.26991 0.62405 0.0
C565 C 0.53571 0.27178 0.61476 0.0
C566 C 0.56162 0.26126 0.63866 0.0
C567 C 0.58136 0.2466 0.6439 0.0
C568 C 0.58145 0.24702 0.65384 0.0
C569 C 0.59713 0.2249 0.65856 0.0
C570 C 0.59921 0.22507 0.66783 0.0
C571 C 0.58584 0.24757 0.67269 0.0
H572 H 0.55607 0.28736 0.65537 0.0
C573 C 0.56981 0.26957 0.66799 0.0
C574 C 0.56771 0.2694 0.65869 0.0
H575 H 0.55963 0.28752 0.67149 0.0
H576 H 0.60723 0.25172 0.61094 0.0
H577 H 0.60811 0.24857 0.62707 0.0
H578 H 0.51616 0.27536 0.62761 0.0
H579 H 0.51531 0.27837 0.61144 0.0
H580 H 0.54367 0.27314 0.64172 0.0
H581 H 0.59782 0.23276 0.64084 0.0
H582 H 0.608 0.20738 0.65505 0.0
H583 H 0.61139 0.20751 0.6712 0.0
C584 C 0.08401 0.23012 0.91752 0.0
C585 C 0.07572 0.25393 0.92282 0.0
C586 C 0.08349 0.23271 0.90823 0.0
C587 C 0.07434 0.25917 0.90395 0.0
C588 C 0.06645 0.28307 0.90925 0.0
C589 C 0.06702 0.28049 0.91854 0.0
C590 C 0.07326 0.26302 0.89404 0.0
C591 C 0.07223 0.2403 0.88835 0.0
C592 C 0.07003 0.24368 0.87846 0.0
C593 C 0.06086 0.21909 0.87356 0.0
C594 C 0.05819 0.22092 0.8643 0.0
C595 C 0.0648 0.24741 0.85964 0.0
H596 H 0.08518 0.28941 0.87723 0.0
C597 C 0.07466 0.27191 0.8645 0.0
C598 C 0.07726 0.27011 0.87379 0.0
H599 H 0.07988 0.29269 0.86113 0.0
H600 H 0.09063 0.20921 0.92054 0.0
H601 H 0.09063 0.21393 0.9045 0.0
H602 H 0.05962 0.30386 0.90618 0.0
H603 H 0.06095 0.29949 0.92236 0.0
H604 H 0.07178 0.28551 0.89143 0.0
H605 H 0.07139 0.21783 0.89102 0.0
H606 H 0.05548 0.19831 0.87691 0.0
H607 H 0.05109 0.20141 0.86079 0.0
loop_
_geom_bond_atom_site_label_1
_geom_bond_atom_site_label_2
_geom_bond_distance
_geom_bond_site_symmetry_2
_ccdc_geom_bond_type
C0 C1 1.264 . S
C0 C5 1.479 . S
C0 C10 1.465 . S
C1 C0 1.264 . S
C1 C3 1.339 . S
C1 H28 0.931 . S
C2 C3 1.395 . S
C2 C4 1.320 . S
C3 C1 1.339 . S
C3 C2 1.395 . S
C3 H29 0.929 . S
C4 C2 1.320 . S
C4 C5 1.405 . S
C4 H30 0.930 . S
C5 C0 1.479 . S
C5 C4 1.405 . S
C5 H31 0.931 . S
U6 O7 2.454 . S
U6 O8 2.458 . S
U6 C9 2.984 . S
U6 C10 2.847 . S
U6 C23 2.882 . S
U6 O24 2.441 . S
U6 O25 2.420 . S
U6 O26 2.455 . S
U6 O27 2.449 . S
O7 U6 2.454 . S
O7 C9 1.353 . S
O8 U6 2.458 . S
O8 C9 1.286 . S
C9 U6 2.984 . S
C9 O7 1.353 . S
C9 O8 1.286 . S
C9 C11 1.363 . S
C10 C0 1.465 . S
C10 U6 2.847 . S
C10 O24 1.249 . S
C10 O25 1.202 . S
C11 C9 1.363 . S
C11 C13 1.408 . S
C11 C16 1.342 . S
C12 C13 1.310 . S
C12 C15 1.461 . S
C12 H32 0.932 . S
C13 C11 1.408 . S
C13 C12 1.310 . S
C13 H33 0.930 . S
C14 C15 1.474 . S
C14 C16 1.285 . S
C14 H34 0.929 . S
C15 C12 1.461 . S
C15 C14 1.474 . S
C16 C11 1.342 . S
C16 C14 1.285 . S
C16 H35 0.930 . S
C17 C20 1.424 . S
C17 C22 1.245 . S
C17 C23 1.428 . S
C18 C21 1.260 . S
C18 C22 1.477 . S
C18 H36 0.932 . S
C19 C20 1.384 . S
C19 C21 1.479 . S
C19 H37 0.929 . S
C20 C17 1.424 . S
C20 C19 1.384 . S
C20 H38 0.928 . S
C21 C18 1.260 . S
C21 C19 1.479 . S
C22 C17 1.245 . S
C22 C18 1.477 . S
C22 H39 0.932 . S
C23 U6 2.882 . S
C23 C17 1.428 . S
C23 O26 1.301 . S
C23 O27 1.282 . S
O24 U6 2.441 . S
O24 C10 1.249 . S
O25 U6 2.420 . S
O25 C10 1.202 . S
O26 U6 2.455 . S
O26 C23 1.301 . S
O27 U6 2.449 . S
O27 C23 1.282 . S
H28 C1 0.931 . S
H29 C3 0.929 . S
H30 C4 0.930 . S
H31 C5 0.931 . S
H32 C12 0.932 . S
H33 C13 0.930 . S
H34 C14 0.929 . S
H35 C16 0.930 . S
H36 C18 0.932 . S
H37 C19 0.929 . S
H38 C20 0.928 . S
H39 C22 0.932 . S
C40 C41 1.264 . S
C40 C45 1.479 . S
C40 C50 1.465 . S
C41 C40 1.264 . S
C41 C43 1.339 . S
C41 H68 0.931 . S
C42 C43 1.395 . S
C42 C44 1.320 . S
C43 C41 1.339 . S
C43 C42 1.395 . S
C43 H69 0.929 . S
C44 C42 1.320 . S
C44 C45 1.405 . S
C44 H70 0.930 . S
C45 C40 1.479 . S
C45 C44 1.405 . S
C45 H71 0.931 . S
U46 O47 2.454 . S
U46 O48 2.458 . S
U46 C49 2.984 . S
U46 C50 2.847 . S
U46 C63 2.882 . S
U46 O64 2.441 . S
U46 O65 2.420 . S
U46 O66 2.455 . S
U46 O67 2.449 . S
O47 U46 2.454 . S
O47 C49 1.353 . S
O48 U46 2.458 . S
O48 C49 1.286 . S
C49 U46 2.984 . S
C49 O47 1.353 . S
C49 O48 1.286 . S
C49 C51 1.363 . S
C50 C40 1.465 . S
C50 U46 2.847 . S
C50 O64 1.249 . S
C50 O65 1.202 . S
C51 C49 1.363 . S
C51 C53 1.408 . S
C51 C56 1.342 . S
C52 C53 1.310 . S
C52 C55 1.461 . S
C52 H72 0.932 . S
C53 C51 1.408 . S
C53 C52 1.310 . S
C53 H73 0.930 . S
C54 C55 1.474 . S
C54 C56 1.285 . S
C54 H74 0.929 . S
C55 C52 1.461 . S
C55 C54 1.474 . S
C56 C51 1.342 . S
C56 C54 1.285 . S
C56 H75 0.930 . S
C57 C60 1.424 . S
C57 C62 1.245 . S
C57 C63 1.428 . S
C58 C61 1.260 . S
C58 C62 1.477 . S
C58 H76 0.932 . S
C59 C60 1.384 . S
C59 C61 1.479 . S
C59 H77 0.929 . S
C60 C57 1.424 . S
C60 C59 1.384 . S
C60 H78 0.928 . S
C61 C58 1.260 . S
C61 C59 1.479 . S
C62 C57 1.245 . S
C62 C58 1.477 . S
C62 H79 0.932 . S
C63 U46 2.882 . S
C63 C57 1.428 . S
C63 O66 1.301 . S
C63 O67 1.282 . S
O64 U46 2.441 . S
O64 C50 1.249 . S
O65 U46 2.420 . S
O65 C50 1.202 . S
O66 U46 2.455 . S
O66 C63 1.301 . S
O67 U46 2.449 . S
O67 C63 1.282 . S
H68 C41 0.931 . S
H69 C43 0.929 . S
H70 C44 0.930 . S
H71 C45 0.931 . S
H72 C52 0.932 . S
H73 C53 0.930 . S
H74 C54 0.929 . S
H75 C56 0.930 . S
H76 C58 0.932 . S
H77 C59 0.929 . S
H78 C60 0.928 . S
H79 C62 0.932 . S
C80 C81 1.264 . S
C80 C85 1.479 . S
C80 C90 1.465 . S
C81 C80 1.264 . S
C81 C83 1.339 . S
C81 H108 0.931 . S
C82 C83 1.395 . S
C82 C84 1.320 . S
C83 C81 1.339 . S
C83 C82 1.395 . S
C83 H109 0.929 . S
C84 C82 1.320 . S
C84 C85 1.405 . S
C84 H110 0.930 . S
C85 C80 1.479 . S
C85 C84 1.405 . S
C85 H111 0.931 . S
U86 O87 2.454 . S
U86 O88 2.458 . S
U86 C89 2.984 . S
U86 C90 2.847 . S
U86 C103 2.882 . S
U86 O104 2.441 . S
U86 O105 2.420 . S
U86 O106 2.455 . S
U86 O107 2.449 . S
O87 U86 2.454 . S
O87 C89 1.353 . S
O88 U86 2.458 . S
O88 C89 1.286 . S
C89 U86 2.984 . S
C89 O87 1.353 . S
C89 O88 1.286 . S
C89 C91 1.363 . S
C90 C80 1.465 . S
C90 U86 2.847 . S
C90 O104 1.249 . S
C90 O105 1.202 . S
C91 C89 1.363 . S
C91 C93 1.408 . S
C91 C96 1.342 . S
C92 C93 1.310 . S
C92 C95 1.461 . S
C92 H112 0.932 . S
C93 C91 1.408 . S
C93 C92 1.310 . S
C93 H113 0.930 . S
C94 C95 1.474 . S
C94 C96 1.285 . S
C94 H114 0.929 . S
C95 C92 1.461 . S
C95 C94 1.474 . S
C96 C91 1.342 . S
C96 C94 1.285 . S
C96 H115 0.930 . S
C97 C100 1.424 . S
C97 C102 1.245 . S
C97 C103 1.428 . S
C98 C101 1.260 . S
C98 C102 1.477 . S
C98 H116 0.932 . S
C99 C100 1.384 . S
C99 C101 1.479 . S
C99 H117 0.929 . S
C100 C97 1.424 . S
C100 C99 1.384 . S
C100 H118 0.928 . S
C101 C98 1.260 . S
C101 C99 1.479 . S
C102 C97 1.245 . S
C102 C98 1.477 . S
C102 H119 0.932 . S
C103 U86 2.882 . S
C103 C97 1.428 . S
C103 O106 1.301 . S
C103 O107 1.282 . S
O104 U86 2.441 . S
O104 C90 1.249 . S
O105 U86 2.420 . S
O105 C90 1.202 . S
O106 U86 2.455 . S
O106 C103 1.301 . S
O107 U86 2.449 . S
O107 C103 1.282 . S
H108 C81 0.931 . S
H109 C83 0.929 . S
H110 C84 0.930 . S
H111 C85 0.931 . S
H112 C92 0.932 . S
H113 C93 0.930 . S
H114 C94 0.929 . S
H115 C96 0.930 . S
H116 C98 0.932 . S
H117 C99 0.929 . S
H118 C100 0.928 . S
H119 C102 0.932 . S
C120 C121 1.264 . S
C120 C125 1.479 . S
C120 C130 1.465 1_655 S
C121 C120 1.264 . S
C121 C123 1.339 . S
C121 H148 0.931 . S
C122 C123 1.395 . S
C122 C124 1.320 . S
C123 C121 1.339 . S
C123 C122 1.395 . S
C123 H149 0.929 . S
C124 C122 1.320 . S
C124 C125 1.405 . S
C124 H150 0.930 . S
C125 C120 1.479 . S
C125 C124 1.405 . S
C125 H151 0.931 . S
U126 O127 2.454 . S
U126 O128 2.458 . S
U126 C129 2.984 . S
U126 C130 2.847 . S
U126 C143 2.882 . S
U126 O144 2.441 . S
U126 O145 2.420 . S
U126 O146 2.455 . S
U126 O147 2.449 . S
O127 U126 2.454 . S
O127 C129 1.353 . S
O128 U126 2.458 . S
O128 C129 1.286 . S
C129 U126 2.984 . S
C129 O127 1.353 . S
C129 O128 1.286 . S
C129 C131 1.363 . S
C130 C120 1.465 1_455 S
C130 U126 2.847 . S
C130 O144 1.249 . S
C130 O145 1.202 . S
C131 C129 1.363 . S
C131 C133 1.408 . S
C131 C136 1.342 . S
C132 C133 1.310 . S
C132 C135 1.461 . S
C132 H152 0.932 . S
C133 C131 1.408 . S
C133 C132 1.310 . S
C133 H153 0.930 . S
C134 C135 1.474 . S
C134 C136 1.285 . S
C134 H154 0.929 . S
C135 C132 1.461 . S
C135 C134 1.474 . S
C136 C131 1.342 . S
C136 C134 1.285 . S
C136 H155 0.930 . S
C137 C140 1.424 . S
C137 C142 1.245 . S
C137 C143 1.428 . S
C138 C141 1.260 . S
C138 C142 1.477 . S
C138 H156 0.932 . S
C139 C140 1.384 . S
C139 C141 1.479 . S
C139 H157 0.929 . S
C140 C137 1.424 . S
C140 C139 1.384 . S
C140 H158 0.928 . S
C141 C138 1.260 . S
C141 C139 1.479 . S
C142 C137 1.245 . S
C142 C138 1.477 . S
C142 H159 0.932 . S
C143 U126 2.882 . S
C143 C137 1.428 . S
C143 O146 1.301 . S
C143 O147 1.282 . S
O144 U126 2.441 . S
O144 C130 1.249 . S
O145 U126 2.420 . S
O145 C130 1.202 . S
O146 U126 2.455 . S
O146 C143 1.301 . S
O147 U126 2.449 . S
O147 C143 1.282 . S
H148 C121 0.931 . S
H149 C123 0.929 . S
H150 C124 0.930 . S
H151 C125 0.931 . S
H152 C132 0.932 . S
H153 C133 0.930 . S
H154 C134 0.929 . S
H155 C136 0.930 . S
H156 C138 0.932 . S
H157 C139 0.929 . S
H158 C140 0.928 . S
H159 C142 0.932 . S
C160 C161 1.264 . S
C160 C165 1.479 . S
C160 C170 1.465 . S
C161 C160 1.264 . S
C161 C163 1.339 . S
C161 H188 0.931 . S
C162 C163 1.395 . S
C162 C164 1.320 . S
C163 C161 1.339 . S
C163 C162 1.395 . S
C163 H189 0.929 . S
C164 C162 1.320 . S
C164 C165 1.405 . S
C164 H190 0.930 . S
C165 C160 1.479 . S
C165 C164 1.405 . S
C165 H191 0.931 . S
U166 O167 2.454 . S
U166 O168 2.458 . S
U166 C169 2.984 . S
U166 C170 2.847 . S
U166 C183 2.882 . S
U166 O184 2.441 . S
U166 O185 2.420 . S
U166 O186 2.455 . S
U166 O187 2.449 . S
O167 U166 2.454 . S
O167 C169 1.353 . S
O168 U166 2.458 . S
O168 C169 1.286 . S
C169 U166 2.984 . S
C169 O167 1.353 . S
C169 O168 1.286 . S
C169 C171 1.363 . S
C170 C160 1.465 . S
C170 U166 2.847 . S
C170 O184 1.249 . S
C170 O185 1.202 . S
C171 C169 1.363 . S
C171 C173 1.408 . S
C171 C176 1.342 . S
C172 C173 1.310 . S
C172 C175 1.461 . S
C172 H192 0.932 . S
C173 C171 1.408 . S
C173 C172 1.310 . S
C173 H193 0.930 . S
C174 C175 1.474 . S
C174 C176 1.285 . S
C174 H194 0.929 . S
C175 C172 1.461 . S
C175 C174 1.474 . S
C176 C171 1.342 . S
C176 C174 1.285 . S
C176 H195 0.930 . S
C177 C180 1.424 . S
C177 C182 1.245 . S
C177 C183 1.428 . S
C178 C181 1.260 . S
C178 C182 1.477 . S
C178 H196 0.932 . S
C179 C180 1.384 . S
C179 C181 1.479 . S
C179 H197 0.929 . S
C180 C177 1.424 . S
C180 C179 1.384 . S
C180 H198 0.928 . S
C181 C178 1.260 . S
C181 C179 1.479 . S
C182 C177 1.245 . S
C182 C178 1.477 . S
C182 H199 0.932 . S
C183 U166 2.882 . S
C183 C177 1.428 . S
C183 O186 1.301 . S
C183 O187 1.282 . S
O184 U166 2.441 . S
O184 C170 1.249 . S
O185 U166 2.420 . S
O185 C170 1.202 . S
O186 U166 2.455 . S
O186 C183 1.301 . S
O187 U166 2.449 . S
O187 C183 1.282 . S
H188 C161 0.931 . S
H189 C163 0.929 . S
H190 C164 0.930 . S
H191 C165 0.931 . S
H192 C172 0.932 . S
H193 C173 0.930 . S
H194 C174 0.929 . S
H195 C176 0.930 . S
H196 C178 0.932 . S
H197 C179 0.929 . S
H198 C180 0.928 . S
H199 C182 0.932 . S
C200 C201 1.264 . S
C200 C205 1.479 . S
C200 C210 1.465 . S
C201 C200 1.264 . S
C201 C203 1.339 . S
C201 H228 0.931 . S
C202 C203 1.395 . S
C202 C204 1.320 . S
C203 C201 1.339 . S
C203 C202 1.395 . S
C203 H229 0.929 . S
C204 C202 1.320 . S
C204 C205 1.405 . S
C204 H230 0.930 . S
C205 C200 1.479 . S
C205 C204 1.405 . S
C205 H231 0.931 . S
U206 O207 2.454 . S
U206 O208 2.458 1_455 S
U206 C209 2.984 1_455 S
U206 C210 2.847 . S
U206 C223 2.882 . S
U206 O224 2.441 . S
U206 O225 2.420 . S
U206 O226 2.455 . S
U206 O227 2.449 . S
O207 U206 2.454 . S
O207 C209 1.353 1_455 S
O208 U206 2.458 1_655 S
O208 C209 1.286 . S
C209 U206 2.984 1_655 S
C209 O207 1.353 1_655 S
C209 O208 1.286 . S
C209 C211 1.363 . S
C210 C200 1.465 . S
C210 U206 2.847 . S
C210 O224 1.249 . S
C210 O225 1.202 . S
C211 C209 1.363 . S
C211 C213 1.408 . S
C211 C216 1.342 . S
C212 C213 1.310 . S
C212 C215 1.461 . S
C212 H232 0.932 . S
C213 C211 1.408 . S
C213 C212 1.310 . S
C213 H233 0.930 . S
C214 C215 1.474 . S
C214 C216 1.285 . S
C214 H234 0.929 . S
C215 C212 1.461 . S
C215 C214 1.474 . S
C216 C211 1.342 . S
C216 C214 1.285 . S
C216 H235 0.930 . S
C217 C220 1.424 . S
C217 C222 1.245 . S
C217 C223 1.428 . S
C218 C221 1.260 . S
C218 C222 1.477 . S
C218 H236 0.932 . S
C219 C220 1.384 . S
C219 C221 1.479 . S
C219 H237 0.929 . S
C220 C217 1.424 . S
C220 C219 1.384 . S
C220 H238 0.928 . S
C221 C218 1.260 . S
C221 C219 1.479 . S
C222 C217 1.245 . S
C222 C218 1.477 . S
C222 H239 0.932 . S
C223 U206 2.882 . S
C223 C217 1.428 . S
C223 O226 1.301 . S
C223 O227 1.282 . S
O224 U206 2.441 . S
O224 C210 1.249 . S
O225 U206 2.420 . S
O225 C210 1.202 . S
O226 U206 2.455 . S
O226 C223 1.301 . S
O227 U206 2.449 . S
O227 C223 1.282 . S
H228 C201 0.931 . S
H229 C203 0.929 . S
H230 C204 0.930 . S
H231 C205 0.931 . S
H232 C212 0.932 . S
H233 C213 0.930 . S
H234 C214 0.929 . S
H235 C216 0.930 . S
H236 C218 0.932 . S
H237 C219 0.929 . S
H238 C220 0.928 . S
H239 C222 0.932 . S
C240 C241 1.264 . S
C240 C245 1.479 . S
C240 C250 1.465 . S
C241 C240 1.264 . S
C241 C243 1.339 . S
C241 H268 0.931 . S
C242 C243 1.395 . S
C242 C244 1.320 . S
C243 C241 1.339 . S
C243 C242 1.395 . S
C243 H269 0.929 . S
C244 C242 1.320 . S
C244 C245 1.405 . S
C244 H270 0.930 . S
C245 C240 1.479 . S
C245 C244 1.405 . S
C245 H271 0.931 . S
U246 O247 2.454 . S
U246 O248 2.458 . S
U246 C249 2.984 . S
U246 C250 2.847 . S
U246 C263 2.882 . S
U246 O264 2.441 . S
U246 O265 2.420 . S
U246 O266 2.455 . S
U246 O267 2.449 . S
O247 U246 2.454 . S
O247 C249 1.353 . S
O248 U246 2.458 . S
O248 C249 1.286 . S
C249 U246 2.984 . S
C249 O247 1.353 . S
C249 O248 1.286 . S
C249 C251 1.363 . S
C250 C240 1.465 . S
C250 U246 2.847 . S
C250 O264 1.249 . S
C250 O265 1.202 . S
C251 C249 1.363 . S
C251 C253 1.408 . S
C251 C256 1.342 . S
C252 C253 1.310 . S
C252 C255 1.461 . S
C252 H272 0.932 . S
C253 C251 1.408 . S
C253 C252 1.310 . S
C253 H273 0.930 . S
C254 C255 1.474 . S
C254 C256 1.285 . S
C254 H274 0.929 . S
C255 C252 1.461 . S
C255 C254 1.474 . S
C256 C251 1.342 . S
C256 C254 1.285 . S
C256 H275 0.930 . S
C257 C260 1.424 . S
C257 C262 1.245 . S
C257 C263 1.428 . S
C258 C261 1.260 . S
C258 C262 1.477 . S
C258 H276 0.932 . S
C259 C260 1.384 . S
C259 C261 1.479 . S
C259 H277 0.929 . S
C260 C257 1.424 . S
C260 C259 1.384 . S
C260 H278 0.928 . S
C261 C258 1.260 . S
C261 C259 1.479 . S
C262 C257 1.245 . S
C262 C258 1.477 . S
C262 H279 0.932 . S
C263 U246 2.882 . S
C263 C257 1.428 . S
C263 O266 1.301 . S
C263 O267 1.282 . S
O264 U246 2.441 . S
O264 C250 1.249 . S
O265 U246 2.420 . S
O265 C250 1.202 . S
O266 U246 2.455 . S
O266 C263 1.301 . S
O267 U246 2.449 . S
O267 C263 1.282 . S
H268 C241 0.931 . S
H269 C243 0.929 . S
H270 C244 0.930 . S
H271 C245 0.931 . S
H272 C252 0.932 . S
H273 C253 0.930 . S
H274 C254 0.929 . S
H275 C256 0.930 . S
H276 C258 0.932 . S
H277 C259 0.929 . S
H278 C260 0.928 . S
H279 C262 0.932 . S
C280 C281 1.264 . S
C280 C285 1.479 . S
C280 C290 1.465 . S
C281 C280 1.264 . S
C281 C283 1.339 . S
C281 H308 0.931 . S
C282 C283 1.395 . S
C282 C284 1.320 . S
C283 C281 1.339 . S
C283 C282 1.395 . S
C283 H309 0.929 . S
C284 C282 1.320 . S
C284 C285 1.405 . S
C284 H310 0.930 . S
C285 C280 1.479 . S
C285 C284 1.405 . S
C285 H311 0.931 . S
U286 O287 2.454 . S
U286 O288 2.458 . S
U286 C289 2.984 . S
U286 C290 2.847 . S
U286 C303 2.882 . S
U286 O304 2.441 . S
U286 O305 2.420 . S
U286 O306 2.455 . S
U286 O307 2.449 . S
O287 U286 2.454 . S
O287 C289 1.353 . S
O288 U286 2.458 . S
O288 C289 1.286 . S
C289 U286 2.984 . S
C289 O287 1.353 . S
C289 O288 1.286 . S
C289 C291 1.363 . S
C290 C280 1.465 . S
C290 U286 2.847 . S
C290 O304 1.249 . S
C290 O305 1.202 . S
C291 C289 1.363 . S
C291 C293 1.408 . S
C291 C296 1.342 . S
C292 C293 1.310 . S
C292 C295 1.461 . S
C292 H312 0.932 . S
C293 C291 1.408 . S
C293 C292 1.310 . S
C293 H313 0.930 . S
C294 C295 1.474 . S
C294 C296 1.285 . S
C294 H314 0.929 . S
C295 C292 1.461 . S
C295 C294 1.474 . S
C296 C291 1.342 . S
C296 C294 1.285 . S
C296 H315 0.930 . S
C297 C300 1.424 . S
C297 C302 1.245 . S
C297 C303 1.428 . S
C298 C301 1.260 . S
C298 C302 1.477 . S
C298 H316 0.932 . S
C299 C300 1.384 . S
C299 C301 1.479 . S
C299 H317 0.929 . S
C300 C297 1.424 . S
C300 C299 1.384 . S
C300 H318 0.928 . S
C301 C298 1.260 . S
C301 C299 1.479 . S
C302 C297 1.245 . S
C302 C298 1.477 . S
C302 H319 0.932 . S
C303 U286 2.882 . S
C303 C297 1.428 . S
C303 O306 1.301 . S
C303 O307 1.282 . S
O304 U286 2.441 . S
O304 C290 1.249 . S
O305 U286 2.420 . S
O305 C290 1.202 . S
O306 U286 2.455 . S
O306 C303 1.301 . S
O307 U286 2.449 . S
O307 C303 1.282 . S
H308 C281 0.931 . S
H309 C283 0.929 . S
H310 C284 0.930 . S
H311 C285 0.931 . S
H312 C292 0.932 . S
H313 C293 0.930 . S
H314 C294 0.929 . S
H315 C296 0.930 . S
H316 C298 0.932 . S
H317 C299 0.929 . S
H318 C300 0.928 . S
H319 C302 0.932 . S
C320 C321 1.386 . S
C320 C322 1.383 . S
C320 H336 0.951 . S
C321 C320 1.386 . S
C321 C325 1.383 . S
C322 C320 1.383 . S
C322 C323 1.402 . S
C322 H337 0.951 . S
C323 C322 1.402 . S
C323 C324 1.375 . S
C323 C326 1.481 1_556 S
C324 C323 1.375 . S
C324 C325 1.367 . S
C324 H338 0.951 1_556 S
C325 C321 1.383 . S
C325 C324 1.367 . S
C325 H339 0.950 . S
C326 C323 1.481 1_554 S
C326 C327 1.297 . S
C326 H340 0.950 . S
C327 C326 1.297 . S
C327 C328 1.479 . S
C327 H341 0.893 1_554 S
C328 C327 1.479 . S
C328 C329 1.375 . S
C328 C334 1.404 . S
C329 C328 1.375 . S
C329 C330 1.369 . S
C329 H342 1.049 . S
C330 C329 1.369 . S
C330 C331 1.392 . S
C330 H343 0.951 . S
C331 C330 1.392 . S
C331 C333 1.384 . S
H332 C334 0.949 . S
C333 C331 1.384 . S
C333 C334 1.385 . S
C333 H335 0.950 . S
C334 C328 1.404 . S
C334 H332 0.949 . S
C334 C333 1.385 . S
H335 C333 0.950 . S
H336 C320 0.951 . S
H337 C322 0.951 . S
H338 C324 0.951 1_554 S
H339 C325 0.950 . S
H340 C326 0.950 . S
H341 C327 0.893 1_556 S
H342 C329 1.049 . S
H343 C330 0.951 . S
C344 C345 1.386 . S
C344 C346 1.383 . S
C344 H360 0.951 . S
C345 C344 1.386 . S
C345 C349 1.383 . S
C346 C344 1.383 . S
C346 C347 1.402 . S
C346 H361 0.951 . S
C347 C346 1.402 . S
C347 C348 1.375 . S
C347 C350 1.481 . S
C348 C347 1.375 . S
C348 C349 1.367 . S
C348 H362 0.951 . S
C349 C345 1.383 . S
C349 C348 1.367 . S
C349 H363 0.950 . S
C350 C347 1.481 . S
C350 C351 1.297 . S
C350 H364 0.950 . S
C351 C350 1.297 . S
C351 C352 1.479 . S
C351 H365 0.950 . S
C352 C351 1.479 . S
C352 C353 1.375 . S
C352 C358 1.404 . S
C353 C352 1.375 . S
C353 C354 1.369 . S
C353 H366 0.950 . S
C354 C353 1.369 . S
C354 C355 1.392 . S
C354 H367 0.951 . S
C355 C354 1.392 . S
C355 C357 1.384 . S
H356 C358 0.949 . S
C357 C355 1.384 . S
C357 C358 1.385 . S
C357 H359 0.950 . S
C358 C352 1.404 . S
C358 H356 0.949 . S
C358 C357 1.385 . S
H359 C357 0.950 . S
H360 C344 0.951 . S
H361 C346 0.951 . S
H362 C348 0.951 . S
H363 C349 0.950 . S
H364 C350 0.950 . S
H365 C351 0.950 . S
H366 C353 0.950 . S
H367 C354 0.951 . S
C368 C369 1.386 . S
C368 C370 1.383 . S
C368 H384 0.951 . S
C369 C368 1.386 . S
C369 C373 1.383 . S
C370 C368 1.383 . S
C370 C371 1.402 . S
C370 H385 0.951 . S
C371 C370 1.402 . S
C371 C372 1.375 . S
C371 C374 1.481 . S
C372 C371 1.375 . S
C372 C373 1.367 . S
C372 H386 0.951 . S
C373 C369 1.383 . S
C373 C372 1.367 . S
C373 H387 0.950 . S
C374 C371 1.481 . S
C374 C375 1.297 . S
C374 H388 0.950 . S
C375 C374 1.297 . S
C375 C376 1.479 . S
C375 H389 0.950 . S
C376 C375 1.479 . S
C376 C377 1.375 . S
C376 C382 1.404 . S
C377 C376 1.375 . S
C377 C378 1.369 . S
C377 H390 0.950 . S
C378 C377 1.369 . S
C378 C379 1.392 . S
C378 H391 0.951 . S
C379 C378 1.392 . S
C379 C381 1.384 . S
H380 C382 0.949 . S
C381 C379 1.384 . S
C381 C382 1.385 . S
C381 H383 0.950 . S
C382 C376 1.404 . S
C382 H380 0.949 . S
C382 C381 1.385 . S
H383 C381 0.950 . S
H384 C368 0.951 . S
H385 C370 0.951 . S
H386 C372 0.951 . S
H387 C373 0.950 . S
H388 C374 0.950 . S
H389 C375 0.950 . S
H390 C377 0.950 . S
H391 C378 0.951 . S
C392 C393 1.386 . S
C392 C394 1.383 . S
C392 H408 0.951 . S
C393 C392 1.386 . S
C393 C397 1.383 . S
C394 C392 1.383 . S
C394 C395 1.402 . S
C394 H409 0.951 . S
C395 C394 1.402 . S
C395 C396 1.375 . S
C395 C398 1.481 . S
C396 C395 1.375 . S
C396 C397 1.367 . S
C396 H410 0.951 . S
C397 C393 1.383 . S
C397 C396 1.367 . S
C397 H411 0.950 . S
C398 C395 1.481 . S
C398 C399 1.297 . S
C398 H412 0.950 . S
C399 C398 1.297 . S
C399 C400 1.479 . S
C399 H413 0.950 . S
C400 C399 1.479 . S
C400 C401 1.375 . S
C400 C406 1.404 . S
C401 C400 1.375 . S
C401 C402 1.369 . S
C401 H414 0.950 . S
C402 C401 1.369 . S
C402 C403 1.392 . S
C402 H415 0.951 . S
C403 C402 1.392 . S
C403 C405 1.384 . S
H404 C406 0.949 . S
C405 C403 1.384 . S
C405 C406 1.385 . S
C405 H407 0.950 . S
C406 C400 1.404 . S
C406 H404 0.949 . S
C406 C405 1.385 . S
H407 C405 0.950 . S
H408 C392 0.951 . S
H409 C394 0.951 . S
H410 C396 0.951 . S
H411 C397 0.950 . S
H412 C398 0.950 . S
H413 C399 0.950 . S
H414 C401 0.950 . S
H415 C402 0.951 . S
C416 C417 1.386 . S
C416 C418 1.383 . S
C416 H432 0.951 . S
C417 C416 1.386 . S
C417 C421 1.383 . S
C418 C416 1.383 . S
C418 C419 1.402 . S
C418 H433 0.951 . S
C419 C418 1.402 . S
C419 C420 1.375 . S
C419 C422 1.481 . S
C420 C419 1.375 . S
C420 C421 1.367 . S
C420 H434 0.951 . S
C421 C417 1.383 . S
C421 C420 1.367 . S
C421 H435 0.950 . S
C422 C419 1.481 . S
C422 C423 1.297 . S
C422 H436 0.950 . S
C423 C422 1.297 . S
C423 C424 1.479 . S
C423 H437 0.950 . S
C424 C423 1.479 . S
C424 C425 1.375 . S
C424 C430 1.404 . S
C425 C424 1.375 . S
C425 C426 1.369 . S
C425 H438 0.950 . S
C426 C425 1.369 . S
C426 C427 1.392 . S
C426 H439 0.951 . S
C427 C426 1.392 . S
C427 C429 1.384 . S
H428 C430 0.949 . S
C429 C427 1.384 . S
C429 C430 1.385 . S
C429 H431 0.950 . S
C430 C424 1.404 . S
C430 H428 0.949 . S
C430 C429 1.385 . S
H431 C429 0.950 . S
H432 C416 0.951 . S
H433 C418 0.951 . S
H434 C420 0.951 . S
H435 C421 0.950 . S
H436 C422 0.950 . S
H437 C423 0.950 . S
H438 C425 0.950 . S
H439 C426 0.951 . S
C440 C441 1.386 . S
C440 C442 1.383 . S
C440 H456 0.951 . S
C441 C440 1.386 . S
C441 C445 1.383 . S
C442 C440 1.383 . S
C442 C443 1.402 . S
C442 H457 0.951 . S
C443 C442 1.402 . S
C443 C444 1.375 . S
C443 C446 1.481 . S
C444 C443 1.375 . S
C444 C445 1.367 . S
C444 H458 0.951 . S
C445 C441 1.383 . S
C445 C444 1.367 . S
C445 H459 0.950 . S
C446 C443 1.481 . S
C446 C447 1.297 . S
C446 H460 0.950 . S
C447 C446 1.297 . S
C447 C448 1.479 . S
C447 H461 0.950 . S
C448 C447 1.479 . S
C448 C449 1.375 . S
C448 C454 1.404 . S
C449 C448 1.375 . S
C449 C450 1.369 . S
C449 H462 0.950 . S
C450 C449 1.369 . S
C450 C451 1.392 . S
C450 H463 0.951 . S
C451 C450 1.392 . S
C451 C453 1.384 . S
H452 C454 0.949 . S
C453 C451 1.384 . S
C453 C454 1.385 . S
C453 H455 0.950 . S
C454 C448 1.404 . S
C454 H452 0.949 . S
C454 C453 1.385 . S
H455 C453 0.950 . S
H456 C440 0.951 . S
H457 C442 0.951 . S
H458 C444 0.951 . S
H459 C445 0.950 . S
H460 C446 0.950 . S
H461 C447 0.950 . S
H462 C449 0.950 . S
H463 C450 0.951 . S
C464 C465 1.386 . S
C464 C466 1.383 . S
C464 H480 0.951 . S
C465 C464 1.386 . S
C465 C469 1.383 . S
C466 C464 1.383 . S
C466 C467 1.402 . S
C466 H481 0.951 . S
C467 C466 1.402 . S
C467 C468 1.375 . S
C467 C470 1.481 . S
C468 C467 1.375 . S
C468 C469 1.367 . S
C468 H482 0.951 . S
C469 C465 1.383 . S
C469 C468 1.367 . S
C469 H483 0.950 . S
C470 C467 1.481 . S
C470 C471 1.297 1_565 S
C470 H484 0.950 1_565 S
C471 C470 1.297 1_545 S
C471 C472 1.479 . S
C471 H485 0.950 1_545 S
C472 C471 1.479 . S
C472 C473 1.375 . S
C472 C478 1.404 . S
C473 C472 1.375 . S
C473 C474 1.369 . S
C473 H486 0.950 . S
C474 C473 1.369 . S
C474 C475 1.392 . S
C474 H487 0.951 . S
C475 C474 1.392 . S
C475 C477 1.384 . S
H476 C478 0.949 . S
C477 C475 1.384 . S
C477 C478 1.385 . S
C477 H479 0.950 . S
C478 C472 1.404 . S
C478 H476 0.949 . S
C478 C477 1.385 . S
H479 C477 0.950 . S
H480 C464 0.951 . S
H481 C466 0.951 . S
H482 C468 0.951 . S
H483 C469 0.950 . S
H484 C470 0.950 1_545 S
H485 C471 0.950 1_565 S
H486 C473 0.950 . S
H487 C474 0.951 . S
C488 C489 1.386 . S
C488 C490 1.383 . S
C488 H504 0.951 . S
C489 C488 1.386 . S
C489 C493 1.383 . S
C490 C488 1.383 . S
C490 C491 1.402 . S
C490 H505 0.951 . S
C491 C490 1.402 . S
C491 C492 1.381 . S
C491 C494 1.481 1_554 S
C492 C491 1.381 . S
C492 C493 1.376 . S
C492 H506 0.936 1_554 S
C493 C489 1.383 . S
C493 C492 1.376 . S
C493 H507 0.950 . S
C494 C491 1.481 1_556 S
C494 C495 1.333 1_565 S
C494 H508 0.950 . S
C495 C494 1.333 1_545 S
C495 C496 1.552 . S
C495 H509 0.842 1_556 S
C496 C495 1.552 . S
C496 C497 1.375 . S
C496 C502 1.404 . S
C497 C496 1.375 . S
C497 C498 1.369 . S
C497 H510 0.950 1_556 S
C498 C497 1.369 . S
C498 C499 1.392 . S
C498 H511 0.951 . S
C499 C498 1.392 . S
C499 C501 1.384 . S
H500 C502 0.949 . S
C501 C499 1.384 . S
C501 C502 1.385 . S
C501 H503 0.950 . S
C502 C496 1.404 . S
C502 H500 0.949 . S
C502 C501 1.385 . S
H503 C501 0.950 . S
H504 C488 0.951 . S
H505 C490 0.951 . S
H506 C492 0.936 1_556 S
H507 C493 0.950 . S
H508 C494 0.950 . S
H509 C495 0.842 1_554 S
H510 C497 0.950 1_554 S
H511 C498 0.951 . S
C512 C513 1.386 . S
C512 C514 1.383 . S
C512 H528 0.951 . S
C513 C512 1.386 . S
C513 C517 1.383 . S
C514 C512 1.383 . S
C514 C515 1.402 . S
C514 H529 0.951 . S
C515 C514 1.402 . S
C515 C516 1.375 . S
C515 C518 1.481 . S
C516 C515 1.375 . S
C516 C517 1.367 . S
C516 H530 0.951 . S
C517 C513 1.383 . S
C517 C516 1.367 . S
C517 H531 0.950 . S
C518 C515 1.481 . S
C518 C519 1.297 . S
C518 H532 0.950 . S
C519 C518 1.297 . S
C519 C520 1.479 . S
C519 H533 0.950 . S
C520 C519 1.479 . S
C520 C521 1.375 . S
C520 C526 1.404 . S
C521 C520 1.375 . S
C521 C522 1.369 . S
C521 H534 0.950 . S
C522 C521 1.369 . S
C522 C523 1.392 . S
C522 H535 0.951 . S
C523 C522 1.392 . S
C523 C525 1.384 . S
H524 C526 0.949 . S
C525 C523 1.384 . S
C525 C526 1.385 . S
C525 H527 0.950 . S
C526 C520 1.404 . S
C526 H524 0.949 . S
C526 C525 1.385 . S
H527 C525 0.950 . S
H528 C512 0.951 . S
H529 C514 0.951 . S
H530 C516 0.951 . S
H531 C517 0.950 . S
H532 C518 0.950 . S
H533 C519 0.950 . S
H534 C521 0.950 . S
H535 C522 0.951 . S
C536 C537 1.386 . S
C536 C538 1.383 . S
C536 H552 0.951 . S
C537 C536 1.386 . S
C537 C541 1.383 . S
C538 C536 1.383 . S
C538 C539 1.402 . S
C538 H553 0.951 . S
C539 C538 1.402 . S
C539 C540 1.375 . S
C539 C542 1.481 . S
C540 C539 1.375 . S
C540 C541 1.367 . S
C540 H554 0.951 . S
C541 C537 1.383 . S
C541 C540 1.367 . S
C541 H555 0.950 . S
C542 C539 1.481 . S
C542 C543 1.297 . S
C542 H556 0.950 . S
C543 C542 1.297 . S
C543 C544 1.479 . S
C543 H557 0.950 . S
C544 C543 1.479 . S
C544 C545 1.375 . S
C544 C550 1.404 . S
C545 C544 1.375 . S
C545 C546 1.369 . S
C545 H558 0.950 . S
C546 C545 1.369 . S
C546 C547 1.392 . S
C546 H559 0.951 . S
C547 C546 1.392 . S
C547 C549 1.384 . S
H548 C550 0.949 . S
C549 C547 1.384 . S
C549 C550 1.385 . S
C549 H551 0.950 . S
C550 C544 1.404 . S
C550 H548 0.949 . S
C550 C549 1.385 . S
H551 C549 0.950 . S
H552 C536 0.951 . S
H553 C538 0.951 . S
H554 C540 0.951 . S
H555 C541 0.950 . S
H556 C542 0.950 . S
H557 C543 0.950 . S
H558 C545 0.950 . S
H559 C546 0.951 . S
C560 C561 1.386 . S
C560 C562 1.383 . S
C560 H576 0.951 . S
C561 C560 1.386 . S
C561 C565 1.383 . S
C562 C560 1.383 . S
C562 C563 1.402 . S
C562 H577 0.951 . S
C563 C562 1.402 . S
C563 C564 1.375 . S
C563 C566 1.481 . S
C564 C563 1.375 . S
C564 C565 1.367 . S
C564 H578 0.951 . S
C565 C561 1.383 . S
C565 C564 1.367 . S
C565 H579 0.950 . S
C566 C563 1.481 . S
C566 C567 1.297 . S
C566 H580 0.950 . S
C567 C566 1.297 . S
C567 C568 1.479 . S
C567 H581 0.950 . S
C568 C567 1.479 . S
C568 C569 1.375 . S
C568 C574 1.404 . S
C569 C568 1.375 . S
C569 C570 1.369 . S
C569 H582 0.950 . S
C570 C569 1.369 . S
C570 C571 1.392 . S
C570 H583 0.951 . S
C571 C570 1.392 . S
C571 C573 1.384 . S
H572 C574 0.949 . S
C573 C571 1.384 . S
C573 C574 1.385 . S
C573 H575 0.950 . S
C574 C568 1.404 . S
C574 H572 0.949 . S
C574 C573 1.385 . S
H575 C573 0.950 . S
H576 C560 0.951 . S
H577 C562 0.951 . S
H578 C564 0.951 . S
H579 C565 0.950 . S
H580 C566 0.950 . S
H581 C567 0.950 . S
H582 C569 0.950 . S
H583 C570 0.951 . S
C584 C585 1.386 . S
C584 C586 1.383 . S
C584 H600 0.951 . S
C585 C584 1.386 . S
C585 C589 1.383 . S
C586 C584 1.383 . S
C586 C587 1.402 . S
C586 H601 0.951 . S
C587 C586 1.402 . S
C587 C588 1.375 . S
C587 C590 1.481 . S
C588 C587 1.375 . S
C588 C589 1.367 . S
C588 H602 0.951 . S
C589 C585 1.383 . S
C589 C588 1.367 . S
C589 H603 0.950 . S
C590 C587 1.481 . S
C590 C591 1.297 . S
C590 H604 0.950 . S
C591 C590 1.297 . S
C591 C592 1.479 . S
C591 H605 0.950 . S
C592 C591 1.479 . S
C592 C593 1.375 . S
C592 C598 1.404 . S
C593 C592 1.375 . S
C593 C594 1.369 . S
C593 H606 0.950 . S
C594 C593 1.369 . S
C594 C595 1.392 . S
C594 H607 0.951 . S
C595 C594 1.392 . S
C595 C597 1.384 . S
H596 C598 0.949 . S
C597 C595 1.384 . S
C597 C598 1.385 . S
C597 H599 0.950 . S
C598 C592 1.404 . S
C598 H596 0.949 . S
C598 C597 1.385 . S
H599 C597 0.950 . S
H600 C584 0.951 . S
H601 C586 0.951 . S
H602 C588 0.951 . S
H603 C589 0.950 . S
H604 C590 0.950 . S
H605 C591 0.950 . S
H606 C593 0.950 . S
H607 C594 0.951 . S
C321 C175 1.495 . S
C331 C15 1.486 . S
C345 C215 1.498 . S
C355 C55 1.489 . S
C369 C82 1.476 . S
C379 C242 1.509 . S
C393 C122 1.498 . S
C403 C282 1.466 . S
C417 C295 1.499 . S
C427 C135 1.491 . S
C441 C202 1.494 . S
C451 C42 1.490 . S
C465 C255 1.504 . S
C475 C95 1.505 . S
C489 C2 1.480 . S
C499 C162 1.498 . S
C513 C221 1.482 . S
C523 C21 1.496 . S
C537 C261 1.483 . S
C547 C61 1.459 . S
C561 C101 1.481 . S
C571 C301 1.497 . S
C585 C181 1.488 . S
C595 C141 1.489 . S
