# Generated by pormake.
# Topology umw, (4)-cn, num edge types: 1
# Building blocks:
#     Node 0, Type 0, BuildingBlock: ICAMEG_clean_sbu_1, # of connection points: 4
#     Node 1, Type 0, BuildingBlock: ICAMEG_clean_sbu_1, # of connection points: 4
#     Node 2, Type 0, BuildingBlock: ICAMEG_clean_sbu_1, # of connection points: 4
#     Node 3, Type 0, BuildingBlock: ICAMEG_clean_sbu_1, # of connection points: 4
#     Node 4, Type 0, BuildingBlock: ICAMEG_clean_sbu_1, # of connection points: 4
#     Node 5, Type 0, BuildingBlock: ICAMEG_clean_sbu_1, # of connection points: 4
#     Node 6, Type 0, BuildingBlock: ICAMEG_clean_sbu_1, # of connection points: 4
#     Node 7, Type 0, BuildingBlock: ICAMEG_clean_sbu_1, # of connection points: 4
#     Edge 8, Type (0, 0), BuildingBlock: CIFDUS_clean_linker_0, # of connection points: 2
#     Edge 9, Type (0, 0), BuildingBlock: CIFDUS_clean_linker_0, # of connection points: 2
#     Edge 10, Type (0, 0), BuildingBlock: CIFDUS_clean_linker_0, # of connection points: 2
#     Edge 11, Type (0, 0), BuildingBlock: CIFDUS_clean_linker_0, # of connection points: 2
#     Edge 12, Type (0, 0), BuildingBlock: CIFDUS_clean_linker_0, # of connection points: 2
#     Edge 13, Type (0, 0), BuildingBlock: CIFDUS_clean_linker_0, # of connection points: 2
#     Edge 14, Type (0, 0), BuildingBlock: CIFDUS_clean_linker_0, # of connection points: 2
#     Edge 15, Type (0, 0), BuildingBlock: CIFDUS_clean_linker_0, # of connection points: 2
#     Edge 16, Type (0, 0), BuildingBlock: CIFDUS_clean_linker_0, # of connection points: 2
#     Edge 17, Type (0, 0), BuildingBlock: CIFDUS_clean_linker_0, # of connection points: 2
#     Edge 18, Type (0, 0), BuildingBlock: CIFDUS_clean_linker_0, # of connection points: 2
#     Edge 19, Type (0, 0), BuildingBlock: CIFDUS_clean_linker_0, # of connection points: 2
#     Edge 20, Type (0, 0), BuildingBlock: CIFDUS_clean_linker_0, # of connection points: 2
#     Edge 21, Type (0, 0), BuildingBlock: CIFDUS_clean_linker_0, # of connection points: 2
#     Edge 22, Type (0, 0), BuildingBlock: CIFDUS_clean_linker_0, # of connection points: 2
#     Edge 23, Type (0, 0), BuildingBlock: CIFDUS_clean_linker_0, # of connection points: 2
# Relax obj value: 0.117
# Max RMSD: 0.127
# Mean RMSD: 0.127
data_MOF--net-umw--node1-ICAMEG_clean_sbu_1--edge1-CIFDUS_clean_linker_0
_symmetry_space_group_name_H-M    P1
_symmetry_Int_Tables_number       1
_symmetry_cell_setting            triclinic
loop_
_symmetry_equiv_pos_as_xyz
'x, y, z'
_cell_length_a     37.861749
_cell_length_b     37.908889
_cell_length_c     25.718384
_cell_angle_alpha  89.972468
_cell_angle_beta   89.987133
_cell_angle_gamma 90.033692
loop_
_atom_site_label
_atom_site_type_symbol
_atom_site_fract_x
_atom_site_fract_y
_atom_site_fract_z
_atom_type_partial_charge
Co0 Co 0.47704 0.18169 0.29896 0.0
Co1 Co 0.39263 0.16105 0.34077 0.0
O2 O 0.4255 0.18718 0.29625 0.0
C3 C 0.45964 0.16604 0.19001 0.0
O4 O 0.432 0.14854 0.20688 0.0
C5 C 0.37227 0.23503 0.36557 0.0
O6 O 0.40585 0.24264 0.37184 0.0
O7 O 0.42015 0.1734 0.40399 0.0
O8 O 0.47588 0.18067 0.37604 0.0
H9 H 0.35981 0.07652 0.48339 0.0
H10 H 0.44578 0.23979 0.23728 0.0
O11 O 0.4798 0.18213 0.22161 0.0
H12 H 0.52005 0.29795 0.36941 0.0
H13 H 0.60181 0.20793 0.24316 0.0
H14 H 0.5265 0.13801 0.36101 0.0
H15 H 0.51625 0.23306 0.36535 0.0
H16 H 0.537 0.21438 0.24109 0.0
O17 O 0.36303 0.20431 0.35073 0.0
H18 H 0.40071 0.10943 0.42659 0.0
H19 H 0.31411 0.158 0.34991 0.0
H20 H 0.59122 0.13103 0.3648 0.0
H21 H 0.44902 0.30479 0.23969 0.0
H22 H 0.62933 0.16613 0.30554 0.0
H23 H 0.48631 0.33427 0.3062 0.0
O24 O 0.47349 0.1292 0.29682 0.0
H25 H 0.3313 0.18696 0.17188 0.0
H26 H 0.36352 0.094 0.2974 0.0
H27 H 0.33074 0.07808 0.21795 0.0
H28 H 0.31437 0.12475 0.15457 0.0
H29 H 0.3644 0.20167 0.25164 0.0
H30 H 0.27227 0.12589 0.40622 0.0
H31 H 0.29507 0.08467 0.47339 0.0
O32 O 0.42085 0.11707 0.33263 0.0
C33 C 0.45295 0.17863 0.41211 0.0
C34 C 0.34954 0.09432 0.45416 0.0
C35 C 0.30041 0.12206 0.41089 0.0
N36 N 0.35981 0.1354 0.38471 0.0
C37 C 0.37257 0.11296 0.42179 0.0
C38 C 0.32423 0.14023 0.3792 0.0
C39 C 0.31323 0.09893 0.44856 0.0
C40 C 0.46227 0.25245 0.26606 0.0
N41 N 0.48093 0.23268 0.30094 0.0
C42 C 0.46391 0.28925 0.26736 0.0
C43 C 0.48481 0.30577 0.30473 0.0
C44 C 0.50373 0.28541 0.34022 0.0
C45 C 0.50142 0.24868 0.3378 0.0
C46 C 0.58549 0.19255 0.26926 0.0
C47 C 0.54293 0.15356 0.33536 0.0
C48 C 0.54878 0.19604 0.2682 0.0
N49 N 0.52802 0.17681 0.30121 0.0
C50 C 0.57955 0.14941 0.33757 0.0
C51 C 0.60092 0.16909 0.30427 0.0
C52 C 0.45055 0.10754 0.31407 0.0
C53 C 0.3382 0.1664 0.19928 0.0
C54 C 0.3566 0.11445 0.26993 0.0
C55 C 0.33796 0.10528 0.22507 0.0
C56 C 0.32875 0.13148 0.18955 0.0
N57 N 0.36574 0.14877 0.2792 0.0
C58 C 0.35679 0.1746 0.24459 0.0
Co59 Co 0.83203 0.47532 0.55381 0.0
Co60 Co 0.83676 0.3879 0.59361 0.0
O61 O 0.81548 0.4261 0.55268 0.0
C62 C 0.83878 0.45595 0.44299 0.0
O63 O 0.85086 0.42502 0.45749 0.0
C64 C 0.76113 0.38513 0.62834 0.0
O65 O 0.7589 0.41967 0.62653 0.0
O66 O 0.83738 0.41771 0.65762 0.0
O67 O 0.83558 0.47392 0.63034 0.0
H68 H 0.92445 0.33642 0.719 0.0
H69 H 0.76624 0.45691 0.49778 0.0
O70 O 0.82894 0.47841 0.47666 0.0
H71 H 0.73025 0.54217 0.63248 0.0
H72 H 0.83086 0.6028 0.49859 0.0
H73 H 0.88754 0.51421 0.61151 0.0
H74 H 0.79267 0.52478 0.6232 0.0
H75 H 0.81056 0.54097 0.49805 0.0
O76 O 0.78931 0.36945 0.61443 0.0
H77 H 0.89725 0.38354 0.66631 0.0
H78 H 0.82124 0.31118 0.60812 0.0
H79 H 0.90845 0.57583 0.61364 0.0
H80 H 0.70353 0.47382 0.50536 0.0
H81 H 0.88005 0.62061 0.55686 0.0
H82 H 0.68518 0.51667 0.57321 0.0
O83 O 0.88269 0.46079 0.54746 0.0
H84 H 0.78081 0.33685 0.43342 0.0
H85 H 0.88837 0.34008 0.54124 0.0
H86 H 0.8878 0.30441 0.46106 0.0
H87 H 0.83367 0.30261 0.40656 0.0
H88 H 0.78278 0.37251 0.51362 0.0
H89 H 0.84735 0.2634 0.6606 0.0
H90 H 0.89944 0.27585 0.71638 0.0
O91 O 0.88486 0.40438 0.57411 0.0
C92 C 0.83715 0.45088 0.66614 0.0
C93 C 0.90183 0.33064 0.69472 0.0
C94 C 0.85853 0.28967 0.662 0.0
N95 N 0.85786 0.35008 0.6339 0.0
C96 C 0.88639 0.35718 0.66468 0.0
C97 C 0.8438 0.31686 0.63247 0.0
C98 C 0.88776 0.29667 0.69327 0.0
C99 C 0.75848 0.47578 0.52712 0.0
N100 N 0.7831 0.48991 0.5599 0.0
C101 C 0.72293 0.48516 0.53135 0.0
C102 C 0.71265 0.50917 0.56947 0.0
C103 C 0.73791 0.52347 0.60276 0.0
C104 C 0.77322 0.51344 0.59743 0.0
C105 C 0.84342 0.58355 0.52356 0.0
C106 C 0.87492 0.53359 0.58689 0.0
C107 C 0.8321 0.54848 0.52333 0.0
N108 N 0.84774 0.52404 0.55491 0.0
C109 C 0.88693 0.56842 0.58818 0.0
C110 C 0.87101 0.59352 0.55628 0.0
C111 C 0.89949 0.43236 0.55705 0.0
C112 C 0.80457 0.33747 0.45678 0.0
C113 C 0.86493 0.33975 0.51739 0.0
C114 C 0.86465 0.31933 0.47222 0.0
C115 C 0.83425 0.31829 0.44171 0.0
N116 N 0.83579 0.35861 0.53179 0.0
C117 C 0.80582 0.35755 0.50226 0.0
Co118 Co 0.52542 0.8258 0.80055 0.0
Co119 Co 0.61292 0.83735 0.8379 0.0
O120 O 0.57557 0.81165 0.80074 0.0
C121 C 0.54445 0.82706 0.689 0.0
O122 O 0.57516 0.84043 0.70211 0.0
C123 C 0.62189 0.76291 0.87867 0.0
O124 O 0.58838 0.75536 0.87178 0.0
O125 O 0.58338 0.84021 0.90214 0.0
O126 O 0.52706 0.83364 0.87655 0.0
H127 H 0.66004 0.93536 0.94952 0.0
H128 H 0.54628 0.75827 0.75147 0.0
O129 O 0.52214 0.81852 0.72377 0.0
H130 H 0.46436 0.72558 0.89262 0.0
H131 H 0.3978 0.81499 0.74771 0.0
H132 H 0.48391 0.88212 0.85216 0.0
H133 H 0.47885 0.788 0.87593 0.0
H134 H 0.46068 0.79806 0.74849 0.0
O135 O 0.63434 0.79276 0.8652 0.0
H136 H 0.61417 0.90213 0.90215 0.0
H137 H 0.69063 0.8274 0.85257 0.0
H138 H 0.42121 0.89975 0.85292 0.0
H139 H 0.53224 0.69551 0.76647 0.0
H140 H 0.37768 0.86609 0.80038 0.0
H141 H 0.49108 0.67884 0.83759 0.0
O142 O 0.53718 0.87661 0.78804 0.0
H143 H 0.6669 0.77457 0.68552 0.0
H144 H 0.6566 0.88838 0.77698 0.0
H145 H 0.69193 0.88479 0.69657 0.0
H146 H 0.69729 0.82753 0.65031 0.0
H147 H 0.63149 0.7795 0.76576 0.0
H148 H 0.73724 0.85961 0.8998 0.0
H149 H 0.72208 0.9141 0.94854 0.0
O150 O 0.59381 0.88293 0.81229 0.0
C151 C 0.55029 0.83866 0.91147 0.0
C152 C 0.667 0.91171 0.92829 0.0
C153 C 0.71031 0.86918 0.90044 0.0
N154 N 0.64974 0.86302 0.87431 0.0
C155 C 0.64116 0.89285 0.90128 0.0
C156 C 0.68378 0.85101 0.87386 0.0
C157 C 0.70179 0.89975 0.92777 0.0
C158 C 0.5281 0.75122 0.78218 0.0
N159 N 0.5133 0.77676 0.81263 0.0
C160 C 0.52036 0.71564 0.79063 0.0
C161 C 0.4973 0.7063 0.83059 0.0
C162 C 0.48232 0.73252 0.8615 0.0
C163 C 0.49071 0.76781 0.85196 0.0
C164 C 0.4165 0.82984 0.77082 0.0
C165 C 0.46509 0.86722 0.82944 0.0
C166 C 0.45216 0.82042 0.77132 0.0
N167 N 0.47591 0.83896 0.80059 0.0
C168 C 0.42964 0.87738 0.82991 0.0
C169 C 0.40523 0.8585 0.80039 0.0
C170 C 0.56495 0.89512 0.79451 0.0
C171 C 0.66478 0.79966 0.70533 0.0
C172 C 0.65859 0.86346 0.75684 0.0
C173 C 0.67877 0.86154 0.71146 0.0
C174 C 0.68179 0.8294 0.68556 0.0
N175 N 0.64192 0.8342 0.7759 0.0
C176 C 0.64486 0.80258 0.75084 0.0
Co177 Co 0.17976 0.52719 0.04581 0.0
Co178 Co 0.167 0.61409 0.08303 0.0
O179 O 0.19024 0.57773 0.04121 0.0
C180 C 0.16551 0.54471 0.93647 0.0
O181 O 0.15094 0.57417 0.9525 0.0
C182 C 0.24288 0.62358 0.10994 0.0
O183 O 0.2459 0.58912 0.11249 0.0
O184 O 0.173 0.58598 0.14793 0.0
O185 O 0.17969 0.52974 0.12244 0.0
H186 H 0.08122 0.65942 0.21625 0.0
H187 H 0.2401 0.55166 0.98183 0.0
O188 O 0.17924 0.52332 0.9687 0.0
H189 H 0.29214 0.47429 0.11559 0.0
H190 H 0.1931 0.3998 -0.00593 0.0
H191 H 0.13214 0.48321 0.11058 0.0
H192 H 0.22782 0.48428 0.11258 0.0
H193 H 0.20583 0.46355 0.98947 0.0
O194 O 0.21358 0.63756 0.09682 0.0
H195 H 0.11053 0.61396 0.16291 0.0
H196 H 0.17488 0.69216 0.09195 0.0
H197 H 0.11889 0.41964 0.11687 0.0
H198 H 0.30456 0.54217 0.98315 0.0
H199 H 0.14947 0.37745 0.0583 0.0
H200 H 0.33097 0.50332 0.05049 0.0
O201 O 0.12777 0.53572 0.0449 0.0
H202 H 0.20794 0.66867 0.91554 0.0
H203 H 0.10675 0.65237 0.03384 0.0
H204 H 0.09874 0.68597 0.95257 0.0
H205 H 0.14961 0.69433 0.89279 0.0
H206 H 0.21465 0.63494 -0.00296 0.0
H207 H 0.14654 0.73842 0.1449 0.0
H208 H 0.09924 0.72216 0.20744 0.0
O209 O 0.11992 0.59173 0.07087 0.0
C210 C 0.17711 0.55322 0.15748 0.0
C211 C 0.10173 0.66685 0.18903 0.0
C212 C 0.13842 0.71118 0.14904 0.0
N213 N 0.14421 0.65043 0.12412 0.0
C214 C 0.11834 0.64124 0.15862 0.0
C215 C 0.15444 0.68486 0.11926 0.0
C216 C 0.11187 0.70204 0.1841 0.0
C217 C 0.25138 0.53447 0.01095 0.0
N218 N 0.23022 0.5184 0.04689 0.0
C219 C 0.2879 0.52931 0.01164 0.0
C220 C 0.30271 0.50754 0.04947 0.0
C221 C 0.28094 0.49126 0.08603 0.0
C222 C 0.24454 0.49707 0.08419 0.0
C223 C 0.17966 0.41791 0.01987 0.0
C224 C 0.14573 0.46499 0.0852 0.0
C225 C 0.1867 0.45404 0.01738 0.0
N226 N 0.16995 0.47704 0.05002 0.0
C227 C 0.13804 0.42904 0.08883 0.0
C228 C 0.15519 0.40539 0.05593 0.0
C229 C 0.10801 0.56179 0.05651 0.0
C230 C 0.1856 0.66525 0.94131 0.0
C231 C 0.12894 0.65574 0.00791 0.0
C232 C 0.12429 0.6749 0.96203 0.0
C233 C 0.15284 0.6796 0.92853 0.0
N234 N 0.16113 0.64172 0.02015 0.0
C235 C 0.18927 0.6463 0.98758 0.0
Co236 Co 0.47528 0.82654 0.29564 0.0
Co237 Co 0.38901 0.8454 0.25921 0.0
O238 O 0.42414 0.81676 0.2962 0.0
C239 C 0.45729 0.82888 0.40716 0.0
O240 O 0.42817 0.84547 0.39422 0.0
C241 C 0.37349 0.77355 0.21544 0.0
O242 O 0.40738 0.76675 0.21123 0.0
O243 O 0.41776 0.84428 0.19411 0.0
O244 O 0.47378 0.83559 0.21981 0.0
H245 H 0.34991 0.94501 0.14395 0.0
H246 H 0.44869 0.7604 0.34285 0.0
O247 O 0.47843 0.81803 0.37221 0.0
H248 H 0.52652 0.72283 0.19943 0.0
H249 H 0.60187 0.8041 0.34562 0.0
H250 H 0.52111 0.87988 0.24488 0.0
H251 H 0.51799 0.78599 0.21854 0.0
H252 H 0.53773 0.79268 0.3457 0.0
O253 O 0.36296 0.8024 0.23543 0.0
H254 H 0.39309 0.90839 0.19134 0.0
H255 H 0.31041 0.84332 0.24859 0.0
H256 H 0.58512 0.89202 0.24326 0.0
H257 H 0.45668 0.69689 0.32535 0.0
H258 H 0.62597 0.85398 0.29392 0.0
H259 H 0.49577 0.67778 0.25309 0.0
O260 O 0.46794 0.87788 0.3098 0.0
H261 H 0.33115 0.79115 0.41573 0.0
H262 H 0.3522 0.90179 0.31966 0.0
H263 H 0.31804 0.90322 0.40128 0.0
H264 H 0.30728 0.84759 0.44988 0.0
H265 H 0.36553 0.79101 0.33419 0.0
H266 H 0.26638 0.87899 0.20142 0.0
H267 H 0.28604 0.93035 0.1488 0.0
O268 O 0.41286 0.88937 0.28208 0.0
C269 C 0.45075 0.84129 0.1848 0.0
C270 C 0.34101 0.92273 0.16682 0.0
C271 C 0.29413 0.88565 0.19901 0.0
N272 N 0.35429 0.87382 0.22281 0.0
C273 C 0.36532 0.90195 0.19381 0.0
C274 C 0.3192 0.86548 0.22549 0.0
C275 C 0.30518 0.91447 0.16952 0.0
C276 C 0.46596 0.75224 0.31163 0.0
N277 N 0.48297 0.77684 0.28194 0.0
C278 C 0.47029 0.71627 0.30178 0.0
C279 C 0.4922 0.70557 0.26119 0.0
C280 C 0.50944 0.73083 0.23105 0.0
C281 C 0.50444 0.76656 0.24199 0.0
C282 C 0.58435 0.82083 0.32331 0.0
C283 C 0.53875 0.86308 0.26677 0.0
C284 C 0.548 0.81454 0.3233 0.0
N285 N 0.52573 0.83545 0.29503 0.0
C286 C 0.57495 0.87014 0.26582 0.0
C287 C 0.59785 0.84881 0.29429 0.0
C288 C 0.44228 0.89882 0.30137 0.0
C289 C 0.33563 0.81555 0.39489 0.0
C290 C 0.3478 0.87751 0.34074 0.0
C291 C 0.32833 0.87846 0.38683 0.0
C292 C 0.32228 0.84724 0.41405 0.0
N293 N 0.36088 0.84634 0.32226 0.0
C294 C 0.35497 0.81561 0.34863 0.0
Co295 Co 0.18186 0.48056 0.54397 0.0
Co296 Co 0.1679 0.39421 0.50466 0.0
O297 O 0.19206 0.42983 0.54681 0.0
C298 C 0.16852 0.46171 0.65309 0.0
O299 O 0.15397 0.43235 0.63661 0.0
C300 C 0.24322 0.38454 0.47526 0.0
O301 O 0.24694 0.41897 0.47564 0.0
O302 O 0.17322 0.42317 0.44061 0.0
O303 O 0.1809 0.47908 0.46717 0.0
H304 H 0.07954 0.3516 0.37315 0.0
H305 H 0.24269 0.45497 0.60579 0.0
O306 O 0.18215 0.48341 0.62118 0.0
H307 H 0.29384 0.53369 0.47289 0.0
H308 H 0.19675 0.60711 0.59916 0.0
H309 H 0.13377 0.52569 0.48184 0.0
H310 H 0.22948 0.52401 0.47717 0.0
H311 H 0.20908 0.54325 0.60145 0.0
O312 O 0.21389 0.37054 0.48821 0.0
H313 H 0.1102 0.396 0.4268 0.0
H314 H 0.17484 0.31621 0.49296 0.0
H315 H 0.12089 0.58941 0.47786 0.0
H316 H 0.3072 0.46411 0.60318 0.0
H317 H 0.15248 0.63059 0.53685 0.0
H318 H 0.33316 0.50365 0.53626 0.0
O319 O 0.12978 0.47236 0.54617 0.0
H320 H 0.21102 0.33645 0.66852 0.0
H321 H 0.10791 0.35612 0.55507 0.0
H322 H 0.10091 0.32128 0.63543 0.0
H323 H 0.15273 0.31122 0.69276 0.0
H324 H 0.21674 0.37141 0.58798 0.0
H325 H 0.14515 0.271 0.43963 0.0
H326 H 0.09701 0.28859 0.37936 0.0
O327 O 0.12138 0.41672 0.51912 0.0
C328 C 0.17763 0.45597 0.43169 0.0
C329 C 0.1004 0.34359 0.39939 0.0
C330 C 0.13725 0.29836 0.43665 0.0
N331 N 0.14409 0.35867 0.46325 0.0
C332 C 0.11778 0.3686 0.42997 0.0
C333 C 0.15402 0.32409 0.46667 0.0
C334 C 0.11024 0.30825 0.40285 0.0
C335 C 0.25379 0.47245 0.57687 0.0
N336 N 0.23235 0.48906 0.54186 0.0
C337 C 0.29033 0.47742 0.57544 0.0
C338 C 0.30489 0.49957 0.53784 0.0
C339 C 0.28284 0.51642 0.50225 0.0
C340 C 0.24642 0.51078 0.5048 0.0
C341 C 0.18287 0.58945 0.57318 0.0
C342 C 0.1478 0.54348 0.50738 0.0
C343 C 0.18969 0.55325 0.57437 0.0
N344 N 0.17237 0.53081 0.5415 0.0
C345 C 0.14032 0.57951 0.50506 0.0
C346 C 0.15803 0.6026 0.5382 0.0
C347 C 0.10976 0.44646 0.53463 0.0
C348 C 0.18827 0.34059 0.6438 0.0
C349 C 0.13055 0.35197 0.57991 0.0
C350 C 0.12645 0.33214 0.62529 0.0
C351 C 0.15554 0.32648 0.65741 0.0
N352 N 0.16273 0.3657 0.56682 0.0
C353 C 0.19138 0.36023 0.59807 0.0
Co354 Co 0.52675 0.17802 0.79749 0.0
Co355 Co 0.6121 0.16059 0.75708 0.0
O356 O 0.57803 0.18519 0.80141 0.0
C357 C 0.54356 0.16289 0.90693 0.0
O358 O 0.57182 0.14612 0.89081 0.0
C359 C 0.63092 0.23563 0.73467 0.0
O360 O 0.59739 0.24249 0.72638 0.0
O361 O 0.58493 0.1729 0.69343 0.0
O362 O 0.52874 0.17743 0.72052 0.0
H363 H 0.64899 0.07854 0.61366 0.0
H364 H 0.55561 0.23689 0.86012 0.0
O365 O 0.52319 0.17815 0.87474 0.0
H366 H 0.48061 0.29308 0.72703 0.0
H367 H 0.40061 0.19981 0.85052 0.0
H368 H 0.47943 0.13299 0.73396 0.0
H369 H 0.48645 0.22833 0.73075 0.0
H370 H 0.46514 0.20841 0.85421 0.0
O371 O 0.6405 0.20491 0.74912 0.0
H372 H 0.60651 0.10946 0.67029 0.0
H373 H 0.69076 0.16033 0.74945 0.0
H374 H 0.41502 0.12386 0.72857 0.0
H375 H 0.55031 0.30175 0.85807 0.0
H376 H 0.37514 0.1574 0.78717 0.0
H377 H 0.51264 0.33024 0.79108 0.0
O378 O 0.53204 0.12566 0.79923 0.0
H379 H 0.67069 0.18631 0.92814 0.0
H380 H 0.64297 0.09401 0.79938 0.0
H381 H 0.67538 0.07815 0.87917 0.0
H382 H 0.68949 0.12449 0.94419 0.0
H383 H 0.63799 0.20095 0.84799 0.0
H384 H 0.73414 0.13023 0.69335 0.0
H385 H 0.71332 0.08888 0.62501 0.0
O386 O 0.58513 0.11558 0.76356 0.0
C387 C 0.55201 0.17686 0.68483 0.0
C388 C 0.65839 0.09643 0.64339 0.0
C389 C 0.70618 0.12548 0.68807 0.0
N390 N 0.64615 0.1365 0.71334 0.0
C391 C 0.63447 0.11394 0.67565 0.0
C392 C 0.68149 0.14252 0.71963 0.0
C393 C 0.69448 0.10226 0.64974 0.0
C394 C 0.53896 0.24911 0.83113 0.0
N395 N 0.52123 0.22886 0.79579 0.0
C396 C 0.53615 0.28584 0.83004 0.0
C397 C 0.51505 0.30181 0.7924 0.0
C398 C 0.49708 0.28097 0.75644 0.0
C399 C 0.50055 0.24433 0.75867 0.0
C400 C 0.4177 0.1851 0.82471 0.0
C401 C 0.46222 0.14785 0.75935 0.0
C402 C 0.45427 0.1898 0.82669 0.0
N403 N 0.476 0.17142 0.79403 0.0
C404 C 0.42579 0.14249 0.75623 0.0
C405 C 0.40343 0.1613 0.78915 0.0
C406 C 0.5557 0.10487 0.7818 0.0
C407 C 0.66477 0.1659 0.90003 0.0
C408 C 0.64887 0.1143 0.82757 0.0
C409 C 0.66733 0.10518 0.87261 0.0
C410 C 0.67527 0.1312 0.90906 0.0
N411 N 0.63868 0.1484 0.81899 0.0
C412 C 0.64641 0.17406 0.8545 0.0
Co413 Co 0.83228 0.52538 0.0502 0.0
Co414 Co 0.83026 0.61316 0.01259 0.0
O415 O 0.81268 0.57327 0.05362 0.0
C416 C 0.83907 0.54338 0.1613 0.0
O417 O 0.85012 0.57479 0.14722 0.0
C418 C 0.75441 0.61384 0.97851 0.0
O419 O 0.75626 0.5801 0.96726 0.0
O420 O 0.82941 0.58454 0.94733 0.0
O421 O 0.83519 0.52836 0.97367 0.0
H422 H 0.90858 0.6717 0.88048 0.0
H423 H 0.7658 0.53858 0.10773 0.0
O424 O 0.82993 0.52086 0.12728 0.0
H425 H 0.73449 0.45329 0.97053 0.0
H426 H 0.83979 0.39723 0.10068 0.0
H427 H 0.88968 0.49118 0.9901 0.0
H428 H 0.79571 0.47461 0.97959 0.0
H429 H 0.81557 0.45757 0.10387 0.0
O430 O 0.78083 0.6296 -0.00139 0.0
H431 H 0.88642 0.62211 0.93339 0.0
H432 H 0.81078 0.68932 0.00438 0.0
H433 H 0.91447 0.43112 0.98533 0.0
H434 H 0.70427 0.51771 0.10038 0.0
H435 H 0.8895 0.38365 0.04092 0.0
H436 H 0.68828 0.4748 0.0313 0.0
O437 O 0.88185 0.54316 0.05598 0.0
H438 H 0.77997 0.65851 0.18044 0.0
H439 H 0.88248 0.66168 0.06238 0.0
H440 H 0.8843 0.69554 0.14418 0.0
H441 H 0.83271 0.69411 0.20385 0.0
H442 H 0.77954 0.6247 0.09848 0.0
H443 H 0.83184 0.73953 0.95184 0.0
H444 H 0.8812 0.73091 0.8895 0.0
O445 O 0.88012 0.5987 0.02567 0.0
C446 C 0.83294 0.55162 0.93821 0.0
C447 C 0.88711 0.67581 0.9076 0.0
C448 C 0.844 0.71386 0.94758 0.0
N449 N 0.84744 0.65283 0.9721 0.0
C450 C 0.87451 0.64785 0.93776 0.0
C451 C 0.8321 0.6853 0.9771 0.0
C452 C 0.87171 0.70901 0.91264 0.0
C453 C 0.75908 0.51972 0.07782 0.0
N454 N 0.78434 0.50773 0.04427 0.0
C455 C 0.72418 0.50808 0.07374 0.0
C456 C 0.71522 0.48404 0.03493 0.0
C457 C 0.74113 0.47197 0.00081 0.0
C458 C 0.77574 0.48421 0.00603 0.0
C459 C 0.85086 0.41767 0.07622 0.0
C460 C 0.87855 0.47062 0.01422 0.0
C461 C 0.83733 0.45192 0.07795 0.0
N462 N 0.85109 0.47783 0.04701 0.0
C463 C 0.89275 0.43668 0.01143 0.0
C464 C 0.87875 0.41007 0.04267 0.0
C465 C 0.89686 0.57201 0.04305 0.0
C466 C 0.80263 0.65932 0.15479 0.0
C467 C 0.86015 0.66063 0.08838 0.0
C468 C 0.86121 0.68002 0.13451 0.0
C469 C 0.83224 0.67925 0.16793 0.0
N470 N 0.83108 0.64104 0.07585 0.0
C471 C 0.8025 0.64031 0.10828 0.0
H472 H 0.52105 0.18243 0.44467 0.0
H473 H 0.41353 0.18067 0.50134 0.0
H474 H 0.43511 0.18175 0.59072 0.0
H475 H 0.48406 0.18064 0.65204 0.0
H476 H 0.59165 0.18014 0.59568 0.0
H477 H 0.57012 0.18262 0.50622 0.0
C478 C 0.5022 0.18248 0.47643 0.0
C479 C 0.46567 0.18133 0.46622 0.0
C480 C 0.51474 0.18258 0.52759 0.0
C481 C 0.44177 0.18142 0.50802 0.0
C482 C 0.45407 0.18202 0.55913 0.0
C483 C 0.50296 0.18124 0.62037 0.0
C484 C 0.53948 0.18007 0.63066 0.0
C485 C 0.49047 0.18219 0.56925 0.0
C486 C 0.56342 0.18091 0.58892 0.0
C487 C 0.55114 0.18231 0.53779 0.0
H488 H 0.83457 0.51913 0.69813 0.0
H489 H 0.84175 0.41229 0.75613 0.0
H490 H 0.84169 0.43454 0.84525 0.0
H491 H 0.83872 0.48375 0.90585 0.0
H492 H 0.83012 0.59057 0.8482 0.0
H493 H 0.83159 0.56847 0.75892 0.0
C494 C 0.83607 0.50054 0.73009 0.0
C495 C 0.83799 0.46398 0.72029 0.0
C496 C 0.83571 0.51343 0.78105 0.0
C497 C 0.84015 0.4405 0.76244 0.0
C498 C 0.8401 0.4532 0.81338 0.0
C499 C 0.83708 0.5024 0.87396 0.0
C500 C 0.83414 0.53887 0.88388 0.0
C501 C 0.83771 0.48956 0.82302 0.0
C502 C 0.83228 0.56241 0.84179 0.0
C503 C 0.83313 0.54979 0.79077 0.0
H504 H 0.51894 0.84301 0.1519 0.0
H505 H 0.41145 0.84501 0.09534 0.0
H506 H 0.43314 0.84575 0.00587 0.0
H507 H 0.48224 0.84349 0.9443 0.0
H508 H 0.58971 0.8412 0.00088 0.0
H509 H 0.56807 0.84311 0.09034 0.0
C510 C 0.50011 0.84368 0.12015 0.0
C511 C 0.46353 0.84366 0.13048 0.0
C512 C 0.51271 0.844 0.06895 0.0
C513 C 0.4397 0.8449 0.08864 0.0
C514 C 0.45208 0.84527 0.03746 0.0
C515 C 0.50108 0.84349 0.97605 0.0
C516 C 0.53763 0.84191 0.96573 0.0
C517 C 0.4885 0.84445 0.02725 0.0
C518 C 0.56149 0.84231 0.00758 0.0
C519 C 0.54913 0.84333 0.05874 0.0
H520 H 0.17898 0.52383 0.39817 0.0
H521 H 0.1785 0.41609 0.34301 0.0
H522 H 0.17924 0.43714 0.25333 0.0
H523 H 0.17906 0.48562 0.19143 0.0
H524 H 0.17797 0.59346 0.24612 0.0
H525 H 0.17891 0.57249 0.33598 0.0
C526 C 0.17914 0.50483 0.36667 0.0
C527 C 0.17868 0.46838 0.37736 0.0
C528 C 0.17926 0.51705 0.31538 0.0
C529 C 0.17878 0.44426 0.33592 0.0
C530 C 0.17922 0.45626 0.28467 0.0
C531 C 0.17913 0.50471 0.22282 0.0
C532 C 0.17845 0.54112 0.21197 0.0
C533 C 0.17932 0.49255 0.27408 0.0
C534 C 0.17845 0.56531 0.25334 0.0
C535 C 0.17898 0.55335 0.30468 0.0
H536 H 0.38022 0.30314 0.40018 0.0
H537 H 0.30124 0.22412 0.36602 0.0
H538 H 0.25512 0.26304 0.39771 0.0
H539 H 0.23685 0.31852 0.43702 0.0
H540 H 0.31409 0.39933 0.4689 0.0
H541 H 0.36113 0.3607 0.43633 0.0
C542 C 0.3529 0.29454 0.39935 0.0
C543 C 0.34442 0.26055 0.38094 0.0
C544 C 0.32615 0.31726 0.41759 0.0
C545 C 0.30877 0.25 0.38 0.0
C546 C 0.28224 0.27223 0.39829 0.0
C547 C 0.264 0.3277 0.43715 0.0
C548 C 0.27202 0.36159 0.45594 0.0
C549 C 0.29064 0.3057 0.41765 0.0
C550 C 0.30725 0.37327 0.45482 0.0
C551 C 0.33413 0.3512 0.43619 0.0
H552 H 0.76701 0.32188 0.6748 0.0
H553 H 0.68986 0.39979 0.63017 0.0
H554 H 0.6422 0.36107 0.66134 0.0
H555 H 0.62274 0.30334 0.69759 0.0
H556 H 0.70195 0.22741 0.74362 0.0
H557 H 0.74841 0.26723 0.71575 0.0
C558 C 0.73976 0.33047 0.67174 0.0
C559 C 0.73192 0.36341 0.64946 0.0
C560 C 0.71284 0.30837 0.69005 0.0
C561 C 0.69654 0.37445 0.64698 0.0
C562 C 0.66934 0.35228 0.6647 0.0
C563 C 0.65016 0.29566 0.70193 0.0
C564 C 0.65863 0.26212 0.72224 0.0
C565 C 0.67716 0.31893 0.68582 0.0
C566 C 0.69441 0.25281 0.72785 0.0
C567 C 0.72115 0.27558 0.71183 0.0
H568 H 0.74534 0.68395 -0.00745 0.0
H569 H 0.69367 0.59243 0.92809 0.0
H570 H 0.64608 0.63 0.89452 0.0
H571 H 0.62144 0.69013 0.87814 0.0
H572 H 0.677 0.78046 0.93951 0.0
H573 H 0.72064 0.74211 0.97935 0.0
C574 C 0.72365 0.67196 0.97145 0.0
C575 C 0.72336 0.63535 0.96262 0.0
C576 C 0.69705 0.6937 0.95126 0.0
C577 C 0.69471 0.62053 0.93543 0.0
C578 C 0.66752 0.64206 0.91605 0.0
C579 C 0.64292 0.70123 0.90072 0.0
C580 C 0.64607 0.73814 0.90548 0.0
C581 C 0.66872 0.67885 0.9229 0.0
C582 C 0.67415 0.75221 0.93465 0.0
C583 C 0.69914 0.73029 0.95763 0.0
H584 H 0.24012 0.69371 0.12859 0.0
H585 H 0.31204 0.60549 0.12945 0.0
H586 H 0.35953 0.64403 0.16082 0.0
H587 H 0.3801 0.70313 0.19041 0.0
H588 H 0.30573 0.78951 0.19146 0.0
H589 H 0.25999 0.75134 0.15715 0.0
C590 C 0.26621 0.6828 0.13521 0.0
C591 C 0.27245 0.64674 0.12649 0.0
C592 C 0.29305 0.70485 0.15401 0.0
C593 C 0.30645 0.63317 0.13584 0.0
C594 C 0.33363 0.65521 0.15384 0.0
C595 C 0.35391 0.71353 0.18296 0.0
C596 C 0.34647 0.74919 0.19393 0.0
C597 C 0.32718 0.69113 0.16347 0.0
C598 C 0.31229 0.76218 0.18412 0.0
C599 C 0.286 0.74038 0.1642 0.0
H600 H 0.48945 0.94808 0.26737 0.0
H601 H 0.40037 0.9325 0.36917 0.0
H602 H 0.3965 0.99586 0.38458 0.0
H603 H 0.41477 0.05549 0.36323 0.0
H604 H 0.50285 0.07302 0.25978 0.0
H605 H 0.51103 0.00917 0.25116 0.0
C606 C 0.46981 0.95871 0.29376 0.0
C607 C 0.44511 0.93596 0.31706 0.0
C608 C 0.46727 0.99543 0.30156 0.0
C609 C 0.41941 0.94974 0.35065 0.0
C610 C 0.41716 0.9859 0.35937 0.0
C611 C 0.43594 0.04552 0.33894 0.0
C612 C 0.45784 0.06912 0.31166 0.0
C613 C 0.4403 0.00901 0.33393 0.0
C614 C 0.48544 0.05549 0.28102 0.0
C615 C 0.49011 0.01896 0.27602 0.0
H616 H 0.94799 0.48591 0.56429 0.0
H617 H 0.93769 0.37517 0.52857 0.0
H618 H 1.00117 0.37016 0.51779 0.0
H619 H 0.05962 0.39623 0.52062 0.0
H620 H 0.07211 0.50642 0.55893 0.0
H621 H 0.00795 0.51257 0.56653 0.0
C622 C 0.95971 0.46082 0.55372 0.0
C623 C 0.93803 0.4309 0.5475 0.0
C624 C 0.99667 0.45791 0.54836 0.0
C625 C 0.95364 0.3985 0.53421 0.0
C626 C 0.99003 0.39559 0.5279 0.0
C627 C 0.04852 0.42168 0.53069 0.0
C628 C 0.07087 0.45073 0.5394 0.0
C629 C 0.0118 0.42498 0.53541 0.0
C630 C 0.05566 0.48348 0.55225 0.0
C631 C 0.01891 0.48706 0.5565 0.0
H632 H 0.51447 0.94429 0.81721 0.0
H633 H 0.61529 0.93061 0.74194 0.0
H634 H 0.6204 0.9941 0.72923 0.0
H635 H 0.59858 0.05337 0.74465 0.0
H636 H 0.49873 0.06894 0.82251 0.0
H637 H 0.49081 0.00497 0.82882 0.0
C638 C 0.53717 0.95532 0.79725 0.0
C639 C 0.5646 0.93292 0.78078 0.0
C640 C 0.54032 0.99216 0.79107 0.0
C641 C 0.5941 0.94741 0.75548 0.0
C642 C 0.59703 0.9837 0.74818 0.0
C643 C 0.57494 0.04298 0.76292 0.0
C644 C 0.5495 0.06614 0.78354 0.0
C645 C 0.57072 0.00635 0.76685 0.0
C646 C 0.51893 0.05185 0.80656 0.0
C647 C 0.51435 0.01522 0.81018 0.0
H648 H 0.94613 0.51904 0.0464 0.0
H649 H 0.93552 0.63243 0.04937 0.0
H650 H 0.99917 0.63897 0.05476 0.0
H651 H 0.05796 0.6131 0.05745 0.0
H652 H 0.07026 0.50004 0.04955 0.0
H653 H 0.00606 0.4929 0.04703 0.0
C654 C 0.95775 0.54515 0.04859 0.0
C655 C 0.93582 0.57518 0.04793 0.0
C656 C 0.99479 0.54887 0.05043 0.0
C657 C 0.95148 0.60882 0.05002 0.0
C658 C 0.98803 0.61265 0.05301 0.0
C659 C 0.04675 0.58683 0.0551 0.0
C660 C 0.06908 0.55721 0.05366 0.0
C661 C 0.00993 0.58292 0.053 0.0
C662 C 0.05381 0.5234 0.05045 0.0
C663 C 0.01704 0.51926 0.04918 0.0
H664 H 0.4778 0.16346 0.94683 0.0
H665 H 0.58779 0.16177 0.99049 0.0
H666 H 0.57122 0.16368 0.08261 0.0
H667 H 0.52539 0.16632 0.15011 0.0
H668 H 0.41543 0.16296 0.10659 0.0
H669 H 0.43199 0.1625 0.01442 0.0
C670 C 0.49811 0.16359 0.9766 0.0
C671 C 0.53393 0.16288 0.96228 0.0
C672 C 0.48836 0.16379 0.02913 0.0
C673 C 0.56006 0.16235 0.00091 0.0
C674 C 0.5506 0.16353 0.05338 0.0
C675 C 0.50509 0.16562 0.12035 0.0
C676 C 0.46927 0.16513 0.13469 0.0
C677 C 0.51484 0.16439 0.06785 0.0
C678 C 0.44315 0.16345 0.09613 0.0
C679 C 0.45261 0.16324 0.04363 0.0
H680 H 0.83871 0.47699 0.19995 0.0
H681 H 0.83864 0.58641 0.24648 0.0
H682 H 0.83762 0.56865 0.33799 0.0
H683 H 0.83713 0.52219 0.40415 0.0
H684 H 0.84007 0.41278 0.35784 0.0
H685 H 0.83958 0.43049 0.26624 0.0
C686 C 0.83829 0.49699 0.2301 0.0
C687 C 0.83852 0.53299 0.21657 0.0
C688 C 0.83827 0.4866 0.28239 0.0
C689 C 0.83851 0.55856 0.256 0.0
C690 C 0.83787 0.54842 0.30822 0.0
C691 C 0.83745 0.50216 0.37405 0.0
C692 C 0.83836 0.46619 0.38765 0.0
C693 C 0.83776 0.51254 0.32177 0.0
C694 C 0.83937 0.44061 0.34826 0.0
C695 C 0.83904 0.45072 0.29599 0.0
H696 H 0.47805 0.82549 0.65018 0.0
H697 H 0.58762 0.82359 0.60399 0.0
H698 H 0.57001 0.82154 0.51241 0.0
H699 H 0.52352 0.82257 0.4458 0.0
H700 H 0.41416 0.82908 0.49214 0.0
H701 H 0.43165 0.82686 0.58372 0.0
C702 C 0.4981 0.8243 0.6201 0.0
C703 C 0.53411 0.8245 0.63376 0.0
C704 C 0.48779 0.82405 0.56772 0.0
C705 C 0.55976 0.82351 0.59437 0.0
C706 C 0.5497 0.82231 0.54209 0.0
C707 C 0.50349 0.82314 0.47595 0.0
C708 C 0.46757 0.82576 0.46234 0.0
C709 C 0.5138 0.82286 0.52835 0.0
C710 C 0.44195 0.82707 0.50174 0.0
C711 C 0.45194 0.82581 0.55402 0.0
H712 H 0.16631 0.47911 0.89624 0.0
H713 H 0.16352 0.5891 0.85308 0.0
H714 H 0.16488 0.57277 0.76094 0.0
H715 H 0.16754 0.52726 0.69337 0.0
H716 H 0.1665 0.41723 0.7364 0.0
H717 H 0.16592 0.43355 0.82858 0.0
C718 C 0.16608 0.4995 0.8666 0.0
C719 C 0.16517 0.53524 0.88109 0.0
C720 C 0.16619 0.4899 0.81408 0.0
C721 C 0.16422 0.56143 0.84259 0.0
C722 C 0.16509 0.55211 0.79008 0.0
C723 C 0.16732 0.50687 0.72299 0.0
C724 C 0.16746 0.47112 0.70847 0.0
C725 C 0.16623 0.51645 0.77549 0.0
C726 C 0.16645 0.4449 0.74693 0.0
C727 C 0.16618 0.45422 0.79945 0.0
loop_
_geom_bond_atom_site_label_1
_geom_bond_atom_site_label_2
_geom_bond_distance
_geom_bond_site_symmetry_2
_ccdc_geom_bond_type
Co0 O2 2.143 . S
Co0 O8 2.074 . S
Co0 O11 2.093 . S
Co0 O24 2.097 . S
Co0 N41 2.151 . S
Co0 N49 2.214 . S
Co1 O2 2.160 . S
Co1 O7 2.058 . S
Co1 O17 2.057 . S
Co1 O32 2.037 . S
Co1 N36 2.145 . S
Co1 N57 2.257 . S
O2 Co0 2.143 . S
O2 Co1 2.160 . S
C3 O4 1.278 . S
C3 O11 1.224 . S
O4 C3 1.278 . S
C5 O6 1.245 . S
C5 O17 1.232 . S
O6 C5 1.245 . S
O7 Co1 2.058 . S
O7 C33 1.269 . S
O8 Co0 2.074 . S
O8 C33 1.257 . S
H9 C34 0.930 . S
H10 C40 0.930 . S
O11 Co0 2.093 . S
O11 C3 1.224 . S
H12 C44 0.929 . S
H13 C46 0.930 . S
H14 C47 0.930 . S
H15 C45 0.929 . S
H16 C48 0.928 . S
O17 Co1 2.057 . S
O17 C5 1.232 . S
H18 C37 0.929 . S
H19 C38 0.929 . S
H20 C50 0.931 . S
H21 C42 0.929 . S
H22 C51 0.930 . S
H23 C43 0.931 . S
O24 Co0 2.097 . S
O24 C52 1.214 . S
H25 C53 0.929 . S
H26 C54 0.929 . S
H27 C55 0.930 . S
H28 C56 0.929 . S
H29 C58 0.930 . S
H30 C35 0.930 . S
H31 C39 0.930 . S
O32 Co1 2.037 . S
O32 C52 1.234 . S
C33 O7 1.269 . S
C33 O8 1.257 . S
C34 H9 0.930 . S
C34 C37 1.388 . S
C34 C39 1.418 . S
C35 H30 0.930 . S
C35 C38 1.404 . S
C35 C39 1.353 . S
N36 Co1 2.145 . S
N36 C37 1.397 . S
N36 C38 1.334 . S
C37 H18 0.929 . S
C37 C34 1.388 . S
C37 N36 1.397 . S
C38 H19 0.929 . S
C38 C35 1.404 . S
C38 N36 1.334 . S
C39 H31 0.930 . S
C39 C34 1.418 . S
C39 C35 1.353 . S
C40 H10 0.930 . S
C40 N41 1.330 . S
C40 C42 1.446 . S
N41 Co0 2.151 . S
N41 C40 1.330 . S
N41 C45 1.418 . S
C42 H21 0.929 . S
C42 C40 1.446 . S
C42 C43 1.332 . S
C43 H23 0.931 . S
C43 C42 1.332 . S
C43 C44 1.267 . S
C44 H12 0.929 . S
C44 C43 1.267 . S
C44 C45 1.251 . S
C45 H15 0.929 . S
C45 N41 1.418 . S
C45 C44 1.251 . S
C46 H13 0.930 . S
C46 C48 1.406 . S
C46 C51 1.261 . S
C47 H14 0.930 . S
C47 N49 1.325 . S
C47 C50 1.357 . S
C48 H16 0.928 . S
C48 C46 1.406 . S
C48 N49 1.261 . S
N49 Co0 2.214 . S
N49 C47 1.325 . S
N49 C48 1.261 . S
C50 H20 0.931 . S
C50 C47 1.357 . S
C50 C51 1.312 . S
C51 H22 0.930 . S
C51 C46 1.261 . S
C51 C50 1.312 . S
C52 O24 1.214 . S
C52 O32 1.234 . S
C53 H25 0.929 . S
C53 C56 1.391 . S
C53 C58 1.391 . S
C54 H26 0.929 . S
C54 C55 1.390 . S
C54 N57 1.391 . S
C55 H27 0.930 . S
C55 C54 1.390 . S
C55 C56 1.392 . S
C56 H28 0.929 . S
C56 C53 1.391 . S
C56 C55 1.392 . S
N57 Co1 2.257 . S
N57 C54 1.391 . S
N57 C58 1.388 . S
C58 H29 0.930 . S
C58 C53 1.391 . S
C58 N57 1.388 . S
Co59 O61 2.143 . S
Co59 O67 2.074 . S
Co59 O70 2.093 . S
Co59 O83 2.097 . S
Co59 N100 2.151 . S
Co59 N108 2.214 . S
Co60 O61 2.160 . S
Co60 O66 2.058 . S
Co60 O76 2.057 . S
Co60 O91 2.037 . S
Co60 N95 2.145 . S
Co60 N116 2.257 . S
O61 Co59 2.143 . S
O61 Co60 2.160 . S
C62 O63 1.278 . S
C62 O70 1.224 . S
O63 C62 1.278 . S
C64 O65 1.245 . S
C64 O76 1.232 . S
O65 C64 1.245 . S
O66 Co60 2.058 . S
O66 C92 1.269 . S
O67 Co59 2.074 . S
O67 C92 1.257 . S
H68 C93 0.930 . S
H69 C99 0.930 . S
O70 Co59 2.093 . S
O70 C62 1.224 . S
H71 C103 0.929 . S
H72 C105 0.930 . S
H73 C106 0.930 . S
H74 C104 0.929 . S
H75 C107 0.928 . S
O76 Co60 2.057 . S
O76 C64 1.232 . S
H77 C96 0.929 . S
H78 C97 0.929 . S
H79 C109 0.931 . S
H80 C101 0.929 . S
H81 C110 0.930 . S
H82 C102 0.931 . S
O83 Co59 2.097 . S
O83 C111 1.214 . S
H84 C112 0.929 . S
H85 C113 0.929 . S
H86 C114 0.930 . S
H87 C115 0.929 . S
H88 C117 0.930 . S
H89 C94 0.930 . S
H90 C98 0.930 . S
O91 Co60 2.037 . S
O91 C111 1.234 . S
C92 O66 1.269 . S
C92 O67 1.257 . S
C93 H68 0.930 . S
C93 C96 1.388 . S
C93 C98 1.418 . S
C94 H89 0.930 . S
C94 C97 1.404 . S
C94 C98 1.353 . S
N95 Co60 2.145 . S
N95 C96 1.397 . S
N95 C97 1.334 . S
C96 H77 0.929 . S
C96 C93 1.388 . S
C96 N95 1.397 . S
C97 H78 0.929 . S
C97 C94 1.404 . S
C97 N95 1.334 . S
C98 H90 0.930 . S
C98 C93 1.418 . S
C98 C94 1.353 . S
C99 H69 0.930 . S
C99 N100 1.330 . S
C99 C101 1.446 . S
N100 Co59 2.151 . S
N100 C99 1.330 . S
N100 C104 1.418 . S
C101 H80 0.929 . S
C101 C99 1.446 . S
C101 C102 1.332 . S
C102 H82 0.931 . S
C102 C101 1.332 . S
C102 C103 1.267 . S
C103 H71 0.929 . S
C103 C102 1.267 . S
C103 C104 1.251 . S
C104 H74 0.929 . S
C104 N100 1.418 . S
C104 C103 1.251 . S
C105 H72 0.930 . S
C105 C107 1.406 . S
C105 C110 1.261 . S
C106 H73 0.930 . S
C106 N108 1.325 . S
C106 C109 1.357 . S
C107 H75 0.928 . S
C107 C105 1.406 . S
C107 N108 1.261 . S
N108 Co59 2.214 . S
N108 C106 1.325 . S
N108 C107 1.261 . S
C109 H79 0.931 . S
C109 C106 1.357 . S
C109 C110 1.312 . S
C110 H81 0.930 . S
C110 C105 1.261 . S
C110 C109 1.312 . S
C111 O83 1.214 . S
C111 O91 1.234 . S
C112 H84 0.929 . S
C112 C115 1.391 . S
C112 C117 1.391 . S
C113 H85 0.929 . S
C113 C114 1.390 . S
C113 N116 1.391 . S
C114 H86 0.930 . S
C114 C113 1.390 . S
C114 C115 1.392 . S
C115 H87 0.929 . S
C115 C112 1.391 . S
C115 C114 1.392 . S
N116 Co60 2.257 . S
N116 C113 1.391 . S
N116 C117 1.388 . S
C117 H88 0.930 . S
C117 C112 1.391 . S
C117 N116 1.388 . S
Co118 O120 2.143 . S
Co118 O126 2.074 . S
Co118 O129 2.093 . S
Co118 O142 2.097 . S
Co118 N159 2.151 . S
Co118 N167 2.214 . S
Co119 O120 2.160 . S
Co119 O125 2.058 . S
Co119 O135 2.057 . S
Co119 O150 2.037 . S
Co119 N154 2.145 . S
Co119 N175 2.257 . S
O120 Co118 2.143 . S
O120 Co119 2.160 . S
C121 O122 1.278 . S
C121 O129 1.224 . S
O122 C121 1.278 . S
C123 O124 1.245 . S
C123 O135 1.232 . S
O124 C123 1.245 . S
O125 Co119 2.058 . S
O125 C151 1.269 . S
O126 Co118 2.074 . S
O126 C151 1.257 . S
H127 C152 0.919 1_554 S
H128 C158 0.930 . S
O129 Co118 2.093 . S
O129 C121 1.224 . S
H130 C162 0.929 . S
H131 C164 0.930 . S
H132 C165 0.930 . S
H133 C163 0.929 . S
H134 C166 0.928 . S
O135 Co119 2.057 . S
O135 C123 1.232 . S
H136 C155 0.929 . S
H137 C156 0.929 . S
H138 C168 0.931 . S
H139 C160 0.929 . S
H140 C169 0.930 . S
H141 C161 0.931 . S
O142 Co118 2.097 . S
O142 C170 1.214 . S
H143 C171 0.929 . S
H144 C172 0.929 . S
H145 C173 0.930 . S
H146 C174 0.929 . S
H147 C176 0.930 . S
H148 C153 0.930 . S
H149 C157 0.930 1_554 S
O150 Co119 2.037 . S
O150 C170 1.234 . S
C151 O125 1.269 . S
C151 O126 1.257 . S
C152 H127 0.919 1_556 S
C152 C155 1.388 . S
C152 C157 1.418 . S
C153 H148 0.930 . S
C153 C156 1.404 . S
C153 C157 1.353 . S
N154 Co119 2.145 . S
N154 C155 1.397 . S
N154 C156 1.334 . S
C155 H136 0.929 . S
C155 C152 1.388 . S
C155 N154 1.397 . S
C156 H137 0.929 . S
C156 C153 1.404 . S
C156 N154 1.334 . S
C157 H149 0.930 1_556 S
C157 C152 1.418 . S
C157 C153 1.353 . S
C158 H128 0.930 . S
C158 N159 1.330 . S
C158 C160 1.446 . S
N159 Co118 2.151 . S
N159 C158 1.330 . S
N159 C163 1.418 . S
C160 H139 0.929 . S
C160 C158 1.446 . S
C160 C161 1.332 . S
C161 H141 0.931 . S
C161 C160 1.332 . S
C161 C162 1.267 . S
C162 H130 0.929 . S
C162 C161 1.267 . S
C162 C163 1.251 . S
C163 H133 0.929 . S
C163 N159 1.418 . S
C163 C162 1.251 . S
C164 H131 0.930 . S
C164 C166 1.406 . S
C164 C169 1.261 . S
C165 H132 0.930 . S
C165 N167 1.325 . S
C165 C168 1.357 . S
C166 H134 0.928 . S
C166 C164 1.406 . S
C166 N167 1.261 . S
N167 Co118 2.214 . S
N167 C165 1.325 . S
N167 C166 1.261 . S
C168 H138 0.931 . S
C168 C165 1.357 . S
C168 C169 1.312 . S
C169 H140 0.930 . S
C169 C164 1.261 . S
C169 C168 1.312 . S
C170 O142 1.214 . S
C170 O150 1.234 . S
C171 H143 0.929 . S
C171 C174 1.391 . S
C171 C176 1.391 . S
C172 H144 0.929 . S
C172 C173 1.390 . S
C172 N175 1.391 . S
C173 H145 0.930 . S
C173 C172 1.390 . S
C173 C174 1.392 . S
C174 H146 0.929 . S
C174 C171 1.391 . S
C174 C173 1.392 . S
N175 Co119 2.257 . S
N175 C172 1.391 . S
N175 C176 1.388 . S
C176 H147 0.930 . S
C176 C171 1.391 . S
C176 N175 1.388 . S
Co177 O179 2.143 . S
Co177 O185 2.074 . S
Co177 O188 2.093 1_554 S
Co177 O201 2.097 . S
Co177 N218 2.151 . S
Co177 N226 2.214 . S
Co178 O179 2.160 . S
Co178 O184 2.058 . S
Co178 O194 2.057 . S
Co178 O209 2.037 . S
Co178 N213 2.145 . S
Co178 N234 2.257 . S
O179 Co177 2.143 . S
O179 Co178 2.160 . S
C180 O181 1.278 . S
C180 O188 1.224 . S
O181 C180 1.278 . S
C182 O183 1.245 . S
C182 O194 1.232 . S
O183 C182 1.245 . S
O184 Co178 2.058 . S
O184 C210 1.269 . S
O185 Co177 2.074 . S
O185 C210 1.257 . S
H186 C211 0.930 . S
H187 C217 0.930 . S
O188 Co177 2.093 1_556 S
O188 C180 1.224 . S
H189 C221 0.929 . S
H190 C223 0.930 . S
H191 C224 0.930 . S
H192 C222 0.929 . S
H193 C225 0.928 . S
O194 Co178 2.057 . S
O194 C182 1.232 . S
H195 C214 0.929 . S
H196 C215 0.929 . S
H197 C227 0.931 . S
H198 C219 0.929 . S
H199 C228 0.930 . S
H200 C220 0.931 . S
O201 Co177 2.097 . S
O201 C229 1.214 . S
H202 C230 0.929 . S
H203 C231 0.929 . S
H204 C232 0.930 1_556 S
H205 C233 0.929 . S
H206 C235 0.930 . S
H207 C212 0.930 . S
H208 C216 0.930 . S
O209 Co178 2.037 . S
O209 C229 1.234 . S
C210 O184 1.269 . S
C210 O185 1.257 . S
C211 H186 0.930 . S
C211 C214 1.388 . S
C211 C216 1.418 . S
C212 H207 0.930 . S
C212 C215 1.404 . S
C212 C216 1.353 . S
N213 Co178 2.145 . S
N213 C214 1.397 . S
N213 C215 1.334 . S
C214 H195 0.929 . S
C214 C211 1.388 . S
C214 N213 1.397 . S
C215 H196 0.929 . S
C215 C212 1.404 . S
C215 N213 1.334 . S
C216 H208 0.930 . S
C216 C211 1.418 . S
C216 C212 1.353 . S
C217 H187 0.930 . S
C217 N218 1.330 . S
C217 C219 1.446 . S
N218 Co177 2.151 . S
N218 C217 1.330 . S
N218 C222 1.418 . S
C219 H198 0.929 . S
C219 C217 1.446 . S
C219 C220 1.332 . S
C220 H200 0.931 . S
C220 C219 1.332 . S
C220 C221 1.267 . S
C221 H189 0.929 . S
C221 C220 1.267 . S
C221 C222 1.251 . S
C222 H192 0.929 . S
C222 N218 1.418 . S
C222 C221 1.251 . S
C223 H190 0.930 . S
C223 C225 1.406 . S
C223 C228 1.261 . S
C224 H191 0.930 . S
C224 N226 1.325 . S
C224 C227 1.357 . S
C225 H193 0.928 . S
C225 C223 1.406 . S
C225 N226 1.261 . S
N226 Co177 2.214 . S
N226 C224 1.325 . S
N226 C225 1.261 . S
C227 H197 0.931 . S
C227 C224 1.357 . S
C227 C228 1.312 . S
C228 H199 0.930 . S
C228 C223 1.261 . S
C228 C227 1.312 . S
C229 O201 1.214 . S
C229 O209 1.234 . S
C230 H202 0.929 . S
C230 C233 1.391 . S
C230 C235 1.391 1_556 S
C231 H203 0.929 . S
C231 C232 1.390 . S
C231 N234 1.391 . S
C232 H204 0.930 1_554 S
C232 C231 1.390 . S
C232 C233 1.392 1_554 S
C233 H205 0.929 . S
C233 C230 1.391 . S
C233 C232 1.392 1_556 S
N234 Co178 2.257 . S
N234 C231 1.391 . S
N234 C235 1.388 . S
C235 H206 0.930 . S
C235 C230 1.391 1_554 S
C235 N234 1.388 . S
Co236 O238 2.143 . S
Co236 O244 2.074 . S
Co236 O247 2.093 . S
Co236 O260 2.097 . S
Co236 N277 2.151 . S
Co236 N285 2.214 . S
Co237 O238 2.160 . S
Co237 O243 2.058 . S
Co237 O253 2.057 . S
Co237 O268 2.037 . S
Co237 N272 2.145 . S
Co237 N293 2.257 . S
O238 Co236 2.143 . S
O238 Co237 2.160 . S
C239 O240 1.278 . S
C239 O247 1.224 . S
O240 C239 1.278 . S
C241 O242 1.245 . S
C241 O253 1.232 . S
O242 C241 1.245 . S
O243 Co237 2.058 . S
O243 C269 1.269 . S
O244 Co236 2.074 . S
O244 C269 1.257 . S
H245 C270 0.930 . S
H246 C276 0.930 . S
O247 Co236 2.093 . S
O247 C239 1.224 . S
H248 C280 0.929 . S
H249 C282 0.930 . S
H250 C283 0.930 . S
H251 C281 0.929 . S
H252 C284 0.928 . S
O253 Co237 2.057 . S
O253 C241 1.232 . S
H254 C273 0.929 . S
H255 C274 0.929 . S
H256 C286 0.931 . S
H257 C278 0.929 . S
H258 C287 0.930 . S
H259 C279 0.931 . S
O260 Co236 2.097 . S
O260 C288 1.214 . S
H261 C289 0.929 . S
H262 C290 0.929 . S
H263 C291 0.930 . S
H264 C292 0.929 . S
H265 C294 0.930 . S
H266 C271 0.930 . S
H267 C275 0.930 . S
O268 Co237 2.037 . S
O268 C288 1.234 . S
C269 O243 1.269 . S
C269 O244 1.257 . S
C270 H245 0.930 . S
C270 C273 1.388 . S
C270 C275 1.418 . S
C271 H266 0.930 . S
C271 C274 1.404 . S
C271 C275 1.353 . S
N272 Co237 2.145 . S
N272 C273 1.397 . S
N272 C274 1.334 . S
C273 H254 0.929 . S
C273 C270 1.388 . S
C273 N272 1.397 . S
C274 H255 0.929 . S
C274 C271 1.404 . S
C274 N272 1.334 . S
C275 H267 0.930 . S
C275 C270 1.418 . S
C275 C271 1.353 . S
C276 H246 0.930 . S
C276 N277 1.330 . S
C276 C278 1.446 . S
N277 Co236 2.151 . S
N277 C276 1.330 . S
N277 C281 1.418 . S
C278 H257 0.929 . S
C278 C276 1.446 . S
C278 C279 1.332 . S
C279 H259 0.931 . S
C279 C278 1.332 . S
C279 C280 1.267 . S
C280 H248 0.929 . S
C280 C279 1.267 . S
C280 C281 1.251 . S
C281 H251 0.929 . S
C281 N277 1.418 . S
C281 C280 1.251 . S
C282 H249 0.930 . S
C282 C284 1.406 . S
C282 C287 1.261 . S
C283 H250 0.930 . S
C283 N285 1.325 . S
C283 C286 1.357 . S
C284 H252 0.928 . S
C284 C282 1.406 . S
C284 N285 1.261 . S
N285 Co236 2.214 . S
N285 C283 1.325 . S
N285 C284 1.261 . S
C286 H256 0.931 . S
C286 C283 1.357 . S
C286 C287 1.312 . S
C287 H258 0.930 . S
C287 C282 1.261 . S
C287 C286 1.312 . S
C288 O260 1.214 . S
C288 O268 1.234 . S
C289 H261 0.929 . S
C289 C292 1.391 . S
C289 C294 1.391 . S
C290 H262 0.929 . S
C290 C291 1.390 . S
C290 N293 1.391 . S
C291 H263 0.930 . S
C291 C290 1.390 . S
C291 C292 1.392 . S
C292 H264 0.929 . S
C292 C289 1.391 . S
C292 C291 1.392 . S
N293 Co237 2.257 . S
N293 C290 1.391 . S
N293 C294 1.388 . S
C294 H265 0.930 . S
C294 C289 1.391 . S
C294 N293 1.388 . S
Co295 O297 2.143 . S
Co295 O303 2.074 . S
Co295 O306 2.093 . S
Co295 O319 2.097 . S
Co295 N336 2.151 . S
Co295 N344 2.214 . S
Co296 O297 2.160 . S
Co296 O302 2.058 . S
Co296 O312 2.057 . S
Co296 O327 2.037 . S
Co296 N331 2.145 . S
Co296 N352 2.257 . S
O297 Co295 2.143 . S
O297 Co296 2.160 . S
C298 O299 1.278 . S
C298 O306 1.224 . S
O299 C298 1.278 . S
C300 O301 1.245 . S
C300 O312 1.232 . S
O301 C300 1.245 . S
O302 Co296 2.058 . S
O302 C328 1.269 . S
O303 Co295 2.074 . S
O303 C328 1.257 . S
H304 C329 0.930 . S
H305 C335 0.930 . S
O306 Co295 2.093 . S
O306 C298 1.224 . S
H307 C339 0.929 . S
H308 C341 0.930 . S
H309 C342 0.930 . S
H310 C340 0.929 . S
H311 C343 0.928 . S
O312 Co296 2.057 . S
O312 C300 1.232 . S
H313 C332 0.929 . S
H314 C333 0.929 . S
H315 C345 0.931 . S
H316 C337 0.929 . S
H317 C346 0.930 . S
H318 C338 0.931 . S
O319 Co295 2.097 . S
O319 C347 1.214 . S
H320 C348 0.929 . S
H321 C349 0.929 . S
H322 C350 0.930 . S
H323 C351 0.929 . S
H324 C353 0.930 . S
H325 C330 0.930 . S
H326 C334 0.930 . S
O327 Co296 2.037 . S
O327 C347 1.234 . S
C328 O302 1.269 . S
C328 O303 1.257 . S
C329 H304 0.930 . S
C329 C332 1.388 . S
C329 C334 1.418 . S
C330 H325 0.930 . S
C330 C333 1.404 . S
C330 C334 1.353 . S
N331 Co296 2.145 . S
N331 C332 1.397 . S
N331 C333 1.334 . S
C332 H313 0.929 . S
C332 C329 1.388 . S
C332 N331 1.397 . S
C333 H314 0.929 . S
C333 C330 1.404 . S
C333 N331 1.334 . S
C334 H326 0.930 . S
C334 C329 1.418 . S
C334 C330 1.353 . S
C335 H305 0.930 . S
C335 N336 1.330 . S
C335 C337 1.446 . S
N336 Co295 2.151 . S
N336 C335 1.330 . S
N336 C340 1.418 . S
C337 H316 0.929 . S
C337 C335 1.446 . S
C337 C338 1.332 . S
C338 H318 0.931 . S
C338 C337 1.332 . S
C338 C339 1.267 . S
C339 H307 0.929 . S
C339 C338 1.267 . S
C339 C340 1.251 . S
C340 H310 0.929 . S
C340 N336 1.418 . S
C340 C339 1.251 . S
C341 H308 0.930 . S
C341 C343 1.406 . S
C341 C346 1.261 . S
C342 H309 0.930 . S
C342 N344 1.325 . S
C342 C345 1.357 . S
C343 H311 0.928 . S
C343 C341 1.406 . S
C343 N344 1.261 . S
N344 Co295 2.214 . S
N344 C342 1.325 . S
N344 C343 1.261 . S
C345 H315 0.931 . S
C345 C342 1.357 . S
C345 C346 1.312 . S
C346 H317 0.930 . S
C346 C341 1.261 . S
C346 C345 1.312 . S
C347 O319 1.214 . S
C347 O327 1.234 . S
C348 H320 0.929 . S
C348 C351 1.391 . S
C348 C353 1.391 . S
C349 H321 0.929 . S
C349 C350 1.390 . S
C349 N352 1.391 . S
C350 H322 0.930 . S
C350 C349 1.390 . S
C350 C351 1.392 . S
C351 H323 0.929 . S
C351 C348 1.391 . S
C351 C350 1.392 . S
N352 Co296 2.257 . S
N352 C349 1.391 . S
N352 C353 1.388 . S
C353 H324 0.930 . S
C353 C348 1.391 . S
C353 N352 1.388 . S
Co354 O356 2.143 . S
Co354 O362 2.074 . S
Co354 O365 2.093 . S
Co354 O378 2.097 . S
Co354 N395 2.151 . S
Co354 N403 2.214 . S
Co355 O356 2.160 . S
Co355 O361 2.058 . S
Co355 O371 2.057 . S
Co355 O386 2.037 . S
Co355 N390 2.145 . S
Co355 N411 2.257 . S
O356 Co354 2.143 . S
O356 Co355 2.160 . S
C357 O358 1.278 . S
C357 O365 1.224 . S
O358 C357 1.278 . S
C359 O360 1.245 . S
C359 O371 1.232 . S
O360 C359 1.245 . S
O361 Co355 2.058 . S
O361 C387 1.269 . S
O362 Co354 2.074 . S
O362 C387 1.257 . S
H363 C388 0.930 . S
H364 C394 0.930 . S
O365 Co354 2.093 . S
O365 C357 1.224 . S
H366 C398 0.929 . S
H367 C400 0.930 . S
H368 C401 0.930 . S
H369 C399 0.929 . S
H370 C402 0.928 . S
O371 Co355 2.057 . S
O371 C359 1.232 . S
H372 C391 0.929 . S
H373 C392 0.929 . S
H374 C404 0.931 . S
H375 C396 0.929 . S
H376 C405 0.930 . S
H377 C397 0.931 . S
O378 Co354 2.097 . S
O378 C406 1.214 . S
H379 C407 0.929 . S
H380 C408 0.929 . S
H381 C409 0.930 . S
H382 C410 0.929 . S
H383 C412 0.930 . S
H384 C389 0.930 . S
H385 C393 0.930 . S
O386 Co355 2.037 . S
O386 C406 1.234 . S
C387 O361 1.269 . S
C387 O362 1.257 . S
C388 H363 0.930 . S
C388 C391 1.388 . S
C388 C393 1.418 . S
C389 H384 0.930 . S
C389 C392 1.404 . S
C389 C393 1.353 . S
N390 Co355 2.145 . S
N390 C391 1.397 . S
N390 C392 1.334 . S
C391 H372 0.929 . S
C391 C388 1.388 . S
C391 N390 1.397 . S
C392 H373 0.929 . S
C392 C389 1.404 . S
C392 N390 1.334 . S
C393 H385 0.930 . S
C393 C388 1.418 . S
C393 C389 1.353 . S
C394 H364 0.930 . S
C394 N395 1.330 . S
C394 C396 1.446 . S
N395 Co354 2.151 . S
N395 C394 1.330 . S
N395 C399 1.418 . S
C396 H375 0.929 . S
C396 C394 1.446 . S
C396 C397 1.332 . S
C397 H377 0.931 . S
C397 C396 1.332 . S
C397 C398 1.267 . S
C398 H366 0.929 . S
C398 C397 1.267 . S
C398 C399 1.251 . S
C399 H369 0.929 . S
C399 N395 1.418 . S
C399 C398 1.251 . S
C400 H367 0.930 . S
C400 C402 1.406 . S
C400 C405 1.261 . S
C401 H368 0.930 . S
C401 N403 1.325 . S
C401 C404 1.357 . S
C402 H370 0.928 . S
C402 C400 1.406 . S
C402 N403 1.261 . S
N403 Co354 2.214 . S
N403 C401 1.325 . S
N403 C402 1.261 . S
C404 H374 0.931 . S
C404 C401 1.357 . S
C404 C405 1.312 . S
C405 H376 0.930 . S
C405 C400 1.261 . S
C405 C404 1.312 . S
C406 O378 1.214 . S
C406 O386 1.234 . S
C407 H379 0.929 . S
C407 C410 1.391 . S
C407 C412 1.391 . S
C408 H380 0.929 . S
C408 C409 1.390 . S
C408 N411 1.391 . S
C409 H381 0.930 . S
C409 C408 1.390 . S
C409 C410 1.392 . S
C410 H382 0.929 . S
C410 C407 1.391 . S
C410 C409 1.392 . S
N411 Co355 2.257 . S
N411 C408 1.391 . S
N411 C412 1.388 . S
C412 H383 0.930 . S
C412 C407 1.391 . S
C412 N411 1.388 . S
Co413 O415 2.143 . S
Co413 O421 2.074 1_554 S
Co413 O424 2.093 . S
Co413 O437 2.097 . S
Co413 N454 2.151 . S
Co413 N462 2.214 . S
Co414 O415 2.160 1_556 S
Co414 O420 2.058 . S
Co414 O430 2.057 . S
Co414 O445 2.037 1_556 S
Co414 N449 2.145 . S
Co414 N470 2.257 1_556 S
O415 Co413 2.143 . S
O415 Co414 2.160 1_554 S
C416 O417 1.278 . S
C416 O424 1.224 . S
O417 C416 1.278 . S
C418 O419 1.245 . S
C418 O430 1.232 1_554 S
O419 C418 1.245 . S
O420 Co414 2.058 . S
O420 C446 1.269 . S
O421 Co413 2.074 1_556 S
O421 C446 1.257 . S
H422 C447 0.930 . S
H423 C453 0.930 . S
O424 Co413 2.093 . S
O424 C416 1.224 . S
H425 C457 0.929 1_556 S
H426 C459 0.930 . S
H427 C460 0.930 . S
H428 C458 0.929 1_556 S
H429 C461 0.928 . S
O430 Co414 2.057 . S
O430 C418 1.232 1_556 S
H431 C450 0.929 . S
H432 C451 0.929 . S
H433 C463 0.931 1_556 S
H434 C455 0.929 . S
H435 C464 0.930 . S
H436 C456 0.931 . S
O437 Co413 2.097 . S
O437 C465 1.214 . S
H438 C466 0.929 . S
H439 C467 0.929 . S
H440 C468 0.930 . S
H441 C469 0.929 . S
H442 C471 0.930 . S
H443 C448 0.930 . S
H444 C452 0.930 . S
O445 Co414 2.037 1_554 S
O445 C465 1.234 . S
C446 O420 1.269 . S
C446 O421 1.257 . S
C447 H422 0.930 . S
C447 C450 1.388 . S
C447 C452 1.418 . S
C448 H443 0.930 . S
C448 C451 1.404 . S
C448 C452 1.353 . S
N449 Co414 2.145 . S
N449 C450 1.397 . S
N449 C451 1.334 . S
C450 H431 0.929 . S
C450 C447 1.388 . S
C450 N449 1.397 . S
C451 H432 0.929 . S
C451 C448 1.404 . S
C451 N449 1.334 . S
C452 H444 0.930 . S
C452 C447 1.418 . S
C452 C448 1.353 . S
C453 H423 0.930 . S
C453 N454 1.330 . S
C453 C455 1.446 . S
N454 Co413 2.151 . S
N454 C453 1.330 . S
N454 C458 1.418 . S
C455 H434 0.929 . S
C455 C453 1.446 . S
C455 C456 1.332 . S
C456 H436 0.931 . S
C456 C455 1.332 . S
C456 C457 1.267 . S
C457 H425 0.929 1_554 S
C457 C456 1.267 . S
C457 C458 1.251 . S
C458 H428 0.929 1_554 S
C458 N454 1.418 . S
C458 C457 1.251 . S
C459 H426 0.930 . S
C459 C461 1.406 . S
C459 C464 1.261 . S
C460 H427 0.930 . S
C460 N462 1.325 . S
C460 C463 1.357 . S
C461 H429 0.928 . S
C461 C459 1.406 . S
C461 N462 1.261 . S
N462 Co413 2.214 . S
N462 C460 1.325 . S
N462 C461 1.261 . S
C463 H433 0.931 1_554 S
C463 C460 1.357 . S
C463 C464 1.312 . S
C464 H435 0.930 . S
C464 C459 1.261 . S
C464 C463 1.312 . S
C465 O437 1.214 . S
C465 O445 1.234 . S
C466 H438 0.929 . S
C466 C469 1.391 . S
C466 C471 1.391 . S
C467 H439 0.929 . S
C467 C468 1.390 . S
C467 N470 1.391 . S
C468 H440 0.930 . S
C468 C467 1.390 . S
C468 C469 1.392 . S
C469 H441 0.929 . S
C469 C466 1.391 . S
C469 C468 1.392 . S
N470 Co414 2.257 1_554 S
N470 C467 1.391 . S
N470 C471 1.388 . S
C471 H442 0.930 . S
C471 C466 1.391 . S
C471 N470 1.388 . S
H472 C478 0.930 . S
H473 C481 0.930 . S
H474 C482 0.930 . S
H475 C483 0.930 . S
H476 C486 0.930 . S
H477 C487 0.930 . S
C478 H472 0.930 . S
C478 C479 1.355 . S
C478 C480 1.415 . S
C479 C478 1.355 . S
C479 C481 1.419 . S
C480 C478 1.415 . S
C480 C485 1.425 . S
C480 C487 1.409 . S
C481 H473 0.930 . S
C481 C479 1.419 . S
C481 C482 1.362 . S
C482 H474 0.930 . S
C482 C481 1.362 . S
C482 C485 1.409 . S
C483 H475 0.930 . S
C483 C484 1.355 . S
C483 C485 1.415 . S
C484 C483 1.355 . S
C484 C486 1.419 . S
C485 C480 1.425 . S
C485 C482 1.409 . S
C485 C483 1.415 . S
C486 H476 0.930 . S
C486 C484 1.419 . S
C486 C487 1.362 . S
C487 H477 0.930 . S
C487 C480 1.409 . S
C487 C486 1.362 . S
H488 C494 0.930 . S
H489 C497 0.930 . S
H490 C498 0.930 . S
H491 C499 0.930 . S
H492 C502 0.930 . S
H493 C503 0.930 . S
C494 H488 0.930 . S
C494 C495 1.355 . S
C494 C496 1.415 . S
C495 C494 1.355 . S
C495 C497 1.419 . S
C496 C494 1.415 . S
C496 C501 1.425 . S
C496 C503 1.409 . S
C497 H489 0.930 . S
C497 C495 1.419 . S
C497 C498 1.362 . S
C498 H490 0.930 . S
C498 C497 1.362 . S
C498 C501 1.409 . S
C499 H491 0.930 . S
C499 C500 1.355 . S
C499 C501 1.415 . S
C500 C499 1.355 . S
C500 C502 1.419 . S
C501 C496 1.425 . S
C501 C498 1.409 . S
C501 C499 1.415 . S
C502 H492 0.930 . S
C502 C500 1.419 . S
C502 C503 1.362 . S
C503 H493 0.930 . S
C503 C496 1.409 . S
C503 C502 1.362 . S
H504 C510 0.930 . S
H505 C513 0.930 . S
H506 C514 0.930 . S
H507 C515 0.930 . S
H508 C518 0.930 . S
H509 C519 0.930 . S
C510 H504 0.930 . S
C510 C511 1.355 . S
C510 C512 1.415 . S
C511 C510 1.355 . S
C511 C513 1.419 . S
C512 C510 1.415 . S
C512 C517 1.425 . S
C512 C519 1.409 . S
C513 H505 0.930 . S
C513 C511 1.419 . S
C513 C514 1.362 . S
C514 H506 0.930 . S
C514 C513 1.362 . S
C514 C517 1.409 . S
C515 H507 0.930 . S
C515 C516 1.355 . S
C515 C517 1.415 1_556 S
C516 C515 1.355 . S
C516 C518 1.419 . S
C517 C512 1.425 . S
C517 C514 1.409 . S
C517 C515 1.415 1_554 S
C518 H508 0.930 . S
C518 C516 1.419 . S
C518 C519 1.362 1_556 S
C519 H509 0.930 . S
C519 C512 1.409 . S
C519 C518 1.362 1_554 S
H520 C526 0.930 . S
H521 C529 0.930 . S
H522 C530 0.930 . S
H523 C531 0.930 . S
H524 C534 0.930 . S
H525 C535 0.930 . S
C526 H520 0.930 . S
C526 C527 1.355 . S
C526 C528 1.415 . S
C527 C526 1.355 . S
C527 C529 1.419 . S
C528 C526 1.415 . S
C528 C533 1.425 . S
C528 C535 1.409 . S
C529 H521 0.930 . S
C529 C527 1.419 . S
C529 C530 1.362 . S
C530 H522 0.930 . S
C530 C529 1.362 . S
C530 C533 1.409 . S
C531 H523 0.930 . S
C531 C532 1.355 . S
C531 C533 1.415 . S
C532 C531 1.355 . S
C532 C534 1.419 . S
C533 C528 1.425 . S
C533 C530 1.409 . S
C533 C531 1.415 . S
C534 H524 0.930 . S
C534 C532 1.419 . S
C534 C535 1.362 . S
C535 H525 0.930 . S
C535 C528 1.409 . S
C535 C534 1.362 . S
H536 C542 0.930 . S
H537 C545 0.930 . S
H538 C546 0.930 . S
H539 C547 0.930 . S
H540 C550 0.930 . S
H541 C551 0.930 . S
C542 H536 0.930 . S
C542 C543 1.355 . S
C542 C544 1.415 . S
C543 C542 1.355 . S
C543 C545 1.419 . S
C544 C542 1.415 . S
C544 C549 1.425 . S
C544 C551 1.409 . S
C545 H537 0.930 . S
C545 C543 1.419 . S
C545 C546 1.362 . S
C546 H538 0.930 . S
C546 C545 1.362 . S
C546 C549 1.409 . S
C547 H539 0.930 . S
C547 C548 1.355 . S
C547 C549 1.415 . S
C548 C547 1.355 . S
C548 C550 1.419 . S
C549 C544 1.425 . S
C549 C546 1.409 . S
C549 C547 1.415 . S
C550 H540 0.930 . S
C550 C548 1.419 . S
C550 C551 1.362 . S
C551 H541 0.930 . S
C551 C544 1.409 . S
C551 C550 1.362 . S
H552 C558 0.930 . S
H553 C561 0.930 . S
H554 C562 0.930 . S
H555 C563 0.930 . S
H556 C566 0.930 . S
H557 C567 0.930 . S
C558 H552 0.930 . S
C558 C559 1.355 . S
C558 C560 1.415 . S
C559 C558 1.355 . S
C559 C561 1.419 . S
C560 C558 1.415 . S
C560 C565 1.425 . S
C560 C567 1.409 . S
C561 H553 0.930 . S
C561 C559 1.419 . S
C561 C562 1.362 . S
C562 H554 0.930 . S
C562 C561 1.362 . S
C562 C565 1.409 . S
C563 H555 0.930 . S
C563 C564 1.355 . S
C563 C565 1.415 . S
C564 C563 1.355 . S
C564 C566 1.419 . S
C565 C560 1.425 . S
C565 C562 1.409 . S
C565 C563 1.415 . S
C566 H556 0.930 . S
C566 C564 1.419 . S
C566 C567 1.362 . S
C567 H557 0.930 . S
C567 C560 1.409 . S
C567 C566 1.362 . S
H568 C574 0.930 1_554 S
H569 C577 0.930 . S
H570 C578 0.930 . S
H571 C579 0.930 . S
H572 C582 0.930 . S
H573 C583 0.930 . S
C574 H568 0.930 1_556 S
C574 C575 1.355 . S
C574 C576 1.415 . S
C575 C574 1.355 . S
C575 C577 1.419 . S
C576 C574 1.415 . S
C576 C581 1.425 . S
C576 C583 1.409 . S
C577 H569 0.930 . S
C577 C575 1.419 . S
C577 C578 1.362 . S
C578 H570 0.930 . S
C578 C577 1.362 . S
C578 C581 1.409 . S
C579 H571 0.930 . S
C579 C580 1.355 . S
C579 C581 1.415 . S
C580 C579 1.355 . S
C580 C582 1.419 . S
C581 C576 1.425 . S
C581 C578 1.409 . S
C581 C579 1.415 . S
C582 H572 0.930 . S
C582 C580 1.419 . S
C582 C583 1.362 . S
C583 H573 0.930 . S
C583 C576 1.409 . S
C583 C582 1.362 . S
H584 C590 0.930 . S
H585 C593 0.930 . S
H586 C594 0.930 . S
H587 C595 0.930 . S
H588 C598 0.930 . S
H589 C599 0.930 . S
C590 H584 0.930 . S
C590 C591 1.355 . S
C590 C592 1.415 . S
C591 C590 1.355 . S
C591 C593 1.419 . S
C592 C590 1.415 . S
C592 C597 1.425 . S
C592 C599 1.409 . S
C593 H585 0.930 . S
C593 C591 1.419 . S
C593 C594 1.362 . S
C594 H586 0.930 . S
C594 C593 1.362 . S
C594 C597 1.409 . S
C595 H587 0.930 . S
C595 C596 1.355 . S
C595 C597 1.415 . S
C596 C595 1.355 . S
C596 C598 1.419 . S
C597 C592 1.425 . S
C597 C594 1.409 . S
C597 C595 1.415 . S
C598 H588 0.930 . S
C598 C596 1.419 . S
C598 C599 1.362 . S
C599 H589 0.930 . S
C599 C592 1.409 . S
C599 C598 1.362 . S
H600 C606 0.930 . S
H601 C609 0.930 . S
H602 C610 0.930 . S
H603 C611 0.930 . S
H604 C614 0.930 . S
H605 C615 0.930 . S
C606 H600 0.930 . S
C606 C607 1.355 . S
C606 C608 1.415 . S
C607 C606 1.355 . S
C607 C609 1.419 . S
C608 C606 1.415 . S
C608 C613 1.425 1_565 S
C608 C615 1.409 1_565 S
C609 H601 0.930 . S
C609 C607 1.419 . S
C609 C610 1.362 . S
C610 H602 0.930 . S
C610 C609 1.362 . S
C610 C613 1.409 1_565 S
C611 H603 0.930 . S
C611 C612 1.355 . S
C611 C613 1.415 . S
C612 C611 1.355 . S
C612 C614 1.419 . S
C613 C608 1.425 1_545 S
C613 C610 1.409 1_545 S
C613 C611 1.415 . S
C614 H604 0.930 . S
C614 C612 1.419 . S
C614 C615 1.362 . S
C615 H605 0.930 . S
C615 C608 1.409 1_545 S
C615 C614 1.362 . S
H616 C622 0.930 . S
H617 C625 0.930 . S
H618 C626 0.930 . S
H619 C627 0.930 . S
H620 C630 0.930 . S
H621 C631 0.930 . S
C622 H616 0.930 . S
C622 C623 1.355 . S
C622 C624 1.415 . S
C623 C622 1.355 . S
C623 C625 1.419 . S
C624 C622 1.415 . S
C624 C629 1.425 1_655 S
C624 C631 1.409 1_655 S
C625 H617 0.930 . S
C625 C623 1.419 . S
C625 C626 1.362 . S
C626 H618 0.930 . S
C626 C625 1.362 . S
C626 C629 1.409 1_655 S
C627 H619 0.930 . S
C627 C628 1.355 . S
C627 C629 1.415 . S
C628 C627 1.355 . S
C628 C630 1.419 . S
C629 C624 1.425 1_455 S
C629 C626 1.409 1_455 S
C629 C627 1.415 . S
C630 H620 0.930 . S
C630 C628 1.419 . S
C630 C631 1.362 . S
C631 H621 0.930 . S
C631 C624 1.409 1_455 S
C631 C630 1.362 . S
H632 C638 0.930 . S
H633 C641 0.930 . S
H634 C642 0.930 . S
H635 C643 0.930 . S
H636 C646 0.930 . S
H637 C647 0.930 . S
C638 H632 0.930 . S
C638 C639 1.355 . S
C638 C640 1.415 . S
C639 C638 1.355 . S
C639 C641 1.419 . S
C640 C638 1.415 . S
C640 C645 1.425 1_565 S
C640 C647 1.409 1_565 S
C641 H633 0.930 . S
C641 C639 1.419 . S
C641 C642 1.362 . S
C642 H634 0.930 . S
C642 C641 1.362 . S
C642 C645 1.409 1_565 S
C643 H635 0.930 . S
C643 C644 1.355 . S
C643 C645 1.415 . S
C644 C643 1.355 . S
C644 C646 1.419 . S
C645 C640 1.425 1_545 S
C645 C642 1.409 1_545 S
C645 C643 1.415 . S
C646 H636 0.930 . S
C646 C644 1.419 . S
C646 C647 1.362 . S
C647 H637 0.930 . S
C647 C640 1.409 1_545 S
C647 C646 1.362 . S
H648 C654 0.930 . S
H649 C657 0.930 . S
H650 C658 0.930 . S
H651 C659 0.930 . S
H652 C662 0.930 . S
H653 C663 0.930 . S
C654 H648 0.930 . S
C654 C655 1.355 . S
C654 C656 1.415 . S
C655 C654 1.355 . S
C655 C657 1.419 1_554 S
C656 C654 1.415 . S
C656 C661 1.425 1_655 S
C656 C663 1.409 1_655 S
C657 H649 0.930 . S
C657 C655 1.419 1_556 S
C657 C658 1.362 . S
C658 H650 0.930 . S
C658 C657 1.362 . S
C658 C661 1.409 1_656 S
C659 H651 0.930 . S
C659 C660 1.355 . S
C659 C661 1.415 . S
C660 C659 1.355 . S
C660 C662 1.419 . S
C661 C656 1.425 1_455 S
C661 C658 1.409 1_454 S
C661 C659 1.415 . S
C662 H652 0.930 . S
C662 C660 1.419 . S
C662 C663 1.362 . S
C663 H653 0.930 . S
C663 C656 1.409 1_455 S
C663 C662 1.362 . S
H664 C670 0.930 . S
H665 C673 0.930 1_556 S
H666 C674 0.930 . S
H667 C675 0.930 . S
H668 C678 0.930 . S
H669 C679 0.930 . S
C670 H664 0.930 . S
C670 C671 1.355 . S
C670 C672 1.415 1_556 S
C671 C670 1.355 . S
C671 C673 1.419 1_556 S
C672 C670 1.415 1_554 S
C672 C677 1.425 . S
C672 C679 1.409 . S
C673 H665 0.930 1_554 S
C673 C671 1.419 1_554 S
C673 C674 1.362 . S
C674 H666 0.930 . S
C674 C673 1.362 . S
C674 C677 1.409 . S
C675 H667 0.930 . S
C675 C676 1.355 . S
C675 C677 1.415 . S
C676 C675 1.355 . S
C676 C678 1.419 . S
C677 C672 1.425 . S
C677 C674 1.409 . S
C677 C675 1.415 . S
C678 H668 0.930 . S
C678 C676 1.419 . S
C678 C679 1.362 . S
C679 H669 0.930 . S
C679 C672 1.409 . S
C679 C678 1.362 . S
H680 C686 0.930 . S
H681 C689 0.930 . S
H682 C690 0.930 . S
H683 C691 0.930 . S
H684 C694 0.930 . S
H685 C695 0.930 . S
C686 H680 0.930 . S
C686 C687 1.355 . S
C686 C688 1.415 . S
C687 C686 1.355 . S
C687 C689 1.419 . S
C688 C686 1.415 . S
C688 C693 1.425 . S
C688 C695 1.409 . S
C689 H681 0.930 . S
C689 C687 1.419 . S
C689 C690 1.362 . S
C690 H682 0.930 . S
C690 C689 1.362 . S
C690 C693 1.409 . S
C691 H683 0.930 . S
C691 C692 1.355 . S
C691 C693 1.415 . S
C692 C691 1.355 . S
C692 C694 1.419 . S
C693 C688 1.425 . S
C693 C690 1.409 . S
C693 C691 1.415 . S
C694 H684 0.930 . S
C694 C692 1.419 . S
C694 C695 1.362 . S
C695 H685 0.930 . S
C695 C688 1.409 . S
C695 C694 1.362 . S
H696 C702 0.930 . S
H697 C705 0.930 . S
H698 C706 0.930 . S
H699 C707 0.930 . S
H700 C710 0.930 . S
H701 C711 0.930 . S
C702 H696 0.930 . S
C702 C703 1.355 . S
C702 C704 1.415 . S
C703 C702 1.355 . S
C703 C705 1.419 . S
C704 C702 1.415 . S
C704 C709 1.425 . S
C704 C711 1.409 . S
C705 H697 0.930 . S
C705 C703 1.419 . S
C705 C706 1.362 . S
C706 H698 0.930 . S
C706 C705 1.362 . S
C706 C709 1.409 . S
C707 H699 0.930 . S
C707 C708 1.355 . S
C707 C709 1.415 . S
C708 C707 1.355 . S
C708 C710 1.419 . S
C709 C704 1.425 . S
C709 C706 1.409 . S
C709 C707 1.415 . S
C710 H700 0.930 . S
C710 C708 1.419 . S
C710 C711 1.362 . S
C711 H701 0.930 . S
C711 C704 1.409 . S
C711 C710 1.362 . S
H712 C718 0.930 . S
H713 C721 0.930 . S
H714 C722 0.930 . S
H715 C723 0.930 . S
H716 C726 0.930 . S
H717 C727 0.930 . S
C718 H712 0.930 . S
C718 C719 1.355 . S
C718 C720 1.415 . S
C719 C718 1.355 . S
C719 C721 1.419 . S
C720 C718 1.415 . S
C720 C725 1.425 . S
C720 C727 1.409 . S
C721 H713 0.930 . S
C721 C719 1.419 . S
C721 C722 1.362 . S
C722 H714 0.930 . S
C722 C721 1.362 . S
C722 C725 1.409 . S
C723 H715 0.930 . S
C723 C724 1.355 . S
C723 C725 1.415 . S
C724 C723 1.355 . S
C724 C726 1.419 . S
C725 C720 1.425 . S
C725 C722 1.409 . S
C725 C723 1.415 . S
C726 H716 0.930 . S
C726 C724 1.419 . S
C726 C727 1.362 . S
C727 H717 0.930 . S
C727 C720 1.409 . S
C727 C726 1.362 . S
C479 C33 0.949 . S
C484 C387 0.950 . S
C495 C92 0.980 . S
C500 C446 0.980 . S
C511 C269 0.945 . S
C516 C151 0.945 . S
C527 C328 0.978 . S
C532 C210 0.978 . S
C543 C5 1.604 . S
C548 C300 1.606 . S
C559 C64 1.647 . S
C564 C359 1.648 . S
C575 C418 1.616 1_556 S
C580 C123 1.613 . S
C591 C182 1.610 . S
C596 C241 1.607 . S
C607 C288 1.601 . S
C612 C52 1.607 . S
C623 C111 1.599 . S
C628 C347 1.605 . S
C639 C170 1.593 . S
C644 C406 1.598 . S
C655 C465 1.611 . S
C660 C229 1.615 . S
C671 C357 1.368 . S
C676 C3 1.362 . S
C687 C416 1.364 . S
C692 C62 1.322 . S
C703 C121 1.348 . S
C708 C239 1.331 . S
C719 C180 1.351 . S
C724 C298 1.377 . S
