# Generated by pormake.
# Topology sxb, (6)-cn, num edge types: 1
# Building blocks:
#     Node 0, Type 0, BuildingBlock: JUFBIX_clean_sbu_0, # of connection points: 6
#     Node 1, Type 0, BuildingBlock: JUFBIX_clean_sbu_0, # of connection points: 6
#     Node 2, Type 0, BuildingBlock: JUFBIX_clean_sbu_0, # of connection points: 6
#     Node 3, Type 0, BuildingBlock: JUFBIX_clean_sbu_0, # of connection points: 6
#     Edge 4, Type (0, 0), BuildingBlock: CIFDUS_clean_linker_0, # of connection points: 2
#     Edge 5, Type (0, 0), BuildingBlock: CIFDUS_clean_linker_0, # of connection points: 2
#     Edge 6, Type (0, 0), BuildingBlock: CIFDUS_clean_linker_0, # of connection points: 2
#     Edge 7, Type (0, 0), BuildingBlock: CIFDUS_clean_linker_0, # of connection points: 2
#     Edge 8, Type (0, 0), BuildingBlock: CIFDUS_clean_linker_0, # of connection points: 2
#     Edge 9, Type (0, 0), BuildingBlock: CIFDUS_clean_linker_0, # of connection points: 2
#     Edge 10, Type (0, 0), BuildingBlock: CIFDUS_clean_linker_0, # of connection points: 2
#     Edge 11, Type (0, 0), BuildingBlock: CIFDUS_clean_linker_0, # of connection points: 2
#     Edge 12, Type (0, 0), BuildingBlock: CIFDUS_clean_linker_0, # of connection points: 2
#     Edge 13, Type (0, 0), BuildingBlock: CIFDUS_clean_linker_0, # of connection points: 2
#     Edge 14, Type (0, 0), BuildingBlock: CIFDUS_clean_linker_0, # of connection points: 2
#     Edge 15, Type (0, 0), BuildingBlock: CIFDUS_clean_linker_0, # of connection points: 2
# Relax obj value: 0.048
# Max RMSD: 0.073
# Mean RMSD: 0.073
data_MOF--net-sxb--node1-JUFBIX_clean_sbu_0--edge1-CIFDUS_clean_linker_0
_symmetry_space_group_name_H-M    P1
_symmetry_Int_Tables_number       1
_symmetry_cell_setting            triclinic
loop_
_symmetry_equiv_pos_as_xyz
'x, y, z'
_cell_length_a     13.030835
_cell_length_b     33.334792
_cell_length_c     26.045718
_cell_angle_alpha  89.671019
_cell_angle_beta   93.082711
_cell_angle_gamma 90.078398
loop_
_atom_site_label
_atom_site_type_symbol
_atom_site_fract_x
_atom_site_fract_y
_atom_site_fract_z
_atom_type_partial_charge
Co0 Co -0.00127 1.00507 0.00823 0.0
C1 C -0.00866 1.03717 0.10786 0.0
Co2 Co -0.0162 0.07116 0.01251 0.0
C3 C 0.0845 0.92498 0.99431 0.0
C4 C 0.94531 0.92455 0.03421 0.0
N5 N 0.00946 0.94926 0.01016 0.0
N6 N 0.06974 0.88613 0.00777 0.0
C7 C -0.01825 0.88599 0.03273 0.0
H8 H 0.14983 0.93584 0.97436 0.0
H9 H 0.87841 0.93416 0.05367 0.0
C10 C -0.0086 1.04001 0.91292 0.0
N11 N -0.0279 0.12666 0.01104 0.0
C12 C 0.89523 0.1496 0.02754 0.0
C13 C 0.03402 0.15251 0.98736 0.0
N14 N 0.90595 0.1886 0.01445 0.0
C15 C -0.00631 0.19053 0.98941 0.0
C16 C 0.18592 0.0445 0.01502 0.0
O17 O -0.00127 1.00578 0.93485 0.0
O18 O -0.01633 0.07121 0.9402 0.0
O19 O 0.12936 0.07545 0.01629 0.0
O20 O 0.14409 1.01006 0.01204 0.0
O21 O -0.01588 0.07086 0.08493 0.0
H22 H 0.10209 0.14406 0.96803 0.0
H23 H 0.82992 0.13759 0.04653 0.0
O24 O -0.00141 1.00536 0.0815 0.0
O25 O 0.85311 1.00079 1.00421 0.0
O26 O 0.83834 0.06605 0.00879 0.0
C27 C 0.79648 1.03168 1.00561 0.0
H28 H 0.94831 0.86022 0.051 0.0
H29 H 0.02555 0.21733 0.97283 0.0
Co30 Co -0.01861 1.01321 0.50459 0.0
C31 C -0.01351 0.05684 0.4131 0.0
Co32 Co -0.00166 0.07876 0.51492 0.0
C33 C 0.89274 0.9345 0.51222 0.0
C34 C 0.01796 0.93511 0.46237 0.0
N35 N 0.96497 0.9587 0.49339 0.0
N36 N 0.89771 0.89675 0.49394 0.0
C37 C -0.02318 0.89703 0.4626 0.0
H38 H 0.83536 0.94484 0.5376 0.0
H39 H 0.08117 0.94515 0.44026 0.0
C40 C -0.00651 1.0342 0.60631 0.0
N41 N 0.0139 0.13351 0.52654 0.0
C42 C 0.08534 0.15888 0.50908 0.0
C43 C 0.95778 0.1561 0.55736 0.0
N44 N 0.07622 0.1964 0.52792 0.0
C45 C -0.00438 0.19465 0.55822 0.0
C46 C 0.79552 0.05375 0.50816 0.0
O47 O -0.01558 1.00442 0.57626 0.0
O48 O 0.00087 0.06933 0.5874 0.0
O49 O 0.85306 0.0844 0.5134 0.0
O50 O 0.83636 1.0195 0.50335 0.0
O51 O -0.00437 0.0873 0.44228 0.0
H52 H 0.89478 0.145 0.57885 0.0
H53 H 0.14332 0.14981 0.48329 0.0
O54 O -0.02135 1.02218 0.43305 0.0
O55 O 0.12659 1.00757 0.50591 0.0
O56 O 0.14328 0.07255 0.51624 0.0
C57 C 0.18409 1.03828 0.51124 0.0
H58 H 0.00308 0.87165 0.44119 0.0
H59 H 0.9679 0.21909 0.58086 0.0
Co60 Co 0.45757 0.49487 1.00404 0.0
C61 C 0.45071 0.53252 0.09976 0.0
Co62 Co 0.44188 0.56099 1.00046 0.0
C63 C 0.54699 0.41618 0.9948 0.0
C64 C 0.41169 0.41486 0.03778 0.0
N65 N 0.47108 0.43969 0.01105 0.0
N66 N 0.53816 0.37774 0.01078 0.0
C67 C 0.45258 0.37683 0.03765 0.0
H68 H 0.60999 0.42748 0.97346 0.0
H69 H 0.3446 0.42404 0.05741 0.0
C70 C 0.4484 0.52238 0.90479 0.0
N71 N 0.42938 0.61645 0.993 0.0
C72 C 0.35482 0.64127 0.00809 0.0
C73 C 0.49154 0.64014 0.96623 0.0
N74 N 0.36795 0.67946 0.9916 0.0
C75 C 0.45436 0.67871 0.96541 0.0
C76 C 0.64436 0.535 1.00573 0.0
O77 O 0.45626 0.49051 0.93168 0.0
O78 O 0.44119 0.556 0.92729 0.0
O79 O 0.58736 0.56588 1.00354 0.0
O80 O 0.6029 0.50053 0.00674 0.0
O81 O 0.44268 0.56501 0.07382 0.0
H82 H 0.55785 0.62979 0.94686 0.0
H83 H 0.29124 0.63129 0.03 0.0
O84 O 0.45861 0.49946 0.07626 0.0
O85 O 0.31216 0.48997 1.00126 0.0
O86 O 0.29664 0.55543 0.99762 0.0
C87 C 0.25522 0.52092 0.99889 0.0
H88 H 0.42212 0.3507 0.05645 0.0
H89 H 0.48624 0.70382 0.94509 0.0
Co90 Co 0.4393 0.52282 0.50078 0.0
C91 C 0.44477 0.5612 0.4044 0.0
Co92 Co 0.45549 0.58888 0.50326 0.0
C93 C 0.35429 0.44261 0.51324 0.0
C94 C 0.48367 0.44372 0.46607 0.0
N95 N 0.42573 0.46744 0.49462 0.0
N96 N 0.3652 0.40431 0.49726 0.0
C97 C 0.44696 0.4051 0.46764 0.0
H98 H 0.2947 0.45266 0.53751 0.0
H99 H 0.54682 0.45409 0.44415 0.0
C100 C 0.44997 0.55146 0.59966 0.0
N101 N 0.46991 0.644 0.50901 0.0
C102 C 0.54323 0.66755 0.48985 0.0
C103 C 0.41413 0.66879 0.53725 0.0
N104 N 0.53626 0.70597 0.50549 0.0
C105 C 0.45471 0.70685 0.53519 0.0
C106 C 0.25301 0.56303 0.49921 0.0
O107 O 0.44129 0.51899 0.57423 0.0
O108 O 0.45762 0.58451 0.57562 0.0
O109 O 0.31013 0.59399 0.50093 0.0
O110 O 0.29421 0.52852 0.4984 0.0
O111 O 0.45317 0.59306 0.43082 0.0
H112 H 0.34983 0.65953 0.55912 0.0
H113 H 0.60319 0.65633 0.4666 0.0
O114 O 0.4375 0.52759 0.42743 0.0
O115 O 0.58471 0.51771 0.50334 0.0
O116 O 0.60067 0.58308 0.50553 0.0
C117 C 0.64189 0.5486 0.50493 0.0
H118 H 0.4761 0.37993 0.44681 0.0
H119 H 0.42689 0.73301 0.55453 0.0
H120 H 0.41919 0.758 0.9887 0.0
H121 H 0.16294 0.67767 1.00548 0.0
H122 H 0.04752 0.73486 0.01079 0.0
H123 H 0.01858 0.80749 0.00897 0.0
H124 H 0.275 0.88799 0.9932 0.0
H125 H 0.39015 0.83083 0.98711 0.0
C126 C 0.33803 0.75291 0.99315 0.0
C127 C 0.30025 0.71338 0.99669 0.0
C128 C 0.27171 0.78599 0.99567 0.0
C129 C 0.19484 0.70758 1.00336 0.0
C130 C 0.12845 0.74034 1.00595 0.0
C131 C 0.0997 0.81271 1.00464 0.0
C132 C 0.13746 0.8523 1.00169 0.0
C133 C 0.16601 0.77966 1.00204 0.0
C134 C 0.2429 0.85811 0.99497 0.0
C135 C 0.30923 0.82533 0.99193 0.0
H136 H 0.57043 0.3129 0.07231 0.0
H137 H 0.66808 0.36959 0.93372 0.0
H138 H 0.79299 0.31623 0.92334 0.0
H139 H 0.87313 0.25316 0.953 0.0
H140 H 0.77466 0.19593 0.09093 0.0
H141 H 0.64956 0.24942 0.10155 0.0
C142 C 0.61798 0.31342 0.03946 0.0
C143 C 0.60958 0.34539 1.00389 0.0
C144 C 0.68938 0.28247 0.03355 0.0
C145 C 0.67354 0.34574 0.96207 0.0
C146 C 0.74476 0.3151 0.95596 0.0
C147 C 0.82526 0.25259 0.98573 0.0
C148 C 0.83371 0.22063 0.02126 0.0
C149 C 0.75356 0.2834 0.99155 0.0
C150 C 0.76925 0.21998 0.06283 0.0
C151 C 0.69797 0.25064 0.06902 0.0
H152 H 0.02586 0.27473 0.53531 0.0
H153 H 0.27584 0.19553 0.50311 0.0
H154 H 0.38794 0.25316 0.49156 0.0
H155 H 0.416 0.32588 0.49187 0.0
H156 H 0.16575 0.40528 0.52316 0.0
H157 H 0.05409 0.34767 0.53559 0.0
C158 C 0.10502 0.26999 0.52616 0.0
C159 C 0.1419 0.23065 0.52004 0.0
C160 C 0.16953 0.30333 0.51995 0.0
C161 C 0.24455 0.2253 0.50734 0.0
C162 C 0.30911 0.25831 0.50112 0.0
C163 C 0.33689 0.33075 0.50097 0.0
C164 C 0.29988 0.37015 0.50644 0.0
C165 C 0.27245 0.29744 0.50735 0.0
C166 C 0.19729 0.37552 0.51931 0.0
C167 C 0.1329 0.3425 0.52603 0.0
H168 H 0.85261 0.8335 0.43223 0.0
H169 H 0.78763 0.88568 0.57823 0.0
H170 H 0.66764 0.83143 0.59415 0.0
H171 H 0.58236 0.76884 0.56714 0.0
H172 H 0.64821 0.71607 0.42175 0.0
H173 H 0.76851 0.77042 0.4056 0.0
C174 C 0.81324 0.83283 0.46781 0.0
C175 C 0.82927 0.86384 0.50387 0.0
C176 C 0.74463 0.80135 0.4769 0.0
C177 C 0.77595 0.86265 0.54941 0.0
C178 C 0.70759 0.83147 0.5587 0.0
C179 C 0.62207 0.76943 0.53166 0.0
C180 C 0.60588 0.73845 0.49564 0.0
C181 C 0.69107 0.80076 0.52265 0.0
C182 C 0.65984 0.73931 0.45032 0.0
C183 C 0.72834 0.77048 0.44097 0.0
H184 H 0.32691 0.98521 1.00598 0.0
H185 H 0.29891 0.11338 0.02392 0.0
H186 H 0.48495 0.12074 0.02174 0.0
H187 H 0.65545 0.09094 0.01454 0.0
H188 H 0.68352 0.96277 0.99658 0.0
H189 H 0.49744 0.9554 0.99871 0.0
C190 C 0.36145 1.01476 0.00959 0.0
C191 C 0.29898 0.04866 0.01522 0.0
C192 C 0.46847 1.01884 0.00806 0.0
C193 C 0.34511 0.08674 0.01964 0.0
C194 C 0.45154 0.09102 0.01831 0.0
C195 C 0.62093 0.06139 0.01091 0.0
C196 C 0.68342 1.02749 1.00531 0.0
C197 C 0.51391 0.0573 0.01241 0.0
C198 C 0.6373 0.98941 1.00086 0.0
C199 C 0.53085 0.98513 1.00216 0.0
H200 H 0.32611 0.09815 0.51702 0.0
H201 H 0.29608 0.96955 0.50339 0.0
H202 H 0.48232 0.96314 0.50075 0.0
H203 H 0.65345 0.99392 0.50222 0.0
H204 H 0.68354 0.12251 0.51584 0.0
H205 H 0.49726 0.12895 0.51839 0.0
C206 C 0.36021 0.06868 0.51359 0.0
C207 C 0.29712 1.03438 0.51052 0.0
C208 C 0.46732 0.06519 0.51193 0.0
C209 C 0.34273 0.99646 0.50591 0.0
C210 C 0.44927 0.99275 0.50434 0.0
C211 C 0.61936 1.0234 0.50563 0.0
C212 C 0.68248 0.05768 0.50876 0.0
C213 C 0.51225 1.0269 0.50725 0.0
C214 C 0.63686 0.09561 0.51331 0.0
C215 C 0.53031 0.09934 0.51483 0.0
H216 H 0.78586 0.47519 1.00445 0.0
H217 H 0.75684 0.60421 1.00601 0.0
H218 H 0.94296 0.61119 1.00335 0.0
H219 H 0.11376 0.58077 1.00029 0.0
H220 H 0.14272 0.45173 0.99874 0.0
H221 H 0.95663 0.44477 1.00145 0.0
C222 C 0.82017 0.50486 1.00436 0.0
C223 C 0.7574 0.53911 1.00552 0.0
C224 C 0.92721 0.5087 1.00261 0.0
C225 C 0.80327 0.57732 1.00522 0.0
C226 C 0.90974 0.58136 1.00362 0.0
C227 C 0.07944 0.5511 1.00038 0.0
C228 C 0.14219 0.51684 0.99919 0.0
C229 C -0.0276 0.54727 1.00217 0.0
C230 C 0.09631 0.47864 0.99954 0.0
C231 C -0.01014 0.4746 1.00117 0.0
H232 H 0.11135 0.50312 0.50092 0.0
H233 H 0.14069 0.63218 0.49855 0.0
H234 H 0.95452 0.63901 0.50071 0.0
H235 H 0.78359 0.60848 0.50338 0.0
H236 H 0.75419 0.47943 0.50575 0.0
H237 H 0.9404 0.47258 0.50368 0.0
C238 C 0.07711 0.53277 0.50074 0.0
C239 C 0.13998 0.56707 0.49946 0.0
C240 C -0.02998 0.53652 0.50216 0.0
C241 C 0.09419 0.60525 0.49943 0.0
C242 C -0.01231 0.60921 0.50073 0.0
C243 C 0.81783 0.57883 0.50357 0.0
C244 C 0.75493 0.54454 0.5048 0.0
C245 C 0.92491 0.57507 0.50219 0.0
C246 C 0.80071 0.50636 0.50488 0.0
C247 C 0.90723 0.50238 0.50363 0.0
H248 H -0.01394 0.99667 0.344 0.0
H249 H -0.01202 0.12585 0.35496 0.0
H250 H -0.01086 0.13126 0.26115 0.0
H251 H -0.00999 0.09898 0.17614 0.0
H252 H -0.00955 0.9696 0.16702 0.0
H253 H -0.01201 0.96472 0.26026 0.0
C254 C -0.01351 1.02611 0.32603 0.0
C255 C -0.01337 0.06082 0.35649 0.0
C256 C -0.01226 1.02895 0.27241 0.0
C257 C -0.01222 0.09865 0.33241 0.0
C258 C -0.01155 0.10175 0.2788 0.0
C259 C -0.01044 0.06972 0.19457 0.0
C260 C -0.00956 1.03471 0.16455 0.0
C261 C -0.01149 0.06706 0.24842 0.0
C262 C -0.00998 0.99705 0.18908 0.0
C263 C -0.0115 0.99419 0.24245 0.0
H264 H -0.009 0.9811 0.8399 0.0
H265 H -0.00436 0.10979 0.85882 0.0
H266 H -0.00207 0.11913 0.76637 0.0
H267 H -0.00238 0.0914 0.67996 0.0
H268 H -0.00943 0.96304 0.65922 0.0
H269 H -0.00971 0.9531 0.75225 0.0
C270 C -0.0074 1.01114 0.82374 0.0
C271 C -0.007 0.0446 0.8564 0.0
C272 C -0.00651 1.01649 0.77012 0.0
C273 C -0.00506 0.08338 0.83476 0.0
C274 C -0.00362 0.08887 0.78176 0.0
C275 C -0.00374 0.06122 0.69571 0.0
C276 C -0.00568 1.02808 0.66265 0.0
C277 C -0.00447 0.0557 0.74909 0.0
C278 C -0.00786 0.98916 0.6838 0.0
C279 C -0.00803 0.98341 0.73703 0.0
H280 H 0.44512 0.49873 0.3381 0.0
H281 H 0.44493 0.62812 0.34285 0.0
H282 H 0.44616 0.63105 0.24907 0.0
H283 H 0.44787 0.59662 0.16529 0.0
H284 H 0.45054 0.46705 0.16236 0.0
H285 H 0.4478 0.46465 0.25551 0.0
C286 C 0.4451 0.52762 0.3187 0.0
C287 C 0.44467 0.5631 0.34754 0.0
C288 C 0.44642 0.52912 0.26488 0.0
C289 C 0.44519 0.60027 0.32164 0.0
C290 C 0.4459 0.602 0.26796 0.0
C291 C 0.44784 0.5679 0.18507 0.0
C292 C 0.44949 0.53214 0.15666 0.0
C293 C 0.44663 0.56659 0.23911 0.0
C294 C 0.44956 0.49515 0.18303 0.0
C295 C 0.44786 0.49365 0.23646 0.0
H296 H 0.44839 0.48729 0.66602 0.0
H297 H 0.45118 0.61686 0.66147 0.0
H298 H 0.45024 0.61912 0.75467 0.0
H299 H 0.44872 0.58492 0.83769 0.0
H300 H 0.44828 0.45552 0.84406 0.0
H301 H 0.44823 0.45272 0.75027 0.0
C302 C 0.44878 0.51598 0.68546 0.0
C303 C 0.44989 0.55178 0.65658 0.0
C304 C 0.44863 0.5172 0.73951 0.0
C305 C 0.45056 0.58874 0.68251 0.0
C306 C 0.44991 0.59015 0.73595 0.0
C307 C 0.44844 0.55605 0.81865 0.0
C308 C 0.44824 0.52052 0.84794 0.0
C309 C 0.44894 0.55464 0.76483 0.0
C310 C 0.44839 0.4834 0.8225 0.0
C311 C 0.44834 0.48175 0.76881 0.0
loop_
_geom_bond_atom_site_label_1
_geom_bond_atom_site_label_2
_geom_bond_distance
_geom_bond_site_symmetry_2
_ccdc_geom_bond_type
Co0 N5 2.057 1_556 S
Co0 O17 2.021 . S
Co0 O20 2.062 . S
Co0 O24 2.117 1_556 S
Co0 O25 2.020 1_455 S
C1 O21 1.259 1_455 S
C1 O24 1.258 1_545 S
Co2 N11 2.057 1_554 S
Co2 O18 2.117 1_554 S
Co2 O19 2.020 1_655 S
Co2 O21 2.021 . S
Co2 O26 2.062 . S
C3 N5 1.316 1_556 S
C3 N6 1.347 1_556 S
C3 H8 0.931 . S
C4 N5 1.375 . S
C4 C7 1.350 . S
C4 H9 0.930 . S
N5 Co0 2.057 1_554 S
N5 C3 1.316 1_554 S
N5 C4 1.375 . S
N6 C3 1.347 1_554 S
N6 C7 1.373 . S
C7 C4 1.350 . S
C7 N6 1.373 . S
C7 H28 0.931 . S
H8 C3 0.931 . S
H9 C4 0.930 . S
C10 O17 1.259 1_655 S
C10 O18 1.258 1_565 S
N11 Co2 2.057 1_556 S
N11 C12 1.316 1_556 S
N11 C13 1.375 . S
C12 N11 1.316 1_554 S
C12 N14 1.347 1_554 S
C12 H23 0.931 . S
C13 N11 1.375 . S
C13 C15 1.350 . S
C13 H22 0.930 . S
N14 C12 1.347 1_556 S
N14 C15 1.373 . S
C15 C13 1.350 . S
C15 N14 1.373 . S
C15 H29 0.931 . S
C16 O19 1.258 . S
C16 O20 1.254 1_544 S
O17 Co0 2.021 . S
O17 C10 1.259 1_455 S
O18 Co2 2.117 1_556 S
O18 C10 1.258 1_545 S
O19 Co2 2.020 1_455 S
O19 C16 1.258 . S
O20 Co0 2.062 . S
O20 C16 1.254 1_566 S
O21 C1 1.259 1_655 S
O21 Co2 2.021 . S
H22 C13 0.930 . S
H23 C12 0.931 . S
O24 Co0 2.117 1_554 S
O24 C1 1.258 1_565 S
O25 Co0 2.020 1_655 S
O25 C27 1.257 . S
O26 Co2 2.062 . S
O26 C27 1.254 1_544 S
C27 O25 1.257 . S
C27 O26 1.254 1_566 S
H28 C7 0.931 . S
H29 C15 0.931 . S
Co30 N35 2.057 . S
Co30 O47 2.021 . S
Co30 O50 2.062 . S
Co30 O54 2.117 . S
Co30 O55 2.020 1_655 S
C31 O51 1.259 1_655 S
C31 O54 1.258 1_545 S
Co32 N41 2.057 . S
Co32 O48 2.117 . S
Co32 O49 2.020 1_455 S
Co32 O51 2.021 . S
Co32 O56 2.062 . S
C33 N35 1.316 . S
C33 N36 1.347 . S
C33 H38 0.931 . S
C34 N35 1.375 . S
C34 C37 1.350 . S
C34 H39 0.930 . S
N35 Co30 2.057 . S
N35 C33 1.316 . S
N35 C34 1.375 . S
N36 C33 1.347 . S
N36 C37 1.373 . S
C37 C34 1.350 . S
C37 N36 1.373 . S
C37 H58 0.931 . S
H38 C33 0.931 . S
H39 C34 0.930 . S
C40 O47 1.259 1_455 S
C40 O48 1.258 1_565 S
N41 Co32 2.057 . S
N41 C42 1.316 . S
N41 C43 1.375 . S
C42 N41 1.316 . S
C42 N44 1.347 . S
C42 H53 0.931 . S
C43 N41 1.375 . S
C43 C45 1.350 . S
C43 H52 0.930 . S
N44 C42 1.347 . S
N44 C45 1.373 . S
C45 C43 1.350 . S
C45 N44 1.373 . S
C45 H59 0.931 . S
C46 O49 1.256 . S
C46 O50 1.255 1_545 S
O47 Co30 2.021 . S
O47 C40 1.259 1_655 S
O48 Co32 2.117 . S
O48 C40 1.258 1_545 S
O49 Co32 2.020 1_655 S
O49 C46 1.256 . S
O50 Co30 2.062 . S
O50 C46 1.255 1_565 S
O51 C31 1.259 1_455 S
O51 Co32 2.021 . S
H52 C43 0.930 . S
H53 C42 0.931 . S
O54 Co30 2.117 . S
O54 C31 1.258 1_565 S
O55 Co30 2.020 1_455 S
O55 C57 1.256 . S
O56 Co32 2.062 . S
O56 C57 1.255 1_545 S
C57 O55 1.256 . S
C57 O56 1.255 1_565 S
H58 C37 0.931 . S
H59 C45 0.931 . S
Co60 N65 2.057 1_556 S
Co60 O77 2.021 . S
Co60 O80 2.062 . S
Co60 O84 2.117 1_556 S
Co60 O85 2.020 . S
C61 O81 1.259 . S
C61 O84 1.258 . S
Co62 N71 2.057 1_554 S
Co62 O78 2.117 1_554 S
Co62 O79 2.020 . S
Co62 O81 2.021 . S
Co62 O86 2.062 . S
C63 N65 1.316 1_556 S
C63 N66 1.347 1_556 S
C63 H68 0.931 . S
C64 N65 1.375 . S
C64 C67 1.350 . S
C64 H69 0.930 . S
N65 Co60 2.057 1_554 S
N65 C63 1.316 1_554 S
N65 C64 1.375 . S
N66 C63 1.347 1_554 S
N66 C67 1.373 . S
C67 C64 1.350 . S
C67 N66 1.373 . S
C67 H88 0.931 . S
H68 C63 0.931 . S
H69 C64 0.930 . S
C70 O77 1.259 . S
C70 O78 1.258 . S
N71 Co62 2.057 1_556 S
N71 C72 1.316 1_556 S
N71 C73 1.375 . S
C72 N71 1.316 1_554 S
C72 N74 1.347 1_554 S
C72 H83 0.931 . S
C73 N71 1.375 . S
C73 C75 1.350 . S
C73 H82 0.930 . S
N74 C72 1.347 1_556 S
N74 C75 1.373 . S
C75 C73 1.350 . S
C75 N74 1.373 . S
C75 H89 0.931 . S
C76 O79 1.258 . S
C76 O80 1.254 1_554 S
O77 Co60 2.021 . S
O77 C70 1.259 . S
O78 Co62 2.117 1_556 S
O78 C70 1.258 . S
O79 Co62 2.020 . S
O79 C76 1.258 . S
O80 Co60 2.062 . S
O80 C76 1.254 1_556 S
O81 C61 1.259 . S
O81 Co62 2.021 . S
H82 C73 0.930 . S
H83 C72 0.931 . S
O84 Co60 2.117 1_554 S
O84 C61 1.258 . S
O85 Co60 2.020 . S
O85 C87 1.257 . S
O86 Co62 2.062 . S
O86 C87 1.254 1_554 S
C87 O85 1.257 . S
C87 O86 1.254 1_556 S
H88 C67 0.931 . S
H89 C75 0.931 . S
Co90 N95 2.057 . S
Co90 O107 2.021 . S
Co90 O110 2.062 . S
Co90 O114 2.117 . S
Co90 O115 2.020 . S
C91 O111 1.259 . S
C91 O114 1.258 . S
Co92 N101 2.057 . S
Co92 O108 2.117 . S
Co92 O109 2.020 . S
Co92 O111 2.021 . S
Co92 O116 2.062 . S
C93 N95 1.316 . S
C93 N96 1.347 . S
C93 H98 0.931 . S
C94 N95 1.375 . S
C94 C97 1.350 . S
C94 H99 0.930 . S
N95 Co90 2.057 . S
N95 C93 1.316 . S
N95 C94 1.375 . S
N96 C93 1.347 . S
N96 C97 1.373 . S
C97 C94 1.350 . S
C97 N96 1.373 . S
C97 H118 0.931 . S
H98 C93 0.931 . S
H99 C94 0.930 . S
C100 O107 1.259 . S
C100 O108 1.258 . S
N101 Co92 2.057 . S
N101 C102 1.316 . S
N101 C103 1.375 . S
C102 N101 1.316 . S
C102 N104 1.347 . S
C102 H113 0.931 . S
C103 N101 1.375 . S
C103 C105 1.350 . S
C103 H112 0.930 . S
N104 C102 1.347 . S
N104 C105 1.373 . S
C105 C103 1.350 . S
C105 N104 1.373 . S
C105 H119 0.931 . S
C106 O109 1.256 . S
C106 O110 1.255 . S
O107 Co90 2.021 . S
O107 C100 1.259 . S
O108 Co92 2.117 . S
O108 C100 1.258 . S
O109 Co92 2.020 . S
O109 C106 1.256 . S
O110 Co90 2.062 . S
O110 C106 1.255 . S
O111 C91 1.259 . S
O111 Co92 2.021 . S
H112 C103 0.930 . S
H113 C102 0.931 . S
O114 Co90 2.117 . S
O114 C91 1.258 . S
O115 Co90 2.020 . S
O115 C117 1.256 . S
O116 Co92 2.062 . S
O116 C117 1.255 . S
C117 O115 1.256 . S
C117 O116 1.255 . S
H118 C97 0.931 . S
H119 C105 0.931 . S
H120 C126 0.930 . S
H121 C129 0.930 . S
H122 C130 0.930 . S
H123 C131 0.930 . S
H124 C134 0.930 . S
H125 C135 0.930 . S
C126 H120 0.930 . S
C126 C127 1.355 1_556 S
C126 C128 1.415 . S
C127 C126 1.355 1_554 S
C127 C129 1.419 . S
C128 C126 1.415 . S
C128 C133 1.425 1_556 S
C128 C135 1.409 . S
C129 H121 0.930 . S
C129 C127 1.419 . S
C129 C130 1.362 . S
C130 H122 0.930 . S
C130 C129 1.362 . S
C130 C133 1.409 . S
C131 H123 0.930 . S
C131 C132 1.355 1_554 S
C131 C133 1.415 . S
C132 C131 1.355 1_556 S
C132 C134 1.419 . S
C133 C128 1.425 1_554 S
C133 C130 1.409 . S
C133 C131 1.415 . S
C134 H124 0.930 . S
C134 C132 1.419 . S
C134 C135 1.362 . S
C135 H125 0.930 . S
C135 C128 1.409 . S
C135 C134 1.362 . S
H136 C142 0.930 . S
H137 C145 0.930 . S
H138 C146 0.930 . S
H139 C147 0.930 . S
H140 C150 0.930 . S
H141 C151 0.930 . S
C142 H136 0.930 . S
C142 C143 1.355 1_554 S
C142 C144 1.415 . S
C143 C142 1.355 1_556 S
C143 C145 1.419 . S
C144 C142 1.415 . S
C144 C149 1.425 1_554 S
C144 C151 1.409 . S
C145 H137 0.930 . S
C145 C143 1.419 . S
C145 C146 1.362 . S
C146 H138 0.930 . S
C146 C145 1.362 . S
C146 C149 1.409 . S
C147 H139 0.930 . S
C147 C148 1.355 1_556 S
C147 C149 1.415 . S
C148 C147 1.355 1_554 S
C148 C150 1.419 . S
C149 C144 1.425 1_556 S
C149 C146 1.409 . S
C149 C147 1.415 . S
C150 H140 0.930 . S
C150 C148 1.419 . S
C150 C151 1.362 . S
C151 H141 0.930 . S
C151 C144 1.409 . S
C151 C150 1.362 . S
H152 C158 0.930 . S
H153 C161 0.930 . S
H154 C162 0.930 . S
H155 C163 0.930 . S
H156 C166 0.930 . S
H157 C167 0.930 . S
C158 H152 0.930 . S
C158 C159 1.355 . S
C158 C160 1.415 . S
C159 C158 1.355 . S
C159 C161 1.419 . S
C160 C158 1.415 . S
C160 C165 1.425 . S
C160 C167 1.409 . S
C161 H153 0.930 . S
C161 C159 1.419 . S
C161 C162 1.362 . S
C162 H154 0.930 . S
C162 C161 1.362 . S
C162 C165 1.409 . S
C163 H155 0.930 . S
C163 C164 1.355 . S
C163 C165 1.415 . S
C164 C163 1.355 . S
C164 C166 1.419 . S
C165 C160 1.425 . S
C165 C162 1.409 . S
C165 C163 1.415 . S
C166 H156 0.930 . S
C166 C164 1.419 . S
C166 C167 1.362 . S
C167 H157 0.930 . S
C167 C160 1.409 . S
C167 C166 1.362 . S
H168 C174 0.930 . S
H169 C177 0.930 . S
H170 C178 0.930 . S
H171 C179 0.930 . S
H172 C182 0.930 . S
H173 C183 0.930 . S
C174 H168 0.930 . S
C174 C175 1.355 . S
C174 C176 1.415 . S
C175 C174 1.355 . S
C175 C177 1.419 . S
C176 C174 1.415 . S
C176 C181 1.425 . S
C176 C183 1.409 . S
C177 H169 0.930 . S
C177 C175 1.419 . S
C177 C178 1.362 . S
C178 H170 0.930 . S
C178 C177 1.362 . S
C178 C181 1.409 . S
C179 H171 0.930 . S
C179 C180 1.355 . S
C179 C181 1.415 . S
C180 C179 1.355 . S
C180 C182 1.419 . S
C181 C176 1.425 . S
C181 C178 1.409 . S
C181 C179 1.415 . S
C182 H172 0.930 . S
C182 C180 1.419 . S
C182 C183 1.362 . S
C183 H173 0.930 . S
C183 C176 1.409 . S
C183 C182 1.362 . S
H184 C190 0.930 . S
H185 C193 0.930 . S
H186 C194 0.930 . S
H187 C195 0.930 . S
H188 C198 0.930 . S
H189 C199 0.930 . S
C190 H184 0.930 . S
C190 C191 1.354 1_554 S
C190 C192 1.415 . S
C191 C190 1.354 1_556 S
C191 C193 1.423 1_545 S
C192 C190 1.415 . S
C192 C197 1.425 1_544 S
C192 C199 1.409 . S
C193 H185 0.930 . S
C193 C191 1.423 1_565 S
C193 C194 1.362 . S
C194 H186 0.930 . S
C194 C193 1.362 . S
C194 C197 1.409 . S
C195 H187 0.930 . S
C195 C196 1.355 1_556 S
C195 C197 1.415 . S
C196 C195 1.355 1_554 S
C196 C198 1.419 1_565 S
C197 C192 1.425 1_566 S
C197 C194 1.409 . S
C197 C195 1.415 . S
C198 H188 0.930 . S
C198 C196 1.419 1_545 S
C198 C199 1.362 . S
C199 H189 0.930 . S
C199 C192 1.409 . S
C199 C198 1.362 . S
H200 C206 0.930 . S
H201 C209 0.930 . S
H202 C210 0.930 . S
H203 C211 0.930 . S
H204 C214 0.930 . S
H205 C215 0.930 . S
C206 H200 0.930 . S
C206 C207 1.355 . S
C206 C208 1.415 . S
C207 C206 1.355 . S
C207 C209 1.419 1_565 S
C208 C206 1.415 . S
C208 C213 1.425 1_565 S
C208 C215 1.409 . S
C209 H201 0.930 . S
C209 C207 1.419 1_545 S
C209 C210 1.362 . S
C210 H202 0.930 . S
C210 C209 1.362 . S
C210 C213 1.409 . S
C211 H203 0.930 . S
C211 C212 1.355 . S
C211 C213 1.415 . S
C212 C211 1.355 . S
C212 C214 1.419 1_545 S
C213 C208 1.425 1_545 S
C213 C210 1.409 . S
C213 C211 1.415 . S
C214 H204 0.930 . S
C214 C212 1.419 1_565 S
C214 C215 1.362 . S
C215 H205 0.930 . S
C215 C208 1.409 . S
C215 C214 1.362 . S
H216 C222 0.930 . S
H217 C225 0.930 . S
H218 C226 0.930 . S
H219 C227 0.930 . S
H220 C230 0.930 . S
H221 C231 0.930 . S
C222 H216 0.930 . S
C222 C223 1.355 1_554 S
C222 C224 1.415 . S
C223 C222 1.355 1_556 S
C223 C225 1.419 . S
C224 C222 1.415 . S
C224 C229 1.425 1_654 S
C224 C231 1.409 1_655 S
C225 H217 0.930 . S
C225 C223 1.419 . S
C225 C226 1.362 . S
C226 H218 0.930 . S
C226 C225 1.362 . S
C226 C229 1.409 1_655 S
C227 H219 0.930 . S
C227 C228 1.355 1_556 S
C227 C229 1.415 . S
C228 C227 1.355 1_554 S
C228 C230 1.419 . S
C229 C224 1.425 1_456 S
C229 C226 1.409 1_455 S
C229 C227 1.415 . S
C230 H220 0.930 . S
C230 C228 1.419 . S
C230 C231 1.362 . S
C231 H221 0.930 . S
C231 C224 1.409 1_455 S
C231 C230 1.362 . S
H232 C238 0.930 . S
H233 C241 0.930 . S
H234 C242 0.930 . S
H235 C243 0.930 . S
H236 C246 0.930 . S
H237 C247 0.930 . S
C238 H232 0.930 . S
C238 C239 1.355 . S
C238 C240 1.415 . S
C239 C238 1.355 . S
C239 C241 1.419 . S
C240 C238 1.415 . S
C240 C245 1.425 1_455 S
C240 C247 1.409 1_455 S
C241 H233 0.930 . S
C241 C239 1.419 . S
C241 C242 1.362 . S
C242 H234 0.930 . S
C242 C241 1.362 . S
C242 C245 1.409 1_455 S
C243 H235 0.930 . S
C243 C244 1.355 . S
C243 C245 1.415 . S
C244 C243 1.355 . S
C244 C246 1.419 . S
C245 C240 1.425 1_655 S
C245 C242 1.409 1_655 S
C245 C243 1.415 . S
C246 H236 0.930 . S
C246 C244 1.419 . S
C246 C247 1.362 . S
C247 H237 0.930 . S
C247 C240 1.409 1_655 S
C247 C246 1.362 . S
H248 C254 0.930 . S
H249 C257 0.930 . S
H250 C258 0.930 . S
H251 C259 0.930 . S
H252 C262 0.930 . S
H253 C263 0.930 . S
C254 H248 0.930 . S
C254 C255 1.355 1_665 S
C254 C256 1.415 . S
C255 C254 1.355 1_445 S
C255 C257 1.419 . S
C256 C254 1.415 . S
C256 C261 1.425 1_665 S
C256 C263 1.409 . S
C257 H249 0.930 . S
C257 C255 1.419 . S
C257 C258 1.362 . S
C258 H250 0.930 . S
C258 C257 1.362 . S
C258 C261 1.409 . S
C259 H251 0.930 . S
C259 C260 1.355 1_455 S
C259 C261 1.415 . S
C260 C259 1.355 1_655 S
C260 C262 1.419 1_545 S
C261 C256 1.425 1_445 S
C261 C258 1.409 . S
C261 C259 1.415 . S
C262 H252 0.930 . S
C262 C260 1.419 1_565 S
C262 C263 1.362 . S
C263 H253 0.930 . S
C263 C256 1.409 . S
C263 C262 1.362 . S
H264 C270 0.930 . S
H265 C273 0.930 . S
H266 C274 0.930 . S
H267 C275 0.930 . S
H268 C278 0.930 . S
H269 C279 0.930 . S
C270 H264 0.930 . S
C270 C271 1.355 1_655 S
C270 C272 1.415 . S
C271 C270 1.355 1_455 S
C271 C273 1.419 1_565 S
C272 C270 1.415 . S
C272 C277 1.422 1_665 S
C272 C279 1.409 . S
C273 H265 0.930 . S
C273 C271 1.419 1_545 S
C273 C274 1.362 . S
C274 H266 0.930 . S
C274 C273 1.362 . S
C274 C277 1.411 . S
C275 H267 0.930 . S
C275 C276 1.353 1_445 S
C275 C277 1.416 . S
C276 C275 1.353 1_665 S
C276 C278 1.421 . S
C277 C272 1.422 1_445 S
C277 C274 1.411 . S
C277 C275 1.416 . S
C278 H268 0.930 . S
C278 C276 1.421 . S
C278 C279 1.362 . S
C279 H269 0.930 . S
C279 C272 1.409 . S
C279 C278 1.362 . S
H280 C286 0.930 . S
H281 C289 0.930 . S
H282 C290 0.930 . S
H283 C291 0.930 . S
H284 C294 0.930 . S
H285 C295 0.930 . S
C286 H280 0.930 . S
C286 C287 1.355 . S
C286 C288 1.415 . S
C287 C286 1.355 . S
C287 C289 1.419 . S
C288 C286 1.415 . S
C288 C293 1.425 . S
C288 C295 1.409 . S
C289 H281 0.930 . S
C289 C287 1.419 . S
C289 C290 1.362 . S
C290 H282 0.930 . S
C290 C289 1.362 . S
C290 C293 1.409 . S
C291 H283 0.930 . S
C291 C292 1.355 . S
C291 C293 1.415 . S
C292 C291 1.355 . S
C292 C294 1.419 . S
C293 C288 1.425 . S
C293 C290 1.409 . S
C293 C291 1.415 . S
C294 H284 0.930 . S
C294 C292 1.419 . S
C294 C295 1.362 . S
C295 H285 0.930 . S
C295 C288 1.409 . S
C295 C294 1.362 . S
H296 C302 0.930 . S
H297 C305 0.930 . S
H298 C306 0.930 . S
H299 C307 0.930 . S
H300 C310 0.930 . S
H301 C311 0.930 . S
C302 H296 0.930 . S
C302 C303 1.355 . S
C302 C304 1.415 . S
C303 C302 1.355 . S
C303 C305 1.419 . S
C304 C302 1.415 . S
C304 C309 1.425 . S
C304 C311 1.409 . S
C305 H297 0.930 . S
C305 C303 1.419 . S
C305 C306 1.362 . S
C306 H298 0.930 . S
C306 C305 1.362 . S
C306 C309 1.409 . S
C307 H299 0.930 . S
C307 C308 1.355 . S
C307 C309 1.415 . S
C308 C307 1.355 . S
C308 C310 1.419 . S
C309 C304 1.425 . S
C309 C306 1.409 . S
C309 C307 1.415 . S
C310 H300 0.930 . S
C310 C308 1.419 . S
C310 C311 1.362 . S
C311 H301 0.930 . S
C311 C304 1.409 . S
C311 C310 1.362 . S
C127 N74 1.544 1_554 S
C132 N6 1.546 1_556 S
C143 N66 1.552 1_556 S
C148 N14 1.550 1_554 S
C159 N44 1.506 . S
C164 N96 1.502 . S
C175 N36 1.528 . S
C180 N104 1.531 . S
C191 C16 1.020 1_556 S
C196 C27 1.023 1_554 S
C207 C57 1.024 . S
C212 C46 1.024 . S
C223 C76 1.034 1_556 S
C228 C87 1.035 1_554 S
C239 C106 1.059 . S
C244 C117 1.059 . S
C255 C31 1.493 1_455 S
C260 C1 1.490 1_655 S
C271 C10 1.491 1_455 S
C276 C40 1.499 1_655 S
C287 C91 1.483 . S
C292 C61 1.498 . S
C303 C100 1.500 . S
C308 C70 1.486 . S
