# Generated by pormake.
# Topology nfa, (4)-cn, num edge types: 1
# Building blocks:
#     Node 0, Type 0, BuildingBlock: MUDLON_clean_sbu_0, # of connection points: 4
#     Node 1, Type 0, BuildingBlock: MUDLON_clean_sbu_0, # of connection points: 4
#     Node 2, Type 0, BuildingBlock: MUDLON_clean_sbu_0, # of connection points: 4
#     Node 3, Type 0, BuildingBlock: MUDLON_clean_sbu_0, # of connection points: 4
#     Node 4, Type 0, BuildingBlock: MUDLON_clean_sbu_0, # of connection points: 4
#     Node 5, Type 0, BuildingBlock: MUDLON_clean_sbu_0, # of connection points: 4
#     Node 6, Type 0, BuildingBlock: MUDLON_clean_sbu_0, # of connection points: 4
#     Node 7, Type 0, BuildingBlock: MUDLON_clean_sbu_0, # of connection points: 4
#     Node 8, Type 0, BuildingBlock: MUDLON_clean_sbu_0, # of connection points: 4
#     Node 9, Type 0, BuildingBlock: MUDLON_clean_sbu_0, # of connection points: 4
#     Node 10, Type 0, BuildingBlock: MUDLON_clean_sbu_0, # of connection points: 4
#     Node 11, Type 0, BuildingBlock: MUDLON_clean_sbu_0, # of connection points: 4
#     Node 12, Type 0, BuildingBlock: MUDLON_clean_sbu_0, # of connection points: 4
#     Node 13, Type 0, BuildingBlock: MUDLON_clean_sbu_0, # of connection points: 4
#     Node 14, Type 0, BuildingBlock: MUDLON_clean_sbu_0, # of connection points: 4
#     Node 15, Type 0, BuildingBlock: MUDLON_clean_sbu_0, # of connection points: 4
#     Node 16, Type 0, BuildingBlock: MUDLON_clean_sbu_0, # of connection points: 4
#     Node 17, Type 0, BuildingBlock: MUDLON_clean_sbu_0, # of connection points: 4
#     Node 18, Type 0, BuildingBlock: MUDLON_clean_sbu_0, # of connection points: 4
#     Node 19, Type 0, BuildingBlock: MUDLON_clean_sbu_0, # of connection points: 4
#     Node 20, Type 0, BuildingBlock: MUDLON_clean_sbu_0, # of connection points: 4
#     Node 21, Type 0, BuildingBlock: MUDLON_clean_sbu_0, # of connection points: 4
#     Node 22, Type 0, BuildingBlock: MUDLON_clean_sbu_0, # of connection points: 4
#     Node 23, Type 0, BuildingBlock: MUDLON_clean_sbu_0, # of connection points: 4
#     Edge 24, Type (0, 0), BuildingBlock: KIFKEQ_clean_linker_1, # of connection points: 2
#     Edge 25, Type (0, 0), BuildingBlock: KIFKEQ_clean_linker_1, # of connection points: 2
#     Edge 26, Type (0, 0), BuildingBlock: KIFKEQ_clean_linker_1, # of connection points: 2
#     Edge 27, Type (0, 0), BuildingBlock: KIFKEQ_clean_linker_1, # of connection points: 2
#     Edge 28, Type (0, 0), BuildingBlock: KIFKEQ_clean_linker_1, # of connection points: 2
#     Edge 29, Type (0, 0), BuildingBlock: KIFKEQ_clean_linker_1, # of connection points: 2
#     Edge 30, Type (0, 0), BuildingBlock: KIFKEQ_clean_linker_1, # of connection points: 2
#     Edge 31, Type (0, 0), BuildingBlock: KIFKEQ_clean_linker_1, # of connection points: 2
#     Edge 32, Type (0, 0), BuildingBlock: KIFKEQ_clean_linker_1, # of connection points: 2
#     Edge 33, Type (0, 0), BuildingBlock: KIFKEQ_clean_linker_1, # of connection points: 2
#     Edge 34, Type (0, 0), BuildingBlock: KIFKEQ_clean_linker_1, # of connection points: 2
#     Edge 35, Type (0, 0), BuildingBlock: KIFKEQ_clean_linker_1, # of connection points: 2
#     Edge 36, Type (0, 0), BuildingBlock: KIFKEQ_clean_linker_1, # of connection points: 2
#     Edge 37, Type (0, 0), BuildingBlock: KIFKEQ_clean_linker_1, # of connection points: 2
#     Edge 38, Type (0, 0), BuildingBlock: KIFKEQ_clean_linker_1, # of connection points: 2
#     Edge 39, Type (0, 0), BuildingBlock: KIFKEQ_clean_linker_1, # of connection points: 2
#     Edge 40, Type (0, 0), BuildingBlock: KIFKEQ_clean_linker_1, # of connection points: 2
#     Edge 41, Type (0, 0), BuildingBlock: KIFKEQ_clean_linker_1, # of connection points: 2
#     Edge 42, Type (0, 0), BuildingBlock: KIFKEQ_clean_linker_1, # of connection points: 2
#     Edge 43, Type (0, 0), BuildingBlock: KIFKEQ_clean_linker_1, # of connection points: 2
#     Edge 44, Type (0, 0), BuildingBlock: KIFKEQ_clean_linker_1, # of connection points: 2
#     Edge 45, Type (0, 0), BuildingBlock: KIFKEQ_clean_linker_1, # of connection points: 2
#     Edge 46, Type (0, 0), BuildingBlock: KIFKEQ_clean_linker_1, # of connection points: 2
#     Edge 47, Type (0, 0), BuildingBlock: KIFKEQ_clean_linker_1, # of connection points: 2
#     Edge 48, Type (0, 0), BuildingBlock: KIFKEQ_clean_linker_1, # of connection points: 2
#     Edge 49, Type (0, 0), BuildingBlock: KIFKEQ_clean_linker_1, # of connection points: 2
#     Edge 50, Type (0, 0), BuildingBlock: KIFKEQ_clean_linker_1, # of connection points: 2
#     Edge 51, Type (0, 0), BuildingBlock: KIFKEQ_clean_linker_1, # of connection points: 2
#     Edge 52, Type (0, 0), BuildingBlock: KIFKEQ_clean_linker_1, # of connection points: 2
#     Edge 53, Type (0, 0), BuildingBlock: KIFKEQ_clean_linker_1, # of connection points: 2
#     Edge 54, Type (0, 0), BuildingBlock: KIFKEQ_clean_linker_1, # of connection points: 2
#     Edge 55, Type (0, 0), BuildingBlock: KIFKEQ_clean_linker_1, # of connection points: 2
#     Edge 56, Type (0, 0), BuildingBlock: KIFKEQ_clean_linker_1, # of connection points: 2
#     Edge 57, Type (0, 0), BuildingBlock: KIFKEQ_clean_linker_1, # of connection points: 2
#     Edge 58, Type (0, 0), BuildingBlock: KIFKEQ_clean_linker_1, # of connection points: 2
#     Edge 59, Type (0, 0), BuildingBlock: KIFKEQ_clean_linker_1, # of connection points: 2
#     Edge 60, Type (0, 0), BuildingBlock: KIFKEQ_clean_linker_1, # of connection points: 2
#     Edge 61, Type (0, 0), BuildingBlock: KIFKEQ_clean_linker_1, # of connection points: 2
#     Edge 62, Type (0, 0), BuildingBlock: KIFKEQ_clean_linker_1, # of connection points: 2
#     Edge 63, Type (0, 0), BuildingBlock: KIFKEQ_clean_linker_1, # of connection points: 2
#     Edge 64, Type (0, 0), BuildingBlock: KIFKEQ_clean_linker_1, # of connection points: 2
#     Edge 65, Type (0, 0), BuildingBlock: KIFKEQ_clean_linker_1, # of connection points: 2
#     Edge 66, Type (0, 0), BuildingBlock: KIFKEQ_clean_linker_1, # of connection points: 2
#     Edge 67, Type (0, 0), BuildingBlock: KIFKEQ_clean_linker_1, # of connection points: 2
#     Edge 68, Type (0, 0), BuildingBlock: KIFKEQ_clean_linker_1, # of connection points: 2
#     Edge 69, Type (0, 0), BuildingBlock: KIFKEQ_clean_linker_1, # of connection points: 2
#     Edge 70, Type (0, 0), BuildingBlock: KIFKEQ_clean_linker_1, # of connection points: 2
#     Edge 71, Type (0, 0), BuildingBlock: KIFKEQ_clean_linker_1, # of connection points: 2
# Relax obj value: 0.350
# Max RMSD: 0.278
# Mean RMSD: 0.239
data_MOF--net-nfa--node1-MUDLON_clean_sbu_0--edge1-KIFKEQ_clean_linker_1
_symmetry_space_group_name_H-M    P1
_symmetry_Int_Tables_number       1
_symmetry_cell_setting            triclinic
loop_
_symmetry_equiv_pos_as_xyz
'x, y, z'
_cell_length_a     38.660074
_cell_length_b     44.005919
_cell_length_c     38.767132
_cell_angle_alpha  89.837377
_cell_angle_beta   89.798068
_cell_angle_gamma 90.413786
loop_
_atom_site_label
_atom_site_type_symbol
_atom_site_fract_x
_atom_site_fract_y
_atom_site_fract_z
_atom_type_partial_charge
Mg0 Mg 0.13138 0.36537 0.3659 0.0
C1 C 0.20983 0.3592 0.36363 0.0
O2 O 0.20391 0.34101 0.38984 0.0
C3 C 0.0959 0.30625 0.33404 0.0
O4 O 0.12635 0.29793 0.32244 0.0
C5 C 0.11007 0.40622 0.31239 0.0
O6 O 0.11825 0.38021 0.29802 0.0
O7 O 0.11133 0.40803 0.34521 0.0
O8 O 0.18432 0.36785 0.34547 0.0
O9 O 0.13794 0.35777 0.42166 0.0
C10 C 0.1413 0.32954 0.42833 0.0
O11 O 0.1377 0.31017 0.40286 0.0
O12 O 0.09302 0.33127 0.35008 0.0
Mg13 Mg 0.93111 0.94307 0.57125 0.0
C14 C 0.90344 1.00387 0.59235 0.0
O15 O 0.90652 0.99018 0.6223 0.0
C16 C 0.99862 0.91327 0.54899 0.0
O17 O 0.00823 0.92148 0.58005 0.0
C18 C 0.87608 0.91978 0.52724 0.0
O19 O 0.89153 0.94022 0.50768 0.0
O20 O 0.88671 0.91585 0.55789 0.0
O21 O 0.91375 0.99023 0.56527 0.0
O22 O 0.94594 0.93322 0.6239 0.0
C23 C 0.96832 0.94978 0.63888 0.0
O24 O 0.98074 0.97376 0.62262 0.0
O25 O 0.97008 0.9231 0.53718 0.0
Mg26 Mg 0.36546 0.66381 0.8751 0.0
C27 C 0.29017 0.67467 0.84326 0.0
O28 O 0.27106 0.69059 0.82196 0.0
C29 C 0.42894 0.70391 0.84866 0.0
O30 O 0.41928 0.69616 0.81743 0.0
C31 C 0.37461 0.62053 0.81799 0.0
O32 O 0.36596 0.64634 0.8034 0.0
O33 O 0.37775 0.61983 0.85077 0.0
O34 O 0.32242 0.68129 0.84469 0.0
O35 O 0.34526 0.66888 0.92776 0.0
C36 C 0.33601 0.69651 0.93105 0.0
O37 O 0.34041 0.71479 0.9045 0.0
O38 O 0.41169 0.694 0.87452 0.0
Mg39 Mg 0.59443 0.09291 0.08854 0.0
C40 C 0.5423 0.1266 0.04434 0.0
O41 O 0.52018 0.11341 0.06544 0.0
C42 C 0.61002 0.03035 0.11231 0.0
O43 O 0.59916 0.04381 0.14049 0.0
C44 C 0.53249 0.08123 0.13318 0.0
O45 O 0.52878 0.05943 0.11036 0.0
O46 O 0.55874 0.09869 0.13112 0.0
O47 O 0.57352 0.11763 0.04429 0.0
O48 O 0.6414 0.11845 0.09736 0.0
C49 C 0.64082 0.14696 0.09204 0.0
O50 O 0.61095 0.16018 0.08669 0.0
O51 O 0.60982 0.04526 0.08408 0.0
Mg52 Mg 0.14426 0.62249 0.09735 0.0
C53 C 0.19729 0.57981 0.08642 0.0
O54 O 0.16919 0.5719 0.06958 0.0
C55 C 0.11763 0.68729 0.10535 0.0
O56 O 0.12894 0.68901 0.07345 0.0
C57 C 0.11888 0.58674 0.15367 0.0
O58 O 0.13685 0.60971 0.16599 0.0
O59 O 0.11429 0.58552 0.12111 0.0
O60 O 0.19621 0.60379 0.10482 0.0
O61 O 0.14644 0.63261 0.04169 0.0
C62 C 0.17468 0.64681 0.03533 0.0
O63 O 0.19572 0.65207 0.06121 0.0
O64 O 0.12379 0.66337 0.12284 0.0
Mg65 Mg 0.58384 0.8686 0.43411 0.0
C66 C 0.6002 0.93375 0.4241 0.0
O67 O 0.59639 0.92345 0.39257 0.0
C68 C 0.52363 0.83328 0.46833 0.0
O69 O 0.50478 0.85485 0.45468 0.0
C70 C 0.64793 0.84068 0.45721 0.0
O71 O 0.62666 0.83626 0.48328 0.0
O72 O 0.63594 0.8518 0.42946 0.0
O73 O 0.59394 0.91581 0.44933 0.0
O74 O 0.55565 0.86862 0.38607 0.0
C75 C 0.5292 0.88558 0.38537 0.0
O76 O 0.52272 0.90313 0.41196 0.0
O77 O 0.55643 0.83565 0.46703 0.0
Mg78 Mg 0.34782 0.39734 0.60901 0.0
C79 C 0.405 0.35908 0.63305 0.0
O80 O 0.41968 0.38465 0.62303 0.0
C81 C 0.28217 0.43095 0.63307 0.0
O82 O 0.30211 0.4409 0.65797 0.0
C83 C 0.32497 0.36194 0.5524 0.0
O84 O 0.30956 0.35292 0.58097 0.0
O85 O 0.34698 0.38368 0.55449 0.0
O86 O 0.37205 0.35706 0.63223 0.0
O87 O 0.37412 0.43739 0.63127 0.0
C88 C 0.37739 0.43531 0.66399 0.0
O89 O 0.36867 0.40949 0.67888 0.0
O90 O 0.293 0.40973 0.61362 0.0
Mg91 Mg 0.90815 0.18296 0.92066 0.0
C92 C 0.97452 0.21899 0.93735 0.0
O93 O 0.98251 0.21223 0.90533 0.0
C94 C 0.88975 0.11511 0.93685 0.0
O95 O 0.88333 0.1249 0.96817 0.0
C96 C 0.91208 0.18326 0.84294 0.0
O97 O 0.8948 0.15767 0.84701 0.0
O98 O 0.91712 0.2001 0.86903 0.0
O99 O 0.94798 0.20655 0.95118 0.0
O100 O 0.85962 0.19664 0.94369 0.0
C101 C 0.86027 0.19941 0.97634 0.0
O102 O 0.88984 0.19591 0.99241 0.0
O103 O 0.90321 0.13326 0.91482 0.0
Mg104 Mg 0.27344 0.16655 0.31806 0.0
C105 C 0.21532 0.1357 0.27824 0.0
O106 O 0.20259 0.13154 0.3093 0.0
C107 C 0.26026 0.23213 0.34753 0.0
O108 O 0.22767 0.22797 0.33919 0.0
C109 C 0.32901 0.1554 0.26839 0.0
O110 O 0.30598 0.1702 0.25017 0.0
O111 O 0.32322 0.15079 0.30027 0.0
O112 O 0.24022 0.15454 0.27424 0.0
O113 O 0.25687 0.13883 0.36127 0.0
C114 C 0.22967 0.14723 0.3769 0.0
O115 O 0.21364 0.17164 0.36611 0.0
O116 O 0.28248 0.21237 0.33875 0.0
Mg117 Mg 0.18728 0.15399 0.67059 0.0
C118 C 0.11219 0.16513 0.68457 0.0
O119 O 0.11119 0.16025 0.65117 0.0
C120 C 0.19555 0.10887 0.61485 0.0
O121 O 0.22537 0.10703 0.63076 0.0
C122 C 0.21175 0.10807 0.72253 0.0
O123 O 0.18136 0.11447 0.73581 0.0
O124 O 0.22321 0.12441 0.69784 0.0
O125 O 0.14105 0.1637 0.70012 0.0
O126 O 0.20653 0.19537 0.64528 0.0
C127 C 0.18903 0.21974 0.64733 0.0
O128 O 0.16347 0.22093 0.66968 0.0
O129 O 0.17259 0.12642 0.62699 0.0
Mg130 Mg 0.20561 0.85283 0.81775 0.0
C131 C 0.22035 0.88742 0.75244 0.0
O132 O 0.18783 0.88083 0.74599 0.0
C133 C 0.22633 0.7896 0.8424 0.0
O134 O 0.25655 0.80305 0.84592 0.0
C135 C 0.13049 0.854 0.79953 0.0
O136 O 0.13748 0.82551 0.79247 0.0
O137 O 0.15406 0.87069 0.81235 0.0
O138 O 0.23586 0.87247 0.77577 0.0
O139 O 0.22982 0.87341 0.86185 0.0
C140 C 0.2623 0.87802 0.86042 0.0
O141 O 0.27955 0.86948 0.8329 0.0
O142 O 0.20187 0.80412 0.82817 0.0
Mg143 Mg 0.28825 0.88539 0.15594 0.0
C144 C 0.35323 0.86591 0.19565 0.0
O145 O 0.36103 0.85116 0.16734 0.0
C146 C 0.33342 0.8888 0.09322 0.0
O147 O 0.3379 0.8602 0.10176 0.0
C148 C 0.24464 0.94219 0.15236 0.0
O149 O 0.25668 0.94176 0.12065 0.0
O150 O 0.25098 0.91977 0.1722 0.0
O151 O 0.32488 0.88026 0.19768 0.0
O152 O 0.26841 0.84287 0.13374 0.0
C153 C 0.28088 0.81687 0.14084 0.0
O154 O 0.3016 0.81425 0.16742 0.0
O155 O 0.31558 0.90555 0.11295 0.0
Mg156 Mg 0.42795 0.37842 0.09537 0.0
C157 C 0.38867 0.4288 0.05984 0.0
O158 O 0.37882 0.40583 0.04055 0.0
C159 C 0.48558 0.34085 0.0646 0.0
O160 O 0.50111 0.35015 0.09279 0.0
C161 C 0.37122 0.33198 0.08425 0.0
O162 O 0.39513 0.31919 0.06516 0.0
O163 O 0.37911 0.35516 0.10215 0.0
O164 O 0.41185 0.42448 0.08247 0.0
O165 O 0.45569 0.37959 0.14371 0.0
C166 C 0.46594 0.40495 0.15566 0.0
O167 O 0.45888 0.42998 0.13862 0.0
O168 O 0.45625 0.35193 0.0571 0.0
Mg169 Mg 0.85511 0.86251 0.12621 0.0
C170 C 0.92305 0.8346 0.13641 0.0
O171 O 0.92959 0.86255 0.12614 0.0
C172 C 0.7864 0.87604 0.16121 0.0
O173 O 0.80642 0.88892 0.18431 0.0
C174 C 0.83342 0.83539 0.06271 0.0
O175 O 0.82301 0.81794 0.08834 0.0
O176 O 0.85101 0.85917 0.06994 0.0
O177 O 0.89154 0.82657 0.14052 0.0
O178 O 0.87176 0.90518 0.1508 0.0
C179 C 0.8833 0.90292 0.18151 0.0
O180 O 0.88738 0.87565 0.1947 0.0
O181 O 0.80007 0.85906 0.13856 0.0
Mg182 Mg 0.0686 0.63573 0.52281 0.0
C183 C 0.10348 0.58282 0.55559 0.0
O184 O 0.07137 0.58003 0.56636 0.0
C185 C 0.06419 0.70024 0.49553 0.0
O186 O 0.04417 0.68636 0.47315 0.0
C187 C 0.0548 0.60462 0.45362 0.0
O188 O 0.03554 0.59189 0.42978 0.0
O189 O 0.04035 0.61826 0.47859 0.0
O190 O 0.11136 0.60514 0.53596 0.0
O191 O 0.03266 0.6334 0.5654 0.0
C192 C 0.03661 0.65076 0.59122 0.0
O193 O 0.06265 0.6701 0.59152 0.0
O194 O 0.08008 0.68439 0.51792 0.0
Mg195 Mg 0.66687 0.90761 0.89798 0.0
C196 C 0.73222 0.94179 0.87084 0.0
O197 O 0.71192 0.95024 0.84553 0.0
C198 C 0.63436 0.84355 0.89468 0.0
O199 O 0.64541 0.84309 0.92665 0.0
C200 C 0.62776 0.94202 0.8442 0.0
O201 O 0.62847 0.91454 0.8311 0.0
O202 O 0.63977 0.94612 0.87446 0.0
O203 O 0.72152 0.92162 0.8921 0.0
O204 O 0.66334 0.90036 0.95409 0.0
C205 C 0.69022 0.88807 0.96698 0.0
O206 O 0.717 0.88365 0.94672 0.0
O207 O 0.6428 0.86608 0.87547 0.0
Mg208 Mg 0.848 0.11882 0.40261 0.0
C209 C 0.8702 0.07948 0.34677 0.0
O210 O 0.8595 0.10483 0.3325 0.0
C211 C 0.83373 0.1548 0.46241 0.0
O212 O 0.8137 0.16394 0.43715 0.0
C213 C 0.77969 0.09601 0.42551 0.0
O214 O 0.7996 0.09265 0.4526 0.0
O215 O 0.79238 0.10871 0.39858 0.0
O216 O 0.87012 0.07761 0.37965 0.0
O217 O 0.87402 0.15617 0.37489 0.0
C218 C 0.90671 0.1528 0.37692 0.0
O219 O 0.91835 0.12877 0.39328 0.0
O220 O 0.85469 0.13315 0.45645 0.0
Mg221 Mg 0.63579 0.15004 0.61188 0.0
C222 C 0.65416 0.14059 0.53487 0.0
O223 O 0.67499 0.11958 0.54676 0.0
C224 C 0.61498 0.11375 0.67236 0.0
O225 O 0.6214 0.14102 0.68459 0.0
C226 C 0.57363 0.18524 0.63451 0.0
O227 O 0.56091 0.15765 0.63113 0.0
O228 O 0.60597 0.18945 0.62958 0.0
O229 O 0.63252 0.1527 0.55545 0.0
O230 O 0.69122 0.14822 0.62304 0.0
C231 C 0.71434 0.15749 0.60196 0.0
O232 O 0.70537 0.17528 0.5763 0.0
O233 O 0.61692 0.10976 0.63983 0.0
Mg234 Mg 0.11381 0.43957 0.95181 0.0
C235 C 0.0577 0.4273 0.01309 0.0
O236 O 0.04126 0.43952 0.03927 0.0
C237 C 0.16728 0.49311 0.95251 0.0
O238 O 0.18033 0.47815 0.97874 0.0
C239 C 0.05085 0.42754 0.90963 0.0
O240 O 0.03731 0.44109 0.93656 0.0
O241 O 0.08348 0.42465 0.9077 0.0
O242 O 0.07858 0.4445 0.99607 0.0
O243 O 0.15191 0.40554 0.96563 0.0
C244 C 0.15232 0.39575 0.99653 0.0
O245 O 0.13056 0.40704 0.01904 0.0
O246 O 0.14025 0.48264 0.93778 0.0
Mg247 Mg 0.38081 0.59273 0.38953 0.0
C248 C 0.40203 0.63553 0.44649 0.0
O249 O 0.36823 0.6371 0.44929 0.0
C250 C 0.37997 0.52286 0.4075 0.0
O251 O 0.38506 0.5303 0.43989 0.0
C252 C 0.40869 0.63487 0.33406 0.0
O253 O 0.40598 0.65489 0.35899 0.0
O254 O 0.39791 0.60791 0.33923 0.0
O255 O 0.41495 0.61618 0.42584 0.0
O256 O 0.3272 0.60438 0.39917 0.0
C257 C 0.3123 0.59015 0.42372 0.0
O258 O 0.33039 0.57113 0.44238 0.0
O259 O 0.38039 0.54344 0.38444 0.0
Mg260 Mg 0.79131 0.6664 0.81458 0.0
C261 C 0.85422 0.64588 0.77669 0.0
O262 O 0.84563 0.62057 0.79275 0.0
C263 C 0.79427 0.6179 0.87007 0.0
O264 O 0.77614 0.60229 0.84759 0.0
C265 C 0.75801 0.62519 0.76184 0.0
O266 O 0.78116 0.63853 0.74195 0.0
O267 O 0.75281 0.63587 0.79188 0.0
O268 O 0.83589 0.66937 0.78115 0.0
O269 O 0.77761 0.71114 0.83469 0.0
C270 C 0.80331 0.72893 0.83949 0.0
O271 O 0.8335 0.7211 0.82679 0.0
O272 O 0.80624 0.64384 0.86157 0.0
Mg273 Mg 0.68831 0.66679 0.1688 0.0
C274 C 0.72745 0.64412 0.11123 0.0
O275 O 0.7504 0.65282 0.13417 0.0
C276 C 0.60943 0.65341 0.17444 0.0
O277 O 0.6119 0.64217 0.14317 0.0
C278 C 0.67411 0.72783 0.14523 0.0
O279 O 0.64595 0.71158 0.14025 0.0
O280 O 0.69957 0.71512 0.16016 0.0
O281 O 0.69552 0.64764 0.11803 0.0
O282 O 0.71968 0.63727 0.20173 0.0
C283 C 0.71658 0.6095 0.19277 0.0
O284 O 0.69576 0.60267 0.1672 0.0
O285 O 0.63624 0.66386 0.18923 0.0
Mg286 Mg 0.72142 0.36822 0.35653 0.0
C287 C 0.75262 0.42321 0.32793 0.0
O288 O 0.73969 0.43102 0.35795 0.0
C289 C 0.73819 0.30368 0.37987 0.0
O290 O 0.76284 0.31816 0.39642 0.0
C291 C 0.66498 0.38382 0.31168 0.0
O292 O 0.69098 0.37725 0.29121 0.0
O293 O 0.66898 0.38146 0.34413 0.0
O294 O 0.7511 0.39535 0.31896 0.0
O295 O 0.7392 0.38434 0.40611 0.0
C296 C 0.77174 0.38822 0.40863 0.0
O297 O 0.79159 0.38112 0.38231 0.0
O298 O 0.7198 0.31838 0.35844 0.0
Mg299 Mg 0.81812 0.35834 0.6921 0.0
C300 C 0.88564 0.35161 0.72994 0.0
O301 O 0.89722 0.34702 0.6985 0.0
C302 C 0.84284 0.40836 0.64428 0.0
O303 O 0.82772 0.42576 0.66722 0.0
C304 C 0.77735 0.4042 0.73304 0.0
O305 O 0.79835 0.39438 0.75712 0.0
O306 O 0.77713 0.39074 0.70401 0.0
O307 O 0.85342 0.35512 0.73484 0.0
O308 O 0.80329 0.31514 0.6685 0.0
C309 C 0.82302 0.29208 0.66968 0.0
O310 O 0.8499 0.29263 0.69029 0.0
O311 O 0.84534 0.38006 0.65021 0.0
H312 H 0.16265 0.27249 0.44321 0.0
H313 H 0.14826 0.36047 0.49014 0.0
H314 H 0.18171 0.25197 0.49769 0.0
H315 H 0.1678 0.33955 0.54561 0.0
H316 H 0.15037 0.2712 0.64006 0.0
H317 H 0.14474 0.3025 0.58852 0.0
H318 H 0.22782 0.25307 0.54017 0.0
H319 H 0.23295 0.22118 0.59146 0.0
C320 C 0.1636 0.28759 0.4652 0.0
C321 C 0.15342 0.31812 0.4623 0.0
C322 C 0.17508 0.27583 0.4965 0.0
C323 C 0.17656 0.2941 0.52609 0.0
C324 C 0.16687 0.32484 0.52328 0.0
C325 C 0.15563 0.33681 0.49158 0.0
C326 C 0.16802 0.26739 0.61877 0.0
C327 C 0.19162 0.24318 0.61969 0.0
C328 C 0.16488 0.28552 0.58922 0.0
C329 C 0.18531 0.2799 0.55991 0.0
C330 C 0.21111 0.25754 0.56203 0.0
C331 C 0.2142 0.23935 0.59155 0.0
H332 H 0.94879 0.90151 0.67929 0.0
H333 H 0.02414 0.97428 0.67175 0.0
H334 H 0.98088 0.87957 0.72722 0.0
H335 H 0.05666 0.95195 0.71873 0.0
H336 H 0.08033 0.82742 0.76028 0.0
H337 H 0.0346 0.85284 0.72895 0.0
H338 H 0.0618 0.9377 0.77815 0.0
H339 H 0.10845 0.91236 0.80876 0.0
C340 C 0.97193 0.91306 0.68817 0.0
C341 C 0.98424 0.93937 0.67138 0.0
C342 C 0.99038 0.90041 0.71553 0.0
C343 C 0.02158 0.91374 0.72654 0.0
C344 C 0.03257 0.94119 0.71122 0.0
C345 C 0.01403 0.95392 0.68402 0.0
C346 C 0.07614 0.85136 0.76499 0.0
C347 C 0.09844 0.86798 0.78648 0.0
C348 C 0.04969 0.86595 0.74717 0.0
C349 C 0.04481 0.89744 0.75066 0.0
C350 C 0.06535 0.91355 0.77434 0.0
C351 C 0.09197 0.89899 0.79201 0.0
H352 H 0.23976 0.81351 0.08348 0.0
H353 H 0.31913 0.76473 0.1383 0.0
H354 H 0.24616 0.77912 0.03475 0.0
H355 H 0.3264 0.73104 0.08911 0.0
H356 H 0.3275 0.66877 0.99495 0.0
H357 H 0.3064 0.69252 0.04831 0.0
H358 H 0.29124 0.77672 0.99297 0.0
H359 H 0.31124 0.75326 0.94053 0.0
C360 C 0.25816 0.79514 0.08542 0.0
C361 C 0.2793 0.79225 0.11464 0.0
C362 C 0.26203 0.77551 0.05734 0.0
C363 C 0.28742 0.7527 0.05757 0.0
C364 C 0.30656 0.74825 0.08793 0.0
C365 C 0.30246 0.76774 0.11618 0.0
C366 C 0.31931 0.69224 0.99429 0.0
C367 C 0.32143 0.70913 0.9635 0.0
C368 C 0.30731 0.70589 0.02484 0.0
C369 C 0.29694 0.73657 0.02504 0.0
C370 C 0.29828 0.75296 0.99391 0.0
C371 C 0.31027 0.73948 0.96372 0.0
H372 H 0.389 0.13545 0.29816 0.0
H373 H 0.33836 0.14677 0.19977 0.0
H374 H 0.43971 0.11441 0.2686 0.0
H375 H 0.38852 0.12558 0.17064 0.0
H376 H 0.46726 0.0574 0.13389 0.0
H377 H 0.4186 0.07321 0.16961 0.0
H378 H 0.4851 0.13611 0.22365 0.0
H379 H 0.53398 0.12052 0.18773 0.0
C380 C 0.38868 0.13336 0.27033 0.0
C381 C 0.35983 0.14281 0.25124 0.0
C382 C 0.41763 0.12142 0.25349 0.0
C383 C 0.41777 0.11821 0.21746 0.0
C384 C 0.38884 0.12748 0.1985 0.0
C385 C 0.36027 0.13983 0.21518 0.0
C386 C 0.47169 0.07427 0.1537 0.0
C387 C 0.50437 0.08794 0.15778 0.0
C388 C 0.44381 0.08337 0.17403 0.0
C389 C 0.44817 0.106 0.19911 0.0
C390 C 0.48119 0.11852 0.20454 0.0
C391 C 0.50904 0.10969 0.18389 0.0
H392 H 0.2727 0.74974 0.86985 0.0
H393 H 0.16305 0.76488 0.85881 0.0
H394 H 0.26078 0.70842 0.91 0.0
H395 H 0.1511 0.72457 0.90038 0.0
H396 H 0.13654 0.64604 0.97477 0.0
H397 H 0.14986 0.67377 0.92119 0.0
H398 H 0.24418 0.70761 0.96711 0.0
H399 H 0.23209 0.67924 0.01875 0.0
C400 C 0.246 0.74405 0.87572 0.0
C401 C 0.21888 0.76094 0.86145 0.0
C402 C 0.23912 0.72051 0.89909 0.0
C403 C 0.20495 0.71355 0.90936 0.0
C404 C 0.17772 0.72903 0.89314 0.0
C405 C 0.18461 0.75234 0.86932 0.0
C406 C 0.16039 0.659 0.97297 0.0
C407 C 0.18303 0.66057 0.00123 0.0
C408 C 0.16797 0.67507 0.94238 0.0
C409 C 0.19821 0.6931 0.9396 0.0
C410 C 0.22116 0.69357 0.96759 0.0
C411 C 0.21387 0.67744 0.99769 0.0
H412 H 0.46155 0.90128 0.38708 0.0
H413 H 0.54013 0.86448 0.32 0.0
H414 H 0.41883 0.8952 0.34194 0.0
H415 H 0.49772 0.85993 0.27378 0.0
H416 H 0.40657 0.82753 0.20949 0.0
H417 H 0.4492 0.83202 0.25545 0.0
H418 H 0.40065 0.91501 0.28964 0.0
H419 H 0.35716 0.90943 0.24509 0.0
C420 C 0.4698 0.89237 0.36239 0.0
C421 C 0.50415 0.88344 0.35696 0.0
C422 C 0.44531 0.88899 0.33638 0.0
C423 C 0.45474 0.87718 0.30404 0.0
C424 C 0.48934 0.86861 0.29852 0.0
C425 C 0.51374 0.87145 0.32485 0.0
C426 C 0.40498 0.84656 0.22707 0.0
C427 C 0.37848 0.868 0.22392 0.0
C428 C 0.42957 0.84933 0.25322 0.0
C429 C 0.4285 0.87392 0.27633 0.0
C430 C 0.40196 0.89541 0.27288 0.0
C431 C 0.37704 0.89231 0.24721 0.0
H432 H 0.27123 0.32322 0.54194 0.0
H433 H 0.35767 0.36504 0.48859 0.0
H434 H 0.25653 0.29486 0.49077 0.0
H435 H 0.34243 0.33643 0.43635 0.0
H436 H 0.32549 0.25107 0.3658 0.0
H437 H 0.34148 0.28477 0.41322 0.0
H438 H 0.23337 0.30024 0.43461 0.0
H439 H 0.21739 0.2668 0.38733 0.0
C440 C 0.28711 0.32657 0.51914 0.0
C441 C 0.31583 0.34642 0.51955 0.0
C442 C 0.2784 0.31035 0.48953 0.0
C443 C 0.29813 0.31334 0.4592 0.0
C444 C 0.3268 0.33339 0.45934 0.0
C445 C 0.33543 0.34995 0.48917 0.0
C446 C 0.30513 0.26207 0.38029 0.0
C447 C 0.27013 0.25608 0.37275 0.0
C448 C 0.31433 0.28147 0.40747 0.0
C449 C 0.28875 0.29502 0.42809 0.0
C450 C 0.25379 0.28978 0.41973 0.0
C451 C 0.2446 0.27083 0.39228 0.0
H452 H 0.04554 0.16267 0.66121 0.0
H453 H 0.10653 0.18403 0.75129 0.0
H454 H 0.99263 0.17291 0.69378 0.0
H455 H 0.05382 0.19408 0.78368 0.0
H456 H 0.95807 0.22947 0.83003 0.0
H457 H 0.00413 0.22961 0.787 0.0
H458 H 0.96237 0.14716 0.74301 0.0
H459 H 0.91608 0.14705 0.78582 0.0
C460 C 0.04768 0.16973 0.68786 0.0
C461 C 0.0802 0.17236 0.70376 0.0
C462 C 0.01739 0.17556 0.70646 0.0
C463 C 0.0191 0.18446 0.74118 0.0
C464 C 0.05168 0.18775 0.75679 0.0
C465 C 0.08188 0.18169 0.73832 0.0
C466 C 0.95811 0.21179 0.81065 0.0
C467 C 0.93379 0.18788 0.81182 0.0
C468 C 0.98466 0.21179 0.78614 0.0
C469 C 0.98726 0.18803 0.76217 0.0
C470 C 0.96106 0.16576 0.7612 0.0
C471 C 0.93455 0.16568 0.78581 0.0
H472 H 0.26383 0.59061 0.11021 0.0
H473 H 0.20202 0.52617 0.05286 0.0
H474 H 0.31498 0.55878 0.10078 0.0
H475 H 0.25188 0.49454 0.04443 0.0
H476 H 0.34624 0.45015 0.00937 0.0
H477 H 0.30419 0.49086 0.01394 0.0
H478 H 0.3401 0.51073 0.11695 0.0
H479 H 0.38332 0.47086 0.11162 0.0
C480 C 0.26111 0.5697 0.09579 0.0
C481 C 0.2288 0.56102 0.08232 0.0
C482 C 0.29036 0.55143 0.09039 0.0
C483 C 0.2878 0.52419 0.07141 0.0
C484 C 0.25532 0.51567 0.05831 0.0
C485 C 0.22643 0.53379 0.06354 0.0
C486 C 0.34567 0.46364 0.03269 0.0
C487 C 0.36786 0.45701 0.06024 0.0
C488 C 0.32132 0.48685 0.0355 0.0
C489 C 0.31801 0.50365 0.06621 0.0
C490 C 0.34184 0.49838 0.09289 0.0
C491 C 0.36661 0.47541 0.08986 0.0
H492 H 0.86376 0.10109 0.87353 0.0
H493 H 0.88048 0.06284 0.97449 0.0
H494 H 0.83042 0.05671 0.85723 0.0
H495 H 0.84977 0.01678 0.95752 0.0
H496 H 0.75625 0.95631 0.93478 0.0
H497 H 0.79811 0.99524 0.94965 0.0
H498 H 0.82081 1.00889 0.84119 0.0
H499 H 0.77629 0.97173 0.8267 0.0
C500 C 0.86124 0.08263 0.89193 0.0
C501 C 0.87472 0.08559 0.92536 0.0
C502 C 0.8421 0.05679 0.88251 0.0
C503 C 0.83662 0.03255 0.90593 0.0
C504 C 0.85206 0.03497 0.93882 0.0
C505 C 0.87025 0.06131 0.94857 0.0
C506 C 0.77061 0.96734 0.91414 0.0
C507 C 0.76282 0.96096 0.87953 0.0
C508 C 0.79499 0.98982 0.92267 0.0
C509 C 0.81319 1.00611 0.89681 0.0
C510 C 0.80685 0.99802 0.86212 0.0
C511 C 0.7816 0.97623 0.85363 0.0
H512 H 0.73953 0.08244 0.48112 0.0
H513 H 0.74325 0.07381 0.37035 0.0
H514 H 0.68922 0.04896 0.48339 0.0
H515 H 0.69405 0.03893 0.37253 0.0
H516 H 0.59909 0.98221 0.38052 0.0
H517 H 0.63575 0.02742 0.3821 0.0
H518 H 0.67911 0.99678 0.47871 0.0
H519 H 0.64115 0.95237 0.47771 0.0
C520 C 0.72922 0.07369 0.45714 0.0
C521 C 0.74543 0.08068 0.42554 0.0
C522 C 0.70057 0.05415 0.45847 0.0
C523 C 0.68774 0.04054 0.42827 0.0
C524 C 0.70279 0.04904 0.3964 0.0
C525 C 0.73115 0.06907 0.39504 0.0
C526 C 0.6159 0.98557 0.40251 0.0
C527 C 0.61733 0.96367 0.42894 0.0
C528 C 0.63724 1.01137 0.40325 0.0
C529 C 0.66104 0.01573 0.43018 0.0
C530 C 0.66097 0.99459 0.45765 0.0
C531 C 0.63918 0.96898 0.45714 0.0
H532 H 0.65487 1.00309 0.0669 0.0
H533 H 0.60319 0.98958 0.16473 0.0
H534 H 0.69067 0.95863 0.07816 0.0
H535 H 0.63823 0.94488 0.17561 0.0
H536 H 0.74732 0.90944 0.20552 0.0
H537 H 0.69801 0.94083 0.19111 0.0
H538 H 0.69769 0.90428 0.08781 0.0
H539 H 0.74746 0.8729 0.10224 0.0
C540 C 0.65048 0.99015 0.09034 0.0
C541 C 0.62665 1.00019 0.1152 0.0
C542 C 0.67093 0.96457 0.09679 0.0
C543 C 0.66779 0.94846 0.12814 0.0
C544 C 0.64193 0.95715 0.15161 0.0
C545 C 0.62173 0.98275 0.14528 0.0
C546 C 0.73616 0.90741 0.18002 0.0
C547 C 0.75152 0.88878 0.15504 0.0
C548 C 0.70772 0.9254 0.17172 0.0
C549 C 0.69395 0.92531 0.13814 0.0
C550 C 0.70784 0.90512 0.11378 0.0
C551 C 0.73618 0.88689 0.1222 0.0
H552 H 0.09925 0.54492 0.61086 0.0
H553 H 0.16604 0.56905 0.52538 0.0
H554 H 0.14036 0.50651 0.62933 0.0
H555 H 0.20728 0.53002 0.54383 0.0
H556 H 0.25176 0.4342 0.56937 0.0
H557 H 0.20862 0.47088 0.54998 0.0
H558 H 0.20184 0.50686 0.65319 0.0
H559 H 0.24529 0.47059 0.67254 0.0
C560 C 0.12274 0.54201 0.59596 0.0
C561 C 0.12943 0.56013 0.56669 0.0
C562 C 0.14633 0.52003 0.60665 0.0
C563 C 0.177 0.51519 0.58805 0.0
C564 C 0.18369 0.5331 0.55855 0.0
C565 C 0.16027 0.55558 0.54814 0.0
C566 C 0.24063 0.44956 0.58809 0.0
C567 C 0.25189 0.44937 0.62259 0.0
C568 C 0.21624 0.47081 0.57684 0.0
C569 C 0.20209 0.49192 0.59998 0.0
C570 C 0.21224 0.49085 0.63476 0.0
C571 C 0.23705 0.47001 0.64586 0.0
H572 H 0.26668 0.3511 0.40385 0.0
H573 H 0.22766 0.4073 0.32157 0.0
H574 H 0.31563 0.38531 0.41091 0.0
H575 H 0.27594 0.4424 0.32959 0.0
H576 H 0.37062 0.4991 0.34307 0.0
H577 H 0.33643 0.45447 0.32763 0.0
H578 H 0.32086 0.43434 0.43579 0.0
H579 H 0.35572 0.47845 0.45113 0.0
C580 C 0.26901 0.37026 0.38659 0.0
C581 C 0.24311 0.37631 0.3622 0.0
C582 C 0.29691 0.3902 0.391 0.0
C583 C 0.29954 0.41695 0.37131 0.0
C584 C 0.27498 0.42195 0.34514 0.0
C585 C 0.24714 0.4018 0.34057 0.0
C586 C 0.36054 0.48475 0.36356 0.0
C587 C 0.36562 0.49256 0.39838 0.0
C588 C 0.34069 0.45927 0.35468 0.0
C589 C 0.32535 0.44099 0.38038 0.0
C590 C 0.33243 0.44767 0.4152 0.0
C591 C 0.35243 0.47309 0.42408 0.0
H592 H 0.2212 0.66566 0.85315 0.0
H593 H 0.31972 0.62714 0.8803 0.0
H594 H 0.19165 0.62422 0.88247 0.0
H595 H 0.2901 0.58486 0.90882 0.0
H596 H 0.22437 0.52251 0.97889 0.0
H597 H 0.25402 0.56756 0.95614 0.0
H598 H 0.18023 0.57189 0.87288 0.0
H599 H 0.15025 0.52748 0.89603 0.0
C600 C 0.23677 0.64836 0.86538 0.0
C601 C 0.27318 0.64993 0.864 0.0
C602 C 0.21966 0.62434 0.88208 0.0
C603 C 0.2383 0.60068 0.89764 0.0
C604 C 0.27473 0.60267 0.89734 0.0
C605 C 0.2919 0.627 0.88079 0.0
C606 C 0.21435 0.53317 0.95581 0.0
C607 C 0.18481 0.52123 0.93932 0.0
C608 C 0.23154 0.55897 0.94262 0.0
C609 C 0.21968 0.57358 0.91258 0.0
C610 C 0.18994 0.56172 0.89636 0.0
C611 C 0.17276 0.53601 0.90955 0.0
H612 H 0.63749 0.88629 0.0151 0.0
H613 H 0.74237 0.85668 0.99747 0.0
H614 H 0.63467 0.85486 0.06709 0.0
H615 H 0.739 0.82441 0.04787 0.0
H616 H 0.73078 0.76644 0.14072 0.0
H617 H 0.73557 0.8129 0.10614 0.0
H618 H 0.62807 0.80339 0.0772 0.0
H619 H 0.62306 0.75856 0.11275 0.0
C620 C 0.66004 0.87338 0.02249 0.0
C621 C 0.68984 0.8736 0.00168 0.0
C622 C 0.65838 0.85508 0.05215 0.0
C623 C 0.68634 0.8363 0.06145 0.0
C624 C 0.71696 0.83843 0.0419 0.0
C625 C 0.71875 0.8569 0.01261 0.0
C626 C 0.70806 0.77479 0.12758 0.0
C627 C 0.67671 0.75847 0.12912 0.0
C628 C 0.7108 0.80133 0.10748 0.0
C629 C 0.68233 0.81192 0.08824 0.0
C630 C 0.65055 0.79648 0.09174 0.0
C631 C 0.64776 0.77032 0.11198 0.0
H632 H 0.59909 0.37263 0.33522 0.0
H633 H 0.65705 0.41569 0.25292 0.0
H634 H 0.54513 0.38187 0.30353 0.0
H635 H 0.60369 0.4252 0.22179 0.0
H636 H 0.50245 0.45361 0.18003 0.0
H637 H 0.54643 0.45345 0.225 0.0
H638 H 0.52509 0.35862 0.24515 0.0
H639 H 0.4811 0.35861 0.20011 0.0
C640 C 0.60014 0.38469 0.31083 0.0
C641 C 0.63206 0.39325 0.29627 0.0
C642 C 0.56943 0.38984 0.29271 0.0
C643 C 0.57034 0.40425 0.26028 0.0
C644 C 0.60218 0.41436 0.24689 0.0
C645 C 0.63273 0.40871 0.26457 0.0
C646 C 0.50664 0.43286 0.19446 0.0
C647 C 0.48871 0.40598 0.18615 0.0
C648 C 0.53179 0.43281 0.2202 0.0
C649 C 0.5392 0.406 0.23836 0.0
C650 C 0.51965 0.37966 0.23172 0.0
C651 C 0.49472 0.37961 0.20572 0.0
H652 H 0.78661 0.29382 0.60961 0.0
H653 H 0.85372 0.23604 0.66918 0.0
H654 H 0.78885 0.25832 0.56218 0.0
H655 H 0.85441 0.19916 0.62219 0.0
H656 H 0.88208 0.15958 0.51458 0.0
H657 H 0.87724 0.19006 0.56717 0.0
H658 H 0.77213 0.21274 0.5398 0.0
H659 H 0.77776 0.18357 0.48745 0.0
C660 C 0.80109 0.27304 0.61297 0.0
C661 C 0.81998 0.26784 0.64325 0.0
C662 C 0.80232 0.25242 0.58566 0.0
C663 C 0.82189 0.22557 0.588 0.0
C664 C 0.83963 0.21976 0.61897 0.0
C665 C 0.83891 0.24076 0.64614 0.0
C666 C 0.85798 0.17101 0.5201 0.0
C667 C 0.83057 0.16977 0.49648 0.0
C668 C 0.85504 0.18841 0.55034 0.0
C669 C 0.82446 0.20461 0.5577 0.0
C670 C 0.79662 0.20185 0.53466 0.0
C671 C 0.79975 0.18489 0.50452 0.0
H672 H 0.88114 0.69517 0.74283 0.0
H673 H 0.89321 0.59811 0.75476 0.0
H674 H 0.92711 0.69584 0.69965 0.0
H675 H 0.93945 0.59892 0.71176 0.0
H676 H 0.98467 0.60942 0.60162 0.0
H677 H 0.94256 0.60808 0.6485 0.0
H678 H 0.9905 0.68748 0.69357 0.0
H679 H 0.03256 0.68906 0.64644 0.0
C680 C 0.89378 0.67402 0.73644 0.0
C681 C 0.88344 0.64655 0.75207 0.0
C682 C 0.92025 0.67446 0.71187 0.0
C683 C 0.93677 0.64743 0.70231 0.0
C684 C 0.92688 0.62005 0.71839 0.0
C685 C 0.90054 0.61963 0.74312 0.0
C686 C 0.98632 0.62656 0.62156 0.0
C687 C 0.01185 0.64943 0.62027 0.0
C688 C 0.96235 0.62564 0.64854 0.0
C689 C 0.96329 0.64767 0.67467 0.0
C690 C 0.98901 0.67037 0.67358 0.0
C691 C 0.01315 0.67118 0.6467 0.0
H692 H 0.77417 0.26455 0.42081 0.0
H693 H 0.67702 0.27352 0.36719 0.0
H694 H 0.75216 0.21956 0.45025 0.0
H695 H 0.65504 0.22807 0.39663 0.0
H696 H 0.61752 0.18542 0.50259 0.0
H697 H 0.63806 0.21944 0.45719 0.0
H698 H 0.73115 0.16652 0.44714 0.0
H699 H 0.71103 0.13291 0.49333 0.0
C700 C 0.74839 0.25649 0.41463 0.0
C701 C 0.7273 0.2729 0.39186 0.0
C702 C 0.73579 0.23047 0.43144 0.0
C703 C 0.70168 0.22022 0.4261 0.0
C704 C 0.68129 0.23553 0.40167 0.0
C705 C 0.69401 0.26148 0.3846 0.0
C706 C 0.64202 0.18057 0.4902 0.0
C707 C 0.66271 0.15652 0.50195 0.0
C708 C 0.65377 0.20006 0.46398 0.0
C709 C 0.68655 0.19605 0.44883 0.0
C710 C 0.70609 0.17063 0.45874 0.0
C711 C 0.69432 0.15111 0.48497 0.0
H712 H 0.98712 0.40378 0.92122 0.0
H713 H 0.06362 0.41765 0.84127 0.0
H714 H 0.94846 0.38008 0.8798 0.0
H715 H 0.02413 0.39559 0.79899 0.0
H716 H 0.95454 0.33799 0.73267 0.0
H717 H 0.99561 0.35227 0.7776 0.0
H718 H 0.91276 0.39454 0.83495 0.0
H719 H 0.87188 0.37889 0.79124 0.0
C720 C 0.99544 0.40206 0.89457 0.0
C721 C 0.02805 0.41293 0.88421 0.0
C722 C 0.97325 0.38855 0.87077 0.0
C723 C 0.98284 0.38625 0.83583 0.0
C724 C 0.01594 0.39658 0.8257 0.0
C725 C 0.03849 0.4095 0.84978 0.0
C726 C 0.94515 0.34991 0.75521 0.0
C727 C 0.91003 0.35733 0.75843 0.0
C728 C 0.96871 0.35834 0.78082 0.0
C729 C 0.95766 0.37477 0.80991 0.0
C730 C 0.92228 0.38143 0.81336 0.0
C731 C 0.89874 0.37258 0.78812 0.0
H732 H 0.85469 0.7689 0.85668 0.0
H733 H 0.74895 0.74493 0.88157 0.0
H734 H 0.85768 0.80078 0.90763 0.0
H735 H 0.75158 0.77778 0.93218 0.0
H736 H 0.79275 0.78809 0.0432 0.0
H737 H 0.78053 0.76996 0.98581 0.0
H738 H 0.84084 0.84389 0.94251 0.0
H739 H 0.85365 0.8621 0.00097 0.0
C740 C 0.8317 0.77107 0.8725 0.0
C741 C 0.80179 0.75378 0.86537 0.0
C742 C 0.83337 0.78961 0.90171 0.0
C743 C 0.80513 0.79145 0.92451 0.0
C744 C 0.77414 0.77632 0.91564 0.0
C745 C 0.77251 0.75765 0.88644 0.0
C746 C 0.8033 0.80079 0.02158 0.0
C747 C 0.82456 0.82643 0.02683 0.0
C748 C 0.79586 0.79052 0.98844 0.0
C749 C 0.80956 0.80543 0.95932 0.0
C750 C 0.83005 0.8317 0.96438 0.0
C751 C 0.83738 0.84217 0.99783 0.0
H752 H 0.44014 0.6887 0.3167 0.0
H753 H 0.42625 0.59619 0.28188 0.0
H754 H 0.48422 0.69676 0.27243 0.0
H755 H 0.4709 0.60402 0.23838 0.0
H756 H 0.54678 0.62976 0.1539 0.0
H757 H 0.49242 0.62935 0.18651 0.0
H758 H 0.54259 0.67785 0.26943 0.0
H759 H 0.59617 0.67879 0.23694 0.0
C760 C 0.44604 0.67024 0.29926 0.0
C761 C 0.43012 0.64165 0.30323 0.0
C762 C 0.47145 0.67481 0.27402 0.0
C763 C 0.48156 0.65085 0.25232 0.0
C764 C 0.46369 0.62299 0.25456 0.0
C765 C 0.43819 0.61846 0.27969 0.0
C766 C 0.54602 0.64057 0.17895 0.0
C767 C 0.57587 0.6541 0.19291 0.0
C768 C 0.51493 0.64029 0.19764 0.0
C769 C 0.51311 0.65367 0.23052 0.0
C770 C 0.54281 0.66784 0.24394 0.0
C771 C 0.57373 0.66806 0.2254 0.0
H772 H 0.89676 0.04671 0.64223 0.0
H773 H 0.86407 0.02504 0.53885 0.0
H774 H 0.85663 0.08904 0.64375 0.0
H775 H 0.82243 0.06634 0.5408 0.0
H776 H 0.75577 0.14853 0.54612 0.0
H777 H 0.80732 0.11728 0.54208 0.0
H778 H 0.79752 0.09542 0.65053 0.0
H779 H 0.74745 0.12839 0.6547 0.0
C780 C 0.88115 0.05122 0.61966 0.0
C781 C 0.88344 0.03245 0.5905 0.0
C782 C 0.85781 0.07533 0.62063 0.0
C783 C 0.83552 0.08096 0.59273 0.0
C784 C 0.83921 0.06309 0.56277 0.0
C785 C 0.8631 0.03926 0.56159 0.0
C786 C 0.76564 0.13815 0.56938 0.0
C787 C 0.74809 0.14166 0.60091 0.0
C788 C 0.79482 0.11961 0.56695 0.0
C789 C 0.8069 0.10359 0.59592 0.0
C790 C 0.78969 0.10775 0.6277 0.0
C791 C 0.76071 0.12655 0.63014 0.0
H792 H 0.12913 0.58404 0.22291 0.0
H793 H 0.0859 0.53247 0.13859 0.0
H794 H 0.12069 0.54129 0.26129 0.0
H795 H 0.07574 0.48962 0.17778 0.0
H796 H 0.09156 0.46441 0.33116 0.0
H797 H 0.08521 0.50854 0.29324 0.0
H798 H 0.10865 0.45233 0.20501 0.0
H799 H 0.11329 0.40853 0.24239 0.0
C800 C 0.11712 0.5637 0.21262 0.0
C801 C 0.10862 0.56162 0.17742 0.0
C802 C 0.11193 0.53911 0.23492 0.0
C803 C 0.09772 0.51167 0.22285 0.0
C804 C 0.08744 0.51012 0.18796 0.0
C805 C 0.09297 0.53477 0.16546 0.0
C806 C 0.09482 0.4615 0.30361 0.0
C807 C 0.10318 0.43294 0.28994 0.0
C808 C 0.09141 0.48683 0.28179 0.0
C809 C 0.09666 0.48425 0.24584 0.0
C810 C 0.10383 0.45538 0.2323 0.0
C811 C 0.10685 0.43014 0.25396 0.0
H812 H 0.84966 0.86626 0.55214 0.0
H813 H 0.83645 0.93309 0.47155 0.0
H814 H 0.79963 0.83809 0.53074 0.0
H815 H 0.78558 0.90608 0.45125 0.0
H816 H 0.70023 0.85175 0.41075 0.0
H817 H 0.76029 0.86377 0.42443 0.0
H818 H 0.73981 0.84387 0.53195 0.0
H819 H 0.68084 0.83038 0.51799 0.0
C820 C 0.83597 0.87494 0.52991 0.0
C821 C 0.84665 0.90202 0.51374 0.0
C822 C 0.80729 0.85884 0.51763 0.0
C823 C 0.78832 0.86981 0.48933 0.0
C824 C 0.7998 0.8965 0.47265 0.0
C825 C 0.82878 0.91226 0.48455 0.0
C826 C 0.70892 0.8491 0.43711 0.0
C827 C 0.68561 0.84074 0.46339 0.0
C828 C 0.74325 0.85628 0.44505 0.0
C829 C 0.75476 0.85562 0.47946 0.0
C830 C 0.73213 0.8446 0.50514 0.0
C831 C 0.69804 0.83701 0.49713 0.0
H832 H 0.40363 0.56521 0.8347 0.0
H833 H 0.35563 0.614 0.75102 0.0
H834 H 0.41066 0.5211 0.79708 0.0
H835 H 0.36104 0.57 0.7142 0.0
H836 H 0.37741 0.43752 0.73417 0.0
H837 H 0.38001 0.48173 0.77101 0.0
H838 H 0.39682 0.53892 0.68156 0.0
H839 H 0.39235 0.49436 0.64429 0.0
C840 C 0.39444 0.56647 0.80838 0.0
C841 C 0.37912 0.59318 0.79596 0.0
C842 C 0.39831 0.54113 0.78674 0.0
C843 C 0.38653 0.54175 0.75227 0.0
C844 C 0.37126 0.56861 0.74011 0.0
C845 C 0.36782 0.59392 0.7615 0.0
C846 C 0.38199 0.45946 0.72222 0.0
C847 C 0.38433 0.46231 0.68608 0.0
C848 C 0.38375 0.48497 0.74356 0.0
C849 C 0.38832 0.51423 0.72954 0.0
C850 C 0.39244 0.51693 0.69343 0.0
C851 C 0.39026 0.49132 0.67196 0.0
H852 H 0.79384 0.20291 0.95227 0.0
H853 H 0.85352 0.20038 0.04634 0.0
H854 H 0.74066 0.1977 0.98598 0.0
H855 H 0.80037 0.19521 0.07984 0.0
H856 H 0.70661 0.12965 0.10725 0.0
H857 H 0.75993 0.15027 0.08269 0.0
H858 H 0.70196 0.22082 0.03179 0.0
H859 H 0.64845 0.20025 0.05645 0.0
C860 C 0.79558 0.2019 0.98013 0.0
C861 C 0.8279 0.20159 0.99657 0.0
C862 C 0.76513 0.19909 -0.00054 0.0
C863 C 0.76648 0.19578 0.03551 0.0
C864 C 0.79865 0.19738 0.05207 0.0
C865 C 0.82905 0.20039 0.03281 0.0
C866 C 0.70533 0.15 0.09155 0.0
C867 C 0.67335 0.16314 0.08354 0.0
C868 C 0.73587 0.16191 0.07758 0.0
C869 C 0.73499 0.187 0.05509 0.0
C870 C 0.70328 0.2013 0.0488 0.0
C871 C 0.67273 0.18961 0.06314 0.0
H872 H 0.17836 0.1646 0.42027 0.0
H873 H 0.25103 0.0922 0.40198 0.0
H874 H 0.16233 0.14189 0.47476 0.0
H875 H 0.23377 0.06836 0.4564 0.0
H876 H 0.24619 0.08381 0.57547 0.0
H877 H 0.24705 0.0818 0.51329 0.0
H878 H 0.13838 0.10446 0.51094 0.0
H879 H 0.13814 0.10823 0.57365 0.0
C880 C 0.19031 0.14334 0.42754 0.0
C881 C 0.2166 0.13059 0.40732 0.0
C882 C 0.18072 0.12996 0.45871 0.0
C883 C 0.19694 0.10331 0.47028 0.0
C884 C 0.22123 0.08919 0.44859 0.0
C885 C 0.23116 0.10284 0.41746 0.0
C886 C 0.22219 0.08756 0.56182 0.0
C887 C 0.19247 0.09749 0.57928 0.0
C888 C 0.22258 0.08611 0.52595 0.0
C889 C 0.19306 0.09409 0.50696 0.0
C890 C 0.16191 0.09934 0.5248 0.0
C891 C 0.1617 0.10135 0.56073 0.0
H892 H 0.25396 0.07475 0.68029 0.0
H893 H 0.20273 0.07227 0.77946 0.0
H894 H 0.26583 0.02038 0.68505 0.0
H895 H 0.21605 0.01821 0.78473 0.0
H896 H 0.20404 0.92151 0.69594 0.0
H897 H 0.21317 0.97631 0.68884 0.0
H898 H 0.2719 0.97855 0.78316 0.0
H899 H 0.26391 0.92369 0.78979 0.0
C900 C 0.24617 0.0629 0.70357 0.0
C901 C 0.22694 0.07778 0.72932 0.0
C902 C 0.25295 0.03176 0.70619 0.0
C903 C 0.24169 0.01519 0.73514 0.0
C904 C 0.22514 0.03056 0.7622 0.0
C905 C 0.21751 0.06148 0.75918 0.0
C906 C 0.22 0.93349 0.71444 0.0
C907 C 0.23323 0.91824 0.74336 0.0
C908 C 0.22521 0.96482 0.7104 0.0
C909 C 0.24307 0.98155 0.73559 0.0
C910 C 0.25808 0.96609 0.76341 0.0
C911 C 0.25363 0.93465 0.76701 0.0
H912 H 0.31523 0.9425 0.06276 0.0
H913 H 0.36541 0.8569 0.04222 0.0
H914 H 0.30736 0.95031 0.00106 0.0
H915 H 0.35719 0.86462 0.98081 0.0
H916 H 0.33205 0.87904 0.87154 0.0
H917 H 0.36167 0.89267 0.92495 0.0
H918 H 0.26387 0.91852 0.97005 0.0
H919 H 0.23443 0.90509 0.91696 0.0
C920 C 0.3257 0.92587 0.0451 0.0
C921 C 0.33978 0.89853 0.05732 0.0
C922 C 0.32113 0.93037 0.00978 0.0
C923 C 0.33078 0.90769 0.9863 0.0
C924 C 0.34935 0.88247 -0.00171 0.0
C925 C 0.35384 0.87794 0.03358 0.0
C926 C 0.31703 0.88826 0.89264 0.0
C927 C 0.28084 0.89044 0.89042 0.0
C928 C 0.33402 0.89612 0.92311 0.0
C929 C 0.31511 0.90659 0.95162 0.0
C930 C 0.27927 0.91091 0.94836 0.0
C931 C 0.26228 0.90282 0.9181 0.0
H932 H 0.25078 0.12594 0.21776 0.0
H933 H 0.16646 0.09056 0.27974 0.0
H934 H 0.25023 0.07958 0.18357 0.0
H935 H 0.16577 0.04433 0.2453 0.0
H936 H 0.22142 0.95312 0.2181 0.0
H937 H 0.20667 1.00207 0.24322 0.0
H938 H 0.22018 0.04513 0.1438 0.0
H939 H 0.23525 0.99622 0.11867 0.0
C940 C 0.23138 0.10874 0.22344 0.0
C941 C 0.20899 0.11187 0.25186 0.0
C942 C 0.23108 0.08207 0.20379 0.0
C943 C 0.20836 0.05796 0.2121 0.0
C944 C 0.18408 0.06218 0.23868 0.0
C945 C 0.18432 0.08883 0.25826 0.0
C946 C 0.22061 0.97289 0.20142 0.0
C947 C 0.22988 0.9707 0.16643 0.0
C948 C 0.21198 1.001 0.2158 0.0
C949 C 0.2125 0.02763 0.19557 0.0
C950 C 0.21999 0.02516 0.16019 0.0
C951 C 0.22845 0.99703 0.14578 0.0
H952 H 0.5869 0.16948 0.01729 0.0
H953 H 0.47894 0.15343 0.04071 0.0
H954 H 0.57535 0.22359 0.0103 0.0
H955 H 0.46752 0.20736 0.03387 0.0
H956 H 0.54741 0.3122 0.07308 0.0
H957 H 0.56199 0.26087 0.05543 0.0
H958 H 0.46596 0.25419 -0.00071 0.0
H959 H 0.45118 0.30567 0.01717 0.0
C960 C 0.56052 0.17727 0.01995 0.0
C961 C 0.53395 0.15713 0.03026 0.0
C962 C 0.55397 0.20838 0.01616 0.0
C963 C 0.52065 0.21993 0.02213 0.0
C964 C 0.49349 0.19931 0.02897 0.0
C965 C 0.50007 0.1683 0.03304 0.0
C966 C 0.52976 0.30013 0.05625 0.0
C967 C 0.49786 0.31292 0.04707 0.0
C968 C 0.53823 0.27068 0.04592 0.0
C969 C 0.51494 0.25321 0.02627 0.0
C970 C 0.48424 0.26687 0.01483 0.0
C971 C 0.47587 0.29647 0.02496 0.0
H972 H 0.94597 0.25768 0.98409 0.0
H973 H 0.03973 0.2421 0.92644 0.0
H974 H 0.96831 0.30625 0.00309 0.0
H975 H 0.06379 0.28983 0.94769 0.0
H976 H 0.0833 0.39169 0.9596 0.0
H977 H 0.06485 0.34102 0.94319 0.0
H978 H 0.00219 0.33556 0.03573 0.0
H979 H 0.01742 0.38738 0.04927 0.0
C980 C 0.97197 0.26422 0.9764 0.0
C981 C 0.99107 0.24591 0.9538 0.0
C982 C 0.98505 0.29229 0.98748 0.0
C983 C 0.01818 0.30266 0.97713 0.0
C984 C 0.0379 0.28345 0.95574 0.0
C985 C 0.02434 0.2557 0.94386 0.0
C986 C 0.06479 0.3801 0.97576 0.0
C987 C 0.05066 0.3946 0.0047 0.0
C988 C 0.05469 0.3504 0.96685 0.0
C989 C 0.03113 0.33372 0.98758 0.0
C990 C 0.01907 0.34761 0.01798 0.0
C991 C 0.02825 0.37755 0.0261 0.0
H992 H 0.06953 0.68232 0.15769 0.0
H993 H 0.10867 0.74436 0.08013 0.0
H994 H 0.02294 0.718 0.17114 0.0
H995 H 0.0624 0.77959 0.09325 0.0
H996 H 0.99169 0.84824 0.13804 0.0
H997 H 0.0403 0.81359 0.13712 0.0
H998 H 0.96979 0.73713 0.14169 0.0
H999 H 0.92069 0.77212 0.14315 0.0
C1000 C 0.06863 0.70379 0.14401 0.0
C1001 C 0.09287 0.7105 0.11784 0.0
C1002 C 0.04171 0.72407 0.15145 0.0
C1003 C 0.03879 0.75164 0.13321 0.0
C1004 C 0.06397 0.75877 0.10812 0.0
C1005 C 0.09053 0.73848 0.10049 0.0
C1006 C 0.98641 0.82405 0.13922 0.0
C1007 C 0.95219 0.81298 0.14022 0.0
C1008 C 0.01438 0.80415 0.13858 0.0
C1009 C 0.00902 0.77254 0.13881 0.0
C1010 C 0.97487 0.76136 0.14163 0.0
C1011 C 0.94671 0.78139 0.14234 0.0
H1012 H 0.38302 0.67849 0.49345 0.0
H1013 H 0.46982 0.6494 0.43167 0.0
H1014 H 0.41419 0.72492 0.50832 0.0
H1015 H 0.50072 0.69613 0.44596 0.0
H1016 H 0.55538 0.7794 0.48431 0.0
H1017 H 0.5284 0.72913 0.48801 0.0
H1018 H 0.42788 0.7698 0.47513 0.0
H1019 H 0.45465 0.81984 0.47205 0.0
C1020 C 0.40901 0.68173 0.4835 0.0
C1021 C 0.42374 0.66034 0.46102 0.0
C1022 C 0.42681 0.70848 0.49187 0.0
C1023 C 0.45976 0.71458 0.47791 0.0
C1024 C 0.47549 0.69217 0.4574 0.0
C1025 C 0.4577 0.66533 0.4491 0.0
C1026 C 0.52745 0.77768 0.4831 0.0
C1027 C 0.50721 0.80369 0.47754 0.0
C1028 C 0.51201 0.7488 0.48494 0.0
C1029 C 0.47599 0.74529 0.48148 0.0
C1030 C 0.45566 0.77154 0.47821 0.0
C1031 C 0.47106 0.80034 0.47627 0.0
H1032 H 0.04294 0.74076 0.44661 0.0
H1033 H 0.08323 0.73584 0.55016 0.0
H1034 H 0.03396 0.79517 0.45331 0.0
H1035 H 0.07285 0.78985 0.55759 0.0
H1036 H 0.06238 0.88989 0.56321 0.0
H1037 H 0.08512 0.8409 0.54519 0.0
H1038 H 0.99479 0.82671 0.48162 0.0
H1039 H 0.97303 0.87612 0.49844 0.0
C1040 C 0.05018 0.75137 0.47073 0.0
C1041 C 0.06361 0.7339 0.49792 0.0
C1042 C 0.04476 0.78259 0.47471 0.0
C1043 C 0.05216 0.79712 0.50618 0.0
C1044 C 0.06718 0.77979 0.53278 0.0
C1045 C 0.07303 0.74864 0.52862 0.0
C1046 C 0.04783 0.87661 0.54469 0.0
C1047 C 0.01575 0.88688 0.53249 0.0
C1048 C 0.06069 0.8483 0.53462 0.0
C1049 C 0.04159 0.82933 0.5124 0.0
C1050 C 0.01055 0.84058 0.4985 0.0
C1051 C 0.99792 0.86904 0.50824 0.0
H1052 H 0.03076 0.31542 0.35969 0.0
H1053 H 0.09227 0.24928 0.30535 0.0
H1054 H 0.98333 0.27899 0.36392 0.0
H1055 H 0.04431 0.21301 0.30874 0.0
H1056 H 0.97601 0.14576 0.37006 0.0
H1057 H 0.01918 0.18331 0.35398 0.0
H1058 H 0.93872 0.24908 0.33606 0.0
H1059 H 0.895 0.21116 0.35316 0.0
C1060 C 0.03401 0.29326 0.34809 0.0
C1061 C 0.06562 0.2852 0.33255 0.0
C1062 C 0.00658 0.27239 0.3503 0.0
C1063 C 0.00995 0.24288 0.33697 0.0
C1064 C 0.04097 0.23534 0.31988 0.0
C1065 C 0.06847 0.25621 0.31776 0.0
C1066 C 0.9673 0.16813 0.36242 0.0
C1067 C 0.93195 0.17548 0.3632 0.0
C1068 C 0.99221 0.18968 0.35283 0.0
C1069 C 0.98262 0.21935 0.34365 0.0
C1070 C 0.9471 0.22653 0.34331 0.0
C1071 C 0.922 0.20478 0.35288 0.0
H1072 H 0.47246 0.72844 0.79946 0.0
H1073 H 0.45596 0.72482 0.90961 0.0
H1074 H 0.52361 0.76042 0.80809 0.0
H1075 H 0.50653 0.75718 0.9182 0.0
H1076 H 0.61621 0.79088 0.92757 0.0
H1077 H 0.56816 0.75677 0.91506 0.0
H1078 H 0.54287 0.81055 0.82539 0.0
H1079 H 0.5917 0.84453 0.83764 0.0
C1080 C 0.47962 0.73452 0.82554 0.0
C1081 C 0.45998 0.72385 0.85383 0.0
C1082 C 0.50895 0.75304 0.83048 0.0
C1083 C 0.51957 0.7614 0.86388 0.0
C1084 C 0.49973 0.75085 0.89211 0.0
C1085 C 0.47044 0.73238 0.88717 0.0
C1086 C 0.60072 0.79531 0.9049 0.0
C1087 C 0.6079 0.82063 0.88372 0.0
C1088 C 0.57283 0.77583 0.89789 0.0
C1089 C 0.55102 0.78103 0.86951 0.0
C1090 C 0.55906 0.80564 0.84742 0.0
C1091 C 0.58714 0.82518 0.85442 0.0
H1092 H 0.64196 1.00266 0.85363 0.0
H1093 H 0.59371 0.94001 0.78273 0.0
H1094 H 0.6346 0.04373 0.812 0.0
H1095 H 0.58537 0.98114 0.74151 0.0
H1096 H 0.59833 0.11723 0.74051 0.0
H1097 H 0.59597 0.07637 0.78283 0.0
H1098 H 0.61872 1.01138 0.70267 0.0
H1099 H 0.61996 0.05238 0.66007 0.0
C1100 C 0.62904 0.99779 0.8295 0.0
C1101 C 0.61856 0.968 0.82152 0.0
C1102 C 0.62475 0.02138 0.80553 0.0
C1103 C 0.60961 0.01583 0.77307 0.0
C1104 C 0.59778 0.98624 0.76583 0.0
C1105 C 0.60229 0.96266 0.78966 0.0
C1106 C 0.60241 0.09416 0.73179 0.0
C1107 C 0.6095 0.08811 0.69687 0.0
C1108 C 0.60133 0.0707 0.7562 0.0
C1109 C 0.60759 0.04048 0.74645 0.0
C1110 C 0.61342 0.03428 0.71122 0.0
C1111 C 0.61422 0.05781 0.6867 0.0
H1112 H 0.21046 0.3776 0.96215 0.0
H1113 H 0.15364 0.36473 0.05733 0.0
H1114 H 0.25871 0.34932 0.98604 0.0
H1115 H 0.20161 0.33585 0.08096 0.0
H1116 H 0.31562 0.35187 0.12084 0.0
H1117 H 0.25701 0.35613 0.09948 0.0
H1118 H 0.28432 0.30296 0.01001 0.0
H1119 H 0.34345 0.29905 0.03124 0.0
C1120 C 0.20792 0.36803 0.98781 0.0
C1121 C 0.17871 0.37403 0.00819 0.0
C1122 C 0.23544 0.35155 0.00143 0.0
C1123 C 0.2341 0.34064 0.03559 0.0
C1124 C 0.20359 0.3444 0.0548 0.0
C1125 C 0.17619 0.36101 0.04126 0.0
C1126 C 0.30889 0.34023 0.09718 0.0
C1127 C 0.33434 0.32585 0.07727 0.0
C1128 C 0.27515 0.3425 0.08498 0.0
C1129 C 0.26624 0.33042 0.05264 0.0
C1130 C 0.29068 0.313 0.03468 0.0
C1131 C 0.32448 0.31061 0.04699 0.0
H1132 H 0.87129 0.01832 0.36246 0.0
H1133 H 0.88835 0.08202 0.27916 0.0
H1134 H 0.87774 0.97615 0.32194 0.0
H1135 H 0.89586 0.04027 0.23906 0.0
H1136 H 0.86101 0.96123 0.17012 0.0
H1137 H 0.86143 1.00348 0.21068 0.0
H1138 H 0.91507 0.9479 0.28508 0.0
H1139 H 0.91371 0.90549 0.24488 0.0
C1140 C 0.87714 0.0233 0.33569 0.0
C1141 C 0.87903 0.05352 0.32403 0.0
C1142 C 0.88089 0.99914 0.31237 0.0
C1143 C 0.88688 1.00469 0.27694 0.0
C1144 C 0.89038 0.03498 0.26583 0.0
C1145 C 0.88635 0.059 0.28898 0.0
C1146 C 0.8733 0.95817 0.19494 0.0
C1147 C 0.88726 0.92993 0.20419 0.0
C1148 C 0.87363 0.98245 0.21829 0.0
C1149 C 0.88816 0.97921 0.25143 0.0
C1150 C 0.90308 0.95118 0.26016 0.0
C1151 C 0.90256 0.92689 0.23691 0.0
H1152 H 0.09276 0.55508 0.43686 0.0
H1153 H 0.1018 0.64961 0.46466 0.0
H1154 H 0.15585 0.55205 0.43165 0.0
H1155 H 0.16474 0.64674 0.45942 0.0
H1156 H 0.26895 0.63386 0.39876 0.0
H1157 H 0.20648 0.63759 0.40806 0.0
H1158 H 0.20876 0.55726 0.47218 0.0
H1159 H 0.27108 0.55358 0.46325 0.0
C1160 C 0.10832 0.57513 0.44203 0.0
C1161 C 0.09267 0.6025 0.45159 0.0
C1162 C 0.14429 0.57337 0.43923 0.0
C1163 C 0.16502 0.59918 0.44518 0.0
C1164 C 0.14928 0.62657 0.45461 0.0
C1165 C 0.11338 0.62816 0.45795 0.0
C1166 C 0.25613 0.61712 0.41497 0.0
C1167 C 0.27488 0.59343 0.43022 0.0
C1168 C 0.22048 0.61933 0.4204 0.0
C1169 C 0.20294 0.59765 0.44074 0.0
C1170 C 0.2217 0.57412 0.45618 0.0
C1171 C 0.25736 0.57215 0.45118 0.0
H1172 H 0.68838 0.63003 0.05465 0.0
H1173 H 0.79304 0.62845 0.09344 0.0
H1174 H 0.70934 0.61392 -0.00179 0.0
H1175 H 0.81383 0.61184 0.0373 0.0
H1176 H 0.83237 0.6422 0.92219 0.0
H1177 H 0.81837 0.64021 0.98324 0.0
H1178 H 0.73771 0.57423 0.96301 0.0
H1179 H 0.75148 0.57647 0.90155 0.0
C1180 C 0.71573 0.62572 0.05129 0.0
C1181 C 0.73913 0.63108 0.07823 0.0
C1182 C 0.72772 0.61619 0.01908 0.0
C1183 C 0.76329 0.61178 0.01332 0.0
C1184 C 0.78636 0.61544 0.04088 0.0
C1185 C 0.77441 0.62501 0.07299 0.0
C1186 C 0.81232 0.62659 0.93084 0.0
C1187 C 0.79258 0.60996 0.90702 0.0
C1188 C 0.80437 0.62534 0.9659 0.0
C1189 C 0.77651 0.60745 0.9778 0.0
C1190 C 0.75891 0.58861 0.9544 0.0
C1191 C 0.76702 0.58972 0.91927 0.0
H1192 H 0.73652 0.42722 0.25967 0.0
H1193 H 0.78712 0.47532 0.34226 0.0
H1194 H 0.73608 0.47358 0.22527 0.0
H1195 H 0.78868 0.52147 0.30736 0.0
H1196 H 0.73048 0.60402 0.26176 0.0
H1197 H 0.74844 0.55799 0.29181 0.0
H1198 H 0.76143 0.51267 0.19376 0.0
H1199 H 0.74154 0.55814 0.16425 0.0
C1200 C 0.749 0.44742 0.26978 0.0
C1201 C 0.76182 0.44776 0.30355 0.0
C1202 C 0.74874 0.47417 0.25013 0.0
C1203 C 0.76183 0.5017 0.26366 0.0
C1204 C 0.77746 0.5011 0.29638 0.0
C1205 C 0.77706 0.47453 0.31621 0.0
C1206 C 0.73789 0.58438 0.24676 0.0
C1207 C 0.73428 0.58448 0.21081 0.0
C1208 C 0.74834 0.55789 0.26389 0.0
C1209 C 0.756 0.53118 0.24532 0.0
C1210 C 0.75484 0.53232 0.20909 0.0
C1211 C 0.74373 0.55851 0.19212 0.0
H1212 H 0.88039 0.3822 0.59307 0.0
H1213 H 0.81144 0.45687 0.61375 0.0
H1214 H 0.86852 0.38674 0.53182 0.0
H1215 H 0.79979 0.46161 0.55218 0.0
H1216 H 0.73832 0.40732 0.46672 0.0
H1217 H 0.76424 0.42344 0.5208 0.0
H1218 H 0.86617 0.41394 0.47624 0.0
H1219 H 0.84025 0.39742 0.4221 0.0
C1220 C 0.86381 0.40041 0.58436 0.0
C1221 C 0.84611 0.41861 0.6082 0.0
C1222 C 0.85708 0.4031 0.5492 0.0
C1223 C 0.8325 0.42402 0.53738 0.0
C1224 C 0.81831 0.44487 0.56078 0.0
C1225 C 0.82522 0.4423 0.596 0.0
C1226 C 0.76623 0.40902 0.46829 0.0
C1227 C 0.78724 0.40057 0.44039 0.0
C1228 C 0.78111 0.41867 0.49914 0.0
C1229 C 0.81728 0.42001 0.50271 0.0
C1230 C 0.83824 0.41299 0.47423 0.0
C1231 C 0.82336 0.40343 0.44332 0.0
H1232 H 0.71992 0.58575 0.80223 0.0
H1233 H 0.77048 0.59301 0.70296 0.0
H1234 H 0.71353 0.53103 0.79415 0.0
H1235 H 0.76464 0.53847 0.69519 0.0
H1236 H 0.77141 0.43777 0.79179 0.0
H1237 H 0.75593 0.49101 0.7964 0.0
H1238 H 0.7304 0.49274 0.68801 0.0
H1239 H 0.74661 0.43936 0.68325 0.0
C1240 C 0.72899 0.57584 0.77834 0.0
C1241 C 0.74629 0.59379 0.75352 0.0
C1242 C 0.72553 0.54438 0.77382 0.0
C1243 C 0.73912 0.53016 0.7443 0.0
C1244 C 0.75369 0.54853 0.7182 0.0
C1245 C 0.7572 0.57993 0.72274 0.0
C1246 C 0.76178 0.44926 0.76906 0.0
C1247 C 0.76069 0.43433 0.73707 0.0
C1248 C 0.75265 0.47986 0.77175 0.0
C1249 C 0.74222 0.49638 0.74249 0.0
C1250 C 0.73882 0.48086 0.71096 0.0
C1251 C 0.74786 0.45016 0.70829 0.0
H1252 H 0.50709 0.18248 0.65814 0.0
H1253 H 0.58558 0.24617 0.62418 0.0
H1254 H 0.46576 0.22369 0.66349 0.0
H1255 H 0.54395 0.28733 0.62802 0.0
H1256 H 0.47071 0.36083 0.65733 0.0
H1257 H 0.51118 0.3191 0.66298 0.0
H1258 H 0.43142 0.25619 0.63031 0.0
H1259 H 0.3905 0.29811 0.62629 0.0
C1260 C 0.51557 0.20536 0.65188 0.0
C1261 C 0.54969 0.211 0.64069 0.0
C1262 C 0.49171 0.22903 0.65466 0.0
C1263 C 0.50114 0.25904 0.64597 0.0
C1264 C 0.53562 0.26472 0.63553 0.0
C1265 C 0.55962 0.24105 0.63316 0.0
C1266 C 0.46166 0.33799 0.65192 0.0
C1267 C 0.42741 0.33279 0.64128 0.0
C1268 C 0.48503 0.31401 0.65479 0.0
C1269 C 0.47503 0.28411 0.64652 0.0
C1270 C 0.44021 0.27876 0.63724 0.0
C1271 C 0.41662 0.3028 0.63489 0.0
loop_
_geom_bond_atom_site_label_1
_geom_bond_atom_site_label_2
_geom_bond_distance
_geom_bond_site_symmetry_2
_ccdc_geom_bond_type
Mg0 O7 2.141 . S
Mg0 O8 2.048 . S
Mg0 O9 2.048 . S
Mg0 O12 2.141 . S
C1 O2 1.313 . S
C1 O8 1.195 . S
O2 C1 1.313 . S
C3 O4 1.245 . S
C3 O12 1.289 . S
O4 C3 1.245 . S
C5 O6 1.245 . S
C5 O7 1.289 . S
O6 C5 1.245 . S
O7 Mg0 2.141 . S
O7 C5 1.289 . S
O8 Mg0 2.048 . S
O8 C1 1.195 . S
O9 Mg0 2.048 . S
O9 C10 1.195 . S
C10 O9 1.195 . S
C10 O11 1.313 . S
O11 C10 1.313 . S
O12 Mg0 2.141 . S
O12 C3 1.289 . S
Mg13 O20 2.141 . S
Mg13 O21 2.048 . S
Mg13 O22 2.048 . S
Mg13 O25 2.141 . S
C14 O15 1.313 . S
C14 O21 1.195 . S
O15 C14 1.313 . S
C16 O17 1.245 . S
C16 O25 1.289 . S
O17 C16 1.245 . S
C18 O19 1.245 . S
C18 O20 1.289 . S
O19 C18 1.245 . S
O20 Mg13 2.141 . S
O20 C18 1.289 . S
O21 Mg13 2.048 . S
O21 C14 1.195 . S
O22 Mg13 2.048 . S
O22 C23 1.195 . S
C23 O22 1.195 . S
C23 O24 1.313 . S
O24 C23 1.313 . S
O25 Mg13 2.141 . S
O25 C16 1.289 . S
Mg26 O33 2.141 . S
Mg26 O34 2.048 . S
Mg26 O35 2.048 . S
Mg26 O38 2.141 . S
C27 O28 1.313 . S
C27 O34 1.195 . S
O28 C27 1.313 . S
C29 O30 1.245 . S
C29 O38 1.289 . S
O30 C29 1.245 . S
C31 O32 1.245 . S
C31 O33 1.289 . S
O32 C31 1.245 . S
O33 Mg26 2.141 . S
O33 C31 1.289 . S
O34 Mg26 2.048 . S
O34 C27 1.195 . S
O35 Mg26 2.048 . S
O35 C36 1.195 . S
C36 O35 1.195 . S
C36 O37 1.313 . S
O37 C36 1.313 . S
O38 Mg26 2.141 . S
O38 C29 1.289 . S
Mg39 O46 2.141 . S
Mg39 O47 2.048 . S
Mg39 O48 2.048 . S
Mg39 O51 2.141 . S
C40 O41 1.313 1_554 S
C40 O47 1.195 . S
O41 C40 1.313 1_556 S
C42 O43 1.245 . S
C42 O51 1.289 . S
O43 C42 1.245 . S
C44 O45 1.245 . S
C44 O46 1.289 . S
O45 C44 1.245 . S
O46 Mg39 2.141 . S
O46 C44 1.289 . S
O47 Mg39 2.048 . S
O47 C40 1.195 . S
O48 Mg39 2.048 . S
O48 C49 1.195 1_554 S
C49 O48 1.195 1_556 S
C49 O50 1.313 . S
O50 C49 1.313 . S
O51 Mg39 2.141 . S
O51 C42 1.289 . S
Mg52 O59 2.141 . S
Mg52 O60 2.048 . S
Mg52 O61 2.048 . S
Mg52 O64 2.141 . S
C53 O54 1.313 . S
C53 O60 1.195 . S
O54 C53 1.313 . S
C55 O56 1.245 . S
C55 O64 1.289 . S
O56 C55 1.245 . S
C57 O58 1.245 . S
C57 O59 1.289 . S
O58 C57 1.245 . S
O59 Mg52 2.141 . S
O59 C57 1.289 . S
O60 Mg52 2.048 . S
O60 C53 1.195 . S
O61 Mg52 2.048 . S
O61 C62 1.195 . S
C62 O61 1.195 . S
C62 O63 1.313 . S
O63 C62 1.313 . S
O64 Mg52 2.141 . S
O64 C55 1.289 . S
Mg65 O72 2.141 . S
Mg65 O73 2.048 . S
Mg65 O74 2.048 . S
Mg65 O77 2.141 . S
C66 O67 1.313 . S
C66 O73 1.195 . S
O67 C66 1.313 . S
C68 O69 1.245 . S
C68 O77 1.289 . S
O69 C68 1.245 . S
C70 O71 1.245 . S
C70 O72 1.289 . S
O71 C70 1.245 . S
O72 Mg65 2.141 . S
O72 C70 1.289 . S
O73 Mg65 2.048 . S
O73 C66 1.195 . S
O74 Mg65 2.048 . S
O74 C75 1.195 . S
C75 O74 1.195 . S
C75 O76 1.313 . S
O76 C75 1.313 . S
O77 Mg65 2.141 . S
O77 C68 1.289 . S
Mg78 O85 2.141 . S
Mg78 O86 2.048 . S
Mg78 O87 2.048 . S
Mg78 O90 2.141 . S
C79 O80 1.313 . S
C79 O86 1.195 . S
O80 C79 1.313 . S
C81 O82 1.245 . S
C81 O90 1.289 . S
O82 C81 1.245 . S
C83 O84 1.245 . S
C83 O85 1.289 . S
O84 C83 1.245 . S
O85 Mg78 2.141 . S
O85 C83 1.289 . S
O86 Mg78 2.048 . S
O86 C79 1.195 . S
O87 Mg78 2.048 . S
O87 C88 1.195 . S
C88 O87 1.195 . S
C88 O89 1.313 . S
O89 C88 1.313 . S
O90 Mg78 2.141 . S
O90 C81 1.289 . S
Mg91 O98 2.141 . S
Mg91 O99 2.048 . S
Mg91 O100 2.048 . S
Mg91 O103 2.141 . S
C92 O93 1.313 1_556 S
C92 O99 1.195 . S
O93 C92 1.313 1_554 S
C94 O95 1.245 . S
C94 O103 1.289 . S
O95 C94 1.245 . S
C96 O97 1.245 1_655 S
C96 O98 1.290 . S
O97 C96 1.245 1_455 S
O98 Mg91 2.141 . S
O98 C96 1.290 . S
O99 Mg91 2.048 . S
O99 C92 1.195 . S
O100 Mg91 2.048 . S
O100 C101 1.195 1_556 S
C101 O100 1.195 1_554 S
C101 O102 1.313 . S
O102 C101 1.313 . S
O103 Mg91 2.141 . S
O103 C94 1.289 . S
Mg104 O111 2.141 . S
Mg104 O112 2.048 . S
Mg104 O113 2.048 . S
Mg104 O116 2.141 . S
C105 O106 1.313 . S
C105 O112 1.195 . S
O106 C105 1.313 . S
C107 O108 1.245 . S
C107 O116 1.289 . S
O108 C107 1.245 . S
C109 O110 1.245 . S
C109 O111 1.289 . S
O110 C109 1.245 . S
O111 Mg104 2.141 . S
O111 C109 1.289 . S
O112 Mg104 2.048 . S
O112 C105 1.195 . S
O113 Mg104 2.048 . S
O113 C114 1.195 . S
C114 O113 1.195 . S
C114 O115 1.313 . S
O115 C114 1.313 . S
O116 Mg104 2.141 . S
O116 C107 1.289 . S
Mg117 O124 2.141 . S
Mg117 O125 2.048 . S
Mg117 O126 2.048 . S
Mg117 O129 2.141 . S
C118 O119 1.313 . S
C118 O125 1.195 . S
O119 C118 1.313 . S
C120 O121 1.245 . S
C120 O129 1.289 . S
O121 C120 1.245 . S
C122 O123 1.245 . S
C122 O124 1.289 . S
O123 C122 1.245 . S
O124 Mg117 2.141 . S
O124 C122 1.289 . S
O125 Mg117 2.048 . S
O125 C118 1.195 . S
O126 Mg117 2.048 . S
O126 C127 1.195 . S
C127 O126 1.195 . S
C127 O128 1.313 . S
O128 C127 1.313 . S
O129 Mg117 2.141 . S
O129 C120 1.289 . S
Mg130 O137 2.141 . S
Mg130 O138 2.048 . S
Mg130 O139 2.048 . S
Mg130 O142 2.141 . S
C131 O132 1.313 . S
C131 O138 1.195 . S
O132 C131 1.313 . S
C133 O134 1.245 . S
C133 O142 1.289 . S
O134 C133 1.245 . S
C135 O136 1.245 . S
C135 O137 1.289 . S
O136 C135 1.245 . S
O137 Mg130 2.141 . S
O137 C135 1.289 . S
O138 Mg130 2.048 . S
O138 C131 1.195 . S
O139 Mg130 2.048 . S
O139 C140 1.195 . S
C140 O139 1.195 . S
C140 O141 1.313 . S
O141 C140 1.313 . S
O142 Mg130 2.141 . S
O142 C133 1.289 . S
Mg143 O150 2.141 . S
Mg143 O151 2.048 . S
Mg143 O152 2.048 . S
Mg143 O155 2.141 . S
C144 O145 1.313 . S
C144 O151 1.195 . S
O145 C144 1.313 . S
C146 O147 1.245 . S
C146 O155 1.289 . S
O147 C146 1.245 . S
C148 O149 1.245 . S
C148 O150 1.289 . S
O149 C148 1.245 . S
O150 Mg143 2.141 . S
O150 C148 1.289 . S
O151 Mg143 2.048 . S
O151 C144 1.195 . S
O152 Mg143 2.048 . S
O152 C153 1.195 . S
C153 O152 1.195 . S
C153 O154 1.313 . S
O154 C153 1.313 . S
O155 Mg143 2.141 . S
O155 C146 1.289 . S
Mg156 O163 2.141 . S
Mg156 O164 2.048 . S
Mg156 O165 2.048 . S
Mg156 O168 2.141 . S
C157 O158 1.313 . S
C157 O164 1.195 . S
O158 C157 1.313 . S
C159 O160 1.246 . S
C159 O168 1.288 1_556 S
O160 C159 1.246 . S
C161 O162 1.245 . S
C161 O163 1.289 1_556 S
O162 C161 1.245 . S
O163 Mg156 2.141 . S
O163 C161 1.289 1_554 S
O164 Mg156 2.048 . S
O164 C157 1.195 . S
O165 Mg156 2.048 . S
O165 C166 1.195 . S
C166 O165 1.195 . S
C166 O167 1.313 . S
O167 C166 1.313 . S
O168 Mg156 2.141 . S
O168 C159 1.288 1_554 S
Mg169 O176 2.141 . S
Mg169 O177 2.048 . S
Mg169 O178 2.048 . S
Mg169 O181 2.141 . S
C170 O171 1.313 . S
C170 O177 1.195 . S
O171 C170 1.313 . S
C172 O173 1.245 . S
C172 O181 1.289 . S
O173 C172 1.245 . S
C174 O175 1.245 . S
C174 O176 1.289 . S
O175 C174 1.245 . S
O176 Mg169 2.141 . S
O176 C174 1.289 . S
O177 Mg169 2.048 . S
O177 C170 1.195 . S
O178 Mg169 2.048 . S
O178 C179 1.195 . S
C179 O178 1.195 . S
C179 O180 1.313 . S
O180 C179 1.313 . S
O181 Mg169 2.141 . S
O181 C172 1.289 . S
Mg182 O189 2.141 . S
Mg182 O190 2.048 . S
Mg182 O191 2.048 . S
Mg182 O194 2.141 . S
C183 O184 1.313 . S
C183 O190 1.195 . S
O184 C183 1.313 . S
C185 O186 1.245 . S
C185 O194 1.289 . S
O186 C185 1.245 . S
C187 O188 1.245 . S
C187 O189 1.289 . S
O188 C187 1.245 . S
O189 Mg182 2.141 . S
O189 C187 1.289 . S
O190 Mg182 2.048 . S
O190 C183 1.195 . S
O191 Mg182 2.048 . S
O191 C192 1.195 . S
C192 O191 1.195 . S
C192 O193 1.313 . S
O193 C192 1.313 . S
O194 Mg182 2.141 . S
O194 C185 1.289 . S
Mg195 O202 2.141 . S
Mg195 O203 2.048 . S
Mg195 O204 2.048 . S
Mg195 O207 2.141 . S
C196 O197 1.313 . S
C196 O203 1.195 . S
O197 C196 1.313 . S
C198 O199 1.245 . S
C198 O207 1.289 . S
O199 C198 1.245 . S
C200 O201 1.245 . S
C200 O202 1.289 . S
O201 C200 1.245 . S
O202 Mg195 2.141 . S
O202 C200 1.289 . S
O203 Mg195 2.048 . S
O203 C196 1.195 . S
O204 Mg195 2.048 . S
O204 C205 1.195 . S
C205 O204 1.195 . S
C205 O206 1.313 . S
O206 C205 1.313 . S
O207 Mg195 2.141 . S
O207 C198 1.289 . S
Mg208 O215 2.141 . S
Mg208 O216 2.048 . S
Mg208 O217 2.048 . S
Mg208 O220 2.141 . S
C209 O210 1.313 . S
C209 O216 1.195 . S
O210 C209 1.313 . S
C211 O212 1.245 . S
C211 O220 1.289 . S
O212 C211 1.245 . S
C213 O214 1.245 . S
C213 O215 1.289 . S
O214 C213 1.245 . S
O215 Mg208 2.141 . S
O215 C213 1.289 . S
O216 Mg208 2.048 . S
O216 C209 1.195 . S
O217 Mg208 2.048 . S
O217 C218 1.195 . S
C218 O217 1.195 . S
C218 O219 1.313 . S
O219 C218 1.313 . S
O220 Mg208 2.141 . S
O220 C211 1.289 . S
Mg221 O228 2.141 . S
Mg221 O229 2.048 . S
Mg221 O230 2.048 . S
Mg221 O233 2.141 . S
C222 O223 1.313 . S
C222 O229 1.195 . S
O223 C222 1.313 . S
C224 O225 1.245 . S
C224 O233 1.289 . S
O225 C224 1.245 . S
C226 O227 1.245 . S
C226 O228 1.289 . S
O227 C226 1.245 . S
O228 Mg221 2.141 . S
O228 C226 1.289 . S
O229 Mg221 2.048 . S
O229 C222 1.195 . S
O230 Mg221 2.048 . S
O230 C231 1.195 . S
C231 O230 1.195 . S
C231 O232 1.313 . S
O232 C231 1.313 . S
O233 Mg221 2.141 . S
O233 C224 1.289 . S
Mg234 O241 2.141 . S
Mg234 O242 2.048 . S
Mg234 O243 2.048 . S
Mg234 O246 2.141 . S
C235 O236 1.313 1_556 S
C235 O242 1.195 . S
O236 C235 1.313 1_554 S
C237 O238 1.245 . S
C237 O246 1.289 . S
O238 C237 1.245 . S
C239 O240 1.245 1_455 S
C239 O241 1.289 . S
O240 C239 1.245 1_655 S
O241 Mg234 2.141 . S
O241 C239 1.289 . S
O242 Mg234 2.048 . S
O242 C235 1.195 . S
O243 Mg234 2.048 . S
O243 C244 1.195 1_556 S
C244 O243 1.195 1_554 S
C244 O245 1.313 . S
O245 C244 1.313 . S
O246 Mg234 2.141 . S
O246 C237 1.289 . S
Mg247 O254 2.141 . S
Mg247 O255 2.048 . S
Mg247 O256 2.048 . S
Mg247 O259 2.141 . S
C248 O249 1.313 . S
C248 O255 1.195 . S
O249 C248 1.313 . S
C250 O251 1.245 . S
C250 O259 1.289 . S
O251 C250 1.245 . S
C252 O253 1.245 . S
C252 O254 1.289 . S
O253 C252 1.245 . S
O254 Mg247 2.141 . S
O254 C252 1.289 . S
O255 Mg247 2.048 . S
O255 C248 1.195 . S
O256 Mg247 2.048 . S
O256 C257 1.195 . S
C257 O256 1.195 . S
C257 O258 1.313 . S
O258 C257 1.313 . S
O259 Mg247 2.141 . S
O259 C250 1.289 . S
Mg260 O267 2.141 . S
Mg260 O268 2.048 . S
Mg260 O269 2.048 . S
Mg260 O272 2.141 . S
C261 O262 1.313 . S
C261 O268 1.195 . S
O262 C261 1.313 . S
C263 O264 1.245 . S
C263 O272 1.289 . S
O264 C263 1.245 . S
C265 O266 1.245 . S
C265 O267 1.289 . S
O266 C265 1.245 . S
O267 Mg260 2.141 . S
O267 C265 1.289 . S
O268 Mg260 2.048 . S
O268 C261 1.195 . S
O269 Mg260 2.048 . S
O269 C270 1.195 . S
C270 O269 1.195 . S
C270 O271 1.313 . S
O271 C270 1.313 . S
O272 Mg260 2.141 . S
O272 C263 1.289 . S
Mg273 O280 2.141 . S
Mg273 O281 2.048 . S
Mg273 O282 2.048 . S
Mg273 O285 2.141 . S
C274 O275 1.313 . S
C274 O281 1.195 . S
O275 C274 1.313 . S
C276 O277 1.245 . S
C276 O285 1.289 . S
O277 C276 1.245 . S
C278 O279 1.245 . S
C278 O280 1.289 . S
O279 C278 1.245 . S
O280 Mg273 2.141 . S
O280 C278 1.289 . S
O281 Mg273 2.048 . S
O281 C274 1.195 . S
O282 Mg273 2.048 . S
O282 C283 1.195 . S
C283 O282 1.195 . S
C283 O284 1.313 . S
O284 C283 1.313 . S
O285 Mg273 2.141 . S
O285 C276 1.289 . S
Mg286 O293 2.141 . S
Mg286 O294 2.048 . S
Mg286 O295 2.048 . S
Mg286 O298 2.141 . S
C287 O288 1.313 . S
C287 O294 1.195 . S
O288 C287 1.313 . S
C289 O290 1.245 . S
C289 O298 1.289 . S
O290 C289 1.245 . S
C291 O292 1.245 . S
C291 O293 1.289 . S
O292 C291 1.245 . S
O293 Mg286 2.141 . S
O293 C291 1.289 . S
O294 Mg286 2.048 . S
O294 C287 1.195 . S
O295 Mg286 2.048 . S
O295 C296 1.195 . S
C296 O295 1.195 . S
C296 O297 1.313 . S
O297 C296 1.313 . S
O298 Mg286 2.141 . S
O298 C289 1.289 . S
Mg299 O306 2.141 . S
Mg299 O307 2.048 . S
Mg299 O308 2.048 . S
Mg299 O311 2.141 . S
C300 O301 1.313 . S
C300 O307 1.195 . S
O301 C300 1.313 . S
C302 O303 1.245 . S
C302 O311 1.289 . S
O303 C302 1.245 . S
C304 O305 1.245 . S
C304 O306 1.289 . S
O305 C304 1.245 . S
O306 Mg299 2.141 . S
O306 C304 1.289 . S
O307 Mg299 2.048 . S
O307 C300 1.195 . S
O308 Mg299 2.048 . S
O308 C309 1.195 . S
C309 O308 1.195 . S
C309 O310 1.313 . S
O310 C309 1.313 . S
O311 Mg299 2.141 . S
O311 C302 1.289 . S
H312 C320 0.950 . S
H313 C325 0.950 . S
H314 C322 0.950 . S
H315 C324 0.950 . S
H316 C326 0.950 . S
H317 C328 0.950 . S
H318 C330 0.950 . S
H319 C331 0.950 . S
C320 H312 0.950 . S
C320 C321 1.386 . S
C320 C322 1.391 . S
C321 C320 1.386 . S
C321 C325 1.393 . S
C322 H314 0.950 . S
C322 C320 1.391 . S
C322 C323 1.400 . S
C323 C322 1.400 . S
C323 C324 1.398 . S
C323 C329 1.491 . S
C324 H315 0.950 . S
C324 C323 1.398 . S
C324 C325 1.391 . S
C325 H313 0.950 . S
C325 C321 1.393 . S
C325 C324 1.391 . S
C326 H316 0.950 . S
C326 C327 1.386 . S
C326 C328 1.391 . S
C327 C326 1.386 . S
C327 C331 1.393 . S
C328 H317 0.950 . S
C328 C326 1.391 . S
C328 C329 1.400 . S
C329 C323 1.491 . S
C329 C328 1.400 . S
C329 C330 1.398 . S
C330 H318 0.950 . S
C330 C329 1.398 . S
C330 C331 1.391 . S
C331 H319 0.950 . S
C331 C327 1.393 . S
C331 C330 1.391 . S
H332 C340 0.950 1_655 S
H333 C345 0.950 . S
H334 C342 0.950 . S
H335 C344 0.950 . S
H336 C346 0.950 . S
H337 C348 0.950 . S
H338 C350 0.950 . S
H339 C351 0.950 . S
C340 H332 0.950 1_455 S
C340 C341 1.386 . S
C340 C342 1.391 . S
C341 C340 1.386 . S
C341 C345 1.393 . S
C342 H334 0.950 . S
C342 C340 1.391 . S
C342 C343 1.400 . S
C343 C342 1.400 . S
C343 C344 1.398 . S
C343 C349 1.491 . S
C344 H335 0.950 . S
C344 C343 1.398 . S
C344 C345 1.391 . S
C345 H333 0.950 . S
C345 C341 1.393 . S
C345 C344 1.391 . S
C346 H336 0.950 . S
C346 C347 1.386 . S
C346 C348 1.391 . S
C347 C346 1.386 . S
C347 C351 1.393 . S
C348 H337 0.950 . S
C348 C346 1.391 . S
C348 C349 1.400 . S
C349 C343 1.491 . S
C349 C348 1.400 . S
C349 C350 1.398 . S
C350 H338 0.950 . S
C350 C349 1.398 . S
C350 C351 1.391 . S
C351 H339 0.950 . S
C351 C347 1.393 . S
C351 C350 1.391 . S
H352 C360 0.950 . S
H353 C365 0.950 . S
H354 C362 0.950 . S
H355 C364 0.950 . S
H356 C366 0.950 1_556 S
H357 C368 0.950 . S
H358 C370 0.950 . S
H359 C371 0.950 . S
C360 H352 0.950 . S
C360 C361 1.386 . S
C360 C362 1.391 . S
C361 C360 1.386 . S
C361 C365 1.393 . S
C362 H354 0.950 . S
C362 C360 1.391 . S
C362 C363 1.400 . S
C363 C362 1.400 . S
C363 C364 1.398 . S
C363 C369 1.491 . S
C364 H355 0.950 . S
C364 C363 1.398 . S
C364 C365 1.391 . S
C365 H353 0.950 . S
C365 C361 1.393 . S
C365 C364 1.391 . S
C366 H356 0.950 1_554 S
C366 C367 1.386 1_554 S
C366 C368 1.391 . S
C367 C366 1.386 1_556 S
C367 C371 1.393 . S
C368 H357 0.950 . S
C368 C366 1.391 . S
C368 C369 1.400 . S
C369 C363 1.491 . S
C369 C368 1.400 . S
C369 C370 1.398 . S
C370 H358 0.950 . S
C370 C369 1.398 . S
C370 C371 1.391 1_554 S
C371 H359 0.950 . S
C371 C367 1.393 . S
C371 C370 1.391 1_556 S
H372 C380 0.950 . S
H373 C385 0.950 . S
H374 C382 0.950 . S
H375 C384 0.950 . S
H376 C386 0.950 . S
H377 C388 0.950 . S
H378 C390 0.950 . S
H379 C391 0.950 . S
C380 H372 0.950 . S
C380 C381 1.386 . S
C380 C382 1.391 . S
C381 C380 1.386 . S
C381 C385 1.393 . S
C382 H374 0.950 . S
C382 C380 1.391 . S
C382 C383 1.400 . S
C383 C382 1.400 . S
C383 C384 1.398 . S
C383 C389 1.491 . S
C384 H375 0.950 . S
C384 C383 1.398 . S
C384 C385 1.391 . S
C385 H373 0.950 . S
C385 C381 1.393 . S
C385 C384 1.391 . S
C386 H376 0.950 . S
C386 C387 1.386 . S
C386 C388 1.391 . S
C387 C386 1.386 . S
C387 C391 1.393 . S
C388 H377 0.950 . S
C388 C386 1.391 . S
C388 C389 1.400 . S
C389 C383 1.491 . S
C389 C388 1.400 . S
C389 C390 1.398 . S
C390 H378 0.950 . S
C390 C389 1.398 . S
C390 C391 1.391 . S
C391 H379 0.950 . S
C391 C387 1.393 . S
C391 C390 1.391 . S
H392 C400 0.950 . S
H393 C405 0.950 . S
H394 C402 0.950 . S
H395 C404 0.950 . S
H396 C406 0.950 . S
H397 C408 0.950 . S
H398 C410 0.950 . S
H399 C411 0.954 . S
C400 H392 0.950 . S
C400 C401 1.386 . S
C400 C402 1.391 . S
C401 C400 1.386 . S
C401 C405 1.393 . S
C402 H394 0.950 . S
C402 C400 1.391 . S
C402 C403 1.400 . S
C403 C402 1.400 . S
C403 C404 1.398 . S
C403 C409 1.491 . S
C404 H395 0.950 . S
C404 C403 1.398 . S
C404 C405 1.391 . S
C405 H393 0.950 . S
C405 C401 1.393 . S
C405 C404 1.391 . S
C406 H396 0.950 . S
C406 C407 1.386 . S
C406 C408 1.391 1_554 S
C407 C406 1.386 . S
C407 C411 1.414 . S
C408 H397 0.950 . S
C408 C406 1.391 1_556 S
C408 C409 1.400 . S
C409 C403 1.491 . S
C409 C408 1.400 . S
C409 C410 1.398 . S
C410 H398 0.950 . S
C410 C409 1.398 . S
C410 C411 1.366 1_556 S
C411 H399 0.954 . S
C411 C407 1.414 . S
C411 C410 1.366 1_554 S
H412 C420 0.950 . S
H413 C425 0.950 . S
H414 C422 0.950 . S
H415 C424 0.950 . S
H416 C426 0.950 . S
H417 C428 0.950 . S
H418 C430 0.950 . S
H419 C431 0.950 . S
C420 H412 0.950 . S
C420 C421 1.386 . S
C420 C422 1.391 . S
C421 C420 1.386 . S
C421 C425 1.393 . S
C422 H414 0.950 . S
C422 C420 1.391 . S
C422 C423 1.400 . S
C423 C422 1.400 . S
C423 C424 1.398 . S
C423 C429 1.491 . S
C424 H415 0.950 . S
C424 C423 1.398 . S
C424 C425 1.391 . S
C425 H413 0.950 . S
C425 C421 1.393 . S
C425 C424 1.391 . S
C426 H416 0.950 . S
C426 C427 1.386 . S
C426 C428 1.391 . S
C427 C426 1.386 . S
C427 C431 1.393 . S
C428 H417 0.950 . S
C428 C426 1.391 . S
C428 C429 1.400 . S
C429 C423 1.491 . S
C429 C428 1.400 . S
C429 C430 1.398 . S
C430 H418 0.950 . S
C430 C429 1.398 . S
C430 C431 1.391 . S
C431 H419 0.950 . S
C431 C427 1.393 . S
C431 C430 1.391 . S
H432 C440 0.950 . S
H433 C445 0.950 . S
H434 C442 0.950 . S
H435 C444 0.950 . S
H436 C446 0.950 . S
H437 C448 0.950 . S
H438 C450 0.950 . S
H439 C451 0.950 . S
C440 H432 0.950 . S
C440 C441 1.386 . S
C440 C442 1.391 . S
C441 C440 1.386 . S
C441 C445 1.393 . S
C442 H434 0.950 . S
C442 C440 1.391 . S
C442 C443 1.400 . S
C443 C442 1.400 . S
C443 C444 1.398 . S
C443 C449 1.491 . S
C444 H435 0.950 . S
C444 C443 1.398 . S
C444 C445 1.391 . S
C445 H433 0.950 . S
C445 C441 1.393 . S
C445 C444 1.391 . S
C446 H436 0.950 . S
C446 C447 1.386 . S
C446 C448 1.391 . S
C447 C446 1.386 . S
C447 C451 1.393 . S
C448 H437 0.950 . S
C448 C446 1.391 . S
C448 C449 1.400 . S
C449 C443 1.491 . S
C449 C448 1.400 . S
C449 C450 1.398 . S
C450 H438 0.950 . S
C450 C449 1.398 . S
C450 C451 1.391 . S
C451 H439 0.950 . S
C451 C447 1.393 . S
C451 C450 1.391 . S
H452 C460 0.950 . S
H453 C465 0.950 . S
H454 C462 0.950 . S
H455 C464 0.950 . S
H456 C466 0.950 . S
H457 C468 0.950 . S
H458 C470 0.950 . S
H459 C471 0.950 . S
C460 H452 0.950 . S
C460 C461 1.386 . S
C460 C462 1.391 . S
C461 C460 1.386 . S
C461 C465 1.393 . S
C462 H454 0.950 . S
C462 C460 1.391 . S
C462 C463 1.400 . S
C463 C462 1.400 . S
C463 C464 1.398 . S
C463 C469 1.491 . S
C464 H455 0.950 . S
C464 C463 1.398 . S
C464 C465 1.391 . S
C465 H453 0.950 . S
C465 C461 1.393 . S
C465 C464 1.391 . S
C466 H456 0.950 . S
C466 C467 1.386 . S
C466 C468 1.391 . S
C467 C466 1.386 . S
C467 C471 1.393 . S
C468 H457 0.950 . S
C468 C466 1.391 . S
C468 C469 1.400 . S
C469 C463 1.491 . S
C469 C468 1.400 . S
C469 C470 1.398 . S
C470 H458 0.950 . S
C470 C469 1.398 . S
C470 C471 1.391 . S
C471 H459 0.950 . S
C471 C467 1.393 . S
C471 C470 1.391 . S
H472 C480 0.950 . S
H473 C485 0.950 . S
H474 C482 0.950 . S
H475 C484 0.950 . S
H476 C486 0.950 . S
H477 C488 0.950 . S
H478 C490 0.950 . S
H479 C491 0.950 . S
C480 H472 0.950 . S
C480 C481 1.386 . S
C480 C482 1.391 . S
C481 C480 1.386 . S
C481 C485 1.393 . S
C482 H474 0.950 . S
C482 C480 1.391 . S
C482 C483 1.400 . S
C483 C482 1.400 . S
C483 C484 1.398 . S
C483 C489 1.491 . S
C484 H475 0.950 . S
C484 C483 1.398 . S
C484 C485 1.391 . S
C485 H473 0.950 . S
C485 C481 1.393 . S
C485 C484 1.391 . S
C486 H476 0.950 . S
C486 C487 1.386 . S
C486 C488 1.391 . S
C487 C486 1.386 . S
C487 C491 1.393 . S
C488 H477 0.950 . S
C488 C486 1.391 . S
C488 C489 1.400 . S
C489 C483 1.491 . S
C489 C488 1.400 . S
C489 C490 1.398 . S
C490 H478 0.950 . S
C490 C489 1.398 . S
C490 C491 1.391 . S
C491 H479 0.950 . S
C491 C487 1.393 . S
C491 C490 1.391 . S
H492 C500 0.950 . S
H493 C505 0.950 . S
H494 C502 0.951 . S
H495 C504 0.950 . S
H496 C506 0.950 . S
H497 C508 0.950 . S
H498 C510 0.950 . S
H499 C511 0.950 . S
C500 H492 0.950 . S
C500 C501 1.386 . S
C500 C502 1.391 . S
C501 C500 1.386 . S
C501 C505 1.393 . S
C502 H494 0.951 . S
C502 C500 1.391 . S
C502 C503 1.400 1_545 S
C503 C502 1.400 1_565 S
C503 C504 1.398 . S
C503 C509 1.491 . S
C504 H495 0.950 . S
C504 C503 1.398 . S
C504 C505 1.391 1_565 S
C505 H493 0.950 . S
C505 C501 1.393 . S
C505 C504 1.391 1_545 S
C506 H496 0.950 . S
C506 C507 1.386 . S
C506 C508 1.391 . S
C507 C506 1.386 . S
C507 C511 1.393 . S
C508 H497 0.950 . S
C508 C506 1.391 . S
C508 C509 1.400 . S
C509 C503 1.491 . S
C509 C508 1.400 . S
C509 C510 1.398 . S
C510 H498 0.950 . S
C510 C509 1.398 . S
C510 C511 1.391 . S
C511 H499 0.950 . S
C511 C507 1.393 . S
C511 C510 1.391 . S
H512 C520 0.950 . S
H513 C525 0.950 . S
H514 C522 0.950 1_565 S
H515 C524 0.950 . S
H516 C526 0.950 1_545 S
H517 C528 0.950 . S
H518 C530 0.950 . S
H519 C531 0.950 . S
C520 H512 0.950 . S
C520 C521 1.386 . S
C520 C522 1.391 . S
C521 C520 1.386 . S
C521 C525 1.393 . S
C522 H514 0.950 1_545 S
C522 C520 1.391 . S
C522 C523 1.400 . S
C523 C522 1.400 . S
C523 C524 1.398 . S
C523 C529 1.491 . S
C524 H515 0.950 . S
C524 C523 1.398 . S
C524 C525 1.391 . S
C525 H513 0.950 . S
C525 C521 1.393 . S
C525 C524 1.391 . S
C526 H516 0.950 1_565 S
C526 C527 1.386 . S
C526 C528 1.391 1_565 S
C527 C526 1.386 . S
C527 C531 1.393 . S
C528 H517 0.950 . S
C528 C526 1.391 1_545 S
C528 C529 1.400 . S
C529 C523 1.491 . S
C529 C528 1.400 . S
C529 C530 1.398 1_545 S
C530 H518 0.950 . S
C530 C529 1.398 1_565 S
C530 C531 1.391 . S
C531 H519 0.950 . S
C531 C527 1.393 . S
C531 C530 1.391 . S
H532 C540 0.950 . S
H533 C545 0.950 1_565 S
H534 C542 0.950 . S
H535 C544 0.950 . S
H536 C546 0.950 . S
H537 C548 0.950 . S
H538 C550 0.950 1_545 S
H539 C551 0.950 . S
C540 H532 0.950 . S
C540 C541 1.386 . S
C540 C542 1.391 . S
C541 C540 1.386 . S
C541 C545 1.393 . S
C542 H534 0.950 . S
C542 C540 1.391 . S
C542 C543 1.400 1_545 S
C543 C542 1.400 1_565 S
C543 C544 1.398 . S
C543 C549 1.491 . S
C544 H535 0.950 . S
C544 C543 1.398 . S
C544 C545 1.391 1_565 S
C545 H533 0.950 1_545 S
C545 C541 1.393 . S
C545 C544 1.391 1_545 S
C546 H536 0.950 . S
C546 C547 1.386 . S
C546 C548 1.391 . S
C547 C546 1.386 . S
C547 C551 1.393 . S
C548 H537 0.950 . S
C548 C546 1.391 . S
C548 C549 1.400 . S
C549 C543 1.491 . S
C549 C548 1.400 . S
C549 C550 1.398 . S
C550 H538 0.950 1_565 S
C550 C549 1.398 . S
C550 C551 1.391 . S
C551 H539 0.950 . S
C551 C547 1.393 . S
C551 C550 1.391 . S
H552 C560 0.950 . S
H553 C565 0.950 . S
H554 C562 0.950 . S
H555 C564 0.950 . S
H556 C566 0.950 . S
H557 C568 0.950 . S
H558 C570 0.950 . S
H559 C571 0.950 . S
C560 H552 0.950 . S
C560 C561 1.386 . S
C560 C562 1.391 . S
C561 C560 1.386 . S
C561 C565 1.393 . S
C562 H554 0.950 . S
C562 C560 1.391 . S
C562 C563 1.400 . S
C563 C562 1.400 . S
C563 C564 1.398 . S
C563 C569 1.491 . S
C564 H555 0.950 . S
C564 C563 1.398 . S
C564 C565 1.391 . S
C565 H553 0.950 . S
C565 C561 1.393 . S
C565 C564 1.391 . S
C566 H556 0.950 . S
C566 C567 1.386 . S
C566 C568 1.391 . S
C567 C566 1.386 . S
C567 C571 1.393 . S
C568 H557 0.950 . S
C568 C566 1.391 . S
C568 C569 1.400 . S
C569 C563 1.491 . S
C569 C568 1.400 . S
C569 C570 1.398 . S
C570 H558 0.950 . S
C570 C569 1.398 . S
C570 C571 1.391 . S
C571 H559 0.950 . S
C571 C567 1.393 . S
C571 C570 1.391 . S
H572 C580 0.950 . S
H573 C585 0.950 . S
H574 C582 0.950 . S
H575 C584 0.950 . S
H576 C586 0.950 . S
H577 C588 0.950 . S
H578 C590 0.950 . S
H579 C591 0.950 . S
C580 H572 0.950 . S
C580 C581 1.386 . S
C580 C582 1.391 . S
C581 C580 1.386 . S
C581 C585 1.393 . S
C582 H574 0.950 . S
C582 C580 1.391 . S
C582 C583 1.400 . S
C583 C582 1.400 . S
C583 C584 1.398 . S
C583 C589 1.491 . S
C584 H575 0.950 . S
C584 C583 1.398 . S
C584 C585 1.391 . S
C585 H573 0.950 . S
C585 C581 1.393 . S
C585 C584 1.391 . S
C586 H576 0.950 . S
C586 C587 1.386 . S
C586 C588 1.391 . S
C587 C586 1.386 . S
C587 C591 1.393 . S
C588 H577 0.950 . S
C588 C586 1.391 . S
C588 C589 1.400 . S
C589 C583 1.491 . S
C589 C588 1.400 . S
C589 C590 1.398 . S
C590 H578 0.950 . S
C590 C589 1.398 . S
C590 C591 1.391 . S
C591 H579 0.950 . S
C591 C587 1.393 . S
C591 C590 1.391 . S
H592 C600 0.950 . S
H593 C605 0.950 . S
H594 C602 0.950 . S
H595 C604 0.950 . S
H596 C606 0.950 . S
H597 C608 0.950 . S
H598 C610 0.950 . S
H599 C611 0.950 . S
C600 H592 0.950 . S
C600 C601 1.386 . S
C600 C602 1.391 . S
C601 C600 1.386 . S
C601 C605 1.393 . S
C602 H594 0.950 . S
C602 C600 1.391 . S
C602 C603 1.400 . S
C603 C602 1.400 . S
C603 C604 1.398 . S
C603 C609 1.491 . S
C604 H595 0.950 . S
C604 C603 1.398 . S
C604 C605 1.391 . S
C605 H593 0.950 . S
C605 C601 1.393 . S
C605 C604 1.391 . S
C606 H596 0.950 . S
C606 C607 1.386 . S
C606 C608 1.391 . S
C607 C606 1.386 . S
C607 C611 1.393 . S
C608 H597 0.950 . S
C608 C606 1.391 . S
C608 C609 1.400 . S
C609 C603 1.491 . S
C609 C608 1.400 . S
C609 C610 1.398 . S
C610 H598 0.950 . S
C610 C609 1.398 . S
C610 C611 1.391 . S
C611 H599 0.950 . S
C611 C607 1.393 . S
C611 C610 1.391 . S
H612 C620 0.950 1_556 S
H613 C625 0.950 . S
H614 C622 0.950 . S
H615 C624 0.950 . S
H616 C626 0.950 . S
H617 C628 0.950 . S
H618 C630 0.950 . S
H619 C631 0.950 . S
C620 H612 0.950 1_554 S
C620 C621 1.386 1_554 S
C620 C622 1.391 . S
C621 C620 1.386 1_556 S
C621 C625 1.393 . S
C622 H614 0.950 . S
C622 C620 1.391 . S
C622 C623 1.400 . S
C623 C622 1.400 . S
C623 C624 1.398 . S
C623 C629 1.491 . S
C624 H615 0.950 . S
C624 C623 1.398 . S
C624 C625 1.391 1_554 S
C625 H613 0.950 . S
C625 C621 1.393 . S
C625 C624 1.391 1_556 S
C626 H616 0.950 . S
C626 C627 1.386 . S
C626 C628 1.391 . S
C627 C626 1.386 . S
C627 C631 1.393 . S
C628 H617 0.950 . S
C628 C626 1.391 . S
C628 C629 1.400 . S
C629 C623 1.491 . S
C629 C628 1.400 . S
C629 C630 1.398 . S
C630 H618 0.950 . S
C630 C629 1.398 . S
C630 C631 1.391 . S
C631 H619 0.950 . S
C631 C627 1.393 . S
C631 C630 1.391 . S
H632 C640 0.950 . S
H633 C645 0.950 . S
H634 C642 0.950 . S
H635 C644 0.950 . S
H636 C646 0.950 . S
H637 C648 0.950 . S
H638 C650 0.950 . S
H639 C651 0.950 . S
C640 H632 0.950 . S
C640 C641 1.386 . S
C640 C642 1.391 . S
C641 C640 1.386 . S
C641 C645 1.393 . S
C642 H634 0.950 . S
C642 C640 1.391 . S
C642 C643 1.400 . S
C643 C642 1.400 . S
C643 C644 1.398 . S
C643 C649 1.491 . S
C644 H635 0.950 . S
C644 C643 1.398 . S
C644 C645 1.391 . S
C645 H633 0.950 . S
C645 C641 1.393 . S
C645 C644 1.391 . S
C646 H636 0.950 . S
C646 C647 1.386 . S
C646 C648 1.391 . S
C647 C646 1.386 . S
C647 C651 1.393 . S
C648 H637 0.950 . S
C648 C646 1.391 . S
C648 C649 1.400 . S
C649 C643 1.491 . S
C649 C648 1.400 . S
C649 C650 1.398 . S
C650 H638 0.950 . S
C650 C649 1.398 . S
C650 C651 1.391 . S
C651 H639 0.950 . S
C651 C647 1.393 . S
C651 C650 1.391 . S
H652 C660 0.950 . S
H653 C665 0.950 . S
H654 C662 0.950 . S
H655 C664 0.950 . S
H656 C666 0.950 . S
H657 C668 0.950 . S
H658 C670 0.950 . S
H659 C671 0.950 . S
C660 H652 0.950 . S
C660 C661 1.386 . S
C660 C662 1.391 . S
C661 C660 1.386 . S
C661 C665 1.393 . S
C662 H654 0.950 . S
C662 C660 1.391 . S
C662 C663 1.400 . S
C663 C662 1.400 . S
C663 C664 1.398 . S
C663 C669 1.491 . S
C664 H655 0.950 . S
C664 C663 1.398 . S
C664 C665 1.391 . S
C665 H653 0.950 . S
C665 C661 1.393 . S
C665 C664 1.391 . S
C666 H656 0.950 . S
C666 C667 1.386 . S
C666 C668 1.391 . S
C667 C666 1.386 . S
C667 C671 1.393 . S
C668 H657 0.950 . S
C668 C666 1.391 . S
C668 C669 1.400 . S
C669 C663 1.491 . S
C669 C668 1.400 . S
C669 C670 1.398 . S
C670 H658 0.950 . S
C670 C669 1.398 . S
C670 C671 1.391 . S
C671 H659 0.950 . S
C671 C667 1.393 . S
C671 C670 1.391 . S
H672 C680 0.950 . S
H673 C685 0.950 . S
H674 C682 0.950 . S
H675 C684 0.950 . S
H676 C686 0.950 1_455 S
H677 C688 0.950 . S
H678 C690 0.950 . S
H679 C691 0.950 . S
C680 H672 0.950 . S
C680 C681 1.386 . S
C680 C682 1.391 . S
C681 C680 1.386 . S
C681 C685 1.393 . S
C682 H674 0.950 . S
C682 C680 1.391 . S
C682 C683 1.400 . S
C683 C682 1.400 . S
C683 C684 1.398 . S
C683 C689 1.491 . S
C684 H675 0.950 . S
C684 C683 1.398 . S
C684 C685 1.391 . S
C685 H673 0.950 . S
C685 C681 1.393 . S
C685 C684 1.391 . S
C686 H676 0.950 1_655 S
C686 C687 1.386 . S
C686 C688 1.391 . S
C687 C686 1.386 . S
C687 C691 1.393 . S
C688 H677 0.950 . S
C688 C686 1.391 . S
C688 C689 1.400 . S
C689 C683 1.491 . S
C689 C688 1.400 . S
C689 C690 1.398 . S
C690 H678 0.950 . S
C690 C689 1.398 . S
C690 C691 1.391 . S
C691 H679 0.950 . S
C691 C687 1.393 . S
C691 C690 1.391 . S
H692 C700 0.950 . S
H693 C705 0.950 . S
H694 C702 0.950 . S
H695 C704 0.950 . S
H696 C706 0.950 . S
H697 C708 0.950 . S
H698 C710 0.950 . S
H699 C711 0.950 . S
C700 H692 0.950 . S
C700 C701 1.386 . S
C700 C702 1.391 . S
C701 C700 1.386 . S
C701 C705 1.393 . S
C702 H694 0.950 . S
C702 C700 1.391 . S
C702 C703 1.400 . S
C703 C702 1.400 . S
C703 C704 1.398 . S
C703 C709 1.491 . S
C704 H695 0.950 . S
C704 C703 1.398 . S
C704 C705 1.391 . S
C705 H693 0.950 . S
C705 C701 1.393 . S
C705 C704 1.391 . S
C706 H696 0.950 . S
C706 C707 1.386 . S
C706 C708 1.391 . S
C707 C706 1.386 . S
C707 C711 1.393 . S
C708 H697 0.950 . S
C708 C706 1.391 . S
C708 C709 1.400 . S
C709 C703 1.491 . S
C709 C708 1.400 . S
C709 C710 1.398 . S
C710 H698 0.950 . S
C710 C709 1.398 . S
C710 C711 1.391 . S
C711 H699 0.950 . S
C711 C707 1.393 . S
C711 C710 1.391 . S
H712 C720 0.950 . S
H713 C725 0.950 1_455 S
H714 C722 0.950 . S
H715 C724 0.950 . S
H716 C726 0.950 . S
H717 C728 0.950 . S
H718 C730 0.950 . S
H719 C731 0.950 . S
C720 H712 0.950 . S
C720 C721 1.386 . S
C720 C722 1.391 . S
C721 C720 1.386 . S
C721 C725 1.393 . S
C722 H714 0.950 . S
C722 C720 1.391 . S
C722 C723 1.400 . S
C723 C722 1.400 . S
C723 C724 1.398 . S
C723 C729 1.491 . S
C724 H715 0.950 . S
C724 C723 1.398 . S
C724 C725 1.391 . S
C725 H713 0.950 1_655 S
C725 C721 1.393 . S
C725 C724 1.391 . S
C726 H716 0.950 . S
C726 C727 1.386 . S
C726 C728 1.391 . S
C727 C726 1.386 . S
C727 C731 1.393 . S
C728 H717 0.950 . S
C728 C726 1.391 . S
C728 C729 1.400 . S
C729 C723 1.491 . S
C729 C728 1.400 . S
C729 C730 1.398 . S
C730 H718 0.950 . S
C730 C729 1.398 . S
C730 C731 1.391 . S
C731 H719 0.950 . S
C731 C727 1.393 . S
C731 C730 1.391 . S
H732 C740 0.950 . S
H733 C745 0.950 . S
H734 C742 0.950 . S
H735 C744 0.950 . S
H736 C746 0.950 . S
H737 C748 0.950 . S
H738 C750 0.950 . S
H739 C751 0.950 . S
C740 H732 0.950 . S
C740 C741 1.386 . S
C740 C742 1.391 . S
C741 C740 1.386 . S
C741 C745 1.393 . S
C742 H734 0.950 . S
C742 C740 1.391 . S
C742 C743 1.400 . S
C743 C742 1.400 . S
C743 C744 1.398 . S
C743 C749 1.491 . S
C744 H735 0.950 . S
C744 C743 1.398 . S
C744 C745 1.391 . S
C745 H733 0.950 . S
C745 C741 1.393 . S
C745 C744 1.391 . S
C746 H736 0.950 . S
C746 C747 1.386 . S
C746 C748 1.391 1_554 S
C747 C746 1.386 . S
C747 C751 1.393 1_554 S
C748 H737 0.950 . S
C748 C746 1.391 1_556 S
C748 C749 1.400 . S
C749 C743 1.491 . S
C749 C748 1.400 . S
C749 C750 1.398 . S
C750 H738 0.950 . S
C750 C749 1.398 . S
C750 C751 1.391 . S
C751 H739 0.950 . S
C751 C747 1.393 1_556 S
C751 C750 1.391 . S
H752 C760 0.950 . S
H753 C765 0.950 . S
H754 C762 0.950 . S
H755 C764 0.950 . S
H756 C766 0.950 . S
H757 C768 0.950 . S
H758 C770 0.950 . S
H759 C771 0.950 . S
C760 H752 0.950 . S
C760 C761 1.386 . S
C760 C762 1.391 . S
C761 C760 1.386 . S
C761 C765 1.393 . S
C762 H754 0.950 . S
C762 C760 1.391 . S
C762 C763 1.400 . S
C763 C762 1.400 . S
C763 C764 1.398 . S
C763 C769 1.491 . S
C764 H755 0.950 . S
C764 C763 1.398 . S
C764 C765 1.391 . S
C765 H753 0.950 . S
C765 C761 1.393 . S
C765 C764 1.391 . S
C766 H756 0.950 . S
C766 C767 1.386 . S
C766 C768 1.391 . S
C767 C766 1.386 . S
C767 C771 1.393 . S
C768 H757 0.950 . S
C768 C766 1.391 . S
C768 C769 1.400 . S
C769 C763 1.491 . S
C769 C768 1.400 . S
C769 C770 1.398 . S
C770 H758 0.950 . S
C770 C769 1.398 . S
C770 C771 1.391 . S
C771 H759 0.950 . S
C771 C767 1.393 . S
C771 C770 1.391 . S
H772 C780 0.947 1_545 S
H773 C785 0.950 . S
H774 C782 0.950 . S
H775 C784 0.950 . S
H776 C786 0.950 . S
H777 C788 0.950 . S
H778 C790 0.950 . S
H779 C791 0.950 . S
C780 H772 0.947 1_565 S
C780 C781 1.401 . S
C780 C782 1.379 1_565 S
C781 C780 1.401 . S
C781 C785 1.393 . S
C782 H774 0.950 . S
C782 C780 1.379 1_545 S
C782 C783 1.400 . S
C783 C782 1.400 . S
C783 C784 1.398 1_545 S
C783 C789 1.491 . S
C784 H775 0.950 . S
C784 C783 1.398 1_565 S
C784 C785 1.391 . S
C785 H773 0.950 . S
C785 C781 1.393 . S
C785 C784 1.391 . S
C786 H776 0.950 . S
C786 C787 1.386 . S
C786 C788 1.391 . S
C787 C786 1.386 . S
C787 C791 1.393 . S
C788 H777 0.950 . S
C788 C786 1.391 . S
C788 C789 1.400 . S
C789 C783 1.491 . S
C789 C788 1.400 . S
C789 C790 1.398 . S
C790 H778 0.950 . S
C790 C789 1.398 . S
C790 C791 1.391 . S
C791 H779 0.950 . S
C791 C787 1.393 . S
C791 C790 1.391 . S
H792 C800 0.950 . S
H793 C805 0.950 . S
H794 C802 0.950 . S
H795 C804 0.950 . S
H796 C806 0.950 . S
H797 C808 0.950 . S
H798 C810 0.950 . S
H799 C811 0.950 . S
C800 H792 0.950 . S
C800 C801 1.386 . S
C800 C802 1.391 . S
C801 C800 1.386 . S
C801 C805 1.393 . S
C802 H794 0.950 . S
C802 C800 1.391 . S
C802 C803 1.400 . S
C803 C802 1.400 . S
C803 C804 1.398 . S
C803 C809 1.491 . S
C804 H795 0.950 . S
C804 C803 1.398 . S
C804 C805 1.391 . S
C805 H793 0.950 . S
C805 C801 1.393 . S
C805 C804 1.391 . S
C806 H796 0.950 . S
C806 C807 1.386 . S
C806 C808 1.391 . S
C807 C806 1.386 . S
C807 C811 1.393 . S
C808 H797 0.950 . S
C808 C806 1.391 . S
C808 C809 1.400 . S
C809 C803 1.491 . S
C809 C808 1.400 . S
C809 C810 1.398 . S
C810 H798 0.950 . S
C810 C809 1.398 . S
C810 C811 1.391 . S
C811 H799 0.950 . S
C811 C807 1.393 . S
C811 C810 1.391 . S
H812 C820 0.950 . S
H813 C825 0.950 . S
H814 C822 0.950 . S
H815 C824 0.950 . S
H816 C826 0.950 . S
H817 C828 0.950 . S
H818 C830 0.950 . S
H819 C831 0.950 . S
C820 H812 0.950 . S
C820 C821 1.386 . S
C820 C822 1.391 . S
C821 C820 1.386 . S
C821 C825 1.393 . S
C822 H814 0.950 . S
C822 C820 1.391 . S
C822 C823 1.400 . S
C823 C822 1.400 . S
C823 C824 1.398 . S
C823 C829 1.491 . S
C824 H815 0.950 . S
C824 C823 1.398 . S
C824 C825 1.391 . S
C825 H813 0.950 . S
C825 C821 1.393 . S
C825 C824 1.391 . S
C826 H816 0.950 . S
C826 C827 1.386 . S
C826 C828 1.391 . S
C827 C826 1.386 . S
C827 C831 1.393 . S
C828 H817 0.950 . S
C828 C826 1.391 . S
C828 C829 1.400 . S
C829 C823 1.491 . S
C829 C828 1.400 . S
C829 C830 1.398 . S
C830 H818 0.950 . S
C830 C829 1.398 . S
C830 C831 1.391 . S
C831 H819 0.950 . S
C831 C827 1.393 . S
C831 C830 1.391 . S
H832 C840 0.950 . S
H833 C845 0.950 . S
H834 C842 0.950 . S
H835 C844 0.950 . S
H836 C846 0.950 . S
H837 C848 0.950 . S
H838 C850 0.950 . S
H839 C851 0.950 . S
C840 H832 0.950 . S
C840 C841 1.386 . S
C840 C842 1.391 . S
C841 C840 1.386 . S
C841 C845 1.393 . S
C842 H834 0.950 . S
C842 C840 1.391 . S
C842 C843 1.400 . S
C843 C842 1.400 . S
C843 C844 1.398 . S
C843 C849 1.491 . S
C844 H835 0.950 . S
C844 C843 1.398 . S
C844 C845 1.391 . S
C845 H833 0.950 . S
C845 C841 1.393 . S
C845 C844 1.391 . S
C846 H836 0.950 . S
C846 C847 1.386 . S
C846 C848 1.391 . S
C847 C846 1.386 . S
C847 C851 1.393 . S
C848 H837 0.950 . S
C848 C846 1.391 . S
C848 C849 1.400 . S
C849 C843 1.491 . S
C849 C848 1.400 . S
C849 C850 1.398 . S
C850 H838 0.950 . S
C850 C849 1.398 . S
C850 C851 1.391 . S
C851 H839 0.950 . S
C851 C847 1.393 . S
C851 C850 1.391 . S
H852 C860 0.953 . S
H853 C865 0.950 . S
H854 C862 0.950 . S
H855 C864 0.950 . S
H856 C866 0.950 . S
H857 C868 0.942 1_554 S
H858 C870 0.950 . S
H859 C871 0.950 . S
C860 H852 0.953 . S
C860 C861 1.379 1_556 S
C860 C862 1.395 . S
C861 C860 1.379 1_554 S
C861 C865 1.393 . S
C862 H854 0.950 . S
C862 C860 1.395 . S
C862 C863 1.400 1_556 S
C863 C862 1.400 1_554 S
C863 C864 1.400 . S
C863 C869 1.490 1_554 S
C864 H855 0.950 . S
C864 C863 1.400 . S
C864 C865 1.391 . S
C865 H853 0.950 . S
C865 C861 1.393 . S
C865 C864 1.391 . S
C866 H856 0.950 . S
C866 C867 1.386 . S
C866 C868 1.395 . S
C867 C866 1.386 . S
C867 C871 1.393 . S
C868 H857 0.942 1_556 S
C868 C866 1.395 . S
C868 C869 1.404 . S
C869 C863 1.490 1_556 S
C869 C868 1.404 . S
C869 C870 1.398 . S
C870 H858 0.950 . S
C870 C869 1.398 . S
C870 C871 1.391 . S
C871 H859 0.950 . S
C871 C867 1.393 . S
C871 C870 1.391 . S
H872 C880 0.950 . S
H873 C885 0.950 . S
H874 C882 0.950 . S
H875 C884 0.950 . S
H876 C886 0.950 . S
H877 C888 0.950 . S
H878 C890 0.950 . S
H879 C891 0.950 . S
C880 H872 0.950 . S
C880 C881 1.386 . S
C880 C882 1.391 . S
C881 C880 1.386 . S
C881 C885 1.393 . S
C882 H874 0.950 . S
C882 C880 1.391 . S
C882 C883 1.400 . S
C883 C882 1.400 . S
C883 C884 1.398 . S
C883 C889 1.491 . S
C884 H875 0.950 . S
C884 C883 1.398 . S
C884 C885 1.391 . S
C885 H873 0.950 . S
C885 C881 1.393 . S
C885 C884 1.391 . S
C886 H876 0.950 . S
C886 C887 1.386 . S
C886 C888 1.391 . S
C887 C886 1.386 . S
C887 C891 1.393 . S
C888 H877 0.950 . S
C888 C886 1.391 . S
C888 C889 1.400 . S
C889 C883 1.491 . S
C889 C888 1.400 . S
C889 C890 1.398 . S
C890 H878 0.950 . S
C890 C889 1.398 . S
C890 C891 1.391 . S
C891 H879 0.950 . S
C891 C887 1.393 . S
C891 C890 1.391 . S
H892 C900 0.950 . S
H893 C905 0.950 . S
H894 C902 0.950 . S
H895 C904 0.950 1_565 S
H896 C906 0.950 . S
H897 C908 0.950 . S
H898 C910 0.950 . S
H899 C911 0.950 . S
C900 H892 0.950 . S
C900 C901 1.386 . S
C900 C902 1.391 . S
C901 C900 1.386 . S
C901 C905 1.393 . S
C902 H894 0.950 . S
C902 C900 1.391 . S
C902 C903 1.400 . S
C903 C902 1.400 . S
C903 C904 1.398 . S
C903 C909 1.491 1_545 S
C904 H895 0.950 1_545 S
C904 C903 1.398 . S
C904 C905 1.391 . S
C905 H893 0.950 . S
C905 C901 1.393 . S
C905 C904 1.391 . S
C906 H896 0.950 . S
C906 C907 1.386 . S
C906 C908 1.391 . S
C907 C906 1.386 . S
C907 C911 1.393 . S
C908 H897 0.950 . S
C908 C906 1.391 . S
C908 C909 1.400 . S
C909 C903 1.491 1_565 S
C909 C908 1.400 . S
C909 C910 1.398 . S
C910 H898 0.950 . S
C910 C909 1.398 . S
C910 C911 1.391 . S
C911 H899 0.950 . S
C911 C907 1.393 . S
C911 C910 1.391 . S
H912 C920 0.950 . S
H913 C925 0.950 . S
H914 C922 0.950 . S
H915 C924 0.950 . S
H916 C926 0.950 . S
H917 C928 0.950 . S
H918 C930 0.950 . S
H919 C931 0.950 . S
C920 H912 0.950 . S
C920 C921 1.386 . S
C920 C922 1.391 . S
C921 C920 1.386 . S
C921 C925 1.393 . S
C922 H914 0.950 . S
C922 C920 1.391 . S
C922 C923 1.400 . S
C923 C922 1.400 . S
C923 C924 1.398 . S
C923 C929 1.491 1_554 S
C924 H915 0.950 . S
C924 C923 1.398 . S
C924 C925 1.391 . S
C925 H913 0.950 . S
C925 C921 1.393 . S
C925 C924 1.391 . S
C926 H916 0.950 . S
C926 C927 1.386 . S
C926 C928 1.391 . S
C927 C926 1.386 . S
C927 C931 1.393 . S
C928 H917 0.950 . S
C928 C926 1.391 . S
C928 C929 1.400 . S
C929 C923 1.491 1_556 S
C929 C928 1.400 . S
C929 C930 1.398 . S
C930 H918 0.950 . S
C930 C929 1.398 . S
C930 C931 1.391 . S
C931 H919 0.950 . S
C931 C927 1.393 . S
C931 C930 1.391 . S
H932 C940 0.950 . S
H933 C945 0.950 . S
H934 C942 0.950 . S
H935 C944 0.950 . S
H936 C946 0.950 . S
H937 C948 0.950 . S
H938 C950 0.950 . S
H939 C951 0.950 . S
C940 H932 0.950 . S
C940 C941 1.386 . S
C940 C942 1.391 . S
C941 C940 1.386 . S
C941 C945 1.393 . S
C942 H934 0.950 . S
C942 C940 1.391 . S
C942 C943 1.400 . S
C943 C942 1.400 . S
C943 C944 1.398 . S
C943 C949 1.491 1_545 S
C944 H935 0.950 . S
C944 C943 1.398 . S
C944 C945 1.391 . S
C945 H933 0.950 . S
C945 C941 1.393 . S
C945 C944 1.391 . S
C946 H936 0.950 . S
C946 C947 1.386 . S
C946 C948 1.391 . S
C947 C946 1.386 . S
C947 C951 1.393 . S
C948 H937 0.950 . S
C948 C946 1.391 . S
C948 C949 1.400 . S
C949 C943 1.491 1_565 S
C949 C948 1.400 . S
C949 C950 1.398 . S
C950 H938 0.950 . S
C950 C949 1.398 . S
C950 C951 1.391 . S
C951 H939 0.950 . S
C951 C947 1.393 . S
C951 C950 1.391 . S
H952 C960 0.950 . S
H953 C965 0.950 . S
H954 C962 0.950 . S
H955 C964 0.950 . S
H956 C966 0.950 . S
H957 C968 0.950 . S
H958 C970 0.950 . S
H959 C971 0.950 . S
C960 H952 0.950 . S
C960 C961 1.386 . S
C960 C962 1.391 . S
C961 C960 1.386 . S
C961 C965 1.393 1_554 S
C962 H954 0.950 . S
C962 C960 1.391 . S
C962 C963 1.402 . S
C963 C962 1.402 . S
C963 C964 1.396 1_554 S
C963 C969 1.490 1_554 S
C964 H955 0.950 . S
C964 C963 1.396 1_556 S
C964 C965 1.391 . S
C965 H953 0.950 . S
C965 C961 1.393 1_556 S
C965 C964 1.391 . S
C966 H956 0.950 . S
C966 C967 1.386 . S
C966 C968 1.391 . S
C967 C966 1.386 . S
C967 C971 1.393 1_556 S
C968 H957 0.950 . S
C968 C966 1.391 . S
C968 C969 1.400 . S
C969 C963 1.490 1_556 S
C969 C968 1.400 . S
C969 C970 1.398 1_556 S
C970 H958 0.950 . S
C970 C969 1.398 1_554 S
C970 C971 1.391 . S
C971 H959 0.950 . S
C971 C967 1.393 1_554 S
C971 C970 1.391 . S
H972 C980 0.950 . S
H973 C985 0.945 1_455 S
H974 C982 0.950 . S
H975 C984 0.950 . S
H976 C986 0.950 . S
H977 C988 0.950 . S
H978 C990 0.949 1_554 S
H979 C991 0.940 1_654 S
C980 H972 0.950 . S
C980 C981 1.386 1_554 S
C980 C982 1.391 . S
C981 C980 1.386 1_556 S
C981 C985 1.401 . S
C982 H974 0.950 . S
C982 C980 1.391 . S
C982 C983 1.400 1_554 S
C983 C982 1.400 1_556 S
C983 C984 1.398 1_655 S
C983 C989 1.491 1_655 S
C984 H975 0.950 . S
C984 C983 1.398 1_455 S
C984 C985 1.387 1_455 S
C985 H973 0.945 1_655 S
C985 C981 1.401 . S
C985 C984 1.387 1_655 S
C986 H976 0.950 . S
C986 C987 1.386 . S
C986 C988 1.391 . S
C987 C986 1.386 . S
C987 C991 1.403 . S
C988 H977 0.950 . S
C988 C986 1.391 . S
C988 C989 1.400 . S
C989 C983 1.491 1_455 S
C989 C988 1.400 . S
C989 C990 1.399 1_455 S
C990 H978 0.949 1_556 S
C990 C989 1.399 1_655 S
C990 C991 1.390 1_655 S
C991 H979 0.940 1_456 S
C991 C987 1.403 . S
C991 C990 1.390 1_455 S
H992 C1000 0.950 . S
H993 C1005 0.950 . S
H994 C1002 0.950 . S
H995 C1004 0.950 . S
H996 C1006 0.950 . S
H997 C1008 0.950 . S
H998 C1010 0.950 . S
H999 C1011 0.950 . S
C1000 H992 0.950 . S
C1000 C1001 1.386 . S
C1000 C1002 1.391 . S
C1001 C1000 1.386 . S
C1001 C1005 1.393 . S
C1002 H994 0.950 . S
C1002 C1000 1.391 . S
C1002 C1003 1.400 . S
C1003 C1002 1.400 . S
C1003 C1004 1.398 . S
C1003 C1009 1.491 1_455 S
C1004 H995 0.950 . S
C1004 C1003 1.398 . S
C1004 C1005 1.391 . S
C1005 H993 0.950 . S
C1005 C1001 1.393 . S
C1005 C1004 1.391 . S
C1006 H996 0.950 . S
C1006 C1007 1.386 . S
C1006 C1008 1.391 . S
C1007 C1006 1.386 . S
C1007 C1011 1.393 . S
C1008 H997 0.950 . S
C1008 C1006 1.391 . S
C1008 C1009 1.400 . S
C1009 C1003 1.491 1_655 S
C1009 C1008 1.400 . S
C1009 C1010 1.398 . S
C1010 H998 0.950 . S
C1010 C1009 1.398 . S
C1010 C1011 1.391 . S
C1011 H999 0.950 . S
C1011 C1007 1.393 . S
C1011 C1010 1.391 . S
H1012 C1020 0.950 . S
H1013 C1025 0.950 . S
H1014 C1022 0.950 . S
H1015 C1024 0.950 . S
H1016 C1026 0.950 . S
H1017 C1028 0.950 . S
H1018 C1030 0.950 . S
H1019 C1031 0.950 . S
C1020 H1012 0.950 . S
C1020 C1021 1.386 . S
C1020 C1022 1.391 . S
C1021 C1020 1.386 . S
C1021 C1025 1.393 . S
C1022 H1014 0.950 . S
C1022 C1020 1.391 . S
C1022 C1023 1.400 . S
C1023 C1022 1.400 . S
C1023 C1024 1.398 . S
C1023 C1029 1.491 . S
C1024 H1015 0.950 . S
C1024 C1023 1.398 . S
C1024 C1025 1.391 . S
C1025 H1013 0.950 . S
C1025 C1021 1.393 . S
C1025 C1024 1.391 . S
C1026 H1016 0.950 . S
C1026 C1027 1.386 . S
C1026 C1028 1.391 . S
C1027 C1026 1.386 . S
C1027 C1031 1.393 . S
C1028 H1017 0.950 . S
C1028 C1026 1.391 . S
C1028 C1029 1.400 . S
C1029 C1023 1.491 . S
C1029 C1028 1.400 . S
C1029 C1030 1.398 . S
C1030 H1018 0.950 . S
C1030 C1029 1.398 . S
C1030 C1031 1.391 . S
C1031 H1019 0.950 . S
C1031 C1027 1.393 . S
C1031 C1030 1.391 . S
H1032 C1040 0.967 . S
H1033 C1045 0.950 . S
H1034 C1042 0.950 . S
H1035 C1044 0.950 . S
H1036 C1046 0.950 1_455 S
H1037 C1048 0.950 . S
H1038 C1050 0.950 . S
H1039 C1051 0.950 . S
C1040 H1032 0.967 . S
C1040 C1041 1.357 1_655 S
C1040 C1042 1.403 . S
C1041 C1040 1.357 1_455 S
C1041 C1045 1.393 . S
C1042 H1034 0.950 . S
C1042 C1040 1.403 . S
C1042 C1043 1.400 1_655 S
C1043 C1042 1.400 1_455 S
C1043 C1044 1.398 . S
C1043 C1049 1.491 1_455 S
C1044 H1035 0.950 . S
C1044 C1043 1.398 . S
C1044 C1045 1.391 . S
C1045 H1033 0.950 . S
C1045 C1041 1.393 . S
C1045 C1044 1.391 . S
C1046 H1036 0.950 1_655 S
C1046 C1047 1.386 . S
C1046 C1048 1.391 1_655 S
C1047 C1046 1.386 . S
C1047 C1051 1.393 . S
C1048 H1037 0.950 . S
C1048 C1046 1.391 1_455 S
C1048 C1049 1.400 1_455 S
C1049 C1043 1.491 1_655 S
C1049 C1048 1.400 1_655 S
C1049 C1050 1.398 . S
C1050 H1038 0.950 . S
C1050 C1049 1.398 . S
C1050 C1051 1.391 . S
C1051 H1039 0.950 . S
C1051 C1047 1.393 . S
C1051 C1050 1.391 . S
H1052 C1060 0.950 . S
H1053 C1065 0.950 . S
H1054 C1062 0.950 1_655 S
H1055 C1064 0.950 . S
H1056 C1066 0.950 . S
H1057 C1068 0.950 1_455 S
H1058 C1070 0.950 . S
H1059 C1071 0.950 . S
C1060 H1052 0.950 . S
C1060 C1061 1.386 . S
C1060 C1062 1.391 . S
C1061 C1060 1.386 . S
C1061 C1065 1.393 . S
C1062 H1054 0.950 1_455 S
C1062 C1060 1.391 . S
C1062 C1063 1.400 . S
C1063 C1062 1.400 . S
C1063 C1064 1.398 . S
C1063 C1069 1.491 1_455 S
C1064 H1055 0.950 . S
C1064 C1063 1.398 . S
C1064 C1065 1.391 . S
C1065 H1053 0.950 . S
C1065 C1061 1.393 . S
C1065 C1064 1.391 . S
C1066 H1056 0.950 . S
C1066 C1067 1.386 . S
C1066 C1068 1.391 . S
C1067 C1066 1.386 . S
C1067 C1071 1.393 . S
C1068 H1057 0.950 1_655 S
C1068 C1066 1.391 . S
C1068 C1069 1.400 . S
C1069 C1063 1.491 1_655 S
C1069 C1068 1.400 . S
C1069 C1070 1.398 . S
C1070 H1058 0.950 . S
C1070 C1069 1.398 . S
C1070 C1071 1.391 . S
C1071 H1059 0.950 . S
C1071 C1067 1.393 . S
C1071 C1070 1.391 . S
H1072 C1080 0.950 . S
H1073 C1085 0.950 . S
H1074 C1082 0.950 . S
H1075 C1084 0.950 . S
H1076 C1086 0.950 . S
H1077 C1088 0.950 . S
H1078 C1090 0.950 . S
H1079 C1091 0.950 . S
C1080 H1072 0.950 . S
C1080 C1081 1.386 . S
C1080 C1082 1.391 . S
C1081 C1080 1.386 . S
C1081 C1085 1.393 . S
C1082 H1074 0.950 . S
C1082 C1080 1.391 . S
C1082 C1083 1.400 . S
C1083 C1082 1.400 . S
C1083 C1084 1.398 . S
C1083 C1089 1.491 . S
C1084 H1075 0.950 . S
C1084 C1083 1.398 . S
C1084 C1085 1.391 . S
C1085 H1073 0.950 . S
C1085 C1081 1.393 . S
C1085 C1084 1.391 . S
C1086 H1076 0.950 . S
C1086 C1087 1.386 . S
C1086 C1088 1.391 . S
C1087 C1086 1.386 . S
C1087 C1091 1.393 . S
C1088 H1077 0.950 . S
C1088 C1086 1.391 . S
C1088 C1089 1.400 . S
C1089 C1083 1.491 . S
C1089 C1088 1.400 . S
C1089 C1090 1.398 . S
C1090 H1078 0.950 . S
C1090 C1089 1.398 . S
C1090 C1091 1.391 . S
C1091 H1079 0.950 . S
C1091 C1087 1.393 . S
C1091 C1090 1.391 . S
H1092 C1100 0.950 . S
H1093 C1105 0.950 . S
H1094 C1102 0.950 1_545 S
H1095 C1104 0.950 . S
H1096 C1106 0.950 . S
H1097 C1108 0.950 . S
H1098 C1110 0.950 . S
H1099 C1111 0.950 . S
C1100 H1092 0.950 . S
C1100 C1101 1.386 . S
C1100 C1102 1.391 . S
C1101 C1100 1.386 . S
C1101 C1105 1.393 . S
C1102 H1094 0.950 1_565 S
C1102 C1100 1.391 . S
C1102 C1103 1.400 . S
C1103 C1102 1.400 . S
C1103 C1104 1.398 . S
C1103 C1109 1.491 1_565 S
C1104 H1095 0.950 . S
C1104 C1103 1.398 . S
C1104 C1105 1.391 . S
C1105 H1093 0.950 . S
C1105 C1101 1.393 . S
C1105 C1104 1.391 . S
C1106 H1096 0.950 . S
C1106 C1107 1.386 . S
C1106 C1108 1.391 . S
C1107 C1106 1.386 . S
C1107 C1111 1.393 . S
C1108 H1097 0.950 . S
C1108 C1106 1.391 . S
C1108 C1109 1.400 . S
C1109 C1103 1.491 1_545 S
C1109 C1108 1.400 . S
C1109 C1110 1.398 . S
C1110 H1098 0.950 . S
C1110 C1109 1.398 . S
C1110 C1111 1.391 . S
C1111 H1099 0.950 . S
C1111 C1107 1.393 . S
C1111 C1110 1.391 . S
H1112 C1120 0.950 . S
H1113 C1125 0.950 . S
H1114 C1122 0.950 . S
H1115 C1124 0.950 . S
H1116 C1126 0.965 . S
H1117 C1128 0.950 . S
H1118 C1130 0.950 . S
H1119 C1131 0.950 . S
C1120 H1112 0.950 . S
C1120 C1121 1.386 1_556 S
C1120 C1122 1.391 . S
C1121 C1120 1.386 1_554 S
C1121 C1125 1.393 . S
C1122 H1114 0.950 . S
C1122 C1120 1.391 . S
C1122 C1123 1.400 . S
C1123 C1122 1.400 . S
C1123 C1124 1.398 1_556 S
C1123 C1129 1.491 . S
C1124 H1115 0.950 . S
C1124 C1123 1.398 1_554 S
C1124 C1125 1.391 . S
C1125 H1113 0.950 . S
C1125 C1121 1.393 . S
C1125 C1124 1.391 . S
C1126 H1116 0.965 . S
C1126 C1127 1.365 1_554 S
C1126 C1128 1.397 . S
C1127 C1126 1.365 1_556 S
C1127 C1131 1.393 . S
C1128 H1117 0.950 . S
C1128 C1126 1.397 . S
C1128 C1129 1.400 1_554 S
C1129 C1123 1.491 . S
C1129 C1128 1.400 1_556 S
C1129 C1130 1.398 . S
C1130 H1118 0.950 . S
C1130 C1129 1.398 . S
C1130 C1131 1.391 . S
C1131 H1119 0.950 . S
C1131 C1127 1.393 . S
C1131 C1130 1.391 . S
H1132 C1140 0.950 . S
H1133 C1145 0.950 . S
H1134 C1142 0.950 1_565 S
H1135 C1144 0.950 . S
H1136 C1146 0.950 . S
H1137 C1148 0.950 . S
H1138 C1150 0.950 . S
H1139 C1151 0.950 . S
C1140 H1132 0.950 . S
C1140 C1141 1.386 . S
C1140 C1142 1.391 . S
C1141 C1140 1.386 . S
C1141 C1145 1.393 . S
C1142 H1134 0.950 1_545 S
C1142 C1140 1.391 . S
C1142 C1143 1.400 . S
C1143 C1142 1.400 . S
C1143 C1144 1.398 . S
C1143 C1149 1.491 1_545 S
C1144 H1135 0.950 . S
C1144 C1143 1.398 . S
C1144 C1145 1.391 . S
C1145 H1133 0.950 . S
C1145 C1141 1.393 . S
C1145 C1144 1.391 . S
C1146 H1136 0.950 . S
C1146 C1147 1.386 . S
C1146 C1148 1.391 . S
C1147 C1146 1.386 . S
C1147 C1151 1.393 . S
C1148 H1137 0.950 . S
C1148 C1146 1.391 . S
C1148 C1149 1.400 . S
C1149 C1143 1.491 1_565 S
C1149 C1148 1.400 . S
C1149 C1150 1.398 . S
C1150 H1138 0.950 . S
C1150 C1149 1.398 . S
C1150 C1151 1.391 . S
C1151 H1139 0.950 . S
C1151 C1147 1.393 . S
C1151 C1150 1.391 . S
H1152 C1160 0.950 . S
H1153 C1165 0.950 . S
H1154 C1162 0.950 . S
H1155 C1164 0.950 . S
H1156 C1166 0.950 . S
H1157 C1168 0.950 . S
H1158 C1170 0.950 . S
H1159 C1171 0.950 . S
C1160 H1152 0.950 . S
C1160 C1161 1.386 . S
C1160 C1162 1.391 . S
C1161 C1160 1.386 . S
C1161 C1165 1.393 . S
C1162 H1154 0.950 . S
C1162 C1160 1.391 . S
C1162 C1163 1.400 . S
C1163 C1162 1.400 . S
C1163 C1164 1.398 . S
C1163 C1169 1.491 . S
C1164 H1155 0.950 . S
C1164 C1163 1.398 . S
C1164 C1165 1.391 . S
C1165 H1153 0.950 . S
C1165 C1161 1.393 . S
C1165 C1164 1.391 . S
C1166 H1156 0.950 . S
C1166 C1167 1.386 . S
C1166 C1168 1.391 . S
C1167 C1166 1.386 . S
C1167 C1171 1.393 . S
C1168 H1157 0.950 . S
C1168 C1166 1.391 . S
C1168 C1169 1.400 . S
C1169 C1163 1.491 . S
C1169 C1168 1.400 . S
C1169 C1170 1.398 . S
C1170 H1158 0.950 . S
C1170 C1169 1.398 . S
C1170 C1171 1.391 . S
C1171 H1159 0.950 . S
C1171 C1167 1.393 . S
C1171 C1170 1.391 . S
H1172 C1180 0.950 . S
H1173 C1185 0.950 . S
H1174 C1182 0.950 . S
H1175 C1184 0.950 . S
H1176 C1186 0.950 . S
H1177 C1188 0.950 . S
H1178 C1190 0.950 . S
H1179 C1191 0.950 . S
C1180 H1172 0.950 . S
C1180 C1181 1.386 . S
C1180 C1182 1.391 . S
C1181 C1180 1.386 . S
C1181 C1185 1.393 . S
C1182 H1174 0.950 . S
C1182 C1180 1.391 . S
C1182 C1183 1.400 . S
C1183 C1182 1.400 . S
C1183 C1184 1.398 . S
C1183 C1189 1.491 1_554 S
C1184 H1175 0.950 . S
C1184 C1183 1.398 . S
C1184 C1185 1.391 . S
C1185 H1173 0.950 . S
C1185 C1181 1.393 . S
C1185 C1184 1.391 . S
C1186 H1176 0.950 . S
C1186 C1187 1.386 . S
C1186 C1188 1.391 . S
C1187 C1186 1.386 . S
C1187 C1191 1.393 . S
C1188 H1177 0.950 . S
C1188 C1186 1.391 . S
C1188 C1189 1.400 . S
C1189 C1183 1.491 1_556 S
C1189 C1188 1.400 . S
C1189 C1190 1.398 . S
C1190 H1178 0.950 . S
C1190 C1189 1.398 . S
C1190 C1191 1.391 . S
C1191 H1179 0.950 . S
C1191 C1187 1.393 . S
C1191 C1190 1.391 . S
H1192 C1200 0.950 . S
H1193 C1205 0.950 . S
H1194 C1202 0.950 . S
H1195 C1204 0.950 . S
H1196 C1206 0.950 . S
H1197 C1208 0.950 . S
H1198 C1210 0.950 . S
H1199 C1211 0.950 . S
C1200 H1192 0.950 . S
C1200 C1201 1.386 . S
C1200 C1202 1.391 . S
C1201 C1200 1.386 . S
C1201 C1205 1.393 . S
C1202 H1194 0.950 . S
C1202 C1200 1.391 . S
C1202 C1203 1.400 . S
C1203 C1202 1.400 . S
C1203 C1204 1.398 . S
C1203 C1209 1.491 . S
C1204 H1195 0.950 . S
C1204 C1203 1.398 . S
C1204 C1205 1.391 . S
C1205 H1193 0.950 . S
C1205 C1201 1.393 . S
C1205 C1204 1.391 . S
C1206 H1196 0.950 . S
C1206 C1207 1.386 . S
C1206 C1208 1.391 . S
C1207 C1206 1.386 . S
C1207 C1211 1.393 . S
C1208 H1197 0.950 . S
C1208 C1206 1.391 . S
C1208 C1209 1.400 . S
C1209 C1203 1.491 . S
C1209 C1208 1.400 . S
C1209 C1210 1.398 . S
C1210 H1198 0.950 . S
C1210 C1209 1.398 . S
C1210 C1211 1.391 . S
C1211 H1199 0.950 . S
C1211 C1207 1.393 . S
C1211 C1210 1.391 . S
H1212 C1220 0.950 . S
H1213 C1225 0.950 . S
H1214 C1222 0.950 . S
H1215 C1224 0.950 . S
H1216 C1226 0.950 . S
H1217 C1228 0.950 . S
H1218 C1230 0.950 . S
H1219 C1231 0.950 . S
C1220 H1212 0.950 . S
C1220 C1221 1.386 . S
C1220 C1222 1.391 . S
C1221 C1220 1.386 . S
C1221 C1225 1.393 . S
C1222 H1214 0.950 . S
C1222 C1220 1.391 . S
C1222 C1223 1.400 . S
C1223 C1222 1.400 . S
C1223 C1224 1.398 . S
C1223 C1229 1.491 . S
C1224 H1215 0.950 . S
C1224 C1223 1.398 . S
C1224 C1225 1.391 . S
C1225 H1213 0.950 . S
C1225 C1221 1.393 . S
C1225 C1224 1.391 . S
C1226 H1216 0.950 . S
C1226 C1227 1.386 . S
C1226 C1228 1.391 . S
C1227 C1226 1.386 . S
C1227 C1231 1.393 . S
C1228 H1217 0.950 . S
C1228 C1226 1.391 . S
C1228 C1229 1.400 . S
C1229 C1223 1.491 . S
C1229 C1228 1.400 . S
C1229 C1230 1.398 . S
C1230 H1218 0.950 . S
C1230 C1229 1.398 . S
C1230 C1231 1.391 . S
C1231 H1219 0.950 . S
C1231 C1227 1.393 . S
C1231 C1230 1.391 . S
H1232 C1240 0.950 . S
H1233 C1245 0.950 . S
H1234 C1242 0.950 . S
H1235 C1244 0.950 . S
H1236 C1246 0.950 . S
H1237 C1248 0.950 . S
H1238 C1250 0.950 . S
H1239 C1251 0.950 . S
C1240 H1232 0.950 . S
C1240 C1241 1.386 . S
C1240 C1242 1.391 . S
C1241 C1240 1.386 . S
C1241 C1245 1.393 . S
C1242 H1234 0.950 . S
C1242 C1240 1.391 . S
C1242 C1243 1.400 . S
C1243 C1242 1.400 . S
C1243 C1244 1.398 . S
C1243 C1249 1.491 . S
C1244 H1235 0.950 . S
C1244 C1243 1.398 . S
C1244 C1245 1.391 . S
C1245 H1233 0.950 . S
C1245 C1241 1.393 . S
C1245 C1244 1.391 . S
C1246 H1236 0.950 . S
C1246 C1247 1.386 . S
C1246 C1248 1.391 . S
C1247 C1246 1.386 . S
C1247 C1251 1.393 . S
C1248 H1237 0.950 . S
C1248 C1246 1.391 . S
C1248 C1249 1.400 . S
C1249 C1243 1.491 . S
C1249 C1248 1.400 . S
C1249 C1250 1.398 . S
C1250 H1238 0.950 . S
C1250 C1249 1.398 . S
C1250 C1251 1.391 . S
C1251 H1239 0.950 . S
C1251 C1247 1.393 . S
C1251 C1250 1.391 . S
H1252 C1260 0.950 . S
H1253 C1265 0.950 . S
H1254 C1262 0.950 . S
H1255 C1264 0.950 . S
H1256 C1266 0.950 . S
H1257 C1268 0.950 . S
H1258 C1270 0.950 . S
H1259 C1271 0.950 . S
C1260 H1252 0.950 . S
C1260 C1261 1.386 . S
C1260 C1262 1.391 . S
C1261 C1260 1.386 . S
C1261 C1265 1.393 . S
C1262 H1254 0.950 . S
C1262 C1260 1.391 . S
C1262 C1263 1.400 . S
C1263 C1262 1.400 . S
C1263 C1264 1.398 . S
C1263 C1269 1.491 . S
C1264 H1255 0.950 . S
C1264 C1263 1.398 . S
C1264 C1265 1.391 . S
C1265 H1253 0.950 . S
C1265 C1261 1.393 . S
C1265 C1264 1.391 . S
C1266 H1256 0.950 . S
C1266 C1267 1.386 . S
C1266 C1268 1.391 . S
C1267 C1266 1.386 . S
C1267 C1271 1.393 . S
C1268 H1257 0.950 . S
C1268 C1266 1.391 . S
C1268 C1269 1.400 . S
C1269 C1263 1.491 . S
C1269 C1268 1.400 . S
C1269 C1270 1.398 . S
C1270 H1258 0.950 . S
C1270 C1269 1.398 . S
C1270 C1271 1.391 . S
C1271 H1259 0.950 . S
C1271 C1267 1.393 . S
C1271 C1270 1.391 . S
C321 C10 1.512 . S
C327 C127 1.439 . S
C341 C23 1.756 1_455 S
C347 C135 1.760 . S
C361 C153 1.450 . S
C367 C36 1.526 . S
C381 C109 1.726 . S
C387 C44 1.728 . S
C401 C133 1.437 . S
C407 C62 1.490 . S
C421 C75 1.749 . S
C427 C144 1.702 . S
C441 C83 1.459 . S
C447 C107 1.413 . S
C461 C118 1.714 . S
C467 C96 1.760 1_455 S
C481 C53 1.533 . S
C487 C157 1.519 . S
C501 C94 1.464 . S
C507 C196 1.483 . S
C521 C213 1.511 . S
C527 C66 1.478 . S
C541 C42 1.415 . S
C547 C172 1.423 . S
C561 C183 1.415 . S
C567 C81 1.428 . S
C581 C1 1.481 . S
C587 C250 1.456 . S
C601 C27 1.478 . S
C607 C237 1.453 . S
C621 C205 1.501 . S
C627 C278 1.441 . S
C641 C291 1.753 . S
C647 C166 1.752 . S
C661 C309 1.404 . S
C667 C211 1.441 . S
C681 C261 1.698 . S
C687 C192 1.747 1_655 S
C701 C289 1.487 . S
C707 C222 1.516 . S
C721 C239 1.748 1_655 S
C727 C300 1.696 . S
C741 C270 1.405 . S
C747 C174 1.441 . S
C761 C252 1.761 . S
C767 C276 1.684 . S
C781 C14 1.489 . S
C787 C231 1.514 . S
C801 C57 1.525 . S
C807 C5 1.522 . S
C821 C18 1.126 . S
C827 C70 1.135 . S
C841 C31 1.514 . S
C847 C88 1.522 . S
C861 C101 1.220 . S
C867 C49 1.220 . S
C881 C114 1.199 . S
C887 C120 1.103 . S
C901 C122 0.627 . S
C907 C131 0.635 . S
C921 C146 1.067 . S
C927 C140 1.131 . S
C941 C105 0.676 . S
C947 C148 0.683 . S
C961 C40 0.634 . S
C967 C159 0.643 . S
C981 C92 0.680 . S
C987 C235 0.675 . S
C1001 C55 1.530 . S
C1007 C170 1.536 . S
C1021 C248 0.653 . S
C1027 C68 0.647 . S
C1041 C185 0.589 . S
C1047 C16 0.593 . S
C1061 C3 1.540 . S
C1067 C218 1.551 . S
C1081 C29 1.482 . S
C1087 C198 1.485 . S
C1101 C200 1.493 . S
C1107 C224 1.496 . S
C1121 C244 1.155 . S
C1127 C161 1.172 . S
C1141 C209 1.586 . S
C1147 C179 1.580 . S
C1161 C187 1.155 . S
C1167 C257 1.163 . S
C1181 C274 1.107 . S
C1187 C263 1.097 . S
C1201 C287 0.685 . S
C1207 C283 0.697 . S
C1221 C302 1.090 . S
C1227 C296 1.161 . S
C1241 C265 0.595 . S
C1247 C304 0.601 . S
C1261 C226 1.540 . S
C1267 C79 1.542 . S
