# Generated by pormake.
# Topology zfe, (5)-cn, num edge types: 1
# Building blocks:
#     Node 0, Type 0, BuildingBlock: BEQFEK_clean_sbu_0, # of connection points: 5
#     Node 1, Type 0, BuildingBlock: BEQFEK_clean_sbu_0, # of connection points: 5
#     Node 2, Type 0, BuildingBlock: BEQFEK_clean_sbu_0, # of connection points: 5
#     Node 3, Type 0, BuildingBlock: BEQFEK_clean_sbu_0, # of connection points: 5
#     Node 4, Type 0, BuildingBlock: BEQFEK_clean_sbu_0, # of connection points: 5
#     Node 5, Type 0, BuildingBlock: BEQFEK_clean_sbu_0, # of connection points: 5
#     Node 6, Type 0, BuildingBlock: BEQFEK_clean_sbu_0, # of connection points: 5
#     Node 7, Type 0, BuildingBlock: BEQFEK_clean_sbu_0, # of connection points: 5
#     Node 8, Type 0, BuildingBlock: BEQFEK_clean_sbu_0, # of connection points: 5
#     Node 9, Type 0, BuildingBlock: BEQFEK_clean_sbu_0, # of connection points: 5
#     Node 10, Type 0, BuildingBlock: BEQFEK_clean_sbu_0, # of connection points: 5
#     Node 11, Type 0, BuildingBlock: BEQFEK_clean_sbu_0, # of connection points: 5
#     Node 12, Type 0, BuildingBlock: BEQFEK_clean_sbu_0, # of connection points: 5
#     Node 13, Type 0, BuildingBlock: BEQFEK_clean_sbu_0, # of connection points: 5
#     Node 14, Type 0, BuildingBlock: BEQFEK_clean_sbu_0, # of connection points: 5
#     Node 15, Type 0, BuildingBlock: BEQFEK_clean_sbu_0, # of connection points: 5
#     Edge 16, Type (0, 0), BuildingBlock: ZUJKAS_clean_linker_0, # of connection points: 2
#     Edge 17, Type (0, 0), BuildingBlock: ZUJKAS_clean_linker_0, # of connection points: 2
#     Edge 18, Type (0, 0), BuildingBlock: ZUJKAS_clean_linker_0, # of connection points: 2
#     Edge 19, Type (0, 0), BuildingBlock: ZUJKAS_clean_linker_0, # of connection points: 2
#     Edge 20, Type (0, 0), BuildingBlock: ZUJKAS_clean_linker_0, # of connection points: 2
#     Edge 21, Type (0, 0), BuildingBlock: ZUJKAS_clean_linker_0, # of connection points: 2
#     Edge 22, Type (0, 0), BuildingBlock: ZUJKAS_clean_linker_0, # of connection points: 2
#     Edge 23, Type (0, 0), BuildingBlock: ZUJKAS_clean_linker_0, # of connection points: 2
#     Edge 24, Type (0, 0), BuildingBlock: ZUJKAS_clean_linker_0, # of connection points: 2
#     Edge 25, Type (0, 0), BuildingBlock: ZUJKAS_clean_linker_0, # of connection points: 2
#     Edge 26, Type (0, 0), BuildingBlock: ZUJKAS_clean_linker_0, # of connection points: 2
#     Edge 27, Type (0, 0), BuildingBlock: ZUJKAS_clean_linker_0, # of connection points: 2
#     Edge 28, Type (0, 0), BuildingBlock: ZUJKAS_clean_linker_0, # of connection points: 2
#     Edge 29, Type (0, 0), BuildingBlock: ZUJKAS_clean_linker_0, # of connection points: 2
#     Edge 30, Type (0, 0), BuildingBlock: ZUJKAS_clean_linker_0, # of connection points: 2
#     Edge 31, Type (0, 0), BuildingBlock: ZUJKAS_clean_linker_0, # of connection points: 2
#     Edge 32, Type (0, 0), BuildingBlock: ZUJKAS_clean_linker_0, # of connection points: 2
#     Edge 33, Type (0, 0), BuildingBlock: ZUJKAS_clean_linker_0, # of connection points: 2
#     Edge 34, Type (0, 0), BuildingBlock: ZUJKAS_clean_linker_0, # of connection points: 2
#     Edge 35, Type (0, 0), BuildingBlock: ZUJKAS_clean_linker_0, # of connection points: 2
#     Edge 36, Type (0, 0), BuildingBlock: ZUJKAS_clean_linker_0, # of connection points: 2
#     Edge 37, Type (0, 0), BuildingBlock: ZUJKAS_clean_linker_0, # of connection points: 2
#     Edge 38, Type (0, 0), BuildingBlock: ZUJKAS_clean_linker_0, # of connection points: 2
#     Edge 39, Type (0, 0), BuildingBlock: ZUJKAS_clean_linker_0, # of connection points: 2
#     Edge 40, Type (0, 0), BuildingBlock: ZUJKAS_clean_linker_0, # of connection points: 2
#     Edge 41, Type (0, 0), BuildingBlock: ZUJKAS_clean_linker_0, # of connection points: 2
#     Edge 42, Type (0, 0), BuildingBlock: ZUJKAS_clean_linker_0, # of connection points: 2
#     Edge 43, Type (0, 0), BuildingBlock: ZUJKAS_clean_linker_0, # of connection points: 2
#     Edge 44, Type (0, 0), BuildingBlock: ZUJKAS_clean_linker_0, # of connection points: 2
#     Edge 45, Type (0, 0), BuildingBlock: ZUJKAS_clean_linker_0, # of connection points: 2
#     Edge 46, Type (0, 0), BuildingBlock: ZUJKAS_clean_linker_0, # of connection points: 2
#     Edge 47, Type (0, 0), BuildingBlock: ZUJKAS_clean_linker_0, # of connection points: 2
#     Edge 48, Type (0, 0), BuildingBlock: ZUJKAS_clean_linker_0, # of connection points: 2
#     Edge 49, Type (0, 0), BuildingBlock: ZUJKAS_clean_linker_0, # of connection points: 2
#     Edge 50, Type (0, 0), BuildingBlock: ZUJKAS_clean_linker_0, # of connection points: 2
#     Edge 51, Type (0, 0), BuildingBlock: ZUJKAS_clean_linker_0, # of connection points: 2
#     Edge 52, Type (0, 0), BuildingBlock: ZUJKAS_clean_linker_0, # of connection points: 2
#     Edge 53, Type (0, 0), BuildingBlock: ZUJKAS_clean_linker_0, # of connection points: 2
#     Edge 54, Type (0, 0), BuildingBlock: ZUJKAS_clean_linker_0, # of connection points: 2
#     Edge 55, Type (0, 0), BuildingBlock: ZUJKAS_clean_linker_0, # of connection points: 2
# Relax obj value: 0.096
# Max RMSD: 0.101
# Mean RMSD: 0.101
data_MOF--net-zfe--node1-BEQFEK_clean_sbu_0--edge1-ZUJKAS_clean_linker_0
_symmetry_space_group_name_H-M    P1
_symmetry_Int_Tables_number       1
_symmetry_cell_setting            triclinic
loop_
_symmetry_equiv_pos_as_xyz
'x, y, z'
_cell_length_a     69.282066
_cell_length_b     69.275064
_cell_length_c     39.499773
_cell_angle_alpha  89.989861
_cell_angle_beta   89.992214
_cell_angle_gamma 89.99678
loop_
_atom_site_label
_atom_site_type_symbol
_atom_site_fract_x
_atom_site_fract_y
_atom_site_fract_z
_atom_type_partial_charge
Co0 Co 0.0118 0.19671 0.03975 0.0
Co1 Co 0.04568 0.22664 0.03919 0.0
C2 C 0.01797 0.22562 0.09633 0.0
O3 O 0.00891 0.21179 0.08219 0.0
O4 O 0.03281 0.23316 0.0826 0.0
C5 C 0.9718 0.18597 0.04063 0.0
O6 O 0.96908 0.20423 0.04827 0.0
C7 C 0.06847 0.26276 0.0385 0.0
C8 C 0.093 0.2539 0.00624 0.0
C9 C 0.0854 0.26947 0.02374 0.0
N10 N 0.06618 0.24413 0.02982 0.0
N11 N 0.08098 0.23891 0.01081 0.0
C12 C 0.05386 0.27411 0.05803 0.0
H13 H 0.03921 0.26808 0.05388 0.0
H14 H 0.05412 0.28954 0.05049 0.0
H15 H 0.05724 0.27306 0.08543 0.0
C16 C 0.00578 0.21308 0.97126 0.0
N17 N 0.01438 0.21314 0.00184 0.0
N18 N 0.02797 0.2264 0.00226 0.0
C19 C 0.02808 0.2356 0.97218 0.0
C20 C 0.01419 0.22733 0.95135 0.0
C21 C 0.9917 0.19797 0.96012 0.0
H22 H 0.99547 0.18386 0.9716 0.0
H23 H 0.97704 0.20207 0.96889 0.0
H24 H 0.99147 0.19641 0.93218 0.0
O25 O 0.0345 0.17964 0.04279 0.0
O26 O 0.05835 0.20098 0.04325 0.0
H27 H 0.05597 0.24598 0.95794 0.0
H28 H 0.03621 0.25982 0.9407 0.0
C29 C 0.04139 0.25183 0.96329 0.0
H30 H 0.0424 0.26201 0.98482 0.0
H31 H 0.08267 0.22517 0.0004 0.0
O32 O 0.98885 0.1799 0.03544 0.0
C33 C 0.05242 0.18359 0.04408 0.0
Co34 Co 0.79945 0.01096 0.03933 0.0
Co35 Co 0.77055 0.04574 0.03723 0.0
C36 C 0.77151 0.0195 0.09645 0.0
O37 O 0.78491 0.00973 0.0825 0.0
O38 O 0.76415 0.03415 0.08183 0.0
C39 C 0.82565 0.9821 0.0603 0.0
O40 O 0.82656 0.99335 0.08703 0.0
C41 C 0.73523 0.06967 0.03675 0.0
C42 C 0.74411 0.09307 0.002 0.0
C43 C 0.72873 0.08642 0.02113 0.0
N44 N 0.75358 0.06657 0.02705 0.0
N45 N 0.75882 0.08069 0.00653 0.0
C46 C 0.72389 0.05599 0.05825 0.0
H47 H 0.72905 0.041 0.0543 0.0
H48 H 0.70825 0.0569 0.05235 0.0
H49 H 0.72607 0.05976 0.08528 0.0
C50 C 0.78226 0.00387 0.97219 0.0
N51 N 0.7826 0.0132 0.00207 0.0
N52 N 0.76983 0.02724 0.00164 0.0
C53 C 0.76061 0.02701 0.97159 0.0
C54 C 0.76829 0.01234 0.95176 0.0
C55 C 0.79693 0.98906 0.96211 0.0
H56 H 0.81144 0.99361 0.97092 0.0
H57 H 0.7934 0.97517 0.97465 0.0
H58 H 0.79737 0.98685 0.93433 0.0
O59 O 0.81745 0.03311 0.03994 0.0
O60 O 0.79667 0.05749 0.0395 0.0
H61 H 0.7518 0.05502 0.955 0.0
H62 H 0.73693 0.03561 0.93928 0.0
C63 C 0.74514 0.04095 0.96151 0.0
H64 H 0.73501 0.04312 0.98287 0.0
H65 H 0.77237 0.08168 0.99513 0.0
O66 O 0.81471 0.98687 0.03588 0.0
C67 C 0.81393 0.05115 0.04012 0.0
Co68 Co 0.98771 0.79913 0.04225 0.0
Co69 Co 0.95223 0.77104 0.04481 0.0
C70 C 0.98142 0.77178 0.1004 0.0
O71 O 0.99112 0.78472 0.0851 0.0
O72 O 0.96588 0.76508 0.08781 0.0
C73 C 0.02813 0.80822 0.03987 0.0
O74 O 0.03026 0.78987 0.04741 0.0
C75 C 0.93019 0.73443 0.04455 0.0
C76 C 0.90109 0.74499 0.03109 0.0
C77 C 0.91134 0.72846 0.03909 0.0
N78 N 0.93106 0.75365 0.03971 0.0
N79 N 0.9136 0.75982 0.03163 0.0
C80 C 0.94681 0.72229 0.05603 0.0
H81 H 0.95981 0.73128 0.06046 0.0
H82 H 0.95022 0.71131 0.03651 0.0
H83 H 0.94283 0.7145 0.07957 0.0
C84 C 0.99149 0.78169 0.97415 0.0
N85 N 0.98349 0.78229 0.00521 0.0
N86 N 0.96894 0.77008 0.00648 0.0
C87 C 0.96739 0.76112 0.97629 0.0
C88 C 0.98159 0.76821 0.95473 0.0
C89 C 0.00642 0.79573 0.9621 0.0
H90 H 0.00347 0.81024 0.97277 0.0
H91 H 0.02082 0.79097 0.97109 0.0
H92 H 0.00671 0.7968 0.93409 0.0
O93 O 0.96573 0.81718 0.04631 0.0
O94 O 0.94066 0.79727 0.04783 0.0
H95 H 0.93775 0.75347 0.9691 0.0
H96 H 0.95437 0.74005 0.9426 0.0
C97 C 0.95217 0.74655 0.96795 0.0
H98 H 0.95259 0.73482 0.98693 0.0
H99 H 0.91018 0.77423 0.02678 0.0
O100 O 0.01123 0.81497 0.0358 0.0
C101 C 0.94761 0.81429 0.0481 0.0
Co102 Co 0.19668 0.98518 0.04197 0.0
Co103 Co 0.22772 0.95246 0.03844 0.0
C104 C 0.22536 0.97774 0.09876 0.0
O105 O 0.21113 0.98656 0.08537 0.0
O106 O 0.23389 0.96403 0.08329 0.0
C107 C 0.18612 0.02491 0.0465 0.0
O108 O 0.20448 0.0271 0.0539 0.0
C109 C 0.26401 0.92981 0.03684 0.0
C110 C 0.25593 0.90694 0.00048 0.0
C111 C 0.27102 0.91354 0.02032 0.0
N112 N 0.24564 0.93265 0.02699 0.0
N113 N 0.2409 0.91886 0.00544 0.0
C114 C 0.27482 0.94327 0.05956 0.0
H115 H 0.26925 0.9582 0.05663 0.0
H116 H 0.29051 0.94297 0.05387 0.0
H117 H 0.2726 0.93878 0.08624 0.0
C118 C 0.21321 0.99407 0.97444 0.0
N119 N 0.21347 0.9845 0.00416 0.0
N120 N 0.22719 0.97139 0.00341 0.0
C121 C 0.23651 0.9726 0.9735 0.0
C122 C 0.22784 0.98684 0.95391 0.0
C123 C 0.19759 0.00788 0.96442 0.0
H124 H 0.18367 0.00345 0.97588 0.0
H125 H 0.2013 0.02248 0.97393 0.0
H126 H 0.19587 0.00858 0.93653 0.0
O127 O 0.18008 0.96211 0.04165 0.0
O128 O 0.20226 0.93903 0.04062 0.0
H129 H 0.2479 0.9458 0.95565 0.0
H130 H 0.26147 0.96669 0.94236 0.0
C131 C 0.25326 0.96018 0.96361 0.0
H132 H 0.26306 0.9583 0.98551 0.0
H133 H 0.22743 0.91774 0.99377 0.0
O134 O 0.17973 0.00812 0.04006 0.0
C135 C 0.18465 0.94432 0.0413 0.0
Co136 Co 0.01125 0.79976 0.50983 0.0
Co137 Co 0.0459 0.77082 0.51272 0.0
C138 C 0.02027 0.77204 0.45267 0.0
O139 O 0.01036 0.7854 0.46643 0.0
O140 O 0.03474 0.76461 0.46772 0.0
C141 C 0.97104 0.80932 0.50537 0.0
O142 O 0.96906 0.79102 0.49741 0.0
C143 C 0.06955 0.73534 0.5132 0.0
C144 C 0.09249 0.74366 0.54928 0.0
C145 C 0.08604 0.72856 0.5293 0.0
N146 N 0.06643 0.7536 0.52339 0.0
N147 N 0.08026 0.75851 0.54473 0.0
C148 C 0.0561 0.72433 0.49076 0.0
H149 H 0.04108 0.7295 0.49438 0.0
H150 H 0.05685 0.70862 0.4961 0.0
H151 H 0.06019 0.72684 0.46396 0.0
C152 C 0.00314 0.78214 0.57659 0.0
N153 N 0.01293 0.78285 0.54715 0.0
N154 N 0.02692 0.77001 0.54772 0.0
C155 C 0.02609 0.76028 0.57726 0.0
C156 C 0.01114 0.76776 0.59673 0.0
C157 C 0.98826 0.7967 0.58677 0.0
H158 H 0.9919 0.81102 0.57601 0.0
H159 H 0.97402 0.7922 0.57663 0.0
H160 H 0.98718 0.79802 0.61469 0.0
O161 O 0.03346 0.81744 0.51005 0.0
O162 O 0.05802 0.79689 0.51071 0.0
H163 H 0.05357 0.75036 0.5946 0.0
H164 H 0.03354 0.73559 0.60812 0.0
C165 C 0.03946 0.74423 0.58686 0.0
H166 H 0.04176 0.73459 0.56486 0.0
H167 H 0.08117 0.77192 0.55665 0.0
O168 O 0.98774 0.81585 0.51215 0.0
C169 C 0.05151 0.81409 0.51013 0.0
Co170 Co 0.19956 0.01085 0.50546 0.0
Co171 Co 0.22758 0.04637 0.50584 0.0
C172 C 0.22786 0.01884 0.44831 0.0
O173 O 0.21446 0.00921 0.46255 0.0
O174 O 0.23501 0.03378 0.46237 0.0
C175 C 0.1778 0.97815 0.48456 0.0
O176 O 0.18111 0.98545 0.45443 0.0
C177 C 0.26261 0.07077 0.50751 0.0
C178 C 0.25205 0.09547 0.53772 0.0
C179 C 0.2683 0.08822 0.52173 0.0
N180 N 0.24389 0.06788 0.51504 0.0
N181 N 0.23766 0.08278 0.53282 0.0
C182 C 0.27498 0.05626 0.48974 0.0
H183 H 0.26918 0.0415 0.49372 0.0
H184 H 0.2901 0.05702 0.49893 0.0
H185 H 0.27484 0.05935 0.46217 0.0
C186 C 0.21594 0.0059 0.57387 0.0
N187 N 0.21588 0.01441 0.54322 0.0
N188 N 0.22821 0.02884 0.54314 0.0
C189 C 0.23687 0.0297 0.5737 0.0
C190 C 0.22927 0.01532 0.59436 0.0
C191 C 0.20149 0.99098 0.58438 0.0
H192 H 0.18699 0.99503 0.57479 0.0
H193 H 0.20546 0.97692 0.57284 0.0
H194 H 0.20075 0.98933 0.61226 0.0
O195 O 0.18111 0.03245 0.50293 0.0
O196 O 0.20111 0.05746 0.50139 0.0
H197 H 0.2447 0.05849 0.58742 0.0
H198 H 0.25949 0.04008 0.60679 0.0
C199 C 0.25178 0.04433 0.58333 0.0
H200 H 0.26245 0.04582 0.56262 0.0
H201 H 0.22364 0.08407 0.54223 0.0
O202 O 0.18451 0.98668 0.51049 0.0
C203 C 0.18406 0.05055 0.5011 0.0
Co204 Co 0.98739 0.19917 0.50415 0.0
Co205 Co 0.9527 0.22832 0.50772 0.0
C206 C 0.97856 0.22797 0.44813 0.0
O207 O 0.98835 0.21443 0.46161 0.0
O208 O 0.96395 0.23523 0.46309 0.0
C209 C 0.01993 0.17754 0.48069 0.0
O210 O 0.01302 0.18221 0.45083 0.0
C211 C 0.92818 0.26338 0.51062 0.0
C212 C 0.90618 0.25389 0.54763 0.0
C213 C 0.91194 0.2695 0.52824 0.0
N214 N 0.93189 0.245 0.51952 0.0
N215 N 0.91856 0.23939 0.54133 0.0
C216 C 0.94088 0.27514 0.488 0.0
H217 H 0.95609 0.2703 0.49036 0.0
H218 H 0.9398 0.29072 0.4942 0.0
H219 H 0.93628 0.27299 0.46135 0.0
C220 C 0.99493 0.21575 0.57173 0.0
N221 N 0.98537 0.21559 0.54206 0.0
N222 N 0.97153 0.22858 0.54287 0.0
C223 C 0.97221 0.23783 0.57288 0.0
C224 C 0.98689 0.22987 0.59237 0.0
C225 C 0.00967 0.20091 0.58134 0.0
H226 H 0.00513 0.18653 0.57191 0.0
H227 H 0.02362 0.20459 0.56914 0.0
H228 H 0.01176 0.2001 0.60913 0.0
O229 O 0.96515 0.18136 0.50311 0.0
O230 O 0.94087 0.20223 0.50466 0.0
H231 H 0.94484 0.2477 0.59083 0.0
H232 H 0.96495 0.26225 0.60446 0.0
C233 C 0.95892 0.25385 0.58301 0.0
H234 H 0.95658 0.26369 0.5613 0.0
H235 H 0.91819 0.22575 0.55255 0.0
O236 O 0.01128 0.18339 0.50715 0.0
C237 C 0.94713 0.18496 0.5033 0.0
Co238 Co 0.80242 0.98652 0.50378 0.0
Co239 Co 0.77209 0.95303 0.50627 0.0
C240 C 0.77278 0.97988 0.44822 0.0
O241 O 0.78686 0.98886 0.46174 0.0
O242 O 0.7651 0.96528 0.46254 0.0
C243 C 0.81302 0.02651 0.50168 0.0
O244 O 0.79461 0.0291 0.49508 0.0
C245 C 0.73645 0.9293 0.50952 0.0
C246 C 0.74574 0.90718 0.54648 0.0
C247 C 0.73012 0.91329 0.5275 0.0
N248 N 0.75498 0.9326 0.51792 0.0
N249 N 0.76047 0.91917 0.53964 0.0
C250 C 0.72478 0.94219 0.48708 0.0
H251 H 0.72981 0.95733 0.48951 0.0
H252 H 0.7092 0.94126 0.49338 0.0
H253 H 0.72683 0.93763 0.46039 0.0
C254 C 0.78653 0.99365 0.57235 0.0
N255 N 0.7863 0.9846 0.54216 0.0
N256 N 0.77273 0.97132 0.5423 0.0
C257 C 0.76344 0.97195 0.57226 0.0
C258 C 0.77203 0.9859 0.59251 0.0
C259 C 0.80186 0.00765 0.58288 0.0
H260 H 0.81582 0.00375 0.571 0.0
H261 H 0.79776 0.02231 0.57419 0.0
H262 H 0.80366 0.00791 0.61078 0.0
O263 O 0.81937 0.96371 0.50113 0.0
O264 O 0.79764 0.94024 0.50183 0.0
H265 H 0.7519 0.945 0.58915 0.0
H266 H 0.73833 0.96577 0.60285 0.0
C267 C 0.74662 0.95946 0.5815 0.0
H268 H 0.73689 0.95786 0.55943 0.0
H269 H 0.77418 0.91853 0.55055 0.0
O270 O 0.81928 0.00951 0.50667 0.0
C271 C 0.81511 0.94585 0.50042 0.0
Co272 Co 0.51115 0.69933 0.53964 0.0
Co273 Co 0.54538 0.72882 0.53902 0.0
C274 C 0.51764 0.72833 0.59604 0.0
O275 O 0.50844 0.71458 0.58191 0.0
O276 O 0.53258 0.73569 0.58235 0.0
C277 C 0.47092 0.68976 0.53907 0.0
O278 O 0.46867 0.70826 0.54521 0.0
C279 C 0.5689 0.76446 0.53827 0.0
C280 C 0.59283 0.75534 0.50484 0.0
C281 C 0.58573 0.77092 0.5229 0.0
N282 N 0.56615 0.74592 0.52938 0.0
N283 N 0.5806 0.74054 0.50969 0.0
C284 C 0.55481 0.77598 0.55862 0.0
H285 H 0.53993 0.77056 0.55438 0.0
H286 H 0.5556 0.79153 0.55194 0.0
H287 H 0.55827 0.77431 0.5859 0.0
C288 C 0.50554 0.71546 0.47087 0.0
N289 N 0.51405 0.71555 0.50154 0.0
N290 N 0.52775 0.72869 0.50196 0.0
C291 C 0.52801 0.73779 0.47179 0.0
C292 C 0.51412 0.72958 0.45092 0.0
C293 C 0.4914 0.70041 0.45967 0.0
H294 H 0.49483 0.68637 0.47173 0.0
H295 H 0.47669 0.70481 0.46765 0.0
H296 H 0.49153 0.69858 0.43178 0.0
O297 O 0.53358 0.68189 0.54311 0.0
O298 O 0.55764 0.703 0.54367 0.0
H299 H 0.55593 0.74788 0.45706 0.0
H300 H 0.53623 0.762 0.44038 0.0
C301 C 0.54147 0.75389 0.46281 0.0
H302 H 0.54275 0.76399 0.48442 0.0
H303 H 0.58189 0.72683 0.49896 0.0
O304 O 0.48785 0.68303 0.53539 0.0
C305 C 0.55153 0.68568 0.54465 0.0
Co306 Co 0.3029 0.51267 0.54114 0.0
Co307 Co 0.27176 0.5453 0.53654 0.0
C308 C 0.27353 0.52031 0.59697 0.0
O309 O 0.28794 0.51155 0.58403 0.0
O310 O 0.26503 0.53393 0.58121 0.0
C311 C 0.31351 0.47285 0.54567 0.0
O312 O 0.29502 0.47048 0.55175 0.0
C313 C 0.23589 0.56869 0.53289 0.0
C314 C 0.24452 0.58999 0.494 0.0
C315 C 0.22924 0.58435 0.51428 0.0
N316 N 0.25425 0.56518 0.52369 0.0
N317 N 0.25934 0.57809 0.50073 0.0
C318 C 0.22469 0.55641 0.55704 0.0
H319 H 0.22956 0.54118 0.55526 0.0
H320 H 0.20898 0.5573 0.55184 0.0
H321 H 0.22742 0.56152 0.58324 0.0
C322 C 0.28702 0.50367 0.4732 0.0
N323 N 0.28649 0.51324 0.50288 0.0
N324 N 0.27264 0.52621 0.50187 0.0
C325 C 0.26346 0.52484 0.47188 0.0
C326 C 0.27242 0.51073 0.45246 0.0
C327 C 0.30279 0.48998 0.46345 0.0
H328 H 0.31657 0.49439 0.47542 0.0
H329 H 0.29904 0.4753 0.47259 0.0
H330 H 0.30477 0.48943 0.4356 0.0
O331 O 0.31948 0.53572 0.54117 0.0
O332 O 0.29719 0.55866 0.53961 0.0
H333 H 0.25162 0.55117 0.4528 0.0
H334 H 0.23826 0.52992 0.44096 0.0
C335 C 0.2465 0.5369 0.46172 0.0
H336 H 0.23679 0.53903 0.48369 0.0
H337 H 0.27287 0.5785 0.48911 0.0
O338 O 0.31992 0.48974 0.54001 0.0
C339 C 0.31481 0.55348 0.54078 0.0
Co340 Co 0.4885 0.30153 0.54111 0.0
Co341 Co 0.45451 0.27166 0.54009 0.0
C342 C 0.48213 0.27201 0.59706 0.0
O343 O 0.49117 0.28594 0.58309 0.0
O344 O 0.46723 0.26456 0.58338 0.0
C345 C 0.52878 0.31161 0.5404 0.0
O346 O 0.53139 0.29307 0.54574 0.0
C347 C 0.43022 0.23626 0.53723 0.0
C348 C 0.40734 0.2464 0.50247 0.0
C349 C 0.41365 0.2304 0.52029 0.0
N350 N 0.4336 0.25487 0.52936 0.0
N351 N 0.41972 0.26085 0.50896 0.0
C352 C 0.44351 0.22409 0.55805 0.0
H353 H 0.45854 0.22951 0.55595 0.0
H354 H 0.44285 0.20876 0.54998 0.0
H355 H 0.43906 0.225 0.58499 0.0
C356 C 0.49421 0.28573 0.47207 0.0
N357 N 0.48574 0.28547 0.50278 0.0
N358 N 0.47234 0.27202 0.50329 0.0
C359 C 0.47235 0.2628 0.47325 0.0
C360 C 0.48599 0.27133 0.45222 0.0
C361 C 0.50795 0.30113 0.46078 0.0
H362 H 0.50461 0.31493 0.4737 0.0
H363 H 0.52286 0.29677 0.46759 0.0
H364 H 0.50722 0.30339 0.43301 0.0
O365 O 0.46601 0.31883 0.54463 0.0
O366 O 0.44219 0.29748 0.54483 0.0
H367 H 0.44496 0.25147 0.4582 0.0
H368 H 0.46532 0.23781 0.44289 0.0
C369 C 0.45956 0.24608 0.46472 0.0
H370 H 0.45841 0.2363 0.48681 0.0
H371 H 0.41901 0.27471 0.49868 0.0
O372 O 0.51171 0.31809 0.53726 0.0
C373 C 0.44809 0.31487 0.54596 0.0
Co374 Co 0.69802 0.48897 0.53949 0.0
Co375 Co 0.72815 0.45546 0.53338 0.0
C376 C 0.72692 0.48028 0.5949 0.0
O377 O 0.71277 0.4896 0.58239 0.0
O378 O 0.73495 0.46658 0.57855 0.0
C379 C 0.68644 0.52815 0.55036 0.0
O380 O 0.70393 0.52988 0.56282 0.0
C381 C 0.76434 0.43281 0.53023 0.0
C382 C 0.75557 0.40931 0.49562 0.0
C383 C 0.77103 0.41626 0.51419 0.0
N384 N 0.74579 0.43551 0.52133 0.0
N385 N 0.74064 0.42133 0.50085 0.0
C386 C 0.77553 0.44647 0.55198 0.0
H387 H 0.77005 0.46141 0.54858 0.0
H388 H 0.79115 0.4459 0.54583 0.0
H389 H 0.77354 0.44238 0.57892 0.0
C390 C 0.71454 0.49907 0.47269 0.0
N391 N 0.71462 0.4886 0.50141 0.0
N392 N 0.72749 0.47471 0.49875 0.0
C393 C 0.73612 0.476 0.46817 0.0
C394 C 0.7281 0.49143 0.45052 0.0
C395 C 0.70106 0.51554 0.46622 0.0
H396 H 0.70334 0.52678 0.48578 0.0
H397 H 0.70342 0.52215 0.44098 0.0
H398 H 0.68593 0.51043 0.46833 0.0
O399 O 0.68108 0.46603 0.53896 0.0
O400 O 0.70263 0.44242 0.53632 0.0
H401 H 0.74197 0.44749 0.4505 0.0
H402 H 0.75629 0.4657 0.43009 0.0
C403 C 0.74984 0.46124 0.45452 0.0
H404 H 0.76154 0.45868 0.47311 0.0
H405 H 0.72692 0.41998 0.49018 0.0
O406 O 0.68107 0.51197 0.53849 0.0
C407 C 0.68518 0.44813 0.53796 0.0
Co408 Co 0.5122 0.30238 0.00295 0.0
Co409 Co 0.54605 0.27263 0.00955 0.0
C410 C 0.52136 0.27304 0.94829 0.0
O411 O 0.51172 0.28703 0.96068 0.0
O412 O 0.53541 0.26551 0.96441 0.0
C413 C 0.47251 0.31262 0.99388 0.0
O414 O 0.47089 0.29462 0.9838 0.0
C415 C 0.56962 0.23704 0.0147 0.0
C416 C 0.5916 0.24653 0.05171 0.0
C417 C 0.58561 0.23081 0.03286 0.0
N418 N 0.56626 0.25559 0.02279 0.0
N419 N 0.57958 0.26121 0.04461 0.0
C420 C 0.55692 0.22531 0.99204 0.0
H421 H 0.54176 0.23037 0.99404 0.0
H422 H 0.55777 0.20975 0.99853 0.0
H423 H 0.5617 0.22727 0.96545 0.0
C424 C 0.50266 0.28655 0.07027 0.0
N425 N 0.51288 0.28619 0.04131 0.0
N426 N 0.52655 0.27307 0.0437 0.0
C427 C 0.5251 0.26432 0.07414 0.0
C428 C 0.51001 0.27266 0.09201 0.0
C429 C 0.4871 0.30091 0.0778 0.0
H430 H 0.49237 0.31568 0.07209 0.0
H431 H 0.47454 0.29797 0.0612 0.0
H432 H 0.48227 0.30012 0.10454 0.0
O433 O 0.53483 0.31969 0.00309 0.0
O434 O 0.55862 0.29836 0.00635 0.0
H435 H 0.55289 0.2574 0.09407 0.0
H436 H 0.53372 0.24267 0.11067 0.0
C437 C 0.53924 0.24991 0.08758 0.0
H438 H 0.54228 0.23885 0.06803 0.0
H439 H 0.58021 0.27499 0.05521 0.0
O440 O 0.48886 0.31883 0.00358 0.0
C441 C 0.55275 0.31574 0.00432 0.0
Co442 Co 0.6999 0.51205 0.00074 0.0
Co443 Co 0.72841 0.54709 0.00136 0.0
C444 C 0.72834 0.51891 0.94418 0.0
O445 O 0.71451 0.50967 0.95789 0.0
O446 O 0.73575 0.53364 0.95852 0.0
C447 C 0.68889 0.4722 0.99541 0.0
O448 O 0.70618 0.47013 0.98223 0.0
C449 C 0.76492 0.56881 0.00838 0.0
C450 C 0.75376 0.59761 0.0223 0.0
C451 C 0.77072 0.58741 0.0171 0.0
N452 N 0.74551 0.5682 0.00874 0.0
N453 N 0.73897 0.5855 0.0168 0.0
C454 C 0.77732 0.55148 0.00226 0.0
H455 H 0.7689 0.53804 0.00632 0.0
H456 H 0.79009 0.55167 0.01922 0.0
H457 H 0.7824 0.55165 0.97562 0.0
C458 C 0.7167 0.50626 0.06885 0.0
N459 N 0.71649 0.51517 0.03856 0.0
N460 N 0.72816 0.53016 0.03951 0.0
C461 C 0.73593 0.53144 0.07079 0.0
C462 C 0.72896 0.51629 0.09044 0.0
C463 C 0.70469 0.48894 0.07718 0.0
H464 H 0.70722 0.4776 0.05792 0.0
H465 H 0.70825 0.48296 0.10247 0.0
H466 H 0.68919 0.49294 0.07632 0.0
O467 O 0.68203 0.53433 0.99787 0.0
O468 O 0.7025 0.55891 0.99626 0.0
H469 H 0.74046 0.56196 0.07442 0.0
H470 H 0.74848 0.54874 0.11102 0.0
C471 C 0.74737 0.5484 0.08303 0.0
H472 H 0.76211 0.5477 0.0722 0.0
H473 H 0.72437 0.58897 0.01916 0.0
O474 O 0.68356 0.48875 0.00564 0.0
C475 C 0.68533 0.55237 0.99588 0.0
Co476 Co 0.48634 0.69629 0.00315 0.0
Co477 Co 0.45246 0.72621 0.00737 0.0
C478 C 0.47833 0.72562 0.94773 0.0
O479 O 0.48774 0.71166 0.96078 0.0
O480 O 0.46397 0.73318 0.96297 0.0
C481 C 0.52639 0.68594 0.99874 0.0
O482 O 0.52871 0.7043 0.99143 0.0
C483 C 0.42892 0.76192 0.0116 0.0
C484 C 0.40639 0.75236 0.04754 0.0
C485 C 0.41273 0.76817 0.02923 0.0
N486 N 0.43205 0.74329 0.0195 0.0
N487 N 0.4184 0.73764 0.04066 0.0
C488 C 0.44215 0.77374 0.99003 0.0
H489 H 0.45712 0.76813 0.99178 0.0
H490 H 0.44181 0.78915 0.99775 0.0
H491 H 0.43741 0.77268 0.96326 0.0
C492 C 0.49451 0.71242 0.07114 0.0
N493 N 0.48487 0.7125 0.04152 0.0
N494 N 0.47127 0.72575 0.04258 0.0
C495 C 0.47219 0.73489 0.07266 0.0
C496 C 0.48678 0.72663 0.09193 0.0
C497 C 0.50908 0.69741 0.08069 0.0
H498 H 0.50504 0.68329 0.06956 0.0
H499 H 0.52337 0.70165 0.07043 0.0
H500 H 0.51028 0.69583 0.10856 0.0
O501 O 0.46366 0.67911 0.0018 0.0
O502 O 0.43988 0.70051 0.0036 0.0
H503 H 0.44495 0.74529 0.09033 0.0
H504 H 0.46534 0.75921 0.10482 0.0
C505 C 0.45925 0.75115 0.08302 0.0
H506 H 0.45733 0.76125 0.06156 0.0
H507 H 0.41757 0.72382 0.05108 0.0
O508 O 0.50955 0.67963 0.00501 0.0
C509 C 0.44573 0.68311 0.00195 0.0
Co510 Co 0.30028 0.48593 0.00309 0.0
Co511 Co 0.27007 0.45238 0.00525 0.0
C512 C 0.27107 0.47903 0.94687 0.0
O513 O 0.28524 0.48784 0.96044 0.0
O514 O 0.26297 0.4648 0.9616 0.0
C515 C 0.31029 0.52602 0.00119 0.0
O516 O 0.29184 0.52832 0.99463 0.0
C517 C 0.23421 0.42908 0.009 0.0
C518 C 0.24386 0.4059 0.0436 0.0
C519 C 0.22795 0.41275 0.02617 0.0
N520 N 0.25296 0.43184 0.01637 0.0
N521 N 0.25867 0.41778 0.03665 0.0
C522 C 0.22229 0.44276 0.98849 0.0
H523 H 0.22802 0.45766 0.99093 0.0
H524 H 0.20695 0.44235 0.99655 0.0
H525 H 0.22312 0.4385 0.96145 0.0
C526 C 0.2847 0.49258 0.0719 0.0
N527 N 0.28408 0.4839 0.04139 0.0
N528 N 0.27068 0.47045 0.04169 0.0
C529 C 0.26193 0.47057 0.07219 0.0
C530 C 0.27067 0.48439 0.09254 0.0
C531 C 0.30023 0.50639 0.08233 0.0
H532 H 0.31408 0.50239 0.07016 0.0
H533 H 0.29624 0.52112 0.07379 0.0
H534 H 0.30222 0.50658 0.11018 0.0
O535 O 0.31739 0.46333 0.00101 0.0
O536 O 0.2958 0.4397 0.00063 0.0
H537 H 0.25156 0.44296 0.08808 0.0
H538 H 0.23795 0.46303 0.10462 0.0
C539 C 0.24572 0.45746 0.08207 0.0
H540 H 0.23536 0.45614 0.06085 0.0
H541 H 0.27258 0.41664 0.04661 0.0
O542 O 0.31683 0.50911 0.00607 0.0
C543 C 0.31326 0.44546 0.9998 0.0
H544 H 0.10365 0.28826 0.97289 0.0
H545 H 0.12251 0.31804 0.97668 0.0
H546 H 0.10682 0.32377 0.0818 0.0
H547 H 0.08799 0.29385 0.0783 0.0
H548 H 0.11221 0.35904 0.00542 0.0
H549 H 0.16838 0.31595 0.07271 0.0
H550 H 0.15021 0.3047 0.04657 0.0
H551 H 0.14378 0.31433 0.08714 0.0
C552 C 0.10392 0.29607 0.99665 0.0
C553 C 0.09429 0.28882 0.02525 0.0
C554 C 0.11458 0.31311 0.99869 0.0
C555 C 0.11597 0.32303 0.02947 0.0
C556 C 0.10574 0.31631 0.05777 0.0
H557 H 0.20916 0.40075 0.08228 0.0
H558 H 0.17917 0.38225 0.08514 0.0
C559 C 0.09492 0.2993 0.05568 0.0
C560 C 0.13004 0.33892 0.03272 0.0
H561 H 0.17587 0.34794 0.0595 0.0
C562 C 0.12607 0.3568 0.01758 0.0
C563 C 0.14804 0.3358 0.04853 0.0
C564 C 0.15304 0.31667 0.06459 0.0
C565 C 0.13982 0.37173 0.0177 0.0
C566 C 0.15813 0.36838 0.03253 0.0
C567 C 0.16183 0.35056 0.04824 0.0
C568 C 0.17412 0.38261 0.03104 0.0
C569 C 0.13455 0.3909 0.00215 0.0
C570 C 0.18102 0.38944 0.99976 0.0
C571 C 0.19801 0.40033 0.99819 0.0
C572 C 0.20852 0.40417 0.02779 0.0
C573 C 0.20129 0.39791 0.0591 0.0
C574 C 0.18417 0.38738 0.06075 0.0
H575 H 0.11869 0.39329 0.00272 0.0
H576 H 0.14174 0.40304 0.01546 0.0
H577 H 0.13917 0.39104 0.97525 0.0
H578 H 0.17387 0.3855 0.97639 0.0
H579 H 0.20352 0.40473 0.97371 0.0
H580 H 0.70657 0.09203 0.07768 0.0
H581 H 0.67727 0.11176 0.08206 0.0
H582 H 0.67946 0.12291 0.97474 0.0
H583 H 0.70871 0.10325 0.97019 0.0
H584 H 0.67919 0.15257 0.05834 0.0
H585 H 0.62089 0.11001 0.99683 0.0
H586 H 0.64187 0.09888 0.01584 0.0
H587 H 0.64383 0.11059 0.97547 0.0
C588 C 0.70045 0.09818 0.05489 0.0
C589 C 0.70975 0.09599 0.02353 0.0
C590 C 0.68379 0.1095 0.05745 0.0
C591 C 0.6761 0.11852 0.02863 0.0
C592 C 0.68498 0.11575 0.99713 0.0
H593 H 0.59525 0.20825 0.97864 0.0
H594 H 0.61566 0.1793 0.97946 0.0
C595 C 0.70173 0.10466 0.99462 0.0
C596 C 0.66049 0.1329 0.03197 0.0
H597 H 0.61431 0.14312 0.00776 0.0
C598 C 0.66489 0.15045 0.04775 0.0
C599 C 0.64205 0.1301 0.01754 0.0
C600 C 0.63672 0.11134 0.00061 0.0
C601 C 0.65153 0.16561 0.0486 0.0
C602 C 0.63298 0.16287 0.03429 0.0
C603 C 0.62847 0.14515 0.0189 0.0
C604 C 0.61844 0.17857 0.03405 0.0
C605 C 0.65779 0.18471 0.06346 0.0
C606 C 0.61262 0.18724 0.06448 0.0
C607 C 0.60127 0.20387 0.06399 0.0
C608 C 0.59506 0.21175 0.03312 0.0
C609 C 0.59971 0.20231 0.00276 0.0
C610 C 0.61139 0.18583 0.00323 0.0
H611 H 0.67376 0.186 0.06452 0.0
H612 H 0.65204 0.197 0.0485 0.0
H613 H 0.65224 0.18591 0.08972 0.0
H614 H 0.61746 0.18157 0.08858 0.0
H615 H 0.59771 0.21084 0.08773 0.0
H616 H 0.78109 0.61547 0.06097 0.0
H617 H 0.8119 0.63215 0.06507 0.0
H618 H 0.83573 0.59477 0.9884 0.0
H619 H 0.80451 0.57853 0.98294 0.0
H620 H 0.84888 0.62074 0.08034 0.0
H621 H 0.84393 0.64796 0.94777 0.0
H622 H 0.82387 0.63633 0.96849 0.0
H623 H 0.84382 0.62222 0.95328 0.0
C624 C 0.79289 0.61068 0.04505 0.0
C625 C 0.7903 0.5956 0.0217 0.0
C626 C 0.81056 0.62017 0.0476 0.0
C627 C 0.82607 0.61486 0.02681 0.0
C628 C 0.82387 0.59926 0.0044 0.0
H629 H 0.92433 0.69533 0.00894 0.0
H630 H 0.90781 0.66395 0.00727 0.0
C631 C 0.80606 0.58978 0.00168 0.0
C632 C 0.84387 0.62674 0.02753 0.0
H633 H 0.86817 0.6609 0.98204 0.0
C634 C 0.85336 0.62924 0.05865 0.0
C635 C 0.84975 0.63779 0.99918 0.0
C636 C 0.83979 0.63612 0.9653 0.0
C637 C 0.86774 0.64331 0.06269 0.0
C638 C 0.87268 0.65517 0.03495 0.0
C639 C 0.86428 0.65172 0.00322 0.0
C640 C 0.88418 0.67297 0.03937 0.0
C641 C 0.87696 0.64598 0.09694 0.0
C642 C 0.87633 0.68833 0.05798 0.0
C643 C 0.88562 0.70618 0.05874 0.0
C644 C 0.90304 0.70892 0.04129 0.0
C645 C 0.91121 0.6934 0.02343 0.0
C646 C 0.90174 0.67555 0.02225 0.0
H647 H 0.87586 0.63267 0.11253 0.0
H648 H 0.8924 0.65003 0.0944 0.0
H649 H 0.86943 0.65778 0.11061 0.0
H650 H 0.86259 0.68674 0.07077 0.0
H651 H 0.87897 0.71801 0.0724 0.0
H652 H 0.29122 0.89674 0.96955 0.0
H653 H 0.32023 0.87677 0.97441 0.0
H654 H 0.32246 0.8883 0.08158 0.0
H655 H 0.29329 0.90815 0.07701 0.0
H656 H 0.35997 0.8843 0.00684 0.0
H657 H 0.31392 0.82783 0.06676 0.0
H658 H 0.30382 0.84729 0.04207 0.0
H659 H 0.31278 0.85188 0.08389 0.0
C660 C 0.29811 0.89531 0.99404 0.0
C661 C 0.29008 0.90409 0.02286 0.0
C662 C 0.31471 0.88401 0.99672 0.0
C663 C 0.3234 0.8811 0.02832 0.0
C664 C 0.31594 0.89049 0.05695 0.0
H665 H 0.39911 0.78681 0.0844 0.0
H666 H 0.38028 0.81662 0.08598 0.0
C667 C 0.29937 0.90193 0.05426 0.0
C668 C 0.33882 0.86651 0.0317 0.0
H669 H 0.34631 0.82011 0.0571 0.0
C670 C 0.35713 0.87031 0.01811 0.0
C671 C 0.33493 0.84831 0.04629 0.0
C672 C 0.31529 0.8434 0.06047 0.0
C673 C 0.37177 0.85625 0.01876 0.0
C674 C 0.36772 0.83783 0.03259 0.0
C675 C 0.34945 0.83424 0.04662 0.0
C676 C 0.3818 0.8217 0.03197 0.0
C677 C 0.39141 0.86132 0.00492 0.0
C678 C 0.38928 0.81482 0.00115 0.0
C679 C 0.40029 0.79788 0.00029 0.0
C680 C 0.40369 0.78744 0.03016 0.0
C681 C 0.39667 0.79462 0.06102 0.0
C682 C 0.38594 0.81165 0.06195 0.0
H683 H 0.39398 0.87715 0.00569 0.0
H684 H 0.40307 0.85398 0.0193 0.0
H685 H 0.3923 0.85667 0.97809 0.0
H686 H 0.38582 0.82199 0.97756 0.0
H687 H 0.40518 0.79241 0.97609 0.0
H688 H 0.09195 0.70685 0.47229 0.0
H689 H 0.11138 0.67739 0.46759 0.0
H690 H 0.12188 0.67864 0.57516 0.0
H691 H 0.10243 0.708 0.58005 0.0
H692 H 0.15153 0.67824 0.49017 0.0
H693 H 0.1089 0.62067 0.55347 0.0
H694 H 0.09794 0.64206 0.53562 0.0
H695 H 0.11028 0.64335 0.57551 0.0
C696 C 0.09787 0.70049 0.49506 0.0
C697 C 0.09553 0.70955 0.5266 0.0
C698 C 0.10903 0.68374 0.49232 0.0
C699 C 0.11778 0.67572 0.52112 0.0
C700 C 0.11491 0.68439 0.55278 0.0
H701 H 0.20775 0.59479 0.56941 0.0
H702 H 0.17889 0.61534 0.56942 0.0
C703 C 0.10395 0.70122 0.55547 0.0
C704 C 0.13197 0.65993 0.51766 0.0
H705 H 0.14201 0.61381 0.5425 0.0
C706 C 0.14938 0.66404 0.50115 0.0
C707 C 0.12914 0.64161 0.53254 0.0
C708 C 0.11051 0.63651 0.55011 0.0
C709 C 0.16439 0.6505 0.50001 0.0
C710 C 0.16162 0.63209 0.51486 0.0
C711 C 0.14405 0.62787 0.53099 0.0
C712 C 0.17716 0.6174 0.5148 0.0
C713 C 0.18335 0.65641 0.48421 0.0
C714 C 0.18522 0.61113 0.48414 0.0
C715 C 0.20177 0.59967 0.48413 0.0
C716 C 0.21021 0.59383 0.51477 0.0
C717 C 0.20137 0.59894 0.54547 0.0
C718 C 0.18495 0.61071 0.54547 0.0
H719 H 0.18477 0.67236 0.48253 0.0
H720 H 0.19576 0.65071 0.49891 0.0
H721 H 0.18419 0.65054 0.45812 0.0
H722 H 0.17914 0.61572 0.46019 0.0
H723 H 0.20827 0.59576 0.46014 0.0
H724 H 0.40589 0.20606 0.57321 0.0
H725 H 0.38569 0.17701 0.57161 0.0
H726 H 0.38002 0.18293 0.46329 0.0
H727 H 0.39962 0.21221 0.46504 0.0
H728 H 0.34603 0.18056 0.49238 0.0
H729 H 0.39183 0.12166 0.54278 0.0
H730 H 0.39082 0.14211 0.57057 0.0
H731 H 0.40168 0.14456 0.52938 0.0
C732 C 0.40076 0.2008 0.54901 0.0
C733 C 0.40431 0.21128 0.51924 0.0
C734 C 0.38928 0.18417 0.54807 0.0
C735 C 0.3815 0.17763 0.51725 0.0
C736 C 0.38588 0.18765 0.48733 0.0
H737 H 0.29425 0.09052 0.46931 0.0
H738 H 0.32384 0.10995 0.4675 0.0
C739 C 0.39705 0.20438 0.48835 0.0
C740 C 0.36687 0.16199 0.51652 0.0
H741 H 0.35764 0.11555 0.54099 0.0
C742 C 0.34872 0.16626 0.50254 0.0
C743 C 0.37033 0.14334 0.52991 0.0
C744 C 0.38979 0.13756 0.5437 0.0
C745 C 0.33383 0.15261 0.50232 0.0
C746 C 0.33712 0.13421 0.51651 0.0
C747 C 0.35527 0.12972 0.5301 0.0
C748 C 0.32127 0.12008 0.51908 0.0
C749 C 0.31443 0.15804 0.48777 0.0
C750 C 0.31033 0.11918 0.54885 0.0
C751 C 0.29347 0.1082 0.54992 0.0
C752 C 0.28738 0.09776 0.52135 0.0
C753 C 0.2988 0.09805 0.49195 0.0
C754 C 0.31564 0.10919 0.49081 0.0
H755 H 0.31398 0.17327 0.47898 0.0
H756 H 0.31103 0.14849 0.46602 0.0
H757 H 0.30299 0.15591 0.5071 0.0
H758 H 0.31441 0.12766 0.57077 0.0
H759 H 0.28492 0.10823 0.5729 0.0
H760 H 0.79315 0.4105 0.57074 0.0
H761 H 0.82205 0.39021 0.57523 0.0
H762 H 0.81996 0.37936 0.46783 0.0
H763 H 0.79109 0.39956 0.46318 0.0
H764 H 0.81898 0.34946 0.55101 0.0
H765 H 0.87886 0.39051 0.49089 0.0
H766 H 0.85817 0.4022 0.50988 0.0
H767 H 0.85595 0.39074 0.46935 0.0
C768 C 0.79924 0.40434 0.54794 0.0
C769 C 0.79003 0.40673 0.51654 0.0
C770 C 0.81567 0.39269 0.55057 0.0
C771 C 0.82323 0.38354 0.52178 0.0
C772 C 0.81453 0.38659 0.4902 0.0
H773 H 0.90274 0.29195 0.47356 0.0
H774 H 0.88261 0.32111 0.47364 0.0
C775 C 0.798 0.39801 0.48763 0.0
C776 C 0.83841 0.36869 0.52522 0.0
H777 H 0.88446 0.35726 0.50195 0.0
C778 C 0.8334 0.35121 0.54073 0.0
C779 C 0.85701 0.37101 0.51118 0.0
C780 C 0.86298 0.38966 0.49453 0.0
C781 C 0.84634 0.33568 0.54176 0.0
C782 C 0.86507 0.33796 0.5279 0.0
C783 C 0.87016 0.35558 0.51272 0.0
C784 C 0.87924 0.32192 0.52813 0.0
C785 C 0.83946 0.31674 0.55636 0.0
C786 C 0.8846 0.31316 0.55875 0.0
C787 C 0.89579 0.29643 0.55868 0.0
C788 C 0.90232 0.28848 0.52805 0.0
C789 C 0.89804 0.29793 0.49752 0.0
C790 C 0.88652 0.31453 0.49755 0.0
H791 H 0.82345 0.31584 0.55688 0.0
H792 H 0.84507 0.30432 0.54157 0.0
H793 H 0.84469 0.31538 0.5828 0.0
H794 H 0.87958 0.31891 0.58268 0.0
H795 H 0.89908 0.28948 0.58257 0.0
H796 H 0.59065 0.79418 0.57825 0.0
H797 H 0.61008 0.82376 0.58131 0.0
H798 H 0.62165 0.81986 0.47427 0.0
H799 H 0.60234 0.79034 0.47107 0.0
H800 H 0.65098 0.82133 0.55791 0.0
H801 H 0.60874 0.87882 0.49341 0.0
H802 H 0.59751 0.85821 0.51348 0.0
H803 H 0.60921 0.85553 0.47324 0.0
C804 C 0.59683 0.79999 0.55522 0.0
C805 C 0.59491 0.79011 0.52436 0.0
C806 C 0.60795 0.81681 0.55702 0.0
C807 C 0.61702 0.82408 0.52791 0.0
C808 C 0.61445 0.81466 0.49686 0.0
H809 H 0.70738 0.90325 0.47377 0.0
H810 H 0.67812 0.88328 0.47564 0.0
C811 C 0.60356 0.79775 0.49513 0.0
C812 C 0.63141 0.83971 0.53062 0.0
H813 H 0.64191 0.88539 0.50394 0.0
C814 C 0.64894 0.83546 0.5466 0.0
C815 C 0.62872 0.85791 0.51522 0.0
C816 C 0.60999 0.86305 0.498 0.0
C817 C 0.66419 0.84873 0.5467 0.0
C818 C 0.66155 0.86704 0.5314 0.0
C819 C 0.64385 0.87141 0.51583 0.0
C820 C 0.67735 0.88144 0.53036 0.0
C821 C 0.68326 0.84258 0.56179 0.0
C822 C 0.6861 0.88767 0.56047 0.0
C823 C 0.7029 0.89872 0.55939 0.0
C824 C 0.7109 0.90424 0.52821 0.0
C825 C 0.70137 0.89927 0.4981 0.0
C826 C 0.68471 0.88786 0.49917 0.0
H827 H 0.68444 0.82662 0.56368 0.0
H828 H 0.69557 0.84798 0.54648 0.0
H829 H 0.68455 0.84856 0.58775 0.0
H830 H 0.68035 0.88333 0.58482 0.0
H831 H 0.70994 0.90257 0.58294 0.0
H832 H 0.195 0.06284 0.05823 0.0
H833 H 0.17281 0.09038 0.05912 0.0
H834 H 0.12537 0.05257 0.03478 0.0
H835 H 0.14733 0.02497 0.03397 0.0
H836 H 0.14767 0.1036 0.00567 0.0
H837 H 0.10744 0.0816 0.12106 0.0
H838 H 0.13075 0.07169 0.11021 0.0
H839 H 0.1094 0.0633 0.08901 0.0
C840 C 0.17984 0.06037 0.05309 0.0
C841 C 0.17291 0.0417 0.04623 0.0
C842 C 0.16721 0.07612 0.05359 0.0
C843 C 0.14745 0.07342 0.04752 0.0
C844 C 0.14053 0.05487 0.04014 0.0
H845 H 0.04558 0.14478 0.03903 0.0
H846 H 0.06924 0.11864 0.03983 0.0
C847 C 0.15313 0.03914 0.03954 0.0
C848 C 0.13404 0.09002 0.04843 0.0
H849 H 0.09459 0.10781 0.08969 0.0
C850 C 0.13613 0.10464 0.02415 0.0
C851 C 0.11901 0.09123 0.07255 0.0
C852 C 0.11654 0.07622 0.09991 0.0
C853 C 0.12323 0.12024 0.02274 0.0
C854 C 0.10811 0.12141 0.04678 0.0
C855 C 0.10617 0.10686 0.07128 0.0
C856 C 0.09391 0.1374 0.04658 0.0
C857 C 0.12554 0.13498 0.99489 0.0
C858 C 0.09991 0.1566 0.05065 0.0
C859 C 0.08644 0.17161 0.05001 0.0
C860 C 0.06667 0.16767 0.04571 0.0
C861 C 0.06068 0.14836 0.04237 0.0
C862 C 0.07418 0.13338 0.04282 0.0
H863 H 0.13441 0.12933 0.97365 0.0
H864 H 0.11129 0.13952 0.98477 0.0
H865 H 0.13291 0.14793 0.00518 0.0
H866 H 0.11502 0.15999 0.05441 0.0
H867 H 0.09154 0.1863 0.05291 0.0
H868 H 0.93342 0.19398 0.04965 0.0
H869 H 0.90646 0.1711 0.04935 0.0
H870 H 0.94587 0.12452 0.02792 0.0
H871 H 0.9729 0.14718 0.02825 0.0
H872 H 0.89484 0.14488 0.99566 0.0
H873 H 0.91602 0.10684 0.11388 0.0
H874 H 0.92532 0.13035 0.10269 0.0
H875 H 0.9347 0.10908 0.08255 0.0
C876 C 0.93636 0.17888 0.04483 0.0
C877 C 0.95533 0.17239 0.0392 0.0
C878 C 0.92094 0.16584 0.04466 0.0
C879 C 0.92425 0.14612 0.03912 0.0
C880 C 0.94309 0.13965 0.03282 0.0
H881 H 0.85267 0.0435 0.03564 0.0
H882 H 0.87922 0.06677 0.03458 0.0
C883 C 0.95849 0.15265 0.03288 0.0
C884 C 0.90801 0.13227 0.03975 0.0
H885 H 0.89019 0.09336 0.08258 0.0
C886 C 0.89373 0.13366 0.01472 0.0
C887 C 0.90673 0.11763 0.06459 0.0
C888 C 0.9214 0.11589 0.09266 0.0
C889 C 0.87832 0.12052 0.01347 0.0
C890 C 0.87698 0.10591 0.03842 0.0
C891 C 0.89127 0.10456 0.06348 0.0
C892 C 0.86083 0.09189 0.03906 0.0
C893 C 0.8639 0.12213 0.98497 0.0
C894 C 0.84172 0.09828 0.04249 0.0
C895 C 0.82651 0.08505 0.04295 0.0
C896 C 0.83014 0.06511 0.04038 0.0
C897 C 0.84935 0.05873 0.03762 0.0
C898 C 0.86455 0.07201 0.037 0.0
H899 H 0.86986 0.13036 0.96319 0.0
H900 H 0.85937 0.10764 0.97594 0.0
H901 H 0.8509 0.12988 0.99416 0.0
H902 H 0.83856 0.11353 0.04498 0.0
H903 H 0.81191 0.09048 0.04538 0.0
H904 H 0.90808 0.8141 0.04591 0.0
H905 H 0.88637 0.84193 0.04652 0.0
H906 H 0.93523 0.88017 0.05514 0.0
H907 H 0.95708 0.85252 0.05394 0.0
H908 H 0.88107 0.86995 0.09485 0.0
H909 H 0.90629 0.9026 0.97458 0.0
H910 H 0.91244 0.87827 0.98692 0.0
H911 H 0.9254 0.89845 0.00437 0.0
C912 C 0.91424 0.82842 0.04791 0.0
C913 C 0.93435 0.83106 0.04966 0.0
C914 C 0.90179 0.84431 0.04825 0.0
C915 C 0.9092 0.86312 0.05025 0.0
C916 C 0.92923 0.8658 0.05274 0.0
H917 H 0.85051 0.96804 0.108 0.0
H918 H 0.86987 0.93861 0.10514 0.0
C919 C 0.94169 0.84994 0.05227 0.0
C920 C 0.89599 0.87995 0.05034 0.0
H921 H 0.88597 0.92213 0.00921 0.0
C922 C 0.88205 0.88131 0.07602 0.0
C923 C 0.89709 0.89459 0.02542 0.0
C924 C 0.91098 0.89336 0.99606 0.0
C925 C 0.86954 0.89721 0.07801 0.0
C926 C 0.87126 0.91227 0.05402 0.0
C927 C 0.88483 0.91065 0.02779 0.0
C928 C 0.85929 0.92997 0.05588 0.0
C929 C 0.85447 0.89763 0.10558 0.0
C930 C 0.84726 0.93512 0.02876 0.0
C931 C 0.83627 0.95203 0.03018 0.0
C932 C 0.83721 0.96415 0.05871 0.0
C933 C 0.84937 0.95899 0.08573 0.0
C934 C 0.86036 0.9421 0.08426 0.0
H935 H 0.85144 0.88294 0.11555 0.0
H936 H 0.85979 0.9066 0.1269 0.0
H937 H 0.84076 0.90402 0.09627 0.0
H938 H 0.84633 0.92601 0.00652 0.0
H939 H 0.82708 0.95561 0.0089 0.0
H940 H 0.18865 0.90495 0.04284 0.0
H941 H 0.16304 0.88064 0.04056 0.0
H942 H 0.12019 0.9257 0.03653 0.0
H943 H 0.14559 0.95012 0.03866 0.0
H944 H 0.13091 0.87604 0.08619 0.0
H945 H 0.10761 0.89073 0.95416 0.0
H946 H 0.13057 0.89872 0.97068 0.0
H947 H 0.10887 0.91164 0.98097 0.0
C948 C 0.17378 0.90972 0.04146 0.0
C949 C 0.16919 0.92951 0.04081 0.0
C950 C 0.15919 0.89579 0.04016 0.0
C951 C 0.13978 0.9014 0.03787 0.0
C952 C 0.13512 0.92109 0.03768 0.0
H953 H 0.02829 0.84727 0.03027 0.0
H954 H 0.05615 0.86886 0.02941 0.0
C955 C 0.14967 0.93503 0.0391 0.0
C956 C 0.12432 0.88668 0.03634 0.0
H957 H 0.08749 0.87015 0.98685 0.0
C958 C 0.12149 0.8746 0.0644 0.0
C959 C 0.11211 0.88491 0.00785 0.0
C960 C 0.11498 0.89705 0.97654 0.0
C961 C 0.1063 0.86119 0.06522 0.0
C962 C 0.09392 0.85956 0.03685 0.0
C963 C 0.09699 0.87144 0.00856 0.0
C964 C 0.07722 0.84616 0.03651 0.0
C965 C 0.10324 0.8494 0.09691 0.0
C966 C 0.07985 0.82618 0.04014 0.0
C967 C 0.06393 0.81377 0.04084 0.0
C968 C 0.0451 0.82114 0.03757 0.0
C969 C 0.04258 0.84111 0.03296 0.0
C970 C 0.05849 0.85349 0.03244 0.0
H971 H 0.11083 0.85574 0.11904 0.0
H972 H 0.08764 0.84819 0.10303 0.0
H973 H 0.109 0.83463 0.09287 0.0
H974 H 0.09422 0.82017 0.0425 0.0
H975 H 0.06637 0.79845 0.04413 0.0
H976 H 0.16547 0.95391 0.43458 0.0
H977 H 0.14485 0.9255 0.4404 0.0
H978 H 0.14213 0.93444 0.54837 0.0
H979 H 0.16324 0.96259 0.54291 0.0
H980 H 0.14715 0.89678 0.53292 0.0
H981 H 0.08736 0.92699 0.45628 0.0
H982 H 0.10983 0.92634 0.43372 0.0
H983 H 0.10741 0.94146 0.47054 0.0
C984 C 0.1605 0.94984 0.45959 0.0
C985 C 0.16584 0.9606 0.48826 0.0
C986 C 0.14862 0.93366 0.46283 0.0
C987 C 0.1416 0.92812 0.49471 0.0
C988 C 0.14729 0.93855 0.52349 0.0
H989 H 0.04376 0.85194 0.52373 0.0
H990 H 0.06609 0.87917 0.522 0.0
C991 C 0.15933 0.95464 0.52032 0.0
C992 C 0.1283 0.91146 0.49804 0.0
H993 H 0.08523 0.89365 0.47016 0.0
C994 C 0.13356 0.89611 0.51934 0.0
C995 C 0.11043 0.91077 0.48073 0.0
C996 C 0.10331 0.92735 0.45932 0.0
C997 C 0.12156 0.87994 0.52342 0.0
C998 C 0.10407 0.87889 0.50497 0.0
C999 C 0.09872 0.89437 0.48403 0.0
C1000 C 0.09088 0.86207 0.50733 0.0
C1001 C 0.12756 0.86439 0.54802 0.0
C1002 C 0.09735 0.84338 0.49955 0.0
C1003 C 0.08465 0.82772 0.50095 0.0
C1004 C 0.06514 0.83053 0.50947 0.0
C1005 C 0.05868 0.84928 0.51697 0.0
C1006 C 0.07143 0.86487 0.51601 0.0
H1007 H 0.13788 0.86998 0.56719 0.0
H1008 H 0.11488 0.85822 0.5614 0.0
H1009 H 0.13486 0.8526 0.53396 0.0
H1010 H 0.11215 0.84093 0.49187 0.0
H1011 H 0.09004 0.81347 0.49471 0.0
H1012 H 0.04391 0.16589 0.42973 0.0
H1013 H 0.07201 0.14473 0.43395 0.0
H1014 H 0.06307 0.13957 0.54164 0.0
H1015 H 0.03522 0.16119 0.53781 0.0
H1016 H 0.10073 0.14486 0.52652 0.0
H1017 H 0.07051 0.08687 0.44577 0.0
H1018 H 0.07117 0.10984 0.42484 0.0
H1019 H 0.05604 0.10658 0.46145 0.0
C1020 C 0.0479 0.16026 0.45433 0.0
C1021 C 0.03723 0.1651 0.4834 0.0
C1022 C 0.06391 0.14806 0.45666 0.0
C1023 C 0.06939 0.14022 0.48799 0.0
C1024 C 0.05901 0.14535 0.51717 0.0
H1025 H 0.14605 0.04211 0.51246 0.0
H1026 H 0.11857 0.06415 0.5106 0.0
C1027 C 0.04309 0.15769 0.51492 0.0
C1028 C 0.08603 0.12682 0.49038 0.0
H1029 H 0.10385 0.08436 0.45958 0.0
C1030 C 0.10139 0.13158 0.51201 0.0
C1031 C 0.08673 0.10934 0.47185 0.0
C1032 C 0.07015 0.10273 0.44994 0.0
C1033 C 0.11757 0.11951 0.51522 0.0
C1034 C 0.11863 0.10245 0.49556 0.0
C1035 C 0.10314 0.09755 0.47434 0.0
C1036 C 0.1355 0.08925 0.49703 0.0
C1037 C 0.13313 0.12496 0.54018 0.0
C1038 C 0.15415 0.09596 0.48964 0.0
C1039 C 0.16995 0.08343 0.49104 0.0
C1040 C 0.16734 0.06384 0.49925 0.0
C1041 C 0.14858 0.05709 0.506 0.0
C1042 C 0.13284 0.06968 0.50496 0.0
H1043 H 0.12757 0.13491 0.55998 0.0
H1044 H 0.13924 0.112 0.55277 0.0
H1045 H 0.14494 0.1325 0.52659 0.0
H1046 H 0.1565 0.11088 0.48252 0.0
H1047 H 0.18418 0.08906 0.48539 0.0
H1048 H 0.80454 0.06485 0.49352 0.0
H1049 H 0.82716 0.09204 0.49343 0.0
H1050 H 0.8744 0.05293 0.51195 0.0
H1051 H 0.85201 0.02568 0.51198 0.0
H1052 H 0.85377 0.10343 0.54643 0.0
H1053 H 0.89089 0.08383 0.42652 0.0
H1054 H 0.86762 0.07411 0.43816 0.0
H1055 H 0.88922 0.06479 0.4573 0.0
C1056 C 0.81974 0.06202 0.49757 0.0
C1057 C 0.82649 0.04308 0.50255 0.0
C1058 C 0.83262 0.07757 0.49753 0.0
C1059 C 0.85244 0.07441 0.50218 0.0
C1060 C 0.85918 0.0556 0.50772 0.0
H1061 H 0.95472 0.14616 0.50617 0.0
H1062 H 0.93142 0.11966 0.50652 0.0
C1063 C 0.84634 0.04007 0.50788 0.0
C1064 C 0.86611 0.09081 0.50161 0.0
H1065 H 0.90456 0.10933 0.45844 0.0
C1066 C 0.86482 0.10482 0.52713 0.0
C1067 C 0.88053 0.09247 0.47644 0.0
C1068 C 0.88213 0.07811 0.44785 0.0
C1069 C 0.87788 0.1203 0.52858 0.0
C1070 C 0.8923 0.12198 0.50335 0.0
C1071 C 0.89351 0.10799 0.47776 0.0
C1072 C 0.90632 0.13814 0.50308 0.0
C1073 C 0.87643 0.13439 0.55761 0.0
C1074 C 0.89993 0.15729 0.50049 0.0
C1075 C 0.91319 0.17249 0.50045 0.0
C1076 C 0.93313 0.1688 0.5026 0.0
C1077 C 0.93949 0.14954 0.50452 0.0
C1078 C 0.9262 0.13436 0.50473 0.0
H1079 H 0.8683 0.1282 0.5793 0.0
H1080 H 0.89096 0.13881 0.56657 0.0
H1081 H 0.86865 0.1475 0.54898 0.0
H1082 H 0.88468 0.16051 0.49836 0.0
H1083 H 0.90778 0.18712 0.49867 0.0
H1084 H 0.97092 0.84821 0.51654 0.0
H1085 H 0.94334 0.87015 0.51475 0.0
H1086 H 0.90555 0.8224 0.49233 0.0
H1087 H 0.9331 0.80022 0.49409 0.0
H1088 H 0.91747 0.87521 0.45719 0.0
H1089 H 0.88002 0.85091 0.57438 0.0
H1090 H 0.90521 0.84593 0.56648 0.0
H1091 H 0.88692 0.83242 0.54477 0.0
C1092 C 0.95674 0.84231 0.51142 0.0
C1093 C 0.9542 0.82245 0.50547 0.0
C1094 C 0.94102 0.85489 0.51036 0.0
C1095 C 0.92245 0.84784 0.50366 0.0
C1096 C 0.91978 0.82804 0.49794 0.0
H1097 H 0.8115 0.90663 0.49474 0.0
H1098 H 0.83732 0.8826 0.49336 0.0
C1099 C 0.93553 0.81542 0.49885 0.0
C1100 C 0.90603 0.86142 0.50171 0.0
H1101 H 0.86456 0.8749 0.54183 0.0
C1102 C 0.90587 0.87516 0.47563 0.0
C1103 C 0.89092 0.86117 0.52572 0.0
C1104 C 0.89071 0.84693 0.55462 0.0
C1105 C 0.89092 0.88873 0.47287 0.0
C1106 C 0.87601 0.88879 0.49735 0.0
C1107 C 0.87604 0.87484 0.52315 0.0
C1108 C 0.86045 0.90346 0.4971 0.0
C1109 C 0.89111 0.90267 0.44351 0.0
C1110 C 0.86491 0.92316 0.4999 0.0
C1111 C 0.85021 0.93695 0.50051 0.0
C1112 C 0.83074 0.93129 0.49872 0.0
C1113 C 0.82633 0.91151 0.49609 0.0
C1114 C 0.84106 0.89774 0.49533 0.0
H1115 H 0.89996 0.89714 0.42215 0.0
H1116 H 0.87626 0.90553 0.43417 0.0
H1117 H 0.8975 0.91655 0.4519 0.0
H1118 H 0.87977 0.92785 0.50212 0.0
H1119 H 0.85412 0.95203 0.50284 0.0
H1120 H 0.64854 0.52856 0.53124 0.0
H1121 H 0.62636 0.55603 0.53145 0.0
H1122 H 0.67175 0.59285 0.56885 0.0
H1123 H 0.69411 0.56545 0.56883 0.0
H1124 H 0.61734 0.58055 0.59103 0.0
H1125 H 0.64925 0.62054 0.48232 0.0
H1126 H 0.65325 0.59504 0.48887 0.0
H1127 H 0.66563 0.61238 0.51466 0.0
C1128 C 0.65385 0.5425 0.53941 0.0
C1129 C 0.6731 0.54483 0.54998 0.0
C1130 C 0.64115 0.55815 0.53955 0.0
C1131 C 0.6475 0.57643 0.5499 0.0
C1132 C 0.66668 0.57886 0.56042 0.0
H1133 H 0.59044 0.68813 0.55589 0.0
H1134 H 0.61369 0.66167 0.55914 0.0
C1135 C 0.67939 0.56318 0.56049 0.0
C1136 C 0.6339 0.59285 0.5503 0.0
H1137 H 0.62346 0.63548 0.51113 0.0
C1138 C 0.61863 0.59258 0.5736 0.0
C1139 C 0.63578 0.60851 0.52765 0.0
C1140 C 0.65177 0.60921 0.50174 0.0
C1141 C 0.60519 0.60771 0.57503 0.0
C1142 C 0.60681 0.62323 0.5519 0.0
C1143 C 0.62223 0.62355 0.5288 0.0
C1144 C 0.59255 0.63917 0.55087 0.0
C1145 C 0.58961 0.60708 0.60173 0.0
C1146 C 0.57296 0.63532 0.54484 0.0
C1147 C 0.55959 0.65039 0.54324 0.0
C1148 C 0.56561 0.66965 0.54713 0.0
C1149 C 0.58529 0.67347 0.55283 0.0
C1150 C 0.59862 0.65837 0.55468 0.0
H1151 H 0.59378 0.59767 0.62331 0.0
H1152 H 0.58638 0.62174 0.61159 0.0
H1153 H 0.57622 0.60108 0.59047 0.0
H1154 H 0.56803 0.62065 0.54093 0.0
H1155 H 0.54459 0.64694 0.53848 0.0
H1156 H 0.35394 0.54798 0.53967 0.0
H1157 H 0.37916 0.57263 0.53849 0.0
H1158 H 0.33585 0.6173 0.54039 0.0
H1159 H 0.31045 0.59279 0.54173 0.0
H1160 H 0.38352 0.60272 0.48836 0.0
H1161 H 0.37339 0.6315 0.61868 0.0
H1162 H 0.36413 0.60828 0.60572 0.0
H1163 H 0.35207 0.63001 0.59285 0.0
C1164 C 0.34973 0.56303 0.54004 0.0
C1165 C 0.33015 0.56839 0.54092 0.0
C1166 C 0.36418 0.57709 0.5393 0.0
C1167 C 0.35934 0.59674 0.53969 0.0
C1168 C 0.33986 0.60219 0.54058 0.0
H1169 H 0.43264 0.69931 0.54369 0.0
H1170 H 0.40489 0.67743 0.54154 0.0
C1171 C 0.32537 0.58815 0.54122 0.0
C1172 C 0.37475 0.61149 0.53832 0.0
H1173 H 0.39642 0.64714 0.58425 0.0
C1174 C 0.38636 0.61246 0.50928 0.0
C1175 C 0.37825 0.62424 0.56557 0.0
C1176 C 0.36643 0.62346 0.59763 0.0
C1177 C 0.40147 0.62587 0.50675 0.0
C1178 C 0.4053 0.63831 0.53435 0.0
C1179 C 0.39345 0.63757 0.56315 0.0
C1180 C 0.42202 0.65164 0.53443 0.0
C1181 C 0.41303 0.62671 0.47441 0.0
C1182 C 0.44083 0.64435 0.53142 0.0
C1183 C 0.45668 0.65678 0.53249 0.0
C1184 C 0.45403 0.67674 0.537 0.0
C1185 C 0.43517 0.68401 0.54014 0.0
C1186 C 0.4193 0.67155 0.53894 0.0
H1187 H 0.40479 0.62073 0.45267 0.0
H1188 H 0.41735 0.64175 0.46831 0.0
H1189 H 0.42632 0.61793 0.47742 0.0
H1190 H 0.44329 0.62899 0.52874 0.0
H1191 H 0.47101 0.65067 0.53021 0.0
H1192 H 0.30462 0.43469 0.55486 0.0
H1193 H 0.32697 0.4073 0.55646 0.0
H1194 H 0.37476 0.4458 0.53838 0.0
H1195 H 0.35263 0.47325 0.53686 0.0
H1196 H 0.35372 0.39517 0.50466 0.0
H1197 H 0.39043 0.41535 0.62456 0.0
H1198 H 0.36738 0.42529 0.61222 0.0
H1199 H 0.38924 0.43421 0.59339 0.0
C1200 C 0.31988 0.43734 0.55127 0.0
C1201 C 0.32685 0.45617 0.54593 0.0
C1202 C 0.33261 0.42168 0.55217 0.0
C1203 C 0.35251 0.4246 0.54805 0.0
C1204 C 0.35948 0.44331 0.54223 0.0
H1205 H 0.45495 0.35378 0.54355 0.0
H1206 H 0.4312 0.37986 0.54416 0.0
C1207 C 0.34679 0.45896 0.5412 0.0
C1208 C 0.36601 0.40807 0.54927 0.0
H1209 H 0.40438 0.38979 0.59295 0.0
C1210 C 0.36472 0.39388 0.52406 0.0
C1211 C 0.38034 0.40653 0.5746 0.0
C1212 C 0.3819 0.42105 0.60293 0.0
C1213 C 0.37777 0.37838 0.52296 0.0
C1214 C 0.39219 0.37688 0.54821 0.0
C1215 C 0.39333 0.391 0.57361 0.0
C1216 C 0.40647 0.36095 0.54841 0.0
C1217 C 0.37637 0.36412 0.49419 0.0
C1218 C 0.40044 0.34168 0.55121 0.0
C1219 C 0.41397 0.32671 0.55072 0.0
C1220 C 0.43381 0.33076 0.54778 0.0
C1221 C 0.4398 0.35013 0.54579 0.0
C1222 C 0.42625 0.36507 0.54614 0.0
H1223 H 0.368 0.37004 0.47256 0.0
H1224 H 0.39093 0.35991 0.48502 0.0
H1225 H 0.3689 0.35091 0.50319 0.0
H1226 H 0.38527 0.33821 0.55378 0.0
H1227 H 0.40884 0.31198 0.55254 0.0
H1228 H 0.52799 0.35081 0.53289 0.0
H1229 H 0.55538 0.37302 0.53193 0.0
H1230 H 0.59458 0.32516 0.54367 0.0
H1231 H 0.56725 0.30273 0.54454 0.0
H1232 H 0.58374 0.37736 0.58445 0.0
H1233 H 0.61609 0.3557 0.46129 0.0
H1234 H 0.59152 0.34987 0.4727 0.0
H1235 H 0.6112 0.33644 0.49058 0.0
C1236 C 0.54243 0.34495 0.53507 0.0
C1237 C 0.54544 0.32497 0.53877 0.0
C1238 C 0.55805 0.35768 0.53455 0.0
C1239 C 0.57698 0.3507 0.53741 0.0
C1240 C 0.58008 0.33079 0.54093 0.0
H1241 H 0.6884 0.40872 0.53923 0.0
H1242 H 0.66232 0.38495 0.54032 0.0
C1243 C 0.56444 0.31802 0.54157 0.0
C1244 C 0.59336 0.36441 0.53789 0.0
H1245 H 0.63328 0.37862 0.49376 0.0
C1246 C 0.59458 0.37768 0.56463 0.0
C1247 C 0.60749 0.36466 0.51208 0.0
C1248 C 0.60654 0.35103 0.48234 0.0
C1249 C 0.60965 0.39116 0.56639 0.0
C1250 C 0.62363 0.39165 0.54028 0.0
C1251 C 0.62252 0.37823 0.51371 0.0
C1252 C 0.63938 0.40614 0.53985 0.0
C1253 C 0.61066 0.40453 0.59652 0.0
C1254 C 0.63512 0.42593 0.5388 0.0
C1255 C 0.64998 0.43958 0.53834 0.0
C1256 C 0.66941 0.43367 0.53857 0.0
C1257 C 0.67361 0.41379 0.53915 0.0
C1258 C 0.65873 0.40017 0.53972 0.0
H1259 H 0.60241 0.39874 0.61841 0.0
H1260 H 0.62583 0.40696 0.6045 0.0
H1261 H 0.60428 0.41868 0.58957 0.0
H1262 H 0.62029 0.43085 0.53807 0.0
H1263 H 0.6462 0.45474 0.5376 0.0
H1264 H 0.69649 0.43431 0.98097 0.0
H1265 H 0.67407 0.40707 0.98343 0.0
H1266 H 0.62871 0.44523 0.01687 0.0
H1267 H 0.65112 0.47244 0.01531 0.0
H1268 H 0.6296 0.41183 0.05314 0.0
H1269 H 0.63177 0.39568 0.91554 0.0
H1270 H 0.65505 0.39537 0.93545 0.0
H1271 H 0.64167 0.41758 0.93315 0.0
C1272 C 0.68175 0.43691 0.98887 0.0
C1273 C 0.67556 0.45556 0.99772 0.0
C1274 C 0.66892 0.42134 0.99004 0.0
C1275 C 0.64962 0.4242 0.99966 0.0
C1276 C 0.64352 0.44273 0.00917 0.0
H1277 H 0.54599 0.35459 0.00927 0.0
H1278 H 0.56981 0.38067 0.00896 0.0
C1279 C 0.65635 0.45826 0.00823 0.0
C1280 C 0.63577 0.40789 1.00013 0.0
H1281 H 0.6149 0.3734 0.95032 0.0
C1282 C 0.62635 0.40347 0.03064 0.0
C1283 C 0.63151 0.39704 0.97069 0.0
C1284 C 0.64038 0.40174 0.93677 0.0
C1285 C 0.61291 0.38835 0.03257 0.0
C1286 C 0.60876 0.37749 0.00322 0.0
C1287 C 0.61822 0.38178 0.97277 0.0
C1288 C 0.59442 0.36171 0.00355 0.0
C1289 C 0.60335 0.38393 0.066 0.0
C1290 C 0.60044 0.3425 1.00019 0.0
C1291 C 0.5869 0.32755 0.00049 0.0
C1292 C 0.56708 0.3316 0.00374 0.0
C1293 C 0.56112 0.35095 0.00671 0.0
C1294 C 0.5747 0.36587 0.00668 0.0
H1295 H 0.61056 0.3914 0.08744 0.0
H1296 H 0.58807 0.38871 0.06509 0.0
H1297 H 0.60344 0.36814 0.0709 0.0
H1298 H 0.61562 0.33907 0.9976 0.0
H1299 H 0.59199 0.31283 0.99806 0.0
H1300 H 0.52608 0.64701 0.00997 0.0
H1301 H 0.55353 0.62485 0.00921 0.0
H1302 H 0.59184 0.67226 0.98723 0.0
H1303 H 0.56448 0.69463 0.98807 0.0
H1304 H 0.57961 0.61856 0.95383 0.0
H1305 H 0.61695 0.64483 0.0696 0.0
H1306 H 0.59196 0.65025 0.06071 0.0
H1307 H 0.61081 0.66306 0.03904 0.0
C1308 C 0.54035 0.65278 0.00515 0.0
C1309 C 0.54309 0.67261 0.99913 0.0
C1310 C 0.556 0.64007 0.00468 0.0
C1311 C 0.5747 0.64696 0.99849 0.0
C1312 C 0.57754 0.66672 0.99255 0.0
H1313 H 0.68691 0.5916 0.98809 0.0
H1314 H 0.65999 0.61436 0.98707 0.0
C1315 C 0.56187 0.67946 0.9929 0.0
C1316 C 0.59113 0.63331 0.99733 0.0
H1317 H 0.63322 0.6213 0.03695 0.0
C1318 C 0.59133 0.6191 0.97202 0.0
C1319 C 0.60638 0.63415 0.02104 0.0
C1320 C 0.60655 0.64878 0.04934 0.0
C1321 C 0.60655 0.60581 0.96951 0.0
C1322 C 0.62174 0.60651 0.99342 0.0
C1323 C 0.62156 0.62079 0.01865 0.0
C1324 C 0.63792 0.59251 0.9929 0.0
C1325 C 0.60642 0.5914 0.94086 0.0
C1326 C 0.63445 0.57267 0.99667 0.0
C1327 C 0.64981 0.55957 0.99709 0.0
C1328 C 0.66896 0.56611 0.9941 0.0
C1329 C 0.67236 0.58603 0.99039 0.0
C1330 C 0.65699 0.59909 0.98985 0.0
H1331 H 0.59695 0.59617 0.91976 0.0
H1332 H 0.6212 0.58902 0.93081 0.0
H1333 H 0.60083 0.57739 0.95031 0.0
H1334 H 0.61987 0.56732 0.99984 0.0
H1335 H 0.64666 0.54437 0.00027 0.0
H1336 H 0.34923 0.52581 0.01189 0.0
H1337 H 0.37121 0.55338 0.01188 0.0
H1338 H 0.32346 0.59171 0.99237 0.0
H1339 H 0.30126 0.5642 0.99247 0.0
H1340 H 0.37669 0.58012 0.95693 0.0
H1341 H 0.35161 0.61593 0.07508 0.0
H1342 H 0.34627 0.59099 0.06557 0.0
H1343 H 0.33319 0.60996 0.04476 0.0
C1344 C 0.34334 0.5401 0.00778 0.0
C1345 C 0.32347 0.54281 0.0022 0.0
C1346 C 0.35594 0.55582 0.00775 0.0
C1347 C 0.34891 0.57455 0.00243 0.0
C1348 C 0.3291 0.57737 0.99701 0.0
H1349 H 0.40644 0.68613 0.9968 0.0
H1350 H 0.38282 0.65994 0.99524 0.0
C1351 C 0.31646 0.56163 0.99694 0.0
C1352 C 0.36249 0.59101 0.00148 0.0
H1353 H 0.37535 0.63223 0.04305 0.0
C1354 C 0.37643 0.59153 0.97574 0.0
C1355 C 0.36199 0.60587 0.02597 0.0
C1356 C 0.34758 0.6057 0.05461 0.0
C1357 C 0.38988 0.60662 0.97369 0.0
C1358 C 0.38962 0.62133 0.99854 0.0
C1359 C 0.37552 0.62091 0.02407 0.0
C1360 C 0.40404 0.63712 0.99882 0.0
C1361 C 0.404 0.60683 0.9446 0.0
C1362 C 0.4238 0.63297 0.00169 0.0
C1363 C 0.43736 0.64788 0.00238 0.0
C1364 C 0.43139 0.66727 0.00063 0.0
C1365 C 0.41155 0.67137 0.99812 0.0
C1366 C 0.39801 0.65643 0.99726 0.0
H1367 H 0.39875 0.59805 0.92295 0.0
H1368 H 0.40671 0.62178 0.93561 0.0
H1369 H 0.41793 0.60059 0.95315 0.0
H1370 H 0.42873 0.61818 0.00377 0.0
H1371 H 0.4525 0.6442 0.00465 0.0
H1372 H 0.43504 0.30361 0.97844 0.0
H1373 H 0.40716 0.32539 0.97797 0.0
H1374 H 0.44364 0.37253 0.00929 0.0
H1375 H 0.47156 0.35097 0.00986 0.0
H1376 H 0.39295 0.3492 0.03425 0.0
H1377 H 0.41554 0.39202 0.92204 0.0
H1378 H 0.42525 0.36838 0.93123 0.0
H1379 H 0.4336 0.38909 0.95432 0.0
C1380 C 0.43714 0.31862 0.9852 0.0
C1381 C 0.45554 0.32559 0.99402 0.0
C1382 C 0.4212 0.33101 0.98494 0.0
C1383 C 0.42345 0.35057 0.99317 0.0
C1384 C 0.44171 0.35752 0.00236 0.0
H1385 H 0.35205 0.45194 0.00575 0.0
H1386 H 0.37804 0.42816 0.00417 0.0
C1387 C 0.45762 0.34515 0.00279 0.0
C1388 C 0.40667 0.36375 0.99259 0.0
H1389 H 0.38887 0.40385 0.95336 0.0
C1390 C 0.39193 0.36108 0.01645 0.0
C1391 C 0.40551 0.37922 0.96935 0.0
C1392 C 0.42072 0.38234 0.94256 0.0
C1393 C 0.37625 0.37387 0.01838 0.0
C1394 C 0.37513 0.38945 0.99525 0.0
C1395 C 0.38978 0.39192 0.97108 0.0
C1396 C 0.35917 0.40368 0.99621 0.0
C1397 C 0.36141 0.37097 0.04589 0.0
C1398 C 0.33993 0.39784 0.99184 0.0
C1399 C 0.32499 0.41139 0.99297 0.0
C1400 C 0.32905 0.43108 0.99804 0.0
C1401 C 0.34839 0.4369 0.00179 0.0
C1402 C 0.36328 0.42333 0.0009 0.0
H1403 H 0.367 0.3617 0.06666 0.0
H1404 H 0.35678 0.38499 0.05681 0.0
H1405 H 0.34853 0.36376 0.03501 0.0
H1406 H 0.33648 0.38281 0.98736 0.0
H1407 H 0.31028 0.40643 0.98973 0.0
H1408 H 0.95657 0.24928 0.40394 0.0
H1409 H 0.96259 0.25416 0.34334 0.0
H1410 H 0.01744 0.22527 0.35279 0.0
H1411 H 0.01152 0.2201 0.41298 0.0
H1412 H 0.99424 0.27074 0.30327 0.0
H1413 H 0.98528 0.19166 0.28637 0.0
H1414 H 0.97814 0.20401 0.32459 0.0
H1415 H 0.00311 0.19832 0.31723 0.0
C1416 C 0.97006 0.24428 0.39324 0.0
C1417 C 0.98341 0.23399 0.41316 0.0
C1418 C 0.97348 0.2471 0.35865 0.0
C1419 C 0.99029 0.23975 0.34358 0.0
C1420 C 0.00423 0.23076 0.36389 0.0
H1421 H 0.03804 0.24783 0.14178 0.0
H1422 H 0.02976 0.25382 0.20107 0.0
C1423 C 0.0008 0.22783 0.39831 0.0
C1424 C 0.99254 0.23976 0.30632 0.0
H1425 H 0.99641 0.20928 0.23892 0.0
C1426 C 0.99462 0.25736 0.28906 0.0
C1427 C 0.99269 0.22227 0.28789 0.0
C1428 C 0.98951 0.20299 0.30485 0.0
C1429 C 0.99739 0.25784 0.25377 0.0
C1430 C 0.99831 0.24026 0.23558 0.0
C1431 C 0.99578 0.22275 0.25288 0.0
C1432 C 0.00209 0.23937 0.19864 0.0
C1433 C 0.99911 0.27711 0.23629 0.0
C1434 C 0.98927 0.22935 0.17749 0.0
C1435 C 0.99408 0.22565 0.14381 0.0
C1436 C 0.01183 0.23192 0.13051 0.0
C1437 C 0.02423 0.24285 0.15122 0.0
C1438 C 0.01946 0.2464 0.18509 0.0
H1439 H 0.99262 0.28888 0.25166 0.0
H1440 H 0.0146 0.28055 0.23251 0.0
H1441 H 0.992 0.27685 0.2111 0.0
H1442 H 0.9758 0.22377 0.18742 0.0
H1443 H 0.98412 0.21734 0.1285 0.0
H1444 H 0.78002 0.01401 0.41635 0.0
H1445 H 0.77368 0.02215 0.35733 0.0
H1446 H 0.74548 0.96723 0.34308 0.0
H1447 H 0.75135 0.95915 0.40252 0.0
H1448 H 0.7893 0.00205 0.30646 0.0
H1449 H 0.70977 0.0031 0.29122 0.0
H1450 H 0.72135 0.0041 0.33216 0.0
H1451 H 0.71866 0.9814 0.31058 0.0
C1452 C 0.77212 0.0038 0.40088 0.0
C1453 C 0.76634 0.98585 0.41404 0.0
C1454 C 0.76847 0.0085 0.36714 0.0
C1455 C 0.75903 0.99536 0.34579 0.0
C1456 C 0.75244 0.97777 0.35922 0.0
H1457 H 0.78066 0.98695 0.13189 0.0
H1458 H 0.77529 0.98077 0.19195 0.0
C1459 C 0.75592 0.97312 0.39317 0.0
C1460 C 0.75838 0.99909 0.30882 0.0
H1461 H 0.72847 0.00221 0.24019 0.0
C1462 C 0.77596 0.00223 0.29208 0.0
C1463 C 0.74097 0.99942 0.29008 0.0
C1464 C 0.72159 0.99701 0.30695 0.0
C1465 C 0.7767 0.0054 0.25711 0.0
C1466 C 0.7594 0.00499 0.23813 0.0
C1467 C 0.74172 0.00226 0.25482 0.0
C1468 C 0.75971 0.00734 0.2009 0.0
C1469 C 0.79602 0.0093 0.24079 0.0
C1470 C 0.75186 0.02389 0.18574 0.0
C1471 C 0.7548 0.02745 0.15122 0.0
C1472 C 0.76569 0.01451 0.13147 0.0
C1473 C 0.77244 0.99736 0.14643 0.0
C1474 C 0.7694 0.99378 0.18077 0.0
H1475 H 0.807 0.0139 0.25965 0.0
H1476 H 0.8013 0.9959 0.22848 0.0
H1477 H 0.7948 0.02067 0.22107 0.0
H1478 H 0.74427 0.03448 0.20091 0.0
H1479 H 0.74932 0.04074 0.14045 0.0
H1480 H 0.01607 0.7786 0.13107 0.0
H1481 H 0.02461 0.77267 0.19009 0.0
H1482 H 0.96914 0.74606 0.20687 0.0
H1483 H 0.96063 0.75151 0.14757 0.0
H1484 H 0.0056 0.78916 0.24134 0.0
H1485 H 0.00437 0.7098 0.25844 0.0
H1486 H 0.00526 0.72103 0.2172 0.0
H1487 H 0.98271 0.71902 0.2395 0.0
C1488 C 0.00582 0.77112 0.1471 0.0
C1489 C 0.9876 0.76567 0.13467 0.0
C1490 C 0.01075 0.76772 0.18084 0.0
C1491 C 0.99758 0.75882 0.20288 0.0
C1492 C 0.9797 0.75258 0.1902 0.0
H1493 H 0.98848 0.78191 0.41571 0.0
H1494 H 0.98304 0.77654 0.35543 0.0
C1495 C 0.97481 0.75584 0.15631 0.0
C1496 C 0.00162 0.75833 0.23976 0.0
H1497 H 0.00362 0.7289 0.30917 0.0
C1498 C 0.00535 0.77594 0.25605 0.0
C1499 C 0.0014 0.74107 0.25895 0.0
C1500 C 0.99841 0.72163 0.24259 0.0
C1501 C 0.00843 0.77685 0.29104 0.0
C1502 C 0.00736 0.75974 0.31046 0.0
C1503 C 0.00417 0.74202 0.2942 0.0
C1504 C 0.00934 0.7603 0.34775 0.0
C1505 C 0.01284 0.79618 0.30695 0.0
C1506 C 0.0255 0.75214 0.36366 0.0
C1507 C 0.02865 0.75511 0.39829 0.0
C1508 C 0.01568 0.76632 0.41743 0.0
C1509 C 0.99891 0.77343 0.40168 0.0
C1510 C 0.99576 0.77039 0.36721 0.0
H1511 H 0.01788 0.80685 0.2879 0.0
H1512 H 0.99954 0.80196 0.3189 0.0
H1513 H 0.02405 0.79475 0.32689 0.0
H1514 H 0.03609 0.74423 0.34902 0.0
H1515 H 0.04165 0.74934 0.40967 0.0
H1516 H 0.21174 0.99149 0.4075 0.0
H1517 H 0.21921 0.98452 0.34876 0.0
H1518 H 0.26551 0.02613 0.35113 0.0
H1519 H 0.25759 0.03379 0.41014 0.0
H1520 H 0.24461 0.03156 0.29724 0.0
H1521 H 0.25992 0.95373 0.30338 0.0
H1522 H 0.23693 0.95832 0.32243 0.0
H1523 H 0.25847 0.96845 0.34098 0.0
C1524 C 0.22372 0.999 0.39586 0.0
C1525 C 0.23405 0.01323 0.41368 0.0
C1526 C 0.22812 0.99484 0.36218 0.0
C1527 C 0.24322 0.00446 0.34556 0.0
C1528 C 0.25389 0.01838 0.36346 0.0
H1529 H 0.25742 0.96577 0.13421 0.0
H1530 H 0.26592 0.97366 0.19288 0.0
C1531 C 0.24936 0.02274 0.39721 0.0
C1532 C 0.24642 0.00119 0.30873 0.0
H1533 H 0.24778 0.96551 0.24914 0.0
C1534 C 0.24572 0.01712 0.28678 0.0
C1535 C 0.24839 0.98244 0.29483 0.0
C1536 C 0.2512 0.96482 0.31675 0.0
C1537 C 0.24549 0.01472 0.25148 0.0
C1538 C 0.2453 0.99584 0.23772 0.0
C1539 C 0.24749 0.97999 0.25956 0.0
C1540 C 0.24118 0.99215 0.20131 0.0
C1541 C 0.2452 0.03249 0.2294 0.0
C1542 C 0.22442 -0.00021 0.1865 0.0
C1543 C 0.21966 0.9955 0.15302 0.0
C1544 C 0.23132 0.98309 0.13362 0.0
C1545 C 0.24813 0.97539 0.14841 0.0
C1546 C 0.25301 0.97989 0.18195 0.0
H1547 H 0.25285 0.04467 0.24183 0.0
H1548 H 0.252 0.02977 0.2044 0.0
H1549 H 0.23002 0.03706 0.22532 0.0
H1550 H 0.21468 0.00873 0.20113 0.0
H1551 H 0.2065 0.00154 0.14267 0.0
H1552 H 0.01428 0.75976 0.91945 0.0
H1553 H 0.01786 0.75717 0.85779 0.0
H1554 H 0.95666 0.76643 0.84574 0.0
H1555 H 0.95325 0.77001 0.90705 0.0
H1556 H 0.00219 0.7328 0.81088 0.0
H1557 H 0.97878 0.8081 0.78599 0.0
H1558 H 0.98422 0.79945 0.82798 0.0
H1559 H 0.96125 0.79418 0.80882 0.0
C1560 C 0.00164 0.76123 0.90352 0.0
C1561 C 0.9835 0.76503 0.91787 0.0
C1562 C 0.00367 0.75968 0.86841 0.0
C1563 C 0.98757 0.76192 0.84715 0.0
C1564 C 0.96933 0.76505 0.8616 0.0
H1565 H 0.97613 0.76213 0.62687 0.0
H1566 H 0.96951 0.75885 0.68776 0.0
C1567 C 0.96735 0.76681 0.89663 0.0
C1568 C 0.98995 0.76139 0.80988 0.0
H1569 H 0.9834 0.78807 0.73806 0.0
C1570 C 0.99808 0.74488 0.79496 0.0
C1571 C 0.98465 0.77722 0.78916 0.0
C1572 C 0.97692 0.79581 0.80378 0.0
C1573 C 0.00097 0.74375 0.75983 0.0
C1574 C 0.99561 0.75953 0.73925 0.0
C1575 C 0.98729 0.77593 0.75403 0.0
C1576 C 0.99956 0.75986 0.70252 0.0
C1577 C 0.00971 0.72573 0.74486 0.0
C1578 C 0.0186 0.76156 0.69093 0.0
C1579 C 0.02236 0.76369 0.65642 0.0
C1580 C 0.00714 0.76402 0.63294 0.0
C1581 C 0.98809 0.76194 0.64453 0.0
C1582 C 0.98431 0.76 0.67915 0.0
H1583 H 0.00946 0.71347 0.76299 0.0
H1584 H 0.0019 0.72146 0.72148 0.0
H1585 H 0.02495 0.72865 0.73789 0.0
H1586 H 0.03051 0.76187 0.70869 0.0
H1587 H 0.03714 0.76573 0.64826 0.0
H1588 H 0.23632 0.98227 0.62992 0.0
H1589 H 0.23798 0.97855 0.69171 0.0
H1590 H 0.22998 0.03993 0.70366 0.0
H1591 H 0.22745 0.04354 0.64224 0.0
H1592 H 0.26237 0.99412 0.7396 0.0
H1593 H 0.18711 0.01836 0.76208 0.0
H1594 H 0.19608 0.0126 0.72041 0.0
H1595 H 0.20146 0.0356 0.73935 0.0
C1596 C 0.23489 0.99492 0.64586 0.0
C1597 C 0.23173 0.01316 0.63142 0.0
C1598 C 0.23592 0.99281 0.68105 0.0
C1599 C 0.23377 0.00893 0.70231 0.0
C1600 C 0.23126 0.02725 0.6878 0.0
H1601 H 0.23092 0.02181 0.92235 0.0
H1602 H 0.23383 0.02794 0.86124 0.0
C1603 C 0.23009 0.02933 0.65269 0.0
C1604 C 0.23387 0.00654 0.73964 0.0
H1605 H 0.20664 0.01371 0.81066 0.0
C1606 C 0.25018 0.99837 0.75514 0.0
C1607 C 0.21793 0.01208 0.75987 0.0
C1608 C 0.19958 0.01997 0.7446 0.0
C1609 C 0.25103 0.99574 0.79037 0.0
C1610 C 0.2351 0.0013 0.8105 0.0
C1611 C 0.21888 0.00962 0.7951 0.0
C1612 C 0.23454 0.99772 0.84744 0.0
C1613 C 0.26897 0.98715 0.80588 0.0
C1614 C 0.23384 0.97875 0.85973 0.0
C1615 C 0.23198 0.97526 0.89439 0.0
C1616 C 0.23087 0.99069 0.9174 0.0
C1617 C 0.23175 0.00969 0.9051 0.0
C1618 C 0.23346 0.01318 0.87033 0.0
H1619 H 0.28148 0.98784 0.78831 0.0
H1620 H 0.2728 0.99473 0.82973 0.0
H1621 H 0.26626 0.97176 0.81206 0.0
H1622 H 0.23421 0.96663 0.84241 0.0
H1623 H 0.23085 0.96047 0.90307 0.0
H1624 H 0.98061 0.23211 0.9162 0.0
H1625 H 0.97676 0.23472 0.85452 0.0
H1626 H 0.03859 0.23217 0.84236 0.0
H1627 H 0.04241 0.22869 0.90354 0.0
H1628 H 0.99067 0.26155 0.80826 0.0
H1629 H 0.02026 0.18865 0.78165 0.0
H1630 H 0.01365 0.19635 0.82372 0.0
H1631 H 0.03631 0.20371 0.80559 0.0
C1632 C 0.99332 0.23208 0.90023 0.0
C1633 C 0.01178 0.23023 0.91451 0.0
C1634 C 0.99114 0.23365 0.86514 0.0
C1635 C 0.00738 0.23333 0.84388 0.0
C1636 C 0.02585 0.23207 0.85825 0.0
H1637 H 0.02138 0.23545 0.62436 0.0
H1638 H 0.02701 0.23806 0.68567 0.0
C1639 C 0.02802 0.23036 0.89323 0.0
C1640 C 0.00505 0.234 0.80664 0.0
H1641 H 0.01448 0.2088 0.73421 0.0
C1642 C 0.99584 0.25001 0.79205 0.0
C1643 C 0.0118 0.21889 0.78559 0.0
C1644 C 0.02089 0.20084 0.7999 0.0
C1645 C 0.99334 0.2514 0.75686 0.0
C1646 C 0.00014 0.23633 0.73591 0.0
C1647 C 0.00947 0.2204 0.75044 0.0
C1648 C 0.99677 0.23622 0.69899 0.0
C1649 C 0.98359 0.269 0.74227 0.0
C1650 C 0.97796 0.23423 0.68642 0.0
C1651 C 0.97478 0.23253 0.65168 0.0
C1652 C 0.99035 0.23287 0.62892 0.0
C1653 C 0.00917 0.23513 0.64148 0.0
C1654 C 0.01237 0.23669 0.67633 0.0
H1655 H 0.98326 0.28115 0.76063 0.0
H1656 H 0.99103 0.27385 0.71886 0.0
H1657 H 0.96848 0.26532 0.73554 0.0
H1658 H 0.96578 0.23341 0.70358 0.0
H1659 H 0.96017 0.23035 0.64272 0.0
H1660 H 0.76982 0.95836 0.64127 0.0
H1661 H 0.76586 0.96294 0.70218 0.0
H1662 H 0.76509 0.02468 0.68783 0.0
H1663 H 0.76823 0.02008 0.62642 0.0
H1664 H 0.7907 0.98147 0.74406 0.0
H1665 H 0.7187 0.01648 0.74929 0.0
H1666 H 0.72752 0.00437 0.71189 0.0
H1667 H 0.73556 0.0284 0.72181 0.0
C1668 C 0.76832 0.9729 0.65102 0.0
C1669 C 0.76904 0.98888 0.6292 0.0
C1670 C 0.76622 0.97549 0.68582 0.0
C1671 C 0.76488 0.99413 0.69949 0.0
C1672 C 0.76564 0.01016 0.67774 0.0
H1673 H 0.76955 0.03958 0.90231 0.0
H1674 H 0.76726 0.03463 0.84109 0.0
C1675 C 0.76763 0.00755 0.64279 0.0
C1676 C 0.76389 0.99665 0.73667 0.0
H1677 H 0.73688 0.01608 0.80048 0.0
C1678 C 0.77886 0.98891 0.75642 0.0
C1679 C 0.74843 0.00638 0.75268 0.0
C1680 C 0.73154 0.01424 0.7329 0.0
C1681 C 0.77896 0.99092 0.79172 0.0
C1682 C 0.76359 0.00075 0.80767 0.0
C1683 C 0.7486 0.00849 0.78804 0.0
C1684 C 0.76329 0.00373 0.84469 0.0
C1685 C 0.79574 0.98292 0.81165 0.0
C1686 C 0.76138 0.98801 0.86688 0.0
C1687 C 0.76251 0.99084 0.90187 0.0
C1688 C 0.76552 0.00941 0.91504 0.0
C1689 C 0.76692 0.02516 0.89278 0.0
C1690 C 0.76571 0.02235 0.85787 0.0
H1691 H 0.80811 0.97905 0.79509 0.0
H1692 H 0.80073 0.99352 0.83083 0.0
H1693 H 0.79105 0.9697 0.82524 0.0
H1694 H 0.75931 0.97356 0.85709 0.0
H1695 H 0.76131 0.97852 0.91863 0.0
H1696 H 0.45732 0.74876 0.90491 0.0
H1697 H 0.4635 0.75456 0.84462 0.0
H1698 H 0.51678 0.72269 0.8518 0.0
H1699 H 0.51069 0.71659 0.91169 0.0
H1700 H 0.49586 0.77044 0.80567 0.0
H1701 H 0.48304 0.69236 0.78308 0.0
H1702 H 0.47655 0.70412 0.82222 0.0
H1703 H 0.5012 0.69739 0.81431 0.0
C1704 C 0.47051 0.74326 0.89379 0.0
C1705 C 0.48334 0.73191 0.91297 0.0
C1706 C 0.47402 0.74662 0.85937 0.0
C1707 C 0.49041 0.73875 0.84373 0.0
C1708 C 0.50389 0.7286 0.86334 0.0
H1709 H 0.53848 0.74909 0.64249 0.0
H1710 H 0.5304 0.75437 0.70207 0.0
C1711 C 0.50036 0.72514 0.89758 0.0
C1712 C 0.49266 0.73953 0.80649 0.0
H1713 H 0.495 0.71051 0.73691 0.0
C1714 C 0.49558 0.75739 0.7905 0.0
C1715 C 0.49195 0.7225 0.7868 0.0
C1716 C 0.48784 0.70301 0.80235 0.0
C1717 C 0.49834 0.75858 0.75526 0.0
C1718 C 0.49839 0.74142 0.73579 0.0
C1719 C 0.49504 0.72366 0.75183 0.0
C1720 C 0.50211 0.74121 0.69879 0.0
C1721 C 0.50098 0.77814 0.73918 0.0
C1722 C 0.48887 0.7322 0.67705 0.0
C1723 C 0.49357 0.72889 0.64319 0.0
C1724 C 0.51162 0.73457 0.63031 0.0
C1725 C 0.52444 0.7446 0.6516 0.0
C1726 C 0.51978 0.74774 0.68565 0.0
H1727 H 0.49503 0.78982 0.75539 0.0
H1728 H 0.51663 0.78094 0.73569 0.0
H1729 H 0.4939 0.77881 0.71399 0.0
H1730 H 0.47516 0.72704 0.68663 0.0
H1731 H 0.48329 0.72127 0.62742 0.0
H1732 H 0.23957 0.4665 0.91042 0.0
H1733 H 0.23179 0.47404 0.8513 0.0
H1734 H 0.28168 0.51117 0.84568 0.0
H1735 H 0.28907 0.50438 0.90461 0.0
H1736 H 0.25205 0.52686 0.81304 0.0
H1737 H 0.26025 0.45027 0.77319 0.0
H1738 H 0.24172 0.45468 0.80398 0.0
H1739 H 0.26662 0.4584 0.81505 0.0
C1740 C 0.24875 0.47642 0.89664 0.0
C1741 C 0.26506 0.48467 0.9122 0.0
C1742 C 0.24436 0.48061 0.86278 0.0
C1743 C 0.25639 0.49284 0.84377 0.0
C1744 C 0.27219 0.50165 0.85973 0.0
H1745 H 0.29249 0.49707 0.64158 0.0
H1746 H 0.28435 0.4905 0.7003 0.0
C1747 C 0.27644 0.49769 0.89352 0.0
C1748 C 0.25338 0.49602 0.80692 0.0
H1749 H 0.25486 0.47306 0.73046 0.0
C1750 C 0.25242 0.51509 0.79494 0.0
C1751 C 0.25397 0.48064 0.78334 0.0
C1752 C 0.25585 0.45985 0.79438 0.0
C1753 C 0.25313 0.51929 0.76016 0.0
C1754 C 0.25417 0.50391 0.73661 0.0
C1755 C 0.25401 0.48481 0.74854 0.0
C1756 C 0.25797 0.50726 0.70003 0.0
C1757 C 0.25404 0.54015 0.7492 0.0
C1758 C 0.24566 0.51861 0.67992 0.0
C1759 C 0.25046 0.52268 0.64618 0.0
C1760 C 0.26748 0.51516 0.63184 0.0
C1761 C 0.27929 0.50315 0.65171 0.0
C1762 C 0.27462 0.49932 0.68538 0.0
H1763 H 0.25726 0.54997 0.77071 0.0
H1764 H 0.26524 0.54226 0.72944 0.0
H1765 H 0.23989 0.54445 0.73843 0.0
H1766 H 0.23248 0.5245 0.69038 0.0
H1767 H 0.24095 0.53182 0.63146 0.0
H1768 H 0.54333 0.25045 0.90596 0.0
H1769 H 0.53782 0.24465 0.84541 0.0
H1770 H 0.48381 0.27534 0.85133 0.0
H1771 H 0.48918 0.28138 0.9114 0.0
H1772 H 0.50516 0.22835 0.80532 0.0
H1773 H 0.51854 0.30647 0.78407 0.0
H1774 H 0.52501 0.2944 0.82295 0.0
H1775 H 0.50039 0.30131 0.81527 0.0
C1776 C 0.53012 0.25566 0.89449 0.0
C1777 C 0.51686 0.26667 0.91337 0.0
C1778 C 0.527 0.25231 0.85994 0.0
C1779 C 0.51057 0.25985 0.84391 0.0
C1780 C 0.4967 0.26965 0.8632 0.0
H1781 H 0.46163 0.25101 0.6437 0.0
H1782 H 0.47029 0.24522 0.7029 0.0
C1783 C 0.49983 0.27309 0.89754 0.0
C1784 C 0.50864 0.25922 0.80662 0.0
H1785 H 0.50636 0.28867 0.7376 0.0
C1786 C 0.50555 0.24148 0.79035 0.0
C1787 C 0.50948 0.27635 0.78722 0.0
C1788 C 0.51371 0.29571 0.80314 0.0
C1789 C 0.50267 0.24053 0.75511 0.0
C1790 C 0.50266 0.2578 0.73596 0.0
C1791 C 0.50629 0.27543 0.75227 0.0
C1792 C 0.49859 0.25831 0.69908 0.0
C1793 C 0.49979 0.22108 0.73874 0.0
C1794 C 0.51164 0.26746 0.67714 0.0
C1795 C 0.50661 0.27108 0.64353 0.0
C1796 C 0.48842 0.26555 0.63106 0.0
C1797 C 0.47578 0.25539 0.6525 0.0
C1798 C 0.48077 0.25195 0.68632 0.0
H1799 H 0.50587 0.20928 0.75453 0.0
H1800 H 0.48411 0.21836 0.7357 0.0
H1801 H 0.50661 0.22055 0.71331 0.0
H1802 H 0.52547 0.2725 0.68642 0.0
H1803 H 0.51676 0.27878 0.62762 0.0
H1804 H 0.7096 0.50485 0.63937 0.0
H1805 H 0.71813 0.51104 0.69794 0.0
H1806 H 0.76718 0.47303 0.68893 0.0
H1807 H 0.75828 0.46615 0.63 0.0
H1808 H 0.74832 0.46555 0.74506 0.0
H1809 H 0.7584 0.54424 0.73969 0.0
H1810 H 0.73524 0.53829 0.72252 0.0
H1811 H 0.75684 0.5297 0.70188 0.0
C1812 C 0.72237 0.49793 0.64954 0.0
C1813 C 0.73328 0.485 0.62983 0.0
C1814 C 0.72735 0.50167 0.68311 0.0
C1815 C 0.74359 0.49291 0.69775 0.0
C1816 C 0.75469 0.48012 0.67811 0.0
H1817 H 0.75944 0.53243 0.9078 0.0
H1818 H 0.768 0.52453 0.84918 0.0
C1819 C 0.74959 0.47621 0.64443 0.0
C1820 C 0.7478 0.49605 0.73428 0.0
H1821 H 0.74854 0.53134 0.79455 0.0
C1822 C 0.7488 0.47995 0.75581 0.0
C1823 C 0.74901 0.51478 0.74848 0.0
C1824 C 0.75005 0.53269 0.7268 0.0
C1825 C 0.74941 0.48209 0.79116 0.0
C1826 C 0.74834 0.50083 0.80542 0.0
C1827 C 0.74893 0.51693 0.78382 0.0
C1828 C 0.74473 0.50406 0.84214 0.0
C1829 C 0.75089 0.4642 0.81277 0.0
C1830 C 0.72887 0.49517 0.85784 0.0
C1831 C 0.72411 0.49946 0.89133 0.0
C1832 C 0.73483 0.5131 0.90982 0.0
C1833 C 0.75088 0.52185 0.8943 0.0
C1834 C 0.75579 0.51735 0.86078 0.0
H1835 H 0.75921 0.45274 0.79955 0.0
H1836 H 0.75793 0.46724 0.83744 0.0
H1837 H 0.7362 0.45843 0.81755 0.0
H1838 H 0.71967 0.48538 0.84382 0.0
H1839 H 0.71154 0.49255 0.90226 0.0
H1840 H 0.49522 0.24206 0.12669 0.0
H1841 H 0.48994 0.23971 0.18819 0.0
H1842 H 0.51287 0.2972 0.20072 0.0
H1843 H 0.51765 0.29966 0.13943 0.0
H1844 H 0.5154 0.24186 0.2407 0.0
H1845 H 0.46207 0.30111 0.25029 0.0
H1846 H 0.46923 0.29085 0.21024 0.0
H1847 H 0.48408 0.30877 0.23054 0.0
C1848 C 0.49893 0.25418 0.14275 0.0
C1849 C 0.50653 0.27113 0.12868 0.0
C1850 C 0.49599 0.25284 0.17771 0.0
C1851 C 0.50067 0.26844 0.19893 0.0
C1852 C 0.50867 0.28521 0.18476 0.0
H1853 H 0.51955 0.26865 0.41612 0.0
H1854 H 0.52304 0.26657 0.35443 0.0
C1855 C 0.51145 0.28659 0.14987 0.0
C1856 C 0.49753 0.26716 0.23596 0.0
H1857 H 0.47615 0.29042 0.30217 0.0
C1858 C 0.50668 0.25236 0.25417 0.0
C1859 C 0.4859 0.28069 0.25338 0.0
C1860 C 0.4746 0.29612 0.23506 0.0
C1861 C 0.50494 0.25104 0.28953 0.0
C1862 C 0.49414 0.26519 0.30711 0.0
C1863 C 0.48462 0.27969 0.28874 0.0
C1864 C 0.49231 0.26529 0.34453 0.0
C1865 C 0.51447 0.23437 0.30756 0.0
C1866 C 0.47392 0.26571 0.35942 0.0
C1867 C 0.47194 0.26738 0.39442 0.0
C1868 C 0.48831 0.26847 0.41531 0.0
C1869 C 0.50672 0.26778 0.40053 0.0
C1870 C 0.50871 0.26635 0.36537 0.0
H1871 H 0.5169 0.22198 0.29021 0.0
H1872 H 0.52874 0.23907 0.31728 0.0
H1873 H 0.50563 0.22936 0.32931 0.0
H1874 H 0.46106 0.26508 0.34385 0.0
H1875 H 0.45757 0.26836 0.40502 0.0
H1876 H 0.76091 0.50073 0.41569 0.0
H1877 H 0.76403 0.50651 0.35441 0.0
H1878 H 0.70285 0.49737 0.34231 0.0
H1879 H 0.69978 0.49123 0.40314 0.0
H1880 H 0.75158 0.4796 0.29987 0.0
H1881 H 0.71466 0.55072 0.29603 0.0
H1882 H 0.72498 0.54087 0.33433 0.0
H1883 H 0.70214 0.53219 0.31915 0.0
C1884 C 0.74819 0.49999 0.39982 0.0
C1885 C 0.7301 0.49567 0.41397 0.0
C1886 C 0.74996 0.50331 0.36498 0.0
C1887 C 0.73363 0.50259 0.344 0.0
C1888 C 0.71557 0.4983 0.35819 0.0
H1889 H 0.70012 0.51364 0.13684 0.0
H1890 H 0.70309 0.51019 0.19825 0.0
C1891 C 0.71383 0.49483 0.39286 0.0
C1892 C 0.73533 0.50574 0.30706 0.0
H1893 H 0.71975 0.53504 0.24325 0.0
C1894 C 0.74486 0.49183 0.2874 0.0
C1895 C 0.72649 0.52169 0.29105 0.0
C1896 C 0.71661 0.53734 0.31117 0.0
C1897 C 0.74504 0.493 0.25187 0.0
C1898 C 0.73578 0.50874 0.23576 0.0
C1899 C 0.72678 0.52295 0.2556 0.0
C1900 C 0.73434 0.51029 0.19837 0.0
C1901 C 0.75436 0.47694 0.2319 0.0
C1902 C 0.75092 0.51156 0.178 0.0
C1903 C 0.74922 0.51326 0.1428 0.0
C1904 C 0.73092 0.51386 0.12752 0.0
C1905 C 0.71438 0.51281 0.14796 0.0
C1906 C 0.71607 0.51101 0.18303 0.0
H1907 H 0.75669 0.46383 0.24759 0.0
H1908 H 0.7454 0.47297 0.20966 0.0
H1909 H 0.76863 0.48187 0.22254 0.0
H1910 H 0.76515 0.51147 0.18933 0.0
H1911 H 0.76216 0.51421 0.1275 0.0
H1912 H 0.5424 0.73031 0.40322 0.0
H1913 H 0.53869 0.73334 0.34191 0.0
H1914 H 0.47688 0.73667 0.35389 0.0
H1915 H 0.48063 0.73443 0.41555 0.0
H1916 H 0.51974 0.70828 0.301 0.0
H1917 H 0.48731 0.78118 0.28951 0.0
H1918 H 0.49871 0.77283 0.32792 0.0
H1919 H 0.47445 0.76557 0.31791 0.0
C1920 C 0.52806 0.73221 0.39283 0.0
C1921 C 0.5118 0.73241 0.41404 0.0
C1922 C 0.52595 0.73377 0.35781 0.0
C1923 C 0.50754 0.73552 0.34336 0.0
C1924 C 0.49125 0.73579 0.36454 0.0
H1925 H 0.46042 0.72748 0.14286 0.0
H1926 H 0.46649 0.73092 0.20357 0.0
C1927 C 0.49337 0.73433 0.39966 0.0
C1928 C 0.50539 0.73571 0.30605 0.0
H1929 H 0.48655 0.76138 0.24005 0.0
C1930 C 0.51266 0.71998 0.28762 0.0
C1931 C 0.49614 0.751 0.28871 0.0
C1932 C 0.48886 0.76869 0.30696 0.0
C1933 C 0.51048 0.71887 0.25239 0.0
C1934 C 0.50097 0.734 0.23514 0.0
C1935 C 0.49387 0.74983 0.25345 0.0
C1936 C 0.49749 0.73315 0.19826 0.0
C1937 C 0.51783 0.70125 0.23398 0.0
C1938 C 0.51292 0.73359 0.17522 0.0
C1939 C 0.50946 0.73178 0.14048 0.0
C1940 C 0.49053 0.72959 0.1284 0.0
C1941 C 0.47512 0.72949 0.1515 0.0
C1942 C 0.47856 0.73136 0.18613 0.0
H1943 H 0.52145 0.6893 0.25166 0.0
H1944 H 0.50695 0.69598 0.21553 0.0
H1945 H 0.53108 0.70509 0.21971 0.0
H1946 H 0.52761 0.73519 0.18415 0.0
H1947 H 0.52154 0.73199 0.12307 0.0
H1948 H 0.26666 0.51785 0.1284 0.0
H1949 H 0.26526 0.52145 0.19028 0.0
H1950 H 0.2683 0.45958 0.20153 0.0
H1951 H 0.27042 0.45601 0.1401 0.0
H1952 H 0.23898 0.50659 0.23782 0.0
H1953 H 0.31293 0.47844 0.26013 0.0
H1954 H 0.30446 0.48537 0.21867 0.0
H1955 H 0.29773 0.46242 0.23638 0.0
C1956 C 0.26703 0.50508 0.14421 0.0
C1957 C 0.26859 0.48667 0.1296 0.0
C1958 C 0.26617 0.50712 0.17942 0.0
C1959 C 0.26696 0.49079 0.20046 0.0
C1960 C 0.26801 0.47238 0.18579 0.0
H1961 H 0.26961 0.47598 0.42005 0.0
H1962 H 0.26684 0.47038 0.35874 0.0
C1963 C 0.26896 0.47035 0.15069 0.0
C1964 C 0.26691 0.49296 0.23776 0.0
H1965 H 0.29359 0.48387 0.30868 0.0
C1966 C 0.25092 0.50167 0.25333 0.0
C1967 C 0.28252 0.48648 0.2579 0.0
C1968 C 0.30047 0.47781 0.24246 0.0
C1969 C 0.25006 0.50392 0.28863 0.0
C1970 C 0.26568 0.49749 0.3087 0.0
C1971 C 0.28158 0.48864 0.29317 0.0
C1972 C 0.26632 0.50072 0.34571 0.0
C1973 C 0.23237 0.513 0.30421 0.0
C1974 C 0.26714 0.51958 0.35847 0.0
C1975 C 0.26886 0.52276 0.39321 0.0
C1976 C 0.26976 0.50714 0.41583 0.0
C1977 C 0.2689 0.48824 0.40307 0.0
C1978 C 0.26727 0.48505 0.3682 0.0
H1979 H 0.21981 0.51253 0.28674 0.0
H1980 H 0.2284 0.50564 0.3282 0.0
H1981 H 0.23545 0.52836 0.31007 0.0
H1982 H 0.26691 0.53185 0.34147 0.0
H1983 H 0.27001 0.53747 0.40228 0.0
loop_
_geom_bond_atom_site_label_1
_geom_bond_atom_site_label_2
_geom_bond_distance
_geom_bond_site_symmetry_2
_ccdc_geom_bond_type
Co0 O3 1.970 . S
Co0 N17 1.989 . S
Co0 O25 1.967 . S
Co0 O32 1.920 1_455 S
Co1 O4 1.966 . S
Co1 N10 2.022 . S
Co1 N18 1.993 . S
Co1 O26 1.941 . S
C2 O3 1.258 . S
C2 O4 1.263 . S
O3 Co0 1.970 . S
O3 C2 1.258 . S
O4 Co1 1.966 . S
O4 C2 1.263 . S
C5 O6 1.235 . S
C5 O32 1.289 . S
O6 C5 1.235 . S
C7 C9 1.400 . S
C7 N10 1.351 . S
C7 C12 1.501 . S
C8 C9 1.387 . S
C8 N11 1.341 . S
C9 C7 1.400 . S
C9 C8 1.387 . S
N10 Co1 2.022 . S
N10 C7 1.351 . S
N10 N11 1.365 . S
N11 C8 1.341 . S
N11 N10 1.365 . S
N11 H31 0.862 1_554 S
C12 C7 1.501 . S
C12 H13 0.961 . S
C12 H14 0.961 . S
C12 H15 0.960 . S
H13 C12 0.961 . S
H14 C12 0.961 . S
H15 C12 0.960 . S
C16 N17 1.342 1_556 S
C16 C20 1.401 . S
C16 C21 1.499 1_455 S
N17 Co0 1.989 . S
N17 C16 1.342 1_554 S
N17 N18 1.388 . S
N18 Co1 1.993 . S
N18 N17 1.388 . S
N18 C19 1.346 1_554 S
C19 N18 1.346 1_556 S
C19 C20 1.396 . S
C19 C29 1.510 . S
C20 C16 1.401 . S
C20 C19 1.396 . S
C21 C16 1.499 1_655 S
C21 H22 0.959 . S
C21 H23 0.960 . S
C21 H24 0.961 . S
H22 C21 0.959 . S
H23 C21 0.960 . S
H24 C21 0.961 . S
O25 Co0 1.967 . S
O25 C33 1.258 . S
O26 Co1 1.941 . S
O26 C33 1.266 . S
H27 C29 0.959 . S
H28 C29 0.961 . S
C29 C19 1.510 . S
C29 H27 0.959 . S
C29 H28 0.961 . S
C29 H30 0.960 . S
H30 C29 0.960 . S
H31 N11 0.862 1_556 S
O32 Co0 1.920 1_655 S
O32 C5 1.289 . S
C33 O25 1.258 . S
C33 O26 1.266 . S
Co34 O37 1.970 . S
Co34 N51 1.989 . S
Co34 O59 1.967 . S
Co34 O66 1.920 1_545 S
Co35 O38 1.966 . S
Co35 N44 2.022 . S
Co35 N52 1.993 . S
Co35 O60 1.941 . S
C36 O37 1.258 . S
C36 O38 1.263 . S
O37 Co34 1.970 . S
O37 C36 1.258 . S
O38 Co35 1.966 . S
O38 C36 1.263 . S
C39 O40 1.235 . S
C39 O66 1.289 . S
O40 C39 1.235 . S
C41 C43 1.400 . S
C41 N44 1.351 . S
C41 C46 1.501 . S
C42 C43 1.387 . S
C42 N45 1.341 . S
C43 C41 1.400 . S
C43 C42 1.387 . S
N44 Co35 2.022 . S
N44 C41 1.351 . S
N44 N45 1.365 . S
N45 C42 1.341 . S
N45 N44 1.365 . S
N45 H65 0.862 1_554 S
C46 C41 1.501 . S
C46 H47 0.961 . S
C46 H48 0.961 . S
C46 H49 0.960 . S
H47 C46 0.961 . S
H48 C46 0.961 . S
H49 C46 0.960 . S
C50 N51 1.342 1_556 S
C50 C54 1.401 . S
C50 C55 1.499 1_545 S
N51 Co34 1.989 . S
N51 C50 1.342 1_554 S
N51 N52 1.388 . S
N52 Co35 1.993 . S
N52 N51 1.388 . S
N52 C53 1.346 1_554 S
C53 N52 1.346 1_556 S
C53 C54 1.396 . S
C53 C63 1.510 . S
C54 C50 1.401 . S
C54 C53 1.396 . S
C55 C50 1.499 1_565 S
C55 H56 0.959 . S
C55 H57 0.960 . S
C55 H58 0.961 . S
H56 C55 0.959 . S
H57 C55 0.960 . S
H58 C55 0.961 . S
O59 Co34 1.967 . S
O59 C67 1.258 . S
O60 Co35 1.941 . S
O60 C67 1.266 . S
H61 C63 0.959 . S
H62 C63 0.961 . S
C63 C53 1.510 . S
C63 H61 0.959 . S
C63 H62 0.961 . S
C63 H64 0.960 . S
H64 C63 0.960 . S
H65 N45 0.862 1_556 S
O66 Co34 1.920 1_565 S
O66 C39 1.289 . S
C67 O59 1.258 . S
C67 O60 1.266 . S
Co68 O71 1.970 . S
Co68 N85 1.989 . S
Co68 O93 1.967 . S
Co68 O100 1.920 1_655 S
Co69 O72 1.966 . S
Co69 N78 2.022 . S
Co69 N86 1.993 . S
Co69 O94 1.941 . S
C70 O71 1.258 . S
C70 O72 1.263 . S
O71 Co68 1.970 . S
O71 C70 1.258 . S
O72 Co69 1.966 . S
O72 C70 1.263 . S
C73 O74 1.235 . S
C73 O100 1.289 . S
O74 C73 1.235 . S
C75 C77 1.400 . S
C75 N78 1.351 . S
C75 C80 1.501 . S
C76 C77 1.387 . S
C76 N79 1.341 . S
C77 C75 1.400 . S
C77 C76 1.387 . S
N78 Co69 2.022 . S
N78 C75 1.351 . S
N78 N79 1.365 . S
N79 C76 1.341 . S
N79 N78 1.365 . S
N79 H99 0.862 1_554 S
C80 C75 1.501 . S
C80 H81 0.961 . S
C80 H82 0.961 . S
C80 H83 0.960 . S
H81 C80 0.961 . S
H82 C80 0.961 . S
H83 C80 0.960 . S
C84 N85 1.342 1_556 S
C84 C88 1.401 . S
C84 C89 1.499 1_655 S
N85 Co68 1.989 . S
N85 C84 1.342 1_554 S
N85 N86 1.388 . S
N86 Co69 1.993 . S
N86 N85 1.388 . S
N86 C87 1.346 1_554 S
C87 N86 1.346 1_556 S
C87 C88 1.396 . S
C87 C97 1.510 . S
C88 C84 1.401 . S
C88 C87 1.396 . S
C89 C84 1.499 1_455 S
C89 H90 0.959 . S
C89 H91 0.960 . S
C89 H92 0.961 . S
H90 C89 0.959 . S
H91 C89 0.960 . S
H92 C89 0.961 . S
O93 Co68 1.967 . S
O93 C101 1.258 . S
O94 Co69 1.941 . S
O94 C101 1.266 . S
H95 C97 0.959 . S
H96 C97 0.961 . S
C97 C87 1.510 . S
C97 H95 0.959 . S
C97 H96 0.961 . S
C97 H98 0.960 . S
H98 C97 0.960 . S
H99 N79 0.862 1_556 S
O100 Co68 1.920 1_455 S
O100 C73 1.289 . S
C101 O93 1.258 . S
C101 O94 1.266 . S
Co102 O105 1.970 . S
Co102 N119 1.989 . S
Co102 O127 1.967 . S
Co102 O134 1.920 1_565 S
Co103 O106 1.966 . S
Co103 N112 2.022 . S
Co103 N120 1.993 . S
Co103 O128 1.941 . S
C104 O105 1.258 . S
C104 O106 1.263 . S
O105 Co102 1.970 . S
O105 C104 1.258 . S
O106 Co103 1.966 . S
O106 C104 1.263 . S
C107 O108 1.235 . S
C107 O134 1.289 . S
O108 C107 1.235 . S
C109 C111 1.400 . S
C109 N112 1.351 . S
C109 C114 1.501 . S
C110 C111 1.387 . S
C110 N113 1.341 . S
C111 C109 1.400 . S
C111 C110 1.387 . S
N112 Co103 2.022 . S
N112 C109 1.351 . S
N112 N113 1.365 . S
N113 C110 1.341 . S
N113 N112 1.365 . S
N113 H133 0.862 1_554 S
C114 C109 1.501 . S
C114 H115 0.961 . S
C114 H116 0.961 . S
C114 H117 0.960 . S
H115 C114 0.961 . S
H116 C114 0.961 . S
H117 C114 0.960 . S
C118 N119 1.342 1_556 S
C118 C122 1.401 . S
C118 C123 1.499 1_565 S
N119 Co102 1.989 . S
N119 C118 1.342 1_554 S
N119 N120 1.388 . S
N120 Co103 1.993 . S
N120 N119 1.388 . S
N120 C121 1.346 1_554 S
C121 N120 1.346 1_556 S
C121 C122 1.396 . S
C121 C131 1.510 . S
C122 C118 1.401 . S
C122 C121 1.396 . S
C123 C118 1.499 1_545 S
C123 H124 0.959 . S
C123 H125 0.960 . S
C123 H126 0.961 . S
H124 C123 0.959 . S
H125 C123 0.960 . S
H126 C123 0.961 . S
O127 Co102 1.967 . S
O127 C135 1.258 . S
O128 Co103 1.941 . S
O128 C135 1.266 . S
H129 C131 0.959 . S
H130 C131 0.961 . S
C131 C121 1.510 . S
C131 H129 0.959 . S
C131 H130 0.961 . S
C131 H132 0.960 . S
H132 C131 0.960 . S
H133 N113 0.862 1_556 S
O134 Co102 1.920 1_545 S
O134 C107 1.289 . S
C135 O127 1.258 . S
C135 O128 1.266 . S
Co136 O139 1.970 . S
Co136 N153 1.989 . S
Co136 O161 1.967 . S
Co136 O168 1.920 1_455 S
Co137 O140 1.966 . S
Co137 N146 2.022 . S
Co137 N154 1.993 . S
Co137 O162 1.941 . S
C138 O139 1.258 . S
C138 O140 1.263 . S
O139 Co136 1.970 . S
O139 C138 1.258 . S
O140 Co137 1.966 . S
O140 C138 1.263 . S
C141 O142 1.235 . S
C141 O168 1.289 . S
O142 C141 1.235 . S
C143 C145 1.400 . S
C143 N146 1.351 . S
C143 C148 1.501 . S
C144 C145 1.387 . S
C144 N147 1.341 . S
C145 C143 1.400 . S
C145 C144 1.387 . S
N146 Co137 2.022 . S
N146 C143 1.351 . S
N146 N147 1.365 . S
N147 C144 1.341 . S
N147 N146 1.365 . S
N147 H167 0.862 . S
C148 C143 1.501 . S
C148 H149 0.961 . S
C148 H150 0.961 . S
C148 H151 0.960 . S
H149 C148 0.961 . S
H150 C148 0.961 . S
H151 C148 0.960 . S
C152 N153 1.342 . S
C152 C156 1.401 . S
C152 C157 1.499 1_455 S
N153 Co136 1.989 . S
N153 C152 1.342 . S
N153 N154 1.388 . S
N154 Co137 1.993 . S
N154 N153 1.388 . S
N154 C155 1.346 . S
C155 N154 1.346 . S
C155 C156 1.396 . S
C155 C165 1.510 . S
C156 C152 1.401 . S
C156 C155 1.396 . S
C157 C152 1.499 1_655 S
C157 H158 0.959 . S
C157 H159 0.960 . S
C157 H160 0.961 . S
H158 C157 0.959 . S
H159 C157 0.960 . S
H160 C157 0.961 . S
O161 Co136 1.967 . S
O161 C169 1.258 . S
O162 Co137 1.941 . S
O162 C169 1.266 . S
H163 C165 0.959 . S
H164 C165 0.961 . S
C165 C155 1.510 . S
C165 H163 0.959 . S
C165 H164 0.961 . S
C165 H166 0.960 . S
H166 C165 0.960 . S
H167 N147 0.862 . S
O168 Co136 1.920 1_655 S
O168 C141 1.289 . S
C169 O161 1.258 . S
C169 O162 1.266 . S
Co170 O173 1.970 . S
Co170 N187 1.989 . S
Co170 O195 1.967 . S
Co170 O202 1.920 1_545 S
Co171 O174 1.966 . S
Co171 N180 2.022 . S
Co171 N188 1.993 . S
Co171 O196 1.941 . S
C172 O173 1.258 . S
C172 O174 1.263 . S
O173 Co170 1.970 . S
O173 C172 1.258 . S
O174 Co171 1.966 . S
O174 C172 1.263 . S
C175 O176 1.235 . S
C175 O202 1.289 . S
O176 C175 1.235 . S
C177 C179 1.400 . S
C177 N180 1.351 . S
C177 C182 1.501 . S
C178 C179 1.387 . S
C178 N181 1.341 . S
C179 C177 1.400 . S
C179 C178 1.387 . S
N180 Co171 2.022 . S
N180 C177 1.351 . S
N180 N181 1.365 . S
N181 C178 1.341 . S
N181 N180 1.365 . S
N181 H201 0.862 . S
C182 C177 1.501 . S
C182 H183 0.961 . S
C182 H184 0.961 . S
C182 H185 0.960 . S
H183 C182 0.961 . S
H184 C182 0.961 . S
H185 C182 0.960 . S
C186 N187 1.342 . S
C186 C190 1.401 . S
C186 C191 1.499 1_545 S
N187 Co170 1.989 . S
N187 C186 1.342 . S
N187 N188 1.388 . S
N188 Co171 1.993 . S
N188 N187 1.388 . S
N188 C189 1.346 . S
C189 N188 1.346 . S
C189 C190 1.396 . S
C189 C199 1.510 . S
C190 C186 1.401 . S
C190 C189 1.396 . S
C191 C186 1.499 1_565 S
C191 H192 0.959 . S
C191 H193 0.960 . S
C191 H194 0.961 . S
H192 C191 0.959 . S
H193 C191 0.960 . S
H194 C191 0.961 . S
O195 Co170 1.967 . S
O195 C203 1.258 . S
O196 Co171 1.941 . S
O196 C203 1.266 . S
H197 C199 0.959 . S
H198 C199 0.961 . S
C199 C189 1.510 . S
C199 H197 0.959 . S
C199 H198 0.961 . S
C199 H200 0.960 . S
H200 C199 0.960 . S
H201 N181 0.862 . S
O202 Co170 1.920 1_565 S
O202 C175 1.289 . S
C203 O195 1.258 . S
C203 O196 1.266 . S
Co204 O207 1.970 . S
Co204 N221 1.989 . S
Co204 O229 1.967 . S
Co204 O236 1.920 1_655 S
Co205 O208 1.966 . S
Co205 N214 2.022 . S
Co205 N222 1.993 . S
Co205 O230 1.941 . S
C206 O207 1.258 . S
C206 O208 1.263 . S
O207 Co204 1.970 . S
O207 C206 1.258 . S
O208 Co205 1.966 . S
O208 C206 1.263 . S
C209 O210 1.235 . S
C209 O236 1.289 . S
O210 C209 1.235 . S
C211 C213 1.400 . S
C211 N214 1.351 . S
C211 C216 1.501 . S
C212 C213 1.387 . S
C212 N215 1.341 . S
C213 C211 1.400 . S
C213 C212 1.387 . S
N214 Co205 2.022 . S
N214 C211 1.351 . S
N214 N215 1.365 . S
N215 C212 1.341 . S
N215 N214 1.365 . S
N215 H235 0.862 . S
C216 C211 1.501 . S
C216 H217 0.961 . S
C216 H218 0.961 . S
C216 H219 0.960 . S
H217 C216 0.961 . S
H218 C216 0.961 . S
H219 C216 0.960 . S
C220 N221 1.342 . S
C220 C224 1.401 . S
C220 C225 1.499 1_655 S
N221 Co204 1.989 . S
N221 C220 1.342 . S
N221 N222 1.388 . S
N222 Co205 1.993 . S
N222 N221 1.388 . S
N222 C223 1.346 . S
C223 N222 1.346 . S
C223 C224 1.396 . S
C223 C233 1.510 . S
C224 C220 1.401 . S
C224 C223 1.396 . S
C225 C220 1.499 1_455 S
C225 H226 0.959 . S
C225 H227 0.960 . S
C225 H228 0.961 . S
H226 C225 0.959 . S
H227 C225 0.960 . S
H228 C225 0.961 . S
O229 Co204 1.967 . S
O229 C237 1.258 . S
O230 Co205 1.941 . S
O230 C237 1.266 . S
H231 C233 0.959 . S
H232 C233 0.961 . S
C233 C223 1.510 . S
C233 H231 0.959 . S
C233 H232 0.961 . S
C233 H234 0.960 . S
H234 C233 0.960 . S
H235 N215 0.862 . S
O236 Co204 1.920 1_455 S
O236 C209 1.289 . S
C237 O229 1.258 . S
C237 O230 1.266 . S
Co238 O241 1.970 . S
Co238 N255 1.989 . S
Co238 O263 1.967 . S
Co238 O270 1.920 1_565 S
Co239 O242 1.966 . S
Co239 N248 2.022 . S
Co239 N256 1.993 . S
Co239 O264 1.941 . S
C240 O241 1.258 . S
C240 O242 1.263 . S
O241 Co238 1.970 . S
O241 C240 1.258 . S
O242 Co239 1.966 . S
O242 C240 1.263 . S
C243 O244 1.235 . S
C243 O270 1.289 . S
O244 C243 1.235 . S
C245 C247 1.400 . S
C245 N248 1.351 . S
C245 C250 1.501 . S
C246 C247 1.387 . S
C246 N249 1.341 . S
C247 C245 1.400 . S
C247 C246 1.387 . S
N248 Co239 2.022 . S
N248 C245 1.351 . S
N248 N249 1.365 . S
N249 C246 1.341 . S
N249 N248 1.365 . S
N249 H269 0.862 . S
C250 C245 1.501 . S
C250 H251 0.961 . S
C250 H252 0.961 . S
C250 H253 0.960 . S
H251 C250 0.961 . S
H252 C250 0.961 . S
H253 C250 0.960 . S
C254 N255 1.342 . S
C254 C258 1.401 . S
C254 C259 1.499 1_565 S
N255 Co238 1.989 . S
N255 C254 1.342 . S
N255 N256 1.388 . S
N256 Co239 1.993 . S
N256 N255 1.388 . S
N256 C257 1.346 . S
C257 N256 1.346 . S
C257 C258 1.396 . S
C257 C267 1.510 . S
C258 C254 1.401 . S
C258 C257 1.396 . S
C259 C254 1.499 1_545 S
C259 H260 0.959 . S
C259 H261 0.960 . S
C259 H262 0.961 . S
H260 C259 0.959 . S
H261 C259 0.960 . S
H262 C259 0.961 . S
O263 Co238 1.967 . S
O263 C271 1.258 . S
O264 Co239 1.941 . S
O264 C271 1.266 . S
H265 C267 0.959 . S
H266 C267 0.961 . S
C267 C257 1.510 . S
C267 H265 0.959 . S
C267 H266 0.961 . S
C267 H268 0.960 . S
H268 C267 0.960 . S
H269 N249 0.862 . S
O270 Co238 1.920 1_545 S
O270 C243 1.289 . S
C271 O263 1.258 . S
C271 O264 1.266 . S
Co272 O275 1.970 . S
Co272 N289 1.989 . S
Co272 O297 1.967 . S
Co272 O304 1.920 . S
Co273 O276 1.966 . S
Co273 N282 2.022 . S
Co273 N290 1.993 . S
Co273 O298 1.941 . S
C274 O275 1.258 . S
C274 O276 1.263 . S
O275 Co272 1.970 . S
O275 C274 1.258 . S
O276 Co273 1.966 . S
O276 C274 1.263 . S
C277 O278 1.235 . S
C277 O304 1.289 . S
O278 C277 1.235 . S
C279 C281 1.400 . S
C279 N282 1.351 . S
C279 C284 1.501 . S
C280 C281 1.387 . S
C280 N283 1.341 . S
C281 C279 1.400 . S
C281 C280 1.387 . S
N282 Co273 2.022 . S
N282 C279 1.351 . S
N282 N283 1.365 . S
N283 C280 1.341 . S
N283 N282 1.365 . S
N283 H303 0.862 . S
C284 C279 1.501 . S
C284 H285 0.961 . S
C284 H286 0.961 . S
C284 H287 0.960 . S
H285 C284 0.961 . S
H286 C284 0.961 . S
H287 C284 0.960 . S
C288 N289 1.342 . S
C288 C292 1.401 . S
C288 C293 1.499 . S
N289 Co272 1.989 . S
N289 C288 1.342 . S
N289 N290 1.388 . S
N290 Co273 1.993 . S
N290 N289 1.388 . S
N290 C291 1.346 . S
C291 N290 1.346 . S
C291 C292 1.396 . S
C291 C301 1.510 . S
C292 C288 1.401 . S
C292 C291 1.396 . S
C293 C288 1.499 . S
C293 H294 0.959 . S
C293 H295 0.960 . S
C293 H296 0.961 . S
H294 C293 0.959 . S
H295 C293 0.960 . S
H296 C293 0.961 . S
O297 Co272 1.967 . S
O297 C305 1.258 . S
O298 Co273 1.941 . S
O298 C305 1.266 . S
H299 C301 0.959 . S
H300 C301 0.961 . S
C301 C291 1.510 . S
C301 H299 0.959 . S
C301 H300 0.961 . S
C301 H302 0.960 . S
H302 C301 0.960 . S
H303 N283 0.862 . S
O304 Co272 1.920 . S
O304 C277 1.289 . S
C305 O297 1.258 . S
C305 O298 1.266 . S
Co306 O309 1.970 . S
Co306 N323 1.989 . S
Co306 O331 1.967 . S
Co306 O338 1.920 . S
Co307 O310 1.966 . S
Co307 N316 2.022 . S
Co307 N324 1.993 . S
Co307 O332 1.941 . S
C308 O309 1.258 . S
C308 O310 1.263 . S
O309 Co306 1.970 . S
O309 C308 1.258 . S
O310 Co307 1.966 . S
O310 C308 1.263 . S
C311 O312 1.235 . S
C311 O338 1.289 . S
O312 C311 1.235 . S
C313 C315 1.400 . S
C313 N316 1.351 . S
C313 C318 1.501 . S
C314 C315 1.387 . S
C314 N317 1.341 . S
C315 C313 1.400 . S
C315 C314 1.387 . S
N316 Co307 2.022 . S
N316 C313 1.351 . S
N316 N317 1.365 . S
N317 C314 1.341 . S
N317 N316 1.365 . S
N317 H337 0.862 . S
C318 C313 1.501 . S
C318 H319 0.961 . S
C318 H320 0.961 . S
C318 H321 0.960 . S
H319 C318 0.961 . S
H320 C318 0.961 . S
H321 C318 0.960 . S
C322 N323 1.342 . S
C322 C326 1.401 . S
C322 C327 1.499 . S
N323 Co306 1.989 . S
N323 C322 1.342 . S
N323 N324 1.388 . S
N324 Co307 1.993 . S
N324 N323 1.388 . S
N324 C325 1.346 . S
C325 N324 1.346 . S
C325 C326 1.396 . S
C325 C335 1.510 . S
C326 C322 1.401 . S
C326 C325 1.396 . S
C327 C322 1.499 . S
C327 H328 0.959 . S
C327 H329 0.960 . S
C327 H330 0.961 . S
H328 C327 0.959 . S
H329 C327 0.960 . S
H330 C327 0.961 . S
O331 Co306 1.967 . S
O331 C339 1.258 . S
O332 Co307 1.941 . S
O332 C339 1.266 . S
H333 C335 0.959 . S
H334 C335 0.961 . S
C335 C325 1.510 . S
C335 H333 0.959 . S
C335 H334 0.961 . S
C335 H336 0.960 . S
H336 C335 0.960 . S
H337 N317 0.862 . S
O338 Co306 1.920 . S
O338 C311 1.289 . S
C339 O331 1.258 . S
C339 O332 1.266 . S
Co340 O343 1.970 . S
Co340 N357 1.989 . S
Co340 O365 1.967 . S
Co340 O372 1.920 . S
Co341 O344 1.966 . S
Co341 N350 2.022 . S
Co341 N358 1.993 . S
Co341 O366 1.941 . S
C342 O343 1.258 . S
C342 O344 1.263 . S
O343 Co340 1.970 . S
O343 C342 1.258 . S
O344 Co341 1.966 . S
O344 C342 1.263 . S
C345 O346 1.235 . S
C345 O372 1.289 . S
O346 C345 1.235 . S
C347 C349 1.400 . S
C347 N350 1.351 . S
C347 C352 1.501 . S
C348 C349 1.387 . S
C348 N351 1.341 . S
C349 C347 1.400 . S
C349 C348 1.387 . S
N350 Co341 2.022 . S
N350 C347 1.351 . S
N350 N351 1.365 . S
N351 C348 1.341 . S
N351 N350 1.365 . S
N351 H371 0.862 . S
C352 C347 1.501 . S
C352 H353 0.961 . S
C352 H354 0.961 . S
C352 H355 0.960 . S
H353 C352 0.961 . S
H354 C352 0.961 . S
H355 C352 0.960 . S
C356 N357 1.342 . S
C356 C360 1.401 . S
C356 C361 1.499 . S
N357 Co340 1.989 . S
N357 C356 1.342 . S
N357 N358 1.388 . S
N358 Co341 1.993 . S
N358 N357 1.388 . S
N358 C359 1.346 . S
C359 N358 1.346 . S
C359 C360 1.396 . S
C359 C369 1.510 . S
C360 C356 1.401 . S
C360 C359 1.396 . S
C361 C356 1.499 . S
C361 H362 0.959 . S
C361 H363 0.960 . S
C361 H364 0.961 . S
H362 C361 0.959 . S
H363 C361 0.960 . S
H364 C361 0.961 . S
O365 Co340 1.967 . S
O365 C373 1.258 . S
O366 Co341 1.941 . S
O366 C373 1.266 . S
H367 C369 0.959 . S
H368 C369 0.961 . S
C369 C359 1.510 . S
C369 H367 0.959 . S
C369 H368 0.961 . S
C369 H370 0.960 . S
H370 C369 0.960 . S
H371 N351 0.862 . S
O372 Co340 1.920 . S
O372 C345 1.289 . S
C373 O365 1.258 . S
C373 O366 1.266 . S
Co374 O377 1.970 . S
Co374 N391 1.989 . S
Co374 O399 1.967 . S
Co374 O406 1.920 . S
Co375 O378 1.966 . S
Co375 N384 2.022 . S
Co375 N392 1.993 . S
Co375 O400 1.941 . S
C376 O377 1.258 . S
C376 O378 1.263 . S
O377 Co374 1.970 . S
O377 C376 1.258 . S
O378 Co375 1.966 . S
O378 C376 1.263 . S
C379 O380 1.235 . S
C379 O406 1.289 . S
O380 C379 1.235 . S
C381 C383 1.400 . S
C381 N384 1.351 . S
C381 C386 1.501 . S
C382 C383 1.387 . S
C382 N385 1.341 . S
C383 C381 1.400 . S
C383 C382 1.387 . S
N384 Co375 2.022 . S
N384 C381 1.351 . S
N384 N385 1.365 . S
N385 C382 1.341 . S
N385 N384 1.365 . S
N385 H405 0.862 . S
C386 C381 1.501 . S
C386 H387 0.961 . S
C386 H388 0.961 . S
C386 H389 0.960 . S
H387 C386 0.961 . S
H388 C386 0.961 . S
H389 C386 0.960 . S
C390 N391 1.342 . S
C390 C394 1.401 . S
C390 C395 1.499 . S
N391 Co374 1.989 . S
N391 C390 1.342 . S
N391 N392 1.388 . S
N392 Co375 1.993 . S
N392 N391 1.388 . S
N392 C393 1.346 . S
C393 N392 1.346 . S
C393 C394 1.396 . S
C393 C403 1.510 . S
C394 C390 1.401 . S
C394 C393 1.396 . S
C395 C390 1.499 . S
C395 H396 0.959 . S
C395 H397 0.960 . S
C395 H398 0.961 . S
H396 C395 0.959 . S
H397 C395 0.960 . S
H398 C395 0.961 . S
O399 Co374 1.967 . S
O399 C407 1.258 . S
O400 Co375 1.941 . S
O400 C407 1.266 . S
H401 C403 0.959 . S
H402 C403 0.961 . S
C403 C393 1.510 . S
C403 H401 0.959 . S
C403 H402 0.961 . S
C403 H404 0.960 . S
H404 C403 0.960 . S
H405 N385 0.862 . S
O406 Co374 1.920 . S
O406 C379 1.289 . S
C407 O399 1.258 . S
C407 O400 1.266 . S
Co408 O411 1.970 1_554 S
Co408 N425 1.989 . S
Co408 O433 1.967 1_554 S
Co408 O440 1.920 . S
Co409 O412 1.966 1_554 S
Co409 N418 2.022 . S
Co409 N426 1.993 . S
Co409 O434 1.941 . S
C410 O411 1.258 . S
C410 O412 1.263 . S
O411 Co408 1.970 1_556 S
O411 C410 1.258 . S
O412 Co409 1.966 1_556 S
O412 C410 1.263 . S
C413 O414 1.235 . S
C413 O440 1.289 . S
O414 C413 1.235 . S
C415 C417 1.400 1_556 S
C415 N418 1.351 1_556 S
C415 C420 1.501 . S
C416 C417 1.387 . S
C416 N419 1.341 . S
C417 C415 1.400 1_554 S
C417 C416 1.387 . S
N418 Co409 2.022 . S
N418 C415 1.351 1_554 S
N418 N419 1.365 . S
N419 C416 1.341 . S
N419 N418 1.365 . S
N419 H439 0.862 . S
C420 C415 1.501 . S
C420 H421 0.961 . S
C420 H422 0.961 . S
C420 H423 0.960 . S
H421 C420 0.961 . S
H422 C420 0.961 . S
H423 C420 0.960 . S
C424 N425 1.342 . S
C424 C428 1.401 . S
C424 C429 1.499 . S
N425 Co408 1.989 . S
N425 C424 1.342 . S
N425 N426 1.388 . S
N426 Co409 1.993 . S
N426 N425 1.388 . S
N426 C427 1.346 . S
C427 N426 1.346 . S
C427 C428 1.396 . S
C427 C437 1.510 . S
C428 C424 1.401 . S
C428 C427 1.396 . S
C429 C424 1.499 . S
C429 H430 0.959 . S
C429 H431 0.960 . S
C429 H432 0.961 . S
H430 C429 0.959 . S
H431 C429 0.960 . S
H432 C429 0.961 . S
O433 Co408 1.967 1_556 S
O433 C441 1.258 . S
O434 Co409 1.941 . S
O434 C441 1.266 1_554 S
H435 C437 0.959 . S
H436 C437 0.961 . S
C437 C427 1.510 . S
C437 H435 0.959 . S
C437 H436 0.961 . S
C437 H438 0.960 . S
H438 C437 0.960 . S
H439 N419 0.862 . S
O440 Co408 1.920 . S
O440 C413 1.289 . S
C441 O433 1.258 . S
C441 O434 1.266 1_556 S
Co442 O445 1.970 1_554 S
Co442 N459 1.989 . S
Co442 O467 1.967 1_554 S
Co442 O474 1.920 . S
Co443 O446 1.966 1_554 S
Co443 N452 2.022 . S
Co443 N460 1.993 . S
Co443 O468 1.941 . S
C444 O445 1.258 . S
C444 O446 1.263 . S
O445 Co442 1.970 1_556 S
O445 C444 1.258 . S
O446 Co443 1.966 1_556 S
O446 C444 1.263 . S
C447 O448 1.235 . S
C447 O474 1.289 . S
O448 C447 1.235 . S
C449 C451 1.400 1_556 S
C449 N452 1.351 1_556 S
C449 C454 1.501 . S
C450 C451 1.387 . S
C450 N453 1.341 . S
C451 C449 1.400 1_554 S
C451 C450 1.387 . S
N452 Co443 2.022 . S
N452 C449 1.351 1_554 S
N452 N453 1.365 . S
N453 C450 1.341 . S
N453 N452 1.365 . S
N453 H473 0.862 . S
C454 C449 1.501 . S
C454 H455 0.961 . S
C454 H456 0.961 . S
C454 H457 0.960 . S
H455 C454 0.961 . S
H456 C454 0.961 . S
H457 C454 0.960 . S
C458 N459 1.342 . S
C458 C462 1.401 . S
C458 C463 1.499 . S
N459 Co442 1.989 . S
N459 C458 1.342 . S
N459 N460 1.388 . S
N460 Co443 1.993 . S
N460 N459 1.388 . S
N460 C461 1.346 . S
C461 N460 1.346 . S
C461 C462 1.396 . S
C461 C471 1.510 . S
C462 C458 1.401 . S
C462 C461 1.396 . S
C463 C458 1.499 . S
C463 H464 0.959 . S
C463 H465 0.960 . S
C463 H466 0.961 . S
H464 C463 0.959 . S
H465 C463 0.960 . S
H466 C463 0.961 . S
O467 Co442 1.967 1_556 S
O467 C475 1.258 . S
O468 Co443 1.941 . S
O468 C475 1.266 1_554 S
H469 C471 0.959 . S
H470 C471 0.961 . S
C471 C461 1.510 . S
C471 H469 0.959 . S
C471 H470 0.961 . S
C471 H472 0.960 . S
H472 C471 0.960 . S
H473 N453 0.862 . S
O474 Co442 1.920 . S
O474 C447 1.289 . S
C475 O467 1.258 . S
C475 O468 1.266 1_556 S
Co476 O479 1.970 1_554 S
Co476 N493 1.989 . S
Co476 O501 1.967 1_554 S
Co476 O508 1.920 . S
Co477 O480 1.966 1_554 S
Co477 N486 2.022 . S
Co477 N494 1.993 . S
Co477 O502 1.941 . S
C478 O479 1.258 . S
C478 O480 1.263 . S
O479 Co476 1.970 1_556 S
O479 C478 1.258 . S
O480 Co477 1.966 1_556 S
O480 C478 1.263 . S
C481 O482 1.235 . S
C481 O508 1.289 . S
O482 C481 1.235 . S
C483 C485 1.400 1_556 S
C483 N486 1.351 1_556 S
C483 C488 1.501 . S
C484 C485 1.387 . S
C484 N487 1.341 . S
C485 C483 1.400 1_554 S
C485 C484 1.387 . S
N486 Co477 2.022 . S
N486 C483 1.351 1_554 S
N486 N487 1.365 . S
N487 C484 1.341 . S
N487 N486 1.365 . S
N487 H507 0.862 . S
C488 C483 1.501 . S
C488 H489 0.961 . S
C488 H490 0.961 . S
C488 H491 0.960 . S
H489 C488 0.961 . S
H490 C488 0.961 . S
H491 C488 0.960 . S
C492 N493 1.342 . S
C492 C496 1.401 . S
C492 C497 1.499 . S
N493 Co476 1.989 . S
N493 C492 1.342 . S
N493 N494 1.388 . S
N494 Co477 1.993 . S
N494 N493 1.388 . S
N494 C495 1.346 . S
C495 N494 1.346 . S
C495 C496 1.396 . S
C495 C505 1.510 . S
C496 C492 1.401 . S
C496 C495 1.396 . S
C497 C492 1.499 . S
C497 H498 0.959 . S
C497 H499 0.960 . S
C497 H500 0.961 . S
H498 C497 0.959 . S
H499 C497 0.960 . S
H500 C497 0.961 . S
O501 Co476 1.967 1_556 S
O501 C509 1.258 . S
O502 Co477 1.941 . S
O502 C509 1.266 1_554 S
H503 C505 0.959 . S
H504 C505 0.961 . S
C505 C495 1.510 . S
C505 H503 0.959 . S
C505 H504 0.961 . S
C505 H506 0.960 . S
H506 C505 0.960 . S
H507 N487 0.862 . S
O508 Co476 1.920 . S
O508 C481 1.289 . S
C509 O501 1.258 . S
C509 O502 1.266 1_556 S
Co510 O513 1.970 1_554 S
Co510 N527 1.989 . S
Co510 O535 1.967 1_554 S
Co510 O542 1.920 . S
Co511 O514 1.966 1_554 S
Co511 N520 2.022 . S
Co511 N528 1.993 . S
Co511 O536 1.941 . S
C512 O513 1.258 . S
C512 O514 1.263 . S
O513 Co510 1.970 1_556 S
O513 C512 1.258 . S
O514 Co511 1.966 1_556 S
O514 C512 1.263 . S
C515 O516 1.235 . S
C515 O542 1.289 . S
O516 C515 1.235 . S
C517 C519 1.400 1_556 S
C517 N520 1.351 1_556 S
C517 C522 1.501 . S
C518 C519 1.387 . S
C518 N521 1.341 . S
C519 C517 1.400 1_554 S
C519 C518 1.387 . S
N520 Co511 2.022 . S
N520 C517 1.351 1_554 S
N520 N521 1.365 . S
N521 C518 1.341 . S
N521 N520 1.365 . S
N521 H541 0.862 . S
C522 C517 1.501 . S
C522 H523 0.961 . S
C522 H524 0.961 . S
C522 H525 0.960 . S
H523 C522 0.961 . S
H524 C522 0.961 . S
H525 C522 0.960 . S
C526 N527 1.342 . S
C526 C530 1.401 . S
C526 C531 1.499 . S
N527 Co510 1.989 . S
N527 C526 1.342 . S
N527 N528 1.388 . S
N528 Co511 1.993 . S
N528 N527 1.388 . S
N528 C529 1.346 . S
C529 N528 1.346 . S
C529 C530 1.396 . S
C529 C539 1.510 . S
C530 C526 1.401 . S
C530 C529 1.396 . S
C531 C526 1.499 . S
C531 H532 0.959 . S
C531 H533 0.960 . S
C531 H534 0.961 . S
H532 C531 0.959 . S
H533 C531 0.960 . S
H534 C531 0.961 . S
O535 Co510 1.967 1_556 S
O535 C543 1.258 . S
O536 Co511 1.941 . S
O536 C543 1.266 1_554 S
H537 C539 0.959 . S
H538 C539 0.961 . S
C539 C529 1.510 . S
C539 H537 0.959 . S
C539 H538 0.961 . S
C539 H540 0.960 . S
H540 C539 0.960 . S
H541 N521 0.862 . S
O542 Co510 1.920 . S
O542 C515 1.289 . S
C543 O535 1.258 . S
C543 O536 1.266 1_556 S
H544 C552 0.929 1_556 S
H545 C554 0.930 1_556 S
H546 C556 0.930 . S
H547 C559 0.929 . S
H548 C562 0.930 . S
H549 C564 0.960 . S
H550 C564 0.960 . S
H551 C564 0.960 . S
C552 H544 0.929 1_554 S
C552 C553 1.377 . S
C552 C554 1.384 . S
C553 C552 1.377 . S
C553 C559 1.390 . S
C554 H545 0.930 1_554 S
C554 C552 1.384 . S
C554 C555 1.372 . S
C555 C554 1.372 . S
C555 C556 1.400 . S
C555 C560 1.490 . S
C556 H546 0.930 . S
C556 C555 1.400 . S
C556 C559 1.386 . S
H557 C573 0.930 . S
H558 C574 0.931 . S
C559 H547 0.929 . S
C559 C553 1.390 . S
C559 C556 1.386 . S
C560 C555 1.490 . S
C560 C562 1.395 1_554 S
C560 C563 1.403 . S
H561 C567 0.930 . S
C562 H548 0.930 . S
C562 C560 1.395 1_556 S
C562 C565 1.403 . S
C563 C560 1.403 . S
C563 C564 1.524 . S
C563 C567 1.400 . S
C564 H549 0.960 . S
C564 H550 0.960 . S
C564 H551 0.960 . S
C564 C563 1.524 . S
C565 C562 1.403 . S
C565 C566 1.392 1_556 S
C565 C569 1.495 . S
C566 C565 1.392 1_554 S
C566 C567 1.385 . S
C566 C568 1.478 . S
C567 H561 0.930 . S
C567 C563 1.400 . S
C567 C566 1.385 . S
C568 C566 1.478 . S
C568 C570 1.381 1_554 S
C568 C574 1.383 . S
C569 C565 1.495 . S
C569 H575 0.959 . S
C569 H576 0.961 . S
C569 H577 0.960 . S
C570 C568 1.381 1_556 S
C570 C571 1.394 . S
C570 H578 0.930 . S
C571 C570 1.394 . S
C571 C572 1.383 1_556 S
C571 H579 0.929 . S
C572 C571 1.383 1_554 S
C572 C573 1.377 . S
C573 H557 0.930 . S
C573 C572 1.377 . S
C573 C574 1.379 . S
C574 H558 0.931 . S
C574 C568 1.383 . S
C574 C573 1.379 . S
H575 C569 0.959 . S
H576 C569 0.961 . S
H577 C569 0.960 . S
H578 C570 0.930 . S
H579 C571 0.929 . S
H580 C588 0.929 . S
H581 C590 0.930 . S
H582 C592 0.935 . S
H583 C595 0.929 1_556 S
H584 C598 0.930 . S
H585 C600 0.962 1_556 S
H586 C600 0.957 . S
H587 C600 0.963 1_556 S
C588 H580 0.929 . S
C588 C589 1.377 . S
C588 C590 1.384 . S
C589 C588 1.377 . S
C589 C595 1.390 . S
C590 H581 0.930 . S
C590 C588 1.384 . S
C590 C591 1.372 . S
C591 C590 1.372 . S
C591 C592 1.395 1_554 S
C591 C596 1.490 . S
C592 H582 0.935 . S
C592 C591 1.395 1_556 S
C592 C595 1.385 1_556 S
H593 C609 0.930 . S
H594 C610 0.931 . S
C595 H583 0.929 1_554 S
C595 C589 1.390 . S
C595 C592 1.385 1_554 S
C596 C591 1.490 . S
C596 C598 1.395 . S
C596 C599 1.403 . S
H597 C603 0.930 . S
C598 H584 0.930 . S
C598 C596 1.395 . S
C598 C601 1.403 . S
C599 C596 1.403 . S
C599 C600 1.522 . S
C599 C603 1.400 . S
C600 H585 0.962 1_554 S
C600 H586 0.957 . S
C600 H587 0.963 1_554 S
C600 C599 1.522 . S
C601 C598 1.403 . S
C601 C602 1.392 . S
C601 C605 1.495 . S
C602 C601 1.392 . S
C602 C603 1.385 . S
C602 C604 1.478 . S
C603 H597 0.930 . S
C603 C599 1.400 . S
C603 C602 1.385 . S
C604 C602 1.478 . S
C604 C606 1.381 . S
C604 C610 1.383 1_554 S
C605 C601 1.495 . S
C605 H611 0.959 . S
C605 H612 0.961 . S
C605 H613 0.960 . S
C606 C604 1.381 . S
C606 C607 1.394 . S
C606 H614 0.930 . S
C607 C606 1.394 . S
C607 C608 1.383 . S
C607 H615 0.929 . S
C608 C607 1.383 . S
C608 C609 1.377 1_554 S
C609 H593 0.930 . S
C609 C608 1.377 1_556 S
C609 C610 1.379 . S
C610 H594 0.931 . S
C610 C604 1.383 1_556 S
C610 C609 1.379 . S
H611 C605 0.959 . S
H612 C605 0.961 . S
H613 C605 0.960 . S
H614 C606 0.930 . S
H615 C607 0.929 . S
H616 C624 0.929 . S
H617 C626 0.930 . S
H618 C628 0.930 . S
H619 C631 0.929 . S
H620 C634 0.930 . S
H621 C636 0.960 . S
H622 C636 0.960 . S
H623 C636 0.960 . S
C624 H616 0.929 . S
C624 C625 1.377 . S
C624 C626 1.384 . S
C625 C624 1.377 . S
C625 C631 1.390 1_554 S
C626 H617 0.930 . S
C626 C624 1.384 . S
C626 C627 1.372 . S
C627 C626 1.372 . S
C627 C628 1.400 1_554 S
C627 C632 1.490 . S
C628 H618 0.930 . S
C628 C627 1.400 1_556 S
C628 C631 1.386 . S
H629 C645 0.930 . S
H630 C646 0.931 . S
C631 H619 0.929 . S
C631 C625 1.390 1_556 S
C631 C628 1.386 . S
C632 C627 1.490 . S
C632 C634 1.395 . S
C632 C635 1.403 1_554 S
H633 C639 0.915 1_556 S
C634 H620 0.930 . S
C634 C632 1.395 . S
C634 C637 1.403 . S
C635 C632 1.403 1_556 S
C635 C636 1.524 . S
C635 C639 1.397 1_556 S
C636 H621 0.960 . S
C636 H622 0.960 . S
C636 H623 0.960 . S
C636 C635 1.524 . S
C637 C634 1.403 . S
C637 C638 1.392 . S
C637 C641 1.495 . S
C638 C637 1.392 . S
C638 C639 1.403 . S
C638 C640 1.478 . S
C639 H633 0.915 1_554 S
C639 C635 1.397 1_554 S
C639 C638 1.403 . S
C640 C638 1.478 . S
C640 C642 1.381 . S
C640 C646 1.383 . S
C641 C637 1.495 . S
C641 H647 0.959 . S
C641 H648 0.961 . S
C641 H649 0.960 . S
C642 C640 1.381 . S
C642 C643 1.394 . S
C642 H650 0.930 . S
C643 C642 1.394 . S
C643 C644 1.383 . S
C643 H651 0.929 . S
C644 C643 1.383 . S
C644 C645 1.377 . S
C645 H629 0.930 . S
C645 C644 1.377 . S
C645 C646 1.379 . S
C646 H630 0.931 . S
C646 C640 1.383 . S
C646 C645 1.379 . S
H647 C641 0.959 . S
H648 C641 0.961 . S
H649 C641 0.960 . S
H650 C642 0.930 . S
H651 C643 0.929 . S
H652 C660 0.929 1_556 S
H653 C662 0.918 1_556 S
H654 C664 0.930 . S
H655 C667 0.929 . S
H656 C670 0.930 . S
H657 C672 0.960 . S
H658 C672 0.960 . S
H659 C672 0.960 . S
C660 H652 0.929 1_554 S
C660 C661 1.377 . S
C660 C662 1.385 . S
C661 C660 1.377 . S
C661 C667 1.390 . S
C662 H653 0.918 1_554 S
C662 C660 1.385 . S
C662 C663 1.382 . S
C663 C662 1.382 . S
C663 C664 1.400 . S
C663 C668 1.490 . S
C664 H654 0.930 . S
C664 C663 1.400 . S
C664 C667 1.386 . S
H665 C681 0.930 . S
H666 C682 0.931 . S
C667 H655 0.929 . S
C667 C661 1.390 . S
C667 C664 1.386 . S
C668 C663 1.490 . S
C668 C670 1.395 . S
C668 C671 1.403 . S
H669 C675 0.930 . S
C670 H656 0.930 . S
C670 C668 1.395 . S
C670 C673 1.403 . S
C671 C668 1.403 . S
C671 C672 1.524 . S
C671 C675 1.400 . S
C672 H657 0.960 . S
C672 H658 0.960 . S
C672 H659 0.960 . S
C672 C671 1.524 . S
C673 C670 1.403 . S
C673 C674 1.392 . S
C673 C677 1.495 . S
C674 C673 1.392 . S
C674 C675 1.385 . S
C674 C676 1.478 . S
C675 H669 0.930 . S
C675 C671 1.400 . S
C675 C674 1.385 . S
C676 C674 1.478 . S
C676 C678 1.381 1_554 S
C676 C682 1.383 . S
C677 C673 1.495 . S
C677 H683 0.959 . S
C677 H684 0.961 . S
C677 H685 0.960 1_554 S
C678 C676 1.381 1_556 S
C678 C679 1.394 . S
C678 H686 0.930 . S
C679 C678 1.394 . S
C679 C680 1.383 1_556 S
C679 H687 0.929 . S
C680 C679 1.383 1_554 S
C680 C681 1.377 . S
C681 H665 0.930 . S
C681 C680 1.377 . S
C681 C682 1.379 . S
C682 H666 0.931 . S
C682 C676 1.383 . S
C682 C681 1.379 . S
H683 C677 0.959 . S
H684 C677 0.961 . S
H685 C677 0.960 1_556 S
H686 C678 0.930 . S
H687 C679 0.929 . S
H688 C696 0.929 . S
H689 C698 0.930 . S
H690 C700 0.930 . S
H691 C703 0.929 . S
H692 C706 0.930 . S
H693 C708 0.960 . S
H694 C708 0.960 . S
H695 C708 0.960 . S
C696 H688 0.929 . S
C696 C697 1.377 . S
C696 C698 1.384 . S
C697 C696 1.377 . S
C697 C703 1.390 . S
C698 H689 0.930 . S
C698 C696 1.384 . S
C698 C699 1.372 . S
C699 C698 1.372 . S
C699 C700 1.400 . S
C699 C704 1.490 . S
C700 H690 0.930 . S
C700 C699 1.400 . S
C700 C703 1.386 . S
H701 C717 0.930 . S
H702 C718 0.931 . S
C703 H691 0.929 . S
C703 C697 1.390 . S
C703 C700 1.386 . S
C704 C699 1.490 . S
C704 C706 1.395 . S
C704 C707 1.403 . S
H705 C711 0.930 . S
C706 H692 0.930 . S
C706 C704 1.395 . S
C706 C709 1.403 . S
C707 C704 1.403 . S
C707 C708 1.524 . S
C707 C711 1.400 . S
C708 H693 0.960 . S
C708 H694 0.960 . S
C708 H695 0.960 . S
C708 C707 1.524 . S
C709 C706 1.403 . S
C709 C710 1.392 . S
C709 C713 1.495 . S
C710 C709 1.392 . S
C710 C711 1.385 . S
C710 C712 1.478 . S
C711 H705 0.930 . S
C711 C707 1.400 . S
C711 C710 1.385 . S
C712 C710 1.478 . S
C712 C714 1.381 . S
C712 C718 1.383 . S
C713 C709 1.495 . S
C713 H719 0.959 . S
C713 H720 0.961 . S
C713 H721 0.960 . S
C714 C712 1.381 . S
C714 C715 1.394 . S
C714 H722 0.930 . S
C715 C714 1.394 . S
C715 C716 1.383 . S
C715 H723 0.929 . S
C716 C715 1.383 . S
C716 C717 1.377 . S
C717 H701 0.930 . S
C717 C716 1.377 . S
C717 C718 1.379 . S
C718 H702 0.931 . S
C718 C712 1.383 . S
C718 C717 1.379 . S
H719 C713 0.959 . S
H720 C713 0.961 . S
H721 C713 0.960 . S
H722 C714 0.930 . S
H723 C715 0.929 . S
H724 C732 0.929 . S
H725 C734 0.930 . S
H726 C736 0.930 . S
H727 C739 0.929 . S
H728 C742 0.930 . S
H729 C744 0.960 . S
H730 C744 0.960 . S
H731 C744 0.960 . S
C732 H724 0.929 . S
C732 C733 1.377 . S
C732 C734 1.384 . S
C733 C732 1.377 . S
C733 C739 1.390 . S
C734 H725 0.930 . S
C734 C732 1.384 . S
C734 C735 1.372 . S
C735 C734 1.372 . S
C735 C736 1.400 . S
C735 C740 1.490 . S
C736 H726 0.930 . S
C736 C735 1.400 . S
C736 C739 1.386 . S
H737 C753 0.930 . S
H738 C754 0.931 . S
C739 H727 0.929 . S
C739 C733 1.390 . S
C739 C736 1.386 . S
C740 C735 1.490 . S
C740 C742 1.395 . S
C740 C743 1.403 . S
H741 C747 0.930 . S
C742 H728 0.930 . S
C742 C740 1.395 . S
C742 C745 1.403 . S
C743 C740 1.403 . S
C743 C744 1.524 . S
C743 C747 1.400 . S
C744 H729 0.960 . S
C744 H730 0.960 . S
C744 H731 0.960 . S
C744 C743 1.524 . S
C745 C742 1.403 . S
C745 C746 1.392 . S
C745 C749 1.495 . S
C746 C745 1.392 . S
C746 C747 1.385 . S
C746 C748 1.478 . S
C747 H741 0.930 . S
C747 C743 1.400 . S
C747 C746 1.385 . S
C748 C746 1.478 . S
C748 C750 1.381 . S
C748 C754 1.383 . S
C749 C745 1.495 . S
C749 H755 0.959 . S
C749 H756 0.961 . S
C749 H757 0.960 . S
C750 C748 1.381 . S
C750 C751 1.394 . S
C750 H758 0.930 . S
C751 C750 1.394 . S
C751 C752 1.383 . S
C751 H759 0.929 . S
C752 C751 1.383 . S
C752 C753 1.377 . S
C753 H737 0.930 . S
C753 C752 1.377 . S
C753 C754 1.379 . S
C754 H738 0.931 . S
C754 C748 1.383 . S
C754 C753 1.379 . S
H755 C749 0.959 . S
H756 C749 0.961 . S
H757 C749 0.960 . S
H758 C750 0.930 . S
H759 C751 0.929 . S
H760 C768 0.929 . S
H761 C770 0.930 . S
H762 C772 0.930 . S
H763 C775 0.929 . S
H764 C778 0.930 . S
H765 C780 0.960 . S
H766 C780 0.960 . S
H767 C780 0.960 . S
C768 H760 0.929 . S
C768 C769 1.377 . S
C768 C770 1.384 . S
C769 C768 1.377 . S
C769 C775 1.390 . S
C770 H761 0.930 . S
C770 C768 1.384 . S
C770 C771 1.372 . S
C771 C770 1.372 . S
C771 C772 1.400 . S
C771 C776 1.490 . S
C772 H762 0.930 . S
C772 C771 1.400 . S
C772 C775 1.386 . S
H773 C789 0.930 . S
H774 C790 0.931 . S
C775 H763 0.929 . S
C775 C769 1.390 . S
C775 C772 1.386 . S
C776 C771 1.490 . S
C776 C778 1.395 . S
C776 C779 1.403 . S
H777 C783 0.930 . S
C778 H764 0.930 . S
C778 C776 1.395 . S
C778 C781 1.403 . S
C779 C776 1.403 . S
C779 C780 1.524 . S
C779 C783 1.400 . S
C780 H765 0.960 . S
C780 H766 0.960 . S
C780 H767 0.960 . S
C780 C779 1.524 . S
C781 C778 1.403 . S
C781 C782 1.392 . S
C781 C785 1.495 . S
C782 C781 1.392 . S
C782 C783 1.385 . S
C782 C784 1.478 . S
C783 H777 0.930 . S
C783 C779 1.400 . S
C783 C782 1.385 . S
C784 C782 1.478 . S
C784 C786 1.381 . S
C784 C790 1.383 . S
C785 C781 1.495 . S
C785 H791 0.959 . S
C785 H792 0.961 . S
C785 H793 0.960 . S
C786 C784 1.381 . S
C786 C787 1.394 . S
C786 H794 0.930 . S
C787 C786 1.394 . S
C787 C788 1.383 . S
C787 H795 0.929 . S
C788 C787 1.383 . S
C788 C789 1.377 . S
C789 H773 0.930 . S
C789 C788 1.377 . S
C789 C790 1.379 . S
C790 H774 0.931 . S
C790 C784 1.383 . S
C790 C789 1.379 . S
H791 C785 0.959 . S
H792 C785 0.961 . S
H793 C785 0.960 . S
H794 C786 0.930 . S
H795 C787 0.929 . S
H796 C804 0.929 . S
H797 C806 0.930 . S
H798 C808 0.930 . S
H799 C811 0.929 . S
H800 C814 0.930 . S
H801 C816 0.960 . S
H802 C816 0.960 . S
H803 C816 0.960 . S
C804 H796 0.929 . S
C804 C805 1.377 . S
C804 C806 1.384 . S
C805 C804 1.377 . S
C805 C811 1.390 . S
C806 H797 0.930 . S
C806 C804 1.384 . S
C806 C807 1.372 . S
C807 C806 1.372 . S
C807 C808 1.400 . S
C807 C812 1.490 . S
C808 H798 0.930 . S
C808 C807 1.400 . S
C808 C811 1.386 . S
H809 C825 0.930 . S
H810 C826 0.931 . S
C811 H799 0.929 . S
C811 C805 1.390 . S
C811 C808 1.386 . S
C812 C807 1.490 . S
C812 C814 1.395 . S
C812 C815 1.403 . S
H813 C819 0.930 . S
C814 H800 0.930 . S
C814 C812 1.395 . S
C814 C817 1.403 . S
C815 C812 1.403 . S
C815 C816 1.524 . S
C815 C819 1.400 . S
C816 H801 0.960 . S
C816 H802 0.960 . S
C816 H803 0.960 . S
C816 C815 1.524 . S
C817 C814 1.403 . S
C817 C818 1.392 . S
C817 C821 1.495 . S
C818 C817 1.392 . S
C818 C819 1.385 . S
C818 C820 1.478 . S
C819 H813 0.930 . S
C819 C815 1.400 . S
C819 C818 1.385 . S
C820 C818 1.478 . S
C820 C822 1.381 . S
C820 C826 1.383 . S
C821 C817 1.495 . S
C821 H827 0.959 . S
C821 H828 0.961 . S
C821 H829 0.960 . S
C822 C820 1.381 . S
C822 C823 1.394 . S
C822 H830 0.930 . S
C823 C822 1.394 . S
C823 C824 1.383 . S
C823 H831 0.929 . S
C824 C823 1.383 . S
C824 C825 1.377 . S
C825 H809 0.930 . S
C825 C824 1.377 . S
C825 C826 1.379 . S
C826 H810 0.931 . S
C826 C820 1.383 . S
C826 C825 1.379 . S
H827 C821 0.959 . S
H828 C821 0.961 . S
H829 C821 0.960 . S
H830 C822 0.930 . S
H831 C823 0.929 . S
H832 C840 0.929 . S
H833 C842 0.930 . S
H834 C844 0.930 1_556 S
H835 C847 0.929 1_556 S
H836 C850 0.930 . S
H837 C852 0.960 . S
H838 C852 0.960 . S
H839 C852 0.960 . S
C840 H832 0.929 . S
C840 C841 1.377 . S
C840 C842 1.384 . S
C841 C840 1.377 . S
C841 C847 1.390 . S
C842 H833 0.930 . S
C842 C840 1.384 . S
C842 C843 1.372 . S
C843 C842 1.372 . S
C843 C844 1.400 . S
C843 C848 1.490 . S
C844 H834 0.930 1_554 S
C844 C843 1.400 . S
C844 C847 1.386 . S
H845 C861 0.929 1_556 S
H846 C862 0.908 1_556 S
C847 H835 0.929 1_554 S
C847 C841 1.390 . S
C847 C844 1.386 . S
C848 C843 1.490 . S
C848 C850 1.395 . S
C848 C851 1.403 . S
H849 C855 0.930 . S
C850 H836 0.930 . S
C850 C848 1.395 . S
C850 C853 1.403 . S
C851 C848 1.403 . S
C851 C852 1.524 . S
C851 C855 1.400 . S
C852 H837 0.960 . S
C852 H838 0.960 . S
C852 H839 0.960 . S
C852 C851 1.524 . S
C853 C850 1.403 . S
C853 C854 1.392 . S
C853 C857 1.495 . S
C854 C853 1.392 . S
C854 C855 1.385 . S
C854 C856 1.478 . S
C855 H849 0.930 . S
C855 C851 1.400 . S
C855 C854 1.385 . S
C856 C854 1.478 . S
C856 C858 1.381 . S
C856 C862 1.383 . S
C857 C853 1.495 . S
C857 H863 0.959 . S
C857 H864 0.961 . S
C857 H865 0.960 . S
C858 C856 1.381 . S
C858 C859 1.394 . S
C858 H866 0.930 . S
C859 C858 1.394 . S
C859 C860 1.383 . S
C859 H867 0.929 . S
C860 C859 1.383 . S
C860 C861 1.377 . S
C861 H845 0.929 1_554 S
C861 C860 1.377 . S
C861 C862 1.379 . S
C862 H846 0.908 1_554 S
C862 C856 1.383 . S
C862 C861 1.379 . S
H863 C857 0.959 . S
H864 C857 0.961 . S
H865 C857 0.960 . S
H866 C858 0.930 . S
H867 C859 0.929 . S
H868 C876 0.929 . S
H869 C878 0.930 . S
H870 C880 0.930 . S
H871 C883 0.929 . S
H872 C886 0.930 . S
H873 C888 0.960 . S
H874 C888 0.960 . S
H875 C888 0.960 . S
C876 H868 0.929 . S
C876 C877 1.377 . S
C876 C878 1.384 . S
C877 C876 1.377 . S
C877 C883 1.390 . S
C878 H869 0.930 . S
C878 C876 1.384 . S
C878 C879 1.372 . S
C879 C878 1.372 . S
C879 C880 1.400 . S
C879 C884 1.490 . S
C880 H870 0.930 . S
C880 C879 1.400 . S
C880 C883 1.386 . S
H881 C897 0.930 . S
H882 C898 0.931 . S
C883 H871 0.929 . S
C883 C877 1.390 . S
C883 C880 1.386 . S
C884 C879 1.490 . S
C884 C886 1.395 . S
C884 C887 1.403 . S
H885 C891 0.930 . S
C886 H872 0.930 . S
C886 C884 1.395 . S
C886 C889 1.403 . S
C887 C884 1.403 . S
C887 C888 1.524 . S
C887 C891 1.400 . S
C888 H873 0.960 . S
C888 H874 0.960 . S
C888 H875 0.960 . S
C888 C887 1.524 . S
C889 C886 1.403 . S
C889 C890 1.392 . S
C889 C893 1.495 . S
C890 C889 1.392 . S
C890 C891 1.385 . S
C890 C892 1.478 . S
C891 H885 0.930 . S
C891 C887 1.400 . S
C891 C890 1.385 . S
C892 C890 1.478 . S
C892 C894 1.381 . S
C892 C898 1.383 . S
C893 C889 1.495 . S
C893 H899 0.959 . S
C893 H900 0.961 . S
C893 H901 0.960 . S
C894 C892 1.381 . S
C894 C895 1.394 . S
C894 H902 0.930 . S
C895 C894 1.394 . S
C895 C896 1.383 . S
C895 H903 0.929 . S
C896 C895 1.383 . S
C896 C897 1.377 . S
C897 H881 0.930 . S
C897 C896 1.377 . S
C897 C898 1.379 . S
C898 H882 0.931 . S
C898 C892 1.383 . S
C898 C897 1.379 . S
H899 C893 0.959 . S
H900 C893 0.961 . S
H901 C893 0.960 . S
H902 C894 0.930 . S
H903 C895 0.929 . S
H904 C912 0.937 . S
H905 C914 0.930 1_556 S
H906 C916 0.930 . S
H907 C919 0.929 . S
H908 C922 0.930 . S
H909 C924 0.960 . S
H910 C924 0.960 . S
H911 C924 0.960 . S
C912 H904 0.937 . S
C912 C913 1.377 . S
C912 C914 1.384 . S
C913 C912 1.377 . S
C913 C919 1.390 . S
C914 H905 0.930 1_554 S
C914 C912 1.384 . S
C914 C915 1.372 . S
C915 C914 1.372 . S
C915 C916 1.400 . S
C915 C920 1.490 . S
C916 H906 0.930 . S
C916 C915 1.400 . S
C916 C919 1.386 . S
H917 C933 0.930 . S
H918 C934 0.931 . S
C919 H907 0.929 . S
C919 C913 1.390 . S
C919 C916 1.386 . S
C920 C915 1.490 . S
C920 C922 1.395 . S
C920 C923 1.403 . S
H921 C927 0.930 . S
C922 H908 0.930 . S
C922 C920 1.395 . S
C922 C925 1.403 . S
C923 C920 1.403 . S
C923 C924 1.524 . S
C923 C927 1.400 . S
C924 H909 0.960 . S
C924 H910 0.960 . S
C924 H911 0.960 . S
C924 C923 1.524 . S
C925 C922 1.403 . S
C925 C926 1.392 . S
C925 C929 1.495 . S
C926 C925 1.392 . S
C926 C927 1.385 . S
C926 C928 1.478 . S
C927 H921 0.930 . S
C927 C923 1.400 . S
C927 C926 1.385 . S
C928 C926 1.478 . S
C928 C930 1.381 . S
C928 C934 1.383 . S
C929 C925 1.495 . S
C929 H935 0.959 . S
C929 H936 0.961 . S
C929 H937 0.960 . S
C930 C928 1.381 . S
C930 C931 1.394 . S
C930 H938 0.930 1_554 S
C931 C930 1.394 . S
C931 C932 1.383 . S
C931 H939 0.929 1_554 S
C932 C931 1.383 . S
C932 C933 1.377 . S
C933 H917 0.930 . S
C933 C932 1.377 . S
C933 C934 1.379 . S
C934 H918 0.931 . S
C934 C928 1.383 . S
C934 C933 1.379 . S
H935 C929 0.959 . S
H936 C929 0.961 . S
H937 C929 0.960 . S
H938 C930 0.930 1_556 S
H939 C931 0.929 1_556 S
H940 C948 0.929 . S
H941 C950 0.931 . S
H942 C952 0.930 . S
H943 C955 0.929 . S
H944 C958 0.930 . S
H945 C960 0.960 . S
H946 C960 0.960 . S
H947 C960 0.960 . S
C948 H940 0.929 . S
C948 C949 1.377 . S
C948 C950 1.384 . S
C949 C948 1.377 . S
C949 C955 1.390 . S
C950 H941 0.931 . S
C950 C948 1.384 . S
C950 C951 1.372 . S
C951 C950 1.372 . S
C951 C952 1.400 . S
C951 C956 1.490 . S
C952 H942 0.930 . S
C952 C951 1.400 . S
C952 C955 1.386 . S
H953 C969 0.930 . S
H954 C970 0.931 . S
C955 H943 0.929 . S
C955 C949 1.390 . S
C955 C952 1.386 . S
C956 C951 1.490 . S
C956 C958 1.395 . S
C956 C959 1.403 . S
H957 C963 0.930 . S
C958 H944 0.930 . S
C958 C956 1.395 . S
C958 C961 1.403 . S
C959 C956 1.403 . S
C959 C960 1.524 . S
C959 C963 1.400 . S
C960 H945 0.960 . S
C960 H946 0.960 . S
C960 H947 0.960 . S
C960 C959 1.524 . S
C961 C958 1.403 . S
C961 C962 1.392 . S
C961 C965 1.495 . S
C962 C961 1.392 . S
C962 C963 1.385 . S
C962 C964 1.478 . S
C963 H957 0.930 . S
C963 C959 1.400 . S
C963 C962 1.385 . S
C964 C962 1.478 . S
C964 C966 1.381 . S
C964 C970 1.383 . S
C965 C961 1.495 . S
C965 H971 0.959 . S
C965 H972 0.961 . S
C965 H973 0.960 . S
C966 C964 1.381 . S
C966 C967 1.394 . S
C966 H974 0.930 1_554 S
C967 C966 1.394 . S
C967 C968 1.383 . S
C967 H975 0.929 1_554 S
C968 C967 1.383 . S
C968 C969 1.377 . S
C969 H953 0.930 . S
C969 C968 1.377 . S
C969 C970 1.379 . S
C970 H954 0.931 . S
C970 C964 1.383 . S
C970 C969 1.379 . S
H971 C965 0.959 . S
H972 C965 0.961 . S
H973 C965 0.960 . S
H974 C966 0.930 1_556 S
H975 C967 0.929 1_556 S
H976 C984 0.929 . S
H977 C986 0.930 . S
H978 C988 0.930 . S
H979 C991 0.929 . S
H980 C994 0.930 . S
H981 C996 0.960 . S
H982 C996 0.960 . S
H983 C996 0.960 . S
C984 H976 0.929 . S
C984 C985 1.377 . S
C984 C986 1.384 . S
C985 C984 1.377 . S
C985 C991 1.390 . S
C986 H977 0.930 . S
C986 C984 1.384 . S
C986 C987 1.372 . S
C987 C986 1.372 . S
C987 C988 1.400 . S
C987 C992 1.490 . S
C988 H978 0.930 . S
C988 C987 1.400 . S
C988 C991 1.386 . S
H989 C1005 0.930 . S
H990 C1006 0.931 . S
C991 H979 0.929 . S
C991 C985 1.390 . S
C991 C988 1.386 . S
C992 C987 1.490 . S
C992 C994 1.395 . S
C992 C995 1.403 . S
H993 C999 0.930 . S
C994 H980 0.930 . S
C994 C992 1.395 . S
C994 C997 1.403 . S
C995 C992 1.403 . S
C995 C996 1.524 . S
C995 C999 1.400 . S
C996 H981 0.960 . S
C996 H982 0.960 . S
C996 H983 0.960 . S
C996 C995 1.524 . S
C997 C994 1.403 . S
C997 C998 1.392 . S
C997 C1001 1.495 . S
C998 C997 1.392 . S
C998 C999 1.385 . S
C998 C1000 1.478 . S
C999 H993 0.930 . S
C999 C995 1.400 . S
C999 C998 1.385 . S
C1000 C998 1.478 . S
C1000 C1002 1.381 . S
C1000 C1006 1.383 . S
C1001 C997 1.495 . S
C1001 H1007 0.959 . S
C1001 H1008 0.961 . S
C1001 H1009 0.960 . S
C1002 C1000 1.381 . S
C1002 C1003 1.394 . S
C1002 H1010 0.930 . S
C1003 C1002 1.394 . S
C1003 C1004 1.383 . S
C1003 H1011 0.929 . S
C1004 C1003 1.383 . S
C1004 C1005 1.377 . S
C1005 H989 0.930 . S
C1005 C1004 1.377 . S
C1005 C1006 1.379 . S
C1006 H990 0.931 . S
C1006 C1000 1.383 . S
C1006 C1005 1.379 . S
H1007 C1001 0.959 . S
H1008 C1001 0.961 . S
H1009 C1001 0.960 . S
H1010 C1002 0.930 . S
H1011 C1003 0.929 . S
H1012 C1020 0.929 . S
H1013 C1022 0.930 . S
H1014 C1024 0.930 . S
H1015 C1027 0.929 . S
H1016 C1030 0.930 . S
H1017 C1032 0.960 . S
H1018 C1032 0.960 . S
H1019 C1032 0.960 . S
C1020 H1012 0.929 . S
C1020 C1021 1.377 . S
C1020 C1022 1.384 . S
C1021 C1020 1.377 . S
C1021 C1027 1.390 . S
C1022 H1013 0.930 . S
C1022 C1020 1.384 . S
C1022 C1023 1.372 . S
C1023 C1022 1.372 . S
C1023 C1024 1.400 . S
C1023 C1028 1.490 . S
C1024 H1014 0.930 . S
C1024 C1023 1.400 . S
C1024 C1027 1.386 . S
H1025 C1041 0.930 . S
H1026 C1042 0.931 . S
C1027 H1015 0.929 . S
C1027 C1021 1.390 . S
C1027 C1024 1.386 . S
C1028 C1023 1.490 . S
C1028 C1030 1.395 . S
C1028 C1031 1.403 . S
H1029 C1035 0.930 . S
C1030 H1016 0.930 . S
C1030 C1028 1.395 . S
C1030 C1033 1.403 . S
C1031 C1028 1.403 . S
C1031 C1032 1.524 . S
C1031 C1035 1.400 . S
C1032 H1017 0.960 . S
C1032 H1018 0.960 . S
C1032 H1019 0.960 . S
C1032 C1031 1.524 . S
C1033 C1030 1.403 . S
C1033 C1034 1.392 . S
C1033 C1037 1.495 . S
C1034 C1033 1.392 . S
C1034 C1035 1.385 . S
C1034 C1036 1.478 . S
C1035 H1029 0.930 . S
C1035 C1031 1.400 . S
C1035 C1034 1.385 . S
C1036 C1034 1.478 . S
C1036 C1038 1.381 . S
C1036 C1042 1.383 . S
C1037 C1033 1.495 . S
C1037 H1043 0.959 . S
C1037 H1044 0.961 . S
C1037 H1045 0.960 . S
C1038 C1036 1.381 . S
C1038 C1039 1.394 . S
C1038 H1046 0.930 . S
C1039 C1038 1.394 . S
C1039 C1040 1.383 . S
C1039 H1047 0.929 . S
C1040 C1039 1.383 . S
C1040 C1041 1.377 . S
C1041 H1025 0.930 . S
C1041 C1040 1.377 . S
C1041 C1042 1.379 . S
C1042 H1026 0.931 . S
C1042 C1036 1.383 . S
C1042 C1041 1.379 . S
H1043 C1037 0.959 . S
H1044 C1037 0.961 . S
H1045 C1037 0.960 . S
H1046 C1038 0.930 . S
H1047 C1039 0.929 . S
H1048 C1056 0.929 . S
H1049 C1058 0.930 . S
H1050 C1060 0.930 . S
H1051 C1063 0.929 . S
H1052 C1066 0.930 . S
H1053 C1068 0.960 . S
H1054 C1068 0.960 . S
H1055 C1068 0.960 . S
C1056 H1048 0.929 . S
C1056 C1057 1.377 . S
C1056 C1058 1.384 . S
C1057 C1056 1.377 . S
C1057 C1063 1.390 . S
C1058 H1049 0.930 . S
C1058 C1056 1.384 . S
C1058 C1059 1.372 . S
C1059 C1058 1.372 . S
C1059 C1060 1.400 . S
C1059 C1064 1.490 . S
C1060 H1050 0.930 . S
C1060 C1059 1.400 . S
C1060 C1063 1.386 . S
H1061 C1077 0.930 . S
H1062 C1078 0.931 . S
C1063 H1051 0.929 . S
C1063 C1057 1.390 . S
C1063 C1060 1.386 . S
C1064 C1059 1.490 . S
C1064 C1066 1.395 . S
C1064 C1067 1.403 . S
H1065 C1071 0.930 . S
C1066 H1052 0.930 . S
C1066 C1064 1.395 . S
C1066 C1069 1.403 . S
C1067 C1064 1.403 . S
C1067 C1068 1.524 . S
C1067 C1071 1.400 . S
C1068 H1053 0.960 . S
C1068 H1054 0.960 . S
C1068 H1055 0.960 . S
C1068 C1067 1.524 . S
C1069 C1066 1.403 . S
C1069 C1070 1.392 . S
C1069 C1073 1.495 . S
C1070 C1069 1.392 . S
C1070 C1071 1.385 . S
C1070 C1072 1.478 . S
C1071 H1065 0.930 . S
C1071 C1067 1.400 . S
C1071 C1070 1.385 . S
C1072 C1070 1.478 . S
C1072 C1074 1.381 . S
C1072 C1078 1.383 . S
C1073 C1069 1.495 . S
C1073 H1079 0.959 . S
C1073 H1080 0.961 . S
C1073 H1081 0.960 . S
C1074 C1072 1.381 . S
C1074 C1075 1.394 . S
C1074 H1082 0.930 . S
C1075 C1074 1.394 . S
C1075 C1076 1.383 . S
C1075 H1083 0.929 . S
C1076 C1075 1.383 . S
C1076 C1077 1.377 . S
C1077 H1061 0.930 . S
C1077 C1076 1.377 . S
C1077 C1078 1.379 . S
C1078 H1062 0.931 . S
C1078 C1072 1.383 . S
C1078 C1077 1.379 . S
H1079 C1073 0.959 . S
H1080 C1073 0.961 . S
H1081 C1073 0.960 . S
H1082 C1074 0.930 . S
H1083 C1075 0.929 . S
H1084 C1092 0.929 . S
H1085 C1094 0.930 . S
H1086 C1096 0.930 . S
H1087 C1099 0.929 . S
H1088 C1102 0.930 . S
H1089 C1104 0.960 . S
H1090 C1104 0.960 . S
H1091 C1104 0.960 . S
C1092 H1084 0.929 . S
C1092 C1093 1.377 . S
C1092 C1094 1.384 . S
C1093 C1092 1.377 . S
C1093 C1099 1.390 . S
C1094 H1085 0.930 . S
C1094 C1092 1.384 . S
C1094 C1095 1.372 . S
C1095 C1094 1.372 . S
C1095 C1096 1.400 . S
C1095 C1100 1.490 . S
C1096 H1086 0.930 . S
C1096 C1095 1.400 . S
C1096 C1099 1.386 . S
H1097 C1113 0.930 . S
H1098 C1114 0.931 . S
C1099 H1087 0.929 . S
C1099 C1093 1.390 . S
C1099 C1096 1.386 . S
C1100 C1095 1.490 . S
C1100 C1102 1.395 . S
C1100 C1103 1.403 . S
H1101 C1107 0.930 . S
C1102 H1088 0.930 . S
C1102 C1100 1.395 . S
C1102 C1105 1.403 . S
C1103 C1100 1.403 . S
C1103 C1104 1.524 . S
C1103 C1107 1.400 . S
C1104 H1089 0.960 . S
C1104 H1090 0.960 . S
C1104 H1091 0.960 . S
C1104 C1103 1.524 . S
C1105 C1102 1.403 . S
C1105 C1106 1.392 . S
C1105 C1109 1.495 . S
C1106 C1105 1.392 . S
C1106 C1107 1.385 . S
C1106 C1108 1.478 . S
C1107 H1101 0.930 . S
C1107 C1103 1.400 . S
C1107 C1106 1.385 . S
C1108 C1106 1.478 . S
C1108 C1110 1.381 . S
C1108 C1114 1.383 . S
C1109 C1105 1.495 . S
C1109 H1115 0.959 . S
C1109 H1116 0.961 . S
C1109 H1117 0.960 . S
C1110 C1108 1.381 . S
C1110 C1111 1.394 . S
C1110 H1118 0.930 . S
C1111 C1110 1.394 . S
C1111 C1112 1.383 . S
C1111 H1119 0.929 . S
C1112 C1111 1.383 . S
C1112 C1113 1.377 . S
C1113 H1097 0.930 . S
C1113 C1112 1.377 . S
C1113 C1114 1.379 . S
C1114 H1098 0.931 . S
C1114 C1108 1.383 . S
C1114 C1113 1.379 . S
H1115 C1109 0.959 . S
H1116 C1109 0.961 . S
H1117 C1109 0.960 . S
H1118 C1110 0.930 . S
H1119 C1111 0.929 . S
H1120 C1128 0.929 . S
H1121 C1130 0.930 . S
H1122 C1132 0.930 . S
H1123 C1135 0.929 . S
H1124 C1138 0.930 . S
H1125 C1140 0.960 . S
H1126 C1140 0.960 . S
H1127 C1140 0.960 . S
C1128 H1120 0.929 . S
C1128 C1129 1.377 . S
C1128 C1130 1.384 . S
C1129 C1128 1.377 . S
C1129 C1135 1.390 . S
C1130 H1121 0.930 . S
C1130 C1128 1.384 . S
C1130 C1131 1.372 . S
C1131 C1130 1.372 . S
C1131 C1132 1.400 . S
C1131 C1136 1.490 . S
C1132 H1122 0.930 . S
C1132 C1131 1.400 . S
C1132 C1135 1.386 . S
H1133 C1149 0.930 . S
H1134 C1150 0.931 . S
C1135 H1123 0.929 . S
C1135 C1129 1.390 . S
C1135 C1132 1.386 . S
C1136 C1131 1.490 . S
C1136 C1138 1.395 . S
C1136 C1139 1.403 . S
H1137 C1143 0.930 . S
C1138 H1124 0.930 . S
C1138 C1136 1.395 . S
C1138 C1141 1.403 . S
C1139 C1136 1.403 . S
C1139 C1140 1.524 . S
C1139 C1143 1.400 . S
C1140 H1125 0.960 . S
C1140 H1126 0.960 . S
C1140 H1127 0.960 . S
C1140 C1139 1.524 . S
C1141 C1138 1.403 . S
C1141 C1142 1.392 . S
C1141 C1145 1.495 . S
C1142 C1141 1.392 . S
C1142 C1143 1.385 . S
C1142 C1144 1.478 . S
C1143 H1137 0.930 . S
C1143 C1139 1.400 . S
C1143 C1142 1.385 . S
C1144 C1142 1.478 . S
C1144 C1146 1.381 . S
C1144 C1150 1.383 . S
C1145 C1141 1.495 . S
C1145 H1151 0.959 . S
C1145 H1152 0.961 . S
C1145 H1153 0.960 . S
C1146 C1144 1.381 . S
C1146 C1147 1.394 . S
C1146 H1154 0.930 . S
C1147 C1146 1.394 . S
C1147 C1148 1.383 . S
C1147 H1155 0.929 . S
C1148 C1147 1.383 . S
C1148 C1149 1.377 . S
C1149 H1133 0.930 . S
C1149 C1148 1.377 . S
C1149 C1150 1.379 . S
C1150 H1134 0.931 . S
C1150 C1144 1.383 . S
C1150 C1149 1.379 . S
H1151 C1145 0.959 . S
H1152 C1145 0.961 . S
H1153 C1145 0.960 . S
H1154 C1146 0.930 . S
H1155 C1147 0.929 . S
H1156 C1164 0.929 . S
H1157 C1166 0.930 . S
H1158 C1168 0.930 . S
H1159 C1171 0.929 . S
H1160 C1174 0.930 . S
H1161 C1176 0.960 . S
H1162 C1176 0.960 . S
H1163 C1176 0.960 . S
C1164 H1156 0.929 . S
C1164 C1165 1.377 . S
C1164 C1166 1.384 . S
C1165 C1164 1.377 . S
C1165 C1171 1.390 . S
C1166 H1157 0.930 . S
C1166 C1164 1.384 . S
C1166 C1167 1.372 . S
C1167 C1166 1.372 . S
C1167 C1168 1.400 . S
C1167 C1172 1.490 . S
C1168 H1158 0.930 . S
C1168 C1167 1.400 . S
C1168 C1171 1.386 . S
H1169 C1185 0.930 . S
H1170 C1186 0.931 . S
C1171 H1159 0.929 . S
C1171 C1165 1.390 . S
C1171 C1168 1.386 . S
C1172 C1167 1.490 . S
C1172 C1174 1.395 . S
C1172 C1175 1.403 . S
H1173 C1179 0.930 . S
C1174 H1160 0.930 . S
C1174 C1172 1.395 . S
C1174 C1177 1.403 . S
C1175 C1172 1.403 . S
C1175 C1176 1.524 . S
C1175 C1179 1.400 . S
C1176 H1161 0.960 . S
C1176 H1162 0.960 . S
C1176 H1163 0.960 . S
C1176 C1175 1.524 . S
C1177 C1174 1.403 . S
C1177 C1178 1.392 . S
C1177 C1181 1.495 . S
C1178 C1177 1.392 . S
C1178 C1179 1.385 . S
C1178 C1180 1.478 . S
C1179 H1173 0.930 . S
C1179 C1175 1.400 . S
C1179 C1178 1.385 . S
C1180 C1178 1.478 . S
C1180 C1182 1.381 . S
C1180 C1186 1.383 . S
C1181 C1177 1.495 . S
C1181 H1187 0.959 . S
C1181 H1188 0.961 . S
C1181 H1189 0.960 . S
C1182 C1180 1.381 . S
C1182 C1183 1.394 . S
C1182 H1190 0.930 . S
C1183 C1182 1.394 . S
C1183 C1184 1.383 . S
C1183 H1191 0.929 . S
C1184 C1183 1.383 . S
C1184 C1185 1.377 . S
C1185 H1169 0.930 . S
C1185 C1184 1.377 . S
C1185 C1186 1.379 . S
C1186 H1170 0.931 . S
C1186 C1180 1.383 . S
C1186 C1185 1.379 . S
H1187 C1181 0.959 . S
H1188 C1181 0.961 . S
H1189 C1181 0.960 . S
H1190 C1182 0.930 . S
H1191 C1183 0.929 . S
H1192 C1200 0.929 . S
H1193 C1202 0.930 . S
H1194 C1204 0.930 . S
H1195 C1207 0.929 . S
H1196 C1210 0.930 . S
H1197 C1212 0.960 . S
H1198 C1212 0.960 . S
H1199 C1212 0.960 . S
C1200 H1192 0.929 . S
C1200 C1201 1.377 . S
C1200 C1202 1.384 . S
C1201 C1200 1.377 . S
C1201 C1207 1.390 . S
C1202 H1193 0.930 . S
C1202 C1200 1.384 . S
C1202 C1203 1.372 . S
C1203 C1202 1.372 . S
C1203 C1204 1.400 . S
C1203 C1208 1.490 . S
C1204 H1194 0.930 . S
C1204 C1203 1.400 . S
C1204 C1207 1.386 . S
H1205 C1221 0.930 . S
H1206 C1222 0.931 . S
C1207 H1195 0.929 . S
C1207 C1201 1.390 . S
C1207 C1204 1.386 . S
C1208 C1203 1.490 . S
C1208 C1210 1.395 . S
C1208 C1211 1.403 . S
H1209 C1215 0.930 . S
C1210 H1196 0.930 . S
C1210 C1208 1.395 . S
C1210 C1213 1.403 . S
C1211 C1208 1.403 . S
C1211 C1212 1.524 . S
C1211 C1215 1.400 . S
C1212 H1197 0.960 . S
C1212 H1198 0.960 . S
C1212 H1199 0.960 . S
C1212 C1211 1.524 . S
C1213 C1210 1.403 . S
C1213 C1214 1.392 . S
C1213 C1217 1.495 . S
C1214 C1213 1.392 . S
C1214 C1215 1.385 . S
C1214 C1216 1.478 . S
C1215 H1209 0.930 . S
C1215 C1211 1.400 . S
C1215 C1214 1.385 . S
C1216 C1214 1.478 . S
C1216 C1218 1.381 . S
C1216 C1222 1.383 . S
C1217 C1213 1.495 . S
C1217 H1223 0.959 . S
C1217 H1224 0.961 . S
C1217 H1225 0.960 . S
C1218 C1216 1.381 . S
C1218 C1219 1.394 . S
C1218 H1226 0.930 . S
C1219 C1218 1.394 . S
C1219 C1220 1.383 . S
C1219 H1227 0.929 . S
C1220 C1219 1.383 . S
C1220 C1221 1.377 . S
C1221 H1205 0.930 . S
C1221 C1220 1.377 . S
C1221 C1222 1.379 . S
C1222 H1206 0.931 . S
C1222 C1216 1.383 . S
C1222 C1221 1.379 . S
H1223 C1217 0.959 . S
H1224 C1217 0.961 . S
H1225 C1217 0.960 . S
H1226 C1218 0.930 . S
H1227 C1219 0.929 . S
H1228 C1236 0.929 . S
H1229 C1238 0.930 . S
H1230 C1240 0.930 . S
H1231 C1243 0.929 . S
H1232 C1246 0.930 . S
H1233 C1248 0.960 . S
H1234 C1248 0.960 . S
H1235 C1248 0.960 . S
C1236 H1228 0.929 . S
C1236 C1237 1.377 . S
C1236 C1238 1.384 . S
C1237 C1236 1.377 . S
C1237 C1243 1.390 . S
C1238 H1229 0.930 . S
C1238 C1236 1.384 . S
C1238 C1239 1.372 . S
C1239 C1238 1.372 . S
C1239 C1240 1.400 . S
C1239 C1244 1.490 . S
C1240 H1230 0.930 . S
C1240 C1239 1.400 . S
C1240 C1243 1.386 . S
H1241 C1257 0.930 . S
H1242 C1258 0.931 . S
C1243 H1231 0.929 . S
C1243 C1237 1.390 . S
C1243 C1240 1.386 . S
C1244 C1239 1.490 . S
C1244 C1246 1.395 . S
C1244 C1247 1.403 . S
H1245 C1251 0.930 . S
C1246 H1232 0.930 . S
C1246 C1244 1.395 . S
C1246 C1249 1.403 . S
C1247 C1244 1.403 . S
C1247 C1248 1.524 . S
C1247 C1251 1.400 . S
C1248 H1233 0.960 . S
C1248 H1234 0.960 . S
C1248 H1235 0.960 . S
C1248 C1247 1.524 . S
C1249 C1246 1.403 . S
C1249 C1250 1.392 . S
C1249 C1253 1.495 . S
C1250 C1249 1.392 . S
C1250 C1251 1.385 . S
C1250 C1252 1.478 . S
C1251 H1245 0.930 . S
C1251 C1247 1.400 . S
C1251 C1250 1.385 . S
C1252 C1250 1.478 . S
C1252 C1254 1.381 . S
C1252 C1258 1.383 . S
C1253 C1249 1.495 . S
C1253 H1259 0.959 . S
C1253 H1260 0.961 . S
C1253 H1261 0.960 . S
C1254 C1252 1.381 . S
C1254 C1255 1.394 . S
C1254 H1262 0.930 . S
C1255 C1254 1.394 . S
C1255 C1256 1.383 . S
C1255 H1263 0.929 . S
C1256 C1255 1.383 . S
C1256 C1257 1.377 . S
C1257 H1241 0.930 . S
C1257 C1256 1.377 . S
C1257 C1258 1.379 . S
C1258 H1242 0.931 . S
C1258 C1252 1.383 . S
C1258 C1257 1.379 . S
H1259 C1253 0.959 . S
H1260 C1253 0.961 . S
H1261 C1253 0.960 . S
H1262 C1254 0.930 . S
H1263 C1255 0.929 . S
H1264 C1272 0.929 . S
H1265 C1274 0.930 . S
H1266 C1276 0.930 . S
H1267 C1279 0.929 . S
H1268 C1282 0.930 . S
H1269 C1284 0.960 . S
H1270 C1284 0.960 . S
H1271 C1284 0.960 . S
C1272 H1264 0.929 . S
C1272 C1273 1.377 . S
C1272 C1274 1.384 . S
C1273 C1272 1.377 . S
C1273 C1279 1.390 1_554 S
C1274 H1265 0.930 . S
C1274 C1272 1.384 . S
C1274 C1275 1.372 . S
C1275 C1274 1.372 . S
C1275 C1276 1.400 1_554 S
C1275 C1280 1.490 . S
C1276 H1266 0.930 . S
C1276 C1275 1.400 1_556 S
C1276 C1279 1.386 . S
H1277 C1293 0.930 . S
H1278 C1294 0.931 . S
C1279 H1267 0.929 . S
C1279 C1273 1.390 1_556 S
C1279 C1276 1.386 . S
C1280 C1275 1.490 . S
C1280 C1282 1.395 . S
C1280 C1283 1.403 1_554 S
H1281 C1287 0.930 . S
C1282 H1268 0.930 . S
C1282 C1280 1.395 . S
C1282 C1285 1.403 . S
C1283 C1280 1.403 1_556 S
C1283 C1284 1.524 . S
C1283 C1287 1.400 . S
C1284 H1269 0.960 . S
C1284 H1270 0.960 . S
C1284 H1271 0.960 . S
C1284 C1283 1.524 . S
C1285 C1282 1.403 . S
C1285 C1286 1.392 . S
C1285 C1289 1.495 . S
C1286 C1285 1.392 . S
C1286 C1287 1.385 1_554 S
C1286 C1288 1.478 . S
C1287 H1281 0.930 . S
C1287 C1283 1.400 . S
C1287 C1286 1.385 1_556 S
C1288 C1286 1.478 . S
C1288 C1290 1.381 . S
C1288 C1294 1.383 1_554 S
C1289 C1285 1.495 . S
C1289 H1295 0.959 . S
C1289 H1296 0.961 . S
C1289 H1297 0.960 . S
C1290 C1288 1.381 . S
C1290 C1291 1.394 . S
C1290 H1298 0.930 . S
C1291 C1290 1.394 . S
C1291 C1292 1.383 1_554 S
C1291 H1299 0.929 . S
C1292 C1291 1.383 1_556 S
C1292 C1293 1.377 . S
C1293 H1277 0.930 . S
C1293 C1292 1.377 . S
C1293 C1294 1.379 . S
C1294 H1278 0.931 . S
C1294 C1288 1.383 1_556 S
C1294 C1293 1.379 . S
H1295 C1289 0.959 . S
H1296 C1289 0.961 . S
H1297 C1289 0.960 . S
H1298 C1290 0.930 . S
H1299 C1291 0.929 . S
H1300 C1308 0.929 . S
H1301 C1310 0.930 . S
H1302 C1312 0.930 . S
H1303 C1315 0.929 . S
H1304 C1318 0.930 . S
H1305 C1320 0.960 . S
H1306 C1320 0.960 . S
H1307 C1320 0.960 . S
C1308 H1300 0.929 . S
C1308 C1309 1.377 . S
C1308 C1310 1.384 . S
C1309 C1308 1.377 . S
C1309 C1315 1.390 . S
C1310 H1301 0.930 . S
C1310 C1308 1.384 . S
C1310 C1311 1.372 . S
C1311 C1310 1.372 . S
C1311 C1312 1.400 . S
C1311 C1316 1.490 . S
C1312 H1302 0.930 . S
C1312 C1311 1.400 . S
C1312 C1315 1.386 . S
H1313 C1329 0.930 . S
H1314 C1330 0.931 . S
C1315 H1303 0.929 . S
C1315 C1309 1.390 . S
C1315 C1312 1.386 . S
C1316 C1311 1.490 . S
C1316 C1318 1.395 1_554 S
C1316 C1319 1.403 . S
H1317 C1323 0.930 . S
C1318 H1304 0.930 . S
C1318 C1316 1.395 1_556 S
C1318 C1321 1.403 . S
C1319 C1316 1.403 . S
C1319 C1320 1.524 . S
C1319 C1323 1.400 . S
C1320 H1305 0.960 . S
C1320 H1306 0.960 . S
C1320 H1307 0.960 . S
C1320 C1319 1.524 . S
C1321 C1318 1.403 . S
C1321 C1322 1.392 . S
C1321 C1325 1.495 . S
C1322 C1321 1.392 . S
C1322 C1323 1.385 1_556 S
C1322 C1324 1.478 . S
C1323 H1317 0.930 . S
C1323 C1319 1.400 . S
C1323 C1322 1.385 1_554 S
C1324 C1322 1.478 . S
C1324 C1326 1.381 . S
C1324 C1330 1.383 . S
C1325 C1321 1.495 . S
C1325 H1331 0.959 . S
C1325 H1332 0.961 . S
C1325 H1333 0.960 . S
C1326 C1324 1.381 . S
C1326 C1327 1.394 . S
C1326 H1334 0.927 1_556 S
C1327 C1326 1.394 . S
C1327 C1328 1.383 . S
C1327 H1335 0.929 1_556 S
C1328 C1327 1.383 . S
C1328 C1329 1.377 . S
C1329 H1313 0.930 . S
C1329 C1328 1.377 . S
C1329 C1330 1.379 . S
C1330 H1314 0.931 . S
C1330 C1324 1.383 . S
C1330 C1329 1.379 . S
H1331 C1325 0.959 . S
H1332 C1325 0.961 . S
H1333 C1325 0.960 . S
H1334 C1326 0.927 1_554 S
H1335 C1327 0.929 1_554 S
H1336 C1344 0.929 . S
H1337 C1346 0.930 . S
H1338 C1348 0.930 . S
H1339 C1351 0.929 . S
H1340 C1354 0.931 . S
H1341 C1356 0.960 . S
H1342 C1356 0.960 . S
H1343 C1356 0.960 1_556 S
C1344 H1336 0.929 . S
C1344 C1345 1.377 . S
C1344 C1346 1.384 . S
C1345 C1344 1.377 . S
C1345 C1351 1.390 1_554 S
C1346 H1337 0.930 . S
C1346 C1344 1.384 . S
C1346 C1347 1.372 . S
C1347 C1346 1.372 . S
C1347 C1348 1.400 1_554 S
C1347 C1352 1.490 . S
C1348 H1338 0.930 . S
C1348 C1347 1.400 1_556 S
C1348 C1351 1.386 . S
H1349 C1365 0.930 . S
H1350 C1366 0.931 . S
C1351 H1339 0.929 . S
C1351 C1345 1.390 1_556 S
C1351 C1348 1.386 . S
C1352 C1347 1.490 . S
C1352 C1354 1.393 1_554 S
C1352 C1355 1.403 . S
H1353 C1359 0.930 . S
C1354 H1340 0.931 . S
C1354 C1352 1.393 1_556 S
C1354 C1357 1.405 . S
C1355 C1352 1.403 . S
C1355 C1356 1.524 . S
C1355 C1359 1.400 . S
C1356 H1341 0.960 . S
C1356 H1342 0.960 . S
C1356 H1343 0.960 1_554 S
C1356 C1355 1.524 . S
C1357 C1354 1.405 . S
C1357 C1358 1.393 . S
C1357 C1361 1.495 . S
C1358 C1357 1.393 . S
C1358 C1359 1.384 1_556 S
C1358 C1360 1.478 . S
C1359 H1353 0.930 . S
C1359 C1355 1.400 . S
C1359 C1358 1.384 1_554 S
C1360 C1358 1.478 . S
C1360 C1362 1.381 1_556 S
C1360 C1366 1.383 . S
C1361 C1357 1.495 . S
C1361 H1367 0.959 . S
C1361 H1368 0.961 . S
C1361 H1369 0.960 1_556 S
C1362 C1360 1.381 1_554 S
C1362 C1363 1.394 . S
C1362 H1370 0.930 . S
C1363 C1362 1.394 . S
C1363 C1364 1.383 1_554 S
C1363 H1371 0.929 . S
C1364 C1363 1.383 1_556 S
C1364 C1365 1.377 . S
C1365 H1349 0.930 . S
C1365 C1364 1.377 . S
C1365 C1366 1.379 . S
C1366 H1350 0.931 . S
C1366 C1360 1.383 . S
C1366 C1365 1.379 . S
H1367 C1361 0.959 . S
H1368 C1361 0.961 . S
H1369 C1361 0.960 1_554 S
H1370 C1362 0.930 . S
H1371 C1363 0.929 . S
H1372 C1380 0.929 . S
H1373 C1382 0.930 . S
H1374 C1384 0.930 . S
H1375 C1387 0.929 . S
H1376 C1390 0.930 . S
H1377 C1392 0.960 . S
H1378 C1392 0.947 1_556 S
H1379 C1392 0.960 . S
C1380 H1372 0.929 . S
C1380 C1381 1.377 1_556 S
C1380 C1382 1.384 . S
C1381 C1380 1.377 1_554 S
C1381 C1387 1.390 . S
C1382 H1373 0.930 . S
C1382 C1380 1.384 . S
C1382 C1383 1.372 1_556 S
C1383 C1382 1.372 1_554 S
C1383 C1384 1.400 . S
C1383 C1388 1.489 1_554 S
C1384 H1374 0.930 . S
C1384 C1383 1.400 . S
C1384 C1387 1.386 . S
H1385 C1401 0.930 . S
H1386 C1402 0.931 . S
C1387 H1375 0.929 . S
C1387 C1381 1.390 . S
C1387 C1384 1.386 . S
C1388 C1383 1.489 1_556 S
C1388 C1390 1.398 . S
C1388 C1391 1.400 1_556 S
H1389 C1395 0.930 . S
C1390 H1376 0.930 . S
C1390 C1388 1.398 . S
C1390 C1393 1.403 . S
C1391 C1388 1.400 1_554 S
C1391 C1392 1.524 . S
C1391 C1395 1.400 . S
C1392 H1377 0.960 . S
C1392 H1378 0.947 1_554 S
C1392 H1379 0.960 . S
C1392 C1391 1.524 . S
C1393 C1390 1.403 . S
C1393 C1394 1.392 . S
C1393 C1397 1.495 . S
C1394 C1393 1.392 . S
C1394 C1395 1.385 1_556 S
C1394 C1396 1.478 . S
C1395 H1389 0.930 . S
C1395 C1391 1.400 . S
C1395 C1394 1.385 1_554 S
C1396 C1394 1.478 . S
C1396 C1398 1.381 . S
C1396 C1402 1.383 1_556 S
C1397 C1393 1.495 . S
C1397 H1403 0.959 . S
C1397 H1404 0.961 . S
C1397 H1405 0.960 . S
C1398 C1396 1.381 . S
C1398 C1399 1.394 . S
C1398 H1406 0.930 . S
C1399 C1398 1.394 . S
C1399 C1400 1.383 . S
C1399 H1407 0.929 . S
C1400 C1399 1.383 . S
C1400 C1401 1.377 1_556 S
C1401 H1385 0.930 . S
C1401 C1400 1.377 1_554 S
C1401 C1402 1.379 . S
C1402 H1386 0.931 . S
C1402 C1396 1.383 1_554 S
C1402 C1401 1.379 . S
H1403 C1397 0.959 . S
H1404 C1397 0.961 . S
H1405 C1397 0.960 . S
H1406 C1398 0.930 . S
H1407 C1399 0.929 . S
H1408 C1416 0.929 . S
H1409 C1418 0.930 . S
H1410 C1420 0.930 . S
H1411 C1423 0.929 . S
H1412 C1426 0.930 . S
H1413 C1428 0.960 . S
H1414 C1428 0.960 . S
H1415 C1428 0.960 . S
C1416 H1408 0.929 . S
C1416 C1417 1.377 . S
C1416 C1418 1.384 . S
C1417 C1416 1.377 . S
C1417 C1423 1.390 1_655 S
C1418 H1409 0.930 . S
C1418 C1416 1.384 . S
C1418 C1419 1.372 . S
C1419 C1418 1.372 . S
C1419 C1420 1.400 1_655 S
C1419 C1424 1.490 . S
C1420 H1410 0.930 . S
C1420 C1419 1.400 1_455 S
C1420 C1423 1.386 . S
H1421 C1437 0.930 . S
H1422 C1438 0.931 . S
C1423 H1411 0.929 . S
C1423 C1417 1.390 1_455 S
C1423 C1420 1.386 . S
C1424 C1419 1.490 . S
C1424 C1426 1.395 . S
C1424 C1427 1.403 1_655 S
H1425 C1431 0.930 . S
C1426 H1412 0.930 . S
C1426 C1424 1.395 . S
C1426 C1429 1.403 . S
C1427 C1424 1.403 1_455 S
C1427 C1428 1.524 . S
C1427 C1431 1.400 . S
C1428 H1413 0.960 . S
C1428 H1414 0.960 . S
C1428 H1415 0.960 . S
C1428 C1427 1.524 . S
C1429 C1426 1.403 . S
C1429 C1430 1.355 1_655 S
C1429 C1433 1.495 . S
C1430 C1429 1.355 1_455 S
C1430 C1431 1.414 . S
C1430 C1432 1.490 . S
C1431 H1425 0.930 . S
C1431 C1427 1.400 . S
C1431 C1430 1.414 . S
C1432 C1430 1.490 . S
C1432 C1434 1.381 1_455 S
C1432 C1438 1.383 . S
C1433 C1429 1.495 . S
C1433 H1439 0.959 . S
C1433 H1440 0.961 . S
C1433 H1441 0.960 . S
C1434 C1432 1.381 1_655 S
C1434 C1435 1.394 . S
C1434 H1442 0.930 . S
C1435 C1434 1.394 . S
C1435 C1436 1.383 1_655 S
C1435 H1443 0.929 . S
C1436 C1435 1.383 1_455 S
C1436 C1437 1.377 . S
C1437 H1421 0.930 . S
C1437 C1436 1.377 . S
C1437 C1438 1.379 . S
C1438 H1422 0.931 . S
C1438 C1432 1.383 . S
C1438 C1437 1.379 . S
H1439 C1433 0.959 . S
H1440 C1433 0.961 . S
H1441 C1433 0.960 . S
H1442 C1434 0.930 . S
H1443 C1435 0.929 . S
H1444 C1452 0.929 . S
H1445 C1454 0.930 . S
H1446 C1456 0.930 . S
H1447 C1459 0.929 . S
H1448 C1462 0.930 . S
H1449 C1464 0.960 . S
H1450 C1464 0.960 . S
H1451 C1464 0.960 . S
C1452 H1444 0.929 . S
C1452 C1453 1.377 1_545 S
C1452 C1454 1.384 . S
C1453 C1452 1.377 1_565 S
C1453 C1459 1.390 . S
C1454 H1445 0.930 . S
C1454 C1452 1.384 . S
C1454 C1455 1.372 1_545 S
C1455 C1454 1.372 1_565 S
C1455 C1456 1.400 . S
C1455 C1460 1.490 . S
C1456 H1446 0.930 . S
C1456 C1455 1.400 . S
C1456 C1459 1.386 . S
H1457 C1473 0.930 . S
H1458 C1474 0.931 . S
C1459 H1447 0.929 . S
C1459 C1453 1.390 . S
C1459 C1456 1.386 . S
C1460 C1455 1.490 . S
C1460 C1462 1.395 1_565 S
C1460 C1463 1.403 . S
H1461 C1467 0.930 . S
C1462 H1448 0.930 . S
C1462 C1460 1.395 1_545 S
C1462 C1465 1.403 . S
C1463 C1460 1.403 . S
C1463 C1464 1.524 . S
C1463 C1467 1.400 . S
C1464 H1449 0.960 . S
C1464 H1450 0.960 . S
C1464 H1451 0.960 . S
C1464 C1463 1.524 . S
C1465 C1462 1.403 . S
C1465 C1466 1.392 . S
C1465 C1469 1.495 . S
C1466 C1465 1.392 . S
C1466 C1467 1.385 1_545 S
C1466 C1468 1.478 . S
C1467 H1461 0.930 . S
C1467 C1463 1.400 . S
C1467 C1466 1.385 1_565 S
C1468 C1466 1.478 . S
C1468 C1470 1.381 . S
C1468 C1474 1.383 1_545 S
C1469 C1465 1.495 . S
C1469 H1475 0.959 . S
C1469 H1476 0.961 . S
C1469 H1477 0.960 . S
C1470 C1468 1.381 . S
C1470 C1471 1.394 . S
C1470 H1478 0.930 . S
C1471 C1470 1.394 . S
C1471 C1472 1.383 . S
C1471 H1479 0.929 . S
C1472 C1471 1.383 . S
C1472 C1473 1.377 1_545 S
C1473 H1457 0.930 . S
C1473 C1472 1.377 1_565 S
C1473 C1474 1.379 . S
C1474 H1458 0.931 . S
C1474 C1468 1.383 1_565 S
C1474 C1473 1.379 . S
H1475 C1469 0.959 . S
H1476 C1469 0.961 . S
H1477 C1469 0.960 . S
H1478 C1470 0.930 . S
H1479 C1471 0.929 . S
H1480 C1488 0.929 . S
H1481 C1490 0.930 . S
H1482 C1492 0.930 . S
H1483 C1495 0.929 . S
H1484 C1498 0.930 . S
H1485 C1500 0.960 . S
H1486 C1500 0.960 . S
H1487 C1500 0.960 . S
C1488 H1480 0.929 . S
C1488 C1489 1.377 1_455 S
C1488 C1490 1.384 . S
C1489 C1488 1.377 1_655 S
C1489 C1495 1.390 . S
C1490 H1481 0.930 . S
C1490 C1488 1.384 . S
C1490 C1491 1.372 1_455 S
C1491 C1490 1.372 1_655 S
C1491 C1492 1.400 . S
C1491 C1496 1.490 . S
C1492 H1482 0.930 . S
C1492 C1491 1.400 . S
C1492 C1495 1.386 . S
H1493 C1509 0.930 . S
H1494 C1510 0.931 . S
C1495 H1483 0.929 . S
C1495 C1489 1.390 . S
C1495 C1492 1.386 . S
C1496 C1491 1.490 . S
C1496 C1498 1.395 1_655 S
C1496 C1499 1.403 . S
H1497 C1503 0.930 . S
C1498 H1484 0.930 . S
C1498 C1496 1.395 1_455 S
C1498 C1501 1.403 . S
C1499 C1496 1.403 . S
C1499 C1500 1.524 . S
C1499 C1503 1.400 . S
C1500 H1485 0.960 . S
C1500 H1486 0.960 . S
C1500 H1487 0.960 . S
C1500 C1499 1.524 . S
C1501 C1498 1.403 . S
C1501 C1502 1.392 . S
C1501 C1505 1.495 . S
C1502 C1501 1.392 . S
C1502 C1503 1.385 1_455 S
C1502 C1504 1.478 . S
C1503 H1497 0.930 . S
C1503 C1499 1.400 . S
C1503 C1502 1.385 1_655 S
C1504 C1502 1.478 . S
C1504 C1506 1.381 . S
C1504 C1510 1.383 1_455 S
C1505 C1501 1.495 . S
C1505 H1511 0.959 . S
C1505 H1512 0.961 . S
C1505 H1513 0.960 . S
C1506 C1504 1.381 . S
C1506 C1507 1.394 . S
C1506 H1514 0.930 . S
C1507 C1506 1.394 . S
C1507 C1508 1.383 . S
C1507 H1515 0.929 . S
C1508 C1507 1.383 . S
C1508 C1509 1.377 1_455 S
C1509 H1493 0.930 . S
C1509 C1508 1.377 1_655 S
C1509 C1510 1.379 . S
C1510 H1494 0.931 . S
C1510 C1504 1.383 1_655 S
C1510 C1509 1.379 . S
H1511 C1505 0.959 . S
H1512 C1505 0.961 . S
H1513 C1505 0.960 . S
H1514 C1506 0.930 . S
H1515 C1507 0.929 . S
H1516 C1524 0.929 . S
H1517 C1526 0.930 1_565 S
H1518 C1528 0.930 . S
H1519 C1531 0.929 . S
H1520 C1534 0.930 . S
H1521 C1536 0.960 . S
H1522 C1536 0.960 . S
H1523 C1536 0.960 . S
C1524 H1516 0.929 . S
C1524 C1525 1.377 . S
C1524 C1526 1.384 . S
C1525 C1524 1.377 . S
C1525 C1531 1.390 . S
C1526 H1517 0.930 1_545 S
C1526 C1524 1.384 . S
C1526 C1527 1.372 . S
C1527 C1526 1.372 . S
C1527 C1528 1.400 . S
C1527 C1532 1.490 . S
C1528 H1518 0.930 . S
C1528 C1527 1.400 . S
C1528 C1531 1.386 . S
H1529 C1545 0.930 . S
H1530 C1546 0.918 1_545 S
C1531 H1519 0.929 . S
C1531 C1525 1.390 . S
C1531 C1528 1.386 . S
C1532 C1527 1.490 . S
C1532 C1534 1.395 . S
C1532 C1535 1.403 1_545 S
H1533 C1539 0.930 . S
C1534 H1520 0.930 . S
C1534 C1532 1.395 . S
C1534 C1537 1.403 . S
C1535 C1532 1.403 1_565 S
C1535 C1536 1.524 . S
C1535 C1539 1.400 . S
C1536 H1521 0.960 . S
C1536 H1522 0.960 . S
C1536 H1523 0.960 . S
C1536 C1535 1.524 . S
C1537 C1534 1.403 . S
C1537 C1538 1.392 1_545 S
C1537 C1541 1.495 . S
C1538 C1537 1.392 1_565 S
C1538 C1539 1.385 . S
C1538 C1540 1.478 . S
C1539 H1533 0.930 . S
C1539 C1535 1.400 . S
C1539 C1538 1.385 . S
C1540 C1538 1.478 . S
C1540 C1542 1.381 . S
C1540 C1546 1.389 . S
C1541 C1537 1.495 . S
C1541 H1547 0.959 . S
C1541 H1548 0.961 . S
C1541 H1549 0.960 . S
C1542 C1540 1.381 . S
C1542 C1543 1.394 . S
C1542 H1550 0.930 . S
C1543 C1542 1.394 . S
C1543 C1544 1.383 . S
C1543 H1551 0.929 . S
C1544 C1543 1.383 . S
C1544 C1545 1.377 . S
C1545 H1529 0.930 . S
C1545 C1544 1.377 . S
C1545 C1546 1.386 . S
C1546 H1530 0.918 1_565 S
C1546 C1540 1.389 . S
C1546 C1545 1.386 . S
H1547 C1541 0.959 . S
H1548 C1541 0.961 . S
H1549 C1541 0.960 . S
H1550 C1542 0.930 . S
H1551 C1543 0.929 . S
H1552 C1560 0.929 . S
H1553 C1562 0.930 . S
H1554 C1564 0.930 . S
H1555 C1567 0.929 . S
H1556 C1570 0.930 . S
H1557 C1572 0.960 . S
H1558 C1572 0.960 . S
H1559 C1572 0.960 . S
C1560 H1552 0.929 . S
C1560 C1561 1.377 1_455 S
C1560 C1562 1.384 . S
C1561 C1560 1.377 1_655 S
C1561 C1567 1.390 . S
C1562 H1553 0.930 . S
C1562 C1560 1.384 . S
C1562 C1563 1.372 1_455 S
C1563 C1562 1.372 1_655 S
C1563 C1564 1.400 . S
C1563 C1568 1.499 . S
C1564 H1554 0.930 . S
C1564 C1563 1.400 . S
C1564 C1567 1.386 . S
H1565 C1581 0.930 . S
H1566 C1582 0.931 . S
C1567 H1555 0.929 . S
C1567 C1561 1.390 . S
C1567 C1564 1.386 . S
C1568 C1563 1.499 . S
C1568 C1570 1.352 1_655 S
C1568 C1571 1.437 . S
H1569 C1575 0.930 . S
C1570 H1556 0.930 . S
C1570 C1568 1.352 1_455 S
C1570 C1573 1.403 . S
C1571 C1568 1.437 . S
C1571 C1572 1.524 . S
C1571 C1575 1.400 . S
C1572 H1557 0.960 . S
C1572 H1558 0.960 . S
C1572 H1559 0.960 . S
C1572 C1571 1.524 . S
C1573 C1570 1.403 . S
C1573 C1574 1.392 . S
C1573 C1577 1.495 . S
C1574 C1573 1.392 . S
C1574 C1575 1.385 1_455 S
C1574 C1576 1.478 . S
C1575 H1569 0.930 . S
C1575 C1571 1.400 . S
C1575 C1574 1.385 1_655 S
C1576 C1574 1.478 . S
C1576 C1578 1.381 . S
C1576 C1582 1.383 1_455 S
C1577 C1573 1.495 . S
C1577 H1583 0.959 . S
C1577 H1584 0.961 . S
C1577 H1585 0.960 . S
C1578 C1576 1.381 . S
C1578 C1579 1.394 . S
C1578 H1586 0.930 . S
C1579 C1578 1.394 . S
C1579 C1580 1.383 . S
C1579 H1587 0.929 . S
C1580 C1579 1.383 . S
C1580 C1581 1.377 1_455 S
C1581 H1565 0.930 . S
C1581 C1580 1.377 1_655 S
C1581 C1582 1.379 . S
C1582 H1566 0.931 . S
C1582 C1576 1.383 1_655 S
C1582 C1581 1.379 . S
H1583 C1577 0.959 . S
H1584 C1577 0.961 . S
H1585 C1577 0.960 . S
H1586 C1578 0.930 . S
H1587 C1579 0.929 . S
H1588 C1596 0.929 . S
H1589 C1598 0.930 . S
H1590 C1600 0.930 . S
H1591 C1603 0.929 . S
H1592 C1606 0.930 . S
H1593 C1608 0.960 . S
H1594 C1608 0.960 . S
H1595 C1608 0.960 . S
C1596 H1588 0.929 . S
C1596 C1597 1.377 1_565 S
C1596 C1598 1.384 . S
C1597 C1596 1.377 1_545 S
C1597 C1603 1.390 . S
C1598 H1589 0.930 . S
C1598 C1596 1.384 . S
C1598 C1599 1.372 1_565 S
C1599 C1598 1.372 1_545 S
C1599 C1600 1.400 . S
C1599 C1604 1.498 . S
C1600 H1590 0.930 . S
C1600 C1599 1.400 . S
C1600 C1603 1.386 . S
H1601 C1617 0.930 . S
H1602 C1618 0.931 . S
C1603 H1591 0.929 . S
C1603 C1597 1.390 . S
C1603 C1600 1.386 . S
C1604 C1599 1.498 . S
C1604 C1606 1.361 1_545 S
C1604 C1607 1.429 . S
H1605 C1611 0.930 . S
C1606 H1592 0.930 . S
C1606 C1604 1.361 1_565 S
C1606 C1609 1.403 . S
C1607 C1604 1.429 . S
C1607 C1608 1.524 . S
C1607 C1611 1.400 . S
C1608 H1593 0.960 . S
C1608 H1594 0.960 . S
C1608 H1595 0.960 . S
C1608 C1607 1.524 . S
C1609 C1606 1.403 . S
C1609 C1610 1.392 . S
C1609 C1613 1.495 . S
C1610 C1609 1.392 . S
C1610 C1611 1.385 1_565 S
C1610 C1612 1.478 . S
C1611 H1605 0.930 . S
C1611 C1607 1.400 . S
C1611 C1610 1.385 1_545 S
C1612 C1610 1.478 . S
C1612 C1614 1.381 . S
C1612 C1618 1.383 1_565 S
C1613 C1609 1.495 . S
C1613 H1619 0.959 . S
C1613 H1620 0.961 . S
C1613 H1621 0.960 . S
C1614 C1612 1.381 . S
C1614 C1615 1.394 . S
C1614 H1622 0.930 . S
C1615 C1614 1.394 . S
C1615 C1616 1.383 . S
C1615 H1623 0.929 . S
C1616 C1615 1.383 . S
C1616 C1617 1.377 1_565 S
C1617 H1601 0.930 . S
C1617 C1616 1.377 1_545 S
C1617 C1618 1.379 . S
C1618 H1602 0.931 . S
C1618 C1612 1.383 1_545 S
C1618 C1617 1.379 . S
H1619 C1613 0.959 . S
H1620 C1613 0.961 . S
H1621 C1613 0.960 . S
H1622 C1614 0.930 . S
H1623 C1615 0.929 . S
H1624 C1632 0.929 . S
H1625 C1634 0.930 . S
H1626 C1636 0.930 . S
H1627 C1639 0.929 . S
H1628 C1642 0.930 . S
H1629 C1644 0.960 . S
H1630 C1644 0.960 . S
H1631 C1644 0.960 . S
C1632 H1624 0.929 . S
C1632 C1633 1.377 1_655 S
C1632 C1634 1.384 . S
C1633 C1632 1.377 1_455 S
C1633 C1639 1.390 . S
C1634 H1625 0.930 . S
C1634 C1632 1.384 . S
C1634 C1635 1.372 1_655 S
C1635 C1634 1.372 1_455 S
C1635 C1636 1.400 . S
C1635 C1640 1.500 . S
C1636 H1626 0.930 . S
C1636 C1635 1.400 . S
C1636 C1639 1.386 . S
H1637 C1653 0.930 . S
H1638 C1654 0.931 . S
C1639 H1627 0.929 . S
C1639 C1633 1.390 . S
C1639 C1636 1.386 . S
C1640 C1635 1.500 . S
C1640 C1642 1.344 1_455 S
C1640 C1643 1.444 . S
H1641 C1647 0.930 . S
C1642 H1628 0.930 . S
C1642 C1640 1.344 1_655 S
C1642 C1645 1.403 . S
C1643 C1640 1.444 . S
C1643 C1644 1.524 . S
C1643 C1647 1.400 . S
C1644 H1629 0.960 . S
C1644 H1630 0.960 . S
C1644 H1631 0.960 . S
C1644 C1643 1.524 . S
C1645 C1642 1.403 . S
C1645 C1646 1.392 . S
C1645 C1649 1.495 . S
C1646 C1645 1.392 . S
C1646 C1647 1.385 1_655 S
C1646 C1648 1.478 . S
C1647 H1641 0.930 . S
C1647 C1643 1.400 . S
C1647 C1646 1.385 1_455 S
C1648 C1646 1.478 . S
C1648 C1650 1.381 . S
C1648 C1654 1.383 1_655 S
C1649 C1645 1.495 . S
C1649 H1655 0.959 . S
C1649 H1656 0.961 . S
C1649 H1657 0.960 . S
C1650 C1648 1.381 . S
C1650 C1651 1.394 . S
C1650 H1658 0.930 . S
C1651 C1650 1.394 . S
C1651 C1652 1.383 . S
C1651 H1659 0.929 . S
C1652 C1651 1.383 . S
C1652 C1653 1.377 1_655 S
C1653 H1637 0.930 . S
C1653 C1652 1.377 1_455 S
C1653 C1654 1.379 . S
C1654 H1638 0.931 . S
C1654 C1648 1.383 1_455 S
C1654 C1653 1.379 . S
H1655 C1649 0.959 . S
H1656 C1649 0.961 . S
H1657 C1649 0.960 . S
H1658 C1650 0.930 . S
H1659 C1651 0.929 . S
H1660 C1668 0.929 . S
H1661 C1670 0.930 . S
H1662 C1672 0.930 . S
H1663 C1675 0.929 . S
H1664 C1678 0.930 . S
H1665 C1680 0.960 . S
H1666 C1680 0.960 . S
H1667 C1680 0.960 . S
C1668 H1660 0.929 . S
C1668 C1669 1.377 . S
C1668 C1670 1.384 . S
C1669 C1668 1.377 . S
C1669 C1675 1.390 1_565 S
C1670 H1661 0.930 . S
C1670 C1668 1.384 . S
C1670 C1671 1.372 . S
C1671 C1670 1.372 . S
C1671 C1672 1.400 1_565 S
C1671 C1676 1.490 . S
C1672 H1662 0.930 . S
C1672 C1671 1.400 1_545 S
C1672 C1675 1.386 . S
H1673 C1689 0.930 . S
H1674 C1690 0.931 . S
C1675 H1663 0.929 . S
C1675 C1669 1.390 1_545 S
C1675 C1672 1.386 . S
C1676 C1671 1.490 . S
C1676 C1678 1.395 . S
C1676 C1679 1.403 1_565 S
H1677 C1683 0.930 . S
C1678 H1664 0.930 . S
C1678 C1676 1.395 . S
C1678 C1681 1.403 . S
C1679 C1676 1.403 1_545 S
C1679 C1680 1.524 . S
C1679 C1683 1.400 . S
C1680 H1665 0.960 . S
C1680 H1666 0.960 . S
C1680 H1667 0.960 . S
C1680 C1679 1.524 . S
C1681 C1678 1.403 . S
C1681 C1682 1.427 . S
C1681 C1685 1.495 . S
C1682 C1681 1.427 . S
C1682 C1683 1.356 1_565 S
C1682 C1684 1.472 1_565 S
C1683 H1677 0.930 . S
C1683 C1679 1.400 . S
C1683 C1682 1.356 1_545 S
C1684 C1682 1.472 1_545 S
C1684 C1686 1.381 1_545 S
C1684 C1690 1.383 . S
C1685 C1681 1.495 . S
C1685 H1691 0.959 . S
C1685 H1692 0.961 . S
C1685 H1693 0.960 . S
C1686 C1684 1.381 1_565 S
C1686 C1687 1.394 . S
C1686 H1694 0.930 . S
C1687 C1686 1.394 . S
C1687 C1688 1.383 1_565 S
C1687 H1695 0.929 . S
C1688 C1687 1.383 1_545 S
C1688 C1689 1.377 . S
C1689 H1673 0.930 . S
C1689 C1688 1.377 . S
C1689 C1690 1.379 . S
C1690 H1674 0.931 . S
C1690 C1684 1.383 . S
C1690 C1689 1.379 . S
H1691 C1685 0.959 . S
H1692 C1685 0.961 . S
H1693 C1685 0.960 . S
H1694 C1686 0.930 . S
H1695 C1687 0.929 . S
H1696 C1704 0.929 . S
H1697 C1706 0.930 . S
H1698 C1708 0.930 . S
H1699 C1711 0.929 . S
H1700 C1714 0.930 . S
H1701 C1716 0.960 . S
H1702 C1716 0.960 . S
H1703 C1716 0.960 . S
C1704 H1696 0.929 . S
C1704 C1705 1.377 . S
C1704 C1706 1.384 . S
C1705 C1704 1.377 . S
C1705 C1711 1.390 . S
C1706 H1697 0.930 . S
C1706 C1704 1.384 . S
C1706 C1707 1.372 . S
C1707 C1706 1.372 . S
C1707 C1708 1.400 . S
C1707 C1712 1.490 . S
C1708 H1698 0.930 . S
C1708 C1707 1.400 . S
C1708 C1711 1.386 . S
H1709 C1725 0.930 . S
H1710 C1726 0.931 . S
C1711 H1699 0.929 . S
C1711 C1705 1.390 . S
C1711 C1708 1.386 . S
C1712 C1707 1.490 . S
C1712 C1714 1.395 . S
C1712 C1715 1.403 . S
H1713 C1719 0.930 . S
C1714 H1700 0.930 . S
C1714 C1712 1.395 . S
C1714 C1717 1.403 . S
C1715 C1712 1.403 . S
C1715 C1716 1.524 . S
C1715 C1719 1.400 . S
C1716 H1701 0.960 . S
C1716 H1702 0.960 . S
C1716 H1703 0.960 . S
C1716 C1715 1.524 . S
C1717 C1714 1.403 . S
C1717 C1718 1.392 . S
C1717 C1721 1.495 . S
C1718 C1717 1.392 . S
C1718 C1719 1.385 . S
C1718 C1720 1.478 . S
C1719 H1713 0.930 . S
C1719 C1715 1.400 . S
C1719 C1718 1.385 . S
C1720 C1718 1.478 . S
C1720 C1722 1.381 . S
C1720 C1726 1.383 . S
C1721 C1717 1.495 . S
C1721 H1727 0.959 . S
C1721 H1728 0.961 . S
C1721 H1729 0.960 . S
C1722 C1720 1.381 . S
C1722 C1723 1.394 . S
C1722 H1730 0.930 . S
C1723 C1722 1.394 . S
C1723 C1724 1.383 . S
C1723 H1731 0.929 . S
C1724 C1723 1.383 . S
C1724 C1725 1.377 . S
C1725 H1709 0.930 . S
C1725 C1724 1.377 . S
C1725 C1726 1.379 . S
C1726 H1710 0.931 . S
C1726 C1720 1.383 . S
C1726 C1725 1.379 . S
H1727 C1721 0.959 . S
H1728 C1721 0.961 . S
H1729 C1721 0.960 . S
H1730 C1722 0.930 . S
H1731 C1723 0.929 . S
H1732 C1740 0.929 . S
H1733 C1742 0.930 . S
H1734 C1744 0.930 . S
H1735 C1747 0.929 . S
H1736 C1750 0.930 . S
H1737 C1752 0.960 . S
H1738 C1752 0.960 . S
H1739 C1752 0.960 . S
C1740 H1732 0.929 . S
C1740 C1741 1.377 . S
C1740 C1742 1.384 . S
C1741 C1740 1.377 . S
C1741 C1747 1.390 . S
C1742 H1733 0.930 . S
C1742 C1740 1.384 . S
C1742 C1743 1.372 . S
C1743 C1742 1.372 . S
C1743 C1744 1.400 . S
C1743 C1748 1.490 . S
C1744 H1734 0.930 . S
C1744 C1743 1.400 . S
C1744 C1747 1.386 . S
H1745 C1761 0.930 . S
H1746 C1762 0.931 . S
C1747 H1735 0.929 . S
C1747 C1741 1.390 . S
C1747 C1744 1.386 . S
C1748 C1743 1.490 . S
C1748 C1750 1.395 . S
C1748 C1751 1.403 . S
H1749 C1755 0.930 . S
C1750 H1736 0.930 . S
C1750 C1748 1.395 . S
C1750 C1753 1.403 . S
C1751 C1748 1.403 . S
C1751 C1752 1.524 . S
C1751 C1755 1.400 . S
C1752 H1737 0.960 . S
C1752 H1738 0.960 . S
C1752 H1739 0.960 . S
C1752 C1751 1.524 . S
C1753 C1750 1.403 . S
C1753 C1754 1.392 . S
C1753 C1757 1.495 . S
C1754 C1753 1.392 . S
C1754 C1755 1.385 . S
C1754 C1756 1.478 . S
C1755 H1749 0.930 . S
C1755 C1751 1.400 . S
C1755 C1754 1.385 . S
C1756 C1754 1.478 . S
C1756 C1758 1.381 . S
C1756 C1762 1.383 . S
C1757 C1753 1.495 . S
C1757 H1763 0.959 . S
C1757 H1764 0.961 . S
C1757 H1765 0.960 . S
C1758 C1756 1.381 . S
C1758 C1759 1.394 . S
C1758 H1766 0.930 . S
C1759 C1758 1.394 . S
C1759 C1760 1.383 . S
C1759 H1767 0.929 . S
C1760 C1759 1.383 . S
C1760 C1761 1.377 . S
C1761 H1745 0.930 . S
C1761 C1760 1.377 . S
C1761 C1762 1.379 . S
C1762 H1746 0.931 . S
C1762 C1756 1.383 . S
C1762 C1761 1.379 . S
H1763 C1757 0.959 . S
H1764 C1757 0.961 . S
H1765 C1757 0.960 . S
H1766 C1758 0.930 . S
H1767 C1759 0.929 . S
H1768 C1776 0.929 . S
H1769 C1778 0.930 . S
H1770 C1780 0.930 . S
H1771 C1783 0.929 . S
H1772 C1786 0.930 . S
H1773 C1788 0.960 . S
H1774 C1788 0.960 . S
H1775 C1788 0.960 . S
C1776 H1768 0.929 . S
C1776 C1777 1.377 . S
C1776 C1778 1.384 . S
C1777 C1776 1.377 . S
C1777 C1783 1.390 . S
C1778 H1769 0.930 . S
C1778 C1776 1.384 . S
C1778 C1779 1.372 . S
C1779 C1778 1.372 . S
C1779 C1780 1.400 . S
C1779 C1784 1.490 . S
C1780 H1770 0.930 . S
C1780 C1779 1.400 . S
C1780 C1783 1.386 . S
H1781 C1797 0.930 . S
H1782 C1798 0.931 . S
C1783 H1771 0.929 . S
C1783 C1777 1.390 . S
C1783 C1780 1.386 . S
C1784 C1779 1.490 . S
C1784 C1786 1.395 . S
C1784 C1787 1.403 . S
H1785 C1791 0.930 . S
C1786 H1772 0.930 . S
C1786 C1784 1.395 . S
C1786 C1789 1.403 . S
C1787 C1784 1.403 . S
C1787 C1788 1.524 . S
C1787 C1791 1.400 . S
C1788 H1773 0.960 . S
C1788 H1774 0.960 . S
C1788 H1775 0.960 . S
C1788 C1787 1.524 . S
C1789 C1786 1.403 . S
C1789 C1790 1.392 . S
C1789 C1793 1.495 . S
C1790 C1789 1.392 . S
C1790 C1791 1.385 . S
C1790 C1792 1.478 . S
C1791 H1785 0.930 . S
C1791 C1787 1.400 . S
C1791 C1790 1.385 . S
C1792 C1790 1.478 . S
C1792 C1794 1.381 . S
C1792 C1798 1.383 . S
C1793 C1789 1.495 . S
C1793 H1799 0.959 . S
C1793 H1800 0.961 . S
C1793 H1801 0.960 . S
C1794 C1792 1.381 . S
C1794 C1795 1.394 . S
C1794 H1802 0.930 . S
C1795 C1794 1.394 . S
C1795 C1796 1.383 . S
C1795 H1803 0.929 . S
C1796 C1795 1.383 . S
C1796 C1797 1.377 . S
C1797 H1781 0.930 . S
C1797 C1796 1.377 . S
C1797 C1798 1.379 . S
C1798 H1782 0.931 . S
C1798 C1792 1.383 . S
C1798 C1797 1.379 . S
H1799 C1793 0.959 . S
H1800 C1793 0.961 . S
H1801 C1793 0.960 . S
H1802 C1794 0.930 . S
H1803 C1795 0.929 . S
H1804 C1812 0.929 . S
H1805 C1814 0.930 . S
H1806 C1816 0.930 . S
H1807 C1819 0.929 . S
H1808 C1822 0.930 . S
H1809 C1824 0.960 . S
H1810 C1824 0.960 . S
H1811 C1824 0.960 . S
C1812 H1804 0.929 . S
C1812 C1813 1.377 . S
C1812 C1814 1.384 . S
C1813 C1812 1.377 . S
C1813 C1819 1.390 . S
C1814 H1805 0.930 . S
C1814 C1812 1.384 . S
C1814 C1815 1.372 . S
C1815 C1814 1.372 . S
C1815 C1816 1.400 . S
C1815 C1820 1.490 . S
C1816 H1806 0.930 . S
C1816 C1815 1.400 . S
C1816 C1819 1.386 . S
H1817 C1833 0.930 . S
H1818 C1834 0.931 . S
C1819 H1807 0.929 . S
C1819 C1813 1.390 . S
C1819 C1816 1.386 . S
C1820 C1815 1.490 . S
C1820 C1822 1.395 . S
C1820 C1823 1.403 . S
H1821 C1827 0.930 . S
C1822 H1808 0.930 . S
C1822 C1820 1.395 . S
C1822 C1825 1.403 . S
C1823 C1820 1.403 . S
C1823 C1824 1.524 . S
C1823 C1827 1.400 . S
C1824 H1809 0.960 . S
C1824 H1810 0.960 . S
C1824 H1811 0.960 . S
C1824 C1823 1.524 . S
C1825 C1822 1.403 . S
C1825 C1826 1.392 . S
C1825 C1829 1.495 . S
C1826 C1825 1.392 . S
C1826 C1827 1.385 . S
C1826 C1828 1.478 . S
C1827 H1821 0.930 . S
C1827 C1823 1.400 . S
C1827 C1826 1.385 . S
C1828 C1826 1.478 . S
C1828 C1830 1.381 . S
C1828 C1834 1.383 . S
C1829 C1825 1.495 . S
C1829 H1835 0.959 . S
C1829 H1836 0.961 . S
C1829 H1837 0.960 . S
C1830 C1828 1.381 . S
C1830 C1831 1.394 . S
C1830 H1838 0.930 . S
C1831 C1830 1.394 . S
C1831 C1832 1.383 . S
C1831 H1839 0.929 . S
C1832 C1831 1.383 . S
C1832 C1833 1.377 . S
C1833 H1817 0.930 . S
C1833 C1832 1.377 . S
C1833 C1834 1.379 . S
C1834 H1818 0.931 . S
C1834 C1828 1.383 . S
C1834 C1833 1.379 . S
H1835 C1829 0.959 . S
H1836 C1829 0.961 . S
H1837 C1829 0.960 . S
H1838 C1830 0.930 . S
H1839 C1831 0.929 . S
H1840 C1848 0.929 . S
H1841 C1850 0.930 . S
H1842 C1852 0.930 . S
H1843 C1855 0.929 . S
H1844 C1858 0.930 . S
H1845 C1860 0.960 . S
H1846 C1860 0.960 . S
H1847 C1860 0.960 . S
C1848 H1840 0.929 . S
C1848 C1849 1.377 . S
C1848 C1850 1.384 . S
C1849 C1848 1.377 . S
C1849 C1855 1.390 . S
C1850 H1841 0.930 . S
C1850 C1848 1.384 . S
C1850 C1851 1.372 . S
C1851 C1850 1.372 . S
C1851 C1852 1.400 . S
C1851 C1856 1.490 . S
C1852 H1842 0.930 . S
C1852 C1851 1.400 . S
C1852 C1855 1.386 . S
H1853 C1869 0.930 . S
H1854 C1870 0.931 . S
C1855 H1843 0.929 . S
C1855 C1849 1.390 . S
C1855 C1852 1.386 . S
C1856 C1851 1.490 . S
C1856 C1858 1.395 . S
C1856 C1859 1.403 . S
H1857 C1863 0.930 . S
C1858 H1844 0.930 . S
C1858 C1856 1.395 . S
C1858 C1861 1.403 . S
C1859 C1856 1.403 . S
C1859 C1860 1.524 . S
C1859 C1863 1.400 . S
C1860 H1845 0.960 . S
C1860 H1846 0.960 . S
C1860 H1847 0.960 . S
C1860 C1859 1.524 . S
C1861 C1858 1.403 . S
C1861 C1862 1.392 . S
C1861 C1865 1.495 . S
C1862 C1861 1.392 . S
C1862 C1863 1.385 . S
C1862 C1864 1.478 . S
C1863 H1857 0.930 . S
C1863 C1859 1.400 . S
C1863 C1862 1.385 . S
C1864 C1862 1.478 . S
C1864 C1866 1.381 . S
C1864 C1870 1.383 . S
C1865 C1861 1.495 . S
C1865 H1871 0.959 . S
C1865 H1872 0.961 . S
C1865 H1873 0.960 . S
C1866 C1864 1.381 . S
C1866 C1867 1.394 . S
C1866 H1874 0.930 . S
C1867 C1866 1.394 . S
C1867 C1868 1.383 . S
C1867 H1875 0.929 . S
C1868 C1867 1.383 . S
C1868 C1869 1.377 . S
C1869 H1853 0.930 . S
C1869 C1868 1.377 . S
C1869 C1870 1.379 . S
C1870 H1854 0.931 . S
C1870 C1864 1.383 . S
C1870 C1869 1.379 . S
H1871 C1865 0.959 . S
H1872 C1865 0.961 . S
H1873 C1865 0.960 . S
H1874 C1866 0.930 . S
H1875 C1867 0.929 . S
H1876 C1884 0.929 . S
H1877 C1886 0.930 . S
H1878 C1888 0.930 . S
H1879 C1891 0.929 . S
H1880 C1894 0.930 . S
H1881 C1896 0.960 . S
H1882 C1896 0.960 . S
H1883 C1896 0.960 . S
C1884 H1876 0.929 . S
C1884 C1885 1.377 . S
C1884 C1886 1.384 . S
C1885 C1884 1.377 . S
C1885 C1891 1.390 . S
C1886 H1877 0.930 . S
C1886 C1884 1.384 . S
C1886 C1887 1.372 . S
C1887 C1886 1.372 . S
C1887 C1888 1.400 . S
C1887 C1892 1.490 . S
C1888 H1878 0.930 . S
C1888 C1887 1.400 . S
C1888 C1891 1.386 . S
H1889 C1905 0.930 . S
H1890 C1906 0.931 . S
C1891 H1879 0.929 . S
C1891 C1885 1.390 . S
C1891 C1888 1.386 . S
C1892 C1887 1.490 . S
C1892 C1894 1.395 . S
C1892 C1895 1.403 . S
H1893 C1899 0.930 . S
C1894 H1880 0.930 . S
C1894 C1892 1.395 . S
C1894 C1897 1.403 . S
C1895 C1892 1.403 . S
C1895 C1896 1.524 . S
C1895 C1899 1.400 . S
C1896 H1881 0.960 . S
C1896 H1882 0.960 . S
C1896 H1883 0.960 . S
C1896 C1895 1.524 . S
C1897 C1894 1.403 . S
C1897 C1898 1.392 . S
C1897 C1901 1.495 . S
C1898 C1897 1.392 . S
C1898 C1899 1.385 . S
C1898 C1900 1.478 . S
C1899 H1893 0.930 . S
C1899 C1895 1.400 . S
C1899 C1898 1.385 . S
C1900 C1898 1.478 . S
C1900 C1902 1.381 . S
C1900 C1906 1.383 . S
C1901 C1897 1.495 . S
C1901 H1907 0.959 . S
C1901 H1908 0.961 . S
C1901 H1909 0.960 . S
C1902 C1900 1.381 . S
C1902 C1903 1.394 . S
C1902 H1910 0.930 . S
C1903 C1902 1.394 . S
C1903 C1904 1.383 . S
C1903 H1911 0.929 . S
C1904 C1903 1.383 . S
C1904 C1905 1.377 . S
C1905 H1889 0.930 . S
C1905 C1904 1.377 . S
C1905 C1906 1.379 . S
C1906 H1890 0.931 . S
C1906 C1900 1.383 . S
C1906 C1905 1.379 . S
H1907 C1901 0.959 . S
H1908 C1901 0.961 . S
H1909 C1901 0.960 . S
H1910 C1902 0.930 . S
H1911 C1903 0.929 . S
H1912 C1920 0.929 . S
H1913 C1922 0.930 . S
H1914 C1924 0.930 . S
H1915 C1927 0.929 . S
H1916 C1930 0.930 . S
H1917 C1932 0.960 . S
H1918 C1932 0.960 . S
H1919 C1932 0.960 . S
C1920 H1912 0.929 . S
C1920 C1921 1.377 . S
C1920 C1922 1.384 . S
C1921 C1920 1.377 . S
C1921 C1927 1.390 . S
C1922 H1913 0.930 . S
C1922 C1920 1.384 . S
C1922 C1923 1.372 . S
C1923 C1922 1.372 . S
C1923 C1924 1.400 . S
C1923 C1928 1.490 . S
C1924 H1914 0.930 . S
C1924 C1923 1.400 . S
C1924 C1927 1.386 . S
H1925 C1941 0.930 . S
H1926 C1942 0.931 . S
C1927 H1915 0.929 . S
C1927 C1921 1.390 . S
C1927 C1924 1.386 . S
C1928 C1923 1.490 . S
C1928 C1930 1.395 . S
C1928 C1931 1.403 . S
H1929 C1935 0.930 . S
C1930 H1916 0.930 . S
C1930 C1928 1.395 . S
C1930 C1933 1.403 . S
C1931 C1928 1.403 . S
C1931 C1932 1.524 . S
C1931 C1935 1.400 . S
C1932 H1917 0.960 . S
C1932 H1918 0.960 . S
C1932 H1919 0.960 . S
C1932 C1931 1.524 . S
C1933 C1930 1.403 . S
C1933 C1934 1.392 . S
C1933 C1937 1.495 . S
C1934 C1933 1.392 . S
C1934 C1935 1.385 . S
C1934 C1936 1.478 . S
C1935 H1929 0.930 . S
C1935 C1931 1.400 . S
C1935 C1934 1.385 . S
C1936 C1934 1.478 . S
C1936 C1938 1.381 . S
C1936 C1942 1.383 . S
C1937 C1933 1.495 . S
C1937 H1943 0.959 . S
C1937 H1944 0.961 . S
C1937 H1945 0.960 . S
C1938 C1936 1.381 . S
C1938 C1939 1.394 . S
C1938 H1946 0.930 . S
C1939 C1938 1.394 . S
C1939 C1940 1.383 . S
C1939 H1947 0.929 . S
C1940 C1939 1.383 . S
C1940 C1941 1.377 . S
C1941 H1925 0.930 . S
C1941 C1940 1.377 . S
C1941 C1942 1.379 . S
C1942 H1926 0.931 . S
C1942 C1936 1.383 . S
C1942 C1941 1.379 . S
H1943 C1937 0.959 . S
H1944 C1937 0.961 . S
H1945 C1937 0.960 . S
H1946 C1938 0.930 . S
H1947 C1939 0.929 . S
H1948 C1956 0.929 . S
H1949 C1958 0.930 . S
H1950 C1960 0.930 . S
H1951 C1963 0.929 . S
H1952 C1966 0.930 . S
H1953 C1968 0.960 . S
H1954 C1968 0.960 . S
H1955 C1968 0.960 . S
C1956 H1948 0.929 . S
C1956 C1957 1.377 . S
C1956 C1958 1.384 . S
C1957 C1956 1.377 . S
C1957 C1963 1.390 . S
C1958 H1949 0.930 . S
C1958 C1956 1.384 . S
C1958 C1959 1.372 . S
C1959 C1958 1.372 . S
C1959 C1960 1.400 . S
C1959 C1964 1.490 . S
C1960 H1950 0.930 . S
C1960 C1959 1.400 . S
C1960 C1963 1.386 . S
H1961 C1977 0.930 . S
H1962 C1978 0.931 . S
C1963 H1951 0.929 . S
C1963 C1957 1.390 . S
C1963 C1960 1.386 . S
C1964 C1959 1.490 . S
C1964 C1966 1.395 . S
C1964 C1967 1.403 . S
H1965 C1971 0.930 . S
C1966 H1952 0.930 . S
C1966 C1964 1.395 . S
C1966 C1969 1.403 . S
C1967 C1964 1.403 . S
C1967 C1968 1.524 . S
C1967 C1971 1.400 . S
C1968 H1953 0.960 . S
C1968 H1954 0.960 . S
C1968 H1955 0.960 . S
C1968 C1967 1.524 . S
C1969 C1966 1.403 . S
C1969 C1970 1.392 . S
C1969 C1973 1.495 . S
C1970 C1969 1.392 . S
C1970 C1971 1.385 . S
C1970 C1972 1.478 . S
C1971 H1965 0.930 . S
C1971 C1967 1.400 . S
C1971 C1970 1.385 . S
C1972 C1970 1.478 . S
C1972 C1974 1.381 . S
C1972 C1978 1.383 . S
C1973 C1969 1.495 . S
C1973 H1979 0.959 . S
C1973 H1980 0.961 . S
C1973 H1981 0.960 . S
C1974 C1972 1.381 . S
C1974 C1975 1.394 . S
C1974 H1982 0.930 . S
C1975 C1974 1.394 . S
C1975 C1976 1.383 . S
C1975 H1983 0.929 . S
C1976 C1975 1.383 . S
C1976 C1977 1.377 . S
C1977 H1961 0.930 . S
C1977 C1976 1.377 . S
C1977 C1978 1.379 . S
C1978 H1962 0.931 . S
C1978 C1972 1.383 . S
C1978 C1977 1.379 . S
H1979 C1973 0.959 . S
H1980 C1973 0.961 . S
H1981 C1973 0.960 . S
H1982 C1974 0.930 . S
H1983 C1975 0.929 . S
C553 C9 1.380 . S
C572 C519 1.413 . S
C589 C43 1.394 . S
C608 C417 1.350 . S
C625 C451 1.381 . S
C644 C77 1.407 . S
C661 C111 1.382 . S
C680 C485 1.415 . S
C697 C145 1.393 . S
C716 C315 1.352 . S
C733 C349 1.391 . S
C752 C179 1.357 . S
C769 C383 1.394 . S
C788 C213 1.350 . S
C805 C281 1.394 . S
C824 C247 1.350 . S
C841 C107 1.522 . S
C860 C33 1.519 . S
C877 C5 1.520 . S
C896 C67 1.514 . S
C913 C101 1.524 . S
C932 C39 1.508 . S
C949 C135 1.524 . S
C968 C73 1.508 . S
C985 C175 1.522 . S
C1004 C169 1.519 . S
C1021 C209 1.522 . S
C1040 C203 1.519 . S
C1057 C243 1.520 . S
C1076 C237 1.514 . S
C1093 C141 1.523 . S
C1112 C271 1.530 . S
C1129 C379 1.521 . S
C1148 C305 1.527 . S
C1165 C339 1.526 . S
C1184 C277 1.528 . S
C1201 C311 1.520 . S
C1220 C373 1.514 . S
C1237 C345 1.523 . S
C1256 C407 1.529 . S
C1273 C447 1.519 . S
C1292 C441 1.516 . S
C1309 C481 1.523 . S
C1328 C475 1.530 . S
C1345 C515 1.521 . S
C1364 C509 1.528 . S
C1381 C413 1.522 . S
C1400 C543 1.518 . S
C1417 C206 1.339 . S
C1436 C2 1.347 . S
C1453 C240 1.343 . S
C1472 C36 1.326 . S
C1489 C70 1.343 . S
C1508 C138 1.328 . S
C1525 C172 1.340 . S
C1544 C104 1.326 . S
C1561 C88 1.476 . S
C1580 C156 1.481 . S
C1597 C190 1.477 . S
C1616 C122 1.484 . S
C1633 C20 1.476 . S
C1652 C224 1.479 . S
C1669 C258 1.481 . S
C1688 C54 1.468 . S
C1705 C478 1.341 . S
C1724 C274 1.353 . S
C1741 C512 1.343 . S
C1760 C308 1.351 . S
C1777 C410 1.341 . S
C1796 C342 1.353 . S
C1813 C376 1.338 . S
C1832 C444 1.339 . S
C1849 C428 1.479 . S
C1868 C360 1.487 . S
C1885 C394 1.480 . S
C1904 C462 1.484 . S
C1921 C292 1.481 . S
C1940 C496 1.468 . S
C1957 C530 1.478 . S
C1976 C326 1.488 . S
