# Generated by pormake.
# Topology twf-e, (6)-cn, num edge types: 1
# Building blocks:
#     Node 0, Type 0, BuildingBlock: CUKXOW_clean_sbu_0, # of connection points: 6
#     Node 1, Type 0, BuildingBlock: CUKXOW_clean_sbu_0, # of connection points: 6
#     Node 2, Type 0, BuildingBlock: CUKXOW_clean_sbu_0, # of connection points: 6
#     Node 3, Type 0, BuildingBlock: CUKXOW_clean_sbu_0, # of connection points: 6
#     Node 4, Type 0, BuildingBlock: CUKXOW_clean_sbu_0, # of connection points: 6
#     Node 5, Type 0, BuildingBlock: CUKXOW_clean_sbu_0, # of connection points: 6
#     Node 6, Type 0, BuildingBlock: CUKXOW_clean_sbu_0, # of connection points: 6
#     Node 7, Type 0, BuildingBlock: CUKXOW_clean_sbu_0, # of connection points: 6
#     Node 8, Type 0, BuildingBlock: CUKXOW_clean_sbu_0, # of connection points: 6
#     Node 9, Type 0, BuildingBlock: CUKXOW_clean_sbu_0, # of connection points: 6
#     Node 10, Type 0, BuildingBlock: CUKXOW_clean_sbu_0, # of connection points: 6
#     Node 11, Type 0, BuildingBlock: CUKXOW_clean_sbu_0, # of connection points: 6
#     Node 12, Type 0, BuildingBlock: CUKXOW_clean_sbu_0, # of connection points: 6
#     Node 13, Type 0, BuildingBlock: CUKXOW_clean_sbu_0, # of connection points: 6
#     Node 14, Type 0, BuildingBlock: CUKXOW_clean_sbu_0, # of connection points: 6
#     Node 15, Type 0, BuildingBlock: CUKXOW_clean_sbu_0, # of connection points: 6
#     Node 16, Type 0, BuildingBlock: CUKXOW_clean_sbu_0, # of connection points: 6
#     Node 17, Type 0, BuildingBlock: CUKXOW_clean_sbu_0, # of connection points: 6
#     Node 18, Type 0, BuildingBlock: CUKXOW_clean_sbu_0, # of connection points: 6
#     Node 19, Type 0, BuildingBlock: CUKXOW_clean_sbu_0, # of connection points: 6
#     Node 20, Type 0, BuildingBlock: CUKXOW_clean_sbu_0, # of connection points: 6
#     Node 21, Type 0, BuildingBlock: CUKXOW_clean_sbu_0, # of connection points: 6
#     Node 22, Type 0, BuildingBlock: CUKXOW_clean_sbu_0, # of connection points: 6
#     Node 23, Type 0, BuildingBlock: CUKXOW_clean_sbu_0, # of connection points: 6
#     Node 24, Type 0, BuildingBlock: CUKXOW_clean_sbu_0, # of connection points: 6
#     Node 25, Type 0, BuildingBlock: CUKXOW_clean_sbu_0, # of connection points: 6
#     Node 26, Type 0, BuildingBlock: CUKXOW_clean_sbu_0, # of connection points: 6
#     Node 27, Type 0, BuildingBlock: CUKXOW_clean_sbu_0, # of connection points: 6
#     Node 28, Type 0, BuildingBlock: CUKXOW_clean_sbu_0, # of connection points: 6
#     Node 29, Type 0, BuildingBlock: CUKXOW_clean_sbu_0, # of connection points: 6
#     Node 30, Type 0, BuildingBlock: CUKXOW_clean_sbu_0, # of connection points: 6
#     Node 31, Type 0, BuildingBlock: CUKXOW_clean_sbu_0, # of connection points: 6
#     Node 32, Type 0, BuildingBlock: CUKXOW_clean_sbu_0, # of connection points: 6
#     Node 33, Type 0, BuildingBlock: CUKXOW_clean_sbu_0, # of connection points: 6
#     Node 34, Type 0, BuildingBlock: CUKXOW_clean_sbu_0, # of connection points: 6
#     Node 35, Type 0, BuildingBlock: CUKXOW_clean_sbu_0, # of connection points: 6
#     Node 36, Type 0, BuildingBlock: CUKXOW_clean_sbu_0, # of connection points: 6
#     Node 37, Type 0, BuildingBlock: CUKXOW_clean_sbu_0, # of connection points: 6
#     Node 38, Type 0, BuildingBlock: CUKXOW_clean_sbu_0, # of connection points: 6
#     Node 39, Type 0, BuildingBlock: CUKXOW_clean_sbu_0, # of connection points: 6
#     Node 40, Type 0, BuildingBlock: CUKXOW_clean_sbu_0, # of connection points: 6
#     Node 41, Type 0, BuildingBlock: CUKXOW_clean_sbu_0, # of connection points: 6
#     Node 42, Type 0, BuildingBlock: CUKXOW_clean_sbu_0, # of connection points: 6
#     Node 43, Type 0, BuildingBlock: CUKXOW_clean_sbu_0, # of connection points: 6
#     Node 44, Type 0, BuildingBlock: CUKXOW_clean_sbu_0, # of connection points: 6
#     Node 45, Type 0, BuildingBlock: CUKXOW_clean_sbu_0, # of connection points: 6
#     Node 46, Type 0, BuildingBlock: CUKXOW_clean_sbu_0, # of connection points: 6
#     Node 47, Type 0, BuildingBlock: CUKXOW_clean_sbu_0, # of connection points: 6
#     Edge 48, Type (0, 0), None
#     Edge 49, Type (0, 0), None
#     Edge 50, Type (0, 0), None
#     Edge 51, Type (0, 0), None
#     Edge 52, Type (0, 0), None
#     Edge 53, Type (0, 0), None
#     Edge 54, Type (0, 0), None
#     Edge 55, Type (0, 0), None
#     Edge 56, Type (0, 0), None
#     Edge 57, Type (0, 0), None
#     Edge 58, Type (0, 0), None
#     Edge 59, Type (0, 0), None
#     Edge 60, Type (0, 0), None
#     Edge 61, Type (0, 0), None
#     Edge 62, Type (0, 0), None
#     Edge 63, Type (0, 0), None
#     Edge 64, Type (0, 0), None
#     Edge 65, Type (0, 0), None
#     Edge 66, Type (0, 0), None
#     Edge 67, Type (0, 0), None
#     Edge 68, Type (0, 0), None
#     Edge 69, Type (0, 0), None
#     Edge 70, Type (0, 0), None
#     Edge 71, Type (0, 0), None
#     Edge 72, Type (0, 0), None
#     Edge 73, Type (0, 0), None
#     Edge 74, Type (0, 0), None
#     Edge 75, Type (0, 0), None
#     Edge 76, Type (0, 0), None
#     Edge 77, Type (0, 0), None
#     Edge 78, Type (0, 0), None
#     Edge 79, Type (0, 0), None
#     Edge 80, Type (0, 0), None
#     Edge 81, Type (0, 0), None
#     Edge 82, Type (0, 0), None
#     Edge 83, Type (0, 0), None
#     Edge 84, Type (0, 0), None
#     Edge 85, Type (0, 0), None
#     Edge 86, Type (0, 0), None
#     Edge 87, Type (0, 0), None
#     Edge 88, Type (0, 0), None
#     Edge 89, Type (0, 0), None
#     Edge 90, Type (0, 0), None
#     Edge 91, Type (0, 0), None
#     Edge 92, Type (0, 0), None
#     Edge 93, Type (0, 0), None
#     Edge 94, Type (0, 0), None
#     Edge 95, Type (0, 0), None
#     Edge 96, Type (0, 0), None
#     Edge 97, Type (0, 0), None
#     Edge 98, Type (0, 0), None
#     Edge 99, Type (0, 0), None
#     Edge 100, Type (0, 0), None
#     Edge 101, Type (0, 0), None
#     Edge 102, Type (0, 0), None
#     Edge 103, Type (0, 0), None
#     Edge 104, Type (0, 0), None
#     Edge 105, Type (0, 0), None
#     Edge 106, Type (0, 0), None
#     Edge 107, Type (0, 0), None
#     Edge 108, Type (0, 0), None
#     Edge 109, Type (0, 0), None
#     Edge 110, Type (0, 0), None
#     Edge 111, Type (0, 0), None
#     Edge 112, Type (0, 0), None
#     Edge 113, Type (0, 0), None
#     Edge 114, Type (0, 0), None
#     Edge 115, Type (0, 0), None
#     Edge 116, Type (0, 0), None
#     Edge 117, Type (0, 0), None
#     Edge 118, Type (0, 0), None
#     Edge 119, Type (0, 0), None
#     Edge 120, Type (0, 0), None
#     Edge 121, Type (0, 0), None
#     Edge 122, Type (0, 0), None
#     Edge 123, Type (0, 0), None
#     Edge 124, Type (0, 0), None
#     Edge 125, Type (0, 0), None
#     Edge 126, Type (0, 0), None
#     Edge 127, Type (0, 0), None
#     Edge 128, Type (0, 0), None
#     Edge 129, Type (0, 0), None
#     Edge 130, Type (0, 0), None
#     Edge 131, Type (0, 0), None
#     Edge 132, Type (0, 0), None
#     Edge 133, Type (0, 0), None
#     Edge 134, Type (0, 0), None
#     Edge 135, Type (0, 0), None
#     Edge 136, Type (0, 0), None
#     Edge 137, Type (0, 0), None
#     Edge 138, Type (0, 0), None
#     Edge 139, Type (0, 0), None
#     Edge 140, Type (0, 0), None
#     Edge 141, Type (0, 0), None
#     Edge 142, Type (0, 0), None
#     Edge 143, Type (0, 0), None
#     Edge 144, Type (0, 0), None
#     Edge 145, Type (0, 0), None
#     Edge 146, Type (0, 0), None
#     Edge 147, Type (0, 0), None
#     Edge 148, Type (0, 0), None
#     Edge 149, Type (0, 0), None
#     Edge 150, Type (0, 0), None
#     Edge 151, Type (0, 0), None
#     Edge 152, Type (0, 0), None
#     Edge 153, Type (0, 0), None
#     Edge 154, Type (0, 0), None
#     Edge 155, Type (0, 0), None
#     Edge 156, Type (0, 0), None
#     Edge 157, Type (0, 0), None
#     Edge 158, Type (0, 0), None
#     Edge 159, Type (0, 0), None
#     Edge 160, Type (0, 0), None
#     Edge 161, Type (0, 0), None
#     Edge 162, Type (0, 0), None
#     Edge 163, Type (0, 0), None
#     Edge 164, Type (0, 0), None
#     Edge 165, Type (0, 0), None
#     Edge 166, Type (0, 0), None
#     Edge 167, Type (0, 0), None
#     Edge 168, Type (0, 0), None
#     Edge 169, Type (0, 0), None
#     Edge 170, Type (0, 0), None
#     Edge 171, Type (0, 0), None
#     Edge 172, Type (0, 0), None
#     Edge 173, Type (0, 0), None
#     Edge 174, Type (0, 0), None
#     Edge 175, Type (0, 0), None
#     Edge 176, Type (0, 0), None
#     Edge 177, Type (0, 0), None
#     Edge 178, Type (0, 0), None
#     Edge 179, Type (0, 0), None
#     Edge 180, Type (0, 0), None
#     Edge 181, Type (0, 0), None
#     Edge 182, Type (0, 0), None
#     Edge 183, Type (0, 0), None
#     Edge 184, Type (0, 0), None
#     Edge 185, Type (0, 0), None
#     Edge 186, Type (0, 0), None
#     Edge 187, Type (0, 0), None
#     Edge 188, Type (0, 0), None
#     Edge 189, Type (0, 0), None
#     Edge 190, Type (0, 0), None
#     Edge 191, Type (0, 0), None
# Relax obj value: 0.656
# Max RMSD: 0.277
# Mean RMSD: 0.257
data_MOF--net-twf-e--node1-CUKXOW_clean_sbu_0--edge1-none
_symmetry_space_group_name_H-M    P1
_symmetry_Int_Tables_number       1
_symmetry_cell_setting            triclinic
loop_
_symmetry_equiv_pos_as_xyz
'x, y, z'
_cell_length_a     28.158279
_cell_length_b     28.253487
_cell_length_c     28.243447
_cell_angle_alpha  91.503573
_cell_angle_beta   88.503201
_cell_angle_gamma 90.28246
loop_
_atom_site_label
_atom_site_type_symbol
_atom_site_fract_x
_atom_site_fract_y
_atom_site_fract_z
_atom_type_partial_charge
Tb0 Tb 0.07881 0.24316 0.41553 0.0
C1 C 0.05059 0.28658 0.32443 0.0
Tb2 Tb 1.01197 0.2056 0.39904 0.0
O3 O 0.10986 0.19867 0.35748 0.0
O4 O 0.07328 0.16825 0.41242 0.0
O5 O 0.08079 0.29422 0.35817 0.0
C6 C 0.96379 0.14312 0.34708 0.0
O7 O 0.02004 0.25089 0.33234 0.0
C8 C 0.9725 0.27142 0.44065 0.0
C9 C 0.03194 0.21316 0.5125 0.0
O10 O 0.94742 0.18223 0.36541 0.0
O11 O 1.00696 0.13857 0.35945 0.0
O12 O 0.95698 0.22815 0.44415 0.0
O13 O 1.01061 0.27814 0.41594 0.0
O14 O 1.00798 0.18831 0.47925 0.0
O15 O 0.06257 0.24393 0.49421 0.0
C16 C 0.16213 0.27059 0.44373 0.0
O17 O 0.13851 0.23514 0.45967 0.0
O18 O 0.13928 0.28905 0.41 0.0
C19 C 0.10003 0.15957 0.37775 0.0
Tb20 Tb 0.87284 0.04914 0.39116 0.0
C21 C 0.86149 0.03151 0.50637 0.0
Tb22 Tb 0.84072 0.98524 0.40848 0.0
O23 O 0.84908 0.11193 0.42061 0.0
O24 O 0.8002 0.05064 0.40641 0.0
O25 O 0.8836 0.05841 0.47338 0.0
C26 C 0.81509 0.90532 0.44661 0.0
O27 O 0.83382 0.99946 0.48675 0.0
C28 C 0.93036 0.96262 0.38089 0.0
C29 C 0.79021 0.01639 0.319 0.0
O30 O 0.84391 0.93585 0.46418 0.0
O31 O 0.80246 0.91885 0.40534 0.0
O32 O 0.89246 0.94941 0.35901 0.0
O33 O 0.91653 0.99378 0.41006 0.0
O34 O 0.78379 0.988 0.35491 0.0
O35 O 0.83118 0.04018 0.3216 0.0
C36 C 0.93328 0.10328 0.34227 0.0
O37 O 0.8887 0.11012 0.34863 0.0
O38 O 0.94375 0.06432 0.36226 0.0
C39 C 0.80635 0.09547 0.41325 0.0
Tb40 Tb 0.98602 0.84054 0.42054 0.0
C41 C 0.0271 0.79035 0.33162 0.0
Tb42 Tb 0.04971 0.87084 0.41008 0.0
O43 O 0.95952 0.9114 0.43995 0.0
O44 O 0.98985 0.8988 0.37421 0.0
O45 O 0.99054 0.7889 0.36074 0.0
C46 C 0.09721 0.94777 0.38484 0.0
O47 O 0.06023 0.82181 0.34458 0.0
C48 C 0.0872 0.81032 0.46497 0.0
C49 C 1.01059 0.86434 0.51938 0.0
O50 O 0.10974 0.90459 0.37322 0.0
O51 O 0.06067 0.94655 0.41317 0.0
O52 O 0.10528 0.85175 0.45705 0.0
O53 O 0.05016 0.8016 0.44002 0.0
O54 O 0.03558 0.89142 0.48937 0.0
O55 O 0.98631 0.83112 0.49752 0.0
C56 C 0.90072 0.80338 0.4069 0.0
O57 O 0.91217 0.83343 0.44011 0.0
O58 O 0.93626 0.80082 0.3777 0.0
C59 C 0.9644 0.92763 0.39807 0.0
Tb60 Tb 0.22147 0.9918 0.40724 0.0
C61 C 0.27838 1.01211 0.31851 0.0
Tb62 Tb 0.19837 0.05463 0.3871 0.0
O63 O 0.14651 0.99461 0.43002 0.0
O64 O 0.16364 0.99381 0.36034 0.0
O65 O 0.28444 0.99325 0.35948 0.0
C66 C 0.13085 0.11897 0.37626 0.0
O67 O 0.23838 0.03681 0.31743 0.0
C68 C 0.27679 0.09246 0.396 0.0
C69 C 0.20747 0.03099 0.50371 0.0
O70 O 0.16859 0.1144 0.34993 0.0
O71 O 0.13101 0.08789 0.40883 0.0
O72 O 0.24604 0.10784 0.36707 0.0
O73 O 0.26418 0.05611 0.4202 0.0
O74 O 0.19353 0.06228 0.47112 0.0
O75 O 0.22646 0.99277 0.48441 0.0
C76 C 0.24532 0.90112 0.39821 0.0
O77 O 0.21934 0.91995 0.43212 0.0
O78 O 0.24473 0.93063 0.36441 0.0
C79 C 0.13014 0.98632 0.38875 0.0
Tb80 Tb 0.05748 0.82773 0.66596 0.0
C81 C 0.02966 0.77833 0.7536 0.0
Tb82 Tb 0.99556 0.86498 0.68643 0.0
O83 O 0.09367 0.86999 0.72068 0.0
O84 O 0.05774 0.9031 0.6689 0.0
O85 O 0.05108 0.76824 0.71332 0.0
C86 C 0.95076 0.93615 0.73142 0.0
O87 O 1.006 0.81971 0.75362 0.0
C88 C 0.95529 0.79789 0.64265 0.0
C89 C 0.01933 0.86206 0.5735 0.0
O90 O 0.93093 0.89924 0.71222 0.0
O91 O 0.99571 0.93023 0.7288 0.0
O92 O 0.94052 0.84121 0.64089 0.0
O93 O 0.99005 0.79225 0.6695 0.0
O94 O 0.99494 0.88575 0.60787 0.0
O95 O 0.04831 0.83027 0.58896 0.0
C96 C 0.1368 0.78946 0.64235 0.0
O97 O 0.10737 0.80562 0.61265 0.0
O98 O 0.12403 0.80073 0.68518 0.0
C99 C 0.08665 0.90978 0.70131 0.0
Tb100 Tb 0.23759 0.08191 0.65734 0.0
C101 C 0.26956 0.04844 0.7513 0.0
Tb102 Tb 0.19092 1.00599 0.67135 0.0
O103 O 0.19361 0.11231 0.71548 0.0
O104 O 0.16296 0.07252 0.66439 0.0
O105 O 0.28275 0.07632 0.71725 0.0
C106 C 0.12183 0.94752 0.70038 0.0
O107 O 0.23247 0.01855 0.74203 0.0
C108 C 0.26196 0.97715 0.6255 0.0
C109 C 0.20641 0.03925 0.55951 0.0
O110 O 0.1668 0.94113 0.70584 0.0
O111 O 0.11582 0.98702 0.67955 0.0
O112 O 0.22036 0.95818 0.62093 0.0
O113 O 0.26428 1.01031 0.65683 0.0
O114 O 0.18054 1.01244 0.58999 0.0
O115 O 0.23724 0.06863 0.57926 0.0
C116 C 0.27426 0.1633 0.63451 0.0
O117 O 0.23376 0.14722 0.621 0.0
O118 O 0.29287 0.13394 0.66277 0.0
C119 C 0.15352 0.0981 0.69978 0.0
Tb120 Tb 0.97901 0.22205 0.67143 0.0
C121 C 1.00965 0.2704 0.75991 0.0
Tb122 Tb 0.04979 0.1943 0.67988 0.0
O123 O 0.96061 0.17059 0.72665 0.0
O124 O 0.99258 0.1481 0.6658 0.0
O125 O 0.98583 0.28056 0.72278 0.0
C126 C 0.11687 0.13257 0.69508 0.0
O127 O 0.03437 0.22996 0.75398 0.0
C128 C 0.08114 0.27678 0.67934 0.0
C129 C 0.02367 0.20925 0.56879 0.0
O130 O 0.07859 0.13693 0.72111 0.0
O131 O 0.11666 0.16138 0.66034 0.0
O132 O 0.09922 0.24427 0.70448 0.0
O133 O 0.0436 0.26416 0.65675 0.0
O134 O 0.05744 0.19515 0.59813 0.0
O135 O 0.98408 0.22393 0.59134 0.0
C136 C 0.88967 0.24942 0.67108 0.0
O137 O 0.90886 0.21796 0.6425 0.0
O138 O 0.91737 0.25425 0.70625 0.0
C139 C 0.96735 0.13395 0.69946 0.0
Tb140 Tb 0.86449 0.03126 0.68181 0.0
C141 C 0.85921 0.04141 0.56293 0.0
Tb142 Tb 0.8387 0.08014 0.65845 0.0
O143 O 0.83569 0.96448 0.69594 0.0
O144 O 0.79894 1.01379 0.65167 0.0
O145 O 0.88164 0.0191 0.59815 0.0
C146 C 0.81214 0.16344 0.62961 0.0
O147 O 0.82911 0.07127 0.58154 0.0
C148 C 0.92751 0.10188 0.68854 0.0
C149 C 0.77709 0.05958 0.74613 0.0
O150 O 0.84475 0.13729 0.61028 0.0
O151 O 0.79915 0.14514 0.66942 0.0
O152 O 0.91776 0.08717 0.64635 0.0
O153 O 0.88986 0.09634 0.71174 0.0
O154 O 0.77623 0.08535 0.70825 0.0
O155 O 0.81639 0.03512 0.74787 0.0
C156 C 0.93214 0.98127 0.72074 0.0
O157 O 0.89387 0.9959 0.7415 0.0
O158 O 0.93278 0.9953 0.67725 0.0
C159 C 0.79827 0.97448 0.67335 0.0
Tb160 Tb 0.40579 0.06465 0.24353 0.0
C161 C 0.32141 0.01829 0.28474 0.0
Tb162 Tb 0.40224 0.99587 0.20291 0.0
O163 O 0.34473 0.08062 0.20004 0.0
O164 O 0.40727 0.0605 0.16887 0.0
O165 O 0.35662 0.04425 0.29934 0.0
C166 C 0.37666 0.94405 0.12767 0.0
O167 O 0.32903 0.99666 0.24236 0.0
C168 C 0.44996 0.9642 0.26968 0.0
C169 C 0.50846 0.03839 0.21214 0.0
O170 O 0.38068 0.92895 0.17035 0.0
O171 O 0.38553 0.98849 0.12854 0.0
O172 O 0.45415 0.94815 0.22634 0.0
O173 O 0.41853 0.99674 0.27619 0.0
O174 O 0.48143 1.00771 0.18789 0.0
O175 O 0.48499 0.06685 0.24244 0.0
C176 C 0.39319 0.15114 0.28012 0.0
O177 O 0.42646 0.1378 0.25002 0.0
O178 O 0.36384 0.11649 0.28349 0.0
C179 C 0.36907 0.0804 0.16125 0.0
Tb180 Tb 0.99784 0.40905 0.24078 0.0
C181 C 0.04378 0.32354 0.28528 0.0
Tb182 Tb 0.06176 0.40235 0.20709 0.0
O183 O 0.96749 0.43375 0.17642 0.0
O184 O 1.00178 0.36929 0.17564 0.0
O185 O 1.00304 0.3445 0.28262 0.0
C186 C 0.11622 0.37649 0.13349 0.0
O187 O 0.07752 0.34189 0.25719 0.0
C188 C 0.09568 0.46263 0.26495 0.0
C189 C 0.0196 0.50908 0.21619 0.0
O190 O 0.12645 0.37064 0.17748 0.0
O191 O 0.0758 0.39707 0.13194 0.0
O192 O 0.11089 0.45818 0.2214 0.0
O193 O 0.0621 0.43362 0.27641 0.0
O194 O 0.04514 0.4798 0.18753 0.0
O195 O 0.99724 0.48689 0.25068 0.0
C196 C 0.91443 0.39092 0.28298 0.0
O197 O 0.92175 0.41539 0.24564 0.0
O198 O 0.95399 0.37082 0.29131 0.0
C199 C 0.9766 0.39623 0.15176 0.0
Tb200 Tb 0.65979 1.00089 0.22723 0.0
C201 C 0.74923 0.02372 0.28234 0.0
Tb202 Tb 0.67955 0.05907 0.20231 0.0
O203 O 0.63491 0.9906 0.15477 0.0
O204 O 0.70469 0.9941 0.16553 0.0
O205 O 0.70866 1.00166 0.28791 0.0
C206 C 0.69535 0.1121 0.12492 0.0
O207 O 0.74924 0.05012 0.24377 0.0
C208 C 0.64336 0.10805 0.27207 0.0
C209 C 0.56354 0.03309 0.21323 0.0
O210 O 0.71914 0.11467 0.16364 0.0
O211 O 0.66205 0.08107 0.13064 0.0
O212 O 0.6757 0.12435 0.24315 0.0
O213 O 0.6349 0.06389 0.26599 0.0
O214 O 0.59624 0.0622 0.19335 0.0
O215 O 0.58266 0.9991 0.23664 0.0
C216 C 0.6694 0.91139 0.25106 0.0
O217 O 0.63255 0.93017 0.23249 0.0
O218 O 0.70214 0.94311 0.25202 0.0
C219 C 0.67497 0.97855 0.13594 0.0
Tb220 Tb 0.05484 0.66323 0.24069 0.0
C221 C 0.03298 0.75111 0.29244 0.0
Tb222 Tb 1.00286 0.67382 0.20945 0.0
O223 O 0.08782 0.71536 0.19266 0.0
O224 O 0.06189 0.653 0.1655 0.0
O225 O 0.05865 0.71454 0.29955 0.0
C226 C 0.95869 0.71809 0.1422 0.0
O227 O 1.00575 0.74432 0.2546 0.0
C228 C 0.95129 0.6402 0.27349 0.0
C229 C 0.02498 0.56393 0.21702 0.0
O230 O 1.00158 0.72616 0.1539 0.0
O231 O 0.9401 0.68785 0.17064 0.0
O232 O 0.94181 0.63404 0.22914 0.0
O233 O 0.98876 0.66387 0.2818 0.0
O234 O 1.00278 0.59413 0.18988 0.0
O235 O 0.0506 0.58575 0.24853 0.0
C236 C 0.13603 0.64937 0.27554 0.0
O237 O 0.10819 0.61601 0.26097 0.0
O238 O 0.12039 0.69028 0.26474 0.0
C239 C 0.08824 0.68726 0.15604 0.0
Tb240 Tb 0.39413 0.01403 0.83686 0.0
C241 C 0.30606 0.04319 0.79136 0.0
Tb242 Tb 0.37825 0.08044 0.87742 0.0
O243 O 0.33686 0.98877 0.88423 0.0
O244 O 0.39611 0.01823 0.91157 0.0
O245 O 0.3441 0.01894 0.78052 0.0
C246 C 0.34139 0.12561 0.95554 0.0
O247 O 0.31003 0.07088 0.83118 0.0
C248 C 0.41999 0.11857 0.80949 0.0
C249 C 0.49196 0.05382 0.86394 0.0
O250 O 0.35984 0.14481 0.91806 0.0
O251 O 0.33863 0.08122 0.94543 0.0
O252 O 0.42246 0.13542 0.85259 0.0
O253 O 0.39328 0.0824 0.80402 0.0
O254 O 0.4597 0.07879 0.89041 0.0
O255 O 0.47284 0.0236 0.83323 0.0
C256 C 0.39354 0.9251 0.80902 0.0
O257 O 0.42758 0.94665 0.83131 0.0
O258 O 0.36084 0.95503 0.80114 0.0
C259 C 0.36196 0.99179 0.92134 0.0
Tb260 Tb 0.06728 0.39789 0.83776 0.0
C261 C 0.02012 0.31071 0.79663 0.0
Tb262 Tb 0.99531 0.39401 0.87624 0.0
O263 O 0.08592 0.34172 0.88648 0.0
O264 O 0.05904 0.40327 0.91296 0.0
O265 O 0.05092 0.34313 0.78479 0.0
C266 C 0.93689 0.36725 0.94695 0.0
O267 O 0.99394 0.32156 0.83581 0.0
C268 C 0.96815 0.44117 0.80764 0.0
C269 C 0.03687 0.50062 0.86631 0.0
O270 O 0.9247 0.37899 0.90501 0.0
O271 O 0.98243 0.36882 0.94774 0.0
O272 O 0.95002 0.44605 0.85016 0.0
O273 O 1.00014 0.40889 0.80277 0.0
O274 O 1.00647 0.47346 0.89108 0.0
O275 O 0.06628 0.47707 0.83683 0.0
C276 C 0.15387 0.39109 0.7989 0.0
O277 O 0.13926 0.42305 0.82971 0.0
O278 O 0.12057 0.3602 0.79542 0.0
C279 C 0.08077 0.36723 0.92443 0.0
Tb280 Tb 0.65071 0.10116 0.83421 0.0
C281 C 0.73407 0.05785 0.78138 0.0
Tb282 Tb 0.65884 0.03002 0.86675 0.0
O283 O 0.71721 0.11151 0.8745 0.0
O284 O 0.65656 0.09105 0.90745 0.0
O285 O 0.69748 0.08313 0.77204 0.0
C286 C 0.69449 0.98303 0.93557 0.0
O287 O 0.72968 0.03457 0.82219 0.0
C288 C 0.61266 0.99154 0.80449 0.0
C289 C 0.54805 0.06171 0.86499 0.0
O290 O 0.70239 0.97275 0.89109 0.0
O291 O 0.66525 0.01746 0.94087 0.0
O292 O 0.61579 0.97445 0.84643 0.0
O293 O 0.63468 0.03162 0.79647 0.0
O294 O 0.5781 0.03137 0.88396 0.0
O295 O 0.5695 0.09544 0.84054 0.0
C296 C 0.64872 0.14592 0.82067 0.0
O297 O 0.61614 0.16857 0.84723 0.0
O298 O 0.68962 0.16733 0.81683 0.0
C299 C 0.69667 0.10757 0.915 0.0
Tb300 Tb 1.00194 0.65259 0.84754 0.0
C301 C 0.0273 0.74007 0.79236 0.0
Tb302 Tb 0.0566 0.67087 0.8713 0.0
O303 O 0.98692 0.63067 0.92035 0.0
O304 O 0.99354 0.70032 0.90718 0.0
O305 O 1.007 0.69894 0.78487 0.0
C306 C 0.10857 0.6844 0.94793 0.0
O307 O 0.05012 0.74079 0.83271 0.0
C308 C 0.1079 0.63799 0.8016 0.0
C309 C 0.0312 0.55577 0.86429 0.0
O310 O 0.11307 0.70809 0.90954 0.0
O311 O 0.07631 0.6526 0.94215 0.0
O312 O 0.12156 0.67243 0.82936 0.0
O313 O 0.06485 0.62524 0.80935 0.0
O314 O 0.06055 0.58864 0.88306 0.0
O315 O 0.99761 0.57506 0.8403 0.0
C316 C 0.91253 0.66475 0.82412 0.0
O317 O 0.93029 0.62797 0.84355 0.0
O318 O 0.94564 0.69596 0.82111 0.0
C319 C 0.97643 0.67206 0.93713 0.0
Tb320 Tb 0.23927 0.41459 0.079 0.0
C321 C 0.27373 0.31662 0.05455 0.0
Tb322 Tb 0.19475 0.38821 1.01239 0.0
O323 O 0.16805 0.43328 0.10325 0.0
O324 O 0.1815 0.36497 0.08045 0.0
O325 O 0.28704 0.35532 0.07635 0.0
C326 C 0.11803 0.36987 0.95958 0.0
O327 O 0.2333 0.31895 0.03008 0.0
C328 C 0.27567 0.39459 0.97552 0.0
C329 C 0.21492 0.5066 0.03893 0.0
O330 O 0.15972 0.35187 0.95302 0.0
O331 O 0.11949 0.39933 0.99535 0.0
O332 O 0.24473 0.36449 0.96004 0.0
O333 O 0.25885 0.4242 1.00623 0.0
O334 O 0.18852 0.473 0.01515 0.0
O335 O 0.24786 0.4891 0.06482 0.0
C336 C 0.27854 0.43458 0.15907 0.0
O337 O 0.23736 0.44857 0.14727 0.0
O338 O 0.29456 0.40385 0.12819 0.0
C339 C 0.15179 0.39099 0.10076 0.0
Tb340 Tb 0.23667 0.6569 0.99545 0.0
C341 C 0.27766 0.75454 0.01491 0.0
Tb342 Tb 0.20004 0.67967 0.05845 0.0
O343 O 0.16454 0.63411 0.97972 0.0
O344 O 0.17703 0.70424 0.99343 0.0
O345 O 0.28681 0.71621 0.98973 0.0
C346 C 0.124 0.68829 0.11779 0.0
O347 O 0.23949 0.75044 0.04422 0.0
C348 C 0.27942 0.67555 0.09599 0.0
C349 C 0.21513 0.5623 0.03217 0.0
O350 O 0.16078 0.71564 0.11725 0.0
O351 O 0.12957 0.65629 0.08482 0.0
O352 O 0.24668 0.70427 0.11135 0.0
O353 O 0.26586 0.64615 0.06396 0.0
O354 O 0.19143 0.59561 0.05915 0.0
O355 O 0.24665 0.58099 1.00374 0.0
C356 C 0.2774 0.6339 0.9152 0.0
O357 O 0.23804 0.61634 0.93054 0.0
O358 O 0.2875 0.67139 0.9399 0.0
C359 C 0.14702 0.67558 0.97841 0.0
Tb360 Tb 0.39805 0.2242 0.01453 0.0
C361 C 0.31085 0.27719 0.04972 0.0
Tb362 Tb 0.38124 0.19851 0.08198 0.0
O363 O 0.4046 0.14775 1.00216 0.0
O364 O 0.34191 0.17531 0.02291 0.0
O365 O 0.35029 0.28485 0.02546 0.0
C366 C 0.3688 0.12047 0.13087 0.0
O367 O 0.31188 0.23872 0.07577 0.0
C368 C 0.40858 0.27645 0.1172 0.0
C369 C 0.49549 0.20016 0.04584 0.0
O370 O 0.35006 0.16115 0.14213 0.0
O371 O 0.39684 0.12447 0.09444 0.0
O372 O 0.37775 0.24925 0.13818 0.0
O373 O 0.4249 0.26027 0.07734 0.0
O374 O 0.46356 0.1864 0.07932 0.0
O375 O 0.47622 0.22157 1.01048 0.0
C376 C 0.38402 0.24968 0.92602 0.0
O377 O 0.42108 0.2285 0.94159 0.0
O378 O 0.35382 0.25286 0.96066 0.0
C379 C 0.35942 0.14043 1.00136 0.0
Tb380 Tb 0.82436 0.41457 1.01147 0.0
C381 C 0.77139 0.33072 0.04878 0.0
Tb382 Tb 0.86116 0.39998 0.07242 0.0
O383 O 0.89641 0.42921 0.98612 0.0
O384 O 0.87981 0.3634 1.00975 0.0
O385 O 0.76234 0.36918 0.02617 0.0
C386 C 0.9441 0.38328 0.11482 0.0
O387 O 0.8136 0.3324 0.06984 0.0
C388 C 0.80249 0.43922 0.12486 0.0
C389 C 0.85123 0.51375 0.03931 0.0
O390 O 0.90321 0.36451 0.12529 0.0
O391 O 0.93718 0.4125 0.08119 0.0
O392 O 0.83097 0.40769 0.14058 0.0
O393 O 0.80084 0.44405 0.07996 0.0
O394 O 0.87633 0.483 0.06514 0.0
O395 O 0.82074 0.49194 1.0118 0.0
C396 C 0.79005 0.39385 0.92641 0.0
O397 O 0.80922 0.43375 0.9402 0.0
O398 O 0.79094 0.36597 0.96144 0.0
C399 C 0.91015 0.38599 0.98684 0.0
Tb400 Tb 0.68223 0.87781 0.02541 0.0
C401 C 0.56591 0.85807 0.03497 0.0
Tb402 Tb 0.65832 0.84006 0.08407 0.0
O403 O 0.70619 0.83342 0.96842 0.0
O404 O 0.64821 0.81218 0.01456 0.0
O405 O 0.59905 0.88762 0.01648 0.0
C406 C 0.61646 0.80919 0.16217 0.0
O407 O 0.5853 0.82631 0.06116 0.0
C408 C 0.67345 0.93211 0.1092 0.0
C409 C 0.75508 0.79738 0.04721 0.0
O410 O 0.59901 0.83797 0.13336 0.0
O411 O 0.65958 0.79855 0.14801 0.0
O412 O 0.63347 0.91206 0.10157 0.0
O413 O 0.7041 0.90292 0.09373 0.0
O414 O 0.71715 0.78658 0.07359 0.0
O415 O 0.75333 0.84061 0.02988 0.0
C416 C 0.70028 0.95089 0.97225 0.0
O417 O 0.71752 0.90949 0.96489 0.0
O418 O 0.67256 0.95148 1.00919 0.0
C419 C 0.67699 0.80047 0.98095 0.0
Tb420 Tb 0.87267 0.68547 0.04442 0.0
C421 C 0.85253 0.57028 0.03852 0.0
Tb422 Tb 0.83921 0.66416 0.99405 0.0
O423 O 0.84127 0.70147 0.11152 0.0
O424 O 0.80376 0.65747 0.06114 0.0
O425 O 0.88294 0.60267 0.05664 0.0
C426 C 0.80989 0.62188 0.9156 0.0
O427 O 0.82132 0.59105 0.01303 0.0
C428 C 0.93312 0.67551 0.96863 0.0
C429 C 0.79318 0.75939 0.03079 0.0
O430 O 0.83968 0.6057 0.94412 0.0
O431 O 0.79817 0.66458 0.92961 0.0
O432 O 0.91316 0.63772 0.98322 0.0
O433 O 0.9019 0.70653 0.97664 0.0
O434 O 0.78456 0.72303 1.00166 0.0
O435 O 0.83485 0.75586 0.05011 0.0
C436 C 0.9461 0.71446 0.09403 0.0
O437 O 0.91232 0.74063 0.08052 0.0
O438 O 0.93998 0.67212 0.07635 0.0
C439 C 0.80297 0.67896 0.10122 0.0
Tb440 Tb 0.41114 0.82813 0.06502 0.0
C441 C 0.31857 0.79144 0.02148 0.0
Tb442 Tb 0.39714 0.87544 0.99519 0.0
O443 O 0.43458 0.89518 0.09484 0.0
O444 O 0.37029 0.89076 0.06319 0.0
O445 O 0.35097 0.78087 0.052 0.0
C446 C 0.36878 0.95125 0.95062 0.0
O447 O 0.32877 0.82856 0.99334 0.0
C448 C 0.44501 0.80871 0.96089 0.0
C449 C 0.50945 0.85622 0.03064 0.0
O450 O 0.35911 0.90781 0.9379 0.0
O451 O 0.39599 0.9518 0.98674 0.0
O452 O 0.44813 0.85073 0.94373 0.0
O453 O 0.41349 0.80359 0.99294 0.0
O454 O 0.47945 0.88772 1.01089 0.0
O455 O 0.4876 0.82063 0.05161 0.0
C456 C 0.39141 0.7921 0.14815 0.0
O457 O 0.43235 0.8082 0.13352 0.0
O458 O 0.36198 0.79518 0.11458 0.0
C459 C 0.39537 0.91637 0.08879 0.0
Tb460 Tb 0.65167 0.23042 0.08988 0.0
C461 C 0.73312 0.29026 0.05187 0.0
Tb462 Tb 0.66126 0.20527 0.01364 0.0
O463 O 0.71753 0.18705 0.0927 0.0
O464 O 0.65709 0.15795 0.0695 0.0
O465 O 0.69753 0.29471 0.08193 0.0
C466 C 0.70088 0.1428 0.95199 0.0
O467 O 0.72882 0.25302 0.02139 0.0
C468 C 0.60732 0.26981 0.98827 0.0
C469 C 0.55113 0.19936 0.05101 0.0
O470 O 0.69542 0.18758 0.94474 0.0
O471 O 0.68334 0.13405 0.99311 0.0
O472 O 0.61208 0.22937 0.9659 0.0
O473 O 0.63253 0.27457 0.02673 0.0
O474 O 0.58171 0.18478 0.0165 0.0
O475 O 0.57122 0.22078 0.08734 0.0
C476 C 0.6481 0.23988 0.13635 0.0
O477 O 0.62007 0.2085 0.15705 0.0
O478 O 0.68871 0.24745 0.15647 0.0
C479 C 0.69539 0.14753 0.08771 0.0
Tb480 Tb 0.57871 0.74006 0.91918 0.0
C481 C 0.54932 0.78668 0.82999 0.0
Tb482 Tb 0.5119 0.70397 0.90347 0.0
O483 O 0.60869 0.69425 0.86184 0.0
O484 O 0.5722 0.66488 0.91762 0.0
O485 O 0.58116 0.79202 0.86256 0.0
C486 C 0.46429 0.64322 0.84868 0.0
O487 O 0.5174 0.75233 0.83862 0.0
C488 C 0.47298 0.77068 0.94419 0.0
C489 C 0.53414 0.71101 0.01628 0.0
O490 O 0.44608 0.67246 0.88001 0.0
O491 O 0.50965 0.64711 0.84942 0.0
O492 O 0.45641 0.72779 0.94742 0.0
O493 O 0.51133 0.77659 0.91974 0.0
O494 O 0.51058 0.6854 0.98332 0.0
O495 O 0.56337 0.74264 0.99764 0.0
C496 C 0.66202 0.76672 0.94811 0.0
O497 O 0.63688 0.73304 0.96552 0.0
O498 O 0.64103 0.78344 0.91227 0.0
C499 C 0.59893 0.65558 0.88301 0.0
Tb500 Tb 0.37671 0.54821 0.88818 0.0
C501 C 0.36533 0.53256 1.00406 0.0
Tb502 Tb 0.34121 0.48816 0.90679 0.0
O503 O 0.35831 0.61421 0.91486 0.0
O504 O 0.30495 0.55622 0.90543 0.0
O505 O 0.38794 0.55835 0.97048 0.0
C506 C 0.31191 0.40994 0.94497 0.0
O507 O 0.33608 0.50175 0.98504 0.0
C508 C 0.42828 0.45862 0.8768 0.0
C509 C 0.28947 0.51844 0.81896 0.0
O510 O 0.34113 0.43965 0.96333 0.0
O511 O 0.30046 0.42347 0.90335 0.0
O512 O 0.38889 0.44876 0.85595 0.0
O513 O 0.41749 0.49061 0.90611 0.0
O514 O 0.28227 0.49211 0.85612 0.0
O515 O 0.33223 0.53948 0.81967 0.0
C516 C 0.44103 0.59921 0.83952 0.0
O517 O 0.39584 0.60039 0.8357 0.0
O518 O 0.44979 0.56563 0.86799 0.0
C519 C 0.31433 0.60066 0.91014 0.0
Tb520 Tb 0.47963 0.33354 0.91654 0.0
C521 C 0.52296 0.28685 0.8272 0.0
Tb522 Tb 0.54579 0.36706 0.90719 0.0
O523 O 0.44999 0.40304 0.93523 0.0
O524 O 0.48553 0.39295 0.87129 0.0
O525 O 0.48495 0.28573 0.85427 0.0
C526 C 0.59601 0.44321 0.88317 0.0
O527 O 0.55654 0.31713 0.84213 0.0
C528 C 0.58082 0.30689 0.96388 0.0
C529 C 0.50391 0.35886 0.01526 0.0
O530 O 0.60811 0.39964 0.87291 0.0
O531 O 0.55748 0.44292 0.90881 0.0
O532 O 0.59803 0.34897 0.95793 0.0
O533 O 0.54579 0.2975 0.93623 0.0
O534 O 0.52755 0.38759 0.98571 0.0
O535 O 0.48186 0.3242 0.9932 0.0
C536 C 0.39547 0.29243 0.90439 0.0
O537 O 0.40579 0.32442 0.93617 0.0
O538 O 0.43155 0.28935 0.87578 0.0
C539 C 0.45841 0.4207 0.89447 0.0
Tb540 Tb 0.72133 0.48818 0.90856 0.0
C541 C 0.77632 0.50901 0.81891 0.0
Tb542 Tb 0.69741 0.55033 0.88977 0.0
O543 O 0.64599 0.48825 0.93079 0.0
O544 O 0.6636 0.4896 0.86128 0.0
O545 O 0.78292 0.48874 0.85909 0.0
C546 C 0.62931 0.61458 0.88083 0.0
O547 O 0.73672 0.53441 0.81938 0.0
C548 C 0.77547 0.58946 0.89815 0.0
C549 C 0.70844 0.52574 1.00578 0.0
O550 O 0.66669 0.61032 0.85397 0.0
O551 O 0.62992 0.58297 0.91291 0.0
O552 O 0.74425 0.60422 0.8694 0.0
O553 O 0.76355 0.55284 0.9223 0.0
O554 O 0.69345 0.55708 0.97379 0.0
O555 O 0.72737 0.48799 0.98565 0.0
C556 C 0.7468 0.39798 0.90272 0.0
O557 O 0.71704 0.41645 0.93336 0.0
O558 O 0.75017 0.42733 0.86885 0.0
C559 C 0.62994 0.48097 0.88916 0.0
Tb560 Tb 0.54439 0.32483 0.16235 0.0
C561 C 0.52457 0.27558 0.24844 0.0
Tb562 Tb 0.49622 0.3651 0.18255 0.0
O563 O 0.58458 0.36744 0.21541 0.0
O564 O 0.55893 0.39849 0.15718 0.0
O565 O 0.53655 0.26273 0.20559 0.0
C566 C 0.46006 0.44096 0.23011 0.0
O567 O 0.50966 0.32081 0.25068 0.0
C568 C 0.43705 0.30863 0.14481 0.0
C569 C 0.51254 0.35621 0.06921 0.0
O570 O 0.43703 0.40378 0.21606 0.0
O571 O 0.50376 0.43322 0.22033 0.0
O572 O 0.43243 0.35415 0.144 0.0
O573 O 0.47353 0.29516 0.16613 0.0
O574 O 0.49488 0.38503 0.10354 0.0
O575 O 0.53513 0.32033 0.08563 0.0
C576 C 0.62365 0.28398 0.145 0.0
O577 O 0.59744 0.30109 0.11278 0.0
O578 O 0.60607 0.29204 0.18687 0.0
C579 C 0.5876 0.40426 0.18966 0.0
Tb580 Tb 0.73927 0.57804 0.15904 0.0
C581 C 0.77622 0.5428 0.25081 0.0
Tb582 Tb 0.69674 0.50014 0.17476 0.0
O583 O 0.69698 0.60567 0.21977 0.0
O584 O 0.66515 0.56596 0.16957 0.0
O585 O 0.79042 0.56552 0.21329 0.0
C586 C 0.62815 0.4361 0.18753 0.0
O587 O 0.73556 0.51709 0.24593 0.0
C588 C 0.77954 0.4731 0.15582 0.0
C589 C 0.70826 0.53343 0.06169 0.0
O590 O 0.63521 0.47257 0.21519 0.0
O591 O 0.65936 0.43561 0.15327 0.0
O592 O 0.75476 0.45637 0.19086 0.0
O593 O 0.76015 0.50782 0.13636 0.0
O594 O 0.69078 0.50114 0.09253 0.0
O595 O 0.7319 0.56948 0.08082 0.0
C596 C 0.77366 0.66063 0.1369 0.0
O597 O 0.73298 0.64418 0.12432 0.0
O598 O 0.79374 0.631 0.16393 0.0
C599 C 0.65637 0.59186 0.20499 0.0
Tb600 Tb 0.4823 0.7222 0.17466 0.0
C601 C 0.51471 0.7691 0.26315 0.0
Tb602 Tb 0.55551 0.69181 0.18356 0.0
O603 O 0.46325 0.67067 0.2293 0.0
O604 O 0.4966 0.64864 0.1689 0.0
O605 O 0.49084 0.77973 0.22622 0.0
C606 C 0.62067 0.62768 0.19974 0.0
O607 O 0.53934 0.72843 0.25727 0.0
C608 C 0.58549 0.77485 0.18239 0.0
C609 C 0.52668 0.70734 0.0725 0.0
O610 O 0.58164 0.63273 0.22454 0.0
O611 O 0.62237 0.65747 0.16571 0.0
O612 O 0.60445 0.74269 0.20737 0.0
O613 O 0.54845 0.76131 0.15961 0.0
O614 O 0.56056 0.69218 0.10145 0.0
O615 O 0.48783 0.72382 0.09503 0.0
C616 C 0.39336 0.75054 0.17372 0.0
O617 O 0.41232 0.71872 0.14542 0.0
O618 O 0.42133 0.75636 0.2086 0.0
C619 C 0.47049 0.63441 0.20175 0.0
Tb620 Tb 0.37099 0.53224 0.17923 0.0
C621 C 0.36379 0.54255 0.06058 0.0
Tb622 Tb 0.34301 0.57984 0.15632 0.0
O623 O 0.35001 0.46203 0.18856 0.0
O624 O 0.30563 0.51181 0.15156 0.0
O625 O 0.38882 0.52246 0.09536 0.0
C626 C 0.31597 0.66224 0.12598 0.0
O627 O 0.33141 0.56945 0.0799 0.0
C628 C 0.43031 0.60418 0.18842 0.0
C629 C 0.2815 0.55902 0.24297 0.0
O630 O 0.34773 0.63539 0.10613 0.0
O631 O 0.30318 0.64472 0.16626 0.0
O632 O 0.42196 0.58995 0.14572 0.0
O633 O 0.39252 0.5976 0.21081 0.0
O634 O 0.28055 0.58544 0.20565 0.0
O635 O 0.32081 0.53427 0.24416 0.0
C636 C 0.44071 0.48619 0.22032 0.0
O637 O 0.40083 0.49839 0.23971 0.0
O638 O 0.44178 0.50086 0.17702 0.0
C639 C 0.31019 0.47104 0.16977 0.0
Tb640 Tb 0.90206 0.56587 0.74424 0.0
C641 C 0.81886 0.51622 0.78481 0.0
Tb642 Tb 0.8992 0.49498 0.70168 0.0
O643 O 0.83897 0.5824 0.70379 0.0
O644 O 0.89934 0.56046 0.66971 0.0
O645 O 0.8534 0.54321 0.79941 0.0
C646 C 0.87558 0.44354 0.62569 0.0
O647 O 0.82663 0.49453 0.74235 0.0
C648 C 0.9472 0.46523 0.76885 0.0
C649 C 1.00536 0.53895 0.71207 0.0
O650 O 0.87669 0.42855 0.6687 0.0
O651 O 0.88673 0.48755 0.62651 0.0
O652 O 0.95198 0.44877 0.7257 0.0
O653 O 0.91506 0.49711 0.77492 0.0
O654 O 0.97856 0.50822 0.68746 0.0
O655 O 0.98156 0.56737 0.7423 0.0
C656 C 0.89092 0.65198 0.78182 0.0
O657 O 0.923 0.639 0.7503 0.0
O658 O 0.86194 0.61716 0.78665 0.0
C659 C 0.86019 0.57935 0.66341 0.0
Tb660 Tb 0.49748 0.90372 0.74117 0.0
C661 C 0.54214 0.82558 0.79281 0.0
Tb662 Tb 0.56512 0.90086 0.70851 0.0
O663 O 0.4815 0.84327 0.6932 0.0
O664 O 0.50509 0.90482 0.66619 0.0
O665 O 0.50723 0.85502 0.79867 0.0
C666 C 0.62562 0.86657 0.6427 0.0
O667 O 0.57078 0.83499 0.75554 0.0
C668 C 0.59189 0.96099 0.76894 0.0
C669 C 0.518 1.00458 0.71053 0.0
O670 O 0.6366 0.88963 0.68102 0.0
O671 O 0.58051 0.86023 0.64348 0.0
O672 O 0.60949 0.95899 0.72605 0.0
O673 O 0.56104 0.92832 0.77864 0.0
O674 O 0.54889 0.97663 0.68632 0.0
O675 O 0.49141 0.9821 0.74203 0.0
C676 C 0.40891 0.89645 0.77131 0.0
O677 O 0.42439 0.92342 0.73788 0.0
O678 O 0.44285 0.86906 0.78244 0.0
C679 C 0.48348 0.86775 0.65548 0.0
Tb680 Tb 0.15737 0.50033 0.72929 0.0
C681 C 0.24804 0.52509 0.78236 0.0
Tb682 Tb 0.17684 0.55914 0.70256 0.0
O683 O 0.13097 0.48616 0.65832 0.0
O684 O 0.20149 0.49382 0.66659 0.0
O685 O 0.2076 0.50294 0.78893 0.0
C686 C 0.19332 0.61167 0.62493 0.0
O687 O 0.24732 0.55074 0.74325 0.0
C688 C 0.14107 0.60771 0.773 0.0
C689 C 0.06074 0.53375 0.71372 0.0
O690 O 0.21708 0.61395 0.66364 0.0
O691 O 0.15946 0.5812 0.6307 0.0
O692 O 0.17329 0.62409 0.74404 0.0
O693 O 0.13219 0.56376 0.76645 0.0
O694 O 0.09366 0.56175 0.69249 0.0
O695 O 0.07987 0.50092 0.73889 0.0
C696 C 0.16672 0.4116 0.75582 0.0
O697 O 0.13036 0.42963 0.73579 0.0
O698 O 0.19907 0.44365 0.75744 0.0
C699 C 0.17116 0.47674 0.6384 0.0
Tb700 Tb 0.55168 0.1595 0.73624 0.0
C701 C 0.52922 0.24806 0.78774 0.0
Tb702 Tb 0.49971 0.16929 0.7068 0.0
O703 O 0.58477 0.21142 0.68829 0.0
O704 O 0.55822 0.14931 0.66111 0.0
O705 O 0.55652 0.21252 0.79375 0.0
C706 C 0.45722 0.21609 0.64066 0.0
O707 O 0.50042 0.2398 0.75153 0.0
C708 C 0.44825 0.13746 0.77195 0.0
C709 C 0.52238 0.05961 0.71215 0.0
O710 O 0.49895 0.22538 0.65515 0.0
O711 O 0.43857 0.18299 0.66577 0.0
O712 O 0.43749 0.13192 0.72782 0.0
O713 O 0.48691 0.15944 0.77948 0.0
O714 O 0.49771 0.08978 0.68725 0.0
O715 O 0.55009 0.08148 0.7419 0.0
C716 C 0.63214 0.14741 0.77276 0.0
O717 O 0.60489 0.11332 0.7587 0.0
O718 O 0.61697 0.1877 0.75971 0.0
C719 C 0.58471 0.18355 0.65155 0.0
Tb720 Tb 0.89858 0.51216 0.34078 0.0
C721 C 0.8131 0.5388 0.291 0.0
Tb722 Tb 0.88439 0.57668 0.37623 0.0
O723 O 0.83715 0.48992 0.38499 0.0
O724 O 0.89622 0.51596 0.41513 0.0
O725 O 0.85243 0.51629 0.28083 0.0
C726 C 0.85012 0.61994 0.45488 0.0
O727 O 0.81511 0.56483 0.33198 0.0
C728 C 0.92465 0.61794 0.31004 0.0
C729 C 0.99783 0.55231 0.36415 0.0
O730 O 0.84389 0.63423 0.41205 0.0
O731 O 0.87563 0.58267 0.45255 0.0
O732 O 0.92428 0.63493 0.35325 0.0
O733 O 0.90322 0.57842 0.30319 0.0
O734 O 0.96609 0.58129 0.38601 0.0
O735 O 0.97792 0.51761 0.33937 0.0
C736 C 0.89947 0.42134 0.31967 0.0
O737 O 0.93356 0.44543 0.33916 0.0
O738 O 0.86557 0.44977 0.31088 0.0
C739 C 0.86021 0.49161 0.42347 0.0
Tb740 Tb 0.5727 0.89834 0.33673 0.0
C741 C 0.52577 0.80982 0.29912 0.0
Tb742 Tb 0.50195 0.89442 0.37704 0.0
O743 O 0.5937 0.84167 0.38413 0.0
O744 O 0.5666 0.90248 0.41213 0.0
O745 O 0.55446 0.84319 0.28509 0.0
C746 C 0.44578 0.87357 0.45098 0.0
O747 O 0.50127 0.82048 0.33942 0.0
C748 C 0.47203 0.94038 0.30822 0.0
C749 C 0.54125 1.00121 0.36494 0.0
O750 O 0.43336 0.87425 0.40717 0.0
O751 O 0.49056 0.88187 0.45202 0.0
O752 O 0.45499 0.94531 0.3511 0.0
O753 O 0.50468 0.90882 0.30308 0.0
O754 O 0.51124 0.97409 0.38992 0.0
O755 O 0.57103 0.97769 0.33575 0.0
C756 C 0.6576 0.89097 0.29446 0.0
O757 O 0.64456 0.92297 0.32594 0.0
O758 O 0.62388 0.86049 0.29191 0.0
C759 C 0.58818 0.86606 0.42268 0.0
Tb760 Tb 0.15663 0.60053 0.33439 0.0
C761 C 0.23896 0.55754 0.27885 0.0
Tb762 Tb 0.16461 0.52905 0.36358 0.0
O763 O 0.22386 0.60801 0.3738 0.0
O764 O 0.16349 0.58873 0.40707 0.0
O765 O 0.20254 0.58391 0.27106 0.0
C766 C 0.19492 0.48352 0.43584 0.0
O767 O 0.23507 0.53329 0.31903 0.0
C768 C 0.12102 0.49038 0.29974 0.0
C769 C 0.05394 0.55973 0.36405 0.0
O770 O 0.2089 0.47447 0.39236 0.0
O771 O 0.16305 0.5158 0.43788 0.0
O772 O 0.12837 0.47044 0.33971 0.0
O773 O 0.13756 0.53337 0.29403 0.0
O774 O 0.08396 0.52738 0.37919 0.0
O775 O 0.07532 0.59601 0.34341 0.0
C776 C 0.15479 0.64574 0.32233 0.0
O777 O 0.12357 0.66833 0.35052 0.0
O778 O 0.19588 0.66647 0.31696 0.0
C779 C 0.20373 0.60498 0.41463 0.0
Tb780 Tb 0.503 0.15193 0.34573 0.0
C781 C 0.52557 0.23829 0.28822 0.0
Tb782 Tb 0.55763 0.17174 0.3686 0.0
O783 O 0.48812 0.13087 0.41868 0.0
O784 O 0.49452 0.20062 0.4046 0.0
O785 O 0.50696 0.19623 0.28176 0.0
C786 C 0.60755 0.18384 0.44656 0.0
O787 O 0.54828 0.24095 0.32871 0.0
C788 C 0.60971 0.13853 0.30003 0.0
C789 C 0.53439 0.0561 0.36247 0.0
O790 O 0.61316 0.20858 0.40885 0.0
O791 O 0.5757 0.15206 0.43937 0.0
O792 O 0.6229 0.17364 0.32731 0.0
O793 O 0.56654 0.12567 0.30731 0.0
O794 O 0.56327 0.08971 0.38054 0.0
O795 O 0.4997 0.0744 0.33933 0.0
C796 C 0.41327 0.16351 0.32332 0.0
O797 O 0.43152 0.1265 0.34198 0.0
O798 O 0.44576 0.19541 0.32134 0.0
C799 C 0.47754 0.17256 0.43481 0.0
Tb800 Tb 0.73572 0.91038 0.57963 0.0
C801 C 0.77561 0.81348 0.5622 0.0
Tb802 Tb 0.69872 0.88378 0.51542 0.0
O803 O 0.6605 0.92337 0.5956 0.0
O804 O 0.68198 0.85671 0.58178 0.0
O805 O 0.78636 0.85338 0.58355 0.0
C806 C 0.62396 0.86683 0.4594 0.0
O807 O 0.73722 0.81499 0.53479 0.0
C808 C 0.77954 0.88994 0.47816 0.0
C809 C 0.71444 1.00266 0.54014 0.0
O810 O 0.66568 0.84856 0.45409 0.0
O811 O 0.62419 0.89523 0.49603 0.0
O812 O 0.74891 0.85891 0.46393 0.0
O813 O 0.76312 0.91988 0.50887 0.0
O814 O 0.68996 0.96835 0.51565 0.0
O815 O 0.74592 0.9853 0.56748 0.0
C816 C 0.7656 0.93884 0.66172 0.0
O817 O 0.72769 0.95334 0.6426 0.0
O818 O 0.78297 0.90336 0.63737 0.0
C819 C 0.64873 0.87973 0.59959 0.0
Tb820 Tb 0.73256 0.15354 0.49788 0.0
C821 C 0.77804 0.24929 0.51362 0.0
Tb822 Tb 0.69899 0.17626 0.55657 0.0
O823 O 0.65801 0.13389 0.4869 0.0
O824 O 0.6757 0.20329 0.49233 0.0
O825 O 0.78672 0.20955 0.49055 0.0
C826 C 0.62121 0.18435 0.61391 0.0
O827 O 0.73904 0.24674 0.54191 0.0
C828 C 0.77558 0.17454 0.59866 0.0
C829 C 0.71408 0.05845 0.53308 0.0
O830 O 0.65721 0.21277 0.61328 0.0
O831 O 0.62857 0.15143 0.58222 0.0
O832 O 0.74134 0.20235 0.61226 0.0
O833 O 0.76531 0.14493 0.56544 0.0
O834 O 0.69079 0.09201 0.55997 0.0
O835 O 0.7445 0.0775 0.50404 0.0
C836 C 0.76732 0.12653 0.4163 0.0
O837 O 0.73081 0.10779 0.43645 0.0
O838 O 0.77623 0.16703 0.43645 0.0
C839 C 0.64352 0.17593 0.48019 0.0
Tb840 Tb 0.8986 0.72999 0.51391 0.0
C841 C 0.81545 0.77657 0.55675 0.0
Tb842 Tb 0.8891 0.69132 0.58167 0.0
O843 O 0.83342 0.69168 0.49523 0.0
O844 O 0.89083 0.65574 0.51613 0.0
O845 O 0.85381 0.78909 0.53346 0.0
C846 C 0.85809 0.61744 0.63065 0.0
O847 O 0.81863 0.7345 0.5781 0.0
C848 C 0.93358 0.75931 0.61771 0.0
C849 C 0.99983 0.70132 0.54347 0.0
O850 O 0.85221 0.66151 0.64356 0.0
O851 O 0.88178 0.61564 0.59122 0.0
O852 O 0.93661 0.71652 0.63286 0.0
O853 O 0.90611 0.76471 0.58301 0.0
O854 O 0.97035 0.67953 0.57421 0.0
O855 O 0.9781 0.72775 0.51268 0.0
C856 C 0.88934 0.76015 0.42707 0.0
O857 O 0.92608 0.73835 0.44304 0.0
O858 O 0.85766 0.76255 0.46034 0.0
C859 C 0.85209 0.65084 0.496 0.0
Tb860 Tb 0.32618 0.91677 0.50122 0.0
C861 C 0.28097 0.82764 0.54466 0.0
Tb862 Tb 0.36835 0.90179 0.5769 0.0
O863 O 0.39707 0.93545 0.47634 0.0
O864 O 0.38609 0.87341 0.51024 0.0
O865 O 0.27475 0.8594 0.51233 0.0
C866 C 0.44326 0.8715 0.62409 0.0
O867 O 0.31647 0.83672 0.57562 0.0
C868 C 0.30177 0.95318 0.6058 0.0
C869 C 0.35436 0.01428 0.53906 0.0
O870 O 0.39892 0.86416 0.63631 0.0
O871 O 0.44476 0.89765 0.58718 0.0
O872 O 0.34213 0.953 0.62693 0.0
O873 O 0.29757 0.92226 0.57261 0.0
O874 O 0.38355 0.98373 0.56148 0.0
O875 O 0.32077 0.99326 0.51422 0.0
C876 C 0.29134 0.89648 0.4164 0.0
O877 O 0.30968 0.93657 0.43072 0.0
O878 O 0.29602 0.86725 0.44994 0.0
C879 C 0.41564 0.89582 0.48631 0.0
Tb880 Tb 0.18135 0.37798 0.52571 0.0
C881 C 0.06475 0.35739 0.533 0.0
Tb882 Tb 0.15713 0.34048 0.58184 0.0
O883 O 0.2058 0.33647 0.46691 0.0
O884 O 0.14836 0.31218 0.51226 0.0
O885 O 0.098 0.3872 0.51507 0.0
C886 C 0.11302 0.31051 0.65925 0.0
O887 O 0.08427 0.32568 0.55907 0.0
C888 C 0.17159 0.43304 0.60733 0.0
C889 C 0.25415 0.29709 0.54575 0.0
O890 O 0.09662 0.33928 0.62984 0.0
O891 O 0.15638 0.29937 0.64623 0.0
O892 O 0.13216 0.41327 0.59676 0.0
O893 O 0.20246 0.40299 0.59452 0.0
O894 O 0.21574 0.28626 0.5715 0.0
O895 O 0.25261 0.34068 0.52937 0.0
C896 C 0.19905 0.45201 0.47349 0.0
O897 O 0.22081 0.41246 0.46916 0.0
O898 O 0.16738 0.45033 0.50709 0.0
C899 C 0.17713 0.30263 0.47801 0.0
Tb900 Tb 0.37392 0.18673 0.54206 0.0
C901 C 0.35568 0.07095 0.53707 0.0
Tb902 Tb 0.34091 0.16486 0.49254 0.0
O903 O 0.34276 0.20305 0.60924 0.0
O904 O 0.30574 0.15771 0.55948 0.0
O905 O 0.3852 0.10407 0.55545 0.0
C906 C 0.31164 0.12399 0.41369 0.0
O907 O 0.3245 0.09116 0.51101 0.0
C908 C 0.4345 0.17644 0.46654 0.0
C909 C 0.29277 0.25927 0.52929 0.0
O910 O 0.34073 0.10682 0.44234 0.0
O911 O 0.30046 0.16674 0.42791 0.0
O912 O 0.4149 0.13877 0.48182 0.0
O913 O 0.40316 0.20745 0.4742 0.0
O914 O 0.28437 0.22212 0.5011 0.0
O915 O 0.33529 0.257 0.54714 0.0
C916 C 0.44709 0.21574 0.59191 0.0
O917 O 0.41258 0.24158 0.57954 0.0
O918 O 0.4423 0.17423 0.57194 0.0
C919 C 0.30476 0.17994 0.59911 0.0
Tb920 Tb 0.91012 0.32649 0.56298 0.0
C921 C 0.8191 0.28649 0.51937 0.0
Tb922 Tb 0.89493 0.37352 0.49426 0.0
O923 O 0.93326 0.39367 0.59306 0.0
O924 O 0.86844 0.38865 0.56232 0.0
O925 O 0.85278 0.27598 0.54858 0.0
C926 C 0.8649 0.45036 0.45223 0.0
O927 O 0.82724 0.32525 0.49281 0.0
C928 C 0.94398 0.30866 0.45834 0.0
C929 C 1.00813 0.35533 0.52889 0.0
O930 O 0.85655 0.40712 0.43772 0.0
O931 O 0.89192 0.44999 0.48845 0.0
O932 O 0.94589 0.35102 0.44182 0.0
O933 O 0.91296 0.30223 0.49067 0.0
O934 O 0.97758 0.38652 0.5093 0.0
O935 O 0.98666 0.31971 0.55008 0.0
C936 C 0.88911 0.29139 0.64603 0.0
O937 O 0.93068 0.30601 0.63141 0.0
O938 O 0.85961 0.29584 0.61271 0.0
C939 C 0.89374 0.4145 0.58749 0.0
Tb940 Tb 0.15706 0.73161 0.58817 0.0
C941 C 0.2422 0.78766 0.54919 0.0
Tb942 Tb 0.16618 0.70534 0.51085 0.0
O943 O 0.21999 0.68459 0.59179 0.0
O944 O 0.15828 0.65895 0.56781 0.0
O945 O 0.20871 0.79203 0.58152 0.0
C946 C 0.20694 0.64303 0.44912 0.0
O947 O 0.23434 0.75257 0.5169 0.0
C948 C 0.11377 0.77236 0.488 0.0
C949 C 0.05594 0.70215 0.54771 0.0
O950 O 0.19462 0.68592 0.43992 0.0
O951 O 0.1954 0.63575 0.49241 0.0
O952 O 0.11588 0.73173 0.46551 0.0
O953 O 0.14128 0.7761 0.52484 0.0
O954 O 0.08652 0.68516 0.51419 0.0
O955 O 0.07633 0.72573 0.58292 0.0
C956 C 0.15318 0.7415 0.63442 0.0
O957 O 0.11875 0.71567 0.65361 0.0
O958 O 0.19328 0.74155 0.65648 0.0
C959 C 0.19549 0.64648 0.58702 0.0
loop_
_geom_bond_atom_site_label_1
_geom_bond_atom_site_label_2
_geom_bond_distance
_geom_bond_site_symmetry_2
_ccdc_geom_bond_type
Tb0 O3 2.453 . S
Tb0 O4 2.596 . S
Tb0 O5 2.374 . S
Tb0 O13 2.343 . S
Tb0 O15 2.353 . S
Tb0 O17 2.427 . S
Tb0 O18 2.513 . S
C1 O5 1.251 . S
C1 O7 1.263 1_455 S
Tb2 O4 2.343 1_655 S
Tb2 O7 2.353 . S
Tb2 O10 2.427 . S
Tb2 O11 2.513 . S
Tb2 O12 2.453 . S
Tb2 O13 2.596 1_655 S
Tb2 O14 2.374 . S
O3 Tb0 2.453 . S
O3 C19 1.245 . S
O4 Tb0 2.596 . S
O4 Tb2 2.343 1_455 S
O4 C19 1.259 . S
O5 Tb0 2.374 . S
O5 C1 1.251 . S
C6 O10 1.275 . S
C6 O11 1.246 . S
O7 C1 1.263 1_655 S
O7 Tb2 2.353 . S
C8 O12 1.245 . S
C8 O13 1.259 1_655 S
C9 O14 1.250 1_455 S
C9 O15 1.263 . S
O10 Tb2 2.427 . S
O10 C6 1.275 . S
O11 Tb2 2.513 . S
O11 C6 1.246 . S
O12 Tb2 2.453 . S
O12 C8 1.245 . S
O13 Tb0 2.343 . S
O13 Tb2 2.596 1_455 S
O13 C8 1.259 1_455 S
O14 Tb2 2.374 . S
O14 C9 1.250 1_655 S
O15 Tb0 2.353 . S
O15 C9 1.263 . S
C16 O17 1.275 . S
C16 O18 1.246 . S
O17 Tb0 2.427 . S
O17 C16 1.275 . S
O18 Tb0 2.513 . S
O18 C16 1.246 . S
C19 O3 1.245 . S
C19 O4 1.259 . S
Tb20 O23 2.453 . S
Tb20 O24 2.596 . S
Tb20 O25 2.374 . S
Tb20 O33 2.343 1_545 S
Tb20 O35 2.353 . S
Tb20 O37 2.427 . S
Tb20 O38 2.513 . S
C21 O25 1.251 . S
C21 O27 1.263 1_545 S
Tb22 O24 2.343 1_565 S
Tb22 O27 2.353 . S
Tb22 O30 2.427 . S
Tb22 O31 2.513 . S
Tb22 O32 2.453 . S
Tb22 O33 2.596 . S
Tb22 O34 2.374 . S
O23 Tb20 2.453 . S
O23 C39 1.245 . S
O24 Tb20 2.596 . S
O24 Tb22 2.343 1_545 S
O24 C39 1.259 . S
O25 Tb20 2.374 . S
O25 C21 1.251 . S
C26 O30 1.275 . S
C26 O31 1.246 . S
O27 C21 1.263 1_565 S
O27 Tb22 2.353 . S
C28 O32 1.245 . S
C28 O33 1.259 . S
C29 O34 1.250 . S
C29 O35 1.263 1_565 S
O30 Tb22 2.427 . S
O30 C26 1.275 . S
O31 Tb22 2.513 . S
O31 C26 1.246 . S
O32 Tb22 2.453 . S
O32 C28 1.245 . S
O33 Tb20 2.343 1_565 S
O33 Tb22 2.596 . S
O33 C28 1.259 . S
O34 Tb22 2.374 . S
O34 C29 1.250 . S
O35 Tb20 2.353 . S
O35 C29 1.263 1_545 S
C36 O37 1.275 . S
C36 O38 1.246 . S
O37 Tb20 2.427 . S
O37 C36 1.275 . S
O38 Tb20 2.513 . S
O38 C36 1.246 . S
C39 O23 1.245 . S
C39 O24 1.259 . S
Tb40 O43 2.453 . S
Tb40 O44 2.596 1_655 S
Tb40 O45 2.374 . S
Tb40 O53 2.343 1_655 S
Tb40 O55 2.353 . S
Tb40 O57 2.427 . S
Tb40 O58 2.513 . S
C41 O45 1.251 1_455 S
C41 O47 1.263 . S
Tb42 O44 2.343 . S
Tb42 O47 2.353 . S
Tb42 O50 2.427 . S
Tb42 O51 2.513 . S
Tb42 O52 2.453 . S
Tb42 O53 2.596 . S
Tb42 O54 2.374 . S
O43 Tb40 2.453 . S
O43 C59 1.245 . S
O44 Tb40 2.596 1_455 S
O44 Tb42 2.343 . S
O44 C59 1.259 1_455 S
O45 Tb40 2.374 . S
O45 C41 1.251 1_655 S
C46 O50 1.275 . S
C46 O51 1.246 . S
O47 C41 1.263 . S
O47 Tb42 2.353 . S
C48 O52 1.245 . S
C48 O53 1.259 . S
C49 O54 1.250 . S
C49 O55 1.263 1_455 S
O50 Tb42 2.427 . S
O50 C46 1.275 . S
O51 Tb42 2.513 . S
O51 C46 1.246 . S
O52 Tb42 2.453 . S
O52 C48 1.245 . S
O53 Tb40 2.343 1_455 S
O53 Tb42 2.596 . S
O53 C48 1.259 . S
O54 Tb42 2.374 . S
O54 C49 1.250 . S
O55 Tb40 2.353 . S
O55 C49 1.263 1_655 S
C56 O57 1.275 . S
C56 O58 1.246 . S
O57 Tb40 2.427 . S
O57 C56 1.275 . S
O58 Tb40 2.513 . S
O58 C56 1.246 . S
C59 O43 1.245 . S
C59 O44 1.259 1_655 S
Tb60 O63 2.453 . S
Tb60 O64 2.596 1_565 S
Tb60 O65 2.374 . S
Tb60 O73 2.343 1_565 S
Tb60 O75 2.353 . S
Tb60 O77 2.427 . S
Tb60 O78 2.513 . S
C61 O65 1.251 1_545 S
C61 O67 1.263 . S
Tb62 O64 2.343 . S
Tb62 O67 2.353 . S
Tb62 O70 2.427 . S
Tb62 O71 2.513 . S
Tb62 O72 2.453 . S
Tb62 O73 2.596 . S
Tb62 O74 2.374 . S
O63 Tb60 2.453 . S
O63 C79 1.245 . S
O64 Tb60 2.596 1_545 S
O64 Tb62 2.343 . S
O64 C79 1.259 1_545 S
O65 Tb60 2.374 . S
O65 C61 1.251 1_565 S
C66 O70 1.275 . S
C66 O71 1.246 . S
O67 C61 1.263 . S
O67 Tb62 2.353 . S
C68 O72 1.245 . S
C68 O73 1.259 . S
C69 O74 1.250 . S
C69 O75 1.263 1_545 S
O70 Tb62 2.427 . S
O70 C66 1.275 . S
O71 Tb62 2.513 . S
O71 C66 1.246 . S
O72 Tb62 2.453 . S
O72 C68 1.245 . S
O73 Tb60 2.343 1_545 S
O73 Tb62 2.596 . S
O73 C68 1.259 . S
O74 Tb62 2.374 . S
O74 C69 1.250 . S
O75 Tb60 2.353 . S
O75 C69 1.263 1_565 S
C76 O77 1.275 . S
C76 O78 1.246 . S
O77 Tb60 2.427 . S
O77 C76 1.275 . S
O78 Tb60 2.513 . S
O78 C76 1.246 . S
C79 O63 1.245 . S
C79 O64 1.259 1_565 S
Tb80 O83 2.453 . S
Tb80 O84 2.596 . S
Tb80 O85 2.374 . S
Tb80 O93 2.343 . S
Tb80 O95 2.353 . S
Tb80 O97 2.427 . S
Tb80 O98 2.513 . S
C81 O85 1.251 . S
C81 O87 1.263 1_455 S
Tb82 O84 2.343 1_655 S
Tb82 O87 2.353 . S
Tb82 O90 2.427 . S
Tb82 O91 2.513 . S
Tb82 O92 2.453 . S
Tb82 O93 2.596 1_655 S
Tb82 O94 2.374 . S
O83 Tb80 2.453 . S
O83 C99 1.245 . S
O84 Tb80 2.596 . S
O84 Tb82 2.343 1_455 S
O84 C99 1.259 . S
O85 Tb80 2.374 . S
O85 C81 1.251 . S
C86 O90 1.275 . S
C86 O91 1.246 . S
O87 C81 1.263 1_655 S
O87 Tb82 2.353 . S
C88 O92 1.245 . S
C88 O93 1.259 1_655 S
C89 O94 1.250 1_455 S
C89 O95 1.263 . S
O90 Tb82 2.427 . S
O90 C86 1.275 . S
O91 Tb82 2.513 . S
O91 C86 1.246 . S
O92 Tb82 2.453 . S
O92 C88 1.245 . S
O93 Tb80 2.343 . S
O93 Tb82 2.596 1_455 S
O93 C88 1.259 1_455 S
O94 Tb82 2.374 . S
O94 C89 1.250 1_655 S
O95 Tb80 2.353 . S
O95 C89 1.263 . S
C96 O97 1.275 . S
C96 O98 1.246 . S
O97 Tb80 2.427 . S
O97 C96 1.275 . S
O98 Tb80 2.513 . S
O98 C96 1.246 . S
C99 O83 1.245 . S
C99 O84 1.259 . S
Tb100 O103 2.453 . S
Tb100 O104 2.596 . S
Tb100 O105 2.374 . S
Tb100 O113 2.355 . S
Tb100 O115 2.353 . S
Tb100 O117 2.427 . S
Tb100 O118 2.513 . S
C101 O105 1.251 . S
C101 O107 1.263 1_545 S
Tb102 O104 2.343 1_565 S
Tb102 O107 2.353 . S
Tb102 O110 2.427 . S
Tb102 O111 2.513 . S
Tb102 O112 2.453 . S
Tb102 O113 2.589 1_565 S
Tb102 O114 2.374 . S
O103 Tb100 2.453 . S
O103 C119 1.245 . S
O104 Tb100 2.596 . S
O104 Tb102 2.343 1_545 S
O104 C119 1.259 . S
O105 Tb100 2.374 . S
O105 C101 1.251 . S
C106 O110 1.275 . S
C106 O111 1.246 . S
O107 C101 1.263 1_565 S
O107 Tb102 2.353 . S
C108 O112 1.245 . S
C108 O113 1.249 1_565 S
C109 O114 1.250 1_545 S
C109 O115 1.263 . S
O110 Tb102 2.427 . S
O110 C106 1.275 . S
O111 Tb102 2.513 . S
O111 C106 1.246 . S
O112 Tb102 2.453 . S
O112 C108 1.245 . S
O113 Tb100 2.355 . S
O113 Tb102 2.589 1_545 S
O113 C108 1.249 1_545 S
O114 Tb102 2.374 . S
O114 C109 1.250 1_565 S
O115 Tb100 2.353 . S
O115 C109 1.263 . S
C116 O117 1.275 . S
C116 O118 1.246 . S
O117 Tb100 2.427 . S
O117 C116 1.275 . S
O118 Tb100 2.513 . S
O118 C116 1.246 . S
C119 O103 1.245 . S
C119 O104 1.259 . S
Tb120 O123 2.453 . S
Tb120 O124 2.596 . S
Tb120 O125 2.374 . S
Tb120 O133 2.343 1_655 S
Tb120 O135 2.353 . S
Tb120 O137 2.427 . S
Tb120 O138 2.513 . S
C121 O125 1.251 1_455 S
C121 O127 1.263 . S
Tb122 O124 2.343 1_455 S
Tb122 O127 2.353 . S
Tb122 O130 2.427 . S
Tb122 O131 2.513 . S
Tb122 O132 2.453 . S
Tb122 O133 2.596 . S
Tb122 O134 2.374 . S
O123 Tb120 2.453 . S
O123 C139 1.245 . S
O124 Tb120 2.596 . S
O124 Tb122 2.343 1_655 S
O124 C139 1.259 . S
O125 Tb120 2.374 . S
O125 C121 1.251 1_655 S
C126 O130 1.275 . S
C126 O131 1.246 . S
O127 C121 1.263 . S
O127 Tb122 2.353 . S
C128 O132 1.245 . S
C128 O133 1.259 . S
C129 O134 1.250 . S
C129 O135 1.263 1_455 S
O130 Tb122 2.427 . S
O130 C126 1.275 . S
O131 Tb122 2.513 . S
O131 C126 1.246 . S
O132 Tb122 2.453 . S
O132 C128 1.245 . S
O133 Tb120 2.343 1_455 S
O133 Tb122 2.596 . S
O133 C128 1.259 . S
O134 Tb122 2.374 . S
O134 C129 1.250 . S
O135 Tb120 2.353 . S
O135 C129 1.263 1_655 S
C136 O137 1.275 . S
C136 O138 1.246 . S
O137 Tb120 2.427 . S
O137 C136 1.275 . S
O138 Tb120 2.513 . S
O138 C136 1.246 . S
C139 O123 1.245 . S
C139 O124 1.259 . S
Tb140 O143 2.453 . S
Tb140 O144 2.596 1_565 S
Tb140 O145 2.377 . S
Tb140 O153 2.343 1_565 S
Tb140 O155 2.353 1_565 S
Tb140 O157 2.427 . S
Tb140 O158 2.513 . S
C141 O145 1.241 1_545 S
C141 O147 1.263 . S
Tb142 O144 2.343 . S
Tb142 O147 2.353 . S
Tb142 O150 2.427 . S
Tb142 O151 2.513 . S
Tb142 O152 2.453 . S
Tb142 O153 2.596 . S
Tb142 O154 2.374 . S
O143 Tb140 2.453 . S
O143 C159 1.245 . S
O144 Tb140 2.596 1_545 S
O144 Tb142 2.343 . S
O144 C159 1.259 1_545 S
O145 Tb140 2.377 . S
O145 C141 1.241 1_565 S
C146 O150 1.275 . S
C146 O151 1.246 . S
O147 C141 1.263 . S
O147 Tb142 2.353 . S
C148 O152 1.245 . S
C148 O153 1.259 . S
C149 O154 1.250 . S
C149 O155 1.263 . S
O150 Tb142 2.427 . S
O150 C146 1.275 . S
O151 Tb142 2.513 . S
O151 C146 1.246 . S
O152 Tb142 2.453 . S
O152 C148 1.245 . S
O153 Tb140 2.343 1_545 S
O153 Tb142 2.596 . S
O153 C148 1.259 . S
O154 Tb142 2.374 . S
O154 C149 1.250 . S
O155 Tb140 2.353 1_545 S
O155 C149 1.263 . S
C156 O157 1.275 . S
C156 O158 1.246 . S
O157 Tb140 2.427 . S
O157 C156 1.275 . S
O158 Tb140 2.513 . S
O158 C156 1.246 . S
C159 O143 1.245 . S
C159 O144 1.259 1_565 S
Tb160 O163 2.453 . S
Tb160 O164 2.596 . S
Tb160 O165 2.374 . S
Tb160 O173 2.343 1_545 S
Tb160 O175 2.353 . S
Tb160 O177 2.427 . S
Tb160 O178 2.513 . S
C161 O165 1.251 . S
C161 O167 1.263 1_545 S
Tb162 O164 2.343 1_565 S
Tb162 O167 2.353 . S
Tb162 O170 2.427 . S
Tb162 O171 2.513 . S
Tb162 O172 2.453 . S
Tb162 O173 2.596 . S
Tb162 O174 2.374 . S
O163 Tb160 2.453 . S
O163 C179 1.245 . S
O164 Tb160 2.596 . S
O164 Tb162 2.343 1_545 S
O164 C179 1.259 . S
O165 Tb160 2.374 . S
O165 C161 1.251 . S
C166 O170 1.275 . S
C166 O171 1.246 . S
O167 C161 1.263 1_565 S
O167 Tb162 2.353 . S
C168 O172 1.245 . S
C168 O173 1.259 . S
C169 O174 1.250 . S
C169 O175 1.263 1_565 S
O170 Tb162 2.427 . S
O170 C166 1.275 . S
O171 Tb162 2.513 . S
O171 C166 1.246 . S
O172 Tb162 2.453 . S
O172 C168 1.245 . S
O173 Tb160 2.343 1_565 S
O173 Tb162 2.596 . S
O173 C168 1.259 . S
O174 Tb162 2.374 . S
O174 C169 1.250 . S
O175 Tb160 2.353 . S
O175 C169 1.263 1_545 S
C176 O177 1.275 . S
C176 O178 1.246 . S
O177 Tb160 2.427 . S
O177 C176 1.275 . S
O178 Tb160 2.513 . S
O178 C176 1.246 . S
C179 O163 1.245 . S
C179 O164 1.259 . S
Tb180 O183 2.453 . S
Tb180 O184 2.596 1_655 S
Tb180 O185 2.374 . S
Tb180 O193 2.343 1_655 S
Tb180 O195 2.352 1_655 S
Tb180 O197 2.427 . S
Tb180 O198 2.513 . S
C181 O185 1.251 1_455 S
C181 O187 1.263 . S
Tb182 O184 2.343 . S
Tb182 O187 2.353 . S
Tb182 O190 2.427 . S
Tb182 O191 2.513 . S
Tb182 O192 2.453 . S
Tb182 O193 2.596 . S
Tb182 O194 2.374 . S
O183 Tb180 2.453 . S
O183 C199 1.245 . S
O184 Tb180 2.596 1_455 S
O184 Tb182 2.343 . S
O184 C199 1.259 1_455 S
O185 Tb180 2.374 . S
O185 C181 1.251 1_655 S
C186 O190 1.275 . S
C186 O191 1.246 . S
O187 C181 1.263 . S
O187 Tb182 2.353 . S
C188 O192 1.245 . S
C188 O193 1.259 . S
C189 O194 1.250 . S
C189 O195 1.268 . S
O190 Tb182 2.427 . S
O190 C186 1.275 . S
O191 Tb182 2.513 . S
O191 C186 1.246 . S
O192 Tb182 2.453 . S
O192 C188 1.245 . S
O193 Tb180 2.343 1_455 S
O193 Tb182 2.596 . S
O193 C188 1.259 . S
O194 Tb182 2.374 . S
O194 C189 1.250 . S
O195 Tb180 2.352 1_455 S
O195 C189 1.268 . S
C196 O197 1.275 . S
C196 O198 1.246 . S
O197 Tb180 2.427 . S
O197 C196 1.275 . S
O198 Tb180 2.513 . S
O198 C196 1.246 . S
C199 O183 1.245 . S
C199 O184 1.259 1_655 S
Tb200 O203 2.453 . S
Tb200 O204 2.596 . S
Tb200 O205 2.374 . S
Tb200 O213 2.343 1_565 S
Tb200 O215 2.353 . S
Tb200 O217 2.427 . S
Tb200 O218 2.513 . S
C201 O205 1.251 1_545 S
C201 O207 1.263 . S
Tb202 O204 2.343 1_545 S
Tb202 O207 2.353 . S
Tb202 O210 2.427 . S
Tb202 O211 2.513 . S
Tb202 O212 2.453 . S
Tb202 O213 2.596 . S
Tb202 O214 2.374 . S
O203 Tb200 2.453 . S
O203 C219 1.245 . S
O204 Tb200 2.596 . S
O204 Tb202 2.343 1_565 S
O204 C219 1.259 . S
O205 Tb200 2.374 . S
O205 C201 1.251 1_565 S
C206 O210 1.275 . S
C206 O211 1.246 . S
O207 C201 1.263 . S
O207 Tb202 2.353 . S
C208 O212 1.245 . S
C208 O213 1.259 . S
C209 O214 1.250 . S
C209 O215 1.263 1_545 S
O210 Tb202 2.427 . S
O210 C206 1.275 . S
O211 Tb202 2.513 . S
O211 C206 1.246 . S
O212 Tb202 2.453 . S
O212 C208 1.245 . S
O213 Tb200 2.343 1_545 S
O213 Tb202 2.596 . S
O213 C208 1.259 . S
O214 Tb202 2.374 . S
O214 C209 1.250 . S
O215 Tb200 2.353 . S
O215 C209 1.263 1_565 S
C216 O217 1.275 . S
C216 O218 1.246 . S
O217 Tb200 2.427 . S
O217 C216 1.275 . S
O218 Tb200 2.513 . S
O218 C216 1.246 . S
C219 O203 1.245 . S
C219 O204 1.259 . S
Tb220 O223 2.453 . S
Tb220 O224 2.596 . S
Tb220 O225 2.374 . S
Tb220 O233 2.343 . S
Tb220 O235 2.353 . S
Tb220 O237 2.427 . S
Tb220 O238 2.513 . S
C221 O225 1.251 . S
C221 O227 1.263 1_455 S
Tb222 O224 2.343 1_655 S
Tb222 O227 2.353 . S
Tb222 O230 2.427 . S
Tb222 O231 2.513 . S
Tb222 O232 2.453 . S
Tb222 O233 2.596 1_655 S
Tb222 O234 2.374 . S
O223 Tb220 2.453 . S
O223 C239 1.245 . S
O224 Tb220 2.596 . S
O224 Tb222 2.343 1_455 S
O224 C239 1.259 . S
O225 Tb220 2.374 . S
O225 C221 1.251 . S
C226 O230 1.275 . S
C226 O231 1.246 . S
O227 C221 1.263 1_655 S
O227 Tb222 2.353 . S
C228 O232 1.245 . S
C228 O233 1.259 1_655 S
C229 O234 1.250 1_455 S
C229 O235 1.263 . S
O230 Tb222 2.427 . S
O230 C226 1.275 . S
O231 Tb222 2.513 . S
O231 C226 1.246 . S
O232 Tb222 2.453 . S
O232 C228 1.245 . S
O233 Tb220 2.343 . S
O233 Tb222 2.596 1_455 S
O233 C228 1.259 1_455 S
O234 Tb222 2.374 . S
O234 C229 1.250 1_655 S
O235 Tb220 2.353 . S
O235 C229 1.263 . S
C236 O237 1.275 . S
C236 O238 1.246 . S
O237 Tb220 2.427 . S
O237 C236 1.275 . S
O238 Tb220 2.513 . S
O238 C236 1.246 . S
C239 O223 1.245 . S
C239 O224 1.259 . S
Tb240 O243 2.453 . S
Tb240 O244 2.596 1_565 S
Tb240 O245 2.374 1_565 S
Tb240 O253 2.343 1_565 S
Tb240 O255 2.353 1_565 S
Tb240 O257 2.427 . S
Tb240 O258 2.513 . S
C241 O245 1.251 . S
C241 O247 1.263 . S
Tb242 O244 2.343 . S
Tb242 O247 2.353 . S
Tb242 O250 2.427 . S
Tb242 O251 2.513 . S
Tb242 O252 2.453 . S
Tb242 O253 2.596 . S
Tb242 O254 2.374 . S
O243 Tb240 2.453 . S
O243 C259 1.245 . S
O244 Tb240 2.596 1_545 S
O244 Tb242 2.343 . S
O244 C259 1.259 1_545 S
O245 Tb240 2.374 1_545 S
O245 C241 1.251 . S
C246 O250 1.275 . S
C246 O251 1.246 . S
O247 C241 1.263 . S
O247 Tb242 2.353 . S
C248 O252 1.245 . S
C248 O253 1.259 . S
C249 O254 1.250 . S
C249 O255 1.263 . S
O250 Tb242 2.427 . S
O250 C246 1.275 . S
O251 Tb242 2.513 . S
O251 C246 1.246 . S
O252 Tb242 2.453 . S
O252 C248 1.245 . S
O253 Tb240 2.343 1_545 S
O253 Tb242 2.596 . S
O253 C248 1.259 . S
O254 Tb242 2.374 . S
O254 C249 1.250 . S
O255 Tb240 2.353 1_545 S
O255 C249 1.263 . S
C256 O257 1.275 . S
C256 O258 1.246 . S
O257 Tb240 2.427 . S
O257 C256 1.275 . S
O258 Tb240 2.513 . S
O258 C256 1.246 . S
C259 O243 1.245 . S
C259 O244 1.259 1_565 S
Tb260 O263 2.453 . S
Tb260 O264 2.596 . S
Tb260 O265 2.374 . S
Tb260 O273 2.343 1_455 S
Tb260 O275 2.353 . S
Tb260 O277 2.427 . S
Tb260 O278 2.513 . S
C261 O265 1.251 . S
C261 O267 1.263 1_455 S
Tb262 O264 2.343 1_655 S
Tb262 O267 2.353 . S
Tb262 O270 2.427 . S
Tb262 O271 2.513 . S
Tb262 O272 2.453 . S
Tb262 O273 2.596 . S
Tb262 O274 2.374 . S
O263 Tb260 2.453 . S
O263 C279 1.245 . S
O264 Tb260 2.596 . S
O264 Tb262 2.343 1_455 S
O264 C279 1.259 . S
O265 Tb260 2.374 . S
O265 C261 1.251 . S
C266 O270 1.275 . S
C266 O271 1.246 . S
O267 C261 1.263 1_655 S
O267 Tb262 2.353 . S
C268 O272 1.245 . S
C268 O273 1.259 . S
C269 O274 1.250 . S
C269 O275 1.263 1_655 S
O270 Tb262 2.427 . S
O270 C266 1.275 . S
O271 Tb262 2.513 . S
O271 C266 1.246 . S
O272 Tb262 2.453 . S
O272 C268 1.245 . S
O273 Tb260 2.343 1_655 S
O273 Tb262 2.596 . S
O273 C268 1.259 . S
O274 Tb262 2.374 . S
O274 C269 1.250 . S
O275 Tb260 2.353 . S
O275 C269 1.263 1_455 S
C276 O277 1.275 . S
C276 O278 1.246 . S
O277 Tb260 2.427 . S
O277 C276 1.275 . S
O278 Tb260 2.513 . S
O278 C276 1.246 . S
C279 O263 1.245 . S
C279 O264 1.259 . S
Tb280 O283 2.453 . S
Tb280 O284 2.596 . S
Tb280 O285 2.374 . S
Tb280 O293 2.343 . S
Tb280 O295 2.353 . S
Tb280 O297 2.427 . S
Tb280 O298 2.513 . S
C281 O285 1.251 . S
C281 O287 1.263 1_545 S
Tb282 O284 2.343 1_565 S
Tb282 O287 2.353 . S
Tb282 O290 2.427 . S
Tb282 O291 2.513 . S
Tb282 O292 2.453 . S
Tb282 O293 2.596 1_565 S
Tb282 O294 2.374 . S
O283 Tb280 2.453 . S
O283 C299 1.245 . S
O284 Tb280 2.596 . S
O284 Tb282 2.343 1_545 S
O284 C299 1.259 . S
O285 Tb280 2.374 . S
O285 C281 1.251 . S
C286 O290 1.275 . S
C286 O291 1.246 . S
O287 C281 1.263 1_565 S
O287 Tb282 2.353 . S
C288 O292 1.245 . S
C288 O293 1.259 1_565 S
C289 O294 1.250 1_545 S
C289 O295 1.263 . S
O290 Tb282 2.427 . S
O290 C286 1.275 . S
O291 Tb282 2.513 . S
O291 C286 1.246 . S
O292 Tb282 2.453 . S
O292 C288 1.245 . S
O293 Tb280 2.343 . S
O293 Tb282 2.596 1_545 S
O293 C288 1.259 1_545 S
O294 Tb282 2.374 . S
O294 C289 1.250 1_565 S
O295 Tb280 2.353 . S
O295 C289 1.263 . S
C296 O297 1.275 . S
C296 O298 1.246 . S
O297 Tb280 2.427 . S
O297 C296 1.275 . S
O298 Tb280 2.513 . S
O298 C296 1.246 . S
C299 O283 1.245 . S
C299 O284 1.259 . S
Tb300 O303 2.453 . S
Tb300 O304 2.601 . S
Tb300 O305 2.374 . S
Tb300 O313 2.343 1_655 S
Tb300 O315 2.353 . S
Tb300 O317 2.427 . S
Tb300 O318 2.513 . S
C301 O305 1.251 1_455 S
C301 O307 1.263 . S
Tb302 O304 2.334 1_455 S
Tb302 O307 2.353 . S
Tb302 O310 2.427 . S
Tb302 O311 2.513 . S
Tb302 O312 2.453 . S
Tb302 O313 2.596 . S
Tb302 O314 2.374 . S
O303 Tb300 2.453 . S
O303 C319 1.245 . S
O304 Tb300 2.601 . S
O304 Tb302 2.334 1_655 S
O304 C319 1.267 . S
O305 Tb300 2.374 . S
O305 C301 1.251 1_655 S
C306 O310 1.275 . S
C306 O311 1.246 . S
O307 C301 1.263 . S
O307 Tb302 2.353 . S
C308 O312 1.245 . S
C308 O313 1.259 . S
C309 O314 1.250 . S
C309 O315 1.263 1_455 S
O310 Tb302 2.427 . S
O310 C306 1.275 . S
O311 Tb302 2.513 . S
O311 C306 1.246 . S
O312 Tb302 2.453 . S
O312 C308 1.245 . S
O313 Tb300 2.343 1_455 S
O313 Tb302 2.596 . S
O313 C308 1.259 . S
O314 Tb302 2.374 . S
O314 C309 1.250 . S
O315 Tb300 2.353 . S
O315 C309 1.263 1_655 S
C316 O317 1.275 . S
C316 O318 1.246 . S
O317 Tb300 2.427 . S
O317 C316 1.275 . S
O318 Tb300 2.513 . S
O318 C316 1.246 . S
C319 O303 1.245 . S
C319 O304 1.267 . S
Tb320 O323 2.453 . S
Tb320 O324 2.596 . S
Tb320 O325 2.374 . S
Tb320 O333 2.343 . S
Tb320 O335 2.353 . S
Tb320 O337 2.427 . S
Tb320 O338 2.513 . S
C321 O325 1.251 . S
C321 O327 1.263 1_554 S
Tb322 O324 2.343 1_556 S
Tb322 O327 2.353 . S
Tb322 O330 2.427 . S
Tb322 O331 2.513 . S
Tb322 O332 2.453 . S
Tb322 O333 2.596 1_556 S
Tb322 O334 2.374 . S
O323 Tb320 2.453 . S
O323 C339 1.245 . S
O324 Tb320 2.596 . S
O324 Tb322 2.343 1_554 S
O324 C339 1.259 . S
O325 Tb320 2.374 . S
O325 C321 1.251 . S
C326 O330 1.275 . S
C326 O331 1.246 . S
O327 C321 1.263 1_556 S
O327 Tb322 2.353 . S
C328 O332 1.245 . S
C328 O333 1.259 1_556 S
C329 O334 1.250 1_554 S
C329 O335 1.263 . S
O330 Tb322 2.427 . S
O330 C326 1.275 . S
O331 Tb322 2.513 . S
O331 C326 1.246 . S
O332 Tb322 2.453 . S
O332 C328 1.245 . S
O333 Tb320 2.343 . S
O333 Tb322 2.596 1_554 S
O333 C328 1.259 1_554 S
O334 Tb322 2.374 . S
O334 C329 1.250 1_556 S
O335 Tb320 2.353 . S
O335 C329 1.263 . S
C336 O337 1.275 . S
C336 O338 1.246 . S
O337 Tb320 2.427 . S
O337 C336 1.275 . S
O338 Tb320 2.513 . S
O338 C336 1.246 . S
C339 O323 1.245 . S
C339 O324 1.259 . S
Tb340 O343 2.453 . S
Tb340 O344 2.596 1_556 S
Tb340 O345 2.374 . S
Tb340 O353 2.343 1_556 S
Tb340 O355 2.353 . S
Tb340 O357 2.427 . S
Tb340 O358 2.513 . S
C341 O345 1.251 1_554 S
C341 O347 1.263 . S
Tb342 O344 2.343 . S
Tb342 O347 2.353 . S
Tb342 O350 2.427 . S
Tb342 O351 2.513 . S
Tb342 O352 2.453 . S
Tb342 O353 2.596 . S
Tb342 O354 2.374 . S
O343 Tb340 2.453 . S
O343 C359 1.245 . S
O344 Tb340 2.596 1_554 S
O344 Tb342 2.343 . S
O344 C359 1.259 1_554 S
O345 Tb340 2.374 . S
O345 C341 1.251 1_556 S
C346 O350 1.275 . S
C346 O351 1.246 . S
O347 C341 1.263 . S
O347 Tb342 2.353 . S
C348 O352 1.245 . S
C348 O353 1.259 . S
C349 O354 1.250 . S
C349 O355 1.263 1_554 S
O350 Tb342 2.427 . S
O350 C346 1.275 . S
O351 Tb342 2.513 . S
O351 C346 1.246 . S
O352 Tb342 2.453 . S
O352 C348 1.245 . S
O353 Tb340 2.343 1_554 S
O353 Tb342 2.596 . S
O353 C348 1.259 . S
O354 Tb342 2.374 . S
O354 C349 1.250 . S
O355 Tb340 2.353 . S
O355 C349 1.263 1_556 S
C356 O357 1.275 . S
C356 O358 1.246 . S
O357 Tb340 2.427 . S
O357 C356 1.275 . S
O358 Tb340 2.513 . S
O358 C356 1.246 . S
C359 O343 1.245 . S
C359 O344 1.259 1_556 S
Tb360 O363 2.453 . S
Tb360 O364 2.596 1_556 S
Tb360 O365 2.374 1_556 S
Tb360 O373 2.343 1_556 S
Tb360 O375 2.353 1_556 S
Tb360 O377 2.427 . S
Tb360 O378 2.513 . S
C361 O365 1.251 . S
C361 O367 1.263 . S
Tb362 O364 2.343 . S
Tb362 O367 2.353 . S
Tb362 O370 2.427 . S
Tb362 O371 2.513 . S
Tb362 O372 2.453 . S
Tb362 O373 2.596 . S
Tb362 O374 2.374 . S
O363 Tb360 2.453 . S
O363 C379 1.245 . S
O364 Tb360 2.596 1_554 S
O364 Tb362 2.343 . S
O364 C379 1.259 1_554 S
O365 Tb360 2.374 1_554 S
O365 C361 1.251 . S
C366 O370 1.275 . S
C366 O371 1.246 . S
O367 C361 1.263 . S
O367 Tb362 2.353 . S
C368 O372 1.245 . S
C368 O373 1.259 . S
C369 O374 1.250 . S
C369 O375 1.263 . S
O370 Tb362 2.427 . S
O370 C366 1.275 . S
O371 Tb362 2.513 . S
O371 C366 1.246 . S
O372 Tb362 2.453 . S
O372 C368 1.245 . S
O373 Tb360 2.343 1_554 S
O373 Tb362 2.596 . S
O373 C368 1.259 . S
O374 Tb362 2.374 . S
O374 C369 1.250 . S
O375 Tb360 2.353 1_554 S
O375 C369 1.263 . S
C376 O377 1.275 . S
C376 O378 1.246 . S
O377 Tb360 2.427 . S
O377 C376 1.275 . S
O378 Tb360 2.513 . S
O378 C376 1.246 . S
C379 O363 1.245 . S
C379 O364 1.259 1_556 S
Tb380 O383 2.453 . S
Tb380 O384 2.596 1_556 S
Tb380 O385 2.375 . S
Tb380 O393 2.343 1_556 S
Tb380 O395 2.353 . S
Tb380 O397 2.427 . S
Tb380 O398 2.513 . S
C381 O385 1.248 1_554 S
C381 O387 1.263 . S
Tb382 O384 2.343 . S
Tb382 O387 2.353 . S
Tb382 O390 2.427 . S
Tb382 O391 2.513 . S
Tb382 O392 2.453 . S
Tb382 O393 2.596 . S
Tb382 O394 2.374 . S
O383 Tb380 2.453 . S
O383 C399 1.245 . S
O384 Tb380 2.596 1_554 S
O384 Tb382 2.343 . S
O384 C399 1.259 1_554 S
O385 Tb380 2.375 . S
O385 C381 1.248 1_556 S
C386 O390 1.275 . S
C386 O391 1.246 . S
O387 C381 1.263 . S
O387 Tb382 2.353 . S
C388 O392 1.245 . S
C388 O393 1.259 . S
C389 O394 1.250 . S
C389 O395 1.263 1_554 S
O390 Tb382 2.427 . S
O390 C386 1.275 . S
O391 Tb382 2.513 . S
O391 C386 1.246 . S
O392 Tb382 2.453 . S
O392 C388 1.245 . S
O393 Tb380 2.343 1_554 S
O393 Tb382 2.596 . S
O393 C388 1.259 . S
O394 Tb382 2.374 . S
O394 C389 1.250 . S
O395 Tb380 2.353 . S
O395 C389 1.263 1_556 S
C396 O397 1.275 . S
C396 O398 1.246 . S
O397 Tb380 2.427 . S
O397 C396 1.275 . S
O398 Tb380 2.513 . S
O398 C396 1.246 . S
C399 O383 1.245 . S
C399 O384 1.259 1_556 S
Tb400 O403 2.453 . S
Tb400 O404 2.596 1_556 S
Tb400 O405 2.374 1_556 S
Tb400 O413 2.343 1_556 S
Tb400 O415 2.353 1_556 S
Tb400 O417 2.427 . S
Tb400 O418 2.513 . S
C401 O405 1.251 . S
C401 O407 1.263 . S
Tb402 O404 2.343 . S
Tb402 O407 2.353 . S
Tb402 O410 2.427 . S
Tb402 O411 2.513 . S
Tb402 O412 2.453 . S
Tb402 O413 2.596 . S
Tb402 O414 2.374 . S
O403 Tb400 2.453 . S
O403 C419 1.245 1_556 S
O404 Tb400 2.596 1_554 S
O404 Tb402 2.343 . S
O404 C419 1.259 . S
O405 Tb400 2.374 1_554 S
O405 C401 1.251 . S
C406 O410 1.275 . S
C406 O411 1.246 . S
O407 C401 1.263 . S
O407 Tb402 2.353 . S
C408 O412 1.245 . S
C408 O413 1.259 . S
C409 O414 1.250 . S
C409 O415 1.263 . S
O410 Tb402 2.427 . S
O410 C406 1.275 . S
O411 Tb402 2.513 . S
O411 C406 1.246 . S
O412 Tb402 2.453 . S
O412 C408 1.245 . S
O413 Tb400 2.343 1_554 S
O413 Tb402 2.596 . S
O413 C408 1.259 . S
O414 Tb402 2.374 . S
O414 C409 1.250 . S
O415 Tb400 2.353 1_554 S
O415 C409 1.263 . S
C416 O417 1.275 . S
C416 O418 1.246 . S
O417 Tb400 2.427 . S
O417 C416 1.275 . S
O418 Tb400 2.513 . S
O418 C416 1.246 . S
C419 O403 1.245 1_554 S
C419 O404 1.259 . S
Tb420 O423 2.453 . S
Tb420 O424 2.596 . S
Tb420 O425 2.374 . S
Tb420 O433 2.343 1_554 S
Tb420 O435 2.353 . S
Tb420 O437 2.427 . S
Tb420 O438 2.513 . S
C421 O425 1.251 . S
C421 O427 1.263 1_554 S
Tb422 O424 2.343 1_556 S
Tb422 O427 2.353 . S
Tb422 O430 2.427 . S
Tb422 O431 2.513 . S
Tb422 O432 2.453 . S
Tb422 O433 2.596 . S
Tb422 O434 2.374 . S
O423 Tb420 2.453 . S
O423 C439 1.245 . S
O424 Tb420 2.596 . S
O424 Tb422 2.343 1_554 S
O424 C439 1.259 . S
O425 Tb420 2.374 . S
O425 C421 1.251 . S
C426 O430 1.275 . S
C426 O431 1.246 . S
O427 C421 1.263 1_556 S
O427 Tb422 2.353 . S
C428 O432 1.245 . S
C428 O433 1.259 . S
C429 O434 1.250 1_554 S
C429 O435 1.263 . S
O430 Tb422 2.427 . S
O430 C426 1.275 . S
O431 Tb422 2.513 . S
O431 C426 1.246 . S
O432 Tb422 2.453 . S
O432 C428 1.245 . S
O433 Tb420 2.343 1_556 S
O433 Tb422 2.596 . S
O433 C428 1.259 . S
O434 Tb422 2.374 . S
O434 C429 1.250 1_556 S
O435 Tb420 2.353 . S
O435 C429 1.263 . S
C436 O437 1.275 . S
C436 O438 1.246 . S
O437 Tb420 2.427 . S
O437 C436 1.275 . S
O438 Tb420 2.513 . S
O438 C436 1.246 . S
C439 O423 1.245 . S
C439 O424 1.259 . S
Tb440 O443 2.453 . S
Tb440 O444 2.596 . S
Tb440 O445 2.374 . S
Tb440 O453 2.343 . S
Tb440 O455 2.353 . S
Tb440 O457 2.427 . S
Tb440 O458 2.513 . S
C441 O445 1.251 . S
C441 O447 1.263 1_554 S
Tb442 O444 2.343 1_556 S
Tb442 O447 2.353 . S
Tb442 O450 2.427 . S
Tb442 O451 2.513 . S
Tb442 O452 2.453 . S
Tb442 O453 2.596 1_556 S
Tb442 O454 2.374 . S
O443 Tb440 2.453 . S
O443 C459 1.245 . S
O444 Tb440 2.596 . S
O444 Tb442 2.343 1_554 S
O444 C459 1.259 . S
O445 Tb440 2.374 . S
O445 C441 1.251 . S
C446 O450 1.275 . S
C446 O451 1.246 . S
O447 C441 1.263 1_556 S
O447 Tb442 2.353 . S
C448 O452 1.245 . S
C448 O453 1.259 1_556 S
C449 O454 1.250 1_554 S
C449 O455 1.263 . S
O450 Tb442 2.427 . S
O450 C446 1.275 . S
O451 Tb442 2.513 . S
O451 C446 1.246 . S
O452 Tb442 2.453 . S
O452 C448 1.245 . S
O453 Tb440 2.343 . S
O453 Tb442 2.596 1_554 S
O453 C448 1.259 1_554 S
O454 Tb442 2.374 . S
O454 C449 1.250 1_556 S
O455 Tb440 2.353 . S
O455 C449 1.263 . S
C456 O457 1.275 . S
C456 O458 1.246 . S
O457 Tb440 2.427 . S
O457 C456 1.275 . S
O458 Tb440 2.513 . S
O458 C456 1.246 . S
C459 O443 1.245 . S
C459 O444 1.259 . S
Tb460 O463 2.453 . S
Tb460 O464 2.596 . S
Tb460 O465 2.374 . S
Tb460 O473 2.343 . S
Tb460 O475 2.353 . S
Tb460 O477 2.427 . S
Tb460 O478 2.513 . S
C461 O465 1.251 . S
C461 O467 1.263 1_554 S
Tb462 O464 2.343 1_556 S
Tb462 O467 2.353 . S
Tb462 O470 2.427 . S
Tb462 O471 2.513 . S
Tb462 O472 2.453 . S
Tb462 O473 2.596 1_556 S
Tb462 O474 2.374 . S
O463 Tb460 2.453 . S
O463 C479 1.245 . S
O464 Tb460 2.596 . S
O464 Tb462 2.343 1_554 S
O464 C479 1.259 . S
O465 Tb460 2.374 . S
O465 C461 1.251 . S
C466 O470 1.275 . S
C466 O471 1.246 . S
O467 C461 1.263 1_556 S
O467 Tb462 2.353 . S
C468 O472 1.245 . S
C468 O473 1.259 1_556 S
C469 O474 1.250 1_554 S
C469 O475 1.263 . S
O470 Tb462 2.427 . S
O470 C466 1.275 . S
O471 Tb462 2.513 . S
O471 C466 1.246 . S
O472 Tb462 2.453 . S
O472 C468 1.245 . S
O473 Tb460 2.343 . S
O473 Tb462 2.596 1_554 S
O473 C468 1.259 1_554 S
O474 Tb462 2.374 . S
O474 C469 1.250 1_556 S
O475 Tb460 2.353 . S
O475 C469 1.263 . S
C476 O477 1.275 . S
C476 O478 1.246 . S
O477 Tb460 2.427 . S
O477 C476 1.275 . S
O478 Tb460 2.513 . S
O478 C476 1.246 . S
C479 O463 1.245 . S
C479 O464 1.259 . S
Tb480 O483 2.453 . S
Tb480 O484 2.596 . S
Tb480 O485 2.374 . S
Tb480 O493 2.343 . S
Tb480 O495 2.353 . S
Tb480 O497 2.427 . S
Tb480 O498 2.513 . S
C481 O485 1.251 . S
C481 O487 1.263 . S
Tb482 O484 2.343 . S
Tb482 O487 2.353 . S
Tb482 O490 2.427 . S
Tb482 O491 2.513 . S
Tb482 O492 2.453 . S
Tb482 O493 2.596 . S
Tb482 O494 2.374 . S
O483 Tb480 2.453 . S
O483 C499 1.245 . S
O484 Tb480 2.596 . S
O484 Tb482 2.343 . S
O484 C499 1.259 . S
O485 Tb480 2.374 . S
O485 C481 1.251 . S
C486 O490 1.275 . S
C486 O491 1.246 . S
O487 C481 1.263 . S
O487 Tb482 2.353 . S
C488 O492 1.245 . S
C488 O493 1.259 . S
C489 O494 1.250 . S
C489 O495 1.263 . S
O490 Tb482 2.427 . S
O490 C486 1.275 . S
O491 Tb482 2.513 . S
O491 C486 1.246 . S
O492 Tb482 2.453 . S
O492 C488 1.245 . S
O493 Tb480 2.343 . S
O493 Tb482 2.596 . S
O493 C488 1.259 . S
O494 Tb482 2.374 . S
O494 C489 1.250 . S
O495 Tb480 2.353 . S
O495 C489 1.263 . S
C496 O497 1.275 . S
C496 O498 1.246 . S
O497 Tb480 2.427 . S
O497 C496 1.275 . S
O498 Tb480 2.513 . S
O498 C496 1.246 . S
C499 O483 1.245 . S
C499 O484 1.259 . S
Tb500 O503 2.453 . S
Tb500 O504 2.596 . S
Tb500 O505 2.374 . S
Tb500 O513 2.343 . S
Tb500 O515 2.353 . S
Tb500 O517 2.427 . S
Tb500 O518 2.513 . S
C501 O505 1.251 . S
C501 O507 1.263 . S
Tb502 O504 2.343 . S
Tb502 O507 2.353 . S
Tb502 O510 2.427 . S
Tb502 O511 2.513 . S
Tb502 O512 2.453 . S
Tb502 O513 2.596 . S
Tb502 O514 2.374 . S
O503 Tb500 2.453 . S
O503 C519 1.245 . S
O504 Tb500 2.596 . S
O504 Tb502 2.343 . S
O504 C519 1.259 . S
O505 Tb500 2.374 . S
O505 C501 1.251 . S
C506 O510 1.275 . S
C506 O511 1.246 . S
O507 C501 1.263 . S
O507 Tb502 2.353 . S
C508 O512 1.245 . S
C508 O513 1.259 . S
C509 O514 1.250 . S
C509 O515 1.263 . S
O510 Tb502 2.427 . S
O510 C506 1.275 . S
O511 Tb502 2.513 . S
O511 C506 1.246 . S
O512 Tb502 2.453 . S
O512 C508 1.245 . S
O513 Tb500 2.343 . S
O513 Tb502 2.596 . S
O513 C508 1.259 . S
O514 Tb502 2.374 . S
O514 C509 1.250 . S
O515 Tb500 2.353 . S
O515 C509 1.263 . S
C516 O517 1.275 . S
C516 O518 1.246 . S
O517 Tb500 2.427 . S
O517 C516 1.275 . S
O518 Tb500 2.513 . S
O518 C516 1.246 . S
C519 O503 1.245 . S
C519 O504 1.259 . S
Tb520 O523 2.453 . S
Tb520 O524 2.596 . S
Tb520 O525 2.374 . S
Tb520 O533 2.343 . S
Tb520 O535 2.353 . S
Tb520 O537 2.427 . S
Tb520 O538 2.513 . S
C521 O525 1.251 . S
C521 O527 1.263 . S
Tb522 O524 2.343 . S
Tb522 O527 2.353 . S
Tb522 O530 2.427 . S
Tb522 O531 2.513 . S
Tb522 O532 2.453 . S
Tb522 O533 2.596 . S
Tb522 O534 2.374 . S
O523 Tb520 2.453 . S
O523 C539 1.245 . S
O524 Tb520 2.596 . S
O524 Tb522 2.343 . S
O524 C539 1.259 . S
O525 Tb520 2.374 . S
O525 C521 1.251 . S
C526 O530 1.275 . S
C526 O531 1.246 . S
O527 C521 1.263 . S
O527 Tb522 2.353 . S
C528 O532 1.245 . S
C528 O533 1.259 . S
C529 O534 1.250 . S
C529 O535 1.263 . S
O530 Tb522 2.427 . S
O530 C526 1.275 . S
O531 Tb522 2.513 . S
O531 C526 1.246 . S
O532 Tb522 2.453 . S
O532 C528 1.245 . S
O533 Tb520 2.343 . S
O533 Tb522 2.596 . S
O533 C528 1.259 . S
O534 Tb522 2.374 . S
O534 C529 1.250 . S
O535 Tb520 2.353 . S
O535 C529 1.263 . S
C536 O537 1.275 . S
C536 O538 1.246 . S
O537 Tb520 2.427 . S
O537 C536 1.275 . S
O538 Tb520 2.513 . S
O538 C536 1.246 . S
C539 O523 1.245 . S
C539 O524 1.259 . S
Tb540 O543 2.453 . S
Tb540 O544 2.596 . S
Tb540 O545 2.374 . S
Tb540 O553 2.343 . S
Tb540 O555 2.353 . S
Tb540 O557 2.427 . S
Tb540 O558 2.513 . S
C541 O545 1.251 . S
C541 O547 1.263 . S
Tb542 O544 2.343 . S
Tb542 O547 2.353 . S
Tb542 O550 2.427 . S
Tb542 O551 2.513 . S
Tb542 O552 2.453 . S
Tb542 O553 2.596 . S
Tb542 O554 2.374 . S
O543 Tb540 2.453 . S
O543 C559 1.245 . S
O544 Tb540 2.596 . S
O544 Tb542 2.343 . S
O544 C559 1.259 . S
O545 Tb540 2.374 . S
O545 C541 1.251 . S
C546 O550 1.275 . S
C546 O551 1.246 . S
O547 C541 1.263 . S
O547 Tb542 2.353 . S
C548 O552 1.245 . S
C548 O553 1.259 . S
C549 O554 1.250 . S
C549 O555 1.263 . S
O550 Tb542 2.427 . S
O550 C546 1.275 . S
O551 Tb542 2.513 . S
O551 C546 1.246 . S
O552 Tb542 2.453 . S
O552 C548 1.245 . S
O553 Tb540 2.343 . S
O553 Tb542 2.596 . S
O553 C548 1.259 . S
O554 Tb542 2.374 . S
O554 C549 1.250 . S
O555 Tb540 2.353 . S
O555 C549 1.263 . S
C556 O557 1.275 . S
C556 O558 1.246 . S
O557 Tb540 2.427 . S
O557 C556 1.275 . S
O558 Tb540 2.513 . S
O558 C556 1.246 . S
C559 O543 1.245 . S
C559 O544 1.259 . S
Tb560 O563 2.453 . S
Tb560 O564 2.596 . S
Tb560 O565 2.374 . S
Tb560 O573 2.343 . S
Tb560 O575 2.353 . S
Tb560 O577 2.427 . S
Tb560 O578 2.513 . S
C561 O565 1.251 . S
C561 O567 1.263 . S
Tb562 O564 2.343 . S
Tb562 O567 2.353 . S
Tb562 O570 2.427 . S
Tb562 O571 2.513 . S
Tb562 O572 2.453 . S
Tb562 O573 2.596 . S
Tb562 O574 2.374 . S
O563 Tb560 2.453 . S
O563 C579 1.245 . S
O564 Tb560 2.596 . S
O564 Tb562 2.343 . S
O564 C579 1.259 . S
O565 Tb560 2.374 . S
O565 C561 1.251 . S
C566 O570 1.275 . S
C566 O571 1.246 . S
O567 C561 1.263 . S
O567 Tb562 2.353 . S
C568 O572 1.245 . S
C568 O573 1.259 . S
C569 O574 1.250 . S
C569 O575 1.263 . S
O570 Tb562 2.427 . S
O570 C566 1.275 . S
O571 Tb562 2.513 . S
O571 C566 1.246 . S
O572 Tb562 2.453 . S
O572 C568 1.245 . S
O573 Tb560 2.343 . S
O573 Tb562 2.596 . S
O573 C568 1.259 . S
O574 Tb562 2.374 . S
O574 C569 1.250 . S
O575 Tb560 2.353 . S
O575 C569 1.263 . S
C576 O577 1.275 . S
C576 O578 1.246 . S
O577 Tb560 2.427 . S
O577 C576 1.275 . S
O578 Tb560 2.513 . S
O578 C576 1.246 . S
C579 O563 1.245 . S
C579 O564 1.259 . S
Tb580 O583 2.453 . S
Tb580 O584 2.596 . S
Tb580 O585 2.374 . S
Tb580 O593 2.343 . S
Tb580 O595 2.353 . S
Tb580 O597 2.427 . S
Tb580 O598 2.513 . S
C581 O585 1.251 . S
C581 O587 1.263 . S
Tb582 O584 2.343 . S
Tb582 O587 2.353 . S
Tb582 O590 2.427 . S
Tb582 O591 2.513 . S
Tb582 O592 2.453 . S
Tb582 O593 2.596 . S
Tb582 O594 2.374 . S
O583 Tb580 2.453 . S
O583 C599 1.245 . S
O584 Tb580 2.596 . S
O584 Tb582 2.343 . S
O584 C599 1.259 . S
O585 Tb580 2.374 . S
O585 C581 1.251 . S
C586 O590 1.275 . S
C586 O591 1.246 . S
O587 C581 1.263 . S
O587 Tb582 2.353 . S
C588 O592 1.245 . S
C588 O593 1.259 . S
C589 O594 1.250 . S
C589 O595 1.263 . S
O590 Tb582 2.427 . S
O590 C586 1.275 . S
O591 Tb582 2.513 . S
O591 C586 1.246 . S
O592 Tb582 2.453 . S
O592 C588 1.245 . S
O593 Tb580 2.343 . S
O593 Tb582 2.596 . S
O593 C588 1.259 . S
O594 Tb582 2.374 . S
O594 C589 1.250 . S
O595 Tb580 2.353 . S
O595 C589 1.263 . S
C596 O597 1.275 . S
C596 O598 1.246 . S
O597 Tb580 2.427 . S
O597 C596 1.275 . S
O598 Tb580 2.513 . S
O598 C596 1.246 . S
C599 O583 1.245 . S
C599 O584 1.259 . S
Tb600 O603 2.453 . S
Tb600 O604 2.596 . S
Tb600 O605 2.374 . S
Tb600 O613 2.343 . S
Tb600 O615 2.353 . S
Tb600 O617 2.427 . S
Tb600 O618 2.513 . S
C601 O605 1.251 . S
C601 O607 1.263 . S
Tb602 O604 2.343 . S
Tb602 O607 2.353 . S
Tb602 O610 2.427 . S
Tb602 O611 2.513 . S
Tb602 O612 2.453 . S
Tb602 O613 2.596 . S
Tb602 O614 2.374 . S
O603 Tb600 2.453 . S
O603 C619 1.245 . S
O604 Tb600 2.596 . S
O604 Tb602 2.343 . S
O604 C619 1.259 . S
O605 Tb600 2.374 . S
O605 C601 1.251 . S
C606 O610 1.275 . S
C606 O611 1.246 . S
O607 C601 1.263 . S
O607 Tb602 2.353 . S
C608 O612 1.245 . S
C608 O613 1.259 . S
C609 O614 1.250 . S
C609 O615 1.263 . S
O610 Tb602 2.427 . S
O610 C606 1.275 . S
O611 Tb602 2.513 . S
O611 C606 1.246 . S
O612 Tb602 2.453 . S
O612 C608 1.245 . S
O613 Tb600 2.343 . S
O613 Tb602 2.596 . S
O613 C608 1.259 . S
O614 Tb602 2.374 . S
O614 C609 1.250 . S
O615 Tb600 2.353 . S
O615 C609 1.263 . S
C616 O617 1.275 . S
C616 O618 1.246 . S
O617 Tb600 2.427 . S
O617 C616 1.275 . S
O618 Tb600 2.513 . S
O618 C616 1.246 . S
C619 O603 1.245 . S
C619 O604 1.259 . S
Tb620 O623 2.453 . S
Tb620 O624 2.596 . S
Tb620 O625 2.374 . S
Tb620 O633 2.343 . S
Tb620 O635 2.353 . S
Tb620 O637 2.427 . S
Tb620 O638 2.513 . S
C621 O625 1.251 . S
C621 O627 1.263 . S
Tb622 O624 2.343 . S
Tb622 O627 2.353 . S
Tb622 O630 2.427 . S
Tb622 O631 2.513 . S
Tb622 O632 2.453 . S
Tb622 O633 2.596 . S
Tb622 O634 2.374 . S
O623 Tb620 2.453 . S
O623 C639 1.245 . S
O624 Tb620 2.596 . S
O624 Tb622 2.343 . S
O624 C639 1.259 . S
O625 Tb620 2.374 . S
O625 C621 1.251 . S
C626 O630 1.275 . S
C626 O631 1.246 . S
O627 C621 1.263 . S
O627 Tb622 2.353 . S
C628 O632 1.245 . S
C628 O633 1.259 . S
C629 O634 1.250 . S
C629 O635 1.263 . S
O630 Tb622 2.427 . S
O630 C626 1.275 . S
O631 Tb622 2.513 . S
O631 C626 1.246 . S
O632 Tb622 2.453 . S
O632 C628 1.245 . S
O633 Tb620 2.343 . S
O633 Tb622 2.596 . S
O633 C628 1.259 . S
O634 Tb622 2.374 . S
O634 C629 1.250 . S
O635 Tb620 2.353 . S
O635 C629 1.263 . S
C636 O637 1.275 . S
C636 O638 1.246 . S
O637 Tb620 2.427 . S
O637 C636 1.275 . S
O638 Tb620 2.513 . S
O638 C636 1.246 . S
C639 O623 1.245 . S
C639 O624 1.259 . S
Tb640 O643 2.453 . S
Tb640 O644 2.596 . S
Tb640 O645 2.374 . S
Tb640 O653 2.343 . S
Tb640 O655 2.353 . S
Tb640 O657 2.427 . S
Tb640 O658 2.513 . S
C641 O645 1.251 . S
C641 O647 1.263 . S
Tb642 O644 2.343 . S
Tb642 O647 2.353 . S
Tb642 O650 2.427 . S
Tb642 O651 2.513 . S
Tb642 O652 2.453 . S
Tb642 O653 2.596 . S
Tb642 O654 2.374 . S
O643 Tb640 2.453 . S
O643 C659 1.245 . S
O644 Tb640 2.596 . S
O644 Tb642 2.343 . S
O644 C659 1.259 . S
O645 Tb640 2.374 . S
O645 C641 1.251 . S
C646 O650 1.275 . S
C646 O651 1.246 . S
O647 C641 1.263 . S
O647 Tb642 2.353 . S
C648 O652 1.245 . S
C648 O653 1.259 . S
C649 O654 1.250 . S
C649 O655 1.263 . S
O650 Tb642 2.427 . S
O650 C646 1.275 . S
O651 Tb642 2.513 . S
O651 C646 1.246 . S
O652 Tb642 2.453 . S
O652 C648 1.245 . S
O653 Tb640 2.343 . S
O653 Tb642 2.596 . S
O653 C648 1.259 . S
O654 Tb642 2.374 . S
O654 C649 1.250 . S
O655 Tb640 2.353 . S
O655 C649 1.263 . S
C656 O657 1.275 . S
C656 O658 1.246 . S
O657 Tb640 2.427 . S
O657 C656 1.275 . S
O658 Tb640 2.513 . S
O658 C656 1.246 . S
C659 O643 1.245 . S
C659 O644 1.259 . S
Tb660 O663 2.453 . S
Tb660 O664 2.596 . S
Tb660 O665 2.374 . S
Tb660 O673 2.343 . S
Tb660 O675 2.353 . S
Tb660 O677 2.427 . S
Tb660 O678 2.513 . S
C661 O665 1.251 . S
C661 O667 1.263 . S
Tb662 O664 2.343 . S
Tb662 O667 2.353 . S
Tb662 O670 2.427 . S
Tb662 O671 2.513 . S
Tb662 O672 2.453 . S
Tb662 O673 2.596 . S
Tb662 O674 2.374 . S
O663 Tb660 2.453 . S
O663 C679 1.245 . S
O664 Tb660 2.596 . S
O664 Tb662 2.343 . S
O664 C679 1.259 . S
O665 Tb660 2.374 . S
O665 C661 1.251 . S
C666 O670 1.275 . S
C666 O671 1.246 . S
O667 C661 1.263 . S
O667 Tb662 2.353 . S
C668 O672 1.245 . S
C668 O673 1.259 . S
C669 O674 1.250 . S
C669 O675 1.263 . S
O670 Tb662 2.427 . S
O670 C666 1.275 . S
O671 Tb662 2.513 . S
O671 C666 1.246 . S
O672 Tb662 2.453 . S
O672 C668 1.245 . S
O673 Tb660 2.343 . S
O673 Tb662 2.596 . S
O673 C668 1.259 . S
O674 Tb662 2.374 . S
O674 C669 1.250 . S
O675 Tb660 2.353 . S
O675 C669 1.263 . S
C676 O677 1.275 . S
C676 O678 1.246 . S
O677 Tb660 2.427 . S
O677 C676 1.275 . S
O678 Tb660 2.513 . S
O678 C676 1.246 . S
C679 O663 1.245 . S
C679 O664 1.259 . S
Tb680 O683 2.453 . S
Tb680 O684 2.596 . S
Tb680 O685 2.374 . S
Tb680 O693 2.343 . S
Tb680 O695 2.353 . S
Tb680 O697 2.427 . S
Tb680 O698 2.513 . S
C681 O685 1.251 . S
C681 O687 1.263 . S
Tb682 O684 2.343 . S
Tb682 O687 2.353 . S
Tb682 O690 2.427 . S
Tb682 O691 2.513 . S
Tb682 O692 2.453 . S
Tb682 O693 2.596 . S
Tb682 O694 2.374 . S
O683 Tb680 2.453 . S
O683 C699 1.245 . S
O684 Tb680 2.596 . S
O684 Tb682 2.343 . S
O684 C699 1.259 . S
O685 Tb680 2.374 . S
O685 C681 1.251 . S
C686 O690 1.275 . S
C686 O691 1.246 . S
O687 C681 1.263 . S
O687 Tb682 2.353 . S
C688 O692 1.245 . S
C688 O693 1.259 . S
C689 O694 1.250 . S
C689 O695 1.263 . S
O690 Tb682 2.427 . S
O690 C686 1.275 . S
O691 Tb682 2.513 . S
O691 C686 1.246 . S
O692 Tb682 2.453 . S
O692 C688 1.245 . S
O693 Tb680 2.343 . S
O693 Tb682 2.596 . S
O693 C688 1.259 . S
O694 Tb682 2.374 . S
O694 C689 1.250 . S
O695 Tb680 2.353 . S
O695 C689 1.263 . S
C696 O697 1.275 . S
C696 O698 1.246 . S
O697 Tb680 2.427 . S
O697 C696 1.275 . S
O698 Tb680 2.513 . S
O698 C696 1.246 . S
C699 O683 1.245 . S
C699 O684 1.259 . S
Tb700 O703 2.453 . S
Tb700 O704 2.596 . S
Tb700 O705 2.374 . S
Tb700 O713 2.343 . S
Tb700 O715 2.353 . S
Tb700 O717 2.427 . S
Tb700 O718 2.513 . S
C701 O705 1.251 . S
C701 O707 1.263 . S
Tb702 O704 2.343 . S
Tb702 O707 2.353 . S
Tb702 O710 2.427 . S
Tb702 O711 2.513 . S
Tb702 O712 2.453 . S
Tb702 O713 2.596 . S
Tb702 O714 2.374 . S
O703 Tb700 2.453 . S
O703 C719 1.245 . S
O704 Tb700 2.596 . S
O704 Tb702 2.343 . S
O704 C719 1.259 . S
O705 Tb700 2.374 . S
O705 C701 1.251 . S
C706 O710 1.275 . S
C706 O711 1.246 . S
O707 C701 1.263 . S
O707 Tb702 2.353 . S
C708 O712 1.245 . S
C708 O713 1.259 . S
C709 O714 1.250 . S
C709 O715 1.263 . S
O710 Tb702 2.427 . S
O710 C706 1.275 . S
O711 Tb702 2.513 . S
O711 C706 1.246 . S
O712 Tb702 2.453 . S
O712 C708 1.245 . S
O713 Tb700 2.343 . S
O713 Tb702 2.596 . S
O713 C708 1.259 . S
O714 Tb702 2.374 . S
O714 C709 1.250 . S
O715 Tb700 2.353 . S
O715 C709 1.263 . S
C716 O717 1.275 . S
C716 O718 1.246 . S
O717 Tb700 2.427 . S
O717 C716 1.275 . S
O718 Tb700 2.513 . S
O718 C716 1.246 . S
C719 O703 1.245 . S
C719 O704 1.259 . S
Tb720 O723 2.453 . S
Tb720 O724 2.596 . S
Tb720 O725 2.374 . S
Tb720 O733 2.343 . S
Tb720 O735 2.353 . S
Tb720 O737 2.427 . S
Tb720 O738 2.513 . S
C721 O725 1.251 . S
C721 O727 1.263 . S
Tb722 O724 2.343 . S
Tb722 O727 2.353 . S
Tb722 O730 2.427 . S
Tb722 O731 2.513 . S
Tb722 O732 2.453 . S
Tb722 O733 2.596 . S
Tb722 O734 2.374 . S
O723 Tb720 2.453 . S
O723 C739 1.245 . S
O724 Tb720 2.596 . S
O724 Tb722 2.343 . S
O724 C739 1.259 . S
O725 Tb720 2.374 . S
O725 C721 1.251 . S
C726 O730 1.275 . S
C726 O731 1.246 . S
O727 C721 1.263 . S
O727 Tb722 2.353 . S
C728 O732 1.245 . S
C728 O733 1.259 . S
C729 O734 1.250 . S
C729 O735 1.263 . S
O730 Tb722 2.427 . S
O730 C726 1.275 . S
O731 Tb722 2.513 . S
O731 C726 1.246 . S
O732 Tb722 2.453 . S
O732 C728 1.245 . S
O733 Tb720 2.343 . S
O733 Tb722 2.596 . S
O733 C728 1.259 . S
O734 Tb722 2.374 . S
O734 C729 1.250 . S
O735 Tb720 2.353 . S
O735 C729 1.263 . S
C736 O737 1.275 . S
C736 O738 1.246 . S
O737 Tb720 2.427 . S
O737 C736 1.275 . S
O738 Tb720 2.513 . S
O738 C736 1.246 . S
C739 O723 1.245 . S
C739 O724 1.259 . S
Tb740 O743 2.453 . S
Tb740 O744 2.596 . S
Tb740 O745 2.374 . S
Tb740 O753 2.343 . S
Tb740 O755 2.353 . S
Tb740 O757 2.427 . S
Tb740 O758 2.513 . S
C741 O745 1.251 . S
C741 O747 1.263 . S
Tb742 O744 2.343 . S
Tb742 O747 2.353 . S
Tb742 O750 2.427 . S
Tb742 O751 2.513 . S
Tb742 O752 2.453 . S
Tb742 O753 2.596 . S
Tb742 O754 2.374 . S
O743 Tb740 2.453 . S
O743 C759 1.245 . S
O744 Tb740 2.596 . S
O744 Tb742 2.343 . S
O744 C759 1.259 . S
O745 Tb740 2.374 . S
O745 C741 1.251 . S
C746 O750 1.275 . S
C746 O751 1.246 . S
O747 C741 1.263 . S
O747 Tb742 2.353 . S
C748 O752 1.245 . S
C748 O753 1.259 . S
C749 O754 1.250 . S
C749 O755 1.263 . S
O750 Tb742 2.427 . S
O750 C746 1.275 . S
O751 Tb742 2.513 . S
O751 C746 1.246 . S
O752 Tb742 2.453 . S
O752 C748 1.245 . S
O753 Tb740 2.343 . S
O753 Tb742 2.596 . S
O753 C748 1.259 . S
O754 Tb742 2.374 . S
O754 C749 1.250 . S
O755 Tb740 2.353 . S
O755 C749 1.263 . S
C756 O757 1.275 . S
C756 O758 1.246 . S
O757 Tb740 2.427 . S
O757 C756 1.275 . S
O758 Tb740 2.513 . S
O758 C756 1.246 . S
C759 O743 1.245 . S
C759 O744 1.259 . S
Tb760 O763 2.453 . S
Tb760 O764 2.596 . S
Tb760 O765 2.374 . S
Tb760 O773 2.343 . S
Tb760 O775 2.353 . S
Tb760 O777 2.427 . S
Tb760 O778 2.513 . S
C761 O765 1.251 . S
C761 O767 1.263 . S
Tb762 O764 2.343 . S
Tb762 O767 2.353 . S
Tb762 O770 2.427 . S
Tb762 O771 2.513 . S
Tb762 O772 2.453 . S
Tb762 O773 2.596 . S
Tb762 O774 2.374 . S
O763 Tb760 2.453 . S
O763 C779 1.245 . S
O764 Tb760 2.596 . S
O764 Tb762 2.343 . S
O764 C779 1.259 . S
O765 Tb760 2.374 . S
O765 C761 1.251 . S
C766 O770 1.275 . S
C766 O771 1.246 . S
O767 C761 1.263 . S
O767 Tb762 2.353 . S
C768 O772 1.245 . S
C768 O773 1.259 . S
C769 O774 1.250 . S
C769 O775 1.263 . S
O770 Tb762 2.427 . S
O770 C766 1.275 . S
O771 Tb762 2.513 . S
O771 C766 1.246 . S
O772 Tb762 2.453 . S
O772 C768 1.245 . S
O773 Tb760 2.343 . S
O773 Tb762 2.596 . S
O773 C768 1.259 . S
O774 Tb762 2.374 . S
O774 C769 1.250 . S
O775 Tb760 2.353 . S
O775 C769 1.263 . S
C776 O777 1.275 . S
C776 O778 1.246 . S
O777 Tb760 2.427 . S
O777 C776 1.275 . S
O778 Tb760 2.513 . S
O778 C776 1.246 . S
C779 O763 1.245 . S
C779 O764 1.259 . S
Tb780 O783 2.453 . S
Tb780 O784 2.596 . S
Tb780 O785 2.374 . S
Tb780 O793 2.343 . S
Tb780 O795 2.353 . S
Tb780 O797 2.427 . S
Tb780 O798 2.513 . S
C781 O785 1.251 . S
C781 O787 1.263 . S
Tb782 O784 2.343 . S
Tb782 O787 2.353 . S
Tb782 O790 2.427 . S
Tb782 O791 2.513 . S
Tb782 O792 2.453 . S
Tb782 O793 2.596 . S
Tb782 O794 2.374 . S
O783 Tb780 2.453 . S
O783 C799 1.245 . S
O784 Tb780 2.596 . S
O784 Tb782 2.343 . S
O784 C799 1.259 . S
O785 Tb780 2.374 . S
O785 C781 1.251 . S
C786 O790 1.275 . S
C786 O791 1.246 . S
O787 C781 1.263 . S
O787 Tb782 2.353 . S
C788 O792 1.245 . S
C788 O793 1.259 . S
C789 O794 1.250 . S
C789 O795 1.263 . S
O790 Tb782 2.427 . S
O790 C786 1.275 . S
O791 Tb782 2.513 . S
O791 C786 1.246 . S
O792 Tb782 2.453 . S
O792 C788 1.245 . S
O793 Tb780 2.343 . S
O793 Tb782 2.596 . S
O793 C788 1.259 . S
O794 Tb782 2.374 . S
O794 C789 1.250 . S
O795 Tb780 2.353 . S
O795 C789 1.263 . S
C796 O797 1.275 . S
C796 O798 1.246 . S
O797 Tb780 2.427 . S
O797 C796 1.275 . S
O798 Tb780 2.513 . S
O798 C796 1.246 . S
C799 O783 1.245 . S
C799 O784 1.259 . S
Tb800 O803 2.453 . S
Tb800 O804 2.596 . S
Tb800 O805 2.374 . S
Tb800 O813 2.343 . S
Tb800 O815 2.353 . S
Tb800 O817 2.427 . S
Tb800 O818 2.513 . S
C801 O805 1.251 . S
C801 O807 1.263 . S
Tb802 O804 2.343 . S
Tb802 O807 2.353 . S
Tb802 O810 2.427 . S
Tb802 O811 2.513 . S
Tb802 O812 2.453 . S
Tb802 O813 2.596 . S
Tb802 O814 2.374 . S
O803 Tb800 2.453 . S
O803 C819 1.245 . S
O804 Tb800 2.596 . S
O804 Tb802 2.343 . S
O804 C819 1.259 . S
O805 Tb800 2.374 . S
O805 C801 1.251 . S
C806 O810 1.275 . S
C806 O811 1.246 . S
O807 C801 1.263 . S
O807 Tb802 2.353 . S
C808 O812 1.245 . S
C808 O813 1.259 . S
C809 O814 1.250 . S
C809 O815 1.263 . S
O810 Tb802 2.427 . S
O810 C806 1.275 . S
O811 Tb802 2.513 . S
O811 C806 1.246 . S
O812 Tb802 2.453 . S
O812 C808 1.245 . S
O813 Tb800 2.343 . S
O813 Tb802 2.596 . S
O813 C808 1.259 . S
O814 Tb802 2.374 . S
O814 C809 1.250 . S
O815 Tb800 2.353 . S
O815 C809 1.263 . S
C816 O817 1.275 . S
C816 O818 1.246 . S
O817 Tb800 2.427 . S
O817 C816 1.275 . S
O818 Tb800 2.513 . S
O818 C816 1.246 . S
C819 O803 1.245 . S
C819 O804 1.259 . S
Tb820 O823 2.453 . S
Tb820 O824 2.596 . S
Tb820 O825 2.374 . S
Tb820 O833 2.343 . S
Tb820 O835 2.353 . S
Tb820 O837 2.427 . S
Tb820 O838 2.513 . S
C821 O825 1.251 . S
C821 O827 1.263 . S
Tb822 O824 2.343 . S
Tb822 O827 2.353 . S
Tb822 O830 2.427 . S
Tb822 O831 2.513 . S
Tb822 O832 2.453 . S
Tb822 O833 2.596 . S
Tb822 O834 2.374 . S
O823 Tb820 2.453 . S
O823 C839 1.245 . S
O824 Tb820 2.596 . S
O824 Tb822 2.343 . S
O824 C839 1.259 . S
O825 Tb820 2.374 . S
O825 C821 1.251 . S
C826 O830 1.275 . S
C826 O831 1.246 . S
O827 C821 1.263 . S
O827 Tb822 2.353 . S
C828 O832 1.245 . S
C828 O833 1.259 . S
C829 O834 1.250 . S
C829 O835 1.263 . S
O830 Tb822 2.427 . S
O830 C826 1.275 . S
O831 Tb822 2.513 . S
O831 C826 1.246 . S
O832 Tb822 2.453 . S
O832 C828 1.245 . S
O833 Tb820 2.343 . S
O833 Tb822 2.596 . S
O833 C828 1.259 . S
O834 Tb822 2.374 . S
O834 C829 1.250 . S
O835 Tb820 2.353 . S
O835 C829 1.263 . S
C836 O837 1.275 . S
C836 O838 1.246 . S
O837 Tb820 2.427 . S
O837 C836 1.275 . S
O838 Tb820 2.513 . S
O838 C836 1.246 . S
C839 O823 1.245 . S
C839 O824 1.259 . S
Tb840 O843 2.453 . S
Tb840 O844 2.596 . S
Tb840 O845 2.374 . S
Tb840 O853 2.343 . S
Tb840 O855 2.353 . S
Tb840 O857 2.427 . S
Tb840 O858 2.513 . S
C841 O845 1.251 . S
C841 O847 1.263 . S
Tb842 O844 2.343 . S
Tb842 O847 2.353 . S
Tb842 O850 2.427 . S
Tb842 O851 2.513 . S
Tb842 O852 2.453 . S
Tb842 O853 2.596 . S
Tb842 O854 2.374 . S
O843 Tb840 2.453 . S
O843 C859 1.245 . S
O844 Tb840 2.596 . S
O844 Tb842 2.343 . S
O844 C859 1.259 . S
O845 Tb840 2.374 . S
O845 C841 1.251 . S
C846 O850 1.275 . S
C846 O851 1.246 . S
O847 C841 1.263 . S
O847 Tb842 2.353 . S
C848 O852 1.245 . S
C848 O853 1.259 . S
C849 O854 1.250 . S
C849 O855 1.263 . S
O850 Tb842 2.427 . S
O850 C846 1.275 . S
O851 Tb842 2.513 . S
O851 C846 1.246 . S
O852 Tb842 2.453 . S
O852 C848 1.245 . S
O853 Tb840 2.343 . S
O853 Tb842 2.596 . S
O853 C848 1.259 . S
O854 Tb842 2.374 . S
O854 C849 1.250 . S
O855 Tb840 2.353 . S
O855 C849 1.263 . S
C856 O857 1.275 . S
C856 O858 1.246 . S
O857 Tb840 2.427 . S
O857 C856 1.275 . S
O858 Tb840 2.513 . S
O858 C856 1.246 . S
C859 O843 1.245 . S
C859 O844 1.259 . S
Tb860 O863 2.453 . S
Tb860 O864 2.596 . S
Tb860 O865 2.374 . S
Tb860 O873 2.343 . S
Tb860 O875 2.353 . S
Tb860 O877 2.427 . S
Tb860 O878 2.513 . S
C861 O865 1.251 . S
C861 O867 1.263 . S
Tb862 O864 2.343 . S
Tb862 O867 2.353 . S
Tb862 O870 2.427 . S
Tb862 O871 2.513 . S
Tb862 O872 2.453 . S
Tb862 O873 2.596 . S
Tb862 O874 2.374 . S
O863 Tb860 2.453 . S
O863 C879 1.245 . S
O864 Tb860 2.596 . S
O864 Tb862 2.343 . S
O864 C879 1.259 . S
O865 Tb860 2.374 . S
O865 C861 1.251 . S
C866 O870 1.275 . S
C866 O871 1.246 . S
O867 C861 1.263 . S
O867 Tb862 2.353 . S
C868 O872 1.245 . S
C868 O873 1.259 . S
C869 O874 1.250 . S
C869 O875 1.263 . S
O870 Tb862 2.427 . S
O870 C866 1.275 . S
O871 Tb862 2.513 . S
O871 C866 1.246 . S
O872 Tb862 2.453 . S
O872 C868 1.245 . S
O873 Tb860 2.343 . S
O873 Tb862 2.596 . S
O873 C868 1.259 . S
O874 Tb862 2.374 . S
O874 C869 1.250 . S
O875 Tb860 2.353 . S
O875 C869 1.263 . S
C876 O877 1.275 . S
C876 O878 1.246 . S
O877 Tb860 2.427 . S
O877 C876 1.275 . S
O878 Tb860 2.513 . S
O878 C876 1.246 . S
C879 O863 1.245 . S
C879 O864 1.259 . S
Tb880 O883 2.453 . S
Tb880 O884 2.596 . S
Tb880 O885 2.374 . S
Tb880 O893 2.343 . S
Tb880 O895 2.353 . S
Tb880 O897 2.427 . S
Tb880 O898 2.513 . S
C881 O885 1.251 . S
C881 O887 1.263 . S
Tb882 O884 2.343 . S
Tb882 O887 2.353 . S
Tb882 O890 2.427 . S
Tb882 O891 2.513 . S
Tb882 O892 2.453 . S
Tb882 O893 2.596 . S
Tb882 O894 2.374 . S
O883 Tb880 2.453 . S
O883 C899 1.245 . S
O884 Tb880 2.596 . S
O884 Tb882 2.343 . S
O884 C899 1.259 . S
O885 Tb880 2.374 . S
O885 C881 1.251 . S
C886 O890 1.275 . S
C886 O891 1.246 . S
O887 C881 1.263 . S
O887 Tb882 2.353 . S
C888 O892 1.245 . S
C888 O893 1.259 . S
C889 O894 1.250 . S
C889 O895 1.263 . S
O890 Tb882 2.427 . S
O890 C886 1.275 . S
O891 Tb882 2.513 . S
O891 C886 1.246 . S
O892 Tb882 2.453 . S
O892 C888 1.245 . S
O893 Tb880 2.343 . S
O893 Tb882 2.596 . S
O893 C888 1.259 . S
O894 Tb882 2.374 . S
O894 C889 1.250 . S
O895 Tb880 2.353 . S
O895 C889 1.263 . S
C896 O897 1.275 . S
C896 O898 1.246 . S
O897 Tb880 2.427 . S
O897 C896 1.275 . S
O898 Tb880 2.513 . S
O898 C896 1.246 . S
C899 O883 1.245 . S
C899 O884 1.259 . S
Tb900 O903 2.453 . S
Tb900 O904 2.596 . S
Tb900 O905 2.374 . S
Tb900 O913 2.343 . S
Tb900 O915 2.353 . S
Tb900 O917 2.427 . S
Tb900 O918 2.513 . S
C901 O905 1.251 . S
C901 O907 1.263 . S
Tb902 O904 2.343 . S
Tb902 O907 2.353 . S
Tb902 O910 2.427 . S
Tb902 O911 2.513 . S
Tb902 O912 2.453 . S
Tb902 O913 2.596 . S
Tb902 O914 2.374 . S
O903 Tb900 2.453 . S
O903 C919 1.245 . S
O904 Tb900 2.596 . S
O904 Tb902 2.343 . S
O904 C919 1.259 . S
O905 Tb900 2.374 . S
O905 C901 1.251 . S
C906 O910 1.275 . S
C906 O911 1.246 . S
O907 C901 1.263 . S
O907 Tb902 2.353 . S
C908 O912 1.245 . S
C908 O913 1.259 . S
C909 O914 1.250 . S
C909 O915 1.263 . S
O910 Tb902 2.427 . S
O910 C906 1.275 . S
O911 Tb902 2.513 . S
O911 C906 1.246 . S
O912 Tb902 2.453 . S
O912 C908 1.245 . S
O913 Tb900 2.343 . S
O913 Tb902 2.596 . S
O913 C908 1.259 . S
O914 Tb902 2.374 . S
O914 C909 1.250 . S
O915 Tb900 2.353 . S
O915 C909 1.263 . S
C916 O917 1.275 . S
C916 O918 1.246 . S
O917 Tb900 2.427 . S
O917 C916 1.275 . S
O918 Tb900 2.513 . S
O918 C916 1.246 . S
C919 O903 1.245 . S
C919 O904 1.259 . S
Tb920 O923 2.453 . S
Tb920 O924 2.596 . S
Tb920 O925 2.374 . S
Tb920 O933 2.343 . S
Tb920 O935 2.353 . S
Tb920 O937 2.427 . S
Tb920 O938 2.513 . S
C921 O925 1.251 . S
C921 O927 1.263 . S
Tb922 O924 2.343 . S
Tb922 O927 2.353 . S
Tb922 O930 2.427 . S
Tb922 O931 2.513 . S
Tb922 O932 2.453 . S
Tb922 O933 2.596 . S
Tb922 O934 2.374 . S
O923 Tb920 2.453 . S
O923 C939 1.245 . S
O924 Tb920 2.596 . S
O924 Tb922 2.343 . S
O924 C939 1.259 . S
O925 Tb920 2.374 . S
O925 C921 1.251 . S
C926 O930 1.275 . S
C926 O931 1.246 . S
O927 C921 1.263 . S
O927 Tb922 2.353 . S
C928 O932 1.245 . S
C928 O933 1.259 . S
C929 O934 1.250 . S
C929 O935 1.263 . S
O930 Tb922 2.427 . S
O930 C926 1.275 . S
O931 Tb922 2.513 . S
O931 C926 1.246 . S
O932 Tb922 2.453 . S
O932 C928 1.245 . S
O933 Tb920 2.343 . S
O933 Tb922 2.596 . S
O933 C928 1.259 . S
O934 Tb922 2.374 . S
O934 C929 1.250 . S
O935 Tb920 2.353 . S
O935 C929 1.263 . S
C936 O937 1.275 . S
C936 O938 1.246 . S
O937 Tb920 2.427 . S
O937 C936 1.275 . S
O938 Tb920 2.513 . S
O938 C936 1.246 . S
C939 O923 1.245 . S
C939 O924 1.259 . S
Tb940 O943 2.453 . S
Tb940 O944 2.596 . S
Tb940 O945 2.374 . S
Tb940 O953 2.343 . S
Tb940 O955 2.353 . S
Tb940 O957 2.427 . S
Tb940 O958 2.513 . S
C941 O945 1.251 . S
C941 O947 1.263 . S
Tb942 O944 2.343 . S
Tb942 O947 2.353 . S
Tb942 O950 2.427 . S
Tb942 O951 2.513 . S
Tb942 O952 2.453 . S
Tb942 O953 2.596 . S
Tb942 O954 2.374 . S
O943 Tb940 2.453 . S
O943 C959 1.245 . S
O944 Tb940 2.596 . S
O944 Tb942 2.343 . S
O944 C959 1.259 . S
O945 Tb940 2.374 . S
O945 C941 1.251 . S
C946 O950 1.275 . S
C946 O951 1.246 . S
O947 C941 1.263 . S
O947 Tb942 2.353 . S
C948 O952 1.245 . S
C948 O953 1.259 . S
C949 O954 1.250 . S
C949 O955 1.263 . S
O950 Tb942 2.427 . S
O950 C946 1.275 . S
O951 Tb942 2.513 . S
O951 C946 1.246 . S
O952 Tb942 2.453 . S
O952 C948 1.245 . S
O953 Tb940 2.343 . S
O953 Tb942 2.596 . S
O953 C948 1.259 . S
O954 Tb942 2.374 . S
O954 C949 1.250 . S
O955 Tb940 2.353 . S
O955 C949 1.263 . S
C956 O957 1.275 . S
C956 O958 1.246 . S
O957 Tb940 2.427 . S
O957 C956 1.275 . S
O958 Tb940 2.513 . S
O958 C956 1.246 . S
C959 O943 1.245 . S
C959 O944 1.259 . S
C129 C9 2.918 . S
C141 C21 2.806 . S
C89 C49 2.885 . S
C109 C69 2.973 . S
C209 C169 2.946 1_545 S
C229 C189 2.877 . S
C289 C249 2.885 . S
C309 C269 2.931 1_455 S
C349 C329 2.829 . S
C469 C369 2.973 . S
C421 C389 2.935 . S
C401 C449 2.935 . S
C489 C609 2.918 1_556 S
C501 C621 2.806 1_556 S
C529 C569 2.885 1_556 S
C549 C589 2.973 1_556 S
C649 C689 2.946 1_655 S
C669 C709 2.877 1_565 S
C729 C769 2.886 1_655 S
C789 C749 2.932 1_545 S
C809 C829 2.829 1_565 S
C949 C849 2.973 1_455 S
C869 C901 2.935 1_565 S
C881 C929 2.935 1_455 S
C1 C181 3.186 . S
C29 C201 3.438 1_565 S
C41 C221 2.919 . S
C161 C61 2.950 . S
C301 C81 3.208 . S
C241 C101 3.389 . S
C261 C121 3.132 . S
C149 C281 2.725 . S
C361 C321 3.160 . S
C441 C341 3.163 . S
C381 C461 3.146 . S
C429 C409 3.380 . S
C481 C661 3.186 . S
C681 C509 3.438 . S
C701 C521 2.919 . S
C541 C641 2.950 . S
C781 C561 3.208 . S
C581 C721 3.389 . S
C601 C741 3.132 . S
C629 C761 2.725 . S
C801 C841 3.160 . S
C921 C821 3.163 . S
C941 C861 3.146 . S
C889 C909 3.380 . S
C19 C66 1.752 . S
C6 C36 0.827 . S
C59 C28 1.672 . S
C79 C46 0.560 . S
C106 C99 0.938 . S
C126 C119 1.654 . S
C139 C148 1.592 . S
C86 C156 0.409 . S
C179 C366 0.895 . S
C199 C386 1.198 . S
C219 C408 1.270 . S
C239 C346 1.140 . S
C259 C446 1.079 . S
C326 C279 1.135 . S
C466 C299 0.777 . S
C319 C428 1.559 . S
C339 C186 0.576 . S
C359 C306 1.065 . S
C379 C246 0.715 . S
C266 C399 0.595 . S
C286 C416 0.501 . S
C226 C436 0.415 . S
C166 C459 0.532 . S
C479 C206 1.206 . S
C499 C546 1.752 . S
C516 C486 0.826 . S
C508 C539 1.672 . S
C526 C559 0.560 . S
C579 C586 0.938 . S
C606 C599 1.654 . S
C628 C619 1.592 . S
C636 C566 0.409 . S
C659 C846 0.895 . S
C866 C679 1.198 . S
C888 C699 1.270 . S
C719 C826 1.140 . S
C926 C739 1.080 . S
C759 C806 1.136 . S
C779 C946 0.776 . S
C799 C908 1.559 . S
C666 C819 0.577 . S
C786 C839 1.065 . S
C726 C859 0.713 . S
C879 C746 0.593 . S
C766 C896 0.500 . S
C916 C706 0.415 . S
C939 C646 0.531 . S
C686 C959 1.206 . S
C16 C899 1.682 . S
C836 C39 1.713 . S
C56 C856 1.926 . S
C76 C876 2.015 . S
C96 C956 2.125 . S
C116 C919 1.714 . S
C136 C936 1.948 . S
C159 C816 1.805 . S
C176 C796 1.882 . S
C196 C736 2.305 . S
C216 C756 1.788 . S
C236 C776 2.300 . S
C256 C676 2.305 . S
C276 C696 1.787 . S
C296 C716 2.300 . S
C316 C656 1.882 . S
C336 C639 1.805 . S
C356 C519 1.713 . S
C376 C536 1.926 . S
C396 C556 2.015 . S
C419 C496 1.682 1_554 S
C439 C596 1.714 . S
C456 C616 1.948 . S
C476 C576 2.125 . S
C88 C848 2.127 . S
C108 C868 1.674 . S
C128 C886 1.317 . S
C146 C828 1.221 . S
C8 C928 1.704 . S
C26 C808 1.252 . S
C48 C948 2.436 . S
C906 C68 1.074 . S
C288 C668 2.000 . S
C308 C688 2.453 . S
C248 C708 2.104 . S
C268 C648 2.316 . S
C208 C788 2.453 . S
C228 C728 2.104 . S
C168 C748 2.314 . S
C188 C768 2.000 . S
C426 C548 1.074 . S
C388 C588 1.674 . S
C406 C608 1.317 . S
C348 C626 1.221 . S
C368 C568 2.127 . S
C328 C506 1.252 . S
C468 C528 2.436 . S
C448 C488 1.704 . S
