# Generated by pormake.
# Topology lcy-e, (6)-cn, num edge types: 1
# Building blocks:
#     Node 0, Type 0, BuildingBlock: NUHQIS_clean_sbu_0, # of connection points: 6
#     Node 1, Type 0, BuildingBlock: NUHQIS_clean_sbu_0, # of connection points: 6
#     Node 2, Type 0, BuildingBlock: NUHQIS_clean_sbu_0, # of connection points: 6
#     Node 3, Type 0, BuildingBlock: NUHQIS_clean_sbu_0, # of connection points: 6
#     Node 4, Type 0, BuildingBlock: NUHQIS_clean_sbu_0, # of connection points: 6
#     Node 5, Type 0, BuildingBlock: NUHQIS_clean_sbu_0, # of connection points: 6
#     Node 6, Type 0, BuildingBlock: NUHQIS_clean_sbu_0, # of connection points: 6
#     Node 7, Type 0, BuildingBlock: NUHQIS_clean_sbu_0, # of connection points: 6
#     Node 8, Type 0, BuildingBlock: NUHQIS_clean_sbu_0, # of connection points: 6
#     Node 9, Type 0, BuildingBlock: NUHQIS_clean_sbu_0, # of connection points: 6
#     Node 10, Type 0, BuildingBlock: NUHQIS_clean_sbu_0, # of connection points: 6
#     Node 11, Type 0, BuildingBlock: NUHQIS_clean_sbu_0, # of connection points: 6
#     Edge 12, Type (0, 0), BuildingBlock: ZUJKAS_clean_linker_0, # of connection points: 2
#     Edge 13, Type (0, 0), BuildingBlock: ZUJKAS_clean_linker_0, # of connection points: 2
#     Edge 14, Type (0, 0), BuildingBlock: ZUJKAS_clean_linker_0, # of connection points: 2
#     Edge 15, Type (0, 0), BuildingBlock: ZUJKAS_clean_linker_0, # of connection points: 2
#     Edge 16, Type (0, 0), BuildingBlock: ZUJKAS_clean_linker_0, # of connection points: 2
#     Edge 17, Type (0, 0), BuildingBlock: ZUJKAS_clean_linker_0, # of connection points: 2
#     Edge 18, Type (0, 0), BuildingBlock: ZUJKAS_clean_linker_0, # of connection points: 2
#     Edge 19, Type (0, 0), BuildingBlock: ZUJKAS_clean_linker_0, # of connection points: 2
#     Edge 20, Type (0, 0), BuildingBlock: ZUJKAS_clean_linker_0, # of connection points: 2
#     Edge 21, Type (0, 0), BuildingBlock: ZUJKAS_clean_linker_0, # of connection points: 2
#     Edge 22, Type (0, 0), BuildingBlock: ZUJKAS_clean_linker_0, # of connection points: 2
#     Edge 23, Type (0, 0), BuildingBlock: ZUJKAS_clean_linker_0, # of connection points: 2
#     Edge 24, Type (0, 0), BuildingBlock: ZUJKAS_clean_linker_0, # of connection points: 2
#     Edge 25, Type (0, 0), BuildingBlock: ZUJKAS_clean_linker_0, # of connection points: 2
#     Edge 26, Type (0, 0), BuildingBlock: ZUJKAS_clean_linker_0, # of connection points: 2
#     Edge 27, Type (0, 0), BuildingBlock: ZUJKAS_clean_linker_0, # of connection points: 2
#     Edge 28, Type (0, 0), BuildingBlock: ZUJKAS_clean_linker_0, # of connection points: 2
#     Edge 29, Type (0, 0), BuildingBlock: ZUJKAS_clean_linker_0, # of connection points: 2
#     Edge 30, Type (0, 0), BuildingBlock: ZUJKAS_clean_linker_0, # of connection points: 2
#     Edge 31, Type (0, 0), BuildingBlock: ZUJKAS_clean_linker_0, # of connection points: 2
#     Edge 32, Type (0, 0), BuildingBlock: ZUJKAS_clean_linker_0, # of connection points: 2
#     Edge 33, Type (0, 0), BuildingBlock: ZUJKAS_clean_linker_0, # of connection points: 2
#     Edge 34, Type (0, 0), BuildingBlock: ZUJKAS_clean_linker_0, # of connection points: 2
#     Edge 35, Type (0, 0), BuildingBlock: ZUJKAS_clean_linker_0, # of connection points: 2
#     Edge 36, Type (0, 0), BuildingBlock: ZUJKAS_clean_linker_0, # of connection points: 2
#     Edge 37, Type (0, 0), BuildingBlock: ZUJKAS_clean_linker_0, # of connection points: 2
#     Edge 38, Type (0, 0), BuildingBlock: ZUJKAS_clean_linker_0, # of connection points: 2
#     Edge 39, Type (0, 0), BuildingBlock: ZUJKAS_clean_linker_0, # of connection points: 2
#     Edge 40, Type (0, 0), BuildingBlock: ZUJKAS_clean_linker_0, # of connection points: 2
#     Edge 41, Type (0, 0), BuildingBlock: ZUJKAS_clean_linker_0, # of connection points: 2
#     Edge 42, Type (0, 0), BuildingBlock: ZUJKAS_clean_linker_0, # of connection points: 2
#     Edge 43, Type (0, 0), BuildingBlock: ZUJKAS_clean_linker_0, # of connection points: 2
#     Edge 44, Type (0, 0), BuildingBlock: ZUJKAS_clean_linker_0, # of connection points: 2
#     Edge 45, Type (0, 0), BuildingBlock: ZUJKAS_clean_linker_0, # of connection points: 2
#     Edge 46, Type (0, 0), BuildingBlock: ZUJKAS_clean_linker_0, # of connection points: 2
#     Edge 47, Type (0, 0), BuildingBlock: ZUJKAS_clean_linker_0, # of connection points: 2
# Relax obj value: 0.179
# Max RMSD: 0.278
# Mean RMSD: 0.263
data_MOF--net-lcy-e--node1-NUHQIS_clean_sbu_0--edge1-ZUJKAS_clean_linker_0
_symmetry_space_group_name_H-M    P1
_symmetry_Int_Tables_number       1
_symmetry_cell_setting            triclinic
loop_
_symmetry_equiv_pos_as_xyz
'x, y, z'
_cell_length_a     53.94509
_cell_length_b     57.704214
_cell_length_c     53.93004
_cell_angle_alpha  89.891553
_cell_angle_beta   89.782707
_cell_angle_gamma 89.217814
loop_
_atom_site_label
_atom_site_type_symbol
_atom_site_fract_x
_atom_site_fract_y
_atom_site_fract_z
_atom_type_partial_charge
Tb0 Tb 0.13717 0.25706 0.4921 0.0
Eu1 Eu 0.11808 0.29679 0.45165 0.0
C2 C 0.16464 0.26334 0.44179 0.0
C3 C 0.15948 0.30757 0.49079 0.0
C4 C 0.14103 0.20414 0.53261 0.0
C5 C 0.14757 0.16892 0.5566 0.0
C6 C 0.1566 0.18946 0.54642 0.0
C7 C 0.11621 0.198 0.52901 0.0
C8 C 0.10711 0.17741 0.53925 0.0
C9 C 0.12269 0.1626 0.55324 0.0
C10 C 0.15132 0.22534 0.52157 0.0
O11 O 0.10129 0.26882 0.50539 0.0
O12 O 0.10085 0.30554 0.48902 0.0
O13 O 0.08802 0.27052 0.45414 0.0
O14 O 0.11242 0.23968 0.4662 0.0
C15 C 0.0941 0.29062 0.50624 0.0
O16 O 0.11194 0.33299 0.44112 0.0
O17 O 0.10305 0.30571 0.41526 0.0
O18 O 0.14432 0.27208 0.43198 0.0
O19 O 0.16725 0.26187 0.4659 0.0
O20 O 0.15138 0.29049 0.50482 0.0
O21 O 0.15417 0.30866 0.46711 0.0
C22 C 0.09174 0.24813 0.45665 0.0
O23 O 0.15493 0.22487 0.49768 0.0
O24 O 0.14155 0.24502 0.52871 0.0
C25 C 0.11691 0.34106 0.39839 0.0
C26 C 0.13885 0.36617 0.35908 0.0
C27 C 0.11322 0.36804 0.36389 0.0
C28 C 0.1024 0.35562 0.38334 0.0
C29 C 0.14247 0.33903 0.39376 0.0
C30 C 0.15335 0.35146 0.37428 0.0
C31 C 0.10505 0.32799 0.41862 0.0
H32 H 0.16026 0.15781 0.56683 0.0
H33 H 0.17587 0.1938 0.54918 0.0
H34 H 0.10392 0.2091 0.51828 0.0
H35 H 0.08781 0.17323 0.53646 0.0
H36 H 0.1014 0.37886 0.35238 0.0
H37 H 0.08262 0.35731 0.38655 0.0
H38 H 0.15398 0.32785 0.40522 0.0
H39 H 0.17316 0.34977 0.37133 0.0
Tb40 Tb 0.01976 0.91382 0.69661 0.0
Eu41 Eu 0.06937 0.93001 0.73739 0.0
C42 C 0.06881 0.88389 0.69751 0.0
C43 C 0.0271 0.89021 0.75043 0.0
C44 C 0.96966 0.92082 0.6495 0.0
C45 C 0.93953 0.91479 0.61693 0.0
C46 C 0.94971 0.90853 0.6398 0.0
C47 C 0.97977 0.93911 0.63575 0.0
C48 C 0.96954 0.94546 0.61291 0.0
C49 C 0.94907 0.93356 0.60339 0.0
C50 C 0.97895 0.91486 0.67434 0.0
O51 O 0.02816 0.93565 0.72573 0.0
O52 O 0.04035 0.95381 0.75636 0.0
O53 O 0.06636 0.95487 0.70481 0.0
O54 O 0.04261 0.93699 0.67429 0.0
C55 C 0.02107 0.94915 0.74341 0.0
O56 O 0.08878 0.93654 0.77199 0.0
O57 O 0.10907 0.93647 0.73713 0.0
O58 O 0.07809 0.89654 0.71584 0.0
O59 O 0.04754 0.88845 0.68625 0.0
O60 O 0.01318 0.89395 0.73053 0.0
O61 O 0.04859 0.90025 0.75481 0.0
C62 C 0.05751 0.95357 0.68199 0.0
O63 O 0.99299 0.89622 0.67596 0.0
O64 O 0.98734 0.93209 0.68751 0.0
C65 C 0.13016 0.92354 0.7729 0.0
C66 C 0.16704 0.89705 0.79696 0.0
C67 C 0.16365 0.92067 0.80259 0.0
C68 C 0.14536 0.9338 0.79062 0.0
C69 C 0.13346 0.9 0.7671 0.0
C70 C 0.1519 0.88686 0.77896 0.0
C71 C 0.11047 0.93745 0.76128 0.0
H72 H 0.92407 0.905 0.60994 0.0
H73 H 0.94176 0.89428 0.6501 0.0
H74 H 0.99521 0.94882 0.6429 0.0
H75 H 0.97718 0.96013 0.60311 0.0
H76 H 0.17525 0.92904 0.81616 0.0
H77 H 0.14298 0.95195 0.79531 0.0
H78 H 0.12166 0.89178 0.75361 0.0
H79 H 0.15397 0.86865 0.77443 0.0
Tb80 Tb 0.38815 0.81117 0.9946 0.0
Eu81 Eu 0.40931 0.77032 0.95684 0.0
C82 C 0.36287 0.80253 0.94371 0.0
C83 C 0.36616 0.76069 0.99506 0.0
C84 C 0.38257 0.86473 0.03322 0.0
C85 C 0.37701 0.898 0.06021 0.0
C86 C 0.3682 0.87737 0.05024 0.0
C87 C 0.40602 0.87286 0.02631 0.0
C88 C 0.41487 0.89357 0.03625 0.0
C89 C 0.40044 0.90641 0.05333 0.0
C90 C 0.37252 0.84345 0.02247 0.0
O91 O 0.42382 0.8006 0.00935 0.0
O92 O 0.42573 0.76332 0.99465 0.0
O93 O 0.43871 0.79725 0.9586 0.0
O94 O 0.41336 0.82809 0.9686 0.0
C95 C 0.43177 0.77906 0.01112 0.0
O96 O 0.41504 0.7338 0.94747 0.0
O97 O 0.42705 0.76046 0.92198 0.0
O98 O 0.38368 0.79368 0.93511 0.0
O99 O 0.35924 0.80532 0.96758 0.0
O100 O 0.3737 0.77828 0.00848 0.0
O101 O 0.3728 0.75842 0.97178 0.0
C102 C 0.43442 0.81965 0.95981 0.0
O103 O 0.37007 0.84338 0.99845 0.0
O104 O 0.38185 0.82394 0.03061 0.0
C105 C 0.41108 0.72644 0.90472 0.0
C106 C 0.38801 0.70398 0.86468 0.0
C107 C 0.41159 0.69668 0.87296 0.0
C108 C 0.42302 0.70785 0.89279 0.0
C109 C 0.38749 0.73371 0.89671 0.0
C110 C 0.37608 0.72261 0.87683 0.0
C111 C 0.42336 0.73837 0.92527 0.0
H112 H 0.36524 0.9076 0.07297 0.0
H113 H 0.35001 0.8714 0.05567 0.0
H114 H 0.41738 0.86326 0.01316 0.0
H115 H 0.43307 0.89942 0.03074 0.0
H116 H 0.42142 0.68258 0.86383 0.0
H117 H 0.44125 0.70206 0.89871 0.0
H118 H 0.37796 0.74801 0.90581 0.0
H119 H 0.3578 0.72848 0.87115 0.0
Tb120 Tb 0.50059 0.15715 0.19114 0.0
Eu121 Eu 0.45928 0.1397 0.2322 0.0
C122 C 0.4498 0.18357 0.19716 0.0
C123 C 0.49637 0.17993 0.2447 0.0
C124 C 0.54503 0.15825 0.13804 0.0
C125 C 0.57688 0.1598 0.10621 0.0
C126 C 0.56426 0.17 0.12616 0.0
C127 C 0.53855 0.13608 0.12984 0.0
C128 C 0.55112 0.12587 0.1098 0.0
C129 C 0.57046 0.13762 0.09776 0.0
C130 C 0.53183 0.16943 0.15879 0.0
O131 O 0.51387 0.12384 0.20447 0.0
O132 O 0.49664 0.12492 0.24331 0.0
O133 O 0.46345 0.11125 0.20438 0.0
O134 O 0.47612 0.13339 0.17152 0.0
C135 C 0.51401 0.1177 0.22788 0.0
O136 O 0.44764 0.13352 0.27039 0.0
O137 O 0.42307 0.125 0.24015 0.0
O138 O 0.43984 0.16482 0.20647 0.0
O139 O 0.47389 0.18536 0.19459 0.0
O140 O 0.51119 0.17241 0.22682 0.0
O141 O 0.47316 0.1736 0.24601 0.0
C142 C 0.46673 0.11415 0.1805 0.0
O143 O 0.5079 0.17183 0.15629 0.0
O144 O 0.53777 0.16217 0.18091 0.0
C145 C 0.40481 0.13911 0.27679 0.0
C146 C 0.36458 0.16168 0.30046 0.0
C147 C 0.36743 0.13743 0.30183 0.0
C148 C 0.3874 0.12625 0.29009 0.0
C149 C 0.40209 0.16329 0.27528 0.0
C150 C 0.38218 0.1745 0.28709 0.0
C151 C 0.42541 0.12718 0.26409 0.0
H152 H 0.59144 0.16945 0.09716 0.0
H153 H 0.56944 0.18715 0.13223 0.0
H154 H 0.52377 0.12672 0.13891 0.0
H155 H 0.54589 0.10868 0.10392 0.0
H156 H 0.35438 0.1271 0.31223 0.0
H157 H 0.38923 0.10757 0.29138 0.0
H158 H 0.41532 0.17346 0.26488 0.0
H159 H 0.38036 0.19316 0.28546 0.0
Tb160 Tb 0.6348 0.31621 0.48297 0.0
Eu161 Eu 0.6148 0.27678 0.52199 0.0
C162 C 0.66093 0.30885 0.53392 0.0
C163 C 0.65833 0.26555 0.48436 0.0
C164 C 0.63856 0.3706 0.44503 0.0
C165 C 0.63576 0.41276 0.44642 0.0
C166 C 0.64512 0.39182 0.45578 0.0
C167 C 0.62254 0.37082 0.42451 0.0
C168 C 0.61326 0.39181 0.41505 0.0
C169 C 0.61978 0.41303 0.42589 0.0
C170 C 0.64914 0.34863 0.45497 0.0
O171 O 0.60053 0.30404 0.46692 0.0
O172 O 0.59977 0.26768 0.48416 0.0
O173 O 0.58403 0.3029 0.51789 0.0
O174 O 0.60842 0.33367 0.50803 0.0
C175 C 0.59372 0.28227 0.46632 0.0
O176 O 0.60897 0.2407 0.53249 0.0
O177 O 0.59745 0.26829 0.55735 0.0
O178 O 0.64032 0.30042 0.54301 0.0
O179 O 0.66415 0.31087 0.50991 0.0
O180 O 0.65086 0.28305 0.47035 0.0
O181 O 0.65149 0.26392 0.50765 0.0
C182 C 0.58736 0.32529 0.51629 0.0
O183 O 0.65293 0.34791 0.47881 0.0
O184 O 0.64011 0.32922 0.44687 0.0
C185 C 0.61274 0.23384 0.57533 0.0
C186 C 0.63549 0.21036 0.61529 0.0
C187 C 0.612 0.20372 0.60677 0.0
C188 C 0.60073 0.21539 0.58696 0.0
C189 C 0.6362 0.24052 0.58365 0.0
C190 C 0.64746 0.22891 0.60351 0.0
C191 C 0.60074 0.246 0.55457 0.0
H192 H 0.64147 0.42879 0.45495 0.0
H193 H 0.65769 0.39226 0.47139 0.0
H194 H 0.61721 0.35482 0.41567 0.0
H195 H 0.60086 0.39142 0.39932 0.0
H196 H 0.60217 0.18969 0.61562 0.0
H197 H 0.5826 0.21005 0.58077 0.0
H198 H 0.64579 0.25469 0.57475 0.0
H199 H 0.66568 0.23426 0.60942 0.0
Tb200 Tb 0.95603 0.41328 0.75061 0.0
Eu201 Eu 0.99815 0.39731 0.79229 0.0
C202 C 0.96023 0.43988 0.80115 0.0
C203 C 0.00841 0.43759 0.75439 0.0
C204 C 0.90337 0.41259 0.70563 0.0
C205 C 0.87201 0.41355 0.67342 0.0
C206 C 0.89137 0.42412 0.68611 0.0
C207 C 0.89586 0.39022 0.71229 0.0
C208 C 0.87639 0.37963 0.69966 0.0
C209 C 0.86422 0.39119 0.68005 0.0
C210 C 0.9234 0.42429 0.71895 0.0
O211 O 0.97111 0.38039 0.73825 0.0
O212 O 0.00993 0.38278 0.75486 0.0
O213 O 0.97155 0.36806 0.78943 0.0
O214 O 0.93768 0.38863 0.77537 0.0
C215 C 0.99488 0.37544 0.73746 0.0
O216 O 0.0368 0.39277 0.80343 0.0
O217 O 0.00735 0.38336 0.82879 0.0
O218 O 0.97125 0.42183 0.81142 0.0
O219 O 0.95731 0.44146 0.77705 0.0
O220 O 0.99119 0.42934 0.73964 0.0
O221 O 0.00926 0.43191 0.77789 0.0
C222 C 0.94761 0.37 0.7857 0.0
O223 O 0.92045 0.42649 0.74284 0.0
O224 O 0.94596 0.41786 0.71326 0.0
C225 C 0.04419 0.39757 0.84625 0.0
C226 C 0.06944 0.41889 0.88579 0.0
C227 C 0.07466 0.3957 0.87925 0.0
C228 C 0.06216 0.38519 0.85968 0.0
C229 C 0.03879 0.42067 0.85261 0.0
C230 C 0.05128 0.43124 0.87224 0.0
C231 C 0.03116 0.38606 0.82584 0.0
H232 H 0.86286 0.42309 0.65868 0.0
H233 H 0.89688 0.44142 0.68076 0.0
H234 H 0.90501 0.381 0.72728 0.0
H235 H 0.87104 0.36231 0.70506 0.0
H236 H 0.08819 0.38553 0.88948 0.0
H237 H 0.06648 0.3673 0.8551 0.0
H238 H 0.02494 0.43051 0.84239 0.0
H239 H 0.04696 0.44916 0.87659 0.0
Tb240 Tb 0.9043 0.78616 0.02359 0.0
Eu241 Eu 0.88246 0.7493 0.98281 0.0
C242 C 0.92937 0.73763 0.01677 0.0
C243 C 0.92577 0.78335 0.96886 0.0
C244 C 0.90884 0.82626 0.07728 0.0
C245 C 0.91372 0.84486 0.11726 0.0
C246 C 0.9239 0.83293 0.09703 0.0
C247 C 0.88335 0.83144 0.07806 0.0
C248 C 0.87315 0.84348 0.09824 0.0
C249 C 0.88823 0.85042 0.11807 0.0
C250 C 0.91994 0.81367 0.05623 0.0
O251 O 0.86917 0.80088 0.01169 0.0
O252 O 0.86716 0.78488 0.97286 0.0
O253 O 0.85294 0.75446 0.01168 0.0
O254 O 0.87867 0.76371 0.04363 0.0
C255 C 0.86157 0.80161 0.9886 0.0
O256 O 0.87716 0.73728 0.94476 0.0
O257 O 0.86185 0.71789 0.9755 0.0
O258 O 0.9085 0.7295 0.00811 0.0
O259 O 0.93303 0.76 0.01827 0.0
O260 O 0.9189 0.79678 0.98745 0.0
O261 O 0.91862 0.76176 0.96744 0.0
C262 C 0.85722 0.75636 0.03547 0.0
O263 O 0.92089 0.79118 0.05835 0.0
O264 O 0.91269 0.82012 0.03421 0.0
C265 C 0.87575 0.69654 0.94095 0.0
C266 C 0.89219 0.65361 0.92148 0.0
C267 C 0.87174 0.66545 0.91104 0.0
C268 C 0.86359 0.6867 0.92073 0.0
C269 C 0.89643 0.68509 0.95118 0.0
C270 C 0.90457 0.66379 0.94156 0.0
C271 C 0.86622 0.71831 0.9517 0.0
H272 H 0.92582 0.84952 0.13238 0.0
H273 H 0.94357 0.82887 0.09683 0.0
H274 H 0.87137 0.82629 0.06301 0.0
H275 H 0.85352 0.84767 0.0981 0.0
H276 H 0.86205 0.65836 0.89529 0.0
H277 H 0.84764 0.69536 0.91255 0.0
H278 H 0.90605 0.69247 0.96684 0.0
H279 H 0.92021 0.65509 0.95022 0.0
Tb280 Tb 0.56325 0.65471 0.25604 0.0
Eu281 Eu 0.52047 0.67163 0.29624 0.0
C282 C 0.55557 0.62754 0.3058 0.0
C283 C 0.50951 0.63281 0.25683 0.0
C284 C 0.61791 0.65328 0.21321 0.0
C285 C 0.65857 0.64957 0.19404 0.0
C286 C 0.63853 0.63967 0.20644 0.0
C287 C 0.61768 0.67707 0.20768 0.0
C288 C 0.6377 0.68699 0.19514 0.0
C289 C 0.65837 0.67333 0.18803 0.0
C290 C 0.59697 0.64229 0.22602 0.0
O291 O 0.55031 0.68803 0.24272 0.0
O292 O 0.51102 0.68766 0.259 0.0
O293 O 0.54782 0.70033 0.29395 0.0
O294 O 0.58158 0.67891 0.28118 0.0
C295 C 0.52696 0.69458 0.24207 0.0
O296 O 0.48169 0.67747 0.30643 0.0
O297 O 0.51076 0.68605 0.33235 0.0
O298 O 0.54574 0.64617 0.31603 0.0
O299 O 0.55878 0.62613 0.28173 0.0
O300 O 0.52781 0.6408 0.24311 0.0
O301 O 0.50748 0.63811 0.28038 0.0
C302 C 0.57182 0.69793 0.29085 0.0
O303 O 0.59883 0.64042 0.25003 0.0
O304 O 0.57479 0.649 0.21933 0.0
C305 C 0.47314 0.67282 0.34899 0.0
C306 C 0.44662 0.65191 0.38802 0.0
C307 C 0.44082 0.67466 0.38033 0.0
C308 C 0.45398 0.68501 0.36099 0.0
C309 C 0.47901 0.6501 0.35643 0.0
C310 C 0.46589 0.63973 0.37584 0.0
C311 C 0.48696 0.68407 0.32891 0.0
H312 H 0.67433 0.63859 0.18933 0.0
H313 H 0.63912 0.62132 0.21076 0.0
H314 H 0.60196 0.68792 0.21288 0.0
H315 H 0.63677 0.70528 0.19063 0.0
H316 H 0.42634 0.68463 0.38954 0.0
H317 H 0.44928 0.70259 0.35549 0.0
H318 H 0.49375 0.64042 0.34726 0.0
H319 H 0.47064 0.62211 0.38113 0.0
Tb320 Tb 0.2371 0.54391 0.12217 0.0
Eu321 Eu 0.27748 0.4966 0.1042 0.0
C322 C 0.23633 0.4976 0.15286 0.0
C323 C 0.29115 0.53658 0.14649 0.0
C324 C 0.18996 0.59139 0.113 0.0
C325 C 0.14634 0.58577 0.10394 0.0
C326 C 0.16954 0.57672 0.11092 0.0
C327 C 0.187 0.61507 0.10801 0.0
C328 C 0.16393 0.6241 0.10098 0.0
C329 C 0.14327 0.6096 0.09884 0.0
C330 C 0.2148 0.58235 0.11903 0.0
O331 O 0.26573 0.53515 0.09818 0.0
O332 O 0.29632 0.52316 0.07854 0.0
O333 O 0.24466 0.50021 0.07808 0.0
O334 O 0.21425 0.52082 0.10008 0.0
C335 C 0.28341 0.54145 0.08373 0.0
O336 O 0.31214 0.47704 0.09964 0.0
O337 O 0.27692 0.46019 0.09371 0.0
O338 O 0.25405 0.48814 0.13866 0.0
O339 O 0.22669 0.51862 0.14959 0.0
O340 O 0.27126 0.54995 0.14277 0.0
O341 O 0.29504 0.51606 0.13602 0.0
C342 C 0.22145 0.50722 0.08156 0.0
O343 O 0.2171 0.57066 0.13981 0.0
O344 O 0.22683 0.57261 0.1006 0.0
C345 C 0.31056 0.43674 0.1071 0.0
C346 C 0.3289 0.39565 0.12908 0.0
C347 C 0.33795 0.4031 0.10595 0.0
C348 C 0.32885 0.42344 0.09509 0.0
C349 C 0.30151 0.42957 0.13027 0.0
C350 C 0.31057 0.40911 0.14116 0.0
C351 C 0.30098 0.45767 0.09475 0.0
H352 H 0.13082 0.57414 0.10265 0.0
H353 H 0.17159 0.55832 0.11451 0.0
H354 H 0.20267 0.62657 0.1092 0.0
H355 H 0.16245 0.6424 0.0967 0.0
H356 H 0.35178 0.39297 0.09599 0.0
H357 H 0.33596 0.4287 0.07715 0.0
H358 H 0.28741 0.43972 0.13983 0.0
H359 H 0.3034 0.40393 0.15909 0.0
Tb360 Tb 0.76519 0.06287 0.8623 0.0
Eu361 Eu 0.72496 0.02446 0.84276 0.0
C362 C 0.71385 0.05783 0.8888 0.0
C363 C 0.76154 0.01306 0.88696 0.0
C364 C 0.80477 0.11576 0.86482 0.0
C365 C 0.79954 0.15591 0.8515 0.0
C366 C 0.78945 0.13519 0.86014 0.0
C367 C 0.83032 0.1174 0.8602 0.0
C368 C 0.8404 0.13809 0.85142 0.0
C369 C 0.82519 0.15773 0.84724 0.0
C370 C 0.79465 0.09419 0.8756 0.0
O371 O 0.78007 0.04951 0.82757 0.0
O372 O 0.7627 0.01353 0.82838 0.0
O373 O 0.72965 0.05035 0.81223 0.0
O374 O 0.74003 0.08092 0.83683 0.0
C375 C 0.78044 0.02751 0.82136 0.0
O376 O 0.7142 0.98868 0.83613 0.0
O377 O 0.68921 0.01687 0.82614 0.0
O378 O 0.70455 0.04897 0.86851 0.0
O379 O 0.73789 0.0596 0.89174 0.0
O380 O 0.77625 0.02977 0.8794 0.0
O381 O 0.73842 0.01202 0.87966 0.0
C382 C 0.73163 0.07269 0.81579 0.0
O383 O 0.77104 0.0942 0.88081 0.0
O384 O 0.80187 0.07463 0.86568 0.0
C385 C 0.67141 0.98212 0.84007 0.0
C386 C 0.63189 0.95788 0.86196 0.0
C387 C 0.64097 0.95161 0.83837 0.0
C388 C 0.66055 0.96364 0.82754 0.0
C389 C 0.66252 0.98848 0.86362 0.0
C390 C 0.64286 0.97649 0.87446 0.0
C391 C 0.69207 0.99448 0.82847 0.0
H392 H 0.78726 0.1707 0.84886 0.0
H393 H 0.76967 0.1346 0.86355 0.0
H394 H 0.84257 0.10272 0.86367 0.0
H395 H 0.86017 0.13869 0.84797 0.0
H396 H 0.63273 0.93757 0.82812 0.0
H397 H 0.66719 0.95854 0.80934 0.0
H398 H 0.67083 1.00266 0.87361 0.0
H399 H 0.63648 0.98159 0.89274 0.0
Tb400 Tb 0.76127 1.00281 0.36311 0.0
Eu401 Eu 0.80125 0.04185 0.34362 0.0
C402 C 0.81142 1.00951 0.39051 0.0
C403 C 0.76196 0.05365 0.38533 0.0
C404 C 0.72167 0.94959 0.36652 0.0
C405 C 0.72423 0.9077 0.36077 0.0
C406 C 0.73459 0.92837 0.36906 0.0
C407 C 0.69814 0.9496 0.3554 0.0
C408 C 0.68776 0.92889 0.34711 0.0
C409 C 0.70058 0.90764 0.34986 0.0
C410 C 0.73199 0.97131 0.37681 0.0
O411 O 0.74847 0.01385 0.32688 0.0
O412 O 0.76394 0.05062 0.32691 0.0
O413 O 0.7991 0.01495 0.31389 0.0
O414 O 0.78788 0.98475 0.33896 0.0
C415 C 0.74742 0.03555 0.31962 0.0
O416 O 0.81147 0.07787 0.33716 0.0
O417 O 0.83719 0.05013 0.32754 0.0
O418 O 0.82119 0.01792 0.37014 0.0
O419 O 0.78732 1.00779 0.39311 0.0
O420 O 0.74815 0.03648 0.37741 0.0
O421 O 0.78557 0.05472 0.37964 0.0
C422 C 0.79722 0.99266 0.31805 0.0
O423 O 0.75566 0.9713 0.38161 0.0
O424 O 0.72471 0.99089 0.36692 0.0
C425 C 0.8541 0.08507 0.34174 0.0
C426 C 0.89325 0.10933 0.36398 0.0
C427 C 0.88482 0.11539 0.34013 0.0
C428 C 0.86543 0.10335 0.32913 0.0
C429 C 0.8623 0.07896 0.36557 0.0
C430 C 0.88176 0.09095 0.37658 0.0
C431 C 0.83388 0.07247 0.32983 0.0
H432 H 0.73449 0.89165 0.36357 0.0
H433 H 0.7526 0.92762 0.37785 0.0
H434 H 0.68758 0.96558 0.35335 0.0
H435 H 0.66964 0.92956 0.33855 0.0
H436 H 0.89346 0.12924 0.32979 0.0
H437 H 0.85935 0.10824 0.3107 0.0
H438 H 0.85366 0.06491 0.37562 0.0
H439 H 0.8876 0.08603 0.39507 0.0
Tb440 Tb 0.2478 0.57051 0.61552 0.0
Eu441 Eu 0.28783 0.5296 0.63338 0.0
C442 C 0.2991 0.56472 0.58917 0.0
C443 C 0.25018 0.52102 0.59013 0.0
C444 C 0.2068 0.624 0.61183 0.0
C445 C 0.18312 0.65944 0.60436 0.0
C446 C 0.19391 0.63883 0.59567 0.0
C447 C 0.20878 0.63004 0.63694 0.0
C448 C 0.19792 0.65072 0.64571 0.0
C449 C 0.18492 0.66572 0.6295 0.0
C450 C 0.21859 0.60281 0.60176 0.0
O451 O 0.23315 0.55718 0.65008 0.0
O452 O 0.25011 0.52048 0.64899 0.0
O453 O 0.28439 0.55468 0.66481 0.0
O454 O 0.27294 0.58665 0.64203 0.0
C455 C 0.2325 0.53511 0.65604 0.0
O456 O 0.29843 0.49306 0.63724 0.0
O457 O 0.32351 0.51972 0.64938 0.0
O458 O 0.3083 0.55491 0.60915 0.0
O459 O 0.27507 0.56688 0.58604 0.0
O460 O 0.23579 0.53778 0.5989 0.0
O461 O 0.27368 0.5196 0.59604 0.0
C462 C 0.28226 0.57722 0.66229 0.0
O463 O 0.24258 0.60325 0.59912 0.0
O464 O 0.21129 0.58305 0.61076 0.0
C465 C 0.34142 0.48524 0.63338 0.0
C466 C 0.3819 0.46131 0.61125 0.0
C467 C 0.37135 0.45338 0.63358 0.0
C468 C 0.35133 0.46523 0.6445 0.0
C469 C 0.3517 0.49323 0.61103 0.0
C470 C 0.37181 0.48141 0.6001 0.0
C471 C 0.32056 0.49762 0.64543 0.0
H472 H 0.17372 0.67068 0.5912 0.0
H473 H 0.19238 0.63456 0.57618 0.0
H474 H 0.21878 0.61882 0.6497 0.0
H475 H 0.19952 0.65484 0.66521 0.0
H476 H 0.37882 0.43819 0.64287 0.0
H477 H 0.34368 0.45884 0.66177 0.0
H478 H 0.34421 0.50862 0.60209 0.0
H479 H 0.37927 0.48786 0.58279 0.0
H480 H 0.16138 0.31967 0.53996 0.0
H481 H 0.17591 0.35635 0.5572 0.0
H482 H 0.19973 0.37785 0.4844 0.0
H483 H 0.18499 0.34158 0.46701 0.0
H484 H 0.22121 0.37799 0.55782 0.0
H485 H 0.15303 0.43056 0.50471 0.0
H486 H 0.15118 0.39944 0.50727 0.0
H487 H 0.17206 0.41236 0.48529 0.0
C488 C 0.17006 0.33206 0.52769 0.0
C489 C 0.17183 0.32776 0.50207 0.0
C490 C 0.17822 0.35307 0.53755 0.0
C491 C 0.18827 0.37011 0.52197 0.0
C492 C 0.19136 0.36526 0.49666 0.0
H493 H 0.27489 0.48857 0.56252 0.0
H494 H 0.25865 0.45253 0.54595 0.0
C495 C 0.18311 0.34439 0.48679 0.0
C496 C 0.1953 0.39307 0.53198 0.0
H497 H 0.18536 0.45133 0.52459 0.0
C498 C 0.21328 0.39401 0.55066 0.0
C499 C 0.18456 0.41399 0.52299 0.0
C500 C 0.16395 0.41411 0.50415 0.0
C501 C 0.22143 0.4153 0.55998 0.0
C502 C 0.2117 0.43624 0.54999 0.0
C503 C 0.19309 0.4353 0.53195 0.0
C504 C 0.2209 0.45923 0.55789 0.0
C505 C 0.24025 0.41515 0.58062 0.0
C506 C 0.20479 0.47566 0.56879 0.0
C507 C 0.21399 0.49654 0.57802 0.0
C508 C 0.23945 0.5013 0.57646 0.0
C509 C 0.25522 0.48536 0.56425 0.0
C510 C 0.24601 0.46463 0.55495 0.0
H511 H 0.24032 0.39845 0.59091 0.0
H512 H 0.25902 0.41751 0.57262 0.0
H513 H 0.23655 0.42944 0.59396 0.0
H514 H 0.18528 0.47194 0.57102 0.0
H515 H 0.20137 0.50839 0.58741 0.0
H516 H 0.81762 0.05159 0.79878 0.0
H517 H 0.85665 0.03604 0.78217 0.0
H518 H 0.83291 0.96659 0.79838 0.0
H519 H 0.79372 0.98194 0.815 0.0
H520 H 0.88072 0.9796 0.81841 0.0
H521 H 0.87235 0.99831 0.71765 0.0
H522 H 0.86454 0.02203 0.73794 0.0
H523 H 0.84576 0.99658 0.73803 0.0
C524 C 0.82047 0.03297 0.79842 0.0
C525 C 0.80252 0.01801 0.80822 0.0
C526 C 0.84277 0.02412 0.78883 0.0
C527 C 0.84758 1.00017 0.78891 0.0
C528 C 0.82947 0.98513 0.79804 0.0
H529 H 0.97833 0.92636 0.73244 0.0
H530 H 0.93576 0.93825 0.74269 0.0
C531 C 0.80705 0.99395 0.80744 0.0
C532 C 0.87228 0.99105 0.78134 0.0
H533 H 0.9123 0.98693 0.73224 0.0
C534 C 0.88757 0.98103 0.79955 0.0
C535 C 0.88108 0.99289 0.7567 0.0
C536 C 0.86506 1.00286 0.73634 0.0
C537 C 0.91174 0.97336 0.79387 0.0
C538 C 0.92079 0.97583 0.76941 0.0
C539 C 0.9053 0.98526 0.75103 0.0
C540 C 0.94647 0.96894 0.76271 0.0
C541 C 0.92756 0.96275 0.81403 0.0
C542 C 0.9665 0.9823 0.77054 0.0
C543 C 0.99078 0.97579 0.76422 0.0
C544 C 0.99537 0.9559 0.74987 0.0
C545 C 0.9753 0.94234 0.74245 0.0
C546 C 0.951 0.94893 0.7486 0.0
H547 H 0.9166 0.95875 0.83095 0.0
H548 H 0.9367 0.94656 0.80731 0.0
H549 H 0.94235 0.97503 0.81913 0.0
H550 H 0.96332 0.9978 0.78147 0.0
H551 H 0.00597 0.98641 0.77038 0.0
H552 H 0.36052 0.75161 0.0447 0.0
H553 H 0.34331 0.71658 0.06355 0.0
H554 H 0.32413 0.69117 0.99111 0.0
H555 H 0.34124 0.72597 0.9721 0.0
H556 H 0.28658 0.685 0.03136 0.0
H557 H 0.38172 0.6527 0.05371 0.0
H558 H 0.3734 0.68153 0.06369 0.0
H559 H 0.37614 0.67538 0.03121 0.0
C560 C 0.3522 0.73878 0.03281 0.0
C561 C 0.35241 0.74151 0.00688 0.0
C562 C 0.34251 0.71873 0.04361 0.0
C563 C 0.33273 0.70122 0.02867 0.0
C564 C 0.33167 0.70448 1.00293 0.0
H565 H 0.31179 0.55488 0.04483 0.0
H566 H 0.3231 0.59443 0.03302 0.0
C567 C 0.3415 0.72437 0.99212 0.0
C568 C 0.32511 0.67877 0.03947 0.0
H569 H 0.34854 0.62835 0.06372 0.0
C570 C 0.30003 0.67268 0.03869 0.0
C571 C 0.34282 0.66269 0.04873 0.0
C572 C 0.37008 0.6682 0.04933 0.0
C573 C 0.29221 0.65078 0.04679 0.0
C574 C 0.30996 0.63464 0.05584 0.0
C575 C 0.335 0.64082 0.05683 0.0
C576 C 0.3031 0.61082 0.06325 0.0
C577 C 0.26516 0.64474 0.04489 0.0
C578 C 0.28848 0.60694 0.08439 0.0
C579 C 0.28213 0.58437 0.0912 0.0
C580 C 0.29008 0.56536 0.07686 0.0
C581 C 0.30516 0.56926 0.05603 0.0
C582 C 0.31162 0.5918 0.04929 0.0
H583 H 0.25451 0.65768 0.03382 0.0
H584 H 0.26306 0.62739 0.03633 0.0
H585 H 0.25695 0.64406 0.06377 0.0
H586 H 0.28223 0.62135 0.09576 0.0
H587 H 0.27149 0.58183 0.10796 0.0
H588 H 0.53003 0.11396 0.27579 0.0
H589 H 0.56995 0.0982 0.28982 0.0
H590 H 0.58706 0.07625 0.21521 0.0
H591 H 0.54755 0.09243 0.20093 0.0
H592 H 0.59259 0.05551 0.28851 0.0
H593 H 0.64468 0.1182 0.23101 0.0
H594 H 0.61165 0.1206 0.23592 0.0
H595 H 0.62404 0.10057 0.21338 0.0
C596 C 0.54212 0.10544 0.26245 0.0
C597 C 0.5358 0.10466 0.23721 0.0
C598 C 0.56496 0.09653 0.27047 0.0
C599 C 0.58172 0.08664 0.25341 0.0
C600 C 0.5747 0.08443 0.22853 0.0
H601 H 0.71458 1.00893 0.29443 0.0
H602 H 0.67488 0.02131 0.27684 0.0
C603 C 0.55203 0.09353 0.22045 0.0
C604 C 0.60687 0.07938 0.26147 0.0
H605 H 0.66841 0.08877 0.25105 0.0
C606 C 0.60918 0.06277 0.28035 0.0
C607 C 0.62846 0.08924 0.25109 0.0
C608 C 0.62716 0.10831 0.23191 0.0
C609 C 0.63254 0.05548 0.28893 0.0
C610 C 0.65415 0.06466 0.27786 0.0
C611 C 0.65182 0.08152 0.25922 0.0
C612 C 0.67931 0.05752 0.28597 0.0
C613 C 0.63382 0.03845 0.31019 0.0
C614 C 0.6956 0.07399 0.29554 0.0
C615 C 0.71853 0.06703 0.30522 0.0
C616 C 0.72545 0.04346 0.30554 0.0
C617 C 0.70966 0.02719 0.29468 0.0
C618 C 0.68688 0.03419 0.28481 0.0
H619 H 0.61614 0.03808 0.32082 0.0
H620 H 0.63741 0.0208 0.30278 0.0
H621 H 0.64905 0.04276 0.32312 0.0
H622 H 0.69019 0.09212 0.2964 0.0
H623 H 0.73024 0.07997 0.31352 0.0
H624 H 0.66326 0.25416 0.43514 0.0
H625 H 0.68042 0.218 0.41796 0.0
H626 H 0.70154 0.19575 0.49136 0.0
H627 H 0.68407 0.23147 0.50868 0.0
H628 H 0.72619 0.19713 0.4183 0.0
H629 H 0.65922 0.14236 0.46876 0.0
H630 H 0.65588 0.17347 0.4669 0.0
H631 H 0.67668 0.16046 0.48909 0.0
C632 C 0.67189 0.24171 0.44758 0.0
C633 C 0.67211 0.24564 0.47331 0.0
C634 C 0.68157 0.22099 0.43774 0.0
C635 C 0.69166 0.20385 0.45344 0.0
C636 C 0.69317 0.20836 0.47895 0.0
H637 H 0.78533 0.08725 0.41161 0.0
H638 H 0.76746 0.12316 0.42804 0.0
C639 C 0.68336 0.22893 0.4888 0.0
C640 C 0.70035 0.18116 0.44333 0.0
H641 H 0.69331 0.12261 0.44949 0.0
C642 C 0.71892 0.18085 0.42503 0.0
C643 C 0.69049 0.15987 0.4517 0.0
C644 C 0.66928 0.15899 0.47 0.0
C645 C 0.72843 0.15988 0.41547 0.0
C646 C 0.71955 0.13857 0.42486 0.0
C647 C 0.70042 0.13889 0.44257 0.0
C648 C 0.72997 0.11582 0.4166 0.0
C649 C 0.74769 0.16079 0.39513 0.0
C650 C 0.71465 0.09906 0.40595 0.0
C651 C 0.72479 0.07822 0.39687 0.0
C652 C 0.75046 0.0738 0.39827 0.0
C653 C 0.76553 0.09017 0.41 0.0
C654 C 0.75537 0.11085 0.41921 0.0
H655 H 0.74692 0.17758 0.38502 0.0
H656 H 0.76641 0.15895 0.40341 0.0
H657 H 0.74522 0.14655 0.38157 0.0
H658 H 0.69495 0.1024 0.40395 0.0
H659 H 0.71268 0.06605 0.38785 0.0
H660 H 0.01567 0.45271 0.7064 0.0
H661 H 0.05269 0.4714 0.68952 0.0
H662 H 0.08583 0.47052 0.76219 0.0
H663 H 0.0489 0.4529 0.77926 0.0
H664 H 0.09503 0.50988 0.74028 0.0
H665 H 0.11698 0.43842 0.67476 0.0
H666 H 0.08718 0.45171 0.66961 0.0
H667 H 0.09304 0.43622 0.69803 0.0
C668 C 0.03073 0.45678 0.7188 0.0
C669 C 0.02929 0.45115 0.74415 0.0
C670 C 0.05201 0.46722 0.70909 0.0
C671 C 0.07236 0.47185 0.72446 0.0
C672 C 0.0705 0.46702 0.74989 0.0
H673 H 0.2249 0.49192 0.67606 0.0
H674 H 0.18636 0.47706 0.69386 0.0
C675 C 0.04925 0.4569 0.75963 0.0
C676 C 0.09582 0.48147 0.71442 0.0
H677 H 0.14255 0.47142 0.6727 0.0
C678 C 0.10541 0.50145 0.72549 0.0
C679 C 0.10967 0.47023 0.69547 0.0
C680 C 0.10136 0.44784 0.68393 0.0
C681 C 0.12835 0.51049 0.7182 0.0
C682 C 0.14176 0.49976 0.69864 0.0
C683 C 0.13223 0.47975 0.68759 0.0
C684 C 0.16556 0.50912 0.68915 0.0
C685 C 0.13824 0.53106 0.7321 0.0
C686 C 0.16677 0.53207 0.68064 0.0
C687 C 0.18883 0.5407 0.67091 0.0
C688 C 0.21011 0.52642 0.66892 0.0
C689 C 0.20892 0.50342 0.67746 0.0
C690 C 0.18686 0.49488 0.68752 0.0
H691 H 0.13024 0.53222 0.75109 0.0
H692 H 0.15875 0.53018 0.73362 0.0
H693 H 0.13301 0.54721 0.7221 0.0
H694 H 0.15047 0.54323 0.68098 0.0
H695 H 0.18888 0.55839 0.66416 0.0
H696 H 0.73675 0.97495 0.90301 0.0
H697 H 0.7538 0.94049 0.92285 0.0
H698 H 0.82593 0.97175 0.9249 0.0
H699 H 0.80908 1.00635 0.90415 0.0
H700 H 0.82867 0.92852 0.90711 0.0
H701 H 0.77283 0.92752 0.9932 0.0
H702 H 0.75349 0.92891 0.96628 0.0
H703 H 0.77389 0.95251 0.97309 0.0
C704 C 0.75618 0.97477 0.90797 0.0
C705 C 0.77153 0.99353 0.90199 0.0
C706 C 0.76588 0.95501 0.91952 0.0
C707 C 0.79106 0.95361 0.92577 0.0
C708 C 0.80638 0.97249 0.92037 0.0
H709 H 0.85343 0.84164 0.01441 0.0
H710 H 0.83665 0.87823 0.99895 0.0
C711 C 0.79671 0.9923 0.90861 0.0
C712 C 0.80153 0.9318 0.93634 0.0
H713 H 0.79296 0.89166 0.98207 0.0
C714 C 0.82104 0.92058 0.92366 0.0
C715 C 0.79176 0.92152 0.95807 0.0
C716 C 0.77202 0.93338 0.97358 0.0
C717 C 0.83065 0.89913 0.93176 0.0
C718 C 0.81996 0.88825 0.95272 0.0
C719 C 0.80086 0.89975 0.96573 0.0
C720 C 0.82901 0.86543 0.96211 0.0
C721 C 0.85247 0.8886 0.91802 0.0
C722 C 0.82968 0.84576 0.94677 0.0
C723 C 0.83954 0.8247 0.95551 0.0
C724 C 0.8485 0.82286 0.97989 0.0
C725 C 0.8467 0.84234 0.99552 0.0
C726 C 0.83712 0.86337 0.9867 0.0
H727 H 0.86276 0.90189 0.90735 0.0
H728 H 0.86554 0.87984 0.93096 0.0
H729 H 0.84568 0.87556 0.90465 0.0
H730 H 0.82285 0.84673 0.92794 0.0
H731 H 0.84051 0.81002 0.94304 0.0
H732 H 0.4752 0.60599 0.28009 0.0
H733 H 0.43875 0.58806 0.26202 0.0
H734 H 0.46001 0.61323 0.18975 0.0
H735 H 0.49699 0.63067 0.20764 0.0
H736 H 0.40056 0.60881 0.24002 0.0
H737 H 0.44394 0.54729 0.17357 0.0
H738 H 0.46152 0.56173 0.19722 0.0
H739 H 0.4537 0.57657 0.16886 0.0
C740 C 0.47238 0.60738 0.26026 0.0
C741 C 0.48911 0.61966 0.24528 0.0
C742 C 0.45144 0.59717 0.24996 0.0
C743 C 0.44664 0.59906 0.22446 0.0
C744 C 0.46354 0.61102 0.20937 0.0
H745 H 0.30093 0.58198 0.15712 0.0
H746 H 0.33795 0.5973 0.17694 0.0
C747 C 0.48469 0.62103 0.21963 0.0
C748 C 0.42328 0.5896 0.21409 0.0
H749 H 0.40043 0.55365 0.16967 0.0
C750 C 0.40056 0.59665 0.22471 0.0
C751 C 0.4232 0.57353 0.19429 0.0
C752 C 0.4469 0.56414 0.18297 0.0
C753 C 0.37785 0.58827 0.216 0.0
C754 C 0.37772 0.57283 0.19563 0.0
C755 C 0.40045 0.56562 0.18515 0.0
C756 C 0.35433 0.56366 0.18502 0.0
C757 C 0.35428 0.59565 0.22912 0.0
C758 C 0.35117 0.53965 0.18269 0.0
C759 C 0.33015 0.53085 0.1711 0.0
C760 C 0.3117 0.54586 0.16163 0.0
C761 C 0.31454 0.5699 0.16458 0.0
C762 C 0.33574 0.57871 0.17595 0.0
H763 H 0.35798 0.6015 0.24835 0.0
H764 H 0.34567 0.61041 0.21894 0.0
H765 H 0.34078 0.58132 0.22986 0.0
H766 H 0.36521 0.52766 0.18951 0.0
H767 H 0.3286 0.51225 0.16915 0.0
H768 H 0.47157 0.19534 0.28582 0.0
H769 H 0.48831 0.21518 0.32162 0.0
H770 H 0.56024 0.2169 0.28653 0.0
H771 H 0.54371 0.19626 0.25061 0.0
H772 H 0.56372 0.2022 0.33348 0.0
H773 H 0.50551 0.28172 0.33203 0.0
H774 H 0.48695 0.2562 0.33215 0.0
H775 H 0.50705 0.26196 0.30617 0.0
C776 C 0.4909 0.20016 0.28543 0.0
C777 C 0.50627 0.19422 0.26519 0.0
C778 C 0.50042 0.2117 0.30596 0.0
C779 C 0.52544 0.21794 0.30667 0.0
C780 C 0.54081 0.21239 0.28635 0.0
H781 H 0.58556 0.30549 0.42279 0.0
H782 H 0.56948 0.29001 0.3841 0.0
C783 C 0.53132 0.20066 0.26578 0.0
C784 C 0.53573 0.22888 0.32931 0.0
H785 H 0.52612 0.27312 0.37041 0.0
C786 C 0.55565 0.21784 0.34142 0.0
C787 C 0.52546 0.24947 0.33956 0.0
C788 C 0.50524 0.26315 0.32665 0.0
C789 C 0.56512 0.22643 0.36379 0.0
C790 C 0.55389 0.24626 0.37477 0.0
C791 C 0.53444 0.25768 0.36229 0.0
C792 C 0.56248 0.2558 0.39883 0.0
C793 C 0.58732 0.21435 0.37518 0.0
C794 C 0.56323 0.24197 0.42031 0.0
C795 C 0.57262 0.25073 0.44252 0.0
C796 C 0.58107 0.27365 0.44381 0.0
C797 C 0.5792 0.28777 0.42256 0.0
C798 C 0.57004 0.27893 0.40034 0.0
H799 H 0.59798 0.2042 0.36116 0.0
H800 H 0.59995 0.22695 0.38392 0.0
H801 H 0.58091 0.2021 0.38966 0.0
H802 H 0.55681 0.22428 0.41984 0.0
H803 H 0.57364 0.23942 0.45855 0.0
H804 H 0.08382 0.26571 0.54792 0.0
H805 H 0.06598 0.27958 0.58662 0.0
H806 H 0.05529 0.34752 0.55458 0.0
H807 H 0.07417 0.33391 0.51571 0.0
H808 H 0.07537 0.35055 0.59938 0.0
H809 H 0.99562 0.29172 0.6057 0.0
H810 H 0.0242 0.27582 0.60248 0.0
H811 H 0.01379 0.29457 0.57776 0.0
C812 C 0.07735 0.28354 0.54883 0.0
C813 C 0.08031 0.29866 0.52854 0.0
C814 C 0.067 0.29142 0.57105 0.0
C815 C 0.05883 0.31448 0.57345 0.0
C816 C 0.06134 0.32959 0.55313 0.0
H817 H 0.96936 0.36429 0.69577 0.0
H818 H 0.98576 0.34968 0.65677 0.0
C819 C 0.072 0.32176 0.53087 0.0
C820 C 0.04894 0.32297 0.59762 0.0
H821 H 0.00686 0.31101 0.64317 0.0
C822 C 0.06024 0.34204 0.60886 0.0
C823 C 0.02903 0.31202 0.60993 0.0
C824 C 0.0148 0.29257 0.59821 0.0
C825 C 0.05242 0.35026 0.63218 0.0
C826 C 0.03329 0.33861 0.645 0.0
C827 C 0.02181 0.31971 0.63359 0.0
C828 C 0.02367 0.34659 0.66948 0.0
C829 C 0.06433 0.3717 0.64247 0.0
C830 C 0.03938 0.34923 0.69002 0.0
C831 C 0.03005 0.35794 0.71252 0.0
C832 C 1.00475 0.36372 0.71497 0.0
C833 C 0.98895 0.36002 0.69468 0.0
C834 C 0.99831 0.35166 0.67224 0.0
H835 H 0.07336 0.38204 0.62765 0.0
H836 H 0.0505 0.38293 0.65212 0.0
H837 H 0.07884 0.36651 0.65598 0.0
H838 H 0.05889 0.34479 0.68861 0.0
H839 H 0.04269 0.36048 0.72779 0.0
H840 H 0.97853 0.88175 0.76163 0.0
H841 H 0.96245 0.86213 0.79854 0.0
H842 H 0.03715 0.84528 0.82124 0.0
H843 H 0.05334 0.8655 0.7849 0.0
H844 H 0.96507 0.81921 0.81712 0.0
H845 H 0.01192 0.87897 0.88145 0.0
H846 H 0.01064 0.88407 0.84849 0.0
H847 H 0.03331 0.86422 0.86121 0.0
C848 C 0.99151 0.87358 0.77432 0.0
C849 C 0.01721 0.87535 0.77048 0.0
C850 C 0.9823 0.86245 0.79547 0.0
C851 C 0.99861 0.85277 0.81306 0.0
C852 C 0.02422 0.85328 0.80841 0.0
H853 H 0.95128 0.76032 0.93228 0.0
H854 H 0.96986 0.77681 0.89489 0.0
C855 C 0.03344 0.86468 0.7875 0.0
C856 C 0.98887 0.84265 0.83649 0.0
H857 H 0.99323 0.84594 0.89959 0.0
C858 C 0.97118 0.82509 0.83516 0.0
C859 C 0.99646 0.85064 0.86008 0.0
C860 C 0.01392 0.87068 0.86296 0.0
C861 C 0.96112 0.81508 0.85668 0.0
C862 C 0.96956 0.82234 0.88025 0.0
C863 C 0.98702 0.84011 0.88157 0.0
C864 C 0.95991 0.81232 0.90379 0.0
C865 C 0.94104 0.79733 0.85389 0.0
C866 C 0.94937 0.82686 0.92198 0.0
C867 C 0.93927 0.81752 0.94367 0.0
C868 C 0.93935 0.79341 0.94756 0.0
C869 C 0.95071 0.77895 0.92975 0.0
C870 C 0.96112 0.78834 0.90822 0.0
H871 H 0.93168 0.79885 0.83563 0.0
H872 H 0.94942 0.77969 0.85511 0.0
H873 H 0.92682 0.79914 0.86872 0.0
H874 H 0.94836 0.84543 0.9191 0.0
H875 H 0.93056 0.82914 0.95694 0.0
H876 H 0.48013 0.71166 0.2325 0.0
H877 H 0.46533 0.72883 0.19359 0.0
H878 H 0.53911 0.72331 0.16284 0.0
H879 H 0.55419 0.70707 0.20164 0.0
H880 H 0.51766 0.76288 0.14924 0.0
H881 H 0.45327 0.69042 0.13264 0.0
H882 H 0.44711 0.70566 0.16102 0.0
H883 H 0.47583 0.6898 0.15723 0.0
C884 C 0.49325 0.71443 0.21757 0.0
C885 C 0.51828 0.70778 0.22014 0.0
C886 C 0.48473 0.72403 0.19526 0.0
C887 C 0.50099 0.72676 0.17508 0.0
C888 C 0.52618 0.7212 0.17808 0.0
H889 H 0.4543 0.73717 0.02117 0.0
H890 H 0.47346 0.72495 0.06024 0.0
C891 C 0.53476 0.71189 0.20036 0.0
C892 C 0.49191 0.73469 0.15053 0.0
H893 H 0.45147 0.72175 0.10422 0.0
C894 C 0.5032 0.75388 0.13937 0.0
C895 C 0.47347 0.72259 0.13742 0.0
C896 C 0.46188 0.70084 0.14754 0.0
C897 C 0.49637 0.76146 0.11559 0.0
C898 C 0.47719 0.74996 0.10294 0.0
C899 C 0.46609 0.73063 0.11398 0.0
C900 C 0.46781 0.75799 0.07853 0.0
C901 C 0.5102 0.78138 0.1041 0.0
C902 C 0.45851 0.78065 0.07575 0.0
C903 C 0.44791 0.78775 0.0534 0.0
C904 C 0.44592 0.77219 0.03346 0.0
C905 C 0.45561 0.74959 0.03611 0.0
C906 C 0.46649 0.74257 0.05846 0.0
H907 H 0.52904 0.78296 0.11211 0.0
H908 H 0.512 0.77932 0.08371 0.0
H909 H 0.49995 0.79779 0.10793 0.0
H910 H 0.45869 0.79267 0.09114 0.0
H911 H 0.4404 0.80522 0.05216 0.0
H912 H 0.12846 0.41079 0.34434 0.0
H913 H 0.14596 0.43199 0.30926 0.0
H914 H 0.19331 0.37339 0.29201 0.0
H915 H 0.17528 0.35172 0.32655 0.0
H916 H 0.19449 0.44445 0.29974 0.0
H917 H 0.16012 0.38666 0.22558 0.0
H918 H 0.14874 0.38534 0.25706 0.0
H919 H 0.1781 0.3722 0.24907 0.0
C920 C 0.14238 0.40226 0.33293 0.0
C921 C 0.15025 0.37942 0.33821 0.0
C922 C 0.15251 0.4145 0.31296 0.0
C923 C 0.17067 0.40418 0.29771 0.0
C924 C 0.17897 0.38157 0.30319 0.0
H925 H 0.25032 0.45346 0.1669 0.0
H926 H 0.23523 0.43101 0.20223 0.0
C927 C 0.16884 0.3693 0.32317 0.0
C928 C 0.18104 0.41725 0.2763 0.0
H929 H 0.18712 0.41658 0.21316 0.0
C930 C 0.19283 0.43838 0.28081 0.0
C931 C 0.17894 0.40931 0.25158 0.0
C932 C 0.16561 0.38725 0.2454 0.0
C933 C 0.20276 0.45164 0.26135 0.0
C934 C 0.20046 0.4438 0.23661 0.0
C935 C 0.18889 0.42257 0.23211 0.0
C936 C 0.2096 0.45755 0.21513 0.0
C937 C 0.216 0.47376 0.2675 0.0
C938 C 0.19996 0.47982 0.21035 0.0
C939 C 0.20854 0.49275 0.19015 0.0
C940 C 0.2269 0.48365 0.17412 0.0
C941 C 0.23626 0.46115 0.1788 0.0
C942 C 0.22763 0.44823 0.19902 0.0
H943 H 0.22208 0.47406 0.28716 0.0
H944 H 0.23246 0.47608 0.25537 0.0
H945 H 0.20319 0.48871 0.26454 0.0
H946 H 0.18565 0.4872 0.22219 0.0
H947 H 0.20074 0.50991 0.18716 0.0
H948 H 0.89948 0.9365 0.59355 0.0
H949 H 0.87944 0.94996 0.55559 0.0
H950 H 0.95096 0.96293 0.52278 0.0
H951 H 0.97129 0.9486 0.56045 0.0
H952 H 0.88316 0.99372 0.53432 0.0
H953 H 0.91614 0.92516 0.46925 0.0
H954 H 0.91814 0.92199 0.50249 0.0
H955 H 0.93996 0.93969 0.48617 0.0
C956 C 0.91101 0.94177 0.57812 0.0
C957 C 0.93702 0.9413 0.58 0.0
C958 C 0.89951 0.94965 0.5565 0.0
C959 C 0.91372 0.95719 0.53629 0.0
C960 C 0.93967 0.95681 0.53803 0.0
H961 H 0.86217 0.0116 0.39315 0.0
H962 H 0.88857 1.00028 0.42818 0.0
C963 C 0.95123 0.94886 0.55967 0.0
C964 C 0.90113 0.9662 0.51383 0.0
H965 H 0.89201 0.9557 0.45225 0.0
C966 C 0.88516 0.98545 0.51635 0.0
C967 C 0.90392 0.95546 0.49041 0.0
C968 C 0.9203 0.93432 0.48682 0.0
C969 C 0.87161 0.9941 0.49614 0.0
C970 C 0.87386 0.98298 0.4729 0.0
C971 C 0.89037 0.96415 0.47015 0.0
C972 C 0.8581 0.98982 0.45166 0.0
C973 C 0.85495 0.01503 0.49984 0.0
C974 C 0.83233 0.98733 0.45322 0.0
C975 C 0.81724 0.99371 0.43333 0.0
C976 C 0.82765 1.00262 0.41141 0.0
C977 C 0.85356 1.00485 0.40978 0.0
C978 C 0.86867 0.99839 0.42974 0.0
H979 H 0.86037 0.02517 0.5164 0.0
H980 H 0.85532 0.02657 0.48334 0.0
H981 H 0.83561 1.00923 0.50265 0.0
H982 H 0.82388 0.98033 0.46982 0.0
H983 H 0.7974 0.99162 0.4352 0.0
H984 H 0.3049 0.56339 0.70511 0.0
H985 H 0.32121 0.58755 0.73808 0.0
H986 H 0.29716 0.64896 0.69886 0.0
H987 H 0.28048 0.62483 0.66559 0.0
H988 H 0.35812 0.62191 0.73242 0.0
H989 H 0.26976 0.65834 0.77028 0.0
H990 H 0.27079 0.63293 0.75078 0.0
H991 H 0.27449 0.66116 0.73738 0.0
C992 C 0.30286 0.58203 0.70345 0.0
C993 C 0.29135 0.59215 0.68262 0.0
C994 C 0.31226 0.59581 0.72236 0.0
C995 C 0.31023 0.62002 0.72102 0.0
C996 C 0.2986 0.63028 0.70041 0.0
H997 H 0.36222 0.72393 0.82623 0.0
H998 H 0.34341 0.70454 0.79072 0.0
C999 C 0.2892 0.61646 0.68136 0.0
C1000 C 0.32124 0.63428 0.7409 0.0
H1001 H 0.30684 0.67089 0.78871 0.0
C1002 C 0.34693 0.63269 0.74468 0.0
C1003 C 0.3066 0.64841 0.75676 0.0
C1004 C 0.27885 0.65029 0.75383 0.0
C1005 C 0.35839 0.6447 0.76402 0.0
C1006 C 0.34368 0.6583 0.78036 0.0
C1007 C 0.31805 0.66037 0.77622 0.0
C1008 C 0.35454 0.67001 0.8022 0.0
C1009 C 0.3862 0.64286 0.76662 0.0
C1010 C 0.3666 0.657 0.82069 0.0
C1011 C 0.37733 0.668 0.84099 0.0
C1012 C 0.37603 0.69226 0.84336 0.0
C1013 C 0.36342 0.70521 0.82508 0.0
C1014 C 0.35274 0.69418 0.80472 0.0
H1015 H 0.39523 0.63758 0.74892 0.0
H1016 H 0.39412 0.65958 0.77267 0.0
H1017 H 0.39081 0.62952 0.78077 0.0
H1018 H 0.36767 0.63828 0.81946 0.0
H1019 H 0.38646 0.65747 0.85498 0.0
H1020 H 0.55096 0.11362 0.05871 0.0
H1021 H 0.57316 0.09713 0.02298 0.0
H1022 H 0.64221 0.12171 0.05232 0.0
H1023 H 0.62032 0.13772 0.0883 0.0
H1024 H 0.60253 0.12114 0.98817 0.0
H1025 H 0.65751 0.05336 0.037 0.0
H1026 H 0.63078 0.06748 0.05086 0.0
H1027 H 0.66024 0.08169 0.05034 0.0
C1028 C 0.57092 0.1152 0.05774 0.0
C1029 C 0.58388 0.12696 0.07639 0.0
C1030 C 0.58354 0.10589 0.03724 0.0
C1031 C 0.60936 0.10795 0.03516 0.0
C1032 C 0.62234 0.11959 0.05376 0.0
H1033 H 0.72656 0.07931 0.93188 0.0
H1034 H 0.69954 0.09059 0.96627 0.0
C1035 C 0.60975 0.12895 0.07418 0.0
C1036 C 0.62274 0.09875 0.01311 0.0
H1037 H 0.67001 0.06231 0.99564 0.0
C1038 C 0.61709 0.10808 0.9897 0.0
C1039 C 0.64169 0.0817 0.0152 0.0
C1040 C 0.6478 0.07029 0.03966 0.0
C1041 C 0.63062 0.1015 0.96846 0.0
C1042 C 0.65001 0.08487 0.97068 0.0
C1043 C 0.6552 0.07512 0.99399 0.0
C1044 C 0.66598 0.07814 0.94933 0.0
C1045 C 0.62473 0.11309 0.94404 0.0
C1046 C 0.6561 0.06726 0.92836 0.0
C1047 C 0.67154 0.06082 0.90852 0.0
C1048 C 0.69717 0.065 0.90941 0.0
C1049 C 0.70694 0.07581 0.93052 0.0
C1050 C 0.69152 0.08226 0.95025 0.0
H1051 H 0.61317 0.12902 0.94654 0.0
H1052 H 0.64199 0.11776 0.93405 0.0
H1053 H 0.6143 0.10092 0.93222 0.0
H1054 H 0.63651 0.06352 0.92746 0.0
H1055 H 0.66343 0.05236 0.89265 0.0
H1056 H 0.6374 0.16362 0.62375 0.0
H1057 H 0.65628 0.14317 0.65884 0.0
H1058 H 0.68009 0.20822 0.68917 0.0
H1059 H 0.66075 0.22891 0.65439 0.0
H1060 H 0.70715 0.1441 0.67439 0.0
H1061 H 0.64213 0.17695 0.74703 0.0
H1062 H 0.6351 0.17865 0.71437 0.0
H1063 H 0.65659 0.19844 0.72784 0.0
C1064 C 0.64643 0.17361 0.63801 0.0
C1065 C 0.64743 0.19791 0.63636 0.0
C1066 C 0.65735 0.16189 0.65795 0.0
C1067 C 0.66931 0.17421 0.67672 0.0
C1068 C 0.67064 0.19843 0.67503 0.0
H1069 H 0.73447 0.12023 0.81468 0.0
H1070 H 0.72154 0.1463 0.78099 0.0
C1071 C 0.65978 0.21019 0.65504 0.0
C1072 C 0.68054 0.16154 0.69789 0.0
H1073 H 0.67453 0.15207 0.76015 0.0
C1074 C 0.70011 0.1459 0.69317 0.0
C1075 C 0.67142 0.1641 0.72237 0.0
C1076 C 0.65004 0.1803 0.72834 0.0
C1077 C 0.71065 0.1325 0.71225 0.0
C1078 C 0.70098 0.13446 0.73659 0.0
C1079 C 0.68189 0.1506 0.74146 0.0
C1080 C 0.70932 0.11884 0.75687 0.0
C1081 C 0.73208 0.11639 0.70614 0.0
C1082 C 0.7064 0.09483 0.7546 0.0
C1083 C 0.71374 0.07994 0.7737 0.0
C1084 C 0.72399 0.08875 0.79565 0.0
C1085 C 0.72668 0.11287 0.79802 0.0
C1086 C 0.71932 0.12779 0.7788 0.0
H1087 H 0.74207 0.12209 0.68919 0.0
H1088 H 0.74546 0.1153 0.72171 0.0
H1089 H 0.72491 0.09877 0.70263 0.0
H1090 H 0.69817 0.08758 0.7381 0.0
H1091 H 0.7112 0.0615 0.77126 0.0
H1092 H 0.22902 0.47803 0.04238 0.0
H1093 H 0.19927 0.46545 0.01166 0.0
H1094 H 0.14173 0.50573 0.04767 0.0
H1095 H 0.17166 0.51885 0.07865 0.0
H1096 H 0.15583 0.4409 0.01955 0.0
H1097 H 0.13627 0.52608 0.9746 0.0
H1098 H 0.16254 0.52136 0.99472 0.0
H1099 H 0.13201 0.52474 0.00766 0.0
C1100 C 0.2101 0.48439 0.04388 0.0
C1101 C 0.20284 0.49957 0.06309 0.0
C1102 C 0.19307 0.4771 0.02622 0.0
C1103 C 0.16833 0.48481 0.02717 0.0
C1104 C 0.16083 0.49985 0.04633 0.0
H1105 H 0.05084 0.44832 0.92162 0.0
H1106 H 0.07298 0.46496 0.95687 0.0
C1107 C 0.17795 0.50721 0.06413 0.0
C1108 C 0.15062 0.47642 0.00823 0.0
H1109 H 0.11593 0.49359 0.95834 0.0
C1110 C 0.14697 0.45245 0.00629 0.0
C1111 C 0.13896 0.49151 0.99099 0.0
C1112 C 0.14268 0.51736 0.99185 0.0
C1113 C 0.13244 0.44311 0.98732 0.0
C1114 C 0.12157 0.45809 0.96951 0.0
C1115 C 0.12441 0.48214 0.97195 0.0
C1116 C 0.10826 0.44892 0.94761 0.0
C1117 C 0.12897 0.41722 0.98645 0.0
C1118 C 0.12089 0.43486 0.93036 0.0
C1119 C 0.10838 0.42545 0.91018 0.0
C1120 C 0.08291 0.42993 0.90669 0.0
C1121 C 0.07046 0.4446 0.92363 0.0
C1122 C 0.08304 0.45405 0.94386 0.0
H1123 H 0.13237 0.40904 1.00482 0.0
H1124 H 0.10996 0.41289 0.98031 0.0
H1125 H 0.14237 0.40953 0.97303 0.0
H1126 H 0.14049 0.43112 0.93256 0.0
H1127 H 0.11871 0.41469 0.89723 0.0
H1128 H 0.79655 0.94502 0.31901 0.0
H1129 H 0.81019 0.91834 0.28618 0.0
H1130 H 0.83021 0.9764 0.2402 0.0
H1131 H 0.81658 1.00312 0.27261 0.0
H1132 H 0.80191 0.94207 0.21571 0.0
H1133 H 0.88321 0.90465 0.26571 0.0
H1134 H 0.854 0.90394 0.28186 0.0
H1135 H 0.86807 0.93129 0.27526 0.0
C1136 C 0.80393 0.95211 0.30194 0.0
C1137 C 0.80556 0.97623 0.29852 0.0
C1138 C 0.81178 0.93684 0.28325 0.0
C1139 C 0.82142 0.94542 0.26088 0.0
C1140 C 0.82286 0.96943 0.25735 0.0
H1141 H 0.90884 0.88659 0.14315 0.0
H1142 H 0.89149 0.90809 0.17827 0.0
C1143 C 0.81509 0.98468 0.27597 0.0
C1144 C 0.82993 0.92957 0.24091 0.0
H1145 H 0.8751 0.88995 0.22581 0.0
C1146 C 0.81779 0.93053 0.21794 0.0
C1147 C 0.8508 0.91473 0.24386 0.0
C1148 C 0.86497 0.9136 0.26791 0.0
C1149 C 0.82611 0.91717 0.19774 0.0
C1150 C 0.84699 0.90236 0.20069 0.0
C1151 C 0.859 0.90124 0.22371 0.0
C1152 C 0.85742 0.88882 0.17972 0.0
C1153 C 0.81303 0.91954 0.17317 0.0
C1154 C 0.84407 0.87071 0.16905 0.0
C1155 C 0.85404 0.8582 0.14907 0.0
C1156 C 0.87756 0.86358 0.13941 0.0
C1157 C 0.89087 0.88172 0.15031 0.0
C1158 C 0.88094 0.89412 0.17032 0.0
H1159 H 0.80015 0.93473 0.17277 0.0
H1160 H 0.82667 0.92129 0.15783 0.0
H1161 H 0.80212 0.90372 0.16969 0.0
H1162 H 0.82602 0.86616 0.17628 0.0
H1163 H 0.84344 0.84412 0.14142 0.0
H1164 H 0.3497 0.5593 0.58593 0.0
H1165 H 0.37707 0.57333 0.55288 0.0
H1166 H 0.31388 0.60215 0.51436 0.0
H1167 H 0.28649 0.58846 0.54717 0.0
H1168 H 0.37521 0.56342 0.50044 0.0
H1169 H 0.36188 0.65705 0.52047 0.0
H1170 H 0.35399 0.63468 0.54248 0.0
H1171 H 0.33352 0.64143 0.51718 0.0
C1172 C 0.34164 0.56871 0.57048 0.0
C1173 C 0.31591 0.57288 0.56929 0.0
C1174 C 0.3573 0.57665 0.5516 0.0
C1175 C 0.34751 0.58905 0.5314 0.0
C1176 C 0.32184 0.59296 0.53002 0.0
H1177 H 0.39668 0.65396 0.39688 0.0
H1178 H 0.374 0.63765 0.43199 0.0
C1179 C 0.30621 0.585 0.54877 0.0
C1180 C 0.36391 0.5978 0.51149 0.0
H1181 H 0.38131 0.64745 0.4821 0.0
C1182 C 0.37681 0.58179 0.49653 0.0
C1183 C 0.36589 0.62177 0.50651 0.0
C1184 C 0.35328 0.63978 0.52263 0.0
C1185 C 0.39092 0.58911 0.47608 0.0
C1186 C 0.39246 0.61307 0.47079 0.0
C1187 C 0.37999 0.62908 0.48611 0.0
C1188 C 0.40636 0.62202 0.44911 0.0
C1189 C 0.40333 0.57112 0.4598 0.0
C1190 C 0.43211 0.61867 0.44712 0.0
C1191 C 0.44516 0.62804 0.42708 0.0
C1192 C 0.43271 0.6411 0.40879 0.0
C1193 C 0.40688 0.64426 0.4108 0.0
C1194 C 0.39387 0.63486 0.43079 0.0
H1195 H 0.39567 0.55358 0.46293 0.0
H1196 H 0.40121 0.57568 0.4399 0.0
H1197 H 0.42344 0.57038 0.46404 0.0
H1198 H 0.44219 0.60922 0.46131 0.0
H1199 H 0.46508 0.62558 0.42627 0.0
H1200 H 0.21045 0.24802 0.45612 0.0
H1201 H 0.24387 0.23285 0.43006 0.0
H1202 H 0.199 0.24407 0.365 0.0
H1203 H 0.16542 0.25976 0.39099 0.0
H1204 H 0.24232 0.19472 0.40034 0.0
H1205 H 0.26484 0.27292 0.34494 0.0
H1206 H 0.2462 0.27424 0.37279 0.0
H1207 H 0.23279 0.26491 0.34409 0.0
C1208 C 0.20767 0.24748 0.43625 0.0
C1209 C 0.18521 0.25511 0.42564 0.0
C1210 C 0.22684 0.23878 0.42138 0.0
C1211 C 0.22404 0.23753 0.39558 0.0
C1212 C 0.20175 0.24529 0.38484 0.0
H1213 H 0.31608 0.1485 0.30159 0.0
H1214 H 0.28152 0.16716 0.32367 0.0
C1215 C 0.18252 0.25412 0.39973 0.0
C1216 C 0.24409 0.22696 0.38028 0.0
H1217 H 0.28486 0.23772 0.33315 0.0
C1218 C 0.25162 0.20412 0.38564 0.0
C1219 C 0.25637 0.23935 0.36131 0.0
C1220 C 0.24985 0.26428 0.35552 0.0
C1221 C 0.27104 0.19328 0.37253 0.0
C1222 C 0.28294 0.20546 0.35316 0.0
C1223 C 0.27553 0.22836 0.34786 0.0
C1224 C 0.30354 0.19485 0.33867 0.0
C1225 C 0.27906 0.1691 0.37998 0.0
C1226 C 0.3272 0.20465 0.33914 0.0
C1227 C 0.34696 0.19407 0.32647 0.0
C1228 C 0.3434 0.1735 0.31307 0.0
C1229 C 0.31952 0.16407 0.31214 0.0
C1230 C 0.29976 0.17471 0.32472 0.0
H1231 H 0.27252 0.16461 0.39893 0.0
H1232 H 0.27109 0.15645 0.36686 0.0
H1233 H 0.29957 0.16716 0.37939 0.0
H1234 H 0.33048 0.22022 0.34976 0.0
H1235 H 0.36516 0.20168 0.32768 0.0
H1236 H 0.13343 0.14411 0.59886 0.0
H1237 H 0.11954 0.10752 0.61648 0.0
H1238 H 0.07577 0.09504 0.55126 0.0
H1239 H 0.09035 0.13133 0.53299 0.0
H1240 H 0.07213 0.09358 0.62762 0.0
H1241 H 0.11517 0.03444 0.55791 0.0
H1242 H 0.12336 0.06458 0.56029 0.0
H1243 H 0.09487 0.05656 0.54568 0.0
C1244 C 0.12111 0.13349 0.58805 0.0
C1245 C 0.11325 0.14065 0.56434 0.0
C1246 C 0.11303 0.11261 0.59826 0.0
C1247 C 0.09692 0.09829 0.58506 0.0
C1248 C 0.08859 0.10553 0.5616 0.0
H1249 H 0.03818 0.96359 0.63567 0.0
H1250 H 0.04582 0.99821 0.61028 0.0
C1251 C 0.09671 0.12647 0.55132 0.0
C1252 C 0.08866 0.07609 0.59632 0.0
H1253 H 0.09208 0.0171 0.59006 0.0
C1254 C 0.07638 0.07688 0.6193 0.0
C1255 C 0.09403 0.05425 0.58541 0.0
C1256 C 0.10775 0.05225 0.56106 0.0
C1257 C 0.06979 0.05653 0.63189 0.0
C1258 C 0.07596 0.03472 0.62144 0.0
C1259 C 0.08741 0.03384 0.59804 0.0
C1260 C 0.07237 0.01286 0.63558 0.0
C1261 C 0.05647 0.05856 0.65647 0.0
C1262 C 0.08535 1.00924 0.65774 0.0
C1263 C 0.08108 0.98961 0.67221 0.0
C1264 C 0.06373 0.97295 0.66486 0.0
C1265 C 0.05154 0.97607 0.64201 0.0
C1266 C 0.05586 0.99586 0.62747 0.0
H1267 H 0.04705 0.0757 0.65853 0.0
H1268 H 0.04248 0.04475 0.65861 0.0
H1269 H 0.07012 0.05668 0.6717 0.0
H1270 H 0.09857 0.02187 0.66409 0.0
H1271 H 0.09113 0.98779 0.68946 0.0
H1272 H 0.2007 0.86635 0.77706 0.0
H1273 H 0.23357 0.84482 0.79893 0.0
H1274 H 0.20966 0.87532 0.86808 0.0
H1275 H 0.17669 0.89658 0.84651 0.0
H1276 H 0.27182 0.86596 0.82805 0.0
H1277 H 0.21526 0.80498 0.8833 0.0
H1278 H 0.20352 0.81971 0.85608 0.0
H1279 H 0.20494 0.83465 0.88525 0.0
C1280 C 0.20226 0.86817 0.79698 0.0
C1281 C 0.1862 0.88316 0.8101 0.0
C1282 C 0.22105 0.85595 0.80939 0.0
C1283 C 0.22379 0.8583 0.83511 0.0
C1284 C 0.20758 0.87301 0.84827 0.0
H1285 H 0.31997 0.82602 0.95433 0.0
H1286 H 0.28702 0.83734 0.92576 0.0
C1287 C 0.18894 0.88531 0.83589 0.0
C1288 C 0.24447 0.84662 0.84819 0.0
H1289 H 0.25717 0.80999 0.89632 0.0
C1290 C 0.26875 0.85342 0.84272 0.0
C1291 C 0.24026 0.83033 0.86728 0.0
C1292 C 0.21461 0.82179 0.87322 0.0
C1293 C 0.28891 0.84527 0.85678 0.0
C1294 C 0.28459 0.82957 0.87646 0.0
C1295 C 0.26039 0.82208 0.88126 0.0
C1296 C 0.3046 0.82204 0.89347 0.0
C1297 C 0.31441 0.85447 0.8513 0.0
C1298 C 0.32532 0.80946 0.8848 0.0
C1299 C 0.34434 0.80308 0.90109 0.0
C1300 C 0.34279 0.80899 0.92635 0.0
C1301 C 0.32177 0.8212 0.935 0.0
C1302 C 0.30288 0.82766 0.91871 0.0
H1303 H 0.31369 0.87002 0.83913 0.0
H1304 H 0.3241 0.85904 0.86871 0.0
H1305 H 0.32558 0.84089 0.84171 0.0
H1306 H 0.32675 0.80456 0.86547 0.0
H1307 H 0.36018 0.79346 0.8939 0.0
H1308 H 0.44254 0.07457 0.19261 0.0
H1309 H 0.43301 0.04192 0.16601 0.0
H1310 H 0.46634 0.07674 0.1037 0.0
H1311 H 0.47631 0.10975 0.13044 0.0
H1312 H 0.4039 0.042 0.12245 0.0
H1313 H 0.50092 0.01201 0.10462 0.0
H1314 H 0.49307 0.03173 0.12948 0.0
H1315 H 0.49364 0.04191 0.09804 0.0
C1316 C 0.44793 0.07541 0.17327 0.0
C1317 C 0.46028 0.09482 0.1637 0.0
C1318 C 0.44241 0.05668 0.15807 0.0
C1319 C 0.44919 0.05677 0.13296 0.0
C1320 C 0.46127 0.07618 0.12314 0.0
H1321 H 0.42518 0.94132 0.02937 0.0
H1322 H 0.43764 0.97877 0.04645 0.0
C1323 C 0.46678 0.09509 0.1384 0.0
C1324 C 0.44313 0.03646 0.11739 0.0
H1325 H 0.46894 0.98953 0.08796 0.0
C1326 C 0.41812 0.03065 0.1147 0.0
C1327 C 0.46172 0.02173 0.10721 0.0
C1328 C 0.48888 0.02695 0.11002 0.0
C1329 C 0.41117 1.01022 0.10267 0.0
C1330 C 0.42976 0.99497 0.09345 0.0
C1331 C 0.45475 1.00121 0.09518 0.0
C1332 C 0.42351 0.97191 0.08328 0.0
C1333 C 0.38396 1.00501 0.10014 0.0
C1334 C 0.41209 0.95542 0.09851 0.0
C1335 C 0.40509 0.93404 0.0889 0.0
C1336 C 0.40944 0.92861 0.06382 0.0
C1337 C 0.42167 0.94488 0.04879 0.0
C1338 C 0.4287 0.96632 0.05847 0.0
H1339 H 0.37232 0.02098 0.10169 0.0
H1340 H 0.38008 0.99656 0.08211 0.0
H1341 H 0.37837 0.99302 0.11521 0.0
H1342 H 0.40844 0.95917 0.11787 0.0
H1343 H 0.39624 0.92174 0.10114 0.0
H1344 H 0.8553 0.39143 0.63009 0.0
H1345 H 0.82009 0.37498 0.60814 0.0
H1346 H 0.79101 0.34903 0.67723 0.0
H1347 H 0.82592 0.36594 0.69947 0.0
H1348 H 0.80439 0.32823 0.60628 0.0
H1349 H 0.73228 0.38631 0.64764 0.0
H1350 H 0.76496 0.39247 0.64934 0.0
H1351 H 0.75175 0.37089 0.66924 0.0
C1352 C 0.84133 0.38239 0.64068 0.0
C1353 C 0.84335 0.38019 0.66659 0.0
C1354 C 0.82129 0.37287 0.62807 0.0
C1355 C 0.80274 0.36107 0.64108 0.0
C1356 C 0.8049 0.35839 0.66686 0.0
H1357 H 0.66372 0.30361 0.58459 0.0
H1358 H 0.69805 0.31444 0.61177 0.0
C1359 C 0.82501 0.36786 0.67951 0.0
C1360 C 0.78123 0.35159 0.62746 0.0
H1361 H 0.71861 0.35778 0.61981 0.0
C1362 C 0.78562 0.33462 0.6093 0.0
C1363 C 0.75673 0.35984 0.63154 0.0
C1364 C 0.75102 0.37851 0.65035 0.0
C1365 C 0.76622 0.32582 0.59495 0.0
C1366 C 0.74181 0.33457 0.59849 0.0
C1367 C 0.73731 0.3511 0.6171 0.0
C1368 C 0.72101 0.32774 0.58214 0.0
C1369 C 0.77205 0.30712 0.57621 0.0
C1370 C 0.72232 0.33196 0.55655 0.0
C1371 C 0.70283 0.3258 0.54102 0.0
C1372 C 0.6814 0.31545 0.55074 0.0
C1373 C 0.67994 0.31153 0.57647 0.0
C1374 C 0.69955 0.31769 0.59203 0.0
H1375 H 0.78932 0.29744 0.58103 0.0
H1376 H 0.75664 0.29462 0.5748 0.0
H1377 H 0.77483 0.3152 0.55774 0.0
H1378 H 0.7384 0.34023 0.54855 0.0
H1379 H 0.70456 0.3293 0.52135 0.0
H1380 H 0.97255 0.44915 0.84958 0.0
H1381 H 0.96232 0.48426 0.8733 0.0
H1382 H 0.92052 0.51105 0.81129 0.0
H1383 H 0.93085 0.47641 0.78746 0.0
H1384 H 0.95353 0.54244 0.82965 0.0
H1385 H 0.89681 0.50488 0.90561 0.0
H1386 H 0.92702 0.49191 0.90145 0.0
H1387 H 0.90414 0.48915 0.87756 0.0
C1388 C 0.9609 0.46239 0.84114 0.0
C1389 C 0.95255 0.45997 0.8166 0.0
C1390 C 0.95502 0.48242 0.85474 0.0
C1391 C 0.9405 0.50021 0.84412 0.0
C1392 C 0.93178 0.49757 0.81985 0.0
H1393 H 0.8631 0.61792 0.90596 0.0
H1394 H 0.8764 0.58082 0.88829 0.0
C1395 C 0.93771 0.4777 0.80625 0.0
C1396 C 0.93519 0.52215 0.85759 0.0
H1397 H 0.90505 0.54496 0.90793 0.0
C1398 C 0.94303 0.543 0.84683 0.0
C1399 C 0.92131 0.52282 0.87989 0.0
C1400 C 0.91161 0.50105 0.89177 0.0
C1401 C 0.9371 0.56452 0.85755 0.0
C1402 C 0.92337 0.56522 0.87994 0.0
C1403 C 0.91574 0.54436 0.89087 0.0
C1404 C 0.91561 0.58749 0.89155 0.0
C1405 C 0.94485 0.58634 0.8443 0.0
C1406 C 0.93325 0.60347 0.89956 0.0
C1407 C 0.9257 0.62487 0.90939 0.0
C1408 C 0.90035 0.63064 0.91157 0.0
C1409 C 0.88276 0.61429 0.90409 0.0
C1410 C 0.89032 0.59295 0.89421 0.0
H1411 H 0.94993 0.58296 0.82464 0.0
H1412 H 0.92978 0.59964 0.84478 0.0
H1413 H 0.96128 0.59358 0.85368 0.0
H1414 H 0.95286 0.59946 0.89806 0.0
H1415 H 0.93976 0.63705 0.91484 0.0
H1416 H 0.81066 0.74133 0.02482 0.0
H1417 H 0.77806 0.73034 0.05377 0.0
H1418 H 0.82569 0.74591 0.11537 0.0
H1419 H 0.85872 0.75688 0.08643 0.0
H1420 H 0.80203 0.70275 0.11922 0.0
H1421 H 0.73452 0.77298 0.09713 0.0
H1422 H 0.74565 0.75768 0.07027 0.0
H1423 H 0.76685 0.77432 0.08846 0.0
C1424 C 0.81427 0.74257 0.04451 0.0
C1425 C 0.83737 0.75004 0.05327 0.0
C1426 C 0.79549 0.7364 0.06105 0.0
C1427 C 0.79929 0.73766 0.08671 0.0
C1428 C 0.82233 0.74498 0.09561 0.0
H1429 H 0.67948 0.71602 0.19461 0.0
H1430 H 0.71435 0.73257 0.17171 0.0
C1431 C 0.84118 0.75123 0.07904 0.0
C1432 C 0.77947 0.73036 0.10409 0.0
H1433 H 0.71881 0.74048 0.11958 0.0
C1434 C 0.78392 0.71115 0.11952 0.0
C1435 C 0.75593 0.7415 0.10466 0.0
C1436 C 0.75046 0.76291 0.08943 0.0
C1437 C 0.76514 0.70219 0.13474 0.0
C1438 C 0.74124 0.71259 0.13431 0.0
C1439 C 0.73708 0.73239 0.11968 0.0
C1440 C 0.72011 0.70264 0.1482 0.0
C1441 C 0.77098 0.68159 0.15107 0.0
C1442 C 0.71151 0.68051 0.14226 0.0
C1443 C 0.69146 0.6711 0.15509 0.0
C1444 C 0.67953 0.68363 0.17419 0.0
C1445 C 0.68804 0.70595 0.17989 0.0
C1446 C 0.70807 0.7154 0.16694 0.0
H1447 H 0.79124 0.67958 0.15425 0.0
H1448 H 0.76146 0.68319 0.16929 0.0
H1449 H 0.76441 0.66561 0.14193 0.0
H1450 H 0.72017 0.67059 0.12747 0.0
H1451 H 0.68511 0.65411 0.14978 0.0
H1452 H 0.6025 0.45114 0.45124 0.0
H1453 H 0.58857 0.4884 0.43405 0.0
H1454 H 0.60265 0.46297 0.36011 0.0
H1455 H 0.61647 0.42572 0.37712 0.0
H1456 H 0.61431 0.51936 0.40582 0.0
H1457 H 0.53283 0.48885 0.35372 0.0
H1458 H 0.54831 0.4712 0.37676 0.0
H1459 H 0.56064 0.47313 0.34577 0.0
C1460 C 0.60258 0.45348 0.43131 0.0
C1461 C 0.61048 0.43541 0.41553 0.0
C1462 C 0.59455 0.47476 0.42152 0.0
C1463 C 0.59416 0.47836 0.39578 0.0
C1464 C 0.60214 0.4604 0.38 0.0
H1465 H 0.57617 0.58667 0.29026 0.0
H1466 H 0.58439 0.55181 0.31453 0.0
C1467 C 0.61007 0.4391 0.38975 0.0
C1468 C 0.58643 0.50118 0.38536 0.0
H1469 H 0.54775 0.52651 0.34294 0.0
C1470 C 0.59952 0.52101 0.39234 0.0
C1471 C 0.56701 0.50334 0.3679 0.0
C1472 C 0.55122 0.48303 0.36078 0.0
C1473 C 0.59451 0.54271 0.3814 0.0
C1474 C 0.57581 0.5446 0.3632 0.0
C1475 C 0.56217 0.52496 0.35683 0.0
C1476 C 0.57127 0.56635 0.34916 0.0
C1477 C 0.60991 0.56324 0.38857 0.0
C1478 C 0.56118 0.58618 0.36065 0.0
C1479 C 0.55637 0.60631 0.34675 0.0
C1480 C 0.56157 0.60686 0.32116 0.0
C1481 C 0.57189 0.58695 0.3099 0.0
C1482 C 0.5766 0.56694 0.32373 0.0
H1483 H 0.62602 0.55815 0.40024 0.0
H1484 H 0.61678 0.57228 0.37175 0.0
H1485 H 0.59823 0.57574 0.39919 0.0
H1486 H 0.55667 0.58597 0.38023 0.0
H1487 H 0.54828 0.62127 0.35598 0.0
H1488 H 0.37697 0.38038 0.13105 0.0
H1489 H 0.3926 0.34313 0.14639 0.0
H1490 H 0.31857 0.32431 0.16826 0.0
H1491 H 0.30261 0.36142 0.15227 0.0
H1492 H 0.38928 0.32348 0.19436 0.0
H1493 H 0.34167 0.27018 0.12342 0.0
H1494 H 0.34489 0.30114 0.12027 0.0
H1495 H 0.32243 0.28956 0.14139 0.0
C1496 C 0.36397 0.36828 0.139 0.0
C1497 C 0.33851 0.37375 0.1402 0.0
C1498 C 0.37295 0.34707 0.1479 0.0
C1499 C 0.35668 0.33085 0.15811 0.0
C1500 C 0.33136 0.33646 0.16006 0.0
H1501 H 0.39963 0.18932 0.20488 0.0
H1502 H 0.37459 0.22451 0.19749 0.0
C1503 C 0.32233 0.35775 0.15117 0.0
C1504 C 0.36652 0.30803 0.16634 0.0
H1505 H 0.36759 0.25044 0.15164 0.0
C1506 C 0.38435 0.30748 0.1852 0.0
C1507 C 0.35996 0.28717 0.15441 0.0
C1508 C 0.34132 0.28689 0.13362 0.0
C1509 C 0.39631 0.28671 0.19201 0.0
C1510 C 0.39055 0.26605 0.17936 0.0
C1511 C 0.37195 0.26636 0.16125 0.0
C1512 C 0.40517 0.24447 0.18322 0.0
C1513 C 0.41533 0.28711 0.21245 0.0
C1514 C 0.43042 0.24393 0.17702 0.0
C1515 C 0.44468 0.22397 0.18108 0.0
C1516 C 0.43397 0.20403 0.19136 0.0
C1517 C 0.40845 0.20438 0.19694 0.0
C1518 C 0.39414 0.22445 0.1928 0.0
H1519 H 0.41254 0.30232 0.2248 0.0
H1520 H 0.41463 0.27106 0.22382 0.0
H1521 H 0.43411 0.28826 0.20412 0.0
H1522 H 0.43915 0.25907 0.16912 0.0
H1523 H 0.46421 0.22432 0.17637 0.0
H1524 H 0.89924 0.3619 0.77246 0.0
H1525 H 0.87451 0.32764 0.7825 0.0
H1526 H 0.93572 0.29897 0.82416 0.0
H1527 H 0.96041 0.33283 0.81437 0.0
H1528 H 0.88824 0.27949 0.77149 0.0
H1529 H 0.87561 0.29514 0.87222 0.0
H1530 H 0.88396 0.31781 0.85072 0.0
H1531 H 0.90707 0.29752 0.86158 0.0
C1532 C 0.90732 0.3484 0.78398 0.0
C1533 C 0.9318 0.35016 0.79265 0.0
C1534 C 0.8932 0.32883 0.78961 0.0
C1535 C 0.90321 0.31091 0.8043 0.0
C1536 C 0.92751 0.31275 0.81312 0.0
H1537 H 0.869 0.1767 0.86217 0.0
H1538 H 0.88642 0.21388 0.85011 0.0
C1539 C 0.94164 0.33212 0.80737 0.0
C1540 C 0.88888 0.28975 0.80981 0.0
H1541 H 0.86702 0.25709 0.85777 0.0
C1542 C 0.88325 0.27468 0.79029 0.0
C1543 C 0.88254 0.28352 0.83436 0.0
C1544 C 0.88738 0.29942 0.85594 0.0
C1545 C 0.87242 0.25303 0.79481 0.0
C1546 C 0.8666 0.24655 0.81948 0.0
C1547 C 0.87159 0.26198 0.83889 0.0
C1548 C 0.85617 0.22354 0.82579 0.0
C1549 C 0.86835 0.2369 0.77325 0.0
C1550 C 0.83333 0.21653 0.81615 0.0
C1551 C 0.82346 0.19505 0.82273 0.0
C1552 C 0.83609 0.18022 0.83934 0.0
C1553 C 0.85895 0.18739 0.84899 0.0
C1554 C 0.86884 0.20878 0.84229 0.0
H1555 H 0.87948 0.2419 0.75677 0.0
H1556 H 0.87318 0.21874 0.77831 0.0
H1557 H 0.8485 0.23759 0.76795 0.0
H1558 H 0.82296 0.22779 0.80376 0.0
H1559 H 0.80593 0.19008 0.81476 0.0
H1560 H 0.10927 0.59046 0.06725 0.0
H1561 H 0.07062 0.60819 0.05203 0.0
H1562 H 0.08383 0.66881 0.09632 0.0
H1563 H 0.12198 0.6511 0.11222 0.0
H1564 H 0.02723 0.63204 0.08498 0.0
H1565 H 0.07807 0.68717 0.01757 0.0
H1566 H 0.0905 0.65989 0.02884 0.0
H1567 H 0.09046 0.68495 0.04846 0.0
C1568 C 0.10374 0.60738 0.07413 0.0
C1569 C 0.11889 0.61943 0.09082 0.0
C1570 C 0.08171 0.6175 0.06531 0.0
C1571 C 0.07457 0.63983 0.07295 0.0
C1572 C 0.08919 0.65161 0.0901 0.0
H1573 H 0.97208 0.74854 0.04056 0.0
H1574 H 0.0058 0.72265 0.05302 0.0
C1575 C 0.11108 0.6415 0.09902 0.0
C1576 C 0.05244 0.65148 0.06233 0.0
H1577 H 0.03545 0.69551 0.02342 0.0
C1578 C 0.02886 0.64573 0.07129 0.0
C1579 C 0.05481 0.66929 0.04453 0.0
C1580 C 0.07977 0.67571 0.03407 0.0
C1581 C 0.00757 0.65812 0.06364 0.0
C1582 C 0.01002 0.67639 0.04626 0.0
C1583 C 0.03359 0.68154 0.03674 0.0
C1584 C 0.98881 0.69158 0.039 0.0
C1585 C 0.98286 0.65228 0.07506 0.0
C1586 C 0.96796 0.68275 0.02687 0.0
C1587 C 0.94843 0.69759 0.01978 0.0
C1588 C 0.94958 0.72153 0.02448 0.0
C1589 C 0.97055 0.73023 0.03655 0.0
C1590 C 0.9899 0.71544 0.04372 0.0
H1591 H 0.98496 0.64129 0.09188 0.0
H1592 H 0.97239 0.66829 0.08015 0.0
H1593 H 0.9717 0.64263 0.06138 0.0
H1594 H 0.96694 0.66446 0.0226 0.0
H1595 H 0.93262 0.69035 0.01037 0.0
H1596 H 0.65216 0.89457 0.35524 0.0
H1597 H 0.63353 0.85784 0.34348 0.0
H1598 H 0.70411 0.8334 0.31548 0.0
H1599 H 0.72291 0.87022 0.32697 0.0
H1600 H 0.63078 0.83705 0.29661 0.0
H1601 H 0.68333 0.78116 0.36269 0.0
H1602 H 0.68208 0.81234 0.36539 0.0
H1603 H 0.70187 0.79885 0.34261 0.0
C1604 C 0.66372 0.88151 0.34637 0.0
C1605 C 0.68909 0.8854 0.34212 0.0
C1606 C 0.65305 0.86044 0.33979 0.0
C1607 C 0.66749 0.84272 0.32896 0.0
C1608 C 0.69272 0.84661 0.32433 0.0
H1609 H 0.62175 0.70345 0.28157 0.0
H1610 H 0.64657 0.73804 0.28961 0.0
C1611 C 0.70343 0.8677 0.33091 0.0
C1612 C 0.65588 0.82038 0.32217 0.0
H1613 H 0.65598 0.76237 0.33541 0.0
C1614 C 0.63636 0.82072 0.30505 0.0
C1615 C 0.66327 0.79903 0.33306 0.0
C1616 C 0.68365 0.7977 0.35211 0.0
C1617 C 0.62387 0.80039 0.29869 0.0
C1618 C 0.63077 0.77916 0.31009 0.0
C1619 C 0.65073 0.77866 0.32671 0.0
C1620 C 0.61636 0.75771 0.30613 0.0
C1621 C 0.60334 0.80181 0.27979 0.0
C1622 C 0.5914 0.75708 0.31338 0.0
C1623 C 0.57726 0.73746 0.3089 0.0
C1624 C 0.58777 0.71787 0.29716 0.0
C1625 C 0.61306 0.71821 0.29063 0.0
C1626 C 0.62726 0.73797 0.29516 0.0
H1627 H 0.60502 0.81741 0.26783 0.0
H1628 H 0.60331 0.78618 0.26782 0.0
H1629 H 0.58522 0.80295 0.28957 0.0
H1630 H 0.58275 0.77191 0.32235 0.0
H1631 H 0.55794 0.73782 0.31442 0.0
H1632 H 0.54246 0.31346 0.53579 0.0
H1633 H 0.50922 0.33906 0.55033 0.0
H1634 H 0.55253 0.39866 0.53081 0.0
H1635 H 0.58607 0.37306 0.51588 0.0
H1636 H 0.51198 0.37222 0.58816 0.0
H1637 H 0.48479 0.41266 0.49842 0.0
H1638 H 0.5035 0.38652 0.50011 0.0
H1639 H 0.5171 0.41413 0.50627 0.0
C1640 C 0.54499 0.33201 0.5344 0.0
C1641 C 0.56703 0.34116 0.52461 0.0
C1642 C 0.5259 0.34663 0.54277 0.0
C1643 C 0.52823 0.37078 0.54145 0.0
C1644 C 0.55014 0.38008 0.53164 0.0
H1645 H 0.4234 0.47963 0.58936 0.0
H1646 H 0.45944 0.45867 0.57236 0.0
C1647 C 0.56936 0.3654 0.52325 0.0
C1648 C 0.50795 0.38595 0.55124 0.0
H1649 H 0.46366 0.42582 0.53427 0.0
C1650 C 0.50146 0.38398 0.57638 0.0
C1651 C 0.49432 0.4014 0.5359 0.0
C1652 C 0.50006 0.40378 0.50862 0.0
C1653 C 0.48165 0.39687 0.58658 0.0
C1654 C 0.46756 0.41184 0.57111 0.0
C1655 C 0.4744 0.41427 0.54608 0.0
C1656 C 0.44528 0.42459 0.58051 0.0
C1657 C 0.47615 0.39448 0.61391 0.0
C1658 C 0.42505 0.41242 0.59019 0.0
C1659 C 0.40443 0.42432 0.59985 0.0
C1660 C 0.40345 0.44871 0.59989 0.0
C1661 C 0.42344 0.46086 0.5895 0.0
C1662 C 0.44412 0.44891 0.57986 0.0
H1663 H 0.49254 0.38785 0.62428 0.0
H1664 H 0.4702 0.41133 0.62206 0.0
H1665 H 0.46093 0.38196 0.61654 0.0
H1666 H 0.42522 0.39365 0.5903 0.0
H1667 H 0.38917 0.41438 0.60719 0.0
H1668 H 0.14036 0.68534 0.61593 0.0
H1669 H 0.1227 0.72267 0.6286 0.0
H1670 H 0.18494 0.73346 0.67694 0.0
H1671 H 0.20332 0.69651 0.66356 0.0
H1672 H 0.1082 0.73845 0.67416 0.0
H1673 H 0.18372 0.79326 0.63721 0.0
H1674 H 0.181 0.76303 0.62932 0.0
H1675 H 0.1938 0.7713 0.65868 0.0
C1676 C 0.15051 0.69574 0.62903 0.0
C1677 C 0.17347 0.68793 0.63846 0.0
C1678 C 0.14026 0.71704 0.63641 0.0
C1679 C 0.15268 0.73114 0.65338 0.0
C1680 C 0.17525 0.72317 0.66339 0.0
H1681 H 0.11294 0.86671 0.71595 0.0
H1682 H 0.13355 0.82986 0.70589 0.0
C1683 C 0.18559 0.70185 0.65596 0.0
C1684 C 0.14171 0.75401 0.66066 0.0
H1685 H 0.152 0.81239 0.66008 0.0
C1686 C 0.11779 0.75461 0.67105 0.0
C1687 C 0.15422 0.77514 0.65668 0.0
C1688 C 0.17951 0.77578 0.64467 0.0
C1689 C 0.1061 0.77565 0.67761 0.0
C1690 C 0.11847 0.79678 0.67333 0.0
C1691 C 0.14253 0.7962 0.66332 0.0
C1692 C 0.10647 0.81963 0.6787 0.0
C1693 C 0.08068 0.77507 0.68936 0.0
C1694 C 0.08473 0.82644 0.6663 0.0
C1695 C 0.07288 0.84752 0.67195 0.0
C1696 C 0.08256 0.86238 0.69011 0.0
C1697 C 0.10482 0.85578 0.70195 0.0
C1698 C 0.11668 0.83467 0.69623 0.0
H1699 H 0.07663 0.75775 0.69733 0.0
H1700 H 0.07884 0.78825 0.70425 0.0
H1701 H 0.06651 0.77898 0.67504 0.0
H1702 H 0.07679 0.81535 0.65232 0.0
H1703 H 0.0559 0.85195 0.6623 0.0
H1704 H 0.4782 0.80822 0.93708 0.0
H1705 H 0.51013 0.83425 0.92195 0.0
H1706 H 0.46685 0.89321 0.94671 0.0
H1707 H 0.43467 0.86723 0.96219 0.0
H1708 H 0.50383 0.87003 0.88599 0.0
H1709 H 0.5366 0.90382 0.97656 0.0
H1710 H 0.51853 0.87781 0.97412 0.0
H1711 H 0.50377 0.90572 0.97101 0.0
C1712 C 0.47542 0.82671 0.93947 0.0
C1713 C 0.45383 0.83562 0.95088 0.0
C1714 C 0.49373 0.84156 0.93077 0.0
C1715 C 0.49097 0.86561 0.93343 0.0
C1716 C 0.46949 0.87466 0.94481 0.0
H1717 H 0.59172 0.97553 0.88733 0.0
H1718 H 0.55675 0.95416 0.90476 0.0
C1719 C 0.45106 0.85978 0.9535 0.0
C1720 C 0.51036 0.88106 0.92348 0.0
H1721 H 0.55544 0.91882 0.94048 0.0
C1722 C 0.51507 0.88076 0.89788 0.0
C1723 C 0.52487 0.89512 0.93905 0.0
C1724 C 0.52092 0.89563 0.96675 0.0
C1725 C 0.53404 0.89403 0.8874 0.0
C1726 C 0.54905 0.90758 0.90303 0.0
C1727 C 0.54396 0.90833 0.92857 0.0
C1728 C 0.57057 0.92049 0.89322 0.0
C1729 C 0.53771 0.89353 0.85965 0.0
C1730 C 0.59019 0.90859 0.88148 0.0
C1731 C 0.61016 0.92071 0.87156 0.0
C1732 C 0.61103 0.94499 0.87336 0.0
C1733 C 0.59167 0.95683 0.88576 0.0
C1734 C 0.57164 0.94466 0.89564 0.0
H1735 H 0.52068 0.88795 0.84993 0.0
H1736 H 0.54303 0.91082 0.85247 0.0
H1737 H 0.55279 0.88097 0.85503 0.0
H1738 H 0.59005 0.88987 0.87998 0.0
H1739 H 0.62501 0.91103 0.8626 0.0
H1740 H 0.90094 0.15611 0.36371 0.0
H1741 H 0.93562 0.17708 0.38165 0.0
H1742 H 0.96676 0.1128 0.40902 0.0
H1743 H 0.93241 0.09157 0.39059 0.0
H1744 H 0.95102 0.17831 0.43208 0.0
H1745 H 0.02453 0.14218 0.37006 0.0
H1746 H 0.99194 0.1401 0.36302 0.0
H1747 H 0.00569 0.12133 0.38589 0.0
C1748 C 0.91528 0.14639 0.37333 0.0
C1749 C 0.91398 0.12213 0.37555 0.0
C1750 C 0.935 0.15842 0.38371 0.0
C1751 C 0.95392 0.14647 0.39638 0.0
C1752 C 0.95254 0.12231 0.39899 0.0
H1753 H 0.09031 0.20072 0.4616 0.0
H1754 H 0.05697 0.1749 0.4488 0.0
C1755 C 0.93277 0.11025 0.38866 0.0
C1756 C 0.97492 0.15945 0.40698 0.0
H1757 H 0.03726 0.16788 0.40135 0.0
C1758 C 0.96989 0.17599 0.42543 0.0
C1759 C 0.99954 0.15626 0.39838 0.0
C1760 C 0.00586 0.13914 0.37812 0.0
C1761 C 0.9888 0.18957 0.43538 0.0
C1762 C 0.01331 0.18688 0.42627 0.0
C1763 C 0.01846 0.16992 0.40828 0.0
C1764 C 0.03352 0.20237 0.43419 0.0
C1765 C 0.98236 0.20664 0.45565 0.0
C1766 C 0.03158 0.22629 0.42984 0.0
C1767 C 0.0505 0.24105 0.43709 0.0
C1768 C 0.07196 0.23219 0.44869 0.0
C1769 C 0.07406 0.20813 0.45272 0.0
C1770 C 0.05502 0.19335 0.44544 0.0
H1771 H 0.96509 0.20178 0.46556 0.0
H1772 H 0.9976 0.20787 0.46935 0.0
H1773 H 0.97929 0.22404 0.44733 0.0
H1774 H 0.01542 0.23357 0.42065 0.0
H1775 H 0.04828 0.25943 0.4335 0.0
loop_
_geom_bond_atom_site_label_1
_geom_bond_atom_site_label_2
_geom_bond_distance
_geom_bond_site_symmetry_2
_ccdc_geom_bond_type
Tb0 C10 2.825 . S
Tb0 O11 2.347 . S
Tb0 O14 2.366 . S
Tb0 O19 2.418 . S
Tb0 O20 2.384 . S
Tb0 O23 2.479 . S
Tb0 O24 2.471 . S
Eu1 O12 2.418 . S
Eu1 O13 2.384 . S
Eu1 O16 2.479 . S
Eu1 O17 2.471 . S
Eu1 O18 2.347 . S
Eu1 O21 2.366 . S
Eu1 C31 2.825 . S
C2 O18 1.259 . S
C2 O19 1.265 . S
C3 O20 1.255 . S
C3 O21 1.265 . S
C4 C6 1.380 . S
C4 C7 1.374 . S
C4 C10 1.507 . S
C5 C6 1.384 . S
C5 C9 1.387 . S
C5 H32 0.930 . S
C6 C4 1.380 . S
C6 C5 1.384 . S
C6 H33 0.931 . S
C7 C4 1.374 . S
C7 C8 1.390 . S
C7 H34 0.930 . S
C8 C7 1.390 . S
C8 C9 1.391 . S
C8 H35 0.930 . S
C9 C5 1.387 . S
C9 C8 1.391 . S
C10 Tb0 2.825 . S
C10 C4 1.507 . S
C10 O23 1.238 . S
C10 O24 1.247 . S
O11 Tb0 2.347 . S
O11 C15 1.259 . S
O12 Eu1 2.418 . S
O12 C15 1.265 . S
O13 Eu1 2.384 . S
O13 C22 1.255 . S
O14 Tb0 2.366 . S
O14 C22 1.265 . S
C15 O11 1.259 . S
C15 O12 1.265 . S
O16 Eu1 2.479 . S
O16 C31 1.238 . S
O17 Eu1 2.471 . S
O17 C31 1.247 . S
O18 Eu1 2.347 . S
O18 C2 1.259 . S
O19 Tb0 2.418 . S
O19 C2 1.265 . S
O20 Tb0 2.384 . S
O20 C3 1.255 . S
O21 Eu1 2.366 . S
O21 C3 1.265 . S
C22 O13 1.255 . S
C22 O14 1.265 . S
O23 Tb0 2.479 . S
O23 C10 1.238 . S
O24 Tb0 2.471 . S
O24 C10 1.247 . S
C25 C28 1.380 . S
C25 C29 1.374 . S
C25 C31 1.507 . S
C26 C27 1.387 . S
C26 C30 1.391 . S
C27 C26 1.387 . S
C27 C28 1.384 . S
C27 H36 0.930 . S
C28 C25 1.380 . S
C28 C27 1.384 . S
C28 H37 0.931 . S
C29 C25 1.374 . S
C29 C30 1.390 . S
C29 H38 0.930 . S
C30 C26 1.391 . S
C30 C29 1.390 . S
C30 H39 0.930 . S
C31 Eu1 2.825 . S
C31 O16 1.238 . S
C31 O17 1.247 . S
C31 C25 1.507 . S
H32 C5 0.930 . S
H33 C6 0.931 . S
H34 C7 0.930 . S
H35 C8 0.930 . S
H36 C27 0.930 . S
H37 C28 0.931 . S
H38 C29 0.930 . S
H39 C30 0.930 . S
Tb40 C50 2.825 1_455 S
Tb40 O51 2.347 . S
Tb40 O54 2.366 . S
Tb40 O59 2.418 . S
Tb40 O60 2.384 . S
Tb40 O63 2.479 1_455 S
Tb40 O64 2.471 1_455 S
Eu41 O52 2.418 . S
Eu41 O53 2.384 . S
Eu41 O56 2.479 . S
Eu41 O57 2.471 . S
Eu41 O58 2.347 . S
Eu41 O61 2.366 . S
Eu41 C71 2.825 . S
C42 O58 1.259 . S
C42 O59 1.265 . S
C43 O60 1.255 . S
C43 O61 1.265 . S
C44 C46 1.380 . S
C44 C47 1.374 . S
C44 C50 1.507 . S
C45 C46 1.384 . S
C45 C49 1.387 . S
C45 H72 0.930 . S
C46 C44 1.380 . S
C46 C45 1.384 . S
C46 H73 0.931 . S
C47 C44 1.374 . S
C47 C48 1.390 . S
C47 H74 0.930 . S
C48 C47 1.390 . S
C48 C49 1.391 . S
C48 H75 0.930 . S
C49 C45 1.387 . S
C49 C48 1.391 . S
C50 Tb40 2.825 1_655 S
C50 C44 1.507 . S
C50 O63 1.238 . S
C50 O64 1.247 . S
O51 Tb40 2.347 . S
O51 C55 1.259 . S
O52 Eu41 2.418 . S
O52 C55 1.265 . S
O53 Eu41 2.384 . S
O53 C62 1.255 . S
O54 Tb40 2.366 . S
O54 C62 1.265 . S
C55 O51 1.259 . S
C55 O52 1.265 . S
O56 Eu41 2.479 . S
O56 C71 1.238 . S
O57 Eu41 2.471 . S
O57 C71 1.247 . S
O58 Eu41 2.347 . S
O58 C42 1.259 . S
O59 Tb40 2.418 . S
O59 C42 1.265 . S
O60 Tb40 2.384 . S
O60 C43 1.255 . S
O61 Eu41 2.366 . S
O61 C43 1.265 . S
C62 O53 1.255 . S
C62 O54 1.265 . S
O63 Tb40 2.479 1_655 S
O63 C50 1.238 . S
O64 Tb40 2.471 1_655 S
O64 C50 1.247 . S
C65 C68 1.380 . S
C65 C69 1.374 . S
C65 C71 1.507 . S
C66 C67 1.387 . S
C66 C70 1.391 . S
C67 C66 1.387 . S
C67 C68 1.384 . S
C67 H76 0.930 . S
C68 C65 1.380 . S
C68 C67 1.384 . S
C68 H77 0.931 . S
C69 C65 1.374 . S
C69 C70 1.390 . S
C69 H78 0.930 . S
C70 C66 1.391 . S
C70 C69 1.390 . S
C70 H79 0.930 . S
C71 Eu41 2.825 . S
C71 O56 1.238 . S
C71 O57 1.247 . S
C71 C65 1.507 . S
H72 C45 0.930 . S
H73 C46 0.931 . S
H74 C47 0.930 . S
H75 C48 0.930 . S
H76 C67 0.930 . S
H77 C68 0.931 . S
H78 C69 0.930 . S
H79 C70 0.930 . S
Tb80 C90 2.825 . S
Tb80 O91 2.347 . S
Tb80 O94 2.366 1_554 S
Tb80 O99 2.418 1_554 S
Tb80 O100 2.384 . S
Tb80 O103 2.479 . S
Tb80 O104 2.471 . S
Eu81 O92 2.418 . S
Eu81 O93 2.384 . S
Eu81 O96 2.479 . S
Eu81 O97 2.471 . S
Eu81 O98 2.347 . S
Eu81 O101 2.366 . S
Eu81 C111 2.825 . S
C82 O98 1.259 . S
C82 O99 1.265 . S
C83 O100 1.255 1_556 S
C83 O101 1.265 . S
C84 C86 1.380 . S
C84 C87 1.374 . S
C84 C90 1.507 . S
C85 C86 1.384 . S
C85 C89 1.387 . S
C85 H112 0.930 . S
C86 C84 1.380 . S
C86 C85 1.384 . S
C86 H113 0.931 . S
C87 C84 1.374 . S
C87 C88 1.390 . S
C87 H114 0.930 . S
C88 C87 1.390 . S
C88 C89 1.391 . S
C88 H115 0.930 . S
C89 C85 1.387 . S
C89 C88 1.391 . S
C90 Tb80 2.825 . S
C90 C84 1.507 . S
C90 O103 1.238 . S
C90 O104 1.247 . S
O91 Tb80 2.347 . S
O91 C95 1.259 . S
O92 Eu81 2.418 . S
O92 C95 1.265 1_556 S
O93 Eu81 2.384 . S
O93 C102 1.255 . S
O94 Tb80 2.366 1_556 S
O94 C102 1.265 . S
C95 O91 1.259 . S
C95 O92 1.265 1_554 S
O96 Eu81 2.479 . S
O96 C111 1.238 . S
O97 Eu81 2.471 . S
O97 C111 1.247 . S
O98 Eu81 2.347 . S
O98 C82 1.259 . S
O99 Tb80 2.418 1_556 S
O99 C82 1.265 . S
O100 Tb80 2.384 . S
O100 C83 1.255 1_554 S
O101 Eu81 2.366 . S
O101 C83 1.265 . S
C102 O93 1.255 . S
C102 O94 1.265 . S
O103 Tb80 2.479 . S
O103 C90 1.238 . S
O104 Tb80 2.471 . S
O104 C90 1.247 . S
C105 C108 1.380 . S
C105 C109 1.374 . S
C105 C111 1.507 . S
C106 C107 1.387 . S
C106 C110 1.391 . S
C107 C106 1.387 . S
C107 C108 1.384 . S
C107 H116 0.930 . S
C108 C105 1.380 . S
C108 C107 1.384 . S
C108 H117 0.931 . S
C109 C105 1.374 . S
C109 C110 1.390 . S
C109 H118 0.930 . S
C110 C106 1.391 . S
C110 C109 1.390 . S
C110 H119 0.930 . S
C111 Eu81 2.825 . S
C111 O96 1.238 . S
C111 O97 1.247 . S
C111 C105 1.507 . S
H112 C85 0.930 . S
H113 C86 0.931 . S
H114 C87 0.930 . S
H115 C88 0.930 . S
H116 C107 0.930 . S
H117 C108 0.931 . S
H118 C109 0.930 . S
H119 C110 0.930 . S
Tb120 C130 2.825 . S
Tb120 O131 2.347 . S
Tb120 O134 2.366 . S
Tb120 O139 2.418 . S
Tb120 O140 2.384 . S
Tb120 O143 2.479 . S
Tb120 O144 2.471 . S
Eu121 O132 2.418 . S
Eu121 O133 2.384 . S
Eu121 O136 2.479 . S
Eu121 O137 2.471 . S
Eu121 O138 2.347 . S
Eu121 O141 2.366 . S
Eu121 C151 2.825 . S
C122 O138 1.259 . S
C122 O139 1.265 . S
C123 O140 1.255 . S
C123 O141 1.265 . S
C124 C126 1.380 . S
C124 C127 1.374 . S
C124 C130 1.507 . S
C125 C126 1.384 . S
C125 C129 1.387 . S
C125 H152 0.930 . S
C126 C124 1.380 . S
C126 C125 1.384 . S
C126 H153 0.931 . S
C127 C124 1.374 . S
C127 C128 1.390 . S
C127 H154 0.930 . S
C128 C127 1.390 . S
C128 C129 1.391 . S
C128 H155 0.930 . S
C129 C125 1.387 . S
C129 C128 1.391 . S
C130 Tb120 2.825 . S
C130 C124 1.507 . S
C130 O143 1.238 . S
C130 O144 1.247 . S
O131 Tb120 2.347 . S
O131 C135 1.259 . S
O132 Eu121 2.418 . S
O132 C135 1.265 . S
O133 Eu121 2.384 . S
O133 C142 1.255 . S
O134 Tb120 2.366 . S
O134 C142 1.265 . S
C135 O131 1.259 . S
C135 O132 1.265 . S
O136 Eu121 2.479 . S
O136 C151 1.238 . S
O137 Eu121 2.471 . S
O137 C151 1.247 . S
O138 Eu121 2.347 . S
O138 C122 1.259 . S
O139 Tb120 2.418 . S
O139 C122 1.265 . S
O140 Tb120 2.384 . S
O140 C123 1.255 . S
O141 Eu121 2.366 . S
O141 C123 1.265 . S
C142 O133 1.255 . S
C142 O134 1.265 . S
O143 Tb120 2.479 . S
O143 C130 1.238 . S
O144 Tb120 2.471 . S
O144 C130 1.247 . S
C145 C148 1.380 . S
C145 C149 1.374 . S
C145 C151 1.507 . S
C146 C147 1.387 . S
C146 C150 1.391 . S
C147 C146 1.387 . S
C147 C148 1.384 . S
C147 H156 0.930 . S
C148 C145 1.380 . S
C148 C147 1.384 . S
C148 H157 0.931 . S
C149 C145 1.374 . S
C149 C150 1.390 . S
C149 H158 0.930 . S
C150 C146 1.391 . S
C150 C149 1.390 . S
C150 H159 0.930 . S
C151 Eu121 2.825 . S
C151 O136 1.238 . S
C151 O137 1.247 . S
C151 C145 1.507 . S
H152 C125 0.930 . S
H153 C126 0.931 . S
H154 C127 0.930 . S
H155 C128 0.930 . S
H156 C147 0.930 . S
H157 C148 0.931 . S
H158 C149 0.930 . S
H159 C150 0.930 . S
Tb160 C170 2.825 . S
Tb160 O171 2.347 . S
Tb160 O174 2.366 . S
Tb160 O179 2.418 . S
Tb160 O180 2.384 . S
Tb160 O183 2.479 . S
Tb160 O184 2.471 . S
Eu161 O172 2.418 . S
Eu161 O173 2.384 . S
Eu161 O176 2.479 . S
Eu161 O177 2.471 . S
Eu161 O178 2.347 . S
Eu161 O181 2.366 . S
Eu161 C191 2.825 . S
C162 O178 1.259 . S
C162 O179 1.265 . S
C163 O180 1.255 . S
C163 O181 1.265 . S
C164 C166 1.380 . S
C164 C167 1.374 . S
C164 C170 1.507 . S
C165 C166 1.384 . S
C165 C169 1.387 . S
C165 H192 0.930 . S
C166 C164 1.380 . S
C166 C165 1.384 . S
C166 H193 0.931 . S
C167 C164 1.374 . S
C167 C168 1.390 . S
C167 H194 0.930 . S
C168 C167 1.390 . S
C168 C169 1.391 . S
C168 H195 0.930 . S
C169 C165 1.387 . S
C169 C168 1.391 . S
C170 Tb160 2.825 . S
C170 C164 1.507 . S
C170 O183 1.238 . S
C170 O184 1.247 . S
O171 Tb160 2.347 . S
O171 C175 1.259 . S
O172 Eu161 2.418 . S
O172 C175 1.265 . S
O173 Eu161 2.384 . S
O173 C182 1.255 . S
O174 Tb160 2.366 . S
O174 C182 1.265 . S
C175 O171 1.259 . S
C175 O172 1.265 . S
O176 Eu161 2.479 . S
O176 C191 1.238 . S
O177 Eu161 2.471 . S
O177 C191 1.247 . S
O178 Eu161 2.347 . S
O178 C162 1.259 . S
O179 Tb160 2.418 . S
O179 C162 1.265 . S
O180 Tb160 2.384 . S
O180 C163 1.255 . S
O181 Eu161 2.366 . S
O181 C163 1.265 . S
C182 O173 1.255 . S
C182 O174 1.265 . S
O183 Tb160 2.479 . S
O183 C170 1.238 . S
O184 Tb160 2.471 . S
O184 C170 1.247 . S
C185 C188 1.380 . S
C185 C189 1.374 . S
C185 C191 1.507 . S
C186 C187 1.387 . S
C186 C190 1.391 . S
C187 C186 1.387 . S
C187 C188 1.384 . S
C187 H196 0.930 . S
C188 C185 1.380 . S
C188 C187 1.384 . S
C188 H197 0.931 . S
C189 C185 1.374 . S
C189 C190 1.390 . S
C189 H198 0.930 . S
C190 C186 1.391 . S
C190 C189 1.390 . S
C190 H199 0.930 . S
C191 Eu161 2.825 . S
C191 O176 1.238 . S
C191 O177 1.247 . S
C191 C185 1.507 . S
H192 C165 0.930 . S
H193 C166 0.931 . S
H194 C167 0.930 . S
H195 C168 0.930 . S
H196 C187 0.930 . S
H197 C188 0.931 . S
H198 C189 0.930 . S
H199 C190 0.930 . S
Tb200 C210 2.825 . S
Tb200 O211 2.347 . S
Tb200 O214 2.366 . S
Tb200 O219 2.418 . S
Tb200 O220 2.384 . S
Tb200 O223 2.479 . S
Tb200 O224 2.471 . S
Eu201 O212 2.418 1_655 S
Eu201 O213 2.384 . S
Eu201 O216 2.479 1_655 S
Eu201 O217 2.471 1_655 S
Eu201 O218 2.347 . S
Eu201 O221 2.366 1_655 S
Eu201 C231 2.825 1_655 S
C202 O218 1.259 . S
C202 O219 1.265 . S
C203 O220 1.255 1_455 S
C203 O221 1.265 . S
C204 C206 1.380 . S
C204 C207 1.374 . S
C204 C210 1.507 . S
C205 C206 1.384 . S
C205 C209 1.387 . S
C205 H232 0.930 . S
C206 C204 1.380 . S
C206 C205 1.384 . S
C206 H233 0.931 . S
C207 C204 1.374 . S
C207 C208 1.390 . S
C207 H234 0.930 . S
C208 C207 1.390 . S
C208 C209 1.391 . S
C208 H235 0.930 . S
C209 C205 1.387 . S
C209 C208 1.391 . S
C210 Tb200 2.825 . S
C210 C204 1.507 . S
C210 O223 1.238 . S
C210 O224 1.247 . S
O211 Tb200 2.347 . S
O211 C215 1.252 1_655 S
O212 Eu201 2.418 1_455 S
O212 C215 1.270 . S
O213 Eu201 2.384 . S
O213 C222 1.255 . S
O214 Tb200 2.366 . S
O214 C222 1.265 . S
C215 O211 1.252 1_455 S
C215 O212 1.270 . S
O216 Eu201 2.479 1_455 S
O216 C231 1.238 . S
O217 Eu201 2.471 1_455 S
O217 C231 1.247 . S
O218 Eu201 2.347 . S
O218 C202 1.259 . S
O219 Tb200 2.418 . S
O219 C202 1.265 . S
O220 Tb200 2.384 . S
O220 C203 1.255 1_655 S
O221 Eu201 2.366 1_455 S
O221 C203 1.265 . S
C222 O213 1.255 . S
C222 O214 1.265 . S
O223 Tb200 2.479 . S
O223 C210 1.238 . S
O224 Tb200 2.471 . S
O224 C210 1.247 . S
C225 C228 1.380 . S
C225 C229 1.374 . S
C225 C231 1.507 . S
C226 C227 1.387 . S
C226 C230 1.391 . S
C227 C226 1.387 . S
C227 C228 1.384 . S
C227 H236 0.930 . S
C228 C225 1.380 . S
C228 C227 1.384 . S
C228 H237 0.931 . S
C229 C225 1.374 . S
C229 C230 1.390 . S
C229 H238 0.930 . S
C230 C226 1.391 . S
C230 C229 1.390 . S
C230 H239 0.930 . S
C231 Eu201 2.825 1_455 S
C231 O216 1.238 . S
C231 O217 1.247 . S
C231 C225 1.507 . S
H232 C205 0.930 . S
H233 C206 0.931 . S
H234 C207 0.930 . S
H235 C208 0.930 . S
H236 C227 0.930 . S
H237 C228 0.931 . S
H238 C229 0.930 . S
H239 C230 0.930 . S
Tb240 C250 2.825 . S
Tb240 O251 2.347 1_554 S
Tb240 O254 2.366 . S
Tb240 O259 2.418 . S
Tb240 O260 2.384 1_554 S
Tb240 O263 2.479 . S
Tb240 O264 2.471 . S
Eu241 O252 2.418 . S
Eu241 O253 2.384 1_556 S
Eu241 O256 2.479 . S
Eu241 O257 2.471 . S
Eu241 O258 2.347 1_556 S
Eu241 O261 2.366 . S
Eu241 C271 2.825 . S
C242 O258 1.259 . S
C242 O259 1.265 . S
C243 O260 1.255 . S
C243 O261 1.265 . S
C244 C246 1.380 . S
C244 C247 1.374 . S
C244 C250 1.507 . S
C245 C246 1.384 . S
C245 C249 1.387 . S
C245 H272 0.930 . S
C246 C244 1.380 . S
C246 C245 1.384 . S
C246 H273 0.931 . S
C247 C244 1.374 . S
C247 C248 1.390 . S
C247 H274 0.930 . S
C248 C247 1.390 . S
C248 C249 1.391 . S
C248 H275 0.930 . S
C249 C245 1.387 . S
C249 C248 1.391 . S
C250 Tb240 2.825 . S
C250 C244 1.507 . S
C250 O263 1.238 . S
C250 O264 1.247 . S
O251 Tb240 2.347 1_556 S
O251 C255 1.259 . S
O252 Eu241 2.418 . S
O252 C255 1.265 . S
O253 Eu241 2.384 1_554 S
O253 C262 1.255 . S
O254 Tb240 2.366 . S
O254 C262 1.265 . S
C255 O251 1.259 . S
C255 O252 1.265 . S
O256 Eu241 2.479 . S
O256 C271 1.238 . S
O257 Eu241 2.471 . S
O257 C271 1.247 . S
O258 Eu241 2.347 1_554 S
O258 C242 1.259 . S
O259 Tb240 2.418 . S
O259 C242 1.265 . S
O260 Tb240 2.384 1_556 S
O260 C243 1.255 . S
O261 Eu241 2.366 . S
O261 C243 1.265 . S
C262 O253 1.255 . S
C262 O254 1.265 . S
O263 Tb240 2.479 . S
O263 C250 1.238 . S
O264 Tb240 2.471 . S
O264 C250 1.247 . S
C265 C268 1.380 . S
C265 C269 1.374 . S
C265 C271 1.507 . S
C266 C267 1.387 . S
C266 C270 1.391 . S
C267 C266 1.387 . S
C267 C268 1.384 . S
C267 H276 0.930 . S
C268 C265 1.380 . S
C268 C267 1.384 . S
C268 H277 0.931 . S
C269 C265 1.374 . S
C269 C270 1.390 . S
C269 H278 0.930 . S
C270 C266 1.391 . S
C270 C269 1.390 . S
C270 H279 0.930 . S
C271 Eu241 2.825 . S
C271 O256 1.238 . S
C271 O257 1.247 . S
C271 C265 1.507 . S
H272 C245 0.930 . S
H273 C246 0.931 . S
H274 C247 0.930 . S
H275 C248 0.930 . S
H276 C267 0.930 . S
H277 C268 0.931 . S
H278 C269 0.930 . S
H279 C270 0.930 . S
Tb280 C290 2.825 . S
Tb280 O291 2.347 . S
Tb280 O294 2.366 . S
Tb280 O299 2.418 . S
Tb280 O300 2.384 . S
Tb280 O303 2.479 . S
Tb280 O304 2.471 . S
Eu281 O292 2.418 . S
Eu281 O293 2.384 . S
Eu281 O296 2.479 . S
Eu281 O297 2.471 . S
Eu281 O298 2.347 . S
Eu281 O301 2.366 . S
Eu281 C311 2.825 . S
C282 O298 1.259 . S
C282 O299 1.265 . S
C283 O300 1.255 . S
C283 O301 1.265 . S
C284 C286 1.380 . S
C284 C287 1.374 . S
C284 C290 1.507 . S
C285 C286 1.384 . S
C285 C289 1.387 . S
C285 H312 0.930 . S
C286 C284 1.380 . S
C286 C285 1.384 . S
C286 H313 0.931 . S
C287 C284 1.374 . S
C287 C288 1.390 . S
C287 H314 0.930 . S
C288 C287 1.390 . S
C288 C289 1.391 . S
C288 H315 0.930 . S
C289 C285 1.387 . S
C289 C288 1.391 . S
C290 Tb280 2.825 . S
C290 C284 1.507 . S
C290 O303 1.238 . S
C290 O304 1.247 . S
O291 Tb280 2.347 . S
O291 C295 1.259 . S
O292 Eu281 2.418 . S
O292 C295 1.265 . S
O293 Eu281 2.384 . S
O293 C302 1.255 . S
O294 Tb280 2.366 . S
O294 C302 1.265 . S
C295 O291 1.259 . S
C295 O292 1.265 . S
O296 Eu281 2.479 . S
O296 C311 1.238 . S
O297 Eu281 2.471 . S
O297 C311 1.247 . S
O298 Eu281 2.347 . S
O298 C282 1.259 . S
O299 Tb280 2.418 . S
O299 C282 1.265 . S
O300 Tb280 2.384 . S
O300 C283 1.255 . S
O301 Eu281 2.366 . S
O301 C283 1.265 . S
C302 O293 1.255 . S
C302 O294 1.265 . S
O303 Tb280 2.479 . S
O303 C290 1.238 . S
O304 Tb280 2.471 . S
O304 C290 1.247 . S
C305 C308 1.380 . S
C305 C309 1.374 . S
C305 C311 1.507 . S
C306 C307 1.387 . S
C306 C310 1.391 . S
C307 C306 1.387 . S
C307 C308 1.384 . S
C307 H316 0.930 . S
C308 C305 1.380 . S
C308 C307 1.384 . S
C308 H317 0.931 . S
C309 C305 1.374 . S
C309 C310 1.390 . S
C309 H318 0.930 . S
C310 C306 1.391 . S
C310 C309 1.390 . S
C310 H319 0.930 . S
C311 Eu281 2.825 . S
C311 O296 1.238 . S
C311 O297 1.247 . S
C311 C305 1.507 . S
H312 C285 0.930 . S
H313 C286 0.931 . S
H314 C287 0.930 . S
H315 C288 0.930 . S
H316 C307 0.930 . S
H317 C308 0.931 . S
H318 C309 0.930 . S
H319 C310 0.930 . S
Tb320 C330 2.825 . S
Tb320 O331 2.347 . S
Tb320 O334 2.366 . S
Tb320 O339 2.418 . S
Tb320 O340 2.384 . S
Tb320 O343 2.479 . S
Tb320 O344 2.471 . S
Eu321 O332 2.418 . S
Eu321 O333 2.384 . S
Eu321 O336 2.479 . S
Eu321 O337 2.471 . S
Eu321 O338 2.347 . S
Eu321 O341 2.366 . S
Eu321 C351 2.825 . S
C322 O338 1.259 . S
C322 O339 1.265 . S
C323 O340 1.255 . S
C323 O341 1.265 . S
C324 C326 1.380 . S
C324 C327 1.374 . S
C324 C330 1.507 . S
C325 C326 1.384 . S
C325 C329 1.387 . S
C325 H352 0.930 . S
C326 C324 1.380 . S
C326 C325 1.384 . S
C326 H353 0.931 . S
C327 C324 1.374 . S
C327 C328 1.390 . S
C327 H354 0.930 . S
C328 C327 1.390 . S
C328 C329 1.391 . S
C328 H355 0.930 . S
C329 C325 1.387 . S
C329 C328 1.391 . S
C330 Tb320 2.825 . S
C330 C324 1.507 . S
C330 O343 1.238 . S
C330 O344 1.247 . S
O331 Tb320 2.347 . S
O331 C335 1.259 . S
O332 Eu321 2.418 . S
O332 C335 1.265 . S
O333 Eu321 2.384 . S
O333 C342 1.255 . S
O334 Tb320 2.366 . S
O334 C342 1.265 . S
C335 O331 1.259 . S
C335 O332 1.265 . S
O336 Eu321 2.479 . S
O336 C351 1.238 . S
O337 Eu321 2.471 . S
O337 C351 1.247 . S
O338 Eu321 2.347 . S
O338 C322 1.259 . S
O339 Tb320 2.418 . S
O339 C322 1.265 . S
O340 Tb320 2.384 . S
O340 C323 1.255 . S
O341 Eu321 2.366 . S
O341 C323 1.265 . S
C342 O333 1.255 . S
C342 O334 1.265 . S
O343 Tb320 2.479 . S
O343 C330 1.238 . S
O344 Tb320 2.471 . S
O344 C330 1.247 . S
C345 C348 1.380 . S
C345 C349 1.374 . S
C345 C351 1.507 . S
C346 C347 1.387 . S
C346 C350 1.391 . S
C347 C346 1.387 . S
C347 C348 1.384 . S
C347 H356 0.930 . S
C348 C345 1.380 . S
C348 C347 1.384 . S
C348 H357 0.931 . S
C349 C345 1.374 . S
C349 C350 1.390 . S
C349 H358 0.930 . S
C350 C346 1.391 . S
C350 C349 1.390 . S
C350 H359 0.930 . S
C351 Eu321 2.825 . S
C351 O336 1.238 . S
C351 O337 1.247 . S
C351 C345 1.507 . S
H352 C325 0.930 . S
H353 C326 0.931 . S
H354 C327 0.930 . S
H355 C328 0.930 . S
H356 C347 0.930 . S
H357 C348 0.931 . S
H358 C349 0.930 . S
H359 C350 0.930 . S
Tb360 C370 2.825 . S
Tb360 O371 2.347 . S
Tb360 O374 2.366 . S
Tb360 O379 2.418 . S
Tb360 O380 2.384 . S
Tb360 O383 2.479 . S
Tb360 O384 2.471 . S
Eu361 O372 2.418 1_545 S
Eu361 O373 2.384 . S
Eu361 O376 2.479 1_545 S
Eu361 O377 2.471 1_545 S
Eu361 O378 2.347 . S
Eu361 O381 2.366 1_545 S
Eu361 C391 2.825 1_545 S
C362 O378 1.259 . S
C362 O379 1.265 . S
C363 O380 1.255 1_565 S
C363 O381 1.265 . S
C364 C366 1.380 . S
C364 C367 1.374 . S
C364 C370 1.507 . S
C365 C366 1.384 . S
C365 C369 1.387 . S
C365 H392 0.930 . S
C366 C364 1.380 . S
C366 C365 1.384 . S
C366 H393 0.931 . S
C367 C364 1.374 . S
C367 C368 1.390 . S
C367 H394 0.930 . S
C368 C367 1.390 . S
C368 C369 1.391 . S
C368 H395 0.930 . S
C369 C365 1.387 . S
C369 C368 1.391 . S
C370 Tb360 2.825 . S
C370 C364 1.507 . S
C370 O383 1.238 . S
C370 O384 1.247 . S
O371 Tb360 2.347 . S
O371 C375 1.259 . S
O372 Eu361 2.418 1_565 S
O372 C375 1.265 1_565 S
O373 Eu361 2.384 . S
O373 C382 1.255 . S
O374 Tb360 2.366 . S
O374 C382 1.265 . S
C375 O371 1.259 . S
C375 O372 1.265 1_545 S
O376 Eu361 2.479 1_565 S
O376 C391 1.238 . S
O377 Eu361 2.471 1_565 S
O377 C391 1.247 . S
O378 Eu361 2.347 . S
O378 C362 1.259 . S
O379 Tb360 2.418 . S
O379 C362 1.265 . S
O380 Tb360 2.384 . S
O380 C363 1.255 1_545 S
O381 Eu361 2.366 1_565 S
O381 C363 1.265 . S
C382 O373 1.255 . S
C382 O374 1.265 . S
O383 Tb360 2.479 . S
O383 C370 1.238 . S
O384 Tb360 2.471 . S
O384 C370 1.247 . S
C385 C388 1.380 . S
C385 C389 1.374 . S
C385 C391 1.507 . S
C386 C387 1.387 . S
C386 C390 1.391 . S
C387 C386 1.387 . S
C387 C388 1.384 . S
C387 H396 0.930 . S
C388 C385 1.380 . S
C388 C387 1.384 . S
C388 H397 0.931 . S
C389 C385 1.374 . S
C389 C390 1.390 . S
C389 H398 0.930 . S
C390 C386 1.391 . S
C390 C389 1.390 . S
C390 H399 0.930 . S
C391 Eu361 2.825 1_565 S
C391 O376 1.238 . S
C391 O377 1.247 . S
C391 C385 1.507 . S
H392 C365 0.930 . S
H393 C366 0.931 . S
H394 C367 0.930 . S
H395 C368 0.930 . S
H396 C387 0.930 . S
H397 C388 0.931 . S
H398 C389 0.930 . S
H399 C390 0.930 . S
Tb400 C410 2.825 . S
Tb400 O411 2.347 1_565 S
Tb400 O414 2.366 . S
Tb400 O419 2.418 . S
Tb400 O420 2.384 1_565 S
Tb400 O423 2.479 . S
Tb400 O424 2.471 . S
Eu401 O412 2.418 . S
Eu401 O413 2.384 1_545 S
Eu401 O416 2.479 . S
Eu401 O417 2.471 . S
Eu401 O418 2.347 1_545 S
Eu401 O421 2.366 . S
Eu401 C431 2.825 . S
C402 O418 1.259 . S
C402 O419 1.265 . S
C403 O420 1.255 . S
C403 O421 1.265 . S
C404 C406 1.380 . S
C404 C407 1.374 . S
C404 C410 1.507 . S
C405 C406 1.384 . S
C405 C409 1.387 . S
C405 H432 0.930 . S
C406 C404 1.380 . S
C406 C405 1.384 . S
C406 H433 0.931 . S
C407 C404 1.374 . S
C407 C408 1.390 . S
C407 H434 0.930 . S
C408 C407 1.390 . S
C408 C409 1.391 . S
C408 H435 0.930 . S
C409 C405 1.387 . S
C409 C408 1.391 . S
C410 Tb400 2.825 . S
C410 C404 1.507 . S
C410 O423 1.238 . S
C410 O424 1.247 . S
O411 Tb400 2.347 1_545 S
O411 C415 1.259 . S
O412 Eu401 2.418 . S
O412 C415 1.265 . S
O413 Eu401 2.384 1_565 S
O413 C422 1.255 . S
O414 Tb400 2.366 . S
O414 C422 1.265 . S
C415 O411 1.259 . S
C415 O412 1.265 . S
O416 Eu401 2.479 . S
O416 C431 1.238 . S
O417 Eu401 2.471 . S
O417 C431 1.247 . S
O418 Eu401 2.347 1_565 S
O418 C402 1.259 . S
O419 Tb400 2.418 . S
O419 C402 1.265 . S
O420 Tb400 2.384 1_545 S
O420 C403 1.255 . S
O421 Eu401 2.366 . S
O421 C403 1.265 . S
C422 O413 1.255 . S
C422 O414 1.265 . S
O423 Tb400 2.479 . S
O423 C410 1.238 . S
O424 Tb400 2.471 . S
O424 C410 1.247 . S
C425 C428 1.380 . S
C425 C429 1.374 . S
C425 C431 1.507 . S
C426 C427 1.387 . S
C426 C430 1.391 . S
C427 C426 1.387 . S
C427 C428 1.384 . S
C427 H436 0.930 . S
C428 C425 1.380 . S
C428 C427 1.384 . S
C428 H437 0.931 . S
C429 C425 1.374 . S
C429 C430 1.390 . S
C429 H438 0.930 . S
C430 C426 1.391 . S
C430 C429 1.390 . S
C430 H439 0.930 . S
C431 Eu401 2.825 . S
C431 O416 1.238 . S
C431 O417 1.247 . S
C431 C425 1.507 . S
H432 C405 0.930 . S
H433 C406 0.931 . S
H434 C407 0.930 . S
H435 C408 0.930 . S
H436 C427 0.930 . S
H437 C428 0.931 . S
H438 C429 0.930 . S
H439 C430 0.930 . S
Tb440 C450 2.825 . S
Tb440 O451 2.347 . S
Tb440 O454 2.366 . S
Tb440 O459 2.418 . S
Tb440 O460 2.384 . S
Tb440 O463 2.479 . S
Tb440 O464 2.471 . S
Eu441 O452 2.418 . S
Eu441 O453 2.384 . S
Eu441 O456 2.479 . S
Eu441 O457 2.471 . S
Eu441 O458 2.347 . S
Eu441 O461 2.366 . S
Eu441 C471 2.825 . S
C442 O458 1.259 . S
C442 O459 1.265 . S
C443 O460 1.255 . S
C443 O461 1.265 . S
C444 C446 1.380 . S
C444 C447 1.374 . S
C444 C450 1.507 . S
C445 C446 1.384 . S
C445 C449 1.387 . S
C445 H472 0.930 . S
C446 C444 1.380 . S
C446 C445 1.384 . S
C446 H473 0.931 . S
C447 C444 1.374 . S
C447 C448 1.390 . S
C447 H474 0.930 . S
C448 C447 1.390 . S
C448 C449 1.391 . S
C448 H475 0.930 . S
C449 C445 1.387 . S
C449 C448 1.391 . S
C450 Tb440 2.825 . S
C450 C444 1.507 . S
C450 O463 1.238 . S
C450 O464 1.247 . S
O451 Tb440 2.347 . S
O451 C455 1.259 . S
O452 Eu441 2.418 . S
O452 C455 1.265 . S
O453 Eu441 2.384 . S
O453 C462 1.255 . S
O454 Tb440 2.366 . S
O454 C462 1.265 . S
C455 O451 1.259 . S
C455 O452 1.265 . S
O456 Eu441 2.479 . S
O456 C471 1.238 . S
O457 Eu441 2.471 . S
O457 C471 1.247 . S
O458 Eu441 2.347 . S
O458 C442 1.259 . S
O459 Tb440 2.418 . S
O459 C442 1.265 . S
O460 Tb440 2.384 . S
O460 C443 1.255 . S
O461 Eu441 2.366 . S
O461 C443 1.265 . S
C462 O453 1.255 . S
C462 O454 1.265 . S
O463 Tb440 2.479 . S
O463 C450 1.238 . S
O464 Tb440 2.471 . S
O464 C450 1.247 . S
C465 C468 1.380 . S
C465 C469 1.374 . S
C465 C471 1.507 . S
C466 C467 1.387 . S
C466 C470 1.391 . S
C467 C466 1.387 . S
C467 C468 1.384 . S
C467 H476 0.930 . S
C468 C465 1.380 . S
C468 C467 1.384 . S
C468 H477 0.931 . S
C469 C465 1.374 . S
C469 C470 1.390 . S
C469 H478 0.930 . S
C470 C466 1.391 . S
C470 C469 1.390 . S
C470 H479 0.930 . S
C471 Eu441 2.825 . S
C471 O456 1.238 . S
C471 O457 1.247 . S
C471 C465 1.507 . S
H472 C445 0.930 . S
H473 C446 0.931 . S
H474 C447 0.930 . S
H475 C448 0.930 . S
H476 C467 0.930 . S
H477 C468 0.931 . S
H478 C469 0.930 . S
H479 C470 0.930 . S
H480 C488 0.929 . S
H481 C490 0.930 . S
H482 C492 0.930 . S
H483 C495 0.929 . S
H484 C498 0.930 . S
H485 C500 0.960 . S
H486 C500 0.960 . S
H487 C500 0.960 . S
C488 H480 0.929 . S
C488 C489 1.377 . S
C488 C490 1.384 . S
C489 C488 1.377 . S
C489 C495 1.390 . S
C490 H481 0.930 . S
C490 C488 1.384 . S
C490 C491 1.372 . S
C491 C490 1.372 . S
C491 C492 1.400 . S
C491 C496 1.490 . S
C492 H482 0.930 . S
C492 C491 1.400 . S
C492 C495 1.386 . S
H493 C509 0.930 . S
H494 C510 0.931 . S
C495 H483 0.929 . S
C495 C489 1.390 . S
C495 C492 1.386 . S
C496 C491 1.490 . S
C496 C498 1.395 . S
C496 C499 1.403 . S
H497 C503 0.930 . S
C498 H484 0.930 . S
C498 C496 1.395 . S
C498 C501 1.403 . S
C499 C496 1.403 . S
C499 C500 1.524 . S
C499 C503 1.400 . S
C500 H485 0.960 . S
C500 H486 0.960 . S
C500 H487 0.960 . S
C500 C499 1.524 . S
C501 C498 1.403 . S
C501 C502 1.392 . S
C501 C505 1.495 . S
C502 C501 1.392 . S
C502 C503 1.385 . S
C502 C504 1.478 . S
C503 H497 0.930 . S
C503 C499 1.400 . S
C503 C502 1.385 . S
C504 C502 1.478 . S
C504 C506 1.381 . S
C504 C510 1.383 . S
C505 C501 1.495 . S
C505 H511 0.959 . S
C505 H512 0.961 . S
C505 H513 0.960 . S
C506 C504 1.381 . S
C506 C507 1.394 . S
C506 H514 0.930 . S
C507 C506 1.394 . S
C507 C508 1.383 . S
C507 H515 0.929 . S
C508 C507 1.383 . S
C508 C509 1.377 . S
C509 H493 0.930 . S
C509 C508 1.377 . S
C509 C510 1.379 . S
C510 H494 0.931 . S
C510 C504 1.383 . S
C510 C509 1.379 . S
H511 C505 0.959 . S
H512 C505 0.961 . S
H513 C505 0.960 . S
H514 C506 0.930 . S
H515 C507 0.929 . S
H516 C524 0.929 . S
H517 C526 0.930 . S
H518 C528 0.930 . S
H519 C531 0.929 . S
H520 C534 0.930 . S
H521 C536 0.960 . S
H522 C536 0.960 . S
H523 C536 0.960 . S
C524 H516 0.929 . S
C524 C525 1.377 1_545 S
C524 C526 1.384 . S
C525 C524 1.377 1_565 S
C525 C531 1.390 . S
C526 H517 0.930 . S
C526 C524 1.384 . S
C526 C527 1.372 1_545 S
C527 C526 1.372 1_565 S
C527 C528 1.400 . S
C527 C532 1.490 . S
C528 H518 0.930 . S
C528 C527 1.400 . S
C528 C531 1.386 . S
H529 C545 0.930 . S
H530 C546 0.931 . S
C531 H519 0.929 . S
C531 C525 1.390 . S
C531 C528 1.386 . S
C532 C527 1.490 . S
C532 C534 1.395 . S
C532 C535 1.403 . S
H533 C539 0.930 . S
C534 H520 0.930 . S
C534 C532 1.395 . S
C534 C537 1.403 . S
C535 C532 1.403 . S
C535 C536 1.524 . S
C535 C539 1.400 . S
C536 H521 0.960 . S
C536 H522 0.960 . S
C536 H523 0.960 . S
C536 C535 1.524 . S
C537 C534 1.403 . S
C537 C538 1.392 . S
C537 C541 1.495 . S
C538 C537 1.392 . S
C538 C539 1.385 . S
C538 C540 1.478 . S
C539 H533 0.930 . S
C539 C535 1.400 . S
C539 C538 1.385 . S
C540 C538 1.478 . S
C540 C542 1.381 . S
C540 C546 1.383 . S
C541 C537 1.495 . S
C541 H547 0.959 . S
C541 H548 0.961 . S
C541 H549 0.960 . S
C542 C540 1.381 . S
C542 C543 1.394 . S
C542 H550 0.930 . S
C543 C542 1.394 . S
C543 C544 1.383 . S
C543 H551 0.929 . S
C544 C543 1.383 . S
C544 C545 1.377 . S
C545 H529 0.930 . S
C545 C544 1.377 . S
C545 C546 1.379 . S
C546 H530 0.931 . S
C546 C540 1.383 . S
C546 C545 1.379 . S
H547 C541 0.959 . S
H548 C541 0.961 . S
H549 C541 0.960 . S
H550 C542 0.930 . S
H551 C543 0.929 . S
H552 C560 0.929 . S
H553 C562 0.930 . S
H554 C564 0.930 . S
H555 C567 0.929 . S
H556 C570 0.930 . S
H557 C572 0.960 . S
H558 C572 0.960 . S
H559 C572 0.960 . S
C560 H552 0.929 . S
C560 C561 1.377 . S
C560 C562 1.384 . S
C561 C560 1.377 . S
C561 C567 1.390 1_554 S
C562 H553 0.930 . S
C562 C560 1.384 . S
C562 C563 1.372 . S
C563 C562 1.372 . S
C563 C564 1.400 1_554 S
C563 C568 1.490 . S
C564 H554 0.930 . S
C564 C563 1.400 1_556 S
C564 C567 1.386 . S
H565 C581 0.930 . S
H566 C582 0.931 . S
C567 H555 0.929 . S
C567 C561 1.390 1_556 S
C567 C564 1.386 . S
C568 C563 1.490 . S
C568 C570 1.395 . S
C568 C571 1.403 . S
H569 C575 0.930 . S
C570 H556 0.930 . S
C570 C568 1.395 . S
C570 C573 1.403 . S
C571 C568 1.403 . S
C571 C572 1.524 . S
C571 C575 1.400 . S
C572 H557 0.960 . S
C572 H558 0.960 . S
C572 H559 0.960 . S
C572 C571 1.524 . S
C573 C570 1.403 . S
C573 C574 1.392 . S
C573 C577 1.495 . S
C574 C573 1.392 . S
C574 C575 1.385 . S
C574 C576 1.478 . S
C575 H569 0.930 . S
C575 C571 1.400 . S
C575 C574 1.385 . S
C576 C574 1.478 . S
C576 C578 1.381 . S
C576 C582 1.383 . S
C577 C573 1.495 . S
C577 H583 0.959 . S
C577 H584 0.961 . S
C577 H585 0.960 . S
C578 C576 1.381 . S
C578 C579 1.394 . S
C578 H586 0.930 . S
C579 C578 1.394 . S
C579 C580 1.383 . S
C579 H587 0.929 . S
C580 C579 1.383 . S
C580 C581 1.377 . S
C581 H565 0.930 . S
C581 C580 1.377 . S
C581 C582 1.379 . S
C582 H566 0.931 . S
C582 C576 1.383 . S
C582 C581 1.379 . S
H583 C577 0.959 . S
H584 C577 0.961 . S
H585 C577 0.960 . S
H586 C578 0.930 . S
H587 C579 0.929 . S
H588 C596 0.929 . S
H589 C598 0.930 . S
H590 C600 0.930 . S
H591 C603 0.929 . S
H592 C606 0.930 . S
H593 C608 0.960 . S
H594 C608 0.960 . S
H595 C608 0.960 . S
C596 H588 0.929 . S
C596 C597 1.377 . S
C596 C598 1.384 . S
C597 C596 1.377 . S
C597 C603 1.390 . S
C598 H589 0.930 . S
C598 C596 1.384 . S
C598 C599 1.372 . S
C599 C598 1.372 . S
C599 C600 1.400 . S
C599 C604 1.490 . S
C600 H590 0.930 . S
C600 C599 1.400 . S
C600 C603 1.386 . S
H601 C617 0.930 . S
H602 C618 0.931 . S
C603 H591 0.929 . S
C603 C597 1.390 . S
C603 C600 1.386 . S
C604 C599 1.490 . S
C604 C606 1.395 . S
C604 C607 1.403 . S
H605 C611 0.930 . S
C606 H592 0.930 . S
C606 C604 1.395 . S
C606 C609 1.403 . S
C607 C604 1.403 . S
C607 C608 1.524 . S
C607 C611 1.400 . S
C608 H593 0.960 . S
C608 H594 0.960 . S
C608 H595 0.960 . S
C608 C607 1.524 . S
C609 C606 1.403 . S
C609 C610 1.392 . S
C609 C613 1.495 . S
C610 C609 1.392 . S
C610 C611 1.385 . S
C610 C612 1.478 . S
C611 H605 0.930 . S
C611 C607 1.400 . S
C611 C610 1.385 . S
C612 C610 1.478 . S
C612 C614 1.381 . S
C612 C618 1.383 . S
C613 C609 1.495 . S
C613 H619 0.959 . S
C613 H620 0.961 . S
C613 H621 0.960 . S
C614 C612 1.381 . S
C614 C615 1.394 . S
C614 H622 0.930 . S
C615 C614 1.394 . S
C615 C616 1.383 . S
C615 H623 0.929 . S
C616 C615 1.383 . S
C616 C617 1.377 . S
C617 H601 0.930 . S
C617 C616 1.377 . S
C617 C618 1.379 . S
C618 H602 0.931 . S
C618 C612 1.383 . S
C618 C617 1.379 . S
H619 C613 0.959 . S
H620 C613 0.961 . S
H621 C613 0.960 . S
H622 C614 0.930 . S
H623 C615 0.929 . S
H624 C632 0.929 . S
H625 C634 0.930 . S
H626 C636 0.930 . S
H627 C639 0.929 . S
H628 C642 0.930 . S
H629 C644 0.960 . S
H630 C644 0.960 . S
H631 C644 0.960 . S
C632 H624 0.929 . S
C632 C633 1.377 . S
C632 C634 1.384 . S
C633 C632 1.377 . S
C633 C639 1.390 . S
C634 H625 0.930 . S
C634 C632 1.384 . S
C634 C635 1.372 . S
C635 C634 1.372 . S
C635 C636 1.400 . S
C635 C640 1.490 . S
C636 H626 0.930 . S
C636 C635 1.400 . S
C636 C639 1.386 . S
H637 C653 0.930 . S
H638 C654 0.931 . S
C639 H627 0.929 . S
C639 C633 1.390 . S
C639 C636 1.386 . S
C640 C635 1.490 . S
C640 C642 1.395 . S
C640 C643 1.403 . S
H641 C647 0.930 . S
C642 H628 0.930 . S
C642 C640 1.395 . S
C642 C645 1.403 . S
C643 C640 1.403 . S
C643 C644 1.524 . S
C643 C647 1.400 . S
C644 H629 0.960 . S
C644 H630 0.960 . S
C644 H631 0.960 . S
C644 C643 1.524 . S
C645 C642 1.403 . S
C645 C646 1.392 . S
C645 C649 1.495 . S
C646 C645 1.392 . S
C646 C647 1.385 . S
C646 C648 1.478 . S
C647 H641 0.930 . S
C647 C643 1.400 . S
C647 C646 1.385 . S
C648 C646 1.478 . S
C648 C650 1.381 . S
C648 C654 1.383 . S
C649 C645 1.495 . S
C649 H655 0.959 . S
C649 H656 0.961 . S
C649 H657 0.960 . S
C650 C648 1.381 . S
C650 C651 1.394 . S
C650 H658 0.930 . S
C651 C650 1.394 . S
C651 C652 1.383 . S
C651 H659 0.929 . S
C652 C651 1.383 . S
C652 C653 1.377 . S
C653 H637 0.930 . S
C653 C652 1.377 . S
C653 C654 1.379 . S
C654 H638 0.931 . S
C654 C648 1.383 . S
C654 C653 1.379 . S
H655 C649 0.959 . S
H656 C649 0.961 . S
H657 C649 0.960 . S
H658 C650 0.930 . S
H659 C651 0.929 . S
H660 C668 0.929 . S
H661 C670 0.930 . S
H662 C672 0.930 . S
H663 C675 0.929 . S
H664 C678 0.930 . S
H665 C680 0.960 . S
H666 C680 0.960 . S
H667 C680 0.960 . S
C668 H660 0.929 . S
C668 C669 1.377 . S
C668 C670 1.384 . S
C669 C668 1.377 . S
C669 C675 1.390 . S
C670 H661 0.930 . S
C670 C668 1.384 . S
C670 C671 1.372 . S
C671 C670 1.372 . S
C671 C672 1.400 . S
C671 C676 1.490 . S
C672 H662 0.930 . S
C672 C671 1.400 . S
C672 C675 1.386 . S
H673 C689 0.930 . S
H674 C690 0.931 . S
C675 H663 0.929 . S
C675 C669 1.390 . S
C675 C672 1.386 . S
C676 C671 1.490 . S
C676 C678 1.395 . S
C676 C679 1.403 . S
H677 C683 0.930 . S
C678 H664 0.930 . S
C678 C676 1.395 . S
C678 C681 1.403 . S
C679 C676 1.403 . S
C679 C680 1.524 . S
C679 C683 1.400 . S
C680 H665 0.960 . S
C680 H666 0.960 . S
C680 H667 0.960 . S
C680 C679 1.524 . S
C681 C678 1.403 . S
C681 C682 1.392 . S
C681 C685 1.495 . S
C682 C681 1.392 . S
C682 C683 1.385 . S
C682 C684 1.478 . S
C683 H677 0.930 . S
C683 C679 1.400 . S
C683 C682 1.385 . S
C684 C682 1.478 . S
C684 C686 1.381 . S
C684 C690 1.383 . S
C685 C681 1.495 . S
C685 H691 0.959 . S
C685 H692 0.961 . S
C685 H693 0.960 . S
C686 C684 1.381 . S
C686 C687 1.394 . S
C686 H694 0.930 . S
C687 C686 1.394 . S
C687 C688 1.383 . S
C687 H695 0.929 . S
C688 C687 1.383 . S
C688 C689 1.377 . S
C689 H673 0.930 . S
C689 C688 1.377 . S
C689 C690 1.379 . S
C690 H674 0.931 . S
C690 C684 1.383 . S
C690 C689 1.379 . S
H691 C685 0.959 . S
H692 C685 0.961 . S
H693 C685 0.960 . S
H694 C686 0.930 . S
H695 C687 0.929 . S
H696 C704 0.929 . S
H697 C706 0.930 . S
H698 C708 0.930 . S
H699 C711 0.929 . S
H700 C714 0.930 . S
H701 C716 0.960 . S
H702 C716 0.960 . S
H703 C716 0.960 . S
C704 H696 0.929 . S
C704 C705 1.377 . S
C704 C706 1.384 . S
C705 C704 1.377 . S
C705 C711 1.390 . S
C706 H697 0.930 . S
C706 C704 1.384 . S
C706 C707 1.372 . S
C707 C706 1.372 . S
C707 C708 1.400 . S
C707 C712 1.490 . S
C708 H698 0.930 . S
C708 C707 1.400 . S
C708 C711 1.386 . S
H709 C725 0.930 . S
H710 C726 0.931 . S
C711 H699 0.929 . S
C711 C705 1.390 . S
C711 C708 1.386 . S
C712 C707 1.490 . S
C712 C714 1.395 . S
C712 C715 1.403 . S
H713 C719 0.930 . S
C714 H700 0.930 . S
C714 C712 1.395 . S
C714 C717 1.403 . S
C715 C712 1.403 . S
C715 C716 1.524 . S
C715 C719 1.400 . S
C716 H701 0.960 . S
C716 H702 0.960 . S
C716 H703 0.960 . S
C716 C715 1.524 . S
C717 C714 1.403 . S
C717 C718 1.392 . S
C717 C721 1.495 . S
C718 C717 1.392 . S
C718 C719 1.385 . S
C718 C720 1.478 . S
C719 H713 0.930 . S
C719 C715 1.400 . S
C719 C718 1.385 . S
C720 C718 1.478 . S
C720 C722 1.381 . S
C720 C726 1.383 . S
C721 C717 1.495 . S
C721 H727 0.959 . S
C721 H728 0.961 . S
C721 H729 0.960 . S
C722 C720 1.381 . S
C722 C723 1.394 . S
C722 H730 0.930 . S
C723 C722 1.394 . S
C723 C724 1.383 . S
C723 H731 0.929 . S
C724 C723 1.383 . S
C724 C725 1.377 . S
C725 H709 0.930 . S
C725 C724 1.377 . S
C725 C726 1.379 . S
C726 H710 0.931 . S
C726 C720 1.383 . S
C726 C725 1.379 . S
H727 C721 0.959 . S
H728 C721 0.961 . S
H729 C721 0.960 . S
H730 C722 0.930 . S
H731 C723 0.929 . S
H732 C740 0.929 . S
H733 C742 0.930 . S
H734 C744 0.930 . S
H735 C747 0.929 . S
H736 C750 0.930 . S
H737 C752 0.960 . S
H738 C752 0.960 . S
H739 C752 0.960 . S
C740 H732 0.929 . S
C740 C741 1.377 . S
C740 C742 1.384 . S
C741 C740 1.377 . S
C741 C747 1.390 . S
C742 H733 0.930 . S
C742 C740 1.384 . S
C742 C743 1.372 . S
C743 C742 1.372 . S
C743 C744 1.400 . S
C743 C748 1.490 . S
C744 H734 0.930 . S
C744 C743 1.400 . S
C744 C747 1.386 . S
H745 C761 0.930 . S
H746 C762 0.931 . S
C747 H735 0.929 . S
C747 C741 1.390 . S
C747 C744 1.386 . S
C748 C743 1.490 . S
C748 C750 1.395 . S
C748 C751 1.403 . S
H749 C755 0.930 . S
C750 H736 0.930 . S
C750 C748 1.395 . S
C750 C753 1.403 . S
C751 C748 1.403 . S
C751 C752 1.524 . S
C751 C755 1.400 . S
C752 H737 0.960 . S
C752 H738 0.960 . S
C752 H739 0.960 . S
C752 C751 1.524 . S
C753 C750 1.403 . S
C753 C754 1.392 . S
C753 C757 1.495 . S
C754 C753 1.392 . S
C754 C755 1.385 . S
C754 C756 1.478 . S
C755 H749 0.930 . S
C755 C751 1.400 . S
C755 C754 1.385 . S
C756 C754 1.478 . S
C756 C758 1.381 . S
C756 C762 1.383 . S
C757 C753 1.495 . S
C757 H763 0.959 . S
C757 H764 0.961 . S
C757 H765 0.960 . S
C758 C756 1.381 . S
C758 C759 1.394 . S
C758 H766 0.930 . S
C759 C758 1.394 . S
C759 C760 1.383 . S
C759 H767 0.929 . S
C760 C759 1.383 . S
C760 C761 1.377 . S
C761 H745 0.930 . S
C761 C760 1.377 . S
C761 C762 1.379 . S
C762 H746 0.931 . S
C762 C756 1.383 . S
C762 C761 1.379 . S
H763 C757 0.959 . S
H764 C757 0.961 . S
H765 C757 0.960 . S
H766 C758 0.930 . S
H767 C759 0.929 . S
H768 C776 0.929 . S
H769 C778 0.930 . S
H770 C780 0.930 . S
H771 C783 0.929 . S
H772 C786 0.930 . S
H773 C788 0.960 . S
H774 C788 0.960 . S
H775 C788 0.960 . S
C776 H768 0.929 . S
C776 C777 1.377 . S
C776 C778 1.384 . S
C777 C776 1.377 . S
C777 C783 1.390 . S
C778 H769 0.930 . S
C778 C776 1.384 . S
C778 C779 1.372 . S
C779 C778 1.372 . S
C779 C780 1.400 . S
C779 C784 1.490 . S
C780 H770 0.930 . S
C780 C779 1.400 . S
C780 C783 1.386 . S
H781 C797 0.930 . S
H782 C798 0.931 . S
C783 H771 0.929 . S
C783 C777 1.390 . S
C783 C780 1.386 . S
C784 C779 1.490 . S
C784 C786 1.395 . S
C784 C787 1.403 . S
H785 C791 0.930 . S
C786 H772 0.930 . S
C786 C784 1.395 . S
C786 C789 1.403 . S
C787 C784 1.403 . S
C787 C788 1.524 . S
C787 C791 1.400 . S
C788 H773 0.960 . S
C788 H774 0.960 . S
C788 H775 0.960 . S
C788 C787 1.524 . S
C789 C786 1.403 . S
C789 C790 1.392 . S
C789 C793 1.495 . S
C790 C789 1.392 . S
C790 C791 1.385 . S
C790 C792 1.478 . S
C791 H785 0.930 . S
C791 C787 1.400 . S
C791 C790 1.385 . S
C792 C790 1.478 . S
C792 C794 1.381 . S
C792 C798 1.383 . S
C793 C789 1.495 . S
C793 H799 0.959 . S
C793 H800 0.961 . S
C793 H801 0.960 . S
C794 C792 1.381 . S
C794 C795 1.394 . S
C794 H802 0.930 . S
C795 C794 1.394 . S
C795 C796 1.383 . S
C795 H803 0.929 . S
C796 C795 1.383 . S
C796 C797 1.377 . S
C797 H781 0.930 . S
C797 C796 1.377 . S
C797 C798 1.379 . S
C798 H782 0.931 . S
C798 C792 1.383 . S
C798 C797 1.379 . S
H799 C793 0.959 . S
H800 C793 0.961 . S
H801 C793 0.960 . S
H802 C794 0.930 . S
H803 C795 0.929 . S
H804 C812 0.929 . S
H805 C814 0.930 . S
H806 C816 0.930 . S
H807 C819 0.929 . S
H808 C822 0.930 . S
H809 C824 0.960 . S
H810 C824 0.960 . S
H811 C824 0.960 . S
C812 H804 0.929 . S
C812 C813 1.377 . S
C812 C814 1.384 . S
C813 C812 1.377 . S
C813 C819 1.390 . S
C814 H805 0.930 . S
C814 C812 1.384 . S
C814 C815 1.372 . S
C815 C814 1.372 . S
C815 C816 1.400 . S
C815 C820 1.490 . S
C816 H806 0.930 . S
C816 C815 1.400 . S
C816 C819 1.386 . S
H817 C833 0.930 . S
H818 C834 0.931 1_655 S
C819 H807 0.929 . S
C819 C813 1.390 . S
C819 C816 1.386 . S
C820 C815 1.490 . S
C820 C822 1.395 . S
C820 C823 1.403 . S
H821 C827 0.930 . S
C822 H808 0.930 . S
C822 C820 1.395 . S
C822 C825 1.403 . S
C823 C820 1.403 . S
C823 C824 1.524 . S
C823 C827 1.400 . S
C824 H809 0.960 . S
C824 H810 0.960 . S
C824 H811 0.960 . S
C824 C823 1.524 . S
C825 C822 1.403 . S
C825 C826 1.392 . S
C825 C829 1.495 . S
C826 C825 1.392 . S
C826 C827 1.385 . S
C826 C828 1.478 . S
C827 H821 0.930 . S
C827 C823 1.400 . S
C827 C826 1.385 . S
C828 C826 1.478 . S
C828 C830 1.381 . S
C828 C834 1.383 . S
C829 C825 1.495 . S
C829 H835 0.959 . S
C829 H836 0.961 . S
C829 H837 0.960 . S
C830 C828 1.381 . S
C830 C831 1.394 . S
C830 H838 0.930 . S
C831 C830 1.394 . S
C831 C832 1.383 . S
C831 H839 0.929 . S
C832 C831 1.383 . S
C832 C833 1.377 1_455 S
C833 H817 0.930 . S
C833 C832 1.377 1_655 S
C833 C834 1.379 1_655 S
C834 H818 0.931 1_455 S
C834 C828 1.383 . S
C834 C833 1.379 1_455 S
H835 C829 0.959 . S
H836 C829 0.961 . S
H837 C829 0.960 . S
H838 C830 0.930 . S
H839 C831 0.929 . S
H840 C848 0.929 . S
H841 C850 0.930 . S
H842 C852 0.930 . S
H843 C855 0.929 . S
H844 C858 0.930 . S
H845 C860 0.960 . S
H846 C860 0.960 . S
H847 C860 0.960 1_455 S
C848 H840 0.929 . S
C848 C849 1.377 1_655 S
C848 C850 1.384 . S
C849 C848 1.377 1_455 S
C849 C855 1.390 . S
C850 H841 0.930 . S
C850 C848 1.384 . S
C850 C851 1.372 . S
C851 C850 1.372 . S
C851 C852 1.400 1_655 S
C851 C856 1.490 . S
C852 H842 0.930 . S
C852 C851 1.400 1_455 S
C852 C855 1.386 . S
H853 C869 0.930 . S
H854 C870 0.931 . S
C855 H843 0.929 . S
C855 C849 1.390 . S
C855 C852 1.386 . S
C856 C851 1.490 . S
C856 C858 1.395 . S
C856 C859 1.403 . S
H857 C863 0.930 . S
C858 H844 0.930 . S
C858 C856 1.395 . S
C858 C861 1.403 . S
C859 C856 1.403 . S
C859 C860 1.524 . S
C859 C863 1.400 . S
C860 H845 0.960 . S
C860 H846 0.960 . S
C860 H847 0.960 1_655 S
C860 C859 1.524 . S
C861 C858 1.403 . S
C861 C862 1.392 . S
C861 C865 1.495 . S
C862 C861 1.392 . S
C862 C863 1.385 . S
C862 C864 1.478 . S
C863 H857 0.930 . S
C863 C859 1.400 . S
C863 C862 1.385 . S
C864 C862 1.478 . S
C864 C866 1.381 . S
C864 C870 1.383 . S
C865 C861 1.495 . S
C865 H871 0.959 . S
C865 H872 0.961 . S
C865 H873 0.960 . S
C866 C864 1.381 . S
C866 C867 1.394 . S
C866 H874 0.930 . S
C867 C866 1.394 . S
C867 C868 1.383 . S
C867 H875 0.929 . S
C868 C867 1.383 . S
C868 C869 1.377 . S
C869 H853 0.930 . S
C869 C868 1.377 . S
C869 C870 1.379 . S
C870 H854 0.931 . S
C870 C864 1.383 . S
C870 C869 1.379 . S
H871 C865 0.959 . S
H872 C865 0.961 . S
H873 C865 0.960 . S
H874 C866 0.930 . S
H875 C867 0.929 . S
H876 C884 0.929 . S
H877 C886 0.930 . S
H878 C888 0.930 . S
H879 C891 0.929 . S
H880 C894 0.930 . S
H881 C896 0.960 . S
H882 C896 0.960 . S
H883 C896 0.960 . S
C884 H876 0.929 . S
C884 C885 1.377 . S
C884 C886 1.384 . S
C885 C884 1.377 . S
C885 C891 1.390 . S
C886 H877 0.930 . S
C886 C884 1.384 . S
C886 C887 1.372 . S
C887 C886 1.372 . S
C887 C888 1.400 . S
C887 C892 1.490 . S
C888 H878 0.930 . S
C888 C887 1.400 . S
C888 C891 1.386 . S
H889 C905 0.930 . S
H890 C906 0.931 . S
C891 H879 0.929 . S
C891 C885 1.390 . S
C891 C888 1.386 . S
C892 C887 1.490 . S
C892 C894 1.395 . S
C892 C895 1.403 . S
H893 C899 0.930 . S
C894 H880 0.930 . S
C894 C892 1.395 . S
C894 C897 1.403 . S
C895 C892 1.403 . S
C895 C896 1.524 . S
C895 C899 1.400 . S
C896 H881 0.960 . S
C896 H882 0.960 . S
C896 H883 0.960 . S
C896 C895 1.524 . S
C897 C894 1.403 . S
C897 C898 1.392 . S
C897 C901 1.495 . S
C898 C897 1.392 . S
C898 C899 1.385 . S
C898 C900 1.478 . S
C899 H893 0.930 . S
C899 C895 1.400 . S
C899 C898 1.385 . S
C900 C898 1.478 . S
C900 C902 1.381 . S
C900 C906 1.383 . S
C901 C897 1.495 . S
C901 H907 0.959 . S
C901 H908 0.961 . S
C901 H909 0.960 . S
C902 C900 1.381 . S
C902 C903 1.394 . S
C902 H910 0.930 . S
C903 C902 1.394 . S
C903 C904 1.383 . S
C903 H911 0.929 . S
C904 C903 1.383 . S
C904 C905 1.377 . S
C905 H889 0.930 . S
C905 C904 1.377 . S
C905 C906 1.379 . S
C906 H890 0.931 . S
C906 C900 1.383 . S
C906 C905 1.379 . S
H907 C901 0.959 . S
H908 C901 0.961 . S
H909 C901 0.960 . S
H910 C902 0.930 . S
H911 C903 0.929 . S
H912 C920 0.929 . S
H913 C922 0.930 . S
H914 C924 0.930 . S
H915 C927 0.929 . S
H916 C930 0.930 . S
H917 C932 0.960 . S
H918 C932 0.960 . S
H919 C932 0.960 . S
C920 H912 0.929 . S
C920 C921 1.377 . S
C920 C922 1.384 . S
C921 C920 1.377 . S
C921 C927 1.390 . S
C922 H913 0.930 . S
C922 C920 1.384 . S
C922 C923 1.372 . S
C923 C922 1.372 . S
C923 C924 1.400 . S
C923 C928 1.490 . S
C924 H914 0.930 . S
C924 C923 1.400 . S
C924 C927 1.386 . S
H925 C941 0.930 . S
H926 C942 0.931 . S
C927 H915 0.929 . S
C927 C921 1.390 . S
C927 C924 1.386 . S
C928 C923 1.490 . S
C928 C930 1.395 . S
C928 C931 1.403 . S
H929 C935 0.930 . S
C930 H916 0.930 . S
C930 C928 1.395 . S
C930 C933 1.403 . S
C931 C928 1.403 . S
C931 C932 1.524 . S
C931 C935 1.400 . S
C932 H917 0.960 . S
C932 H918 0.960 . S
C932 H919 0.960 . S
C932 C931 1.524 . S
C933 C930 1.403 . S
C933 C934 1.392 . S
C933 C937 1.495 . S
C934 C933 1.392 . S
C934 C935 1.385 . S
C934 C936 1.478 . S
C935 H929 0.930 . S
C935 C931 1.400 . S
C935 C934 1.385 . S
C936 C934 1.478 . S
C936 C938 1.381 . S
C936 C942 1.383 . S
C937 C933 1.495 . S
C937 H943 0.959 . S
C937 H944 0.961 . S
C937 H945 0.960 . S
C938 C936 1.381 . S
C938 C939 1.394 . S
C938 H946 0.930 . S
C939 C938 1.394 . S
C939 C940 1.383 . S
C939 H947 0.929 . S
C940 C939 1.383 . S
C940 C941 1.377 . S
C941 H925 0.930 . S
C941 C940 1.377 . S
C941 C942 1.379 . S
C942 H926 0.931 . S
C942 C936 1.383 . S
C942 C941 1.379 . S
H943 C937 0.959 . S
H944 C937 0.961 . S
H945 C937 0.960 . S
H946 C938 0.930 . S
H947 C939 0.929 . S
H948 C956 0.929 . S
H949 C958 0.930 . S
H950 C960 0.930 . S
H951 C963 0.929 . S
H952 C966 0.930 . S
H953 C968 0.960 . S
H954 C968 0.960 . S
H955 C968 0.960 . S
C956 H948 0.929 . S
C956 C957 1.377 . S
C956 C958 1.384 . S
C957 C956 1.377 . S
C957 C963 1.390 . S
C958 H949 0.930 . S
C958 C956 1.384 . S
C958 C959 1.372 . S
C959 C958 1.372 . S
C959 C960 1.400 . S
C959 C964 1.490 . S
C960 H950 0.930 . S
C960 C959 1.400 . S
C960 C963 1.386 . S
H961 C977 0.930 1_545 S
H962 C978 0.931 . S
C963 H951 0.929 . S
C963 C957 1.390 . S
C963 C960 1.386 . S
C964 C959 1.490 . S
C964 C966 1.395 . S
C964 C967 1.403 . S
H965 C971 0.930 . S
C966 H952 0.930 . S
C966 C964 1.395 . S
C966 C969 1.403 . S
C967 C964 1.403 . S
C967 C968 1.524 . S
C967 C971 1.400 . S
C968 H953 0.960 . S
C968 H954 0.960 . S
C968 H955 0.960 . S
C968 C967 1.524 . S
C969 C966 1.403 . S
C969 C970 1.392 . S
C969 C973 1.495 . S
C970 C969 1.392 . S
C970 C971 1.385 . S
C970 C972 1.478 . S
C971 H965 0.930 . S
C971 C967 1.400 . S
C971 C970 1.385 . S
C972 C970 1.478 . S
C972 C974 1.381 . S
C972 C978 1.383 . S
C973 C969 1.495 . S
C973 H979 0.959 . S
C973 H980 0.961 . S
C973 H981 0.960 . S
C974 C972 1.381 . S
C974 C975 1.394 . S
C974 H982 0.930 . S
C975 C974 1.394 . S
C975 C976 1.383 . S
C975 H983 0.929 . S
C976 C975 1.383 . S
C976 C977 1.377 . S
C977 H961 0.930 1_565 S
C977 C976 1.377 . S
C977 C978 1.379 . S
C978 H962 0.931 . S
C978 C972 1.383 . S
C978 C977 1.379 . S
H979 C973 0.959 . S
H980 C973 0.961 . S
H981 C973 0.960 . S
H982 C974 0.930 . S
H983 C975 0.929 . S
H984 C992 0.929 . S
H985 C994 0.930 . S
H986 C996 0.930 . S
H987 C999 0.929 . S
H988 C1002 0.930 . S
H989 C1004 0.960 . S
H990 C1004 0.960 . S
H991 C1004 0.960 . S
C992 H984 0.929 . S
C992 C993 1.377 . S
C992 C994 1.384 . S
C993 C992 1.377 . S
C993 C999 1.390 . S
C994 H985 0.930 . S
C994 C992 1.384 . S
C994 C995 1.372 . S
C995 C994 1.372 . S
C995 C996 1.400 . S
C995 C1000 1.490 . S
C996 H986 0.930 . S
C996 C995 1.400 . S
C996 C999 1.386 . S
H997 C1013 0.930 . S
H998 C1014 0.931 . S
C999 H987 0.929 . S
C999 C993 1.390 . S
C999 C996 1.386 . S
C1000 C995 1.490 . S
C1000 C1002 1.395 . S
C1000 C1003 1.403 . S
H1001 C1007 0.930 . S
C1002 H988 0.930 . S
C1002 C1000 1.395 . S
C1002 C1005 1.403 . S
C1003 C1000 1.403 . S
C1003 C1004 1.524 . S
C1003 C1007 1.400 . S
C1004 H989 0.960 . S
C1004 H990 0.960 . S
C1004 H991 0.960 . S
C1004 C1003 1.524 . S
C1005 C1002 1.403 . S
C1005 C1006 1.392 . S
C1005 C1009 1.495 . S
C1006 C1005 1.392 . S
C1006 C1007 1.385 . S
C1006 C1008 1.478 . S
C1007 H1001 0.930 . S
C1007 C1003 1.400 . S
C1007 C1006 1.385 . S
C1008 C1006 1.478 . S
C1008 C1010 1.381 . S
C1008 C1014 1.383 . S
C1009 C1005 1.495 . S
C1009 H1015 0.959 . S
C1009 H1016 0.961 . S
C1009 H1017 0.960 . S
C1010 C1008 1.381 . S
C1010 C1011 1.394 . S
C1010 H1018 0.930 . S
C1011 C1010 1.394 . S
C1011 C1012 1.383 . S
C1011 H1019 0.929 . S
C1012 C1011 1.383 . S
C1012 C1013 1.377 . S
C1013 H997 0.930 . S
C1013 C1012 1.377 . S
C1013 C1014 1.379 . S
C1014 H998 0.931 . S
C1014 C1008 1.383 . S
C1014 C1013 1.379 . S
H1015 C1009 0.959 . S
H1016 C1009 0.961 . S
H1017 C1009 0.960 . S
H1018 C1010 0.930 . S
H1019 C1011 0.929 . S
H1020 C1028 0.929 . S
H1021 C1030 0.930 . S
H1022 C1032 0.930 . S
H1023 C1035 0.929 . S
H1024 C1038 0.930 . S
H1025 C1040 0.960 . S
H1026 C1040 0.960 . S
H1027 C1040 0.960 . S
C1028 H1020 0.929 . S
C1028 C1029 1.377 . S
C1028 C1030 1.384 . S
C1029 C1028 1.377 . S
C1029 C1035 1.390 . S
C1030 H1021 0.930 . S
C1030 C1028 1.384 . S
C1030 C1031 1.372 . S
C1031 C1030 1.372 . S
C1031 C1032 1.400 . S
C1031 C1036 1.490 . S
C1032 H1022 0.930 . S
C1032 C1031 1.400 . S
C1032 C1035 1.386 . S
H1033 C1049 0.930 . S
H1034 C1050 0.931 . S
C1035 H1023 0.929 . S
C1035 C1029 1.390 . S
C1035 C1032 1.386 . S
C1036 C1031 1.490 . S
C1036 C1038 1.395 1_554 S
C1036 C1039 1.403 . S
H1037 C1043 0.930 . S
C1038 H1024 0.930 . S
C1038 C1036 1.395 1_556 S
C1038 C1041 1.403 . S
C1039 C1036 1.403 . S
C1039 C1040 1.524 . S
C1039 C1043 1.400 1_554 S
C1040 H1025 0.960 . S
C1040 H1026 0.960 . S
C1040 H1027 0.960 . S
C1040 C1039 1.524 . S
C1041 C1038 1.403 . S
C1041 C1042 1.392 . S
C1041 C1045 1.495 . S
C1042 C1041 1.392 . S
C1042 C1043 1.385 . S
C1042 C1044 1.478 . S
C1043 H1037 0.930 . S
C1043 C1039 1.400 1_556 S
C1043 C1042 1.385 . S
C1044 C1042 1.478 . S
C1044 C1046 1.381 . S
C1044 C1050 1.383 . S
C1045 C1041 1.495 . S
C1045 H1051 0.959 . S
C1045 H1052 0.961 . S
C1045 H1053 0.960 . S
C1046 C1044 1.381 . S
C1046 C1047 1.394 . S
C1046 H1054 0.930 . S
C1047 C1046 1.394 . S
C1047 C1048 1.383 . S
C1047 H1055 0.929 . S
C1048 C1047 1.383 . S
C1048 C1049 1.377 . S
C1049 H1033 0.930 . S
C1049 C1048 1.377 . S
C1049 C1050 1.379 . S
C1050 H1034 0.931 . S
C1050 C1044 1.383 . S
C1050 C1049 1.379 . S
H1051 C1045 0.959 . S
H1052 C1045 0.961 . S
H1053 C1045 0.960 . S
H1054 C1046 0.930 . S
H1055 C1047 0.929 . S
H1056 C1064 0.929 . S
H1057 C1066 0.930 . S
H1058 C1068 0.930 . S
H1059 C1071 0.929 . S
H1060 C1074 0.930 . S
H1061 C1076 0.960 . S
H1062 C1076 0.960 . S
H1063 C1076 0.960 . S
C1064 H1056 0.929 . S
C1064 C1065 1.377 . S
C1064 C1066 1.384 . S
C1065 C1064 1.377 . S
C1065 C1071 1.390 . S
C1066 H1057 0.930 . S
C1066 C1064 1.384 . S
C1066 C1067 1.372 . S
C1067 C1066 1.372 . S
C1067 C1068 1.400 . S
C1067 C1072 1.490 . S
C1068 H1058 0.930 . S
C1068 C1067 1.400 . S
C1068 C1071 1.386 . S
H1069 C1085 0.930 . S
H1070 C1086 0.931 . S
C1071 H1059 0.929 . S
C1071 C1065 1.390 . S
C1071 C1068 1.386 . S
C1072 C1067 1.490 . S
C1072 C1074 1.395 . S
C1072 C1075 1.403 . S
H1073 C1079 0.930 . S
C1074 H1060 0.930 . S
C1074 C1072 1.395 . S
C1074 C1077 1.403 . S
C1075 C1072 1.403 . S
C1075 C1076 1.524 . S
C1075 C1079 1.400 . S
C1076 H1061 0.960 . S
C1076 H1062 0.960 . S
C1076 H1063 0.960 . S
C1076 C1075 1.524 . S
C1077 C1074 1.403 . S
C1077 C1078 1.392 . S
C1077 C1081 1.495 . S
C1078 C1077 1.392 . S
C1078 C1079 1.385 . S
C1078 C1080 1.478 . S
C1079 H1073 0.930 . S
C1079 C1075 1.400 . S
C1079 C1078 1.385 . S
C1080 C1078 1.478 . S
C1080 C1082 1.381 . S
C1080 C1086 1.383 . S
C1081 C1077 1.495 . S
C1081 H1087 0.959 . S
C1081 H1088 0.961 . S
C1081 H1089 0.960 . S
C1082 C1080 1.381 . S
C1082 C1083 1.394 . S
C1082 H1090 0.930 . S
C1083 C1082 1.394 . S
C1083 C1084 1.383 . S
C1083 H1091 0.929 . S
C1084 C1083 1.383 . S
C1084 C1085 1.377 . S
C1085 H1069 0.930 . S
C1085 C1084 1.377 . S
C1085 C1086 1.379 . S
C1086 H1070 0.931 . S
C1086 C1080 1.383 . S
C1086 C1085 1.379 . S
H1087 C1081 0.959 . S
H1088 C1081 0.961 . S
H1089 C1081 0.960 . S
H1090 C1082 0.930 . S
H1091 C1083 0.929 . S
H1092 C1100 0.929 . S
H1093 C1102 0.930 1_556 S
H1094 C1104 0.930 . S
H1095 C1107 0.929 . S
H1096 C1110 0.930 . S
H1097 C1112 0.960 . S
H1098 C1112 0.960 . S
H1099 C1112 0.960 . S
C1100 H1092 0.929 . S
C1100 C1101 1.377 . S
C1100 C1102 1.384 . S
C1101 C1100 1.377 . S
C1101 C1107 1.390 . S
C1102 H1093 0.930 1_554 S
C1102 C1100 1.384 . S
C1102 C1103 1.372 1_554 S
C1103 C1102 1.372 1_556 S
C1103 C1104 1.400 1_556 S
C1103 C1108 1.490 . S
C1104 H1094 0.930 . S
C1104 C1103 1.400 1_554 S
C1104 C1107 1.386 . S
H1105 C1121 0.930 . S
H1106 C1122 0.931 . S
C1107 H1095 0.929 . S
C1107 C1101 1.390 . S
C1107 C1104 1.386 . S
C1108 C1103 1.490 . S
C1108 C1110 1.395 . S
C1108 C1111 1.403 . S
H1109 C1115 0.930 . S
C1110 H1096 0.930 . S
C1110 C1108 1.395 . S
C1110 C1113 1.403 . S
C1111 C1108 1.403 . S
C1111 C1112 1.524 . S
C1111 C1115 1.400 . S
C1112 H1097 0.960 . S
C1112 H1098 0.960 . S
C1112 H1099 0.960 . S
C1112 C1111 1.524 . S
C1113 C1110 1.403 . S
C1113 C1114 1.392 . S
C1113 C1117 1.495 . S
C1114 C1113 1.392 . S
C1114 C1115 1.385 . S
C1114 C1116 1.478 . S
C1115 H1109 0.930 . S
C1115 C1111 1.400 . S
C1115 C1114 1.385 . S
C1116 C1114 1.478 . S
C1116 C1118 1.381 . S
C1116 C1122 1.383 . S
C1117 C1113 1.495 . S
C1117 H1123 0.959 . S
C1117 H1124 0.961 . S
C1117 H1125 0.960 . S
C1118 C1116 1.381 . S
C1118 C1119 1.394 . S
C1118 H1126 0.930 . S
C1119 C1118 1.394 . S
C1119 C1120 1.383 . S
C1119 H1127 0.929 . S
C1120 C1119 1.383 . S
C1120 C1121 1.377 . S
C1121 H1105 0.930 . S
C1121 C1120 1.377 . S
C1121 C1122 1.379 . S
C1122 H1106 0.931 . S
C1122 C1116 1.383 . S
C1122 C1121 1.379 . S
H1123 C1117 0.959 . S
H1124 C1117 0.961 . S
H1125 C1117 0.960 . S
H1126 C1118 0.930 . S
H1127 C1119 0.929 . S
H1128 C1136 0.929 . S
H1129 C1138 0.930 . S
H1130 C1140 0.930 . S
H1131 C1143 0.929 . S
H1132 C1146 0.930 . S
H1133 C1148 0.960 . S
H1134 C1148 0.960 . S
H1135 C1148 0.960 . S
C1136 H1128 0.929 . S
C1136 C1137 1.377 . S
C1136 C1138 1.384 . S
C1137 C1136 1.377 . S
C1137 C1143 1.390 . S
C1138 H1129 0.930 . S
C1138 C1136 1.384 . S
C1138 C1139 1.372 . S
C1139 C1138 1.372 . S
C1139 C1140 1.400 . S
C1139 C1144 1.490 . S
C1140 H1130 0.930 . S
C1140 C1139 1.400 . S
C1140 C1143 1.386 . S
H1141 C1157 0.930 . S
H1142 C1158 0.931 . S
C1143 H1131 0.929 . S
C1143 C1137 1.390 . S
C1143 C1140 1.386 . S
C1144 C1139 1.490 . S
C1144 C1146 1.395 . S
C1144 C1147 1.403 . S
H1145 C1151 0.930 . S
C1146 H1132 0.930 . S
C1146 C1144 1.395 . S
C1146 C1149 1.403 . S
C1147 C1144 1.403 . S
C1147 C1148 1.524 . S
C1147 C1151 1.400 . S
C1148 H1133 0.960 . S
C1148 H1134 0.960 . S
C1148 H1135 0.960 . S
C1148 C1147 1.524 . S
C1149 C1146 1.403 . S
C1149 C1150 1.392 . S
C1149 C1153 1.495 . S
C1150 C1149 1.392 . S
C1150 C1151 1.385 . S
C1150 C1152 1.478 . S
C1151 H1145 0.930 . S
C1151 C1147 1.400 . S
C1151 C1150 1.385 . S
C1152 C1150 1.478 . S
C1152 C1154 1.381 . S
C1152 C1158 1.383 . S
C1153 C1149 1.495 . S
C1153 H1159 0.959 . S
C1153 H1160 0.961 . S
C1153 H1161 0.960 . S
C1154 C1152 1.381 . S
C1154 C1155 1.394 . S
C1154 H1162 0.930 . S
C1155 C1154 1.394 . S
C1155 C1156 1.383 . S
C1155 H1163 0.929 . S
C1156 C1155 1.383 . S
C1156 C1157 1.377 . S
C1157 H1141 0.930 . S
C1157 C1156 1.377 . S
C1157 C1158 1.379 . S
C1158 H1142 0.931 . S
C1158 C1152 1.383 . S
C1158 C1157 1.379 . S
H1159 C1153 0.959 . S
H1160 C1153 0.961 . S
H1161 C1153 0.960 . S
H1162 C1154 0.930 . S
H1163 C1155 0.929 . S
H1164 C1172 0.929 . S
H1165 C1174 0.930 . S
H1166 C1176 0.930 . S
H1167 C1179 0.929 . S
H1168 C1182 0.930 . S
H1169 C1184 0.960 . S
H1170 C1184 0.960 . S
H1171 C1184 0.960 . S
C1172 H1164 0.929 . S
C1172 C1173 1.377 . S
C1172 C1174 1.384 . S
C1173 C1172 1.377 . S
C1173 C1179 1.390 . S
C1174 H1165 0.930 . S
C1174 C1172 1.384 . S
C1174 C1175 1.372 . S
C1175 C1174 1.372 . S
C1175 C1176 1.400 . S
C1175 C1180 1.490 . S
C1176 H1166 0.930 . S
C1176 C1175 1.400 . S
C1176 C1179 1.386 . S
H1177 C1193 0.930 . S
H1178 C1194 0.931 . S
C1179 H1167 0.929 . S
C1179 C1173 1.390 . S
C1179 C1176 1.386 . S
C1180 C1175 1.490 . S
C1180 C1182 1.395 . S
C1180 C1183 1.403 . S
H1181 C1187 0.930 . S
C1182 H1168 0.930 . S
C1182 C1180 1.395 . S
C1182 C1185 1.403 . S
C1183 C1180 1.403 . S
C1183 C1184 1.524 . S
C1183 C1187 1.400 . S
C1184 H1169 0.960 . S
C1184 H1170 0.960 . S
C1184 H1171 0.960 . S
C1184 C1183 1.524 . S
C1185 C1182 1.403 . S
C1185 C1186 1.392 . S
C1185 C1189 1.495 . S
C1186 C1185 1.392 . S
C1186 C1187 1.385 . S
C1186 C1188 1.478 . S
C1187 H1181 0.930 . S
C1187 C1183 1.400 . S
C1187 C1186 1.385 . S
C1188 C1186 1.478 . S
C1188 C1190 1.381 . S
C1188 C1194 1.383 . S
C1189 C1185 1.495 . S
C1189 H1195 0.959 . S
C1189 H1196 0.961 . S
C1189 H1197 0.960 . S
C1190 C1188 1.381 . S
C1190 C1191 1.394 . S
C1190 H1198 0.930 . S
C1191 C1190 1.394 . S
C1191 C1192 1.383 . S
C1191 H1199 0.929 . S
C1192 C1191 1.383 . S
C1192 C1193 1.377 . S
C1193 H1177 0.930 . S
C1193 C1192 1.377 . S
C1193 C1194 1.379 . S
C1194 H1178 0.931 . S
C1194 C1188 1.383 . S
C1194 C1193 1.379 . S
H1195 C1189 0.959 . S
H1196 C1189 0.961 . S
H1197 C1189 0.960 . S
H1198 C1190 0.930 . S
H1199 C1191 0.929 . S
H1200 C1208 0.929 . S
H1201 C1210 0.930 . S
H1202 C1212 0.930 . S
H1203 C1215 0.929 . S
H1204 C1218 0.930 . S
H1205 C1220 0.960 . S
H1206 C1220 0.960 . S
H1207 C1220 0.960 . S
C1208 H1200 0.929 . S
C1208 C1209 1.377 . S
C1208 C1210 1.384 . S
C1209 C1208 1.377 . S
C1209 C1215 1.390 . S
C1210 H1201 0.930 . S
C1210 C1208 1.384 . S
C1210 C1211 1.372 . S
C1211 C1210 1.372 . S
C1211 C1212 1.400 . S
C1211 C1216 1.490 . S
C1212 H1202 0.930 . S
C1212 C1211 1.400 . S
C1212 C1215 1.386 . S
H1213 C1229 0.930 . S
H1214 C1230 0.931 . S
C1215 H1203 0.929 . S
C1215 C1209 1.390 . S
C1215 C1212 1.386 . S
C1216 C1211 1.490 . S
C1216 C1218 1.395 . S
C1216 C1219 1.403 . S
H1217 C1223 0.930 . S
C1218 H1204 0.930 . S
C1218 C1216 1.395 . S
C1218 C1221 1.403 . S
C1219 C1216 1.403 . S
C1219 C1220 1.524 . S
C1219 C1223 1.400 . S
C1220 H1205 0.960 . S
C1220 H1206 0.960 . S
C1220 H1207 0.960 . S
C1220 C1219 1.524 . S
C1221 C1218 1.403 . S
C1221 C1222 1.392 . S
C1221 C1225 1.495 . S
C1222 C1221 1.392 . S
C1222 C1223 1.385 . S
C1222 C1224 1.478 . S
C1223 H1217 0.930 . S
C1223 C1219 1.400 . S
C1223 C1222 1.385 . S
C1224 C1222 1.478 . S
C1224 C1226 1.381 . S
C1224 C1230 1.383 . S
C1225 C1221 1.495 . S
C1225 H1231 0.959 . S
C1225 H1232 0.961 . S
C1225 H1233 0.960 . S
C1226 C1224 1.381 . S
C1226 C1227 1.394 . S
C1226 H1234 0.930 . S
C1227 C1226 1.394 . S
C1227 C1228 1.383 . S
C1227 H1235 0.929 . S
C1228 C1227 1.383 . S
C1228 C1229 1.377 . S
C1229 H1213 0.930 . S
C1229 C1228 1.377 . S
C1229 C1230 1.379 . S
C1230 H1214 0.931 . S
C1230 C1224 1.383 . S
C1230 C1229 1.379 . S
H1231 C1225 0.959 . S
H1232 C1225 0.961 . S
H1233 C1225 0.960 . S
H1234 C1226 0.930 . S
H1235 C1227 0.929 . S
H1236 C1244 0.929 . S
H1237 C1246 0.930 . S
H1238 C1248 0.930 . S
H1239 C1251 0.929 . S
H1240 C1254 0.930 . S
H1241 C1256 0.960 . S
H1242 C1256 0.960 . S
H1243 C1256 0.960 . S
C1244 H1236 0.929 . S
C1244 C1245 1.377 . S
C1244 C1246 1.384 . S
C1245 C1244 1.377 . S
C1245 C1251 1.390 . S
C1246 H1237 0.930 . S
C1246 C1244 1.384 . S
C1246 C1247 1.372 . S
C1247 C1246 1.372 . S
C1247 C1248 1.400 . S
C1247 C1252 1.490 . S
C1248 H1238 0.930 . S
C1248 C1247 1.400 . S
C1248 C1251 1.386 . S
H1249 C1265 0.930 . S
H1250 C1266 0.931 1_545 S
C1251 H1239 0.929 . S
C1251 C1245 1.390 . S
C1251 C1248 1.386 . S
C1252 C1247 1.490 . S
C1252 C1254 1.395 . S
C1252 C1255 1.403 . S
H1253 C1259 0.930 . S
C1254 H1240 0.930 . S
C1254 C1252 1.395 . S
C1254 C1257 1.403 . S
C1255 C1252 1.403 . S
C1255 C1256 1.524 . S
C1255 C1259 1.400 . S
C1256 H1241 0.960 . S
C1256 H1242 0.960 . S
C1256 H1243 0.960 . S
C1256 C1255 1.524 . S
C1257 C1254 1.403 . S
C1257 C1258 1.392 . S
C1257 C1261 1.495 . S
C1258 C1257 1.392 . S
C1258 C1259 1.385 . S
C1258 C1260 1.478 1_545 S
C1259 H1253 0.930 . S
C1259 C1255 1.400 . S
C1259 C1258 1.385 . S
C1260 C1258 1.478 1_565 S
C1260 C1262 1.381 . S
C1260 C1266 1.383 . S
C1261 C1257 1.495 . S
C1261 H1267 0.959 . S
C1261 H1268 0.961 . S
C1261 H1269 0.960 . S
C1262 C1260 1.381 . S
C1262 C1263 1.394 . S
C1262 H1270 0.930 . S
C1263 C1262 1.394 . S
C1263 C1264 1.383 . S
C1263 H1271 0.929 . S
C1264 C1263 1.383 . S
C1264 C1265 1.377 . S
C1265 H1249 0.930 . S
C1265 C1264 1.377 . S
C1265 C1266 1.379 . S
C1266 H1250 0.931 1_565 S
C1266 C1260 1.383 . S
C1266 C1265 1.379 . S
H1267 C1261 0.959 . S
H1268 C1261 0.961 . S
H1269 C1261 0.960 . S
H1270 C1262 0.930 . S
H1271 C1263 0.929 . S
H1272 C1280 0.929 . S
H1273 C1282 0.930 . S
H1274 C1284 0.930 . S
H1275 C1287 0.929 . S
H1276 C1290 0.930 . S
H1277 C1292 0.960 . S
H1278 C1292 0.960 . S
H1279 C1292 0.960 . S
C1280 H1272 0.929 . S
C1280 C1281 1.377 . S
C1280 C1282 1.384 . S
C1281 C1280 1.377 . S
C1281 C1287 1.390 . S
C1282 H1273 0.930 . S
C1282 C1280 1.384 . S
C1282 C1283 1.372 . S
C1283 C1282 1.372 . S
C1283 C1284 1.400 . S
C1283 C1288 1.490 . S
C1284 H1274 0.930 . S
C1284 C1283 1.400 . S
C1284 C1287 1.386 . S
H1285 C1301 0.930 . S
H1286 C1302 0.931 . S
C1287 H1275 0.929 . S
C1287 C1281 1.390 . S
C1287 C1284 1.386 . S
C1288 C1283 1.490 . S
C1288 C1290 1.395 . S
C1288 C1291 1.403 . S
H1289 C1295 0.930 . S
C1290 H1276 0.930 . S
C1290 C1288 1.395 . S
C1290 C1293 1.403 . S
C1291 C1288 1.403 . S
C1291 C1292 1.524 . S
C1291 C1295 1.400 . S
C1292 H1277 0.960 . S
C1292 H1278 0.960 . S
C1292 H1279 0.960 . S
C1292 C1291 1.524 . S
C1293 C1290 1.403 . S
C1293 C1294 1.392 . S
C1293 C1297 1.495 . S
C1294 C1293 1.392 . S
C1294 C1295 1.385 . S
C1294 C1296 1.478 . S
C1295 H1289 0.930 . S
C1295 C1291 1.400 . S
C1295 C1294 1.385 . S
C1296 C1294 1.478 . S
C1296 C1298 1.381 . S
C1296 C1302 1.383 . S
C1297 C1293 1.495 . S
C1297 H1303 0.959 . S
C1297 H1304 0.961 . S
C1297 H1305 0.960 . S
C1298 C1296 1.381 . S
C1298 C1299 1.394 . S
C1298 H1306 0.930 . S
C1299 C1298 1.394 . S
C1299 C1300 1.383 . S
C1299 H1307 0.929 . S
C1300 C1299 1.383 . S
C1300 C1301 1.377 . S
C1301 H1285 0.930 . S
C1301 C1300 1.377 . S
C1301 C1302 1.379 . S
C1302 H1286 0.931 . S
C1302 C1296 1.383 . S
C1302 C1301 1.379 . S
H1303 C1297 0.959 . S
H1304 C1297 0.961 . S
H1305 C1297 0.960 . S
H1306 C1298 0.930 . S
H1307 C1299 0.929 . S
H1308 C1316 0.929 . S
H1309 C1318 0.930 . S
H1310 C1320 0.930 . S
H1311 C1323 0.929 . S
H1312 C1326 0.930 . S
H1313 C1328 0.960 . S
H1314 C1328 0.960 . S
H1315 C1328 0.960 . S
C1316 H1308 0.929 . S
C1316 C1317 1.377 . S
C1316 C1318 1.384 . S
C1317 C1316 1.377 . S
C1317 C1323 1.390 . S
C1318 H1309 0.930 . S
C1318 C1316 1.384 . S
C1318 C1319 1.372 . S
C1319 C1318 1.372 . S
C1319 C1320 1.400 . S
C1319 C1324 1.490 . S
C1320 H1310 0.930 . S
C1320 C1319 1.400 . S
C1320 C1323 1.386 . S
H1321 C1337 0.930 . S
H1322 C1338 0.931 . S
C1323 H1311 0.929 . S
C1323 C1317 1.390 . S
C1323 C1320 1.386 . S
C1324 C1319 1.490 . S
C1324 C1326 1.395 . S
C1324 C1327 1.403 . S
H1325 C1331 0.930 . S
C1326 H1312 0.930 . S
C1326 C1324 1.395 . S
C1326 C1329 1.403 . S
C1327 C1324 1.403 . S
C1327 C1328 1.524 . S
C1327 C1331 1.400 1_545 S
C1328 H1313 0.960 . S
C1328 H1314 0.960 . S
C1328 H1315 0.960 . S
C1328 C1327 1.524 . S
C1329 C1326 1.403 . S
C1329 C1330 1.392 1_545 S
C1329 C1333 1.495 . S
C1330 C1329 1.392 1_565 S
C1330 C1331 1.385 . S
C1330 C1332 1.478 . S
C1331 H1325 0.930 . S
C1331 C1327 1.400 1_565 S
C1331 C1330 1.385 . S
C1332 C1330 1.478 . S
C1332 C1334 1.381 . S
C1332 C1338 1.383 . S
C1333 C1329 1.495 . S
C1333 H1339 0.959 . S
C1333 H1340 0.961 . S
C1333 H1341 0.963 1_545 S
C1334 C1332 1.381 . S
C1334 C1335 1.394 . S
C1334 H1342 0.930 . S
C1335 C1334 1.394 . S
C1335 C1336 1.383 . S
C1335 H1343 0.929 . S
C1336 C1335 1.383 . S
C1336 C1337 1.377 . S
C1337 H1321 0.930 . S
C1337 C1336 1.377 . S
C1337 C1338 1.379 . S
C1338 H1322 0.931 . S
C1338 C1332 1.383 . S
C1338 C1337 1.379 . S
H1339 C1333 0.959 . S
H1340 C1333 0.961 . S
H1341 C1333 0.963 1_565 S
H1342 C1334 0.930 . S
H1343 C1335 0.929 . S
H1344 C1352 0.929 . S
H1345 C1354 0.930 . S
H1346 C1356 0.930 . S
H1347 C1359 0.929 . S
H1348 C1362 0.930 . S
H1349 C1364 0.960 . S
H1350 C1364 0.960 . S
H1351 C1364 0.960 . S
C1352 H1344 0.929 . S
C1352 C1353 1.377 . S
C1352 C1354 1.384 . S
C1353 C1352 1.377 . S
C1353 C1359 1.390 . S
C1354 H1345 0.930 . S
C1354 C1352 1.384 . S
C1354 C1355 1.372 . S
C1355 C1354 1.372 . S
C1355 C1356 1.400 . S
C1355 C1360 1.490 . S
C1356 H1346 0.930 . S
C1356 C1355 1.400 . S
C1356 C1359 1.386 . S
H1357 C1373 0.930 . S
H1358 C1374 0.931 . S
C1359 H1347 0.929 . S
C1359 C1353 1.390 . S
C1359 C1356 1.386 . S
C1360 C1355 1.490 . S
C1360 C1362 1.395 . S
C1360 C1363 1.403 . S
H1361 C1367 0.930 . S
C1362 H1348 0.930 . S
C1362 C1360 1.395 . S
C1362 C1365 1.403 . S
C1363 C1360 1.403 . S
C1363 C1364 1.524 . S
C1363 C1367 1.400 . S
C1364 H1349 0.960 . S
C1364 H1350 0.960 . S
C1364 H1351 0.960 . S
C1364 C1363 1.524 . S
C1365 C1362 1.403 . S
C1365 C1366 1.392 . S
C1365 C1369 1.495 . S
C1366 C1365 1.392 . S
C1366 C1367 1.385 . S
C1366 C1368 1.478 . S
C1367 H1361 0.930 . S
C1367 C1363 1.400 . S
C1367 C1366 1.385 . S
C1368 C1366 1.478 . S
C1368 C1370 1.381 . S
C1368 C1374 1.383 . S
C1369 C1365 1.495 . S
C1369 H1375 0.959 . S
C1369 H1376 0.961 . S
C1369 H1377 0.960 . S
C1370 C1368 1.381 . S
C1370 C1371 1.394 . S
C1370 H1378 0.930 . S
C1371 C1370 1.394 . S
C1371 C1372 1.383 . S
C1371 H1379 0.929 . S
C1372 C1371 1.383 . S
C1372 C1373 1.377 . S
C1373 H1357 0.930 . S
C1373 C1372 1.377 . S
C1373 C1374 1.379 . S
C1374 H1358 0.931 . S
C1374 C1368 1.383 . S
C1374 C1373 1.379 . S
H1375 C1369 0.959 . S
H1376 C1369 0.961 . S
H1377 C1369 0.960 . S
H1378 C1370 0.930 . S
H1379 C1371 0.929 . S
H1380 C1388 0.929 . S
H1381 C1390 0.930 . S
H1382 C1392 0.930 . S
H1383 C1395 0.929 . S
H1384 C1398 0.930 . S
H1385 C1400 0.960 . S
H1386 C1400 0.960 . S
H1387 C1400 0.960 . S
C1388 H1380 0.929 . S
C1388 C1389 1.377 . S
C1388 C1390 1.384 . S
C1389 C1388 1.377 . S
C1389 C1395 1.390 . S
C1390 H1381 0.930 . S
C1390 C1388 1.384 . S
C1390 C1391 1.372 . S
C1391 C1390 1.372 . S
C1391 C1392 1.400 . S
C1391 C1396 1.490 . S
C1392 H1382 0.930 . S
C1392 C1391 1.400 . S
C1392 C1395 1.386 . S
H1393 C1409 0.930 . S
H1394 C1410 0.931 . S
C1395 H1383 0.929 . S
C1395 C1389 1.390 . S
C1395 C1392 1.386 . S
C1396 C1391 1.490 . S
C1396 C1398 1.395 . S
C1396 C1399 1.403 . S
H1397 C1403 0.930 . S
C1398 H1384 0.930 . S
C1398 C1396 1.395 . S
C1398 C1401 1.403 . S
C1399 C1396 1.403 . S
C1399 C1400 1.524 . S
C1399 C1403 1.400 . S
C1400 H1385 0.960 . S
C1400 H1386 0.960 . S
C1400 H1387 0.960 . S
C1400 C1399 1.524 . S
C1401 C1398 1.403 . S
C1401 C1402 1.392 . S
C1401 C1405 1.495 . S
C1402 C1401 1.392 . S
C1402 C1403 1.385 . S
C1402 C1404 1.478 . S
C1403 H1397 0.930 . S
C1403 C1399 1.400 . S
C1403 C1402 1.385 . S
C1404 C1402 1.478 . S
C1404 C1406 1.381 . S
C1404 C1410 1.383 . S
C1405 C1401 1.495 . S
C1405 H1411 0.959 . S
C1405 H1412 0.961 . S
C1405 H1413 0.960 . S
C1406 C1404 1.381 . S
C1406 C1407 1.394 . S
C1406 H1414 0.930 . S
C1407 C1406 1.394 . S
C1407 C1408 1.383 . S
C1407 H1415 0.929 . S
C1408 C1407 1.383 . S
C1408 C1409 1.377 . S
C1409 H1393 0.930 . S
C1409 C1408 1.377 . S
C1409 C1410 1.379 . S
C1410 H1394 0.931 . S
C1410 C1404 1.383 . S
C1410 C1409 1.379 . S
H1411 C1405 0.959 . S
H1412 C1405 0.961 . S
H1413 C1405 0.960 . S
H1414 C1406 0.930 . S
H1415 C1407 0.929 . S
H1416 C1424 0.929 . S
H1417 C1426 0.930 . S
H1418 C1428 0.930 . S
H1419 C1431 0.929 . S
H1420 C1434 0.930 . S
H1421 C1436 0.960 . S
H1422 C1436 0.960 . S
H1423 C1436 0.960 . S
C1424 H1416 0.929 . S
C1424 C1425 1.377 . S
C1424 C1426 1.384 . S
C1425 C1424 1.377 . S
C1425 C1431 1.390 . S
C1426 H1417 0.930 . S
C1426 C1424 1.384 . S
C1426 C1427 1.372 . S
C1427 C1426 1.372 . S
C1427 C1428 1.400 . S
C1427 C1432 1.490 . S
C1428 H1418 0.930 . S
C1428 C1427 1.400 . S
C1428 C1431 1.386 . S
H1429 C1445 0.930 . S
H1430 C1446 0.931 . S
C1431 H1419 0.929 . S
C1431 C1425 1.390 . S
C1431 C1428 1.386 . S
C1432 C1427 1.490 . S
C1432 C1434 1.395 . S
C1432 C1435 1.403 . S
H1433 C1439 0.930 . S
C1434 H1420 0.930 . S
C1434 C1432 1.395 . S
C1434 C1437 1.403 . S
C1435 C1432 1.403 . S
C1435 C1436 1.524 . S
C1435 C1439 1.400 . S
C1436 H1421 0.960 . S
C1436 H1422 0.960 . S
C1436 H1423 0.960 . S
C1436 C1435 1.524 . S
C1437 C1434 1.403 . S
C1437 C1438 1.392 . S
C1437 C1441 1.495 . S
C1438 C1437 1.392 . S
C1438 C1439 1.385 . S
C1438 C1440 1.478 . S
C1439 H1433 0.930 . S
C1439 C1435 1.400 . S
C1439 C1438 1.385 . S
C1440 C1438 1.478 . S
C1440 C1442 1.381 . S
C1440 C1446 1.383 . S
C1441 C1437 1.495 . S
C1441 H1447 0.959 . S
C1441 H1448 0.961 . S
C1441 H1449 0.960 . S
C1442 C1440 1.381 . S
C1442 C1443 1.394 . S
C1442 H1450 0.930 . S
C1443 C1442 1.394 . S
C1443 C1444 1.383 . S
C1443 H1451 0.929 . S
C1444 C1443 1.383 . S
C1444 C1445 1.377 . S
C1445 H1429 0.930 . S
C1445 C1444 1.377 . S
C1445 C1446 1.379 . S
C1446 H1430 0.931 . S
C1446 C1440 1.383 . S
C1446 C1445 1.379 . S
H1447 C1441 0.959 . S
H1448 C1441 0.961 . S
H1449 C1441 0.960 . S
H1450 C1442 0.930 . S
H1451 C1443 0.929 . S
H1452 C1460 0.929 . S
H1453 C1462 0.930 . S
H1454 C1464 0.930 . S
H1455 C1467 0.929 . S
H1456 C1470 0.930 . S
H1457 C1472 0.960 . S
H1458 C1472 0.960 . S
H1459 C1472 0.960 . S
C1460 H1452 0.929 . S
C1460 C1461 1.377 . S
C1460 C1462 1.384 . S
C1461 C1460 1.377 . S
C1461 C1467 1.390 . S
C1462 H1453 0.930 . S
C1462 C1460 1.384 . S
C1462 C1463 1.372 . S
C1463 C1462 1.372 . S
C1463 C1464 1.400 . S
C1463 C1468 1.490 . S
C1464 H1454 0.930 . S
C1464 C1463 1.400 . S
C1464 C1467 1.386 . S
H1465 C1481 0.930 . S
H1466 C1482 0.931 . S
C1467 H1455 0.929 . S
C1467 C1461 1.390 . S
C1467 C1464 1.386 . S
C1468 C1463 1.490 . S
C1468 C1470 1.395 . S
C1468 C1471 1.403 . S
H1469 C1475 0.930 . S
C1470 H1456 0.930 . S
C1470 C1468 1.395 . S
C1470 C1473 1.403 . S
C1471 C1468 1.403 . S
C1471 C1472 1.524 . S
C1471 C1475 1.400 . S
C1472 H1457 0.960 . S
C1472 H1458 0.960 . S
C1472 H1459 0.960 . S
C1472 C1471 1.524 . S
C1473 C1470 1.403 . S
C1473 C1474 1.392 . S
C1473 C1477 1.495 . S
C1474 C1473 1.392 . S
C1474 C1475 1.385 . S
C1474 C1476 1.478 . S
C1475 H1469 0.930 . S
C1475 C1471 1.400 . S
C1475 C1474 1.385 . S
C1476 C1474 1.478 . S
C1476 C1478 1.381 . S
C1476 C1482 1.383 . S
C1477 C1473 1.495 . S
C1477 H1483 0.959 . S
C1477 H1484 0.961 . S
C1477 H1485 0.960 . S
C1478 C1476 1.381 . S
C1478 C1479 1.394 . S
C1478 H1486 0.930 . S
C1479 C1478 1.394 . S
C1479 C1480 1.383 . S
C1479 H1487 0.929 . S
C1480 C1479 1.383 . S
C1480 C1481 1.377 . S
C1481 H1465 0.930 . S
C1481 C1480 1.377 . S
C1481 C1482 1.379 . S
C1482 H1466 0.931 . S
C1482 C1476 1.383 . S
C1482 C1481 1.379 . S
H1483 C1477 0.959 . S
H1484 C1477 0.961 . S
H1485 C1477 0.960 . S
H1486 C1478 0.930 . S
H1487 C1479 0.929 . S
H1488 C1496 0.929 . S
H1489 C1498 0.930 . S
H1490 C1500 0.930 . S
H1491 C1503 0.929 . S
H1492 C1506 0.930 . S
H1493 C1508 0.960 . S
H1494 C1508 0.960 . S
H1495 C1508 0.960 . S
C1496 H1488 0.929 . S
C1496 C1497 1.377 . S
C1496 C1498 1.384 . S
C1497 C1496 1.377 . S
C1497 C1503 1.390 . S
C1498 H1489 0.930 . S
C1498 C1496 1.384 . S
C1498 C1499 1.372 . S
C1499 C1498 1.372 . S
C1499 C1500 1.400 . S
C1499 C1504 1.490 . S
C1500 H1490 0.930 . S
C1500 C1499 1.400 . S
C1500 C1503 1.386 . S
H1501 C1517 0.930 . S
H1502 C1518 0.931 . S
C1503 H1491 0.929 . S
C1503 C1497 1.390 . S
C1503 C1500 1.386 . S
C1504 C1499 1.490 . S
C1504 C1506 1.395 . S
C1504 C1507 1.403 . S
H1505 C1511 0.930 . S
C1506 H1492 0.930 . S
C1506 C1504 1.395 . S
C1506 C1509 1.403 . S
C1507 C1504 1.403 . S
C1507 C1508 1.524 . S
C1507 C1511 1.400 . S
C1508 H1493 0.960 . S
C1508 H1494 0.960 . S
C1508 H1495 0.960 . S
C1508 C1507 1.524 . S
C1509 C1506 1.403 . S
C1509 C1510 1.392 . S
C1509 C1513 1.495 . S
C1510 C1509 1.392 . S
C1510 C1511 1.385 . S
C1510 C1512 1.478 . S
C1511 H1505 0.930 . S
C1511 C1507 1.400 . S
C1511 C1510 1.385 . S
C1512 C1510 1.478 . S
C1512 C1514 1.381 . S
C1512 C1518 1.383 . S
C1513 C1509 1.495 . S
C1513 H1519 0.959 . S
C1513 H1520 0.961 . S
C1513 H1521 0.960 . S
C1514 C1512 1.381 . S
C1514 C1515 1.394 . S
C1514 H1522 0.930 . S
C1515 C1514 1.394 . S
C1515 C1516 1.383 . S
C1515 H1523 0.929 . S
C1516 C1515 1.383 . S
C1516 C1517 1.377 . S
C1517 H1501 0.930 . S
C1517 C1516 1.377 . S
C1517 C1518 1.379 . S
C1518 H1502 0.931 . S
C1518 C1512 1.383 . S
C1518 C1517 1.379 . S
H1519 C1513 0.959 . S
H1520 C1513 0.961 . S
H1521 C1513 0.960 . S
H1522 C1514 0.930 . S
H1523 C1515 0.929 . S
H1524 C1532 0.929 . S
H1525 C1534 0.930 . S
H1526 C1536 0.930 . S
H1527 C1539 0.929 . S
H1528 C1542 0.930 . S
H1529 C1544 0.960 . S
H1530 C1544 0.960 . S
H1531 C1544 0.960 . S
C1532 H1524 0.929 . S
C1532 C1533 1.377 . S
C1532 C1534 1.384 . S
C1533 C1532 1.377 . S
C1533 C1539 1.390 . S
C1534 H1525 0.930 . S
C1534 C1532 1.384 . S
C1534 C1535 1.372 . S
C1535 C1534 1.372 . S
C1535 C1536 1.400 . S
C1535 C1540 1.490 . S
C1536 H1526 0.930 . S
C1536 C1535 1.400 . S
C1536 C1539 1.386 . S
H1537 C1553 0.930 . S
H1538 C1554 0.931 . S
C1539 H1527 0.929 . S
C1539 C1533 1.390 . S
C1539 C1536 1.386 . S
C1540 C1535 1.490 . S
C1540 C1542 1.395 . S
C1540 C1543 1.403 . S
H1541 C1547 0.930 . S
C1542 H1528 0.930 . S
C1542 C1540 1.395 . S
C1542 C1545 1.403 . S
C1543 C1540 1.403 . S
C1543 C1544 1.524 . S
C1543 C1547 1.400 . S
C1544 H1529 0.960 . S
C1544 H1530 0.960 . S
C1544 H1531 0.960 . S
C1544 C1543 1.524 . S
C1545 C1542 1.403 . S
C1545 C1546 1.392 . S
C1545 C1549 1.495 . S
C1546 C1545 1.392 . S
C1546 C1547 1.385 . S
C1546 C1548 1.478 . S
C1547 H1541 0.930 . S
C1547 C1543 1.400 . S
C1547 C1546 1.385 . S
C1548 C1546 1.478 . S
C1548 C1550 1.381 . S
C1548 C1554 1.383 . S
C1549 C1545 1.495 . S
C1549 H1555 0.959 . S
C1549 H1556 0.961 . S
C1549 H1557 0.960 . S
C1550 C1548 1.381 . S
C1550 C1551 1.394 . S
C1550 H1558 0.930 . S
C1551 C1550 1.394 . S
C1551 C1552 1.383 . S
C1551 H1559 0.929 . S
C1552 C1551 1.383 . S
C1552 C1553 1.377 . S
C1553 H1537 0.930 . S
C1553 C1552 1.377 . S
C1553 C1554 1.379 . S
C1554 H1538 0.931 . S
C1554 C1548 1.383 . S
C1554 C1553 1.379 . S
H1555 C1549 0.959 . S
H1556 C1549 0.961 . S
H1557 C1549 0.960 . S
H1558 C1550 0.930 . S
H1559 C1551 0.929 . S
H1560 C1568 0.929 . S
H1561 C1570 0.930 . S
H1562 C1572 0.930 . S
H1563 C1575 0.929 . S
H1564 C1578 0.930 . S
H1565 C1580 0.960 . S
H1566 C1580 0.960 . S
H1567 C1580 0.960 . S
C1568 H1560 0.929 . S
C1568 C1569 1.377 . S
C1568 C1570 1.384 . S
C1569 C1568 1.377 . S
C1569 C1575 1.390 . S
C1570 H1561 0.930 . S
C1570 C1568 1.384 . S
C1570 C1571 1.372 . S
C1571 C1570 1.372 . S
C1571 C1572 1.400 . S
C1571 C1576 1.490 . S
C1572 H1562 0.930 . S
C1572 C1571 1.400 . S
C1572 C1575 1.386 . S
H1573 C1589 0.930 . S
H1574 C1590 0.931 . S
C1575 H1563 0.929 . S
C1575 C1569 1.390 . S
C1575 C1572 1.386 . S
C1576 C1571 1.490 . S
C1576 C1578 1.395 . S
C1576 C1579 1.403 . S
H1577 C1583 0.930 . S
C1578 H1564 0.930 . S
C1578 C1576 1.395 . S
C1578 C1581 1.403 1_455 S
C1579 C1576 1.403 . S
C1579 C1580 1.524 . S
C1579 C1583 1.400 . S
C1580 H1565 0.960 . S
C1580 H1566 0.960 . S
C1580 H1567 0.960 . S
C1580 C1579 1.524 . S
C1581 C1578 1.403 1_655 S
C1581 C1582 1.392 . S
C1581 C1585 1.495 . S
C1582 C1581 1.392 . S
C1582 C1583 1.385 1_655 S
C1582 C1584 1.478 . S
C1583 H1577 0.930 . S
C1583 C1579 1.400 . S
C1583 C1582 1.385 1_455 S
C1584 C1582 1.478 . S
C1584 C1586 1.381 . S
C1584 C1590 1.383 . S
C1585 C1581 1.495 . S
C1585 H1591 0.959 . S
C1585 H1592 0.961 . S
C1585 H1593 0.960 . S
C1586 C1584 1.381 . S
C1586 C1587 1.394 . S
C1586 H1594 0.930 . S
C1587 C1586 1.394 . S
C1587 C1588 1.383 . S
C1587 H1595 0.929 . S
C1588 C1587 1.383 . S
C1588 C1589 1.377 . S
C1589 H1573 0.930 . S
C1589 C1588 1.377 . S
C1589 C1590 1.379 . S
C1590 H1574 0.931 . S
C1590 C1584 1.383 . S
C1590 C1589 1.379 . S
H1591 C1585 0.959 . S
H1592 C1585 0.961 . S
H1593 C1585 0.960 . S
H1594 C1586 0.930 . S
H1595 C1587 0.929 . S
H1596 C1604 0.929 . S
H1597 C1606 0.930 . S
H1598 C1608 0.930 . S
H1599 C1611 0.929 . S
H1600 C1614 0.930 . S
H1601 C1616 0.960 . S
H1602 C1616 0.960 . S
H1603 C1616 0.960 . S
C1604 H1596 0.929 . S
C1604 C1605 1.377 . S
C1604 C1606 1.384 . S
C1605 C1604 1.377 . S
C1605 C1611 1.390 . S
C1606 H1597 0.930 . S
C1606 C1604 1.384 . S
C1606 C1607 1.372 . S
C1607 C1606 1.372 . S
C1607 C1608 1.400 . S
C1607 C1612 1.490 . S
C1608 H1598 0.930 . S
C1608 C1607 1.400 . S
C1608 C1611 1.386 . S
H1609 C1625 0.930 . S
H1610 C1626 0.931 . S
C1611 H1599 0.929 . S
C1611 C1605 1.390 . S
C1611 C1608 1.386 . S
C1612 C1607 1.490 . S
C1612 C1614 1.395 . S
C1612 C1615 1.403 . S
H1613 C1619 0.930 . S
C1614 H1600 0.930 . S
C1614 C1612 1.395 . S
C1614 C1617 1.403 . S
C1615 C1612 1.403 . S
C1615 C1616 1.524 . S
C1615 C1619 1.400 . S
C1616 H1601 0.960 . S
C1616 H1602 0.960 . S
C1616 H1603 0.960 . S
C1616 C1615 1.524 . S
C1617 C1614 1.403 . S
C1617 C1618 1.392 . S
C1617 C1621 1.495 . S
C1618 C1617 1.392 . S
C1618 C1619 1.385 . S
C1618 C1620 1.478 . S
C1619 H1613 0.930 . S
C1619 C1615 1.400 . S
C1619 C1618 1.385 . S
C1620 C1618 1.478 . S
C1620 C1622 1.381 . S
C1620 C1626 1.383 . S
C1621 C1617 1.495 . S
C1621 H1627 0.959 . S
C1621 H1628 0.961 . S
C1621 H1629 0.960 . S
C1622 C1620 1.381 . S
C1622 C1623 1.394 . S
C1622 H1630 0.930 . S
C1623 C1622 1.394 . S
C1623 C1624 1.383 . S
C1623 H1631 0.929 . S
C1624 C1623 1.383 . S
C1624 C1625 1.377 . S
C1625 H1609 0.930 . S
C1625 C1624 1.377 . S
C1625 C1626 1.379 . S
C1626 H1610 0.931 . S
C1626 C1620 1.383 . S
C1626 C1625 1.379 . S
H1627 C1621 0.959 . S
H1628 C1621 0.961 . S
H1629 C1621 0.960 . S
H1630 C1622 0.930 . S
H1631 C1623 0.929 . S
H1632 C1640 0.929 . S
H1633 C1642 0.930 . S
H1634 C1644 0.930 . S
H1635 C1647 0.929 . S
H1636 C1650 0.930 . S
H1637 C1652 0.960 . S
H1638 C1652 0.960 . S
H1639 C1652 0.960 . S
C1640 H1632 0.929 . S
C1640 C1641 1.377 . S
C1640 C1642 1.384 . S
C1641 C1640 1.377 . S
C1641 C1647 1.390 . S
C1642 H1633 0.930 . S
C1642 C1640 1.384 . S
C1642 C1643 1.372 . S
C1643 C1642 1.372 . S
C1643 C1644 1.400 . S
C1643 C1648 1.490 . S
C1644 H1634 0.930 . S
C1644 C1643 1.400 . S
C1644 C1647 1.386 . S
H1645 C1661 0.930 . S
H1646 C1662 0.931 . S
C1647 H1635 0.929 . S
C1647 C1641 1.390 . S
C1647 C1644 1.386 . S
C1648 C1643 1.490 . S
C1648 C1650 1.395 . S
C1648 C1651 1.403 . S
H1649 C1655 0.930 . S
C1650 H1636 0.930 . S
C1650 C1648 1.395 . S
C1650 C1653 1.403 . S
C1651 C1648 1.403 . S
C1651 C1652 1.524 . S
C1651 C1655 1.400 . S
C1652 H1637 0.960 . S
C1652 H1638 0.960 . S
C1652 H1639 0.960 . S
C1652 C1651 1.524 . S
C1653 C1650 1.403 . S
C1653 C1654 1.392 . S
C1653 C1657 1.495 . S
C1654 C1653 1.392 . S
C1654 C1655 1.385 . S
C1654 C1656 1.478 . S
C1655 H1649 0.930 . S
C1655 C1651 1.400 . S
C1655 C1654 1.385 . S
C1656 C1654 1.478 . S
C1656 C1658 1.381 . S
C1656 C1662 1.383 . S
C1657 C1653 1.495 . S
C1657 H1663 0.959 . S
C1657 H1664 0.961 . S
C1657 H1665 0.960 . S
C1658 C1656 1.381 . S
C1658 C1659 1.394 . S
C1658 H1666 0.930 . S
C1659 C1658 1.394 . S
C1659 C1660 1.383 . S
C1659 H1667 0.929 . S
C1660 C1659 1.383 . S
C1660 C1661 1.377 . S
C1661 H1645 0.930 . S
C1661 C1660 1.377 . S
C1661 C1662 1.379 . S
C1662 H1646 0.931 . S
C1662 C1656 1.383 . S
C1662 C1661 1.379 . S
H1663 C1657 0.959 . S
H1664 C1657 0.961 . S
H1665 C1657 0.960 . S
H1666 C1658 0.930 . S
H1667 C1659 0.929 . S
H1668 C1676 0.929 . S
H1669 C1678 0.930 . S
H1670 C1680 0.930 . S
H1671 C1683 0.929 . S
H1672 C1686 0.930 . S
H1673 C1688 0.960 . S
H1674 C1688 0.960 . S
H1675 C1688 0.960 . S
C1676 H1668 0.929 . S
C1676 C1677 1.377 . S
C1676 C1678 1.384 . S
C1677 C1676 1.377 . S
C1677 C1683 1.390 . S
C1678 H1669 0.930 . S
C1678 C1676 1.384 . S
C1678 C1679 1.372 . S
C1679 C1678 1.372 . S
C1679 C1680 1.400 . S
C1679 C1684 1.490 . S
C1680 H1670 0.930 . S
C1680 C1679 1.400 . S
C1680 C1683 1.386 . S
H1681 C1697 0.930 . S
H1682 C1698 0.931 . S
C1683 H1671 0.929 . S
C1683 C1677 1.390 . S
C1683 C1680 1.386 . S
C1684 C1679 1.490 . S
C1684 C1686 1.395 . S
C1684 C1687 1.403 . S
H1685 C1691 0.930 . S
C1686 H1672 0.930 . S
C1686 C1684 1.395 . S
C1686 C1689 1.403 . S
C1687 C1684 1.403 . S
C1687 C1688 1.524 . S
C1687 C1691 1.400 . S
C1688 H1673 0.960 . S
C1688 H1674 0.960 . S
C1688 H1675 0.960 . S
C1688 C1687 1.524 . S
C1689 C1686 1.403 . S
C1689 C1690 1.392 . S
C1689 C1693 1.495 . S
C1690 C1689 1.392 . S
C1690 C1691 1.385 . S
C1690 C1692 1.478 . S
C1691 H1685 0.930 . S
C1691 C1687 1.400 . S
C1691 C1690 1.385 . S
C1692 C1690 1.478 . S
C1692 C1694 1.381 . S
C1692 C1698 1.383 . S
C1693 C1689 1.495 . S
C1693 H1699 0.959 . S
C1693 H1700 0.961 . S
C1693 H1701 0.960 . S
C1694 C1692 1.381 . S
C1694 C1695 1.394 . S
C1694 H1702 0.930 . S
C1695 C1694 1.394 . S
C1695 C1696 1.383 . S
C1695 H1703 0.929 . S
C1696 C1695 1.383 . S
C1696 C1697 1.377 . S
C1697 H1681 0.930 . S
C1697 C1696 1.377 . S
C1697 C1698 1.379 . S
C1698 H1682 0.931 . S
C1698 C1692 1.383 . S
C1698 C1697 1.379 . S
H1699 C1693 0.959 . S
H1700 C1693 0.961 . S
H1701 C1693 0.960 . S
H1702 C1694 0.930 . S
H1703 C1695 0.929 . S
H1704 C1712 0.929 . S
H1705 C1714 0.930 . S
H1706 C1716 0.930 . S
H1707 C1719 0.929 . S
H1708 C1722 0.930 . S
H1709 C1724 0.960 . S
H1710 C1724 0.960 . S
H1711 C1724 0.960 . S
C1712 H1704 0.929 . S
C1712 C1713 1.377 . S
C1712 C1714 1.384 . S
C1713 C1712 1.377 . S
C1713 C1719 1.390 . S
C1714 H1705 0.930 . S
C1714 C1712 1.384 . S
C1714 C1715 1.372 . S
C1715 C1714 1.372 . S
C1715 C1716 1.400 . S
C1715 C1720 1.490 . S
C1716 H1706 0.930 . S
C1716 C1715 1.400 . S
C1716 C1719 1.386 . S
H1717 C1733 0.930 . S
H1718 C1734 0.931 . S
C1719 H1707 0.929 . S
C1719 C1713 1.390 . S
C1719 C1716 1.386 . S
C1720 C1715 1.490 . S
C1720 C1722 1.395 . S
C1720 C1723 1.403 . S
H1721 C1727 0.930 . S
C1722 H1708 0.930 . S
C1722 C1720 1.395 . S
C1722 C1725 1.403 . S
C1723 C1720 1.403 . S
C1723 C1724 1.524 . S
C1723 C1727 1.400 . S
C1724 H1709 0.960 . S
C1724 H1710 0.960 . S
C1724 H1711 0.960 . S
C1724 C1723 1.524 . S
C1725 C1722 1.403 . S
C1725 C1726 1.392 . S
C1725 C1729 1.495 . S
C1726 C1725 1.392 . S
C1726 C1727 1.385 . S
C1726 C1728 1.478 . S
C1727 H1721 0.930 . S
C1727 C1723 1.400 . S
C1727 C1726 1.385 . S
C1728 C1726 1.478 . S
C1728 C1730 1.381 . S
C1728 C1734 1.383 . S
C1729 C1725 1.495 . S
C1729 H1735 0.959 . S
C1729 H1736 0.961 . S
C1729 H1737 0.960 . S
C1730 C1728 1.381 . S
C1730 C1731 1.394 . S
C1730 H1738 0.930 . S
C1731 C1730 1.394 . S
C1731 C1732 1.383 . S
C1731 H1739 0.929 . S
C1732 C1731 1.383 . S
C1732 C1733 1.377 . S
C1733 H1717 0.930 . S
C1733 C1732 1.377 . S
C1733 C1734 1.379 . S
C1734 H1718 0.931 . S
C1734 C1728 1.383 . S
C1734 C1733 1.379 . S
H1735 C1729 0.959 . S
H1736 C1729 0.961 . S
H1737 C1729 0.960 . S
H1738 C1730 0.930 . S
H1739 C1731 0.929 . S
H1740 C1748 0.929 . S
H1741 C1750 0.930 . S
H1742 C1752 0.930 . S
H1743 C1755 0.929 . S
H1744 C1758 0.930 . S
H1745 C1760 0.960 1_455 S
H1746 C1760 0.960 . S
H1747 C1760 0.960 . S
C1748 H1740 0.929 . S
C1748 C1749 1.377 . S
C1748 C1750 1.384 . S
C1749 C1748 1.377 . S
C1749 C1755 1.390 . S
C1750 H1741 0.930 . S
C1750 C1748 1.384 . S
C1750 C1751 1.372 . S
C1751 C1750 1.372 . S
C1751 C1752 1.400 . S
C1751 C1756 1.490 . S
C1752 H1742 0.930 . S
C1752 C1751 1.400 . S
C1752 C1755 1.386 . S
H1753 C1769 0.930 . S
H1754 C1770 0.931 . S
C1755 H1743 0.929 . S
C1755 C1749 1.390 . S
C1755 C1752 1.386 . S
C1756 C1751 1.490 . S
C1756 C1758 1.395 . S
C1756 C1759 1.403 . S
H1757 C1763 0.930 . S
C1758 H1744 0.930 . S
C1758 C1756 1.395 . S
C1758 C1761 1.403 . S
C1759 C1756 1.403 . S
C1759 C1760 1.524 . S
C1759 C1763 1.400 1_655 S
C1760 H1745 0.960 1_655 S
C1760 H1746 0.960 . S
C1760 H1747 0.960 . S
C1760 C1759 1.524 . S
C1761 C1758 1.403 . S
C1761 C1762 1.392 1_655 S
C1761 C1765 1.495 . S
C1762 C1761 1.392 1_455 S
C1762 C1763 1.385 . S
C1762 C1764 1.478 . S
C1763 H1757 0.930 . S
C1763 C1759 1.400 1_455 S
C1763 C1762 1.385 . S
C1764 C1762 1.478 . S
C1764 C1766 1.381 . S
C1764 C1770 1.383 . S
C1765 C1761 1.495 . S
C1765 H1771 0.959 . S
C1765 H1772 0.961 . S
C1765 H1773 0.960 . S
C1766 C1764 1.381 . S
C1766 C1767 1.394 . S
C1766 H1774 0.930 . S
C1767 C1766 1.394 . S
C1767 C1768 1.383 . S
C1767 H1775 0.929 . S
C1768 C1767 1.383 . S
C1768 C1769 1.377 . S
C1769 H1753 0.930 . S
C1769 C1768 1.377 . S
C1769 C1770 1.379 . S
C1770 H1754 0.931 . S
C1770 C1764 1.383 . S
C1770 C1769 1.379 . S
H1771 C1765 0.959 . S
H1772 C1765 0.961 . S
H1773 C1765 0.960 . S
H1774 C1766 0.930 . S
H1775 C1767 0.929 . S
C489 C3 1.540 . S
C508 C443 1.511 . S
C525 C375 1.557 1_565 S
C544 C55 1.554 1_655 S
C561 C83 1.466 1_554 S
C580 C335 1.494 . S
C597 C135 1.650 . S
C616 C415 1.634 . S
C633 C163 2.019 . S
C652 C403 2.006 . S
C669 C203 1.329 . S
C688 C455 1.361 . S
C705 C363 2.013 . S
C724 C255 2.009 . S
C741 C283 1.557 . S
C760 C323 1.550 . S
C777 C123 1.286 . S
C796 C175 1.280 . S
C813 C15 1.388 . S
C832 C215 1.391 . S
C849 C43 1.776 . S
C868 C243 1.774 . S
C885 C295 1.577 . S
C904 C95 1.587 . S
C921 C26 1.611 . S
C940 C322 1.561 . S
C957 C49 0.717 . S
C976 C402 0.676 . S
C993 C462 2.239 . S
C1012 C106 2.172 . S
C1029 C129 1.312 . S
C1048 C362 1.281 . S
C1065 C186 1.369 . S
C1084 C382 1.380 . S
C1101 C342 2.010 . S
C1120 C226 1.933 . S
C1137 C422 1.610 . S
C1156 C249 1.605 . S
C1173 C442 0.947 . S
C1192 C306 0.977 . S
C1209 C2 1.856 . S
C1228 C146 1.861 . S
C1245 C9 2.072 . S
C1264 C62 2.032 . S
C1281 C66 1.499 . S
C1300 C82 1.519 . S
C1317 C142 2.093 . S
C1336 C89 2.125 . S
C1353 C209 0.769 . S
C1372 C162 0.713 . S
C1389 C202 1.306 . S
C1408 C266 1.338 . S
C1425 C262 0.909 . S
C1444 C289 0.919 . S
C1461 C169 1.419 . S
C1480 C282 1.375 . S
C1497 C346 1.913 . S
C1516 C122 1.892 . S
C1533 C222 2.406 . S
C1552 C369 2.435 . S
C1569 C329 1.377 . S
C1588 C242 1.341 . S
C1605 C409 1.557 . S
C1624 C302 1.534 . S
C1641 C182 1.818 . S
C1660 C466 1.760 . S
C1677 C449 1.075 . S
C1696 C42 0.997 . S
C1713 C102 1.823 . S
C1732 C386 1.785 . S
C1749 C426 1.673 . S
C1768 C22 1.682 . S
