# Generated by pormake.
# Topology uoy, (4)-cn, num edge types: 1
# Building blocks:
#     Node 0, Type 0, BuildingBlock: GALJAG_clean_sbu_0, # of connection points: 4
#     Node 1, Type 0, BuildingBlock: GALJAG_clean_sbu_0, # of connection points: 4
#     Node 2, Type 0, BuildingBlock: GALJAG_clean_sbu_0, # of connection points: 4
#     Node 3, Type 0, BuildingBlock: GALJAG_clean_sbu_0, # of connection points: 4
#     Node 4, Type 0, BuildingBlock: GALJAG_clean_sbu_0, # of connection points: 4
#     Node 5, Type 0, BuildingBlock: GALJAG_clean_sbu_0, # of connection points: 4
#     Node 6, Type 0, BuildingBlock: GALJAG_clean_sbu_0, # of connection points: 4
#     Node 7, Type 0, BuildingBlock: GALJAG_clean_sbu_0, # of connection points: 4
#     Node 8, Type 0, BuildingBlock: GALJAG_clean_sbu_0, # of connection points: 4
#     Node 9, Type 0, BuildingBlock: GALJAG_clean_sbu_0, # of connection points: 4
#     Node 10, Type 0, BuildingBlock: GALJAG_clean_sbu_0, # of connection points: 4
#     Node 11, Type 0, BuildingBlock: GALJAG_clean_sbu_0, # of connection points: 4
#     Node 12, Type 0, BuildingBlock: GALJAG_clean_sbu_0, # of connection points: 4
#     Node 13, Type 0, BuildingBlock: GALJAG_clean_sbu_0, # of connection points: 4
#     Node 14, Type 0, BuildingBlock: GALJAG_clean_sbu_0, # of connection points: 4
#     Node 15, Type 0, BuildingBlock: GALJAG_clean_sbu_0, # of connection points: 4
#     Edge 16, Type (0, 0), BuildingBlock: XUDNAN_clean_linker_2, # of connection points: 2
#     Edge 17, Type (0, 0), BuildingBlock: XUDNAN_clean_linker_2, # of connection points: 2
#     Edge 18, Type (0, 0), BuildingBlock: XUDNAN_clean_linker_2, # of connection points: 2
#     Edge 19, Type (0, 0), BuildingBlock: XUDNAN_clean_linker_2, # of connection points: 2
#     Edge 20, Type (0, 0), BuildingBlock: XUDNAN_clean_linker_2, # of connection points: 2
#     Edge 21, Type (0, 0), BuildingBlock: XUDNAN_clean_linker_2, # of connection points: 2
#     Edge 22, Type (0, 0), BuildingBlock: XUDNAN_clean_linker_2, # of connection points: 2
#     Edge 23, Type (0, 0), BuildingBlock: XUDNAN_clean_linker_2, # of connection points: 2
#     Edge 24, Type (0, 0), BuildingBlock: XUDNAN_clean_linker_2, # of connection points: 2
#     Edge 25, Type (0, 0), BuildingBlock: XUDNAN_clean_linker_2, # of connection points: 2
#     Edge 26, Type (0, 0), BuildingBlock: XUDNAN_clean_linker_2, # of connection points: 2
#     Edge 27, Type (0, 0), BuildingBlock: XUDNAN_clean_linker_2, # of connection points: 2
#     Edge 28, Type (0, 0), BuildingBlock: XUDNAN_clean_linker_2, # of connection points: 2
#     Edge 29, Type (0, 0), BuildingBlock: XUDNAN_clean_linker_2, # of connection points: 2
#     Edge 30, Type (0, 0), BuildingBlock: XUDNAN_clean_linker_2, # of connection points: 2
#     Edge 31, Type (0, 0), BuildingBlock: XUDNAN_clean_linker_2, # of connection points: 2
#     Edge 32, Type (0, 0), BuildingBlock: XUDNAN_clean_linker_2, # of connection points: 2
#     Edge 33, Type (0, 0), BuildingBlock: XUDNAN_clean_linker_2, # of connection points: 2
#     Edge 34, Type (0, 0), BuildingBlock: XUDNAN_clean_linker_2, # of connection points: 2
#     Edge 35, Type (0, 0), BuildingBlock: XUDNAN_clean_linker_2, # of connection points: 2
#     Edge 36, Type (0, 0), BuildingBlock: XUDNAN_clean_linker_2, # of connection points: 2
#     Edge 37, Type (0, 0), BuildingBlock: XUDNAN_clean_linker_2, # of connection points: 2
#     Edge 38, Type (0, 0), BuildingBlock: XUDNAN_clean_linker_2, # of connection points: 2
#     Edge 39, Type (0, 0), BuildingBlock: XUDNAN_clean_linker_2, # of connection points: 2
#     Edge 40, Type (0, 0), BuildingBlock: XUDNAN_clean_linker_2, # of connection points: 2
#     Edge 41, Type (0, 0), BuildingBlock: XUDNAN_clean_linker_2, # of connection points: 2
#     Edge 42, Type (0, 0), BuildingBlock: XUDNAN_clean_linker_2, # of connection points: 2
#     Edge 43, Type (0, 0), BuildingBlock: XUDNAN_clean_linker_2, # of connection points: 2
#     Edge 44, Type (0, 0), BuildingBlock: XUDNAN_clean_linker_2, # of connection points: 2
#     Edge 45, Type (0, 0), BuildingBlock: XUDNAN_clean_linker_2, # of connection points: 2
#     Edge 46, Type (0, 0), BuildingBlock: XUDNAN_clean_linker_2, # of connection points: 2
#     Edge 47, Type (0, 0), BuildingBlock: XUDNAN_clean_linker_2, # of connection points: 2
# Relax obj value: 0.037
# Max RMSD: 0.056
# Mean RMSD: 0.056
data_MOF--net-uoy--node1-GALJAG_clean_sbu_0--edge1-XUDNAN_clean_linker_2
_symmetry_space_group_name_H-M    P1
_symmetry_Int_Tables_number       1
_symmetry_cell_setting            triclinic
loop_
_symmetry_equiv_pos_as_xyz
'x, y, z'
_cell_length_a     27.462129
_cell_length_b     27.46874
_cell_length_c     109.34027
_cell_angle_alpha  89.992885
_cell_angle_beta   89.975353
_cell_angle_gamma 90.003735
loop_
_atom_site_label
_atom_site_type_symbol
_atom_site_fract_x
_atom_site_fract_y
_atom_site_fract_z
_atom_type_partial_charge
In0 In 0.25945 0.10926 0.1883 0.0
O1 O 0.23198 0.17907 0.17947 0.0
O2 O 0.2664 0.12756 0.16789 0.0
C3 C 0.27886 0.15574 0.20958 0.0
C4 C 0.17495 0.05829 0.18723 0.0
C5 C 0.34073 0.05308 0.18783 0.0
O6 O 0.29533 0.16942 0.19939 0.0
O7 O 0.25167 0.11876 0.20909 0.0
O8 O 0.30052 0.03856 0.19205 0.0
O9 O 0.34003 0.09588 0.18365 0.0
C10 C 0.24567 0.16838 0.1688 0.0
O11 O 0.21434 0.04356 0.18257 0.0
O12 O 0.1779 0.09903 0.19252 0.0
In13 In 0.8862 0.76559 0.4425 0.0
O14 O 0.96034 0.72924 0.43966 0.0
O15 O 0.89825 0.68365 0.44184 0.0
C16 C 0.91309 0.8604 0.44124 0.0
C17 C 0.82667 0.7532 0.42307 0.0
C18 C 0.85958 0.76135 0.4663 0.0
O19 O 0.94328 0.82621 0.43971 0.0
O20 O 0.87017 0.84658 0.44332 0.0
O21 O 0.83016 0.77273 0.45792 0.0
O22 O 0.90209 0.75175 0.46269 0.0
C23 C 0.94373 0.68634 0.44027 0.0
O24 O 0.81392 0.74344 0.43388 0.0
O25 O 0.86968 0.76881 0.42202 0.0
In26 In 0.25992 0.3799 0.69035 0.0
O27 O 0.25983 0.31733 0.67638 0.0
O28 O 0.25487 0.39051 0.66995 0.0
C29 C 0.26614 0.34242 0.71303 0.0
C30 C 0.3516 0.41363 0.68882 0.0
C31 C 0.16833 0.41445 0.69211 0.0
O32 O 0.25424 0.31641 0.70394 0.0
O33 O 0.27541 0.38639 0.7106 0.0
O34 O 0.20413 0.443 0.69055 0.0
O35 O 0.17933 0.36997 0.69272 0.0
C36 C 0.25706 0.34583 0.66728 0.0
O37 O 0.31598 0.44222 0.69065 0.0
O38 O 0.34045 0.36913 0.68792 0.0
In39 In 0.61354 0.75951 0.93906 0.0
O40 O 0.5559 0.82005 0.94054 0.0
O41 O 0.63055 0.84021 0.94056 0.0
C42 C 0.55691 0.67949 0.93737 0.0
C43 C 0.65231 0.7579 0.91634 0.0
C44 C 0.65471 0.74659 0.96127 0.0
O45 O 0.53944 0.72194 0.93835 0.0
O46 O 0.60288 0.67754 0.9372 0.0
O47 O 0.67951 0.75834 0.95199 0.0
O48 O 0.60983 0.74111 0.9593 0.0
C49 C 0.58684 0.8541 0.94092 0.0
O50 O 0.67671 0.74543 0.92564 0.0
O51 O 0.6091 0.77052 0.91859 0.0
In52 In 0.24777 0.39339 0.06933 0.0
O53 O 0.2546 0.32823 0.08247 0.0
O54 O 0.22699 0.39497 0.08938 0.0
C55 C 0.26169 0.34674 0.04785 0.0
C56 C 0.16327 0.44022 0.0643 0.0
C57 C 0.33099 0.44331 0.07344 0.0
O58 O 0.23865 0.32726 0.05658 0.0
O59 O 0.27721 0.38897 0.05003 0.0
O60 O 0.2894 0.46287 0.07379 0.0
O61 O 0.33069 0.39823 0.07121 0.0
C62 C 0.23833 0.3514 0.09157 0.0
O63 O 0.20455 0.45987 0.06318 0.0
O64 O 0.1644 0.39658 0.06787 0.0
In65 In 0.6185 0.74159 0.32133 0.0
O66 O 0.56084 0.68125 0.31935 0.0
O67 O 0.63533 0.66078 0.31971 0.0
C68 C 0.56119 0.82119 0.32237 0.0
C69 C 0.6533 0.74285 0.34444 0.0
C70 C 0.66515 0.7574 0.2999 0.0
O71 O 0.54433 0.77891 0.32059 0.0
O72 O 0.60684 0.82313 0.32372 0.0
O73 O 0.68747 0.74419 0.30944 0.0
O74 O 0.61982 0.76229 0.30118 0.0
C75 C 0.59161 0.64706 0.31912 0.0
O76 O 0.67936 0.75475 0.33539 0.0
O77 O 0.61026 0.73095 0.34178 0.0
In78 In 0.24269 0.12557 0.56719 0.0
O79 O 0.26205 0.19765 0.57639 0.0
O80 O 0.24074 0.13893 0.58784 0.0
C81 C 0.24797 0.15322 0.54345 0.0
C82 C 0.32213 0.06821 0.56912 0.0
C83 C 0.14784 0.09851 0.5682 0.0
O84 O 0.23636 0.18239 0.55187 0.0
O85 O 0.25737 0.1106 0.54699 0.0
O86 O 0.18202 0.06837 0.56978 0.0
O87 O 0.16169 0.14145 0.56619 0.0
C88 C 0.25397 0.18282 0.58713 0.0
O89 O 0.27925 0.05138 0.56951 0.0
O90 O 0.32474 0.11388 0.56794 0.0
In91 In 0.89508 0.73346 0.81964 0.0
O92 O 0.82231 0.75506 0.828 0.0
O93 O 0.87735 0.73003 0.84011 0.0
C94 C 0.87025 0.7387 0.79578 0.0
C95 C 0.95207 0.81317 0.82185 0.0
C96 C 0.9219 0.63852 0.8203 0.0
O97 O 0.83983 0.72796 0.80399 0.0
O98 O 0.91273 0.74699 0.79959 0.0
O99 O 0.95212 0.67252 0.82206 0.0
O100 O 0.8789 0.65258 0.81844 0.0
C101 C 0.83434 0.74545 0.83887 0.0
O102 O 0.96861 0.77045 0.82308 0.0
O103 O 0.90689 0.81545 0.81981 0.0
In104 In 0.76011 0.61755 0.69036 0.0
O105 O 0.71665 0.55158 0.68408 0.0
O106 O 0.67845 0.60588 0.69402 0.0
C107 C 0.84161 0.56198 0.69068 0.0
C108 C 0.74833 0.67818 0.67113 0.0
C109 C 0.77816 0.66452 0.7116 0.0
O110 O 0.80237 0.54946 0.69579 0.0
O111 O 0.83967 0.60224 0.68516 0.0
O112 O 0.79676 0.67683 0.70153 0.0
O113 O 0.74927 0.62885 0.71098 0.0
C114 C 0.67665 0.56543 0.68856 0.0
O115 O 0.73632 0.68941 0.68189 0.0
O116 O 0.76605 0.63603 0.67 0.0
In117 In 0.38059 0.2599 0.94032 0.0
O118 O 0.30634 0.25353 0.93125 0.0
O119 O 0.36848 0.25218 0.91968 0.0
C120 C 0.3491 0.26 0.96378 0.0
C121 C 0.43866 0.18008 0.93999 0.0
C122 C 0.40761 0.35394 0.93744 0.0
O123 O 0.38816 0.28011 0.96046 0.0
O124 O 0.32592 0.23926 0.95531 0.0
O125 O 0.43831 0.31963 0.93771 0.0
O126 O 0.36384 0.34058 0.93847 0.0
C127 C 0.32264 0.25069 0.92049 0.0
O128 O 0.45528 0.2227 0.93884 0.0
O129 O 0.39312 0.17789 0.9412 0.0
In130 In 0.75862 0.86945 0.1923 0.0
O131 O 0.75821 0.79572 0.18287 0.0
O132 O 0.75746 0.85889 0.17157 0.0
C133 C 0.75805 0.84117 0.21597 0.0
C134 C 0.84924 0.90762 0.19024 0.0
C135 C 0.66602 0.9017 0.19036 0.0
O136 O 0.76948 0.81278 0.20737 0.0
O137 O 0.74759 0.88397 0.2127 0.0
O138 O 0.70183 0.9306 0.18926 0.0
O139 O 0.67755 0.85791 0.19228 0.0
C140 C 0.75802 0.81293 0.17215 0.0
O141 O 0.81218 0.93503 0.1908 0.0
O142 O 0.83994 0.86286 0.19093 0.0
In143 In 0.11871 0.26608 0.43877 0.0
O144 O 0.06251 0.32738 0.44042 0.0
O145 O 0.13738 0.34682 0.43951 0.0
C146 C 0.06035 0.18667 0.43896 0.0
C147 C 0.15228 0.2666 0.41554 0.0
C148 C 0.16796 0.24915 0.45976 0.0
O149 O 0.04414 0.22917 0.4407 0.0
O150 O 0.10555 0.18449 0.43707 0.0
O151 O 0.18573 0.2402 0.44935 0.0
O152 O 0.12596 0.26771 0.45956 0.0
C153 C 0.09379 0.36114 0.44021 0.0
O154 O 0.18038 0.26306 0.42465 0.0
O155 O 0.10767 0.26955 0.41819 0.0
In156 In 0.74225 0.89266 0.57041 0.0
O157 O 0.68112 0.94912 0.56894 0.0
O158 O 0.66152 0.87423 0.56922 0.0
C159 C 0.82151 0.9513 0.5704 0.0
C160 C 0.74053 0.85748 0.59345 0.0
C161 C 0.76045 0.843 0.54958 0.0
O162 O 0.77912 0.96724 0.56838 0.0
O163 O 0.82364 0.90628 0.57251 0.0
O164 O 0.76949 0.82585 0.56004 0.0
O165 O 0.74113 0.88466 0.54963 0.0
C166 C 0.6473 0.9179 0.56878 0.0
O167 O 0.74481 0.83014 0.58423 0.0
O168 O 0.73742 0.90227 0.59103 0.0
In169 In 0.12788 0.23285 0.81716 0.0
O170 O 0.07153 0.17136 0.81587 0.0
O171 O 0.14612 0.15199 0.81764 0.0
C172 C 0.07041 0.31285 0.81677 0.0
C173 C 0.15968 0.23629 0.84051 0.0
C174 C 0.17778 0.24657 0.79608 0.0
O175 O 0.05376 0.27044 0.81512 0.0
O176 O 0.11576 0.31472 0.81848 0.0
O177 O 0.19612 0.25455 0.80648 0.0
O178 O 0.13464 0.23078 0.79632 0.0
C179 C 0.1026 0.13762 0.81683 0.0
O180 O 0.18871 0.23696 0.83154 0.0
O181 O 0.11526 0.23406 0.83765 0.0
In182 In 0.74822 0.62406 0.06821 0.0
O183 O 0.75278 0.68535 0.08246 0.0
O184 O 0.76354 0.61208 0.08828 0.0
C185 C 0.73443 0.66647 0.04631 0.0
C186 C 0.8373 0.58679 0.06377 0.0
C187 C 0.65706 0.5908 0.07156 0.0
O188 O 0.75058 0.69004 0.0554 0.0
O189 O 0.72493 0.62223 0.04836 0.0
O190 O 0.69161 0.56219 0.06876 0.0
O191 O 0.669 0.63502 0.07256 0.0
C192 C 0.76094 0.65641 0.09125 0.0
O193 O 0.8015 0.55936 0.06627 0.0
O194 O 0.82757 0.63164 0.06356 0.0
In195 In 0.38583 0.24128 0.31776 0.0
O196 O 0.31221 0.26204 0.32595 0.0
O197 O 0.36878 0.24161 0.33818 0.0
C198 C 0.36309 0.24266 0.2937 0.0
C199 C 0.44204 0.32151 0.31977 0.0
C200 C 0.41293 0.14684 0.31998 0.0
O201 O 0.33189 0.23332 0.30184 0.0
O202 O 0.40516 0.25166 0.29769 0.0
O203 O 0.44306 0.18131 0.32111 0.0
O204 O 0.36993 0.16021 0.31783 0.0
C205 C 0.32515 0.25506 0.33689 0.0
O206 O 0.45902 0.2789 0.32083 0.0
O207 O 0.39671 0.32352 0.31789 0.0
H208 H 0.26773 0.26082 0.09955 0.0
H209 H 0.19766 0.39425 0.11153 0.0
H210 H 0.19027 0.36087 0.13236 0.0
H211 H 0.19584 0.17827 0.11832 0.0
H212 H 0.24644 0.13863 0.12163 0.0
H213 H 0.24495 0.17221 0.10748 0.0
H214 H 0.32916 0.20978 0.11249 0.0
H215 H 0.33088 0.17638 0.12666 0.0
H216 H 0.33757 0.24166 0.12675 0.0
H217 H 0.19181 0.31454 0.15189 0.0
H218 H 0.2028 0.25778 0.16915 0.0
H219 H 0.27245 0.15408 0.14481 0.0
C220 C 0.25057 0.28281 0.10655 0.0
C221 C 0.23317 0.3301 0.10392 0.0
C222 C 0.21123 0.35793 0.11333 0.0
C223 C 0.2068 0.33928 0.12519 0.0
C224 C 0.22452 0.29274 0.12752 0.0
C225 C 0.24597 0.26477 0.11849 0.0
C226 C 0.26292 0.21625 0.12356 0.0
C227 C 0.23592 0.17384 0.11738 0.0
C228 C 0.31843 0.21072 0.12229 0.0
C229 C 0.24794 0.22158 0.13684 0.0
C230 C 0.22567 0.26593 0.13889 0.0
C231 C 0.20907 0.27962 0.15042 0.0
C232 C 0.2155 0.24714 0.16016 0.0
C233 C 0.23843 0.20155 0.15832 0.0
C234 C 0.2547 0.18865 0.14648 0.0
H235 H 0.84624 0.77123 0.39884 0.0
H236 H 0.73201 0.72304 0.42349 0.0
H237 H 0.67558 0.71546 0.40603 0.0
H238 H 0.77002 0.84252 0.37909 0.0
H239 H 0.80197 0.82593 0.3653 0.0
H240 H 0.83379 0.82708 0.3797 0.0
H241 H 0.86027 0.73742 0.37655 0.0
H242 H 0.82865 0.73603 0.36212 0.0
H243 H 0.81464 0.69158 0.37373 0.0
H244 H 0.63137 0.71403 0.38609 0.0
H245 H 0.60222 0.71728 0.36479 0.0
H246 H 0.74496 0.76607 0.35288 0.0
C247 C 0.80938 0.75896 0.40055 0.0
C248 C 0.79345 0.7477 0.41252 0.0
C249 C 0.74498 0.7318 0.4144 0.0
C250 C 0.71265 0.72743 0.40454 0.0
C251 C 0.7294 0.73901 0.39287 0.0
C252 C 0.77662 0.75431 0.39081 0.0
C253 C 0.78527 0.76444 0.37734 0.0
C254 C 0.79854 0.81819 0.37524 0.0
C255 C 0.82453 0.73032 0.37213 0.0
C256 C 0.73545 0.7526 0.37218 0.0
C257 C 0.70384 0.73803 0.38131 0.0
C258 C 0.65578 0.7253 0.37885 0.0
C259 C 0.63957 0.72732 0.36672 0.0
C260 C 0.67131 0.74192 0.35718 0.0
C261 C 0.71987 0.75479 0.35998 0.0
H262 H 0.24658 0.15718 0.61138 0.0
H263 H 0.27031 0.28075 0.58735 0.0
H264 H 0.27395 0.3352 0.60528 0.0
H265 H 0.17056 0.21803 0.6331 0.0
H266 H 0.19578 0.18747 0.64624 0.0
H267 H 0.1958 0.15775 0.63156 0.0
H268 H 0.2892 0.14582 0.63298 0.0
H269 H 0.28946 0.17534 0.64769 0.0
H270 H 0.32783 0.19788 0.63557 0.0
H271 H 0.27173 0.37659 0.62555 0.0
H272 H 0.26825 0.4024 0.64709 0.0
H273 H 0.24861 0.25207 0.65834 0.0
C274 C 0.25275 0.19568 0.60991 0.0
C275 C 0.25808 0.21481 0.59797 0.0
C276 C 0.2662 0.26532 0.59641 0.0
C277 C 0.26824 0.29654 0.60653 0.0
C278 C 0.26247 0.27663 0.61816 0.0
C279 C 0.2553 0.22736 0.61994 0.0
C280 C 0.25038 0.21547 0.63344 0.0
C281 C 0.20014 0.19338 0.63625 0.0
C282 C 0.29169 0.18163 0.63767 0.0
C283 C 0.2555 0.26586 0.63897 0.0
C284 C 0.26225 0.30052 0.62995 0.0
C285 C 0.26677 0.34977 0.63269 0.0
C286 C 0.26458 0.36406 0.64497 0.0
C287 C 0.25825 0.32925 0.6544 0.0
C288 C 0.25372 0.27946 0.65133 0.0
H289 H 0.85121 0.72643 0.86323 0.0
H290 H 0.7404 0.77714 0.83794 0.0
H291 H 0.68241 0.78553 0.85504 0.0
H292 H 0.77129 0.65632 0.88245 0.0
H293 H 0.80207 0.67204 0.89646 0.0
H294 H 0.83541 0.67042 0.88228 0.0
H295 H 0.86344 0.75944 0.8857 0.0
H296 H 0.83027 0.7613 0.89991 0.0
H297 H 0.8185 0.8062 0.88825 0.0
H298 H 0.63628 0.78772 0.8746 0.0
H299 H 0.60455 0.78483 0.89565 0.0
H300 H 0.74474 0.73294 0.90859 0.0
C301 C 0.81477 0.73941 0.86131 0.0
C302 C 0.80027 0.75115 0.84925 0.0
C303 C 0.75229 0.76796 0.8471 0.0
C304 C 0.71908 0.77282 0.85675 0.0
C305 C 0.73441 0.76078 0.8685 0.0
C306 C 0.78107 0.74453 0.87086 0.0
C307 C 0.78799 0.73403 0.88437 0.0
C308 C 0.79988 0.67999 0.88651 0.0
C309 C 0.82738 0.76723 0.88988 0.0
C310 C 0.73786 0.74685 0.88923 0.0
C311 C 0.70762 0.76216 0.87988 0.0
C312 C 0.65959 0.77586 0.882 0.0
C313 C 0.64191 0.77404 0.894 0.0
C314 C 0.67215 0.75866 0.90377 0.0
C315 C 0.72078 0.74483 0.90131 0.0
H316 H 0.75819 0.76426 0.60134 0.0
H317 H 0.71888 0.90865 0.6141 0.0
H318 H 0.71514 0.87795 0.6353 0.0
H319 H 0.68225 0.69667 0.62225 0.0
H320 H 0.7262 0.64878 0.62452 0.0
H321 H 0.72494 0.6818 0.61029 0.0
H322 H 0.816 0.70416 0.61296 0.0
H323 H 0.81756 0.67115 0.62719 0.0
H324 H 0.83557 0.73423 0.62677 0.0
H325 H 0.71496 0.83178 0.65502 0.0
H326 H 0.72171 0.77371 0.67216 0.0
H327 H 0.76335 0.65968 0.64674 0.0
C328 C 0.74868 0.78934 0.6086 0.0
C329 C 0.73868 0.8388 0.6061 0.0
C330 C 0.72669 0.87062 0.61583 0.0
C331 C 0.72438 0.85352 0.62789 0.0
C332 C 0.73441 0.80458 0.63006 0.0
C333 C 0.74658 0.77296 0.62072 0.0
C334 C 0.75672 0.72232 0.62559 0.0
C335 C 0.72035 0.68521 0.62035 0.0
C336 C 0.8096 0.70709 0.62297 0.0
C337 C 0.74835 0.73046 0.63913 0.0
C338 C 0.73522 0.77811 0.64149 0.0
C339 C 0.7253 0.79439 0.65329 0.0
C340 C 0.72916 0.76114 0.66296 0.0
C341 C 0.74312 0.71228 0.66078 0.0
C342 C 0.75271 0.69684 0.64869 0.0
H343 H 0.34865 0.24784 0.8962 0.0
H344 H 0.22355 0.24541 0.92048 0.0
H345 H 0.16878 0.2409 0.90265 0.0
H346 H 0.29466 0.32262 0.87296 0.0
H347 H 0.32267 0.29056 0.86041 0.0
H348 H 0.35241 0.29258 0.87508 0.0
H349 H 0.35577 0.19834 0.87556 0.0
H350 H 0.32613 0.19602 0.86088 0.0
H351 H 0.30035 0.16392 0.87372 0.0
H352 H 0.12755 0.23774 0.88237 0.0
H353 H 0.10203 0.23559 0.86077 0.0
H354 H 0.25348 0.24024 0.84941 0.0
C355 C 0.30974 0.24616 0.89775 0.0
C356 C 0.29031 0.24692 0.90973 0.0
C357 C 0.23921 0.24484 0.91139 0.0
C358 C 0.2078 0.24228 0.90132 0.0
C359 C 0.22806 0.24182 0.88964 0.0
C360 C 0.27779 0.24363 0.88778 0.0
C361 C 0.28992 0.24307 0.87425 0.0
C362 C 0.31648 0.29001 0.87046 0.0
C363 C 0.31981 0.19763 0.87091 0.0
C364 C 0.2392 0.24081 0.86881 0.0
C365 C 0.20413 0.24007 0.87788 0.0
C366 C 0.15464 0.23823 0.87518 0.0
C367 C 0.14054 0.23704 0.86288 0.0
C368 C 0.17576 0.23774 0.85341 0.0
C369 C 0.22575 0.23966 0.85645 0.0
H370 H 0.75389 0.74946 0.10063 0.0
H371 H 0.77571 0.59852 0.11108 0.0
H372 H 0.77762 0.62246 0.13277 0.0
H373 H 0.83277 0.80166 0.12401 0.0
H374 H 0.79399 0.85359 0.12658 0.0
H375 H 0.79544 0.82491 0.11177 0.0
H376 H 0.70191 0.813 0.11266 0.0
H377 H 0.70022 0.84141 0.1275 0.0
H378 H 0.67533 0.78123 0.12546 0.0
H379 H 0.77414 0.66153 0.15329 0.0
H380 H 0.76917 0.71438 0.17149 0.0
H381 H 0.75102 0.84059 0.14802 0.0
C382 C 0.75946 0.72157 0.10748 0.0
C383 C 0.76469 0.67211 0.10415 0.0
C384 C 0.77169 0.63664 0.1134 0.0
C385 C 0.77277 0.64984 0.12576 0.0
C386 C 0.76699 0.69872 0.12876 0.0
C387 C 0.7608 0.73416 0.11992 0.0
C388 C 0.75515 0.78406 0.1257 0.0
C389 C 0.79683 0.81805 0.12178 0.0
C390 C 0.70518 0.80621 0.12265 0.0
C391 C 0.75883 0.77094 0.13914 0.0
C392 C 0.76553 0.72148 0.14068 0.0
C393 C 0.76915 0.70037 0.15222 0.0
C394 C 0.76615 0.73067 0.1625 0.0
C395 C 0.75979 0.78155 0.16117 0.0
C396 C 0.75604 0.80183 0.14932 0.0
H397 H 0.24561 0.25229 0.40721 0.0
H398 H 0.09845 0.28336 0.39502 0.0
H399 H 0.12702 0.28561 0.37362 0.0
H400 H 0.30765 0.32857 0.38526 0.0
H401 H 0.35737 0.28662 0.38307 0.0
H402 H 0.32559 0.28834 0.39748 0.0
H403 H 0.30736 0.19604 0.39572 0.0
H404 H 0.33914 0.19402 0.38132 0.0
H405 H 0.27703 0.17315 0.38228 0.0
H406 H 0.17135 0.28443 0.35356 0.0
H407 H 0.22819 0.27731 0.33612 0.0
H408 H 0.34624 0.24563 0.36129 0.0
C409 C 0.21947 0.2597 0.40003 0.0
C410 C 0.16983 0.26776 0.40277 0.0
C411 C 0.13665 0.27706 0.39313 0.0
C412 C 0.15253 0.27851 0.38095 0.0
C413 C 0.20167 0.27041 0.37855 0.0
C414 C 0.23465 0.26101 0.3878 0.0
C415 C 0.28527 0.25258 0.38271 0.0
C416 C 0.32107 0.29135 0.38741 0.0
C417 C 0.30324 0.20087 0.38568 0.0
C418 C 0.27554 0.25863 0.36916 0.0
C419 C 0.22713 0.26914 0.36696 0.0
C420 C 0.20936 0.27622 0.35516 0.0
C421 C 0.2419 0.27215 0.34532 0.0
C422 C 0.29156 0.26091 0.34735 0.0
C423 C 0.30847 0.25427 0.35945 0.0
H424 H 0.24438 0.13689 0.23272 0.0
H425 H 0.34561 0.22805 0.21258 0.0
H426 H 0.37406 0.26428 0.23193 0.0
H427 H 0.21401 0.22819 0.25632 0.0
H428 H 0.21043 0.18333 0.26832 0.0
H429 H 0.19552 0.16678 0.25281 0.0
H430 H 0.2592 0.09726 0.2536 0.0
H431 H 0.27437 0.11364 0.26908 0.0
H432 H 0.32137 0.11122 0.25758 0.0
H433 H 0.39748 0.28443 0.25335 0.0
H434 H 0.41113 0.29067 0.27563 0.0
H435 H 0.29205 0.19013 0.28206 0.0
C436 C 0.27203 0.16497 0.23239 0.0
C437 C 0.2928 0.1797 0.22116 0.0
C438 C 0.32909 0.21634 0.22108 0.0
C439 C 0.34549 0.23715 0.23202 0.0
C440 C 0.32481 0.22139 0.24295 0.0
C441 C 0.28851 0.18654 0.24324 0.0
C442 C 0.27361 0.17506 0.25628 0.0
C443 C 0.22022 0.1892 0.25856 0.0
C444 C 0.2827 0.1211 0.25931 0.0
C445 C 0.30806 0.208 0.26327 0.0
C446 C 0.33726 0.23438 0.25538 0.0
C447 C 0.37428 0.26466 0.25963 0.0
C448 C 0.38186 0.26787 0.27227 0.0
C449 C 0.35224 0.24137 0.28051 0.0
C450 C 0.31449 0.21157 0.27594 0.0
H451 H 0.78887 0.81549 0.47741 0.0
H452 H 0.90148 0.70864 0.48459 0.0
H453 H 0.88244 0.71211 0.50669 0.0
H454 H 0.81631 0.88906 0.50277 0.0
H455 H 0.75416 0.90607 0.50591 0.0
H456 H 0.77212 0.89043 0.49058 0.0
H457 H 0.70479 0.82438 0.4898 0.0
H458 H 0.68659 0.83984 0.50515 0.0
H459 H 0.70282 0.77799 0.50145 0.0
H460 H 0.85358 0.72988 0.52803 0.0
H461 H 0.82229 0.76577 0.54721 0.0
H462 H 0.7324 0.86513 0.5262 0.0
C463 C 0.80873 0.7921 0.48363 0.0
C464 C 0.84613 0.76126 0.47934 0.0
C465 C 0.87246 0.73224 0.48774 0.0
C466 C 0.86176 0.73383 0.50028 0.0
C467 C 0.82504 0.76508 0.50425 0.0
C468 C 0.79921 0.79403 0.49619 0.0
C469 C 0.7649 0.82789 0.50293 0.0
C470 C 0.77766 0.88152 0.5004 0.0
C471 C 0.71161 0.81684 0.49964 0.0
C472 C 0.77595 0.81396 0.51603 0.0
C473 C 0.81004 0.77701 0.51659 0.0
C474 C 0.82672 0.75867 0.52771 0.0
C475 C 0.80868 0.7792 0.53855 0.0
C476 C 0.77498 0.81817 0.53817 0.0
C477 C 0.75807 0.83527 0.52676 0.0
H478 H 0.20302 0.27805 0.72375 0.0
H479 H 0.32863 0.36901 0.73103 0.0
H480 H 0.32461 0.34703 0.75293 0.0
H481 H 0.13858 0.31438 0.74974 0.0
H482 H 0.11077 0.25613 0.75271 0.0
H483 H 0.12803 0.2723 0.73737 0.0
H484 H 0.1807 0.1943 0.73579 0.0
H485 H 0.16339 0.17773 0.75114 0.0
H486 H 0.22688 0.18274 0.74714 0.0
H487 H 0.30363 0.3202 0.77415 0.0
H488 H 0.26423 0.29456 0.79341 0.0
H489 H 0.1488 0.22523 0.77265 0.0
C490 C 0.23049 0.29201 0.72993 0.0
C491 C 0.26678 0.32436 0.72573 0.0
C492 C 0.30098 0.34366 0.7341 0.0
C493 C 0.29903 0.3313 0.74653 0.0
C494 C 0.2622 0.30012 0.75047 0.0
C495 C 0.22833 0.28091 0.74244 0.0
C496 C 0.18932 0.2527 0.74925 0.0
C497 C 0.1387 0.27524 0.74714 0.0
C498 C 0.19015 0.19866 0.74561 0.0
C499 C 0.20612 0.25973 0.76234 0.0
C500 C 0.2487 0.28646 0.76281 0.0
C501 C 0.27048 0.29892 0.77389 0.0
C502 C 0.24784 0.28419 0.78478 0.0
C503 C 0.20353 0.25788 0.78453 0.0
C504 C 0.18279 0.24512 0.77313 0.0
H505 H 0.66897 0.63995 0.02888 0.0
H506 H 0.78705 0.74066 0.03607 0.0
H507 H 0.78128 0.77135 0.01477 0.0
H508 H 0.69909 0.61031 0.99819 0.0
H509 H 0.6369 0.60895 0.99294 0.0
H510 H 0.65069 0.59498 0.00865 0.0
H511 H 0.5912 0.66235 0.01589 0.0
H512 H 0.57685 0.6762 1.0002 0.0
H513 H 0.59848 0.72357 0.01023 0.0
H514 H 0.76583 0.78627 0.99207 0.0
H515 H 0.73447 0.79263 0.97085 0.0
H516 H 0.62208 0.68717 0.97941 0.0
C517 C 0.69343 0.66865 0.02597 0.0
C518 C 0.72864 0.68787 0.03403 0.0
C519 C 0.75973 0.72569 0.03 0.0
C520 C 0.75688 0.74307 0.01792 0.0
C521 C 0.7221 0.72282 0.01013 0.0
C522 C 0.69028 0.68714 0.01409 0.0
C523 C 0.65499 0.67261 1.00411 0.0
C524 C 0.66079 0.61851 1.00078 0.0
C525 C 0.60226 0.68441 0.00783 0.0
C526 C 0.67222 0.70523 0.99384 0.0
C527 C 0.71144 0.73344 0.9974 0.0
C528 C 0.73476 0.76482 0.98924 0.0
C529 C 0.71695 0.768 0.97722 0.0
C530 C 0.67574 0.74068 0.97359 0.0
C531 C 0.65334 0.70887 0.98201 0.0
H532 H 0.32512 0.37501 0.03014 0.0
H533 H 0.21668 0.26524 0.03862 0.0
H534 H 0.22842 0.22895 0.01805 0.0
H535 H 0.29295 0.39287 0.99913 0.0
H536 H 0.35479 0.40063 0.99396 0.0
H537 H 0.33852 0.41659 0.00939 0.0
H538 H 0.4056 0.35901 0.0177 0.0
H539 H 0.42218 0.34295 1.00228 0.0
H540 H 0.40604 0.29601 0.01307 0.0
H541 H 0.24881 0.20858 0.99587 0.0
H542 H 0.27975 0.20261 0.97462 0.0
H543 H 0.3774 0.32362 0.98149 0.0
C544 C 0.30397 0.34316 0.02771 0.0
C545 C 0.26985 0.32295 0.03592 0.0
C546 C 0.24308 0.28116 0.03244 0.0
C547 C 0.24946 0.26043 0.02078 0.0
C548 C 0.28316 0.28166 0.01285 0.0
C549 C 0.3103 0.32181 0.01624 0.0
C550 C 0.34404 0.33803 0.00609 0.0
C551 C 0.33182 0.3901 1.0019 0.0
C552 C 0.39764 0.33372 0.01002 0.0
C553 C 0.33139 0.30107 0.99637 0.0
C554 C 0.296 0.26898 1.00037 0.0
C555 C 0.27694 0.23314 0.99271 0.0
C556 C 0.2946 0.23009 0.98067 0.0
C557 C 0.33124 0.26234 0.97649 0.0
C558 C 0.34991 0.29799 0.9845 0.0
H559 H 0.63624 0.81913 0.28181 0.0
H560 H 0.74894 0.71544 0.29141 0.0
H561 H 0.78676 0.72678 0.27101 0.0
H562 H 0.62288 0.7868 0.25067 0.0
H563 H 0.61488 0.84835 0.24533 0.0
H564 H 0.59734 0.83231 0.26067 0.0
H565 H 0.65298 0.90038 0.26927 0.0
H566 H 0.67061 0.91676 0.25394 0.0
H567 H 0.71649 0.90161 0.26509 0.0
H568 H 0.80721 0.74412 0.24879 0.0
H569 H 0.81439 0.77309 0.22738 0.0
H570 H 0.69319 0.87141 0.23323 0.0
C571 C 0.66903 0.79901 0.27962 0.0
C572 C 0.68962 0.76614 0.28809 0.0
C573 C 0.73277 0.74083 0.28501 0.0
C574 C 0.75434 0.74695 0.27345 0.0
C575 C 0.73284 0.77935 0.26524 0.0
C576 C 0.69165 0.80563 0.26828 0.0
C577 C 0.67617 0.83884 0.25793 0.0
C578 C 0.62478 0.82577 0.25339 0.0
C579 C 0.67927 0.89258 0.26179 0.0
C580 C 0.7145 0.82649 0.24848 0.0
C581 C 0.74656 0.79169 0.25281 0.0
C582 C 0.78292 0.77204 0.24539 0.0
C583 C 0.78666 0.78853 0.23326 0.0
C584 C 0.75488 0.82495 0.2288 0.0
C585 C 0.71865 0.84433 0.23654 0.0
H586 H 0.14323 0.27627 0.48306 0.0
H587 H 0.24731 0.19015 0.46248 0.0
H588 H 0.28306 0.16031 0.48182 0.0
H589 H 0.22723 0.30934 0.50815 0.0
H590 H 0.18 0.30566 0.51956 0.0
H591 H 0.16505 0.32291 0.50411 0.0
H592 H 0.10182 0.25301 0.50305 0.0
H593 H 0.11671 0.23541 0.51846 0.0
H594 H 0.12093 0.19151 0.50625 0.0
H595 H 0.30065 0.13234 0.50325 0.0
H596 H 0.30346 0.11356 0.52538 0.0
H597 H 0.19192 0.22199 0.53211 0.0
C598 C 0.17408 0.25177 0.48263 0.0
C599 C 0.19256 0.2355 0.47128 0.0
C600 C 0.23279 0.20327 0.47108 0.0
C601 C 0.25327 0.18608 0.48202 0.0
C602 C 0.23361 0.2021 0.49306 0.0
C603 C 0.1954 0.23482 0.49346 0.0
C604 C 0.1801 0.24521 0.50652 0.0
C605 C 0.18862 0.29898 0.50977 0.0
C606 C 0.12674 0.23038 0.50869 0.0
C607 C 0.21482 0.21227 0.5134 0.0
C608 C 0.24529 0.18759 0.50546 0.0
C609 C 0.27773 0.15218 0.50958 0.0
C610 C 0.27897 0.14165 0.52213 0.0
C611 C 0.24848 0.1669 0.53041 0.0
C612 C 0.21646 0.20304 0.52599 0.0
H613 H 0.74419 0.64412 0.73469 0.0
H614 H 0.84481 0.7368 0.71479 0.0
H615 H 0.87474 0.77064 0.73427 0.0
H616 H 0.71668 0.7326 0.75936 0.0
H617 H 0.71387 0.68583 0.77091 0.0
H618 H 0.69711 0.67201 0.75536 0.0
H619 H 0.76001 0.60172 0.75502 0.0
H620 H 0.77711 0.61543 0.77052 0.0
H621 H 0.82276 0.61438 0.75867 0.0
H622 H 0.90046 0.78726 0.75569 0.0
H623 H 0.9169 0.7893 0.7779 0.0
H624 H 0.79729 0.68917 0.78411 0.0
C625 C 0.77186 0.6722 0.73444 0.0
C626 C 0.79215 0.68792 0.72324 0.0
C627 C 0.82863 0.72436 0.72327 0.0
C628 C 0.84587 0.74383 0.73428 0.0
C629 C 0.82584 0.7269 0.74518 0.0
C630 C 0.78925 0.69235 0.74537 0.0
C631 C 0.77563 0.67888 0.75837 0.0
C632 C 0.72267 0.6932 0.76116 0.0
C633 C 0.78442 0.62438 0.76078 0.0
C634 C 0.8112 0.71029 0.76544 0.0
C635 C 0.83977 0.73773 0.75763 0.0
C636 C 0.87774 0.76671 0.76192 0.0
C637 C 0.88692 0.7675 0.77452 0.0
C638 C 0.85797 0.73988 0.78267 0.0
C639 C 0.81926 0.71144 0.77808 0.0
H640 H 0.08125 0.08674 0.19323 0.0
H641 H 0.16594 0.96444 0.17978 0.0
H642 H 0.0915 0.91466 0.17876 0.0
H643 H 0.99847 0.01778 0.21193 0.0
H644 H 0.9458 0.05417 0.20829 0.0
H645 H 0.00561 0.08106 0.20792 0.0
H646 H 0.99142 0.10826 0.18553 0.0
H647 H 0.93156 0.0814 0.18583 0.0
H648 H 0.97461 0.06362 0.17421 0.0
H649 H 0.01028 0.87711 0.17981 0.0
H650 H 0.92469 0.85334 0.18227 0.0
H651 H 0.88885 0.99964 0.19435 0.0
C652 C 0.08399 0.04949 0.19007 0.0
C653 C 0.12948 0.02939 0.1866 0.0
C654 C 0.13159 0.98063 0.18246 0.0
C655 C 0.08948 0.95203 0.18185 0.0
C656 C 0.04533 0.97278 0.18531 0.0
C657 C 0.04199 0.02039 0.18928 0.0
C658 C 0.98954 0.03334 0.19238 0.0
C659 C 0.98458 0.04741 0.20594 0.0
C660 C 0.97067 0.07408 0.18399 0.0
C661 C 0.96421 0.98531 0.1897 0.0
C662 C 0.99742 0.95108 0.18565 0.0
C663 C 0.98383 0.90361 0.18289 0.0
C664 C 0.93504 0.89048 0.18436 0.0
C665 C 0.89998 0.92463 0.18847 0.0
C666 C 0.91474 0.97291 0.19108 0.0
H667 H 1.00239 0.4014 0.44181 0.0
H668 H 0.15542 0.43898 0.43876 0.0
H669 H 0.1338 0.52623 0.43824 0.0
H670 H 0.95728 0.49397 0.42166 0.0
H671 H 0.90335 0.50587 0.43057 0.0
H672 H 0.93083 0.44635 0.43086 0.0
H673 H 0.93767 0.4509 0.45447 0.0
H674 H 0.91001 0.51034 0.45426 0.0
H675 H 0.96851 0.50181 0.46141 0.0
H676 H 0.09538 0.60956 0.43775 0.0
H677 H 0.04299 0.6828 0.43796 0.0
H678 H 0.9152 0.59086 0.44143 0.0
C679 C 0.03135 0.428 0.44108 0.0
C680 C 0.08061 0.4134 0.44033 0.0
C681 C 0.11744 0.44933 0.43937 0.0
C682 C 0.10552 0.49898 0.43904 0.0
C683 C 0.05661 0.51216 0.43971 0.0
C684 C 0.02011 0.47775 0.44076 0.0
C685 C 0.97041 0.5016 0.44136 0.0
C686 C 0.93861 0.48602 0.43046 0.0
C687 C 0.94518 0.4905 0.4536 0.0
C688 C 0.98466 0.55477 0.44044 0.0
C689 C 0.03454 0.5601 0.43948 0.0
C690 C 0.05627 0.60583 0.43851 0.0
C691 C 0.02624 0.6472 0.43862 0.0
C692 C 0.97507 0.64255 0.4397 0.0
C693 C 0.9542 0.59562 0.44058 0.0
H694 H 0.39167 0.50332 0.69463 0.0
H695 H 0.42743 0.36018 0.68037 0.0
H696 H 0.51336 0.38431 0.67851 0.0
H697 H 0.47653 0.57167 0.67569 0.0
H698 H 0.49285 0.61375 0.68766 0.0
H699 H 0.43332 0.58615 0.68756 0.0
H700 H 0.4476 0.55374 0.70952 0.0
H701 H 0.50717 0.58117 0.70967 0.0
H702 H 0.50052 0.51698 0.71266 0.0
H703 H 0.59493 0.42269 0.67813 0.0
H704 H 0.66888 0.47304 0.67983 0.0
H705 H 0.58283 0.59128 0.69492 0.0
C706 C 0.41762 0.47728 0.69105 0.0
C707 C 0.40279 0.42988 0.68761 0.0
C708 C 0.43788 0.39664 0.68308 0.0
C709 C 0.48683 0.41001 0.68196 0.0
C710 C 0.50039 0.45673 0.68547 0.0
C711 C 0.46704 0.48991 0.68997 0.0
C712 C 0.492 0.53736 0.69338 0.0
C713 C 0.47251 0.57973 0.68561 0.0
C714 C 0.48649 0.54791 0.70712 0.0
C715 C 0.54443 0.52543 0.69011 0.0
C716 C 0.54819 0.47878 0.68549 0.0
C717 C 0.59254 0.45929 0.68174 0.0
C718 C 0.63435 0.4882 0.68274 0.0
C719 C 0.63167 0.53601 0.68753 0.0
C720 C 0.58601 0.55479 0.69127 0.0
H721 H 0.40924 0.08486 0.94079 0.0
H722 H 0.53826 0.17596 0.93942 0.0
H723 H 0.5901 0.10235 0.93993 0.0
H724 H 0.45696 0.99408 0.96126 0.0
H725 H 0.42733 0.94402 0.95363 0.0
H726 H 0.40041 0.0038 0.95325 0.0
H727 H 0.39934 1.00128 0.92956 0.0
H728 H 0.42611 0.94144 0.92987 0.0
H729 H 0.45513 0.98962 0.92137 0.0
H730 H 0.62769 0.01899 0.94068 0.0
H731 H 0.64873 0.93169 0.94094 0.0
H732 H 0.49511 0.89456 0.94155 0.0
C733 C 0.44841 0.08934 0.9406 0.0
C734 C 0.4698 0.13613 0.94009 0.0
C735 C 0.52115 0.14046 0.93981 0.0
C736 C 0.55085 0.09889 0.94012 0.0
C737 C 0.52859 0.0533 0.94066 0.0
C738 C 0.47855 0.04826 0.94085 0.0
C739 C 0.4638 0.99508 0.94127 0.0
C740 C 0.43546 0.98359 0.95305 0.0
C741 C 0.43436 0.98104 0.92983 0.0
C742 C 0.51339 0.97094 0.94129 0.0
C743 C 0.55025 0.00522 0.94098 0.0
C744 C 0.59914 0.99184 0.94092 0.0
C745 C 0.61071 0.94213 0.94108 0.0
C746 C 0.57357 0.90631 0.94127 0.0
C747 C 0.52428 0.92108 0.94143 0.0
H748 H 0.06946 0.41144 0.06957 0.0
H749 H 0.1538 0.5299 0.054 0.0
H750 H 0.07846 0.57714 0.05095 0.0
H751 H 0.96194 0.42541 0.0498 0.0
H752 H 0.91959 0.4119 0.06194 0.0
H753 H 0.97966 0.38547 0.06211 0.0
H754 H 0.99458 0.42125 0.0837 0.0
H755 H 0.93464 0.44778 0.0836 0.0
H756 H 0.9872 0.48573 0.08615 0.0
H757 H 0.99613 0.61352 0.05069 0.0
H758 H 0.91067 0.63803 0.05338 0.0
H759 H 0.87748 0.49676 0.06913 0.0
C760 C 0.0719 0.44704 0.06536 0.0
C761 C 0.11747 0.46697 0.06196 0.0
C762 C 0.11932 0.51392 0.05664 0.0
C763 C 0.07671 0.54097 0.05485 0.0
C764 C 0.03247 0.5206 0.0584 0.0
C765 C 0.02958 0.47474 0.06354 0.0
C766 C 0.97748 0.46265 0.06711 0.0
C767 C 0.95856 0.41875 0.0598 0.0
C768 C 0.97325 0.45384 0.08096 0.0
C769 C 0.95177 0.50921 0.06334 0.0
C770 C 0.98434 0.54188 0.05827 0.0
C771 C 0.97017 0.58815 0.05454 0.0
C772 C 0.92151 0.60174 0.05614 0.0
C773 C 0.88738 0.56925 0.06143 0.0
C774 C 0.90264 0.5221 0.06493 0.0
H775 H 0.49975 0.60704 0.31777 0.0
H776 H 0.65293 0.56916 0.32005 0.0
H777 H 0.63131 0.48205 0.32066 0.0
H778 H 0.456 0.51443 0.33807 0.0
H779 H 0.40148 0.50229 0.32942 0.0
H780 H 0.42879 0.56188 0.32895 0.0
H781 H 0.43403 0.55705 0.30532 0.0
H782 H 0.40648 0.49756 0.30571 0.0
H783 H 0.46445 0.50609 0.29828 0.0
H784 H 0.59326 0.39912 0.32156 0.0
H785 H 0.54122 0.32571 0.32173 0.0
H786 H 0.41278 0.41694 0.31858 0.0
C787 C 0.52871 0.58037 0.31833 0.0
C788 C 0.57804 0.5949 0.31886 0.0
C789 C 0.61489 0.55891 0.31961 0.0
C790 C 0.60299 0.50931 0.31998 0.0
C791 C 0.55405 0.49618 0.31956 0.0
C792 C 0.51747 0.53058 0.31866 0.0
C793 C 0.46776 0.50658 0.31832 0.0
C794 C 0.43669 0.52223 0.32935 0.0
C795 C 0.44166 0.51747 0.30619 0.0
C796 C 0.48217 0.45341 0.31921 0.0
C797 C 0.53211 0.44824 0.31996 0.0
C798 C 0.55409 0.40267 0.32095 0.0
C799 C 0.52425 0.3612 0.32107 0.0
C800 C 0.47301 0.36559 0.32016 0.0
C801 C 0.45185 0.4124 0.31927 0.0
H802 H 0.60724 0.00952 0.56784 0.0
H803 H 0.5693 0.85626 0.56942 0.0
H804 H 0.48204 0.87793 0.56987 0.0
H805 H 0.51376 0.0519 0.5881 0.0
H806 H 0.50232 0.10706 0.57964 0.0
H807 H 0.56184 0.07957 0.57927 0.0
H808 H 0.55835 0.07606 0.55561 0.0
H809 H 0.49892 0.10375 0.5559 0.0
H810 H 0.50771 0.0463 0.54825 0.0
H811 H 0.39879 0.91634 0.57048 0.0
H812 H 0.3256 0.96876 0.57056 0.0
H813 H 0.41773 0.09688 0.56846 0.0
C814 C 0.58056 0.98053 0.56823 0.0
C815 C 0.59506 0.93118 0.56859 0.0
C816 C 0.55904 0.89431 0.56911 0.0
C817 C 0.50938 0.90625 0.56939 0.0
C818 C 0.49629 0.95524 0.56912 0.0
C819 C 0.5308 0.9918 0.56849 0.0
C820 C 0.50701 0.04158 0.56828 0.0
C821 C 0.52214 0.07179 0.57949 0.0
C822 C 0.51869 0.0685 0.55629 0.0
C823 C 0.45377 0.02729 0.56891 0.0
C824 C 0.44836 0.97733 0.56942 0.0
C825 C 0.40258 0.95552 0.57007 0.0
C826 C 0.36123 0.98557 0.57013 0.0
C827 C 0.36595 0.03685 0.56952 0.0
C828 C 0.41293 0.05779 0.56895 0.0
H829 H 0.01114 0.09708 0.81562 0.0
H830 H 0.16392 0.06029 0.81982 0.0
H831 H 0.14208 0.9735 0.82194 0.0
H832 H 0.96489 0.01078 0.83735 0.0
H833 H 0.91136 0.99626 0.82854 0.0
H834 H 0.93893 0.05553 0.8272 0.0
H835 H 0.94691 0.04396 0.80377 0.0
H836 H 0.9191 0.98479 0.80502 0.0
H837 H 0.97795 0.99107 0.79789 0.0
H838 H 0.10352 0.8906 0.8239 0.0
H839 H 0.05108 0.81744 0.82473 0.0
H840 H 0.92363 0.90819 0.81918 0.0
C841 C 0.04 0.07073 0.81693 0.0
C842 C 0.08925 0.08545 0.81754 0.0
C843 C 0.12594 0.04986 0.81929 0.0
C844 C 0.11391 1.00046 0.82053 0.0
C845 C 0.065 0.98718 0.81999 0.0
C846 C 0.02863 0.02122 0.81817 0.0
C847 C 0.97892 0.99728 0.81789 0.0
C848 C 0.94663 0.01609 0.82837 0.0
C849 C 0.95429 0.00471 0.8054 0.0
C850 C 0.99303 0.94451 0.81985 0.0
C851 C 0.04283 0.93945 0.82108 0.0
C852 C 0.06445 0.89411 0.82294 0.0
C853 C 0.0344 0.85279 0.82343 0.0
C854 C 0.98332 0.8571 0.82204 0.0
C855 C 0.96255 0.9037 0.82031 0.0
H856 H 0.62718 0.99339 0.1858 0.0
H857 H 0.58734 0.84368 0.19378 0.0
H858 H 0.50079 0.86618 0.1935 0.0
H859 H 0.53415 0.04929 0.2042 0.0
H860 H 0.52219 0.09822 0.19364 0.0
H861 H 0.58169 0.07072 0.19418 0.0
H862 H 0.57665 0.05201 0.171 0.0
H863 H 0.51711 0.07949 0.17039 0.0
H864 H 0.52564 0.01785 0.16516 0.0
H865 H 0.41904 0.90408 0.1932 0.0
H866 H 0.34572 0.95579 0.19229 0.0
H867 H 0.43593 0.08125 0.18393 0.0
C868 C 0.60017 0.96542 0.18743 0.0
C869 C 0.61418 0.91674 0.18981 0.0
C870 C 0.57769 0.88119 0.19192 0.0
C871 C 0.52829 0.89356 0.19178 0.0
C872 C 0.51563 0.94168 0.18947 0.0
C873 C 0.55028 0.97714 0.18727 0.0
C874 C 0.52621 0.02621 0.18511 0.0
C875 C 0.54201 0.06329 0.19487 0.0
C876 C 0.53705 0.04498 0.17214 0.0
C877 C 0.47286 0.01262 0.18653 0.0
C878 C 0.46779 0.96364 0.18907 0.0
C879 C 0.42243 0.94246 0.19113 0.0
C880 C 0.381 0.97214 0.19062 0.0
C881 C 0.38506 0.02241 0.18798 0.0
C882 C 0.43167 0.0428 0.18585 0.0
H883 H 0.0038 0.90108 0.43774 0.0
H884 H 0.85201 0.93778 0.44389 0.0
H885 H 0.87284 0.02507 0.44363 0.0
H886 H 0.054 0.99502 0.45669 0.0
H887 H 0.10496 0.0071 0.44675 0.0
H888 H 0.07807 0.94732 0.44711 0.0
H889 H 0.06418 0.95106 0.42369 0.0
H890 H 0.09108 0.01086 0.42325 0.0
H891 H 0.0307 1.00136 0.41725 0.0
H892 H 0.91008 0.10845 0.44312 0.0
H893 H 0.96163 0.18221 0.44228 0.0
H894 H 0.08907 0.0917 0.43643 0.0
C895 C 0.97497 0.92752 0.43897 0.0
C896 C 0.92627 0.91262 0.44082 0.0
C897 C 0.88958 0.94832 0.44245 0.0
C898 C 0.90102 0.99804 0.44232 0.0
C899 C 0.94934 0.01157 0.44053 0.0
C900 C 0.98576 0.97743 0.43887 0.0
C901 C 0.03487 1.00182 0.43729 0.0
C902 C 0.07004 0.98693 0.44757 0.0
C903 C 0.05646 0.99061 0.42462 0.0
C904 C 0.02032 0.05488 0.43836 0.0
C905 C 0.97081 0.05971 0.44022 0.0
C906 C 0.94891 0.10516 0.44163 0.0
C907 C 0.97843 0.14683 0.44115 0.0
C908 C 0.02926 0.14271 0.43927 0.0
C909 C 0.05028 0.09605 0.43783 0.0
H910 H 0.12759 0.50354 0.68593 0.0
H911 H 0.09287 0.36069 0.70055 0.0
H912 H 0.00637 0.38324 0.7017 0.0
H913 H 0.03914 0.57134 0.70403 0.0
H914 H 0.02352 0.6124 0.69179 0.0
H915 H 0.08351 0.58598 0.69244 0.0
H916 H 0.07243 0.55215 0.6705 0.0
H917 H 0.01232 0.57827 0.66981 0.0
H918 H 0.02068 0.51407 0.66711 0.0
H919 H 0.92404 0.41986 0.70128 0.0
H920 H 0.84951 0.46919 0.69916 0.0
H921 H 0.93507 0.58813 0.68424 0.0
C922 C 0.10175 0.47729 0.68947 0.0
C923 C 0.11701 0.43038 0.69318 0.0
C924 C 0.08207 0.3968 0.69763 0.0
C925 C 0.03278 0.40924 0.69834 0.0
C926 C 0.01874 0.45539 0.6945 0.0
C927 C 0.05197 0.489 0.69014 0.0
C928 C 0.02649 0.53572 0.68637 0.0
C929 C 0.04423 0.57891 0.69412 0.0
C930 C 0.0334 0.54561 0.67263 0.0
C931 C 0.97396 0.52289 0.68929 0.0
C932 C 0.97053 0.4764 0.69402 0.0
C933 C 0.92615 0.45632 0.69757 0.0
C934 C 0.88402 0.4846 0.69633 0.0
C935 C 0.88646 0.53235 0.6915 0.0
C936 C 0.93207 0.55158 0.68788 0.0
H937 H 0.49969 0.39377 0.93725 0.0
H938 H 0.34639 0.43167 0.93559 0.0
H939 H 0.36801 0.51878 0.93486 0.0
H940 H 0.53552 0.49171 0.95672 0.0
H941 H 0.59325 0.50164 0.94928 0.0
H942 H 0.56602 0.44201 0.94915 0.0
H943 H 0.57026 0.44057 0.92548 0.0
H944 H 0.59765 0.50017 0.92554 0.0
H945 H 0.54289 0.48939 0.91686 0.0
H946 H 0.40582 0.60186 0.93506 0.0
H947 H 0.45762 0.67534 0.93591 0.0
H948 H 0.58646 0.584 0.93733 0.0
C949 C 0.47073 0.42041 0.93662 0.0
C950 C 0.42134 0.40592 0.93645 0.0
C951 C 0.38448 0.4419 0.93572 0.0
C952 C 0.39638 0.4915 0.93529 0.0
C953 C 0.44534 0.50463 0.93559 0.0
C954 C 0.48198 0.4702 0.9362 0.0
C955 C 0.53166 0.49424 0.93669 0.0
C956 C 0.55816 0.48165 0.94867 0.0
C957 C 0.56242 0.48026 0.92547 0.0
C958 C 0.51715 0.54748 0.93632 0.0
C959 C 0.46718 0.55264 0.93568 0.0
C960 C 0.44502 0.59829 0.9355 0.0
C961 C 0.47472 0.63981 0.936 0.0
C962 C 0.52602 0.63542 0.93665 0.0
C963 C 0.54736 0.58855 0.93677 0.0
H964 H 0.61644 0.4998 0.06769 0.0
H965 H 0.58216 0.64665 0.07962 0.0
H966 H 0.49632 0.62347 0.08226 0.0
H967 H 0.50761 0.48143 0.05046 0.0
H968 H 0.50063 0.41829 0.05459 0.0
H969 H 0.56035 0.4453 0.0542 0.0
H970 H 0.57475 0.41915 0.07667 0.0
H971 H 0.51502 0.39203 0.07713 0.0
H972 H 0.53184 0.4373 0.08829 0.0
H973 H 0.41396 0.58659 0.08275 0.0
H974 H 0.33918 0.53728 0.0811 0.0
H975 H 0.4251 0.41357 0.06907 0.0
C976 C 0.59089 0.52685 0.07097 0.0
C977 C 0.60607 0.57503 0.07347 0.0
C978 C 0.57146 0.60953 0.07764 0.0
C979 C 0.52256 0.59673 0.0792 0.0
C980 C 0.50863 0.5492 0.07657 0.0
C981 C 0.5416 0.51467 0.07257 0.0
C982 C 0.51632 0.46656 0.07005 0.0
C983 C 0.52154 0.45206 0.05652 0.0
C984 C 0.53564 0.42639 0.07855 0.0
C985 C 0.46407 0.47978 0.07315 0.0
C986 C 0.46063 0.52763 0.07692 0.0
C987 C 0.41615 0.54893 0.0799 0.0
C988 C 0.37388 0.52067 0.07892 0.0
C989 C 0.37635 0.4716 0.07502 0.0
C990 C 0.42217 0.45086 0.0722 0.0
H991 H 0.50432 0.10687 0.32285 0.0
H992 H 0.35161 0.0691 0.31896 0.0
H993 H 0.37273 0.98194 0.31976 0.0
H994 H 0.55062 0.01097 0.30405 0.0
H995 H 0.60372 1.00007 0.31334 0.0
H996 H 0.57661 0.05974 0.31295 0.0
H997 H 0.56786 0.05851 0.33654 0.0
H998 H 0.595 0.99882 0.33701 0.0
H999 H 0.536 0.00886 0.34378 0.0
H1000 H 0.4102 0.89896 0.32033 0.0
H1001 H 0.46198 0.82542 0.32069 0.0
H1002 H 0.59043 0.91643 0.32425 0.0
C1003 C 0.47535 0.08023 0.32225 0.0
C1004 C 0.4263 0.09478 0.32086 0.0
C1005 C 0.38944 0.05882 0.32003 0.0
C1006 C 0.40104 0.00919 0.32049 0.0
C1007 C 0.4497 0.996 0.32179 0.0
C1008 C 0.48631 0.03038 0.32267 0.0
C1009 C 0.53579 0.00625 0.32373 0.0
C1010 C 0.56861 0.02008 0.31287 0.0
C1011 C 0.56008 0.01886 0.336 0.0
C1012 C 0.52121 0.95304 0.32323 0.0
C1013 C 0.47136 0.94798 0.32213 0.0
C1014 C 0.44928 0.90242 0.32125 0.0
C1015 C 0.47897 0.86088 0.32145 0.0
C1016 C 0.53015 0.86519 0.32253 0.0
C1017 C 0.55137 0.91196 0.32349 0.0
H1018 H 0.91642 0.9227 0.57313 0.0
H1019 H 0.826 0.04989 0.5669 0.0
H1020 H 0.89979 0.10139 0.56602 0.0
H1021 H 0.00631 0.98154 0.59223 0.0
H1022 H 0.0566 0.94765 0.58592 0.0
H1023 H 0.99667 0.92104 0.58631 0.0
H1024 H 1.00061 0.90637 0.56292 0.0
H1025 H 0.06052 0.93296 0.56246 0.0
H1026 H 0.01287 0.95686 0.55285 0.0
H1027 H 0.98318 0.13862 0.56551 0.0
H1028 H 0.0705 0.15945 0.56531 0.0
H1029 H 0.1071 0.00789 0.57179 0.0
C1030 C 0.91211 0.96144 0.57164 0.0
C1031 C 0.86546 0.9824 0.57011 0.0
C1032 C 0.86137 0.03314 0.56811 0.0
C1033 C 0.90305 0.06264 0.5676 0.0
C1034 C 0.94849 0.04078 0.5691 0.0
C1035 C 0.9533 0.99136 0.57108 0.0
C1036 C 0.0064 0.97686 0.5722 0.0
C1037 C 0.01711 0.95552 0.58493 0.0
C1038 C 0.02094 0.94116 0.562 0.0
C1039 C 0.03077 0.02588 0.57052 0.0
C1040 C 0.99665 0.06224 0.56877 0.0
C1041 C 0.01021 0.11049 0.5669 0.0
C1042 C 0.05993 0.12193 0.56679 0.0
C1043 C 0.09561 0.0853 0.56854 0.0
C1044 C 0.08068 0.03667 0.57045 0.0
H1045 H 0.01314 0.59757 0.82256 0.0
H1046 H 0.86076 0.56149 0.81716 0.0
H1047 H 0.88203 0.47447 0.81578 0.0
H1048 H 0.06115 0.50937 0.80166 0.0
H1049 H 0.11349 0.49489 0.81091 0.0
H1050 H 0.08635 0.55446 0.81183 0.0
H1051 H 0.0756 0.54426 0.83524 0.0
H1052 H 0.10288 0.48471 0.8344 0.0
H1053 H 0.04331 0.49204 0.84107 0.0
H1054 H 0.9197 0.39143 0.81454 0.0
H1055 H 0.97151 0.31784 0.81391 0.0
H1056 H 0.09935 0.40744 0.82009 0.0
C1057 C 0.98427 0.5713 0.82117 0.0
C1058 C 0.93528 0.58632 0.81999 0.0
C1059 C 0.89855 0.55085 0.81811 0.0
C1060 C 0.91024 0.5013 0.8173 0.0
C1061 C 0.95886 0.48767 0.8184 0.0
C1062 C 0.99532 0.52154 0.82033 0.0
C1063 C 0.04473 0.49712 0.82105 0.0
C1064 C 0.07841 0.51503 0.81075 0.0
C1065 C 0.06798 0.505 0.83369 0.0
C1066 C 0.0303 0.44435 0.81919 0.0
C1067 C 0.9806 0.43971 0.81768 0.0
C1068 C 0.95869 0.39457 0.81573 0.0
C1069 C 0.98838 0.353 0.81537 0.0
C1070 C 0.03939 0.35689 0.81695 0.0
C1071 C 0.06045 0.40328 0.81886 0.0
loop_
_geom_bond_atom_site_label_1
_geom_bond_atom_site_label_2
_geom_bond_distance
_geom_bond_site_symmetry_2
_ccdc_geom_bond_type
In0 O1 2.294 . S
In0 O2 2.326 . S
In0 O6 2.266 . S
In0 O7 2.326 . S
In0 O8 2.266 . S
In0 O9 2.326 . S
In0 O11 2.294 . S
In0 O12 2.326 . S
O1 In0 2.294 . S
O1 C10 1.240 . S
O2 In0 2.326 . S
O2 C10 1.252 . S
C3 O6 1.252 . S
C3 O7 1.260 . S
C4 O11 1.240 . S
C4 O12 1.252 . S
C5 O8 1.252 . S
C5 O9 1.260 . S
O6 In0 2.266 . S
O6 C3 1.252 . S
O7 In0 2.326 . S
O7 C3 1.260 . S
O8 In0 2.266 . S
O8 C5 1.252 . S
O9 In0 2.326 . S
O9 C5 1.260 . S
C10 O1 1.240 . S
C10 O2 1.252 . S
O11 In0 2.294 . S
O11 C4 1.240 . S
O12 In0 2.326 . S
O12 C4 1.252 . S
In13 O14 2.294 . S
In13 O15 2.326 . S
In13 O19 2.266 . S
In13 O20 2.326 . S
In13 O21 2.266 . S
In13 O22 2.326 . S
In13 O24 2.294 . S
In13 O25 2.326 . S
O14 In13 2.294 . S
O14 C23 1.240 . S
O15 In13 2.326 . S
O15 C23 1.252 . S
C16 O19 1.252 . S
C16 O20 1.260 . S
C17 O24 1.240 . S
C17 O25 1.252 . S
C18 O21 1.252 . S
C18 O22 1.260 . S
O19 In13 2.266 . S
O19 C16 1.252 . S
O20 In13 2.326 . S
O20 C16 1.260 . S
O21 In13 2.266 . S
O21 C18 1.252 . S
O22 In13 2.326 . S
O22 C18 1.260 . S
C23 O14 1.240 . S
C23 O15 1.252 . S
O24 In13 2.294 . S
O24 C17 1.240 . S
O25 In13 2.326 . S
O25 C17 1.252 . S
In26 O27 2.294 . S
In26 O28 2.326 . S
In26 O32 2.266 . S
In26 O33 2.326 . S
In26 O34 2.266 . S
In26 O35 2.326 . S
In26 O37 2.294 . S
In26 O38 2.326 . S
O27 In26 2.294 . S
O27 C36 1.240 . S
O28 In26 2.326 . S
O28 C36 1.252 . S
C29 O32 1.252 . S
C29 O33 1.260 . S
C30 O37 1.240 . S
C30 O38 1.252 . S
C31 O34 1.252 . S
C31 O35 1.260 . S
O32 In26 2.266 . S
O32 C29 1.252 . S
O33 In26 2.326 . S
O33 C29 1.260 . S
O34 In26 2.266 . S
O34 C31 1.252 . S
O35 In26 2.326 . S
O35 C31 1.260 . S
C36 O27 1.240 . S
C36 O28 1.252 . S
O37 In26 2.294 . S
O37 C30 1.240 . S
O38 In26 2.326 . S
O38 C30 1.252 . S
In39 O40 2.294 . S
In39 O41 2.326 . S
In39 O45 2.266 . S
In39 O46 2.326 . S
In39 O47 2.266 . S
In39 O48 2.326 . S
In39 O50 2.294 . S
In39 O51 2.326 . S
O40 In39 2.294 . S
O40 C49 1.240 . S
O41 In39 2.326 . S
O41 C49 1.252 . S
C42 O45 1.252 . S
C42 O46 1.260 . S
C43 O50 1.240 . S
C43 O51 1.252 . S
C44 O47 1.252 . S
C44 O48 1.260 . S
O45 In39 2.266 . S
O45 C42 1.252 . S
O46 In39 2.326 . S
O46 C42 1.260 . S
O47 In39 2.266 . S
O47 C44 1.252 . S
O48 In39 2.326 . S
O48 C44 1.260 . S
C49 O40 1.240 . S
C49 O41 1.252 . S
O50 In39 2.294 . S
O50 C43 1.240 . S
O51 In39 2.326 . S
O51 C43 1.252 . S
In52 O53 2.294 . S
In52 O54 2.326 . S
In52 O58 2.266 . S
In52 O59 2.326 . S
In52 O60 2.266 . S
In52 O61 2.326 . S
In52 O63 2.294 . S
In52 O64 2.326 . S
O53 In52 2.294 . S
O53 C62 1.240 . S
O54 In52 2.326 . S
O54 C62 1.252 . S
C55 O58 1.252 . S
C55 O59 1.260 . S
C56 O63 1.240 . S
C56 O64 1.252 . S
C57 O60 1.252 . S
C57 O61 1.260 . S
O58 In52 2.266 . S
O58 C55 1.252 . S
O59 In52 2.326 . S
O59 C55 1.260 . S
O60 In52 2.266 . S
O60 C57 1.252 . S
O61 In52 2.326 . S
O61 C57 1.260 . S
C62 O53 1.240 . S
C62 O54 1.252 . S
O63 In52 2.294 . S
O63 C56 1.240 . S
O64 In52 2.326 . S
O64 C56 1.252 . S
In65 O66 2.294 . S
In65 O67 2.326 . S
In65 O71 2.266 . S
In65 O72 2.326 . S
In65 O73 2.266 . S
In65 O74 2.326 . S
In65 O76 2.294 . S
In65 O77 2.326 . S
O66 In65 2.294 . S
O66 C75 1.240 . S
O67 In65 2.326 . S
O67 C75 1.252 . S
C68 O71 1.252 . S
C68 O72 1.260 . S
C69 O76 1.240 . S
C69 O77 1.252 . S
C70 O73 1.252 . S
C70 O74 1.260 . S
O71 In65 2.266 . S
O71 C68 1.252 . S
O72 In65 2.326 . S
O72 C68 1.260 . S
O73 In65 2.266 . S
O73 C70 1.252 . S
O74 In65 2.326 . S
O74 C70 1.260 . S
C75 O66 1.240 . S
C75 O67 1.252 . S
O76 In65 2.294 . S
O76 C69 1.240 . S
O77 In65 2.326 . S
O77 C69 1.252 . S
In78 O79 2.294 . S
In78 O80 2.326 . S
In78 O84 2.266 . S
In78 O85 2.326 . S
In78 O86 2.266 . S
In78 O87 2.326 . S
In78 O89 2.294 . S
In78 O90 2.326 . S
O79 In78 2.294 . S
O79 C88 1.240 . S
O80 In78 2.326 . S
O80 C88 1.252 . S
C81 O84 1.252 . S
C81 O85 1.260 . S
C82 O89 1.240 . S
C82 O90 1.252 . S
C83 O86 1.252 . S
C83 O87 1.260 . S
O84 In78 2.266 . S
O84 C81 1.252 . S
O85 In78 2.326 . S
O85 C81 1.260 . S
O86 In78 2.266 . S
O86 C83 1.252 . S
O87 In78 2.326 . S
O87 C83 1.260 . S
C88 O79 1.240 . S
C88 O80 1.252 . S
O89 In78 2.294 . S
O89 C82 1.240 . S
O90 In78 2.326 . S
O90 C82 1.252 . S
In91 O92 2.294 . S
In91 O93 2.326 . S
In91 O97 2.266 . S
In91 O98 2.326 . S
In91 O99 2.266 . S
In91 O100 2.326 . S
In91 O102 2.294 . S
In91 O103 2.326 . S
O92 In91 2.294 . S
O92 C101 1.240 . S
O93 In91 2.326 . S
O93 C101 1.252 . S
C94 O97 1.252 . S
C94 O98 1.260 . S
C95 O102 1.240 . S
C95 O103 1.252 . S
C96 O99 1.252 . S
C96 O100 1.260 . S
O97 In91 2.266 . S
O97 C94 1.252 . S
O98 In91 2.326 . S
O98 C94 1.260 . S
O99 In91 2.266 . S
O99 C96 1.252 . S
O100 In91 2.326 . S
O100 C96 1.260 . S
C101 O92 1.240 . S
C101 O93 1.252 . S
O102 In91 2.294 . S
O102 C95 1.240 . S
O103 In91 2.326 . S
O103 C95 1.252 . S
In104 O105 2.294 . S
In104 O106 2.326 . S
In104 O110 2.266 . S
In104 O111 2.326 . S
In104 O112 2.266 . S
In104 O113 2.326 . S
In104 O115 2.294 . S
In104 O116 2.326 . S
O105 In104 2.294 . S
O105 C114 1.240 . S
O106 In104 2.326 . S
O106 C114 1.252 . S
C107 O110 1.252 . S
C107 O111 1.260 . S
C108 O115 1.240 . S
C108 O116 1.252 . S
C109 O112 1.252 . S
C109 O113 1.260 . S
O110 In104 2.266 . S
O110 C107 1.252 . S
O111 In104 2.326 . S
O111 C107 1.260 . S
O112 In104 2.266 . S
O112 C109 1.252 . S
O113 In104 2.326 . S
O113 C109 1.260 . S
C114 O105 1.240 . S
C114 O106 1.252 . S
O115 In104 2.294 . S
O115 C108 1.240 . S
O116 In104 2.326 . S
O116 C108 1.252 . S
In117 O118 2.294 . S
In117 O119 2.326 . S
In117 O123 2.266 . S
In117 O124 2.326 . S
In117 O125 2.266 . S
In117 O126 2.326 . S
In117 O128 2.294 . S
In117 O129 2.326 . S
O118 In117 2.294 . S
O118 C127 1.240 . S
O119 In117 2.326 . S
O119 C127 1.252 . S
C120 O123 1.252 . S
C120 O124 1.260 . S
C121 O128 1.240 . S
C121 O129 1.252 . S
C122 O125 1.252 . S
C122 O126 1.260 . S
O123 In117 2.266 . S
O123 C120 1.252 . S
O124 In117 2.326 . S
O124 C120 1.260 . S
O125 In117 2.266 . S
O125 C122 1.252 . S
O126 In117 2.326 . S
O126 C122 1.260 . S
C127 O118 1.240 . S
C127 O119 1.252 . S
O128 In117 2.294 . S
O128 C121 1.240 . S
O129 In117 2.326 . S
O129 C121 1.252 . S
In130 O131 2.294 . S
In130 O132 2.326 . S
In130 O136 2.266 . S
In130 O137 2.326 . S
In130 O138 2.266 . S
In130 O139 2.326 . S
In130 O141 2.294 . S
In130 O142 2.326 . S
O131 In130 2.294 . S
O131 C140 1.240 . S
O132 In130 2.326 . S
O132 C140 1.252 . S
C133 O136 1.252 . S
C133 O137 1.260 . S
C134 O141 1.240 . S
C134 O142 1.252 . S
C135 O138 1.252 . S
C135 O139 1.260 . S
O136 In130 2.266 . S
O136 C133 1.252 . S
O137 In130 2.326 . S
O137 C133 1.260 . S
O138 In130 2.266 . S
O138 C135 1.252 . S
O139 In130 2.326 . S
O139 C135 1.260 . S
C140 O131 1.240 . S
C140 O132 1.252 . S
O141 In130 2.294 . S
O141 C134 1.240 . S
O142 In130 2.326 . S
O142 C134 1.252 . S
In143 O144 2.294 . S
In143 O145 2.326 . S
In143 O149 2.266 . S
In143 O150 2.326 . S
In143 O151 2.266 . S
In143 O152 2.326 . S
In143 O154 2.294 . S
In143 O155 2.326 . S
O144 In143 2.294 . S
O144 C153 1.240 . S
O145 In143 2.326 . S
O145 C153 1.252 . S
C146 O149 1.252 . S
C146 O150 1.260 . S
C147 O154 1.240 . S
C147 O155 1.252 . S
C148 O151 1.252 . S
C148 O152 1.260 . S
O149 In143 2.266 . S
O149 C146 1.252 . S
O150 In143 2.326 . S
O150 C146 1.260 . S
O151 In143 2.266 . S
O151 C148 1.252 . S
O152 In143 2.326 . S
O152 C148 1.260 . S
C153 O144 1.240 . S
C153 O145 1.252 . S
O154 In143 2.294 . S
O154 C147 1.240 . S
O155 In143 2.326 . S
O155 C147 1.252 . S
In156 O157 2.294 . S
In156 O158 2.326 . S
In156 O162 2.266 . S
In156 O163 2.326 . S
In156 O164 2.266 . S
In156 O165 2.326 . S
In156 O167 2.294 . S
In156 O168 2.326 . S
O157 In156 2.294 . S
O157 C166 1.240 . S
O158 In156 2.326 . S
O158 C166 1.252 . S
C159 O162 1.252 . S
C159 O163 1.260 . S
C160 O167 1.240 . S
C160 O168 1.252 . S
C161 O164 1.252 . S
C161 O165 1.260 . S
O162 In156 2.266 . S
O162 C159 1.252 . S
O163 In156 2.326 . S
O163 C159 1.260 . S
O164 In156 2.266 . S
O164 C161 1.252 . S
O165 In156 2.326 . S
O165 C161 1.260 . S
C166 O157 1.240 . S
C166 O158 1.252 . S
O167 In156 2.294 . S
O167 C160 1.240 . S
O168 In156 2.326 . S
O168 C160 1.252 . S
In169 O170 2.294 . S
In169 O171 2.326 . S
In169 O175 2.266 . S
In169 O176 2.326 . S
In169 O177 2.266 . S
In169 O178 2.326 . S
In169 O180 2.294 . S
In169 O181 2.326 . S
O170 In169 2.294 . S
O170 C179 1.240 . S
O171 In169 2.326 . S
O171 C179 1.252 . S
C172 O175 1.252 . S
C172 O176 1.260 . S
C173 O180 1.240 . S
C173 O181 1.252 . S
C174 O177 1.252 . S
C174 O178 1.260 . S
O175 In169 2.266 . S
O175 C172 1.252 . S
O176 In169 2.326 . S
O176 C172 1.260 . S
O177 In169 2.266 . S
O177 C174 1.252 . S
O178 In169 2.326 . S
O178 C174 1.260 . S
C179 O170 1.240 . S
C179 O171 1.252 . S
O180 In169 2.294 . S
O180 C173 1.240 . S
O181 In169 2.326 . S
O181 C173 1.252 . S
In182 O183 2.294 . S
In182 O184 2.326 . S
In182 O188 2.266 . S
In182 O189 2.326 . S
In182 O190 2.266 . S
In182 O191 2.326 . S
In182 O193 2.294 . S
In182 O194 2.326 . S
O183 In182 2.294 . S
O183 C192 1.240 . S
O184 In182 2.326 . S
O184 C192 1.252 . S
C185 O188 1.252 . S
C185 O189 1.260 . S
C186 O193 1.240 . S
C186 O194 1.252 . S
C187 O190 1.252 . S
C187 O191 1.260 . S
O188 In182 2.266 . S
O188 C185 1.252 . S
O189 In182 2.326 . S
O189 C185 1.260 . S
O190 In182 2.266 . S
O190 C187 1.252 . S
O191 In182 2.326 . S
O191 C187 1.260 . S
C192 O183 1.240 . S
C192 O184 1.252 . S
O193 In182 2.294 . S
O193 C186 1.240 . S
O194 In182 2.326 . S
O194 C186 1.252 . S
In195 O196 2.294 . S
In195 O197 2.326 . S
In195 O201 2.266 . S
In195 O202 2.326 . S
In195 O203 2.266 . S
In195 O204 2.326 . S
In195 O206 2.294 . S
In195 O207 2.326 . S
O196 In195 2.294 . S
O196 C205 1.240 . S
O197 In195 2.326 . S
O197 C205 1.252 . S
C198 O201 1.252 . S
C198 O202 1.260 . S
C199 O206 1.240 . S
C199 O207 1.252 . S
C200 O203 1.252 . S
C200 O204 1.260 . S
O201 In195 2.266 . S
O201 C198 1.252 . S
O202 In195 2.326 . S
O202 C198 1.260 . S
O203 In195 2.266 . S
O203 C200 1.252 . S
O204 In195 2.326 . S
O204 C200 1.260 . S
C205 O196 1.240 . S
C205 O197 1.252 . S
O206 In195 2.294 . S
O206 C199 1.240 . S
O207 In195 2.326 . S
O207 C199 1.252 . S
H208 C220 0.930 . S
H209 C222 0.930 . S
H210 C223 0.930 . S
H211 C227 0.959 . S
H212 C227 0.959 . S
H213 C227 0.961 . S
H214 C228 0.960 . S
H215 C228 0.961 . S
H216 C228 0.959 . S
H217 C231 0.929 . S
H218 C232 0.931 . S
H219 C234 0.930 . S
C220 H208 0.930 . S
C220 C221 1.399 . S
C220 C225 1.399 . S
C221 C220 1.399 . S
C221 C222 1.376 . S
C222 H209 0.930 . S
C222 C221 1.376 . S
C222 C223 1.388 . S
C223 H210 0.930 . S
C223 C222 1.388 . S
C223 C224 1.390 . S
C224 C223 1.390 . S
C224 C225 1.394 . S
C224 C230 1.465 . S
C225 C220 1.399 . S
C225 C224 1.394 . S
C225 C226 1.516 . S
C226 C225 1.516 . S
C226 C227 1.502 . S
C226 C228 1.561 . S
C226 C229 1.526 . S
C227 H211 0.959 . S
C227 H212 0.959 . S
C227 H213 0.961 . S
C227 C226 1.502 . S
C228 H214 0.960 . S
C228 H215 0.961 . S
C228 H216 0.959 . S
C228 C226 1.561 . S
C229 C226 1.526 . S
C229 C230 1.396 . S
C229 C234 1.390 . S
C230 C224 1.465 . S
C230 C229 1.396 . S
C230 C231 1.399 . S
C231 H217 0.929 . S
C231 C230 1.399 . S
C231 C232 1.385 . S
C232 H218 0.931 . S
C232 C231 1.385 . S
C232 C233 1.389 . S
C233 C232 1.389 . S
C233 C234 1.387 . S
C234 H219 0.930 . S
C234 C229 1.390 . S
C234 C233 1.387 . S
H235 C247 0.930 . S
H236 C249 0.930 . S
H237 C250 0.930 . S
H238 C254 0.959 . S
H239 C254 0.959 . S
H240 C254 0.961 . S
H241 C255 0.960 . S
H242 C255 0.961 . S
H243 C255 0.959 . S
H244 C258 0.929 . S
H245 C259 0.931 . S
H246 C261 0.930 . S
C247 H235 0.930 . S
C247 C248 1.399 . S
C247 C252 1.399 . S
C248 C247 1.399 . S
C248 C249 1.376 . S
C249 H236 0.930 . S
C249 C248 1.376 . S
C249 C250 1.388 . S
C250 H237 0.930 . S
C250 C249 1.388 . S
C250 C251 1.390 . S
C251 C250 1.390 . S
C251 C252 1.394 . S
C251 C257 1.465 . S
C252 C247 1.399 . S
C252 C251 1.394 . S
C252 C253 1.516 . S
C253 C252 1.516 . S
C253 C254 1.502 . S
C253 C255 1.561 . S
C253 C256 1.526 . S
C254 H238 0.959 . S
C254 H239 0.959 . S
C254 H240 0.961 . S
C254 C253 1.502 . S
C255 H241 0.960 . S
C255 H242 0.961 . S
C255 H243 0.959 . S
C255 C253 1.561 . S
C256 C253 1.526 . S
C256 C257 1.396 . S
C256 C261 1.390 . S
C257 C251 1.465 . S
C257 C256 1.396 . S
C257 C258 1.399 . S
C258 H244 0.929 . S
C258 C257 1.399 . S
C258 C259 1.385 . S
C259 H245 0.931 . S
C259 C258 1.385 . S
C259 C260 1.389 . S
C260 C259 1.389 . S
C260 C261 1.387 . S
C261 H246 0.930 . S
C261 C256 1.390 . S
C261 C260 1.387 . S
H262 C274 0.930 . S
H263 C276 0.930 . S
H264 C277 0.930 . S
H265 C281 0.959 . S
H266 C281 0.959 . S
H267 C281 0.961 . S
H268 C282 0.960 . S
H269 C282 0.961 . S
H270 C282 0.959 . S
H271 C285 0.929 . S
H272 C286 0.931 . S
H273 C288 0.930 . S
C274 H262 0.930 . S
C274 C275 1.399 . S
C274 C279 1.399 . S
C275 C274 1.399 . S
C275 C276 1.376 . S
C276 H263 0.930 . S
C276 C275 1.376 . S
C276 C277 1.388 . S
C277 H264 0.930 . S
C277 C276 1.388 . S
C277 C278 1.390 . S
C278 C277 1.390 . S
C278 C279 1.394 . S
C278 C284 1.465 . S
C279 C274 1.399 . S
C279 C278 1.394 . S
C279 C280 1.516 . S
C280 C279 1.516 . S
C280 C281 1.502 . S
C280 C282 1.561 . S
C280 C283 1.526 . S
C281 H265 0.959 . S
C281 H266 0.959 . S
C281 H267 0.961 . S
C281 C280 1.502 . S
C282 H268 0.960 . S
C282 H269 0.961 . S
C282 H270 0.959 . S
C282 C280 1.561 . S
C283 C280 1.526 . S
C283 C284 1.396 . S
C283 C288 1.390 . S
C284 C278 1.465 . S
C284 C283 1.396 . S
C284 C285 1.399 . S
C285 H271 0.929 . S
C285 C284 1.399 . S
C285 C286 1.385 . S
C286 H272 0.931 . S
C286 C285 1.385 . S
C286 C287 1.389 . S
C287 C286 1.389 . S
C287 C288 1.387 . S
C288 H273 0.930 . S
C288 C283 1.390 . S
C288 C287 1.387 . S
H289 C301 0.930 . S
H290 C303 0.930 . S
H291 C304 0.930 . S
H292 C308 0.959 . S
H293 C308 0.959 . S
H294 C308 0.961 . S
H295 C309 0.960 . S
H296 C309 0.961 . S
H297 C309 0.959 . S
H298 C312 0.929 . S
H299 C313 0.931 . S
H300 C315 0.930 . S
C301 H289 0.930 . S
C301 C302 1.399 . S
C301 C306 1.399 . S
C302 C301 1.399 . S
C302 C303 1.376 . S
C303 H290 0.930 . S
C303 C302 1.376 . S
C303 C304 1.388 . S
C304 H291 0.930 . S
C304 C303 1.388 . S
C304 C305 1.390 . S
C305 C304 1.390 . S
C305 C306 1.394 . S
C305 C311 1.465 . S
C306 C301 1.399 . S
C306 C305 1.394 . S
C306 C307 1.516 . S
C307 C306 1.516 . S
C307 C308 1.502 . S
C307 C309 1.561 . S
C307 C310 1.526 . S
C308 H292 0.959 . S
C308 H293 0.959 . S
C308 H294 0.961 . S
C308 C307 1.502 . S
C309 H295 0.960 . S
C309 H296 0.961 . S
C309 H297 0.959 . S
C309 C307 1.561 . S
C310 C307 1.526 . S
C310 C311 1.396 . S
C310 C315 1.390 . S
C311 C305 1.465 . S
C311 C310 1.396 . S
C311 C312 1.399 . S
C312 H298 0.929 . S
C312 C311 1.399 . S
C312 C313 1.385 . S
C313 H299 0.931 . S
C313 C312 1.385 . S
C313 C314 1.389 . S
C314 C313 1.389 . S
C314 C315 1.387 . S
C315 H300 0.930 . S
C315 C310 1.390 . S
C315 C314 1.387 . S
H316 C328 0.930 . S
H317 C330 0.930 . S
H318 C331 0.930 . S
H319 C335 0.959 . S
H320 C335 0.959 . S
H321 C335 0.961 . S
H322 C336 0.960 . S
H323 C336 0.961 . S
H324 C336 0.959 . S
H325 C339 0.929 . S
H326 C340 0.931 . S
H327 C342 0.930 . S
C328 H316 0.930 . S
C328 C329 1.399 . S
C328 C333 1.399 . S
C329 C328 1.399 . S
C329 C330 1.376 . S
C330 H317 0.930 . S
C330 C329 1.376 . S
C330 C331 1.388 . S
C331 H318 0.930 . S
C331 C330 1.388 . S
C331 C332 1.390 . S
C332 C331 1.390 . S
C332 C333 1.394 . S
C332 C338 1.465 . S
C333 C328 1.399 . S
C333 C332 1.394 . S
C333 C334 1.516 . S
C334 C333 1.516 . S
C334 C335 1.502 . S
C334 C336 1.561 . S
C334 C337 1.526 . S
C335 H319 0.959 . S
C335 H320 0.959 . S
C335 H321 0.961 . S
C335 C334 1.502 . S
C336 H322 0.960 . S
C336 H323 0.961 . S
C336 H324 0.959 . S
C336 C334 1.561 . S
C337 C334 1.526 . S
C337 C338 1.396 . S
C337 C342 1.390 . S
C338 C332 1.465 . S
C338 C337 1.396 . S
C338 C339 1.399 . S
C339 H325 0.929 . S
C339 C338 1.399 . S
C339 C340 1.385 . S
C340 H326 0.931 . S
C340 C339 1.385 . S
C340 C341 1.389 . S
C341 C340 1.389 . S
C341 C342 1.387 . S
C342 H327 0.930 . S
C342 C337 1.390 . S
C342 C341 1.387 . S
H343 C355 0.930 . S
H344 C357 0.930 . S
H345 C358 0.930 . S
H346 C362 0.959 . S
H347 C362 0.959 . S
H348 C362 0.961 . S
H349 C363 0.960 . S
H350 C363 0.961 . S
H351 C363 0.959 . S
H352 C366 0.929 . S
H353 C367 0.931 . S
H354 C369 0.930 . S
C355 H343 0.930 . S
C355 C356 1.399 . S
C355 C360 1.399 . S
C356 C355 1.399 . S
C356 C357 1.376 . S
C357 H344 0.930 . S
C357 C356 1.376 . S
C357 C358 1.388 . S
C358 H345 0.930 . S
C358 C357 1.388 . S
C358 C359 1.390 . S
C359 C358 1.390 . S
C359 C360 1.394 . S
C359 C365 1.465 . S
C360 C355 1.399 . S
C360 C359 1.394 . S
C360 C361 1.516 . S
C361 C360 1.516 . S
C361 C362 1.502 . S
C361 C363 1.561 . S
C361 C364 1.526 . S
C362 H346 0.959 . S
C362 H347 0.959 . S
C362 H348 0.961 . S
C362 C361 1.502 . S
C363 H349 0.960 . S
C363 H350 0.961 . S
C363 H351 0.959 . S
C363 C361 1.561 . S
C364 C361 1.526 . S
C364 C365 1.396 . S
C364 C369 1.390 . S
C365 C359 1.465 . S
C365 C364 1.396 . S
C365 C366 1.399 . S
C366 H352 0.929 . S
C366 C365 1.399 . S
C366 C367 1.385 . S
C367 H353 0.931 . S
C367 C366 1.385 . S
C367 C368 1.389 . S
C368 C367 1.389 . S
C368 C369 1.387 . S
C369 H354 0.930 . S
C369 C364 1.390 . S
C369 C368 1.387 . S
H370 C382 0.930 . S
H371 C384 0.930 . S
H372 C385 0.930 . S
H373 C389 0.959 . S
H374 C389 0.959 . S
H375 C389 0.961 . S
H376 C390 0.960 . S
H377 C390 0.961 . S
H378 C390 0.959 . S
H379 C393 0.929 . S
H380 C394 0.931 . S
H381 C396 0.930 . S
C382 H370 0.930 . S
C382 C383 1.399 . S
C382 C387 1.399 . S
C383 C382 1.399 . S
C383 C384 1.376 . S
C384 H371 0.930 . S
C384 C383 1.376 . S
C384 C385 1.388 . S
C385 H372 0.930 . S
C385 C384 1.388 . S
C385 C386 1.390 . S
C386 C385 1.390 . S
C386 C387 1.394 . S
C386 C392 1.465 . S
C387 C382 1.399 . S
C387 C386 1.394 . S
C387 C388 1.516 . S
C388 C387 1.516 . S
C388 C389 1.502 . S
C388 C390 1.561 . S
C388 C391 1.526 . S
C389 H373 0.959 . S
C389 H374 0.959 . S
C389 H375 0.961 . S
C389 C388 1.502 . S
C390 H376 0.960 . S
C390 H377 0.961 . S
C390 H378 0.959 . S
C390 C388 1.561 . S
C391 C388 1.526 . S
C391 C392 1.396 . S
C391 C396 1.390 . S
C392 C386 1.465 . S
C392 C391 1.396 . S
C392 C393 1.399 . S
C393 H379 0.929 . S
C393 C392 1.399 . S
C393 C394 1.385 . S
C394 H380 0.931 . S
C394 C393 1.385 . S
C394 C395 1.389 . S
C395 C394 1.389 . S
C395 C396 1.387 . S
C396 H381 0.930 . S
C396 C391 1.390 . S
C396 C395 1.387 . S
H397 C409 0.930 . S
H398 C411 0.930 . S
H399 C412 0.930 . S
H400 C416 0.959 . S
H401 C416 0.959 . S
H402 C416 0.961 . S
H403 C417 0.960 . S
H404 C417 0.961 . S
H405 C417 0.959 . S
H406 C420 0.929 . S
H407 C421 0.931 . S
H408 C423 0.930 . S
C409 H397 0.930 . S
C409 C410 1.399 . S
C409 C414 1.399 . S
C410 C409 1.399 . S
C410 C411 1.376 . S
C411 H398 0.930 . S
C411 C410 1.376 . S
C411 C412 1.388 . S
C412 H399 0.930 . S
C412 C411 1.388 . S
C412 C413 1.390 . S
C413 C412 1.390 . S
C413 C414 1.394 . S
C413 C419 1.465 . S
C414 C409 1.399 . S
C414 C413 1.394 . S
C414 C415 1.516 . S
C415 C414 1.516 . S
C415 C416 1.502 . S
C415 C417 1.561 . S
C415 C418 1.526 . S
C416 H400 0.959 . S
C416 H401 0.959 . S
C416 H402 0.961 . S
C416 C415 1.502 . S
C417 H403 0.960 . S
C417 H404 0.961 . S
C417 H405 0.959 . S
C417 C415 1.561 . S
C418 C415 1.526 . S
C418 C419 1.396 . S
C418 C423 1.390 . S
C419 C413 1.465 . S
C419 C418 1.396 . S
C419 C420 1.399 . S
C420 H406 0.929 . S
C420 C419 1.399 . S
C420 C421 1.385 . S
C421 H407 0.931 . S
C421 C420 1.385 . S
C421 C422 1.389 . S
C422 C421 1.389 . S
C422 C423 1.387 . S
C423 H408 0.930 . S
C423 C418 1.390 . S
C423 C422 1.387 . S
H424 C436 0.930 . S
H425 C438 0.930 . S
H426 C439 0.930 . S
H427 C443 0.959 . S
H428 C443 0.959 . S
H429 C443 0.961 . S
H430 C444 0.960 . S
H431 C444 0.961 . S
H432 C444 0.959 . S
H433 C447 0.929 . S
H434 C448 0.931 . S
H435 C450 0.930 . S
C436 H424 0.930 . S
C436 C437 1.399 . S
C436 C441 1.399 . S
C437 C436 1.399 . S
C437 C438 1.376 . S
C438 H425 0.930 . S
C438 C437 1.376 . S
C438 C439 1.388 . S
C439 H426 0.930 . S
C439 C438 1.388 . S
C439 C440 1.390 . S
C440 C439 1.390 . S
C440 C441 1.394 . S
C440 C446 1.465 . S
C441 C436 1.399 . S
C441 C440 1.394 . S
C441 C442 1.516 . S
C442 C441 1.516 . S
C442 C443 1.502 . S
C442 C444 1.561 . S
C442 C445 1.526 . S
C443 H427 0.959 . S
C443 H428 0.959 . S
C443 H429 0.961 . S
C443 C442 1.502 . S
C444 H430 0.960 . S
C444 H431 0.961 . S
C444 H432 0.959 . S
C444 C442 1.561 . S
C445 C442 1.526 . S
C445 C446 1.396 . S
C445 C450 1.390 . S
C446 C440 1.465 . S
C446 C445 1.396 . S
C446 C447 1.399 . S
C447 H433 0.929 . S
C447 C446 1.399 . S
C447 C448 1.385 . S
C448 H434 0.931 . S
C448 C447 1.385 . S
C448 C449 1.389 . S
C449 C448 1.389 . S
C449 C450 1.387 . S
C450 H435 0.930 . S
C450 C445 1.390 . S
C450 C449 1.387 . S
H451 C463 0.930 . S
H452 C465 0.930 . S
H453 C466 0.930 . S
H454 C470 0.959 . S
H455 C470 0.959 . S
H456 C470 0.961 . S
H457 C471 0.960 . S
H458 C471 0.961 . S
H459 C471 0.959 . S
H460 C474 0.929 . S
H461 C475 0.931 . S
H462 C477 0.930 . S
C463 H451 0.930 . S
C463 C464 1.399 . S
C463 C468 1.399 . S
C464 C463 1.399 . S
C464 C465 1.376 . S
C465 H452 0.930 . S
C465 C464 1.376 . S
C465 C466 1.388 . S
C466 H453 0.930 . S
C466 C465 1.388 . S
C466 C467 1.390 . S
C467 C466 1.390 . S
C467 C468 1.394 . S
C467 C473 1.465 . S
C468 C463 1.399 . S
C468 C467 1.394 . S
C468 C469 1.516 . S
C469 C468 1.516 . S
C469 C470 1.502 . S
C469 C471 1.561 . S
C469 C472 1.526 . S
C470 H454 0.959 . S
C470 H455 0.959 . S
C470 H456 0.961 . S
C470 C469 1.502 . S
C471 H457 0.960 . S
C471 H458 0.961 . S
C471 H459 0.959 . S
C471 C469 1.561 . S
C472 C469 1.526 . S
C472 C473 1.396 . S
C472 C477 1.390 . S
C473 C467 1.465 . S
C473 C472 1.396 . S
C473 C474 1.399 . S
C474 H460 0.929 . S
C474 C473 1.399 . S
C474 C475 1.385 . S
C475 H461 0.931 . S
C475 C474 1.385 . S
C475 C476 1.389 . S
C476 C475 1.389 . S
C476 C477 1.387 . S
C477 H462 0.930 . S
C477 C472 1.390 . S
C477 C476 1.387 . S
H478 C490 0.930 . S
H479 C492 0.930 . S
H480 C493 0.930 . S
H481 C497 0.959 . S
H482 C497 0.959 . S
H483 C497 0.961 . S
H484 C498 0.960 . S
H485 C498 0.961 . S
H486 C498 0.959 . S
H487 C501 0.929 . S
H488 C502 0.931 . S
H489 C504 0.930 . S
C490 H478 0.930 . S
C490 C491 1.399 . S
C490 C495 1.399 . S
C491 C490 1.399 . S
C491 C492 1.376 . S
C492 H479 0.930 . S
C492 C491 1.376 . S
C492 C493 1.388 . S
C493 H480 0.930 . S
C493 C492 1.388 . S
C493 C494 1.390 . S
C494 C493 1.390 . S
C494 C495 1.394 . S
C494 C500 1.465 . S
C495 C490 1.399 . S
C495 C494 1.394 . S
C495 C496 1.516 . S
C496 C495 1.516 . S
C496 C497 1.502 . S
C496 C498 1.561 . S
C496 C499 1.526 . S
C497 H481 0.959 . S
C497 H482 0.959 . S
C497 H483 0.961 . S
C497 C496 1.502 . S
C498 H484 0.960 . S
C498 H485 0.961 . S
C498 H486 0.959 . S
C498 C496 1.561 . S
C499 C496 1.526 . S
C499 C500 1.396 . S
C499 C504 1.390 . S
C500 C494 1.465 . S
C500 C499 1.396 . S
C500 C501 1.399 . S
C501 H487 0.929 . S
C501 C500 1.399 . S
C501 C502 1.385 . S
C502 H488 0.931 . S
C502 C501 1.385 . S
C502 C503 1.389 . S
C503 C502 1.389 . S
C503 C504 1.387 . S
C504 H489 0.930 . S
C504 C499 1.390 . S
C504 C503 1.387 . S
H505 C517 0.930 . S
H506 C519 0.930 . S
H507 C520 0.930 . S
H508 C524 0.949 1_556 S
H509 C524 0.945 1_556 S
H510 C524 0.981 . S
H511 C525 0.960 . S
H512 C525 0.961 . S
H513 C525 0.959 . S
H514 C528 0.929 . S
H515 C529 0.931 . S
H516 C531 0.930 . S
C517 H505 0.930 . S
C517 C518 1.399 . S
C517 C522 1.399 . S
C518 C517 1.399 . S
C518 C519 1.376 . S
C519 H506 0.930 . S
C519 C518 1.376 . S
C519 C520 1.388 . S
C520 H507 0.930 . S
C520 C519 1.388 . S
C520 C521 1.390 . S
C521 C520 1.390 . S
C521 C522 1.394 . S
C521 C527 1.465 1_554 S
C522 C517 1.399 . S
C522 C521 1.394 . S
C522 C523 1.516 . S
C523 C522 1.516 . S
C523 C524 1.506 . S
C523 C525 1.561 . S
C523 C526 1.526 1_554 S
C524 H508 0.949 1_554 S
C524 H509 0.945 1_554 S
C524 H510 0.981 . S
C524 C523 1.506 . S
C525 H511 0.960 . S
C525 H512 0.961 . S
C525 H513 0.959 . S
C525 C523 1.561 . S
C526 C523 1.526 1_556 S
C526 C527 1.396 . S
C526 C531 1.390 . S
C527 C521 1.465 1_556 S
C527 C526 1.396 . S
C527 C528 1.399 . S
C528 H514 0.929 . S
C528 C527 1.399 . S
C528 C529 1.385 . S
C529 H515 0.931 . S
C529 C528 1.385 . S
C529 C530 1.389 . S
C530 C529 1.389 . S
C530 C531 1.387 . S
C531 H516 0.930 . S
C531 C526 1.390 . S
C531 C530 1.387 . S
H532 C544 0.930 . S
H533 C546 0.930 . S
H534 C547 0.930 . S
H535 C551 0.959 . S
H536 C551 0.959 . S
H537 C551 0.961 . S
H538 C552 0.968 . S
H539 C552 0.961 . S
H540 C552 0.959 . S
H541 C555 0.929 . S
H542 C556 0.931 . S
H543 C558 0.930 . S
C544 H532 0.930 . S
C544 C545 1.399 . S
C544 C549 1.399 . S
C545 C544 1.399 . S
C545 C546 1.376 . S
C546 H533 0.930 . S
C546 C545 1.376 . S
C546 C547 1.388 . S
C547 H534 0.930 . S
C547 C546 1.388 . S
C547 C548 1.390 . S
C548 C547 1.390 . S
C548 C549 1.394 . S
C548 C554 1.465 1_554 S
C549 C544 1.399 . S
C549 C548 1.394 . S
C549 C550 1.516 1_554 S
C550 C549 1.516 1_556 S
C550 C551 1.502 . S
C550 C552 1.561 . S
C550 C553 1.526 . S
C551 H535 0.959 . S
C551 H536 0.959 . S
C551 H537 0.961 . S
C551 C550 1.502 . S
C552 H538 0.968 . S
C552 H539 0.961 . S
C552 H540 0.959 . S
C552 C550 1.561 . S
C553 C550 1.526 . S
C553 C554 1.396 . S
C553 C558 1.390 . S
C554 C548 1.465 1_556 S
C554 C553 1.396 . S
C554 C555 1.399 . S
C555 H541 0.929 . S
C555 C554 1.399 . S
C555 C556 1.385 . S
C556 H542 0.931 . S
C556 C555 1.385 . S
C556 C557 1.389 . S
C557 C556 1.389 . S
C557 C558 1.387 . S
C558 H543 0.930 . S
C558 C553 1.390 . S
C558 C557 1.387 . S
H559 C571 0.930 . S
H560 C573 0.930 . S
H561 C574 0.930 . S
H562 C578 0.959 . S
H563 C578 0.959 . S
H564 C578 0.961 . S
H565 C579 0.960 . S
H566 C579 0.961 . S
H567 C579 0.959 . S
H568 C582 0.929 . S
H569 C583 0.931 . S
H570 C585 0.930 . S
C571 H559 0.930 . S
C571 C572 1.399 . S
C571 C576 1.399 . S
C572 C571 1.399 . S
C572 C573 1.376 . S
C573 H560 0.930 . S
C573 C572 1.376 . S
C573 C574 1.388 . S
C574 H561 0.930 . S
C574 C573 1.388 . S
C574 C575 1.390 . S
C575 C574 1.390 . S
C575 C576 1.394 . S
C575 C581 1.465 . S
C576 C571 1.399 . S
C576 C575 1.394 . S
C576 C577 1.516 . S
C577 C576 1.516 . S
C577 C578 1.502 . S
C577 C579 1.561 . S
C577 C580 1.526 . S
C578 H562 0.959 . S
C578 H563 0.959 . S
C578 H564 0.961 . S
C578 C577 1.502 . S
C579 H565 0.960 . S
C579 H566 0.961 . S
C579 H567 0.959 . S
C579 C577 1.561 . S
C580 C577 1.526 . S
C580 C581 1.396 . S
C580 C585 1.390 . S
C581 C575 1.465 . S
C581 C580 1.396 . S
C581 C582 1.399 . S
C582 H568 0.929 . S
C582 C581 1.399 . S
C582 C583 1.385 . S
C583 H569 0.931 . S
C583 C582 1.385 . S
C583 C584 1.389 . S
C584 C583 1.389 . S
C584 C585 1.387 . S
C585 H570 0.930 . S
C585 C580 1.390 . S
C585 C584 1.387 . S
H586 C598 0.930 . S
H587 C600 0.930 . S
H588 C601 0.930 . S
H589 C605 0.959 . S
H590 C605 0.959 . S
H591 C605 0.961 . S
H592 C606 0.960 . S
H593 C606 0.961 . S
H594 C606 0.959 . S
H595 C609 0.929 . S
H596 C610 0.931 . S
H597 C612 0.930 . S
C598 H586 0.930 . S
C598 C599 1.399 . S
C598 C603 1.399 . S
C599 C598 1.399 . S
C599 C600 1.376 . S
C600 H587 0.930 . S
C600 C599 1.376 . S
C600 C601 1.388 . S
C601 H588 0.930 . S
C601 C600 1.388 . S
C601 C602 1.390 . S
C602 C601 1.390 . S
C602 C603 1.394 . S
C602 C608 1.465 . S
C603 C598 1.399 . S
C603 C602 1.394 . S
C603 C604 1.516 . S
C604 C603 1.516 . S
C604 C605 1.502 . S
C604 C606 1.561 . S
C604 C607 1.526 . S
C605 H589 0.959 . S
C605 H590 0.959 . S
C605 H591 0.961 . S
C605 C604 1.502 . S
C606 H592 0.960 . S
C606 H593 0.961 . S
C606 H594 0.959 . S
C606 C604 1.561 . S
C607 C604 1.526 . S
C607 C608 1.396 . S
C607 C612 1.390 . S
C608 C602 1.465 . S
C608 C607 1.396 . S
C608 C609 1.399 . S
C609 H595 0.929 . S
C609 C608 1.399 . S
C609 C610 1.385 . S
C610 H596 0.931 . S
C610 C609 1.385 . S
C610 C611 1.389 . S
C611 C610 1.389 . S
C611 C612 1.387 . S
C612 H597 0.930 . S
C612 C607 1.390 . S
C612 C611 1.387 . S
H613 C625 0.930 . S
H614 C627 0.930 . S
H615 C628 0.930 . S
H616 C632 0.959 . S
H617 C632 0.959 . S
H618 C632 0.961 . S
H619 C633 0.960 . S
H620 C633 0.961 . S
H621 C633 0.959 . S
H622 C636 0.929 . S
H623 C637 0.931 . S
H624 C639 0.930 . S
C625 H613 0.930 . S
C625 C626 1.399 . S
C625 C630 1.399 . S
C626 C625 1.399 . S
C626 C627 1.376 . S
C627 H614 0.930 . S
C627 C626 1.376 . S
C627 C628 1.388 . S
C628 H615 0.930 . S
C628 C627 1.388 . S
C628 C629 1.390 . S
C629 C628 1.390 . S
C629 C630 1.394 . S
C629 C635 1.465 . S
C630 C625 1.399 . S
C630 C629 1.394 . S
C630 C631 1.516 . S
C631 C630 1.516 . S
C631 C632 1.502 . S
C631 C633 1.561 . S
C631 C634 1.526 . S
C632 H616 0.959 . S
C632 H617 0.959 . S
C632 H618 0.961 . S
C632 C631 1.502 . S
C633 H619 0.960 . S
C633 H620 0.961 . S
C633 H621 0.959 . S
C633 C631 1.561 . S
C634 C631 1.526 . S
C634 C635 1.396 . S
C634 C639 1.390 . S
C635 C629 1.465 . S
C635 C634 1.396 . S
C635 C636 1.399 . S
C636 H622 0.929 . S
C636 C635 1.399 . S
C636 C637 1.385 . S
C637 H623 0.931 . S
C637 C636 1.385 . S
C637 C638 1.389 . S
C638 C637 1.389 . S
C638 C639 1.387 . S
C639 H624 0.930 . S
C639 C634 1.390 . S
C639 C638 1.387 . S
H640 C652 0.930 . S
H641 C654 0.930 . S
H642 C655 0.934 . S
H643 C659 0.959 . S
H644 C659 0.959 . S
H645 C659 0.961 . S
H646 C660 0.960 1_545 S
H647 C660 0.961 1_655 S
H648 C660 0.959 . S
H649 C663 0.929 . S
H650 C664 0.931 . S
H651 C666 0.930 . S
C652 H640 0.930 . S
C652 C653 1.399 . S
C652 C657 1.399 . S
C653 C652 1.399 . S
C653 C654 1.376 . S
C654 H641 0.930 . S
C654 C653 1.376 . S
C654 C655 1.384 1_545 S
C655 H642 0.934 . S
C655 C654 1.384 1_565 S
C655 C656 1.390 . S
C656 C655 1.390 . S
C656 C657 1.394 1_565 S
C656 C662 1.465 1_455 S
C657 C652 1.399 . S
C657 C656 1.394 1_545 S
C657 C658 1.516 1_455 S
C658 C657 1.516 1_655 S
C658 C659 1.502 . S
C658 C660 1.561 1_645 S
C658 C661 1.526 1_545 S
C659 H643 0.959 . S
C659 H644 0.959 . S
C659 H645 0.961 . S
C659 C658 1.502 . S
C660 H646 0.960 1_565 S
C660 H647 0.961 1_455 S
C660 H648 0.959 . S
C660 C658 1.561 1_465 S
C661 C658 1.526 1_565 S
C661 C662 1.396 . S
C661 C666 1.390 . S
C662 C656 1.465 1_655 S
C662 C661 1.396 . S
C662 C663 1.399 . S
C663 H649 0.929 . S
C663 C662 1.399 . S
C663 C664 1.385 . S
C664 H650 0.931 . S
C664 C663 1.385 . S
C664 C665 1.389 . S
C665 C664 1.389 . S
C665 C666 1.387 . S
C666 H651 0.930 . S
C666 C661 1.390 . S
C666 C665 1.387 . S
H667 C679 0.930 . S
H668 C681 0.930 . S
H669 C682 0.930 . S
H670 C686 0.959 . S
H671 C686 0.959 . S
H672 C686 0.961 . S
H673 C687 0.960 . S
H674 C687 0.961 . S
H675 C687 0.959 . S
H676 C690 0.929 . S
H677 C691 0.931 . S
H678 C693 0.930 . S
C679 H667 0.930 . S
C679 C680 1.399 . S
C679 C684 1.399 . S
C680 C679 1.399 . S
C680 C681 1.376 . S
C681 H668 0.930 . S
C681 C680 1.376 . S
C681 C682 1.388 . S
C682 H669 0.930 . S
C682 C681 1.388 . S
C682 C683 1.390 . S
C683 C682 1.390 . S
C683 C684 1.394 . S
C683 C689 1.465 1_455 S
C684 C679 1.399 . S
C684 C683 1.394 . S
C684 C685 1.516 1_455 S
C685 C684 1.516 1_655 S
C685 C686 1.502 . S
C685 C687 1.561 1_655 S
C685 C688 1.526 . S
C686 H670 0.959 . S
C686 H671 0.959 . S
C686 H672 0.961 . S
C686 C685 1.502 . S
C687 H673 0.960 . S
C687 H674 0.961 . S
C687 H675 0.959 . S
C687 C685 1.561 1_455 S
C688 C685 1.526 . S
C688 C689 1.396 . S
C688 C693 1.390 . S
C689 C683 1.465 1_655 S
C689 C688 1.396 . S
C689 C690 1.399 . S
C690 H676 0.929 . S
C690 C689 1.399 . S
C690 C691 1.385 . S
C691 H677 0.931 . S
C691 C690 1.385 . S
C691 C692 1.389 . S
C692 C691 1.389 . S
C692 C693 1.387 . S
C693 H678 0.930 . S
C693 C688 1.390 . S
C693 C692 1.387 . S
H694 C706 0.930 . S
H695 C708 0.930 . S
H696 C709 0.930 . S
H697 C713 0.959 . S
H698 C713 0.959 . S
H699 C713 0.961 . S
H700 C714 0.960 . S
H701 C714 0.961 . S
H702 C714 0.959 . S
H703 C717 0.929 . S
H704 C718 0.931 . S
H705 C720 0.930 . S
C706 H694 0.930 . S
C706 C707 1.399 . S
C706 C711 1.399 . S
C707 C706 1.399 . S
C707 C708 1.376 . S
C708 H695 0.930 . S
C708 C707 1.376 . S
C708 C709 1.388 . S
C709 H696 0.930 . S
C709 C708 1.388 . S
C709 C710 1.390 . S
C710 C709 1.390 . S
C710 C711 1.394 . S
C710 C716 1.465 . S
C711 C706 1.399 . S
C711 C710 1.394 . S
C711 C712 1.516 . S
C712 C711 1.516 . S
C712 C713 1.502 . S
C712 C714 1.561 . S
C712 C715 1.526 . S
C713 H697 0.959 . S
C713 H698 0.959 . S
C713 H699 0.961 . S
C713 C712 1.502 . S
C714 H700 0.960 . S
C714 H701 0.961 . S
C714 H702 0.959 . S
C714 C712 1.561 . S
C715 C712 1.526 . S
C715 C716 1.396 . S
C715 C720 1.390 . S
C716 C710 1.465 . S
C716 C715 1.396 . S
C716 C717 1.399 . S
C717 H703 0.929 . S
C717 C716 1.399 . S
C717 C718 1.385 . S
C718 H704 0.931 . S
C718 C717 1.385 . S
C718 C719 1.389 . S
C719 C718 1.389 . S
C719 C720 1.387 . S
C720 H705 0.930 . S
C720 C715 1.390 . S
C720 C719 1.387 . S
H721 C733 0.930 . S
H722 C735 0.930 . S
H723 C736 0.930 . S
H724 C740 0.959 . S
H725 C740 0.959 . S
H726 C740 0.961 . S
H727 C741 0.960 . S
H728 C741 0.961 1_565 S
H729 C741 0.959 . S
H730 C744 0.929 . S
H731 C745 0.931 . S
H732 C747 0.930 . S
C733 H721 0.930 . S
C733 C734 1.399 . S
C733 C738 1.399 . S
C734 C733 1.399 . S
C734 C735 1.376 . S
C735 H722 0.930 . S
C735 C734 1.376 . S
C735 C736 1.388 . S
C736 H723 0.930 . S
C736 C735 1.388 . S
C736 C737 1.390 . S
C737 C736 1.390 . S
C737 C738 1.394 . S
C737 C743 1.465 1_545 S
C738 C733 1.399 . S
C738 C737 1.394 . S
C738 C739 1.516 1_545 S
C739 C738 1.516 1_565 S
C739 C740 1.502 . S
C739 C741 1.561 1_565 S
C739 C742 1.526 . S
C740 H724 0.959 . S
C740 H725 0.959 . S
C740 H726 0.961 . S
C740 C739 1.502 . S
C741 H727 0.960 . S
C741 H728 0.961 1_545 S
C741 H729 0.959 . S
C741 C739 1.561 1_545 S
C742 C739 1.526 . S
C742 C743 1.396 . S
C742 C747 1.390 . S
C743 C737 1.465 1_565 S
C743 C742 1.396 . S
C743 C744 1.399 . S
C744 H730 0.929 . S
C744 C743 1.399 . S
C744 C745 1.385 . S
C745 H731 0.931 . S
C745 C744 1.385 . S
C745 C746 1.389 . S
C746 C745 1.389 . S
C746 C747 1.387 . S
C747 H732 0.930 . S
C747 C742 1.390 . S
C747 C746 1.387 . S
H748 C760 0.930 . S
H749 C762 0.930 . S
H750 C763 0.930 . S
H751 C767 0.959 . S
H752 C767 0.959 . S
H753 C767 0.961 . S
H754 C768 0.975 . S
H755 C768 0.943 1_655 S
H756 C768 0.968 . S
H757 C771 0.929 . S
H758 C772 0.931 . S
H759 C774 0.930 . S
C760 H748 0.930 . S
C760 C761 1.399 . S
C760 C765 1.399 . S
C761 C760 1.399 . S
C761 C762 1.376 . S
C762 H749 0.930 . S
C762 C761 1.376 . S
C762 C763 1.388 . S
C763 H750 0.930 . S
C763 C762 1.388 . S
C763 C764 1.390 . S
C764 C763 1.390 . S
C764 C765 1.394 . S
C764 C770 1.465 1_455 S
C765 C760 1.399 . S
C765 C764 1.394 . S
C765 C766 1.516 1_455 S
C766 C765 1.516 1_655 S
C766 C767 1.502 . S
C766 C768 1.556 1_655 S
C766 C769 1.526 . S
C767 H751 0.959 . S
C767 H752 0.959 . S
C767 H753 0.961 . S
C767 C766 1.502 . S
C768 H754 0.975 . S
C768 H755 0.943 1_455 S
C768 H756 0.968 . S
C768 C766 1.556 1_455 S
C769 C766 1.526 . S
C769 C770 1.396 . S
C769 C774 1.390 . S
C770 C764 1.465 1_655 S
C770 C769 1.396 . S
C770 C771 1.399 . S
C771 H757 0.929 . S
C771 C770 1.399 . S
C771 C772 1.385 . S
C772 H758 0.931 . S
C772 C771 1.385 . S
C772 C773 1.389 . S
C773 C772 1.389 . S
C773 C774 1.387 . S
C774 H759 0.930 . S
C774 C769 1.390 . S
C774 C773 1.387 . S
H775 C787 0.930 . S
H776 C789 0.930 . S
H777 C790 0.930 . S
H778 C794 0.959 . S
H779 C794 0.959 . S
H780 C794 0.961 . S
H781 C795 0.960 . S
H782 C795 0.961 . S
H783 C795 0.959 . S
H784 C798 0.929 . S
H785 C799 0.931 . S
H786 C801 0.930 . S
C787 H775 0.930 . S
C787 C788 1.399 . S
C787 C792 1.399 . S
C788 C787 1.399 . S
C788 C789 1.376 . S
C789 H776 0.930 . S
C789 C788 1.376 . S
C789 C790 1.388 . S
C790 H777 0.930 . S
C790 C789 1.388 . S
C790 C791 1.390 . S
C791 C790 1.390 . S
C791 C792 1.394 . S
C791 C797 1.465 . S
C792 C787 1.399 . S
C792 C791 1.394 . S
C792 C793 1.516 . S
C793 C792 1.516 . S
C793 C794 1.502 . S
C793 C795 1.561 . S
C793 C796 1.526 . S
C794 H778 0.959 . S
C794 H779 0.959 . S
C794 H780 0.961 . S
C794 C793 1.502 . S
C795 H781 0.960 . S
C795 H782 0.961 . S
C795 H783 0.959 . S
C795 C793 1.561 . S
C796 C793 1.526 . S
C796 C797 1.396 . S
C796 C801 1.390 . S
C797 C791 1.465 . S
C797 C796 1.396 . S
C797 C798 1.399 . S
C798 H784 0.929 . S
C798 C797 1.399 . S
C798 C799 1.385 . S
C799 H785 0.931 . S
C799 C798 1.385 . S
C799 C800 1.389 . S
C800 C799 1.389 . S
C800 C801 1.387 . S
C801 H786 0.930 . S
C801 C796 1.390 . S
C801 C800 1.387 . S
H802 C814 0.930 . S
H803 C816 0.930 . S
H804 C817 0.930 . S
H805 C821 0.959 . S
H806 C821 0.959 . S
H807 C821 0.961 . S
H808 C822 0.960 . S
H809 C822 0.961 . S
H810 C822 0.959 1_565 S
H811 C825 0.929 . S
H812 C826 0.931 . S
H813 C828 0.930 . S
C814 H802 0.930 . S
C814 C815 1.399 . S
C814 C819 1.399 . S
C815 C814 1.399 . S
C815 C816 1.376 . S
C816 H803 0.930 . S
C816 C815 1.376 . S
C816 C817 1.388 . S
C817 H804 0.930 . S
C817 C816 1.388 . S
C817 C818 1.390 . S
C818 C817 1.390 . S
C818 C819 1.394 . S
C818 C824 1.465 . S
C819 C814 1.399 . S
C819 C818 1.394 . S
C819 C820 1.516 1_565 S
C820 C819 1.516 1_545 S
C820 C821 1.502 . S
C820 C822 1.561 . S
C820 C823 1.526 . S
C821 H805 0.959 . S
C821 H806 0.959 . S
C821 H807 0.961 . S
C821 C820 1.502 . S
C822 H808 0.960 . S
C822 H809 0.961 . S
C822 H810 0.959 1_545 S
C822 C820 1.561 . S
C823 C820 1.526 . S
C823 C824 1.396 1_545 S
C823 C828 1.390 . S
C824 C818 1.465 . S
C824 C823 1.396 1_565 S
C824 C825 1.399 . S
C825 H811 0.929 . S
C825 C824 1.399 . S
C825 C826 1.385 1_565 S
C826 H812 0.931 . S
C826 C825 1.385 1_545 S
C826 C827 1.389 . S
C827 C826 1.389 . S
C827 C828 1.387 . S
C828 H813 0.930 . S
C828 C823 1.390 . S
C828 C827 1.387 . S
H829 C841 0.930 . S
H830 C843 0.930 . S
H831 C844 0.930 . S
H832 C848 0.959 . S
H833 C848 0.959 . S
H834 C848 0.961 . S
H835 C849 0.960 1_545 S
H836 C849 0.961 . S
H837 C849 0.959 . S
H838 C852 0.929 1_455 S
H839 C853 0.931 . S
H840 C855 0.930 . S
C841 H829 0.930 . S
C841 C842 1.399 . S
C841 C846 1.399 . S
C842 C841 1.399 . S
C842 C843 1.376 . S
C843 H830 0.930 . S
C843 C842 1.376 . S
C843 C844 1.388 . S
C844 H831 0.930 . S
C844 C843 1.388 . S
C844 C845 1.390 . S
C845 C844 1.390 . S
C845 C846 1.394 . S
C845 C851 1.465 1_445 S
C846 C841 1.399 . S
C846 C845 1.394 . S
C846 C847 1.516 1_455 S
C847 C846 1.516 1_655 S
C847 C848 1.502 . S
C847 C849 1.561 1_645 S
C847 C850 1.526 1_545 S
C848 H832 0.959 . S
C848 H833 0.959 . S
C848 H834 0.961 . S
C848 C847 1.502 . S
C849 H835 0.960 1_565 S
C849 H836 0.961 . S
C849 H837 0.959 . S
C849 C847 1.561 1_465 S
C850 C847 1.526 1_565 S
C850 C851 1.396 . S
C850 C855 1.390 . S
C851 C845 1.465 1_665 S
C851 C850 1.396 . S
C851 C852 1.399 . S
C852 H838 0.929 1_655 S
C852 C851 1.399 . S
C852 C853 1.385 . S
C853 H839 0.931 . S
C853 C852 1.385 . S
C853 C854 1.389 . S
C854 C853 1.389 . S
C854 C855 1.387 . S
C855 H840 0.930 . S
C855 C850 1.390 . S
C855 C854 1.387 . S
H856 C868 0.930 . S
H857 C870 0.930 . S
H858 C871 0.930 . S
H859 C875 0.959 . S
H860 C875 0.959 . S
H861 C875 0.961 . S
H862 C876 0.960 . S
H863 C876 0.961 . S
H864 C876 0.959 . S
H865 C879 0.930 . S
H866 C880 0.931 . S
H867 C882 0.930 . S
C868 H856 0.930 . S
C868 C869 1.399 . S
C868 C873 1.399 . S
C869 C868 1.399 . S
C869 C870 1.376 . S
C870 H857 0.930 . S
C870 C869 1.376 . S
C870 C871 1.388 . S
C871 H858 0.930 . S
C871 C870 1.388 . S
C871 C872 1.390 . S
C872 C871 1.390 . S
C872 C873 1.394 . S
C872 C878 1.465 . S
C873 C868 1.399 . S
C873 C872 1.394 . S
C873 C874 1.516 1_565 S
C874 C873 1.516 1_545 S
C874 C875 1.502 . S
C874 C876 1.561 1_545 S
C874 C877 1.526 . S
C875 H859 0.959 . S
C875 H860 0.959 . S
C875 H861 0.961 . S
C875 C874 1.502 . S
C876 H862 0.960 . S
C876 H863 0.961 . S
C876 H864 0.959 . S
C876 C874 1.561 1_565 S
C877 C874 1.526 . S
C877 C878 1.396 1_545 S
C877 C882 1.390 . S
C878 C872 1.465 . S
C878 C877 1.396 1_565 S
C878 C879 1.399 . S
C879 H865 0.930 . S
C879 C878 1.399 . S
C879 C880 1.384 1_565 S
C880 H866 0.931 . S
C880 C879 1.384 1_545 S
C880 C881 1.389 . S
C881 C880 1.389 . S
C881 C882 1.387 . S
C882 H867 0.930 . S
C882 C877 1.390 . S
C882 C881 1.387 . S
H883 C895 0.930 . S
H884 C897 0.930 . S
H885 C898 0.930 . S
H886 C902 0.959 . S
H887 C902 0.959 . S
H888 C902 0.961 . S
H889 C903 0.960 . S
H890 C903 0.961 1_545 S
H891 C903 0.959 1_645 S
H892 C906 0.929 . S
H893 C907 0.931 . S
H894 C909 0.930 . S
C895 H883 0.930 . S
C895 C896 1.399 . S
C895 C900 1.399 . S
C896 C895 1.399 . S
C896 C897 1.376 . S
C897 H884 0.930 . S
C897 C896 1.376 . S
C897 C898 1.388 . S
C898 H885 0.930 . S
C898 C897 1.388 . S
C898 C899 1.390 . S
C899 C898 1.390 . S
C899 C900 1.394 . S
C899 C905 1.465 1_565 S
C900 C895 1.399 . S
C900 C899 1.394 . S
C900 C901 1.516 1_655 S
C901 C900 1.516 1_455 S
C901 C902 1.502 . S
C901 C903 1.561 . S
C901 C904 1.526 1_565 S
C902 H886 0.959 . S
C902 H887 0.959 . S
C902 H888 0.961 . S
C902 C901 1.502 . S
C903 H889 0.960 . S
C903 H890 0.961 1_565 S
C903 H891 0.959 1_465 S
C903 C901 1.561 . S
C904 C901 1.526 1_545 S
C904 C905 1.396 1_455 S
C904 C909 1.390 . S
C905 C899 1.465 1_545 S
C905 C904 1.396 1_655 S
C905 C906 1.399 . S
C906 H892 0.929 . S
C906 C905 1.399 . S
C906 C907 1.385 1_655 S
C907 H893 0.931 . S
C907 C906 1.385 1_455 S
C907 C908 1.389 . S
C908 C907 1.389 . S
C908 C909 1.387 . S
C909 H894 0.930 . S
C909 C904 1.390 . S
C909 C908 1.387 . S
H910 C922 0.930 . S
H911 C924 0.930 . S
H912 C925 0.930 . S
H913 C929 0.959 . S
H914 C929 0.959 . S
H915 C929 0.961 . S
H916 C930 0.960 . S
H917 C930 0.961 1_655 S
H918 C930 0.959 1_655 S
H919 C933 0.929 . S
H920 C934 0.931 . S
H921 C936 0.930 . S
C922 H910 0.930 . S
C922 C923 1.399 . S
C922 C927 1.399 . S
C923 C922 1.399 . S
C923 C924 1.376 . S
C924 H911 0.930 . S
C924 C923 1.376 . S
C924 C925 1.388 . S
C925 H912 0.930 . S
C925 C924 1.388 . S
C925 C926 1.390 . S
C926 C925 1.390 . S
C926 C927 1.394 . S
C926 C932 1.465 1_455 S
C927 C922 1.399 . S
C927 C926 1.394 . S
C927 C928 1.516 . S
C928 C927 1.516 . S
C928 C929 1.502 . S
C928 C930 1.561 . S
C928 C931 1.526 1_455 S
C929 H913 0.959 . S
C929 H914 0.959 . S
C929 H915 0.961 . S
C929 C928 1.502 . S
C930 H916 0.960 . S
C930 H917 0.961 1_455 S
C930 H918 0.959 1_455 S
C930 C928 1.561 . S
C931 C928 1.526 1_655 S
C931 C932 1.396 . S
C931 C936 1.390 . S
C932 C926 1.465 1_655 S
C932 C931 1.396 . S
C932 C933 1.399 . S
C933 H919 0.929 . S
C933 C932 1.399 . S
C933 C934 1.385 . S
C934 H920 0.931 . S
C934 C933 1.385 . S
C934 C935 1.389 . S
C935 C934 1.389 . S
C935 C936 1.387 . S
C936 H921 0.930 . S
C936 C931 1.390 . S
C936 C935 1.387 . S
H937 C949 0.930 . S
H938 C951 0.930 . S
H939 C952 0.930 . S
H940 C956 0.959 . S
H941 C956 0.959 . S
H942 C956 0.961 . S
H943 C957 0.960 . S
H944 C957 0.961 . S
H945 C957 0.959 . S
H946 C960 0.929 . S
H947 C961 0.931 . S
H948 C963 0.930 . S
C949 H937 0.930 . S
C949 C950 1.399 . S
C949 C954 1.399 . S
C950 C949 1.399 . S
C950 C951 1.376 . S
C951 H938 0.930 . S
C951 C950 1.376 . S
C951 C952 1.388 . S
C952 H939 0.930 . S
C952 C951 1.388 . S
C952 C953 1.390 . S
C953 C952 1.390 . S
C953 C954 1.394 . S
C953 C959 1.465 . S
C954 C949 1.399 . S
C954 C953 1.394 . S
C954 C955 1.516 . S
C955 C954 1.516 . S
C955 C956 1.502 . S
C955 C957 1.561 . S
C955 C958 1.526 . S
C956 H940 0.959 . S
C956 H941 0.959 . S
C956 H942 0.961 . S
C956 C955 1.502 . S
C957 H943 0.960 . S
C957 H944 0.961 . S
C957 H945 0.959 . S
C957 C955 1.561 . S
C958 C955 1.526 . S
C958 C959 1.396 . S
C958 C963 1.390 . S
C959 C953 1.465 . S
C959 C958 1.396 . S
C959 C960 1.399 . S
C960 H946 0.929 . S
C960 C959 1.399 . S
C960 C961 1.385 . S
C961 H947 0.931 . S
C961 C960 1.385 . S
C961 C962 1.389 . S
C962 C961 1.389 . S
C962 C963 1.387 . S
C963 H948 0.930 . S
C963 C958 1.390 . S
C963 C962 1.387 . S
H964 C976 0.930 . S
H965 C978 0.930 . S
H966 C979 0.930 . S
H967 C983 0.959 . S
H968 C983 0.959 . S
H969 C983 0.961 . S
H970 C984 0.960 . S
H971 C984 0.961 . S
H972 C984 0.959 . S
H973 C987 0.929 . S
H974 C988 0.931 . S
H975 C990 0.930 . S
C976 H964 0.930 . S
C976 C977 1.399 . S
C976 C981 1.399 . S
C977 C976 1.399 . S
C977 C978 1.376 . S
C978 H965 0.930 . S
C978 C977 1.376 . S
C978 C979 1.388 . S
C979 H966 0.930 . S
C979 C978 1.388 . S
C979 C980 1.390 . S
C980 C979 1.390 . S
C980 C981 1.394 . S
C980 C986 1.465 . S
C981 C976 1.399 . S
C981 C980 1.394 . S
C981 C982 1.516 . S
C982 C981 1.516 . S
C982 C983 1.502 . S
C982 C984 1.561 . S
C982 C985 1.526 . S
C983 H967 0.959 . S
C983 H968 0.959 . S
C983 H969 0.961 . S
C983 C982 1.502 . S
C984 H970 0.960 . S
C984 H971 0.961 . S
C984 H972 0.959 . S
C984 C982 1.561 . S
C985 C982 1.526 . S
C985 C986 1.396 . S
C985 C990 1.390 . S
C986 C980 1.465 . S
C986 C985 1.396 . S
C986 C987 1.399 . S
C987 H973 0.929 . S
C987 C986 1.399 . S
C987 C988 1.385 . S
C988 H974 0.931 . S
C988 C987 1.385 . S
C988 C989 1.389 . S
C989 C988 1.389 . S
C989 C990 1.387 . S
C990 H975 0.930 . S
C990 C985 1.390 . S
C990 C989 1.387 . S
H991 C1003 0.930 . S
H992 C1005 0.930 . S
H993 C1006 0.930 . S
H994 C1010 0.959 . S
H995 C1010 0.959 . S
H996 C1010 0.961 . S
H997 C1011 0.960 . S
H998 C1011 0.961 . S
H999 C1011 0.959 . S
H1000 C1014 0.929 . S
H1001 C1015 0.931 . S
H1002 C1017 0.930 . S
C1003 H991 0.930 . S
C1003 C1004 1.399 . S
C1003 C1008 1.399 . S
C1004 C1003 1.399 . S
C1004 C1005 1.376 . S
C1005 H992 0.930 . S
C1005 C1004 1.376 . S
C1005 C1006 1.388 . S
C1006 H993 0.930 . S
C1006 C1005 1.388 . S
C1006 C1007 1.390 . S
C1007 C1006 1.390 . S
C1007 C1008 1.394 . S
C1007 C1013 1.465 1_545 S
C1008 C1003 1.399 . S
C1008 C1007 1.394 . S
C1008 C1009 1.516 . S
C1009 C1008 1.516 . S
C1009 C1010 1.502 . S
C1009 C1011 1.561 . S
C1009 C1012 1.526 1_545 S
C1010 H994 0.959 . S
C1010 H995 0.959 . S
C1010 H996 0.961 . S
C1010 C1009 1.502 . S
C1011 H997 0.960 . S
C1011 H998 0.961 . S
C1011 H999 0.959 . S
C1011 C1009 1.561 . S
C1012 C1009 1.526 1_565 S
C1012 C1013 1.396 . S
C1012 C1017 1.390 . S
C1013 C1007 1.465 1_565 S
C1013 C1012 1.396 . S
C1013 C1014 1.399 . S
C1014 H1000 0.929 . S
C1014 C1013 1.399 . S
C1014 C1015 1.385 . S
C1015 H1001 0.931 . S
C1015 C1014 1.385 . S
C1015 C1016 1.389 . S
C1016 C1015 1.389 . S
C1016 C1017 1.387 . S
C1017 H1002 0.930 . S
C1017 C1012 1.390 . S
C1017 C1016 1.387 . S
H1018 C1030 0.930 . S
H1019 C1032 0.930 . S
H1020 C1033 0.930 1_545 S
H1021 C1037 0.959 . S
H1022 C1037 0.959 . S
H1023 C1037 0.961 1_655 S
H1024 C1038 0.960 . S
H1025 C1038 0.961 1_455 S
H1026 C1038 0.959 . S
H1027 C1041 0.929 . S
H1028 C1042 0.931 . S
H1029 C1044 0.930 . S
C1030 H1018 0.930 . S
C1030 C1031 1.399 . S
C1030 C1035 1.399 . S
C1031 C1030 1.399 . S
C1031 C1032 1.376 . S
C1032 H1019 0.930 . S
C1032 C1031 1.376 . S
C1032 C1033 1.388 . S
C1033 H1020 0.930 1_565 S
C1033 C1032 1.388 . S
C1033 C1034 1.390 . S
C1034 C1033 1.390 . S
C1034 C1035 1.394 . S
C1034 C1040 1.465 1_665 S
C1035 C1030 1.399 . S
C1035 C1034 1.394 . S
C1035 C1036 1.516 1_655 S
C1036 C1035 1.516 1_455 S
C1036 C1037 1.502 . S
C1036 C1038 1.561 1_465 S
C1036 C1039 1.526 1_565 S
C1037 H1021 0.959 . S
C1037 H1022 0.959 . S
C1037 H1023 0.961 1_455 S
C1037 C1036 1.502 . S
C1038 H1024 0.960 . S
C1038 H1025 0.961 1_655 S
C1038 H1026 0.959 . S
C1038 C1036 1.561 1_645 S
C1039 C1036 1.526 1_545 S
C1039 C1040 1.396 . S
C1039 C1044 1.390 . S
C1040 C1034 1.465 1_445 S
C1040 C1039 1.396 . S
C1040 C1041 1.399 . S
C1041 H1027 0.929 . S
C1041 C1040 1.399 . S
C1041 C1042 1.385 . S
C1042 H1028 0.931 . S
C1042 C1041 1.385 . S
C1042 C1043 1.389 . S
C1043 C1042 1.389 . S
C1043 C1044 1.387 . S
C1044 H1029 0.930 . S
C1044 C1039 1.390 . S
C1044 C1043 1.387 . S
H1045 C1057 0.930 . S
H1046 C1059 0.930 . S
H1047 C1060 0.930 . S
H1048 C1064 0.959 . S
H1049 C1064 0.959 . S
H1050 C1064 0.961 . S
H1051 C1065 0.960 . S
H1052 C1065 0.961 . S
H1053 C1065 0.959 . S
H1054 C1068 0.929 1_655 S
H1055 C1069 0.931 . S
H1056 C1071 0.930 . S
C1057 H1045 0.930 . S
C1057 C1058 1.399 . S
C1057 C1062 1.399 . S
C1058 C1057 1.399 . S
C1058 C1059 1.376 . S
C1059 H1046 0.930 . S
C1059 C1058 1.376 . S
C1059 C1060 1.388 . S
C1060 H1047 0.930 . S
C1060 C1059 1.388 . S
C1060 C1061 1.390 . S
C1061 C1060 1.390 . S
C1061 C1062 1.394 . S
C1061 C1067 1.465 1_655 S
C1062 C1057 1.399 . S
C1062 C1061 1.394 . S
C1062 C1063 1.516 1_655 S
C1063 C1062 1.516 1_455 S
C1063 C1064 1.502 . S
C1063 C1065 1.561 1_455 S
C1063 C1066 1.526 . S
C1064 H1048 0.959 . S
C1064 H1049 0.959 . S
C1064 H1050 0.961 . S
C1064 C1063 1.502 . S
C1065 H1051 0.960 . S
C1065 H1052 0.961 . S
C1065 H1053 0.959 . S
C1065 C1063 1.561 1_655 S
C1066 C1063 1.526 . S
C1066 C1067 1.396 . S
C1066 C1071 1.390 . S
C1067 C1061 1.465 1_455 S
C1067 C1066 1.396 . S
C1067 C1068 1.399 . S
C1068 H1054 0.929 1_455 S
C1068 C1067 1.399 . S
C1068 C1069 1.385 . S
C1069 H1055 0.931 . S
C1069 C1068 1.385 . S
C1069 C1070 1.389 . S
C1070 C1069 1.389 . S
C1070 C1071 1.387 . S
C1071 H1056 0.930 . S
C1071 C1066 1.390 . S
C1071 C1070 1.387 . S
C221 C62 1.554 . S
C233 C10 1.554 . S
C248 C17 1.554 . S
C260 C69 1.554 . S
C275 C88 1.562 . S
C287 C36 1.562 . S
C302 C101 1.560 . S
C314 C43 1.560 . S
C329 C160 1.554 . S
C341 C108 1.554 . S
C356 C127 1.555 . S
C368 C173 1.555 . S
C383 C192 1.559 . S
C395 C140 1.560 . S
C410 C147 1.563 . S
C422 C205 1.564 . S
C437 C3 1.525 . S
C449 C198 1.533 . S
C464 C18 1.525 . S
C476 C161 1.523 . S
C491 C29 1.534 . S
C503 C174 1.526 . S
C518 C185 1.538 . S
C530 C44 1.537 . S
C545 C55 1.527 . S
C557 C120 1.535 . S
C572 C70 1.537 . S
C584 C133 1.538 . S
C599 C148 1.523 . S
C611 C81 1.527 . S
C626 C109 1.525 . S
C638 C94 1.534 . S
C653 C4 1.561 . S
C665 C134 1.574 . S
C680 C153 1.576 . S
C692 C23 1.567 . S
C707 C30 1.577 . S
C719 C114 1.564 . S
C734 C121 1.562 . S
C746 C49 1.573 . S
C761 C56 1.560 . S
C773 C186 1.575 . S
C788 C75 1.576 . S
C800 C199 1.566 . S
C815 C166 1.578 . S
C827 C82 1.563 . S
C842 C179 1.576 . S
C854 C95 1.566 . S
C869 C135 1.436 . S
C881 C5 1.440 . S
C896 C16 1.437 . S
C908 C146 1.441 . S
C923 C31 1.437 . S
C935 C107 1.442 . S
C950 C122 1.443 . S
C962 C42 1.443 . S
C977 C187 1.442 . S
C989 C57 1.444 . S
C1004 C200 1.437 . S
C1016 C68 1.442 . S
C1031 C159 1.444 . S
C1043 C83 1.442 . S
C1058 C96 1.437 . S
C1070 C172 1.439 . S
