# Generated by pormake.
# Topology uoc, (4)-cn, num edge types: 1
# Building blocks:
#     Node 0, Type 0, BuildingBlock: NAHDIM_clean_sbu_0, # of connection points: 4
#     Node 1, Type 0, BuildingBlock: NAHDIM_clean_sbu_0, # of connection points: 4
#     Node 2, Type 0, BuildingBlock: NAHDIM_clean_sbu_0, # of connection points: 4
#     Node 3, Type 0, BuildingBlock: NAHDIM_clean_sbu_0, # of connection points: 4
#     Node 4, Type 0, BuildingBlock: NAHDIM_clean_sbu_0, # of connection points: 4
#     Node 5, Type 0, BuildingBlock: NAHDIM_clean_sbu_0, # of connection points: 4
#     Node 6, Type 0, BuildingBlock: NAHDIM_clean_sbu_0, # of connection points: 4
#     Node 7, Type 0, BuildingBlock: NAHDIM_clean_sbu_0, # of connection points: 4
#     Edge 8, Type (0, 0), BuildingBlock: FUNLAD_clean_linker_1, # of connection points: 2
#     Edge 9, Type (0, 0), BuildingBlock: FUNLAD_clean_linker_1, # of connection points: 2
#     Edge 10, Type (0, 0), BuildingBlock: FUNLAD_clean_linker_1, # of connection points: 2
#     Edge 11, Type (0, 0), BuildingBlock: FUNLAD_clean_linker_1, # of connection points: 2
#     Edge 12, Type (0, 0), BuildingBlock: FUNLAD_clean_linker_1, # of connection points: 2
#     Edge 13, Type (0, 0), BuildingBlock: FUNLAD_clean_linker_1, # of connection points: 2
#     Edge 14, Type (0, 0), BuildingBlock: FUNLAD_clean_linker_1, # of connection points: 2
#     Edge 15, Type (0, 0), BuildingBlock: FUNLAD_clean_linker_1, # of connection points: 2
#     Edge 16, Type (0, 0), BuildingBlock: FUNLAD_clean_linker_1, # of connection points: 2
#     Edge 17, Type (0, 0), BuildingBlock: FUNLAD_clean_linker_1, # of connection points: 2
#     Edge 18, Type (0, 0), BuildingBlock: FUNLAD_clean_linker_1, # of connection points: 2
#     Edge 19, Type (0, 0), BuildingBlock: FUNLAD_clean_linker_1, # of connection points: 2
#     Edge 20, Type (0, 0), BuildingBlock: FUNLAD_clean_linker_1, # of connection points: 2
#     Edge 21, Type (0, 0), BuildingBlock: FUNLAD_clean_linker_1, # of connection points: 2
#     Edge 22, Type (0, 0), BuildingBlock: FUNLAD_clean_linker_1, # of connection points: 2
#     Edge 23, Type (0, 0), BuildingBlock: FUNLAD_clean_linker_1, # of connection points: 2
# Relax obj value: 0.201
# Max RMSD: 0.198
# Mean RMSD: 0.198
data_MOF--net-uoc--node1-NAHDIM_clean_sbu_0--edge1-FUNLAD_clean_linker_1
_symmetry_space_group_name_H-M    P1
_symmetry_Int_Tables_number       1
_symmetry_cell_setting            triclinic
loop_
_symmetry_equiv_pos_as_xyz
'x, y, z'
_cell_length_a     28.208992
_cell_length_b     28.479298
_cell_length_c     54.024449
_cell_angle_alpha  90.065772
_cell_angle_beta   90.097122
_cell_angle_gamma 94.282502
loop_
_atom_site_label
_atom_site_type_symbol
_atom_site_fract_x
_atom_site_fract_y
_atom_site_fract_z
_atom_type_partial_charge
C0 C 0.10269 0.35236 0.13376 0.0
O1 O 0.14498 0.36124 0.14368 0.0
O2 O 0.16828 0.25322 0.09555 0.0
Zn3 Zn 0.13237 0.25785 0.12726 0.0
O4 O 0.17651 0.26519 0.15626 0.0
C5 C 0.10272 0.15986 0.12324 0.0
O6 O 0.14492 0.15793 0.11319 0.0
O7 O 0.09046 0.31149 0.12558 0.0
C8 C 0.2158 0.24615 0.15739 0.0
O9 O 0.22936 0.22085 0.13874 0.0
C10 C 0.19002 0.28751 0.08437 0.0
O11 O 0.1909 0.33012 0.09378 0.0
O12 O 0.08989 0.19886 0.13116 0.0
C13 C 0.84087 0.5669 0.36756 0.0
O14 O 0.85323 0.61117 0.36232 0.0
O15 O 0.76385 0.65336 0.39016 0.0
Zn16 Zn 0.74991 0.60202 0.36528 0.0
O17 O 0.75574 0.62649 0.33064 0.0
C18 C 0.65208 0.59608 0.38072 0.0
O19 O 0.66232 0.64026 0.3869 0.0
O20 O 0.79718 0.55358 0.36988 0.0
C21 C 0.72532 0.65086 0.32046 0.0
O22 O 0.68789 0.66216 0.33293 0.0
C23 C 0.78446 0.69399 0.38653 0.0
O24 O 0.79937 0.70628 0.3643 0.0
O25 O 0.68388 0.57256 0.37104 0.0
C26 C 0.42181 0.12046 0.62429 0.0
O27 O 0.37759 0.11072 0.61719 0.0
O28 O 0.35291 0.20852 0.59806 0.0
Zn29 Zn 0.39164 0.21405 0.62929 0.0
O30 O 0.35066 0.20986 0.6596 0.0
C31 C 0.41941 0.31085 0.61698 0.0
O32 O 0.37838 0.30863 0.60532 0.0
O33 O 0.43573 0.16223 0.63039 0.0
C34 C 0.32883 0.2439 0.66794 0.0
O35 O 0.33175 0.28448 0.6563 0.0
C36 C 0.30783 0.20722 0.59689 0.0
O37 O 0.28275 0.20822 0.61728 0.0
O38 O 0.43189 0.27524 0.62874 0.0
C39 C 0.61492 0.89783 0.89101 0.0
O40 O 0.61415 0.8533 0.89732 0.0
O41 O 0.71541 0.8336 0.90291 0.0
Zn42 Zn 0.71046 0.88233 0.87637 0.0
O43 O 0.70207 0.85143 0.84312 0.0
C44 C 0.80854 0.91373 0.88517 0.0
O45 O 0.81048 0.8704 0.89322 0.0
O46 O 0.65278 0.91831 0.8822 0.0
C47 C 0.73585 0.84186 0.82896 0.0
O48 O 0.78013 0.85176 0.83589 0.0
C49 C 0.70432 0.78979 0.90018 0.0
O50 O 0.68765 0.77367 0.87887 0.0
O51 O 0.76954 0.92697 0.87687 0.0
C52 C 0.61312 0.82559 0.60788 0.0
O53 O 0.65393 0.83235 0.61959 0.0
O54 O 0.68171 0.72821 0.56979 0.0
Zn55 Zn 0.64272 0.73174 0.60054 0.0
O56 O 0.68501 0.74072 0.63034 0.0
C57 C 0.61075 0.63274 0.59744 0.0
O58 O 0.65324 0.62798 0.58827 0.0
O59 O 0.6014 0.7859 0.59809 0.0
C60 C 0.66915 0.72758 0.65136 0.0
O61 O 0.62622 0.70652 0.65305 0.0
C62 C 0.70548 0.76378 0.56084 0.0
O63 O 0.70564 0.80474 0.57205 0.0
O64 O 0.59916 0.67311 0.60393 0.0
C65 C 0.33625 0.11244 0.86805 0.0
O66 O 0.33513 0.15353 0.8572 0.0
O67 O 0.24157 0.17255 0.90705 0.0
Zn68 Zn 0.23884 0.12775 0.87832 0.0
O69 O 0.23434 0.16297 0.84641 0.0
C70 C 0.14265 0.0934 0.88939 0.0
O71 O 0.1393 0.13713 0.89655 0.0
O72 O 0.29891 0.09376 0.87827 0.0
C73 C 0.20873 0.19727 0.84295 0.0
O74 O 0.18257 0.21187 0.86106 0.0
C75 C 0.26531 0.2123 0.90661 0.0
O76 O 0.28854 0.22589 0.88653 0.0
O77 O 0.18199 0.08095 0.88122 0.0
C78 C 0.90928 0.64557 0.1232 0.0
O79 O 0.86849 0.63994 0.13492 0.0
O80 O 0.84397 0.74386 0.08178 0.0
Zn81 Zn 0.88045 0.73911 0.11335 0.0
O82 O 0.83623 0.73367 0.1423 0.0
C83 C 0.9103 0.83744 0.11225 0.0
O84 O 0.86661 0.8412 0.10443 0.0
O85 O 0.92095 0.68422 0.11239 0.0
C86 C 0.79601 0.75102 0.14287 0.0
O87 O 0.78116 0.77372 0.12356 0.0
C88 C 0.82378 0.70886 0.0704 0.0
O89 O 0.82604 0.66615 0.07926 0.0
O90 O 0.92407 0.79721 0.11736 0.0
C91 C 0.14904 0.39082 0.38113 0.0
O92 O 0.13926 0.34498 0.38057 0.0
O93 O 0.23212 0.31943 0.41322 0.0
Zn94 Zn 0.24313 0.36222 0.38408 0.0
O95 O 0.24126 0.32639 0.35196 0.0
C96 C 0.34081 0.38163 0.39938 0.0
O97 O 0.33489 0.33933 0.409 0.0
O98 O 0.19197 0.40726 0.38288 0.0
C99 C 0.27802 0.3212 0.339 0.0
O100 O 0.31997 0.33766 0.34705 0.0
C101 C 0.24032 0.27617 0.41329 0.0
O102 O 0.25485 0.25655 0.39295 0.0
O103 O 0.30655 0.39883 0.38806 0.0
H104 H 0.20751 0.24258 0.05329 0.0
C105 C 0.21074 0.2787 0.06005 0.0
H106 H 0.23221 0.34946 0.05127 0.0
H107 H 0.3187 0.1953 0.97072 0.0
H108 H 0.37114 0.17586 0.00435 0.0
H109 H 0.36673 0.21474 0.04506 0.0
H110 H 0.30951 0.27308 0.05242 0.0
C111 C 0.23029 0.31288 0.0454 0.0
C112 C 0.2434 0.30092 0.01963 0.0
C113 C 0.27815 0.26839 0.01538 0.0
C114 C 0.28114 0.24658 0.99186 0.0
C115 C 0.31497 0.21289 0.9883 0.0
C116 C 0.34534 0.20155 0.0074 0.0
C117 C 0.34283 0.22341 0.03033 0.0
C118 C 0.30971 0.25653 0.03437 0.0
H119 H 0.28683 0.27731 0.92749 0.0
C120 C 0.26748 0.24292 0.92862 0.0
H121 H 0.22859 0.19391 0.95152 0.0
H122 H 0.17966 0.36885 0.02047 0.0
H123 H 0.1307 0.39184 0.9862 0.0
H124 H 0.13587 0.35399 0.94528 0.0
H125 H 0.19004 0.29297 0.93839 0.0
C126 C 0.24674 0.2288 0.94993 0.0
C127 C 0.25013 0.25825 0.97257 0.0
C128 C 0.21901 0.29451 0.97603 0.0
C129 C 0.21586 0.31615 -0.00037 0.0
C130 C 0.18343 0.35125 0.00292 0.0
C131 C 0.15516 0.3648 0.98339 0.0
C132 C 0.15809 0.3435 0.96035 0.0
C133 C 0.1894 0.30857 0.95663 0.0
H134 H 0.76342 0.65291 0.2851 0.0
C135 C 0.73218 0.66447 0.29444 0.0
H136 H 0.67089 0.70268 0.29074 0.0
H137 H 0.78613 0.81016 0.20194 0.0
H138 H 0.78283 0.87325 0.23197 0.0
H139 H 0.74629 0.8584 0.27296 0.0
H140 H 0.71294 0.78014 0.28418 0.0
C141 C 0.70173 0.68947 0.28182 0.0
C142 C 0.71177 0.70103 0.25548 0.0
C143 C 0.72924 0.7472 0.24891 0.0
C144 C 0.74983 0.7558 0.22519 0.0
C145 C 0.76942 0.80175 0.21954 0.0
C146 C 0.76788 0.83827 0.23664 0.0
C147 C 0.74734 0.82991 0.25974 0.0
C148 C 0.72839 0.78489 0.26595 0.0
H149 H 0.73224 0.76167 0.16543 0.0
C150 C 0.76641 0.74639 0.16529 0.0
H151 H 0.81475 0.70765 0.18525 0.0
H152 H 0.67158 0.61125 0.2606 0.0
H153 H 0.67143 0.54858 0.22998 0.0
H154 H 0.70797 0.56307 0.18894 0.0
H155 H 0.74461 0.6403 0.17824 0.0
C156 C 0.78125 0.72417 0.18543 0.0
C157 C 0.75199 0.71818 0.20811 0.0
C158 C 0.73055 0.67302 0.21392 0.0
C159 C 0.71 0.66453 0.23759 0.0
C160 C 0.68858 0.61917 0.243 0.0
C161 C 0.68801 0.58305 0.22555 0.0
C162 C 0.70855 0.59122 0.20245 0.0
C163 C 0.72959 0.63563 0.19657 0.0
H164 H 0.24677 0.21756 0.57238 0.0
C165 C 0.28417 0.21075 0.57272 0.0
H166 H 0.34643 0.20437 0.55176 0.0
H167 H 0.17764 0.19499 0.46492 0.0
H168 H 0.14872 0.12046 0.48325 0.0
H169 H 0.18413 0.09234 0.52178 0.0
H170 H 0.24824 0.13881 0.54239 0.0
C171 C 0.3087 0.20984 0.55147 0.0
C172 C 0.2881 0.22497 0.52776 0.0
C173 C 0.25142 0.19677 0.51572 0.0
C174 C 0.23199 0.21226 0.49311 0.0
C175 C 0.19441 0.18426 0.48181 0.0
C176 C 0.17738 0.14153 0.49218 0.0
C177 C 0.19724 0.12575 0.51391 0.0
C178 C 0.23387 0.15287 0.52562 0.0
H179 H 0.26034 0.21824 0.4373 0.0
C180 C 0.24327 0.25122 0.43703 0.0
H181 H 0.21591 0.30521 0.45826 0.0
H182 H 0.35752 0.28804 0.54645 0.0
H183 H 0.38817 0.36095 0.52734 0.0
H184 H 0.3568 0.38619 0.48727 0.0
H185 H 0.2942 0.33892 0.46621 0.0
C186 C 0.23165 0.27151 0.45841 0.0
C187 C 0.2502 0.25522 0.48236 0.0
C188 C 0.28718 0.28321 0.4943 0.0
C189 C 0.30598 0.26817 0.51709 0.0
C190 C 0.34239 0.29723 0.52886 0.0
C191 C 0.3603 0.33932 0.51814 0.0
C192 C 0.34257 0.35357 0.49561 0.0
C193 C 0.30648 0.32605 0.48374 0.0
H194 H 0.68676 0.81424 0.79995 0.0
C195 C 0.72418 0.82159 0.80448 0.0
H196 H 0.79484 0.81954 0.79163 0.0
H197 H 0.72672 0.66423 0.71113 0.0
H198 H 0.77561 0.61942 0.73807 0.0
H199 H 0.80973 0.65442 0.77656 0.0
H200 H 0.79538 0.73445 0.78834 0.0
C201 C 0.75718 0.81357 0.78745 0.0
C202 C 0.74233 0.79481 0.76271 0.0
C203 C 0.75156 0.74824 0.75604 0.0
C204 C 0.73167 0.72796 0.73395 0.0
C205 C 0.74087 0.68119 0.72779 0.0
C206 C 0.76886 0.65513 0.74307 0.0
C207 C 0.78809 0.67485 0.76474 0.0
C208 C 0.77957 0.72081 0.77129 0.0
H209 H 0.72957 0.76335 0.67155 0.0
C210 C 0.69642 0.7417 0.67373 0.0
H211 H 0.64638 0.71075 0.69913 0.0
H212 H 0.72554 0.88791 0.7677 0.0
H213 H 0.67676 0.93269 0.7408 0.0
H214 H 0.6384 0.8961 0.70373 0.0
H215 H 0.64922 0.81489 0.69313 0.0
C216 C 0.67938 0.73235 0.69648 0.0
C217 C 0.70285 0.7544 0.71862 0.0
C218 C 0.69519 0.80165 0.72476 0.0
C219 C 0.71578 0.82219 0.74659 0.0
C220 C 0.70919 0.87002 0.75183 0.0
C221 C 0.68158 0.89624 0.73644 0.0
C222 C 0.66011 0.87569 0.71554 0.0
C223 C 0.66673 0.829 0.70965 0.0
H224 H 0.2361 0.29094 0.3078 0.0
C225 C 0.27203 0.30191 0.31386 0.0
H226 H 0.34386 0.31436 0.30306 0.0
H227 H 0.21752 0.189 0.21586 0.0
H228 H 0.21597 0.12442 0.24512 0.0
H229 H 0.25342 0.13498 0.28626 0.0
H230 H 0.2921 0.21066 0.29847 0.0
C231 C 0.30805 0.30168 0.29765 0.0
C232 C 0.29771 0.29145 0.27113 0.0
C233 C 0.27736 0.24656 0.26384 0.0
C234 C 0.25721 0.24013 0.23985 0.0
C235 C 0.23448 0.19566 0.2336 0.0
C236 C 0.23321 0.15827 0.25027 0.0
C237 C 0.25419 0.16423 0.27345 0.0
C238 C 0.276 0.20783 0.28028 0.0
H239 H 0.27763 0.23252 0.18087 0.0
C240 C 0.24501 0.2505 0.18002 0.0
H241 H 0.19929 0.29393 0.1988 0.0
H242 H 0.34089 0.38005 0.27805 0.0
H243 H 0.34735 0.44317 0.24787 0.0
H244 H 0.31408 0.43143 0.20585 0.0
H245 H 0.27398 0.35639 0.19381 0.0
C246 C 0.23117 0.27479 0.19968 0.0
C247 C 0.25897 0.27837 0.223 0.0
C248 C 0.28326 0.32195 0.22952 0.0
C249 C 0.3028 0.32853 0.25364 0.0
C250 C 0.32562 0.37295 0.25993 0.0
C251 C 0.3296 0.40952 0.24277 0.0
C252 C 0.31084 0.40292 0.21912 0.0
C253 C 0.28782 0.35976 0.21248 0.0
H254 H 0.72816 0.7237 0.5289 0.0
C255 C 0.72986 0.7587 0.53711 0.0
H256 H 0.75128 0.83083 0.5318 0.0
H257 H 0.8518 0.68901 0.44997 0.0
H258 H 0.90317 0.67023 0.48426 0.0
H259 H 0.89378 0.70603 0.52545 0.0
H260 H 0.83274 0.7607 0.5326 0.0
C261 C 0.75089 0.7952 0.52456 0.0
C262 C 0.76772 0.78722 0.49897 0.0
C263 C 0.80452 0.75696 0.49491 0.0
C264 C 0.8101 0.7367 0.4712 0.0
C265 C 0.84598 0.70514 0.46776 0.0
C266 C 0.87575 0.69427 0.48722 0.0
C267 C 0.87046 0.71442 0.51042 0.0
C268 C 0.83526 0.74544 0.51433 0.0
H269 H 0.80707 0.76266 0.40396 0.0
C270 C 0.79055 0.72755 0.4073 0.0
H271 H 0.75969 0.67971 0.43355 0.0
H272 H 0.70192 0.85297 0.49954 0.0
H273 H 0.65367 0.87544 0.46481 0.0
H274 H 0.66226 0.83934 0.42366 0.0
H275 H 0.71919 0.78087 0.41696 0.0
C276 C 0.77497 0.71524 0.43001 0.0
C277 C 0.77919 0.74724 0.45165 0.0
C278 C 0.74649 0.7822 0.45493 0.0
C279 C 0.74113 0.80263 0.47868 0.0
C280 C 0.70718 0.83628 0.48186 0.0
C281 C 0.67935 0.8495 0.46209 0.0
C282 C 0.68421 0.82919 0.43892 0.0
C283 C 0.71712 0.7957 0.4353 0.0
H284 H 0.30295 0.20337 0.7003 0.0
C285 C 0.3025 0.23746 0.69126 0.0
H286 H 0.2808 0.30679 0.69408 0.0
H287 H 0.16722 0.16131 0.77704 0.0
H288 H 0.12321 0.12803 0.7416 0.0
H289 H 0.14043 0.1578 0.69941 0.0
H290 H 0.20209 0.22081 0.69241 0.0
C291 C 0.28033 0.27195 0.70228 0.0
C292 C 0.26017 0.26393 0.72745 0.0
C293 C 0.22296 0.22845 0.73128 0.0
C294 C 0.21259 0.21183 0.75557 0.0
C295 C 0.17647 0.17515 0.75888 0.0
C296 C 0.15089 0.15591 0.73874 0.0
C297 C 0.16062 0.17264 0.71498 0.0
C298 C 0.1962 0.20853 0.71119 0.0
H299 H 0.1893 0.25227 0.81663 0.0
C300 C 0.20967 0.22164 0.8189 0.0
H301 H 0.25577 0.17599 0.80201 0.0
H302 H 0.32694 0.33883 0.72671 0.0
H303 H 0.36735 0.37536 0.76234 0.0
H304 H 0.34926 0.34655 0.80459 0.0
H305 H 0.2906 0.28108 0.81147 0.0
C306 C 0.2359 0.20705 0.8001 0.0
C307 C 0.2388 0.23145 0.77591 0.0
C308 C 0.27231 0.27043 0.77237 0.0
C309 C 0.28284 0.28693 0.74803 0.0
C310 C 0.31759 0.32492 0.74482 0.0
C311 C 0.34101 0.34621 0.76511 0.0
C312 C 0.33081 0.33 0.7889 0.0
C313 C 0.29705 0.29242 0.7926 0.0
H314 H 0.79772 0.75379 0.04124 0.0
C315 C 0.79912 0.71735 0.04706 0.0
H316 H 0.78269 0.64599 0.03718 0.0
H317 H 0.65566 0.78829 0.96817 0.0
H318 H 0.60751 0.79405 0.00517 0.0
H319 H 0.62801 0.75358 0.04369 0.0
H320 H 0.69698 0.7072 0.04543 0.0
C321 C 0.78019 0.68277 0.0324 0.0
C322 C 0.76005 0.69528 0.00808 0.0
C323 C 0.71898 0.72093 0.00716 0.0
C324 C 0.70702 0.74387 0.98495 0.0
C325 C 0.66648 0.77036 0.98467 0.0
C326 C 0.63847 0.77379 0.00573 0.0
C327 C 0.65003 0.75102 0.02742 0.0
C328 C 0.68977 0.7248 0.02823 0.0
H329 H 0.70106 0.7197 0.91805 0.0
C330 C 0.71075 0.757 0.92078 0.0
H331 H 0.73758 0.80981 0.94562 0.0
H332 H 0.83543 0.6412 0.0027 0.0
H333 H 0.88188 0.63256 0.96536 0.0
H334 H 0.86235 0.67364 0.9269 0.0
H335 H 0.79625 0.72329 0.92546 0.0
C336 C 0.72906 0.77242 0.94251 0.0
C337 C 0.73586 0.74054 0.96369 0.0
C338 C 0.77433 0.71118 0.96395 0.0
C339 C 0.78607 0.68803 0.98619 0.0
C340 C 0.82523 0.65972 0.98628 0.0
C341 C 0.85212 0.65445 0.965 0.0
C342 C 0.84108 0.67754 0.94333 0.0
C343 C 0.80287 0.70583 0.94274 0.0
H344 H 0.03416 0.12179 0.13227 0.0
C345 C 0.06889 0.11809 0.12409 0.0
H346 H 0.11258 0.07286 0.10515 0.0
H347 H 0.9393 0.93212 0.15665 0.0
H348 H 0.97438 0.95651 0.19606 0.0
H349 H 0.04208 0.01649 0.19797 0.0
H350 H 0.07447 0.053 0.16051 0.0
C351 C 0.0788 0.07667 0.11429 0.0
C352 C 0.04187 0.03674 0.11317 0.0
C353 C 0.02476 0.01444 0.13521 0.0
C354 C 0.98727 0.97832 0.13402 0.0
C355 C 0.96903 0.95839 0.15639 0.0
C356 C 0.98862 0.9723 0.17917 0.0
C357 C 0.02661 0.00618 0.18024 0.0
C358 C 0.04464 0.0271 0.15859 0.0
H359 H 0.97978 0.87375 0.12122 0.0
C360 C 0.94402 0.87903 0.11477 0.0
H361 H 0.89743 0.92845 0.10186 0.0
H362 H 0.06651 0.07243 0.06747 0.0
H363 H 0.03325 0.04608 0.02798 0.0
H364 H 0.97036 0.98119 0.02582 0.0
H365 H 0.94008 0.94252 0.06317 0.0
C366 C 0.93242 0.92257 0.10916 0.0
C367 C 0.96861 0.96308 0.11072 0.0
C368 C 0.98596 0.98512 0.08869 0.0
C369 C 0.02264 0.02205 0.08992 0.0
C370 C 0.03903 0.04383 0.06763 0.0
C371 C 0.02021 0.02909 0.04481 0.0
C372 C 0.98477 0.99259 0.0436 0.0
C373 C 0.96771 0.97072 0.0652 0.0
H374 H 0.12128 0.46095 0.3785 0.0
C375 C 0.11115 0.42337 0.37899 0.0
H376 H 0.05392 0.37086 0.3784 0.0
H377 H 0.91798 0.52746 0.41581 0.0
H378 H 0.93167 0.48863 0.4548 0.0
H379 H 0.98915 0.42767 0.45771 0.0
H380 H 0.0336 0.40552 0.42163 0.0
C381 C 0.06509 0.40815 0.37736 0.0
C382 C 0.02803 0.4422 0.37504 0.0
C383 C 0.00138 0.45369 0.39609 0.0
C384 C 0.96751 0.48806 0.39427 0.0
C385 C 0.94304 0.50053 0.4159 0.0
C386 C 0.95082 0.47874 0.43847 0.0
C387 C 0.98323 0.44449 0.44013 0.0
C388 C 0.00847 0.43208 0.41927 0.0
H389 H 0.86509 0.49624 0.37463 0.0
C390 C 0.87698 0.53267 0.37071 0.0
H391 H 0.93605 0.58116 0.36422 0.0
H392 H 0.07148 0.42609 0.33087 0.0
H393 H 0.05733 0.46419 0.29166 0.0
H394 H 0.99822 0.5235 0.28835 0.0
H395 H 0.9529 0.54507 0.3242 0.0
C396 C 0.92366 0.54521 0.36888 0.0
C397 C 0.95955 0.50985 0.37117 0.0
C398 C 0.98602 0.49807 0.35007 0.0
C399 C 0.0202 0.46404 0.35198 0.0
C400 C 0.04554 0.45221 0.33052 0.0
C401 C 0.03763 0.47366 0.30788 0.0
C402 C 0.00434 0.50704 0.30601 0.0
C403 C 0.97864 0.51916 0.32677 0.0
H404 H 0.48713 0.35207 0.6242 0.0
C405 C 0.45222 0.35339 0.61577 0.0
H406 H 0.40664 0.39433 0.59528 0.0
H407 H 0.58276 0.54086 0.64192 0.0
H408 H 0.55115 0.51876 0.68228 0.0
H409 H 0.48321 0.45951 0.68633 0.0
H410 H 0.44735 0.42123 0.65006 0.0
C411 C 0.44088 0.39291 0.60439 0.0
C412 C 0.47643 0.43394 0.60193 0.0
C413 C 0.49519 0.45781 0.62327 0.0
C414 C 0.53245 0.49395 0.62084 0.0
C415 C 0.55288 0.5148 0.64257 0.0
C416 C 0.5353 0.5022 0.6659 0.0
C417 C 0.49721 0.4687 0.66819 0.0
C418 C 0.47722 0.44669 0.6472 0.0
H419 H 0.54131 0.59826 0.60796 0.0
C420 C 0.57597 0.59202 0.60035 0.0
H421 H 0.61928 0.5413 0.58577 0.0
H422 H 0.44749 0.39619 0.55723 0.0
H423 H 0.4754 0.42192 0.51668 0.0
H424 H 0.53691 0.48763 0.51236 0.0
H425 H 0.57105 0.5278 0.54855 0.0
C426 C 0.58548 0.54808 0.59416 0.0
C427 C 0.54872 0.50822 0.59697 0.0
C428 C 0.52892 0.48538 0.5756 0.0
C429 C 0.49289 0.44804 0.57808 0.0
C430 C 0.47437 0.42525 0.55643 0.0
C431 C 0.49017 0.43959 0.53302 0.0
C432 C 0.52482 0.47656 0.53059 0.0
C433 C 0.54414 0.49928 0.55154 0.0
H434 H 0.53971 0.9036 0.90071 0.0
C435 C 0.57095 0.92244 0.89271 0.0
H436 H 0.59788 0.9843 0.87439 0.0
H437 H 0.39289 0.02215 0.83382 0.0
H438 H 0.42982 0.99446 0.79662 0.0
H439 H 0.50909 0.9634 0.79822 0.0
H440 H 0.55171 0.95954 0.83709 0.0
C441 C 0.56764 0.96582 0.88348 0.0
C442 C 0.52117 0.98711 0.88258 0.0
C443 C 0.49731 0.99026 0.8596 0.0
C444 C 0.45203 0.00901 0.8586 0.0
C445 C 0.42802 0.00969 0.83556 0.0
C446 C 0.44865 0.99354 0.81407 0.0
C447 C 0.49324 0.97599 0.81497 0.0
C448 C 0.51736 0.97407 0.83742 0.0
H449 H 0.4119 0.1066 0.85944 0.0
C450 C 0.38104 0.08899 0.86844 0.0
H451 H 0.35495 0.02999 0.88937 0.0
H452 H 0.55879 0.98854 0.92937 0.0
H453 H 0.52205 0.01647 0.96662 0.0
H454 H 0.44344 0.04896 0.96495 0.0
H455 H 0.40115 0.05379 0.92602 0.0
C456 C 0.38496 0.04732 0.87956 0.0
C457 C 0.43133 0.02572 0.88054 0.0
C458 C 0.45518 0.02247 0.90353 0.0
C459 C 0.50031 0.00338 0.90454 0.0
C460 C 0.52401 0.00183 0.92762 0.0
C461 C 0.50344 0.01799 0.94913 0.0
C462 C 0.4592 0.03632 0.94819 0.0
C463 C 0.43527 0.03878 0.92571 0.0
H464 H 0.9771 0.61614 0.11427 0.0
C465 C 0.9429 0.60855 0.12325 0.0
H466 H 0.89991 0.55909 0.14397 0.0
H467 H 0.07357 0.4439 0.09152 0.0
H468 H 0.03792 0.4625 0.05222 0.0
H469 H 0.96888 0.51075 0.05053 0.0
H470 H 0.93599 0.54162 0.08809 0.0
C471 C 0.93327 0.5667 0.13423 0.0
C472 C 0.96977 0.53166 0.13533 0.0
C473 C 0.98675 0.51172 0.11326 0.0
C474 C 0.02459 0.48155 0.11435 0.0
C475 C 0.04327 0.46501 0.0919 0.0
C476 C 0.02338 0.47573 0.06917 0.0
C477 C 0.98468 0.50307 0.06821 0.0
C478 C 0.9664 0.52091 0.08992 0.0
H479 H 0.03354 0.3788 0.12463 0.0
C480 C 0.0687 0.3889 0.13206 0.0
H481 H 0.11391 0.44415 0.14719 0.0
H482 H 0.94533 0.56365 0.18112 0.0
H483 H 0.97835 0.54177 0.22055 0.0
H484 H 0.04089 0.48581 0.22258 0.0
H485 H 0.07116 0.45178 0.18516 0.0
C486 C 0.07947 0.43362 0.13909 0.0
C487 C 0.04318 0.46881 0.13762 0.0
C488 C 0.02564 0.48805 0.1597 0.0
C489 C 0.98901 0.51967 0.15855 0.0
C490 C 0.97268 0.53898 0.18088 0.0
C491 C 0.99136 0.52677 0.20367 0.0
C492 C 0.02661 0.4953 0.20482 0.0
C493 C 0.04368 0.47605 0.18317 0.0
H494 H 0.41742 0.38879 0.40782 0.0
C495 C 0.38827 0.40679 0.39995 0.0
H496 H 0.36826 0.46756 0.38146 0.0
H497 H 0.58595 0.52541 0.42724 0.0
H498 H 0.5498 0.51661 0.46779 0.0
H499 H 0.46529 0.48875 0.47222 0.0
H500 H 0.41666 0.46905 0.43606 0.0
C501 C 0.39681 0.44983 0.3901 0.0
C502 C 0.44616 0.47147 0.38769 0.0
C503 C 0.47341 0.48474 0.40901 0.0
C504 C 0.52154 0.50269 0.40643 0.0
C505 C 0.54874 0.51328 0.42806 0.0
C506 C 0.52849 0.50809 0.45149 0.0
C507 C 0.48097 0.49228 0.45398 0.0
C508 C 0.45355 0.48078 0.43306 0.0
H509 H 0.57725 0.59662 0.39234 0.0
C510 C 0.60365 0.57462 0.38481 0.0
H511 H 0.61694 0.50723 0.37126 0.0
H512 H 0.40373 0.44926 0.34302 0.0
H513 H 0.43917 0.46064 0.30245 0.0
H514 H 0.52163 0.49493 0.29793 0.0
H515 H 0.56924 0.51765 0.334 0.0
C516 C 0.59136 0.5293 0.37948 0.0
C517 C 0.5416 0.50918 0.3825 0.0
C518 C 0.51412 0.4966 0.36119 0.0
C519 C 0.46637 0.4776 0.36379 0.0
C520 C 0.43998 0.46451 0.34218 0.0
C521 C 0.45991 0.47076 0.31874 0.0
C522 C 0.50634 0.49 0.3162 0.0
C523 C 0.5333 0.50283 0.33709 0.0
H524 H 0.49173 0.09376 0.63158 0.0
C525 C 0.45587 0.08385 0.62506 0.0
H526 H 0.40946 0.02916 0.61021 0.0
H527 H 0.58784 0.92718 0.56993 0.0
H528 H 0.55855 0.9593 0.53179 0.0
H529 H 0.49314 0.01216 0.53231 0.0
H530 H 0.45694 0.03351 0.57104 0.0
C531 C 0.44451 0.03949 0.61766 0.0
C532 C 0.48107 0.00462 0.6174 0.0
C533 C 0.50082 0.99145 0.59456 0.0
C534 C 0.53775 0.96014 0.59422 0.0
C535 C 0.55853 0.94946 0.57123 0.0
C536 C 0.54233 0.96799 0.54919 0.0
C537 C 0.50558 -0.00218 0.54949 0.0
C538 C 0.48507 0.00972 0.57185 0.0
H539 H 0.54551 0.85456 0.59786 0.0
C540 C 0.5798 0.8628 0.6067 0.0
H541 H 0.62342 0.91404 0.62607 0.0
H542 H 0.44882 0.02081 0.66423 0.0
H543 H 0.47796 0.98865 0.70243 0.0
H544 H 0.54207 0.93426 0.70188 0.0
H545 H 0.57728 0.91164 0.66318 0.0
C546 C 0.58994 0.90568 0.61649 0.0
C547 C 0.55376 0.941 0.61671 0.0
C548 C 0.5341 0.95434 0.63957 0.0
C549 C 0.49747 0.98599 0.63991 0.0
C550 C 0.47744 -0.00232 0.66293 0.0
C551 C 0.49364 0.97925 0.685 0.0
C552 C 0.52969 0.94859 0.68469 0.0
C553 C 0.54967 0.93599 0.66231 0.0
H554 H 0.84804 0.9823 0.8783 0.0
C555 C 0.85117 0.94696 0.88541 0.0
H556 H 0.89665 0.90015 0.90186 0.0
H557 H 0.04422 0.06522 0.84945 0.0
H558 H 0.01301 0.03458 0.81036 0.0
H559 H 0.94744 0.97224 0.80924 0.0
H560 H 0.91213 0.94089 0.84719 0.0
C561 C 0.89331 0.93483 0.89396 0.0
C562 C 0.93572 0.96919 0.89447 0.0
C563 C 0.95723 0.9857 0.87208 0.0
C564 C 0.99653 0.02 0.87276 0.0
C565 C 0.01558 0.03781 0.85009 0.0
C566 C 0.9978 0.02074 0.82749 0.0
C567 C 0.96078 0.98578 0.82685 0.0
C568 C 0.94061 0.96832 0.84881 0.0
H569 H 0.10518 0.02365 0.88296 0.0
C570 C 0.10083 0.05915 0.88957 0.0
H571 H 0.05285 0.10577 0.90398 0.0
H572 H 0.90331 0.94432 0.94075 0.0
H573 H 0.93667 0.97259 0.9799 0.0
H574 H 0.00669 0.02988 0.98108 0.0
H575 H 0.04364 0.05948 0.94308 0.0
C576 C 0.05768 0.07085 0.89672 0.0
C577 C 0.01565 0.03606 0.89584 0.0
C578 C 0.99463 0.01898 0.91821 0.0
C579 C 0.95461 0.98552 0.91753 0.0
C580 C 0.93405 0.96939 0.94017 0.0
C581 C 0.95281 0.98538 0.96279 0.0
C582 C 0.9922 0.01767 0.96345 0.0
C583 C 0.01302 0.03441 0.94149 0.0
loop_
_geom_bond_atom_site_label_1
_geom_bond_atom_site_label_2
_geom_bond_distance
_geom_bond_site_symmetry_2
_ccdc_geom_bond_type
C0 O1 1.160 . S
C0 O7 1.185 . S
O1 C0 1.160 . S
O2 Zn3 1.899 . S
O2 C10 1.284 . S
Zn3 O2 1.899 . S
Zn3 O4 2.032 . S
Zn3 O7 2.086 . S
Zn3 O12 1.977 . S
O4 Zn3 2.032 . S
O4 C8 1.278 . S
C5 O6 1.203 . S
C5 O12 1.267 . S
O6 C5 1.203 . S
O7 C0 1.185 . S
O7 Zn3 2.086 . S
C8 O4 1.278 . S
C8 O9 1.211 . S
O9 C8 1.211 . S
C10 O2 1.284 . S
C10 O11 1.273 . S
O11 C10 1.273 . S
O12 Zn3 1.977 . S
O12 C5 1.267 . S
C13 O14 1.160 . S
C13 O20 1.185 . S
O14 C13 1.160 . S
O15 Zn16 1.899 . S
O15 C23 1.284 . S
Zn16 O15 1.899 . S
Zn16 O17 2.032 . S
Zn16 O20 2.086 . S
Zn16 O25 1.977 . S
O17 Zn16 2.032 . S
O17 C21 1.278 . S
C18 O19 1.203 . S
C18 O25 1.267 . S
O19 C18 1.203 . S
O20 C13 1.185 . S
O20 Zn16 2.086 . S
C21 O17 1.278 . S
C21 O22 1.211 . S
O22 C21 1.211 . S
C23 O15 1.284 . S
C23 O24 1.273 . S
O24 C23 1.273 . S
O25 Zn16 1.977 . S
O25 C18 1.267 . S
C26 O27 1.160 . S
C26 O33 1.185 . S
O27 C26 1.160 . S
O28 Zn29 1.899 . S
O28 C36 1.284 . S
Zn29 O28 1.899 . S
Zn29 O30 2.032 . S
Zn29 O33 2.086 . S
Zn29 O38 1.977 . S
O30 Zn29 2.032 . S
O30 C34 1.278 . S
C31 O32 1.203 . S
C31 O38 1.267 . S
O32 C31 1.203 . S
O33 C26 1.185 . S
O33 Zn29 2.086 . S
C34 O30 1.278 . S
C34 O35 1.211 . S
O35 C34 1.211 . S
C36 O28 1.284 . S
C36 O37 1.273 . S
O37 C36 1.273 . S
O38 Zn29 1.977 . S
O38 C31 1.267 . S
C39 O40 1.160 . S
C39 O46 1.185 . S
O40 C39 1.160 . S
O41 Zn42 1.899 . S
O41 C49 1.284 . S
Zn42 O41 1.899 . S
Zn42 O43 2.032 . S
Zn42 O46 2.086 . S
Zn42 O51 1.977 . S
O43 Zn42 2.032 . S
O43 C47 1.278 . S
C44 O45 1.203 . S
C44 O51 1.267 . S
O45 C44 1.203 . S
O46 C39 1.185 . S
O46 Zn42 2.086 . S
C47 O43 1.278 . S
C47 O48 1.211 . S
O48 C47 1.211 . S
C49 O41 1.284 . S
C49 O50 1.273 . S
O50 C49 1.273 . S
O51 Zn42 1.977 . S
O51 C44 1.267 . S
C52 O53 1.160 . S
C52 O59 1.185 . S
O53 C52 1.160 . S
O54 Zn55 1.899 . S
O54 C62 1.284 . S
Zn55 O54 1.899 . S
Zn55 O56 2.032 . S
Zn55 O59 2.086 . S
Zn55 O64 1.977 . S
O56 Zn55 2.032 . S
O56 C60 1.278 . S
C57 O58 1.203 . S
C57 O64 1.267 . S
O58 C57 1.203 . S
O59 C52 1.185 . S
O59 Zn55 2.086 . S
C60 O56 1.278 . S
C60 O61 1.211 . S
O61 C60 1.211 . S
C62 O54 1.284 . S
C62 O63 1.273 . S
O63 C62 1.273 . S
O64 Zn55 1.977 . S
O64 C57 1.267 . S
C65 O66 1.160 . S
C65 O72 1.185 . S
O66 C65 1.160 . S
O67 Zn68 1.899 . S
O67 C75 1.284 . S
Zn68 O67 1.899 . S
Zn68 O69 2.032 . S
Zn68 O72 2.086 . S
Zn68 O77 1.977 . S
O69 Zn68 2.032 . S
O69 C73 1.278 . S
C70 O71 1.203 . S
C70 O77 1.267 . S
O71 C70 1.203 . S
O72 C65 1.185 . S
O72 Zn68 2.086 . S
C73 O69 1.278 . S
C73 O74 1.211 . S
O74 C73 1.211 . S
C75 O67 1.284 . S
C75 O76 1.273 . S
O76 C75 1.273 . S
O77 Zn68 1.977 . S
O77 C70 1.267 . S
C78 O79 1.160 . S
C78 O85 1.185 . S
O79 C78 1.160 . S
O80 Zn81 1.899 . S
O80 C88 1.284 . S
Zn81 O80 1.899 . S
Zn81 O82 2.032 . S
Zn81 O85 2.086 . S
Zn81 O90 1.977 . S
O82 Zn81 2.032 . S
O82 C86 1.278 . S
C83 O84 1.203 . S
C83 O90 1.267 . S
O84 C83 1.203 . S
O85 C78 1.185 . S
O85 Zn81 2.086 . S
C86 O82 1.278 . S
C86 O87 1.211 . S
O87 C86 1.211 . S
C88 O80 1.284 . S
C88 O89 1.273 . S
O89 C88 1.273 . S
O90 Zn81 1.977 . S
O90 C83 1.267 . S
C91 O92 1.160 . S
C91 O98 1.185 . S
O92 C91 1.160 . S
O93 Zn94 1.899 . S
O93 C101 1.284 . S
Zn94 O93 1.899 . S
Zn94 O95 2.032 . S
Zn94 O98 2.086 . S
Zn94 O103 1.977 . S
O95 Zn94 2.032 . S
O95 C99 1.278 . S
C96 O97 1.203 . S
C96 O103 1.267 . S
O97 C96 1.203 . S
O98 C91 1.185 . S
O98 Zn94 2.086 . S
C99 O95 1.278 . S
C99 O100 1.211 . S
O100 C99 1.211 . S
C101 O93 1.284 . S
C101 O102 1.273 . S
O102 C101 1.273 . S
O103 Zn94 1.977 . S
O103 C96 1.267 . S
H104 C105 0.951 . S
C105 H104 0.951 . S
C105 C111 1.265 . S
H106 C111 0.950 . S
H107 C115 0.949 . S
H108 C116 0.950 . S
H109 C117 0.951 . S
H110 C118 0.951 . S
C111 C105 1.265 . S
C111 H106 0.950 . S
C111 C112 1.478 . S
C112 C111 1.478 . S
C112 C113 1.397 . S
C112 C129 1.394 . S
C113 C112 1.397 . S
C113 C114 1.438 1_554 S
C113 C118 1.429 . S
C114 C113 1.438 1_556 S
C114 C115 1.428 . S
C114 C127 1.394 . S
C115 H107 0.949 . S
C115 C114 1.428 . S
C115 C116 1.345 . S
C116 H108 0.950 . S
C116 C115 1.345 . S
C116 C117 1.424 1_556 S
C117 H109 0.951 . S
C117 C116 1.424 1_554 S
C117 C118 1.347 . S
C118 H110 0.951 . S
C118 C113 1.429 . S
C118 C117 1.347 . S
H119 C120 0.951 . S
C120 H119 0.951 . S
C120 C126 1.265 . S
H121 C126 0.950 . S
H122 C130 0.949 . S
H123 C131 0.950 . S
H124 C132 0.951 . S
H125 C133 0.951 . S
C126 C120 1.265 . S
C126 H121 0.950 . S
C126 C127 1.478 . S
C127 C114 1.394 . S
C127 C126 1.478 . S
C127 C128 1.397 . S
C128 C127 1.397 . S
C128 C129 1.438 1_556 S
C128 C133 1.429 . S
C129 C112 1.394 . S
C129 C128 1.438 1_554 S
C129 C130 1.428 . S
C130 H122 0.949 . S
C130 C129 1.428 . S
C130 C131 1.345 . S
C131 H123 0.950 . S
C131 C130 1.345 . S
C131 C132 1.424 1_554 S
C132 H124 0.951 . S
C132 C131 1.424 1_556 S
C132 C133 1.347 . S
C133 H125 0.951 . S
C133 C128 1.429 . S
C133 C132 1.347 . S
H134 C135 0.951 . S
C135 H134 0.951 . S
C135 C141 1.265 . S
H136 C141 0.950 . S
H137 C145 0.949 . S
H138 C146 0.950 . S
H139 C147 0.951 . S
H140 C148 0.951 . S
C141 C135 1.265 . S
C141 H136 0.950 . S
C141 C142 1.478 . S
C142 C141 1.478 . S
C142 C143 1.397 . S
C142 C159 1.394 . S
C143 C142 1.397 . S
C143 C144 1.438 . S
C143 C148 1.429 . S
C144 C143 1.438 . S
C144 C145 1.428 . S
C144 C157 1.394 . S
C145 H137 0.949 . S
C145 C144 1.428 . S
C145 C146 1.345 . S
C146 H138 0.950 . S
C146 C145 1.345 . S
C146 C147 1.424 . S
C147 H139 0.951 . S
C147 C146 1.424 . S
C147 C148 1.347 . S
C148 H140 0.951 . S
C148 C143 1.429 . S
C148 C147 1.347 . S
H149 C150 0.951 . S
C150 H149 0.951 . S
C150 C156 1.265 . S
H151 C156 0.950 . S
H152 C160 0.949 . S
H153 C161 0.950 . S
H154 C162 0.951 . S
H155 C163 0.951 . S
C156 C150 1.265 . S
C156 H151 0.950 . S
C156 C157 1.478 . S
C157 C144 1.394 . S
C157 C156 1.478 . S
C157 C158 1.397 . S
C158 C157 1.397 . S
C158 C159 1.438 . S
C158 C163 1.429 . S
C159 C142 1.394 . S
C159 C158 1.438 . S
C159 C160 1.428 . S
C160 H152 0.949 . S
C160 C159 1.428 . S
C160 C161 1.345 . S
C161 H153 0.950 . S
C161 C160 1.345 . S
C161 C162 1.424 . S
C162 H154 0.951 . S
C162 C161 1.424 . S
C162 C163 1.347 . S
C163 H155 0.951 . S
C163 C158 1.429 . S
C163 C162 1.347 . S
H164 C165 0.951 . S
C165 H164 0.951 . S
C165 C171 1.265 . S
H166 C171 0.950 . S
H167 C175 0.949 . S
H168 C176 0.950 . S
H169 C177 0.951 . S
H170 C178 0.951 . S
C171 C165 1.265 . S
C171 H166 0.950 . S
C171 C172 1.478 . S
C172 C171 1.478 . S
C172 C173 1.397 . S
C172 C189 1.394 . S
C173 C172 1.397 . S
C173 C174 1.438 . S
C173 C178 1.429 . S
C174 C173 1.438 . S
C174 C175 1.428 . S
C174 C187 1.394 . S
C175 H167 0.949 . S
C175 C174 1.428 . S
C175 C176 1.345 . S
C176 H168 0.950 . S
C176 C175 1.345 . S
C176 C177 1.424 . S
C177 H169 0.951 . S
C177 C176 1.424 . S
C177 C178 1.347 . S
C178 H170 0.951 . S
C178 C173 1.429 . S
C178 C177 1.347 . S
H179 C180 0.951 . S
C180 H179 0.951 . S
C180 C186 1.265 . S
H181 C186 0.950 . S
H182 C190 0.949 . S
H183 C191 0.950 . S
H184 C192 0.951 . S
H185 C193 0.951 . S
C186 C180 1.265 . S
C186 H181 0.950 . S
C186 C187 1.478 . S
C187 C174 1.394 . S
C187 C186 1.478 . S
C187 C188 1.397 . S
C188 C187 1.397 . S
C188 C189 1.438 . S
C188 C193 1.429 . S
C189 C172 1.394 . S
C189 C188 1.438 . S
C189 C190 1.428 . S
C190 H182 0.949 . S
C190 C189 1.428 . S
C190 C191 1.345 . S
C191 H183 0.950 . S
C191 C190 1.345 . S
C191 C192 1.424 . S
C192 H184 0.951 . S
C192 C191 1.424 . S
C192 C193 1.347 . S
C193 H185 0.951 . S
C193 C188 1.429 . S
C193 C192 1.347 . S
H194 C195 0.951 . S
C195 H194 0.951 . S
C195 C201 1.265 . S
H196 C201 0.950 . S
H197 C205 0.949 . S
H198 C206 0.950 . S
H199 C207 0.951 . S
H200 C208 0.951 . S
C201 C195 1.265 . S
C201 H196 0.950 . S
C201 C202 1.478 . S
C202 C201 1.478 . S
C202 C203 1.397 . S
C202 C219 1.394 . S
C203 C202 1.397 . S
C203 C204 1.438 . S
C203 C208 1.429 . S
C204 C203 1.438 . S
C204 C205 1.428 . S
C204 C217 1.394 . S
C205 H197 0.949 . S
C205 C204 1.428 . S
C205 C206 1.345 . S
C206 H198 0.950 . S
C206 C205 1.345 . S
C206 C207 1.424 . S
C207 H199 0.951 . S
C207 C206 1.424 . S
C207 C208 1.347 . S
C208 H200 0.951 . S
C208 C203 1.429 . S
C208 C207 1.347 . S
H209 C210 0.951 . S
C210 H209 0.951 . S
C210 C216 1.265 . S
H211 C216 0.950 . S
H212 C220 0.949 . S
H213 C221 0.950 . S
H214 C222 0.951 . S
H215 C223 0.951 . S
C216 C210 1.265 . S
C216 H211 0.950 . S
C216 C217 1.478 . S
C217 C204 1.394 . S
C217 C216 1.478 . S
C217 C218 1.397 . S
C218 C217 1.397 . S
C218 C219 1.438 . S
C218 C223 1.429 . S
C219 C202 1.394 . S
C219 C218 1.438 . S
C219 C220 1.428 . S
C220 H212 0.949 . S
C220 C219 1.428 . S
C220 C221 1.345 . S
C221 H213 0.950 . S
C221 C220 1.345 . S
C221 C222 1.424 . S
C222 H214 0.951 . S
C222 C221 1.424 . S
C222 C223 1.347 . S
C223 H215 0.951 . S
C223 C218 1.429 . S
C223 C222 1.347 . S
H224 C225 0.951 . S
C225 H224 0.951 . S
C225 C231 1.265 . S
H226 C231 0.950 . S
H227 C235 0.949 . S
H228 C236 0.950 . S
H229 C237 0.951 . S
H230 C238 0.951 . S
C231 C225 1.265 . S
C231 H226 0.950 . S
C231 C232 1.478 . S
C232 C231 1.478 . S
C232 C233 1.397 . S
C232 C249 1.394 . S
C233 C232 1.397 . S
C233 C234 1.438 . S
C233 C238 1.429 . S
C234 C233 1.438 . S
C234 C235 1.428 . S
C234 C247 1.394 . S
C235 H227 0.949 . S
C235 C234 1.428 . S
C235 C236 1.345 . S
C236 H228 0.950 . S
C236 C235 1.345 . S
C236 C237 1.424 . S
C237 H229 0.951 . S
C237 C236 1.424 . S
C237 C238 1.347 . S
C238 H230 0.951 . S
C238 C233 1.429 . S
C238 C237 1.347 . S
H239 C240 0.951 . S
C240 H239 0.951 . S
C240 C246 1.265 . S
H241 C246 0.950 . S
H242 C250 0.949 . S
H243 C251 0.950 . S
H244 C252 0.951 . S
H245 C253 0.951 . S
C246 C240 1.265 . S
C246 H241 0.950 . S
C246 C247 1.478 . S
C247 C234 1.394 . S
C247 C246 1.478 . S
C247 C248 1.397 . S
C248 C247 1.397 . S
C248 C249 1.438 . S
C248 C253 1.429 . S
C249 C232 1.394 . S
C249 C248 1.438 . S
C249 C250 1.428 . S
C250 H242 0.949 . S
C250 C249 1.428 . S
C250 C251 1.345 . S
C251 H243 0.950 . S
C251 C250 1.345 . S
C251 C252 1.424 . S
C252 H244 0.951 . S
C252 C251 1.424 . S
C252 C253 1.347 . S
C253 H245 0.951 . S
C253 C248 1.429 . S
C253 C252 1.347 . S
H254 C255 0.951 . S
C255 H254 0.951 . S
C255 C261 1.265 . S
H256 C261 0.950 . S
H257 C265 0.949 . S
H258 C266 0.950 . S
H259 C267 0.951 . S
H260 C268 0.951 . S
C261 C255 1.265 . S
C261 H256 0.950 . S
C261 C262 1.478 . S
C262 C261 1.478 . S
C262 C263 1.397 . S
C262 C279 1.394 . S
C263 C262 1.397 . S
C263 C264 1.438 . S
C263 C268 1.429 . S
C264 C263 1.438 . S
C264 C265 1.428 . S
C264 C277 1.394 . S
C265 H257 0.949 . S
C265 C264 1.428 . S
C265 C266 1.345 . S
C266 H258 0.950 . S
C266 C265 1.345 . S
C266 C267 1.424 . S
C267 H259 0.951 . S
C267 C266 1.424 . S
C267 C268 1.347 . S
C268 H260 0.951 . S
C268 C263 1.429 . S
C268 C267 1.347 . S
H269 C270 0.951 . S
C270 H269 0.951 . S
C270 C276 1.265 . S
H271 C276 0.950 . S
H272 C280 0.949 . S
H273 C281 0.950 . S
H274 C282 0.951 . S
H275 C283 0.951 . S
C276 C270 1.265 . S
C276 H271 0.950 . S
C276 C277 1.478 . S
C277 C264 1.394 . S
C277 C276 1.478 . S
C277 C278 1.397 . S
C278 C277 1.397 . S
C278 C279 1.438 . S
C278 C283 1.429 . S
C279 C262 1.394 . S
C279 C278 1.438 . S
C279 C280 1.428 . S
C280 H272 0.949 . S
C280 C279 1.428 . S
C280 C281 1.345 . S
C281 H273 0.950 . S
C281 C280 1.345 . S
C281 C282 1.424 . S
C282 H274 0.951 . S
C282 C281 1.424 . S
C282 C283 1.347 . S
C283 H275 0.951 . S
C283 C278 1.429 . S
C283 C282 1.347 . S
H284 C285 0.951 . S
C285 H284 0.951 . S
C285 C291 1.265 . S
H286 C291 0.950 . S
H287 C295 0.949 . S
H288 C296 0.950 . S
H289 C297 0.951 . S
H290 C298 0.951 . S
C291 C285 1.265 . S
C291 H286 0.950 . S
C291 C292 1.478 . S
C292 C291 1.478 . S
C292 C293 1.397 . S
C292 C309 1.394 . S
C293 C292 1.397 . S
C293 C294 1.438 . S
C293 C298 1.429 . S
C294 C293 1.438 . S
C294 C295 1.428 . S
C294 C307 1.394 . S
C295 H287 0.949 . S
C295 C294 1.428 . S
C295 C296 1.345 . S
C296 H288 0.950 . S
C296 C295 1.345 . S
C296 C297 1.424 . S
C297 H289 0.951 . S
C297 C296 1.424 . S
C297 C298 1.347 . S
C298 H290 0.951 . S
C298 C293 1.429 . S
C298 C297 1.347 . S
H299 C300 0.951 . S
C300 H299 0.951 . S
C300 C306 1.265 . S
H301 C306 0.950 . S
H302 C310 0.949 . S
H303 C311 0.950 . S
H304 C312 0.951 . S
H305 C313 0.951 . S
C306 C300 1.265 . S
C306 H301 0.950 . S
C306 C307 1.478 . S
C307 C294 1.394 . S
C307 C306 1.478 . S
C307 C308 1.397 . S
C308 C307 1.397 . S
C308 C309 1.438 . S
C308 C313 1.429 . S
C309 C292 1.394 . S
C309 C308 1.438 . S
C309 C310 1.428 . S
C310 H302 0.949 . S
C310 C309 1.428 . S
C310 C311 1.345 . S
C311 H303 0.950 . S
C311 C310 1.345 . S
C311 C312 1.424 . S
C312 H304 0.951 . S
C312 C311 1.424 . S
C312 C313 1.347 . S
C313 H305 0.951 . S
C313 C308 1.429 . S
C313 C312 1.347 . S
H314 C315 0.951 . S
C315 H314 0.951 . S
C315 C321 1.265 . S
H316 C321 0.950 . S
H317 C325 0.949 . S
H318 C326 0.950 . S
H319 C327 0.951 . S
H320 C328 0.951 . S
C321 C315 1.265 . S
C321 H316 0.950 . S
C321 C322 1.478 . S
C322 C321 1.478 . S
C322 C323 1.397 . S
C322 C339 1.394 . S
C323 C322 1.397 . S
C323 C324 1.438 1_554 S
C323 C328 1.429 . S
C324 C323 1.438 1_556 S
C324 C325 1.428 . S
C324 C337 1.394 . S
C325 H317 0.949 . S
C325 C324 1.428 . S
C325 C326 1.345 . S
C326 H318 0.950 . S
C326 C325 1.345 . S
C326 C327 1.424 1_556 S
C327 H319 0.951 . S
C327 C326 1.424 1_554 S
C327 C328 1.347 . S
C328 H320 0.951 . S
C328 C323 1.429 . S
C328 C327 1.347 . S
H329 C330 0.951 . S
C330 H329 0.951 . S
C330 C336 1.265 . S
H331 C336 0.950 . S
H332 C340 0.949 . S
H333 C341 0.950 . S
H334 C342 0.951 . S
H335 C343 0.951 . S
C336 C330 1.265 . S
C336 H331 0.950 . S
C336 C337 1.478 . S
C337 C324 1.394 . S
C337 C336 1.478 . S
C337 C338 1.397 . S
C338 C337 1.397 . S
C338 C339 1.438 1_556 S
C338 C343 1.429 . S
C339 C322 1.394 . S
C339 C338 1.438 1_554 S
C339 C340 1.428 . S
C340 H332 0.949 . S
C340 C339 1.428 . S
C340 C341 1.345 . S
C341 H333 0.950 . S
C341 C340 1.345 . S
C341 C342 1.424 1_554 S
C342 H334 0.951 . S
C342 C341 1.424 1_556 S
C342 C343 1.347 . S
C343 H335 0.951 . S
C343 C338 1.429 . S
C343 C342 1.347 . S
H344 C345 0.951 . S
C345 H344 0.951 . S
C345 C351 1.265 . S
H346 C351 0.950 . S
H347 C355 0.949 . S
H348 C356 0.950 . S
H349 C357 0.951 1_545 S
H350 C358 0.951 . S
C351 C345 1.265 . S
C351 H346 0.950 . S
C351 C352 1.478 . S
C352 C351 1.478 . S
C352 C353 1.397 . S
C352 C369 1.394 . S
C353 C352 1.397 . S
C353 C354 1.438 1_445 S
C353 C358 1.429 . S
C354 C353 1.438 1_665 S
C354 C355 1.428 . S
C354 C367 1.394 . S
C355 H347 0.949 . S
C355 C354 1.428 . S
C355 C356 1.347 . S
C356 H348 0.950 . S
C356 C355 1.347 . S
C356 C357 1.421 1_655 S
C357 H349 0.951 1_565 S
C357 C356 1.421 1_455 S
C357 C358 1.347 1_565 S
C358 H350 0.951 . S
C358 C353 1.429 . S
C358 C357 1.347 1_545 S
H359 C360 0.951 . S
C360 H359 0.951 . S
C360 C366 1.265 . S
H361 C366 0.950 . S
H362 C370 0.949 . S
H363 C371 0.950 . S
H364 C372 0.951 1_565 S
H365 C373 0.951 . S
C366 C360 1.265 . S
C366 H361 0.950 . S
C366 C367 1.478 . S
C367 C354 1.394 . S
C367 C366 1.478 . S
C367 C368 1.397 . S
C368 C367 1.397 . S
C368 C369 1.438 1_665 S
C368 C373 1.429 . S
C369 C352 1.394 . S
C369 C368 1.438 1_445 S
C369 C370 1.428 . S
C370 H362 0.949 . S
C370 C369 1.428 . S
C370 C371 1.347 . S
C371 H363 0.950 . S
C371 C370 1.347 . S
C371 C372 1.421 1_455 S
C372 H364 0.951 1_545 S
C372 C371 1.421 1_655 S
C372 C373 1.347 1_545 S
C373 H365 0.951 . S
C373 C368 1.429 . S
C373 C372 1.347 1_565 S
H374 C375 0.951 . S
C375 H374 0.951 . S
C375 C381 1.265 . S
H376 C381 0.950 . S
H377 C385 0.949 . S
H378 C386 0.950 . S
H379 C387 0.951 . S
H380 C388 0.951 . S
C381 C375 1.265 . S
C381 H376 0.950 . S
C381 C382 1.478 . S
C382 C381 1.478 . S
C382 C383 1.397 . S
C382 C399 1.394 . S
C383 C382 1.397 . S
C383 C384 1.438 1_455 S
C383 C388 1.429 . S
C384 C383 1.438 1_655 S
C384 C385 1.428 . S
C384 C397 1.394 . S
C385 H377 0.949 . S
C385 C384 1.428 . S
C385 C386 1.345 . S
C386 H378 0.950 . S
C386 C385 1.345 . S
C386 C387 1.424 . S
C387 H379 0.951 . S
C387 C386 1.424 . S
C387 C388 1.347 1_655 S
C388 H380 0.951 . S
C388 C383 1.429 . S
C388 C387 1.347 1_455 S
H389 C390 0.951 . S
C390 H389 0.951 . S
C390 C396 1.265 . S
H391 C396 0.950 . S
H392 C400 0.949 . S
H393 C401 0.950 . S
H394 C402 0.951 . S
H395 C403 0.951 . S
C396 C390 1.265 . S
C396 H391 0.950 . S
C396 C397 1.478 . S
C397 C384 1.394 . S
C397 C396 1.478 . S
C397 C398 1.397 . S
C398 C397 1.397 . S
C398 C399 1.438 1_655 S
C398 C403 1.429 . S
C399 C382 1.394 . S
C399 C398 1.438 1_455 S
C399 C400 1.428 . S
C400 H392 0.949 . S
C400 C399 1.428 . S
C400 C401 1.345 . S
C401 H393 0.950 . S
C401 C400 1.345 . S
C401 C402 1.424 . S
C402 H394 0.951 . S
C402 C401 1.424 . S
C402 C403 1.347 1_455 S
C403 H395 0.951 . S
C403 C398 1.429 . S
C403 C402 1.347 1_655 S
H404 C405 0.951 . S
C405 H404 0.951 . S
C405 C411 1.265 . S
H406 C411 0.950 . S
H407 C415 0.949 . S
H408 C416 0.950 . S
H409 C417 0.951 . S
H410 C418 0.951 . S
C411 C405 1.265 . S
C411 H406 0.950 . S
C411 C412 1.478 . S
C412 C411 1.478 . S
C412 C413 1.397 . S
C412 C429 1.394 . S
C413 C412 1.397 . S
C413 C414 1.438 . S
C413 C418 1.429 . S
C414 C413 1.438 . S
C414 C415 1.428 . S
C414 C427 1.394 . S
C415 H407 0.949 . S
C415 C414 1.428 . S
C415 C416 1.345 . S
C416 H408 0.950 . S
C416 C415 1.345 . S
C416 C417 1.424 . S
C417 H409 0.951 . S
C417 C416 1.424 . S
C417 C418 1.347 . S
C418 H410 0.951 . S
C418 C413 1.429 . S
C418 C417 1.347 . S
H419 C420 0.951 . S
C420 H419 0.951 . S
C420 C426 1.265 . S
H421 C426 0.950 . S
H422 C430 0.949 . S
H423 C431 0.950 . S
H424 C432 0.951 . S
H425 C433 0.951 . S
C426 C420 1.265 . S
C426 H421 0.950 . S
C426 C427 1.478 . S
C427 C414 1.394 . S
C427 C426 1.478 . S
C427 C428 1.397 . S
C428 C427 1.397 . S
C428 C429 1.438 . S
C428 C433 1.429 . S
C429 C412 1.394 . S
C429 C428 1.438 . S
C429 C430 1.428 . S
C430 H422 0.949 . S
C430 C429 1.428 . S
C430 C431 1.345 . S
C431 H423 0.950 . S
C431 C430 1.345 . S
C431 C432 1.424 . S
C432 H424 0.951 . S
C432 C431 1.424 . S
C432 C433 1.347 . S
C433 H425 0.951 . S
C433 C428 1.429 . S
C433 C432 1.347 . S
H434 C435 0.951 . S
C435 H434 0.951 . S
C435 C441 1.265 . S
H436 C441 0.950 . S
H437 C445 0.949 . S
H438 C446 0.950 . S
H439 C447 0.951 1_565 S
H440 C448 0.951 . S
C441 C435 1.265 . S
C441 H436 0.950 . S
C441 C442 1.478 . S
C442 C441 1.478 . S
C442 C443 1.397 . S
C442 C459 1.394 . S
C443 C442 1.397 . S
C443 C444 1.438 1_565 S
C443 C448 1.429 . S
C444 C443 1.438 1_545 S
C444 C445 1.428 . S
C444 C457 1.394 . S
C445 H437 0.949 . S
C445 C444 1.428 . S
C445 C446 1.345 . S
C446 H438 0.950 . S
C446 C445 1.345 . S
C446 C447 1.424 . S
C447 H439 0.951 1_545 S
C447 C446 1.424 . S
C447 C448 1.347 1_545 S
C448 H440 0.951 . S
C448 C443 1.429 . S
C448 C447 1.347 1_565 S
H449 C450 0.951 . S
C450 H449 0.951 . S
C450 C456 1.265 . S
H451 C456 0.950 . S
H452 C460 0.949 . S
H453 C461 0.950 . S
H454 C462 0.951 1_545 S
H455 C463 0.951 . S
C456 C450 1.265 . S
C456 H451 0.950 . S
C456 C457 1.478 . S
C457 C444 1.394 . S
C457 C456 1.478 . S
C457 C458 1.397 . S
C458 C457 1.397 . S
C458 C459 1.438 1_545 S
C458 C463 1.429 . S
C459 C442 1.394 . S
C459 C458 1.438 1_565 S
C459 C460 1.428 . S
C460 H452 0.949 . S
C460 C459 1.428 . S
C460 C461 1.345 . S
C461 H453 0.950 . S
C461 C460 1.345 . S
C461 C462 1.424 . S
C462 H454 0.951 1_565 S
C462 C461 1.424 . S
C462 C463 1.347 1_565 S
C463 H455 0.951 . S
C463 C458 1.429 . S
C463 C462 1.347 1_545 S
H464 C465 0.951 . S
C465 H464 0.951 . S
C465 C471 1.265 . S
H466 C471 0.950 . S
H467 C475 0.949 . S
H468 C476 0.950 . S
H469 C477 0.951 . S
H470 C478 0.951 . S
C471 C465 1.265 . S
C471 H466 0.950 . S
C471 C472 1.478 . S
C472 C471 1.478 . S
C472 C473 1.397 . S
C472 C489 1.394 . S
C473 C472 1.397 . S
C473 C474 1.438 1_655 S
C473 C478 1.429 . S
C474 C473 1.438 1_455 S
C474 C475 1.428 . S
C474 C487 1.394 . S
C475 H467 0.949 . S
C475 C474 1.428 . S
C475 C476 1.345 1_455 S
C476 H468 0.950 . S
C476 C475 1.345 1_655 S
C476 C477 1.424 . S
C477 H469 0.951 . S
C477 C476 1.424 . S
C477 C478 1.347 . S
C478 H470 0.951 . S
C478 C473 1.429 . S
C478 C477 1.347 . S
H479 C480 0.951 . S
C480 H479 0.951 . S
C480 C486 1.265 . S
H481 C486 0.950 . S
H482 C490 0.949 . S
H483 C491 0.950 . S
H484 C492 0.951 . S
H485 C493 0.951 . S
C486 C480 1.265 . S
C486 H481 0.950 . S
C486 C487 1.478 . S
C487 C474 1.394 . S
C487 C486 1.478 . S
C487 C488 1.397 . S
C488 C487 1.397 . S
C488 C489 1.438 1_455 S
C488 C493 1.429 . S
C489 C472 1.394 . S
C489 C488 1.438 1_655 S
C489 C490 1.428 . S
C490 H482 0.949 . S
C490 C489 1.428 . S
C490 C491 1.345 1_655 S
C491 H483 0.950 . S
C491 C490 1.345 1_455 S
C491 C492 1.424 . S
C492 H484 0.951 . S
C492 C491 1.424 . S
C492 C493 1.347 . S
C493 H485 0.951 . S
C493 C488 1.429 . S
C493 C492 1.347 . S
H494 C495 0.951 . S
C495 H494 0.951 . S
C495 C501 1.265 . S
H496 C501 0.950 . S
H497 C505 0.949 . S
H498 C506 0.950 . S
H499 C507 0.951 . S
H500 C508 0.951 . S
C501 C495 1.265 . S
C501 H496 0.950 . S
C501 C502 1.478 . S
C502 C501 1.478 . S
C502 C503 1.397 . S
C502 C519 1.394 . S
C503 C502 1.397 . S
C503 C504 1.438 . S
C503 C508 1.429 . S
C504 C503 1.438 . S
C504 C505 1.428 . S
C504 C517 1.394 . S
C505 H497 0.949 . S
C505 C504 1.428 . S
C505 C506 1.345 . S
C506 H498 0.950 . S
C506 C505 1.345 . S
C506 C507 1.424 . S
C507 H499 0.951 . S
C507 C506 1.424 . S
C507 C508 1.347 . S
C508 H500 0.951 . S
C508 C503 1.429 . S
C508 C507 1.347 . S
H509 C510 0.951 . S
C510 H509 0.951 . S
C510 C516 1.265 . S
H511 C516 0.950 . S
H512 C520 0.949 . S
H513 C521 0.950 . S
H514 C522 0.951 . S
H515 C523 0.951 . S
C516 C510 1.265 . S
C516 H511 0.950 . S
C516 C517 1.478 . S
C517 C504 1.394 . S
C517 C516 1.478 . S
C517 C518 1.397 . S
C518 C517 1.397 . S
C518 C519 1.438 . S
C518 C523 1.429 . S
C519 C502 1.394 . S
C519 C518 1.438 . S
C519 C520 1.428 . S
C520 H512 0.949 . S
C520 C519 1.428 . S
C520 C521 1.345 . S
C521 H513 0.950 . S
C521 C520 1.345 . S
C521 C522 1.424 . S
C522 H514 0.951 . S
C522 C521 1.424 . S
C522 C523 1.347 . S
C523 H515 0.951 . S
C523 C518 1.429 . S
C523 C522 1.347 . S
H524 C525 0.951 . S
C525 H524 0.951 . S
C525 C531 1.265 . S
H526 C531 0.950 . S
H527 C535 0.949 . S
H528 C536 0.950 . S
H529 C537 0.951 . S
H530 C538 0.952 . S
C531 C525 1.265 . S
C531 H526 0.950 . S
C531 C532 1.478 . S
C532 C531 1.478 . S
C532 C533 1.405 . S
C532 C549 1.394 . S
C533 C532 1.405 . S
C533 C534 1.429 1_545 S
C533 C538 1.429 . S
C534 C533 1.429 1_565 S
C534 C535 1.428 . S
C534 C547 1.394 . S
C535 H527 0.949 . S
C535 C534 1.428 . S
C535 C536 1.345 . S
C536 H528 0.950 . S
C536 C535 1.345 . S
C536 C537 1.424 . S
C537 H529 0.951 . S
C537 C536 1.424 . S
C537 C538 1.346 1_565 S
C538 H530 0.952 . S
C538 C533 1.429 . S
C538 C537 1.346 1_545 S
H539 C540 0.951 . S
C540 H539 0.951 . S
C540 C546 1.265 . S
H541 C546 0.950 . S
H542 C550 0.949 . S
H543 C551 0.950 . S
H544 C552 0.951 . S
H545 C553 0.952 . S
C546 C540 1.265 . S
C546 H541 0.950 . S
C546 C547 1.478 . S
C547 C534 1.394 . S
C547 C546 1.478 . S
C547 C548 1.405 . S
C548 C547 1.405 . S
C548 C549 1.429 1_565 S
C548 C553 1.429 . S
C549 C532 1.394 . S
C549 C548 1.429 1_545 S
C549 C550 1.428 . S
C550 H542 0.949 . S
C550 C549 1.428 . S
C550 C551 1.345 . S
C551 H543 0.950 . S
C551 C550 1.345 . S
C551 C552 1.424 . S
C552 H544 0.951 . S
C552 C551 1.424 . S
C552 C553 1.346 1_545 S
C553 H545 0.952 . S
C553 C548 1.429 . S
C553 C552 1.346 1_565 S
H554 C555 0.951 . S
C555 H554 0.951 . S
C555 C561 1.265 . S
H556 C561 0.950 . S
H557 C565 0.949 . S
H558 C566 0.950 . S
H559 C567 0.951 . S
H560 C568 0.951 . S
C561 C555 1.265 . S
C561 H556 0.950 . S
C561 C562 1.478 . S
C562 C561 1.478 . S
C562 C563 1.397 . S
C562 C579 1.394 . S
C563 C562 1.397 . S
C563 C564 1.438 1_665 S
C563 C568 1.429 . S
C564 C563 1.438 1_445 S
C564 C565 1.428 . S
C564 C577 1.394 . S
C565 H557 0.949 . S
C565 C564 1.428 . S
C565 C566 1.345 1_545 S
C566 H558 0.950 . S
C566 C565 1.345 1_565 S
C566 C567 1.424 . S
C567 H559 0.951 . S
C567 C566 1.424 . S
C567 C568 1.347 1_455 S
C568 H560 0.951 . S
C568 C563 1.429 . S
C568 C567 1.347 1_655 S
H569 C570 0.951 . S
C570 H569 0.951 . S
C570 C576 1.265 . S
H571 C576 0.950 . S
H572 C580 0.949 . S
H573 C581 0.950 . S
H574 C582 0.951 . S
H575 C583 0.951 . S
C576 C570 1.265 . S
C576 H571 0.950 . S
C576 C577 1.478 . S
C577 C564 1.394 . S
C577 C576 1.478 . S
C577 C578 1.397 . S
C578 C577 1.397 . S
C578 C579 1.438 1_445 S
C578 C583 1.429 . S
C579 C562 1.394 . S
C579 C578 1.438 1_665 S
C579 C580 1.428 . S
C580 H572 0.949 . S
C580 C579 1.428 . S
C580 C581 1.345 1_565 S
C581 H573 0.950 . S
C581 C580 1.345 1_545 S
C581 C582 1.424 . S
C582 H574 0.951 . S
C582 C581 1.424 . S
C582 C583 1.347 1_655 S
C583 H575 0.951 . S
C583 C578 1.429 . S
C583 C582 1.347 1_455 S
C105 C10 0.991 . S
C120 C75 1.019 . S
C135 C21 1.036 . S
C150 C86 1.055 . S
C165 C36 1.055 . S
C180 C101 1.034 . S
C195 C47 1.070 . S
C210 C60 1.076 . S
C225 C99 1.034 . S
C240 C8 1.053 . S
C255 C62 0.991 . S
C270 C23 1.020 . S
C285 C34 0.910 . S
C300 C73 0.929 . S
C315 C88 0.991 . S
C330 C49 1.020 . S
C345 C5 1.522 . S
C360 C83 1.529 . S
C375 C91 1.527 . S
C390 C13 1.531 . S
C405 C31 1.526 . S
C420 C57 1.526 . S
C435 C39 1.491 . S
C450 C65 1.510 . S
C465 C78 1.531 . S
C480 C0 1.527 . S
C495 C96 1.468 . S
C510 C18 1.465 . S
C525 C26 1.525 . S
C540 C52 1.533 . S
C555 C44 1.524 . S
C570 C70 1.527 . S
